# Generated by pormake.
# Topology pth, (4,4)-cn, num edge types: 1
# Building blocks:
#     Node 0, Type 0, BuildingBlock: QUQFOY_clean_sbu_3, # of connection points: 4
#     Node 1, Type 0, BuildingBlock: QUQFOY_clean_sbu_3, # of connection points: 4
#     Node 2, Type 0, BuildingBlock: QUQFOY_clean_sbu_3, # of connection points: 4
#     Node 3, Type 1, BuildingBlock: MIFKUJ_clean_linker_1, # of connection points: 4
#     Node 4, Type 1, BuildingBlock: MIFKUJ_clean_linker_1, # of connection points: 4
#     Node 5, Type 1, BuildingBlock: MIFKUJ_clean_linker_1, # of connection points: 4
#     Edge 6, Type (0, 1), BuildingBlock: UVAHIK_clean_linker_0, # of connection points: 2
#     Edge 7, Type (0, 1), BuildingBlock: UVAHIK_clean_linker_0, # of connection points: 2
#     Edge 8, Type (0, 1), BuildingBlock: UVAHIK_clean_linker_0, # of connection points: 2
#     Edge 9, Type (0, 1), BuildingBlock: UVAHIK_clean_linker_0, # of connection points: 2
#     Edge 10, Type (0, 1), BuildingBlock: UVAHIK_clean_linker_0, # of connection points: 2
#     Edge 11, Type (0, 1), BuildingBlock: UVAHIK_clean_linker_0, # of connection points: 2
#     Edge 12, Type (0, 1), BuildingBlock: UVAHIK_clean_linker_0, # of connection points: 2
#     Edge 13, Type (0, 1), BuildingBlock: UVAHIK_clean_linker_0, # of connection points: 2
#     Edge 14, Type (0, 1), BuildingBlock: UVAHIK_clean_linker_0, # of connection points: 2
#     Edge 15, Type (0, 1), BuildingBlock: UVAHIK_clean_linker_0, # of connection points: 2
#     Edge 16, Type (0, 1), BuildingBlock: UVAHIK_clean_linker_0, # of connection points: 2
#     Edge 17, Type (0, 1), BuildingBlock: UVAHIK_clean_linker_0, # of connection points: 2
# Relax obj value: 0.016
# Max RMSD: 0.072
# Mean RMSD: 0.058
data_MOF--net-pth--node1-QUQFOY_clean_sbu_3--node2-MIFKUJ_clean_linker_1--edge1-UVAHIK_clean_linker_0
_symmetry_space_group_name_H-M    P1
_symmetry_Int_Tables_number       1
_symmetry_cell_setting            triclinic
loop_
_symmetry_equiv_pos_as_xyz
'x, y, z'
_cell_length_a     36.891535
_cell_length_b     36.62912
_cell_length_c     81.658211
_cell_angle_alpha  90.013042
_cell_angle_beta   90.616974
_cell_angle_gamma 120.66946
loop_
_atom_site_label
_atom_site_type_symbol
_atom_site_fract_x
_atom_site_fract_y
_atom_site_fract_z
_atom_type_partial_charge
C0 C 0.98988 0.10596 0.06681 0.0
O1 O 0.9633 0.0978 0.05532 0.0
Cd2 Cd 0.95929 0.05785 0.03147 0.0
O3 O 0.01356 0.09002 0.06665 0.0
Cd4 Cd 0.0249 0.03971 0.0502 0.0
C5 C 0.06426 0.11293 0.02039 0.0
O6 O 0.95264 0.99275 0.0406 0.0
O7 O 0.0008 0.98698 0.02819 0.0
O8 O 0.02456 0.00793 0.07628 0.0
C9 C 0.96194 0.97355 0.03004 0.0
O10 O 0.02615 0.1027 0.01758 0.0
C11 C 0.05703 0.00533 0.0737 0.0
O12 O 0.07358 0.09627 0.03217 0.0
O13 O 0.07543 0.01947 0.06012 0.0
C14 C 0.09279 0.06445 0.40346 0.0
O15 O 0.11579 0.09603 0.39443 0.0
Cd16 Cd 0.08976 0.11141 0.36987 0.0
O17 O 0.05336 0.0414 0.40058 0.0
Cd18 Cd -0.00223 0.03734 0.38206 0.0
C19 C 0.04243 0.01221 0.35145 0.0
O20 O 0.02812 0.11315 0.37717 0.0
O21 O 0.97443 0.07058 0.36213 0.0
O22 O 0.95758 0.02492 0.40687 0.0
C23 C 0.00195 0.10839 0.36595 0.0
O24 O 0.0722 0.05085 0.35196 0.0
C25 C 0.92388 0.99326 0.40134 0.0
O26 O 0.01181 -0.00174 0.36137 0.0
O27 O 0.92453 0.98153 0.38674 0.0
C28 C 0.95468 0.07424 0.68533 0.0
O29 O 0.95935 0.09945 0.69692 0.0
Cd30 Cd -0.00129 0.10562 0.72154 0.0
O31 O 0.97369 0.05341 0.6858 0.0
Cd32 Cd 0.02484 0.04608 0.70317 0.0
C33 C 0.95152 6e-05 0.73243 0.0
O34 O 0.06667 0.11789 0.71457 0.0
O35 O 0.07356 0.06883 0.72631 0.0
O36 O 0.06875 0.0575 0.67967 0.0
C37 C 0.08523 0.10784 0.72528 0.0
O38 O 0.95903 0.03748 0.73539 0.0
C39 C 0.06793 0.02251 0.68057 0.0
O40 O 0.96912 0.99284 0.72052 0.0
O41 O 0.04586 -0.00267 0.69188 0.0
H42 H 0.14198 0.53899 0.18857 0.0
H43 H 0.12853 0.47675 0.1724 0.0
H44 H 0.00386 0.40533 0.19282 0.0
H45 H 0.01717 0.46764 0.20866 0.0
H46 H 0.09836 0.58159 0.18654 0.0
H47 H 0.13239 0.51183 0.22928 0.0
H48 H 0.12151 0.45335 0.24714 0.0
H49 H 0.00491 0.44072 0.26381 0.0
H50 H 0.01575 0.49884 0.24587 0.0
H51 H 0.02569 0.60619 0.24419 0.0
H52 H 0.01971 0.66121 0.25838 0.0
H53 H 0.13694 0.75693 0.23708 0.0
H54 H 0.1442 0.70124 0.22385 0.0
H55 H 0.07835 0.58021 0.24657 0.0
H56 H 0.03511 0.63804 0.20284 0.0
H57 H 0.04018 0.69621 0.1865 0.0
H58 H 0.16533 0.7291 0.1716 0.0
H59 H 0.15965 0.67018 0.18786 0.0
C60 C 0.08074 0.5078 0.19991 0.0
C61 C 0.11192 0.50979 0.18963 0.0
C62 C 0.10428 0.47419 0.1805 0.0
C63 C 0.06512 0.43623 0.18135 0.0
C64 C 0.0342 0.43424 0.19182 0.0
C65 C 0.04192 0.46969 0.20099 0.0
C66 C 0.08745 0.54603 0.20881 0.0
C67 C 0.09496 0.58171 0.19972 0.0
C68 C 0.08185 0.54575 0.22591 0.0
C69 C 0.07483 0.50956 0.23625 0.0
C70 C 0.10435 0.4962 0.2367 0.0
C71 C 0.09826 0.46306 0.24697 0.0
C72 C 0.06238 0.44257 0.25685 0.0
C73 C 0.03264 0.45568 0.25621 0.0
C74 C 0.03893 0.48902 0.24607 0.0
C75 C 0.08521 0.64951 0.23284 0.0
C76 C 0.05035 0.639 0.2427 0.0
C77 C 0.04667 0.67065 0.25063 0.0
C78 C 0.07758 0.71369 0.24875 0.0
C79 C 0.11268 0.72416 0.23893 0.0
C80 C 0.11665 0.69234 0.23118 0.0
C81 C 0.08807 0.61531 0.22428 0.0
C82 C 0.08253 0.58047 0.23343 0.0
C83 C 0.09455 0.61599 0.20719 0.0
C84 C 0.09722 0.65021 0.19671 0.0
C85 C 0.06365 0.65784 0.19606 0.0
C86 C 0.06673 0.69126 0.18679 0.0
C87 C 0.1034 0.71766 0.1779 0.0
C88 C 0.1366 0.70925 0.17824 0.0
C89 C 0.13346 0.67569 0.18753 0.0
H90 H 0.52751 0.9718 0.50167 0.0
H91 H 0.57601 0.96281 0.48432 0.0
H92 H 0.57522 0.87275 0.51859 0.0
H93 H 0.52503 0.88011 0.53561 0.0
H94 H 0.45301 0.92587 0.50982 0.0
H95 H 0.57771 0.00424 0.54156 0.0
H96 H 0.64302 0.02252 0.55637 0.0
H97 H 0.57398 0.91281 0.58713 0.0
H98 H 0.50857 0.89487 0.57237 0.0
H99 H 0.38962 0.89371 0.57532 0.0
H100 H 0.34142 0.90316 0.5926 0.0
H101 H 0.36327 0.01109 0.5635 0.0
H102 H 0.41357 0.00309 0.54704 0.0
H103 H 0.47332 0.94708 0.56993 0.0
H104 H 0.3427 0.89123 0.53636 0.0
H105 H 0.29049 0.90423 0.5231 0.0
H106 H 0.38866 0.00147 0.49344 0.0
H107 H 0.44064 0.99007 0.50734 0.0
C108 C 0.5228 0.92698 0.52008 0.0
C109 C 0.53732 0.94973 0.50541 0.0
C110 C 0.56503 0.94463 0.4955 0.0
C111 C 0.57923 0.91711 0.50017 0.0
C112 C 0.56491 0.8944 0.51483 0.0
C113 C 0.5365 0.89886 0.52459 0.0
C114 C 0.49277 0.93214 0.53044 0.0
C115 C 0.45766 0.93075 0.52295 0.0
C116 C 0.49878 0.93893 0.54755 0.0
C117 C 0.53845 0.94808 0.55584 0.0
C118 C 0.57675 0.98391 0.55138 0.0
C119 C 0.61391 0.99443 0.55988 0.0
C120 C 0.61341 0.96904 0.57286 0.0
C121 C 0.57519 0.93267 0.57708 0.0
C122 C 0.53789 0.92252 0.56873 0.0
C123 C 0.40464 0.94722 0.55972 0.0
C124 C 0.38419 0.91957 0.57276 0.0
C125 C 0.35624 0.92476 0.58251 0.0
C126 C 0.34798 0.95764 0.57938 0.0
C127 C 0.36906 0.98566 0.56641 0.0
C128 C 0.39748 0.98081 0.55682 0.0
C129 C 0.4337 0.9409 0.54929 0.0
C130 C 0.46845 0.94166 0.55682 0.0
C131 C 0.42869 0.93622 0.53205 0.0
C132 C 0.3957 0.94014 0.52303 0.0
C133 C 0.35288 0.91541 0.52703 0.0
C134 C 0.32304 0.92267 0.51935 0.0
C135 C 0.33547 0.95437 0.50737 0.0
C136 C 0.37809 0.97761 0.50291 0.0
C137 C 0.40783 0.9707 0.51069 0.0
H138 H 0.49143 0.45531 0.84939 0.0
H139 H 0.43566 0.39903 0.83252 0.0
H140 H 0.34764 0.43477 0.84974 0.0
H141 H 0.40369 0.49143 0.86637 0.0
H142 H 0.52342 0.54026 0.84713 0.0
H143 H 0.45992 0.43471 0.88863 0.0
H144 H 0.40406 0.38071 0.90564 0.0
H145 H 0.37256 0.47318 0.92204 0.0
H146 H 0.42822 0.52699 0.90486 0.0
H147 H 0.54563 0.64397 0.90352 0.0
H148 H 0.60075 0.69937 0.9208 0.0
H149 H 0.68636 0.65745 0.90653 0.0
H150 H 0.63151 0.60328 0.88885 0.0
H151 H 0.51299 0.55698 0.90689 0.0
H152 H 0.57711 0.66242 0.86514 0.0
H153 H 0.6325 0.71562 0.84793 0.0
H154 H 0.66497 0.62289 0.83263 0.0
H155 H 0.60849 0.56951 0.84956 0.0
C156 C 0.45162 0.47736 0.85918 0.0
C157 C 0.46005 0.45084 0.84958 0.0
C158 C 0.42813 0.41856 0.84005 0.0
C159 C 0.38732 0.41254 0.83983 0.0
C160 C 0.37887 0.4389 0.84958 0.0
C161 C 0.41075 0.47101 0.85918 0.0
C162 C 0.48595 0.51286 0.86864 0.0
C163 C 0.52146 0.54356 0.86024 0.0
C164 C 0.48287 0.51775 0.88565 0.0
C165 C 0.44796 0.48473 0.89542 0.0
C166 C 0.44067 0.4432 0.89576 0.0
C167 C 0.40903 0.41251 0.90557 0.0
C168 C 0.38404 0.4228 0.91516 0.0
C169 C 0.39108 0.46429 0.91465 0.0
C170 C 0.42297 0.49506 0.90493 0.0
C171 C 0.58461 0.61973 0.89488 0.0
C172 C 0.57647 0.64713 0.90401 0.0
C173 C 0.60794 0.67856 0.91397 0.0
C174 C 0.64799 0.68275 0.91518 0.0
C175 C 0.65618 0.65565 0.90574 0.0
C176 C 0.6248 0.62452 0.89566 0.0
C177 C 0.55037 0.58437 0.88537 0.0
C178 C 0.51491 0.55367 0.89377 0.0
C179 C 0.55362 0.57937 0.86839 0.0
C180 C 0.5889 0.61214 0.85869 0.0
C181 C 0.59648 0.65373 0.8582 0.0
C182 C 0.6283 0.68414 0.84838 0.0
C183 C 0.65334 0.67362 0.83888 0.0
C184 C 0.64593 0.63196 0.83958 0.0
C185 C 0.61385 0.60146 0.84932 0.0
C186 C 0.96536 0.14922 0.0816 0.0
C187 C 0.9945 0.13553 0.08012 0.0
C188 C 0.97107 0.17909 0.09353 0.0
C189 C 0.03043 0.23156 0.13183 0.0
H190 H 0.00664 0.31911 0.11879 0.0
C191 C 0.0854 0.38647 0.16897 0.0
C192 C 0.05575 0.3994 0.1708 0.0
C193 C 0.0767 0.35238 0.15866 0.0
C194 C 0.01302 0.29463 0.12267 0.0
H195 H 0.05208 0.14187 0.09025 0.0
H196 H 0.06256 0.19468 0.11079 0.0
H197 H 0.99336 0.26276 0.09954 0.0
H198 H 0.9939 0.38695 0.16325 0.0
H199 H 0.97872 0.32746 0.1453 0.0
H200 H 0.05098 0.26431 0.15488 0.0
C201 C 0.03487 0.18181 0.10293 0.0
C202 C 0.00528 0.26222 0.11166 0.0
C203 C 0.02897 0.15166 0.09108 0.0
C204 C 0.01719 0.37745 0.1622 0.0
C205 C 0.00865 0.34366 0.15181 0.0
C206 C 0.03847 0.26423 0.14281 0.0
C207 C 0.00626 0.19628 0.10417 0.0
C208 C 0.01383 0.23023 0.1161 0.0
C209 C 0.03839 0.33091 0.14986 0.0
C210 C 0.02979 0.29605 0.13833 0.0
H211 H 0.93824 0.13713 0.07346 0.0
H212 H 0.94794 0.18884 0.09435 0.0
H213 H 0.03685 0.20714 0.13573 0.0
H214 H 0.11526 0.40265 0.17553 0.0
H215 H 0.10031 0.34341 0.15729 0.0
C216 C 0.84552 0.94782 0.4037 0.0
C217 C 0.88526 0.97265 0.41122 0.0
C218 C 0.80881 0.93228 0.41288 0.0
C219 C 0.76659 0.90926 0.45459 0.0
H220 H 0.68951 0.94402 0.4386 0.0
C221 C 0.64738 0.91901 0.49662 0.0
C222 C 0.60957 0.91291 0.48983 0.0
C223 C 0.67765 0.9186 0.48661 0.0
C224 C 0.70998 0.93306 0.44314 0.0
H225 H 0.91791 -0.00125 0.43434 0.0
H226 H 0.85381 0.97098 0.45039 0.0
H227 H 0.74813 0.95516 0.42173 0.0
H228 H 0.57253 0.89932 0.46753 0.0
H229 H 0.62452 0.89688 0.45008 0.0
H230 H 0.72856 0.88706 0.47599 0.0
C231 C 0.85105 0.96377 0.43741 0.0
C232 C 0.74371 0.93963 0.43345 0.0
C233 C 0.88769 0.97988 0.4282 0.0
C234 C 0.60175 0.90466 0.47299 0.0
C235 C 0.63167 0.90351 0.46302 0.0
C236 C 0.73244 0.90206 0.4642 0.0
C237 C 0.81128 0.94066 0.42977 0.0
C238 C 0.7728 0.92862 0.43922 0.0
C239 C 0.67045 0.9114 0.46962 0.0
C240 C 0.7042 0.91475 0.45876 0.0
H241 H 0.84272 0.94176 0.39063 0.0
H242 H 0.77846 0.91437 0.40674 0.0
H243 H 0.78846 0.90018 0.45925 0.0
H244 H 0.6542 0.92575 0.50957 0.0
H245 H 0.7073 0.92552 0.49214 0.0
C246 C 0.90974 0.97404 0.75806 0.0
C247 C 0.92194 0.96494 0.74308 0.0
C248 C 0.88139 0.94139 0.76812 0.0
C249 C 0.83322 0.82621 0.77606 0.0
H250 H 0.75197 0.84305 0.79953 0.0
C251 C 0.69293 0.69415 0.81236 0.0
C252 C 0.6862 0.70573 0.82798 0.0
C253 C 0.72251 0.72471 0.80186 0.0
C254 C 0.77469 0.83805 0.79315 0.0
H255 H 0.91404 0.91426 0.72696 0.0
H256 H 0.86351 0.85701 0.7444 0.0
H257 H 0.801 0.8978 0.78109 0.0
H258 H 0.7066 0.75845 0.84497 0.0
H259 H 0.75743 0.8118 0.82647 0.0
H260 H 0.80596 0.76587 0.788 0.0
C261 C 0.87655 0.88951 0.74849 0.0
C262 C 0.80291 0.86945 0.78261 0.0
C263 C 0.90535 0.9223 0.73845 0.0
C264 C 0.71027 0.7485 0.83291 0.0
C265 C 0.7395 0.77907 0.82235 0.0
C266 C 0.80461 0.79454 0.7865 0.0
C267 C 0.86405 0.8987 0.76342 0.0
C268 C 0.8329 0.86421 0.77407 0.0
C269 C 0.74567 0.76754 0.80668 0.0
C270 C 0.7754 0.8004 0.79528 0.0
H271 H 0.92228 0.00652 0.7621 0.0
H272 H 0.87333 0.94972 0.7797 0.0
H273 H 0.85616 0.82128 0.76983 0.0
H274 H 0.67454 0.66165 0.80805 0.0
H275 H 0.72639 0.71504 0.78978 0.0
C276 C 0.09754 0.96951 0.08094 0.0
C277 C 0.07095 0.98456 0.08564 0.0
C278 C 0.10652 0.94552 0.09179 0.0
C279 C 0.06124 0.87792 0.12823 0.0
H280 H 0.16721 0.87965 0.12968 0.0
C281 C 0.09075 0.77835 0.17467 0.0
C282 C 0.10661 0.75365 0.16832 0.0
C283 C 0.09092 0.81027 0.1653 0.0
C284 C 0.13741 0.87878 0.12933 0.0
H285 H 0.03519 0.98878 0.10569 0.0
H286 H 0.05192 0.94834 0.12476 0.0
H287 H 0.15997 0.9299 0.11219 0.0
H288 H 0.13641 0.74416 0.14729 0.0
H289 H 0.13697 0.80032 0.13094 0.0
H290 H 0.03866 0.82696 0.14532 0.0
C291 C 0.06471 0.95365 0.11254 0.0
C292 C 0.13321 0.90745 0.11931 0.0
C293 C 0.05533 0.9771 0.10164 0.0
C294 C 0.12421 0.76279 0.15259 0.0
C295 C 0.12455 0.79494 0.14322 0.0
C296 C 0.06555 0.84961 0.1383 0.0
C297 C 0.08941 0.9365 0.10761 0.0
C298 C 0.09498 0.90728 0.11862 0.0
C299 C 0.10715 0.81843 0.14938 0.0
C300 C 0.1036 0.84963 0.13894 0.0
H301 H 0.10998 0.97474 0.06865 0.0
H302 H 0.12542 0.93259 0.08754 0.0
H303 H 0.03098 0.87603 0.12772 0.0
H304 H 0.0779 0.77283 0.18689 0.0
H305 H 0.07799 0.82839 0.17047 0.0
C306 C 0.09006 0.01272 0.42418 0.0
C307 C 0.11219 0.05309 0.41696 0.0
C308 C 0.10946 0.00072 0.43605 0.0
C309 C 0.1966 0.04182 0.46597 0.0
H310 H 0.19509 0.93675 0.4578 0.0
C311 C 0.31636 0.00611 0.4961 0.0
C312 C 0.3046 0.96393 0.49962 0.0
C313 C 0.28865 0.01534 0.48792 0.0
C314 C 0.19516 0.96572 0.46052 0.0
H315 H 0.17149 0.11305 0.41701 0.0
H316 H 0.20512 0.09219 0.43792 0.0
H317 H 0.15393 0.95622 0.44022 0.0
H318 H 0.25366 0.89843 0.49778 0.0
H319 H 0.20461 0.91466 0.48399 0.0
H320 H 0.23768 0.05145 0.48627 0.0
C321 C 0.17282 0.06986 0.43432 0.0
C322 C 0.17167 0.97692 0.45038 0.0
C323 C 0.15363 0.08169 0.42229 0.0
C324 C 0.26373 0.93128 0.49531 0.0
C325 C 0.23578 0.94056 0.48722 0.0
C326 C 0.21968 0.03039 0.47624 0.0
C327 C 0.15114 0.02904 0.44112 0.0
C328 C 0.17283 0.01545 0.45282 0.0
C329 C 0.24814 0.98269 0.4832 0.0
C330 C 0.22 0.99263 0.47343 0.0
H331 H 0.05809 0.98992 0.42034 0.0
H332 H 0.09199 0.96916 0.44119 0.0
H333 H 0.19757 0.07145 0.46823 0.0
H334 H 0.34726 0.03217 0.49955 0.0
H335 H 0.29958 0.04809 0.48488 0.0
C336 C 0.13846 0.12762 0.74783 0.0
C337 C 0.11652 0.13934 0.7369 0.0
C338 C 0.16736 0.15692 0.75911 0.0
C339 C 0.1948 0.25537 0.78098 0.0
H340 H 0.30331 0.26426 0.78752 0.0
C341 C 0.32859 0.38984 0.81933 0.0
C342 C 0.35415 0.37993 0.82896 0.0
C343 C 0.29868 0.35986 0.80849 0.0
C344 C 0.27292 0.26176 0.78603 0.0
H345 H 0.10771 0.19098 0.72918 0.0
H346 H 0.15828 0.24226 0.74896 0.0
H347 H 0.25329 0.21348 0.76762 0.0
H348 H 0.3676 0.33049 0.83519 0.0
H349 H 0.3149 0.2778 0.81644 0.0
H350 H 0.21417 0.30334 0.79949 0.0
C351 C 0.15288 0.21028 0.74882 0.0
C352 C 0.24434 0.23276 0.77458 0.0
C353 C 0.12416 0.18103 0.73744 0.0
C354 C 0.34869 0.33916 0.82775 0.0
C355 C 0.3186 0.30907 0.81698 0.0
C356 C 0.22328 0.28421 0.79251 0.0
C357 C 0.17473 0.19849 0.75977 0.0
C358 C 0.20504 0.22935 0.77191 0.0
C359 C 0.29351 0.31919 0.80711 0.0
C360 C 0.26274 0.28784 0.79514 0.0
H361 H 0.13323 0.0957 0.74772 0.0
H362 H 0.18343 0.14682 0.7675 0.0
H363 H 0.16448 0.25297 0.77935 0.0
H364 H 0.3325 0.42121 0.81984 0.0
H365 H 0.28037 0.36896 0.8009 0.0
C366 C 0.90868 0.0939 0.66934 0.0
C367 C 0.92508 0.06701 0.67163 0.0
C368 C 0.87843 0.08509 0.6571 0.0
C369 C 0.79373 0.9961 0.6349 0.0
H370 H 0.79902 0.0805 0.60482 0.0
C371 C 0.66463 0.95165 0.58574 0.0
C372 C 0.65232 0.98138 0.58243 0.0
C373 C 0.70049 0.96298 0.59533 0.0
C374 C 0.79674 0.05665 0.61326 0.0
H375 H 0.92329 0.01033 0.66261 0.0
H376 H 0.87002 0.9947 0.64147 0.0
H377 H 0.85716 0.09956 0.62409 0.0
H378 H 0.66754 0.04614 0.58649 0.0
H379 H 0.72921 0.06565 0.60371 0.0
H380 H 0.73286 0.95359 0.62471 0.0
C381 C 0.88068 0.02259 0.64913 0.0
C382 C 0.83017 0.06759 0.62423 0.0
C383 C 0.91131 0.0317 0.66119 0.0
C384 C 0.67668 0.02276 0.58874 0.0
C385 C 0.71215 0.03394 0.59854 0.0
C386 C 0.76007 0.98532 0.62412 0.0
C387 C 0.86362 0.04891 0.6471 0.0
C388 C 0.82893 0.03739 0.63514 0.0
C389 C 0.72441 0.00412 0.60206 0.0
C390 C 0.76104 0.01544 0.61316 0.0
H391 H 0.91874 0.12142 0.67715 0.0
H392 H 0.86558 0.10575 0.65583 0.0
H393 H 0.79174 0.97239 0.64336 0.0
H394 H 0.64658 0.91966 0.58085 0.0
H395 H 0.7094 0.93941 0.59746 0.0
C396 C 0.88662 0.92462 0.02181 0.0
C397 C 0.92971 0.94133 0.01889 0.0
C398 C 0.85624 0.89569 0.01081 0.0
C399 C 0.84142 0.86377 0.96777 0.0
H400 H 0.7431 0.76071 0.98273 0.0
C401 C 0.72342 0.73551 0.92273 0.0
C402 C 0.68046 0.71394 0.92676 0.0
C403 C 0.75397 0.76324 0.93396 0.0
C404 C 0.77003 0.78965 0.97835 0.0
H405 H 0.97477 0.94041 0.00228 0.0
H406 H 0.92165 0.89021 0.98299 0.0
H407 H 0.79594 0.8086 0.00258 0.0
H408 H 0.63611 0.70494 0.94582 0.0
H409 H 0.68904 0.75462 0.96504 0.0
H410 H 0.81531 0.84558 0.94361 0.0
C411 C 0.91146 0.8996 0.99378 0.0
C412 C 0.80036 0.81694 0.98973 0.0
C413 C 0.94181 0.92812 0.00487 0.0
C414 C 0.6688 0.72138 0.94219 0.0
C415 C 0.69929 0.7494 0.95334 0.0
C416 C 0.81089 0.83674 0.9564 0.0
C417 C 0.86842 0.88332 -0.00341 0.0
C418 C 0.83636 0.8542 0.98454 0.0
C419 C 0.7423 0.77039 0.94945 0.0
C420 C 0.77481 0.79929 0.96154 0.0
H421 H 0.87637 0.93419 0.03253 0.0
H422 H 0.82325 0.88378 0.01321 0.0
H423 H 0.86866 0.89261 0.96348 0.0
H424 H 0.73354 0.73098 0.91089 0.0
H425 H 0.7868 0.77849 0.93058 0.0
C426 C 0.08267 0.99337 0.3322 0.0
C427 C 0.04422 0.98304 0.33942 0.0
C428 C 0.08492 0.96533 0.32126 0.0
C429 C 0.02659 0.85209 0.30836 0.0
H430 H 0.10606 0.89435 0.27265 0.0
C431 C 0.03331 0.74265 0.25922 0.0
C432 C 0.07328 0.7472 0.25724 0.0
C433 C 0.02881 0.77256 0.26815 0.0
C434 C 0.08381 0.88222 0.2826 0.0
H435 H 0.9777 0.93577 0.34047 0.0
H436 H 0.98119 0.88748 0.3209 0.0
H437 H 0.09875 0.94434 0.29005 0.0
H438 H 0.14 0.78766 0.26286 0.0
H439 H 0.13208 0.8406 0.27798 0.0
H440 H 0.01119 0.78989 0.30059 0.0
C441 C 0.00996 0.91664 0.32406 0.0
C442 C 0.07973 0.91078 0.29264 0.0
C443 C 0.00786 0.94442 0.33522 0.0
C444 C 0.10881 0.78332 0.26392 0.0
C445 C 0.10433 0.81359 0.27264 0.0
C446 C 0.03022 0.82357 0.29815 0.0
C447 C 0.04862 0.92653 0.31706 0.0
C448 C 0.0514 0.89611 0.30578 0.0
C449 C 0.06422 0.80808 0.27505 0.0
C450 C 0.05915 0.8384 0.2853 0.0
H451 H 0.11134 0.02276 0.33528 0.0
H452 H 0.1154 0.97377 0.31641 0.0
H453 H 0.00506 0.83954 0.31851 0.0
H454 H 0.00535 0.71584 0.25392 0.0
H455 H -0.0024 0.76795 0.26967 0.0
C456 C 0.12423 0.04525 0.6597 0.0
C457 C 0.09337 0.01291 0.66944 0.0
C458 C 0.15038 0.03748 0.64993 0.0
C459 C 0.15948 0.95526 0.62867 0.0
H460 H 0.27982 0.03396 0.63275 0.0
C461 C 0.28118 0.92713 0.59562 0.0
C462 C 0.31773 0.9628 0.58965 0.0
C463 C 0.25313 0.93201 0.60545 0.0
C464 C 0.24632 0.01201 0.63123 0.0
H465 H 0.06486 0.94671 0.6762 0.0
H466 H 0.11031 0.9329 0.65874 0.0
H467 H 0.2314 0.04445 0.64933 0.0
H468 H 0.35322 0.03169 0.58944 0.0
H469 H 0.30346 0.04014 0.60581 0.0
H470 H 0.1741 0.92347 0.61021 0.0
C471 C 0.11427 0.96431 0.65884 0.0
C472 C 0.21863 0.01794 0.64082 0.0
C473 C 0.08842 0.97225 0.66885 0.0
C474 C 0.3252 0.00344 0.59362 0.0
C475 C 0.29691 0.00831 0.60327 0.0
C476 C 0.18717 0.94963 0.61888 0.0
C477 C 0.14588 -0.00293 0.64949 0.0
C478 C 0.17498 0.98975 0.63958 0.0
C479 C 0.26063 0.97268 0.60942 0.0
C480 C 0.23098 0.97806 0.61999 0.0
H481 H 0.12886 0.07692 0.65989 0.0
H482 H 0.17422 0.06315 0.6427 0.0
H483 H 0.1259 0.93328 0.62741 0.0
H484 H 0.27397 0.8953 0.59263 0.0
H485 H 0.22582 0.90381 0.61009 0.0
C486 C 0.13932 0.15259 0.01101 0.0
C487 C 0.09792 0.14485 0.00985 0.0
C488 C 0.17085 0.18267 0.00095 0.0
C489 C 0.19887 0.27774 0.97672 0.0
H490 H 0.27339 0.24985 0.95394 0.0
C491 C 0.31111 0.38574 0.9266 0.0
C492 C 0.35136 0.39059 0.92596 0.0
C493 C 0.28048 0.35566 0.93692 0.0
C494 C 0.25325 0.2584 0.96038 0.0
H495 H 0.05729 0.16285 -0.00276 0.0
H496 H 0.11232 0.21533 0.9798 0.0
H497 H 0.21997 0.19791 0.97214 0.0
H498 H 0.39139 0.36831 0.9358 0.0
H499 H 0.33825 0.31629 0.95402 0.0
H500 H 0.23227 0.33834 0.96518 0.0
C501 C 0.12038 0.19824 0.98852 0.0
C502 C 0.22262 0.22859 0.97078 0.0
C503 C 0.08882 0.16797 -0.00154 0.0
C504 C 0.36041 0.36482 0.93587 0.0
C505 C 0.32992 0.33497 0.94628 0.0
C506 C 0.22968 0.30767 0.96643 0.0
C507 C 0.16169 0.20587 0.98964 0.0
C508 C 0.19498 0.23788 0.97898 0.0
C509 C 0.28956 0.33 0.94694 0.0
C510 C 0.25711 0.2983 0.95806 0.0
H511 H 0.14738 0.13531 0.01964 0.0
H512 H 0.20252 0.18816 0.00215 0.0
H513 H 0.17835 0.28597 0.98306 0.0
H514 H 0.30313 0.40486 0.91895 0.0
H515 H 0.24952 0.35218 0.93689 0.0
C516 C 0.9744 0.13862 0.34525 0.0
C517 C 0.00641 0.14451 0.35629 0.0
C518 C 0.97969 0.17167 0.33514 0.0
C519 C 0.04524 0.2882 0.32917 0.0
H520 H 0.00469 0.25864 0.28433 0.0
C521 C 0.08958 0.41296 0.27814 0.0
C522 C 0.05627 0.40817 0.26808 0.0
C523 C 0.08337 0.38115 0.28916 0.0
C524 C 0.01586 0.26732 0.29685 0.0
H525 H 0.06872 0.18987 0.3657 0.0
H526 H 0.07845 0.2474 0.34778 0.0
H527 H 0.99382 0.20296 0.3034 0.0
H528 H 0.99063 0.36613 0.26142 0.0
H529 H 0.97982 0.3104 0.28063 0.0
H530 H 0.06799 0.3528 0.3224 0.0
C531 C 0.0489 0.21747 0.34711 0.0
C532 C 0.00951 0.23543 0.30782 0.0
C533 C 0.04343 0.18446 0.35734 0.0
C534 C 0.01678 0.37075 0.26911 0.0
C535 C 0.01068 0.33878 0.28 0.0
C536 C 0.0519 0.32017 0.31814 0.0
C537 C 0.01731 0.21128 0.33573 0.0
C538 C 0.02398 0.24543 0.32414 0.0
C539 C 0.04385 0.34376 0.2902 0.0
C540 C 0.03717 0.31 0.30189 0.0
H541 H 0.94535 0.10827 0.34427 0.0
H542 H 0.95432 0.16605 0.3268 0.0
H543 H 0.05629 0.297 0.3417 0.0
H544 H 0.12025 0.44165 0.2777 0.0
H545 H 0.10958 0.38565 0.29678 0.0
loop_
_geom_bond_atom_site_label_1
_geom_bond_atom_site_label_2
_geom_bond_distance
_geom_bond_site_symmetry_2
_ccdc_geom_bond_type
C0 O1 1.305 . S
C0 O3 1.160 . S
O1 C0 1.305 . S
O1 Cd2 2.228 1_455 S
Cd2 O1 2.228 1_655 S
Cd2 O6 2.273 . S
Cd2 O10 2.277 1_655 S
O3 C0 1.160 . S
O3 Cd4 2.203 . S
Cd4 O3 2.203 . S
Cd4 O6 2.411 1_455 S
Cd4 O7 2.333 1_545 S
Cd4 O8 2.352 1_545 S
Cd4 O12 2.277 . S
Cd4 O13 2.356 1_545 S
C5 O10 1.209 . S
C5 O12 1.226 . S
O6 Cd2 2.273 . S
O6 Cd4 2.411 1_655 S
O6 C9 1.320 1_545 S
O7 Cd4 2.333 1_565 S
O7 C9 1.214 1_455 S
O8 Cd4 2.352 1_565 S
O8 C11 1.258 . S
C9 O6 1.320 1_565 S
C9 O7 1.214 1_655 S
O10 Cd2 2.277 1_455 S
O10 C5 1.209 . S
C11 O8 1.258 . S
C11 O13 1.282 . S
O12 Cd4 2.277 . S
O12 C5 1.226 . S
O13 Cd4 2.356 1_565 S
O13 C11 1.282 . S
C14 O15 1.306 . S
C14 O17 1.160 . S
O15 C14 1.306 . S
O15 Cd16 2.228 . S
Cd16 O15 2.228 . S
Cd16 O20 2.273 . S
Cd16 O24 2.277 . S
O17 C14 1.160 . S
O17 Cd18 2.203 . S
Cd18 O17 2.203 . S
Cd18 O20 2.411 . S
Cd18 O21 2.333 1_455 S
Cd18 O22 2.352 1_455 S
Cd18 O26 2.277 1_445 S
Cd18 O27 2.356 1_445 S
C19 O24 1.209 1_565 S
C19 O26 1.226 1_455 S
O20 Cd16 2.273 . S
O20 Cd18 2.411 . S
O20 C23 1.320 . S
O21 Cd18 2.333 1_655 S
O21 C23 1.214 1_655 S
O22 Cd18 2.352 1_655 S
O22 C25 1.258 . S
C23 O20 1.320 . S
C23 O21 1.214 1_455 S
O24 Cd16 2.277 . S
O24 C19 1.209 1_545 S
C25 O22 1.258 . S
C25 O27 1.282 1_545 S
O26 Cd18 2.277 1_665 S
O26 C19 1.226 1_655 S
O27 Cd18 2.356 1_665 S
O27 C25 1.282 1_565 S
C28 O29 1.306 . S
C28 O31 1.160 . S
O29 C28 1.306 . S
O29 Cd30 2.228 . S
Cd30 O29 2.228 . S
Cd30 O34 2.273 1_655 S
Cd30 O38 2.277 . S
O31 C28 1.160 . S
O31 Cd32 2.203 1_655 S
Cd32 O31 2.203 1_455 S
Cd32 O34 2.411 . S
Cd32 O35 2.333 . S
Cd32 O36 2.352 . S
Cd32 O40 2.277 1_445 S
Cd32 O41 2.356 1_545 S
C33 O38 1.209 1_565 S
C33 O40 1.226 . S
O34 Cd30 2.273 1_455 S
O34 Cd32 2.411 . S
O34 C37 1.320 . S
O35 Cd32 2.333 . S
O35 C37 1.214 . S
O36 Cd32 2.352 . S
O36 C39 1.258 . S
C37 O34 1.320 . S
C37 O35 1.214 . S
O38 Cd30 2.277 . S
O38 C33 1.209 1_545 S
C39 O36 1.258 . S
C39 O41 1.282 1_545 S
O40 Cd32 2.277 1_665 S
O40 C33 1.226 . S
O41 Cd32 2.356 1_565 S
O41 C39 1.282 1_565 S
H42 C61 0.949 . S
H43 C62 0.950 . S
H44 C64 0.950 1_655 S
H45 C65 0.950 1_655 S
H46 C67 0.950 . S
H47 C70 0.950 . S
H48 C71 0.950 . S
H49 C73 0.951 1_655 S
H50 C74 0.949 1_655 S
H51 C76 0.949 1_655 S
H52 C77 0.950 1_655 S
H53 C79 0.950 . S
H54 C80 0.950 . S
H55 C82 0.950 . S
H56 C85 0.950 1_655 S
H57 C86 0.950 1_655 S
H58 C88 0.951 . S
H59 C89 0.949 . S
C60 C61 1.376 . S
C60 C65 1.386 . S
C60 C66 1.483 . S
C61 H42 0.949 . S
C61 C60 1.376 . S
C61 C62 1.397 . S
C62 H43 0.950 . S
C62 C61 1.397 . S
C62 C63 1.391 . S
C63 C62 1.391 . S
C63 C64 1.405 . S
C64 H44 0.950 1_455 S
C64 C63 1.405 . S
C64 C65 1.367 . S
C65 H45 0.950 1_455 S
C65 C60 1.386 . S
C65 C64 1.367 . S
C66 C60 1.483 . S
C66 C67 1.382 . S
C66 C68 1.403 . S
C67 H46 0.950 . S
C67 C66 1.382 . S
C67 C83 1.411 . S
C68 C66 1.403 . S
C68 C69 1.489 . S
C68 C82 1.411 . S
C69 C68 1.489 . S
C69 C70 1.383 . S
C69 C74 1.382 . S
C70 H47 0.950 . S
C70 C69 1.383 . S
C70 C71 1.395 . S
C71 H48 0.950 . S
C71 C70 1.395 . S
C71 C72 1.288 . S
C72 C71 1.288 . S
C72 C73 1.392 . S
C73 H49 0.951 1_455 S
C73 C72 1.392 . S
C73 C74 1.392 . S
C74 H50 0.949 1_455 S
C74 C69 1.382 . S
C74 C73 1.392 . S
C75 C76 1.376 . S
C75 C80 1.386 . S
C75 C81 1.483 . S
C76 H51 0.949 1_455 S
C76 C75 1.376 . S
C76 C77 1.397 . S
C77 H52 0.950 1_455 S
C77 C76 1.397 . S
C77 C78 1.391 . S
C78 C77 1.391 . S
C78 C79 1.405 . S
C79 H53 0.950 . S
C79 C78 1.405 . S
C79 C80 1.367 . S
C80 H54 0.950 . S
C80 C75 1.386 . S
C80 C79 1.367 . S
C81 C75 1.483 . S
C81 C82 1.382 . S
C81 C83 1.403 . S
C82 H55 0.950 . S
C82 C68 1.411 . S
C82 C81 1.382 . S
C83 C67 1.411 . S
C83 C81 1.403 . S
C83 C84 1.489 . S
C84 C83 1.489 . S
C84 C85 1.383 . S
C84 C89 1.382 . S
C85 H56 0.950 1_455 S
C85 C84 1.383 . S
C85 C86 1.395 . S
C86 H57 0.950 1_455 S
C86 C85 1.395 . S
C86 C87 1.288 . S
C87 C86 1.288 . S
C87 C88 1.392 . S
C88 H58 0.951 . S
C88 C87 1.392 . S
C88 C89 1.392 . S
C89 H59 0.949 . S
C89 C84 1.382 . S
C89 C88 1.392 . S
H90 C109 0.949 . S
H91 C110 0.950 . S
H92 C112 0.950 . S
H93 C113 0.950 . S
H94 C115 0.950 . S
H95 C118 0.950 . S
H96 C119 0.950 . S
H97 C121 0.951 . S
H98 C122 0.949 . S
H99 C124 0.949 . S
H100 C125 0.950 . S
H101 C127 0.950 . S
H102 C128 0.950 . S
H103 C130 0.950 . S
H104 C133 0.950 1_565 S
H105 C134 0.950 1_565 S
H106 C136 0.951 . S
H107 C137 0.949 . S
C108 C109 1.376 . S
C108 C113 1.386 1_545 S
C108 C114 1.483 . S
C109 H90 0.949 . S
C109 C108 1.376 . S
C109 C110 1.397 . S
C110 H91 0.950 . S
C110 C109 1.397 . S
C110 C111 1.391 . S
C111 C110 1.391 . S
C111 C112 1.405 1_545 S
C112 H92 0.950 . S
C112 C111 1.405 1_565 S
C112 C113 1.367 . S
C113 H93 0.950 . S
C113 C108 1.386 1_565 S
C113 C112 1.367 . S
C114 C108 1.483 . S
C114 C115 1.382 . S
C114 C116 1.403 . S
C115 H94 0.950 . S
C115 C114 1.382 . S
C115 C131 1.411 . S
C116 C114 1.403 . S
C116 C117 1.489 . S
C116 C130 1.411 . S
C117 C116 1.489 . S
C117 C118 1.383 . S
C117 C122 1.382 1_545 S
C118 H95 0.950 . S
C118 C117 1.383 . S
C118 C119 1.395 . S
C119 H96 0.950 . S
C119 C118 1.395 . S
C119 C120 1.288 . S
C120 C119 1.288 . S
C120 C121 1.392 1_545 S
C121 H97 0.951 . S
C121 C120 1.392 1_565 S
C121 C122 1.392 . S
C122 H98 0.949 . S
C122 C117 1.382 1_565 S
C122 C121 1.392 . S
C123 C124 1.376 1_545 S
C123 C128 1.386 . S
C123 C129 1.483 . S
C124 H99 0.949 . S
C124 C123 1.376 1_565 S
C124 C125 1.397 . S
C125 H100 0.950 . S
C125 C124 1.397 . S
C125 C126 1.391 1_565 S
C126 C125 1.391 1_545 S
C126 C127 1.405 . S
C127 H101 0.950 . S
C127 C126 1.405 . S
C127 C128 1.367 . S
C128 H102 0.950 . S
C128 C123 1.386 . S
C128 C127 1.367 . S
C129 C123 1.483 . S
C129 C130 1.382 . S
C129 C131 1.403 . S
C130 H103 0.950 . S
C130 C116 1.411 . S
C130 C129 1.382 . S
C131 C115 1.411 . S
C131 C129 1.403 . S
C131 C132 1.489 . S
C132 C131 1.489 . S
C132 C133 1.383 . S
C132 C137 1.382 . S
C133 H104 0.950 1_545 S
C133 C132 1.383 . S
C133 C134 1.395 . S
C134 H105 0.950 1_545 S
C134 C133 1.395 . S
C134 C135 1.288 . S
C135 C134 1.288 . S
C135 C136 1.392 . S
C136 H106 0.951 . S
C136 C135 1.392 . S
C136 C137 1.392 . S
C137 H107 0.949 . S
C137 C132 1.382 . S
C137 C136 1.392 . S
H138 C157 0.949 . S
H139 C158 0.950 . S
H140 C160 0.950 . S
H141 C161 0.950 . S
H142 C163 0.950 . S
H143 C166 0.950 . S
H144 C167 0.950 . S
H145 C169 0.951 . S
H146 C170 0.949 . S
H147 C172 0.949 . S
H148 C173 0.950 . S
H149 C175 0.950 . S
H150 C176 0.950 . S
H151 C178 0.950 . S
H152 C181 0.950 . S
H153 C182 0.950 . S
H154 C184 0.951 . S
H155 C185 0.949 . S
C156 C157 1.376 . S
C156 C161 1.386 . S
C156 C162 1.483 . S
C157 H138 0.949 . S
C157 C156 1.376 . S
C157 C158 1.397 . S
C158 H139 0.950 . S
C158 C157 1.397 . S
C158 C159 1.391 . S
C159 C158 1.391 . S
C159 C160 1.405 . S
C160 H140 0.950 . S
C160 C159 1.405 . S
C160 C161 1.367 . S
C161 H141 0.950 . S
C161 C156 1.386 . S
C161 C160 1.367 . S
C162 C156 1.483 . S
C162 C163 1.382 . S
C162 C164 1.403 . S
C163 H142 0.950 . S
C163 C162 1.382 . S
C163 C179 1.411 . S
C164 C162 1.403 . S
C164 C165 1.489 . S
C164 C178 1.411 . S
C165 C164 1.489 . S
C165 C166 1.383 . S
C165 C170 1.382 . S
C166 H143 0.950 . S
C166 C165 1.383 . S
C166 C167 1.395 . S
C167 H144 0.950 . S
C167 C166 1.395 . S
C167 C168 1.288 . S
C168 C167 1.288 . S
C168 C169 1.392 . S
C169 H145 0.951 . S
C169 C168 1.392 . S
C169 C170 1.392 . S
C170 H146 0.949 . S
C170 C165 1.382 . S
C170 C169 1.392 . S
C171 C172 1.376 . S
C171 C176 1.386 . S
C171 C177 1.483 . S
C172 H147 0.949 . S
C172 C171 1.376 . S
C172 C173 1.397 . S
C173 H148 0.950 . S
C173 C172 1.397 . S
C173 C174 1.391 . S
C174 C173 1.391 . S
C174 C175 1.405 . S
C175 H149 0.950 . S
C175 C174 1.405 . S
C175 C176 1.367 . S
C176 H150 0.950 . S
C176 C171 1.386 . S
C176 C175 1.367 . S
C177 C171 1.483 . S
C177 C178 1.382 . S
C177 C179 1.403 . S
C178 H151 0.950 . S
C178 C164 1.411 . S
C178 C177 1.382 . S
C179 C163 1.411 . S
C179 C177 1.403 . S
C179 C180 1.489 . S
C180 C179 1.489 . S
C180 C181 1.383 . S
C180 C185 1.382 . S
C181 H152 0.950 . S
C181 C180 1.383 . S
C181 C182 1.395 . S
C182 H153 0.950 . S
C182 C181 1.395 . S
C182 C183 1.288 . S
C183 C182 1.288 . S
C183 C184 1.392 . S
C184 H154 0.951 . S
C184 C183 1.392 . S
C184 C185 1.392 . S
C185 H155 0.949 . S
C185 C180 1.382 . S
C185 C184 1.392 . S
C186 C187 1.349 1_655 S
C186 C188 1.316 . S
C186 H211 0.950 . S
C187 C186 1.349 1_455 S
C187 C203 1.349 . S
C188 C186 1.316 . S
C188 C207 1.413 1_655 S
C188 H212 0.977 . S
C189 C206 1.574 . S
C189 C208 1.368 . S
C189 H213 0.949 . S
H190 C194 0.949 1_655 S
C191 C192 1.349 . S
C191 C193 1.327 . S
C191 H214 0.950 . S
C192 C191 1.349 . S
C192 C204 1.349 . S
C193 C191 1.327 . S
C193 C209 1.429 . S
C193 H215 0.950 . S
C194 H190 0.949 1_455 S
C194 C202 1.567 . S
C194 C210 1.368 . S
H195 C203 0.950 . S
H196 C201 0.950 . S
H197 C202 0.940 1_655 S
H198 C204 0.950 1_655 S
H199 C205 0.950 1_655 S
H200 C206 0.949 . S
C201 H196 0.950 . S
C201 C203 1.327 . S
C201 C207 1.429 . S
C202 C194 1.567 . S
C202 H197 0.940 1_455 S
C202 C208 1.385 . S
C203 C187 1.349 . S
C203 H195 0.950 . S
C203 C201 1.327 . S
C204 C192 1.349 . S
C204 H198 0.950 1_455 S
C204 C205 1.327 . S
C205 H199 0.950 1_455 S
C205 C204 1.327 . S
C205 C209 1.429 . S
C206 C189 1.574 . S
C206 H200 0.949 . S
C206 C210 1.368 . S
C207 C188 1.413 1_455 S
C207 C201 1.429 . S
C207 C208 1.523 . S
C208 C189 1.368 . S
C208 C202 1.385 . S
C208 C207 1.523 . S
C209 C193 1.429 . S
C209 C205 1.429 . S
C209 C210 1.523 . S
C210 C194 1.368 . S
C210 C206 1.368 . S
C210 C209 1.523 . S
H211 C186 0.950 . S
H212 C188 0.977 . S
H213 C189 0.949 . S
H214 C191 0.950 . S
H215 C193 0.950 . S
C216 C217 1.349 . S
C216 C218 1.327 . S
C216 H241 0.950 . S
C217 C216 1.349 . S
C217 C233 1.349 1_545 S
C218 C216 1.327 . S
C218 C237 1.429 . S
C218 H242 0.950 . S
C219 C236 1.574 . S
C219 C238 1.368 1_565 S
C219 H243 0.949 . S
H220 C224 0.949 . S
C221 C222 1.327 1_565 S
C221 C223 1.337 . S
C221 H244 0.962 . S
C222 C221 1.327 1_545 S
C222 C234 1.349 . S
C223 C221 1.337 . S
C223 C239 1.429 1_565 S
C223 H245 0.950 . S
C224 H220 0.949 . S
C224 C232 1.574 . S
C224 C240 1.368 . S
H225 C233 0.950 . S
H226 C231 0.950 . S
H227 C232 0.949 . S
H228 C234 0.950 . S
H229 C235 0.950 . S
H230 C236 0.949 . S
C231 H226 0.950 . S
C231 C233 1.327 . S
C231 C237 1.429 1_565 S
C232 C224 1.574 . S
C232 H227 0.949 . S
C232 C238 1.368 . S
C233 C217 1.349 1_565 S
C233 H225 0.950 . S
C233 C231 1.327 . S
C234 C222 1.349 . S
C234 H228 0.950 . S
C234 C235 1.327 . S
C235 H229 0.950 . S
C235 C234 1.327 . S
C235 C239 1.429 . S
C236 C219 1.574 . S
C236 H230 0.949 . S
C236 C240 1.368 1_565 S
C237 C218 1.429 . S
C237 C231 1.429 1_545 S
C237 C238 1.523 . S
C238 C219 1.368 1_545 S
C238 C232 1.368 . S
C238 C237 1.523 . S
C239 C223 1.429 1_545 S
C239 C235 1.429 . S
C239 C240 1.523 . S
C240 C224 1.368 . S
C240 C236 1.368 1_545 S
C240 C239 1.523 . S
H241 C216 0.950 . S
H242 C218 0.950 . S
H243 C219 0.949 . S
H244 C221 0.962 . S
H245 C223 0.950 . S
C246 C247 1.349 . S
C246 C248 1.327 . S
C246 H271 0.950 . S
C247 C246 1.349 . S
C247 C263 1.349 . S
C248 C246 1.327 . S
C248 C267 1.429 . S
C248 H272 0.950 . S
C249 C266 1.574 . S
C249 C268 1.368 . S
C249 H273 0.949 . S
H250 C254 0.949 . S
C251 C252 1.349 . S
C251 C253 1.327 . S
C251 H274 0.950 . S
C252 C251 1.349 . S
C252 C264 1.349 . S
C253 C251 1.327 . S
C253 C269 1.429 . S
C253 H275 0.950 . S
C254 H250 0.949 . S
C254 C262 1.574 . S
C254 C270 1.368 . S
H255 C263 0.950 . S
H256 C261 0.950 . S
H257 C262 0.949 . S
H258 C264 0.950 . S
H259 C265 0.950 . S
H260 C266 0.949 . S
C261 H256 0.950 . S
C261 C263 1.327 . S
C261 C267 1.429 . S
C262 C254 1.574 . S
C262 H257 0.949 . S
C262 C268 1.368 . S
C263 C247 1.349 . S
C263 H255 0.950 . S
C263 C261 1.327 . S
C264 C252 1.349 . S
C264 H258 0.950 . S
C264 C265 1.327 . S
C265 H259 0.950 . S
C265 C264 1.327 . S
C265 C269 1.429 . S
C266 C249 1.574 . S
C266 H260 0.949 . S
C266 C270 1.368 . S
C267 C248 1.429 . S
C267 C261 1.429 . S
C267 C268 1.523 . S
C268 C249 1.368 . S
C268 C262 1.368 . S
C268 C267 1.523 . S
C269 C253 1.429 . S
C269 C265 1.429 . S
C269 C270 1.523 . S
C270 C254 1.368 . S
C270 C266 1.368 . S
C270 C269 1.523 . S
H271 C246 0.950 . S
H272 C248 0.950 . S
H273 C249 0.949 . S
H274 C251 0.950 . S
H275 C253 0.950 . S
C276 C277 1.349 . S
C276 C278 1.327 . S
C276 H301 0.950 . S
C277 C276 1.349 . S
C277 C293 1.349 . S
C278 C276 1.327 . S
C278 C297 1.429 . S
C278 H302 0.950 . S
C279 C296 1.574 . S
C279 C298 1.368 . S
C279 H303 0.949 . S
H280 C284 0.949 . S
C281 C282 1.349 . S
C281 C283 1.327 . S
C281 H304 0.950 . S
C282 C281 1.349 . S
C282 C294 1.349 . S
C283 C281 1.327 . S
C283 C299 1.429 . S
C283 H305 0.950 . S
C284 H280 0.949 . S
C284 C292 1.574 . S
C284 C300 1.368 . S
H285 C293 0.950 . S
H286 C291 0.950 . S
H287 C292 0.949 . S
H288 C294 0.950 . S
H289 C295 0.950 . S
H290 C296 0.949 . S
C291 H286 0.950 . S
C291 C293 1.327 . S
C291 C297 1.429 . S
C292 C284 1.574 . S
C292 H287 0.949 . S
C292 C298 1.368 . S
C293 C277 1.349 . S
C293 H285 0.950 . S
C293 C291 1.327 . S
C294 C282 1.349 . S
C294 H288 0.950 . S
C294 C295 1.327 . S
C295 H289 0.950 . S
C295 C294 1.327 . S
C295 C299 1.429 . S
C296 C279 1.574 . S
C296 H290 0.949 . S
C296 C300 1.368 . S
C297 C278 1.429 . S
C297 C291 1.429 . S
C297 C298 1.523 . S
C298 C279 1.368 . S
C298 C292 1.368 . S
C298 C297 1.523 . S
C299 C283 1.429 . S
C299 C295 1.429 . S
C299 C300 1.523 . S
C300 C284 1.368 . S
C300 C296 1.368 . S
C300 C299 1.523 . S
H301 C276 0.950 . S
H302 C278 0.950 . S
H303 C279 0.949 . S
H304 C281 0.950 . S
H305 C283 0.950 . S
C306 C307 1.349 . S
C306 C308 1.328 1_545 S
C306 H331 0.950 1_545 S
C307 C306 1.349 . S
C307 C323 1.349 . S
C308 C306 1.328 1_565 S
C308 C327 1.429 1_565 S
C308 H332 0.948 . S
C309 C326 1.574 . S
C309 C328 1.368 . S
C309 H333 0.949 . S
H310 C314 0.949 . S
C311 C312 1.349 . S
C311 C313 1.327 . S
C311 H334 0.950 . S
C312 C311 1.349 . S
C312 C324 1.349 1_545 S
C313 C311 1.327 . S
C313 C329 1.429 . S
C313 H335 0.950 . S
C314 H310 0.949 . S
C314 C322 1.574 . S
C314 C330 1.368 1_565 S
H315 C323 0.950 . S
H316 C321 0.950 . S
H317 C322 0.949 . S
H318 C324 0.950 . S
H319 C325 0.950 . S
H320 C326 0.949 . S
C321 H316 0.950 . S
C321 C323 1.327 . S
C321 C327 1.429 . S
C322 C314 1.574 . S
C322 H317 0.949 . S
C322 C328 1.368 1_565 S
C323 C307 1.349 . S
C323 H315 0.950 . S
C323 C321 1.327 . S
C324 C312 1.349 1_565 S
C324 H318 0.950 . S
C324 C325 1.327 . S
C325 H319 0.950 . S
C325 C324 1.327 . S
C325 C329 1.429 1_565 S
C326 C309 1.574 . S
C326 H320 0.949 . S
C326 C330 1.368 . S
C327 C308 1.429 1_545 S
C327 C321 1.429 . S
C327 C328 1.523 . S
C328 C309 1.368 . S
C328 C322 1.368 1_545 S
C328 C327 1.523 . S
C329 C313 1.429 . S
C329 C325 1.429 1_545 S
C329 C330 1.523 . S
C330 C314 1.368 1_545 S
C330 C326 1.368 . S
C330 C329 1.523 . S
H331 C306 0.950 1_565 S
H332 C308 0.948 . S
H333 C309 0.949 . S
H334 C311 0.950 . S
H335 C313 0.950 . S
C336 C337 1.349 . S
C336 C338 1.327 . S
C336 H361 0.950 . S
C337 C336 1.349 . S
C337 C353 1.349 . S
C338 C336 1.327 . S
C338 C357 1.429 . S
C338 H362 0.950 . S
C339 C356 1.574 . S
C339 C358 1.368 . S
C339 H363 0.949 . S
H340 C344 0.949 . S
C341 C342 1.349 . S
C341 C343 1.327 . S
C341 H364 0.950 . S
C342 C341 1.349 . S
C342 C354 1.349 . S
C343 C341 1.327 . S
C343 C359 1.429 . S
C343 H365 0.950 . S
C344 H340 0.949 . S
C344 C352 1.574 . S
C344 C360 1.368 . S
H345 C353 0.950 . S
H346 C351 0.950 . S
H347 C352 0.949 . S
H348 C354 0.950 . S
H349 C355 0.950 . S
H350 C356 0.949 . S
C351 H346 0.950 . S
C351 C353 1.327 . S
C351 C357 1.429 . S
C352 C344 1.574 . S
C352 H347 0.949 . S
C352 C358 1.368 . S
C353 C337 1.349 . S
C353 H345 0.950 . S
C353 C351 1.327 . S
C354 C342 1.349 . S
C354 H348 0.950 . S
C354 C355 1.327 . S
C355 H349 0.950 . S
C355 C354 1.327 . S
C355 C359 1.429 . S
C356 C339 1.574 . S
C356 H350 0.949 . S
C356 C360 1.368 . S
C357 C338 1.429 . S
C357 C351 1.429 . S
C357 C358 1.523 . S
C358 C339 1.368 . S
C358 C352 1.368 . S
C358 C357 1.523 . S
C359 C343 1.429 . S
C359 C355 1.429 . S
C359 C360 1.523 . S
C360 C344 1.368 . S
C360 C356 1.368 . S
C360 C359 1.523 . S
H361 C336 0.950 . S
H362 C338 0.950 . S
H363 C339 0.949 . S
H364 C341 0.950 . S
H365 C343 0.950 . S
C366 C367 1.349 . S
C366 C368 1.327 . S
C366 H391 0.950 . S
C367 C366 1.349 . S
C367 C383 1.349 . S
C368 C366 1.327 . S
C368 C387 1.429 . S
C368 H392 0.950 . S
C369 C386 1.569 . S
C369 C388 1.368 . S
C369 H393 0.949 1_545 S
H370 C374 0.949 . S
C371 C372 1.359 . S
C371 C373 1.326 . S
C371 H394 0.946 1_545 S
C372 C371 1.359 . S
C372 C384 1.349 . S
C373 C371 1.326 . S
C373 C389 1.432 . S
C373 H395 0.941 1_545 S
C374 H370 0.949 . S
C374 C382 1.574 . S
C374 C390 1.368 . S
H375 C383 0.950 1_565 S
H376 C381 0.950 1_565 S
H377 C382 0.949 . S
H378 C384 0.950 . S
H379 C385 0.950 . S
H380 C386 0.946 1_565 S
C381 H376 0.950 1_545 S
C381 C383 1.327 . S
C381 C387 1.429 . S
C382 C374 1.574 . S
C382 H377 0.949 . S
C382 C388 1.368 . S
C383 C367 1.349 . S
C383 H375 0.950 1_545 S
C383 C381 1.327 . S
C384 C372 1.349 . S
C384 H378 0.950 . S
C384 C385 1.327 . S
C385 H379 0.950 . S
C385 C384 1.327 . S
C385 C389 1.429 . S
C386 C369 1.569 . S
C386 H380 0.946 1_545 S
C386 C390 1.376 . S
C387 C368 1.429 . S
C387 C381 1.429 . S
C387 C388 1.523 . S
C388 C369 1.368 . S
C388 C382 1.368 . S
C388 C387 1.523 . S
C389 C373 1.432 . S
C389 C385 1.429 . S
C389 C390 1.523 . S
C390 C374 1.368 . S
C390 C386 1.376 . S
C390 C389 1.523 . S
H391 C366 0.950 . S
H392 C368 0.950 . S
H393 C369 0.949 1_565 S
H394 C371 0.946 1_565 S
H395 C373 0.941 1_565 S
C396 C397 1.349 . S
C396 C398 1.327 . S
C396 H421 0.950 . S
C397 C396 1.349 . S
C397 C413 1.373 . S
C398 C396 1.327 . S
C398 C417 1.429 1_554 S
C398 H422 0.950 . S
C399 C416 1.574 . S
C399 C418 1.368 . S
C399 H423 0.949 . S
H400 C404 0.949 . S
C401 C402 1.349 . S
C401 C403 1.327 . S
C401 H424 0.950 . S
C402 C401 1.349 . S
C402 C414 1.349 . S
C403 C401 1.327 . S
C403 C419 1.429 . S
C403 H425 0.950 . S
C404 H400 0.949 . S
C404 C412 1.574 . S
C404 C420 1.368 . S
H405 C413 0.941 1_556 S
H406 C411 0.950 . S
H407 C412 0.949 1_554 S
H408 C414 0.950 . S
H409 C415 0.950 . S
H410 C416 0.949 . S
C411 H406 0.950 . S
C411 C413 1.312 1_556 S
C411 C417 1.429 . S
C412 C404 1.574 . S
C412 H407 0.949 1_556 S
C412 C418 1.368 . S
C413 C397 1.373 . S
C413 H405 0.941 1_554 S
C413 C411 1.312 1_554 S
C414 C402 1.349 . S
C414 H408 0.950 . S
C414 C415 1.327 . S
C415 H409 0.950 . S
C415 C414 1.327 . S
C415 C419 1.429 . S
C416 C399 1.574 . S
C416 H410 0.949 . S
C416 C420 1.368 . S
C417 C398 1.429 1_556 S
C417 C411 1.429 . S
C417 C418 1.523 . S
C418 C399 1.368 . S
C418 C412 1.368 . S
C418 C417 1.523 . S
C419 C403 1.429 . S
C419 C415 1.429 . S
C419 C420 1.523 . S
C420 C404 1.368 . S
C420 C416 1.368 . S
C420 C419 1.523 . S
H421 C396 0.950 . S
H422 C398 0.950 . S
H423 C399 0.949 . S
H424 C401 0.950 . S
H425 C403 0.950 . S
C426 C427 1.349 . S
C426 C428 1.327 . S
C426 H451 0.950 . S
C427 C426 1.349 . S
C427 C443 1.349 1_455 S
C428 C426 1.327 . S
C428 C447 1.429 . S
C428 H452 0.950 . S
C429 C446 1.574 . S
C429 C448 1.368 1_655 S
C429 H453 0.949 . S
H430 C434 0.949 . S
C431 C432 1.349 . S
C431 C433 1.327 1_455 S
C431 H454 0.950 1_455 S
C432 C431 1.349 . S
C432 C444 1.349 . S
C433 C431 1.327 1_655 S
C433 C449 1.429 1_655 S
C433 H455 0.950 . S
C434 H430 0.949 . S
C434 C442 1.574 . S
C434 C450 1.368 . S
H435 C443 0.950 . S
H436 C441 0.950 . S
H437 C442 0.949 . S
H438 C444 0.950 . S
H439 C445 0.950 . S
H440 C446 0.949 . S
C441 H436 0.950 . S
C441 C443 1.327 . S
C441 C447 1.429 1_655 S
C442 C434 1.574 . S
C442 H437 0.949 . S
C442 C448 1.368 . S
C443 C427 1.349 1_655 S
C443 H435 0.950 . S
C443 C441 1.327 . S
C444 C432 1.349 . S
C444 H438 0.950 . S
C444 C445 1.327 . S
C445 H439 0.950 . S
C445 C444 1.327 . S
C445 C449 1.429 . S
C446 C429 1.574 . S
C446 H440 0.949 . S
C446 C450 1.368 1_655 S
C447 C428 1.429 . S
C447 C441 1.429 1_455 S
C447 C448 1.523 . S
C448 C429 1.368 1_455 S
C448 C442 1.368 . S
C448 C447 1.523 . S
C449 C433 1.429 1_455 S
C449 C445 1.429 . S
C449 C450 1.523 . S
C450 C434 1.368 . S
C450 C446 1.368 1_455 S
C450 C449 1.523 . S
H451 C426 0.950 . S
H452 C428 0.950 . S
H453 C429 0.949 . S
H454 C431 0.950 1_655 S
H455 C433 0.950 . S
C456 C457 1.349 . S
C456 C458 1.327 . S
C456 H481 0.950 . S
C457 C456 1.349 . S
C457 C473 1.349 1_545 S
C458 C456 1.327 . S
C458 C477 1.429 . S
C458 H482 0.950 . S
C459 C476 1.574 . S
C459 C478 1.368 1_565 S
C459 H483 0.949 . S
H460 C464 0.949 . S
C461 C462 1.351 . S
C461 C463 1.338 1_545 S
C461 H484 0.943 1_545 S
C462 C461 1.351 . S
C462 C474 1.349 . S
C463 C461 1.338 1_565 S
C463 C479 1.416 1_565 S
C463 H485 0.955 . S
C464 H460 0.949 . S
C464 C472 1.574 . S
C464 C480 1.368 . S
H465 C473 0.950 . S
H466 C471 0.950 . S
H467 C472 0.949 . S
H468 C474 0.950 . S
H469 C475 0.950 . S
H470 C476 0.949 . S
C471 H466 0.950 . S
C471 C473 1.327 . S
C471 C477 1.429 1_565 S
C472 C464 1.574 . S
C472 H467 0.949 . S
C472 C478 1.368 . S
C473 C457 1.349 1_565 S
C473 H465 0.950 . S
C473 C471 1.327 . S
C474 C462 1.349 . S
C474 H468 0.950 . S
C474 C475 1.327 . S
C475 H469 0.950 . S
C475 C474 1.327 . S
C475 C479 1.429 . S
C476 C459 1.574 . S
C476 H470 0.949 . S
C476 C480 1.368 1_565 S
C477 C458 1.429 . S
C477 C471 1.429 1_545 S
C477 C478 1.523 . S
C478 C459 1.368 1_545 S
C478 C472 1.368 . S
C478 C477 1.523 . S
C479 C463 1.416 1_545 S
C479 C475 1.429 . S
C479 C480 1.523 . S
C480 C464 1.368 . S
C480 C476 1.368 1_545 S
C480 C479 1.523 . S
H481 C456 0.950 . S
H482 C458 0.950 . S
H483 C459 0.949 . S
H484 C461 0.943 1_565 S
H485 C463 0.955 . S
C486 C487 1.349 . S
C486 C488 1.327 1_554 S
C486 H511 0.950 . S
C487 C486 1.349 . S
C487 C503 1.349 . S
C488 C486 1.327 1_556 S
C488 C507 1.429 . S
C488 H512 0.950 . S
C489 C506 1.574 . S
C489 C508 1.368 . S
C489 H513 0.949 . S
H490 C494 0.949 . S
C491 C492 1.349 . S
C491 C493 1.327 . S
C491 H514 0.950 . S
C492 C491 1.349 . S
C492 C504 1.349 . S
C493 C491 1.327 . S
C493 C509 1.429 . S
C493 H515 0.950 . S
C494 H490 0.949 . S
C494 C502 1.574 . S
C494 C510 1.368 . S
H495 C503 0.950 . S
H496 C501 0.950 . S
H497 C502 0.949 . S
H498 C504 0.950 . S
H499 C505 0.950 . S
H500 C506 0.949 . S
C501 H496 0.950 . S
C501 C503 1.327 . S
C501 C507 1.429 1_554 S
C502 C494 1.574 . S
C502 H497 0.949 . S
C502 C508 1.368 . S
C503 C487 1.349 . S
C503 H495 0.950 . S
C503 C501 1.327 . S
C504 C492 1.349 . S
C504 H498 0.950 . S
C504 C505 1.327 . S
C505 H499 0.950 . S
C505 C504 1.327 . S
C505 C509 1.429 . S
C506 C489 1.574 . S
C506 H500 0.949 . S
C506 C510 1.368 . S
C507 C488 1.429 . S
C507 C501 1.429 1_556 S
C507 C508 1.523 . S
C508 C489 1.368 . S
C508 C502 1.368 . S
C508 C507 1.523 . S
C509 C493 1.429 . S
C509 C505 1.429 . S
C509 C510 1.523 . S
C510 C494 1.368 . S
C510 C506 1.368 . S
C510 C509 1.523 . S
H511 C486 0.950 . S
H512 C488 0.950 . S
H513 C489 0.949 . S
H514 C491 0.950 . S
H515 C493 0.950 . S
C516 C517 1.349 . S
C516 C518 1.327 . S
C516 H541 0.950 . S
C517 C516 1.349 . S
C517 C533 1.349 . S
C518 C516 1.327 . S
C518 C537 1.429 . S
C518 H542 0.950 . S
C519 C536 1.574 . S
C519 C538 1.368 . S
C519 H543 0.949 . S
H520 C524 0.949 . S
C521 C522 1.349 . S
C521 C523 1.327 . S
C521 H544 0.950 . S
C522 C521 1.349 . S
C522 C534 1.349 . S
C523 C521 1.327 . S
C523 C539 1.429 . S
C523 H545 0.950 . S
C524 H520 0.949 . S
C524 C532 1.574 . S
C524 C540 1.368 . S
H525 C533 0.950 . S
H526 C531 0.950 . S
H527 C532 0.949 . S
H528 C534 0.950 . S
H529 C535 0.950 . S
H530 C536 0.949 . S
C531 H526 0.950 . S
C531 C533 1.327 . S
C531 C537 1.429 . S
C532 C524 1.574 . S
C532 H527 0.949 . S
C532 C538 1.368 . S
C533 C517 1.349 . S
C533 H525 0.950 . S
C533 C531 1.327 . S
C534 C522 1.349 . S
C534 H528 0.950 . S
C534 C535 1.327 . S
C535 H529 0.950 . S
C535 C534 1.327 . S
C535 C539 1.429 . S
C536 C519 1.574 . S
C536 H530 0.949 . S
C536 C540 1.368 . S
C537 C518 1.429 . S
C537 C531 1.429 . S
C537 C538 1.523 . S
C538 C519 1.368 . S
C538 C532 1.368 . S
C538 C537 1.523 . S
C539 C523 1.429 . S
C539 C535 1.429 . S
C539 C540 1.523 . S
C540 C524 1.368 . S
C540 C536 1.368 . S
C540 C539 1.523 . S
H541 C516 0.950 . S
H542 C518 0.950 . S
H543 C519 0.949 . S
H544 C521 0.950 . S
H545 C523 0.950 . S
C192 C63 1.459 . S
C187 C0 1.452 . S
C217 C25 1.508 . S
C222 C111 1.509 . S
C247 C33 1.531 . S
C252 C183 1.521 . S
C277 C11 1.459 . S
C282 C87 1.456 . S
C312 C135 1.493 . S
C307 C14 1.492 . S
C337 C37 1.532 . S
C342 C159 1.537 . S
C372 C120 1.493 . S
C367 C28 1.490 . S
C397 C9 1.531 . S
C402 C174 1.538 . S
C432 C78 1.568 . S
C427 C19 1.567 . S
C462 C126 1.508 . S
C457 C39 1.507 . S
C492 C168 1.530 . S
C487 C5 1.530 . S
C517 C23 1.573 . S
C522 C72 1.574 . S
