# Generated by pormake.
# Topology zzz, (3,6)-cn, num edge types: 1
# Building blocks:
#     Node 0, Type 0, BuildingBlock: BETDIP_clean_linker_0, # of connection points: 3
#     Node 1, Type 0, BuildingBlock: BETDIP_clean_linker_0, # of connection points: 3
#     Node 2, Type 0, BuildingBlock: BETDIP_clean_linker_0, # of connection points: 3
#     Node 3, Type 0, BuildingBlock: BETDIP_clean_linker_0, # of connection points: 3
#     Node 4, Type 0, BuildingBlock: BETDIP_clean_linker_0, # of connection points: 3
#     Node 5, Type 0, BuildingBlock: BETDIP_clean_linker_0, # of connection points: 3
#     Node 6, Type 0, BuildingBlock: BETDIP_clean_linker_0, # of connection points: 3
#     Node 7, Type 0, BuildingBlock: BETDIP_clean_linker_0, # of connection points: 3
#     Node 8, Type 1, BuildingBlock: GEDQOX_clean_sbu_0, # of connection points: 6
#     Node 9, Type 1, BuildingBlock: GEDQOX_clean_sbu_0, # of connection points: 6
#     Node 10, Type 1, BuildingBlock: GEDQOX_clean_sbu_0, # of connection points: 6
#     Node 11, Type 1, BuildingBlock: GEDQOX_clean_sbu_0, # of connection points: 6
#     Edge 12, Type (0, 1), BuildingBlock: UVAHIK_clean_linker_0, # of connection points: 2
#     Edge 13, Type (0, 1), BuildingBlock: UVAHIK_clean_linker_0, # of connection points: 2
#     Edge 14, Type (0, 1), BuildingBlock: UVAHIK_clean_linker_0, # of connection points: 2
#     Edge 15, Type (0, 1), BuildingBlock: UVAHIK_clean_linker_0, # of connection points: 2
#     Edge 16, Type (0, 1), BuildingBlock: UVAHIK_clean_linker_0, # of connection points: 2
#     Edge 17, Type (0, 1), BuildingBlock: UVAHIK_clean_linker_0, # of connection points: 2
#     Edge 18, Type (0, 1), BuildingBlock: UVAHIK_clean_linker_0, # of connection points: 2
#     Edge 19, Type (0, 1), BuildingBlock: UVAHIK_clean_linker_0, # of connection points: 2
#     Edge 20, Type (0, 1), BuildingBlock: UVAHIK_clean_linker_0, # of connection points: 2
#     Edge 21, Type (0, 1), BuildingBlock: UVAHIK_clean_linker_0, # of connection points: 2
#     Edge 22, Type (0, 1), BuildingBlock: UVAHIK_clean_linker_0, # of connection points: 2
#     Edge 23, Type (0, 1), BuildingBlock: UVAHIK_clean_linker_0, # of connection points: 2
#     Edge 24, Type (0, 1), BuildingBlock: UVAHIK_clean_linker_0, # of connection points: 2
#     Edge 25, Type (0, 1), BuildingBlock: UVAHIK_clean_linker_0, # of connection points: 2
#     Edge 26, Type (0, 1), BuildingBlock: UVAHIK_clean_linker_0, # of connection points: 2
#     Edge 27, Type (0, 1), BuildingBlock: UVAHIK_clean_linker_0, # of connection points: 2
#     Edge 28, Type (0, 1), BuildingBlock: UVAHIK_clean_linker_0, # of connection points: 2
#     Edge 29, Type (0, 1), BuildingBlock: UVAHIK_clean_linker_0, # of connection points: 2
#     Edge 30, Type (0, 1), BuildingBlock: UVAHIK_clean_linker_0, # of connection points: 2
#     Edge 31, Type (0, 1), BuildingBlock: UVAHIK_clean_linker_0, # of connection points: 2
#     Edge 32, Type (0, 1), BuildingBlock: UVAHIK_clean_linker_0, # of connection points: 2
#     Edge 33, Type (0, 1), BuildingBlock: UVAHIK_clean_linker_0, # of connection points: 2
#     Edge 34, Type (0, 1), BuildingBlock: UVAHIK_clean_linker_0, # of connection points: 2
#     Edge 35, Type (0, 1), BuildingBlock: UVAHIK_clean_linker_0, # of connection points: 2
# Relax obj value: 0.121
# Max RMSD: 0.170
# Mean RMSD: 0.091
data_MOF--net-zzz--node1-GEDQOX_clean_sbu_0--node2-BETDIP_clean_linker_0--edge1-UVAHIK_clean_linker_0
_symmetry_space_group_name_H-M    P1
_symmetry_Int_Tables_number       1
_symmetry_cell_setting            triclinic
loop_
_symmetry_equiv_pos_as_xyz
'x, y, z'
_cell_length_a     69.820352
_cell_length_b     69.378182
_cell_length_c     21.004612
_cell_angle_alpha  81.321811
_cell_angle_beta   88.800568
_cell_angle_gamma 98.10102
loop_
_atom_site_label
_atom_site_type_symbol
_atom_site_fract_x
_atom_site_fract_y
_atom_site_fract_z
_atom_type_partial_charge
H0 H 0.76211 0.55533 0.24028 0.0
H1 H 0.76408 0.53207 0.06116 0.0
H2 H 0.81122 0.52903 0.18781 0.0
H3 H 0.74407 0.55623 0.03319 0.0
C4 C 0.73431 0.55267 0.07562 0.0
C5 C 0.76956 0.54821 0.20669 0.0
C6 C 0.78773 0.54258 0.2211 0.0
C7 C 0.76088 0.54457 0.14904 0.0
C8 C 0.77061 0.53529 0.10537 0.0
C9 C 0.78862 0.52943 0.12002 0.0
C10 C 0.79702 0.5331 0.17766 0.0
N11 N 0.74199 0.5494 0.13781 0.0
H12 H 0.99597 0.75082 0.32517 0.0
H13 H 0.02522 0.76958 0.13794 0.0
H14 H 0.02332 0.81071 0.27034 0.0
H15 H 1.00026 0.74538 0.11443 0.0
C16 C 0.00277 0.73362 0.15239 0.0
C17 C 0.0044 0.76212 0.29038 0.0
C18 C 0.00927 0.78134 0.30503 0.0
C19 C 0.01013 0.75762 0.23001 0.0
C20 C 0.02067 0.77267 0.18449 0.0
C21 C 0.0257 0.79174 0.19937 0.0
C22 C 0.02009 0.79579 0.25969 0.0
N23 N 0.00548 0.73798 0.21615 0.0
H24 H 0.75134 0.95818 0.29207 0.0
H25 H 0.74718 0.97743 0.08834 0.0
H26 H 0.70202 0.98422 0.2208 0.0
H27 H 0.76688 0.95204 0.08534 0.0
C28 C 0.77701 0.95695 0.12019 0.0
C29 C 0.74344 0.96456 0.25231 0.0
C30 C 0.72566 0.9709 0.26435 0.0
C31 C 0.75126 0.96666 0.18902 0.0
C32 C 0.74114 0.97521 0.13725 0.0
C33 C 0.72357 0.98187 0.1491 0.0
C34 C 0.71591 0.97954 0.21233 0.0
N35 N 0.76993 0.96141 0.17937 0.0
H36 H 0.49235 0.76522 0.4461 0.0
H37 H 0.45598 0.76126 0.28388 0.0
H38 H 0.45585 0.71096 0.43013 0.0
H39 H 0.48309 0.78111 0.23468 0.0
C40 C 0.48466 0.79191 0.26745 0.0
C41 C 0.48145 0.7569 0.42098 0.0
C42 C 0.47416 0.73724 0.44649 0.0
C43 C 0.47515 0.76564 0.36182 0.0
C44 C 0.46124 0.75461 0.32889 0.0
C45 C 0.45423 0.73487 0.35305 0.0
C46 C 0.46054 0.72645 0.41236 0.0
N47 N 0.48317 0.78529 0.33515 0.0
H48 H 0.25723 0.48118 0.4869 0.0
H49 H 0.25147 0.504 0.66551 0.0
H50 H 0.20087 0.48273 0.5704 0.0
H51 H 0.28093 0.52101 0.6313 0.0
C52 C 0.28802 0.50977 0.61357 0.0
C53 C 0.24824 0.48465 0.52507 0.0
C54 C 0.22799 0.48065 0.52346 0.0
C55 C 0.25693 0.49319 0.57592 0.0
C56 C 0.24511 0.4978 0.6252 0.0
C57 C 0.22488 0.4939 0.62366 0.0
C58 C 0.21652 0.48523 0.5729 0.0
N59 N 0.27749 0.49636 0.57751 0.0
H60 H 0.01477 0.2911 0.39417 0.0
H61 H 0.99311 0.27267 0.59173 0.0
H62 H 0.00345 0.22953 0.47441 0.0
H63 H 0.97791 0.30081 0.5627 0.0
C64 C 0.9909 0.31088 0.54453 0.0
C65 C 0.00987 0.27957 0.43423 0.0
C66 C 0.00979 0.25962 0.4273 0.0
C67 C 0.0035 0.28453 0.49334 0.0
C68 C 0.99741 0.26929 0.54532 0.0
C69 C 0.99741 0.24956 0.53811 0.0
C70 C 0.0035 0.24489 0.47943 0.0
N71 N 0.00389 0.30474 0.50078 0.0
H72 H 0.26823 0.08531 0.4642 0.0
H73 H 0.27442 0.05934 0.66174 0.0
H74 H 0.32387 0.07362 0.53056 0.0
H75 H 0.24901 0.07322 0.68101 0.0
C76 C 0.24005 0.07223 0.63971 0.0
C77 C 0.27715 0.07996 0.50265 0.0
C78 C 0.29707 0.0803 0.49048 0.0
C79 C 0.26884 0.07308 0.56504 0.0
C80 C 0.28055 0.06557 0.61415 0.0
C81 C 0.30044 0.06608 0.60218 0.0
C82 C 0.30854 0.07354 0.54044 0.0
N83 N 0.24875 0.07359 0.57694 0.0
H84 H 0.53002 0.27115 0.24555 0.0
H85 H 0.56112 0.27206 0.42047 0.0
H86 H 0.55406 0.32632 0.30103 0.0
H87 H 0.56973 0.24361 0.38715 0.0
C88 C 0.55498 0.23679 0.38146 0.0
C89 C 0.53825 0.27927 0.27865 0.0
C90 C 0.54181 0.29996 0.2662 0.0
C91 C 0.54572 0.26905 0.33334 0.0
C92 C 0.55596 0.27977 0.37699 0.0
C93 C 0.55912 0.30045 0.36582 0.0
C94 C 0.5522 0.31034 0.30975 0.0
N95 N 0.54222 0.24807 0.34545 0.0
Nd96 Nd 0.99565 0.00832 0.80884 0.0
Nd97 Nd 0.01638 0.02691 0.92808 0.0
C98 C 0.97209 0.98496 0.7472 0.0
C99 C 0.97365 0.96729 0.71686 0.0
C100 C 0.95721 0.9533 0.71433 0.0
C101 C 0.95856 0.93614 0.68781 0.0
C102 C 0.97642 0.93256 0.66302 0.0
C103 C 0.99289 0.9467 0.66577 0.0
C104 C 0.99153 0.9638 0.69261 0.0
C105 C 0.03458 0.02118 0.78014 0.0
C106 C 0.0223 0.98292 0.90995 0.0
C107 C 0.03543 0.0508 1.00025 0.0
C108 C 0.0337 0.06985 0.02209 0.0
C109 C 0.05049 0.08241 0.03278 0.0
C110 C 0.04925 0.10027 0.05503 0.0
C111 C 0.03113 0.10602 0.06748 0.0
C112 C 0.01429 0.09348 0.05561 0.0
C113 C 0.01557 0.07564 0.03301 0.0
C114 C 0.97989 0.00613 0.95151 0.0
C115 C 0.9918 0.05391 0.82205 0.0
O116 O 0.97286 0.98251 0.81022 0.0
O117 O 0.98194 1.00172 0.71883 0.0
O118 O 0.02316 0.01311 0.74047 0.0
O119 O 0.02496 0.02192 0.83056 0.0
O120 O 0.00719 0.98288 0.87276 0.0
O121 O 0.03062 0.99902 0.93105 0.0
O122 O 0.03973 0.05141 0.93894 0.0
O123 O 0.02247 0.0357 0.02365 0.0
O124 O 0.99309 0.00604 0.99438 0.0
O125 O 0.9859 0.01771 0.90074 0.0
O126 O 0.00278 0.05241 0.87277 0.0
O127 O 0.98642 0.03913 0.78982 0.0
H128 H 0.9433 0.95557 0.73347 0.0
H129 H 0.94561 0.92553 0.68777 0.0
H130 H 0.00686 0.94468 0.64655 0.0
H131 H 0.00448 0.9743 0.69456 0.0
H132 H 0.06464 0.07835 0.02415 0.0
H133 H 0.06256 0.10962 0.06214 0.0
H134 H 1.00007 0.0972 0.06507 0.0
H135 H 0.00237 0.06627 0.02473 0.0
Nd136 Nd 0.51089 0.00738 0.81535 0.0
Nd137 Nd 0.50903 0.03441 0.91641 0.0
C138 C 0.51851 0.98129 0.74252 0.0
C139 C 0.53546 0.97196 0.72869 0.0
C140 C 0.54911 0.96821 0.77545 0.0
C141 C 0.56649 0.96197 0.75856 0.0
C142 C 0.57059 0.95958 0.6945 0.0
C143 C 0.55651 0.9628 0.64852 0.0
C144 C 0.53914 0.96887 0.66555 0.0
C145 C 0.50695 0.04569 0.76714 0.0
C146 C 0.55165 0.02534 0.87564 0.0
C147 C 0.50643 0.06289 0.98459 0.0
C148 C 0.49007 0.06736 0.0225 0.0
C149 C 0.48741 0.08697 0.02325 0.0
C150 C 0.47068 0.09131 0.05264 0.0
C151 C 0.45627 0.07606 0.08183 0.0
C152 C 0.45924 0.0564 0.08194 0.0
C153 C 0.47588 0.05211 0.05224 0.0
C154 C 0.50112 0.99476 0.96337 0.0
C155 C 0.46907 0.0148 0.86206 0.0
O156 O 0.51004 0.97629 0.80013 0.0
O157 O 0.52037 1.00022 0.72182 0.0
O158 O 0.49755 0.03052 0.74643 0.0
O159 O 0.5179 0.04034 0.81124 0.0
O160 O 0.54298 0.01333 0.83845 0.0
O161 O 0.54196 0.03579 0.90903 0.0
O162 O 0.50416 0.06494 0.9223 0.0
O163 O 0.51375 0.04691 0.00688 0.0
O164 O 0.49185 0.0078 0.98337 0.0
O165 O 0.51425 1.00289 0.92224 0.0
O166 O 0.47828 0.03083 0.88048 0.0
O167 O 0.47844 1.00127 0.84311 0.0
H168 H 0.54661 0.97067 0.82446 0.0
H169 H 0.57685 0.95943 0.79543 0.0
H170 H 0.55923 0.96155 0.59849 0.0
H171 H 0.5289 0.97195 0.62864 0.0
H172 H 0.49803 0.09895 0.99953 0.0
H173 H 0.4688 0.1066 0.05082 0.0
H174 H 0.44866 0.04427 0.10482 0.0
H175 H 0.47746 0.03683 0.05143 0.0
Nd176 Nd 0.49332 0.52146 0.9167 0.0
Nd177 Nd 0.52477 0.52029 0.81439 0.0
C178 C 0.46157 0.52689 0.97816 0.0
C179 C 0.45377 0.54386 0.99681 0.0
C180 C 0.43426 0.54203 0.01691 0.0
C181 C 0.4268 0.55813 0.03536 0.0
C182 C 0.43878 0.5763 0.03405 0.0
C183 C 0.4583 0.57807 0.01275 0.0
C184 C 0.4657 0.56201 0.99405 0.0
C185 C 0.53066 0.5289 0.95514 0.0
C186 C 0.51056 0.56209 0.81528 0.0
C187 C 0.55551 0.51309 0.75174 0.0
C188 C 0.56028 0.49458 0.73443 0.0
C189 C 0.57804 0.4938 0.70332 0.0
C190 C 0.58202 0.47604 0.68561 0.0
C191 C 0.56824 0.45891 0.69887 0.0
C192 C 0.5507 0.45977 0.73169 0.0
C193 C 0.54674 0.47744 0.74895 0.0
C194 C 0.48753 0.51328 0.77529 0.0
C195 C 0.50783 0.47983 0.91677 0.0
O196 O 0.46267 0.5264 0.91622 0.0
O197 O 0.47698 0.52217 0.00755 0.0
O198 O 0.51656 0.51915 0.99339 0.0
O199 O 0.52456 0.53522 0.90124 0.0
O200 O 0.4958 0.5521 0.85257 0.0
O201 O 0.5256 0.55369 0.80092 0.0
O202 O 0.55499 0.51392 0.81355 0.0
O203 O 0.54075 0.5196 0.72276 0.0
O204 O 0.50176 0.52306 0.73781 0.0
O205 O 0.49345 0.50663 0.82925 0.0
O206 O 0.52257 0.48995 0.87991 0.0
O207 O 0.49273 0.48811 0.93091 0.0
H208 H 0.42483 0.52813 0.01859 0.0
H209 H 0.41166 0.55633 0.05066 0.0
H210 H 0.46804 0.59171 0.01205 0.0
H211 H 0.4808 0.56368 0.97818 0.0
H212 H 0.58866 0.50693 0.69194 0.0
H213 H 0.5956 0.47584 0.66003 0.0
H214 H 0.53993 0.44677 0.74362 0.0
H215 H 0.53294 0.47777 0.77296 0.0
Nd216 Nd 0.00612 0.53673 0.80678 0.0
Nd217 Nd 0.00959 0.50515 0.93027 0.0
C218 C 0.99618 0.56766 0.73337 0.0
C219 C 0.97915 0.56863 0.69369 0.0
C220 C 0.97624 0.58604 0.65415 0.0
C221 C 0.95952 0.58656 0.61833 0.0
C222 C 0.94544 0.56967 0.622 0.0
C223 C 0.94854 0.55234 0.66222 0.0
C224 C 0.96525 0.5518 0.69702 0.0
C225 C 0.00374 0.49953 0.77081 0.0
C226 C 0.96721 0.50894 0.88106 0.0
C227 C 0.02041 0.47677 0.01427 0.0
C228 C 0.03851 0.47397 0.04661 0.0
C229 C 0.04259 0.45491 0.06774 0.0
C230 C 0.05995 0.45213 0.09745 0.0
C231 C 0.07355 0.4684 0.1066 0.0
C232 C 0.06942 0.48751 0.0846 0.0
C233 C 0.0521 0.49026 0.05472 0.0
C234 C 0.00421 0.54213 0.95304 0.0
C235 C 0.04936 0.53088 0.85175 0.0
O236 O 0.99215 0.56367 0.79562 0.0
O237 O 0.00902 0.55738 0.71437 0.0
O238 O 0.00306 0.51552 0.73056 0.0
O239 O 0.00567 0.50404 0.8264 0.0
O240 O 0.97499 0.5262 0.84858 0.0
O241 O 0.9779 0.49624 0.90994 0.0
O242 O 0.021 0.47673 0.95203 0.0
O243 O 0.0113 0.49061 0.03095 0.0
O244 O 0.9963 0.52588 0.98879 0.0
O245 O 0.01505 0.53847 0.90871 0.0
O246 O 0.04132 0.51677 0.898 0.0
O247 O 0.03915 0.54149 0.81144 0.0
H248 H 0.98685 0.59919 0.65102 0.0
H249 H 0.95772 0.6001 0.58741 0.0
H250 H 0.93791 0.53917 0.6677 0.0
H251 H 0.96725 0.53819 0.72717 0.0
H252 H 0.03236 0.44217 0.0611 0.0
H253 H 0.06277 0.43722 0.11281 0.0
H254 H 0.07938 0.5004 0.09153 0.0
H255 H 0.04928 0.50511 0.03821 0.0
C256 C 0.21125 0.06151 0.71435 0.0
C257 C 0.21883 0.06872 0.65161 0.0
C258 C 0.19127 0.05772 0.72732 0.0
C259 C 0.14436 0.05052 0.64595 0.0
H260 H 0.12372 0.05421 0.81571 0.0
C261 C 0.06554 0.01852 0.72433 0.0
C262 C 0.05553 0.02743 0.76766 0.0
C263 C 0.08531 0.02449 0.71037 0.0
C264 C 0.1291 0.05337 0.76765 0.0
H265 H 0.21159 0.07821 0.55321 0.0
H266 H 0.17665 0.07256 0.57603 0.0
H267 H 0.15797 0.06421 0.78946 0.0
H268 H 0.05807 0.04979 0.82954 0.0
H269 H 0.09246 0.06099 0.80327 0.0
H270 H 0.11535 0.04081 0.62282 0.0
C271 C 0.18604 0.06907 0.61516 0.0
C272 C 0.14893 0.05879 0.75287 0.0
C273 C 0.20609 0.07244 0.60197 0.0
C274 C 0.06558 0.04251 0.79674 0.0
C275 C 0.08532 0.04885 0.78165 0.0
C276 C 0.12448 0.04553 0.66024 0.0
C277 C 0.17832 0.0615 0.67803 0.0
C278 C 0.15694 0.05709 0.69219 0.0
C279 C 0.09549 0.03993 0.73811 0.0
C280 C 0.11657 0.04649 0.72173 0.0
H281 H 0.22081 0.05842 0.75338 0.0
H282 H 0.18606 0.05145 0.77597 0.0
H283 H 0.14985 0.04878 0.5989 0.0
H284 H 0.05811 0.00672 0.70165 0.0
H285 H 0.09258 0.0168 0.67816 0.0
C286 C 0.56076 0.20848 0.46205 0.0
C287 C 0.54846 0.21683 0.41738 0.0
C288 C 0.55499 0.18995 0.49851 0.0
C289 C 0.51171 0.15288 0.55323 0.0
H290 H 0.55097 0.11937 0.59785 0.0
C291 C 0.49696 0.0708 0.68038 0.0
C292 C 0.509 0.06596 0.73139 0.0
C293 C 0.50028 0.08947 0.64241 0.0
C294 C 0.53987 0.12863 0.58609 0.0
H295 H 0.52045 0.21233 0.37509 0.0
H296 H 0.5105 0.1795 0.43744 0.0
H297 H 0.55973 0.15073 0.52745 0.0
H298 H 0.5334 0.07702 0.7844 0.0
H299 H 0.53937 0.10944 0.7175 0.0
H300 H 0.49179 0.13021 0.61108 0.0
C301 C 0.52449 0.18748 0.44543 0.0
C302 C 0.54488 0.14666 0.5459 0.0
C303 C 0.53023 0.20622 0.40933 0.0
C304 C 0.52395 0.08031 0.7452 0.0
C305 C 0.52742 0.09882 0.70678 0.0
C306 C 0.50664 0.13462 0.59283 0.0
C307 C 0.53683 0.1791 0.49057 0.0
C308 C 0.53097 0.15924 0.52978 0.0
C309 C 0.51585 0.10347 0.65434 0.0
C310 C 0.52076 0.12249 0.61045 0.0
H311 H 0.57482 0.21645 0.46961 0.0
H312 H 0.56473 0.18431 0.53374 0.0
H313 H 0.50063 0.1622 0.54246 0.0
H314 H 0.48529 0.06002 0.66888 0.0
H315 H 0.49116 0.09269 0.60222 0.0
C316 C 0.31806 0.52218 0.66507 0.0
C317 C 0.30857 0.50891 0.6278 0.0
C318 C 0.33729 0.52138 0.68088 0.0
C319 C 0.38187 0.5038 0.63111 0.0
H320 H 0.39713 0.51102 0.80343 0.0
C321 C 0.4526 0.49988 0.80119 0.0
C322 C 0.46709 0.51079 0.75759 0.0
C323 C 0.43315 0.49827 0.78522 0.0
C324 C 0.39309 0.50878 0.7553 0.0
H325 H 0.31173 0.48438 0.57742 0.0
H326 H 0.3454 0.48294 0.60514 0.0
H327 H 0.36333 0.51062 0.7762 0.0
H328 H 0.47272 0.5283 0.66283 0.0
H329 H 0.43879 0.52557 0.63494 0.0
H330 H 0.41164 0.50186 0.61037 0.0
C331 C 0.338 0.49408 0.62177 0.0
C332 C 0.37375 0.50878 0.73946 0.0
C333 C 0.3187 0.49486 0.60609 0.0
C334 C 0.46184 0.51975 0.69731 0.0
C335 C 0.44242 0.5181 0.68123 0.0
C336 C 0.40124 0.50387 0.6469 0.0
C337 C 0.34748 0.50728 0.65966 0.0
C338 C 0.36793 0.50646 0.67703 0.0
C339 C 0.42782 0.50747 0.72518 0.0
C340 C 0.4071 0.5065 0.70906 0.0
H341 H 0.31056 0.53317 0.68231 0.0
H342 H 0.34424 0.53196 0.70926 0.0
H343 H 0.37789 0.5021 0.58249 0.0
H344 H 0.45627 0.49272 0.84789 0.0
H345 H 0.42229 0.48978 0.81984 0.0
C346 C 0.01103 0.34398 0.55107 0.0
C347 C 0.99397 0.33051 0.56637 0.0
C348 C 0.01352 0.36201 0.57507 0.0
C349 C 0.01066 0.40368 0.60346 0.0
H350 H 0.98824 0.4056 0.77249 0.0
C351 C 0.00134 0.47764 0.68637 0.0
C352 C 0.00352 0.47974 0.75145 0.0
C353 C 0.0014 0.45935 0.66601 0.0
C354 C 0.99481 0.40538 0.72551 0.0
H355 H 0.96612 0.32547 0.61802 0.0
H356 H 0.97016 0.35681 0.65821 0.0
H357 H 0.98677 0.37415 0.73355 0.0
H358 H 0.00733 0.46411 0.84641 0.0
H359 H 0.00781 0.43208 0.81099 0.0
H360 H 0.01908 0.43485 0.59603 0.0
C361 C 0.98188 0.35347 0.62916 0.0
C362 C 0.99373 0.38729 0.70263 0.0
C363 C 0.97946 0.33552 0.60551 0.0
C364 C 0.00567 0.463 0.79597 0.0
C365 C 0.00582 0.44461 0.77553 0.0
C366 C 0.01182 0.42176 0.62646 0.0
C367 C 0.99899 0.36699 0.61481 0.0
C368 C 0.00136 0.38618 0.64081 0.0
C369 C 0.00374 0.44252 0.71007 0.0
C370 C 0.00365 0.42297 0.68746 0.0
H371 H 0.02254 0.3405 0.52135 0.0
H372 H 0.02698 0.3719 0.56331 0.0
H373 H 0.01664 0.40355 0.55558 0.0
H374 H 0.99952 0.49021 0.65078 0.0
H375 H 0.99931 0.45841 0.61559 0.0
C376 C 0.80477 0.95042 0.05393 0.0
C377 C 0.79805 0.95863 0.10566 0.0
C378 C 0.82459 0.95267 0.03786 0.0
C379 C 0.87328 0.96833 0.10003 0.0
H380 H 0.88927 0.97601 0.91911 0.0
C381 C 0.95419 0.98321 0.02049 0.0
C382 C 0.95952 0.99711 0.96504 0.0
C383 C 0.93468 0.97585 0.03598 0.0
C384 C 0.88511 0.97408 0.96987 0.0
H385 H 0.80672 0.97578 0.18111 0.0
H386 H 0.8411 0.98042 0.15186 0.0
H387 H 0.85506 0.969 0.9505 0.0
H388 H 0.94881 0.0139 0.88132 0.0
H389 H 0.91482 1.00181 0.90938 0.0
H390 H 0.90322 0.97468 0.11919 0.0
C391 C 0.83126 0.97162 0.12473 0.0
C392 C 0.8654 0.9697 0.98805 0.0
C393 C 0.81148 0.96908 0.14136 0.0
C394 C 0.94508 1.00314 0.92437 0.0
C395 C 0.92557 0.99606 0.94033 0.0
C396 C 0.89295 0.973 0.08181 0.0
C397 C 0.83812 0.96352 0.07257 0.0
C398 C 0.85918 0.96698 0.05338 0.0
C399 C 0.92005 0.9825 0.99686 0.0
C400 C 0.89915 0.97615 0.0164 0.0
H401 H 0.79466 0.94225 0.02579 0.0
H402 H 0.82927 0.9459 0.99818 0.0
H403 H 0.86915 0.96595 0.15089 0.0
H404 H 0.96509 0.97817 0.05233 0.0
H405 H 0.9311 0.96509 0.07902 0.0
C406 C 0.48445 0.81808 0.17325 0.0
C407 C 0.48707 0.813 0.23932 0.0
C408 C 0.4862 0.83779 0.14483 0.0
C409 C 0.48674 0.88848 0.18309 0.0
H410 H 0.50728 0.90284 0.00678 0.0
C411 C 0.51339 0.96237 0.98094 0.0
C412 C 0.49927 0.97396 0.99388 0.0
C413 C 0.51222 0.94293 0.01192 0.0
C414 C 0.50173 0.89922 0.0563 0.0
H415 H 0.49383 0.82452 0.32779 0.0
H416 H 0.4976 0.85914 0.2778 0.0
H417 H 0.50587 0.86918 0.06036 0.0
H418 H 0.4726 0.97425 0.04794 0.0
H419 H 0.47005 0.94003 0.10029 0.0
H420 H 0.48339 0.91879 0.17979 0.0
C421 C 0.49368 0.84787 0.24803 0.0
C422 C 0.50062 0.87975 0.08684 0.0
C423 C 0.49166 0.82804 0.27669 0.0
C424 C 0.48375 0.96565 0.03745 0.0
C425 C 0.48241 0.94608 0.06785 0.0
C426 C 0.48807 0.90806 0.15276 0.0
C427 C 0.49096 0.853 0.18162 0.0
C428 C 0.49293 0.87403 0.15044 0.0
C429 C 0.49671 0.93448 0.05586 0.0
C430 C 0.49547 0.91368 0.08874 0.0
H431 H 0.48074 0.80673 0.1435 0.0
H432 H 0.48353 0.84105 0.09403 0.0
H433 H 0.48054 0.88465 0.23181 0.0
H434 H 0.52558 0.96845 0.94773 0.0
H435 H 0.52369 0.93466 0.00214 0.0
C436 C 0.69979 0.54425 0.11907 0.0
C437 C 0.71321 0.55144 0.06723 0.0
C438 C 0.67988 0.54216 0.10918 0.0
C439 C 0.64507 0.53802 0.97892 0.0
H440 H 0.60833 0.5485 0.10586 0.0
C441 C 0.56522 0.54216 0.92456 0.0
C442 C 0.55123 0.53202 0.97132 0.0
C443 C 0.58481 0.54458 0.93827 0.0
C444 C 0.61843 0.54536 0.07028 0.0
H445 H 0.71644 0.56253 0.96506 0.0
H446 H 0.68178 0.55946 0.94792 0.0
H447 H 0.64292 0.55314 0.12573 0.0
H448 H 0.54665 0.51679 0.06952 0.0
H449 H 0.58105 0.52121 0.09391 0.0
H450 H 0.6206 0.53055 0.92308 0.0
C451 C 0.68652 0.55494 0.99593 0.0
C452 C 0.63824 0.54798 0.08165 0.0
C453 C 0.70638 0.55687 0.00576 0.0
C454 C 0.55716 0.52466 0.0326 0.0
C455 C 0.5768 0.52725 0.04659 0.0
C456 C 0.62532 0.53557 0.96738 0.0
C457 C 0.67299 0.54732 0.04733 0.0
C458 C 0.65184 0.54442 0.03594 0.0
C459 C 0.59085 0.53707 0.99929 0.0
C460 C 0.61178 0.53929 0.01275 0.0
H461 H 0.70463 0.53983 0.16702 0.0
H462 H 0.66993 0.53603 0.14976 0.0
H463 H 0.65502 0.53468 0.94328 0.0
H464 H 0.56107 0.54811 0.87701 0.0
H465 H 0.59526 0.55244 0.90113 0.0
C466 C 0.99653 0.70997 0.07424 0.0
C467 C 0.00235 0.71346 0.13557 0.0
C468 C 0.99667 0.69149 0.05533 0.0
C469 C 0.00805 0.65507 0.01049 0.0
H470 H 0.99632 0.60706 0.13358 0.0
C471 C 0.01646 0.5785 0.94119 0.0
C472 C 0.00355 0.56202 0.97054 0.0
C473 C 0.01651 0.59694 0.96119 0.0
C474 C 0.99943 0.62027 0.09816 0.0
H475 H 0.01297 0.70019 0.22544 0.0
H476 H 0.01372 0.66795 0.19214 0.0
H477 H 0.9955 0.63873 0.16904 0.0
H478 H 0.98017 0.5521 0.04248 0.0
H479 H 0.97974 0.58418 0.07577 0.0
H480 H 0.01123 0.63664 0.93911 0.0
C481 C 0.00859 0.6794 0.15881 0.0
C482 C 0.99926 0.63856 0.11889 0.0
C483 C 0.00826 0.69793 0.17799 0.0
C484 C 0.9904 0.56448 0.0192 0.0
C485 C 0.9903 0.58292 0.03874 0.0
C486 C 0.00806 0.63679 0.98968 0.0
C487 C 0.0029 0.67591 0.09692 0.0
C488 C 0.00349 0.65629 0.07535 0.0
C489 C 0.0035 0.59944 0.01066 0.0
C490 C 0.0037 0.61905 0.03308 0.0
H491 H 0.99183 0.72163 0.04056 0.0
H492 H 0.99172 0.68943 0.00799 0.0
H493 H 0.01175 0.66829 0.97543 0.0
H494 H 0.02683 0.57707 0.90373 0.0
H495 H 0.02708 0.60912 0.93872 0.0
C496 C 0.9728 0.22332 0.59786 0.0
C497 C 0.99183 0.23326 0.59149 0.0
C498 C 0.96858 0.20471 0.63565 0.0
C499 C 0.96848 0.16053 0.66709 0.0
H500 H 0.99717 0.14357 0.81605 0.0
C501 C 0.98276 0.08018 0.73712 0.0
C502 C 0.98541 0.07323 0.8021 0.0
C503 C 0.97957 0.09967 0.71817 0.0
C504 C 0.98871 0.14798 0.77521 0.0
H505 H 0.02122 0.23227 0.62053 0.0
H506 H 0.01405 0.19986 0.68635 0.0
H507 H 0.99838 0.1785 0.77745 0.0
H508 H 0.98525 0.08057 0.8989 0.0
H509 H 0.97893 0.11411 0.86641 0.0
H510 H 0.95872 0.12997 0.6651 0.0
C511 C 0.0022 0.20638 0.6637 0.0
C512 C 0.98962 0.16808 0.75257 0.0
C513 C 0.00636 0.22496 0.62613 0.0
C514 C 0.98357 0.08564 0.84822 0.0
C515 C 0.98007 0.10494 0.82952 0.0
C516 C 0.96743 0.1404 0.6901 0.0
C517 C 0.9834 0.1957 0.66707 0.0
C518 C 0.97995 0.17461 0.69721 0.0
C519 C 0.97868 0.11245 0.76405 0.0
C520 C 0.97791 0.13384 0.74354 0.0
H521 H 0.96148 0.2294 0.57046 0.0
H522 H 0.95391 0.19702 0.63795 0.0
H523 H 0.96098 0.16498 0.62392 0.0
H524 H 0.98419 0.07093 0.70061 0.0
H525 H 0.97875 0.10495 0.66724 0.0
C526 C 0.30842 0.03989 0.68965 0.0
C527 C 0.31307 0.05878 0.6533 0.0
C528 C 0.32176 0.03218 0.73157 0.0
C529 C 0.36763 0.04633 0.81121 0.0
H530 H 0.37852 0.99445 0.78863 0.0
C531 C 0.4374 0.02117 0.90381 0.0
C532 C 0.44786 0.01292 0.85969 0.0
C533 C 0.41781 0.02243 0.89607 0.0
C534 C 0.37566 0.00894 0.79558 0.0
H535 H 0.33463 0.08488 0.63493 0.0
H536 H 0.3579 0.07152 0.70702 0.0
H537 H 0.34969 0.00629 0.74317 0.0
H538 H 0.44596 0.99845 0.77525 0.0
H539 H 0.41193 1.00145 0.75954 0.0
H540 H 0.3942 0.04979 0.85893 0.0
C541 C 0.34401 0.06259 0.7039 0.0
C542 C 0.35898 0.01562 0.77028 0.0
C543 C 0.33077 0.07021 0.66205 0.0
C544 C 0.43815 1.00483 0.80995 0.0
C545 C 0.4186 0.00648 0.8013 0.0
C546 C 0.38434 0.03976 0.83591 0.0
C547 C 0.33986 0.04335 0.73815 0.0
C548 C 0.35518 0.03469 0.77582 0.0
C549 C 0.40837 0.01594 0.843 0.0
C550 C 0.38893 0.02124 0.82661 0.0
H551 H 0.29486 0.03078 0.68353 0.0
H552 H 0.31811 0.01737 0.7577 0.0
H553 H 0.36493 0.06096 0.81728 0.0
H554 H 0.44453 0.02722 0.94328 0.0
H555 H 0.41029 0.02926 0.93025 0.0
C556 C 0.56312 0.306 0.48056 0.0
C557 C 0.56811 0.31195 0.41462 0.0
C558 C 0.5685 0.31864 0.52504 0.0
C559 C 0.59615 0.36802 0.54208 0.0
H560 H 0.55126 0.37048 0.65066 0.0
C561 C 0.58948 0.43345 0.68169 0.0
C562 C 0.5715 0.44036 0.6761 0.0
C563 C 0.59207 0.41568 0.66092 0.0
C564 C 0.56396 0.36997 0.62079 0.0
H565 H 0.5845 0.33491 0.34491 0.0
H566 H 0.59297 0.35731 0.42143 0.0
H567 H 0.55184 0.34249 0.59478 0.0
H568 H 0.54245 0.43451 0.64205 0.0
H569 H 0.54695 0.40383 0.6059 0.0
H570 H 0.60752 0.3964 0.56485 0.0
C571 C 0.58512 0.34284 0.43938 0.0
C572 C 0.56446 0.35373 0.5894 0.0
C573 C 0.57998 0.3301 0.39512 0.0
C574 C 0.55633 0.42936 0.64854 0.0
C575 C 0.5589 0.41172 0.62795 0.0
C576 C 0.59557 0.38441 0.57324 0.0
C577 C 0.57873 0.33762 0.50446 0.0
C578 C 0.58024 0.35285 0.54775 0.0
C579 C 0.57672 0.40456 0.63431 0.0
C580 C 0.57911 0.38588 0.61086 0.0
H581 H 0.55401 0.29212 0.49746 0.0
H582 H 0.56375 0.31393 0.57507 0.0
H583 H 0.60871 0.36766 0.5114 0.0
H584 H 0.6014 0.44159 0.70302 0.0
H585 H 0.60597 0.41053 0.66641 0.0
C586 C 0.19578 0.4864 0.69908 0.0
C587 C 0.2121 0.49958 0.67265 0.0
C588 C 0.18164 0.49271 0.73549 0.0
C589 C 0.15504 0.50761 0.82511 0.0
H590 H 0.13925 0.5565 0.74359 0.0
C591 C 0.08183 0.52775 0.89622 0.0
C592 C 0.0707 0.53401 0.84417 0.0
C593 C 0.10168 0.52769 0.88723 0.0
C594 C 0.14347 0.54283 0.76702 0.0
H595 H 0.22712 0.52935 0.66711 0.0
H596 H 0.20243 0.54042 0.73184 0.0
H597 H 0.1698 0.54729 0.70941 0.0
H598 H 0.0718 0.54622 0.74276 0.0
H599 H 0.10631 0.54553 0.7263 0.0
H600 H 0.12815 0.50233 0.87924 0.0
C601 C 0.20046 0.52525 0.72354 0.0
C602 C 0.16115 0.53768 0.74808 0.0
C603 C 0.21468 0.51888 0.68709 0.0
C604 C 0.08002 0.54135 0.78378 0.0
C605 C 0.09986 0.54104 0.77452 0.0
C606 C 0.13734 0.51267 0.84367 0.0
C607 C 0.1835 0.51238 0.74644 0.0
C608 C 0.16681 0.51967 0.77536 0.0
C609 C 0.11083 0.53361 0.82573 0.0
C610 C 0.13102 0.53004 0.81341 0.0
H611 H 0.19352 0.47139 0.68907 0.0
H612 H 0.16872 0.48241 0.75171 0.0
H613 H 0.15913 0.49379 0.84786 0.0
H614 H 0.0751 0.5223 0.94366 0.0
H615 H 0.10972 0.52236 0.92813 0.0
C616 C 0.0506 0.82147 0.16896 0.0
C617 C 0.03514 0.80836 0.15119 0.0
C618 C 0.0559 0.84007 0.13232 0.0
C619 C 0.04718 0.87268 0.98098 0.0
H620 H 0.047 0.91188 0.0945 0.0
C621 C 0.02143 0.94715 0.90331 0.0
C622 C 0.02957 0.96389 0.92905 0.0
C623 C 0.02721 0.92884 0.92324 0.0
C624 C 0.04756 0.90128 0.06183 0.0
H625 H 0.01428 0.80364 0.07831 0.0
H626 H 0.02346 0.83618 0.01412 0.0
H627 H 0.04892 0.87792 0.13968 0.0
H628 H 0.05083 0.97457 0.99415 0.0
H629 H 0.06104 0.94245 0.02889 0.0
H630 H 0.04515 0.89603 0.90329 0.0
C631 C 0.0316 0.8321 0.05612 0.0
C632 C 0.04866 0.88173 0.08779 0.0
C633 C 0.02634 0.81342 0.09276 0.0
C634 C 0.04416 0.96197 0.97372 0.0
C635 C 0.04997 0.94355 0.99374 0.0
C636 C 0.04616 0.89228 0.95493 0.0
C637 C 0.04578 0.84597 0.07731 0.0
C638 C 0.04794 0.86709 0.04791 0.0
C639 C 0.04134 0.92671 0.96936 0.0
C640 C 0.04573 0.9067 0.9953 0.0
H641 H 0.05771 0.81781 0.21364 0.0
H642 H 0.06717 0.85026 0.14915 0.0
H643 H 0.04685 0.8618 0.94892 0.0
H644 H 0.01024 0.94803 0.86848 0.0
H645 H 0.02 0.91621 0.90414 0.0
C646 C 0.7084 0.01047 0.09932 0.0
C647 C 0.71278 0.99148 0.09669 0.0
C648 C 0.69456 0.01804 0.05987 0.0
C649 C 0.66263 0.00999 0.92395 0.0
H650 H 0.6257 0.02937 0.02978 0.0
C651 C 0.58247 0.01145 0.86267 0.0
C652 C 0.57273 0.02593 0.88361 0.0
C653 C 0.60179 0.01047 0.87713 0.0
C654 C 0.63599 0.02446 0.99878 0.0
H655 H 0.7073 0.96599 0.04827 0.0
H656 H 0.68271 0.9791 0.97947 0.0
H657 H 0.65614 0.02218 0.07345 0.0
H658 H 0.57606 0.05163 0.93188 0.0
H659 H 0.60988 0.05027 0.95557 0.0
H660 H 0.64207 0.01187 0.84966 0.0
C661 C 0.69016 0.98827 0.01133 0.0
C662 C 0.65351 0.0203 0.02397 0.0
C663 C 0.7042 0.98074 0.05061 0.0
C664 C 0.58305 0.04012 0.91591 0.0
C665 C 0.60243 0.03927 0.92974 0.0
C666 C 0.64505 0.01427 0.89846 0.0
C667 C 0.68461 0.00666 0.01763 0.0
C668 C 0.66695 0.01279 0.98725 0.0
C669 C 0.61186 0.02406 0.91234 0.0
C670 C 0.6314 0.02132 0.93599 0.0
H671 H 0.71495 0.01901 0.13446 0.0
H672 H 0.69091 0.03243 0.06486 0.0
H673 H 0.67275 1.00432 0.89438 0.0
H674 H 0.57497 1.00029 0.83753 0.0
H675 H 0.60847 0.99845 0.86339 0.0
C676 C 0.42764 0.70732 0.34158 0.0
C677 C 0.44245 0.72217 0.31306 0.0
C678 C 0.41948 0.69276 0.30693 0.0
C679 C 0.41787 0.67709 0.14468 0.0
H680 H 0.42236 0.62592 0.24192 0.0
C681 C 0.43763 0.61256 0.0279 0.0
C682 C 0.43135 0.59309 0.05778 0.0
C683 C 0.43267 0.62845 0.05504 0.0
C684 C 0.4205 0.63996 0.21416 0.0
H685 H 0.45924 0.73421 0.22432 0.0
H686 H 0.44502 0.70892 0.1641 0.0
H687 H 0.42411 0.65434 0.29691 0.0
H688 H 0.41391 0.5751 0.13768 0.0
H689 H 0.40476 0.6028 0.18382 0.0
H690 H 0.41504 0.6627 0.06134 0.0
C691 C 0.43957 0.70856 0.21299 0.0
C692 C 0.4215 0.65632 0.24585 0.0
C693 C 0.44774 0.7231 0.24761 0.0
C694 C 0.41897 0.58989 0.1132 0.0
C695 C 0.41389 0.60579 0.14011 0.0
C696 C 0.41677 0.66067 0.11292 0.0
C697 C 0.42594 0.69278 0.24308 0.0
C698 C 0.42086 0.67517 0.21118 0.0
C699 C 0.42118 0.62526 0.1125 0.0
C700 C 0.41874 0.64202 0.14699 0.0
H701 H 0.42302 0.70644 0.39162 0.0
H702 H 0.40876 0.68096 0.33105 0.0
H703 H 0.41707 0.69141 0.11684 0.0
H704 H 0.44687 0.61556 0.98442 0.0
H705 H 0.43869 0.64322 0.03265 0.0
C706 C 0.80767 0.53106 0.01722 0.0
C707 C 0.79949 0.52005 0.07532 0.0
C708 C 0.82227 0.52432 0.98363 0.0
C709 C 0.86078 0.49444 0.02414 0.0
H710 H 0.87455 0.50794 0.84155 0.0
C711 C 0.93669 0.48764 0.92914 0.0
C712 C 0.94583 0.50459 0.88876 0.0
C713 C 0.91666 0.48487 0.94186 0.0
C714 C 0.87088 0.50403 0.89266 0.0
H715 H 0.79861 0.49275 0.14114 0.0
H716 H 0.82353 0.48055 0.08141 0.0
H717 H 0.84211 0.51112 0.88093 0.0
H718 H 0.94085 0.5313 0.82675 0.0
H719 H 0.90619 0.52664 0.8498 0.0
H720 H 0.88964 0.48818 0.0366 0.0
C721 C 0.81917 0.4946 0.06247 0.0
C722 C 0.8523 0.50585 0.91518 0.0
C723 C 0.80479 0.50145 0.09635 0.0
C724 C 0.93435 0.51813 0.85855 0.0
C725 C 0.91438 0.51537 0.87128 0.0
C726 C 0.87928 0.49262 1.0017 0.0
C727 C 0.8288 0.50641 0.0076 0.0
C728 C 0.8472 0.50155 0.98146 0.0
C729 C 0.90535 0.49899 0.91445 0.0
C730 C 0.88474 0.49789 0.93595 0.0
H731 H 0.80391 0.54555 1.00064 0.0
H732 H 0.82942 0.53387 0.94182 0.0
H733 H 0.85757 0.49136 0.07564 0.0
H734 H 0.94506 0.47682 0.95268 0.0
H735 H 0.9101 0.47193 0.97459 0.0
C736 C 0.03275 0.24379 0.36755 0.0
C737 C 0.01608 0.25301 0.36726 0.0
C738 C 0.03559 0.23131 0.32274 0.0
C739 C 0.00635 0.19889 0.22502 0.0
H740 H 0.05665 0.18877 0.16828 0.0
C741 C 0.01527 0.13636 0.07527 0.0
C742 C 0.02986 0.12478 0.09376 0.0
C743 C 0.01401 0.15373 0.1008 0.0
C744 C 0.04248 0.19133 0.18401 0.0
H745 H 0.98976 0.25716 0.31804 0.0
H746 H 0.99497 0.23593 0.2379 0.0
H747 H 0.05433 0.21725 0.22187 0.0
H748 H 0.0544 0.1226 0.1549 0.0
H749 H 0.05232 0.15284 0.19842 0.0
H750 H 0.99455 0.17283 0.18775 0.0
C751 C 0.00578 0.23809 0.27336 0.0
C752 C 0.04114 0.20771 0.21478 0.0
C753 C 0.00295 0.25059 0.3184 0.0
C754 C 0.0432 0.13122 0.13826 0.0
C755 C 0.042 0.14863 0.16343 0.0
C756 C 0.00769 0.18258 0.19393 0.0
C757 C 0.02175 0.22763 0.27656 0.0
C758 C 0.02308 0.21157 0.23682 0.0
C759 C 0.02736 0.16011 0.14527 0.0
C760 C 0.02581 0.17835 0.174 0.0
H761 H 0.04283 0.24499 0.40579 0.0
H762 H 0.04795 0.22346 0.32756 0.0
H763 H 0.9922 0.20107 0.24216 0.0
H764 H 0.00491 0.13214 0.04041 0.0
H765 H 0.00266 0.16229 0.08513 0.0
C766 C 0.30585 0.07418 0.38069 0.0
C767 C 0.30666 0.08711 0.4262 0.0
C768 C 0.31994 0.07721 0.3303 0.0
C769 C 0.37106 0.09773 0.30668 0.0
H770 H 0.36595 0.08362 0.13561 0.0
C771 C 0.43851 0.09648 0.14586 0.0
C772 C 0.43813 0.08055 0.11148 0.0
C773 C 0.42159 0.10021 0.17558 0.0
C774 C 0.36763 0.08749 0.18343 0.0
H775 H 0.32164 0.11404 0.45251 0.0
H776 H 0.34588 0.11973 0.36353 0.0
H777 H 0.33694 0.08575 0.20002 0.0
H778 H 0.41931 0.05657 0.07925 0.0
H779 H 0.39006 0.06255 0.1332 0.0
H780 H 0.40153 0.09869 0.29189 0.0
C781 C 0.33464 0.1071 0.36704 0.0
C782 C 0.351 0.08879 0.22015 0.0
C783 C 0.32063 0.10403 0.41739 0.0
C784 C 0.42027 0.06873 0.10638 0.0
C785 C 0.40338 0.07238 0.13648 0.0
C786 C 0.38761 0.09631 0.2703 0.0
C787 C 0.33506 0.09318 0.32499 0.0
C788 C 0.35253 0.09375 0.28249 0.0
C789 C 0.40384 0.08803 0.17213 0.0
C790 C 0.38615 0.09095 0.20846 0.0
H791 H 0.29543 0.06083 0.38745 0.0
H792 H 0.31989 0.06616 0.29897 0.0
H793 H 0.37278 0.10114 0.35508 0.0
H794 H 0.45198 0.10584 0.15119 0.0
H795 H 0.42248 0.11259 0.20175 0.0
C796 C 0.51476 0.31392 0.20874 0.0
C797 C 0.53436 0.3115 0.20962 0.0
C798 C 0.50868 0.32909 0.16558 0.0
C799 C 0.52395 0.36722 0.02206 0.0
H800 H 0.4956 0.39992 0.1119 0.0
C801 C 0.52482 0.45002 0.93088 0.0
C802 C 0.50828 0.45872 0.94172 0.0
C803 C 0.52554 0.4303 0.95604 0.0
C804 C 0.50317 0.39085 0.08541 0.0
H805 H 0.56278 0.32203 0.16447 0.0
H806 H 0.55222 0.34823 0.08831 0.0
H807 H 0.50046 0.36753 0.16572 0.0
H808 H 0.47927 0.45327 0.98593 0.0
H809 H 0.48041 0.41882 0.02891 0.0
H810 H 0.52699 0.39072 0.94213 0.0
C811 C 0.54146 0.33848 0.12034 0.0
C812 C 0.50594 0.37221 0.11637 0.0
C813 C 0.54753 0.32347 0.16382 0.0
C814 C 0.49231 0.4471 0.97712 0.0
C815 C 0.493 0.42734 1.00202 0.0
C816 C 0.52107 0.38583 0.99089 0.0
C817 C 0.52212 0.34198 0.12246 0.0
C818 C 0.51673 0.36035 0.08562 0.0
C819 C 0.5097 0.41872 0.99241 0.0
C820 C 0.51103 0.39809 0.02272 0.0
H821 H 0.50443 0.30503 0.2444 0.0
H822 H 0.49365 0.33131 0.16795 0.0
H823 H 0.53216 0.35834 0.99684 0.0
H824 H 0.53739 0.4585 0.90382 0.0
H825 H 0.53876 0.42432 0.94842 0.0
C826 C 0.21983 0.48423 0.40748 0.0
C827 C 0.21815 0.47286 0.46906 0.0
C828 C 0.20647 0.47986 0.36101 0.0
C829 C 0.15565 0.45808 0.35958 0.0
H830 H 0.16405 0.46702 0.17383 0.0
C831 C 0.09144 0.45072 0.19454 0.0
C832 C 0.09167 0.46554 0.14077 0.0
C833 C 0.10809 0.44882 0.22934 0.0
C834 C 0.16148 0.46457 0.22563 0.0
H835 H 0.20253 0.44707 0.52883 0.0
H836 H 0.17961 0.43903 0.44731 0.0
H837 H 0.19188 0.46794 0.24291 0.0
H838 H 0.10997 0.4894 0.07976 0.0
H839 H 0.1388 0.48654 0.14183 0.0
H840 H 0.12542 0.45537 0.34301 0.0
C841 C 0.19084 0.4516 0.43516 0.0
C842 C 0.17741 0.46504 0.26515 0.0
C843 C 0.20406 0.45606 0.48159 0.0
C844 C 0.10916 0.47804 0.12157 0.0
C845 C 0.1258 0.47621 0.15665 0.0
C846 C 0.13979 0.45767 0.32028 0.0
C847 C 0.19128 0.46402 0.37552 0.0
C848 C 0.17466 0.46192 0.33263 0.0
C849 C 0.12538 0.46179 0.21164 0.0
C850 C 0.14246 0.46106 0.2528 0.0
H851 H 0.23046 0.49739 0.39709 0.0
H852 H 0.20719 0.48976 0.31565 0.0
H853 H 0.15295 0.45611 0.41129 0.0
H854 H 0.07823 0.44092 0.21112 0.0
H855 H 0.1073 0.43734 0.27082 0.0
C856 C 0.98307 0.79183 0.36859 0.0
C857 C 0.00216 0.78779 0.36431 0.0
C858 C 0.97795 0.80428 0.41093 0.0
C859 C 0.99465 0.83038 0.54748 0.0
H860 H 0.96811 0.87174 0.4612 0.0
C861 C 0.99433 0.90462 0.64269 0.0
C862 C 0.97786 0.91421 0.63453 0.0
C863 C 0.99579 0.88764 0.61526 0.0
C864 C 0.97522 0.86019 0.48678 0.0
H865 H 0.03056 0.79266 0.40318 0.0
H866 H 0.02161 0.8139 0.47821 0.0
H867 H 0.97233 0.84368 0.40835 0.0
H868 H 0.94996 0.91312 0.59051 0.0
H869 H 0.9522 0.8833 0.54476 0.0
H870 H 0.99769 0.84697 0.62576 0.0
C871 C 0.0105 0.80747 0.44932 0.0
C872 C 0.97763 0.84401 0.45632 0.0
C873 C 0.01563 0.79518 0.40664 0.0
C874 C 0.9628 0.90613 0.59864 0.0
C875 C 0.96421 0.88909 0.5715 0.0
C876 C 0.99213 0.84651 0.57821 0.0
C877 C 0.99182 0.81289 0.45001 0.0
C878 C 0.98758 0.82899 0.48585 0.0
C879 C 0.98077 0.87962 0.57903 0.0
C880 C 0.98259 0.86181 0.54796 0.0
H881 H 0.97253 0.78669 0.3355 0.0
H882 H 0.96337 0.80793 0.4108 0.0
H883 H 0.00224 0.81901 0.57192 0.0
H884 H 0.00614 0.91015 0.6707 0.0
H885 H 0.00889 0.88101 0.62162 0.0
C886 C 0.70796 0.98371 0.34986 0.0
C887 C 0.7167 0.9684 0.33038 0.0
C888 C 0.69645 0.98052 0.40652 0.0
C889 C 0.67551 0.97281 0.536 0.0
H890 H 0.64022 0.92367 0.56012 0.0
C891 C 0.60695 0.96387 0.69947 0.0
C892 C 0.58992 0.95526 0.67396 0.0
C893 C 0.62515 0.96216 0.67357 0.0
C894 C 0.6499 0.93751 0.55404 0.0
H895 H 0.72144 0.93812 0.35754 0.0
H896 H 0.70168 0.9326 0.45809 0.0
H897 H 0.66793 0.92811 0.48477 0.0
H898 H 0.57887 0.9367 0.60461 0.0
H899 H 0.61029 0.93467 0.55727 0.0
H900 H 0.65666 0.9829 0.60076 0.0
C901 C 0.70336 0.94699 0.42853 0.0
C902 C 0.66604 0.93995 0.51147 0.0
C903 C 0.71486 0.95019 0.37135 0.0
C904 C 0.59162 0.94394 0.62451 0.0
C905 C 0.60977 0.94248 0.598 0.0
C906 C 0.65922 0.9705 0.57773 0.0
C907 C 0.6935 0.96195 0.44577 0.0
C908 C 0.67868 0.95791 0.50012 0.0
C909 C 0.6268 0.95203 0.62092 0.0
C910 C 0.64581 0.95306 0.58567 0.0
H911 H 0.70934 0.998 0.3197 0.0
H912 H 0.689 0.99237 0.41741 0.0
H913 H 0.68517 0.98667 0.52978 0.0
H914 H 0.60629 0.97277 0.73738 0.0
H915 H 0.6379 0.96934 0.69359 0.0
C916 C 0.46921 0.71532 0.55294 0.0
C917 C 0.48199 0.72666 0.50454 0.0
C918 C 0.47572 0.70119 0.59869 0.0
C919 C 0.51189 0.66808 0.60705 0.0
H920 H 0.49128 0.65147 0.78264 0.0
C921 C 0.52616 0.59462 0.75397 0.0
C922 C 0.51019 0.58316 0.78978 0.0
C923 C 0.52544 0.61426 0.72763 0.0
C924 C 0.49709 0.65585 0.73357 0.0
H925 H 0.51184 0.73317 0.46858 0.0
H926 H 0.52336 0.7085 0.54901 0.0
H927 H 0.48565 0.68321 0.72393 0.0
H928 H 0.48106 0.58357 0.82719 0.0
H929 H 0.47963 0.61754 0.78008 0.0
H930 H 0.52257 0.64047 0.61523 0.0
C931 C 0.50825 0.71045 0.55128 0.0
C932 C 0.49395 0.67409 0.70009 0.0
C933 C 0.50173 0.72472 0.50575 0.0
C934 C 0.49364 0.59194 0.79984 0.0
C935 C 0.49288 0.61153 0.77322 0.0
C936 C 0.51494 0.64982 0.64034 0.0
C937 C 0.49516 0.698 0.59665 0.0
C938 C 0.50097 0.68023 0.63596 0.0
C939 C 0.50869 0.62291 0.73615 0.0
C940 C 0.50722 0.64326 0.70356 0.0
H941 H 0.4539 0.71651 0.5528 0.0
H942 H 0.46522 0.69181 0.63261 0.0
H943 H 0.51722 0.67218 0.55736 0.0
H944 H 0.53921 0.5884 0.74575 0.0
H945 H 0.53801 0.62264 0.70025 0.0
C946 C 0.80122 0.56624 0.29397 0.0
C947 C 0.79776 0.54692 0.27992 0.0
C948 C 0.81406 0.5709 0.34167 0.0
C949 C 0.84207 0.54817 0.47572 0.0
H950 H 0.88087 0.59387 0.42138 0.0
C951 C 0.91959 0.5529 0.55951 0.0
C952 C 0.92751 0.56983 0.58467 0.0
C953 C 0.90202 0.55222 0.52904 0.0
C954 C 0.86998 0.58124 0.43764 0.0
H955 H 0.80381 0.51711 0.30745 0.0
H956 H 0.82619 0.52511 0.38963 0.0
H957 H 0.85182 0.58866 0.35948 0.0
H958 H 0.9233 0.59963 0.59504 0.0
H959 H 0.89278 0.59861 0.53914 0.0
H960 H 0.86082 0.54018 0.55158 0.0
C961 C 0.81904 0.53675 0.36468 0.0
C962 C 0.85328 0.57828 0.40245 0.0
C963 C 0.8063 0.53214 0.31719 0.0
C964 C 0.91773 0.5864 0.57595 0.0
C965 C 0.9002 0.58581 0.54437 0.0
C966 C 0.85883 0.55101 0.51028 0.0
C967 C 0.82355 0.55629 0.37631 0.0
C968 C 0.83941 0.56136 0.41994 0.0
C969 C 0.89204 0.56855 0.52181 0.0
C970 C 0.87318 0.56726 0.4905 0.0
H971 H 0.79488 0.57793 0.26565 0.0
H972 H 0.81703 0.58605 0.34999 0.0
H973 H 0.8315 0.53524 0.49148 0.0
H974 H 0.92694 0.54006 0.56344 0.0
H975 H 0.89625 0.53889 0.51071 0.0
loop_
_geom_bond_atom_site_label_1
_geom_bond_atom_site_label_2
_geom_bond_distance
_geom_bond_site_symmetry_2
_ccdc_geom_bond_type
H0 C5 0.930 . S
H1 C8 0.930 . S
H2 C10 0.930 . S
H3 C4 1.016 . S
C4 H3 1.016 . S
C4 N11 1.286 1_556 S
C5 H0 0.930 . S
C5 C6 1.397 . S
C5 C7 1.361 . S
C6 C5 1.397 . S
C6 C10 1.390 . S
C7 C5 1.361 . S
C7 C8 1.393 1_554 S
C7 N11 1.413 . S
C8 H1 0.930 . S
C8 C7 1.393 1_556 S
C8 C9 1.399 . S
C9 C8 1.399 . S
C9 C10 1.381 1_556 S
C10 H2 0.930 . S
C10 C6 1.390 . S
C10 C9 1.381 1_554 S
N11 C4 1.286 1_554 S
N11 C7 1.413 . S
H12 C17 0.930 . S
H13 C20 0.932 . S
H14 C22 0.930 . S
H15 C16 1.016 . S
C16 H15 1.016 . S
C16 N23 1.286 1_655 S
C17 H12 0.930 . S
C17 C18 1.397 1_455 S
C17 C19 1.361 . S
C18 C17 1.397 1_655 S
C18 C22 1.390 . S
C19 C17 1.361 . S
C19 C20 1.396 . S
C19 N23 1.413 . S
C20 H13 0.932 . S
C20 C19 1.396 . S
C20 C21 1.394 1_455 S
C21 C20 1.394 1_655 S
C21 C22 1.381 . S
C22 H14 0.930 . S
C22 C18 1.390 . S
C22 C21 1.381 . S
N23 C16 1.286 1_455 S
N23 C19 1.413 . S
H24 C29 0.930 . S
H25 C32 0.937 . S
H26 C34 0.930 . S
H27 C28 1.016 . S
C28 H27 1.016 . S
C28 N35 1.286 . S
C29 H24 0.930 . S
C29 C30 1.397 . S
C29 C31 1.361 . S
C30 C29 1.397 . S
C30 C34 1.390 . S
C31 C29 1.361 . S
C31 C32 1.393 . S
C31 N35 1.413 . S
C32 H25 0.937 . S
C32 C31 1.393 . S
C32 C33 1.399 . S
C33 C32 1.399 . S
C33 C34 1.381 . S
C34 H26 0.930 . S
C34 C30 1.390 . S
C34 C33 1.381 . S
N35 C28 1.286 . S
N35 C31 1.413 . S
H36 C41 0.930 . S
H37 C44 0.930 . S
H38 C46 0.930 . S
H39 C40 1.016 . S
C40 H39 1.016 . S
C40 N47 1.286 . S
C41 H36 0.930 . S
C41 C42 1.397 . S
C41 C43 1.361 . S
C42 C41 1.397 . S
C42 C46 1.390 . S
C43 C41 1.361 . S
C43 C44 1.393 . S
C43 N47 1.413 . S
C44 H37 0.930 . S
C44 C43 1.393 . S
C44 C45 1.399 . S
C45 C44 1.399 . S
C45 C46 1.381 . S
C46 H38 0.930 . S
C46 C42 1.390 . S
C46 C45 1.381 . S
N47 C40 1.286 . S
N47 C43 1.413 . S
H48 C53 0.930 . S
H49 C56 0.930 . S
H50 C58 0.930 . S
H51 C52 1.016 . S
C52 H51 1.016 . S
C52 N59 1.286 . S
C53 H48 0.930 . S
C53 C54 1.397 . S
C53 C55 1.361 . S
C54 C53 1.397 . S
C54 C58 1.390 . S
C55 C53 1.361 . S
C55 C56 1.393 . S
C55 N59 1.413 . S
C56 H49 0.930 . S
C56 C55 1.393 . S
C56 C57 1.399 . S
C57 C56 1.399 . S
C57 C58 1.381 . S
C58 H50 0.930 . S
C58 C54 1.390 . S
C58 C57 1.381 . S
N59 C52 1.286 . S
N59 C55 1.413 . S
H60 C65 0.930 . S
H61 C68 0.930 . S
H62 C70 0.930 . S
H63 C64 1.016 . S
C64 H63 1.016 . S
C64 N71 1.286 . S
C65 H60 0.930 . S
C65 C66 1.397 . S
C65 C67 1.361 . S
C66 C65 1.397 . S
C66 C70 1.390 . S
C67 C65 1.361 . S
C67 C68 1.393 . S
C67 N71 1.413 . S
C68 H61 0.930 . S
C68 C67 1.393 . S
C68 C69 1.399 . S
C69 C68 1.399 . S
C69 C70 1.381 . S
C70 H62 0.930 . S
C70 C66 1.390 . S
C70 C69 1.381 . S
N71 C64 1.286 . S
N71 C67 1.413 . S
H72 C77 0.930 . S
H73 C80 0.930 . S
H74 C82 0.930 . S
H75 C76 1.016 . S
C76 H75 1.016 . S
C76 N83 1.286 . S
C77 H72 0.930 . S
C77 C78 1.397 . S
C77 C79 1.361 . S
C78 C77 1.397 . S
C78 C82 1.390 . S
C79 C77 1.361 . S
C79 C80 1.393 . S
C79 N83 1.413 . S
C80 H73 0.930 . S
C80 C79 1.393 . S
C80 C81 1.399 . S
C81 C80 1.399 . S
C81 C82 1.381 . S
C82 H74 0.930 . S
C82 C78 1.390 . S
C82 C81 1.381 . S
N83 C76 1.286 . S
N83 C79 1.413 . S
H84 C89 0.930 . S
H85 C92 0.930 . S
H86 C94 0.930 . S
H87 C88 1.016 . S
C88 H87 1.016 . S
C88 N95 1.286 . S
C89 H84 0.930 . S
C89 C90 1.397 . S
C89 C91 1.361 . S
C90 C89 1.397 . S
C90 C94 1.390 . S
C91 C89 1.361 . S
C91 C92 1.393 . S
C91 N95 1.413 . S
C92 H85 0.930 . S
C92 C91 1.393 . S
C92 C93 1.399 . S
C93 C92 1.399 . S
C93 C94 1.381 . S
C94 H86 0.930 . S
C94 C90 1.390 . S
C94 C93 1.381 . S
N95 C88 1.286 . S
N95 C91 1.413 . S
Nd96 C98 2.836 1_545 S
Nd96 O116 2.500 1_445 S
Nd96 O117 2.492 1_545 S
Nd96 O118 2.487 . S
Nd96 O119 2.682 . S
Nd96 O120 2.410 1_545 S
Nd96 O125 2.414 1_455 S
Nd96 O127 2.424 . S
Nd97 C107 2.836 1_556 S
Nd97 O119 2.414 . S
Nd97 O121 2.424 1_545 S
Nd97 O122 2.500 . S
Nd97 O123 2.492 1_456 S
Nd97 O124 2.487 1_455 S
Nd97 O125 2.682 1_455 S
Nd97 O126 2.412 1_455 S
C98 Nd96 2.836 1_565 S
C98 C99 1.498 . S
C98 O116 1.258 1_455 S
C98 O117 1.239 . S
C99 C98 1.498 . S
C99 C100 1.364 1_455 S
C99 C104 1.410 . S
C100 C99 1.364 1_655 S
C100 C101 1.392 . S
C100 H128 0.930 . S
C101 C100 1.392 . S
C101 C102 1.398 . S
C101 H129 0.929 . S
C102 C101 1.398 . S
C102 C103 1.352 1_655 S
C103 C102 1.352 1_455 S
C103 C104 1.384 . S
C103 H130 0.930 . S
C104 C99 1.410 . S
C104 C103 1.384 . S
C104 H131 0.929 . S
C105 O118 1.241 . S
C105 O119 1.273 . S
C106 O120 1.251 . S
C106 O121 1.268 . S
C107 Nd97 2.836 1_554 S
C107 C108 1.498 . S
C107 O122 1.258 1_554 S
C107 O123 1.239 1_455 S
C108 C107 1.498 . S
C108 C109 1.366 . S
C108 C113 1.442 . S
C109 C108 1.366 . S
C109 C110 1.392 . S
C109 H132 0.930 . S
C110 C109 1.392 . S
C110 C111 1.398 . S
C110 H133 0.929 . S
C111 C110 1.398 . S
C111 C112 1.352 . S
C112 C111 1.352 . S
C112 C113 1.386 . S
C112 H134 0.930 1_455 S
C113 C108 1.442 . S
C113 C112 1.386 . S
C113 H135 0.894 1_455 S
C114 O124 1.241 . S
C114 O125 1.273 . S
C115 O126 1.252 1_455 S
C115 O127 1.268 . S
O116 Nd96 2.500 1_665 S
O116 C98 1.258 1_655 S
O117 Nd96 2.492 1_565 S
O117 C98 1.239 . S
O118 Nd96 2.487 . S
O118 C105 1.241 . S
O119 Nd96 2.682 . S
O119 Nd97 2.414 . S
O119 C105 1.273 . S
O120 Nd96 2.410 1_565 S
O120 C106 1.251 . S
O121 Nd97 2.424 1_565 S
O121 C106 1.268 . S
O122 Nd97 2.500 . S
O122 C107 1.258 1_556 S
O123 Nd97 2.492 1_654 S
O123 C107 1.239 1_655 S
O124 Nd97 2.487 1_655 S
O124 C114 1.241 . S
O125 Nd96 2.414 1_655 S
O125 Nd97 2.682 1_655 S
O125 C114 1.273 . S
O126 Nd97 2.412 1_655 S
O126 C115 1.252 1_655 S
O127 Nd96 2.424 . S
O127 C115 1.268 . S
H128 C100 0.930 . S
H129 C101 0.929 . S
H130 C103 0.930 . S
H131 C104 0.929 . S
H132 C109 0.930 . S
H133 C110 0.929 . S
H134 C112 0.930 1_655 S
H135 C113 0.894 1_655 S
Nd136 C138 2.836 1_545 S
Nd136 O156 2.500 1_545 S
Nd136 O157 2.492 . S
Nd136 O158 2.487 . S
Nd136 O159 2.682 . S
Nd136 O160 2.410 . S
Nd136 O165 2.414 1_545 S
Nd136 O167 2.424 . S
Nd137 C147 2.836 1_556 S
Nd137 O159 2.414 . S
Nd137 O161 2.424 . S
Nd137 O162 2.500 . S
Nd137 O163 2.492 1_556 S
Nd137 O164 2.487 1_545 S
Nd137 O165 2.682 1_545 S
Nd137 O166 2.410 . S
C138 Nd136 2.836 1_565 S
C138 C139 1.498 . S
C138 O156 1.258 . S
C138 O157 1.239 1_565 S
C139 C138 1.498 . S
C139 C140 1.366 . S
C139 C144 1.407 . S
C140 C139 1.366 . S
C140 C141 1.392 . S
C140 H168 0.930 . S
C141 C140 1.392 . S
C141 C142 1.398 . S
C141 H169 0.929 . S
C142 C141 1.398 . S
C142 C143 1.352 . S
C143 C142 1.352 . S
C143 C144 1.384 . S
C143 H170 0.930 . S
C144 C139 1.407 . S
C144 C143 1.384 . S
C144 H171 0.929 1_565 S
C145 O158 1.241 . S
C145 O159 1.273 . S
C146 O160 1.251 . S
C146 O161 1.268 . S
C147 Nd137 2.836 1_554 S
C147 C148 1.498 . S
C147 O162 1.258 1_554 S
C147 O163 1.239 . S
C148 C147 1.498 . S
C148 C149 1.366 . S
C148 C153 1.407 . S
C149 C148 1.366 . S
C149 C150 1.392 . S
C149 H172 0.930 1_554 S
C150 C149 1.392 . S
C150 C151 1.398 . S
C150 H173 0.929 . S
C151 C150 1.398 . S
C151 C152 1.352 . S
C152 C151 1.352 . S
C152 C153 1.384 . S
C152 H174 0.930 . S
C153 C148 1.407 . S
C153 C152 1.384 . S
C153 H175 0.929 . S
C154 O164 1.241 . S
C154 O165 1.273 . S
C155 O166 1.251 . S
C155 O167 1.268 . S
O156 Nd136 2.500 1_565 S
O156 C138 1.258 . S
O157 Nd136 2.492 . S
O157 C138 1.239 1_545 S
O158 Nd136 2.487 . S
O158 C145 1.241 . S
O159 Nd136 2.682 . S
O159 Nd137 2.414 . S
O159 C145 1.273 . S
O160 Nd136 2.410 . S
O160 C146 1.251 . S
O161 Nd137 2.424 . S
O161 C146 1.268 . S
O162 Nd137 2.500 . S
O162 C147 1.258 1_556 S
O163 Nd137 2.492 1_554 S
O163 C147 1.239 . S
O164 Nd137 2.487 1_565 S
O164 C154 1.241 . S
O165 Nd136 2.414 1_565 S
O165 Nd137 2.682 1_565 S
O165 C154 1.273 . S
O166 Nd137 2.410 . S
O166 C155 1.251 . S
O167 Nd136 2.424 . S
O167 C155 1.268 . S
H168 C140 0.930 . S
H169 C141 0.929 . S
H170 C143 0.930 . S
H171 C144 0.929 1_545 S
H172 C149 0.930 1_556 S
H173 C150 0.929 . S
H174 C152 0.930 . S
H175 C153 0.929 . S
Nd176 C178 2.836 . S
Nd176 O196 2.500 . S
Nd176 O197 2.492 . S
Nd176 O198 2.487 . S
Nd176 O199 2.682 . S
Nd176 O200 2.410 . S
Nd176 O205 2.414 . S
Nd176 O207 2.424 . S
Nd177 C187 2.836 . S
Nd177 O199 2.414 . S
Nd177 O201 2.424 . S
Nd177 O202 2.500 . S
Nd177 O203 2.492 . S
Nd177 O204 2.487 . S
Nd177 O205 2.682 . S
Nd177 O206 2.410 . S
C178 Nd176 2.836 . S
C178 C179 1.498 1_556 S
C178 O196 1.258 . S
C178 O197 1.239 . S
C179 C178 1.498 1_554 S
C179 C180 1.366 1_554 S
C179 C184 1.407 . S
C180 C179 1.366 1_556 S
C180 C181 1.392 1_556 S
C180 H208 0.930 . S
C181 C180 1.392 1_554 S
C181 C182 1.398 . S
C181 H209 0.929 1_554 S
C182 C181 1.398 . S
C182 C183 1.352 . S
C183 C182 1.352 . S
C183 C184 1.384 . S
C183 H210 0.930 . S
C184 C179 1.407 . S
C184 C183 1.384 . S
C184 H211 0.929 . S
C185 O198 1.241 . S
C185 O199 1.273 . S
C186 O200 1.251 . S
C186 O201 1.268 . S
C187 Nd177 2.836 . S
C187 C188 1.498 . S
C187 O202 1.258 . S
C187 O203 1.239 . S
C188 C187 1.498 . S
C188 C189 1.366 . S
C188 C193 1.407 . S
C189 C188 1.366 . S
C189 C190 1.392 . S
C189 H212 0.930 . S
C190 C189 1.392 . S
C190 C191 1.398 . S
C190 H213 0.929 . S
C191 C190 1.398 . S
C191 C192 1.352 . S
C192 C191 1.352 . S
C192 C193 1.384 . S
C192 H214 0.930 . S
C193 C188 1.407 . S
C193 C192 1.384 . S
C193 H215 0.929 . S
C194 O204 1.241 . S
C194 O205 1.273 . S
C195 O206 1.251 . S
C195 O207 1.268 . S
O196 Nd176 2.500 . S
O196 C178 1.258 . S
O197 Nd176 2.492 . S
O197 C178 1.239 . S
O198 Nd176 2.487 . S
O198 C185 1.241 . S
O199 Nd176 2.682 . S
O199 Nd177 2.414 . S
O199 C185 1.273 . S
O200 Nd176 2.410 . S
O200 C186 1.251 . S
O201 Nd177 2.424 . S
O201 C186 1.268 . S
O202 Nd177 2.500 . S
O202 C187 1.258 . S
O203 Nd177 2.492 . S
O203 C187 1.239 . S
O204 Nd177 2.487 . S
O204 C194 1.241 . S
O205 Nd176 2.414 . S
O205 Nd177 2.682 . S
O205 C194 1.273 . S
O206 Nd177 2.410 . S
O206 C195 1.251 . S
O207 Nd176 2.424 . S
O207 C195 1.268 . S
H208 C180 0.930 . S
H209 C181 0.929 1_556 S
H210 C183 0.930 . S
H211 C184 0.929 . S
H212 C189 0.930 . S
H213 C190 0.929 . S
H214 C192 0.930 . S
H215 C193 0.929 . S
Nd216 C218 2.836 1_455 S
Nd216 O236 2.500 1_455 S
Nd216 O237 2.492 1_455 S
Nd216 O238 2.487 1_455 S
Nd216 O239 2.682 . S
Nd216 O240 2.410 1_455 S
Nd216 O245 2.414 . S
Nd216 O247 2.424 . S
Nd217 C227 2.836 1_556 S
Nd217 O239 2.414 . S
Nd217 O241 2.424 1_455 S
Nd217 O242 2.500 1_556 S
Nd217 O243 2.492 1_556 S
Nd217 O244 2.487 . S
Nd217 O245 2.682 . S
Nd217 O246 2.410 . S
C218 Nd216 2.836 1_655 S
C218 C219 1.498 . S
C218 O236 1.258 . S
C218 O237 1.239 . S
C219 C218 1.498 . S
C219 C220 1.366 . S
C219 C224 1.407 . S
C220 C219 1.366 . S
C220 C221 1.392 . S
C220 H248 0.930 . S
C221 C220 1.392 . S
C221 C222 1.398 . S
C221 H249 0.929 . S
C222 C221 1.398 . S
C222 C223 1.352 . S
C223 C222 1.352 . S
C223 C224 1.384 . S
C223 H250 0.930 . S
C224 C219 1.407 . S
C224 C223 1.384 . S
C224 H251 0.929 . S
C225 O238 1.241 1_455 S
C225 O239 1.273 . S
C226 O240 1.251 . S
C226 O241 1.268 . S
C227 Nd217 2.836 1_554 S
C227 C228 1.498 . S
C227 O242 1.258 . S
C227 O243 1.239 . S
C228 C227 1.498 . S
C228 C229 1.366 . S
C228 C233 1.407 . S
C229 C228 1.366 . S
C229 C230 1.392 . S
C229 H252 0.930 . S
C230 C229 1.392 . S
C230 C231 1.398 . S
C230 H253 0.929 . S
C231 C230 1.398 . S
C231 C232 1.352 . S
C232 C231 1.352 . S
C232 C233 1.384 . S
C232 H254 0.930 . S
C233 C228 1.407 . S
C233 C232 1.384 . S
C233 H255 0.929 . S
C234 O244 1.241 . S
C234 O245 1.273 . S
C235 O246 1.251 . S
C235 O247 1.268 . S
O236 Nd216 2.500 1_655 S
O236 C218 1.258 . S
O237 Nd216 2.492 1_655 S
O237 C218 1.239 . S
O238 Nd216 2.487 1_655 S
O238 C225 1.241 1_655 S
O239 Nd216 2.682 . S
O239 Nd217 2.414 . S
O239 C225 1.273 . S
O240 Nd216 2.410 1_655 S
O240 C226 1.251 . S
O241 Nd217 2.424 1_655 S
O241 C226 1.268 . S
O242 Nd217 2.500 1_554 S
O242 C227 1.258 . S
O243 Nd217 2.492 1_554 S
O243 C227 1.239 . S
O244 Nd217 2.487 . S
O244 C234 1.241 . S
O245 Nd216 2.414 . S
O245 Nd217 2.682 . S
O245 C234 1.273 . S
O246 Nd217 2.410 . S
O246 C235 1.251 . S
O247 Nd216 2.424 . S
O247 C235 1.268 . S
H248 C220 0.930 . S
H249 C221 0.929 . S
H250 C223 0.930 . S
H251 C224 0.929 . S
H252 C229 0.930 . S
H253 C230 0.929 . S
H254 C232 0.930 . S
H255 C233 0.929 . S
C256 C257 1.349 . S
C256 C258 1.327 . S
C256 H281 0.950 . S
C257 C256 1.349 . S
C257 C273 1.349 . S
C258 C256 1.327 . S
C258 C277 1.429 . S
C258 H282 0.950 . S
C259 C276 1.574 . S
C259 C278 1.368 . S
C259 H283 0.949 . S
H260 C264 0.949 . S
C261 C262 1.349 . S
C261 C263 1.327 . S
C261 H284 0.950 . S
C262 C261 1.349 . S
C262 C274 1.349 . S
C263 C261 1.327 . S
C263 C279 1.429 . S
C263 H285 0.950 . S
C264 H260 0.949 . S
C264 C272 1.574 . S
C264 C280 1.368 . S
H265 C273 0.950 . S
H266 C271 0.950 . S
H267 C272 0.949 . S
H268 C274 0.950 . S
H269 C275 0.950 . S
H270 C276 0.949 . S
C271 H266 0.950 . S
C271 C273 1.327 . S
C271 C277 1.429 . S
C272 C264 1.574 . S
C272 H267 0.949 . S
C272 C278 1.368 . S
C273 C257 1.349 . S
C273 H265 0.950 . S
C273 C271 1.327 . S
C274 C262 1.349 . S
C274 H268 0.950 . S
C274 C275 1.327 . S
C275 H269 0.950 . S
C275 C274 1.327 . S
C275 C279 1.429 . S
C276 C259 1.574 . S
C276 H270 0.949 . S
C276 C280 1.368 . S
C277 C258 1.429 . S
C277 C271 1.429 . S
C277 C278 1.523 . S
C278 C259 1.368 . S
C278 C272 1.368 . S
C278 C277 1.523 . S
C279 C263 1.429 . S
C279 C275 1.429 . S
C279 C280 1.523 . S
C280 C264 1.368 . S
C280 C276 1.368 . S
C280 C279 1.523 . S
H281 C256 0.950 . S
H282 C258 0.950 . S
H283 C259 0.949 . S
H284 C261 0.950 . S
H285 C263 0.950 . S
C286 C287 1.349 . S
C286 C288 1.327 . S
C286 H311 0.950 . S
C287 C286 1.349 . S
C287 C303 1.349 . S
C288 C286 1.327 . S
C288 C307 1.429 . S
C288 H312 0.950 . S
C289 C306 1.574 . S
C289 C308 1.368 . S
C289 H313 0.949 . S
H290 C294 0.949 . S
C291 C292 1.349 . S
C291 C293 1.327 . S
C291 H314 0.950 . S
C292 C291 1.349 . S
C292 C304 1.349 . S
C293 C291 1.327 . S
C293 C309 1.429 . S
C293 H315 0.950 . S
C294 H290 0.949 . S
C294 C302 1.574 . S
C294 C310 1.368 . S
H295 C303 0.950 . S
H296 C301 0.950 . S
H297 C302 0.949 . S
H298 C304 0.950 . S
H299 C305 0.950 . S
H300 C306 0.949 . S
C301 H296 0.950 . S
C301 C303 1.327 . S
C301 C307 1.429 . S
C302 C294 1.574 . S
C302 H297 0.949 . S
C302 C308 1.368 . S
C303 C287 1.349 . S
C303 H295 0.950 . S
C303 C301 1.327 . S
C304 C292 1.349 . S
C304 H298 0.950 . S
C304 C305 1.327 . S
C305 H299 0.950 . S
C305 C304 1.327 . S
C305 C309 1.429 . S
C306 C289 1.574 . S
C306 H300 0.949 . S
C306 C310 1.368 . S
C307 C288 1.429 . S
C307 C301 1.429 . S
C307 C308 1.523 . S
C308 C289 1.368 . S
C308 C302 1.368 . S
C308 C307 1.523 . S
C309 C293 1.429 . S
C309 C305 1.429 . S
C309 C310 1.523 . S
C310 C294 1.368 . S
C310 C306 1.368 . S
C310 C309 1.523 . S
H311 C286 0.950 . S
H312 C288 0.950 . S
H313 C289 0.949 . S
H314 C291 0.950 . S
H315 C293 0.950 . S
C316 C317 1.349 . S
C316 C318 1.327 . S
C316 H341 0.950 . S
C317 C316 1.349 . S
C317 C333 1.349 . S
C318 C316 1.327 . S
C318 C337 1.429 . S
C318 H342 0.950 . S
C319 C336 1.574 . S
C319 C338 1.368 . S
C319 H343 0.949 . S
H320 C324 0.949 . S
C321 C322 1.349 . S
C321 C323 1.327 . S
C321 H344 0.950 . S
C322 C321 1.349 . S
C322 C334 1.349 . S
C323 C321 1.327 . S
C323 C339 1.429 . S
C323 H345 0.950 . S
C324 H320 0.949 . S
C324 C332 1.574 . S
C324 C340 1.368 . S
H325 C333 0.950 . S
H326 C331 0.950 . S
H327 C332 0.949 . S
H328 C334 0.950 . S
H329 C335 0.950 . S
H330 C336 0.949 . S
C331 H326 0.950 . S
C331 C333 1.327 . S
C331 C337 1.429 . S
C332 C324 1.574 . S
C332 H327 0.949 . S
C332 C338 1.368 . S
C333 C317 1.349 . S
C333 H325 0.950 . S
C333 C331 1.327 . S
C334 C322 1.349 . S
C334 H328 0.950 . S
C334 C335 1.327 . S
C335 H329 0.950 . S
C335 C334 1.327 . S
C335 C339 1.429 . S
C336 C319 1.574 . S
C336 H330 0.949 . S
C336 C340 1.368 . S
C337 C318 1.429 . S
C337 C331 1.429 . S
C337 C338 1.523 . S
C338 C319 1.368 . S
C338 C332 1.368 . S
C338 C337 1.523 . S
C339 C323 1.429 . S
C339 C335 1.429 . S
C339 C340 1.523 . S
C340 C324 1.368 . S
C340 C336 1.368 . S
C340 C339 1.523 . S
H341 C316 0.950 . S
H342 C318 0.950 . S
H343 C319 0.949 . S
H344 C321 0.950 . S
H345 C323 0.950 . S
C346 C347 1.349 . S
C346 C348 1.327 . S
C346 H371 0.950 . S
C347 C346 1.349 . S
C347 C363 1.349 . S
C348 C346 1.327 . S
C348 C367 1.429 . S
C348 H372 0.950 . S
C349 C366 1.574 . S
C349 C368 1.368 1_655 S
C349 H373 0.949 . S
H350 C354 0.949 . S
C351 C352 1.349 1_655 S
C351 C353 1.327 . S
C351 H374 0.950 . S
C352 C351 1.349 1_455 S
C352 C364 1.349 . S
C353 C351 1.327 . S
C353 C369 1.429 1_655 S
C353 H375 0.950 . S
C354 H350 0.949 . S
C354 C362 1.574 . S
C354 C370 1.368 . S
H355 C363 0.950 1_655 S
H356 C361 0.898 1_655 S
H357 C362 0.949 . S
H358 C364 0.950 . S
H359 C365 0.950 . S
H360 C366 0.949 . S
C361 H356 0.898 1_455 S
C361 C363 1.342 . S
C361 C367 1.467 . S
C362 C354 1.574 . S
C362 H357 0.949 . S
C362 C368 1.368 . S
C363 C347 1.349 . S
C363 H355 0.950 1_455 S
C363 C361 1.342 . S
C364 C352 1.349 . S
C364 H358 0.950 . S
C364 C365 1.327 . S
C365 H359 0.950 . S
C365 C364 1.327 . S
C365 C369 1.429 . S
C366 C349 1.574 . S
C366 H360 0.949 . S
C366 C370 1.368 1_655 S
C367 C348 1.429 . S
C367 C361 1.467 . S
C367 C368 1.523 . S
C368 C349 1.368 1_455 S
C368 C362 1.368 . S
C368 C367 1.523 . S
C369 C353 1.429 1_455 S
C369 C365 1.429 . S
C369 C370 1.523 . S
C370 C354 1.368 . S
C370 C366 1.368 1_455 S
C370 C369 1.523 . S
H371 C346 0.950 . S
H372 C348 0.950 . S
H373 C349 0.949 . S
H374 C351 0.950 . S
H375 C353 0.950 . S
C376 C377 1.349 1_556 S
C376 C378 1.327 . S
C376 H401 0.950 . S
C377 C376 1.349 1_554 S
C377 C393 1.349 . S
C378 C376 1.327 . S
C378 C397 1.429 1_556 S
C378 H402 0.950 . S
C379 C396 1.574 . S
C379 C398 1.368 1_554 S
C379 H403 0.949 . S
H380 C384 0.949 . S
C381 C382 1.349 . S
C381 C383 1.327 . S
C381 H404 0.950 . S
C382 C381 1.349 . S
C382 C394 1.349 . S
C383 C381 1.327 . S
C383 C399 1.429 . S
C383 H405 0.950 1_556 S
C384 H380 0.949 . S
C384 C392 1.574 . S
C384 C400 1.368 . S
H385 C393 0.950 . S
H386 C391 0.950 . S
H387 C392 0.949 . S
H388 C394 0.950 1_545 S
H389 C395 0.950 . S
H390 C396 0.949 . S
C391 H386 0.950 . S
C391 C393 1.327 . S
C391 C397 1.429 . S
C392 C384 1.574 . S
C392 H387 0.949 . S
C392 C398 1.368 . S
C393 C377 1.349 . S
C393 H385 0.950 . S
C393 C391 1.327 . S
C394 C382 1.349 . S
C394 H388 0.950 1_565 S
C394 C395 1.327 . S
C395 H389 0.950 . S
C395 C394 1.327 . S
C395 C399 1.429 . S
C396 C379 1.574 . S
C396 H390 0.949 . S
C396 C400 1.368 1_554 S
C397 C378 1.429 1_554 S
C397 C391 1.429 . S
C397 C398 1.523 1_554 S
C398 C379 1.368 1_556 S
C398 C392 1.368 . S
C398 C397 1.523 1_556 S
C399 C383 1.429 . S
C399 C395 1.429 . S
C399 C400 1.523 . S
C400 C384 1.368 . S
C400 C396 1.368 1_556 S
C400 C399 1.523 . S
H401 C376 0.950 . S
H402 C378 0.950 . S
H403 C379 0.949 . S
H404 C381 0.950 . S
H405 C383 0.950 1_554 S
C406 C407 1.349 . S
C406 C408 1.327 . S
C406 H431 0.950 . S
C407 C406 1.349 . S
C407 C423 1.349 . S
C408 C406 1.327 . S
C408 C427 1.429 . S
C408 H432 0.950 . S
C409 C426 1.574 . S
C409 C428 1.368 . S
C409 H433 0.949 . S
H410 C414 0.949 . S
C411 C412 1.349 1_554 S
C411 C413 1.327 . S
C411 H434 0.950 . S
C412 C411 1.349 1_556 S
C412 C424 1.349 . S
C413 C411 1.327 . S
C413 C429 1.429 . S
C413 H435 0.950 . S
C414 H410 0.949 . S
C414 C422 1.574 . S
C414 C430 1.368 . S
H415 C423 0.950 . S
H416 C421 0.950 . S
H417 C422 0.949 . S
H418 C424 0.950 . S
H419 C425 0.950 . S
H420 C426 0.949 . S
C421 H416 0.950 . S
C421 C423 1.327 . S
C421 C427 1.429 . S
C422 C414 1.574 . S
C422 H417 0.949 . S
C422 C428 1.368 . S
C423 C407 1.349 . S
C423 H415 0.950 . S
C423 C421 1.327 . S
C424 C412 1.349 . S
C424 H418 0.950 . S
C424 C425 1.327 . S
C425 H419 0.950 . S
C425 C424 1.327 . S
C425 C429 1.429 1_556 S
C426 C409 1.574 . S
C426 H420 0.949 . S
C426 C430 1.368 . S
C427 C408 1.429 . S
C427 C421 1.429 . S
C427 C428 1.523 . S
C428 C409 1.368 . S
C428 C422 1.368 . S
C428 C427 1.523 . S
C429 C413 1.429 . S
C429 C425 1.429 1_554 S
C429 C430 1.523 . S
C430 C414 1.368 . S
C430 C426 1.368 . S
C430 C429 1.523 . S
H431 C406 0.950 . S
H432 C408 0.950 . S
H433 C409 0.949 . S
H434 C411 0.950 . S
H435 C413 0.950 . S
C436 C437 1.349 1_554 S
C436 C438 1.327 1_554 S
C436 H461 0.950 . S
C437 C436 1.349 1_556 S
C437 C453 1.349 . S
C438 C436 1.327 1_556 S
C438 C457 1.429 . S
C438 H462 0.950 1_556 S
C439 C456 1.574 . S
C439 C458 1.368 . S
C439 H463 0.949 . S
H440 C444 0.949 1_554 S
C441 C442 1.349 . S
C441 C443 1.327 . S
C441 H464 0.950 . S
C442 C441 1.349 . S
C442 C454 1.349 . S
C443 C441 1.327 . S
C443 C459 1.429 . S
C443 H465 0.950 . S
C444 H440 0.949 1_556 S
C444 C452 1.574 . S
C444 C460 1.368 . S
H445 C453 0.950 . S
H446 C451 0.950 . S
H447 C452 0.949 1_554 S
H448 C454 0.950 . S
H449 C455 0.950 . S
H450 C456 0.949 . S
C451 H446 0.950 . S
C451 C453 1.327 . S
C451 C457 1.429 . S
C452 C444 1.574 . S
C452 H447 0.949 1_556 S
C452 C458 1.368 . S
C453 C437 1.349 . S
C453 H445 0.950 . S
C453 C451 1.327 . S
C454 C442 1.349 . S
C454 H448 0.950 . S
C454 C455 1.327 . S
C455 H449 0.950 . S
C455 C454 1.327 . S
C455 C459 1.429 . S
C456 C439 1.574 . S
C456 H450 0.949 . S
C456 C460 1.368 . S
C457 C438 1.429 . S
C457 C451 1.429 . S
C457 C458 1.523 . S
C458 C439 1.368 . S
C458 C452 1.368 . S
C458 C457 1.523 . S
C459 C443 1.429 . S
C459 C455 1.429 . S
C459 C460 1.523 . S
C460 C444 1.368 . S
C460 C456 1.368 . S
C460 C459 1.523 . S
H461 C436 0.950 . S
H462 C438 0.950 1_554 S
H463 C439 0.949 . S
H464 C441 0.950 . S
H465 C443 0.950 . S
C466 C467 1.349 . S
C466 C468 1.327 . S
C466 H491 0.950 . S
C467 C466 1.349 . S
C467 C483 1.349 1_655 S
C468 C466 1.327 . S
C468 C487 1.404 1_655 S
C468 H492 0.950 . S
C469 C486 1.574 . S
C469 C488 1.368 1_556 S
C469 H493 0.949 . S
H470 C474 0.949 . S
C471 C472 1.349 . S
C471 C473 1.327 . S
C471 H494 0.950 . S
C472 C471 1.349 . S
C472 C484 1.349 1_455 S
C473 C471 1.327 . S
C473 C489 1.429 . S
C473 H495 0.950 . S
C474 H470 0.949 . S
C474 C482 1.574 . S
C474 C490 1.368 1_654 S
H475 C483 0.950 . S
H476 C481 0.956 . S
H477 C482 0.949 . S
H478 C484 0.950 . S
H479 C485 0.946 1_554 S
H480 C486 0.949 . S
C481 H476 0.956 . S
C481 C483 1.323 1_556 S
C481 C487 1.444 1_556 S
C482 C474 1.574 . S
C482 H477 0.949 . S
C482 C488 1.368 1_655 S
C483 C467 1.349 1_455 S
C483 H475 0.950 . S
C483 C481 1.323 1_554 S
C484 C472 1.349 1_655 S
C484 H478 0.950 . S
C484 C485 1.327 . S
C485 H479 0.946 1_556 S
C485 C484 1.327 . S
C485 C489 1.429 1_655 S
C486 C469 1.574 . S
C486 H480 0.949 . S
C486 C490 1.368 . S
C487 C468 1.404 1_455 S
C487 C481 1.444 1_554 S
C487 C488 1.531 . S
C488 C469 1.368 1_554 S
C488 C482 1.368 1_455 S
C488 C487 1.531 . S
C489 C473 1.429 . S
C489 C485 1.429 1_455 S
C489 C490 1.523 . S
C490 C474 1.368 1_456 S
C490 C486 1.368 . S
C490 C489 1.523 . S
H491 C466 0.950 . S
H492 C468 0.950 . S
H493 C469 0.949 . S
H494 C471 0.950 . S
H495 C473 0.950 . S
C496 C497 1.349 . S
C496 C498 1.327 . S
C496 H521 0.950 1_455 S
C497 C496 1.349 . S
C497 C513 1.349 . S
C498 C496 1.327 . S
C498 C517 1.429 . S
C498 H522 0.950 1_455 S
C499 C516 1.574 . S
C499 C518 1.368 . S
C499 H523 0.949 . S
H500 C504 0.949 . S
C501 C502 1.349 . S
C501 C503 1.327 . S
C501 H524 0.950 . S
C502 C501 1.349 . S
C502 C514 1.349 1_455 S
C503 C501 1.327 . S
C503 C519 1.429 . S
C503 H525 0.950 . S
C504 H500 0.949 . S
C504 C512 1.574 . S
C504 C520 1.368 1_655 S
H505 C513 0.950 . S
H506 C511 0.950 . S
H507 C512 0.949 . S
H508 C514 0.950 . S
H509 C515 0.950 . S
H510 C516 0.949 . S
C511 H506 0.950 . S
C511 C513 1.327 . S
C511 C517 1.429 . S
C512 C504 1.574 . S
C512 H507 0.949 . S
C512 C518 1.368 1_655 S
C513 C497 1.349 . S
C513 H505 0.950 . S
C513 C511 1.327 . S
C514 C502 1.349 1_655 S
C514 H508 0.950 . S
C514 C515 1.327 . S
C515 H509 0.950 . S
C515 C514 1.327 . S
C515 C519 1.429 1_655 S
C516 C499 1.574 . S
C516 H510 0.949 . S
C516 C520 1.368 . S
C517 C498 1.429 . S
C517 C511 1.429 . S
C517 C518 1.523 . S
C518 C499 1.368 . S
C518 C512 1.368 1_455 S
C518 C517 1.523 . S
C519 C503 1.429 . S
C519 C515 1.429 1_455 S
C519 C520 1.523 . S
C520 C504 1.368 1_455 S
C520 C516 1.368 . S
C520 C519 1.523 . S
H521 C496 0.950 1_655 S
H522 C498 0.950 1_655 S
H523 C499 0.949 . S
H524 C501 0.950 . S
H525 C503 0.950 . S
C526 C527 1.349 . S
C526 C528 1.327 . S
C526 H551 0.950 . S
C527 C526 1.349 . S
C527 C543 1.349 . S
C528 C526 1.327 . S
C528 C547 1.429 . S
C528 H552 0.950 . S
C529 C546 1.574 . S
C529 C548 1.368 . S
C529 H553 0.949 . S
H530 C534 0.949 . S
C531 C532 1.349 . S
C531 C533 1.327 . S
C531 H554 0.950 . S
C532 C531 1.349 . S
C532 C544 1.349 . S
C533 C531 1.327 . S
C533 C549 1.429 . S
C533 H555 0.950 . S
C534 H530 0.949 . S
C534 C542 1.574 . S
C534 C550 1.368 . S
H535 C543 0.950 . S
H536 C541 0.950 . S
H537 C542 0.949 . S
H538 C544 0.950 . S
H539 C545 0.950 . S
H540 C546 0.949 . S
C541 H536 0.950 . S
C541 C543 1.327 . S
C541 C547 1.429 . S
C542 C534 1.574 . S
C542 H537 0.949 . S
C542 C548 1.368 . S
C543 C527 1.349 . S
C543 H535 0.950 . S
C543 C541 1.327 . S
C544 C532 1.349 . S
C544 H538 0.950 . S
C544 C545 1.327 . S
C545 H539 0.950 . S
C545 C544 1.327 . S
C545 C549 1.429 . S
C546 C529 1.574 . S
C546 H540 0.949 . S
C546 C550 1.368 . S
C547 C528 1.429 . S
C547 C541 1.429 . S
C547 C548 1.523 . S
C548 C529 1.368 . S
C548 C542 1.368 . S
C548 C547 1.523 . S
C549 C533 1.429 . S
C549 C545 1.429 . S
C549 C550 1.523 . S
C550 C534 1.368 . S
C550 C546 1.368 . S
C550 C549 1.523 . S
H551 C526 0.950 . S
H552 C528 0.950 . S
H553 C529 0.949 . S
H554 C531 0.950 . S
H555 C533 0.950 . S
C556 C557 1.349 . S
C556 C558 1.327 . S
C556 H581 0.950 . S
C557 C556 1.349 . S
C557 C573 1.349 . S
C558 C556 1.327 . S
C558 C577 1.429 . S
C558 H582 0.950 . S
C559 C576 1.574 . S
C559 C578 1.368 . S
C559 H583 0.949 . S
H560 C564 0.949 . S
C561 C562 1.349 . S
C561 C563 1.327 . S
C561 H584 0.950 . S
C562 C561 1.349 . S
C562 C574 1.349 . S
C563 C561 1.327 . S
C563 C579 1.429 . S
C563 H585 0.950 . S
C564 H560 0.949 . S
C564 C572 1.574 . S
C564 C580 1.368 . S
H565 C573 0.950 . S
H566 C571 0.950 . S
H567 C572 0.949 . S
H568 C574 0.950 . S
H569 C575 0.950 . S
H570 C576 0.949 . S
C571 H566 0.950 . S
C571 C573 1.327 . S
C571 C577 1.429 . S
C572 C564 1.574 . S
C572 H567 0.949 . S
C572 C578 1.368 . S
C573 C557 1.349 . S
C573 H565 0.950 . S
C573 C571 1.327 . S
C574 C562 1.349 . S
C574 H568 0.950 . S
C574 C575 1.327 . S
C575 H569 0.950 . S
C575 C574 1.327 . S
C575 C579 1.429 . S
C576 C559 1.574 . S
C576 H570 0.949 . S
C576 C580 1.368 . S
C577 C558 1.429 . S
C577 C571 1.429 . S
C577 C578 1.523 . S
C578 C559 1.368 . S
C578 C572 1.368 . S
C578 C577 1.523 . S
C579 C563 1.429 . S
C579 C575 1.429 . S
C579 C580 1.523 . S
C580 C564 1.368 . S
C580 C576 1.368 . S
C580 C579 1.523 . S
H581 C556 0.950 . S
H582 C558 0.950 . S
H583 C559 0.949 . S
H584 C561 0.950 . S
H585 C563 0.950 . S
C586 C587 1.349 . S
C586 C588 1.327 . S
C586 H611 0.950 . S
C587 C586 1.349 . S
C587 C603 1.349 . S
C588 C586 1.327 . S
C588 C607 1.429 . S
C588 H612 0.950 . S
C589 C606 1.574 . S
C589 C608 1.368 . S
C589 H613 0.949 . S
H590 C594 0.949 . S
C591 C592 1.349 . S
C591 C593 1.327 . S
C591 H614 0.950 . S
C592 C591 1.349 . S
C592 C604 1.349 . S
C593 C591 1.327 . S
C593 C609 1.429 . S
C593 H615 0.950 . S
C594 H590 0.949 . S
C594 C602 1.574 . S
C594 C610 1.368 . S
H595 C603 0.950 . S
H596 C601 0.950 . S
H597 C602 0.949 . S
H598 C604 0.950 . S
H599 C605 0.950 . S
H600 C606 0.949 . S
C601 H596 0.950 . S
C601 C603 1.327 . S
C601 C607 1.429 . S
C602 C594 1.574 . S
C602 H597 0.949 . S
C602 C608 1.368 . S
C603 C587 1.349 . S
C603 H595 0.950 . S
C603 C601 1.327 . S
C604 C592 1.349 . S
C604 H598 0.950 . S
C604 C605 1.327 . S
C605 H599 0.950 . S
C605 C604 1.327 . S
C605 C609 1.429 . S
C606 C589 1.574 . S
C606 H600 0.949 . S
C606 C610 1.368 . S
C607 C588 1.429 . S
C607 C601 1.429 . S
C607 C608 1.523 . S
C608 C589 1.368 . S
C608 C602 1.368 . S
C608 C607 1.523 . S
C609 C593 1.429 . S
C609 C605 1.429 . S
C609 C610 1.523 . S
C610 C594 1.368 . S
C610 C606 1.368 . S
C610 C609 1.523 . S
H611 C586 0.950 . S
H612 C588 0.950 . S
H613 C589 0.949 . S
H614 C591 0.950 . S
H615 C593 0.950 . S
C616 C617 1.349 1_455 S
C616 C618 1.327 . S
C616 H641 0.950 . S
C617 C616 1.349 1_655 S
C617 C633 1.349 1_554 S
C618 C616 1.327 . S
C618 C637 1.419 1_455 S
C618 H642 0.950 . S
C619 C636 1.574 . S
C619 C638 1.368 1_655 S
C619 H643 0.949 . S
H620 C624 0.949 . S
C621 C622 1.349 1_655 S
C621 C623 1.327 . S
C621 H644 0.950 . S
C622 C621 1.349 1_455 S
C622 C634 1.349 . S
C623 C621 1.327 . S
C623 C639 1.429 1_655 S
C623 H645 0.950 . S
C624 H620 0.949 . S
C624 C632 1.574 . S
C624 C640 1.368 1_554 S
H625 C633 0.950 . S
H626 C631 0.950 . S
H627 C632 0.949 . S
H628 C634 0.950 . S
H629 C635 0.950 1_554 S
H630 C636 0.949 . S
C631 H626 0.950 . S
C631 C633 1.327 . S
C631 C637 1.437 1_556 S
C632 C624 1.574 . S
C632 H627 0.949 . S
C632 C638 1.368 1_554 S
C633 C617 1.349 1_556 S
C633 H625 0.950 . S
C633 C631 1.327 . S
C634 C622 1.349 . S
C634 H628 0.950 . S
C634 C635 1.327 . S
C635 H629 0.950 1_556 S
C635 C634 1.327 . S
C635 C639 1.429 . S
C636 C619 1.574 . S
C636 H630 0.949 . S
C636 C640 1.368 1_655 S
C637 C618 1.419 1_655 S
C637 C631 1.437 1_554 S
C637 C638 1.524 1_654 S
C638 C619 1.368 1_455 S
C638 C632 1.368 1_556 S
C638 C637 1.524 1_456 S
C639 C623 1.429 1_455 S
C639 C635 1.429 . S
C639 C640 1.523 . S
C640 C624 1.368 1_556 S
C640 C636 1.368 1_455 S
C640 C639 1.523 . S
H641 C616 0.950 . S
H642 C618 0.950 . S
H643 C619 0.949 . S
H644 C621 0.950 . S
H645 C623 0.950 . S
C646 C647 1.349 . S
C646 C648 1.327 . S
C646 H671 0.950 . S
C647 C646 1.349 . S
C647 C663 1.349 1_554 S
C648 C646 1.327 . S
C648 C667 1.429 1_554 S
C648 H672 0.950 . S
C649 C666 1.574 . S
C649 C668 1.368 . S
C649 H673 0.949 . S
H650 C654 0.949 1_554 S
C651 C652 1.355 . S
C651 C653 1.327 . S
C651 H674 0.950 . S
C652 C651 1.355 . S
C652 C664 1.347 1_565 S
C653 C651 1.327 . S
C653 C669 1.429 . S
C653 H675 0.950 . S
C654 H650 0.949 1_556 S
C654 C662 1.574 1_556 S
C654 C670 1.368 . S
H655 C663 0.950 . S
H656 C661 0.950 . S
H657 C662 0.949 . S
H658 C664 0.950 . S
H659 C665 0.950 1_545 S
H660 C666 0.949 . S
C661 H656 0.950 . S
C661 C663 1.327 . S
C661 C667 1.429 . S
C662 C654 1.574 1_554 S
C662 H657 0.949 . S
C662 C668 1.368 1_554 S
C663 C647 1.349 1_556 S
C663 H655 0.950 . S
C663 C661 1.327 . S
C664 C652 1.347 1_545 S
C664 H658 0.950 . S
C664 C665 1.327 1_545 S
C665 H659 0.950 1_565 S
C665 C664 1.327 1_565 S
C665 C669 1.429 . S
C666 C649 1.574 . S
C666 H660 0.949 . S
C666 C670 1.368 . S
C667 C648 1.429 1_556 S
C667 C661 1.429 . S
C667 C668 1.523 . S
C668 C649 1.368 . S
C668 C662 1.368 1_556 S
C668 C667 1.523 . S
C669 C653 1.429 . S
C669 C665 1.429 . S
C669 C670 1.523 . S
C670 C654 1.368 . S
C670 C666 1.368 . S
C670 C669 1.523 . S
H671 C646 0.950 . S
H672 C648 0.950 . S
H673 C649 0.949 . S
H674 C651 0.950 . S
H675 C653 0.950 . S
C676 C677 1.349 . S
C676 C678 1.327 . S
C676 H701 0.950 . S
C677 C676 1.349 . S
C677 C693 1.349 . S
C678 C676 1.327 . S
C678 C697 1.429 . S
C678 H702 0.950 . S
C679 C696 1.574 . S
C679 C698 1.368 . S
C679 H703 0.949 . S
H680 C684 0.949 . S
C681 C682 1.349 . S
C681 C683 1.327 . S
C681 H704 0.950 . S
C682 C681 1.349 . S
C682 C694 1.349 . S
C683 C681 1.327 . S
C683 C699 1.429 . S
C683 H705 0.950 . S
C684 H680 0.949 . S
C684 C692 1.574 . S
C684 C700 1.368 . S
H685 C693 0.950 . S
H686 C691 0.950 . S
H687 C692 0.949 . S
H688 C694 0.950 . S
H689 C695 0.950 . S
H690 C696 0.949 . S
C691 H686 0.950 . S
C691 C693 1.327 . S
C691 C697 1.429 . S
C692 C684 1.574 . S
C692 H687 0.949 . S
C692 C698 1.368 . S
C693 C677 1.349 . S
C693 H685 0.950 . S
C693 C691 1.327 . S
C694 C682 1.349 . S
C694 H688 0.950 . S
C694 C695 1.327 . S
C695 H689 0.950 . S
C695 C694 1.327 . S
C695 C699 1.429 . S
C696 C679 1.574 . S
C696 H690 0.949 . S
C696 C700 1.368 . S
C697 C678 1.429 . S
C697 C691 1.429 . S
C697 C698 1.523 . S
C698 C679 1.368 . S
C698 C692 1.368 . S
C698 C697 1.523 . S
C699 C683 1.429 . S
C699 C695 1.429 . S
C699 C700 1.523 . S
C700 C684 1.368 . S
C700 C696 1.368 . S
C700 C699 1.523 . S
H701 C676 0.950 . S
H702 C678 0.950 . S
H703 C679 0.949 . S
H704 C681 0.950 . S
H705 C683 0.950 . S
C706 C707 1.349 . S
C706 C708 1.327 . S
C706 H731 0.950 . S
C707 C706 1.349 . S
C707 C723 1.349 . S
C708 C706 1.327 . S
C708 C727 1.429 . S
C708 H732 0.950 . S
C709 C726 1.574 . S
C709 C728 1.368 . S
C709 H733 0.949 . S
H710 C714 0.949 . S
C711 C712 1.349 . S
C711 C713 1.327 . S
C711 H734 0.950 . S
C712 C711 1.349 . S
C712 C724 1.349 . S
C713 C711 1.327 . S
C713 C729 1.429 . S
C713 H735 0.950 . S
C714 H710 0.949 . S
C714 C722 1.574 . S
C714 C730 1.368 . S
H715 C723 0.950 . S
H716 C721 0.950 . S
H717 C722 0.949 . S
H718 C724 0.950 . S
H719 C725 0.950 . S
H720 C726 0.949 . S
C721 H716 0.950 . S
C721 C723 1.327 . S
C721 C727 1.429 . S
C722 C714 1.574 . S
C722 H717 0.949 . S
C722 C728 1.368 . S
C723 C707 1.349 . S
C723 H715 0.950 . S
C723 C721 1.327 . S
C724 C712 1.349 . S
C724 H718 0.950 . S
C724 C725 1.327 . S
C725 H719 0.950 . S
C725 C724 1.327 . S
C725 C729 1.429 . S
C726 C709 1.574 . S
C726 H720 0.949 . S
C726 C730 1.368 . S
C727 C708 1.429 . S
C727 C721 1.429 . S
C727 C728 1.523 . S
C728 C709 1.368 . S
C728 C722 1.368 . S
C728 C727 1.523 . S
C729 C713 1.429 . S
C729 C725 1.429 . S
C729 C730 1.523 . S
C730 C714 1.368 . S
C730 C726 1.368 . S
C730 C729 1.523 . S
H731 C706 0.950 . S
H732 C708 0.950 . S
H733 C709 0.949 . S
H734 C711 0.950 . S
H735 C713 0.950 . S
C736 C737 1.349 . S
C736 C738 1.327 . S
C736 H761 0.950 . S
C737 C736 1.349 . S
C737 C753 1.349 . S
C738 C736 1.327 . S
C738 C757 1.429 . S
C738 H762 0.950 . S
C739 C756 1.574 . S
C739 C758 1.368 . S
C739 H763 0.949 1_455 S
H740 C744 0.949 . S
C741 C742 1.349 . S
C741 C743 1.327 . S
C741 H764 0.950 1_455 S
C742 C741 1.349 . S
C742 C754 1.349 . S
C743 C741 1.327 . S
C743 C759 1.429 . S
C743 H765 0.950 1_455 S
C744 H740 0.949 . S
C744 C752 1.574 . S
C744 C760 1.368 . S
H745 C753 0.950 1_655 S
H746 C751 0.950 1_655 S
H747 C752 0.949 . S
H748 C754 0.950 . S
H749 C755 0.950 . S
H750 C756 0.949 1_655 S
C751 H746 0.950 1_455 S
C751 C753 1.327 . S
C751 C757 1.429 . S
C752 C744 1.574 . S
C752 H747 0.949 . S
C752 C758 1.368 . S
C753 C737 1.349 . S
C753 H745 0.950 1_455 S
C753 C751 1.327 . S
C754 C742 1.349 . S
C754 H748 0.950 . S
C754 C755 1.327 . S
C755 H749 0.950 . S
C755 C754 1.327 . S
C755 C759 1.429 . S
C756 C739 1.574 . S
C756 H750 0.949 1_455 S
C756 C760 1.368 . S
C757 C738 1.429 . S
C757 C751 1.429 . S
C757 C758 1.523 . S
C758 C739 1.368 . S
C758 C752 1.368 . S
C758 C757 1.523 . S
C759 C743 1.429 . S
C759 C755 1.429 . S
C759 C760 1.523 . S
C760 C744 1.368 . S
C760 C756 1.368 . S
C760 C759 1.523 . S
H761 C736 0.950 . S
H762 C738 0.950 . S
H763 C739 0.949 1_655 S
H764 C741 0.950 1_655 S
H765 C743 0.950 1_655 S
C766 C767 1.349 . S
C766 C768 1.327 . S
C766 H791 0.950 . S
C767 C766 1.349 . S
C767 C783 1.349 . S
C768 C766 1.327 . S
C768 C787 1.429 . S
C768 H792 0.950 . S
C769 C786 1.574 . S
C769 C788 1.368 . S
C769 H793 0.949 . S
H770 C774 0.949 . S
C771 C772 1.349 . S
C771 C773 1.327 . S
C771 H794 0.950 . S
C772 C771 1.349 . S
C772 C784 1.349 . S
C773 C771 1.327 . S
C773 C789 1.429 . S
C773 H795 0.950 . S
C774 H770 0.949 . S
C774 C782 1.574 . S
C774 C790 1.368 . S
H775 C783 0.950 . S
H776 C781 0.950 . S
H777 C782 0.949 . S
H778 C784 0.950 . S
H779 C785 0.950 . S
H780 C786 0.949 . S
C781 H776 0.950 . S
C781 C783 1.327 . S
C781 C787 1.429 . S
C782 C774 1.574 . S
C782 H777 0.949 . S
C782 C788 1.368 . S
C783 C767 1.349 . S
C783 H775 0.950 . S
C783 C781 1.327 . S
C784 C772 1.349 . S
C784 H778 0.950 . S
C784 C785 1.327 . S
C785 H779 0.950 . S
C785 C784 1.327 . S
C785 C789 1.429 . S
C786 C769 1.574 . S
C786 H780 0.949 . S
C786 C790 1.368 . S
C787 C768 1.429 . S
C787 C781 1.429 . S
C787 C788 1.523 . S
C788 C769 1.368 . S
C788 C782 1.368 . S
C788 C787 1.523 . S
C789 C773 1.429 . S
C789 C785 1.429 . S
C789 C790 1.523 . S
C790 C774 1.368 . S
C790 C786 1.368 . S
C790 C789 1.523 . S
H791 C766 0.950 . S
H792 C768 0.950 . S
H793 C769 0.949 . S
H794 C771 0.950 . S
H795 C773 0.950 . S
C796 C797 1.349 . S
C796 C798 1.327 . S
C796 H821 0.950 . S
C797 C796 1.349 . S
C797 C813 1.349 . S
C798 C796 1.327 . S
C798 C817 1.429 . S
C798 H822 0.950 . S
C799 C816 1.574 . S
C799 C818 1.368 . S
C799 H823 0.949 . S
H800 C804 0.949 . S
C801 C802 1.349 . S
C801 C803 1.327 . S
C801 H824 0.950 . S
C802 C801 1.349 . S
C802 C814 1.349 1_556 S
C803 C801 1.327 . S
C803 C819 1.429 1_556 S
C803 H825 0.950 . S
C804 H800 0.949 . S
C804 C812 1.574 . S
C804 C820 1.368 . S
H805 C813 0.950 . S
H806 C811 0.950 . S
H807 C812 0.949 . S
H808 C814 0.950 . S
H809 C815 0.950 . S
H810 C816 0.949 1_556 S
C811 H806 0.950 . S
C811 C813 1.327 . S
C811 C817 1.429 . S
C812 C804 1.574 . S
C812 H807 0.949 . S
C812 C818 1.368 . S
C813 C797 1.349 . S
C813 H805 0.950 . S
C813 C811 1.327 . S
C814 C802 1.349 1_554 S
C814 H808 0.950 . S
C814 C815 1.327 . S
C815 H809 0.950 . S
C815 C814 1.327 . S
C815 C819 1.429 . S
C816 C799 1.574 . S
C816 H810 0.949 1_554 S
C816 C820 1.368 . S
C817 C798 1.429 . S
C817 C811 1.429 . S
C817 C818 1.523 . S
C818 C799 1.368 . S
C818 C812 1.368 . S
C818 C817 1.523 . S
C819 C803 1.429 1_554 S
C819 C815 1.429 . S
C819 C820 1.523 . S
C820 C804 1.368 . S
C820 C816 1.368 . S
C820 C819 1.523 . S
H821 C796 0.950 . S
H822 C798 0.950 . S
H823 C799 0.949 . S
H824 C801 0.950 . S
H825 C803 0.950 . S
C826 C827 1.349 . S
C826 C828 1.327 . S
C826 H851 0.950 . S
C827 C826 1.349 . S
C827 C843 1.349 . S
C828 C826 1.327 . S
C828 C847 1.429 . S
C828 H852 0.950 . S
C829 C846 1.574 . S
C829 C848 1.368 . S
C829 H853 0.949 . S
H830 C834 0.949 . S
C831 C832 1.349 . S
C831 C833 1.327 . S
C831 H854 0.950 . S
C832 C831 1.349 . S
C832 C844 1.349 . S
C833 C831 1.327 . S
C833 C849 1.429 . S
C833 H855 0.950 . S
C834 H830 0.949 . S
C834 C842 1.574 . S
C834 C850 1.368 . S
H835 C843 0.950 . S
H836 C841 0.950 . S
H837 C842 0.949 . S
H838 C844 0.950 . S
H839 C845 0.950 . S
H840 C846 0.949 . S
C841 H836 0.950 . S
C841 C843 1.327 . S
C841 C847 1.429 . S
C842 C834 1.574 . S
C842 H837 0.949 . S
C842 C848 1.368 . S
C843 C827 1.349 . S
C843 H835 0.950 . S
C843 C841 1.327 . S
C844 C832 1.349 . S
C844 H838 0.950 . S
C844 C845 1.327 . S
C845 H839 0.950 . S
C845 C844 1.327 . S
C845 C849 1.429 . S
C846 C829 1.574 . S
C846 H840 0.949 . S
C846 C850 1.368 . S
C847 C828 1.429 . S
C847 C841 1.429 . S
C847 C848 1.523 . S
C848 C829 1.368 . S
C848 C842 1.368 . S
C848 C847 1.523 . S
C849 C833 1.429 . S
C849 C845 1.429 . S
C849 C850 1.523 . S
C850 C834 1.368 . S
C850 C846 1.368 . S
C850 C849 1.523 . S
H851 C826 0.950 . S
H852 C828 0.950 . S
H853 C829 0.949 . S
H854 C831 0.950 . S
H855 C833 0.950 . S
C856 C857 1.349 . S
C856 C858 1.327 . S
C856 H881 0.950 . S
C857 C856 1.349 . S
C857 C873 1.349 1_655 S
C858 C856 1.327 . S
C858 C877 1.429 . S
C858 H882 0.950 . S
C859 C876 1.574 . S
C859 C878 1.368 1_455 S
C859 H883 0.949 . S
H860 C864 0.949 . S
C861 C862 1.349 1_455 S
C861 C863 1.327 . S
C861 H884 0.950 . S
C862 C861 1.349 1_655 S
C862 C874 1.349 . S
C863 C861 1.327 . S
C863 C879 1.429 1_455 S
C863 H885 0.950 . S
C864 H860 0.949 . S
C864 C872 1.574 . S
C864 C880 1.368 . S
H865 C873 0.950 . S
H866 C871 0.950 . S
H867 C872 0.949 . S
H868 C874 0.950 . S
H869 C875 0.950 . S
H870 C876 0.949 . S
C871 H866 0.950 . S
C871 C873 1.327 . S
C871 C877 1.429 1_455 S
C872 C864 1.574 . S
C872 H867 0.949 . S
C872 C878 1.368 . S
C873 C857 1.349 1_455 S
C873 H865 0.950 . S
C873 C871 1.327 . S
C874 C862 1.349 . S
C874 H868 0.950 . S
C874 C875 1.327 . S
C875 H869 0.950 . S
C875 C874 1.327 . S
C875 C879 1.429 . S
C876 C859 1.574 . S
C876 H870 0.949 . S
C876 C880 1.368 1_455 S
C877 C858 1.429 . S
C877 C871 1.429 1_655 S
C877 C878 1.523 . S
C878 C859 1.368 1_655 S
C878 C872 1.368 . S
C878 C877 1.523 . S
C879 C863 1.429 1_655 S
C879 C875 1.429 . S
C879 C880 1.523 . S
C880 C864 1.368 . S
C880 C876 1.368 1_655 S
C880 C879 1.523 . S
H881 C856 0.950 . S
H882 C858 0.950 . S
H883 C859 0.949 . S
H884 C861 0.950 . S
H885 C863 0.950 . S
C886 C887 1.349 . S
C886 C888 1.327 . S
C886 H911 0.950 . S
C887 C886 1.349 . S
C887 C903 1.349 . S
C888 C886 1.327 . S
C888 C907 1.429 . S
C888 H912 0.950 . S
C889 C906 1.574 . S
C889 C908 1.368 . S
C889 H913 0.949 . S
H890 C894 0.949 . S
C891 C892 1.349 . S
C891 C893 1.327 . S
C891 H914 0.950 . S
C892 C891 1.349 . S
C892 C904 1.349 . S
C893 C891 1.327 . S
C893 C909 1.429 . S
C893 H915 0.950 . S
C894 H890 0.949 . S
C894 C902 1.574 . S
C894 C910 1.368 . S
H895 C903 0.950 . S
H896 C901 0.950 . S
H897 C902 0.949 . S
H898 C904 0.950 . S
H899 C905 0.950 . S
H900 C906 0.949 . S
C901 H896 0.950 . S
C901 C903 1.327 . S
C901 C907 1.429 . S
C902 C894 1.574 . S
C902 H897 0.949 . S
C902 C908 1.368 . S
C903 C887 1.349 . S
C903 H895 0.950 . S
C903 C901 1.327 . S
C904 C892 1.349 . S
C904 H898 0.950 . S
C904 C905 1.327 . S
C905 H899 0.950 . S
C905 C904 1.327 . S
C905 C909 1.429 . S
C906 C889 1.574 . S
C906 H900 0.949 . S
C906 C910 1.368 . S
C907 C888 1.429 . S
C907 C901 1.429 . S
C907 C908 1.523 . S
C908 C889 1.368 . S
C908 C902 1.368 . S
C908 C907 1.523 . S
C909 C893 1.429 . S
C909 C905 1.429 . S
C909 C910 1.523 . S
C910 C894 1.368 . S
C910 C906 1.368 . S
C910 C909 1.523 . S
H911 C886 0.950 . S
H912 C888 0.950 . S
H913 C889 0.949 . S
H914 C891 0.950 . S
H915 C893 0.950 . S
C916 C917 1.349 . S
C916 C918 1.327 . S
C916 H941 0.950 . S
C917 C916 1.349 . S
C917 C933 1.349 . S
C918 C916 1.327 . S
C918 C937 1.429 . S
C918 H942 0.950 . S
C919 C936 1.574 . S
C919 C938 1.368 . S
C919 H943 0.949 . S
H920 C924 0.949 . S
C921 C922 1.349 . S
C921 C923 1.327 . S
C921 H944 0.950 . S
C922 C921 1.349 . S
C922 C934 1.349 . S
C923 C921 1.327 . S
C923 C939 1.429 . S
C923 H945 0.950 . S
C924 H920 0.949 . S
C924 C932 1.574 . S
C924 C940 1.368 . S
H925 C933 0.950 . S
H926 C931 0.950 . S
H927 C932 0.949 . S
H928 C934 0.950 . S
H929 C935 0.950 . S
H930 C936 0.949 . S
C931 H926 0.950 . S
C931 C933 1.327 . S
C931 C937 1.429 . S
C932 C924 1.574 . S
C932 H927 0.949 . S
C932 C938 1.368 . S
C933 C917 1.349 . S
C933 H925 0.950 . S
C933 C931 1.327 . S
C934 C922 1.349 . S
C934 H928 0.950 . S
C934 C935 1.327 . S
C935 H929 0.950 . S
C935 C934 1.327 . S
C935 C939 1.429 . S
C936 C919 1.574 . S
C936 H930 0.949 . S
C936 C940 1.368 . S
C937 C918 1.429 . S
C937 C931 1.429 . S
C937 C938 1.523 . S
C938 C919 1.368 . S
C938 C932 1.368 . S
C938 C937 1.523 . S
C939 C923 1.429 . S
C939 C935 1.429 . S
C939 C940 1.523 . S
C940 C924 1.368 . S
C940 C936 1.368 . S
C940 C939 1.523 . S
H941 C916 0.950 . S
H942 C918 0.950 . S
H943 C919 0.949 . S
H944 C921 0.950 . S
H945 C923 0.950 . S
C946 C947 1.349 . S
C946 C948 1.327 . S
C946 H971 0.950 . S
C947 C946 1.349 . S
C947 C963 1.349 . S
C948 C946 1.327 . S
C948 C967 1.429 . S
C948 H972 0.950 . S
C949 C966 1.574 . S
C949 C968 1.368 . S
C949 H973 0.949 . S
H950 C954 0.949 . S
C951 C952 1.349 . S
C951 C953 1.327 . S
C951 H974 0.950 . S
C952 C951 1.349 . S
C952 C964 1.349 . S
C953 C951 1.327 . S
C953 C969 1.429 . S
C953 H975 0.950 . S
C954 H950 0.949 . S
C954 C962 1.574 . S
C954 C970 1.368 . S
H955 C963 0.950 . S
H956 C961 0.950 . S
H957 C962 0.949 . S
H958 C964 0.950 . S
H959 C965 0.950 . S
H960 C966 0.949 . S
C961 H956 0.950 . S
C961 C963 1.327 . S
C961 C967 1.429 . S
C962 C954 1.574 . S
C962 H957 0.949 . S
C962 C968 1.368 . S
C963 C947 1.349 . S
C963 H955 0.950 . S
C963 C961 1.327 . S
C964 C952 1.349 . S
C964 H958 0.950 . S
C964 C965 1.327 . S
C965 H959 0.950 . S
C965 C964 1.327 . S
C965 C969 1.429 . S
C966 C949 1.574 . S
C966 H960 0.949 . S
C966 C970 1.368 . S
C967 C948 1.429 . S
C967 C961 1.429 . S
C967 C968 1.523 . S
C968 C949 1.368 . S
C968 C962 1.368 . S
C968 C967 1.523 . S
C969 C953 1.429 . S
C969 C965 1.429 . S
C969 C970 1.523 . S
C970 C954 1.368 . S
C970 C966 1.368 . S
C970 C969 1.523 . S
H971 C946 0.950 . S
H972 C948 0.950 . S
H973 C949 0.949 . S
H974 C951 0.950 . S
H975 C953 0.950 . S
C257 C76 1.722 . S
C262 C105 1.707 . S
C292 C145 1.319 . S
C287 C88 1.342 . S
C322 C194 1.297 . S
C317 C52 1.334 . S
C352 C225 1.550 . S
C347 C64 1.615 . S
C382 C114 1.708 1_565 S
C377 C28 1.741 . S
C407 C40 1.334 . S
C412 C154 1.319 . S
C437 C4 1.341 . S
C442 C185 1.296 . S
C467 C16 1.618 . S
C472 C234 1.549 . S
C502 C115 0.704 . S
C497 C69 0.716 . S
C532 C155 1.306 . S
C527 C81 1.198 . S
C562 C191 0.597 . S
C557 C93 0.607 . S
C587 C57 0.861 . S
C592 C235 0.901 . S
C617 C21 0.716 . S
C622 C106 0.703 . S
C652 C146 1.301 1_565 S
C647 C33 1.184 . S
C682 C182 0.597 . S
C677 C45 0.604 . S
C707 C9 0.858 . S
C712 C226 0.901 . S
C737 C66 1.622 . S
C742 C111 1.662 . S
C767 C78 1.398 . S
C772 C151 1.410 . S
C802 C195 1.931 . S
C797 C90 1.793 . S
C832 C231 1.427 . S
C827 C54 1.418 . S
C857 C18 1.623 . S
C862 C102 1.662 . S
C892 C142 1.411 . S
C887 C30 1.387 . S
C922 C186 1.931 . S
C917 C42 1.812 . S
C947 C6 1.413 . S
C952 C222 1.425 . S
