# Generated by pormake.
# Topology zzz, (3,6)-cn, num edge types: 1
# Building blocks:
#     Node 0, Type 0, BuildingBlock: QEWDON_clean_linker_0, # of connection points: 3
#     Node 1, Type 0, BuildingBlock: QEWDON_clean_linker_0, # of connection points: 3
#     Node 2, Type 0, BuildingBlock: QEWDON_clean_linker_0, # of connection points: 3
#     Node 3, Type 0, BuildingBlock: QEWDON_clean_linker_0, # of connection points: 3
#     Node 4, Type 0, BuildingBlock: QEWDON_clean_linker_0, # of connection points: 3
#     Node 5, Type 0, BuildingBlock: QEWDON_clean_linker_0, # of connection points: 3
#     Node 6, Type 0, BuildingBlock: QEWDON_clean_linker_0, # of connection points: 3
#     Node 7, Type 0, BuildingBlock: QEWDON_clean_linker_0, # of connection points: 3
#     Node 8, Type 1, BuildingBlock: JUFBIX_clean_sbu_0, # of connection points: 6
#     Node 9, Type 1, BuildingBlock: JUFBIX_clean_sbu_0, # of connection points: 6
#     Node 10, Type 1, BuildingBlock: JUFBIX_clean_sbu_0, # of connection points: 6
#     Node 11, Type 1, BuildingBlock: JUFBIX_clean_sbu_0, # of connection points: 6
#     Edge 12, Type (0, 1), BuildingBlock: XUDNAN_clean_linker_2, # of connection points: 2
#     Edge 13, Type (0, 1), BuildingBlock: XUDNAN_clean_linker_2, # of connection points: 2
#     Edge 14, Type (0, 1), BuildingBlock: XUDNAN_clean_linker_2, # of connection points: 2
#     Edge 15, Type (0, 1), BuildingBlock: XUDNAN_clean_linker_2, # of connection points: 2
#     Edge 16, Type (0, 1), BuildingBlock: XUDNAN_clean_linker_2, # of connection points: 2
#     Edge 17, Type (0, 1), BuildingBlock: XUDNAN_clean_linker_2, # of connection points: 2
#     Edge 18, Type (0, 1), BuildingBlock: XUDNAN_clean_linker_2, # of connection points: 2
#     Edge 19, Type (0, 1), BuildingBlock: XUDNAN_clean_linker_2, # of connection points: 2
#     Edge 20, Type (0, 1), BuildingBlock: XUDNAN_clean_linker_2, # of connection points: 2
#     Edge 21, Type (0, 1), BuildingBlock: XUDNAN_clean_linker_2, # of connection points: 2
#     Edge 22, Type (0, 1), BuildingBlock: XUDNAN_clean_linker_2, # of connection points: 2
#     Edge 23, Type (0, 1), BuildingBlock: XUDNAN_clean_linker_2, # of connection points: 2
#     Edge 24, Type (0, 1), BuildingBlock: XUDNAN_clean_linker_2, # of connection points: 2
#     Edge 25, Type (0, 1), BuildingBlock: XUDNAN_clean_linker_2, # of connection points: 2
#     Edge 26, Type (0, 1), BuildingBlock: XUDNAN_clean_linker_2, # of connection points: 2
#     Edge 27, Type (0, 1), BuildingBlock: XUDNAN_clean_linker_2, # of connection points: 2
#     Edge 28, Type (0, 1), BuildingBlock: XUDNAN_clean_linker_2, # of connection points: 2
#     Edge 29, Type (0, 1), BuildingBlock: XUDNAN_clean_linker_2, # of connection points: 2
#     Edge 30, Type (0, 1), BuildingBlock: XUDNAN_clean_linker_2, # of connection points: 2
#     Edge 31, Type (0, 1), BuildingBlock: XUDNAN_clean_linker_2, # of connection points: 2
#     Edge 32, Type (0, 1), BuildingBlock: XUDNAN_clean_linker_2, # of connection points: 2
#     Edge 33, Type (0, 1), BuildingBlock: XUDNAN_clean_linker_2, # of connection points: 2
#     Edge 34, Type (0, 1), BuildingBlock: XUDNAN_clean_linker_2, # of connection points: 2
#     Edge 35, Type (0, 1), BuildingBlock: XUDNAN_clean_linker_2, # of connection points: 2
# Relax obj value: 0.079
# Max RMSD: 0.174
# Mean RMSD: 0.077
data_MOF--net-zzz--node1-JUFBIX_clean_sbu_0--node2-QEWDON_clean_linker_0--edge1-XUDNAN_clean_linker_2
_symmetry_space_group_name_H-M    P1
_symmetry_Int_Tables_number       1
_symmetry_cell_setting            triclinic
loop_
_symmetry_equiv_pos_as_xyz
'x, y, z'
_cell_length_a     54.938304
_cell_length_b     54.994516
_cell_length_c     17.438972
_cell_angle_alpha  81.106902
_cell_angle_beta   89.896024
_cell_angle_gamma 90.735508
loop_
_atom_site_label
_atom_site_type_symbol
_atom_site_fract_x
_atom_site_fract_y
_atom_site_fract_z
_atom_type_partial_charge
H0 H 0.81056 0.52602 0.14256 0.0
C1 C 0.81959 0.52488 0.19805 0.0
C2 C 0.84477 0.52079 0.20105 0.0
C3 C 0.8064 0.52817 0.26534 0.0
H4 H 0.87671 0.519 0.27279 0.0
C5 C 0.8571 0.52109 0.27086 0.0
C6 C 0.84475 0.52474 0.33801 0.0
C7 C 0.81933 0.52743 0.33605 0.0
C8 C 0.77969 0.53391 0.26017 0.0
H9 H 0.80996 0.52946 0.38926 0.0
C10 C 0.76477 0.52612 0.20207 0.0
C11 C 0.74035 0.53369 0.19217 0.0
C12 C 0.76913 0.5486 0.31043 0.0
H13 H 0.77977 0.55573 0.35432 0.0
C14 C 0.74472 0.55524 0.30308 0.0
H15 H 0.77205 0.51421 0.164 0.0
C16 C 0.73048 0.54806 0.24422 0.0
H17 H 0.71194 0.55452 0.23796 0.0
H18 H 0.73699 0.56668 0.34189 0.0
H19 H 0.99493 0.79078 0.15147 0.0
C20 C 0.99629 0.79732 0.20669 0.0
C21 C 0.9976 0.82284 0.2066 0.0
C22 C 0.99614 0.78069 0.27747 0.0
H23 H 0.99986 0.85154 0.27721 0.0
C24 C 0.99827 0.83185 0.27702 0.0
C25 C 0.99782 0.81611 0.34761 0.0
C26 C 0.99751 0.79056 0.34814 0.0
C27 C 0.99401 0.75333 0.27785 0.0
H28 H 0.99823 0.77867 0.40361 0.0
C29 C 1.00185 0.74219 0.21403 0.0
C30 C 0.99925 0.71652 0.21432 0.0
C31 C 0.98347 0.73805 0.34199 0.0
H32 H 0.9762 0.74554 0.3909 0.0
C33 C 0.98168 0.71268 0.34389 0.0
H34 H 1.00978 0.75343 0.16373 0.0
C35 C 0.9896 0.70196 0.28118 0.0
H36 H 0.98813 0.68215 0.2855 0.0
H37 H 0.97386 0.70123 0.39423 0.0
H38 H 0.74682 1.01153 0.00147 0.0
C39 C 0.73774 1.01133 0.05679 0.0
C40 C 0.71399 0.02031 0.05837 0.0
C41 C 0.74922 1.00106 0.12647 0.0
H42 H 0.68293 0.025 0.12825 0.0
C43 C 0.70171 0.0191 0.12903 0.0
C44 C 0.71243 1.00904 0.19934 0.0
C45 C 0.73631 0.99995 0.19771 0.0
C46 C 0.77364 0.98941 0.12412 0.0
H47 H 0.74478 0.99193 0.25162 0.0
C48 C 0.79294 1.00069 0.07671 0.0
C49 C 0.81551 0.98865 0.07325 0.0
C50 C 0.77735 0.96607 0.16792 0.0
H51 H 0.76291 0.95671 0.20375 0.0
C52 C 0.79949 0.95419 0.16469 0.0
H53 H 0.79042 0.0187 0.04268 0.0
C54 C 0.81838 0.96529 0.11788 0.0
H55 H 0.83548 0.95572 0.11778 0.0
H56 H 0.80204 0.93621 0.19873 0.0
H57 H 0.52855 0.73462 0.03187 0.0
C58 C 0.52414 0.72435 0.08845 0.0
C59 C 0.51771 0.69917 0.09522 0.0
C60 C 0.52656 0.73571 0.15535 0.0
H61 H 0.51034 0.66585 0.17464 0.0
C62 C 0.51352 0.68556 0.16906 0.0
C63 C 0.5166 0.69617 0.23623 0.0
C64 C 0.52242 0.72137 0.22892 0.0
C65 C 0.5366 0.76134 0.15069 0.0
H66 H 0.52482 0.72955 0.28115 0.0
C67 C 0.52868 0.78117 0.09483 0.0
C68 C 0.53806 0.80531 0.09517 0.0
C69 C 0.55465 0.76597 0.20405 0.0
H70 H 0.56176 0.75119 0.24598 0.0
C71 C 0.56407 0.78958 0.2038 0.0
H72 H 0.5149 0.77801 0.05299 0.0
C73 C 0.5558 0.8091 0.15029 0.0
H74 H 0.56368 0.82721 0.15112 0.0
H75 H 0.57794 0.79276 0.24524 0.0
H76 H 0.22959 0.52131 0.40091 0.0
C77 C 0.22067 0.51723 0.34891 0.0
C78 C 0.19566 0.51165 0.35154 0.0
C79 C 0.23366 0.51957 0.27845 0.0
H80 H 0.16412 0.50487 0.28506 0.0
C81 C 0.18371 0.50761 0.28373 0.0
C82 C 0.19596 0.51042 0.2124 0.0
C83 C 0.22106 0.51613 0.21017 0.0
C84 C 0.25938 0.52884 0.27522 0.0
H85 H 0.23052 0.51865 0.15489 0.0
C86 C 0.27593 0.5211 0.33595 0.0
C87 C 0.29925 0.53208 0.33646 0.0
C88 C 0.26695 0.54716 0.21407 0.0
H89 H 0.25467 0.55395 0.16735 0.0
C90 C 0.29016 0.55777 0.21397 0.0
H91 H 0.27055 0.50695 0.38351 0.0
C92 C 0.30614 0.55048 0.27499 0.0
H93 H 0.32402 0.55908 0.27393 0.0
H94 H 0.29566 0.57199 0.16688 0.0
H95 H 0.02402 0.24368 0.43254 0.0
C96 C 0.02598 0.23838 0.37553 0.0
C97 C 0.03665 0.21581 0.36884 0.0
C98 C 0.01659 0.25336 0.30955 0.0
H99 H 0.04516 0.19017 0.29225 0.0
C100 C 0.03819 0.20833 0.29606 0.0
C101 C 0.02845 0.22237 0.22984 0.0
C102 C 0.01756 0.24499 0.23669 0.0
C103 C 1.00379 0.27646 0.31904 0.0
H104 H 1.00967 0.25581 0.18583 0.0
C105 C 0.01311 0.29242 0.36849 0.0
C106 C 0.99976 0.31297 0.38286 0.0
C107 C 0.98126 0.28184 0.28262 0.0
H108 H 0.97341 0.26983 0.2453 0.0
C109 C 0.96812 0.30232 0.29627 0.0
H110 H 0.03051 0.28866 0.39674 0.0
C111 C 0.97717 0.31768 0.34649 0.0
H112 H 0.96663 0.33343 0.35632 0.0
H113 H 0.9507 0.30615 0.26841 0.0
H114 H 0.28642 0.99615 0.51524 0.0
C115 C 0.29583 1.00195 0.46075 0.0
C116 C 0.32142 1.00409 0.4605 0.0
C117 C 0.28275 1.006 0.38998 0.0
H118 H 0.3534 0.01317 0.39021 0.0
C119 C 0.33373 1.0109 0.3902 0.0
C120 C 0.32156 0.01435 0.31957 0.0
C121 C 0.29603 0.01274 0.31947 0.0
C122 C 0.25573 1.00124 0.38796 0.0
H123 H 0.28674 0.01607 0.26424 0.0
C124 C 0.23966 1.00573 0.4482 0.0
C125 C 0.21423 1.00096 0.44371 0.0
C126 C 0.24585 0.99145 0.3246 0.0
H127 H 0.25735 0.98661 0.27899 0.0
C128 C 0.22095 0.98737 0.31895 0.0
H129 H 0.24687 0.01283 0.49815 0.0
C130 C 0.20529 0.99231 0.3771 0.0
H131 H 0.18599 0.98942 0.36914 0.0
H132 H 0.21371 0.98026 0.269 0.0
H133 H 0.52689 0.30363 0.49701 0.0
C134 C 0.52336 0.31384 0.43993 0.0
C135 C 0.51732 0.33885 0.43223 0.0
C136 C 0.52667 0.30266 0.3732 0.0
H137 H 0.5103 0.37202 0.35379 0.0
C138 C 0.51394 0.3525 0.35854 0.0
C139 C 0.51706 0.3419 0.29138 0.0
C140 C 0.52314 0.31683 0.29923 0.0
C141 C 0.53725 0.27757 0.37918 0.0
H142 H 0.52596 0.30851 0.24754 0.0
C143 C 0.52812 0.25714 0.43134 0.0
C144 C 0.53875 0.23362 0.43453 0.0
C145 C 0.55737 0.27427 0.33208 0.0
H146 H 0.56511 0.28961 0.29273 0.0
C147 C 0.56815 0.25136 0.33615 0.0
H148 H 0.51253 0.25943 0.46753 0.0
C149 C 0.55902 0.23126 0.38679 0.0
H150 H 0.56818 0.21384 0.38923 0.0
H151 H 0.58379 0.2492 0.30008 0.0
Co152 Co 0.02638 0.02942 0.83492 0.0
C153 C 0.97598 0.02285 0.82704 0.0
Co154 Co 0.01495 1.00959 0.73929 0.0
C155 C 0.02528 0.07018 0.91847 0.0
C156 C 0.05405 0.04583 0.96008 0.0
N157 N 0.03533 0.04846 0.9098 0.0
N158 N 0.03707 0.08147 0.97127 0.0
C159 C 0.05519 0.06611 0.9979 0.0
H160 H 1.01019 0.07808 0.88382 0.0
H161 H 0.06649 0.03057 0.96702 0.0
C162 C 0.06536 0.01622 0.74711 0.0
N163 N 1.00568 0.99094 0.6638 0.0
C164 C 0.01303 0.96793 0.65797 0.0
C165 C 0.9888 0.99613 0.60795 0.0
N166 N 1.0012 0.95831 0.60155 0.0
C167 C 0.98603 0.97616 0.56958 0.0
C168 C 0.01854 0.05911 0.69233 0.0
O169 O 0.05994 0.02689 0.80469 0.0
O170 O 0.04834 1.00692 0.71102 0.0
O171 O 0.01321 0.03924 0.66712 0.0
O172 O 0.02416 0.05853 0.7629 0.0
O173 O 0.98128 0.01221 0.76933 0.0
H174 H 0.9787 0.01306 0.59723 0.0
H175 H 0.02617 0.95808 0.69672 0.0
O176 O 0.99305 0.03196 0.86322 0.0
O177 O 0.02875 0.99952 0.90722 0.0
O178 O 0.01736 0.98065 0.8106 0.0
C179 C 0.02378 0.97976 0.88057 0.0
H180 H 0.06849 0.06934 0.04101 0.0
H181 H 0.97357 0.97492 0.52233 0.0
Co182 Co 0.51112 0.02259 0.82069 0.0
C183 C 0.52072 0.97279 0.80961 0.0
Co184 Co 0.52459 0.01588 0.70575 0.0
C185 C 0.47464 0.03411 0.92866 0.0
C186 C 0.50525 0.01605 0.98683 0.0
N187 N 0.49726 0.02603 0.91603 0.0
N188 N 0.46791 0.02885 0.00394 0.0
C189 C 0.48725 0.01767 0.04085 0.0
H190 H 0.46254 0.04184 0.88269 0.0
H191 H 0.52233 1.00658 0.99766 0.0
C192 C 0.51491 0.06563 0.71628 0.0
N193 N 0.5387 0.0124 0.61047 0.0
C194 C 0.56095 1.00324 0.59858 0.0
C195 C 0.53151 0.02323 0.53961 0.0
N196 N 0.56817 1.0085 0.52367 0.0
C197 C 0.5496 0.02097 0.48633 0.0
C198 C 0.47482 0.01316 0.715 0.0
O199 O 0.50856 0.05716 0.78566 0.0
O200 O 0.5224 0.05076 0.67245 0.0
O201 O 0.49214 1.01128 0.66756 0.0
O202 O 0.47977 0.01757 0.78245 0.0
O203 O 0.52652 0.98138 0.73989 0.0
H204 H 0.51494 0.03357 0.52832 0.0
H205 H 0.57247 0.99458 0.64495 0.0
O206 O 0.51389 0.9876 0.85466 0.0
O207 O 0.54284 0.028 0.85786 0.0
O208 O 0.55645 0.0205 0.74549 0.0
C209 C 0.56053 0.02595 0.81243 0.0
H210 H 0.48787 1.01005 0.10187 0.0
H211 H 0.54952 0.02879 0.42542 0.0
Co212 Co 0.54315 0.51778 0.75968 0.0
C213 C 0.52185 0.48613 0.88255 0.0
Co214 Co 0.50291 0.52023 0.76535 0.0
C215 C 0.59244 0.51812 0.81914 0.0
C216 C 0.59132 0.5111 0.70189 0.0
N217 N 0.57695 0.51568 0.76048 0.0
N218 N 0.61599 0.5153 0.79953 0.0
C219 C 0.6152 0.5108 0.72559 0.0
H220 H 0.58645 0.52217 0.87487 0.0
H221 H 0.58484 0.5081 0.64554 0.0
C222 C 0.52518 0.55156 0.6417 0.0
N223 N 0.46886 0.52238 0.76255 0.0
C224 C 0.4541 0.51569 0.70709 0.0
C225 C 0.45382 0.53282 0.80912 0.0
N226 N 0.43069 0.52159 0.71697 0.0
C227 C 0.43036 0.53254 0.78079 0.0
C228 C 0.52621 0.55476 0.83916 0.0
O229 O 0.54451 0.54116 0.66891 0.0
O230 O 0.50476 0.54449 0.67273 0.0
O231 O 0.50527 0.54635 0.82527 0.0
O232 O 0.54505 0.54428 0.81805 0.0
O233 O 0.5017 0.49569 0.85798 0.0
H234 H 0.45953 0.54067 0.85943 0.0
H235 H 0.46042 0.50751 0.65822 0.0
O236 O 0.54159 0.49453 0.85016 0.0
O237 O 0.54079 0.49108 0.70073 0.0
O238 O 0.50119 0.49425 0.70655 0.0
C239 C 0.51968 0.48318 0.68646 0.0
H240 H 0.63069 0.50722 0.69084 0.0
H241 H 0.41435 0.53983 0.80497 0.0
Co242 Co 0.01957 0.54371 0.765 0.0
C243 C 0.05408 0.52153 0.87272 0.0
Co244 Co 0.02065 0.50291 0.78077 0.0
C245 C 0.01733 0.58978 0.82384 0.0
C246 C 0.02265 0.59557 0.70073 0.0
N247 N 0.01918 0.5777 0.76219 0.0
N248 N 0.01974 0.61439 0.80351 0.0
C249 C 0.02317 0.61814 0.72605 0.0
H250 H 0.01523 0.58062 0.88311 0.0
H251 H 0.02523 0.59237 0.64162 0.0
C252 C 0.98605 0.52487 0.67381 0.0
N253 N 0.02105 0.46886 0.78263 0.0
C254 C 0.0257 0.45728 0.72125 0.0
C255 C 0.01465 0.45062 0.84042 0.0
N256 N 0.02235 0.4327 0.73812 0.0
C257 C 0.01525 0.42837 0.81298 0.0
C258 C 0.98605 0.51971 0.87181 0.0
O259 O 0.9945 0.54536 0.68823 0.0
O260 O 0.99588 0.50497 0.70484 0.0
O261 O 0.99548 0.49982 0.85792 0.0
O262 O 0.99509 0.54022 0.8408 0.0
O263 O 0.04553 0.50114 0.85784 0.0
H264 H 1.00926 0.45335 0.89813 0.0
H265 H 0.03042 0.46676 0.66396 0.0
O266 O 0.0445 0.54155 0.84118 0.0
O267 O 0.04403 0.54702 0.68863 0.0
O268 O 0.04557 0.50676 0.70325 0.0
C269 C 0.05367 0.52768 0.67181 0.0
H270 H 0.026 0.63589 0.69042 0.0
H271 H 1.01068 0.41046 0.84523 0.0
H272 H 0.17259 0.97411 0.49082 0.0
H273 H 0.215 0.03722 0.53847 0.0
H274 H 0.18317 0.0459 0.63085 0.0
H275 H 0.1162 1.00386 0.48193 0.0
H276 H 0.09915 0.97682 0.52395 0.0
H277 H 0.12674 0.97368 0.47081 0.0
H278 H 0.14429 0.94533 0.58986 0.0
H279 H 0.11671 0.94839 0.6434 0.0
H280 H 0.14568 0.95606 0.68237 0.0
H281 H 0.1446 0.04901 0.71311 0.0
H282 H 0.10321 0.04737 0.77063 0.0
H283 H 0.08524 0.98452 0.65799 0.0
C284 C 0.17538 0.98985 0.52026 0.0
C285 C 0.19651 1.00504 0.50629 0.0
C286 C 0.19931 0.02503 0.54831 0.0
C287 C 0.18118 0.03021 0.60073 0.0
C288 C 0.16025 0.0153 0.61064 0.0
C289 C 0.15734 0.99554 0.57122 0.0
C290 C 0.13252 0.98337 0.58686 0.0
C291 C 0.11779 0.98452 0.51141 0.0
C292 C 0.13496 0.95671 0.62809 0.0
C293 C 0.12161 0.99957 0.64037 0.0
C294 C 0.13798 0.01764 0.65472 0.0
C295 C 0.13175 0.03486 0.70226 0.0
C296 C 0.1082 0.03374 0.73493 0.0
C297 C 0.09094 0.01582 0.7189 0.0
C298 C 0.09796 0.99846 0.67139 0.0
H299 H 0.53477 0.18627 0.40326 0.0
H300 H 0.52226 0.23008 0.58588 0.0
H301 H 0.5119 0.19204 0.67654 0.0
H302 H 0.48792 0.13902 0.46107 0.0
H303 H 0.50673 0.11476 0.43622 0.0
H304 H 0.51022 0.1456 0.38445 0.0
H305 H 0.5561 0.1451 0.41883 0.0
H306 H 0.55273 0.11435 0.47098 0.0
H307 H 0.56516 0.13844 0.51912 0.0
H308 H 0.50614 0.14813 0.75014 0.0
H309 H 0.50521 0.10336 0.79841 0.0
H310 H 0.52343 0.08896 0.56755 0.0
C311 C 0.52973 0.188 0.46219 0.0
C312 C 0.52947 0.21132 0.48729 0.0
C313 C 0.52235 0.21257 0.56476 0.0
C314 C 0.51658 0.191 0.61684 0.0
C315 C 0.51789 0.16828 0.59059 0.0
C316 C 0.52416 0.16675 0.51478 0.0
C317 C 0.52564 0.14021 0.50151 0.0
C318 C 0.50648 0.13457 0.44231 0.0
C319 C 0.55144 0.13418 0.47614 0.0
C320 C 0.51969 0.1269 0.58209 0.0
C321 C 0.515 0.14334 0.63265 0.0
C322 C 0.50963 0.13517 0.71073 0.0
C323 C 0.50915 0.10967 0.73767 0.0
C324 C 0.51424 0.09254 0.68693 0.0
C325 C 0.51941 0.10146 0.60801 0.0
H326 H 0.32134 0.56159 0.42904 0.0
H327 H 0.31674 0.48608 0.38677 0.0
H328 H 0.34911 0.47461 0.48419 0.0
H329 H 0.38481 0.56514 0.45225 0.0
H330 H 0.38387 0.58345 0.52943 0.0
H331 H 0.35962 0.58535 0.4596 0.0
H332 H 0.3281 0.57421 0.57058 0.0
H333 H 0.35226 0.57241 0.6409 0.0
H334 H 0.33187 0.54654 0.63962 0.0
H335 H 0.38518 0.4727 0.5754 0.0
H336 H 0.41896 0.47939 0.66441 0.0
H337 H 0.39774 0.55529 0.6553 0.0
C338 C 0.32697 0.54258 0.44122 0.0
C339 C 0.31664 0.52466 0.40061 0.0
C340 C 0.32435 0.49998 0.41783 0.0
C341 C 0.34276 0.49337 0.47274 0.0
C342 C 0.3529 0.51159 0.51089 0.0
C343 C 0.34495 0.5356 0.49691 0.0
C344 C 0.35885 0.5517 0.54545 0.0
C345 C 0.3726 0.57264 0.49357 0.0
C346 C 0.34175 0.56181 0.60253 0.0
C347 C 0.37628 0.53315 0.58772 0.0
C348 C 0.3727 0.51015 0.56651 0.0
C349 C 0.38781 0.49049 0.59355 0.0
C350 C 0.40695 0.49443 0.64371 0.0
C351 C 0.41057 0.51768 0.66736 0.0
C352 C 0.39492 0.5372 0.63936 0.0
H353 H 0.97716 0.32615 0.50996 0.0
H354 H 0.04329 0.33792 0.37274 0.0
H355 H 0.05727 0.36899 0.45255 0.0
H356 H 0.96782 0.38761 0.53543 0.0
H357 H 0.95725 0.3804 0.63436 0.0
H358 H 0.95312 0.35838 0.56896 0.0
H359 H 0.97584 0.32559 0.66432 0.0
H360 H 0.97995 0.34749 0.73028 0.0
H361 H 1.00596 0.33245 0.69657 0.0
H362 H 0.06175 0.40189 0.53896 0.0
H363 H 0.05843 0.43095 0.63383 0.0
H364 H 0.99091 0.39551 0.72101 0.0
C365 C 0.99471 0.33511 0.49745 0.0
C366 C 1.00919 0.32975 0.43526 0.0
C367 C 0.03206 0.3417 0.42052 0.0
C368 C 0.04006 0.3594 0.46533 0.0
C369 C 0.02517 0.36457 0.52557 0.0
C370 C 1.00317 0.35243 0.54257 0.0
C371 C 0.99055 0.36137 0.61024 0.0
C372 C 0.96572 0.37261 0.58574 0.0
C373 C 0.98793 0.34048 0.67945 0.0
C374 C 1.00858 0.38088 0.62758 0.0
C375 C 0.02837 0.38256 0.57777 0.0
C376 C 0.04657 0.40041 0.57913 0.0
C377 C 0.04452 0.41687 0.63284 0.0
C378 C 0.02463 0.41517 0.68521 0.0
C379 C 1.00657 0.39679 0.68275 0.0
H380 H 0.8465 0.96721 0.9795 0.0
H381 H 0.83298 0.03609 0.06317 0.0
H382 H 0.87122 0.05347 0.00073 0.0
H383 H 0.90957 0.96593 0.0114 0.0
H384 H 0.91713 0.95305 0.92559 0.0
H385 H 0.88772 0.94686 0.97054 0.0
H386 H 0.86677 0.96381 0.84053 0.0
H387 H 0.89617 0.96997 0.79512 0.0
H388 H 0.87442 0.99435 0.79224 0.0
H389 H 0.91367 0.06133 0.94384 0.0
H390 H 0.95491 0.06038 0.88711 0.0
H391 H 0.94001 0.98725 0.83381 0.0
C392 C 0.85139 0.9861 0.98374 0.0
C393 C 0.83664 1.00031 0.02635 0.0
C394 C 0.84373 0.02494 0.03018 0.0
C395 C 0.86553 0.03491 0.99524 0.0
C396 C 0.87995 0.02015 0.95558 0.0
C397 C 0.87296 0.99638 0.94861 0.0
C398 C 0.89207 0.98408 0.90507 0.0
C399 C 0.90222 0.96113 0.95621 0.0
C400 C 0.88174 0.97768 0.8287 0.0
C401 C 0.91118 1.00444 0.88993 0.0
C402 C 0.90388 0.02507 0.9199 0.0
C403 C 0.9193 0.04548 0.91874 0.0
C404 C 0.94272 0.04477 0.88653 0.0
C405 C 0.95047 0.02397 0.85465 0.0
C406 C 0.93432 1.00368 0.85569 0.0
H407 H 0.52507 0.85085 0.12519 0.0
H408 H 0.53484 0.80899 0.93647 0.0
H409 H 0.52934 0.84705 0.84168 0.0
H410 H 0.47951 0.89421 0.02752 0.0
H411 H 0.49186 0.91957 0.06996 0.0
H412 H 0.4938 0.88862 0.12147 0.0
H413 H 0.54054 0.894 0.13174 0.0
H414 H 0.5388 0.9248 0.07946 0.0
H415 H 0.55829 0.90274 0.04455 0.0
H416 H 0.5277 0.8909 0.76843 0.0
H417 H 0.52639 0.9357 0.72259 0.0
H418 H 0.51706 0.94867 0.96003 0.0
C419 C 0.52556 0.84959 0.06383 0.0
C420 C 0.53035 0.8269 0.03814 0.0
C421 C 0.53088 0.82605 0.95744 0.0
C422 C 0.52795 0.84764 0.90327 0.0
C423 C 0.52418 0.86987 0.93075 0.0
C424 C 0.52255 0.87087 0.00926 0.0
C425 C 0.51937 0.89711 0.02422 0.0
C426 C 0.49466 0.90004 0.06308 0.0
C427 C 0.54051 0.90512 0.07285 0.0
C428 C 0.52011 0.91089 0.94199 0.0
C429 C 0.52285 0.89488 0.88881 0.0
C430 C 0.5252 0.90351 0.8096 0.0
C431 C 0.52456 0.92905 0.78413 0.0
C432 C 0.52151 0.9458 0.83754 0.0
C433 C 0.51918 0.93642 0.91752 0.0
H434 H 0.69124 0.52203 0.18733 0.0
H435 H 0.75602 0.53401 0.04258 0.0
H436 H 0.73144 0.52888 0.92795 0.0
H437 H 0.66182 0.47667 0.08373 0.0
H438 H 0.63177 0.48845 0.095 0.0
H439 H 0.65476 0.49116 0.16686 0.0
H440 H 0.64839 0.53829 0.14859 0.0
H441 H 0.62551 0.53575 0.07636 0.0
H442 H 0.65136 0.55608 0.05304 0.0
H443 H 0.6995 0.52555 0.82743 0.0
H444 H 0.66291 0.52262 0.74869 0.0
H445 H 0.61848 0.5125 0.95798 0.0
C446 C 0.70033 0.52344 0.13166 0.0
C447 C 0.72571 0.52829 0.12446 0.0
C448 C 0.73677 0.52983 0.0503 0.0
C449 C 0.72291 0.52713 0.98455 0.0
C450 C 0.69793 0.52284 0.99358 0.0
C451 C 0.68674 0.52082 0.0653 0.0
C452 C 0.65947 0.51689 0.05857 0.0
C453 C 0.65149 0.4918 0.10371 0.0
C454 C 0.64536 0.53801 0.08575 0.0
C455 C 0.65705 0.5174 0.97168 0.0
C456 C 0.67948 0.52079 0.93545 0.0
C457 C 0.68187 0.52258 0.85531 0.0
C458 C 0.66084 0.52075 0.81096 0.0
C459 C 0.63752 0.51708 0.84648 0.0
C460 C 0.63581 0.5154 0.92831 0.0
H461 H 0.9777 0.6762 0.16341 0.0
H462 H 0.03637 0.72986 0.10728 0.0
H463 H 0.04688 0.71053 0.99333 0.0
H464 H 1.01175 0.6248 0.11761 0.0
H465 H 0.98563 0.61034 0.08033 0.0
H466 H 0.98176 0.62941 0.1545 0.0
H467 H 0.95109 0.65621 0.06709 0.0
H468 H 0.95494 0.63729 0.99249 0.0
H469 H 0.96015 0.67006 0.97059 0.0
H470 H 0.05066 0.68532 0.88335 0.0
H471 H 0.04926 0.65459 0.79337 0.0
H472 H 0.99089 0.6154 0.92931 0.0
C473 C 0.99302 0.68385 0.12826 0.0
C474 C 1.00605 0.70482 0.14513 0.0
C475 C 0.02561 0.71425 0.09548 0.0
C476 C 0.03189 0.70324 0.03067 0.0
C477 C 0.01871 0.68257 0.01647 0.0
C478 C 0.99986 0.67282 0.06447 0.0
C479 C 0.98913 0.6499 0.03853 0.0
C480 C 0.99227 0.62728 0.10149 0.0
C481 C 0.96224 0.6536 0.01582 0.0
C482 C 1.00488 0.64825 0.96822 0.0
C483 C 0.02164 0.66744 0.95578 0.0
C484 C 0.0377 0.67015 0.89292 0.0
C485 C 0.03671 0.65272 0.84193 0.0
C486 C 0.02006 0.63261 0.85472 0.0
C487 C 1.00399 0.63044 0.9188 0.0
H488 H 1.00642 0.19778 0.48851 0.0
H489 H 0.07894 0.19097 0.39685 0.0
H490 H 0.08252 0.15001 0.47625 0.0
H491 H 0.01942 0.16077 0.69142 0.0
H492 H 0.98904 0.14785 0.69579 0.0
H493 H 0.99461 0.17869 0.64619 0.0
H494 H 0.97443 0.16646 0.52344 0.0
H495 H 0.96981 0.13532 0.57095 0.0
H496 H 0.98664 0.14128 0.48103 0.0
H497 H 0.07427 0.10702 0.53694 0.0
H498 H 0.05885 0.06702 0.60538 0.0
H499 H 0.99269 0.1018 0.66587 0.0
C500 C 0.02359 0.1883 0.48911 0.0
C501 C 0.04247 0.19744 0.43712 0.0
C502 C 0.06442 0.18425 0.43704 0.0
C503 C 0.06651 0.16092 0.48137 0.0
C504 C 0.04673 0.15144 0.52689 0.0
C505 C 0.02606 0.16505 0.53389 0.0
C506 C 1.00678 0.14973 0.58244 0.0
C507 C 1.0022 0.15986 0.65849 0.0
C508 C 0.98302 0.14812 0.53668 0.0
C509 C 0.01928 0.12509 0.59742 0.0
C510 C 0.04228 0.12652 0.56457 0.0
C511 C 0.05656 0.10578 0.56462 0.0
C512 C 0.04751 0.08314 0.60215 0.0
C513 C 0.02453 0.08155 0.63913 0.0
C514 C 1.01019 0.10269 0.63682 0.0
H515 H 0.36006 0.97387 0.4833 0.0
H516 H 0.3185 0.02578 0.59149 0.0
H517 H 0.35262 0.02946 0.68176 0.0
H518 H 0.39811 0.94685 0.65846 0.0
H519 H 0.42441 0.94608 0.59697 0.0
H520 H 0.39438 0.94151 0.55972 0.0
H521 H 0.40294 0.97682 0.44691 0.0
H522 H 0.43256 0.98241 0.48452 0.0
H523 H 0.41093 1.00703 0.4676 0.0
H524 H 0.39361 0.03361 0.74129 0.0
H525 H 0.43723 0.03668 0.77076 0.0
H526 H 0.45375 0.98555 0.6124 0.0
C527 C 0.35771 0.985 0.52883 0.0
C528 C 0.33661 0.99937 0.53127 0.0
C529 C 0.33428 0.01426 0.5899 0.0
C530 C 0.3537 0.01661 0.64077 0.0
C531 C 0.37517 1.0039 0.63192 0.0
C532 C 0.37714 0.98809 0.578 0.0
C533 C 0.40317 0.97973 0.57087 0.0
C534 C 0.40513 0.95189 0.59816 0.0
C535 C 0.41297 0.98696 0.48755 0.0
C536 C 0.41584 0.99419 0.62653 0.0
C537 C 0.39925 1.00748 0.66262 0.0
C538 C 0.40664 0.02296 0.71434 0.0
C539 C 0.43151 0.02464 0.73042 0.0
C540 C 0.44888 1.01132 0.69384 0.0
C541 C 0.4409 0.99599 0.6409 0.0
H542 H 0.55232 0.36925 0.47345 0.0
H543 H 0.47959 0.34115 0.53156 0.0
H544 H 0.47347 0.37401 0.61185 0.0
H545 H 0.56567 0.39178 0.66507 0.0
H546 H 0.58197 0.41833 0.61575 0.0
H547 H 0.5822 0.3898 0.57689 0.0
H548 H 0.56638 0.4128 0.44607 0.0
H549 H 0.56533 0.44122 0.48491 0.0
H550 H 0.5383 0.42949 0.44411 0.0
H551 H 0.47252 0.41384 0.66267 0.0
H552 H 0.47852 0.45492 0.6991 0.0
H553 H 0.55268 0.45732 0.6113 0.0
C554 C 0.53566 0.36931 0.50675 0.0
C555 C 0.51663 0.35239 0.4987 0.0
C556 C 0.49456 0.35354 0.53943 0.0
C557 C 0.4909 0.37226 0.58435 0.0
C558 C 0.5096 0.38948 0.588 0.0
C559 C 0.5318 0.38784 0.5519 0.0
C560 C 0.54804 0.40992 0.55909 0.0
C561 C 0.57082 0.40198 0.60709 0.0
C562 C 0.5549 0.42419 0.47877 0.0
C563 C 0.53118 0.42469 0.60238 0.0
C564 C 0.50912 0.41252 0.61835 0.0
C565 C 0.48989 0.42327 0.65212 0.0
C566 C 0.49344 0.44678 0.67177 0.0
C567 C 0.51612 0.45936 0.65818 0.0
C568 C 0.53523 0.44809 0.62295 0.0
H569 H 0.15962 0.48099 0.4208 0.0
H570 H 0.19664 0.55057 0.4306 0.0
H571 H 0.1648 0.5615 0.51863 0.0
H572 H 0.10186 0.50322 0.40766 0.0
H573 H 0.08709 0.47763 0.4678 0.0
H574 H 0.11474 0.47292 0.41697 0.0
H575 H 0.13537 0.45444 0.54603 0.0
H576 H 0.1075 0.45842 0.59707 0.0
H577 H 0.13559 0.47157 0.62622 0.0
H578 H 0.12582 0.56799 0.58507 0.0
H579 H 0.08527 0.56665 0.64652 0.0
H580 H 0.07371 0.49241 0.59677 0.0
C581 C 0.16145 0.4981 0.44397 0.0
C582 C 0.18066 0.51485 0.41966 0.0
C583 C 0.18234 0.53727 0.44985 0.0
C584 C 0.1642 0.54374 0.49919 0.0
C585 C 0.14476 0.52742 0.51846 0.0
C586 C 0.14357 0.50476 0.49361 0.0
C587 C 0.11998 0.49129 0.51895 0.0
C588 C 0.10505 0.48596 0.44864 0.0
C589 C 0.12491 0.46753 0.57546 0.0
C590 C 0.10778 0.51028 0.55961 0.0
C591 C 0.12236 0.53101 0.55838 0.0
C592 C 0.11443 0.55168 0.58783 0.0
C593 C 0.09125 0.55085 0.62168 0.0
C594 C 0.0764 0.52943 0.6263 0.0
C595 C 0.08474 0.50898 0.59429 0.0
H596 H 0.9723 0.86513 0.16795 0.0
H597 H 0.02993 0.82209 0.08769 0.0
H598 H 0.04271 0.85812 0.99232 0.0
H599 H 0.95984 0.90574 0.97851 0.0
H600 H 0.95503 0.93186 0.02739 0.0
H601 H 0.94741 0.90131 0.07549 0.0
H602 H 0.97495 0.90864 0.19049 0.0
H603 H 0.98347 0.93879 0.14156 0.0
H604 H 1.00663 0.91653 0.17282 0.0
H605 H 0.05232 0.90017 0.91845 0.0
H606 H 0.05531 0.94418 0.86077 0.0
H607 H 0.99369 0.96031 -0.00121 0.0
C608 C 0.98702 0.86306 0.12812 0.0
C609 C 1.00011 0.84088 0.13466 0.0
C610 C 0.01944 0.83881 0.08254 0.0
C611 C 0.02698 0.85926 0.02895 0.0
C612 C 0.01488 0.88145 0.02847 0.0
C613 C 0.99498 0.88333 0.07565 0.0
C614 C 0.98652 0.90967 0.06945 0.0
C615 C 0.96067 0.9123 0.03567 0.0
C616 C 0.98799 0.91893 0.14826 0.0
C617 C 1.00519 0.92249 0.01294 0.0
C618 C 0.02122 0.90586 0.98935 0.0
C619 C 0.03991 0.91332 0.93656 0.0
C620 C 0.04169 0.9383 0.90504 0.0
C621 C 0.02525 0.95546 0.92776 0.0
C622 C 1.00699 0.94756 0.98299 0.0
H623 H 0.69339 0.99229 0.96057 0.0
H624 H 0.70022 0.06701 0.00749 0.0
H625 H 0.66309 0.07825 0.93165 0.0
H626 H 0.66285 1.00871 0.75769 0.0
H627 H 0.64387 0.98148 0.77755 0.0
H628 H 0.67442 0.98125 0.81529 0.0
H629 H 0.6572 0.96699 0.95331 0.0
H630 H 0.6266 0.96801 0.91707 0.0
H631 H 0.63491 0.98557 0.99241 0.0
H632 H 0.6203 0.07808 0.88703 0.0
H633 H 0.57797 0.06868 0.85126 0.0
H634 H 0.59899 0.99481 0.82479 0.0
C635 C 0.68798 1.01138 0.94976 0.0
C636 C 0.69991 0.029 0.98776 0.0
C637 C 0.69167 0.05354 0.97662 0.0
C638 C 0.67045 0.05998 0.93435 0.0
C639 C 0.65794 0.04173 0.90258 0.0
C640 C 0.66681 0.01809 0.90725 0.0
C641 C 0.64838 1.00124 0.87643 0.0
C642 C 0.65795 0.99267 0.80232 0.0
C643 C 0.64138 0.97917 0.93853 0.0
C644 C 0.62727 0.01864 0.85865 0.0
C645 C 0.63319 0.04193 0.87394 0.0
C646 C 0.61571 0.06021 0.87205 0.0
C647 C 0.59172 0.05467 0.85271 0.0
C648 C 0.58556 0.03119 0.83478 0.0
C649 C 0.60356 0.01306 0.83692 0.0
H650 H 0.48498 0.66604 0.05171 0.0
H651 H 0.55618 0.69897 0.99637 0.0
H652 H 0.56525 0.66647 0.91768 0.0
H653 H 0.50312 0.60676 0.08373 0.0
H654 H 0.47726 0.59327 0.04175 0.0
H655 H 0.47397 0.62158 0.08015 0.0
H656 H 0.4577 0.64337 0.94828 0.0
H657 H 0.46018 0.61489 0.90986 0.0
H658 H 0.47507 0.6424 0.86103 0.0
H659 H 0.56948 0.62637 0.86735 0.0
H660 H 0.56615 0.5851 0.82928 0.0
H661 H 0.4918 0.57823 0.91537 0.0
C662 C 0.50203 0.66699 0.02004 0.0
C663 C 0.51979 0.68517 0.0293 0.0
C664 C 0.54214 0.68556 0.98865 0.0
C665 C 0.54754 0.66699 0.94458 0.0
C666 C 0.53025 0.6484 0.94093 0.0
C667 C 0.50766 0.64863 0.97578 0.0
C668 C 0.49302 0.62556 0.96807 0.0
C669 C 0.48647 0.61094 0.04819 0.0
C670 C 0.47014 0.63194 0.91886 0.0
C671 C 0.51122 0.61189 0.92586 0.0
C672 C 0.53258 0.62539 0.91084 0.0
C673 C 0.55267 0.61588 0.87733 0.0
C674 C 0.55068 0.59227 0.85676 0.0
C675 C 0.5287 0.57841 0.8693 0.0
C676 C 0.50878 0.58842 0.90463 0.0
H677 H 0.8812 0.48824 0.18746 0.0
H678 H 0.84173 0.54897 0.05797 0.0
H679 H 0.87158 0.55114 0.95135 0.0
H680 H 0.93743 0.51272 0.15003 0.0
H681 H 0.95305 0.48471 0.14062 0.0
H682 H 0.9259 0.48354 0.19883 0.0
H683 H 0.90566 0.45307 0.11825 0.0
H684 H 0.93298 0.45368 0.0605 0.0
H685 H 0.90412 0.46094 0.01412 0.0
H686 H 0.90902 0.55263 0.8737 0.0
H687 H 0.9503 0.55082 0.82092 0.0
H688 H 0.96663 0.48887 -0.00141 0.0
C689 C 0.87845 0.50147 0.13548 0.0
C690 C 0.85912 0.5184 0.13069 0.0
C691 C 0.85613 0.53557 0.06225 0.0
C692 C 0.87308 0.537 0.00161 0.0
C693 C 0.89269 0.52097 0.01015 0.0
C694 C 0.89526 0.50319 0.07465 0.0
C695 C 0.91937 0.49008 0.07322 0.0
C696 C 0.93484 0.49295 0.14491 0.0
C697 C 0.91528 0.46282 0.06607 0.0
C698 C 0.93051 0.50415 -0.00021 0.0
C699 C 0.91461 0.5217 0.96418 0.0
C700 C 0.9214 0.53864 0.89997 0.0
C701 C 0.94501 0.53764 0.87115 0.0
C702 C 0.96161 0.51978 0.90621 0.0
C703 C 0.95416 0.50252 0.97056 0.0
H704 H 0.06498 0.19989 0.16292 0.0
H705 H 0.98818 0.21627 0.14205 0.0
H706 H 0.98304 0.1846 0.05671 0.0
H707 H 0.07416 0.18009 0.96491 0.0
H708 H 0.09428 0.156 0.00667 0.0
H709 H 0.09306 0.18437 0.0463 0.0
H710 H 0.08375 0.1594 0.18177 0.0
H711 H 0.08416 0.13105 0.14262 0.0
H712 H 0.05763 0.13896 0.19405 0.0
H713 H 0.98475 0.14552 0.99741 0.0
H714 H 0.99354 0.10484 0.96159 0.0
H715 H 0.06904 0.11277 0.02706 0.0
C716 C 0.04733 0.19763 0.13715 0.0
C717 C 0.02701 0.2107 0.15843 0.0
C718 C 1.00407 0.20688 0.1252 0.0
C719 C 1.00097 0.18871 0.07729 0.0
C720 C 0.02104 0.17471 0.06277 0.0
C721 C 0.04391 0.17932 0.09065 0.0
C722 C 0.06178 0.15968 0.07651 0.0
C723 C 0.08202 0.1707 0.02022 0.0
C724 C 0.07244 0.14651 0.1533 0.0
C725 C 0.0452 0.14268 0.03941 0.0
C726 C 0.02189 0.15185 0.03064 0.0
C727 C 1.00308 0.13849 0.00241 0.0
C728 C 1.00827 0.11533 0.98224 0.0
C729 C 0.03203 0.10551 0.99111 0.0
C730 C 0.05068 0.11959 0.01976 0.0
H731 H 0.35778 0.98501 0.28576 0.0
H732 H 0.3208 0.05246 0.19598 0.0
H733 H 0.35323 0.06244 0.09587 0.0
H734 H 0.41453 1.01009 0.27959 0.0
H735 H 0.43048 0.98414 0.25314 0.0
H736 H 0.40215 0.97938 0.30522 0.0
H737 H 0.38334 0.95714 0.19931 0.0
H738 H 0.41185 0.96079 0.14728 0.0
H739 H 0.38416 0.97181 0.09944 0.0
H740 H 0.39302 0.06681 0.01527 0.0
H741 H 0.43483 0.06482 0.96239 0.0
H742 H 0.44583 0.99575 0.11422 0.0
C743 C 0.35607 1.00149 0.24325 0.0
C744 C 0.33671 0.01789 0.2479 0.0
C745 C 0.33526 0.03947 0.19238 0.0
C746 C 0.35371 0.04533 0.13586 0.0
C747 C 0.37333 0.02933 0.13586 0.0
C748 C 0.37436 1.00769 0.18789 0.0
C749 C 0.39827 0.99472 0.18224 0.0
C750 C 0.41218 0.99196 0.25962 0.0
C751 C 0.39415 0.96963 0.15544 0.0
C752 C 0.41098 0.01269 0.12035 0.0
C753 C 0.39627 0.03236 0.09302 0.0
C754 C 0.40453 0.05138 0.03613 0.0
C755 C 0.42829 0.05016 0.00654 0.0
C756 C 0.44367 0.0303 0.0349 0.0
C757 C 0.43471 1.01138 0.09236 0.0
H758 H 0.48629 0.3802 0.23779 0.0
H759 H 0.54979 0.34155 0.17341 0.0
H760 H 0.55574 0.37315 0.0584 0.0
H761 H 0.46557 0.40341 0.03574 0.0
H762 H 0.45626 0.43247 0.06109 0.0
H763 H 0.45479 0.40503 0.13251 0.0
H764 H 0.48144 0.42662 0.22487 0.0
H765 H 0.48335 0.45396 0.15343 0.0
H766 H 0.51078 0.4392 0.19201 0.0
H767 H 0.55877 0.41118 0.96362 0.0
H768 H 0.55611 0.45155 0.88238 0.0
H769 H 0.48999 0.46672 0.00263 0.0
C770 C 0.50112 0.37809 0.19848 0.0
C771 C 0.5175 0.3582 0.21463 0.0
C772 C 0.5367 0.35621 0.16181 0.0
C773 C 0.54037 0.37424 0.09657 0.0
C774 C 0.52456 0.39407 0.08437 0.0
C775 C 0.50503 0.39596 0.1328 0.0
C776 C 0.49162 0.41995 0.10832 0.0
C777 C 0.46551 0.41491 0.08289 0.0
C778 C 0.49182 0.43586 0.17355 0.0
C779 C 0.50714 0.43156 0.03985 0.0
C780 C 0.52604 0.41619 0.02762 0.0
C781 C 0.54385 0.4232 0.97175 0.0
C782 C 0.54226 0.44637 0.9264 0.0
C783 C 0.52287 0.46244 0.9362 0.0
C784 C 0.50492 0.45482 0.9935 0.0
H785 H 0.15922 0.47902 0.18037 0.0
H786 H 0.1978 0.54633 0.08579 0.0
H787 H 0.16651 0.55507 0.98438 0.0
H788 H 0.136 0.46423 0.98923 0.0
H789 H 0.10744 0.45267 0.03215 0.0
H790 H 0.13485 0.44977 0.08929 0.0
H791 H 0.11393 0.4721 0.19139 0.0
H792 H 0.08667 0.47562 0.1339 0.0
H793 H 0.10158 0.5023 0.16173 0.0
H794 H 0.12791 0.56034 0.90958 0.0
H795 H 0.08747 0.55858 0.85014 0.0
H796 H 0.07378 0.48696 0.98793 0.0
C797 C 0.1615 0.49514 0.13654 0.0
C798 C 0.1811 0.51191 0.1406 0.0
C799 C 0.18329 0.53299 0.08299 0.0
C800 C 0.16543 0.53823 0.02562 0.0
C801 C 0.14569 0.52202 0.02591 0.0
C802 C 0.1439 0.50056 0.0785 0.0
C803 C 0.1201 0.487 0.06867 0.0
C804 C 0.12489 0.46193 0.0433 0.0
C805 C 0.10467 0.48409 0.14336 0.0
C806 C 0.10843 0.50462 0.00403 0.0
C807 C 0.12352 0.52474 0.98068 0.0
C808 C 0.11616 0.54444 0.92621 0.0
C809 C 0.093 0.54338 0.89346 0.0
C810 C 0.07744 0.52263 0.91442 0.0
C811 C 0.08534 0.50296 0.97042 0.0
H812 H 0.96398 0.8465 0.38983 0.0
H813 H 0.03362 0.81427 0.45738 0.0
H814 H 0.04022 0.84535 0.54454 0.0
H815 H 0.98389 0.90478 0.36573 0.0
H816 H 0.95706 0.91845 0.39962 0.0
H817 H 0.9545 0.89024 0.36015 0.0
H818 H 0.93376 0.86841 0.48621 0.0
H819 H 0.93547 0.89682 0.52557 0.0
H820 H 0.94825 0.86919 0.57849 0.0
H821 H 0.04254 0.88488 0.60245 0.0
H822 H 0.03915 0.92681 0.63451 0.0
H823 H 0.96804 0.93343 0.52559 0.0
C824 C 0.97996 0.84518 0.4265 0.0
C825 C 0.99806 0.82773 0.41864 0.0
C826 C 0.01927 0.82707 0.46457 0.0
C827 C 0.02323 0.84484 0.51346 0.0
C828 C 1.00572 0.86294 0.5157 0.0
C829 C 0.98426 0.86291 0.47437 0.0
C830 C 0.96983 0.886 0.47772 0.0
C831 C 0.96612 0.90072 0.39599 0.0
C832 C 0.94538 0.87972 0.51952 0.0
C833 C 0.98679 0.89946 0.52544 0.0
C834 C 1.00728 0.88584 0.54752 0.0
C835 C 0.02628 0.89541 0.58707 0.0
C836 C 0.02416 0.91934 0.60506 0.0
C837 C 1.00323 0.93362 0.58322 0.0
C838 C 0.98433 0.92327 0.54316 0.0
H839 H 0.68067 0.04272 0.24144 0.0
H840 H 0.70847 0.96958 0.31825 0.0
H841 H 0.67642 0.96272 0.41982 0.0
H842 H 0.65818 0.05619 0.43084 0.0
H843 H 0.6316 0.07123 0.38665 0.0
H844 H 0.6596 0.07198 0.33229 0.0
H845 H 0.63686 0.05359 0.22402 0.0
H846 H 0.60892 0.0524 0.27839 0.0
H847 H 0.62045 0.02482 0.2482 0.0
H848 H 0.63782 0.96251 0.50425 0.0
H849 H 0.59723 0.96885 0.56045 0.0
H850 H 0.59335 0.0404 0.41726 0.0
C851 C 0.6804 0.02538 0.28054 0.0
C852 C 0.69718 1.00667 0.2715 0.0
C853 C 0.69614 0.98436 0.32446 0.0
C854 C 0.67783 0.98024 0.38201 0.0
C855 C 0.66068 0.99859 0.38589 0.0
C856 C 0.66199 0.0208 0.33658 0.0
C857 C 0.64011 0.03658 0.34595 0.0
C858 C 0.64784 0.0604 0.37572 0.0
C859 C 0.62575 0.04216 0.26962 0.0
C860 C 0.62584 0.01961 0.40697 0.0
C861 C 0.63814 0.99798 0.43068 0.0
C862 C 0.62818 0.97946 0.48615 0.0
C863 C 0.60513 0.98317 0.51773 0.0
C864 C 0.59204 1.00497 0.49259 0.0
C865 C 0.60273 0.02339 0.43678 0.0
H866 H 0.48563 0.65821 0.29847 0.0
H867 H 0.55299 0.69575 0.34189 0.0
H868 H 0.56161 0.66319 0.45188 0.0
H869 H 0.47126 0.63489 0.50745 0.0
H870 H 0.45893 0.60627 0.48522 0.0
H871 H 0.45669 0.63396 0.41538 0.0
H872 H 0.47793 0.61199 0.31295 0.0
H873 H 0.4807 0.58442 0.38281 0.0
H874 H 0.50742 0.5986 0.33394 0.0
H875 H 0.56617 0.62407 0.54243 0.0
H876 H 0.56317 0.58371 0.62559 0.0
H877 H 0.49165 0.57167 0.53171 0.0
C878 C 0.50182 0.6599 0.3327 0.0
C879 C 0.51855 0.67967 0.31201 0.0
C880 C 0.53969 0.6811 0.3575 0.0
C881 C 0.54486 0.66254 0.41963 0.0
C882 C 0.52854 0.64283 0.43641 0.0
C883 C 0.50711 0.64165 0.39579 0.0
C884 C 0.49308 0.618 0.42488 0.0
C885 C 0.46854 0.62362 0.46036 0.0
C886 C 0.48958 0.60234 0.35975 0.0
C887 C 0.51033 0.60581 0.48666 0.0
C888 C 0.53075 0.62044 0.49154 0.0
C889 C 0.55008 0.61264 0.54022 0.0
C890 C 0.5483 0.58953 0.58661 0.0
C891 C 0.5272 0.57452 0.58507 0.0
C892 C 0.50794 0.58281 0.53431 0.0
H893 H 0.88249 0.55603 0.35412 0.0
H894 H 0.84102 0.49467 0.47783 0.0
H895 H 0.87178 0.49013 0.58275 0.0
H896 H 0.93895 0.53149 0.38859 0.0
H897 H 0.95475 0.55951 0.40133 0.0
H898 H 0.92777 0.56083 0.34265 0.0
H899 H 0.9075 0.58987 0.4267 0.0
H900 H 0.93465 0.58913 0.48485 0.0
H901 H 0.90561 0.58087 0.53045 0.0
H902 H 0.91008 0.48777 0.66044 0.0
H903 H 0.95082 0.49095 0.71697 0.0
H904 H 0.96724 0.55529 0.5466 0.0
C905 C 0.87949 0.54225 0.40486 0.0
C906 C 0.85933 0.52581 0.40875 0.0
C907 C 0.85612 0.50765 0.47479 0.0
C908 C 0.87358 0.50487 0.53416 0.0
C909 C 0.89386 0.52067 0.5268 0.0
C910 C 0.89662 0.53939 0.46472 0.0
C911 C 0.92083 0.55283 0.46804 0.0
C912 C 0.93649 0.55104 0.39588 0.0
C913 C 0.91691 0.57978 0.47814 0.0
C914 C 0.93169 0.53821 0.54036 0.0
C915 C 0.91581 0.51971 0.57309 0.0
C916 C 0.92243 0.50246 0.63627 0.0
C917 C 0.94573 0.50428 0.66736 0.0
C918 C 0.96216 0.52334 0.63594 0.0
C919 C 0.95494 0.54069 0.57205 0.0
loop_
_geom_bond_atom_site_label_1
_geom_bond_atom_site_label_2
_geom_bond_distance
_geom_bond_site_symmetry_2
_ccdc_geom_bond_type
H0 C1 0.949 . S
C1 H0 0.949 . S
C1 C2 1.395 . S
C1 C3 1.391 . S
C2 C1 1.395 . S
C2 C5 1.390 . S
C3 C1 1.391 . S
C3 C7 1.387 . S
C3 C8 1.491 . S
H4 C5 0.950 . S
C5 C2 1.390 . S
C5 H4 0.950 . S
C5 C6 1.378 . S
C6 C5 1.378 . S
C6 C7 1.409 . S
C7 C3 1.387 . S
C7 C6 1.409 . S
C7 H9 0.951 . S
C8 C3 1.491 . S
C8 C10 1.382 . S
C8 C12 1.404 . S
H9 C7 0.951 . S
C10 C8 1.382 . S
C10 C11 1.390 . S
C10 H15 0.949 . S
C11 C10 1.390 . S
C11 C16 1.399 . S
C12 C8 1.404 . S
C12 H13 0.950 . S
C12 C14 1.375 . S
H13 C12 0.950 . S
C14 C12 1.375 . S
C14 C16 1.382 . S
C14 H18 0.950 . S
H15 C10 0.949 . S
C16 C11 1.399 . S
C16 C14 1.382 . S
C16 H17 0.952 . S
H17 C16 0.952 . S
H18 C14 0.950 . S
H19 C20 0.960 . S
C20 H19 0.960 . S
C20 C21 1.395 . S
C20 C22 1.391 . S
C21 C20 1.395 . S
C21 C24 1.390 . S
C22 C20 1.391 . S
C22 C26 1.387 . S
C22 C27 1.491 . S
H23 C24 0.950 . S
C24 C21 1.390 . S
C24 H23 0.950 . S
C24 C25 1.378 . S
C25 C24 1.378 . S
C25 C26 1.409 . S
C26 C22 1.387 . S
C26 C25 1.409 . S
C26 H28 0.951 . S
C27 C22 1.491 . S
C27 C29 1.382 . S
C27 C31 1.404 . S
H28 C26 0.951 . S
C29 C27 1.382 . S
C29 C30 1.390 . S
C29 H34 0.949 . S
C30 C29 1.390 . S
C30 C35 1.399 . S
C31 C27 1.404 . S
C31 H32 0.950 . S
C31 C33 1.375 . S
H32 C31 0.950 . S
C33 C31 1.375 . S
C33 C35 1.382 . S
C33 H37 0.950 . S
H34 C29 0.949 . S
C35 C30 1.399 . S
C35 C33 1.382 . S
C35 H36 0.952 . S
H36 C35 0.952 . S
H37 C33 0.950 . S
H38 C39 0.949 . S
C39 H38 0.949 . S
C39 C40 1.398 . S
C39 C41 1.391 1_556 S
C40 C39 1.398 . S
C40 C43 1.377 1_566 S
C41 C39 1.391 1_554 S
C41 C45 1.387 . S
C41 C46 1.491 . S
H42 C43 0.950 . S
C43 C40 1.377 1_544 S
C43 H42 0.950 . S
C43 C44 1.380 1_545 S
C44 C43 1.380 1_565 S
C44 C45 1.416 . S
C45 C41 1.387 . S
C45 C44 1.416 . S
C45 H47 0.951 . S
C46 C41 1.491 . S
C46 C48 1.382 . S
C46 C50 1.404 . S
H47 C45 0.951 . S
C48 C46 1.382 . S
C48 C49 1.390 1_554 S
C48 H53 0.949 1_564 S
C49 C48 1.390 1_556 S
C49 C54 1.399 1_556 S
C50 C46 1.404 . S
C50 H51 0.950 . S
C50 C52 1.375 . S
H51 C50 0.950 . S
C52 C50 1.375 . S
C52 C54 1.382 . S
C52 H56 0.950 . S
H53 C48 0.949 1_546 S
C54 C49 1.399 1_554 S
C54 C52 1.382 . S
C54 H55 0.952 . S
H55 C54 0.952 . S
H56 C52 0.950 . S
H57 C58 0.949 . S
C58 H57 0.949 . S
C58 C59 1.395 . S
C58 C60 1.391 . S
C59 C58 1.395 . S
C59 C62 1.390 . S
C60 C58 1.391 . S
C60 C64 1.387 . S
C60 C65 1.491 . S
H61 C62 0.950 . S
C62 C59 1.390 . S
C62 H61 0.950 . S
C62 C63 1.378 . S
C63 C62 1.378 . S
C63 C64 1.409 . S
C64 C60 1.387 . S
C64 C63 1.409 . S
C64 H66 0.951 . S
C65 C60 1.491 . S
C65 C67 1.382 . S
C65 C69 1.404 . S
H66 C64 0.951 . S
C67 C65 1.382 . S
C67 C68 1.390 . S
C67 H72 0.949 . S
C68 C67 1.390 . S
C68 C73 1.399 . S
C69 C65 1.404 . S
C69 H70 0.950 . S
C69 C71 1.375 . S
H70 C69 0.950 . S
C71 C69 1.375 . S
C71 C73 1.382 . S
C71 H75 0.950 . S
H72 C67 0.949 . S
C73 C68 1.399 . S
C73 C71 1.382 . S
C73 H74 0.952 . S
H74 C73 0.952 . S
H75 C71 0.950 . S
H76 C77 0.949 . S
C77 H76 0.949 . S
C77 C78 1.395 . S
C77 C79 1.391 . S
C78 C77 1.395 . S
C78 C81 1.390 . S
C79 C77 1.391 . S
C79 C83 1.387 . S
C79 C84 1.491 . S
H80 C81 0.950 . S
C81 C78 1.390 . S
C81 H80 0.950 . S
C81 C82 1.378 . S
C82 C81 1.378 . S
C82 C83 1.409 . S
C83 C79 1.387 . S
C83 C82 1.409 . S
C83 H85 0.951 . S
C84 C79 1.491 . S
C84 C86 1.382 . S
C84 C88 1.404 . S
H85 C83 0.951 . S
C86 C84 1.382 . S
C86 C87 1.390 . S
C86 H91 0.949 . S
C87 C86 1.390 . S
C87 C92 1.399 . S
C88 C84 1.404 . S
C88 H89 0.950 . S
C88 C90 1.375 . S
H89 C88 0.950 . S
C90 C88 1.375 . S
C90 C92 1.382 . S
C90 H94 0.950 . S
H91 C86 0.949 . S
C92 C87 1.399 . S
C92 C90 1.382 . S
C92 H93 0.952 . S
H93 C92 0.952 . S
H94 C90 0.950 . S
H95 C96 0.949 . S
C96 H95 0.949 . S
C96 C97 1.395 . S
C96 C98 1.391 . S
C97 C96 1.395 . S
C97 C100 1.390 . S
C98 C96 1.391 . S
C98 C102 1.387 . S
C98 C103 1.491 . S
H99 C100 0.950 . S
C100 C97 1.390 . S
C100 H99 0.950 . S
C100 C101 1.378 . S
C101 C100 1.378 . S
C101 C102 1.409 . S
C102 C98 1.387 . S
C102 C101 1.409 . S
C102 H104 0.951 . S
C103 C98 1.491 . S
C103 C105 1.382 . S
C103 C107 1.404 . S
H104 C102 0.951 . S
C105 C103 1.382 . S
C105 C106 1.390 . S
C105 H110 0.949 . S
C106 C105 1.390 . S
C106 C111 1.399 . S
C107 C103 1.404 . S
C107 H108 0.950 . S
C107 C109 1.375 . S
H108 C107 0.950 . S
C109 C107 1.375 . S
C109 C111 1.382 . S
C109 H113 0.950 . S
H110 C105 0.949 . S
C111 C106 1.399 . S
C111 C109 1.382 . S
C111 H112 0.952 . S
H112 C111 0.952 . S
H113 C109 0.950 . S
H114 C115 0.949 . S
C115 H114 0.949 . S
C115 C116 1.395 . S
C115 C117 1.391 . S
C116 C115 1.395 . S
C116 C119 1.390 . S
C117 C115 1.391 . S
C117 C121 1.387 . S
C117 C122 1.489 1_545 S
H118 C119 0.950 . S
C119 C116 1.390 . S
C119 H118 0.950 . S
C119 C120 1.378 . S
C120 C119 1.378 . S
C120 C121 1.409 . S
C121 C117 1.387 . S
C121 C120 1.409 . S
C121 H123 0.951 . S
C122 C117 1.489 1_565 S
C122 C124 1.377 1_565 S
C122 C126 1.410 . S
H123 C121 0.951 . S
C124 C122 1.377 1_545 S
C124 C125 1.390 . S
C124 H129 0.949 . S
C125 C124 1.390 . S
C125 C130 1.399 1_545 S
C126 C122 1.410 . S
C126 H127 0.950 . S
C126 C128 1.375 . S
H127 C126 0.950 . S
C128 C126 1.375 . S
C128 C130 1.382 . S
C128 H132 0.950 . S
H129 C124 0.949 . S
C130 C125 1.399 1_565 S
C130 C128 1.382 . S
C130 H131 0.952 . S
H131 C130 0.952 . S
H132 C128 0.950 . S
H133 C134 0.949 . S
C134 H133 0.949 . S
C134 C135 1.395 . S
C134 C136 1.391 . S
C135 C134 1.395 . S
C135 C138 1.390 . S
C136 C134 1.391 . S
C136 C140 1.387 . S
C136 C141 1.491 . S
H137 C138 0.950 . S
C138 C135 1.390 . S
C138 H137 0.950 . S
C138 C139 1.378 . S
C139 C138 1.378 . S
C139 C140 1.409 . S
C140 C136 1.387 . S
C140 C139 1.409 . S
C140 H142 0.951 . S
C141 C136 1.491 . S
C141 C143 1.382 . S
C141 C145 1.404 . S
H142 C140 0.951 . S
C143 C141 1.382 . S
C143 C144 1.390 . S
C143 H148 0.949 . S
C144 C143 1.390 . S
C144 C149 1.399 . S
C145 C141 1.404 . S
C145 H146 0.950 . S
C145 C147 1.375 . S
H146 C145 0.950 . S
C147 C145 1.375 . S
C147 C149 1.382 . S
C147 H151 0.950 . S
H148 C143 0.949 . S
C149 C144 1.399 . S
C149 C147 1.382 . S
C149 H150 0.952 . S
H150 C149 0.952 . S
H151 C147 0.950 . S
Co152 N157 2.057 . S
Co152 O169 2.021 . S
Co152 O172 2.062 . S
Co152 O176 2.117 1_455 S
Co152 O177 2.020 1_545 S
C153 O173 1.259 1_545 S
C153 O176 1.258 . S
Co154 N163 2.057 1_655 S
Co154 O170 2.117 1_655 S
Co154 O171 2.020 1_665 S
Co154 O173 2.021 . S
Co154 O178 2.062 . S
C155 N157 1.316 . S
C155 N158 1.347 1_556 S
C155 H160 0.931 . S
C156 N157 1.375 1_655 S
C156 C159 1.350 1_556 S
C156 H161 0.930 . S
N157 Co152 2.057 . S
N157 C155 1.316 . S
N157 C156 1.375 1_455 S
N158 C155 1.347 1_554 S
N158 C159 1.373 1_455 S
C159 C156 1.350 1_554 S
C159 N158 1.373 1_655 S
C159 H180 0.931 . S
H160 C155 0.931 . S
H161 C156 0.930 . S
C162 O169 1.259 . S
C162 O170 1.258 1_545 S
N163 Co154 2.057 1_455 S
N163 C164 1.316 1_455 S
N163 C165 1.375 . S
C164 N163 1.316 1_655 S
C164 N166 1.347 . S
C164 H175 0.931 . S
C165 N163 1.375 . S
C165 C167 1.350 . S
C165 H174 0.930 . S
N166 C164 1.347 . S
N166 C167 1.373 1_655 S
C167 C165 1.350 . S
C167 N166 1.373 1_455 S
C167 H181 0.931 . S
C168 O171 1.256 . S
C168 O172 1.255 . S
O169 Co152 2.021 . S
O169 C162 1.259 . S
O170 Co154 2.117 1_455 S
O170 C162 1.258 1_565 S
O171 Co154 2.020 1_445 S
O171 C168 1.256 . S
O172 Co152 2.062 . S
O172 C168 1.255 . S
O173 C153 1.259 1_565 S
O173 Co154 2.021 . S
H174 C165 0.930 . S
H175 C164 0.931 . S
O176 Co152 2.117 1_655 S
O176 C153 1.258 . S
O177 Co152 2.020 1_565 S
O177 C179 1.256 . S
O178 Co154 2.062 . S
O178 C179 1.255 1_655 S
C179 O177 1.256 . S
C179 O178 1.255 1_455 S
H180 C159 0.931 . S
H181 C167 0.931 . S
Co182 N187 2.057 . S
Co182 O199 2.021 . S
Co182 O202 2.062 . S
Co182 O206 2.117 1_545 S
Co182 O207 2.020 . S
C183 O203 1.259 . S
C183 O206 1.258 . S
Co184 N193 2.058 . S
Co184 O200 2.163 . S
Co184 O201 2.018 . S
Co184 O203 1.977 1_545 S
Co184 O208 2.069 . S
C185 N187 1.316 . S
C185 N188 1.347 1_556 S
C185 H190 0.931 . S
C186 N187 1.375 1_565 S
C186 C189 1.350 1_556 S
C186 H191 0.930 . S
N187 Co182 2.057 . S
N187 C185 1.316 . S
N187 C186 1.375 1_545 S
N188 C185 1.347 1_554 S
N188 C189 1.373 1_545 S
C189 C186 1.350 1_554 S
C189 N188 1.373 1_565 S
C189 H210 0.931 . S
H190 C185 0.931 . S
H191 C186 0.930 . S
C192 O199 1.259 . S
C192 O200 1.258 . S
N193 Co184 2.058 . S
N193 C194 1.316 1_545 S
N193 C195 1.375 . S
C194 N193 1.316 1_565 S
C194 N196 1.333 1_565 S
C194 H205 0.931 . S
C195 N193 1.375 . S
C195 C197 1.350 . S
C195 H204 0.930 . S
N196 C194 1.333 1_545 S
N196 C197 1.419 . S
C197 C195 1.350 . S
C197 N196 1.419 . S
C197 H211 0.931 . S
C198 O201 1.257 . S
C198 O202 1.255 . S
O199 Co182 2.021 . S
O199 C192 1.259 . S
O200 Co184 2.163 . S
O200 C192 1.258 . S
O201 Co184 2.018 . S
O201 C198 1.257 . S
O202 Co182 2.062 . S
O202 C198 1.255 . S
O203 C183 1.259 . S
O203 Co184 1.977 1_565 S
H204 C195 0.930 . S
H205 C194 0.931 . S
O206 Co182 2.117 1_565 S
O206 C183 1.258 . S
O207 Co182 2.020 . S
O207 C209 1.256 . S
O208 Co184 2.069 . S
O208 C209 1.255 . S
C209 O207 1.256 . S
C209 O208 1.255 . S
H210 C189 0.931 . S
H211 C197 0.931 . S
Co212 N217 2.057 . S
Co212 O229 2.021 . S
Co212 O232 2.062 . S
Co212 O236 2.117 . S
Co212 O237 2.020 . S
C213 O233 1.259 . S
C213 O236 1.258 . S
Co214 N223 2.057 . S
Co214 O230 2.117 . S
Co214 O231 2.020 . S
Co214 O233 2.021 . S
Co214 O238 2.062 . S
C215 N217 1.316 . S
C215 N218 1.347 . S
C215 H220 0.931 . S
C216 N217 1.375 . S
C216 C219 1.350 . S
C216 H221 0.930 . S
N217 Co212 2.057 . S
N217 C215 1.316 . S
N217 C216 1.375 . S
N218 C215 1.347 . S
N218 C219 1.373 . S
C219 C216 1.350 . S
C219 N218 1.373 . S
C219 H240 0.931 . S
H220 C215 0.931 . S
H221 C216 0.930 . S
C222 O229 1.259 . S
C222 O230 1.258 . S
N223 Co214 2.057 . S
N223 C224 1.316 . S
N223 C225 1.375 . S
C224 N223 1.316 . S
C224 N226 1.347 . S
C224 H235 0.931 . S
C225 N223 1.375 . S
C225 C227 1.350 . S
C225 H234 0.930 . S
N226 C224 1.347 . S
N226 C227 1.373 . S
C227 C225 1.350 . S
C227 N226 1.373 . S
C227 H241 0.931 . S
C228 O231 1.256 . S
C228 O232 1.255 . S
O229 Co212 2.021 . S
O229 C222 1.259 . S
O230 Co214 2.117 . S
O230 C222 1.258 . S
O231 Co214 2.020 . S
O231 C228 1.256 . S
O232 Co212 2.062 . S
O232 C228 1.255 . S
O233 C213 1.259 . S
O233 Co214 2.021 . S
H234 C225 0.930 . S
H235 C224 0.931 . S
O236 Co212 2.117 . S
O236 C213 1.258 . S
O237 Co212 2.020 . S
O237 C239 1.256 . S
O238 Co214 2.062 . S
O238 C239 1.255 . S
C239 O237 1.256 . S
C239 O238 1.255 . S
H240 C219 0.931 . S
H241 C227 0.931 . S
Co242 N247 2.057 . S
Co242 O259 2.021 1_455 S
Co242 O262 2.062 1_455 S
Co242 O266 2.117 . S
Co242 O267 2.020 . S
C243 O263 1.259 . S
C243 O266 1.258 . S
Co244 N253 2.060 . S
Co244 O260 2.117 1_455 S
Co244 O261 2.020 1_455 S
Co244 O263 2.021 . S
Co244 O268 2.062 . S
C245 N247 1.316 1_655 S
C245 N248 1.347 1_655 S
C245 H250 0.931 . S
C246 N247 1.375 . S
C246 C249 1.350 . S
C246 H251 0.930 . S
N247 Co242 2.057 . S
N247 C245 1.316 1_455 S
N247 C246 1.375 . S
N248 C245 1.347 1_455 S
N248 C249 1.373 . S
C249 C246 1.350 . S
C249 N248 1.373 . S
C249 H270 0.931 . S
H250 C245 0.931 . S
H251 C246 0.930 . S
C252 O259 1.259 . S
C252 O260 1.258 . S
N253 Co244 2.060 . S
N253 C254 1.329 . S
N253 C255 1.361 1_455 S
C254 N253 1.329 . S
C254 N256 1.347 . S
C254 H265 0.931 . S
C255 N253 1.361 1_655 S
C255 C257 1.350 . S
C255 H264 0.930 . S
N256 C254 1.347 . S
N256 C257 1.373 1_455 S
C257 C255 1.350 . S
C257 N256 1.373 1_655 S
C257 H271 0.931 . S
C258 O261 1.256 . S
C258 O262 1.255 . S
O259 Co242 2.021 1_655 S
O259 C252 1.259 . S
O260 Co244 2.117 1_655 S
O260 C252 1.258 . S
O261 Co244 2.020 1_655 S
O261 C258 1.256 . S
O262 Co242 2.062 1_655 S
O262 C258 1.255 . S
O263 C243 1.259 . S
O263 Co244 2.021 . S
H264 C255 0.930 . S
H265 C254 0.931 . S
O266 Co242 2.117 . S
O266 C243 1.258 . S
O267 Co242 2.020 . S
O267 C269 1.256 . S
O268 Co244 2.062 . S
O268 C269 1.255 . S
C269 O267 1.256 . S
C269 O268 1.255 . S
H270 C249 0.931 . S
H271 C257 0.931 . S
H272 C284 0.917 1_565 S
H273 C286 0.930 . S
H274 C287 0.930 . S
H275 C291 0.959 . S
H276 C291 0.959 . S
H277 C291 0.961 . S
H278 C292 0.960 . S
H279 C292 0.961 1_565 S
H280 C292 0.959 . S
H281 C295 0.929 . S
H282 C296 0.931 . S
H283 C298 0.930 . S
C284 H272 0.917 1_545 S
C284 C285 1.409 . S
C284 C289 1.403 . S
C285 C284 1.409 . S
C285 C286 1.376 . S
C286 H273 0.930 . S
C286 C285 1.376 . S
C286 C287 1.388 . S
C287 H274 0.930 . S
C287 C286 1.388 . S
C287 C288 1.390 . S
C288 C287 1.390 . S
C288 C289 1.394 . S
C288 C294 1.465 . S
C289 C284 1.403 . S
C289 C288 1.394 . S
C289 C290 1.516 1_545 S
C290 C289 1.516 1_565 S
C290 C291 1.502 . S
C290 C292 1.561 1_565 S
C290 C293 1.516 1_565 S
C291 H275 0.959 . S
C291 H276 0.959 . S
C291 H277 0.961 . S
C291 C290 1.502 . S
C292 H278 0.960 . S
C292 H279 0.961 1_545 S
C292 H280 0.959 . S
C292 C290 1.561 1_545 S
C293 C290 1.516 1_545 S
C293 C294 1.414 . S
C293 C298 1.385 1_545 S
C294 C288 1.465 . S
C294 C293 1.414 . S
C294 C295 1.399 . S
C295 H281 0.929 . S
C295 C294 1.399 . S
C295 C296 1.385 . S
C296 H282 0.931 . S
C296 C295 1.385 . S
C296 C297 1.389 . S
C297 C296 1.389 . S
C297 C298 1.387 1_545 S
C298 H283 0.930 . S
C298 C293 1.385 1_565 S
C298 C297 1.387 1_565 S
H299 C311 0.930 . S
H300 C313 0.930 . S
H301 C314 0.930 . S
H302 C318 0.959 . S
H303 C318 0.959 . S
H304 C318 0.961 . S
H305 C319 0.960 . S
H306 C319 0.961 . S
H307 C319 0.959 . S
H308 C322 0.929 . S
H309 C323 0.931 . S
H310 C325 0.930 . S
C311 H299 0.930 . S
C311 C312 1.399 . S
C311 C316 1.399 . S
C312 C311 1.399 . S
C312 C313 1.376 . S
C313 H300 0.930 . S
C313 C312 1.376 . S
C313 C314 1.388 . S
C314 H301 0.930 . S
C314 C313 1.388 . S
C314 C315 1.390 . S
C315 C314 1.390 . S
C315 C316 1.394 . S
C315 C321 1.465 . S
C316 C311 1.399 . S
C316 C315 1.394 . S
C316 C317 1.516 . S
C317 C316 1.516 . S
C317 C318 1.502 . S
C317 C319 1.561 . S
C317 C320 1.526 . S
C318 H302 0.959 . S
C318 H303 0.959 . S
C318 H304 0.961 . S
C318 C317 1.502 . S
C319 H305 0.960 . S
C319 H306 0.961 . S
C319 H307 0.959 . S
C319 C317 1.561 . S
C320 C317 1.526 . S
C320 C321 1.396 . S
C320 C325 1.390 . S
C321 C315 1.465 . S
C321 C320 1.396 . S
C321 C322 1.399 . S
C322 H308 0.929 . S
C322 C321 1.399 . S
C322 C323 1.385 . S
C323 H309 0.931 . S
C323 C322 1.385 . S
C323 C324 1.389 . S
C324 C323 1.389 . S
C324 C325 1.387 . S
C325 H310 0.930 . S
C325 C320 1.390 . S
C325 C324 1.387 . S
H326 C338 0.930 . S
H327 C340 0.930 . S
H328 C341 0.930 . S
H329 C345 0.959 . S
H330 C345 0.959 . S
H331 C345 0.961 . S
H332 C346 0.960 . S
H333 C346 0.961 . S
H334 C346 0.959 . S
H335 C349 0.929 . S
H336 C350 0.931 . S
H337 C352 0.930 . S
C338 H326 0.930 . S
C338 C339 1.399 . S
C338 C343 1.399 . S
C339 C338 1.399 . S
C339 C340 1.376 . S
C340 H327 0.930 . S
C340 C339 1.376 . S
C340 C341 1.388 . S
C341 H328 0.930 . S
C341 C340 1.388 . S
C341 C342 1.390 . S
C342 C341 1.390 . S
C342 C343 1.394 . S
C342 C348 1.465 . S
C343 C338 1.399 . S
C343 C342 1.394 . S
C343 C344 1.516 . S
C344 C343 1.516 . S
C344 C345 1.502 . S
C344 C346 1.561 . S
C344 C347 1.526 . S
C345 H329 0.959 . S
C345 H330 0.959 . S
C345 H331 0.961 . S
C345 C344 1.502 . S
C346 H332 0.960 . S
C346 H333 0.961 . S
C346 H334 0.959 . S
C346 C344 1.561 . S
C347 C344 1.526 . S
C347 C348 1.396 . S
C347 C352 1.390 . S
C348 C342 1.465 . S
C348 C347 1.396 . S
C348 C349 1.399 . S
C349 H335 0.929 . S
C349 C348 1.399 . S
C349 C350 1.385 . S
C350 H336 0.931 . S
C350 C349 1.385 . S
C350 C351 1.389 . S
C351 C350 1.389 . S
C351 C352 1.387 . S
C352 H337 0.930 . S
C352 C347 1.390 . S
C352 C351 1.387 . S
H353 C365 0.930 . S
H354 C367 0.930 . S
H355 C368 0.930 . S
H356 C372 0.959 . S
H357 C372 0.959 . S
H358 C372 0.961 . S
H359 C373 0.960 . S
H360 C373 0.961 . S
H361 C373 0.959 . S
H362 C376 0.929 . S
H363 C377 0.931 . S
H364 C379 0.930 . S
C365 H353 0.930 . S
C365 C366 1.399 . S
C365 C370 1.399 . S
C366 C365 1.399 . S
C366 C367 1.376 . S
C367 H354 0.930 . S
C367 C366 1.376 . S
C367 C368 1.388 . S
C368 H355 0.930 . S
C368 C367 1.388 . S
C368 C369 1.390 . S
C369 C368 1.390 . S
C369 C370 1.394 . S
C369 C375 1.465 . S
C370 C365 1.399 . S
C370 C369 1.394 . S
C370 C371 1.516 . S
C371 C370 1.516 . S
C371 C372 1.502 1_455 S
C371 C373 1.561 . S
C371 C374 1.526 . S
C372 H356 0.959 . S
C372 H357 0.959 . S
C372 H358 0.961 . S
C372 C371 1.502 1_655 S
C373 H359 0.960 . S
C373 H360 0.961 . S
C373 H361 0.959 . S
C373 C371 1.561 . S
C374 C371 1.526 . S
C374 C375 1.396 . S
C374 C379 1.390 . S
C375 C369 1.465 . S
C375 C374 1.396 . S
C375 C376 1.399 . S
C376 H362 0.929 . S
C376 C375 1.399 . S
C376 C377 1.385 . S
C377 H363 0.931 . S
C377 C376 1.385 . S
C377 C378 1.389 . S
C378 C377 1.389 . S
C378 C379 1.387 . S
C379 H364 0.930 . S
C379 C374 1.390 . S
C379 C378 1.387 . S
H380 C392 0.930 . S
H381 C394 0.930 . S
H382 C395 0.930 . S
H383 C399 0.959 . S
H384 C399 0.959 . S
H385 C399 0.961 . S
H386 C400 0.960 . S
H387 C400 0.961 . S
H388 C400 0.959 . S
H389 C403 0.929 . S
H390 C404 0.931 . S
H391 C406 0.930 . S
C392 H380 0.930 . S
C392 C393 1.399 1_565 S
C392 C397 1.399 . S
C393 C392 1.399 1_545 S
C393 C394 1.376 . S
C394 H381 0.930 . S
C394 C393 1.376 . S
C394 C395 1.388 . S
C395 H382 0.930 . S
C395 C394 1.388 . S
C395 C396 1.390 . S
C396 C395 1.390 . S
C396 C397 1.394 1_545 S
C396 C402 1.465 . S
C397 C392 1.399 . S
C397 C396 1.394 1_565 S
C397 C398 1.516 . S
C398 C397 1.516 . S
C398 C399 1.502 . S
C398 C400 1.561 . S
C398 C401 1.526 . S
C399 H383 0.959 . S
C399 H384 0.959 . S
C399 H385 0.961 . S
C399 C398 1.502 . S
C400 H386 0.960 . S
C400 H387 0.961 . S
C400 H388 0.959 . S
C400 C398 1.561 . S
C401 C398 1.526 . S
C401 C402 1.396 1_565 S
C401 C406 1.390 . S
C402 C396 1.465 . S
C402 C401 1.396 1_545 S
C402 C403 1.399 . S
C403 H389 0.929 . S
C403 C402 1.399 . S
C403 C404 1.385 . S
C404 H390 0.931 . S
C404 C403 1.385 . S
C404 C405 1.389 . S
C405 C404 1.389 . S
C405 C406 1.387 1_545 S
C406 H391 0.930 . S
C406 C401 1.390 . S
C406 C405 1.387 1_565 S
H407 C419 0.930 . S
H408 C421 0.930 . S
H409 C422 0.930 . S
H410 C426 0.959 . S
H411 C426 0.959 . S
H412 C426 0.961 1_554 S
H413 C427 0.960 . S
H414 C427 0.961 . S
H415 C427 0.959 . S
H416 C430 0.929 . S
H417 C431 0.931 . S
H418 C433 0.930 . S
C419 H407 0.930 . S
C419 C420 1.399 1_554 S
C419 C424 1.399 1_554 S
C420 C419 1.399 1_556 S
C420 C421 1.376 . S
C421 H408 0.930 . S
C421 C420 1.376 . S
C421 C422 1.388 . S
C422 H409 0.930 . S
C422 C421 1.388 . S
C422 C423 1.390 . S
C423 C422 1.390 . S
C423 C424 1.394 . S
C423 C429 1.465 . S
C424 C419 1.399 1_556 S
C424 C423 1.394 . S
C424 C425 1.516 . S
C425 C424 1.516 . S
C425 C426 1.502 . S
C425 C427 1.561 1_556 S
C425 C428 1.526 . S
C426 H410 0.959 . S
C426 H411 0.959 . S
C426 H412 0.961 1_556 S
C426 C425 1.502 . S
C427 H413 0.960 . S
C427 H414 0.961 . S
C427 H415 0.959 . S
C427 C425 1.561 1_554 S
C428 C425 1.526 . S
C428 C429 1.396 . S
C428 C433 1.390 . S
C429 C423 1.465 . S
C429 C428 1.396 . S
C429 C430 1.399 . S
C430 H416 0.929 . S
C430 C429 1.399 . S
C430 C431 1.385 . S
C431 H417 0.931 . S
C431 C430 1.385 . S
C431 C432 1.389 . S
C432 C431 1.389 . S
C432 C433 1.387 . S
C433 H418 0.930 . S
C433 C428 1.390 . S
C433 C432 1.387 . S
H434 C446 0.930 . S
H435 C448 0.930 . S
H436 C449 0.930 . S
H437 C453 0.959 . S
H438 C453 0.959 . S
H439 C453 0.961 . S
H440 C454 0.960 . S
H441 C454 0.961 . S
H442 C454 0.959 1_556 S
H443 C457 0.929 . S
H444 C458 0.931 . S
H445 C460 0.930 . S
C446 H434 0.930 . S
C446 C447 1.399 . S
C446 C451 1.399 . S
C447 C446 1.399 . S
C447 C448 1.376 1_554 S
C448 H435 0.930 . S
C448 C447 1.376 1_556 S
C448 C449 1.388 . S
C449 H436 0.930 . S
C449 C448 1.388 . S
C449 C450 1.390 . S
C450 C449 1.390 . S
C450 C451 1.394 1_556 S
C450 C456 1.465 . S
C451 C446 1.399 . S
C451 C450 1.394 1_554 S
C451 C452 1.516 . S
C452 C451 1.516 . S
C452 C453 1.502 . S
C452 C454 1.561 . S
C452 C455 1.526 1_554 S
C453 H437 0.959 . S
C453 H438 0.959 . S
C453 H439 0.961 . S
C453 C452 1.502 . S
C454 H440 0.960 . S
C454 H441 0.961 . S
C454 H442 0.959 1_554 S
C454 C452 1.561 . S
C455 C452 1.526 1_556 S
C455 C456 1.396 . S
C455 C460 1.390 . S
C456 C450 1.465 . S
C456 C455 1.396 . S
C456 C457 1.399 . S
C457 H443 0.929 . S
C457 C456 1.399 . S
C457 C458 1.385 . S
C458 H444 0.931 . S
C458 C457 1.385 . S
C458 C459 1.389 . S
C459 C458 1.389 . S
C459 C460 1.387 . S
C460 H445 0.930 . S
C460 C455 1.390 . S
C460 C459 1.387 . S
H461 C473 0.930 . S
H462 C475 0.930 1_455 S
H463 C476 0.930 . S
H464 C480 0.959 . S
H465 C480 0.959 . S
H466 C480 0.961 . S
H467 C481 0.960 . S
H468 C481 0.961 . S
H469 C481 0.959 . S
H470 C484 0.929 . S
H471 C485 0.931 . S
H472 C487 0.930 . S
C473 H461 0.930 . S
C473 C474 1.399 1_556 S
C473 C478 1.399 . S
C474 C473 1.399 1_554 S
C474 C475 1.376 . S
C475 H462 0.930 1_655 S
C475 C474 1.376 . S
C475 C476 1.388 1_654 S
C476 H463 0.930 . S
C476 C475 1.388 1_456 S
C476 C477 1.390 1_455 S
C477 C476 1.390 1_655 S
C477 C478 1.394 . S
C477 C483 1.465 . S
C478 C473 1.399 . S
C478 C477 1.394 . S
C478 C479 1.516 . S
C479 C478 1.516 . S
C479 C480 1.502 . S
C479 C481 1.561 . S
C479 C482 1.526 . S
C480 H464 0.959 . S
C480 H465 0.959 . S
C480 H466 0.961 . S
C480 C479 1.502 . S
C481 H467 0.960 . S
C481 H468 0.961 . S
C481 H469 0.959 . S
C481 C479 1.561 . S
C482 C479 1.526 . S
C482 C483 1.396 . S
C482 C487 1.390 . S
C483 C477 1.465 . S
C483 C482 1.396 . S
C483 C484 1.399 1_655 S
C484 H470 0.929 . S
C484 C483 1.399 1_455 S
C484 C485 1.385 . S
C485 H471 0.931 . S
C485 C484 1.385 . S
C485 C486 1.389 1_455 S
C486 C485 1.389 1_655 S
C486 C487 1.387 . S
C487 H472 0.930 . S
C487 C482 1.390 . S
C487 C486 1.387 . S
H488 C500 0.930 . S
H489 C502 0.930 . S
H490 C503 0.930 . S
H491 C507 0.959 . S
H492 C507 0.959 . S
H493 C507 0.961 . S
H494 C508 0.960 . S
H495 C508 0.961 . S
H496 C508 0.959 . S
H497 C511 0.929 . S
H498 C512 0.931 . S
H499 C514 0.923 1_655 S
C500 H488 0.930 . S
C500 C501 1.399 . S
C500 C505 1.399 . S
C501 C500 1.399 . S
C501 C502 1.376 . S
C502 H489 0.930 . S
C502 C501 1.376 . S
C502 C503 1.388 . S
C503 H490 0.930 . S
C503 C502 1.388 . S
C503 C504 1.390 . S
C504 C503 1.390 . S
C504 C505 1.394 . S
C504 C510 1.465 . S
C505 C500 1.399 . S
C505 C504 1.394 . S
C505 C506 1.516 . S
C506 C505 1.516 . S
C506 C507 1.502 . S
C506 C508 1.561 1_455 S
C506 C509 1.526 . S
C507 H491 0.959 . S
C507 H492 0.959 . S
C507 H493 0.961 . S
C507 C506 1.502 . S
C508 H494 0.960 . S
C508 H495 0.961 . S
C508 H496 0.959 . S
C508 C506 1.561 1_655 S
C509 C506 1.526 . S
C509 C510 1.396 . S
C509 C514 1.390 . S
C510 C504 1.465 . S
C510 C509 1.396 . S
C510 C511 1.399 . S
C511 H497 0.929 . S
C511 C510 1.399 . S
C511 C512 1.385 . S
C512 H498 0.931 . S
C512 C511 1.385 . S
C512 C513 1.389 . S
C513 C512 1.389 . S
C513 C514 1.387 . S
C514 H499 0.923 1_455 S
C514 C509 1.390 . S
C514 C513 1.387 . S
H515 C527 0.930 . S
H516 C529 0.930 . S
H517 C530 0.930 . S
H518 C534 0.959 . S
H519 C534 0.959 . S
H520 C534 0.961 . S
H521 C535 0.960 . S
H522 C535 0.961 . S
H523 C535 0.959 . S
H524 C538 0.929 . S
H525 C539 0.931 . S
H526 C541 0.930 . S
C527 H515 0.930 . S
C527 C528 1.399 1_565 S
C527 C532 1.399 . S
C528 C527 1.399 1_545 S
C528 C529 1.376 . S
C529 H516 0.930 . S
C529 C528 1.376 . S
C529 C530 1.388 . S
C530 H517 0.930 . S
C530 C529 1.388 . S
C530 C531 1.390 . S
C531 C530 1.390 . S
C531 C532 1.394 1_545 S
C531 C537 1.465 . S
C532 C527 1.399 . S
C532 C531 1.394 1_565 S
C532 C533 1.516 . S
C533 C532 1.516 . S
C533 C534 1.502 . S
C533 C535 1.561 . S
C533 C536 1.526 . S
C534 H518 0.959 . S
C534 H519 0.959 . S
C534 H520 0.961 . S
C534 C533 1.502 . S
C535 H521 0.960 . S
C535 H522 0.961 . S
C535 H523 0.959 . S
C535 C533 1.561 . S
C536 C533 1.526 . S
C536 C537 1.396 1_565 S
C536 C541 1.390 . S
C537 C531 1.465 . S
C537 C536 1.396 1_545 S
C537 C538 1.399 . S
C538 H524 0.929 . S
C538 C537 1.399 . S
C538 C539 1.385 . S
C539 H525 0.931 . S
C539 C538 1.385 . S
C539 C540 1.389 . S
C540 C539 1.389 . S
C540 C541 1.387 1_545 S
C541 H526 0.930 . S
C541 C536 1.390 . S
C541 C540 1.387 1_565 S
H542 C554 0.930 . S
H543 C556 0.930 . S
H544 C557 0.930 . S
H545 C561 0.959 . S
H546 C561 0.959 . S
H547 C561 0.961 . S
H548 C562 0.960 . S
H549 C562 0.961 . S
H550 C562 0.959 . S
H551 C565 0.929 . S
H552 C566 0.931 . S
H553 C568 0.930 . S
C554 H542 0.930 . S
C554 C555 1.399 . S
C554 C559 1.399 . S
C555 C554 1.399 . S
C555 C556 1.376 . S
C556 H543 0.930 . S
C556 C555 1.376 . S
C556 C557 1.388 . S
C557 H544 0.930 . S
C557 C556 1.388 . S
C557 C558 1.390 . S
C558 C557 1.390 . S
C558 C559 1.394 . S
C558 C564 1.465 . S
C559 C554 1.399 . S
C559 C558 1.394 . S
C559 C560 1.516 . S
C560 C559 1.516 . S
C560 C561 1.502 . S
C560 C562 1.561 . S
C560 C563 1.526 . S
C561 H545 0.959 . S
C561 H546 0.959 . S
C561 H547 0.961 . S
C561 C560 1.502 . S
C562 H548 0.960 . S
C562 H549 0.961 . S
C562 H550 0.959 . S
C562 C560 1.561 . S
C563 C560 1.526 . S
C563 C564 1.396 . S
C563 C568 1.390 . S
C564 C558 1.465 . S
C564 C563 1.396 . S
C564 C565 1.399 . S
C565 H551 0.929 . S
C565 C564 1.399 . S
C565 C566 1.385 . S
C566 H552 0.931 . S
C566 C565 1.385 . S
C566 C567 1.389 . S
C567 C566 1.389 . S
C567 C568 1.387 . S
C568 H553 0.930 . S
C568 C563 1.390 . S
C568 C567 1.387 . S
H569 C581 0.930 . S
H570 C583 0.930 . S
H571 C584 0.930 . S
H572 C588 0.959 . S
H573 C588 0.959 . S
H574 C588 0.961 . S
H575 C589 0.960 . S
H576 C589 0.961 . S
H577 C589 0.959 . S
H578 C592 0.929 . S
H579 C593 0.931 . S
H580 C595 0.930 . S
C581 H569 0.930 . S
C581 C582 1.399 . S
C581 C586 1.399 . S
C582 C581 1.399 . S
C582 C583 1.376 . S
C583 H570 0.930 . S
C583 C582 1.376 . S
C583 C584 1.388 . S
C584 H571 0.930 . S
C584 C583 1.388 . S
C584 C585 1.390 . S
C585 C584 1.390 . S
C585 C586 1.394 . S
C585 C591 1.465 . S
C586 C581 1.399 . S
C586 C585 1.394 . S
C586 C587 1.516 . S
C587 C586 1.516 . S
C587 C588 1.502 . S
C587 C589 1.561 . S
C587 C590 1.526 . S
C588 H572 0.959 . S
C588 H573 0.959 . S
C588 H574 0.961 . S
C588 C587 1.502 . S
C589 H575 0.960 . S
C589 H576 0.961 . S
C589 H577 0.959 . S
C589 C587 1.561 . S
C590 C587 1.526 . S
C590 C591 1.396 . S
C590 C595 1.390 . S
C591 C585 1.465 . S
C591 C590 1.396 . S
C591 C592 1.399 . S
C592 H578 0.929 . S
C592 C591 1.399 . S
C592 C593 1.385 . S
C593 H579 0.931 . S
C593 C592 1.385 . S
C593 C594 1.389 . S
C594 C593 1.389 . S
C594 C595 1.387 . S
C595 H580 0.930 . S
C595 C590 1.390 . S
C595 C594 1.387 . S
H596 C608 0.930 . S
H597 C610 0.930 . S
H598 C611 0.930 . S
H599 C615 0.959 . S
H600 C615 0.959 . S
H601 C615 0.961 . S
H602 C616 0.960 . S
H603 C616 0.960 1_556 S
H604 C616 0.959 . S
H605 C619 0.929 . S
H606 C620 0.931 . S
H607 C622 0.930 . S
C608 H596 0.930 . S
C608 C609 1.399 1_556 S
C608 C613 1.399 . S
C609 C608 1.399 1_554 S
C609 C610 1.376 . S
C610 H597 0.930 . S
C610 C609 1.376 . S
C610 C611 1.388 1_654 S
C611 H598 0.930 . S
C611 C610 1.388 1_456 S
C611 C612 1.390 1_455 S
C612 C611 1.390 1_655 S
C612 C613 1.394 . S
C612 C618 1.462 1_655 S
C613 C608 1.399 . S
C613 C612 1.394 . S
C613 C614 1.516 . S
C614 C613 1.516 . S
C614 C615 1.502 . S
C614 C616 1.561 1_556 S
C614 C617 1.526 . S
C615 H599 0.959 . S
C615 H600 0.959 . S
C615 H601 0.961 . S
C615 C614 1.502 . S
C616 H602 0.960 . S
C616 H603 0.960 1_554 S
C616 H604 0.959 . S
C616 C614 1.561 1_554 S
C617 C614 1.526 . S
C617 C618 1.389 1_655 S
C617 C622 1.390 . S
C618 C612 1.462 1_455 S
C618 C617 1.389 1_455 S
C618 C619 1.407 . S
C619 H605 0.929 . S
C619 C618 1.407 . S
C619 C620 1.385 . S
C620 H606 0.931 . S
C620 C619 1.385 . S
C620 C621 1.389 . S
C621 C620 1.389 . S
C621 C622 1.387 1_455 S
C622 H607 0.930 . S
C622 C617 1.390 . S
C622 C621 1.387 1_655 S
H623 C635 0.930 . S
H624 C637 0.930 1_554 S
H625 C638 0.930 . S
H626 C642 0.959 . S
H627 C642 0.959 . S
H628 C642 0.961 . S
H629 C643 0.960 . S
H630 C643 0.961 . S
H631 C643 0.959 1_554 S
H632 C646 0.929 . S
H633 C647 0.931 . S
H634 C649 0.930 . S
C635 H623 0.930 . S
C635 C636 1.399 1_565 S
C635 C640 1.399 . S
C636 C635 1.399 1_545 S
C636 C637 1.376 . S
C637 H624 0.930 1_556 S
C637 C636 1.376 . S
C637 C638 1.388 . S
C638 H625 0.930 . S
C638 C637 1.388 . S
C638 C639 1.390 . S
C639 C638 1.390 . S
C639 C640 1.394 1_545 S
C639 C645 1.465 . S
C640 C635 1.399 . S
C640 C639 1.394 1_565 S
C640 C641 1.516 . S
C641 C640 1.516 . S
C641 C642 1.502 . S
C641 C643 1.561 . S
C641 C644 1.526 . S
C642 H626 0.959 . S
C642 H627 0.959 . S
C642 H628 0.961 . S
C642 C641 1.502 . S
C643 H629 0.960 . S
C643 H630 0.961 . S
C643 H631 0.959 1_556 S
C643 C641 1.561 . S
C644 C641 1.526 . S
C644 C645 1.396 1_565 S
C644 C649 1.390 . S
C645 C639 1.465 . S
C645 C644 1.396 1_545 S
C645 C646 1.399 . S
C646 H632 0.929 . S
C646 C645 1.399 . S
C646 C647 1.385 . S
C647 H633 0.931 . S
C647 C646 1.385 . S
C647 C648 1.389 . S
C648 C647 1.389 . S
C648 C649 1.387 1_545 S
C649 H634 0.930 . S
C649 C644 1.390 . S
C649 C648 1.387 1_565 S
H650 C662 0.930 . S
H651 C664 0.930 . S
H652 C665 0.930 . S
H653 C669 0.959 . S
H654 C669 0.959 . S
H655 C669 0.961 . S
H656 C670 0.960 . S
H657 C670 0.961 . S
H658 C670 0.959 . S
H659 C673 0.929 1_554 S
H660 C674 0.931 . S
H661 C676 0.930 . S
C662 H650 0.930 . S
C662 C663 1.399 1_556 S
C662 C667 1.399 . S
C663 C662 1.399 1_554 S
C663 C664 1.376 . S
C664 H651 0.930 . S
C664 C663 1.376 . S
C664 C665 1.388 . S
C665 H652 0.930 . S
C665 C664 1.388 . S
C665 C666 1.390 1_554 S
C666 C665 1.390 1_556 S
C666 C667 1.394 . S
C666 C672 1.465 . S
C667 C662 1.399 . S
C667 C666 1.394 . S
C667 C668 1.516 . S
C668 C667 1.516 . S
C668 C669 1.502 . S
C668 C670 1.561 . S
C668 C671 1.526 . S
C669 H653 0.959 . S
C669 H654 0.959 . S
C669 H655 0.961 . S
C669 C668 1.502 . S
C670 H656 0.960 . S
C670 H657 0.961 . S
C670 H658 0.959 . S
C670 C668 1.561 . S
C671 C668 1.526 . S
C671 C672 1.396 . S
C671 C676 1.390 . S
C672 C666 1.465 . S
C672 C671 1.396 . S
C672 C673 1.399 . S
C673 H659 0.929 1_556 S
C673 C672 1.399 . S
C673 C674 1.385 . S
C674 H660 0.931 . S
C674 C673 1.385 . S
C674 C675 1.389 . S
C675 C674 1.389 . S
C675 C676 1.387 . S
C676 H661 0.930 . S
C676 C671 1.390 . S
C676 C675 1.387 . S
H677 C689 0.930 . S
H678 C691 0.930 1_556 S
H679 C692 0.930 . S
H680 C696 0.959 . S
H681 C696 0.959 . S
H682 C696 0.961 . S
H683 C697 0.960 . S
H684 C697 0.961 . S
H685 C697 0.959 1_556 S
H686 C700 0.929 . S
H687 C701 0.931 . S
H688 C703 0.930 . S
C689 H677 0.930 . S
C689 C690 1.399 . S
C689 C694 1.399 . S
C690 C689 1.399 . S
C690 C691 1.376 . S
C691 H678 0.930 1_554 S
C691 C690 1.376 . S
C691 C692 1.388 1_554 S
C692 H679 0.930 . S
C692 C691 1.388 1_556 S
C692 C693 1.390 . S
C693 C692 1.390 . S
C693 C694 1.394 1_556 S
C693 C699 1.465 . S
C694 C689 1.399 . S
C694 C693 1.394 1_554 S
C694 C695 1.516 . S
C695 C694 1.516 . S
C695 C696 1.502 . S
C695 C697 1.561 . S
C695 C698 1.526 1_554 S
C696 H680 0.959 . S
C696 H681 0.959 . S
C696 H682 0.961 . S
C696 C695 1.502 . S
C697 H683 0.960 . S
C697 H684 0.961 . S
C697 H685 0.959 1_554 S
C697 C695 1.561 . S
C698 C695 1.526 1_556 S
C698 C699 1.396 . S
C698 C703 1.390 . S
C699 C693 1.465 . S
C699 C698 1.396 . S
C699 C700 1.399 . S
C700 H686 0.929 . S
C700 C699 1.399 . S
C700 C701 1.385 . S
C701 H687 0.931 . S
C701 C700 1.385 . S
C701 C702 1.389 . S
C702 C701 1.389 . S
C702 C703 1.387 . S
C703 H688 0.930 . S
C703 C698 1.390 . S
C703 C702 1.387 . S
H704 C716 0.930 . S
H705 C718 0.930 . S
H706 C719 0.916 1_655 S
H707 C723 0.959 . S
H708 C723 0.959 . S
H709 C723 0.961 . S
H710 C724 0.960 . S
H711 C724 0.961 . S
H712 C724 0.959 . S
H713 C727 0.929 1_655 S
H714 C728 0.931 1_655 S
H715 C730 0.930 . S
C716 H704 0.930 . S
C716 C717 1.399 . S
C716 C721 1.399 . S
C717 C716 1.399 . S
C717 C718 1.376 . S
C718 H705 0.930 . S
C718 C717 1.376 . S
C718 C719 1.388 . S
C719 H706 0.916 1_455 S
C719 C718 1.388 . S
C719 C720 1.390 . S
C720 C719 1.390 . S
C720 C721 1.394 . S
C720 C726 1.465 . S
C721 C716 1.399 . S
C721 C720 1.394 . S
C721 C722 1.516 . S
C722 C721 1.516 . S
C722 C723 1.502 . S
C722 C724 1.561 . S
C722 C725 1.526 . S
C723 H707 0.959 . S
C723 H708 0.959 . S
C723 H709 0.961 . S
C723 C722 1.502 . S
C724 H710 0.960 . S
C724 H711 0.961 . S
C724 H712 0.959 . S
C724 C722 1.561 . S
C725 C722 1.526 . S
C725 C726 1.396 . S
C725 C730 1.390 . S
C726 C720 1.465 . S
C726 C725 1.396 . S
C726 C727 1.399 . S
C727 H713 0.929 1_455 S
C727 C726 1.399 . S
C727 C728 1.385 . S
C728 H714 0.931 1_455 S
C728 C727 1.385 . S
C728 C729 1.389 . S
C729 C728 1.389 . S
C729 C730 1.387 . S
C730 H715 0.930 . S
C730 C725 1.390 . S
C730 C729 1.387 . S
H731 C743 0.930 . S
H732 C745 0.930 . S
H733 C746 0.930 . S
H734 C750 0.959 . S
H735 C750 0.959 . S
H736 C750 0.961 . S
H737 C751 0.960 . S
H738 C751 0.961 . S
H739 C751 0.959 . S
H740 C754 0.929 . S
H741 C755 0.931 . S
H742 C757 0.930 . S
C743 H731 0.930 . S
C743 C744 1.399 1_565 S
C743 C748 1.399 1_565 S
C744 C743 1.399 1_545 S
C744 C745 1.376 . S
C745 H732 0.930 . S
C745 C744 1.376 . S
C745 C746 1.388 . S
C746 H733 0.930 . S
C746 C745 1.388 . S
C746 C747 1.390 . S
C747 C746 1.390 . S
C747 C748 1.394 . S
C747 C753 1.465 . S
C748 C743 1.399 1_545 S
C748 C747 1.394 . S
C748 C749 1.516 1_545 S
C749 C748 1.516 1_565 S
C749 C750 1.502 . S
C749 C751 1.561 . S
C749 C752 1.526 1_565 S
C750 H734 0.959 . S
C750 H735 0.959 . S
C750 H736 0.961 . S
C750 C749 1.502 . S
C751 H737 0.960 . S
C751 H738 0.961 . S
C751 H739 0.959 . S
C751 C749 1.561 . S
C752 C749 1.526 1_545 S
C752 C753 1.396 . S
C752 C757 1.390 1_545 S
C753 C747 1.465 . S
C753 C752 1.396 . S
C753 C754 1.399 . S
C754 H740 0.929 . S
C754 C753 1.399 . S
C754 C755 1.385 . S
C755 H741 0.931 . S
C755 C754 1.385 . S
C755 C756 1.389 . S
C756 C755 1.389 . S
C756 C757 1.387 1_545 S
C757 H742 0.930 . S
C757 C752 1.390 1_565 S
C757 C756 1.387 1_565 S
H758 C770 0.930 . S
H759 C772 0.930 . S
H760 C773 0.930 . S
H761 C777 0.959 . S
H762 C777 0.959 . S
H763 C777 0.961 . S
H764 C778 0.960 . S
H765 C778 0.961 . S
H766 C778 0.959 . S
H767 C781 0.929 1_556 S
H768 C782 0.931 . S
H769 C784 0.930 . S
C770 H758 0.930 . S
C770 C771 1.399 . S
C770 C775 1.399 . S
C771 C770 1.399 . S
C771 C772 1.376 . S
C772 H759 0.930 . S
C772 C771 1.376 . S
C772 C773 1.388 . S
C773 H760 0.930 . S
C773 C772 1.388 . S
C773 C774 1.390 . S
C774 C773 1.390 . S
C774 C775 1.394 . S
C774 C780 1.465 . S
C775 C770 1.399 . S
C775 C774 1.394 . S
C775 C776 1.516 . S
C776 C775 1.516 . S
C776 C777 1.502 . S
C776 C778 1.561 . S
C776 C779 1.526 . S
C777 H761 0.959 . S
C777 H762 0.959 . S
C777 H763 0.961 . S
C777 C776 1.502 . S
C778 H764 0.960 . S
C778 H765 0.961 . S
C778 H766 0.959 . S
C778 C776 1.561 . S
C779 C776 1.526 . S
C779 C780 1.396 . S
C779 C784 1.390 . S
C780 C774 1.465 . S
C780 C779 1.396 . S
C780 C781 1.399 . S
C781 H767 0.929 1_554 S
C781 C780 1.399 . S
C781 C782 1.385 1_554 S
C782 H768 0.931 . S
C782 C781 1.385 1_556 S
C782 C783 1.389 . S
C783 C782 1.389 . S
C783 C784 1.387 1_556 S
C784 H769 0.930 . S
C784 C779 1.390 . S
C784 C783 1.387 1_554 S
H785 C797 0.930 . S
H786 C799 0.930 . S
H787 C800 0.930 . S
H788 C804 0.959 . S
H789 C804 0.959 . S
H790 C804 0.961 1_554 S
H791 C805 0.960 . S
H792 C805 0.961 . S
H793 C805 0.959 . S
H794 C808 0.929 . S
H795 C809 0.931 1_556 S
H796 C811 0.930 . S
C797 H785 0.930 . S
C797 C798 1.399 . S
C797 C802 1.399 . S
C798 C797 1.399 . S
C798 C799 1.376 . S
C799 H786 0.930 . S
C799 C798 1.376 . S
C799 C800 1.388 . S
C800 H787 0.930 . S
C800 C799 1.388 . S
C800 C801 1.390 . S
C801 C800 1.390 . S
C801 C802 1.394 . S
C801 C807 1.465 . S
C802 C797 1.399 . S
C802 C801 1.394 . S
C802 C803 1.516 . S
C803 C802 1.516 . S
C803 C804 1.502 1_554 S
C803 C805 1.561 . S
C803 C806 1.526 . S
C804 H788 0.959 . S
C804 H789 0.959 . S
C804 H790 0.961 1_556 S
C804 C803 1.502 1_556 S
C805 H791 0.960 . S
C805 H792 0.961 . S
C805 H793 0.959 . S
C805 C803 1.561 . S
C806 C803 1.526 . S
C806 C807 1.396 . S
C806 C811 1.390 1_554 S
C807 C801 1.465 . S
C807 C806 1.396 . S
C807 C808 1.399 . S
C808 H794 0.929 . S
C808 C807 1.399 . S
C808 C809 1.385 . S
C809 H795 0.931 1_554 S
C809 C808 1.385 . S
C809 C810 1.389 1_554 S
C810 C809 1.389 1_556 S
C810 C811 1.387 . S
C811 H796 0.930 . S
C811 C806 1.390 1_556 S
C811 C810 1.387 . S
H812 C824 0.930 . S
H813 C826 0.930 . S
H814 C827 0.930 . S
H815 C831 0.959 . S
H816 C831 0.959 . S
H817 C831 0.961 . S
H818 C832 0.960 . S
H819 C832 0.961 . S
H820 C832 0.918 1_455 S
H821 C835 0.929 . S
H822 C836 0.931 . S
H823 C838 0.930 . S
C824 H812 0.930 . S
C824 C825 1.399 . S
C824 C829 1.399 . S
C825 C824 1.399 . S
C825 C826 1.376 . S
C826 H813 0.930 . S
C826 C825 1.376 . S
C826 C827 1.388 . S
C827 H814 0.930 . S
C827 C826 1.388 . S
C827 C828 1.390 . S
C828 C827 1.390 . S
C828 C829 1.394 . S
C828 C834 1.465 . S
C829 C824 1.399 . S
C829 C828 1.394 . S
C829 C830 1.516 . S
C830 C829 1.516 . S
C830 C831 1.502 . S
C830 C832 1.561 . S
C830 C833 1.526 . S
C831 H815 0.959 . S
C831 H816 0.959 . S
C831 H817 0.961 . S
C831 C830 1.502 . S
C832 H818 0.960 . S
C832 H819 0.961 . S
C832 H820 0.918 1_655 S
C832 C830 1.561 . S
C833 C830 1.526 . S
C833 C834 1.396 . S
C833 C838 1.390 . S
C834 C828 1.465 . S
C834 C833 1.396 . S
C834 C835 1.399 . S
C835 H821 0.929 . S
C835 C834 1.399 . S
C835 C836 1.385 . S
C836 H822 0.931 . S
C836 C835 1.385 . S
C836 C837 1.389 . S
C837 C836 1.389 . S
C837 C838 1.387 . S
C838 H823 0.930 . S
C838 C833 1.390 . S
C838 C837 1.387 . S
H839 C851 0.930 . S
H840 C853 0.930 . S
H841 C854 0.930 . S
H842 C858 0.959 . S
H843 C858 0.959 . S
H844 C858 0.961 . S
H845 C859 0.960 . S
H846 C859 0.961 . S
H847 C859 0.959 . S
H848 C862 0.929 . S
H849 C863 0.931 . S
H850 C865 0.930 . S
C851 H839 0.930 . S
C851 C852 1.399 1_545 S
C851 C856 1.399 . S
C852 C851 1.399 1_565 S
C852 C853 1.376 . S
C853 H840 0.930 . S
C853 C852 1.376 . S
C853 C854 1.388 . S
C854 H841 0.930 . S
C854 C853 1.388 . S
C854 C855 1.390 . S
C855 C854 1.390 . S
C855 C856 1.394 1_565 S
C855 C861 1.465 . S
C856 C851 1.399 . S
C856 C855 1.394 1_545 S
C856 C857 1.516 . S
C857 C856 1.516 . S
C857 C858 1.502 . S
C857 C859 1.561 . S
C857 C860 1.526 . S
C858 H842 0.959 . S
C858 H843 0.959 . S
C858 H844 0.961 . S
C858 C857 1.502 . S
C859 H845 0.960 . S
C859 H846 0.961 . S
C859 H847 0.959 . S
C859 C857 1.561 . S
C860 C857 1.526 . S
C860 C861 1.396 1_545 S
C860 C865 1.390 . S
C861 C855 1.465 . S
C861 C860 1.396 1_565 S
C861 C862 1.399 . S
C862 H848 0.929 . S
C862 C861 1.399 . S
C862 C863 1.385 . S
C863 H849 0.931 . S
C863 C862 1.385 . S
C863 C864 1.389 . S
C864 C863 1.389 . S
C864 C865 1.387 1_565 S
C865 H850 0.930 . S
C865 C860 1.390 . S
C865 C864 1.387 1_545 S
H866 C878 0.930 . S
H867 C880 0.930 . S
H868 C881 0.930 . S
H869 C885 0.959 . S
H870 C885 0.959 . S
H871 C885 0.961 . S
H872 C886 0.960 . S
H873 C886 0.961 . S
H874 C886 0.959 . S
H875 C889 0.929 . S
H876 C890 0.931 . S
H877 C892 0.930 . S
C878 H866 0.930 . S
C878 C879 1.399 . S
C878 C883 1.399 . S
C879 C878 1.399 . S
C879 C880 1.376 . S
C880 H867 0.930 . S
C880 C879 1.376 . S
C880 C881 1.388 . S
C881 H868 0.930 . S
C881 C880 1.388 . S
C881 C882 1.390 . S
C882 C881 1.390 . S
C882 C883 1.394 . S
C882 C888 1.465 . S
C883 C878 1.399 . S
C883 C882 1.394 . S
C883 C884 1.516 . S
C884 C883 1.516 . S
C884 C885 1.502 . S
C884 C886 1.561 . S
C884 C887 1.526 . S
C885 H869 0.959 . S
C885 H870 0.959 . S
C885 H871 0.961 . S
C885 C884 1.502 . S
C886 H872 0.960 . S
C886 H873 0.961 . S
C886 H874 0.959 . S
C886 C884 1.561 . S
C887 C884 1.526 . S
C887 C888 1.396 . S
C887 C892 1.390 . S
C888 C882 1.465 . S
C888 C887 1.396 . S
C888 C889 1.399 . S
C889 H875 0.929 . S
C889 C888 1.399 . S
C889 C890 1.385 . S
C890 H876 0.931 . S
C890 C889 1.385 . S
C890 C891 1.389 . S
C891 C890 1.389 . S
C891 C892 1.387 . S
C892 H877 0.930 . S
C892 C887 1.390 . S
C892 C891 1.387 . S
H893 C905 0.930 . S
H894 C907 0.930 . S
H895 C908 0.930 . S
H896 C912 0.959 . S
H897 C912 0.959 . S
H898 C912 0.961 . S
H899 C913 0.960 . S
H900 C913 0.961 . S
H901 C913 0.959 . S
H902 C916 0.929 . S
H903 C917 0.931 . S
H904 C919 0.930 . S
C905 H893 0.930 . S
C905 C906 1.399 . S
C905 C910 1.399 . S
C906 C905 1.399 . S
C906 C907 1.376 . S
C907 H894 0.930 . S
C907 C906 1.376 . S
C907 C908 1.388 . S
C908 H895 0.930 . S
C908 C907 1.388 . S
C908 C909 1.390 . S
C909 C908 1.390 . S
C909 C910 1.394 . S
C909 C915 1.465 . S
C910 C905 1.399 . S
C910 C909 1.394 . S
C910 C911 1.516 . S
C911 C910 1.516 . S
C911 C912 1.502 . S
C911 C913 1.561 . S
C911 C914 1.526 . S
C912 H896 0.959 . S
C912 H897 0.959 . S
C912 H898 0.961 . S
C912 C911 1.502 . S
C913 H899 0.960 . S
C913 H900 0.961 . S
C913 H901 0.959 . S
C913 C911 1.561 . S
C914 C911 1.526 . S
C914 C915 1.396 . S
C914 C919 1.390 . S
C915 C909 1.465 . S
C915 C914 1.396 . S
C915 C916 1.399 . S
C916 H902 0.929 . S
C916 C915 1.399 . S
C916 C917 1.385 . S
C917 H903 0.931 . S
C917 C916 1.385 . S
C917 C918 1.389 . S
C918 C917 1.389 . S
C918 C919 1.387 . S
C919 H904 0.930 . S
C919 C914 1.390 . S
C919 C918 1.387 . S
C285 C125 1.611 . S
C297 C162 1.711 . S
C324 C192 1.828 . S
C312 C144 1.673 . S
C351 N226 1.420 . S
C339 C87 1.408 . S
C378 N256 1.357 . S
C366 C106 1.349 . S
C405 C153 1.723 . S
C393 C49 1.659 1_545 S
C420 C68 1.723 1_556 S
C432 C183 1.821 . S
C447 C11 1.418 . S
C459 N218 1.410 . S
C474 C30 1.419 . S
C486 N248 1.346 1_655 S
C513 C168 0.516 . S
C501 C97 0.439 . S
C540 C198 0.895 . S
C528 C116 0.847 . S
C567 C239 1.149 . S
C555 C135 1.182 . S
C582 C78 0.755 . S
C594 C269 0.738 . S
C609 C21 0.474 . S
C621 C179 0.561 . S
C648 C209 0.937 . S
C636 C40 0.814 1_545 S
C675 C228 1.174 . S
C663 C59 1.119 . S
C690 C2 0.787 . S
C702 C258 0.669 . S
C717 C101 1.456 . S
C729 N158 1.434 . S
C744 C120 1.459 . S
C756 N188 1.472 . S
C783 C213 1.639 . S
C771 C139 1.623 . S
C810 C243 1.623 . S
C798 C82 1.564 . S
C825 C25 1.436 . S
C837 N166 1.446 . S
C864 N196 1.450 1_565 S
C852 C44 1.423 . S
C891 C222 1.635 . S
C879 C63 1.638 . S
C906 C6 1.603 . S
C918 C252 1.616 . S
