# Generated by pormake.
# Topology eea, (3,6)-cn, num edge types: 1
# Building blocks:
#     Node 0, Type 0, BuildingBlock: ESEHIV_clean_linker_0, # of connection points: 3
#     Node 1, Type 0, BuildingBlock: ESEHIV_clean_linker_0, # of connection points: 3
#     Node 2, Type 0, BuildingBlock: ESEHIV_clean_linker_0, # of connection points: 3
#     Node 3, Type 0, BuildingBlock: ESEHIV_clean_linker_0, # of connection points: 3
#     Node 4, Type 0, BuildingBlock: ESEHIV_clean_linker_0, # of connection points: 3
#     Node 5, Type 0, BuildingBlock: ESEHIV_clean_linker_0, # of connection points: 3
#     Node 6, Type 0, BuildingBlock: ESEHIV_clean_linker_0, # of connection points: 3
#     Node 7, Type 0, BuildingBlock: ESEHIV_clean_linker_0, # of connection points: 3
#     Node 8, Type 0, BuildingBlock: ESEHIV_clean_linker_0, # of connection points: 3
#     Node 9, Type 0, BuildingBlock: ESEHIV_clean_linker_0, # of connection points: 3
#     Node 10, Type 0, BuildingBlock: ESEHIV_clean_linker_0, # of connection points: 3
#     Node 11, Type 0, BuildingBlock: ESEHIV_clean_linker_0, # of connection points: 3
#     Node 12, Type 0, BuildingBlock: ESEHIV_clean_linker_0, # of connection points: 3
#     Node 13, Type 0, BuildingBlock: ESEHIV_clean_linker_0, # of connection points: 3
#     Node 14, Type 0, BuildingBlock: ESEHIV_clean_linker_0, # of connection points: 3
#     Node 15, Type 0, BuildingBlock: ESEHIV_clean_linker_0, # of connection points: 3
#     Node 16, Type 0, BuildingBlock: ESEHIV_clean_linker_0, # of connection points: 3
#     Node 17, Type 0, BuildingBlock: ESEHIV_clean_linker_0, # of connection points: 3
#     Node 18, Type 1, BuildingBlock: CUWYAW_clean_sbu_0, # of connection points: 6
#     Node 19, Type 1, BuildingBlock: CUWYAW_clean_sbu_0, # of connection points: 6
#     Node 20, Type 1, BuildingBlock: CUWYAW_clean_sbu_0, # of connection points: 6
#     Node 21, Type 1, BuildingBlock: CUWYAW_clean_sbu_0, # of connection points: 6
#     Node 22, Type 1, BuildingBlock: CUWYAW_clean_sbu_0, # of connection points: 6
#     Node 23, Type 1, BuildingBlock: CUWYAW_clean_sbu_0, # of connection points: 6
#     Node 24, Type 1, BuildingBlock: CUWYAW_clean_sbu_0, # of connection points: 6
#     Node 25, Type 1, BuildingBlock: CUWYAW_clean_sbu_0, # of connection points: 6
#     Node 26, Type 1, BuildingBlock: CUWYAW_clean_sbu_0, # of connection points: 6
#     Edge 27, Type (0, 1), BuildingBlock: OJICUG_clean_linker_0, # of connection points: 2
#     Edge 28, Type (0, 1), BuildingBlock: OJICUG_clean_linker_0, # of connection points: 2
#     Edge 29, Type (0, 1), BuildingBlock: OJICUG_clean_linker_0, # of connection points: 2
#     Edge 30, Type (0, 1), BuildingBlock: OJICUG_clean_linker_0, # of connection points: 2
#     Edge 31, Type (0, 1), BuildingBlock: OJICUG_clean_linker_0, # of connection points: 2
#     Edge 32, Type (0, 1), BuildingBlock: OJICUG_clean_linker_0, # of connection points: 2
#     Edge 33, Type (0, 1), BuildingBlock: OJICUG_clean_linker_0, # of connection points: 2
#     Edge 34, Type (0, 1), BuildingBlock: OJICUG_clean_linker_0, # of connection points: 2
#     Edge 35, Type (0, 1), BuildingBlock: OJICUG_clean_linker_0, # of connection points: 2
#     Edge 36, Type (0, 1), BuildingBlock: OJICUG_clean_linker_0, # of connection points: 2
#     Edge 37, Type (0, 1), BuildingBlock: OJICUG_clean_linker_0, # of connection points: 2
#     Edge 38, Type (0, 1), BuildingBlock: OJICUG_clean_linker_0, # of connection points: 2
#     Edge 39, Type (0, 1), BuildingBlock: OJICUG_clean_linker_0, # of connection points: 2
#     Edge 40, Type (0, 1), BuildingBlock: OJICUG_clean_linker_0, # of connection points: 2
#     Edge 41, Type (0, 1), BuildingBlock: OJICUG_clean_linker_0, # of connection points: 2
#     Edge 42, Type (0, 1), BuildingBlock: OJICUG_clean_linker_0, # of connection points: 2
#     Edge 43, Type (0, 1), BuildingBlock: OJICUG_clean_linker_0, # of connection points: 2
#     Edge 44, Type (0, 1), BuildingBlock: OJICUG_clean_linker_0, # of connection points: 2
#     Edge 45, Type (0, 1), BuildingBlock: OJICUG_clean_linker_0, # of connection points: 2
#     Edge 46, Type (0, 1), BuildingBlock: OJICUG_clean_linker_0, # of connection points: 2
#     Edge 47, Type (0, 1), BuildingBlock: OJICUG_clean_linker_0, # of connection points: 2
#     Edge 48, Type (0, 1), BuildingBlock: OJICUG_clean_linker_0, # of connection points: 2
#     Edge 49, Type (0, 1), BuildingBlock: OJICUG_clean_linker_0, # of connection points: 2
#     Edge 50, Type (0, 1), BuildingBlock: OJICUG_clean_linker_0, # of connection points: 2
#     Edge 51, Type (0, 1), BuildingBlock: OJICUG_clean_linker_0, # of connection points: 2
#     Edge 52, Type (0, 1), BuildingBlock: OJICUG_clean_linker_0, # of connection points: 2
#     Edge 53, Type (0, 1), BuildingBlock: OJICUG_clean_linker_0, # of connection points: 2
#     Edge 54, Type (0, 1), BuildingBlock: OJICUG_clean_linker_0, # of connection points: 2
#     Edge 55, Type (0, 1), BuildingBlock: OJICUG_clean_linker_0, # of connection points: 2
#     Edge 56, Type (0, 1), BuildingBlock: OJICUG_clean_linker_0, # of connection points: 2
#     Edge 57, Type (0, 1), BuildingBlock: OJICUG_clean_linker_0, # of connection points: 2
#     Edge 58, Type (0, 1), BuildingBlock: OJICUG_clean_linker_0, # of connection points: 2
#     Edge 59, Type (0, 1), BuildingBlock: OJICUG_clean_linker_0, # of connection points: 2
#     Edge 60, Type (0, 1), BuildingBlock: OJICUG_clean_linker_0, # of connection points: 2
#     Edge 61, Type (0, 1), BuildingBlock: OJICUG_clean_linker_0, # of connection points: 2
#     Edge 62, Type (0, 1), BuildingBlock: OJICUG_clean_linker_0, # of connection points: 2
#     Edge 63, Type (0, 1), BuildingBlock: OJICUG_clean_linker_0, # of connection points: 2
#     Edge 64, Type (0, 1), BuildingBlock: OJICUG_clean_linker_0, # of connection points: 2
#     Edge 65, Type (0, 1), BuildingBlock: OJICUG_clean_linker_0, # of connection points: 2
#     Edge 66, Type (0, 1), BuildingBlock: OJICUG_clean_linker_0, # of connection points: 2
#     Edge 67, Type (0, 1), BuildingBlock: OJICUG_clean_linker_0, # of connection points: 2
#     Edge 68, Type (0, 1), BuildingBlock: OJICUG_clean_linker_0, # of connection points: 2
#     Edge 69, Type (0, 1), BuildingBlock: OJICUG_clean_linker_0, # of connection points: 2
#     Edge 70, Type (0, 1), BuildingBlock: OJICUG_clean_linker_0, # of connection points: 2
#     Edge 71, Type (0, 1), BuildingBlock: OJICUG_clean_linker_0, # of connection points: 2
#     Edge 72, Type (0, 1), BuildingBlock: OJICUG_clean_linker_0, # of connection points: 2
#     Edge 73, Type (0, 1), BuildingBlock: OJICUG_clean_linker_0, # of connection points: 2
#     Edge 74, Type (0, 1), BuildingBlock: OJICUG_clean_linker_0, # of connection points: 2
#     Edge 75, Type (0, 1), BuildingBlock: OJICUG_clean_linker_0, # of connection points: 2
#     Edge 76, Type (0, 1), BuildingBlock: OJICUG_clean_linker_0, # of connection points: 2
#     Edge 77, Type (0, 1), BuildingBlock: OJICUG_clean_linker_0, # of connection points: 2
#     Edge 78, Type (0, 1), BuildingBlock: OJICUG_clean_linker_0, # of connection points: 2
#     Edge 79, Type (0, 1), BuildingBlock: OJICUG_clean_linker_0, # of connection points: 2
#     Edge 80, Type (0, 1), BuildingBlock: OJICUG_clean_linker_0, # of connection points: 2
# Relax obj value: 0.034
# Max RMSD: 0.130
# Mean RMSD: 0.113
data_MOF--net-eea--node1-CUWYAW_clean_sbu_0--node2-ESEHIV_clean_linker_0--edge1-OJICUG_clean_linker_0
_symmetry_space_group_name_H-M    P1
_symmetry_Int_Tables_number       1
_symmetry_cell_setting            triclinic
loop_
_symmetry_equiv_pos_as_xyz
'x, y, z'
_cell_length_a     33.779499
_cell_length_b     33.311125
_cell_length_c     56.268341
_cell_angle_alpha  93.188837
_cell_angle_beta   92.635836
_cell_angle_gamma 119.89217
loop_
_atom_site_label
_atom_site_type_symbol
_atom_site_fract_x
_atom_site_fract_y
_atom_site_fract_z
_atom_type_partial_charge
H0 H 0.22825 0.18576 0.44294 0.0
H1 H 0.22767 0.05571 0.44004 0.0
H2 H 0.17836 0.09338 0.37846 0.0
C3 C 0.22152 0.15375 0.43313 0.0
C4 C 0.20217 0.14317 0.40937 0.0
C5 C 0.23001 0.12181 0.4445 0.0
C6 C 0.22073 0.08026 0.43155 0.0
C7 C 0.20189 0.06979 0.40782 0.0
C8 C 0.19257 0.10125 0.39692 0.0
H9 H 0.81997 0.06022 0.44161 0.0
H10 H 0.93662 0.19885 0.44746 0.0
H11 H 0.8991 0.11099 0.38156 0.0
C12 C 0.84842 0.08801 0.43372 0.0
C13 C 0.85597 0.08103 0.40998 0.0
C14 C 0.87757 0.13019 0.44746 0.0
C15 C 0.91416 0.16618 0.43694 0.0
C16 C 0.92218 0.15972 0.41303 0.0
C17 C 0.8929 0.11686 0.39981 0.0
H18 H 0.81577 0.7401 0.44661 0.0
H19 H 0.94116 0.73699 0.44888 0.0
H20 H 0.88932 0.76387 0.38395 0.0
C21 C 0.84422 0.74241 0.43744 0.0
C22 C 0.84922 0.75449 0.41384 0.0
C23 C 0.87595 0.73377 0.44973 0.0
C24 C 0.91562 0.74139 0.43891 0.0
C25 C 0.92183 0.75422 0.41526 0.0
C26 C 0.88702 0.75807 0.40268 0.0
H27 H 0.06455 0.2684 0.577 0.0
H28 H 0.18921 0.26297 0.57979 0.0
H29 H 0.10823 0.22793 0.63992 0.0
C30 C 0.08913 0.26205 0.58662 0.0
C31 C 0.08236 0.24893 0.61015 0.0
C32 C 0.12725 0.26633 0.57535 0.0
C33 C 0.15894 0.25815 0.58804 0.0
C34 C 0.15246 0.24437 0.6113 0.0
C35 C 0.1142 0.24005 0.62225 0.0
H36 H 0.77602 0.94765 0.58691 0.0
H37 H 0.77507 0.81739 0.58323 0.0
H38 H 0.82695 0.90965 0.64774 0.0
C39 C 0.78319 0.92304 0.59516 0.0
C40 C 0.80276 0.93343 0.61876 0.0
C41 C 0.77339 0.88143 0.58205 0.0
C42 C 0.78219 0.84943 0.59316 0.0
C43 C 0.80226 0.85992 0.61678 0.0
C44 C 0.81231 0.90187 0.62936 0.0
H45 H 0.06851 0.80199 0.57949 0.0
H46 H 0.18575 0.94021 0.58568 0.0
H47 H 0.10548 0.8896 0.64541 0.0
C48 C 0.09101 0.83457 0.59007 0.0
C49 C 0.0826 0.84108 0.61388 0.0
C50 C 0.12798 0.87039 0.57972 0.0
C51 C 0.15712 0.91252 0.59351 0.0
C52 C 0.14925 0.91953 0.6172 0.0
C53 C 0.11197 0.88379 0.62721 0.0
H54 H 0.89486 0.52045 0.77623 0.0
H55 H 0.89396 0.39022 0.77231 0.0
H56 H 0.84532 0.42963 0.71118 0.0
C57 C 0.88816 0.48866 0.76618 0.0
C58 C 0.86905 0.47874 0.74239 0.0
C59 C 0.89643 0.45634 0.77729 0.0
C60 C 0.8872 0.41508 0.76404 0.0
C61 C 0.86857 0.40526 0.74027 0.0
C62 C 0.85942 0.43706 0.72965 0.0
H63 H 0.48618 0.39824 0.77358 0.0
H64 H 0.60293 0.53689 0.78047 0.0
H65 H 0.56688 0.45036 0.7142 0.0
C66 C 0.51482 0.42626 0.76593 0.0
C67 C 0.52299 0.41979 0.74224 0.0
C68 C 0.5437 0.46818 0.77994 0.0
C69 C 0.58062 0.50444 0.76974 0.0
C70 C 0.58921 0.49848 0.74588 0.0
C71 C 0.5602 0.45587 0.73239 0.0
H72 H 0.48347 0.07554 0.78016 0.0
H73 H 0.60267 0.0607 0.78171 0.0
H74 H 0.56197 0.10359 0.71893 0.0
C75 C 0.51149 0.07656 0.77109 0.0
C76 C 0.51829 0.09038 0.74778 0.0
C77 C 0.54102 0.06481 0.78327 0.0
C78 C 0.57956 0.06943 0.77238 0.0
C79 C 0.58746 0.08377 0.74915 0.0
C80 C 0.55621 0.09329 0.73692 0.0
H81 H 0.72825 0.60077 0.90988 0.0
H82 H 0.85336 0.59613 0.91304 0.0
H83 H 0.7713 0.55955 0.97273 0.0
C84 C 0.7528 0.59442 0.91954 0.0
C85 C 0.74571 0.58085 0.94298 0.0
C86 C 0.79124 0.59918 0.90842 0.0
C87 C 0.82287 0.59099 0.92116 0.0
C88 C 0.81606 0.5768 0.94433 0.0
C89 C 0.77751 0.572 0.95513 0.0
H90 H 0.42717 0.27086 0.92126 0.0
H91 H 0.42709 0.14102 0.91806 0.0
H92 H 0.48571 0.23756 0.98083 0.0
C93 C 0.4348 0.24659 0.92953 0.0
C94 C 0.45751 0.25894 0.95249 0.0
C95 C 0.42375 0.20418 0.91683 0.0
C96 C 0.4354 0.17381 0.92759 0.0
C97 C 0.45834 0.18607 0.95058 0.0
C98 C 0.46898 0.22849 0.96286 0.0
H99 H 0.73923 0.13539 0.9136 0.0
H100 H 0.85701 0.27345 0.92008 0.0
H101 H 0.77075 0.22629 0.97778 0.0
C102 C 0.76073 0.16862 0.92385 0.0
C103 C 0.75054 0.17635 0.94709 0.0
C104 C 0.79959 0.20336 0.91412 0.0
C105 C 0.82765 0.24613 0.92765 0.0
C106 C 0.81719 0.25461 0.95051 0.0
C107 C 0.77878 0.21963 0.96008 0.0
H108 H 0.57823 0.85883 0.1076 0.0
H109 H 0.56566 0.7232 0.10489 0.0
H110 H 0.51994 0.76492 0.04373 0.0
C111 C 0.56749 0.82536 0.09807 0.0
C112 C 0.54865 0.81603 0.07422 0.0
C113 C 0.57428 0.79217 0.10925 0.0
C114 C 0.5613 0.74936 0.09642 0.0
C115 C 0.54155 0.73945 0.07289 0.0
C116 C 0.53517 0.77273 0.06199 0.0
H117 H 0.15552 0.72763 0.10868 0.0
H118 H 0.28093 0.85976 0.11596 0.0
H119 H 0.23036 0.77858 0.04764 0.0
C120 C 0.1848 0.75461 0.10089 0.0
C121 C 0.19055 0.74828 0.0768 0.0
C122 C 0.2169 0.79516 0.11504 0.0
C123 C 0.25535 0.82947 0.10475 0.0
C124 C 0.26151 0.82356 0.0804 0.0
C125 C 0.22783 0.7833 0.06659 0.0
H126 H 0.14126 0.39771 0.11135 0.0
H127 H 0.26445 0.38937 0.11322 0.0
H128 H 0.22724 0.44243 0.05333 0.0
C129 C 0.17165 0.40284 0.10314 0.0
C130 C 0.1804 0.42094 0.08084 0.0
C131 C 0.20173 0.39142 0.11501 0.0
C132 C 0.24132 0.39853 0.1043 0.0
C133 C 0.25027 0.41602 0.08173 0.0
C134 C 0.21968 0.42727 0.07026 0.0
H135 H 0.40131 0.94126 0.24526 0.0
H136 H 0.52623 0.93624 0.24791 0.0
H137 H 0.44396 0.89824 0.30751 0.0
C138 C 0.42587 0.93476 0.25479 0.0
C139 C 0.41873 0.92065 0.27813 0.0
C140 C 0.46424 0.93961 0.24355 0.0
C141 C 0.49582 0.93109 0.25612 0.0
C142 C 0.48888 0.91627 0.27917 0.0
C143 C 0.45038 0.91134 0.29006 0.0
H144 H 0.10897 0.61182 0.25402 0.0
H145 H 0.10957 0.48231 0.24849 0.0
H146 H 0.15697 0.57035 0.31446 0.0
C147 C 0.11584 0.58672 0.26191 0.0
C148 C 0.13417 0.59576 0.28568 0.0
C149 C 0.10734 0.54621 0.24813 0.0
C150 C 0.11564 0.51354 0.25887 0.0
C151 C 0.13407 0.52249 0.28277 0.0
C152 C 0.1432 0.5636 0.29595 0.0
H153 H 0.40134 0.46401 0.24582 0.0
H154 H 0.51951 0.60167 0.25257 0.0
H155 H 0.43347 0.5541 0.31041 0.0
C156 C 0.42295 0.49709 0.25617 0.0
C157 C 0.41281 0.50457 0.27946 0.0
C158 C 0.46189 0.5318 0.24651 0.0
C159 C 0.49015 0.57436 0.26016 0.0
C160 C 0.47996 0.58271 0.28312 0.0
C161 C 0.44137 0.54766 0.29264 0.0
C162 C 0.56214 0.05346 0.08245 0.0
Eu163 Eu 0.53045 0.03072 0.03781 0.0
C164 C 0.54465 0.03623 0.10554 0.0
C165 C 0.50191 0.02908 0.11186 0.0
C166 C 0.48598 0.01216 0.13376 0.0
C167 C 0.51218 0.0015 0.14956 0.0
C168 C 0.55477 0.00851 0.1431 0.0
C169 C 0.57086 0.02582 0.12136 0.0
C170 C 0.50679 0.07743 1.00823 0.0
C171 C 0.42067 0.95258 0.03441 0.0
C172 C 0.44795 0.9512 0.9451 0.0
Eu173 Eu 0.47956 0.97634 0.98973 0.0
C174 C 0.46383 0.96807 0.92182 0.0
C175 C 0.44765 0.93642 0.90144 0.0
C176 C 0.46232 0.95151 0.87914 0.0
C177 C 0.49358 0.99865 0.87679 0.0
C178 C 0.51041 0.03023 0.8974 0.0
C179 C 0.49559 0.01506 0.91974 0.0
C180 C 0.50482 0.93103 0.01959 0.0
C181 C 0.58901 0.0534 0.99288 0.0
O182 O 0.56954 0.02574 0.0683 0.0
O183 O 0.54338 0.07381 0.07099 0.0
O184 O 0.54401 0.09701 0.02257 0.0
O185 O 0.48209 0.03495 0.01138 0.0
O186 O 0.45964 0.97802 0.04785 0.0
O187 O 0.4182 0.94974 0.01084 0.0
O188 O 0.43814 0.97717 0.95915 0.0
O189 O 0.4706 0.93473 0.95651 0.0
O190 O 0.46791 0.91021 1.0051 0.0
O191 O 0.52852 0.97314 0.01595 0.0
O192 O 0.54935 0.03087 0.97978 0.0
O193 O 0.59167 0.05382 0.01643 0.0
H194 H 0.48067 0.0363 0.09987 0.0
H195 H 0.45286 0.00669 0.13816 0.0
H196 H 0.57596 0.00109 0.15501 0.0
H197 H 0.60382 0.03096 0.11686 0.0
H198 H 0.42352 0.89995 0.90276 0.0
H199 H 0.44923 0.92617 0.86371 0.0
H200 H 0.53417 0.06681 0.89619 0.0
H201 H 0.50863 0.04005 0.93533 0.0
C202 C 0.97233 0.52268 0.08146 0.0
Eu203 Eu 0.98254 0.50642 0.03703 0.0
C204 C 0.99336 0.52376 0.10516 0.0
C205 C 0.00382 0.48931 0.11082 0.0
C206 C 0.02371 0.49127 0.13355 0.0
C207 C 0.03398 0.52801 0.15081 0.0
C208 C 0.0237 0.5625 0.14497 0.0
C209 C 0.00348 0.5603 0.12238 0.0
C210 C 0.9291 0.4272 1.00881 0.0
C211 C 0.05864 0.47295 0.03381 0.0
C212 C 0.03076 0.48512 0.94472 0.0
Eu213 Eu 0.01921 0.4995 0.98918 0.0
C214 C 0.00939 0.48361 0.92106 0.0
C215 C 0.03711 0.50127 0.90217 0.0
C216 C 0.01765 0.49996 0.87948 0.0
C217 C 0.97002 0.48075 0.87525 0.0
C218 C 0.94236 0.46374 0.89435 0.0
C219 C 0.9619 0.46532 0.91709 0.0
C220 C 0.07308 0.57827 0.01766 0.0
C221 C 0.94187 0.53113 0.99232 0.0
O222 O 0.99813 0.55546 0.06819 0.0
O223 O 0.94806 0.48203 0.06931 0.0
O224 O 0.91287 0.44778 0.02209 0.0
O225 O 0.97214 0.44779 0.0119 0.0
O226 O 0.04058 0.49287 0.04701 0.0
O227 O 0.05046 0.46569 1.01033 0.0
O228 O 0.0064 0.45162 0.958 0.0
O229 O 0.05296 0.52591 0.95684 0.0
O230 O 0.08886 0.55721 1.0044 0.0
O231 O 0.03005 0.55829 0.01442 0.0
O232 O 0.95982 0.51091 0.97929 0.0
O233 O 0.95076 0.53954 0.01572 0.0
H234 H 0.99677 0.46099 0.09771 0.0
H235 H 0.03167 0.46449 0.13753 0.0
H236 H 0.03081 0.59097 0.158 0.0
H237 H 0.99573 0.5872 0.11835 0.0
H238 H 0.07385 0.51572 0.90494 0.0
H239 H 0.03978 0.51284 0.86509 0.0
H240 H 0.90561 0.44918 0.89168 0.0
H241 H 0.93989 0.45202 0.93151 0.0
C242 C 0.43745 0.47124 0.94391 0.0
Eu243 Eu 0.47043 0.49141 0.98844 0.0
C244 C 0.45636 0.47266 0.92068 0.0
C245 C 0.4416 0.48817 0.90137 0.0
C246 C 0.45964 0.49057 0.87928 0.0
C247 C 0.49275 0.47735 0.87606 0.0
C248 C 0.50785 0.46225 0.89555 0.0
C249 C 0.48993 0.46007 0.91768 0.0
C250 C 0.49243 0.57026 0.01537 0.0
C251 C 0.58194 0.53556 0.99055 0.0
C252 C 0.56079 0.52942 0.08043 0.0
Eu253 Eu 0.52598 0.5073 0.03618 0.0
C254 C 0.54398 0.52704 0.10428 0.0
C255 C 0.50106 0.49058 0.10924 0.0
C256 C 0.48626 0.48874 0.13221 0.0
C257 C 0.51409 0.52341 0.15059 0.0
C258 C 0.55662 0.56031 0.14528 0.0
C259 C 0.5714 0.56199 0.1224 0.0
C260 C 0.50438 0.42861 1.00912 0.0
C261 C 0.41416 0.46239 0.03407 0.0
O262 O 0.43593 0.44028 0.95778 0.0
O263 O 0.45113 0.5116 0.9556 0.0
O264 O 0.45364 0.54549 1.00259 0.0
O265 O 0.51847 0.55377 0.01245 0.0
O266 O 0.54173 0.5111 0.978 0.0
O267 O 0.58522 0.54482 0.01394 0.0
O268 O 0.55778 0.55876 0.06701 0.0
O269 O 0.5496 0.48985 0.06852 0.0
O270 O 0.54297 0.45333 0.02208 0.0
O271 O 0.47818 0.44489 0.0121 0.0
O272 O 0.45432 0.48571 0.04678 0.0
O273 O 0.4109 0.45447 1.01057 0.0
H274 H 0.41594 0.49829 0.90337 0.0
H275 H 0.44691 0.5018 0.86456 0.0
H276 H 0.53367 0.45231 0.89371 0.0
H277 H 0.50234 0.44855 0.93241 0.0
H278 H 0.47914 0.46337 0.09543 0.0
H279 H 0.45344 0.45976 0.13565 0.0
H280 H 0.57847 0.58821 0.15879 0.0
H281 H 0.60438 0.59066 0.11884 0.0
C282 C 0.22528 0.37928 0.41415 0.0
Eu283 Eu 0.19356 0.35724 0.36949 0.0
C284 C 0.20763 0.36152 0.43713 0.0
C285 C 0.16491 0.35442 0.44345 0.0
C286 C 0.14889 0.33739 0.46531 0.0
C287 C 0.17501 0.32663 0.4811 0.0
C288 C 0.21753 0.33345 0.47462 0.0
C289 C 0.2337 0.35084 0.4529 0.0
C290 C 0.17346 0.408 0.34077 0.0
C291 C 0.08261 0.28497 0.36682 0.0
C292 C 0.10747 0.28156 0.2772 0.0
Eu293 Eu 0.14012 0.30588 0.32173 0.0
C294 C 0.12379 0.29726 0.2538 0.0
C295 C 0.10755 0.26477 0.23375 0.0
C296 C 0.12254 0.2787 0.21134 0.0
C297 C 0.15411 0.32554 0.20852 0.0
C298 C 0.17101 0.35795 0.22881 0.0
C299 C 0.15599 0.34392 0.25127 0.0
C300 C 0.1607 0.25553 0.35061 0.0
C301 C 0.25102 0.37859 0.32444 0.0
O302 O 0.23295 0.35205 0.39981 0.0
O303 O 0.20636 0.39965 0.40287 0.0
O304 O 0.21104 0.42514 0.35467 0.0
O305 O 0.14685 0.36589 0.34386 0.0
O306 O 0.12265 0.30546 0.37961 0.0
O307 O 0.07958 0.28552 0.34334 0.0
O308 O 0.10025 0.30954 0.29126 0.0
O309 O 0.12788 0.2628 0.28858 0.0
O310 O 0.12281 0.23823 0.33699 0.0
O311 O 0.18702 0.2975 0.34724 0.0
O312 O 0.21101 0.35813 0.31159 0.0
O313 O 0.25397 0.37771 0.34789 0.0
H314 H 0.14377 0.36185 0.43151 0.0
H315 H 0.1158 0.33201 0.46971 0.0
H316 H 0.23866 0.32593 0.48653 0.0
H317 H 0.26665 0.35594 0.4484 0.0
H318 H 0.08312 0.22852 0.23543 0.0
H319 H 0.1094 0.2527 0.1962 0.0
H320 H 0.19499 0.39434 0.22726 0.0
H321 H 0.16922 0.36954 0.26659 0.0
C322 C 0.63439 0.8459 0.41479 0.0
Eu323 Eu 0.64714 0.83344 0.37029 0.0
C324 C 0.65602 0.8478 0.43846 0.0
C325 C 0.62862 0.83043 0.45749 0.0
C326 C 0.64853 0.83289 0.48026 0.0
C327 C 0.6963 0.85303 0.48441 0.0
C328 C 0.72361 0.86965 0.46516 0.0
C329 C 0.70364 0.86687 0.44235 0.0
C330 C 0.59386 0.75711 0.34005 0.0
C331 C 0.72321 0.8002 0.36658 0.0
C332 C 0.70132 0.81987 0.27853 0.0
Eu333 Eu 0.68648 0.83102 0.32278 0.0
C334 C 0.68294 0.8196 0.25431 0.0
C335 C 0.71245 0.83303 0.23598 0.0
C336 C 0.69594 0.83222 0.21266 0.0
C337 C 0.64944 0.81782 0.2072 0.0
C338 C 0.6201 0.80544 0.2258 0.0
C339 C 0.63674 0.80633 0.24919 0.0
C340 C 0.73998 0.90707 0.35325 0.0
C341 C 0.61008 0.86368 0.32621 0.0
O342 O 0.65817 0.88 0.40173 0.0
O343 O 0.61329 0.80532 0.40243 0.0
O344 O 0.57773 0.77709 0.35385 0.0
O345 O 0.63685 0.7767 0.34365 0.0
O346 O 0.70338 0.81733 0.38029 0.0
O347 O 0.718 0.79675 0.34307 0.0
O348 O 0.67538 0.78534 0.29089 0.0
O349 O 0.72209 0.86001 0.29129 0.0
O350 O 0.75589 0.88703 0.33939 0.0
O351 O 0.69704 0.88777 0.34949 0.0
O352 O 0.6289 0.84497 0.31279 0.0
O353 O 0.6168 0.86884 0.34974 0.0
H354 H 0.5918 0.81544 0.45479 0.0
H355 H 0.62664 0.82024 0.49476 0.0
H356 H 0.76046 0.88487 0.46775 0.0
H357 H 0.72542 0.88001 0.42783 0.0
H358 H 0.74832 0.84385 0.23968 0.0
H359 H 0.71961 0.84274 0.19886 0.0
H360 H 0.58406 0.79384 0.22217 0.0
H361 H 0.61347 0.79609 0.26319 0.0
C362 C 0.11123 0.807 0.27803 0.0
Eu363 Eu 0.14265 0.82617 0.32277 0.0
C364 C 0.13034 0.80651 0.25507 0.0
C365 C 0.11848 0.82395 0.23556 0.0
C366 C 0.13699 0.82495 0.21375 0.0
C367 C 0.16761 0.80832 0.21099 0.0
C368 C 0.1797 0.79111 0.23064 0.0
C369 C 0.16141 0.79043 0.25253 0.0
C370 C 0.16154 0.90305 0.35055 0.0
C371 C 0.25422 0.87129 0.32571 0.0
C372 C 0.2296 0.86025 0.41537 0.0
Eu373 Eu 0.19679 0.84054 0.37082 0.0
C374 C 0.21107 0.85938 0.43863 0.0
C375 C 0.2268 0.84517 0.45812 0.0
C376 C 0.20952 0.84384 0.48035 0.0
C377 C 0.17631 0.85694 0.48349 0.0
C378 C 0.1602 0.87066 0.46382 0.0
C379 C 0.17725 0.87165 0.44154 0.0
C380 C 0.17744 0.76352 0.34295 0.0
C381 C 0.08504 0.79626 0.36781 0.0
O382 O 0.10669 0.77526 0.29217 0.0
O383 O 0.12715 0.84801 0.2895 0.0
O384 O 0.12385 0.87856 0.33687 0.0
O385 O 0.18868 0.88779 0.34784 0.0
O386 O 0.21436 0.84714 0.31286 0.0
O387 O 0.25688 0.87915 0.34918 0.0
O388 O 0.23151 0.8914 0.40152 0.0
O389 O 0.21528 0.81973 0.40369 0.0
O390 O 0.21553 0.78823 0.35631 0.0
O391 O 0.15052 0.77895 0.34588 0.0
O392 O 0.12465 0.81778 0.38102 0.0
O393 O 0.08214 0.79033 0.34426 0.0
H394 H 0.0948 0.83678 0.23721 0.0
H395 H 0.12656 0.83786 0.19887 0.0
H396 H 0.20352 0.77845 0.22911 0.0
H397 H 0.17163 0.77743 0.26745 0.0
H398 H 0.25268 0.83533 0.45618 0.0
H399 H 0.22297 0.83363 0.49522 0.0
H400 H 0.1343 0.88049 0.46564 0.0
H401 H 0.16412 0.88214 0.42665 0.0
C402 C 0.89328 0.71641 0.74851 0.0
Eu403 Eu 0.86227 0.69506 0.70374 0.0
C404 C 0.87508 0.69825 0.77133 0.0
C405 C 0.83208 0.69081 0.77735 0.0
C406 C 0.81544 0.67316 0.799 0.0
C407 C 0.84122 0.66213 0.81487 0.0
C408 C 0.88405 0.66936 0.80871 0.0
C409 C 0.90082 0.68736 0.78719 0.0
C410 C 0.8425 0.74619 0.67511 0.0
C411 C 0.75111 0.62327 0.7006 0.0
C412 C 0.77824 0.62151 0.61108 0.0
Eu413 Eu 0.80933 0.64435 0.65584 0.0
C414 C 0.79605 0.63808 0.58803 0.0
C415 C 0.78259 0.6059 0.56799 0.0
C416 C 0.79878 0.62064 0.54589 0.0
C417 C 0.82873 0.66802 0.54333 0.0
C418 C 0.84312 0.70014 0.56364 0.0
C419 C 0.82693 0.6853 0.58582 0.0
C420 C 0.82897 0.59327 0.68462 0.0
C421 C 0.92043 0.71651 0.65902 0.0
O422 O 0.90106 0.68929 0.73415 0.0
O423 O 0.87471 0.73709 0.73722 0.0
O424 O 0.88006 0.7632 0.689 0.0
O425 O 0.81589 0.70406 0.67811 0.0
O426 O 0.791 0.64337 0.71354 0.0
O427 O 0.74844 0.62408 0.67713 0.0
O428 O 0.7707 0.64921 0.62516 0.0
O429 O 0.79753 0.60176 0.62255 0.0
O430 O 0.7913 0.57634 0.67083 0.0
O431 O 0.85563 0.63529 0.68143 0.0
O432 O 0.88054 0.69641 0.64608 0.0
O433 O 0.92311 0.71553 0.68246 0.0
H434 H 0.81119 0.69839 0.76531 0.0
H435 H 0.78215 0.6675 0.80317 0.0
H436 H 0.90491 0.66165 0.82069 0.0
H437 H 0.93397 0.69271 0.78291 0.0
H438 H 0.7593 0.56926 0.56943 0.0
H439 H 0.78766 0.59485 0.53074 0.0
H440 H 0.86586 0.73689 0.56228 0.0
H441 H 0.83816 0.71073 0.60115 0.0
C442 C 0.30515 0.18618 0.74732 0.0
Eu443 Eu 0.31797 0.17159 0.70311 0.0
C444 C 0.32085 0.1824 0.77147 0.0
C445 C 0.28959 0.16701 0.78899 0.0
C446 C 0.30399 0.16521 0.81237 0.0
C447 C 0.35009 0.17908 0.81872 0.0
C448 C 0.3811 0.19323 0.80089 0.0
C449 C 0.36657 0.19476 0.77745 0.0
C450 C 0.26479 0.09384 0.67382 0.0
C451 C 0.39476 0.13886 0.69979 0.0
C452 C 0.36986 0.15661 0.6112 0.0
Eu453 Eu 0.35654 0.16806 0.65567 0.0
C454 C 0.34752 0.15348 0.58759 0.0
C455 C 0.37448 0.17078 0.56842 0.0
C456 C 0.35413 0.16854 0.54583 0.0
C457 C 0.30637 0.14879 0.54203 0.0
C458 C 0.27945 0.13198 0.56141 0.0
C459 C 0.29988 0.13446 0.58404 0.0
C460 C 0.40919 0.24575 0.68519 0.0
C461 C 0.27867 0.19853 0.65878 0.0
O462 O 0.33536 0.21852 0.73523 0.0
O463 O 0.27894 0.1471 0.7342 0.0
O464 O 0.2487 0.11408 0.68744 0.0
O465 O 0.3079 0.11395 0.67707 0.0
O466 O 0.3729 0.15373 0.71339 0.0
O467 O 0.39094 0.13677 0.67627 0.0
O468 O 0.34777 0.12208 0.62434 0.0
O469 O 0.38884 0.19723 0.62345 0.0
O470 O 0.42561 0.22564 0.67175 0.0
O471 O 0.36617 0.2255 0.68158 0.0
O472 O 0.2966 0.17846 0.64566 0.0
O473 O 0.28757 0.20651 0.68218 0.0
H474 H 0.25407 0.15692 0.78464 0.0
H475 H 0.27904 0.15333 0.82553 0.0
H476 H 0.41692 0.20459 0.80518 0.0
H477 H 0.39125 0.20642 0.76414 0.0
H478 H 0.41133 0.18581 0.57089 0.0
H479 H 0.3757 0.18125 0.53121 0.0
H480 H 0.24261 0.11699 0.55907 0.0
H481 H 0.2785 0.12141 0.59871 0.0
C482 C 0.77431 0.13886 0.61164 0.0
Eu483 Eu 0.80762 0.15992 0.65612 0.0
C484 C 0.7928 0.13929 0.58838 0.0
C485 C 0.77794 0.15435 0.56893 0.0
C486 C 0.7956 0.1559 0.5468 0.0
C487 C 0.82842 0.14224 0.54369 0.0
C488 C 0.84359 0.12754 0.56332 0.0
C489 C 0.82607 0.12623 0.5855 0.0
C490 C 0.82741 0.23841 0.68274 0.0
C491 C 0.91929 0.20559 0.65806 0.0
C492 C 0.89873 0.20138 0.74809 0.0
Eu493 Eu 0.8638 0.17788 0.70387 0.0
C494 C 0.88184 0.19898 0.77192 0.0
C495 C 0.83906 0.1623 0.77689 0.0
C496 C 0.82423 0.16034 0.79985 0.0
C497 C 0.85189 0.19511 0.81822 0.0
C498 C 0.89426 0.23224 0.81291 0.0
C499 C 0.90908 0.23405 0.79002 0.0
C500 C 0.84394 0.0993 0.67721 0.0
C501 C 0.75162 0.13023 0.70182 0.0
O502 O 0.7725 0.10815 0.62577 0.0
O503 O 0.78862 0.17962 0.62303 0.0
O504 O 0.78877 0.21248 0.67002 0.0
O505 O 0.85455 0.2232 0.67996 0.0
O506 O 0.87903 0.18027 0.64566 0.0
O507 O 0.92269 0.2156 0.6814 0.0
O508 O 0.89493 0.23003 0.73445 0.0
O509 O 0.88829 0.16184 0.7364 0.0
O510 O 0.8824 0.12487 0.69017 0.0
O511 O 0.817 0.11471 0.68003 0.0
O512 O 0.79178 0.15458 0.71447 0.0
O513 O 0.7484 0.12202 0.67834 0.0
H514 H 0.7525 0.16482 0.57084 0.0
H515 H 0.78281 0.16684 0.53197 0.0
H516 H 0.86918 0.11726 0.56156 0.0
H517 H 0.83855 0.11506 0.60036 0.0
H518 H 0.8173 0.13498 0.76308 0.0
H519 H 0.79153 0.13118 0.8033 0.0
H520 H 0.91597 0.26023 0.82641 0.0
H521 H 0.94195 0.26288 0.78646 0.0
C522 C 0.32686 0.9056 0.07687 0.0
C523 C 0.30324 0.85773 0.06918 0.0
H524 H 0.3833 0.97344 0.07201 0.0
C525 C 0.31965 0.8423 0.05017 0.0
H526 H 0.31547 0.91913 0.09129 0.0
C527 C 0.35668 0.87365 0.03849 0.0
C528 C 0.37978 0.92106 0.0461 0.0
H529 H 0.30436 0.80577 0.0443 0.0
H530 H 0.36823 0.86054 0.02391 0.0
C531 C 0.36534 0.93688 0.06567 0.0
C532 C 0.13029 0.45672 0.08191 0.0
C533 C 0.14882 0.43385 0.06875 0.0
H534 H 0.08741 0.48693 0.08129 0.0
C535 C 0.13715 0.42362 0.04398 0.0
H536 H 0.1391 0.46571 0.10096 0.0
C537 C 0.10775 0.43614 0.03262 0.0
C538 C 0.08932 0.4591 0.04579 0.0
H539 H 0.15038 0.40549 0.03339 0.0
H540 H 0.09947 0.42773 0.01352 0.0
C541 C 0.10083 0.46913 0.07058 0.0
C542 C 0.56004 0.67952 0.05727 0.0
C543 C 0.52826 0.69474 0.05929 0.0
H544 H 0.57402 0.6287 0.04104 0.0
C545 C 0.48444 0.66832 0.04719 0.0
H546 H 0.59422 0.69969 0.06622 0.0
C547 C 0.47268 0.62749 0.03313 0.0
C548 C 0.50471 0.6127 0.03072 0.0
H549 H 0.45935 0.67937 0.04858 0.0
H550 H 0.43866 0.60777 0.02396 0.0
C551 C 0.54848 0.63901 0.04289 0.0
C552 C 0.82596 0.32251 0.97645 0.0
C553 C 0.8462 0.30001 0.96454 0.0
H554 H 0.83656 0.38073 0.99969 0.0
C555 C 0.89412 0.3204 0.96676 0.0
H556 H 0.78913 0.30781 0.97479 0.0
C557 C 0.9212 0.362 0.98108 0.0
C558 C 0.90083 0.38406 0.99322 0.0
H559 H 0.91053 0.30355 0.95794 0.0
H560 H 0.95798 0.37645 0.98296 0.0
C561 C 0.85305 0.36422 0.99062 0.0
C562 C 0.70713 0.58695 0.97906 0.0
C563 C 0.70414 0.5734 0.9546 0.0
H564 H 0.67119 0.5859 1.00958 0.0
C565 C 0.6608 0.54995 0.94178 0.0
H566 H 0.74009 0.6057 0.98937 0.0
C567 C 0.62128 0.5388 0.95334 0.0
C568 C 0.62416 0.55081 0.978 0.0
H569 H 0.65719 0.5386 0.92299 0.0
H570 H 0.5884 0.5197 0.94299 0.0
C571 C 0.66763 0.57575 0.99063 0.0
C572 C 0.43972 0.10864 0.96456 0.0
C573 C 0.47184 0.15549 0.96231 0.0
H574 H 0.42544 0.04691 0.98129 0.0
C575 C 0.51627 0.17474 0.97355 0.0
H576 H 0.40519 0.0931 0.95614 0.0
C577 C 0.52769 0.14864 0.98788 0.0
C578 C 0.49497 0.10269 0.99125 0.0
H579 H 0.54185 0.21059 0.97182 0.0
H580 H 0.56191 0.16493 0.99679 0.0
C581 C 0.45121 0.08238 0.97901 0.0
C582 C 0.71329 0.13374 0.98235 0.0
C583 C 0.71006 0.14037 0.958 0.0
H584 H 0.67784 0.10127 0.01249 0.0
C585 C 0.66722 0.11521 0.94482 0.0
H586 H 0.74601 0.15195 0.99291 0.0
C587 C 0.62814 0.08583 0.95602 0.0
C588 C 0.63106 0.08105 0.98067 0.0
H589 H 0.66352 0.11973 0.92609 0.0
H590 H 0.59546 0.06803 0.94545 0.0
C591 C 0.67424 0.10457 0.99358 0.0
C592 C 0.86201 0.57871 0.98131 0.0
C593 C 0.84849 0.56547 0.95681 0.0
H594 H 0.90227 0.57849 0.01177 0.0
C595 C 0.866 0.54096 0.94419 0.0
H596 H 0.84947 0.59802 0.99147 0.0
C597 C 0.89649 0.53017 0.95572 0.0
C598 C 0.91004 0.54337 0.98021 0.0
H599 H 0.85566 0.5295 0.92541 0.0
H600 H 0.90907 0.51108 0.9454 0.0
C601 C 0.89245 0.56773 0.9929 0.0
C602 C 0.4375 0.31823 0.9678 0.0
C603 C 0.46994 0.30381 0.96578 0.0
H604 H 0.42272 0.36883 0.98364 0.0
C605 C 0.51403 0.33157 0.97743 0.0
H606 H 0.40317 0.29724 0.95914 0.0
C607 C 0.52524 0.37246 0.99125 0.0
C608 C 0.49252 0.38628 0.99377 0.0
H609 H 0.53984 0.32152 0.97593 0.0
H610 H 0.55943 0.393 1.00014 0.0
C611 C 0.44864 0.35906 0.98182 0.0
C612 C 0.11181 0.6849 0.06083 0.0
C613 C 0.15955 0.70397 0.06236 0.0
H614 H 0.0467 0.63039 0.04479 0.0
C615 C 0.17825 0.68093 0.04956 0.0
H616 H 0.0967 0.70226 0.07048 0.0
C617 C 0.14988 0.63983 0.03527 0.0
C618 C 0.10225 0.62112 0.03333 0.0
H619 H 0.21496 0.69473 0.05067 0.0
H620 H 0.16536 0.62288 0.02561 0.0
C621 C 0.08333 0.6439 0.04622 0.0
C622 C 0.33489 0.44509 0.08308 0.0
C623 C 0.29183 0.42375 0.07003 0.0
H624 H 0.40723 0.47414 0.08201 0.0
C625 C 0.28906 0.41241 0.04532 0.0
H626 H 0.33823 0.45455 0.1021 0.0
C627 C 0.32858 0.42378 0.03374 0.0
C628 C 0.37187 0.44677 0.0466 0.0
H629 H 0.25628 0.39526 0.03482 0.0
H630 H 0.32518 0.41538 0.01461 0.0
C631 C 0.37448 0.45655 0.07149 0.0
C632 C 0.52235 0.87443 0.07203 0.0
C633 C 0.54288 0.85086 0.06152 0.0
H634 H 0.49391 0.9187 0.06662 0.0
C635 C 0.55439 0.85758 0.03776 0.0
H636 H 0.51295 0.86973 0.09024 0.0
C637 C 0.54324 0.88506 0.02436 0.0
C638 C 0.52087 0.90665 0.03455 0.0
H639 H 0.57094 0.84048 0.02932 0.0
H640 H 0.551 0.88847 1.00586 0.0
C641 C 0.51127 0.90212 0.05856 0.0
C642 C 0.95845 0.2039 0.37781 0.0
C643 C 0.96227 0.19626 0.40197 0.0
H644 H 0.99317 0.23789 0.34775 0.0
C645 C 0.00545 0.22122 0.41488 0.0
H646 H 0.92554 0.18592 0.36743 0.0
C647 C 0.04415 0.25136 0.40365 0.0
C648 C 0.04067 0.25721 0.37919 0.0
H649 H 0.0098 0.21594 0.43342 0.0
H650 H 0.07706 0.26878 0.41402 0.0
C651 C 0.9972 0.2339 0.36653 0.0
C652 C 0.76968 0.7432 0.40633 0.0
C653 C 0.8159 0.76471 0.40105 0.0
H654 H 0.7043 0.73858 0.39986 0.0
C655 C 0.83046 0.79733 0.38383 0.0
H656 H 0.75655 0.71714 0.41897 0.0
C657 C 0.79978 0.80769 0.37213 0.0
C658 C 0.75436 0.78703 0.37799 0.0
H659 H 0.86583 0.81585 0.37964 0.0
H660 H 0.81193 0.83305 0.35906 0.0
C661 C 0.73947 0.75498 0.39523 0.0
C662 C 0.14804 0.99806 0.38164 0.0
C663 C 0.19115 0.02575 0.39429 0.0
H664 H 0.10487 0.93719 0.3581 0.0
C665 C 0.22424 0.01208 0.3931 0.0
H666 H 0.12182 0.00768 0.38248 0.0
C667 C 0.21473 0.97196 0.37892 0.0
C668 C 0.17178 0.94468 0.36605 0.0
H669 H 0.25786 0.03313 0.40256 0.0
H670 H 0.24119 0.96279 0.37771 0.0
C671 C 0.13838 0.95779 0.36774 0.0
C672 C 0.48962 0.65076 0.30941 0.0
C673 C 0.50941 0.62818 0.29715 0.0
H674 H 0.50102 0.70958 0.33241 0.0
C675 C 0.5574 0.64907 0.29857 0.0
H676 H 0.45277 0.6358 0.30836 0.0
C677 C 0.58501 0.69129 0.31235 0.0
C678 C 0.5651 0.71348 0.3248 0.0
H679 H 0.57356 0.63227 0.28944 0.0
H680 H 0.62185 0.70618 0.31352 0.0
C681 C 0.51722 0.69306 0.32307 0.0
C682 C 0.33377 0.88905 0.27691 0.0
C683 C 0.37701 0.91254 0.2898 0.0
H684 H 0.26129 0.85766 0.27806 0.0
C685 C 0.37973 0.92507 0.31438 0.0
H686 H 0.33037 0.87844 0.25803 0.0
C687 C 0.34002 0.91273 0.326 0.0
C688 C 0.29667 0.8877 0.31327 0.0
H689 H 0.41261 0.94379 0.32476 0.0
H690 H 0.34333 0.92206 0.34503 0.0
C691 C 0.29408 0.8768 0.2885 0.0
C692 C 0.11154 0.44394 0.29639 0.0
C693 C 0.1453 0.49031 0.29446 0.0
H694 H 0.0937 0.38134 0.31313 0.0
C695 C 0.18898 0.50785 0.30632 0.0
H696 H 0.07751 0.42984 0.28754 0.0
C697 C 0.19819 0.48042 0.32081 0.0
C698 C 0.16387 0.43489 0.32383 0.0
H699 H 0.21565 0.54344 0.30497 0.0
H700 H 0.23194 0.49536 0.33016 0.0
C701 C 0.12073 0.4164 0.31109 0.0
C702 C 0.32944 0.44301 0.27688 0.0
C703 C 0.37218 0.46823 0.2902 0.0
H704 H 0.25775 0.39484 0.27717 0.0
C705 C 0.37529 0.46069 0.31441 0.0
H706 H 0.32581 0.44818 0.25825 0.0
C707 C 0.33627 0.43038 0.32535 0.0
C708 C 0.29317 0.40671 0.31231 0.0
H709 H 0.4079 0.47891 0.32506 0.0
H710 H 0.33981 0.42643 0.34417 0.0
C711 C 0.29037 0.41259 0.28781 0.0
C712 C 0.53347 0.91526 0.316 0.0
C713 C 0.52071 0.9038 0.29135 0.0
H714 H 0.57178 0.91171 0.34641 0.0
C715 C 0.53793 0.87944 0.27835 0.0
H716 H 0.52117 0.93444 0.32648 0.0
C717 C 0.56721 0.86688 0.28967 0.0
C718 C 0.57975 0.87804 0.31433 0.0
H719 H 0.52815 0.86928 0.25943 0.0
H720 H 0.5795 0.84787 0.27906 0.0
C721 C 0.56262 0.90241 0.3274 0.0
C722 C 0.18845 0.66643 0.31244 0.0
C723 C 0.1453 0.63945 0.29973 0.0
H724 H 0.23249 0.7272 0.33587 0.0
C725 C 0.11287 0.65401 0.3009 0.0
H726 H 0.21419 0.65614 0.3116 0.0
C727 C 0.12319 0.69448 0.31499 0.0
C728 C 0.16631 0.72126 0.32777 0.0
H729 H 0.07925 0.63355 0.29138 0.0
H730 H 0.09728 0.70443 0.31611 0.0
C731 C 0.19893 0.70707 0.32625 0.0
C732 C 0.77797 0.01504 0.39514 0.0
C733 C 0.82591 0.03586 0.39592 0.0
H734 H 0.71299 0.95811 0.38062 0.0
C735 C 0.84513 0.0134 0.38307 0.0
H736 H 0.76234 0.03183 0.4048 0.0
C737 C 0.81699 0.97113 0.36953 0.0
C738 C 0.76912 0.95072 0.3684 0.0
H739 H 0.88196 0.02842 0.38362 0.0
H740 H 0.83279 0.95463 0.35978 0.0
C741 C 0.74979 0.97293 0.38136 0.0
C742 C 0.98966 0.74258 0.40894 0.0
C743 C 0.96439 0.76463 0.40344 0.0
H744 H 0.04836 0.73582 0.40207 0.0
C745 C 0.9801 0.79722 0.38618 0.0
H746 H 0.97884 0.7171 0.4219 0.0
C747 C 0.01838 0.806 0.37415 0.0
C748 C 0.04316 0.78393 0.37967 0.0
H749 H 0.96326 0.81668 0.38201 0.0
H750 H 0.02946 0.83117 0.36096 0.0
C751 C 0.02917 0.75277 0.39741 0.0
C752 C 0.14673 0.15659 0.38543 0.0
C753 C 0.19065 0.17463 0.39711 0.0
H754 H 0.10301 0.16827 0.36171 0.0
C755 C 0.22419 0.22088 0.39473 0.0
H756 H 0.12022 0.12109 0.38713 0.0
C757 C 0.21448 0.24786 0.37988 0.0
C758 C 0.17099 0.229 0.36749 0.0
H759 H 0.2584 0.23535 0.40342 0.0
H760 H 0.24134 0.28282 0.37752 0.0
C761 C 0.13698 0.18352 0.37082 0.0
C762 C 0.62643 0.54333 0.71103 0.0
C763 C 0.62969 0.53516 0.73514 0.0
H764 H 0.66193 0.57752 0.6812 0.0
C765 C 0.67271 0.55947 0.74824 0.0
H766 H 0.59366 0.52583 0.70052 0.0
C767 C 0.7118 0.58945 0.73722 0.0
C768 C 0.70886 0.59575 0.71278 0.0
H769 H 0.67661 0.55377 0.76676 0.0
H770 H 0.74457 0.60633 0.74771 0.0
C771 C 0.66555 0.57315 0.69996 0.0
C772 C 0.4395 0.08042 0.73959 0.0
C773 C 0.48609 0.10214 0.73497 0.0
H774 H 0.37438 0.07597 0.73241 0.0
C775 C 0.50163 0.13558 0.71817 0.0
H776 H 0.42556 0.05363 0.75181 0.0
C777 C 0.47149 0.14648 0.70624 0.0
C778 C 0.42563 0.12549 0.71145 0.0
H779 H 0.53725 0.1542 0.71445 0.0
H780 H 0.48434 0.17241 0.69347 0.0
C781 C 0.40985 0.09269 0.72829 0.0
C782 C 0.8144 0.3336 0.71413 0.0
C783 C 0.85782 0.36152 0.72643 0.0
H784 H 0.77073 0.27243 0.69085 0.0
C785 C 0.89118 0.34835 0.72463 0.0
H786 H 0.78805 0.34297 0.71537 0.0
C787 C 0.8815 0.30833 0.7103 0.0
C788 C 0.83807 0.28051 0.69797 0.0
H789 H 0.92505 0.36965 0.73378 0.0
H790 H 0.90814 0.29952 0.70865 0.0
C791 C 0.80454 0.29334 0.70013 0.0
C792 C 0.22719 0.98597 0.63189 0.0
C793 C 0.17922 0.96471 0.63131 0.0
H794 H 0.29209 0.04344 0.64615 0.0
C795 C 0.15987 0.98678 0.64438 0.0
H796 H 0.24296 0.96953 0.62208 0.0
C797 C 0.18787 0.02906 0.65793 0.0
C798 C 0.23576 0.04995 0.65882 0.0
H799 H 0.12302 0.97148 0.64398 0.0
H800 H 0.17194 0.04523 0.66784 0.0
C801 C 0.25525 0.02817 0.64564 0.0
C802 C 0.04431 0.25585 0.64633 0.0
C803 C 0.04102 0.24193 0.62189 0.0
H804 H 0.00875 0.25563 0.6769 0.0
C805 C 0.99757 0.21865 0.60918 0.0
H806 H 0.07735 0.27446 0.65656 0.0
C807 C 0.95825 0.20807 0.62081 0.0
C808 C 0.9614 0.22049 0.64545 0.0
H809 H 0.9937 0.207 0.59042 0.0
H810 H 0.92528 0.18907 0.61054 0.0
C811 C 0.00498 0.24524 0.65797 0.0
C812 C 0.85739 0.84598 0.64073 0.0
C813 C 0.81368 0.82816 0.62882 0.0
H814 H 0.9006 0.83384 0.66461 0.0
C815 C 0.78013 0.78173 0.63081 0.0
H816 H 0.88396 0.88158 0.63931 0.0
C817 C 0.78954 0.75441 0.64554 0.0
C818 C 0.83273 0.77311 0.65826 0.0
H819 H 0.74608 0.76736 0.62192 0.0
H820 H 0.76265 0.71929 0.64758 0.0
C821 C 0.86683 0.81873 0.65526 0.0
C822 C 0.04513 0.79667 0.6488 0.0
C823 C 0.04198 0.80479 0.62468 0.0
H824 H 0.00949 0.76241 0.67856 0.0
C825 C 0.999 0.78055 0.61152 0.0
H826 H 0.07787 0.81414 0.65934 0.0
C827 C 0.95985 0.75056 0.62249 0.0
C828 C 0.9627 0.74419 0.64691 0.0
H829 H 0.9952 0.78625 0.593 0.0
H830 H 0.92714 0.73364 0.61195 0.0
C831 C 0.00595 0.76683 0.6598 0.0
C832 C 0.20216 0.20823 0.61098 0.0
C833 C 0.18491 0.23292 0.62368 0.0
H834 H 0.24515 0.17825 0.61199 0.0
C835 C 0.19882 0.2463 0.64814 0.0
H836 H 0.19151 0.19661 0.59223 0.0
C837 C 0.22939 0.23532 0.65961 0.0
C838 C 0.24674 0.21084 0.64682 0.0
H839 H 0.1865 0.26574 0.65838 0.0
H840 H 0.23952 0.24619 0.67845 0.0
C841 C 0.23279 0.19747 0.62238 0.0
C842 C 0.85717 0.00503 0.64492 0.0
C843 C 0.81375 0.97732 0.63256 0.0
H844 H 0.90074 0.06565 0.66858 0.0
C845 C 0.78047 0.99058 0.63448 0.0
H846 H 0.88348 0.99565 0.64357 0.0
C847 C 0.79015 0.03033 0.64905 0.0
C848 C 0.83346 0.05774 0.66157 0.0
H849 H 0.74661 0.96946 0.6253 0.0
H850 H 0.76354 0.03915 0.65082 0.0
C851 C 0.86699 0.04499 0.6592 0.0
C852 C 0.51327 0.35267 0.71534 0.0
C853 C 0.49346 0.37477 0.72796 0.0
H854 H 0.50193 0.29414 0.69217 0.0
C855 C 0.44548 0.3537 0.72678 0.0
H856 H 0.55016 0.36791 0.71619 0.0
C857 C 0.41783 0.3116 0.71289 0.0
C858 C 0.43776 0.28966 0.70024 0.0
H859 H 0.42941 0.37023 0.73625 0.0
H860 H 0.38097 0.2965 0.71187 0.0
C861 C 0.48568 0.31041 0.70169 0.0
C862 C 0.67224 0.11408 0.75058 0.0
C863 C 0.62899 0.09063 0.73767 0.0
H864 H 0.74475 0.14501 0.74946 0.0
C865 C 0.62622 0.07712 0.71322 0.0
H866 H 0.67563 0.12528 0.76938 0.0
C867 C 0.66587 0.08872 0.70171 0.0
C868 C 0.70928 0.114 0.71438 0.0
H869 H 0.59334 0.05827 0.70285 0.0
H870 H 0.66247 0.07875 0.68275 0.0
C871 C 0.71192 0.12565 0.73908 0.0
C872 C 0.8141 0.49304 0.71857 0.0
C873 C 0.85782 0.51067 0.7304 0.0
H874 H 0.77087 0.50557 0.69495 0.0
C875 C 0.8915 0.55706 0.72845 0.0
H876 H 0.78748 0.45744 0.71994 0.0
C877 C 0.88214 0.5846 0.71385 0.0
C878 C 0.83886 0.56616 0.70128 0.0
H879 H 0.92557 0.57124 0.73727 0.0
H880 H 0.9091 0.61969 0.71182 0.0
C881 C 0.80469 0.52052 0.70421 0.0
C882 C 0.48774 0.93068 0.20289 0.0
C883 C 0.47176 0.95273 0.21861 0.0
H884 H 0.51258 0.92852 0.16883 0.0
C885 C 0.46568 0.98875 0.21067 0.0
H886 H 0.49171 0.90202 0.20819 0.0
C887 C 0.47741 0.00375 0.18792 0.0
C888 C 0.49556 0.98311 0.17275 0.0
H889 H 0.4536 0.00653 0.22236 0.0
H890 H 0.47397 0.03267 0.18256 0.0
C891 C 0.49967 0.9458 0.18031 0.0
C892 C 0.05586 0.49637 0.21191 0.0
C893 C 0.0912 0.5396 0.22245 0.0
H894 H 0.00978 0.4588 0.18084 0.0
C895 C 0.10986 0.5777 0.20854 0.0
H896 H 0.04073 0.46643 0.22217 0.0
C897 C 0.09203 0.57344 0.18512 0.0
C898 C 0.05538 0.53087 0.1749 0.0
H899 H 0.13796 0.61118 0.2159 0.0
H900 H 0.10664 0.6037 0.17505 0.0
C901 C 0.03814 0.49203 0.18829 0.0
C902 C 0.51886 0.53704 0.21822 0.0
C903 C 0.47356 0.52463 0.22213 0.0
H904 H 0.56681 0.54524 0.1928 0.0
C905 C 0.44069 0.50869 0.20246 0.0
H906 H 0.54475 0.54877 0.2331 0.0
C907 C 0.45345 0.50726 0.17921 0.0
C908 C 0.49928 0.52145 0.17524 0.0
H909 H 0.40557 0.4992 0.20497 0.0
H910 H 0.42776 0.49665 0.16434 0.0
C911 C 0.53152 0.53529 0.1951 0.0
C912 C 0.89283 0.42831 0.81789 0.0
C913 C 0.91339 0.46439 0.80287 0.0
H914 H 0.89457 0.40525 0.85244 0.0
C915 C 0.95113 0.50707 0.81223 0.0
H916 H 0.86332 0.39521 0.81123 0.0
C917 C 0.96905 0.51286 0.83592 0.0
C918 C 0.94919 0.47626 0.85073 0.0
H919 H 0.96765 0.53542 0.80104 0.0
H920 H 0.99871 0.54582 0.84259 0.0
C921 C 0.91043 0.43421 0.84156 0.0
C922 C 0.52563 0.43697 0.81992 0.0
C923 C 0.53505 0.47305 0.80528 0.0
H924 H 0.50487 0.41003 0.85361 0.0
C925 C 0.53339 0.51213 0.81462 0.0
H926 H 0.52712 0.40663 0.81327 0.0
C927 C 0.52063 0.5141 0.83781 0.0
C928 C 0.50979 0.47727 0.85217 0.0
H929 H 0.54038 0.54037 0.80372 0.0
H930 H 0.51876 0.54423 0.84441 0.0
C931 C 0.51326 0.4391 0.84309 0.0
C932 C 0.56397 0.06334 0.8264 0.0
C933 C 0.5302 0.04673 0.8071 0.0
H934 H 0.57896 0.06127 0.86366 0.0
C935 C 0.48494 0.01345 0.81081 0.0
H936 H 0.5991 0.08914 0.8241 0.0
C937 C 0.47341 0.99776 0.83331 0.0
C938 C 0.50683 0.01485 0.85277 0.0
H939 H 0.45822 0.9996 0.79624 0.0
H940 H 0.43797 0.97284 0.83555 0.0
C941 C 0.55234 0.04773 0.84907 0.0
C942 C 0.1505 0.25655 0.53474 0.0
C943 C 0.13462 0.27891 0.55032 0.0
H944 H 0.17529 0.25384 0.50072 0.0
C945 C 0.12866 0.31487 0.54219 0.0
H946 H 0.15441 0.22795 0.5402 0.0
C947 C 0.14039 0.32951 0.51939 0.0
C948 C 0.15844 0.30858 0.50435 0.0
H949 H 0.1167 0.33292 0.55379 0.0
H950 H 0.13705 0.35841 0.5139 0.0
C951 C 0.16245 0.27133 0.5121 0.0
C952 C 0.77472 0.9082 0.54126 0.0
C953 C 0.75519 0.8726 0.55663 0.0
H954 H 0.77143 0.92991 0.50652 0.0
C955 C 0.71745 0.82951 0.54774 0.0
H956 H 0.80418 0.94162 0.54754 0.0
C957 C 0.69867 0.82276 0.52415 0.0
C958 C 0.71765 0.85879 0.50896 0.0
H959 H 0.70166 0.80151 0.5592 0.0
H960 H 0.66914 0.78944 0.51783 0.0
C961 C 0.75625 0.90135 0.5177 0.0
C962 C 0.13756 0.82514 0.54546 0.0
C963 C 0.13637 0.86469 0.55444 0.0
H964 H 0.15112 0.79161 0.51589 0.0
C965 C 0.14567 0.90022 0.53944 0.0
H966 H 0.13066 0.79732 0.55666 0.0
C967 C 0.1573 0.89699 0.51621 0.0
C968 C 0.16019 0.85828 0.50748 0.0
H969 H 0.14454 0.93089 0.54582 0.0
H970 H 0.16552 0.92557 0.50535 0.0
C971 C 0.14962 0.82209 0.52224 0.0
C972 C 0.58136 0.82144 0.15236 0.0
C973 C 0.59531 0.80174 0.13418 0.0
H974 H 0.58757 0.84211 0.18977 0.0
C975 C 0.62824 0.7891 0.1401 0.0
H976 H 0.55585 0.83129 0.14834 0.0
C977 C 0.64601 0.79487 0.1637 0.0
C978 C 0.63145 0.8136 0.18202 0.0
H979 H 0.6401 0.77435 0.12646 0.0
H980 H 0.67043 0.78359 0.16764 0.0
C981 C 0.59914 0.82715 0.17608 0.0
C982 C 0.1968 0.76376 0.15491 0.0
C983 C 0.20973 0.80088 0.14055 0.0
H984 H 0.17345 0.73707 0.18837 0.0
C985 C 0.21219 0.84194 0.1502 0.0
H986 H 0.19504 0.73184 0.14801 0.0
C987 C 0.19974 0.84492 0.17334 0.0
C988 C 0.18509 0.80708 0.18736 0.0
H989 H 0.2219 0.87101 0.13951 0.0
H990 H 0.20084 0.87656 0.18014 0.0
C991 C 0.18477 0.76688 0.17808 0.0
C992 C 0.14604 0.33796 0.14215 0.0
C993 C 0.19104 0.37214 0.13859 0.0
H994 H 0.09911 0.29713 0.16685 0.0
C995 C 0.2246 0.3895 0.15801 0.0
H996 H 0.11951 0.32352 0.12748 0.0
C997 C 0.21295 0.37405 0.18069 0.0
C998 C 0.16757 0.34068 0.18433 0.0
H999 H 0.25951 0.41604 0.15584 0.0
H1000 H 0.2394 0.38838 0.19538 0.0
C1001 C 0.13445 0.32249 0.1647 0.0
C1002 C 0.79318 0.64848 0.87557 0.0
C1003 C 0.79904 0.61234 0.88351 0.0
H1004 H 0.80222 0.69282 0.84759 0.0
C1005 C 0.81533 0.59044 0.8679 0.0
H1006 H 0.7809 0.66617 0.88719 0.0
C1007 C 0.82782 0.60587 0.84544 0.0
C1008 C 0.82396 0.64333 0.83789 0.0
H1009 H 0.81918 0.56173 0.87323 0.0
H1010 H 0.84101 0.58876 0.83403 0.0
C1011 C 0.80546 0.66378 0.85293 0.0
C1012 C 0.41723 0.17511 0.87381 0.0
C1013 C 0.40179 0.19311 0.89204 0.0
H1014 H 0.41268 0.15597 0.83637 0.0
C1015 C 0.36722 0.20351 0.88614 0.0
H1016 H 0.44405 0.16703 0.87775 0.0
C1017 C 0.34979 0.19787 0.86247 0.0
C1018 C 0.36627 0.1814 0.84407 0.0
H1019 H 0.35417 0.21688 0.89981 0.0
H1020 H 0.32446 0.20798 0.85853 0.0
C1021 C 0.39967 0.16934 0.85007 0.0
C1022 C 0.85666 0.20878 0.88585 0.0
C1023 C 0.81128 0.19607 0.88976 0.0
H1024 H 0.9047 0.21729 0.86043 0.0
C1025 C 0.77838 0.17986 0.8701 0.0
H1026 H 0.88259 0.22072 0.90073 0.0
C1027 C 0.79117 0.17849 0.84685 0.0
C1028 C 0.83706 0.19301 0.84288 0.0
H1029 H 0.74321 0.17015 0.87261 0.0
H1030 H 0.76544 0.16769 0.83198 0.0
C1031 C 0.86935 0.20709 0.86274 0.0
C1032 C 0.28527 0.17354 0.47902 0.0
C1033 C 0.24746 0.13061 0.47002 0.0
H1034 H 0.3336 0.21307 0.50898 0.0
C1035 C 0.22746 0.09494 0.48532 0.0
H1036 H 0.30137 0.20158 0.4676 0.0
C1037 C 0.24579 0.10142 0.50887 0.0
C1038 C 0.28468 0.14368 0.51766 0.0
H1039 H 0.19791 0.06166 0.47894 0.0
H1040 H 0.23041 0.07273 0.51996 0.0
C1041 C 0.30388 0.17993 0.5026 0.0
C1042 C 0.86829 0.17523 0.48198 0.0
C1043 C 0.86943 0.13575 0.47283 0.0
H1044 H 0.85452 0.20835 0.51165 0.0
C1045 C 0.85998 0.09999 0.48769 0.0
H1046 H 0.8753 0.20324 0.4709 0.0
C1047 C 0.84808 0.10282 0.51091 0.0
C1048 C 0.8451 0.14141 0.51978 0.0
H1049 H 0.8611 0.06935 0.48121 0.0
H1050 H 0.83963 0.07399 0.52162 0.0
C1051 C 0.85601 0.17793 0.5052 0.0
C1052 C 0.82154 0.67978 0.47692 0.0
C1053 C 0.86593 0.7156 0.47358 0.0
H1054 H 0.77501 0.63749 0.50133 0.0
C1055 C 0.89902 0.73467 0.49323 0.0
H1056 H 0.7954 0.66403 0.46208 0.0
C1057 C 0.88735 0.71907 0.51592 0.0
C1058 C 0.84251 0.68384 0.51928 0.0
H1059 H 0.93346 0.76242 0.49119 0.0
H1060 H 0.91334 0.73462 0.53082 0.0
C1061 C 0.80997 0.66421 0.49942 0.0
loop_
_geom_bond_atom_site_label_1
_geom_bond_atom_site_label_2
_geom_bond_distance
_geom_bond_site_symmetry_2
_ccdc_geom_bond_type
H0 C3 0.931 . S
H1 C6 0.928 . S
H2 C8 0.930 . S
C3 H0 0.931 . S
C3 C4 1.413 . S
C3 C5 1.360 . S
C4 C3 1.413 . S
C4 C8 1.429 . S
C5 C3 1.360 . S
C5 C6 1.372 . S
C6 H1 0.928 . S
C6 C5 1.372 . S
C6 C7 1.404 . S
C7 C6 1.404 . S
C7 C8 1.391 . S
C8 H2 0.930 . S
C8 C4 1.429 . S
C8 C7 1.391 . S
H9 C12 0.931 . S
H10 C15 0.928 . S
H11 C17 0.930 . S
C12 H9 0.931 . S
C12 C13 1.413 . S
C12 C14 1.360 . S
C13 C12 1.413 . S
C13 C17 1.429 . S
C14 C12 1.360 . S
C14 C15 1.372 . S
C15 H10 0.928 . S
C15 C14 1.372 . S
C15 C16 1.404 . S
C16 C15 1.404 . S
C16 C17 1.391 . S
C17 H11 0.930 . S
C17 C13 1.429 . S
C17 C16 1.391 . S
H18 C21 0.931 . S
H19 C24 0.928 . S
H20 C26 0.930 . S
C21 H18 0.931 . S
C21 C22 1.413 . S
C21 C23 1.360 . S
C22 C21 1.413 . S
C22 C26 1.429 . S
C23 C21 1.360 . S
C23 C24 1.372 . S
C24 H19 0.928 . S
C24 C23 1.372 . S
C24 C25 1.404 . S
C25 C24 1.404 . S
C25 C26 1.391 . S
C26 H20 0.930 . S
C26 C22 1.429 . S
C26 C25 1.391 . S
H27 C30 0.931 . S
H28 C33 0.928 . S
H29 C35 0.930 . S
C30 H27 0.931 . S
C30 C31 1.413 . S
C30 C32 1.360 . S
C31 C30 1.413 . S
C31 C35 1.429 . S
C32 C30 1.360 . S
C32 C33 1.372 . S
C33 H28 0.928 . S
C33 C32 1.372 . S
C33 C34 1.404 . S
C34 C33 1.404 . S
C34 C35 1.391 . S
C35 H29 0.930 . S
C35 C31 1.429 . S
C35 C34 1.391 . S
H36 C39 0.931 . S
H37 C42 0.928 . S
H38 C44 0.930 . S
C39 H36 0.931 . S
C39 C40 1.413 . S
C39 C41 1.360 . S
C40 C39 1.413 . S
C40 C44 1.429 . S
C41 C39 1.360 . S
C41 C42 1.372 . S
C42 H37 0.928 . S
C42 C41 1.372 . S
C42 C43 1.404 . S
C43 C42 1.404 . S
C43 C44 1.391 . S
C44 H38 0.930 . S
C44 C40 1.429 . S
C44 C43 1.391 . S
H45 C48 0.931 . S
H46 C51 0.928 . S
H47 C53 0.930 . S
C48 H45 0.931 . S
C48 C49 1.413 . S
C48 C50 1.360 . S
C49 C48 1.413 . S
C49 C53 1.429 . S
C50 C48 1.360 . S
C50 C51 1.372 . S
C51 H46 0.928 . S
C51 C50 1.372 . S
C51 C52 1.404 . S
C52 C51 1.404 . S
C52 C53 1.391 . S
C53 H47 0.930 . S
C53 C49 1.429 . S
C53 C52 1.391 . S
H54 C57 0.931 . S
H55 C60 0.928 . S
H56 C62 0.930 . S
C57 H54 0.931 . S
C57 C58 1.413 . S
C57 C59 1.360 . S
C58 C57 1.413 . S
C58 C62 1.429 . S
C59 C57 1.360 . S
C59 C60 1.372 . S
C60 H55 0.928 . S
C60 C59 1.372 . S
C60 C61 1.404 . S
C61 C60 1.404 . S
C61 C62 1.391 . S
C62 H56 0.930 . S
C62 C58 1.429 . S
C62 C61 1.391 . S
H63 C66 0.931 . S
H64 C69 0.928 . S
H65 C71 0.930 . S
C66 H63 0.931 . S
C66 C67 1.413 . S
C66 C68 1.360 . S
C67 C66 1.413 . S
C67 C71 1.429 . S
C68 C66 1.360 . S
C68 C69 1.372 . S
C69 H64 0.928 . S
C69 C68 1.372 . S
C69 C70 1.404 . S
C70 C69 1.404 . S
C70 C71 1.391 . S
C71 H65 0.930 . S
C71 C67 1.429 . S
C71 C70 1.391 . S
H72 C75 0.931 . S
H73 C78 0.928 . S
H74 C80 0.930 . S
C75 H72 0.931 . S
C75 C76 1.413 . S
C75 C77 1.360 . S
C76 C75 1.413 . S
C76 C80 1.429 . S
C77 C75 1.360 . S
C77 C78 1.372 . S
C78 H73 0.928 . S
C78 C77 1.372 . S
C78 C79 1.404 . S
C79 C78 1.404 . S
C79 C80 1.391 . S
C80 H74 0.930 . S
C80 C76 1.429 . S
C80 C79 1.391 . S
H81 C84 0.931 . S
H82 C87 0.928 . S
H83 C89 0.930 . S
C84 H81 0.931 . S
C84 C85 1.413 . S
C84 C86 1.360 . S
C85 C84 1.413 . S
C85 C89 1.429 . S
C86 C84 1.360 . S
C86 C87 1.372 . S
C87 H82 0.928 . S
C87 C86 1.372 . S
C87 C88 1.404 . S
C88 C87 1.404 . S
C88 C89 1.391 . S
C89 H83 0.930 . S
C89 C85 1.429 . S
C89 C88 1.391 . S
H90 C93 0.931 . S
H91 C96 0.928 . S
H92 C98 0.930 . S
C93 H90 0.931 . S
C93 C94 1.413 . S
C93 C95 1.360 . S
C94 C93 1.413 . S
C94 C98 1.429 . S
C95 C93 1.360 . S
C95 C96 1.372 . S
C96 H91 0.928 . S
C96 C95 1.372 . S
C96 C97 1.404 . S
C97 C96 1.404 . S
C97 C98 1.391 . S
C98 H92 0.930 . S
C98 C94 1.429 . S
C98 C97 1.391 . S
H99 C102 0.931 . S
H100 C105 0.928 . S
H101 C107 0.930 . S
C102 H99 0.931 . S
C102 C103 1.413 . S
C102 C104 1.360 . S
C103 C102 1.413 . S
C103 C107 1.429 . S
C104 C102 1.360 . S
C104 C105 1.372 . S
C105 H100 0.928 . S
C105 C104 1.372 . S
C105 C106 1.404 . S
C106 C105 1.404 . S
C106 C107 1.391 . S
C107 H101 0.930 . S
C107 C103 1.429 . S
C107 C106 1.391 . S
H108 C111 0.931 . S
H109 C114 0.928 . S
H110 C116 0.930 . S
C111 H108 0.931 . S
C111 C112 1.413 . S
C111 C113 1.360 . S
C112 C111 1.413 . S
C112 C116 1.429 . S
C113 C111 1.360 . S
C113 C114 1.372 . S
C114 H109 0.928 . S
C114 C113 1.372 . S
C114 C115 1.404 . S
C115 C114 1.404 . S
C115 C116 1.391 . S
C116 H110 0.930 . S
C116 C112 1.429 . S
C116 C115 1.391 . S
H117 C120 0.931 . S
H118 C123 0.928 . S
H119 C125 0.930 . S
C120 H117 0.931 . S
C120 C121 1.413 . S
C120 C122 1.360 . S
C121 C120 1.413 . S
C121 C125 1.429 . S
C122 C120 1.360 . S
C122 C123 1.372 . S
C123 H118 0.928 . S
C123 C122 1.372 . S
C123 C124 1.404 . S
C124 C123 1.404 . S
C124 C125 1.391 . S
C125 H119 0.930 . S
C125 C121 1.429 . S
C125 C124 1.391 . S
H126 C129 0.931 . S
H127 C132 0.928 . S
H128 C134 0.930 . S
C129 H126 0.931 . S
C129 C130 1.413 . S
C129 C131 1.360 . S
C130 C129 1.413 . S
C130 C134 1.429 . S
C131 C129 1.360 . S
C131 C132 1.372 . S
C132 H127 0.928 . S
C132 C131 1.372 . S
C132 C133 1.404 . S
C133 C132 1.404 . S
C133 C134 1.391 . S
C134 H128 0.930 . S
C134 C130 1.429 . S
C134 C133 1.391 . S
H135 C138 0.931 . S
H136 C141 0.928 . S
H137 C143 0.930 . S
C138 H135 0.931 . S
C138 C139 1.413 . S
C138 C140 1.360 . S
C139 C138 1.413 . S
C139 C143 1.429 . S
C140 C138 1.360 . S
C140 C141 1.372 . S
C141 H136 0.928 . S
C141 C140 1.372 . S
C141 C142 1.404 . S
C142 C141 1.404 . S
C142 C143 1.391 . S
C143 H137 0.930 . S
C143 C139 1.429 . S
C143 C142 1.391 . S
H144 C147 0.931 . S
H145 C150 0.928 . S
H146 C152 0.930 . S
C147 H144 0.931 . S
C147 C148 1.413 . S
C147 C149 1.360 . S
C148 C147 1.413 . S
C148 C152 1.429 . S
C149 C147 1.360 . S
C149 C150 1.372 . S
C150 H145 0.928 . S
C150 C149 1.372 . S
C150 C151 1.404 . S
C151 C150 1.404 . S
C151 C152 1.391 . S
C152 H146 0.930 . S
C152 C148 1.429 . S
C152 C151 1.391 . S
H153 C156 0.931 . S
H154 C159 0.928 . S
H155 C161 0.930 . S
C156 H153 0.931 . S
C156 C157 1.413 . S
C156 C158 1.360 . S
C157 C156 1.413 . S
C157 C161 1.429 . S
C158 C156 1.360 . S
C158 C159 1.372 . S
C159 H154 0.928 . S
C159 C158 1.372 . S
C159 C160 1.404 . S
C160 C159 1.404 . S
C160 C161 1.391 . S
C161 H155 0.930 . S
C161 C157 1.429 . S
C161 C160 1.391 . S
C162 Eu163 2.835 . S
C162 C164 1.500 . S
C162 O182 1.257 1_545 S
C162 O183 1.260 . S
Eu163 C162 2.835 . S
Eu163 O182 2.473 1_545 S
Eu163 O183 2.480 . S
Eu163 O184 2.430 . S
Eu163 O185 2.670 1_554 S
Eu163 O186 2.394 1_545 S
Eu163 O191 2.355 1_545 S
Eu163 O193 2.374 . S
C164 C162 1.500 . S
C164 C165 1.377 . S
C164 C169 1.377 1_545 S
C165 C164 1.377 . S
C165 C166 1.395 . S
C165 H194 0.931 . S
C166 C165 1.395 . S
C166 C167 1.363 1_545 S
C166 H195 0.931 . S
C167 C166 1.363 1_565 S
C167 C168 1.412 . S
C168 C167 1.412 . S
C168 C169 1.378 . S
C168 H196 0.931 . S
C169 C164 1.377 1_565 S
C169 C168 1.378 . S
C169 H197 0.931 . S
C170 O184 1.259 1_556 S
C170 O185 1.270 . S
C171 O186 1.251 . S
C171 O187 1.251 1_554 S
C172 Eu173 2.835 . S
C172 C174 1.500 . S
C172 O188 1.257 1_565 S
C172 O189 1.260 . S
Eu173 C172 2.835 . S
Eu173 O185 2.355 1_565 S
Eu173 O187 2.374 . S
Eu173 O188 2.473 1_565 S
Eu173 O189 2.480 . S
Eu173 O190 2.430 . S
Eu173 O191 2.670 1_556 S
Eu173 O192 2.394 1_565 S
C174 C172 1.500 . S
C174 C175 1.377 . S
C174 C179 1.377 1_565 S
C175 C174 1.377 . S
C175 C176 1.395 . S
C175 H198 0.931 . S
C176 C175 1.395 . S
C176 C177 1.383 1_565 S
C176 H199 0.931 . S
C177 C176 1.383 1_545 S
C177 C178 1.394 . S
C178 C177 1.394 . S
C178 C179 1.378 . S
C178 H200 0.931 . S
C179 C174 1.377 1_545 S
C179 C178 1.378 . S
C179 H201 0.931 . S
C180 O190 1.259 1_554 S
C180 O191 1.270 . S
C181 O192 1.251 . S
C181 O193 1.251 1_556 S
O182 C162 1.257 1_565 S
O182 Eu163 2.473 1_565 S
O183 C162 1.260 . S
O183 Eu163 2.480 . S
O184 Eu163 2.430 . S
O184 C170 1.259 1_554 S
O185 Eu163 2.670 1_556 S
O185 C170 1.270 . S
O185 Eu173 2.355 1_545 S
O186 Eu163 2.394 1_565 S
O186 C171 1.251 . S
O187 C171 1.251 1_556 S
O187 Eu173 2.374 . S
O188 C172 1.257 1_545 S
O188 Eu173 2.473 1_545 S
O189 C172 1.260 . S
O189 Eu173 2.480 . S
O190 Eu173 2.430 . S
O190 C180 1.259 1_556 S
O191 Eu163 2.355 1_565 S
O191 Eu173 2.670 1_554 S
O191 C180 1.270 . S
O192 Eu173 2.394 1_545 S
O192 C181 1.251 . S
O193 Eu163 2.374 . S
O193 C181 1.251 1_554 S
H194 C165 0.931 . S
H195 C166 0.931 . S
H196 C168 0.931 . S
H197 C169 0.931 . S
H198 C175 0.931 . S
H199 C176 0.931 . S
H200 C178 0.931 . S
H201 C179 0.931 . S
C202 Eu203 2.835 . S
C202 C204 1.500 1_655 S
C202 O222 1.257 1_655 S
C202 O223 1.260 . S
Eu203 C202 2.835 . S
Eu203 O222 2.473 1_655 S
Eu203 O223 2.480 . S
Eu203 O224 2.430 . S
Eu203 O225 2.670 1_554 S
Eu203 O226 2.394 1_655 S
Eu203 O231 2.355 1_655 S
Eu203 O233 2.374 . S
C204 C202 1.500 1_455 S
C204 C205 1.377 1_455 S
C204 C209 1.377 . S
C205 C204 1.377 1_655 S
C205 C206 1.395 . S
C205 H234 0.931 . S
C206 C205 1.395 . S
C206 C207 1.383 1_655 S
C206 H235 0.931 . S
C207 C206 1.383 1_455 S
C207 C208 1.394 . S
C208 C207 1.394 . S
C208 C209 1.378 . S
C208 H236 0.931 . S
C209 C204 1.377 . S
C209 C208 1.378 . S
C209 H237 0.931 . S
C210 O224 1.259 1_556 S
C210 O225 1.270 . S
C211 O226 1.251 . S
C211 O227 1.251 . S
C212 Eu213 2.835 . S
C212 C214 1.500 1_455 S
C212 O228 1.257 1_455 S
C212 O229 1.260 . S
Eu213 C212 2.835 . S
Eu213 O225 2.355 1_455 S
Eu213 O227 2.374 1_556 S
Eu213 O228 2.473 1_455 S
Eu213 O229 2.480 . S
Eu213 O230 2.430 . S
Eu213 O231 2.670 1_556 S
Eu213 O232 2.394 1_455 S
C214 C212 1.500 1_655 S
C214 C215 1.377 1_655 S
C214 C219 1.377 . S
C215 C214 1.377 1_455 S
C215 C216 1.395 . S
C215 H238 0.931 . S
C216 C215 1.395 . S
C216 C217 1.383 1_455 S
C216 H239 0.931 . S
C217 C216 1.383 1_655 S
C217 C218 1.394 . S
C218 C217 1.394 . S
C218 C219 1.378 . S
C218 H240 0.931 . S
C219 C214 1.377 . S
C219 C218 1.378 . S
C219 H241 0.931 . S
C220 O230 1.259 1_554 S
C220 O231 1.270 . S
C221 O232 1.251 . S
C221 O233 1.251 1_556 S
O222 C202 1.257 1_455 S
O222 Eu203 2.473 1_455 S
O223 C202 1.260 . S
O223 Eu203 2.480 . S
O224 Eu203 2.430 . S
O224 C210 1.259 1_554 S
O225 Eu203 2.670 1_556 S
O225 C210 1.270 . S
O225 Eu213 2.355 1_655 S
O226 Eu203 2.394 1_455 S
O226 C211 1.251 . S
O227 C211 1.251 . S
O227 Eu213 2.374 1_554 S
O228 C212 1.257 1_655 S
O228 Eu213 2.473 1_655 S
O229 C212 1.260 . S
O229 Eu213 2.480 . S
O230 Eu213 2.430 . S
O230 C220 1.259 1_556 S
O231 Eu203 2.355 1_455 S
O231 Eu213 2.670 1_554 S
O231 C220 1.270 . S
O232 Eu213 2.394 1_655 S
O232 C221 1.251 . S
O233 Eu203 2.374 . S
O233 C221 1.251 1_554 S
H234 C205 0.931 . S
H235 C206 0.931 . S
H236 C208 0.931 . S
H237 C209 0.931 . S
H238 C215 0.931 . S
H239 C216 0.931 . S
H240 C218 0.931 . S
H241 C219 0.931 . S
C242 Eu243 2.835 . S
C242 C244 1.500 . S
C242 O262 1.257 . S
C242 O263 1.260 . S
Eu243 C242 2.835 . S
Eu243 O262 2.473 . S
Eu243 O263 2.480 . S
Eu243 O264 2.430 . S
Eu243 O265 2.670 1_556 S
Eu243 O266 2.394 . S
Eu243 O271 2.355 . S
Eu243 O273 2.383 . S
C244 C242 1.500 . S
C244 C245 1.377 . S
C244 C249 1.377 . S
C245 C244 1.377 . S
C245 C246 1.395 . S
C245 H274 0.931 . S
C246 C245 1.395 . S
C246 C247 1.383 . S
C246 H275 0.931 . S
C247 C246 1.383 . S
C247 C248 1.394 . S
C248 C247 1.394 . S
C248 C249 1.378 . S
C248 H276 0.931 . S
C249 C244 1.377 . S
C249 C248 1.378 . S
C249 H277 0.931 . S
C250 O264 1.259 1_554 S
C250 O265 1.270 . S
C251 O266 1.251 . S
C251 O267 1.251 1_556 S
C252 Eu253 2.835 . S
C252 C254 1.500 . S
C252 O268 1.257 . S
C252 O269 1.260 . S
Eu253 C252 2.835 . S
Eu253 O265 2.355 . S
Eu253 O267 2.374 . S
Eu253 O268 2.473 . S
Eu253 O269 2.480 . S
Eu253 O270 2.430 . S
Eu253 O271 2.670 1_554 S
Eu253 O272 2.394 . S
C254 C252 1.500 . S
C254 C255 1.377 . S
C254 C259 1.377 . S
C255 C254 1.377 . S
C255 C256 1.395 . S
C255 H278 0.931 . S
C256 C255 1.395 . S
C256 C257 1.383 . S
C256 H279 0.931 . S
C257 C256 1.383 . S
C257 C258 1.394 . S
C258 C257 1.394 . S
C258 C259 1.378 . S
C258 H280 0.931 . S
C259 C254 1.377 . S
C259 C258 1.378 . S
C259 H281 0.931 . S
C260 O270 1.259 1_556 S
C260 O271 1.270 . S
C261 O272 1.251 . S
C261 O273 1.240 1_554 S
O262 C242 1.257 . S
O262 Eu243 2.473 . S
O263 C242 1.260 . S
O263 Eu243 2.480 . S
O264 Eu243 2.430 . S
O264 C250 1.259 1_556 S
O265 Eu243 2.670 1_554 S
O265 C250 1.270 . S
O265 Eu253 2.355 . S
O266 Eu243 2.394 . S
O266 C251 1.251 . S
O267 C251 1.251 1_554 S
O267 Eu253 2.374 . S
O268 C252 1.257 . S
O268 Eu253 2.473 . S
O269 C252 1.260 . S
O269 Eu253 2.480 . S
O270 Eu253 2.430 . S
O270 C260 1.259 1_554 S
O271 Eu243 2.355 . S
O271 Eu253 2.670 1_556 S
O271 C260 1.270 . S
O272 Eu253 2.394 . S
O272 C261 1.251 . S
O273 Eu243 2.383 . S
O273 C261 1.240 1_556 S
H274 C245 0.931 . S
H275 C246 0.931 . S
H276 C248 0.931 . S
H277 C249 0.931 . S
H278 C255 0.931 . S
H279 C256 0.931 . S
H280 C258 0.931 . S
H281 C259 0.931 . S
C282 Eu283 2.835 . S
C282 C284 1.500 . S
C282 O302 1.257 . S
C282 O303 1.260 . S
Eu283 C282 2.835 . S
Eu283 O302 2.473 . S
Eu283 O303 2.480 . S
Eu283 O304 2.430 . S
Eu283 O305 2.670 . S
Eu283 O306 2.394 . S
Eu283 O311 2.355 . S
Eu283 O313 2.374 . S
C284 C282 1.500 . S
C284 C285 1.377 . S
C284 C289 1.377 . S
C285 C284 1.377 . S
C285 C286 1.395 . S
C285 H314 0.931 . S
C286 C285 1.395 . S
C286 C287 1.383 . S
C286 H315 0.931 . S
C287 C286 1.383 . S
C287 C288 1.394 . S
C288 C287 1.394 . S
C288 C289 1.378 . S
C288 H316 0.931 . S
C289 C284 1.377 . S
C289 C288 1.378 . S
C289 H317 0.931 . S
C290 O304 1.259 . S
C290 O305 1.270 . S
C291 O306 1.251 . S
C291 O307 1.251 . S
C292 Eu293 2.835 . S
C292 C294 1.500 . S
C292 O308 1.257 . S
C292 O309 1.260 . S
Eu293 C292 2.835 . S
Eu293 O305 2.355 . S
Eu293 O307 2.374 . S
Eu293 O308 2.473 . S
Eu293 O309 2.480 . S
Eu293 O310 2.430 . S
Eu293 O311 2.670 . S
Eu293 O312 2.394 . S
C294 C292 1.500 . S
C294 C295 1.377 . S
C294 C299 1.377 . S
C295 C294 1.377 . S
C295 C296 1.395 . S
C295 H318 0.931 . S
C296 C295 1.395 . S
C296 C297 1.383 . S
C296 H319 0.931 . S
C297 C296 1.383 . S
C297 C298 1.394 . S
C298 C297 1.394 . S
C298 C299 1.378 . S
C298 H320 0.931 . S
C299 C294 1.377 . S
C299 C298 1.378 . S
C299 H321 0.931 . S
C300 O310 1.259 . S
C300 O311 1.270 . S
C301 O312 1.251 . S
C301 O313 1.251 . S
O302 C282 1.257 . S
O302 Eu283 2.473 . S
O303 C282 1.260 . S
O303 Eu283 2.480 . S
O304 Eu283 2.430 . S
O304 C290 1.259 . S
O305 Eu283 2.670 . S
O305 C290 1.270 . S
O305 Eu293 2.355 . S
O306 Eu283 2.394 . S
O306 C291 1.251 . S
O307 C291 1.251 . S
O307 Eu293 2.374 . S
O308 C292 1.257 . S
O308 Eu293 2.473 . S
O309 C292 1.260 . S
O309 Eu293 2.480 . S
O310 Eu293 2.430 . S
O310 C300 1.259 . S
O311 Eu283 2.355 . S
O311 Eu293 2.670 . S
O311 C300 1.270 . S
O312 Eu293 2.394 . S
O312 C301 1.251 . S
O313 Eu283 2.374 . S
O313 C301 1.251 . S
H314 C285 0.931 . S
H315 C286 0.931 . S
H316 C288 0.931 . S
H317 C289 0.931 . S
H318 C295 0.931 . S
H319 C296 0.931 . S
H320 C298 0.931 . S
H321 C299 0.931 . S
C322 Eu323 2.835 . S
C322 C324 1.500 . S
C322 O342 1.257 . S
C322 O343 1.260 . S
Eu323 C322 2.835 . S
Eu323 O342 2.473 . S
Eu323 O343 2.480 . S
Eu323 O344 2.430 . S
Eu323 O345 2.670 . S
Eu323 O346 2.394 . S
Eu323 O351 2.355 . S
Eu323 O353 2.374 . S
C324 C322 1.500 . S
C324 C325 1.377 . S
C324 C329 1.377 . S
C325 C324 1.377 . S
C325 C326 1.395 . S
C325 H354 0.931 . S
C326 C325 1.395 . S
C326 C327 1.383 . S
C326 H355 0.931 . S
C327 C326 1.383 . S
C327 C328 1.394 . S
C328 C327 1.394 . S
C328 C329 1.378 . S
C328 H356 0.931 . S
C329 C324 1.377 . S
C329 C328 1.378 . S
C329 H357 0.931 . S
C330 O344 1.259 . S
C330 O345 1.270 . S
C331 O346 1.251 . S
C331 O347 1.251 . S
C332 Eu333 2.835 . S
C332 C334 1.500 . S
C332 O348 1.257 . S
C332 O349 1.260 . S
Eu333 C332 2.835 . S
Eu333 O345 2.355 . S
Eu333 O347 2.374 . S
Eu333 O348 2.473 . S
Eu333 O349 2.480 . S
Eu333 O350 2.430 . S
Eu333 O351 2.670 . S
Eu333 O352 2.394 . S
C334 C332 1.500 . S
C334 C335 1.377 . S
C334 C339 1.377 . S
C335 C334 1.377 . S
C335 C336 1.395 . S
C335 H358 0.931 . S
C336 C335 1.395 . S
C336 C337 1.383 . S
C336 H359 0.931 . S
C337 C336 1.383 . S
C337 C338 1.394 . S
C338 C337 1.394 . S
C338 C339 1.378 . S
C338 H360 0.931 . S
C339 C334 1.377 . S
C339 C338 1.378 . S
C339 H361 0.931 . S
C340 O350 1.259 . S
C340 O351 1.270 . S
C341 O352 1.251 . S
C341 O353 1.251 . S
O342 C322 1.257 . S
O342 Eu323 2.473 . S
O343 C322 1.260 . S
O343 Eu323 2.480 . S
O344 Eu323 2.430 . S
O344 C330 1.259 . S
O345 Eu323 2.670 . S
O345 C330 1.270 . S
O345 Eu333 2.355 . S
O346 Eu323 2.394 . S
O346 C331 1.251 . S
O347 C331 1.251 . S
O347 Eu333 2.374 . S
O348 C332 1.257 . S
O348 Eu333 2.473 . S
O349 C332 1.260 . S
O349 Eu333 2.480 . S
O350 Eu333 2.430 . S
O350 C340 1.259 . S
O351 Eu323 2.355 . S
O351 Eu333 2.670 . S
O351 C340 1.270 . S
O352 Eu333 2.394 . S
O352 C341 1.251 . S
O353 Eu323 2.374 . S
O353 C341 1.251 . S
H354 C325 0.931 . S
H355 C326 0.931 . S
H356 C328 0.931 . S
H357 C329 0.931 . S
H358 C335 0.931 . S
H359 C336 0.931 . S
H360 C338 0.931 . S
H361 C339 0.931 . S
C362 Eu363 2.835 . S
C362 C364 1.500 . S
C362 O382 1.257 . S
C362 O383 1.260 . S
Eu363 C362 2.835 . S
Eu363 O382 2.473 . S
Eu363 O383 2.480 . S
Eu363 O384 2.430 . S
Eu363 O385 2.670 . S
Eu363 O386 2.394 . S
Eu363 O391 2.355 . S
Eu363 O393 2.374 . S
C364 C362 1.500 . S
C364 C365 1.377 . S
C364 C369 1.377 . S
C365 C364 1.377 . S
C365 C366 1.395 . S
C365 H394 0.931 . S
C366 C365 1.395 . S
C366 C367 1.383 . S
C366 H395 0.931 . S
C367 C366 1.383 . S
C367 C368 1.394 . S
C368 C367 1.394 . S
C368 C369 1.378 . S
C368 H396 0.931 . S
C369 C364 1.377 . S
C369 C368 1.378 . S
C369 H397 0.931 . S
C370 O384 1.259 . S
C370 O385 1.270 . S
C371 O386 1.251 . S
C371 O387 1.251 . S
C372 Eu373 2.835 . S
C372 C374 1.500 . S
C372 O388 1.257 . S
C372 O389 1.260 . S
Eu373 C372 2.835 . S
Eu373 O385 2.355 . S
Eu373 O387 2.374 . S
Eu373 O388 2.473 . S
Eu373 O389 2.480 . S
Eu373 O390 2.430 . S
Eu373 O391 2.670 . S
Eu373 O392 2.394 . S
C374 C372 1.500 . S
C374 C375 1.377 . S
C374 C379 1.377 . S
C375 C374 1.377 . S
C375 C376 1.395 . S
C375 H398 0.931 . S
C376 C375 1.395 . S
C376 C377 1.383 . S
C376 H399 0.931 . S
C377 C376 1.383 . S
C377 C378 1.394 . S
C378 C377 1.394 . S
C378 C379 1.378 . S
C378 H400 0.931 . S
C379 C374 1.377 . S
C379 C378 1.378 . S
C379 H401 0.931 . S
C380 O390 1.259 . S
C380 O391 1.270 . S
C381 O392 1.251 . S
C381 O393 1.251 . S
O382 C362 1.257 . S
O382 Eu363 2.473 . S
O383 C362 1.260 . S
O383 Eu363 2.480 . S
O384 Eu363 2.430 . S
O384 C370 1.259 . S
O385 Eu363 2.670 . S
O385 C370 1.270 . S
O385 Eu373 2.355 . S
O386 Eu363 2.394 . S
O386 C371 1.251 . S
O387 C371 1.251 . S
O387 Eu373 2.374 . S
O388 C372 1.257 . S
O388 Eu373 2.473 . S
O389 C372 1.260 . S
O389 Eu373 2.480 . S
O390 Eu373 2.430 . S
O390 C380 1.259 . S
O391 Eu363 2.355 . S
O391 Eu373 2.670 . S
O391 C380 1.270 . S
O392 Eu373 2.394 . S
O392 C381 1.251 . S
O393 Eu363 2.374 . S
O393 C381 1.251 . S
H394 C365 0.931 . S
H395 C366 0.931 . S
H396 C368 0.931 . S
H397 C369 0.931 . S
H398 C375 0.931 . S
H399 C376 0.931 . S
H400 C378 0.931 . S
H401 C379 0.931 . S
C402 Eu403 2.835 . S
C402 C404 1.500 . S
C402 O422 1.257 . S
C402 O423 1.260 . S
Eu403 C402 2.835 . S
Eu403 O422 2.473 . S
Eu403 O423 2.480 . S
Eu403 O424 2.430 . S
Eu403 O425 2.670 . S
Eu403 O426 2.394 . S
Eu403 O431 2.355 . S
Eu403 O433 2.374 . S
C404 C402 1.500 . S
C404 C405 1.377 . S
C404 C409 1.377 . S
C405 C404 1.377 . S
C405 C406 1.395 . S
C405 H434 0.931 . S
C406 C405 1.395 . S
C406 C407 1.383 . S
C406 H435 0.931 . S
C407 C406 1.383 . S
C407 C408 1.394 . S
C408 C407 1.394 . S
C408 C409 1.378 . S
C408 H436 0.931 . S
C409 C404 1.377 . S
C409 C408 1.378 . S
C409 H437 0.931 . S
C410 O424 1.259 . S
C410 O425 1.270 . S
C411 O426 1.251 . S
C411 O427 1.251 . S
C412 Eu413 2.835 . S
C412 C414 1.500 . S
C412 O428 1.257 . S
C412 O429 1.260 . S
Eu413 C412 2.835 . S
Eu413 O425 2.355 . S
Eu413 O427 2.374 . S
Eu413 O428 2.473 . S
Eu413 O429 2.480 . S
Eu413 O430 2.430 . S
Eu413 O431 2.670 . S
Eu413 O432 2.394 . S
C414 C412 1.500 . S
C414 C415 1.377 . S
C414 C419 1.377 . S
C415 C414 1.377 . S
C415 C416 1.395 . S
C415 H438 0.931 . S
C416 C415 1.395 . S
C416 C417 1.383 . S
C416 H439 0.931 . S
C417 C416 1.383 . S
C417 C418 1.394 . S
C418 C417 1.394 . S
C418 C419 1.378 . S
C418 H440 0.931 . S
C419 C414 1.377 . S
C419 C418 1.378 . S
C419 H441 0.931 . S
C420 O430 1.259 . S
C420 O431 1.270 . S
C421 O432 1.251 . S
C421 O433 1.251 . S
O422 C402 1.257 . S
O422 Eu403 2.473 . S
O423 C402 1.260 . S
O423 Eu403 2.480 . S
O424 Eu403 2.430 . S
O424 C410 1.259 . S
O425 Eu403 2.670 . S
O425 C410 1.270 . S
O425 Eu413 2.355 . S
O426 Eu403 2.394 . S
O426 C411 1.251 . S
O427 C411 1.251 . S
O427 Eu413 2.374 . S
O428 C412 1.257 . S
O428 Eu413 2.473 . S
O429 C412 1.260 . S
O429 Eu413 2.480 . S
O430 Eu413 2.430 . S
O430 C420 1.259 . S
O431 Eu403 2.355 . S
O431 Eu413 2.670 . S
O431 C420 1.270 . S
O432 Eu413 2.394 . S
O432 C421 1.251 . S
O433 Eu403 2.374 . S
O433 C421 1.251 . S
H434 C405 0.931 . S
H435 C406 0.931 . S
H436 C408 0.931 . S
H437 C409 0.931 . S
H438 C415 0.931 . S
H439 C416 0.931 . S
H440 C418 0.931 . S
H441 C419 0.931 . S
C442 Eu443 2.835 . S
C442 C444 1.500 . S
C442 O462 1.257 . S
C442 O463 1.260 . S
Eu443 C442 2.835 . S
Eu443 O462 2.473 . S
Eu443 O463 2.480 . S
Eu443 O464 2.430 . S
Eu443 O465 2.670 . S
Eu443 O466 2.394 . S
Eu443 O471 2.355 . S
Eu443 O473 2.374 . S
C444 C442 1.500 . S
C444 C445 1.377 . S
C444 C449 1.377 . S
C445 C444 1.377 . S
C445 C446 1.395 . S
C445 H474 0.931 . S
C446 C445 1.395 . S
C446 C447 1.383 . S
C446 H475 0.931 . S
C447 C446 1.383 . S
C447 C448 1.394 . S
C448 C447 1.394 . S
C448 C449 1.378 . S
C448 H476 0.931 . S
C449 C444 1.377 . S
C449 C448 1.378 . S
C449 H477 0.931 . S
C450 O464 1.259 . S
C450 O465 1.270 . S
C451 O466 1.251 . S
C451 O467 1.251 . S
C452 Eu453 2.835 . S
C452 C454 1.500 . S
C452 O468 1.257 . S
C452 O469 1.260 . S
Eu453 C452 2.835 . S
Eu453 O465 2.355 . S
Eu453 O467 2.374 . S
Eu453 O468 2.473 . S
Eu453 O469 2.480 . S
Eu453 O470 2.430 . S
Eu453 O471 2.670 . S
Eu453 O472 2.394 . S
C454 C452 1.500 . S
C454 C455 1.377 . S
C454 C459 1.377 . S
C455 C454 1.377 . S
C455 C456 1.395 . S
C455 H478 0.931 . S
C456 C455 1.395 . S
C456 C457 1.383 . S
C456 H479 0.931 . S
C457 C456 1.383 . S
C457 C458 1.394 . S
C458 C457 1.394 . S
C458 C459 1.378 . S
C458 H480 0.931 . S
C459 C454 1.377 . S
C459 C458 1.378 . S
C459 H481 0.931 . S
C460 O470 1.259 . S
C460 O471 1.270 . S
C461 O472 1.251 . S
C461 O473 1.251 . S
O462 C442 1.257 . S
O462 Eu443 2.473 . S
O463 C442 1.260 . S
O463 Eu443 2.480 . S
O464 Eu443 2.430 . S
O464 C450 1.259 . S
O465 Eu443 2.670 . S
O465 C450 1.270 . S
O465 Eu453 2.355 . S
O466 Eu443 2.394 . S
O466 C451 1.251 . S
O467 C451 1.251 . S
O467 Eu453 2.374 . S
O468 C452 1.257 . S
O468 Eu453 2.473 . S
O469 C452 1.260 . S
O469 Eu453 2.480 . S
O470 Eu453 2.430 . S
O470 C460 1.259 . S
O471 Eu443 2.355 . S
O471 Eu453 2.670 . S
O471 C460 1.270 . S
O472 Eu453 2.394 . S
O472 C461 1.251 . S
O473 Eu443 2.374 . S
O473 C461 1.251 . S
H474 C445 0.931 . S
H475 C446 0.931 . S
H476 C448 0.931 . S
H477 C449 0.931 . S
H478 C455 0.931 . S
H479 C456 0.931 . S
H480 C458 0.931 . S
H481 C459 0.931 . S
C482 Eu483 2.835 . S
C482 C484 1.500 . S
C482 O502 1.257 . S
C482 O503 1.260 . S
Eu483 C482 2.835 . S
Eu483 O502 2.473 . S
Eu483 O503 2.480 . S
Eu483 O504 2.430 . S
Eu483 O505 2.670 . S
Eu483 O506 2.394 . S
Eu483 O511 2.355 . S
Eu483 O513 2.374 . S
C484 C482 1.500 . S
C484 C485 1.377 . S
C484 C489 1.377 . S
C485 C484 1.377 . S
C485 C486 1.395 . S
C485 H514 0.931 . S
C486 C485 1.395 . S
C486 C487 1.383 . S
C486 H515 0.931 . S
C487 C486 1.383 . S
C487 C488 1.394 . S
C488 C487 1.394 . S
C488 C489 1.378 . S
C488 H516 0.931 . S
C489 C484 1.377 . S
C489 C488 1.378 . S
C489 H517 0.931 . S
C490 O504 1.259 . S
C490 O505 1.270 . S
C491 O506 1.251 . S
C491 O507 1.251 . S
C492 Eu493 2.835 . S
C492 C494 1.500 . S
C492 O508 1.257 . S
C492 O509 1.260 . S
Eu493 C492 2.835 . S
Eu493 O505 2.355 . S
Eu493 O507 2.374 . S
Eu493 O508 2.473 . S
Eu493 O509 2.480 . S
Eu493 O510 2.430 . S
Eu493 O511 2.670 . S
Eu493 O512 2.394 . S
C494 C492 1.500 . S
C494 C495 1.377 . S
C494 C499 1.377 . S
C495 C494 1.377 . S
C495 C496 1.395 . S
C495 H518 0.931 . S
C496 C495 1.395 . S
C496 C497 1.383 . S
C496 H519 0.931 . S
C497 C496 1.383 . S
C497 C498 1.394 . S
C498 C497 1.394 . S
C498 C499 1.378 . S
C498 H520 0.931 . S
C499 C494 1.377 . S
C499 C498 1.378 . S
C499 H521 0.931 . S
C500 O510 1.259 . S
C500 O511 1.270 . S
C501 O512 1.251 . S
C501 O513 1.251 . S
O502 C482 1.257 . S
O502 Eu483 2.473 . S
O503 C482 1.260 . S
O503 Eu483 2.480 . S
O504 Eu483 2.430 . S
O504 C490 1.259 . S
O505 Eu483 2.670 . S
O505 C490 1.270 . S
O505 Eu493 2.355 . S
O506 Eu483 2.394 . S
O506 C491 1.251 . S
O507 C491 1.251 . S
O507 Eu493 2.374 . S
O508 C492 1.257 . S
O508 Eu493 2.473 . S
O509 C492 1.260 . S
O509 Eu493 2.480 . S
O510 Eu493 2.430 . S
O510 C500 1.259 . S
O511 Eu483 2.355 . S
O511 Eu493 2.670 . S
O511 C500 1.270 . S
O512 Eu493 2.394 . S
O512 C501 1.251 . S
O513 Eu483 2.374 . S
O513 C501 1.251 . S
H514 C485 0.931 . S
H515 C486 0.931 . S
H516 C488 0.931 . S
H517 C489 0.931 . S
H518 C495 0.931 . S
H519 C496 0.931 . S
H520 C498 0.931 . S
H521 C499 0.931 . S
C522 C523 1.387 . S
C522 H526 0.950 . S
C522 C531 1.390 . S
C523 C522 1.387 . S
C523 C525 1.387 . S
H524 C531 0.950 . S
C525 C523 1.387 . S
C525 C527 1.390 . S
C525 H529 0.950 . S
H526 C522 0.950 . S
C527 C525 1.390 . S
C527 C528 1.387 . S
C527 H530 0.950 . S
C528 C527 1.387 . S
C528 C531 1.387 . S
H529 C525 0.950 . S
H530 C527 0.950 . S
C531 C522 1.390 . S
C531 H524 0.950 . S
C531 C528 1.387 . S
C532 C533 1.387 . S
C532 H536 0.950 . S
C532 C541 1.390 . S
C533 C532 1.387 . S
C533 C535 1.387 . S
H534 C541 0.950 . S
C535 C533 1.387 . S
C535 C537 1.390 . S
C535 H539 0.950 . S
H536 C532 0.950 . S
C537 C535 1.390 . S
C537 C538 1.387 . S
C537 H540 0.950 . S
C538 C537 1.387 . S
C538 C541 1.387 . S
H539 C535 0.950 . S
H540 C537 0.950 . S
C541 C532 1.390 . S
C541 H534 0.950 . S
C541 C538 1.387 . S
C542 C543 1.387 . S
C542 H546 0.950 . S
C542 C551 1.390 . S
C543 C542 1.387 . S
C543 C545 1.387 . S
H544 C551 0.950 . S
C545 C543 1.387 . S
C545 C547 1.390 . S
C545 H549 0.950 . S
H546 C542 0.950 . S
C547 C545 1.390 . S
C547 C548 1.387 . S
C547 H550 0.950 . S
C548 C547 1.387 . S
C548 C551 1.387 . S
H549 C545 0.950 . S
H550 C547 0.950 . S
C551 C542 1.390 . S
C551 H544 0.950 . S
C551 C548 1.387 . S
C552 C553 1.387 . S
C552 H556 0.950 . S
C552 C561 1.390 . S
C553 C552 1.387 . S
C553 C555 1.387 . S
H554 C561 0.950 1_554 S
C555 C553 1.387 . S
C555 C557 1.390 . S
C555 H559 0.950 . S
H556 C552 0.950 . S
C557 C555 1.390 . S
C557 C558 1.387 . S
C557 H560 0.950 . S
C558 C557 1.387 . S
C558 C561 1.387 . S
H559 C555 0.950 . S
H560 C557 0.950 . S
C561 C552 1.390 . S
C561 H554 0.950 1_556 S
C561 C558 1.387 . S
C562 C563 1.387 . S
C562 H566 0.950 . S
C562 C571 1.390 . S
C563 C562 1.387 . S
C563 C565 1.387 . S
H564 C571 0.950 . S
C565 C563 1.387 . S
C565 C567 1.390 . S
C565 H569 0.950 . S
H566 C562 0.950 . S
C567 C565 1.390 . S
C567 C568 1.387 . S
C567 H570 0.950 . S
C568 C567 1.387 . S
C568 C571 1.387 . S
H569 C565 0.950 . S
H570 C567 0.950 . S
C571 C562 1.390 . S
C571 H564 0.950 . S
C571 C568 1.387 . S
C572 C573 1.387 . S
C572 H576 0.950 . S
C572 C581 1.390 . S
C573 C572 1.387 . S
C573 C575 1.387 . S
H574 C581 0.950 . S
C575 C573 1.387 . S
C575 C577 1.395 . S
C575 H579 0.927 1_556 S
H576 C572 0.950 . S
C577 C575 1.395 . S
C577 C578 1.395 . S
C577 H580 0.937 1_556 S
C578 C577 1.395 . S
C578 C581 1.387 . S
H579 C575 0.927 1_554 S
H580 C577 0.937 1_554 S
C581 C572 1.390 . S
C581 H574 0.950 . S
C581 C578 1.387 . S
C582 C583 1.387 . S
C582 H586 0.950 . S
C582 C591 1.390 . S
C583 C582 1.387 . S
C583 C585 1.387 . S
H584 C591 0.950 1_554 S
C585 C583 1.387 . S
C585 C587 1.390 . S
C585 H589 0.950 . S
H586 C582 0.950 . S
C587 C585 1.390 . S
C587 C588 1.387 . S
C587 H590 0.950 . S
C588 C587 1.387 . S
C588 C591 1.387 . S
H589 C585 0.950 . S
H590 C587 0.950 . S
C591 C582 1.390 . S
C591 H584 0.950 1_556 S
C591 C588 1.387 . S
C592 C593 1.387 . S
C592 H596 0.950 . S
C592 C601 1.390 . S
C593 C592 1.387 . S
C593 C595 1.387 . S
H594 C601 0.950 . S
C595 C593 1.387 . S
C595 C597 1.390 . S
C595 H599 0.950 . S
H596 C592 0.950 . S
C597 C595 1.390 . S
C597 C598 1.387 . S
C597 H600 0.950 . S
C598 C597 1.387 . S
C598 C601 1.387 . S
H599 C595 0.950 . S
H600 C597 0.950 . S
C601 C592 1.390 . S
C601 H594 0.950 . S
C601 C598 1.387 . S
C602 C603 1.387 . S
C602 H606 0.950 . S
C602 C611 1.390 . S
C603 C602 1.387 . S
C603 C605 1.387 . S
H604 C611 0.950 . S
C605 C603 1.387 . S
C605 C607 1.390 . S
C605 H609 0.950 . S
H606 C602 0.950 . S
C607 C605 1.390 . S
C607 C608 1.387 . S
C607 H610 0.950 . S
C608 C607 1.387 . S
C608 C611 1.387 . S
H609 C605 0.950 . S
H610 C607 0.950 . S
C611 C602 1.390 . S
C611 H604 0.950 . S
C611 C608 1.387 . S
C612 C613 1.387 . S
C612 H616 0.950 . S
C612 C621 1.390 . S
C613 C612 1.387 . S
C613 C615 1.387 . S
H614 C621 0.950 . S
C615 C613 1.387 . S
C615 C617 1.390 . S
C615 H619 0.950 . S
H616 C612 0.950 . S
C617 C615 1.390 . S
C617 C618 1.387 . S
C617 H620 0.950 . S
C618 C617 1.387 . S
C618 C621 1.387 . S
H619 C615 0.950 . S
H620 C617 0.950 . S
C621 C612 1.390 . S
C621 H614 0.950 . S
C621 C618 1.387 . S
C622 C623 1.387 . S
C622 H626 0.950 . S
C622 C631 1.390 . S
C623 C622 1.387 . S
C623 C625 1.387 . S
H624 C631 0.950 . S
C625 C623 1.387 . S
C625 C627 1.390 . S
C625 H629 0.950 . S
H626 C622 0.950 . S
C627 C625 1.390 . S
C627 C628 1.387 . S
C627 H630 0.950 . S
C628 C627 1.387 . S
C628 C631 1.387 . S
H629 C625 0.950 . S
H630 C627 0.950 . S
C631 C622 1.390 . S
C631 H624 0.950 . S
C631 C628 1.387 . S
C632 C633 1.387 . S
C632 H636 0.950 . S
C632 C641 1.390 . S
C633 C632 1.387 . S
C633 C635 1.387 . S
H634 C641 0.950 . S
C635 C633 1.387 . S
C635 C637 1.390 . S
C635 H639 0.950 . S
H636 C632 0.950 . S
C637 C635 1.390 . S
C637 C638 1.387 . S
C637 H640 0.950 1_554 S
C638 C637 1.387 . S
C638 C641 1.387 . S
H639 C635 0.950 . S
H640 C637 0.950 1_556 S
C641 C632 1.390 . S
C641 H634 0.950 . S
C641 C638 1.387 . S
C642 C643 1.387 . S
C642 H646 0.950 . S
C642 C651 1.390 1_655 S
C643 C642 1.387 . S
C643 C645 1.387 . S
H644 C651 0.950 . S
C645 C643 1.387 . S
C645 C647 1.390 1_655 S
C645 H649 0.950 . S
H646 C642 0.950 . S
C647 C645 1.390 1_455 S
C647 C648 1.387 . S
C647 H650 0.950 . S
C648 C647 1.387 . S
C648 C651 1.387 . S
H649 C645 0.950 . S
H650 C647 0.950 . S
C651 C642 1.390 1_455 S
C651 H644 0.950 . S
C651 C648 1.387 . S
C652 C653 1.387 . S
C652 H656 0.950 . S
C652 C661 1.390 . S
C653 C652 1.387 . S
C653 C655 1.387 . S
H654 C661 0.950 . S
C655 C653 1.387 . S
C655 C657 1.390 . S
C655 H659 0.950 . S
H656 C652 0.950 . S
C657 C655 1.390 . S
C657 C658 1.387 . S
C657 H660 0.950 . S
C658 C657 1.387 . S
C658 C661 1.387 . S
H659 C655 0.950 . S
H660 C657 0.950 . S
C661 C652 1.390 . S
C661 H654 0.950 . S
C661 C658 1.387 . S
C662 C663 1.387 . S
C662 H666 0.950 . S
C662 C671 1.390 1_545 S
C663 C662 1.387 . S
C663 C665 1.387 . S
H664 C671 0.950 . S
C665 C663 1.387 . S
C665 C667 1.390 1_545 S
C665 H669 0.950 . S
H666 C662 0.950 . S
C667 C665 1.390 1_565 S
C667 C668 1.387 . S
C667 H670 0.950 . S
C668 C667 1.387 . S
C668 C671 1.387 . S
H669 C665 0.950 . S
H670 C667 0.950 . S
C671 C662 1.390 1_565 S
C671 H664 0.950 . S
C671 C668 1.387 . S
C672 C673 1.387 . S
C672 H676 0.950 . S
C672 C681 1.390 . S
C673 C672 1.387 . S
C673 C675 1.387 . S
H674 C681 0.950 . S
C675 C673 1.387 . S
C675 C677 1.390 . S
C675 H679 0.950 . S
H676 C672 0.950 . S
C677 C675 1.390 . S
C677 C678 1.387 . S
C677 H680 0.950 . S
C678 C677 1.387 . S
C678 C681 1.387 . S
H679 C675 0.950 . S
H680 C677 0.950 . S
C681 C672 1.390 . S
C681 H674 0.950 . S
C681 C678 1.387 . S
C682 C683 1.387 . S
C682 H686 0.950 . S
C682 C691 1.390 . S
C683 C682 1.387 . S
C683 C685 1.387 . S
H684 C691 0.950 . S
C685 C683 1.387 . S
C685 C687 1.390 . S
C685 H689 0.950 . S
H686 C682 0.950 . S
C687 C685 1.390 . S
C687 C688 1.387 . S
C687 H690 0.950 . S
C688 C687 1.387 . S
C688 C691 1.387 . S
H689 C685 0.950 . S
H690 C687 0.950 . S
C691 C682 1.390 . S
C691 H684 0.950 . S
C691 C688 1.387 . S
C692 C693 1.387 . S
C692 H696 0.950 . S
C692 C701 1.390 . S
C693 C692 1.387 . S
C693 C695 1.387 . S
H694 C701 0.950 . S
C695 C693 1.387 . S
C695 C697 1.390 . S
C695 H699 0.950 . S
H696 C692 0.950 . S
C697 C695 1.390 . S
C697 C698 1.387 . S
C697 H700 0.950 . S
C698 C697 1.387 . S
C698 C701 1.387 . S
H699 C695 0.950 . S
H700 C697 0.950 . S
C701 C692 1.390 . S
C701 H694 0.950 . S
C701 C698 1.387 . S
C702 C703 1.387 . S
C702 H706 0.950 . S
C702 C711 1.390 . S
C703 C702 1.387 . S
C703 C705 1.387 . S
H704 C711 0.950 . S
C705 C703 1.387 . S
C705 C707 1.390 . S
C705 H709 0.950 . S
H706 C702 0.950 . S
C707 C705 1.390 . S
C707 C708 1.387 . S
C707 H710 0.950 . S
C708 C707 1.387 . S
C708 C711 1.387 . S
H709 C705 0.950 . S
H710 C707 0.950 . S
C711 C702 1.390 . S
C711 H704 0.950 . S
C711 C708 1.387 . S
C712 C713 1.387 . S
C712 H716 0.950 . S
C712 C721 1.390 . S
C713 C712 1.387 . S
C713 C715 1.387 . S
H714 C721 0.950 . S
C715 C713 1.387 . S
C715 C717 1.390 . S
C715 H719 0.950 . S
H716 C712 0.950 . S
C717 C715 1.390 . S
C717 C718 1.387 . S
C717 H720 0.950 . S
C718 C717 1.387 . S
C718 C721 1.387 . S
H719 C715 0.950 . S
H720 C717 0.950 . S
C721 C712 1.390 . S
C721 H714 0.950 . S
C721 C718 1.387 . S
C722 C723 1.387 . S
C722 H726 0.950 . S
C722 C731 1.390 . S
C723 C722 1.387 . S
C723 C725 1.387 . S
H724 C731 0.950 . S
C725 C723 1.387 . S
C725 C727 1.390 . S
C725 H729 0.950 . S
H726 C722 0.950 . S
C727 C725 1.390 . S
C727 C728 1.387 . S
C727 H730 0.950 . S
C728 C727 1.387 . S
C728 C731 1.387 . S
H729 C725 0.950 . S
H730 C727 0.950 . S
C731 C722 1.390 . S
C731 H724 0.950 . S
C731 C728 1.387 . S
C732 C733 1.387 . S
C732 H736 0.950 . S
C732 C741 1.390 1_545 S
C733 C732 1.387 . S
C733 C735 1.387 . S
H734 C741 0.950 . S
C735 C733 1.387 . S
C735 C737 1.390 1_545 S
C735 H739 0.950 . S
H736 C732 0.950 . S
C737 C735 1.390 1_565 S
C737 C738 1.387 . S
C737 H740 0.950 . S
C738 C737 1.387 . S
C738 C741 1.387 . S
H739 C735 0.950 . S
H740 C737 0.950 . S
C741 C732 1.390 1_565 S
C741 H734 0.950 . S
C741 C738 1.387 . S
C742 C743 1.387 . S
C742 H746 0.950 . S
C742 C751 1.390 1_655 S
C743 C742 1.387 . S
C743 C745 1.387 . S
H744 C751 0.950 . S
C745 C743 1.387 . S
C745 C747 1.390 1_655 S
C745 H749 0.950 . S
H746 C742 0.950 . S
C747 C745 1.390 1_455 S
C747 C748 1.387 . S
C747 H750 0.950 . S
C748 C747 1.387 . S
C748 C751 1.387 . S
H749 C745 0.950 . S
H750 C747 0.950 . S
C751 C742 1.390 1_455 S
C751 H744 0.950 . S
C751 C748 1.387 . S
C752 C753 1.387 . S
C752 H756 0.950 . S
C752 C761 1.390 . S
C753 C752 1.387 . S
C753 C755 1.387 . S
H754 C761 0.950 . S
C755 C753 1.387 . S
C755 C757 1.390 . S
C755 H759 0.950 . S
H756 C752 0.950 . S
C757 C755 1.390 . S
C757 C758 1.387 . S
C757 H760 0.950 . S
C758 C757 1.387 . S
C758 C761 1.387 . S
H759 C755 0.950 . S
H760 C757 0.950 . S
C761 C752 1.390 . S
C761 H754 0.950 . S
C761 C758 1.387 . S
C762 C763 1.387 . S
C762 H766 0.950 . S
C762 C771 1.390 . S
C763 C762 1.387 . S
C763 C765 1.387 . S
H764 C771 0.950 . S
C765 C763 1.387 . S
C765 C767 1.390 . S
C765 H769 0.950 . S
H766 C762 0.950 . S
C767 C765 1.390 . S
C767 C768 1.387 . S
C767 H770 0.950 . S
C768 C767 1.387 . S
C768 C771 1.387 . S
H769 C765 0.950 . S
H770 C767 0.950 . S
C771 C762 1.390 . S
C771 H764 0.950 . S
C771 C768 1.387 . S
C772 C773 1.387 . S
C772 H776 0.950 . S
C772 C781 1.390 . S
C773 C772 1.387 . S
C773 C775 1.387 . S
H774 C781 0.950 . S
C775 C773 1.387 . S
C775 C777 1.390 . S
C775 H779 0.950 . S
H776 C772 0.950 . S
C777 C775 1.390 . S
C777 C778 1.387 . S
C777 H780 0.950 . S
C778 C777 1.387 . S
C778 C781 1.387 . S
H779 C775 0.950 . S
H780 C777 0.950 . S
C781 C772 1.390 . S
C781 H774 0.950 . S
C781 C778 1.387 . S
C782 C783 1.387 . S
C782 H786 0.950 . S
C782 C791 1.390 . S
C783 C782 1.387 . S
C783 C785 1.387 . S
H784 C791 0.950 . S
C785 C783 1.387 . S
C785 C787 1.390 . S
C785 H789 0.950 . S
H786 C782 0.950 . S
C787 C785 1.390 . S
C787 C788 1.387 . S
C787 H790 0.950 . S
C788 C787 1.387 . S
C788 C791 1.387 . S
H789 C785 0.950 . S
H790 C787 0.950 . S
C791 C782 1.390 . S
C791 H784 0.950 . S
C791 C788 1.387 . S
C792 C793 1.387 . S
C792 H796 0.950 . S
C792 C801 1.390 1_565 S
C793 C792 1.387 . S
C793 C795 1.387 . S
H794 C801 0.950 . S
C795 C793 1.387 . S
C795 C797 1.390 1_565 S
C795 H799 0.950 . S
H796 C792 0.950 . S
C797 C795 1.390 1_545 S
C797 C798 1.387 . S
C797 H800 0.950 . S
C798 C797 1.387 . S
C798 C801 1.387 . S
H799 C795 0.950 . S
H800 C797 0.950 . S
C801 C792 1.390 1_545 S
C801 H794 0.950 . S
C801 C798 1.387 . S
C802 C803 1.387 . S
C802 H806 0.950 . S
C802 C811 1.390 1_455 S
C803 C802 1.387 . S
C803 C805 1.387 . S
H804 C811 0.950 . S
C805 C803 1.387 . S
C805 C807 1.390 1_455 S
C805 H809 0.950 . S
H806 C802 0.950 . S
C807 C805 1.390 1_655 S
C807 C808 1.387 . S
C807 H810 0.950 . S
C808 C807 1.387 . S
C808 C811 1.387 . S
H809 C805 0.950 . S
H810 C807 0.950 . S
C811 C802 1.390 1_655 S
C811 H804 0.950 . S
C811 C808 1.387 . S
C812 C813 1.387 . S
C812 H816 0.950 . S
C812 C821 1.390 . S
C813 C812 1.387 . S
C813 C815 1.387 . S
H814 C821 0.950 . S
C815 C813 1.387 . S
C815 C817 1.390 . S
C815 H819 0.950 . S
H816 C812 0.950 . S
C817 C815 1.390 . S
C817 C818 1.387 . S
C817 H820 0.950 . S
C818 C817 1.387 . S
C818 C821 1.387 . S
H819 C815 0.950 . S
H820 C817 0.950 . S
C821 C812 1.390 . S
C821 H814 0.950 . S
C821 C818 1.387 . S
C822 C823 1.387 . S
C822 H826 0.950 . S
C822 C831 1.390 . S
C823 C822 1.387 . S
C823 C825 1.387 . S
H824 C831 0.944 1_655 S
C825 C823 1.387 . S
C825 C827 1.390 1_455 S
C825 H829 0.950 . S
H826 C822 0.950 . S
C827 C825 1.390 1_655 S
C827 C828 1.387 . S
C827 H830 0.950 . S
C828 C827 1.387 . S
C828 C831 1.387 1_655 S
H829 C825 0.950 . S
H830 C827 0.950 . S
C831 C822 1.390 . S
C831 H824 0.944 1_455 S
C831 C828 1.387 1_455 S
C832 C833 1.387 . S
C832 H836 0.950 . S
C832 C841 1.390 . S
C833 C832 1.387 . S
C833 C835 1.387 . S
H834 C841 0.950 . S
C835 C833 1.387 . S
C835 C837 1.390 . S
C835 H839 0.950 . S
H836 C832 0.950 . S
C837 C835 1.390 . S
C837 C838 1.387 . S
C837 H840 0.950 . S
C838 C837 1.387 . S
C838 C841 1.387 . S
H839 C835 0.950 . S
H840 C837 0.950 . S
C841 C832 1.390 . S
C841 H834 0.950 . S
C841 C838 1.387 . S
C842 C843 1.387 . S
C842 H846 0.950 . S
C842 C851 1.390 1_565 S
C843 C842 1.387 . S
C843 C845 1.387 . S
H844 C851 0.950 . S
C845 C843 1.387 . S
C845 C847 1.390 1_565 S
C845 H849 0.950 . S
H846 C842 0.950 . S
C847 C845 1.390 1_545 S
C847 C848 1.387 . S
C847 H850 0.950 . S
C848 C847 1.387 . S
C848 C851 1.387 . S
H849 C845 0.950 . S
H850 C847 0.950 . S
C851 C842 1.390 1_545 S
C851 H844 0.950 . S
C851 C848 1.387 . S
C852 C853 1.387 . S
C852 H856 0.950 . S
C852 C861 1.390 . S
C853 C852 1.387 . S
C853 C855 1.387 . S
H854 C861 0.950 . S
C855 C853 1.387 . S
C855 C857 1.390 . S
C855 H859 0.950 . S
H856 C852 0.950 . S
C857 C855 1.390 . S
C857 C858 1.387 . S
C857 H860 0.950 . S
C858 C857 1.387 . S
C858 C861 1.387 . S
H859 C855 0.950 . S
H860 C857 0.950 . S
C861 C852 1.390 . S
C861 H854 0.950 . S
C861 C858 1.387 . S
C862 C863 1.387 . S
C862 H866 0.950 . S
C862 C871 1.390 . S
C863 C862 1.387 . S
C863 C865 1.387 . S
H864 C871 0.950 . S
C865 C863 1.387 . S
C865 C867 1.390 . S
C865 H869 0.950 . S
H866 C862 0.950 . S
C867 C865 1.390 . S
C867 C868 1.387 . S
C867 H870 0.950 . S
C868 C867 1.387 . S
C868 C871 1.387 . S
H869 C865 0.950 . S
H870 C867 0.950 . S
C871 C862 1.390 . S
C871 H864 0.950 . S
C871 C868 1.387 . S
C872 C873 1.387 . S
C872 H876 0.950 . S
C872 C881 1.390 . S
C873 C872 1.387 . S
C873 C875 1.387 . S
H874 C881 0.950 . S
C875 C873 1.387 . S
C875 C877 1.390 . S
C875 H879 0.950 . S
H876 C872 0.950 . S
C877 C875 1.390 . S
C877 C878 1.387 . S
C877 H880 0.950 . S
C878 C877 1.387 . S
C878 C881 1.387 . S
H879 C875 0.950 . S
H880 C877 0.950 . S
C881 C872 1.390 . S
C881 H874 0.950 . S
C881 C878 1.387 . S
C882 C883 1.387 . S
C882 H886 0.950 . S
C882 C891 1.390 . S
C883 C882 1.387 . S
C883 C885 1.387 1_565 S
H884 C891 0.950 . S
C885 C883 1.387 1_545 S
C885 C887 1.390 . S
C885 H889 0.950 . S
H886 C882 0.950 . S
C887 C885 1.390 . S
C887 C888 1.387 1_545 S
C887 H890 0.950 . S
C888 C887 1.387 1_565 S
C888 C891 1.387 . S
H889 C885 0.950 . S
H890 C887 0.950 . S
C891 C882 1.390 . S
C891 H884 0.950 . S
C891 C888 1.387 . S
C892 C893 1.387 1_655 S
C892 H896 0.950 . S
C892 C901 1.390 . S
C893 C892 1.387 1_455 S
C893 C895 1.387 . S
H894 C901 0.950 . S
C895 C893 1.387 . S
C895 C897 1.390 . S
C895 H899 0.950 . S
H896 C892 0.950 . S
C897 C895 1.390 . S
C897 C898 1.387 . S
C897 H900 0.950 . S
C898 C897 1.387 . S
C898 C901 1.387 1_455 S
H899 C895 0.950 . S
H900 C897 0.950 . S
C901 C892 1.390 . S
C901 H894 0.950 . S
C901 C898 1.387 1_655 S
C902 C903 1.387 . S
C902 H906 0.950 . S
C902 C911 1.390 . S
C903 C902 1.387 . S
C903 C905 1.387 . S
H904 C911 0.950 . S
C905 C903 1.387 . S
C905 C907 1.390 . S
C905 H909 0.950 . S
H906 C902 0.950 . S
C907 C905 1.390 . S
C907 C908 1.387 . S
C907 H910 0.950 . S
C908 C907 1.387 . S
C908 C911 1.387 . S
H909 C905 0.950 . S
H910 C907 0.950 . S
C911 C902 1.390 . S
C911 H904 0.950 . S
C911 C908 1.387 . S
C912 C913 1.387 . S
C912 H916 0.950 . S
C912 C921 1.390 . S
C913 C912 1.387 . S
C913 C915 1.387 . S
H914 C921 0.950 . S
C915 C913 1.387 . S
C915 C917 1.390 . S
C915 H919 0.950 1_655 S
H916 C912 0.950 . S
C917 C915 1.390 . S
C917 C918 1.387 . S
C917 H920 0.950 1_655 S
C918 C917 1.387 . S
C918 C921 1.387 . S
H919 C915 0.950 1_455 S
H920 C917 0.950 1_455 S
C921 C912 1.390 . S
C921 H914 0.950 . S
C921 C918 1.387 . S
C922 C923 1.387 . S
C922 H926 0.950 . S
C922 C931 1.390 . S
C923 C922 1.387 . S
C923 C925 1.387 . S
H924 C931 0.950 . S
C925 C923 1.387 . S
C925 C927 1.390 . S
C925 H929 0.950 . S
H926 C922 0.950 . S
C927 C925 1.390 . S
C927 C928 1.387 . S
C927 H930 0.950 . S
C928 C927 1.387 . S
C928 C931 1.387 . S
H929 C925 0.950 . S
H930 C927 0.950 . S
C931 C922 1.390 . S
C931 H924 0.950 . S
C931 C928 1.387 . S
C932 C933 1.387 . S
C932 H936 0.950 . S
C932 C941 1.390 . S
C933 C932 1.387 . S
C933 C935 1.387 1_545 S
H934 C941 0.950 . S
C935 C933 1.387 1_565 S
C935 C937 1.390 . S
C935 H939 0.950 . S
H936 C932 0.950 . S
C937 C935 1.390 . S
C937 C938 1.387 1_565 S
C937 H940 0.950 . S
C938 C937 1.387 1_545 S
C938 C941 1.387 . S
H939 C935 0.950 . S
H940 C937 0.950 . S
C941 C932 1.390 . S
C941 H934 0.950 . S
C941 C938 1.387 . S
C942 C943 1.387 . S
C942 H946 0.950 . S
C942 C951 1.390 . S
C943 C942 1.387 . S
C943 C945 1.387 . S
H944 C951 0.950 . S
C945 C943 1.387 . S
C945 C947 1.390 . S
C945 H949 0.950 . S
H946 C942 0.950 . S
C947 C945 1.390 . S
C947 C948 1.387 . S
C947 H950 0.950 . S
C948 C947 1.387 . S
C948 C951 1.387 . S
H949 C945 0.950 . S
H950 C947 0.950 . S
C951 C942 1.390 . S
C951 H944 0.950 . S
C951 C948 1.387 . S
C952 C953 1.387 . S
C952 H956 0.950 . S
C952 C961 1.390 . S
C953 C952 1.387 . S
C953 C955 1.387 . S
H954 C961 0.950 . S
C955 C953 1.387 . S
C955 C957 1.390 . S
C955 H959 0.950 . S
H956 C952 0.950 . S
C957 C955 1.390 . S
C957 C958 1.387 . S
C957 H960 0.950 . S
C958 C957 1.387 . S
C958 C961 1.387 . S
H959 C955 0.950 . S
H960 C957 0.950 . S
C961 C952 1.390 . S
C961 H954 0.950 . S
C961 C958 1.387 . S
C962 C963 1.387 . S
C962 H966 0.950 . S
C962 C971 1.390 . S
C963 C962 1.387 . S
C963 C965 1.387 . S
H964 C971 0.950 . S
C965 C963 1.387 . S
C965 C967 1.390 . S
C965 H969 0.950 . S
H966 C962 0.950 . S
C967 C965 1.390 . S
C967 C968 1.387 . S
C967 H970 0.950 . S
C968 C967 1.387 . S
C968 C971 1.387 . S
H969 C965 0.950 . S
H970 C967 0.950 . S
C971 C962 1.390 . S
C971 H964 0.950 . S
C971 C968 1.387 . S
C972 C973 1.387 . S
C972 H976 0.950 . S
C972 C981 1.390 . S
C973 C972 1.387 . S
C973 C975 1.387 . S
H974 C981 0.950 . S
C975 C973 1.387 . S
C975 C977 1.390 . S
C975 H979 0.950 . S
H976 C972 0.950 . S
C977 C975 1.390 . S
C977 C978 1.387 . S
C977 H980 0.950 . S
C978 C977 1.387 . S
C978 C981 1.387 . S
H979 C975 0.950 . S
H980 C977 0.950 . S
C981 C972 1.390 . S
C981 H974 0.950 . S
C981 C978 1.387 . S
C982 C983 1.387 . S
C982 H986 0.950 . S
C982 C991 1.390 . S
C983 C982 1.387 . S
C983 C985 1.387 . S
H984 C991 0.950 . S
C985 C983 1.387 . S
C985 C987 1.390 . S
C985 H989 0.950 . S
H986 C982 0.950 . S
C987 C985 1.390 . S
C987 C988 1.387 . S
C987 H990 0.950 . S
C988 C987 1.387 . S
C988 C991 1.387 . S
H989 C985 0.950 . S
H990 C987 0.950 . S
C991 C982 1.390 . S
C991 H984 0.950 . S
C991 C988 1.387 . S
C992 C993 1.387 . S
C992 H996 0.950 . S
C992 C1001 1.390 . S
C993 C992 1.387 . S
C993 C995 1.387 . S
H994 C1001 0.950 . S
C995 C993 1.387 . S
C995 C997 1.390 . S
C995 H999 0.950 . S
H996 C992 0.950 . S
C997 C995 1.390 . S
C997 C998 1.387 . S
C997 H1000 0.950 . S
C998 C997 1.387 . S
C998 C1001 1.387 . S
H999 C995 0.950 . S
H1000 C997 0.950 . S
C1001 C992 1.390 . S
C1001 H994 0.950 . S
C1001 C998 1.387 . S
C1002 C1003 1.387 . S
C1002 H1006 0.950 . S
C1002 C1011 1.390 . S
C1003 C1002 1.387 . S
C1003 C1005 1.387 . S
H1004 C1011 0.950 . S
C1005 C1003 1.387 . S
C1005 C1007 1.390 . S
C1005 H1009 0.950 . S
H1006 C1002 0.950 . S
C1007 C1005 1.390 . S
C1007 C1008 1.387 . S
C1007 H1010 0.950 . S
C1008 C1007 1.387 . S
C1008 C1011 1.387 . S
H1009 C1005 0.950 . S
H1010 C1007 0.950 . S
C1011 C1002 1.390 . S
C1011 H1004 0.950 . S
C1011 C1008 1.387 . S
C1012 C1013 1.387 . S
C1012 H1016 0.950 . S
C1012 C1021 1.390 . S
C1013 C1012 1.387 . S
C1013 C1015 1.387 . S
H1014 C1021 0.950 . S
C1015 C1013 1.387 . S
C1015 C1017 1.390 . S
C1015 H1019 0.950 . S
H1016 C1012 0.950 . S
C1017 C1015 1.390 . S
C1017 C1018 1.387 . S
C1017 H1020 0.950 . S
C1018 C1017 1.387 . S
C1018 C1021 1.387 . S
H1019 C1015 0.950 . S
H1020 C1017 0.950 . S
C1021 C1012 1.390 . S
C1021 H1014 0.950 . S
C1021 C1018 1.387 . S
C1022 C1023 1.387 . S
C1022 H1026 0.950 . S
C1022 C1031 1.390 . S
C1023 C1022 1.387 . S
C1023 C1025 1.387 . S
H1024 C1031 0.950 . S
C1025 C1023 1.387 . S
C1025 C1027 1.390 . S
C1025 H1029 0.950 . S
H1026 C1022 0.950 . S
C1027 C1025 1.390 . S
C1027 C1028 1.387 . S
C1027 H1030 0.950 . S
C1028 C1027 1.387 . S
C1028 C1031 1.387 . S
H1029 C1025 0.950 . S
H1030 C1027 0.950 . S
C1031 C1022 1.390 . S
C1031 H1024 0.950 . S
C1031 C1028 1.387 . S
C1032 C1033 1.387 . S
C1032 H1036 0.950 . S
C1032 C1041 1.390 . S
C1033 C1032 1.387 . S
C1033 C1035 1.387 . S
H1034 C1041 0.950 . S
C1035 C1033 1.387 . S
C1035 C1037 1.390 . S
C1035 H1039 0.950 . S
H1036 C1032 0.950 . S
C1037 C1035 1.390 . S
C1037 C1038 1.387 . S
C1037 H1040 0.950 . S
C1038 C1037 1.387 . S
C1038 C1041 1.387 . S
H1039 C1035 0.950 . S
H1040 C1037 0.950 . S
C1041 C1032 1.390 . S
C1041 H1034 0.950 . S
C1041 C1038 1.387 . S
C1042 C1043 1.387 . S
C1042 H1046 0.950 . S
C1042 C1051 1.390 . S
C1043 C1042 1.387 . S
C1043 C1045 1.387 . S
H1044 C1051 0.950 . S
C1045 C1043 1.387 . S
C1045 C1047 1.390 . S
C1045 H1049 0.950 . S
H1046 C1042 0.950 . S
C1047 C1045 1.390 . S
C1047 C1048 1.387 . S
C1047 H1050 0.950 . S
C1048 C1047 1.387 . S
C1048 C1051 1.387 . S
H1049 C1045 0.950 . S
H1050 C1047 0.950 . S
C1051 C1042 1.390 . S
C1051 H1044 0.950 . S
C1051 C1048 1.387 . S
C1052 C1053 1.387 . S
C1052 H1056 0.950 . S
C1052 C1061 1.390 . S
C1053 C1052 1.387 . S
C1053 C1055 1.387 . S
H1054 C1061 0.950 . S
C1055 C1053 1.387 . S
C1055 C1057 1.390 . S
C1055 H1059 0.950 . S
H1056 C1052 0.950 . S
C1057 C1055 1.390 . S
C1057 C1058 1.387 . S
C1057 H1060 0.950 . S
C1058 C1057 1.387 . S
C1058 C1061 1.387 . S
H1059 C1055 0.950 . S
H1060 C1057 0.950 . S
C1061 C1052 1.390 . S
C1061 H1054 0.950 . S
C1061 C1058 1.387 . S
C523 C124 1.564 . S
C528 C171 1.546 . S
C533 C130 1.670 . S
C538 C211 1.651 . S
C543 C115 1.567 . S
C548 C250 1.575 . S
C553 C106 1.494 . S
C558 C210 1.490 . S
C568 C251 1.459 . S
C563 C85 1.469 . S
C573 C97 1.382 . S
C578 C170 1.405 . S
C588 C181 1.565 . S
C583 C103 1.581 . S
C598 C221 1.633 . S
C593 C88 1.648 . S
C603 C94 1.564 . S
C608 C260 1.570 . S
C613 C121 1.493 . S
C618 C220 1.487 . S
C623 C133 1.449 . S
C628 C261 1.438 . S
C638 C180 1.422 . S
C633 C112 1.396 . S
C648 C291 1.545 . S
C643 C16 1.563 . S
C653 C22 1.670 . S
C658 C331 1.651 . S
C663 C7 1.564 . S
C668 C370 1.572 . S
C673 C160 1.495 . S
C678 C330 1.490 . S
C683 C139 1.470 . S
C688 C371 1.460 . S
C693 C151 1.382 . S
C698 C290 1.405 . S
C703 C157 1.579 . S
C708 C301 1.562 . S
C713 C142 1.649 . S
C718 C341 1.633 . S
C728 C380 1.572 . S
C723 C148 1.566 . S
C733 C13 1.493 . S
C738 C340 1.487 . S
C748 C381 1.438 . S
C743 C25 1.449 . S
C753 C4 1.396 . S
C758 C300 1.422 . S
C768 C411 1.545 . S
C763 C70 1.564 . S
C773 C76 1.670 . S
C778 C451 1.651 . S
C788 C490 1.572 . S
C783 C61 1.565 . S
C798 C450 1.491 . S
C793 C52 1.496 . S
C808 C491 1.458 . S
C803 C31 1.469 . S
C813 C43 1.379 . S
C818 C410 1.403 . S
C823 C49 1.581 . S
C828 C421 1.565 . S
C833 C34 1.648 . S
C838 C461 1.633 . S
C848 C500 1.571 . S
C843 C40 1.565 . S
C853 C67 1.495 . S
C858 C460 1.489 . S
C863 C79 1.449 . S
C868 C501 1.439 . S
C873 C58 1.398 . S
C878 C420 1.422 . S
C883 C140 1.504 . S
C888 C167 1.485 . S
C898 C207 1.689 . S
C893 C149 1.689 . S
C903 C158 1.549 . S
C908 C257 1.548 . S
C913 C59 1.706 . S
C918 C217 1.704 . S
C923 C68 1.534 . S
C928 C247 1.532 . S
C938 C177 1.479 . S
C933 C77 1.503 . S
C943 C32 1.504 . S
C948 C287 1.479 . S
C953 C41 1.691 . S
C958 C327 1.691 . S
C963 C50 1.549 . S
C968 C377 1.547 . S
C973 C113 1.707 . S
C978 C337 1.704 . S
C988 C367 1.532 . S
C983 C122 1.534 . S
C993 C131 1.504 . S
C998 C297 1.481 . S
C1003 C86 1.503 . S
C1008 C407 1.479 . S
C1013 C95 1.690 . S
C1018 C447 1.690 . S
C1028 C497 1.548 . S
C1023 C104 1.548 . S
C1033 C5 1.707 . S
C1038 C457 1.705 . S
C1043 C14 1.533 . S
C1048 C487 1.533 . S
C1053 C23 1.504 . S
C1058 C417 1.481 . S
