# Generated by pormake.
# Topology ptr, (4,4)-cn, num edge types: 1
# Building blocks:
#     Node 0, Type 0, BuildingBlock: QUQFOY_clean_sbu_1, # of connection points: 4
#     Node 1, Type 0, BuildingBlock: QUQFOY_clean_sbu_1, # of connection points: 4
#     Node 2, Type 0, BuildingBlock: QUQFOY_clean_sbu_1, # of connection points: 4
#     Node 3, Type 0, BuildingBlock: QUQFOY_clean_sbu_1, # of connection points: 4
#     Node 4, Type 0, BuildingBlock: QUQFOY_clean_sbu_1, # of connection points: 4
#     Node 5, Type 0, BuildingBlock: QUQFOY_clean_sbu_1, # of connection points: 4
#     Node 6, Type 0, BuildingBlock: QUQFOY_clean_sbu_1, # of connection points: 4
#     Node 7, Type 0, BuildingBlock: QUQFOY_clean_sbu_1, # of connection points: 4
#     Node 8, Type 0, BuildingBlock: QUQFOY_clean_sbu_1, # of connection points: 4
#     Node 9, Type 0, BuildingBlock: QUQFOY_clean_sbu_1, # of connection points: 4
#     Node 10, Type 0, BuildingBlock: QUQFOY_clean_sbu_1, # of connection points: 4
#     Node 11, Type 0, BuildingBlock: QUQFOY_clean_sbu_1, # of connection points: 4
#     Node 12, Type 0, BuildingBlock: QUQFOY_clean_sbu_1, # of connection points: 4
#     Node 13, Type 0, BuildingBlock: QUQFOY_clean_sbu_1, # of connection points: 4
#     Node 14, Type 0, BuildingBlock: QUQFOY_clean_sbu_1, # of connection points: 4
#     Node 15, Type 0, BuildingBlock: QUQFOY_clean_sbu_1, # of connection points: 4
#     Node 16, Type 0, BuildingBlock: QUQFOY_clean_sbu_1, # of connection points: 4
#     Node 17, Type 0, BuildingBlock: QUQFOY_clean_sbu_1, # of connection points: 4
#     Node 18, Type 1, BuildingBlock: NAWXER_clean_linker_0, # of connection points: 4
#     Node 19, Type 1, BuildingBlock: NAWXER_clean_linker_0, # of connection points: 4
#     Node 20, Type 1, BuildingBlock: NAWXER_clean_linker_0, # of connection points: 4
#     Node 21, Type 1, BuildingBlock: NAWXER_clean_linker_0, # of connection points: 4
#     Node 22, Type 1, BuildingBlock: NAWXER_clean_linker_0, # of connection points: 4
#     Node 23, Type 1, BuildingBlock: NAWXER_clean_linker_0, # of connection points: 4
#     Node 24, Type 1, BuildingBlock: NAWXER_clean_linker_0, # of connection points: 4
#     Node 25, Type 1, BuildingBlock: NAWXER_clean_linker_0, # of connection points: 4
#     Node 26, Type 1, BuildingBlock: NAWXER_clean_linker_0, # of connection points: 4
#     Node 27, Type 1, BuildingBlock: NAWXER_clean_linker_0, # of connection points: 4
#     Node 28, Type 1, BuildingBlock: NAWXER_clean_linker_0, # of connection points: 4
#     Node 29, Type 1, BuildingBlock: NAWXER_clean_linker_0, # of connection points: 4
#     Node 30, Type 1, BuildingBlock: NAWXER_clean_linker_0, # of connection points: 4
#     Node 31, Type 1, BuildingBlock: NAWXER_clean_linker_0, # of connection points: 4
#     Node 32, Type 1, BuildingBlock: NAWXER_clean_linker_0, # of connection points: 4
#     Node 33, Type 1, BuildingBlock: NAWXER_clean_linker_0, # of connection points: 4
#     Node 34, Type 1, BuildingBlock: NAWXER_clean_linker_0, # of connection points: 4
#     Node 35, Type 1, BuildingBlock: NAWXER_clean_linker_0, # of connection points: 4
#     Edge 36, Type (0, 1), BuildingBlock: UVAHIK_clean_linker_0, # of connection points: 2
#     Edge 37, Type (0, 1), BuildingBlock: UVAHIK_clean_linker_0, # of connection points: 2
#     Edge 38, Type (0, 1), BuildingBlock: UVAHIK_clean_linker_0, # of connection points: 2
#     Edge 39, Type (0, 1), BuildingBlock: UVAHIK_clean_linker_0, # of connection points: 2
#     Edge 40, Type (0, 1), BuildingBlock: UVAHIK_clean_linker_0, # of connection points: 2
#     Edge 41, Type (0, 1), BuildingBlock: UVAHIK_clean_linker_0, # of connection points: 2
#     Edge 42, Type (0, 1), BuildingBlock: UVAHIK_clean_linker_0, # of connection points: 2
#     Edge 43, Type (0, 1), BuildingBlock: UVAHIK_clean_linker_0, # of connection points: 2
#     Edge 44, Type (0, 1), BuildingBlock: UVAHIK_clean_linker_0, # of connection points: 2
#     Edge 45, Type (0, 1), BuildingBlock: UVAHIK_clean_linker_0, # of connection points: 2
#     Edge 46, Type (0, 1), BuildingBlock: UVAHIK_clean_linker_0, # of connection points: 2
#     Edge 47, Type (0, 1), BuildingBlock: UVAHIK_clean_linker_0, # of connection points: 2
#     Edge 48, Type (0, 1), BuildingBlock: UVAHIK_clean_linker_0, # of connection points: 2
#     Edge 49, Type (0, 1), BuildingBlock: UVAHIK_clean_linker_0, # of connection points: 2
#     Edge 50, Type (0, 1), BuildingBlock: UVAHIK_clean_linker_0, # of connection points: 2
#     Edge 51, Type (0, 1), BuildingBlock: UVAHIK_clean_linker_0, # of connection points: 2
#     Edge 52, Type (0, 1), BuildingBlock: UVAHIK_clean_linker_0, # of connection points: 2
#     Edge 53, Type (0, 1), BuildingBlock: UVAHIK_clean_linker_0, # of connection points: 2
#     Edge 54, Type (0, 1), BuildingBlock: UVAHIK_clean_linker_0, # of connection points: 2
#     Edge 55, Type (0, 1), BuildingBlock: UVAHIK_clean_linker_0, # of connection points: 2
#     Edge 56, Type (0, 1), BuildingBlock: UVAHIK_clean_linker_0, # of connection points: 2
#     Edge 57, Type (0, 1), BuildingBlock: UVAHIK_clean_linker_0, # of connection points: 2
#     Edge 58, Type (0, 1), BuildingBlock: UVAHIK_clean_linker_0, # of connection points: 2
#     Edge 59, Type (0, 1), BuildingBlock: UVAHIK_clean_linker_0, # of connection points: 2
#     Edge 60, Type (0, 1), BuildingBlock: UVAHIK_clean_linker_0, # of connection points: 2
#     Edge 61, Type (0, 1), BuildingBlock: UVAHIK_clean_linker_0, # of connection points: 2
#     Edge 62, Type (0, 1), BuildingBlock: UVAHIK_clean_linker_0, # of connection points: 2
#     Edge 63, Type (0, 1), BuildingBlock: UVAHIK_clean_linker_0, # of connection points: 2
#     Edge 64, Type (0, 1), BuildingBlock: UVAHIK_clean_linker_0, # of connection points: 2
#     Edge 65, Type (0, 1), BuildingBlock: UVAHIK_clean_linker_0, # of connection points: 2
#     Edge 66, Type (0, 1), BuildingBlock: UVAHIK_clean_linker_0, # of connection points: 2
#     Edge 67, Type (0, 1), BuildingBlock: UVAHIK_clean_linker_0, # of connection points: 2
#     Edge 68, Type (0, 1), BuildingBlock: UVAHIK_clean_linker_0, # of connection points: 2
#     Edge 69, Type (0, 1), BuildingBlock: UVAHIK_clean_linker_0, # of connection points: 2
#     Edge 70, Type (0, 1), BuildingBlock: UVAHIK_clean_linker_0, # of connection points: 2
#     Edge 71, Type (0, 1), BuildingBlock: UVAHIK_clean_linker_0, # of connection points: 2
#     Edge 72, Type (0, 1), BuildingBlock: UVAHIK_clean_linker_0, # of connection points: 2
#     Edge 73, Type (0, 1), BuildingBlock: UVAHIK_clean_linker_0, # of connection points: 2
#     Edge 74, Type (0, 1), BuildingBlock: UVAHIK_clean_linker_0, # of connection points: 2
#     Edge 75, Type (0, 1), BuildingBlock: UVAHIK_clean_linker_0, # of connection points: 2
#     Edge 76, Type (0, 1), BuildingBlock: UVAHIK_clean_linker_0, # of connection points: 2
#     Edge 77, Type (0, 1), BuildingBlock: UVAHIK_clean_linker_0, # of connection points: 2
#     Edge 78, Type (0, 1), BuildingBlock: UVAHIK_clean_linker_0, # of connection points: 2
#     Edge 79, Type (0, 1), BuildingBlock: UVAHIK_clean_linker_0, # of connection points: 2
#     Edge 80, Type (0, 1), BuildingBlock: UVAHIK_clean_linker_0, # of connection points: 2
#     Edge 81, Type (0, 1), BuildingBlock: UVAHIK_clean_linker_0, # of connection points: 2
#     Edge 82, Type (0, 1), BuildingBlock: UVAHIK_clean_linker_0, # of connection points: 2
#     Edge 83, Type (0, 1), BuildingBlock: UVAHIK_clean_linker_0, # of connection points: 2
#     Edge 84, Type (0, 1), BuildingBlock: UVAHIK_clean_linker_0, # of connection points: 2
#     Edge 85, Type (0, 1), BuildingBlock: UVAHIK_clean_linker_0, # of connection points: 2
#     Edge 86, Type (0, 1), BuildingBlock: UVAHIK_clean_linker_0, # of connection points: 2
#     Edge 87, Type (0, 1), BuildingBlock: UVAHIK_clean_linker_0, # of connection points: 2
#     Edge 88, Type (0, 1), BuildingBlock: UVAHIK_clean_linker_0, # of connection points: 2
#     Edge 89, Type (0, 1), BuildingBlock: UVAHIK_clean_linker_0, # of connection points: 2
#     Edge 90, Type (0, 1), BuildingBlock: UVAHIK_clean_linker_0, # of connection points: 2
#     Edge 91, Type (0, 1), BuildingBlock: UVAHIK_clean_linker_0, # of connection points: 2
#     Edge 92, Type (0, 1), BuildingBlock: UVAHIK_clean_linker_0, # of connection points: 2
#     Edge 93, Type (0, 1), BuildingBlock: UVAHIK_clean_linker_0, # of connection points: 2
#     Edge 94, Type (0, 1), BuildingBlock: UVAHIK_clean_linker_0, # of connection points: 2
#     Edge 95, Type (0, 1), BuildingBlock: UVAHIK_clean_linker_0, # of connection points: 2
#     Edge 96, Type (0, 1), BuildingBlock: UVAHIK_clean_linker_0, # of connection points: 2
#     Edge 97, Type (0, 1), BuildingBlock: UVAHIK_clean_linker_0, # of connection points: 2
#     Edge 98, Type (0, 1), BuildingBlock: UVAHIK_clean_linker_0, # of connection points: 2
#     Edge 99, Type (0, 1), BuildingBlock: UVAHIK_clean_linker_0, # of connection points: 2
#     Edge 100, Type (0, 1), BuildingBlock: UVAHIK_clean_linker_0, # of connection points: 2
#     Edge 101, Type (0, 1), BuildingBlock: UVAHIK_clean_linker_0, # of connection points: 2
#     Edge 102, Type (0, 1), BuildingBlock: UVAHIK_clean_linker_0, # of connection points: 2
#     Edge 103, Type (0, 1), BuildingBlock: UVAHIK_clean_linker_0, # of connection points: 2
#     Edge 104, Type (0, 1), BuildingBlock: UVAHIK_clean_linker_0, # of connection points: 2
#     Edge 105, Type (0, 1), BuildingBlock: UVAHIK_clean_linker_0, # of connection points: 2
#     Edge 106, Type (0, 1), BuildingBlock: UVAHIK_clean_linker_0, # of connection points: 2
#     Edge 107, Type (0, 1), BuildingBlock: UVAHIK_clean_linker_0, # of connection points: 2
# Relax obj value: 0.009
# Max RMSD: 0.056
# Mean RMSD: 0.039
data_MOF--net-ptr--node1-QUQFOY_clean_sbu_1--node2-NAWXER_clean_linker_0--edge1-UVAHIK_clean_linker_0
_symmetry_space_group_name_H-M    P1
_symmetry_Int_Tables_number       1
_symmetry_cell_setting            triclinic
loop_
_symmetry_equiv_pos_as_xyz
'x, y, z'
_cell_length_a     110.53272
_cell_length_b     110.52226
_cell_length_c     81.506932
_cell_angle_alpha  90.149676
_cell_angle_beta   89.855364
_cell_angle_gamma 119.92051
loop_
_atom_site_label
_atom_site_type_symbol
_atom_site_fract_x
_atom_site_fract_y
_atom_site_fract_z
_atom_type_partial_charge
O0 O 0.01306 0.37025 0.03454 0.0
Cd1 Cd 0.01867 0.36238 0.01478 0.0
Cd2 Cd 0.9911 0.34891 0.00963 0.0
O3 O 0.99024 0.35694 0.03232 0.0
O4 O 0.03754 0.36533 0.02017 0.0
O5 O 0.01878 0.3444 0.01803 0.0
C6 C 0.03192 0.35195 0.02131 0.0
C7 C 0.97701 0.32529 0.00325 0.0
C8 C 0.00084 0.36624 0.03997 0.0
C9 C 0.0093 0.37013 0.98433 0.0
O10 O 0.99704 0.36224 0.98979 0.0
O11 O 0.01979 0.37117 0.99201 0.0
O12 O 0.97195 0.33356 0.0042 0.0
O13 O 0.99008 0.33035 0.00662 0.0
O14 O 0.62949 0.63728 0.03752 0.0
Cd15 Cd 0.63611 0.65093 0.01791 0.0
Cd16 Cd 0.64914 0.63682 0.00979 0.0
O17 O 0.64264 0.62785 0.03269 0.0
O18 O 0.63322 0.66662 0.02478 0.0
O19 O 0.65411 0.66913 0.02031 0.0
C20 C 0.64661 0.67454 0.02479 0.0
C21 C 0.6722 0.64567 1.00118 0.0
C22 C 0.63388 0.62907 0.04168 0.0
C23 C 0.62653 0.63426 0.98706 0.0
O24 O 0.63459 0.62968 0.99114 0.0
O25 O 0.62606 0.64365 0.99564 0.0
O26 O 0.66365 0.63243 0.00218 0.0
O27 O 0.66779 0.65401 0.00574 0.0
O28 O 0.36849 0.00767 0.99147 0.0
Cd29 Cd 0.361 0.01319 0.01164 0.0
Cd30 Cd 0.34762 0.98557 0.01629 0.0
O31 O 0.35504 0.98484 0.99319 0.0
O32 O 0.36491 0.03242 0.00656 0.0
O33 O 0.34352 0.01443 0.0089 0.0
C34 C 0.35162 0.0275 0.00562 0.0
C35 C 0.3243 0.97097 0.02359 0.0
C36 C 0.36432 0.99554 0.98566 0.0
C37 C 0.36949 0.00351 0.04115 0.0
O38 O 0.36156 0.99133 0.03549 0.0
O39 O 0.37022 0.01409 0.03405 0.0
O40 O 0.33278 0.96624 0.02177 0.0
O41 O 0.32893 0.98402 0.02053 0.0
O42 O 0.99672 0.63424 0.98985 0.0
Cd43 Cd 0.98998 0.64101 0.00961 0.0
Cd44 Cd 0.0173 0.65493 0.01635 0.0
O45 O 0.01934 0.64783 0.99356 0.0
O46 O 0.97071 0.63644 0.00355 0.0
O47 O 0.98805 0.65807 0.00678 0.0
C48 C 0.97517 0.64966 0.00294 0.0
C49 C 0.02932 0.67848 0.02343 0.0
C50 C 0.00921 0.63869 0.98515 0.0
C51 C 0.99884 0.63283 0.04036 0.0
O52 O 0.01128 0.64112 0.03571 0.0
O53 O 0.98859 0.63175 0.03211 0.0
O54 O 0.03566 0.67138 0.02226 0.0
O55 O 0.01617 0.67231 0.01995 0.0
O56 O 0.37235 0.36718 0.99022 0.0
Cd57 Cd 0.36529 0.3528 0.00903 0.0
Cd58 Cd 0.35035 0.36514 0.01635 0.0
O59 O 0.35778 0.37509 0.99405 0.0
O60 O 0.36981 0.33829 0.00182 0.0
O61 O 0.34818 0.33408 0.0051 0.0
C62 C 0.35658 0.32969 1.00076 0.0
C63 C 0.32672 0.3551 0.02303 0.0
C64 C 0.36747 0.37492 0.98579 0.0
C65 C 0.37235 0.36829 0.04065 0.0
O66 O 0.36381 0.37216 0.03613 0.0
O67 O 0.37408 0.3597 0.03194 0.0
O68 O 0.33485 0.36844 0.02278 0.0
O69 O 0.33192 0.34734 0.0189 0.0
O70 O 0.63175 0.991 0.03483 0.0
Cd71 Cd 0.63939 0.98461 0.01555 0.0
Cd72 Cd 0.65328 0.01211 0.00942 0.0
O73 O 0.64552 0.0137 0.03199 0.0
O74 O 0.63527 0.96551 0.02176 0.0
O75 O 0.65674 0.98334 0.01932 0.0
C76 C 0.64853 0.97038 0.02301 0.0
C77 C 0.67686 0.02605 0.00272 0.0
C78 C 0.63604 0.00338 0.03986 0.0
C79 C 0.6318 0.99344 0.9846 0.0
O80 O 0.63981 0.00581 0.98968 0.0
O81 O 0.63066 0.98309 0.99267 0.0
O82 O 0.66858 0.03111 0.00343 0.0
O83 O 0.67184 0.01306 0.0065 0.0
O84 O 0.67256 0.70363 0.37189 0.0
Cd85 Cd 0.67969 0.69654 0.3528 0.0
Cd86 Cd 0.65233 0.68301 0.34504 0.0
O87 O 0.64998 0.6904 0.36749 0.0
O88 O 0.69865 0.70082 0.35987 0.0
O89 O 0.68123 0.67929 0.35626 0.0
C90 C 0.69402 0.68758 0.36055 0.0
C91 C 0.63814 0.65961 0.33766 0.0
C92 C 0.66001 0.69945 0.37611 0.0
C93 C 0.6722 0.70488 0.32132 0.0
O94 O 0.6596 0.6968 0.32558 0.0
O95 O 0.68212 0.70584 0.33011 0.0
O96 O 0.63341 0.66817 0.33812 0.0
O97 O 0.65093 0.66423 0.34205 0.0
O98 O 0.297 0.97074 0.37133 0.0
Cd99 Cd 0.30347 0.98469 0.35204 0.0
Cd100 Cd 0.31627 0.97011 0.34302 0.0
O101 O 0.30954 0.96077 0.36574 0.0
O102 O 0.29951 0.9995 0.3596 0.0
O103 O 0.32089 0.00342 0.35494 0.0
C104 C 0.31278 0.00804 0.35976 0.0
C105 C 0.33906 0.97767 0.33414 0.0
C106 C 0.30107 0.96218 0.37505 0.0
C107 C 0.2938 0.96864 0.32069 0.0
O108 O 0.30182 0.9639 0.32432 0.0
O109 O 0.29332 0.97775 0.3298 0.0
O110 O 0.32986 0.9646 0.33502 0.0
O111 O 0.33547 0.98659 0.339 0.0
O112 O 0.03863 0.34194 0.32389 0.0
Cd113 Cd 0.03145 0.3484 0.34355 0.0
Cd114 Cd 0.01751 0.32081 0.3497 0.0
O115 O 0.02534 0.31923 0.32722 0.0
O116 O 0.03606 0.36771 0.3377 0.0
O117 O 0.01438 0.35028 0.34029 0.0
C118 C 0.02285 0.36322 0.33674 0.0
C119 C 0.99386 0.30675 0.35594 0.0
C120 C 0.03449 0.32954 0.31905 0.0
C121 C 0.03911 0.33938 0.37443 0.0
O122 O 0.03086 0.32701 0.36954 0.0
O123 O 0.04044 0.34974 0.36622 0.0
O124 O 0.0022 0.30175 0.35539 0.0
O125 O 0.99889 0.31978 0.35238 0.0
O126 O 0.66332 0.96402 0.32363 0.0
Cd127 Cd 0.6559 0.97051 0.34303 0.0
Cd128 Cd 0.68326 0.98388 0.35113 0.0
O129 O 0.68586 0.97711 0.32842 0.0
O130 O 0.63677 0.96562 0.33594 0.0
O131 O 0.65362 0.98738 0.33986 0.0
C132 C 0.64094 0.97878 0.33543 0.0
C133 C 0.69724 0.00713 0.35916 0.0
C134 C 0.67592 0.96831 0.31949 0.0
C135 C 0.66327 0.96144 0.37413 0.0
O136 O 0.67591 0.96956 0.37004 0.0
O137 O 0.65342 0.9608 0.36546 0.0
O138 O 0.70207 0.99866 0.35846 0.0
O139 O 0.68445 0.0025 0.35471 0.0
O140 O 0.03933 0.69964 0.32502 0.0
Cd141 Cd 0.03379 0.68544 0.34395 0.0
Cd142 Cd 0.01848 0.69735 0.35324 0.0
O143 O 0.02498 0.70746 0.33094 0.0
O144 O 0.03908 0.67166 0.33605 0.0
O145 O 0.01721 0.6662 0.34063 0.0
C146 C 0.02598 0.66247 0.33568 0.0
C147 C 0.99517 0.68793 0.36122 0.0
C148 C 0.03413 0.7073 0.32159 0.0
C149 C 0.04165 0.7008 0.37585 0.0
O150 O 0.03261 0.70429 0.37233 0.0
O151 O 0.04342 0.6926 0.36646 0.0
O152 O 0.00366 0.7012 0.361 0.0
O153 O 0.99982 0.67986 0.35639 0.0
O154 O 0.29849 0.32826 0.37163 0.0
Cd155 Cd 0.30528 0.32126 0.3521 0.0
Cd156 Cd 0.31891 0.3487 0.3447 0.0
O157 O 0.31181 0.35086 0.36744 0.0
O158 O 0.30103 0.30221 0.35872 0.0
O159 O 0.32255 0.3197 0.3552 0.0
C160 C 0.31428 0.30686 0.35934 0.0
C161 C 0.34224 0.3629 0.33708 0.0
C162 C 0.30284 0.3408 0.37608 0.0
C163 C 0.29678 0.32918 0.32102 0.0
O164 O 0.30494 0.34172 0.32543 0.0
O165 O 0.29583 0.31913 0.32956 0.0
O166 O 0.33373 0.36768 0.33793 0.0
O167 O 0.3376 0.35004 0.34122 0.0
O168 O 0.34048 0.03908 0.70373 0.0
Cd169 Cd 0.34805 0.03218 0.68489 0.0
Cd170 Cd 0.3207 0.01768 0.67703 0.0
O171 O 0.31803 0.02502 0.69937 0.0
O172 O 0.36729 0.0375 0.69199 0.0
O173 O 0.35055 0.01556 0.68899 0.0
C174 C 0.36325 0.0244 0.69312 0.0
C175 C 0.30731 0.99407 0.67018 0.0
C176 C 0.32784 0.03442 0.70791 0.0
C177 C 0.34005 0.03965 0.65312 0.0
O178 O 0.32751 0.0313 0.65738 0.0
O179 O 0.3501 0.04103 0.66201 0.0
O180 O 0.30202 0.00216 0.67039 0.0
O181 O 0.32023 0.99932 0.67442 0.0
O182 O 0.96286 0.30161 0.70323 0.0
Cd183 Cd 0.96977 0.31575 0.68413 0.0
Cd184 Cd 0.9838 0.3022 0.6764 0.0
O185 O 0.97645 0.2926 0.6989 0.0
O186 O 0.96495 0.33012 0.69103 0.0
O187 O 0.9867 0.33472 0.68772 0.0
C188 C 0.97813 0.33897 0.69182 0.0
C189 C 0.00719 0.31135 0.66892 0.0
C190 C 0.96727 0.29343 0.70749 0.0
C191 C 0.96188 0.29988 0.65256 0.0
O192 O 0.97006 0.2955 0.6569 0.0
O193 O 0.96071 0.30876 0.66134 0.0
O194 O 0.99867 0.29808 0.66951 0.0
O195 O 0.00255 0.31954 0.67329 0.0
O196 O 0.70619 0.67523 0.65809 0.0
Cd197 Cd 0.69883 0.68185 0.67743 0.0
Cd198 Cd 0.68466 0.6546 0.68422 0.0
O199 O 0.69175 0.65269 0.66137 0.0
O200 O 0.70238 0.70083 0.67162 0.0
O201 O 0.68115 0.68244 0.67369 0.0
C202 C 0.68905 0.69554 0.67039 0.0
C203 C 0.66128 0.64045 0.6917 0.0
C204 C 0.70133 0.66271 0.65323 0.0
C205 C 0.70683 0.67331 0.70827 0.0
O206 O 0.69865 0.66091 0.70344 0.0
O207 O 0.70782 0.68358 0.70017 0.0
O208 O 0.66969 0.63557 0.69063 0.0
O209 O 0.66604 0.6534 0.68789 0.0
O210 O 0.3252 0.29706 0.65857 0.0
Cd211 Cd 0.31871 0.3039 0.67855 0.0
Cd212 Cd 0.34613 0.31678 0.68536 0.0
O213 O 0.34791 0.30986 0.66237 0.0
O214 O 0.29975 0.30028 0.67248 0.0
O215 O 0.31768 0.32152 0.67621 0.0
C216 C 0.30473 0.3136 0.67225 0.0
C217 C 0.36065 0.33989 0.69354 0.0
C218 C 0.33762 0.30113 0.65382 0.0
C219 C 0.32665 0.29446 0.70885 0.0
O220 O 0.33916 0.30245 0.70422 0.0
O221 O 0.31659 0.29399 0.70079 0.0
O222 O 0.36522 0.33124 0.69225 0.0
O223 O 0.34783 0.33556 0.68947 0.0
O224 O 0.70676 0.03392 0.65648 0.0
Cd225 Cd 0.69986 0.02025 0.67605 0.0
Cd226 Cd 0.68579 0.03356 0.68337 0.0
O227 O 0.69267 0.04239 0.66049 0.0
O228 O 0.70337 0.00479 0.67008 0.0
O229 O 0.68214 0.00194 0.6727 0.0
C230 C 0.69003 0.99674 0.66914 0.0
C231 C 0.66262 0.02522 0.69127 0.0
C232 C 0.70193 0.04168 0.65193 0.0
C233 C 0.70825 0.03696 0.70693 0.0
O234 O 0.69995 0.04113 0.70241 0.0
O235 O 0.70924 0.02775 0.69861 0.0
O236 O 0.67137 0.03839 0.68996 0.0
O237 O 0.66691 0.01662 0.68746 0.0
O238 O 0.96412 0.66288 0.70538 0.0
Cd239 Cd 0.96977 0.65459 0.68601 0.0
Cd240 Cd 0.98314 0.68215 0.67645 0.0
O241 O 0.97593 0.68517 0.69862 0.0
O242 O 0.96441 0.63549 0.6938 0.0
O243 O 0.98629 0.65169 0.68909 0.0
C244 C 0.97748 0.63924 0.69406 0.0
C245 C 0.0063 0.6969 0.66842 0.0
C246 C 0.96789 0.67556 0.70842 0.0
C247 C 0.96048 0.66124 0.6543 0.0
O248 O 0.96896 0.67398 0.65756 0.0
O249 O 0.95958 0.65166 0.66373 0.0
O250 O 0.99729 0.70106 0.66863 0.0
O251 O 0.00227 0.68434 0.67332 0.0
C252 C 0.20413 0.32412 0.12708 0.0
C253 C 0.20172 0.31473 0.11415 0.0
C254 C 0.19322 0.32232 0.13734 0.0
C255 C 0.17967 0.31102 0.13501 0.0
C256 C 0.18817 0.30335 0.11191 0.0
C257 C 0.17723 0.30159 0.12216 0.0
C258 C 0.16789 0.30974 0.14503 0.0
C259 C 0.19529 0.30276 0.18029 0.0
C260 C 0.20111 0.31283 0.19283 0.0
C261 C 0.18478 0.30215 0.17018 0.0
C262 C 0.17992 0.31163 0.17239 0.0
C263 C 0.19618 0.32224 0.19502 0.0
C264 C 0.18566 0.32159 0.18498 0.0
C265 C 0.1684 0.31085 0.16232 0.0
C266 C 0.11183 0.3027 0.18064 0.0
C267 C 0.1161 0.31332 0.19251 0.0
C268 C 0.12169 0.30182 0.17065 0.0
C269 C 0.13598 0.31153 0.17238 0.0
C270 C 0.13042 0.32292 0.19426 0.0
C271 C 0.14023 0.32198 0.18438 0.0
C272 C 0.14671 0.31067 0.16232 0.0
C273 C 0.12235 0.32171 0.12735 0.0
C274 C 0.11576 0.31211 0.11451 0.0
C275 C 0.13208 0.32078 0.13738 0.0
C276 C 0.13528 0.31009 0.13498 0.0
C277 C 0.11909 0.30151 0.11201 0.0
C278 C 0.1288 0.30055 0.12211 0.0
C279 C 0.14612 0.30946 0.14503 0.0
H280 H 0.21446 0.33294 0.12919 0.0
H281 H 0.19533 0.32998 0.14686 0.0
H282 H 0.18596 0.29603 0.10195 0.0
H283 H 0.16682 0.29291 0.11999 0.0
H284 H 0.19888 0.29537 0.17828 0.0
H285 H 0.1803 0.29415 0.1608 0.0
H286 H 0.20026 0.32996 0.20474 0.0
H287 H 0.182 0.32892 0.18705 0.0
H288 H 0.10087 0.29515 0.17901 0.0
H289 H 0.11817 0.29347 0.1617 0.0
H290 H 0.13407 0.33106 0.20349 0.0
H291 H 0.1512 0.32951 0.18606 0.0
H292 H 0.12028 0.3302 0.12938 0.0
H293 H 0.13733 0.32862 0.14678 0.0
H294 H 0.11416 0.29393 0.10227 0.0
H295 H 0.13124 0.29233 0.11988 0.0
N296 N 0.15672 0.30897 0.13708 0.0
N297 N 0.15783 0.31135 0.17023 0.0
C298 C 0.67883 0.87853 0.12913 0.0
C299 C 0.68815 0.88553 0.11617 0.0
C300 C 0.68026 0.86886 0.13869 0.0
C301 C 0.69114 0.86606 0.13566 0.0
C302 C 0.69891 0.88254 0.11297 0.0
C303 C 0.70034 0.87284 0.12259 0.0
C304 C 0.69241 0.8555 0.14554 0.0
C305 C 0.70113 0.89071 0.18039 0.0
C306 C 0.69121 0.88693 0.19304 0.0
C307 C 0.70135 0.88047 0.17045 0.0
C308 C 0.69162 0.86628 0.17295 0.0
C309 C 0.68158 0.87271 0.19557 0.0
C310 C 0.68185 0.86251 0.1857 0.0
C311 C 0.69185 0.85522 0.16287 0.0
C312 C 0.70014 0.80689 0.18076 0.0
C313 C 0.69 0.8009 0.1932 0.0
C314 C 0.70071 0.81742 0.17071 0.0
C315 C 0.69112 0.82213 0.17291 0.0
C316 C 0.68051 0.80574 0.19541 0.0
C317 C 0.68112 0.81628 0.18545 0.0
C318 C 0.69171 0.83355 0.16283 0.0
C319 C 0.67965 0.79752 0.12843 0.0
C320 C 0.6889 0.80024 0.11526 0.0
C321 C 0.68082 0.80839 0.13833 0.0
C322 C 0.69143 0.8222 0.13547 0.0
C323 C 0.6994 0.81409 0.11227 0.0
C324 C 0.70061 0.82497 0.12225 0.0
C325 C 0.69239 0.83386 0.14549 0.0
H326 H 0.67021 0.88028 0.13167 0.0
H327 H 0.6727 0.8634 0.14831 0.0
H328 H 0.7063 0.88777 0.10313 0.0
H329 H 0.7087 0.8707 0.1199 0.0
H330 H 0.70867 0.90158 0.17814 0.0
H331 H 0.7092 0.88364 0.16092 0.0
H332 H 0.67396 0.86944 0.20538 0.0
H333 H 0.67434 0.85162 0.18797 0.0
H334 H 0.70759 0.80337 0.17874 0.0
H335 H 0.70872 0.82198 0.16136 0.0
H336 H 0.67274 0.80154 0.20506 0.0
H337 H 0.67371 0.81985 0.1875 0.0
H338 H 0.67125 0.78701 0.13083 0.0
H339 H 0.67325 0.806 0.14802 0.0
H340 H 0.70672 0.81653 0.10226 0.0
H341 H 0.70876 0.83556 0.11967 0.0
N342 N 0.69278 0.84487 0.13753 0.0
N343 N 0.69143 0.84422 0.17078 0.0
C344 C 0.11722 0.7994 0.13102 0.0
C345 C 0.11273 0.80243 0.11632 0.0
C346 C 0.12692 0.81019 0.14098 0.0
C347 C 0.13187 0.82423 0.13673 0.0
C348 C 0.11791 0.81639 0.11179 0.0
C349 C 0.12735 0.8272 0.12195 0.0
C350 C 0.14259 0.83587 0.14678 0.0
C351 C 0.10679 0.81113 0.18228 0.0
C352 C 0.11058 0.80621 0.19612 0.0
C353 C 0.11705 0.8208 0.17167 0.0
C354 C 0.13124 0.82545 0.17457 0.0
C355 C 0.12478 0.81091 0.19895 0.0
C356 C 0.13497 0.82043 0.18834 0.0
C357 C 0.14248 0.83616 0.16415 0.0
C358 C 0.19127 0.89268 0.1813 0.0
C359 C 0.19566 0.88871 0.19546 0.0
C360 C 0.18133 0.88256 0.17082 0.0
C361 C 0.17578 0.86828 0.17418 0.0
C362 C 0.19016 0.87442 0.19868 0.0
C363 C 0.18031 0.86435 0.18821 0.0
C364 C 0.16453 0.85729 0.16403 0.0
C365 C 0.20156 0.87793 0.13026 0.0
C366 C 0.19973 0.88466 0.11666 0.0
C367 C 0.19023 0.86915 0.14018 0.0
C368 C 0.17684 0.86698 0.1368 0.0
C369 C 0.18632 0.88251 0.11332 0.0
C370 C 0.17496 0.87364 0.12321 0.0
C371 C 0.16468 0.85704 0.14671 0.0
H372 H 0.11353 0.78866 0.13454 0.0
H373 H 0.13072 0.8075 0.1518 0.0
H374 H 0.11464 0.81892 0.10041 0.0
H375 H 0.13119 0.83791 0.11821 0.0
H376 H 0.09593 0.80779 0.17989 0.0
H377 H 0.11391 0.82479 0.16139 0.0
H378 H 0.12802 0.80717 0.20938 0.0
H379 H 0.14583 0.82388 0.19089 0.0
H380 H 0.19519 0.90361 0.1786 0.0
H381 H 0.17774 0.8859 0.16035 0.0
H382 H 0.19348 0.87101 0.20935 0.0
H383 H 0.17618 0.85342 0.19111 0.0
H384 H 0.21177 0.87943 0.13322 0.0
H385 H 0.19191 0.86386 0.15034 0.0
H386 H 0.18456 0.88742 0.10282 0.0
H387 H 0.16469 0.87197 0.12025 0.0
N388 N 0.15367 0.8464 0.13879 0.0
N389 N 0.15347 0.84683 0.17198 0.0
C390 C 0.31678 0.11814 0.8477 0.0
C391 C 0.30623 0.11152 0.83585 0.0
C392 C 0.31675 0.12807 0.85835 0.0
C393 C 0.30603 0.13139 0.85759 0.0
C394 C 0.29549 0.11482 0.83516 0.0
C395 C 0.29543 0.12468 0.84587 0.0
C396 C 0.30651 0.14276 0.86774 0.0
C397 C 0.30366 0.11013 0.90328 0.0
C398 C 0.31458 0.11508 0.91481 0.0
C399 C 0.30175 0.11946 0.89353 0.0
C400 C 0.31087 0.13393 0.89489 0.0
C401 C 0.3234 0.12959 0.91645 0.0
C402 C 0.32157 0.13887 0.90662 0.0
C403 C 0.30919 0.14417 0.88481 0.0
C404 C 0.30524 0.19566 0.90186 0.0
C405 C 0.31655 0.20198 0.91283 0.0
C406 C 0.30277 0.18387 0.8928 0.0
C407 C 0.31168 0.17828 0.89436 0.0
C408 C 0.3251 0.196 0.91479 0.0
C409 C 0.32268 0.18429 0.90569 0.0
C410 C 0.30962 0.16605 0.88458 0.0
C411 C 0.31897 0.19987 0.84761 0.0
C412 C 0.30864 0.19648 0.83559 0.0
C413 C 0.31839 0.18963 0.85813 0.0
C414 C 0.3073 0.17581 0.85714 0.0
C415 C 0.29758 0.18261 0.83457 0.0
C416 C 0.29696 0.17239 0.84519 0.0
C417 C 0.30704 0.16467 0.8675 0.0
H418 H 0.32533 0.11603 0.84834 0.0
H419 H 0.32534 0.13344 0.86686 0.0
H420 H 0.28716 0.10983 0.82625 0.0
H421 H 0.28715 0.12719 0.84491 0.0
H422 H 0.29667 0.09904 0.90165 0.0
H423 H 0.29311 0.11535 0.88498 0.0
H424 H 0.33169 0.13384 0.92547 0.0
H425 H 0.32863 0.14997 0.90813 0.0
H426 H 0.29845 0.19999 0.90003 0.0
H427 H 0.29395 0.17918 0.88451 0.0
H428 H 0.3337 0.20038 0.9234 0.0
H429 H 0.32958 0.18007 0.90732 0.0
H430 H 0.32758 0.21044 0.84886 0.0
H431 H 0.32677 0.19249 0.86684 0.0
H432 H 0.28958 0.17954 0.82528 0.0
H433 H 0.28844 0.16175 0.84398 0.0
N434 N 0.30546 0.15302 0.85984 0.0
N435 N 0.31066 0.15578 0.89247 0.0
C436 C 0.89393 0.19291 0.90329 0.0
C437 C 0.88953 0.19849 0.91597 0.0
C438 C 0.88413 0.1821 0.89339 0.0
C439 C 0.86976 0.1769 0.89573 0.0
C440 C 0.87516 0.19307 0.9185 0.0
C441 C 0.8654 0.18239 0.90851 0.0
C442 C 0.85907 0.16537 0.88555 0.0
C443 C 0.88388 0.20026 0.84962 0.0
C444 C 0.89009 0.1968 0.8367 0.0
C445 C 0.87423 0.18992 0.86009 0.0
C446 C 0.87078 0.17592 0.85808 0.0
C447 C 0.88658 0.18277 0.83472 0.0
C448 C 0.877 0.17246 0.84526 0.0
C449 C 0.85981 0.16468 0.86827 0.0
C450 C 0.80237 0.12004 0.84932 0.0
C451 C 0.80564 0.11388 0.83617 0.0
C452 C 0.8128 0.12933 0.85996 0.0
C453 C 0.82669 0.13247 0.85789 0.0
C454 C 0.81955 0.11701 0.83418 0.0
C455 C 0.82996 0.12624 0.84489 0.0
C456 C 0.83806 0.14318 0.86818 0.0
C457 C 0.80939 0.10902 0.90286 0.0
C458 C 0.8039 0.11343 0.91561 0.0
C459 C 0.8203 0.1188 0.89304 0.0
C460 C 0.82569 0.13318 0.89555 0.0
C461 C 0.80951 0.12782 0.9183 0.0
C462 C 0.82029 0.13756 0.90841 0.0
C463 C 0.83733 0.14384 0.88546 0.0
H464 H 0.90493 0.19676 0.90121 0.0
H465 H 0.8878 0.17774 0.88401 0.0
H466 H 0.87144 0.19724 0.92806 0.0
H467 H 0.85439 0.17852 0.91068 0.0
H468 H 0.88638 0.21095 0.85159 0.0
H469 H 0.86928 0.19285 0.86955 0.0
H470 H 0.89094 0.17967 0.82474 0.0
H471 H 0.87432 0.16171 0.84328 0.0
H472 H 0.79176 0.1178 0.8513 0.0
H473 H 0.81003 0.13431 0.86955 0.0
H474 H 0.82251 0.11268 0.82404 0.0
H475 H 0.84063 0.12867 0.84287 0.0
H476 H 0.80541 0.098 0.90065 0.0
H477 H 0.82458 0.1151 0.88359 0.0
H478 H 0.80541 0.13156 0.92791 0.0
H479 H 0.82431 0.14858 0.9107 0.0
N480 N 0.84783 0.15495 0.89338 0.0
N481 N 0.84932 0.15357 0.86034 0.0
C482 C 0.80631 0.6975 0.90233 0.0
C483 C 0.80001 0.68623 0.91336 0.0
C484 C 0.8181 0.69994 0.89328 0.0
C485 C 0.82371 0.69105 0.89492 0.0
C486 C 0.80601 0.67771 0.91541 0.0
C487 C 0.81771 0.68011 0.90632 0.0
C488 C 0.8359 0.69305 0.8851 0.0
C489 C 0.80193 0.68288 0.84814 0.0
C490 C 0.80515 0.69292 0.83579 0.0
C491 C 0.81225 0.68388 0.85881 0.0
C492 C 0.82598 0.69512 0.85767 0.0
C493 C 0.8189 0.70418 0.83469 0.0
C494 C 0.82921 0.70523 0.84547 0.0
C495 C 0.83725 0.69564 0.86801 0.0
C496 C 0.88149 0.68396 0.84659 0.0
C497 C 0.89028 0.69566 0.83691 0.0
C498 C 0.87164 0.68424 0.85713 0.0
C499 C 0.87027 0.69617 0.85814 0.0
C500 C 0.889 0.70769 0.83824 0.0
C501 C 0.87896 0.70786 0.84858 0.0
C502 C 0.85907 0.69605 0.8682 0.0
C503 C 0.89144 0.69777 0.9031 0.0
C504 C 0.88635 0.68672 0.91446 0.0
C505 C 0.88221 0.7 0.89357 0.0
C506 C 0.86771 0.69109 0.89501 0.0
C507 C 0.87183 0.67806 0.91612 0.0
C508 C 0.86264 0.68023 0.90653 0.0
C509 C 0.85761 0.6932 0.8852 0.0
H510 H 0.80197 0.70427 0.90044 0.0
H511 H 0.82276 0.70872 0.88493 0.0
H512 H 0.80164 0.66914 0.92406 0.0
H513 H 0.82194 0.67321 0.90801 0.0
H514 H 0.79144 0.67413 0.84946 0.0
H515 H 0.80954 0.67565 0.8677 0.0
H516 H 0.82183 0.71197 0.82516 0.0
H517 H 0.83978 0.71385 0.84414 0.0
H518 H 0.88187 0.67439 0.8457 0.0
H519 H 0.86481 0.675 0.86416 0.0
H520 H 0.8957 0.717 0.83126 0.0
H521 H 0.878 0.71714 0.84915 0.0
H522 H 0.90255 0.70463 0.90146 0.0
H523 H 0.88644 0.70877 0.88521 0.0
H524 H 0.8675 0.66965 0.92499 0.0
H525 H 0.85152 0.67331 0.90807 0.0
N526 N 0.84609 0.69183 0.89293 0.0
N527 N 0.84887 0.69719 0.8603 0.0
C528 C 0.77753 0.63826 0.45945 0.0
C529 C 0.78258 0.64938 0.4482 0.0
C530 C 0.78678 0.63604 0.46895 0.0
C531 C 0.80127 0.64503 0.46761 0.0
C532 C 0.79711 0.65807 0.44654 0.0
C533 C 0.80631 0.65591 0.45611 0.0
C534 C 0.81137 0.64305 0.47759 0.0
C535 C 0.78605 0.65159 0.51458 0.0
C536 C 0.77899 0.64099 0.52626 0.0
C537 C 0.79589 0.65127 0.50405 0.0
C538 C 0.79869 0.64019 0.50479 0.0
C539 C 0.78181 0.62992 0.52695 0.0
C540 C 0.7916 0.62956 0.51636 0.0
C541 C 0.80986 0.64026 0.49462 0.0
C542 C 0.86595 0.64985 0.51511 0.0
C543 C 0.86186 0.63925 0.52691 0.0
C544 C 0.85613 0.64999 0.50445 0.0
C545 C 0.84207 0.63936 0.50511 0.0
C546 C 0.84779 0.62865 0.52759 0.0
C547 C 0.83801 0.62873 0.51682 0.0
C548 C 0.83133 0.63991 0.49478 0.0
C549 C 0.86175 0.63744 0.45984 0.0
C550 C 0.86811 0.64867 0.44876 0.0
C551 C 0.85022 0.63533 0.46922 0.0
C552 C 0.84498 0.64456 0.46791 0.0
C553 C 0.86252 0.65758 0.44713 0.0
C554 C 0.85111 0.65555 0.45658 0.0
C555 C 0.83288 0.64276 0.47775 0.0
H556 H 0.76642 0.63137 0.46109 0.0
H557 H 0.78258 0.62728 0.47733 0.0
H558 H 0.80141 0.66652 0.43774 0.0
H559 H 0.81744 0.66288 0.45463 0.0
H560 H 0.78433 0.6604 0.51395 0.0
H561 H 0.80157 0.65987 0.49565 0.0
H562 H 0.77648 0.62154 0.53572 0.0
H563 H 0.7937 0.621 0.51729 0.0
H564 H 0.87666 0.65831 0.51451 0.0
H565 H 0.85948 0.65862 0.49598 0.0
H566 H 0.84434 0.6203 0.53649 0.0
H567 H 0.8272 0.62052 0.51772 0.0
H568 H 0.86577 0.63037 0.46144 0.0
H569 H 0.84543 0.6265 0.47748 0.0
H570 H 0.86689 0.66612 0.43844 0.0
H571 H 0.84715 0.66269 0.45512 0.0
N572 N 0.82285 0.64425 0.46992 0.0
N573 N 0.81983 0.63868 0.50246 0.0
C574 C 0.344 0.2132 0.46265 0.0
C575 C 0.35354 0.22056 0.45001 0.0
C576 C 0.34542 0.20344 0.47205 0.0
C577 C 0.35651 0.20094 0.4692 0.0
C578 C 0.36447 0.21781 0.44691 0.0
C579 C 0.3659 0.20804 0.45638 0.0
C580 C 0.35788 0.19043 0.47904 0.0
C581 C 0.36476 0.22495 0.51436 0.0
C582 C 0.35434 0.22061 0.52649 0.0
C583 C 0.36574 0.21512 0.50441 0.0
C584 C 0.35633 0.20079 0.50645 0.0
C585 C 0.34503 0.20625 0.52854 0.0
C586 C 0.34607 0.19647 0.51871 0.0
C587 C 0.35725 0.19011 0.49638 0.0
C588 C 0.36637 0.14213 0.51379 0.0
C589 C 0.35636 0.13609 0.52636 0.0
C590 C 0.36681 0.15269 0.50391 0.0
C591 C 0.35722 0.15736 0.5064 0.0
C592 C 0.34689 0.1409 0.52889 0.0
C593 C 0.34737 0.15147 0.51909 0.0
C594 C 0.35759 0.16869 0.49635 0.0
C595 C 0.34456 0.13223 0.46286 0.0
C596 C 0.35392 0.13441 0.44997 0.0
C597 C 0.34592 0.14342 0.47223 0.0
C598 C 0.3568 0.15705 0.46913 0.0
C599 C 0.36461 0.14811 0.4466 0.0
C600 C 0.366 0.15934 0.45607 0.0
C601 C 0.35811 0.16892 0.479 0.0
H602 H 0.33525 0.21477 0.46509 0.0
H603 H 0.33771 0.19772 0.48145 0.0
H604 H 0.372 0.22331 0.43728 0.0
H605 H 0.37443 0.20612 0.45382 0.0
H606 H 0.37208 0.23595 0.51251 0.0
H607 H 0.37392 0.2187 0.49524 0.0
H608 H 0.33704 0.20256 0.53796 0.0
H609 H 0.33878 0.18547 0.52061 0.0
H610 H 0.3738 0.13863 0.51153 0.0
H611 H 0.3747 0.15728 0.49443 0.0
H612 H 0.33922 0.13665 0.53865 0.0
H613 H 0.33996 0.15499 0.52135 0.0
H614 H 0.33598 0.12188 0.4655 0.0
H615 H 0.33835 0.14142 0.48182 0.0
H616 H 0.37199 0.15014 0.43677 0.0
H617 H 0.37435 0.16979 0.45331 0.0
N618 N 0.35836 0.17986 0.47102 0.0
N619 N 0.35708 0.17924 0.5043 0.0
C620 C 0.78968 0.13212 0.46161 0.0
C621 C 0.78254 0.13403 0.44851 0.0
C622 C 0.7995 0.14352 0.47069 0.0
C623 C 0.80229 0.15709 0.46705 0.0
C624 C 0.78554 0.14766 0.44467 0.0
C625 C 0.79537 0.15908 0.45382 0.0
C626 C 0.81296 0.16921 0.47645 0.0
C627 C 0.77835 0.14368 0.51244 0.0
C628 C 0.78253 0.13899 0.52617 0.0
C629 C 0.78832 0.15355 0.50177 0.0
C630 C 0.80263 0.15868 0.50447 0.0
C631 C 0.79684 0.14419 0.52884 0.0
C632 C 0.80676 0.15393 0.51814 0.0
C633 C 0.81349 0.16954 0.49379 0.0
C634 C 0.86248 0.22627 0.50957 0.0
C635 C 0.86838 0.2223 0.52226 0.0
C636 C 0.85185 0.21615 0.49973 0.0
C637 C 0.84696 0.20189 0.50243 0.0
C638 C 0.86344 0.20802 0.52488 0.0
C639 C 0.8528 0.19795 0.51514 0.0
C640 C 0.83526 0.19091 0.49281 0.0
C641 C 0.87072 0.21232 0.4571 0.0
C642 C 0.86818 0.21914 0.44415 0.0
C643 C 0.85989 0.20325 0.46743 0.0
C644 C 0.84629 0.20088 0.46512 0.0
C645 C 0.85456 0.21678 0.44187 0.0
C646 C 0.84369 0.20763 0.45218 0.0
C647 C 0.83465 0.1907 0.4755 0.0
H648 H 0.78791 0.12183 0.46464 0.0
H649 H 0.80506 0.14173 0.48045 0.0
H650 H 0.7802 0.14949 0.43469 0.0
H651 H 0.7975 0.16948 0.45065 0.0
H652 H 0.7674 0.14 0.5102 0.0
H653 H 0.78484 0.15733 0.49162 0.0
H654 H 0.80037 0.14066 0.5392 0.0
H655 H 0.81772 0.15775 0.52055 0.0
H656 H 0.86608 0.23719 0.50725 0.0
H657 H 0.8473 0.21946 0.49023 0.0
H658 H 0.86759 0.2046 0.53472 0.0
H659 H 0.84911 0.18701 0.51756 0.0
H660 H 0.88111 0.21398 0.45924 0.0
H661 H 0.8621 0.19791 0.47706 0.0
H662 H 0.85225 0.22175 0.43188 0.0
H663 H 0.83323 0.2058 0.45005 0.0
N664 N 0.8235 0.17989 0.46798 0.0
N665 N 0.82466 0.18032 0.50122 0.0
C666 C 0.97832 0.53065 0.17762 0.0
C667 C 0.98737 0.53573 0.16405 0.0
C668 C 0.97848 0.52069 0.18806 0.0
C669 C 0.98789 0.51582 0.18527 0.0
C670 C 0.99676 0.53084 0.16132 0.0
C671 C 0.99698 0.52098 0.17178 0.0
C672 C 0.98781 0.50473 0.19556 0.0
C673 C 1.00036 0.54116 0.22918 0.0
C674 C 0.99109 0.53878 0.24224 0.0
C675 C 0.99907 0.53007 0.21963 0.0
C676 C 0.98836 0.51636 0.22276 0.0
C677 C 0.98053 0.52501 0.24555 0.0
C678 C 0.97922 0.5139 0.23593 0.0
C679 C 0.9872 0.50454 0.21289 0.0
C680 C 1.00042 0.46008 0.2311 0.0
C681 C 0.99085 0.45334 0.24391 0.0
C682 C 0.99912 0.46949 0.22087 0.0
C683 C 0.98814 0.47228 0.22315 0.0
C684 C 0.97982 0.45609 0.24612 0.0
C685 C 0.97856 0.46557 0.23591 0.0
C686 C 0.98723 0.48292 0.21307 0.0
C687 C 0.97955 0.44825 0.17721 0.0
C688 C 0.98922 0.45252 0.16421 0.0
C689 C 0.97928 0.45813 0.1878 0.0
C690 C 0.98878 0.47243 0.18567 0.0
C691 C 0.99884 0.46683 0.16235 0.0
C692 C 0.99856 0.47665 0.17288 0.0
C693 C 0.98807 0.48324 0.19576 0.0
H694 H 0.97084 0.53408 0.1799 0.0
H695 H 0.97105 0.51658 0.19806 0.0
H696 H 0.00397 0.53467 0.15107 0.0
H697 H 0.00429 0.51736 0.1693 0.0
H698 H 0.00882 0.55157 0.22655 0.0
H699 H 0.00659 0.53221 0.20993 0.0
H700 H 0.97319 0.52282 0.25547 0.0
H701 H 0.971 0.50339 0.2387 0.0
H702 H 0.00898 0.45813 0.22902 0.0
H703 H 0.00687 0.4748 0.21138 0.0
H704 H 0.97239 0.4512 0.25601 0.0
H705 H 0.97013 0.46771 0.23804 0.0
H706 H 0.9719 0.43732 0.17887 0.0
H707 H 0.97141 0.45461 0.19733 0.0
H708 H 0.0066 0.47047 0.15267 0.0
H709 H 0.00599 0.48761 0.17097 0.0
N710 N 0.98832 0.49412 0.18775 0.0
N711 N 0.98679 0.49357 0.22095 0.0
C712 C 0.47469 0.44404 0.18055 0.0
C713 C 0.46869 0.44846 0.16846 0.0
C714 C 0.48538 0.45382 0.19062 0.0
C715 C 0.49026 0.46816 0.18871 0.0
C716 C 0.47368 0.46282 0.16655 0.0
C717 C 0.4844 0.47255 0.17649 0.0
C718 C 0.50177 0.47878 0.19887 0.0
C719 C 0.46534 0.45554 0.23255 0.0
C720 C 0.4675 0.44818 0.2452 0.0
C721 C 0.47652 0.46528 0.22314 0.0
C722 C 0.49011 0.46779 0.22598 0.0
C723 C 0.48116 0.45091 0.24826 0.0
C724 C 0.49237 0.46068 0.23878 0.0
C725 C 0.502 0.47835 0.21619 0.0
C726 C 0.54656 0.53643 0.23296 0.0
C727 C 0.55364 0.53415 0.24583 0.0
C728 C 0.53687 0.52531 0.22342 0.0
C729 C 0.53417 0.51167 0.22635 0.0
C730 C 0.5507 0.52043 0.24899 0.0
C731 C 0.541 0.50929 0.23937 0.0
C732 C 0.52368 0.49986 0.21638 0.0
C733 C 0.5588 0.52683 0.18164 0.0
C734 C 0.55486 0.53292 0.16913 0.0
C735 C 0.54868 0.51626 0.19151 0.0
C736 C 0.53444 0.51161 0.18906 0.0
C737 C 0.54059 0.52814 0.16666 0.0
C738 C 0.53051 0.51756 0.17645 0.0
C739 C 0.52347 0.50021 0.19905 0.0
H740 H 0.47106 0.43304 0.1823 0.0
H741 H 0.48993 0.45019 0.19976 0.0
H742 H 0.46944 0.46657 0.15716 0.0
H743 H 0.48807 0.48356 0.17469 0.0
H744 H 0.45503 0.45398 0.23013 0.0
H745 H 0.47455 0.47102 0.21376 0.0
H746 H 0.48318 0.44541 0.25789 0.0
H747 H 0.50279 0.46259 0.24133 0.0
H748 H 0.54828 0.54679 0.23046 0.0
H749 H 0.53135 0.52738 0.21387 0.0
H750 H 0.55598 0.51833 0.2588 0.0
H751 H 0.53892 0.49882 0.242 0.0
H752 H 0.56971 0.5303 0.18384 0.0
H753 H 0.55197 0.51163 0.20093 0.0
H754 H 0.53719 0.53243 0.15695 0.0
H755 H 0.51959 0.51406 0.17422 0.0
N756 N 0.51248 0.48971 0.19102 0.0
N757 N 0.51299 0.48888 0.22429 0.0
C758 C 0.46986 0.0215 0.23149 0.0
C759 C 0.46347 0.01049 0.24285 0.0
C760 C 0.48136 0.02336 0.22223 0.0
C761 C 0.48657 0.01415 0.22401 0.0
C762 C 0.46902 0.00159 0.24495 0.0
C763 C 0.48045 0.00342 0.23567 0.0
C764 C 0.49857 0.01567 0.21417 0.0
C765 C 0.46447 0.00625 0.17759 0.0
C766 C 0.46792 0.01643 0.16536 0.0
C767 C 0.47473 0.00675 0.18801 0.0
C768 C 0.48864 0.01762 0.18669 0.0
C769 C 0.48187 0.02726 0.16403 0.0
C770 C 0.49212 0.0278 0.17453 0.0
C771 C 0.49977 0.01781 0.19701 0.0
C772 C 0.54605 0.00707 0.17842 0.0
C773 C 0.55279 0.01731 0.16625 0.0
C774 C 0.53603 0.00735 0.18867 0.0
C775 C 0.53271 0.01803 0.18721 0.0
C776 C 0.54938 0.02795 0.16476 0.0
C777 C 0.53941 0.02826 0.17509 0.0
C778 C 0.52149 0.01798 0.19728 0.0
C779 C 0.55459 0.02208 0.23279 0.0
C780 C 0.54985 0.01134 0.24454 0.0
C781 C 0.54508 0.02368 0.22302 0.0
C782 C 0.53065 0.01445 0.22461 0.0
C783 C 0.53539 0.0024 0.24639 0.0
C784 C 0.52593 0.00394 0.23657 0.0
C785 C 0.52028 0.01582 0.21445 0.0
H786 H 0.46585 0.02853 0.22953 0.0
H787 H 0.48614 0.03198 0.21367 0.0
H788 H 0.46457 0.9932 0.25383 0.0
H789 H 0.48439 0.9963 0.23745 0.0
H790 H 0.45383 0.99781 0.17906 0.0
H791 H 0.47181 0.9985 0.19692 0.0
H792 H 0.48497 0.03513 0.15457 0.0
H793 H 0.50281 0.03615 0.17308 0.0
H794 H 0.54846 0.99878 0.18001 0.0
H795 H 0.53071 0.99906 0.19755 0.0
H796 H 0.55414 0.03585 0.15534 0.0
H797 H 0.53685 0.03646 0.17352 0.0
H798 H 0.56564 0.02914 0.23099 0.0
H799 H 0.54902 0.03216 0.21425 0.0
H800 H 0.53132 0.99423 0.25557 0.0
H801 H 0.51486 0.99681 0.23824 0.0
N802 N 0.50883 0.0147 0.22214 0.0
N803 N 0.51124 0.01899 0.1893 0.0
C804 C 0.54022 0.99821 0.79707 0.0
C805 C 0.53816 0.98946 0.78356 0.0
C806 C 0.529 0.99607 0.80697 0.0
C807 C 0.51549 0.98505 0.80368 0.0
C808 C 0.52463 0.97839 0.7803 0.0
C809 C 0.51338 0.97629 0.79019 0.0
C810 C 0.50349 0.98333 0.81357 0.0
C811 C 0.52967 0.97359 0.84742 0.0
C812 C 0.53552 0.98299 0.86061 0.0
C813 C 0.51929 0.97364 0.83766 0.0
C814 C 0.51461 0.98313 0.84088 0.0
C815 C 0.53069 0.99236 0.86387 0.0
C816 C 0.52029 0.99236 0.85418 0.0
C817 C 0.50346 0.98324 0.83092 0.0
C818 C 0.44677 0.97542 0.84821 0.0
C819 C 0.45077 0.98521 0.86104 0.0
C820 C 0.45688 0.97487 0.83834 0.0
C821 C 0.47114 0.9841 0.84114 0.0
C822 C 0.46506 0.99432 0.86388 0.0
C823 C 0.47513 0.99371 0.8541 0.0
C824 C 0.48207 0.98364 0.83105 0.0
C825 C 0.46043 0.99892 0.79747 0.0
C826 C 0.4535 0.99005 0.78413 0.0
C827 C 0.46955 0.99673 0.80719 0.0
C828 C 0.47182 0.98554 0.80392 0.0
C829 C 0.4558 0.97885 0.78086 0.0
C830 C 0.46497 0.97669 0.7906 0.0
C831 C 0.48204 0.98366 0.8137 0.0
H832 H 0.55052 0.00676 0.79998 0.0
H833 H 0.53087 0.00321 0.81703 0.0
H834 H 0.5227 0.97157 0.76986 0.0
H835 H 0.503 0.96785 0.7873 0.0
H836 H 0.53319 0.96626 0.84458 0.0
H837 H 0.51485 0.96619 0.82771 0.0
H838 H 0.53479 0.99956 0.8741 0.0
H839 H 0.51675 0.99968 0.85701 0.0
H840 H 0.43584 0.96827 0.84573 0.0
H841 H 0.45355 0.96716 0.82863 0.0
H842 H 0.46848 0.00181 0.87384 0.0
H843 H 0.48606 0.00085 0.85659 0.0
H844 H 0.45883 0.00758 0.80039 0.0
H845 H 0.47499 0.00395 0.81712 0.0
H846 H 0.45075 0.97195 0.77056 0.0
H847 H 0.46674 0.96812 0.78771 0.0
N848 N 0.49272 0.98344 0.80564 0.0
N849 N 0.49279 0.98348 0.83894 0.0
C850 C 0.00326 0.54254 0.79856 0.0
C851 C 0.01205 0.54918 0.78507 0.0
C852 C 0.00476 0.53276 0.80783 0.0
C853 C 0.01519 0.5295 0.80396 0.0
C854 C 0.02236 0.54572 0.78105 0.0
C855 C 0.02385 0.53592 0.79037 0.0
C856 C 0.0166 0.51886 0.81351 0.0
C857 C 0.02742 0.55454 0.8485 0.0
C858 C 0.01883 0.55097 0.86249 0.0
C859 C 0.02678 0.54415 0.83809 0.0
C860 C 0.01737 0.52998 0.84132 0.0
C861 C 0.00949 0.53679 0.86571 0.0
C862 C 0.00881 0.52643 0.85527 0.0
C863 C 0.01685 0.51873 0.83086 0.0
C864 C 0.02635 0.47075 0.84636 0.0
C865 C 0.01704 0.46488 0.85961 0.0
C866 C 0.02617 0.48108 0.83662 0.0
C867 C 0.01665 0.4857 0.83993 0.0
C868 C 0.00758 0.4696 0.86292 0.0
C869 C 0.00746 0.47995 0.85325 0.0
C870 C 0.01659 0.49699 0.8302 0.0
C871 C 0.00249 0.46075 0.79552 0.0
C872 C 0.01151 0.46324 0.78216 0.0
C873 C 0.00418 0.47172 0.80562 0.0
C874 C 0.015 0.48541 0.80265 0.0
C875 C 0.02233 0.47696 0.7792 0.0
C876 C 0.02397 0.48796 0.78928 0.0
C877 C 0.01646 0.49717 0.81286 0.0
H878 H 0.99499 0.54468 0.80177 0.0
H879 H 0.99761 0.52759 0.81791 0.0
H880 H 0.02935 0.55068 0.7708 0.0
H881 H 0.03187 0.53345 0.78704 0.0
H882 H 0.03488 0.56536 0.84583 0.0
H883 H 0.03383 0.54718 0.82771 0.0
H884 H 0.00263 0.5337 0.87627 0.0
H885 H 0.00152 0.51559 0.85809 0.0
H886 H 0.03373 0.46732 0.84347 0.0
H887 H 0.03361 0.48559 0.82666 0.0
H888 H 1.00044 0.46548 0.8732 0.0
H889 H 1.00012 0.48345 0.85616 0.0
H890 H 0.9941 0.4503 0.79819 0.0
H891 H 0.9969 0.46953 0.81561 0.0
H892 H 0.02932 0.47924 0.76888 0.0
H893 H 0.03227 0.49846 0.78664 0.0
N894 N 0.01653 0.50813 0.8052 0.0
N895 N 0.01675 0.50775 0.83847 0.0
C896 C 0.5286 0.55833 0.79159 0.0
C897 C 0.53481 0.55323 0.78052 0.0
C898 C 0.51709 0.54912 0.80109 0.0
C899 C 0.51171 0.53463 0.79995 0.0
C900 C 0.52908 0.53869 0.77906 0.0
C901 C 0.5177 0.52954 0.78865 0.0
C902 C 0.49958 0.52456 0.80989 0.0
C903 C 0.5327 0.55054 0.84727 0.0
C904 C 0.52875 0.55738 0.85884 0.0
C905 C 0.52284 0.5406 0.8366 0.0
C906 C 0.50887 0.53752 0.83706 0.0
C907 C 0.51477 0.55429 0.85926 0.0
C908 C 0.50494 0.54443 0.84852 0.0
C909 C 0.49805 0.52618 0.82687 0.0
C910 C 0.45223 0.46986 0.84743 0.0
C911 C 0.44528 0.47374 0.85893 0.0
C912 C 0.46219 0.47977 0.83683 0.0
C913 C 0.4652 0.49371 0.83729 0.0
C914 C 0.44833 0.48771 0.8594 0.0
C915 C 0.45822 0.49759 0.84872 0.0
C916 C 0.47645 0.50454 0.82699 0.0
C917 C 0.44401 0.47368 0.79238 0.0
C918 C 0.44898 0.4671 0.7817 0.0
C919 C 0.45334 0.48543 0.80147 0.0
C920 C 0.4678 0.4907 0.80026 0.0
C921 C 0.46349 0.47275 0.78008 0.0
C922 C 0.47277 0.48441 0.78923 0.0
C923 C 0.47795 0.50292 0.81002 0.0
H924 H 0.53272 0.56944 0.79306 0.0
H925 H 0.51241 0.55335 0.8093 0.0
H926 H 0.53332 0.53434 0.77039 0.0
H927 H 0.51364 0.51841 0.78732 0.0
H928 H 0.54332 0.55249 0.84685 0.0
H929 H 0.52607 0.53507 0.82831 0.0
H930 H 0.51142 0.55945 0.86797 0.0
H931 H 0.4942 0.5421 0.84925 0.0
H932 H 0.45032 0.45926 0.84699 0.0
H933 H 0.46778 0.47658 0.82857 0.0
H934 H 0.4431 0.49101 0.86806 0.0
H935 H 0.4605 0.50832 0.84945 0.0
H936 H 0.43292 0.46962 0.79395 0.0
H937 H 0.44922 0.49035 0.80949 0.0
H938 H 0.46772 0.46818 0.7717 0.0
H939 H 0.48388 0.48838 0.78786 0.0
N940 N 0.48948 0.51297 0.80223 0.0
N941 N 0.4865 0.51615 0.83466 0.0
C942 C 0.65413 0.78693 0.51554 0.0
C943 C 0.64369 0.78024 0.50358 0.0
C944 C 0.65416 0.79706 0.52585 0.0
C945 C 0.64355 0.80052 0.52477 0.0
C946 C 0.63305 0.78368 0.50254 0.0
C947 C 0.63302 0.79374 0.51298 0.0
C948 C 0.64414 0.81208 0.53468 0.0
C949 C 0.64049 0.78048 0.57243 0.0
C950 C 0.6528 0.78498 0.58161 0.0
C951 C 0.63882 0.78983 0.56246 0.0
C952 C 0.64936 0.80389 0.56155 0.0
C953 C 0.66336 0.79908 0.5805 0.0
C954 C 0.66157 0.80844 0.57076 0.0
C955 C 0.64761 0.81404 0.55153 0.0
C956 C 0.64086 0.86266 0.57139 0.0
C957 C 0.65331 0.87065 0.58028 0.0
C958 C 0.63904 0.85142 0.56165 0.0
C959 C 0.64958 0.84788 0.5607 0.0
C960 C 0.66389 0.86711 0.57904 0.0
C961 C 0.66196 0.85575 0.56954 0.0
C962 C 0.64763 0.83565 0.55113 0.0
C963 C 0.65327 0.86803 0.5138 0.0
C964 C 0.64242 0.86378 0.50231 0.0
C965 C 0.65369 0.85836 0.52445 0.0
C966 C 0.64311 0.84427 0.52408 0.0
C967 C 0.63184 0.84969 0.50196 0.0
C968 C 0.63221 0.84004 0.51271 0.0
C969 C 0.64404 0.83368 0.53433 0.0
H970 H 0.66242 0.78448 0.51684 0.0
H971 H 0.66275 0.80247 0.53433 0.0
H972 H 0.62497 0.77894 0.49331 0.0
H973 H 0.62485 0.79637 0.51168 0.0
H974 H 0.63203 0.7698 0.57315 0.0
H975 H 0.6292 0.78615 0.55566 0.0
H976 H 0.67312 0.80293 0.58702 0.0
H977 H 0.66984 0.81925 0.57021 0.0
H978 H 0.63239 0.86489 0.5722 0.0
H979 H 0.6293 0.84532 0.55512 0.0
H980 H 0.67375 0.87316 0.58531 0.0
H981 H 0.67023 0.85321 0.56895 0.0
H982 H 0.66174 0.87874 0.51413 0.0
H983 H 0.66255 0.86184 0.53257 0.0
H984 H 0.62331 0.84611 0.49331 0.0
H985 H 0.62402 0.8292 0.51204 0.0
N986 N 0.64238 0.82194 0.5268 0.0
N987 N 0.64932 0.82579 0.55904 0.0
C988 C 0.14252 0.7783 0.51624 0.0
C989 C 0.13685 0.78221 0.50324 0.0
C990 C 0.15282 0.78846 0.52634 0.0
C991 C 0.15764 0.8027 0.52361 0.0
C992 C 0.14173 0.79647 0.50053 0.0
C993 C 0.15208 0.8066 0.51053 0.0
C994 C 0.1689 0.81367 0.53374 0.0
C995 C 0.13185 0.79236 0.56702 0.0
C996 C 0.13353 0.78544 0.58052 0.0
C997 C 0.14328 0.80133 0.55737 0.0
C998 C 0.15665 0.80347 0.56085 0.0
C999 C 0.14692 0.78758 0.58401 0.0
C1000 C 0.1584 0.79662 0.57434 0.0
C1001 C 0.16887 0.81356 0.55108 0.0
C1002 C 0.21504 0.87108 0.56795 0.0
C1003 C 0.22136 0.86822 0.58119 0.0
C1004 C 0.2052 0.86026 0.55816 0.0
C1005 C 0.20162 0.84636 0.5612 0.0
C1006 C 0.2176 0.85427 0.58439 0.0
C1007 C 0.20778 0.84345 0.57452 0.0
C1008 C 0.19084 0.83479 0.5512 0.0
C1009 C 0.22619 0.8609 0.51607 0.0
C1010 C 0.22236 0.86712 0.5036 0.0
C1011 C 0.21599 0.85052 0.52609 0.0
C1012 C 0.20181 0.8462 0.52379 0.0
C1013 C 0.20814 0.86268 0.50131 0.0
C1014 C 0.19799 0.85228 0.51122 0.0
C1015 C 0.19073 0.83497 0.53385 0.0
H1016 H 0.13895 0.7674 0.51863 0.0
H1017 H 0.15716 0.7852 0.53614 0.0
H1018 H 0.13772 0.79982 0.49047 0.0
H1019 H 0.15572 0.81752 0.50809 0.0
H1020 H 0.12167 0.79086 0.56391 0.0
H1021 H 0.14168 0.80679 0.54734 0.0
H1022 H 0.14858 0.78253 0.59444 0.0
H1023 H 0.16865 0.79828 0.57739 0.0
H1024 H 0.21744 0.88166 0.56539 0.0
H1025 H 0.20021 0.86277 0.54838 0.0
H1026 H 0.22231 0.85173 0.59446 0.0
H1027 H 0.20505 0.83279 0.57724 0.0
H1028 H 0.23706 0.86411 0.51813 0.0
H1029 H 0.21917 0.84578 0.53549 0.0
H1030 H 0.20483 0.86707 0.49163 0.0
H1031 H 0.18711 0.84902 0.50911 0.0
N1032 N 0.17976 0.82442 0.52585 0.0
N1033 N 0.17991 0.82405 0.55913 0.0
C1034 C 0.22595 0.36513 0.51707 0.0
C1035 C 0.22228 0.35527 0.50436 0.0
C1036 C 0.21562 0.36543 0.52676 0.0
C1037 C 0.20144 0.35587 0.52391 0.0
C1038 C 0.20808 0.34573 0.50158 0.0
C1039 C 0.19779 0.34609 0.51118 0.0
C1040 C 0.19023 0.35637 0.53338 0.0
C1041 C 0.21167 0.34278 0.56948 0.0
C1042 C 0.21828 0.35213 0.58253 0.0
C1043 C 0.20267 0.3445 0.55899 0.0
C1044 C 0.20016 0.35566 0.56122 0.0
C1045 C 0.2158 0.36334 0.58471 0.0
C1046 C 0.20672 0.36501 0.57424 0.0
C1047 C 0.18999 0.35699 0.55069 0.0
C1048 C 0.13127 0.34314 0.56453 0.0
C1049 C 0.13319 0.35233 0.57753 0.0
C1050 C 0.14264 0.3447 0.55534 0.0
C1051 C 0.15619 0.3556 0.55877 0.0
C1052 C 0.14679 0.36313 0.5811 0.0
C1053 C 0.15819 0.3647 0.57185 0.0
C1054 C 0.16833 0.35692 0.54947 0.0
C1055 C 0.14265 0.36484 0.51227 0.0
C1056 C 0.13772 0.35525 0.49917 0.0
C1057 C 0.15256 0.36516 0.52322 0.0
C1058 C 0.15759 0.35579 0.52136 0.0
C1059 C 0.14272 0.34584 0.49747 0.0
C1060 C 0.15258 0.34617 0.50837 0.0
C1061 C 0.16863 0.35633 0.53215 0.0
H1062 H 0.23681 0.3726 0.51952 0.0
H1063 H 0.2187 0.37328 0.53627 0.0
H1064 H 0.20489 0.33817 0.49172 0.0
H1065 H 0.18693 0.3387 0.50863 0.0
H1066 H 0.21342 0.33409 0.5674 0.0
H1067 H 0.19746 0.33692 0.5493 0.0
H1068 H 0.22062 0.37061 0.59477 0.0
H1069 H 0.20478 0.37358 0.57632 0.0
H1070 H 0.121 0.33449 0.5617 0.0
H1071 H 0.14085 0.3372 0.54573 0.0
H1072 H 0.14864 0.37041 0.59098 0.0
H1073 H 0.16857 0.37307 0.57486 0.0
H1074 H 0.13914 0.37233 0.51381 0.0
H1075 H 0.15651 0.37291 0.5329 0.0
H1076 H 0.13897 0.33816 0.4877 0.0
H1077 H 0.1563 0.33884 0.50665 0.0
N1078 N 0.17953 0.35602 0.52485 0.0
N1079 N 0.17909 0.35733 0.55806 0.0
C1080 C 0.98574 0.37015 0.05998 0.0
C1081 C 0.99906 0.37306 0.05476 0.0
C1082 C 0.98427 0.37758 0.07305 0.0
C1083 C 0.00392 0.41146 0.09393 0.0
H1084 H 0.97453 0.39507 0.12661 0.0
C1085 C 0.98736 0.42935 0.15749 0.0
C1086 C 0.98914 0.44227 0.15228 0.0
C1087 C 0.98798 0.4201 0.14619 0.0
C1088 C 0.98284 0.39977 0.11763 0.0
H1089 H 0.02126 0.38561 0.05975 0.0
H1090 H 0.01867 0.39841 0.08252 0.0
H1091 H 0.97699 0.38005 0.1063 0.0
H1092 H 0.99221 0.45522 0.13097 0.0
H1093 H 0.99338 0.43921 0.11138 0.0
H1094 H 0.00985 0.43113 0.10519 0.0
C1095 C 0.00936 0.39058 0.07633 0.0
C1096 C 0.98417 0.3912 0.10592 0.0
C1097 C 0.01083 0.38318 0.06331 0.0
C1098 C 0.99115 0.44553 0.13547 0.0
C1099 C 0.9918 0.43633 0.12423 0.0
C1100 C 0.00255 0.42001 0.10553 0.0
C1101 C 0.99609 0.38808 0.08115 0.0
C1102 C 0.99473 0.39697 0.09392 0.0
C1103 C 0.99043 0.4236 0.12946 0.0
C1104 C 0.99196 0.4143 0.11746 0.0
H1105 H 0.97645 0.36242 0.05368 0.0
H1106 H 0.9739 0.37546 0.07639 0.0
H1107 H 0.01205 0.41628 0.08474 0.0
H1108 H 0.98587 0.42656 0.17036 0.0
H1109 H 0.98696 0.4104 0.15061 0.0
C1110 C 0.61854 0.62174 0.06661 0.0
C1111 C 0.62832 0.62051 0.05673 0.0
C1112 C 0.61262 0.61314 0.08026 0.0
C1113 C 0.60489 0.57905 0.09677 0.0
H1114 H 0.5962 0.59272 0.1364 0.0
C1115 C 0.57659 0.54284 0.15182 0.0
C1116 C 0.56546 0.54403 0.15842 0.0
C1117 C 0.58595 0.55282 0.14078 0.0
C1118 C 0.59851 0.58873 0.12539 0.0
H1119 H 0.63981 0.60946 0.05378 0.0
H1120 H 0.62953 0.59449 0.07771 0.0
H1121 H 0.60964 0.60906 0.1146 0.0
H1122 H 0.5558 0.55694 0.15915 0.0
H1123 H 0.57199 0.57423 0.1398 0.0
H1124 H 0.59354 0.55869 0.10743 0.0
C1125 C 0.62633 0.60203 0.07474 0.0
C1126 C 0.6062 0.59809 0.11289 0.0
C1127 C 0.63227 0.61066 0.06107 0.0
C1128 C 0.56417 0.55564 0.15413 0.0
C1129 C 0.57354 0.56564 0.14318 0.0
C1130 C 0.59722 0.56969 0.10928 0.0
C1131 C 0.61632 0.60307 0.0844 0.0
C1132 C 0.60928 0.59334 0.09831 0.0
C1133 C 0.58444 0.56426 0.1362 0.0
C1134 C 0.59372 0.57439 0.12362 0.0
H1135 H 0.61523 0.6292 0.06365 0.0
H1136 H 0.60481 0.61411 0.08728 0.0
H1137 H 0.60692 0.575 0.08563 0.0
H1138 H 0.57782 0.53397 0.15481 0.0
H1139 H 0.59432 0.55153 0.13574 0.0
C1140 C 0.37789 0.99354 0.06295 0.0
C1141 C 0.37848 0.00529 0.05551 0.0
C1142 C 0.38709 0.9951 0.07555 0.0
C1143 C 0.41109 0.0196 0.10664 0.0
H1144 H 0.42842 0.99661 0.10335 0.0
C1145 C 0.45705 0.02749 0.14828 0.0
C1146 C 0.45714 0.01544 0.15364 0.0
C1147 C 0.44721 0.02654 0.1368 0.0
C1148 C 0.42355 0.00298 0.10461 0.0
H1149 H 0.38893 0.02792 0.05595 0.0
H1150 H 0.40505 0.03063 0.07802 0.0
H1151 H 0.41157 0.99445 0.08277 0.0
H1152 H 0.44684 0.99292 0.15107 0.0
H1153 H 0.4295 0.99122 0.13153 0.0
H1154 H 0.42308 0.02808 0.12857 0.0
C1155 C 0.3974 0.0202 0.07408 0.0
C1156 C 0.41389 0.00175 0.09278 0.0
C1157 C 0.3882 0.01865 0.06139 0.0
C1158 C 0.44701 0.00241 0.1474 0.0
C1159 C 0.43716 0.00145 0.13599 0.0
C1160 C 0.42075 0.02079 0.11855 0.0
C1161 C 0.3971 0.00844 0.08108 0.0
C1162 C 0.40749 0.00998 0.09369 0.0
C1163 C 0.43721 0.0135 0.13041 0.0
C1164 C 0.42704 0.01244 0.11772 0.0
H1165 H 0.37048 0.98309 0.05884 0.0
H1166 H 0.38641 0.98582 0.0809 0.0
H1167 H 0.40626 0.02601 0.10774 0.0
H1168 H 0.46459 0.03769 0.15296 0.0
H1169 H 0.44762 0.03605 0.1327 0.0
C1170 C 0.38095 0.00587 0.96213 0.0
C1171 C 0.37101 0.99397 0.97064 0.0
C1172 C 0.38833 0.00462 0.94894 0.0
C1173 C 0.3891 0.97988 0.91881 0.0
H1174 H 0.42892 0.00604 0.91915 0.0
C1175 C 0.42881 0.97364 0.87796 0.0
C1176 C 0.44019 0.98588 0.87167 0.0
C1177 C 0.41947 0.97441 0.88897 0.0
C1178 C 0.41779 0.99878 0.91869 0.0
H1179 H 0.36064 0.97135 0.97147 0.0
H1180 H 0.37366 0.9692 0.94845 0.0
H1181 H 0.41414 0.00773 0.94006 0.0
H1182 H 0.45024 0.00846 0.87127 0.0
H1183 H 0.43392 0.00981 0.89029 0.0
H1184 H 0.39285 0.97088 0.89743 0.0
C1185 C 0.37565 0.97949 0.95197 0.0
C1186 C 0.40931 0.99975 0.93071 0.0
C1187 C 0.36824 0.98073 0.9652 0.0
C1188 C 0.44174 0.99886 0.87616 0.0
C1189 C 0.43239 0.99963 0.88708 0.0
C1190 C 0.39762 0.97893 0.90672 0.0
C1191 C 0.386 0.99145 0.94392 0.0
C1192 C 0.39486 0.99035 0.93091 0.0
C1193 C 0.42129 0.98743 0.89386 0.0
C1194 C 0.41207 0.9884 0.90651 0.0
H1195 H 0.38327 0.01622 0.96586 0.0
H1196 H 0.39603 0.01402 0.94279 0.0
H1197 H 0.37799 0.97255 0.91856 0.0
H1198 H 0.42741 0.96349 0.87482 0.0
H1199 H 0.41112 0.96482 0.89406 0.0
C1200 C 0.99961 0.37719 0.96084 0.0
C1201 C 0.01127 0.37857 0.96939 0.0
C1202 C 0.0013 0.38573 0.94742 0.0
C1203 C 0.02614 0.41987 0.92967 0.0
H1204 H 0.00123 0.40583 0.89226 0.0
C1205 C 0.03003 0.4555 0.87557 0.0
C1206 C 0.0173 0.45409 0.87023 0.0
C1207 C 0.0302 0.44574 0.88633 0.0
C1208 C 0.00822 0.40992 0.90266 0.0
H1209 H 0.03391 0.38982 0.9702 0.0
H1210 H 0.03685 0.40468 0.94664 0.0
H1211 H 1.00004 0.38966 0.91336 0.0
H1212 H 0.99479 0.44106 0.87155 0.0
H1213 H 0.99508 0.42415 0.89044 0.0
H1214 H 0.03416 0.44017 0.9191 0.0
C1215 C 0.02639 0.39707 0.95048 0.0
C1216 C 0.00754 0.40066 0.91476 0.0
C1217 C 0.0247 0.38849 0.96393 0.0
C1218 C 0.00476 0.44252 0.87558 0.0
C1219 C 0.00494 0.43275 0.88626 0.0
C1220 C 0.02684 0.42914 0.91756 0.0
C1221 C 0.01469 0.39588 0.94217 0.0
C1222 C 0.01632 0.40554 0.92856 0.0
C1223 C 0.01765 0.43431 0.89191 0.0
C1224 C 0.01772 0.42431 0.90405 0.0
H1225 H 0.98911 0.36967 0.96469 0.0
H1226 H 0.99206 0.38464 0.94148 0.0
H1227 H 0.03294 0.42402 0.94023 0.0
H1228 H 0.03986 0.46434 0.87177 0.0
H1229 H 0.04017 0.44717 0.89034 0.0
C1230 C 0.61702 0.61704 0.96393 0.0
C1231 C 0.61736 0.62826 0.97253 0.0
C1232 C 0.60798 0.6109 0.95068 0.0
C1233 C 0.59288 0.60376 0.91815 0.0
H1234 H 0.55522 0.59755 0.9216 0.0
C1235 C 0.55267 0.57699 0.86615 0.0
C1236 C 0.53901 0.56718 0.87096 0.0
C1237 C 0.56245 0.58579 0.87773 0.0
C1238 C 0.56568 0.59914 0.92046 0.0
H1239 H 0.60863 0.642 0.97364 0.0
H1240 H 0.593 0.63141 0.9503 0.0
H1241 H 0.572 0.61021 0.94325 0.0
H1242 H 0.52492 0.5589 0.89173 0.0
H1243 H 0.54197 0.57406 0.91194 0.0
H1244 H 0.5864 0.59216 0.89574 0.0
C1245 C 0.59958 0.62721 0.95402 0.0
C1246 C 0.57537 0.60657 0.93279 0.0
C1247 C 0.6086 0.63334 0.96734 0.0
C1248 C 0.5353 0.56649 0.88758 0.0
C1249 C 0.54508 0.57522 0.89917 0.0
C1250 C 0.58318 0.59628 0.90587 0.0
C1251 C 0.59908 0.61584 0.94559 0.0
C1252 C 0.58905 0.60882 0.9319 0.0
C1253 C 0.55882 0.58493 0.89443 0.0
C1254 C 0.56939 0.59371 0.90696 0.0
H1255 H 0.62357 0.61281 0.9676 0.0
H1256 H 0.60774 0.60202 0.94469 0.0
H1257 H 0.60338 0.60547 0.91693 0.0
H1258 H 0.55579 0.57789 0.8534 0.0
H1259 H 0.57285 0.59329 0.87359 0.0
C1260 C 1.00062 0.62292 0.96061 0.0
C1261 C 0.01184 0.63252 0.97032 0.0
C1262 C 0.00285 0.61613 0.94748 0.0
C1263 C 0.02731 0.60496 0.93348 0.0
H1264 H 0.00581 0.59595 0.89326 0.0
C1265 C 0.02059 0.57423 0.86787 0.0
C1266 C 0.01974 0.56191 0.87388 0.0
C1267 C 0.02098 0.58427 0.87869 0.0
C1268 C 0.01203 0.59851 0.90433 0.0
H1269 H 0.03431 0.64287 0.97341 0.0
H1270 H 0.0382 0.631 0.9504 0.0
H1271 H 0.0042 0.61152 0.91333 0.0
H1272 H 0.01906 0.5507 0.89598 0.0
H1273 H 0.01957 0.56809 0.9148 0.0
H1274 H 0.03506 0.59188 0.92455 0.0
C1275 C 0.02765 0.62865 0.9531 0.0
C1276 C 0.01099 0.60733 0.9159 0.0
C1277 C 0.02542 0.63551 0.96623 0.0
C1278 C 0.01955 0.55999 0.89094 0.0
C1279 C 0.02001 0.57005 0.90174 0.0
C1280 C 0.0283 0.59612 0.92194 0.0
C1281 C 0.01636 0.61873 0.94373 0.0
C1282 C 0.01846 0.61048 0.93072 0.0
C1283 C 0.02065 0.58227 0.89575 0.0
C1284 C 0.0205 0.5926 0.90735 0.0
H1285 H 0.99002 0.62039 0.96337 0.0
H1286 H 0.9939 0.60844 0.94064 0.0
H1287 H 0.03311 0.60708 0.94482 0.0
H1288 H 0.02067 0.57597 0.85479 0.0
H1289 H 0.02157 0.59363 0.8737 0.0
C1290 C 0.36831 0.39273 0.96594 0.0
C1291 C 0.37352 0.38412 0.97129 0.0
C1292 C 0.37452 0.40184 0.95272 0.0
C1293 C 0.39532 0.42635 0.93196 0.0
H1294 H 0.41044 0.41585 0.89516 0.0
C1295 C 0.43581 0.46697 0.88752 0.0
C1296 C 0.43535 0.46339 0.87088 0.0
C1297 C 0.42698 0.45708 0.89895 0.0
C1298 C 0.40613 0.41892 0.90522 0.0
H1299 H 0.38927 0.37824 0.96672 0.0
H1300 H 0.40018 0.39422 0.94397 0.0
H1301 H 0.39698 0.39864 0.91608 0.0
H1302 H 0.42491 0.44672 0.85311 0.0
H1303 H 0.40935 0.42946 0.87302 0.0
H1304 H 0.40432 0.44658 0.92097 0.0
C1305 C 0.39116 0.3938 0.94977 0.0
C1306 C 0.39856 0.40909 0.91735 0.0
C1307 C 0.38493 0.38467 0.96293 0.0
C1308 C 0.42565 0.44975 0.86588 0.0
C1309 C 0.41675 0.43986 0.8773 0.0
C1310 C 0.40285 0.43617 0.91979 0.0
C1311 C 0.3861 0.40257 0.94455 0.0
C1312 C 0.39323 0.41273 0.93101 0.0
C1313 C 0.4174 0.44335 0.89402 0.0
C1314 C 0.40853 0.43265 0.90638 0.0
H1315 H 0.3595 0.39253 0.97206 0.0
H1316 H 0.37024 0.40832 0.94889 0.0
H1317 H 0.39147 0.42957 0.94236 0.0
H1318 H 0.44331 0.47733 0.89181 0.0
H1319 H 0.42796 0.46009 0.91174 0.0
C1320 C 0.61338 0.97764 0.96451 0.0
C1321 C 0.62328 0.99118 0.96966 0.0
C1322 C 0.60469 0.97567 0.95109 0.0
C1323 C 0.60058 0.99379 0.91497 0.0
H1324 H 0.56118 0.96703 0.92008 0.0
C1325 C 0.55802 0.99562 0.87621 0.0
C1326 C 0.54647 0.98297 0.87113 0.0
C1327 C 0.56798 0.99568 0.88678 0.0
C1328 C 0.57218 0.97439 0.91832 0.0
H1329 H 0.63204 0.01324 0.96442 0.0
H1330 H 0.61686 0.0098 0.94125 0.0
H1331 H 0.57763 0.96874 0.94109 0.0
H1332 H 0.53643 0.96043 0.87301 0.0
H1333 H 0.55392 0.96054 0.8914 0.0
H1334 H 0.59507 0.99966 0.89239 0.0
C1335 C 0.61588 0.00069 0.94742 0.0
C1336 C 0.58162 0.97537 0.93037 0.0
C1337 C 0.62454 0.00266 0.96081 0.0
C1338 C 0.54526 0.97035 0.87661 0.0
C1339 C 0.5552 0.97041 0.88727 0.0
C1340 C 0.59114 0.99283 0.90295 0.0
C1341 C 0.60574 0.98718 0.94251 0.0
C1342 C 0.59591 0.98524 0.92897 0.0
C1343 C 0.56662 0.98309 0.89257 0.0
C1344 C 0.5768 0.98328 0.90461 0.0
H1345 H 0.61216 0.96856 0.97101 0.0
H1346 H 0.5971 0.96512 0.9475 0.0
H1347 H 0.61155 0.00133 0.91335 0.0
H1348 H 0.55934 0.00551 0.87206 0.0
H1349 H 0.57656 0.00563 0.89075 0.0
C1350 C 0.61861 0.99424 0.06279 0.0
C1351 C 0.62949 0.00568 0.05456 0.0
C1352 C 0.61181 0.99629 0.07606 0.0
C1353 C 0.60449 0.02257 0.09429 0.0
H1354 H 0.59142 0.99686 0.131 0.0
C1355 C 0.57495 0.02886 0.14954 0.0
C1356 C 0.56295 0.01663 0.15476 0.0
C1357 C 0.5842 0.0282 0.1383 0.0
C1358 C 0.59494 0.00408 0.12079 0.0
H1359 H 0.64195 0.02828 0.05415 0.0
H1360 H 0.63017 0.03185 0.07748 0.0
H1361 H 0.60584 0.99465 0.10984 0.0
H1362 H 0.55128 0.99408 0.1521 0.0
H1363 H 0.56746 0.99293 0.13271 0.0
H1364 H 0.59348 0.03193 0.10523 0.0
C1365 C 0.62677 0.02129 0.07348 0.0
C1366 C 0.60319 0.00282 0.10864 0.0
C1367 C 0.63359 0.01923 0.06016 0.0
C1368 C 0.56053 0.0037 0.14861 0.0
C1369 C 0.56981 0.00304 0.13746 0.0
C1370 C 0.59628 0.02388 0.10649 0.0
C1371 C 0.61571 0.00983 0.0815 0.0
C1372 C 0.60789 0.01191 0.0951 0.0
C1373 C 0.5817 0.01528 0.1321 0.0
C1374 C 0.59123 0.01451 0.11975 0.0
H1375 H 0.61514 0.98365 0.05882 0.0
H1376 H 0.60321 0.98723 0.08175 0.0
H1377 H 0.60776 0.02964 0.08394 0.0
H1378 H 0.57726 0.03898 0.1542 0.0
H1379 H 0.59336 0.0378 0.13456 0.0
C1380 C 0.98273 0.6135 0.05924 0.0
C1381 C 0.99632 0.62395 0.05502 0.0
C1382 C 0.98051 0.60447 0.07235 0.0
C1383 C 0.9806 0.58116 0.09206 0.0
H1384 H 0.00198 0.59379 0.13237 0.0
C1385 C 0.98734 0.54398 0.13546 0.0
C1386 C 0.98685 0.54581 0.15246 0.0
C1387 C 0.98722 0.55358 0.12446 0.0
C1388 C 0.99581 0.59011 0.12127 0.0
H1389 H 0.01819 0.63339 0.06166 0.0
H1390 H 0.0143 0.61763 0.08442 0.0
H1391 H 0.00403 0.61087 0.11196 0.0
H1392 H 0.98576 0.55913 0.17128 0.0
H1393 H 0.98552 0.57597 0.152 0.0
H1394 H 0.97248 0.56041 0.10128 0.0
C1395 C 0.00535 0.61646 0.07768 0.0
C1396 C 0.99709 0.59988 0.10951 0.0
C1397 C 0.00758 0.62544 0.06454 0.0
C1398 C 0.98607 0.5574 0.15824 0.0
C1399 C 0.98605 0.56709 0.14722 0.0
C1400 C 0.97938 0.5714 0.10377 0.0
C1401 C 0.99181 0.60574 0.08159 0.0
C1402 C 0.98964 0.5955 0.09468 0.0
C1403 C 0.98666 0.56529 0.1302 0.0
C1404 C 0.98712 0.57574 0.1184 0.0
H1405 H 0.97381 0.61208 0.05222 0.0
H1406 H 0.96993 0.59642 0.07519 0.0
H1407 H 0.97481 0.57743 0.08072 0.0
H1408 H 0.98778 0.53507 0.13062 0.0
H1409 H 0.98785 0.55197 0.11145 0.0
C1410 C 0.39146 0.37161 0.06005 0.0
C1411 C 0.38082 0.37445 0.05566 0.0
C1412 C 0.40014 0.37837 0.07347 0.0
C1413 C 0.4131 0.41061 0.09776 0.0
H1414 H 0.42574 0.39241 0.12829 0.0
C1415 C 0.44589 0.43984 0.15393 0.0
C1416 C 0.45745 0.43827 0.15755 0.0
C1417 C 0.43587 0.43105 0.14261 0.0
C1418 C 0.4224 0.39766 0.11977 0.0
H1419 H 0.37061 0.38619 0.06241 0.0
H1420 H 0.38561 0.39782 0.08579 0.0
H1421 H 0.40942 0.37878 0.10643 0.0
H1422 H 0.46736 0.42598 0.15248 0.0
H1423 H 0.44991 0.41067 0.13252 0.0
H1424 H 0.42614 0.42948 0.11081 0.0
C1425 C 0.38742 0.39057 0.0787 0.0
C1426 C 0.41305 0.38985 0.10727 0.0
C1427 C 0.37877 0.38383 0.06532 0.0
C1428 C 0.45851 0.42738 0.15002 0.0
C1429 C 0.4485 0.4186 0.1386 0.0
C1430 C 0.42244 0.41839 0.11019 0.0
C1431 C 0.39837 0.38813 0.08276 0.0
C1432 C 0.40825 0.39624 0.09616 0.0
C1433 C 0.4372 0.42051 0.13453 0.0
C1434 C 0.42717 0.41203 0.12141 0.0
H1435 H 0.39332 0.36443 0.05288 0.0
H1436 H 0.40853 0.37632 0.07623 0.0
H1437 H 0.40987 0.41593 0.08919 0.0
H1438 H 0.44464 0.44797 0.15978 0.0
H1439 H 0.42713 0.43261 0.14007 0.0
C1440 C 0.64345 0.70146 0.39572 0.0
C1441 C 0.65719 0.70564 0.39079 0.0
C1442 C 0.64094 0.70788 0.40911 0.0
C1443 C 0.65825 0.73027 0.44553 0.0
H1444 H 0.62948 0.7404 0.44147 0.0
C1445 C 0.65719 0.77266 0.48555 0.0
C1446 C 0.64428 0.77021 0.49179 0.0
C1447 C 0.65785 0.76347 0.47428 0.0
C1448 C 0.63742 0.73748 0.44289 0.0
H1449 H 0.67905 0.71975 0.39627 0.0
H1450 H 0.67469 0.73102 0.41929 0.0
H1451 H 0.63225 0.72657 0.41994 0.0
H1452 H 0.62192 0.75597 0.49109 0.0
H1453 H 0.62308 0.74003 0.47113 0.0
H1454 H 0.66368 0.74153 0.46824 0.0
C1455 C 0.66582 0.72263 0.41304 0.0
C1456 C 0.639 0.72952 0.43057 0.0
C1457 C 0.66833 0.71621 0.39972 0.0
C1458 C 0.63203 0.75829 0.4864 0.0
C1459 C 0.63268 0.74914 0.475 0.0
C1460 C 0.65673 0.73828 0.45777 0.0
C1461 C 0.65211 0.71863 0.41786 0.0
C1462 C 0.64959 0.72602 0.4316 0.0
C1463 C 0.64562 0.75163 0.46884 0.0
C1464 C 0.64645 0.74216 0.45647 0.0
H1465 H 0.63462 0.69332 0.38915 0.0
H1466 H 0.63024 0.70442 0.4126 0.0
H1467 H 0.66632 0.72752 0.44692 0.0
H1468 H 0.66683 0.78187 0.48909 0.0
H1469 H 0.66796 0.76582 0.46953 0.0
C1470 C 0.28611 0.95506 0.40029 0.0
C1471 C 0.29549 0.9535 0.39003 0.0
C1472 C 0.28024 0.94646 0.41395 0.0
C1473 C 0.27183 0.91207 0.43021 0.0
H1474 H 0.26458 0.92637 0.47031 0.0
C1475 C 0.2438 0.8764 0.48584 0.0
C1476 C 0.23302 0.87802 0.49273 0.0
C1477 C 0.25315 0.88618 0.47461 0.0
C1478 C 0.26648 0.92221 0.45917 0.0
H1479 H 0.3063 0.94184 0.38637 0.0
H1480 H 0.29611 0.92689 0.41034 0.0
H1481 H 0.27791 0.94246 0.44828 0.0
H1482 H 0.22396 0.89147 0.49378 0.0
H1483 H 0.24015 0.90843 0.47413 0.0
H1484 H 0.26019 0.89178 0.44102 0.0
C1485 C 0.29318 0.93467 0.40766 0.0
C1486 C 0.27411 0.93143 0.44654 0.0
C1487 C 0.29908 0.9433 0.39397 0.0
C1488 C 0.23207 0.88985 0.48855 0.0
C1489 C 0.24144 0.89965 0.47742 0.0
C1490 C 0.26422 0.90285 0.44287 0.0
C1491 C 0.2836 0.93608 0.41774 0.0
C1492 C 0.27665 0.92645 0.43177 0.0
C1493 C 0.25198 0.89784 0.47014 0.0
C1494 C 0.26123 0.90778 0.45738 0.0
H1495 H 0.28309 0.96278 0.39765 0.0
H1496 H 0.27275 0.94771 0.42129 0.0
H1497 H 0.27345 0.90785 0.41895 0.0
H1498 H 0.24475 0.86736 0.48874 0.0
H1499 H 0.26124 0.88457 0.46932 0.0
C1500 C 0.04647 0.33014 0.39811 0.0
C1501 C 0.04779 0.34163 0.38922 0.0
C1502 C 0.05545 0.33207 0.41112 0.0
C1503 C 0.08085 0.35811 0.44015 0.0
H1504 H 0.09628 0.33337 0.44003 0.0
C1505 C 0.11618 0.35652 0.49212 0.0
C1506 C 0.12759 0.3551 0.48707 0.0
C1507 C 0.10628 0.35555 0.4807 0.0
C1508 C 0.09213 0.34041 0.4402 0.0
H1509 H 0.05928 0.36423 0.38754 0.0
H1510 H 0.07504 0.36759 0.41025 0.0
H1511 H 0.07902 0.33034 0.41956 0.0
H1512 H 0.13794 0.35235 0.46592 0.0
H1513 H 0.1207 0.35057 0.44612 0.0
H1514 H 0.09422 0.36831 0.46073 0.0
C1515 C 0.06698 0.35708 0.40716 0.0
C1516 C 0.08211 0.33857 0.42858 0.0
C1517 C 0.05798 0.35515 0.39409 0.0
C1518 C 0.1291 0.35314 0.4703 0.0
C1519 C 0.11922 0.35214 0.45893 0.0
C1520 C 0.09086 0.35991 0.45188 0.0
C1521 C 0.06599 0.34554 0.41559 0.0
C1522 C 0.07637 0.34741 0.42836 0.0
C1523 C 0.10759 0.35312 0.46402 0.0
C1524 C 0.09669 0.35114 0.45194 0.0
H1525 H 0.03867 0.31958 0.3948 0.0
H1526 H 0.05426 0.32298 0.41756 0.0
H1527 H 0.07656 0.36504 0.44036 0.0
H1528 H 0.11466 0.35795 0.50496 0.0
H1529 H 0.09738 0.35628 0.485 0.0
C1530 C 0.03801 0.31374 0.29976 0.0
C1531 C 0.04091 0.32723 0.30425 0.0
C1532 C 0.04498 0.3118 0.28652 0.0
C1533 C 0.07762 0.33095 0.26287 0.0
H1534 H 0.05972 0.30018 0.23211 0.0
C1535 C 0.1072 0.32742 0.20688 0.0
C1536 C 0.10581 0.31433 0.20336 0.0
C1537 C 0.09833 0.32862 0.21814 0.0
C1538 C 0.06489 0.30876 0.24069 0.0
H1539 H 0.05298 0.34918 0.29784 0.0
H1540 H 0.06493 0.34577 0.27475 0.0
H1541 H 0.04588 0.30292 0.25373 0.0
H1542 H 0.09373 0.29218 0.20855 0.0
H1543 H 0.07822 0.29428 0.22835 0.0
H1544 H 0.09662 0.33675 0.25005 0.0
C1545 C 0.0575 0.33671 0.28165 0.0
C1546 C 0.05696 0.31032 0.25307 0.0
C1547 C 0.05057 0.33865 0.29486 0.0
C1548 C 0.095 0.30239 0.21092 0.0
C1549 C 0.08611 0.3036 0.22226 0.0
C1550 C 0.08552 0.32939 0.25054 0.0
C1551 C 0.05498 0.3233 0.2775 0.0
C1552 C 0.06324 0.32149 0.26426 0.0
C1553 C 0.08785 0.31677 0.22622 0.0
C1554 C 0.07926 0.31832 0.23925 0.0
H1555 H 0.03063 0.3047 0.30672 0.0
H1556 H 0.04286 0.30134 0.28371 0.0
H1557 H 0.08287 0.33948 0.2715 0.0
H1558 H 0.11526 0.33678 0.20101 0.0
H1559 H 0.09975 0.33889 0.22062 0.0
C1560 C 0.68903 0.72336 0.30197 0.0
C1561 C 0.67523 0.71356 0.30636 0.0
C1562 C 0.69174 0.73203 0.28834 0.0
C1563 C 0.67564 0.736 0.25026 0.0
H1564 H 0.70248 0.77536 0.25546 0.0
C1565 C 0.67645 0.77833 0.20846 0.0
C1566 C 0.68939 0.78986 0.20412 0.0
C1567 C 0.67573 0.7684 0.21959 0.0
C1568 C 0.69512 0.76437 0.25369 0.0
H1569 H 0.65348 0.70501 0.29959 0.0
H1570 H 0.65821 0.72016 0.27601 0.0
H1571 H 0.69944 0.75911 0.27737 0.0
H1572 H 0.71175 0.79983 0.20783 0.0
H1573 H 0.7105 0.78237 0.22717 0.0
H1574 H 0.6711 0.74131 0.22671 0.0
C1575 C 0.66696 0.72107 0.28297 0.0
C1576 C 0.69337 0.75504 0.26626 0.0
C1577 C 0.66424 0.71243 0.29659 0.0
C1578 C 0.70163 0.79103 0.21085 0.0
C1579 C 0.7009 0.7811 0.22205 0.0
C1580 C 0.67737 0.74532 0.2377 0.0
C1581 C 0.68072 0.73107 0.27876 0.0
C1582 C 0.68345 0.74077 0.26481 0.0
C1583 C 0.68792 0.76975 0.22668 0.0
C1584 C 0.68697 0.75966 0.23937 0.0
H1585 H 0.69774 0.72448 0.30919 0.0
H1586 H 0.70248 0.73951 0.28532 0.0
H1587 H 0.66808 0.72504 0.24862 0.0
H1588 H 0.66684 0.77704 0.20335 0.0
H1589 H 0.66555 0.75987 0.22299 0.0
C1590 C 0.28546 0.9533 0.29578 0.0
C1591 C 0.28466 0.96311 0.30607 0.0
C1592 C 0.27638 0.94744 0.28252 0.0
C1593 C 0.24172 0.93965 0.26832 0.0
H1594 H 0.25366 0.9306 0.22759 0.0
C1595 C 0.20344 0.89725 0.22413 0.0
C1596 C 0.20568 0.89931 0.20713 0.0
C1597 C 0.2131 0.90679 0.23523 0.0
C1598 C 0.25017 0.93321 0.23878 0.0
H1599 H 0.27385 0.97472 0.31016 0.0
H1600 H 0.258 0.9645 0.28691 0.0
H1601 H 0.27096 0.94452 0.24834 0.0
H1602 H 0.2197 0.91318 0.18846 0.0
H1603 H 0.23659 0.92998 0.20792 0.0
H1604 H 0.22094 0.92828 0.25881 0.0
C1605 C 0.2656 0.96126 0.28925 0.0
C1606 C 0.26007 0.94106 0.25076 0.0
C1607 C 0.27473 0.96716 0.30253 0.0
C1608 C 0.21766 0.91133 0.20149 0.0
C1609 C 0.22738 0.92088 0.21263 0.0
C1610 C 0.23183 0.93179 0.25636 0.0
C1611 C 0.26623 0.95122 0.27919 0.0
C1612 C 0.25593 0.94414 0.2658 0.0
C1613 C 0.22526 0.91866 0.22963 0.0
C1614 C 0.2359 0.92824 0.24159 0.0
H1615 H 0.29298 0.94994 0.29812 0.0
H1616 H 0.27703 0.93961 0.27517 0.0
H1617 H 0.23816 0.94175 0.2798 0.0
H1618 H 0.19422 0.88819 0.22888 0.0
H1619 H 0.2112 0.90466 0.24823 0.0
C1620 C 0.69263 0.96621 0.30028 0.0
C1621 C 0.67888 0.96256 0.30454 0.0
C1622 C 0.69523 0.96005 0.2867 0.0
C1623 C 0.67893 0.9398 0.24869 0.0
H1624 H 0.70493 0.92624 0.25451 0.0
C1625 C 0.6782 0.89668 0.20821 0.0
C1626 C 0.69096 0.89768 0.2038 0.0
C1627 C 0.67783 0.90628 0.21908 0.0
C1628 C 0.6978 0.93015 0.25257 0.0
H1629 H 0.65712 0.94979 0.29758 0.0
H1630 H 0.66164 0.939 0.27414 0.0
H1631 H 0.70237 0.94013 0.27608 0.0
H1632 H 0.71339 0.90968 0.20716 0.0
H1633 H 0.71276 0.92655 0.2261 0.0
H1634 H 0.67412 0.92952 0.22535 0.0
C1635 C 0.67045 0.94674 0.28113 0.0
C1636 C 0.69634 0.93813 0.26493 0.0
C1637 C 0.66785 0.95287 0.29468 0.0
C1638 C 0.70339 0.90869 0.21024 0.0
C1639 C 0.70302 0.91827 0.2212 0.0
C1640 C 0.68037 0.9318 0.23635 0.0
C1641 C 0.68415 0.95013 0.27707 0.0
C1642 C 0.6867 0.94284 0.26327 0.0
C1643 C 0.69022 0.91709 0.22585 0.0
C1644 C 0.68964 0.92668 0.23826 0.0
H1645 H 0.70138 0.97367 0.30757 0.0
H1646 H 0.70592 0.96301 0.28379 0.0
H1647 H 0.6716 0.94348 0.24687 0.0
H1648 H 0.66845 0.8884 0.20332 0.0
H1649 H 0.66778 0.90499 0.22253 0.0
C1650 C 0.03457 0.72602 0.30369 0.0
C1651 C 0.03914 0.71644 0.30692 0.0
C1652 C 0.03998 0.7352 0.2904 0.0
C1653 C 0.06078 0.75949 0.26934 0.0
H1654 H 0.06951 0.74825 0.2279 0.0
C1655 C 0.10221 0.79844 0.2248 0.0
C1656 C 0.09993 0.79633 0.20782 0.0
C1657 C 0.09281 0.78869 0.23593 0.0
C1658 C 0.06696 0.75153 0.2393 0.0
H1659 H 0.0527 0.70878 0.29837 0.0
H1660 H 0.06218 0.72481 0.27534 0.0
H1661 H 0.05636 0.73068 0.24874 0.0
H1662 H 0.0858 0.78252 0.18919 0.0
H1663 H 0.06926 0.76542 0.20873 0.0
H1664 H 0.07152 0.78036 0.25999 0.0
C1665 C 0.05432 0.72515 0.28298 0.0
C1666 C 0.05957 0.74148 0.25132 0.0
C1667 C 0.04895 0.71602 0.29628 0.0
C1668 C 0.0878 0.78444 0.20221 0.0
C1669 C 0.0784 0.77461 0.21339 0.0
C1670 C 0.06821 0.76954 0.25736 0.0
C1671 C 0.05003 0.73497 0.27999 0.0
C1672 C 0.05662 0.74539 0.2666 0.0
C1673 C 0.0809 0.77656 0.23037 0.0
C1674 C 0.07163 0.76572 0.24233 0.0
H1675 H 0.02698 0.7266 0.3116 0.0
H1676 H 0.03635 0.74254 0.28833 0.0
H1677 H 0.05877 0.76288 0.28101 0.0
H1678 H 0.11138 0.80758 0.22949 0.0
H1679 H 0.09514 0.79046 0.24891 0.0
C1680 C 0.2782 0.31263 0.30155 0.0
C1681 C 0.28804 0.32637 0.30615 0.0
C1682 C 0.26952 0.31012 0.28798 0.0
C1683 C 0.26566 0.32678 0.25033 0.0
H1684 H 0.22629 0.29983 0.25516 0.0
C1685 C 0.2235 0.32631 0.20849 0.0
C1686 C 0.21206 0.31339 0.2039 0.0
C1687 C 0.23335 0.32696 0.21969 0.0
C1688 C 0.23728 0.30723 0.25349 0.0
H1689 H 0.2966 0.34821 0.29983 0.0
H1690 H 0.28144 0.34383 0.27636 0.0
H1691 H 0.24246 0.30259 0.27705 0.0
H1692 H 0.20215 0.291 0.20729 0.0
H1693 H 0.21947 0.29212 0.22674 0.0
H1694 H 0.26043 0.33161 0.22691 0.0
C1695 C 0.28052 0.33498 0.2831 0.0
C1696 C 0.24657 0.30881 0.26605 0.0
C1697 C 0.28916 0.33749 0.29666 0.0
C1698 C 0.21089 0.30111 0.21049 0.0
C1699 C 0.22073 0.30176 0.22176 0.0
C1700 C 0.25638 0.3252 0.23779 0.0
C1701 C 0.27051 0.32128 0.27866 0.0
C1702 C 0.26084 0.31877 0.26474 0.0
C1703 C 0.23201 0.31471 0.22661 0.0
C1704 C 0.24205 0.31556 0.23932 0.0
H1705 H 0.27708 0.30381 0.30855 0.0
H1706 H 0.26203 0.29943 0.28478 0.0
H1707 H 0.27662 0.33435 0.24879 0.0
H1708 H 0.22478 0.33596 0.2035 0.0
H1709 H 0.24182 0.33712 0.22327 0.0
C1710 C 0.28722 0.33243 0.40075 0.0
C1711 C 0.29702 0.34358 0.39113 0.0
C1712 C 0.28114 0.33488 0.41447 0.0
C1713 C 0.27301 0.3608 0.43179 0.0
H1714 H 0.26444 0.33797 0.47085 0.0
C1715 C 0.24414 0.36752 0.48733 0.0
C1716 C 0.23309 0.35506 0.49366 0.0
C1717 C 0.25364 0.36719 0.4762 0.0
C1718 C 0.26671 0.34439 0.46001 0.0
H1719 H 0.30834 0.36613 0.38865 0.0
H1720 H 0.29777 0.37042 0.4127 0.0
H1721 H 0.27807 0.33553 0.44884 0.0
H1722 H 0.22371 0.33253 0.49383 0.0
H1723 H 0.24014 0.33193 0.47434 0.0
H1724 H 0.26143 0.36947 0.44283 0.0
C1725 C 0.29469 0.35975 0.40949 0.0
C1726 C 0.27452 0.34299 0.44739 0.0
C1727 C 0.3008 0.35729 0.39575 0.0
C1728 C 0.23202 0.34231 0.48903 0.0
C1729 C 0.24153 0.34197 0.47799 0.0
C1730 C 0.26522 0.36221 0.44443 0.0
C1731 C 0.2847 0.34856 0.41894 0.0
C1732 C 0.27755 0.35099 0.43299 0.0
C1733 C 0.25235 0.35439 0.47126 0.0
C1734 C 0.26176 0.35385 0.45856 0.0
H1735 H 0.28404 0.32173 0.39757 0.0
H1736 H 0.27335 0.326 0.42131 0.0
H1737 H 0.27501 0.36701 0.42081 0.0
H1738 H 0.2452 0.37751 0.49058 0.0
H1739 H 0.26193 0.37694 0.47136 0.0
C1740 C 0.67094 0.95208 0.39741 0.0
C1741 C 0.6601 0.95233 0.38872 0.0
C1742 C 0.66801 0.94302 0.41065 0.0
C1743 C 0.65982 0.92775 0.44309 0.0
H1744 H 0.62867 0.89 0.4393 0.0
C1745 C 0.64617 0.8875 0.49501 0.0
C1746 C 0.64259 0.8739 0.4902 0.0
C1747 C 0.64709 0.89724 0.48341 0.0
C1748 C 0.63745 0.90048 0.44053 0.0
H1749 H 0.63764 0.94344 0.38743 0.0
H1750 H 0.63253 0.92778 0.41073 0.0
H1751 H 0.63291 0.90684 0.41768 0.0
H1752 H 0.63714 0.85984 0.46943 0.0
H1753 H 0.63892 0.87682 0.44919 0.0
H1754 H 0.66473 0.92125 0.46557 0.0
C1755 C 0.64331 0.93443 0.4071 0.0
C1756 C 0.63978 0.91021 0.42822 0.0
C1757 C 0.64624 0.94348 0.3938 0.0
C1758 C 0.63972 0.87018 0.47357 0.0
C1759 C 0.64072 0.87992 0.46196 0.0
C1760 C 0.65753 0.91802 0.45536 0.0
C1761 C 0.65416 0.93401 0.41561 0.0
C1762 C 0.6511 0.92392 0.42924 0.0
C1763 C 0.64455 0.89362 0.4667 0.0
C1764 C 0.64641 0.90421 0.45415 0.0
H1765 H 0.68174 0.95871 0.39382 0.0
H1766 H 0.67662 0.94284 0.41671 0.0
H1767 H 0.66852 0.93827 0.44442 0.0
H1768 H 0.64826 0.89063 0.50776 0.0
H1769 H 0.64982 0.90761 0.48755 0.0
C1770 C 0.04877 0.71623 0.40067 0.0
C1771 C 0.05043 0.70676 0.39068 0.0
C1772 C 0.05745 0.72247 0.41418 0.0
C1773 C 0.09206 0.73158 0.43047 0.0
H1774 H 0.07785 0.73975 0.47 0.0
C1775 C 0.12755 0.76053 0.48595 0.0
C1776 C 0.12606 0.77156 0.49227 0.0
C1777 C 0.11783 0.75105 0.47477 0.0
C1778 C 0.08198 0.73758 0.45902 0.0
H1779 H 0.06236 0.6962 0.38735 0.0
H1780 H 0.07743 0.70701 0.4111 0.0
H1781 H 0.0617 0.72579 0.44831 0.0
H1782 H 0.11294 0.78099 0.49232 0.0
H1783 H 0.09602 0.76451 0.4728 0.0
H1784 H 0.11238 0.74351 0.44115 0.0
C1785 C 0.06951 0.70974 0.40831 0.0
C1786 C 0.07273 0.7296 0.44657 0.0
C1787 C 0.06082 0.70348 0.39475 0.0
C1788 C 0.11444 0.77267 0.48754 0.0
C1789 C 0.10468 0.76315 0.47648 0.0
C1790 C 0.10131 0.73951 0.44296 0.0
C1791 C 0.068 0.7194 0.41811 0.0
C1792 C 0.07768 0.72673 0.432 0.0
C1793 C 0.10634 0.75233 0.46982 0.0
C1794 C 0.0964 0.74281 0.45725 0.0
H1795 H 0.04091 0.71904 0.39792 0.0
H1796 H 0.05611 0.73003 0.42127 0.0
H1797 H 0.09627 0.72971 0.41935 0.0
H1798 H 0.13645 0.75945 0.48928 0.0
H1799 H 0.11934 0.74275 0.46994 0.0
C1800 C 0.33545 0.05154 0.73116 0.0
C1801 C 0.32462 0.0404 0.72249 0.0
C1802 C 0.3325 0.0577 0.7444 0.0
C1803 C 0.32431 0.0649 0.77686 0.0
H1804 H 0.29312 0.0715 0.77303 0.0
C1805 C 0.31047 0.09179 0.82865 0.0
C1806 C 0.3068 0.10172 0.82375 0.0
C1807 C 0.31154 0.08298 0.81709 0.0
C1808 C 0.30191 0.0698 0.77428 0.0
H1809 H 0.30218 0.02678 0.72126 0.0
H1810 H 0.29704 0.03741 0.74457 0.0
H1811 H 0.29735 0.05875 0.75148 0.0
H1812 H 0.30145 0.11023 0.80286 0.0
H1813 H 0.30347 0.09503 0.78273 0.0
H1814 H 0.32924 0.07647 0.7993 0.0
C1815 C 0.30781 0.04153 0.74092 0.0
C1816 C 0.30423 0.06232 0.762 0.0
C1817 C 0.31077 0.03538 0.72761 0.0
C1818 C 0.30408 0.10254 0.80708 0.0
C1819 C 0.30522 0.09379 0.79553 0.0
C1820 C 0.32203 0.07243 0.7891 0.0
C1821 C 0.31864 0.05285 0.7494 0.0
C1822 C 0.31557 0.05993 0.76303 0.0
C1823 C 0.30905 0.08395 0.80035 0.0
C1824 C 0.3109 0.07513 0.78787 0.0
H1825 H 0.34624 0.05572 0.72754 0.0
H1826 H 0.3411 0.06653 0.75044 0.0
H1827 H 0.33302 0.06309 0.77819 0.0
H1828 H 0.31246 0.09078 0.84143 0.0
H1829 H 0.3143 0.07538 0.82129 0.0
C1830 C 0.96559 0.27508 0.7271 0.0
C1831 C 0.96125 0.28452 0.72224 0.0
C1832 C 0.95935 0.26626 0.74056 0.0
C1833 C 0.93743 0.26136 0.77742 0.0
H1834 H 0.92772 0.22258 0.7734 0.0
C1835 C 0.897 0.21815 0.81949 0.0
C1836 C 0.89971 0.20766 0.82491 0.0
C1837 C 0.90568 0.22802 0.80795 0.0
C1838 C 0.93053 0.23342 0.77483 0.0
H1839 H 0.94706 0.29219 0.72793 0.0
H1840 H 0.93612 0.27675 0.75113 0.0
H1841 H 0.94087 0.23896 0.75153 0.0
H1842 H 0.91398 0.19961 0.82265 0.0
H1843 H 0.92907 0.21679 0.80237 0.0
H1844 H 0.92682 0.25573 0.80055 0.0
C1845 C 0.94448 0.27627 0.74473 0.0
C1846 C 0.93809 0.24282 0.76229 0.0
C1847 C 0.9507 0.28509 0.73132 0.0
C1848 C 0.91145 0.2074 0.81858 0.0
C1849 C 0.92011 0.21726 0.80697 0.0
C1850 C 0.92983 0.25195 0.78991 0.0
C1851 C 0.94864 0.26667 0.74948 0.0
C1852 C 0.94148 0.25688 0.76333 0.0
C1853 C 0.91729 0.22764 0.80147 0.0
C1854 C 0.92614 0.23783 0.78867 0.0
H1855 H 0.97371 0.2744 0.72042 0.0
H1856 H 0.96293 0.25911 0.744 0.0
H1857 H 0.9401 0.27216 0.77879 0.0
H1858 H 0.88793 0.21853 0.82384 0.0
H1859 H 0.90308 0.23574 0.80378 0.0
C1860 C 0.72519 0.68933 0.72829 0.0
C1861 C 0.71579 0.67572 0.72283 0.0
C1862 C 0.73436 0.69152 0.74125 0.0
C1863 C 0.75167 0.67466 0.76165 0.0
H1864 H 0.75936 0.7015 0.79647 0.0
C1865 C 0.78479 0.67797 0.81749 0.0
C1866 C 0.79437 0.69126 0.82364 0.0
C1867 C 0.77495 0.67636 0.80571 0.0
C1868 C 0.75746 0.69409 0.78673 0.0
H1869 H 0.70836 0.65373 0.72712 0.0
H1870 H 0.72429 0.65757 0.74966 0.0
H1871 H 0.74253 0.69825 0.77506 0.0
H1872 H 0.80087 0.71328 0.82235 0.0
H1873 H 0.78394 0.71051 0.8014 0.0
H1874 H 0.76666 0.67059 0.77303 0.0
C1875 C 0.72469 0.66655 0.74379 0.0
C1876 C 0.7478 0.69221 0.77449 0.0
C1877 C 0.7155 0.66436 0.73093 0.0
C1878 C 0.79376 0.7029 0.81777 0.0
C1879 C 0.78393 0.7013 0.80589 0.0
C1880 C 0.76136 0.67659 0.77378 0.0
C1881 C 0.73436 0.68015 0.74895 0.0
C1882 C 0.74473 0.68239 0.76189 0.0
C1883 C 0.77447 0.688 0.79962 0.0
C1884 C 0.76431 0.68624 0.78656 0.0
H1885 H 0.72568 0.69832 0.72234 0.0
H1886 H 0.74174 0.70212 0.7449 0.0
H1887 H 0.74975 0.66722 0.75191 0.0
H1888 H 0.78505 0.66877 0.82153 0.0
H1889 H 0.7677 0.66594 0.80136 0.0
C1890 C 0.70199 0.64605 0.63268 0.0
C1891 C 0.70731 0.65979 0.63845 0.0
C1892 C 0.70822 0.64326 0.61935 0.0
C1893 C 0.73278 0.6602 0.58451 0.0
H1894 H 0.73796 0.62809 0.58781 0.0
C1895 C 0.75973 0.64603 0.53309 0.0
C1896 C 0.76922 0.64182 0.53816 0.0
C1897 C 0.75093 0.64731 0.54447 0.0
C1898 C 0.73666 0.63714 0.58672 0.0
H1899 H 0.72322 0.68139 0.63445 0.0
H1900 H 0.73419 0.6765 0.61146 0.0
H1901 H 0.72504 0.63234 0.6091 0.0
H1902 H 0.77696 0.63575 0.55917 0.0
H1903 H 0.76176 0.6381 0.57899 0.0
H1904 H 0.74491 0.66533 0.56249 0.0
C1905 C 0.72506 0.66789 0.61705 0.0
C1906 C 0.72908 0.63948 0.59883 0.0
C1907 C 0.71881 0.67069 0.63033 0.0
C1908 C 0.76961 0.63879 0.55482 0.0
C1909 C 0.76086 0.64012 0.56619 0.0
C1910 C 0.7404 0.65789 0.57243 0.0
C1911 C 0.71994 0.65413 0.61149 0.0
C1912 C 0.72719 0.65113 0.59799 0.0
C1913 C 0.75146 0.64446 0.56119 0.0
C1914 C 0.74259 0.64642 0.57348 0.0
H1915 H 0.69309 0.63741 0.63858 0.0
H1916 H 0.70387 0.63257 0.61523 0.0
H1917 H 0.73137 0.66918 0.58335 0.0
H1918 H 0.75906 0.64827 0.52031 0.0
H1919 H 0.74367 0.65047 0.54014 0.0
C1920 C 0.35662 0.05812 0.63362 0.0
C1921 C 0.34288 0.04822 0.63811 0.0
C1922 C 0.35916 0.06679 0.62002 0.0
C1923 C 0.34267 0.0708 0.5823 0.0
H1924 H 0.36938 0.11018 0.58777 0.0
C1925 C 0.34297 0.1134 0.54143 0.0
C1926 C 0.35586 0.12498 0.53706 0.0
C1927 C 0.34236 0.10338 0.55233 0.0
C1928 C 0.36205 0.09919 0.58592 0.0
H1929 H 0.32107 0.03946 0.63154 0.0
H1930 H 0.32549 0.05462 0.60803 0.0
H1931 H 0.36658 0.09381 0.60941 0.0
H1932 H 0.37826 0.13496 0.54047 0.0
H1933 H 0.37721 0.11736 0.55943 0.0
H1934 H 0.33793 0.07625 0.55895 0.0
C1935 C 0.33433 0.0556 0.61488 0.0
C1936 C 0.36045 0.08979 0.59833 0.0
C1937 C 0.33178 0.04696 0.62845 0.0
C1938 C 0.36817 0.12612 0.54352 0.0
C1939 C 0.36756 0.11611 0.5545 0.0
C1940 C 0.34426 0.0802 0.5699 0.0
C1941 C 0.34803 0.06573 0.61059 0.0
C1942 C 0.35058 0.07551 0.59679 0.0
C1943 C 0.35463 0.1047 0.55917 0.0
C1944 C 0.35381 0.09454 0.57167 0.0
H1945 H 0.36542 0.05934 0.64074 0.0
H1946 H 0.36985 0.07436 0.61694 0.0
H1947 H 0.33516 0.05984 0.58058 0.0
H1948 H 0.33331 0.11214 0.53652 0.0
H1949 H 0.33223 0.09481 0.55578 0.0
C1950 C 0.94372 0.29831 0.63277 0.0
C1951 C 0.95344 0.29427 0.63742 0.0
C1952 C 0.93535 0.29247 0.61888 0.0
C1953 C 0.93229 0.27277 0.58064 0.0
H1954 H 0.89282 0.26033 0.58454 0.0
C1955 C 0.89084 0.23146 0.5378 0.0
C1956 C 0.87937 0.23287 0.53313 0.0
C1957 C 0.90059 0.24069 0.54907 0.0
C1958 C 0.90386 0.26395 0.58312 0.0
H1959 H 0.96212 0.28109 0.6309 0.0
H1960 H 0.94748 0.27087 0.60688 0.0
H1961 H 0.90855 0.27331 0.60698 0.0
H1962 H 0.86933 0.24529 0.53636 0.0
H1963 H 0.88649 0.26154 0.55597 0.0
H1964 H 0.92753 0.26312 0.55693 0.0
C1965 C 0.94642 0.27866 0.61382 0.0
C1966 C 0.91288 0.27139 0.596 0.0
C1967 C 0.95476 0.28447 0.62769 0.0
C1968 C 0.8781 0.24398 0.53963 0.0
C1969 C 0.88785 0.2532 0.55099 0.0
C1970 C 0.92327 0.26531 0.56777 0.0
C1971 C 0.93653 0.28251 0.6093 0.0
C1972 C 0.92717 0.27569 0.59503 0.0
C1973 C 0.89911 0.25155 0.55599 0.0
C1974 C 0.90891 0.26061 0.56897 0.0
H1975 H 0.94245 0.30586 0.63995 0.0
H1976 H 0.92794 0.29577 0.61563 0.0
H1977 H 0.94328 0.27615 0.57936 0.0
H1978 H 0.89218 0.22309 0.53288 0.0
H1979 H 0.90906 0.23903 0.55276 0.0
C1980 C 0.35344 0.29794 0.63422 0.0
C1981 C 0.33995 0.29501 0.63875 0.0
C1982 C 0.35539 0.29117 0.62079 0.0
C1983 C 0.33627 0.25878 0.59677 0.0
H1984 H 0.36704 0.2769 0.56604 0.0
C1985 C 0.34006 0.22928 0.54086 0.0
C1986 C 0.35321 0.23086 0.53726 0.0
C1987 C 0.33877 0.23812 0.55208 0.0
C1988 C 0.35846 0.27167 0.57461 0.0
H1989 H 0.31802 0.28314 0.6322 0.0
H1990 H 0.32145 0.2715 0.60878 0.0
H1991 H 0.36424 0.29062 0.5878 0.0
H1992 H 0.37537 0.24324 0.54225 0.0
H1993 H 0.37311 0.25867 0.56202 0.0
H1994 H 0.33056 0.23985 0.58387 0.0
C1995 C 0.33049 0.27882 0.61579 0.0
C1996 C 0.35686 0.27953 0.58706 0.0
C1997 C 0.32854 0.28556 0.62918 0.0
C1998 C 0.36511 0.24183 0.54469 0.0
C1999 C 0.36381 0.25067 0.55601 0.0
C2000 C 0.33788 0.25095 0.58439 0.0
C2001 C 0.34389 0.28132 0.61161 0.0
C2002 C 0.3457 0.27317 0.59825 0.0
C2003 C 0.35058 0.24875 0.56007 0.0
C2004 C 0.34895 0.25729 0.57311 0.0
H2005 H 0.36246 0.30517 0.64132 0.0
H2006 H 0.36584 0.29327 0.61795 0.0
H2007 H 0.32775 0.25348 0.60539 0.0
H2008 H 0.33073 0.22108 0.53509 0.0
H2009 H 0.32845 0.23655 0.55462 0.0
C2010 C 0.70351 0.06017 0.63277 0.0
C2011 C 0.7076 0.05041 0.63702 0.0
C2012 C 0.70965 0.06912 0.61941 0.0
C2013 C 0.73182 0.09292 0.59902 0.0
H2014 H 0.7413 0.08085 0.55868 0.0
C2015 C 0.77439 0.13104 0.55488 0.0
C2016 C 0.7721 0.12891 0.53791 0.0
C2017 C 0.76496 0.12134 0.56603 0.0
C2018 C 0.73858 0.08436 0.56978 0.0
H2019 H 0.72101 0.04208 0.63017 0.0
H2020 H 0.73174 0.05771 0.60697 0.0
H2021 H 0.72722 0.06361 0.57946 0.0
H2022 H 0.75801 0.11502 0.5193 0.0
H2023 H 0.74143 0.098 0.53886 0.0
H2024 H 0.74329 0.11367 0.58944 0.0
C2025 C 0.72372 0.05839 0.61389 0.0
C2026 C 0.73064 0.0745 0.58175 0.0
C2027 C 0.71763 0.04949 0.62728 0.0
C2028 C 0.76001 0.11696 0.53232 0.0
C2029 C 0.7506 0.10718 0.5435 0.0
C2030 C 0.73981 0.10277 0.5871 0.0
C2031 C 0.71996 0.06845 0.60995 0.0
C2032 C 0.72734 0.0787 0.59661 0.0
C2033 C 0.75302 0.10924 0.56048 0.0
C2034 C 0.74347 0.09863 0.57246 0.0
H2035 H 0.69577 0.06113 0.63996 0.0
H2036 H 0.7064 0.07664 0.61656 0.0
H2037 H 0.72956 0.09651 0.61038 0.0
H2038 H 0.78353 0.14023 0.55957 0.0
H2039 H 0.76721 0.12317 0.57902 0.0
C2040 C 0.95132 0.66839 0.63036 0.0
C2041 C 0.95125 0.6577 0.63976 0.0
C2042 C 0.94217 0.66522 0.61718 0.0
C2043 C 0.9087 0.63707 0.60081 0.0
H2044 H 0.9199 0.66101 0.56252 0.0
C2045 C 0.86864 0.63715 0.55568 0.0
C2046 C 0.87212 0.63962 0.53895 0.0
C2047 C 0.87846 0.63815 0.56717 0.0
C2048 C 0.91661 0.65407 0.57299 0.0
H2049 H 0.94168 0.63525 0.64235 0.0
H2050 H 0.92585 0.62971 0.61911 0.0
H2051 H 0.93706 0.66477 0.58346 0.0
H2052 H 0.88851 0.64462 0.52111 0.0
H2053 H 0.90561 0.64614 0.54112 0.0
H2054 H 0.8883 0.62621 0.59018 0.0
C2055 C 0.93283 0.64057 0.62215 0.0
C2056 C 0.92643 0.65636 0.58515 0.0
C2057 C 0.94197 0.64374 0.63542 0.0
C2058 C 0.88557 0.64284 0.53394 0.0
C2059 C 0.89538 0.64374 0.54543 0.0
C2060 C 0.89889 0.63472 0.5886 0.0
C2061 C 0.93274 0.65128 0.61295 0.0
C2062 C 0.92256 0.64805 0.59936 0.0
C2063 C 0.892 0.64155 0.56223 0.0
C2064 C 0.90266 0.64334 0.57465 0.0
H2065 H 0.95827 0.67926 0.63335 0.0
H2066 H 0.94225 0.67376 0.6106 0.0
H2067 H 0.90529 0.63052 0.61162 0.0
H2068 H 0.85842 0.63485 0.55996 0.0
H2069 H 0.87553 0.63666 0.58001 0.0
C2070 C 0.961 0.691 0.72348 0.0
C2071 C 0.96229 0.67899 0.72312 0.0
C2072 C 0.95455 0.69357 0.73678 0.0
C2073 C 0.9307 0.67509 0.77191 0.0
H2074 H 0.94037 0.71266 0.78473 0.0
C2075 C 0.90677 0.68714 0.82851 0.0
C2076 C 0.90031 0.69508 0.82505 0.0
C2077 C 0.9154 0.68584 0.81693 0.0
C2078 C 0.93758 0.70212 0.78125 0.0
H2079 H 0.95849 0.66061 0.73674 0.0
H2080 H 0.94793 0.6654 0.76026 0.0
H2081 H 0.95389 0.70922 0.76337 0.0
H2082 H 0.89821 0.70804 0.80654 0.0
H2083 H 0.91374 0.70619 0.78671 0.0
H2084 H 0.91461 0.66808 0.79015 0.0
C2085 C 0.95132 0.67259 0.75003 0.0
C2086 C 0.94525 0.70012 0.76893 0.0
C2087 C 0.9575 0.66988 0.73659 0.0
C2088 C 0.90314 0.70205 0.80986 0.0
C2089 C 0.91199 0.70095 0.79841 0.0
C2090 C 0.92323 0.67711 0.78443 0.0
C2091 C 0.94948 0.68431 0.75019 0.0
C2092 C 0.94182 0.68655 0.76393 0.0
C2093 C 0.91802 0.69266 0.80174 0.0
C2094 C 0.9265 0.69064 0.78909 0.0
H2095 H 0.96451 0.69817 0.71321 0.0
H2096 H 0.95317 0.70258 0.73624 0.0
H2097 H 0.92746 0.66449 0.76824 0.0
H2098 H 0.90515 0.68188 0.84017 0.0
H2099 H 0.92005 0.67949 0.81983 0.0
C2100 C 0.33506 0.28541 0.73168 0.0
C2101 C 0.3239 0.28535 0.72335 0.0
C2102 C 0.33259 0.27641 0.74485 0.0
C2103 C 0.30536 0.24329 0.76289 0.0
H2104 H 0.33086 0.25525 0.79979 0.0
C2105 C 0.29768 0.20748 0.81855 0.0
C2106 C 0.30968 0.20724 0.82379 0.0
C2107 C 0.2987 0.2174 0.80715 0.0
C2108 C 0.32369 0.25173 0.78953 0.0
H2109 H 0.30137 0.27594 0.72263 0.0
H2110 H 0.29706 0.26034 0.74583 0.0
H2111 H 0.33378 0.27201 0.77859 0.0
H2112 H 0.33216 0.21722 0.82089 0.0
H2113 H 0.33394 0.23458 0.80127 0.0
H2114 H 0.29533 0.22297 0.77386 0.0
C2115 C 0.30772 0.26722 0.74197 0.0
C2116 C 0.32537 0.26133 0.77736 0.0
C2117 C 0.3102 0.27623 0.72873 0.0
C2118 C 0.32273 0.21724 0.81743 0.0
C2119 C 0.32375 0.2272 0.80614 0.0
C2120 C 0.30364 0.2337 0.77513 0.0
C2121 C 0.31889 0.26714 0.75012 0.0
C2122 C 0.31637 0.25719 0.76374 0.0
C2123 C 0.31175 0.22737 0.80082 0.0
C2124 C 0.31292 0.23776 0.78845 0.0
H2125 H 0.34575 0.29225 0.72786 0.0
H2126 H 0.34143 0.27649 0.75064 0.0
H2127 H 0.29834 0.23968 0.75249 0.0
H2128 H 0.28748 0.20007 0.82335 0.0
H2129 H 0.28928 0.21736 0.80341 0.0
C2130 C 0.71655 0.05408 0.7302 0.0
C2131 C 0.71723 0.04342 0.72152 0.0
C2132 C 0.7256 0.06089 0.74325 0.0
C2133 C 0.74908 0.05817 0.77328 0.0
H2134 H 0.76643 0.09851 0.77437 0.0
C2135 C 0.7946 0.09301 0.8173 0.0
C2136 C 0.79474 0.1048 0.8241 0.0
C2137 C 0.78479 0.08495 0.80532 0.0
C2138 C 0.76154 0.08724 0.77442 0.0
H2139 H 0.72774 0.0313 0.72013 0.0
H2140 H 0.74359 0.04325 0.74297 0.0
H2141 H 0.74991 0.0854 0.75272 0.0
H2142 H 0.78454 0.11723 0.82364 0.0
H2143 H 0.76724 0.10298 0.80321 0.0
H2144 H 0.76071 0.06004 0.79506 0.0
C2145 C 0.73599 0.04628 0.73966 0.0
C2146 C 0.75208 0.07972 0.76197 0.0
C2147 C 0.72694 0.03947 0.72653 0.0
C2148 C 0.78466 0.10815 0.81884 0.0
C2149 C 0.77485 0.10008 0.80693 0.0
C2150 C 0.75853 0.0657 0.78581 0.0
C2151 C 0.73555 0.05721 0.748 0.0
C2152 C 0.74569 0.0651 0.76127 0.0
C2153 C 0.77488 0.08847 0.79986 0.0
C2154 C 0.76484 0.08034 0.78657 0.0
H2155 H 0.70916 0.05735 0.72677 0.0
H2156 H 0.72483 0.0691 0.7496 0.0
H2157 H 0.74423 0.0469 0.77316 0.0
H2158 H 0.8021 0.09002 0.82119 0.0
H2159 H 0.78519 0.07614 0.80007 0.0
C2160 C 0.05455 0.35409 0.03023 0.0
C2161 C 0.04016 0.34565 0.02736 0.0
C2162 C 0.06213 0.34858 0.03764 0.0
C2163 C 0.05742 0.3206 0.06561 0.0
H2164 H 0.09581 0.33273 0.05384 0.0
C2165 C 0.09605 0.31689 0.10995 0.0
C2166 C 0.1058 0.3135 0.1035 0.0
C2167 C 0.08723 0.319 0.09955 0.0
C2168 C 0.08505 0.32909 0.05718 0.0
H2169 H 0.02255 0.32463 0.02948 0.0
H2170 H 0.03583 0.31498 0.04239 0.0
H2171 H 0.08208 0.3395 0.03679 0.0
H2172 H 0.11377 0.30947 0.08105 0.0
H2173 H 0.09825 0.31299 0.0629 0.0
H2174 H 0.06043 0.31028 0.08608 0.0
C2175 C 0.04121 0.32591 0.03904 0.0
C2176 C 0.07722 0.33309 0.04749 0.0
C2177 C 0.03362 0.33142 0.03153 0.0
C2178 C 0.10631 0.31197 0.08642 0.0
C2179 C 0.09752 0.31412 0.07601 0.0
C2180 C 0.06526 0.31664 0.07534 0.0
C2181 C 0.05551 0.33449 0.04241 0.0
C2182 C 0.06338 0.32909 0.05174 0.0
C2183 C 0.08797 0.3178 0.08244 0.0
C2184 C 0.07924 0.32101 0.07138 0.0
H2185 H 0.05992 0.36509 0.02718 0.0
H2186 H 0.07309 0.35552 0.04021 0.0
H2187 H 0.04683 0.31743 0.06932 0.0
H2188 H 0.09529 0.318 0.12306 0.0
H2189 H 0.0801 0.32195 0.10491 0.0
C2190 C 0.64461 0.695 0.0343 0.0
C2191 C 0.65304 0.68913 0.03073 0.0
C2192 C 0.65033 0.70824 0.04138 0.0
C2193 C 0.67942 0.73242 0.06742 0.0
H2194 H 0.66648 0.75813 0.05609 0.0
C2195 C 0.68423 0.77574 0.11116 0.0
C2196 C 0.68728 0.78866 0.10445 0.0
C2197 C 0.6819 0.76459 0.10098 0.0
C2198 C 0.67035 0.75117 0.05929 0.0
H2199 H 0.67422 0.69277 0.03135 0.0
H2200 H 0.68424 0.71597 0.04377 0.0
H2201 H 0.65918 0.73717 0.0396 0.0
H2202 H 0.6905 0.80006 0.08173 0.0
H2203 H 0.68656 0.78062 0.06394 0.0
H2204 H 0.69047 0.74636 0.08722 0.0
C2205 C 0.67316 0.71024 0.04116 0.0
C2206 C 0.66605 0.73908 0.04993 0.0
C2207 C 0.66744 0.697 0.03395 0.0
C2208 C 0.68827 0.79027 0.0873 0.0
C2209 C 0.68588 0.77909 0.0771 0.0
C2210 C 0.68367 0.74448 0.07683 0.0
C2211 C 0.66463 0.71593 0.04516 0.0
C2212 C 0.67034 0.72946 0.05404 0.0
C2213 C 0.68252 0.76608 0.08382 0.0
C2214 C 0.67901 0.75389 0.07303 0.0
H2215 H 0.63348 0.68923 0.03197 0.0
H2216 H 0.64344 0.71223 0.04447 0.0
H2217 H 0.68283 0.72517 0.071 0.0
H2218 H 0.68354 0.77421 0.12433 0.0
H2219 H 0.67921 0.75467 0.10655 0.0
C2220 C 0.30563 0.9478 0.03382 0.0
C2221 C 0.31009 0.96184 0.03023 0.0
C2222 C 0.29301 0.93951 0.04194 0.0
C2223 C 0.25917 0.93617 0.05343 0.0
H2224 H 0.26141 0.91462 0.08957 0.0
C2225 C 0.21403 0.90656 0.10024 0.0
C2226 C 0.21174 0.89355 0.1058 0.0
C2227 C 0.22561 0.91504 0.0904 0.0
C2228 C 0.26051 0.9204 0.07939 0.0
H2229 H 0.30444 0.978 0.03169 0.0
H2230 H 0.28228 0.96343 0.04591 0.0
H2231 H 0.28201 0.9289 0.07305 0.0
H2232 H 0.21946 0.87898 0.10482 0.0
H2233 H 0.23948 0.8936 0.08756 0.0
H2234 H 0.23758 0.92755 0.05977 0.0
C2235 C 0.2886 0.95888 0.04239 0.0
C2236 C 0.27235 0.92862 0.06992 0.0
C2237 C 0.3013 0.96722 0.03428 0.0
C2238 C 0.22109 0.88907 0.10102 0.0
C2239 C 0.23259 0.89748 0.09113 0.0
C2240 C 0.24725 0.92786 0.06288 0.0
C2241 C 0.2845 0.94503 0.04667 0.0
C2242 C 0.27181 0.93651 0.05675 0.0
C2243 C 0.23511 0.91065 0.08585 0.0
C2244 C 0.24776 0.91978 0.07591 0.0
H2245 H 0.31207 0.94328 0.03078 0.0
H2246 H 0.29001 0.9288 0.04477 0.0
H2247 H 0.25843 0.9421 0.04331 0.0
H2248 H 0.20705 0.91033 0.10382 0.0
H2249 H 0.2273 0.92517 0.0867 0.0
C2250 C 0.33168 0.03092 0.997 0.0
C2251 C 0.34604 0.03643 0.99973 0.0
C2252 C 0.32674 0.03913 0.98977 0.0
C2253 C 0.33742 0.07597 0.97916 0.0
H2254 H 0.30978 0.05903 0.94468 0.0
C2255 C 0.33052 0.10839 0.92907 0.0
C2256 C 0.31687 0.10529 0.92515 0.0
C2257 C 0.3328 0.09964 0.93933 0.0
C2258 C 0.31738 0.06386 0.95442 0.0
H2259 H 0.36642 0.05501 0.99745 0.0
H2260 H 0.35791 0.06913 0.98472 0.0
H2261 H 0.31594 0.04448 0.96121 0.0
H2262 H 0.29492 0.09032 0.92888 0.0
H2263 H 0.29898 0.07482 0.94651 0.0
H2264 H 0.33921 0.09541 0.97194 0.0
C2265 C 0.35038 0.05858 0.98834 0.0
C2266 C 0.32088 0.05553 0.96395 0.0
C2267 C 0.35528 0.05042 0.99558 0.0
C2268 C 0.30556 0.09298 0.93147 0.0
C2269 C 0.30787 0.08412 0.94163 0.0
C2270 C 0.33401 0.08428 0.96955 0.0
C2271 C 0.33607 0.05301 0.98513 0.0
C2272 C 0.33116 0.06153 0.97623 0.0
C2273 C 0.32152 0.08746 0.94582 0.0
C2274 C 0.32415 0.07837 0.95688 0.0
H2275 H 0.32429 0.02018 1.00008 0.0
H2276 H 0.31564 0.03455 0.98767 0.0
H2277 H 0.34513 0.08091 0.98875 0.0
H2278 H 0.3395 0.11756 0.92412 0.0
H2279 H 0.34344 0.10234 0.94207 0.0
C2280 C 0.97394 0.302 0.9949 0.0
C2281 C 0.96824 0.31075 0.99738 0.0
C2282 C 0.96589 0.28875 0.98787 0.0
C2283 C 0.92926 0.26189 0.97798 0.0
H2284 H 0.9465 0.25071 0.94422 0.0
C2285 C 0.89778 0.20977 0.94354 0.0
C2286 C 0.8998 0.21005 0.92648 0.0
C2287 C 0.90686 0.22106 0.95334 0.0
C2288 C 0.94151 0.2537 0.95357 0.0
H2289 H 0.94952 0.31228 0.99481 0.0
H2290 H 0.93561 0.28938 0.98246 0.0
H2291 H 0.96064 0.27224 0.95953 0.0
H2292 H 0.9131 0.22229 0.90637 0.0
H2293 H 0.92885 0.24213 0.9234 0.0
H2294 H 0.91003 0.24375 0.97156 0.0
C2295 C 0.94621 0.29261 0.98611 0.0
C2296 C 0.94966 0.26596 0.96252 0.0
C2297 C 0.95423 0.30581 0.99312 0.0
C2298 C 0.91135 0.22172 0.9195 0.0
C2299 C 0.92039 0.23307 0.92929 0.0
C2300 C 0.92112 0.24968 0.96902 0.0
C2301 C 0.95197 0.28397 0.98319 0.0
C2302 C 0.9436 0.27032 0.97467 0.0
C2303 C 0.91815 0.23298 0.94631 0.0
C2304 C 0.92709 0.2455 0.95655 0.0
H2305 H 0.9847 0.3055 0.99806 0.0
H2306 H 0.9706 0.2823 0.986 0.0
H2307 H 0.92427 0.26482 0.9874 0.0
H2308 H 0.88911 0.20081 0.94931 0.0
H2309 H 0.90498 0.22048 0.96643 0.0
C2310 C 0.69025 0.6415 0.9881 0.0
C2311 C 0.68627 0.65097 0.99398 0.0
C2312 C 0.70287 0.64624 0.9798 0.0
C2313 C 0.73761 0.67664 0.97252 0.0
H2314 H 0.73573 0.65682 0.93241 0.0
C2315 C 0.78526 0.69386 0.9291 0.0
C2316 C 0.78708 0.68311 0.92246 0.0
C2317 C 0.77308 0.69075 0.93775 0.0
C2318 C 0.73649 0.66238 0.94367 0.0
H2319 H 0.69271 0.67292 0.99631 0.0
H2320 H 0.71492 0.68124 0.98183 0.0
H2321 H 0.71458 0.64992 0.9482 0.0
H2322 H 0.77734 0.66065 0.91949 0.0
H2323 H 0.75642 0.65525 0.93487 0.0
H2324 H 0.75961 0.68896 0.96809 0.0
C2325 C 0.70819 0.67013 0.98366 0.0
C2326 C 0.72435 0.65844 0.95271 0.0
C2327 C 0.69547 0.66536 0.99192 0.0
C2328 C 0.77641 0.6692 0.92461 0.0
C2329 C 0.76429 0.6661 0.93326 0.0
C2330 C 0.74982 0.68055 0.9635 0.0
C2331 C 0.71188 0.66058 0.97722 0.0
C2332 C 0.72479 0.66538 0.96735 0.0
C2333 C 0.76244 0.67682 0.93991 0.0
C2334 C 0.74942 0.67334 0.94907 0.0
H2335 H 0.68347 0.63035 0.98954 0.0
H2336 H 0.70554 0.63865 0.97525 0.0
H2337 H 0.73826 0.68215 0.98379 0.0
H2338 H 0.79333 0.70468 0.92778 0.0
H2339 H 0.77195 0.69927 0.94259 0.0
C2340 C 0.971 0.66924 0.99492 0.0
C2341 C 0.96596 0.65488 0.99698 0.0
C2342 C 0.96256 0.67395 0.98784 0.0
C2343 C 0.92568 0.66244 0.97682 0.0
H2344 H 0.94236 0.69131 0.94364 0.0
C2345 C 0.89291 0.67043 0.92807 0.0
C2346 C 0.89605 0.68416 0.9246 0.0
C2347 C 0.90167 0.66792 0.93804 0.0
C2348 C 0.93759 0.68336 0.95303 0.0
H2349 H 0.94797 0.63423 0.99362 0.0
H2350 H 0.93342 0.64237 0.98116 0.0
H2351 H 0.95714 0.68512 0.95964 0.0
H2352 H 0.91104 0.70603 0.92887 0.0
H2353 H 0.92651 0.70159 0.94605 0.0
H2354 H 0.90609 0.6604 0.96984 0.0
C2355 C 0.94379 0.65006 0.98519 0.0
C2356 C 0.94605 0.67984 0.96224 0.0
C2357 C 0.95219 0.64537 0.99226 0.0
C2358 C 0.90837 0.69533 0.93112 0.0
C2359 C 0.91721 0.6928 0.94101 0.0
C2360 C 0.91723 0.66589 0.96755 0.0
C2361 C 0.94891 0.66439 0.98269 0.0
C2362 C 0.94016 0.66915 0.97405 0.0
C2363 C 0.91388 0.67906 0.94469 0.0
C2364 C 0.92305 0.67622 0.95536 0.0
H2365 H 0.98157 0.67683 0.99846 0.0
H2366 H 0.96678 0.68507 0.98629 0.0
H2367 H 0.92082 0.65438 0.98605 0.0
H2368 H 0.88371 0.66157 0.92297 0.0
H2369 H 0.89897 0.65722 0.94038 0.0
C2370 C 0.337 0.30634 0.9915 0.0
C2371 C 0.35137 0.31558 0.99367 0.0
C2372 C 0.33232 0.29362 0.98328 0.0
C2373 C 0.34427 0.27754 0.95254 0.0
H2374 H 0.31367 0.24223 0.96769 0.0
C2375 C 0.33357 0.22557 0.92419 0.0
C2376 C 0.31967 0.21489 0.92199 0.0
C2377 C 0.33665 0.23765 0.93289 0.0
C2378 C 0.3221 0.25204 0.96316 0.0
H2379 H 0.37204 0.31845 0.98948 0.0
H2380 H 0.36389 0.29636 0.97526 0.0
H2381 H 0.32038 0.26354 0.98343 0.0
H2382 H 0.29809 0.20862 0.92731 0.0
H2383 H 0.30348 0.22995 0.94221 0.0
H2384 H 0.346 0.26622 0.93225 0.0
C2385 C 0.35625 0.299 0.9797 0.0
C2386 C 0.32596 0.26423 0.97221 0.0
C2387 C 0.3609 0.31163 0.98796 0.0
C2388 C 0.30891 0.21668 0.92865 0.0
C2389 C 0.312 0.22884 0.93736 0.0
C2390 C 0.34037 0.26542 0.94347 0.0
C2391 C 0.34193 0.28997 0.977 0.0
C2392 C 0.33723 0.27707 0.96712 0.0
C2393 C 0.32593 0.23948 0.93957 0.0
C2394 C 0.32939 0.25247 0.94878 0.0
H2395 H 0.32939 0.30909 0.99576 0.0
H2396 H 0.32123 0.28687 0.98136 0.0
H2397 H 0.3528 0.28733 0.9481 0.0
H2398 H 0.34212 0.22465 0.91904 0.0
H2399 H 0.34751 0.24552 0.93454 0.0
C2400 C 0.69633 0.04876 0.99241 0.0
C2401 C 0.69138 0.03476 0.99673 0.0
C2402 C 0.70952 0.05674 0.98536 0.0
C2403 C 0.73616 0.05328 0.96178 0.0
H2404 H 0.75845 0.09288 0.97102 0.0
C2405 C 0.78056 0.0917 0.91897 0.0
C2406 C 0.79225 0.10317 0.92604 0.0
C2407 C 0.76915 0.08265 0.9287 0.0
C2408 C 0.75249 0.08181 0.96842 0.0
H2409 H 0.69659 0.01827 0.99744 0.0
H2410 H 0.71977 0.03232 0.98529 0.0
H2411 H 0.73734 0.07863 0.98679 0.0
H2412 H 0.80146 0.11371 0.94895 0.0
H2413 H 0.78171 0.09784 0.96595 0.0
H2414 H 0.75141 0.05647 0.94349 0.0
C2415 C 0.71333 0.03704 0.98716 0.0
C2416 C 0.74026 0.07365 0.97734 0.0
C2417 C 0.70009 0.02903 0.99424 0.0
C2418 C 0.7925 0.10511 0.94311 0.0
C2419 C 0.78115 0.09602 0.95284 0.0
C2420 C 0.74843 0.06145 0.95287 0.0
C2421 C 0.71814 0.05096 0.98246 0.0
C2422 C 0.73181 0.05933 0.97397 0.0
C2423 C 0.76922 0.08481 0.94574 0.0
C2424 C 0.75666 0.07586 0.95592 0.0
H2425 H 0.68989 0.0535 0.9941 0.0
H2426 H 0.71276 0.06734 0.98169 0.0
H2427 H 0.72986 0.04231 0.95876 0.0
H2428 H 0.78001 0.09001 0.90584 0.0
H2429 H 0.76009 0.07425 0.92275 0.0
C2430 C 0.64463 0.94761 0.03398 0.0
C2431 C 0.65396 0.96155 0.02969 0.0
C2432 C 0.64934 0.93965 0.04211 0.0
C2433 C 0.66021 0.92981 0.07 0.0
H2434 H 0.69409 0.92923 0.05913 0.0
C2435 C 0.68242 0.90472 0.11311 0.0
C2436 C 0.68635 0.89563 0.10588 0.0
C2437 C 0.67963 0.91345 0.10342 0.0
C2438 C 0.68458 0.92927 0.06227 0.0
H2439 H 0.6757 0.97786 0.02991 0.0
H2440 H 0.68396 0.96388 0.04417 0.0
H2441 H 0.68675 0.94268 0.0421 0.0
H2442 H 0.69082 0.88892 0.08273 0.0
H2443 H 0.68604 0.90426 0.0658 0.0
H2444 H 0.6579 0.91637 0.09002 0.0
C2445 C 0.67298 0.95913 0.04119 0.0
C2446 C 0.68044 0.93704 0.0526 0.0
C2447 C 0.66825 0.96715 0.03306 0.0
C2448 C 0.68794 0.89587 0.08872 0.0
C2449 C 0.68519 0.90466 0.07901 0.0
C2450 C 0.66438 0.92216 0.07969 0.0
C2451 C 0.66351 0.94541 0.04615 0.0
C2452 C 0.66815 0.93731 0.05632 0.0
C2453 C 0.68075 0.91335 0.08624 0.0
C2454 C 0.6766 0.92177 0.07595 0.0
H2455 H 0.63357 0.94292 0.03147 0.0
H2456 H 0.64183 0.92902 0.04549 0.0
H2457 H 0.65078 0.92995 0.07333 0.0
H2458 H 0.68139 0.90503 0.1263 0.0
H2459 H 0.6765 0.92022 0.10939 0.0
C2460 C 0.02946 0.69835 0.03841 0.0
C2461 C 0.03675 0.69292 0.02983 0.0
C2462 C 0.03673 0.71123 0.04646 0.0
C2463 C 0.069 0.74448 0.04807 0.0
H2464 H 0.06448 0.74236 0.09534 0.0
C2465 C 0.10773 0.78894 0.09025 0.0
C2466 C 0.10307 0.791 0.10543 0.0
C2467 C 0.09885 0.77766 0.08029 0.0
C2468 C 0.06569 0.74332 0.08215 0.0
H2469 H 0.05725 0.697 0.02217 0.0
H2470 H 0.06989 0.71977 0.03575 0.0
H2471 H 0.05006 0.72189 0.07859 0.0
H2472 H 0.08552 0.78338 0.12204 0.0
H2473 H 0.06967 0.7641 0.10434 0.0
H2474 H 0.08434 0.76595 0.05139 0.0
C2475 C 0.05859 0.71395 0.03642 0.0
C2476 C 0.05744 0.73152 0.07258 0.0
C2477 C 0.05137 0.70093 0.02872 0.0
C2478 C 0.08931 0.78187 0.11038 0.0
C2479 C 0.0803 0.77077 0.10026 0.0
C2480 C 0.07703 0.7564 0.05759 0.0
C2481 C 0.05136 0.71904 0.04569 0.0
C2482 C 0.05918 0.73194 0.0555 0.0
C2483 C 0.08499 0.76835 0.08516 0.0
C2484 C 0.07569 0.75595 0.07482 0.0
H2485 H 0.0182 0.69235 0.03955 0.0
H2486 H 0.03095 0.71498 0.05354 0.0
H2487 H 0.07045 0.74504 0.03489 0.0
H2488 H 0.11838 0.79584 0.0863 0.0
H2489 H 0.10303 0.77607 0.06898 0.0
C2490 C 0.30377 0.33462 0.03171 0.0
C2491 C 0.31212 0.34903 0.02884 0.0
C2492 C 0.29047 0.32922 0.03871 0.0
C2493 C 0.26272 0.33802 0.04768 0.0
H2494 H 0.25353 0.31221 0.08393 0.0
C2495 C 0.22229 0.33068 0.0968 0.0
C2496 C 0.21321 0.31717 0.10272 0.0
C2497 C 0.2332 0.33314 0.08617 0.0
C2498 C 0.25583 0.31924 0.07367 0.0
H2499 H 0.31287 0.36899 0.03056 0.0
H2500 H 0.28987 0.35965 0.04277 0.0
H2501 H 0.27455 0.31892 0.06775 0.0
H2502 H 0.20844 0.29563 0.10205 0.0
H2503 H 0.22758 0.29993 0.08338 0.0
H2504 H 0.24422 0.33865 0.05388 0.0
C2505 C 0.29346 0.35246 0.03951 0.0
C2506 C 0.26787 0.32307 0.06437 0.0
C2507 C 0.30672 0.35783 0.03259 0.0
C2508 C 0.21523 0.30614 0.09764 0.0
C2509 C 0.22624 0.30862 0.08705 0.0
C2510 C 0.25073 0.33423 0.05699 0.0
C2511 C 0.28524 0.33812 0.04288 0.0
C2512 C 0.27162 0.33275 0.05149 0.0
C2513 C 0.23534 0.32216 0.0812 0.0
C2514 C 0.2473 0.32503 0.07031 0.0
H2515 H 0.30763 0.32756 0.02895 0.0
H2516 H 0.28434 0.31811 0.041 0.0
H2517 H 0.26515 0.34528 0.03764 0.0
H2518 H 0.22092 0.33938 0.10032 0.0
H2519 H 0.24013 0.34372 0.08206 0.0
C2520 C 0.71674 0.69165 0.37186 0.0
C2521 C 0.70302 0.68223 0.3669 0.0
C2522 C 0.72503 0.68686 0.37901 0.0
C2523 C 0.7227 0.65684 0.40152 0.0
H2524 H 0.76264 0.67624 0.39372 0.0
C2525 C 0.76047 0.64094 0.43174 0.0
C2526 C 0.77285 0.65204 0.43824 0.0
C2527 C 0.75157 0.64358 0.42208 0.0
C2528 C 0.75151 0.67076 0.39607 0.0
H2529 H 0.68734 0.66031 0.36522 0.0
H2530 H 0.70194 0.65189 0.37755 0.0
H2531 H 0.74791 0.68246 0.37784 0.0
H2532 H 0.78524 0.67461 0.44008 0.0
H2533 H 0.76991 0.67915 0.42307 0.0
H2534 H 0.72642 0.64517 0.41983 0.0
C2535 C 0.7062 0.66303 0.37609 0.0
C2536 C 0.74306 0.67433 0.38699 0.0
C2537 C 0.69787 0.66784 0.36892 0.0
C2538 C 0.776 0.6658 0.43498 0.0
C2539 C 0.76719 0.66842 0.42524 0.0
C2540 C 0.73118 0.6532 0.41054 0.0
C2541 C 0.71985 0.6725 0.38136 0.0
C2542 C 0.72858 0.66763 0.38983 0.0
C2543 C 0.75492 0.65736 0.4186 0.0
C2544 C 0.74571 0.66032 0.40815 0.0
H2545 H 0.72104 0.7028 0.37056 0.0
H2546 H 0.73539 0.69449 0.38315 0.0
H2547 H 0.71162 0.65155 0.40415 0.0
H2548 H 0.75777 0.63021 0.43383 0.0
H2549 H 0.74222 0.63484 0.41705 0.0
C2550 C 0.30914 0.02697 0.37122 0.0
C2551 C 0.31838 0.02237 0.36631 0.0
C2552 C 0.31409 0.0398 0.3791 0.0
C2553 C 0.34541 0.07384 0.38773 0.0
H2554 H 0.32412 0.07283 0.42613 0.0
C2555 C 0.34867 0.10963 0.44759 0.0
C2556 C 0.35222 0.12238 0.43999 0.0
C2557 C 0.34588 0.09792 0.43823 0.0
C2558 C 0.33027 0.07329 0.41553 0.0
H2559 H 0.34017 0.02796 0.36518 0.0
H2560 H 0.34884 0.05048 0.37904 0.0
H2561 H 0.31666 0.05172 0.41007 0.0
H2562 H 0.35608 0.13293 0.41655 0.0
H2563 H 0.3512 0.11244 0.40016 0.0
H2564 H 0.35909 0.09548 0.39339 0.0
C2565 C 0.33775 0.04411 0.37672 0.0
C2566 C 0.32588 0.06122 0.40619 0.0
C2567 C 0.33278 0.0312 0.36882 0.0
C2568 C 0.35347 0.12329 0.4228 0.0
C2569 C 0.35068 0.11155 0.4134 0.0
C2570 C 0.34977 0.08599 0.39707 0.0
C2571 C 0.32841 0.04839 0.38228 0.0
C2572 C 0.33334 0.06134 0.39214 0.0
C2573 C 0.34657 0.09866 0.42101 0.0
C2574 C 0.34224 0.08583 0.41109 0.0
H2575 H 0.298 0.02049 0.36936 0.0
H2576 H 0.30665 0.04292 0.38293 0.0
H2577 H 0.35135 0.07427 0.37694 0.0
H2578 H 0.34792 0.10865 0.46083 0.0
H2579 H 0.34303 0.08823 0.44448 0.0
C2580 C 0.97057 0.30361 0.36441 0.0
C2581 C 0.97923 0.29789 0.36144 0.0
C2582 C 0.9572 0.29538 0.37109 0.0
C2583 C 0.92994 0.2585 0.37894 0.0
H2584 H 0.91959 0.27413 0.41537 0.0
C2585 C 0.88903 0.22424 0.42697 0.0
C2586 C 0.87967 0.22836 0.43285 0.0
C2587 C 0.9 0.23294 0.41658 0.0
C2588 C 0.92221 0.26967 0.40505 0.0
H2589 H 0.98047 0.27893 0.36267 0.0
H2590 H 0.95736 0.26469 0.37434 0.0
H2591 H 0.94077 0.289 0.39976 0.0
H2592 H 0.87445 0.24484 0.43236 0.0
H2593 H 0.8937 0.26009 0.41412 0.0
H2594 H 0.91159 0.23909 0.38453 0.0
C2595 C 0.96076 0.27547 0.37139 0.0
C2596 C 0.93434 0.27819 0.39608 0.0
C2597 C 0.97408 0.28368 0.36478 0.0
C2598 C 0.88146 0.24135 0.42796 0.0
C2599 C 0.89253 0.25012 0.41762 0.0
C2600 C 0.91785 0.24998 0.38793 0.0
C2601 C 0.95221 0.28124 0.37485 0.0
C2602 C 0.93851 0.27263 0.38314 0.0
C2603 C 0.90193 0.24601 0.41184 0.0
C2604 C 0.914 0.2554 0.4013 0.0
H2605 H 0.97423 0.31453 0.36196 0.0
H2606 H 0.95083 0.3001 0.37344 0.0
H2607 H 0.93269 0.25394 0.36884 0.0
H2608 H 0.88784 0.21423 0.43036 0.0
H2609 H 0.90716 0.22953 0.4125 0.0
C2610 C 0.0273 0.38656 0.32724 0.0
C2611 C 0.01774 0.3725 0.3307 0.0
C2612 C 0.02287 0.39511 0.31999 0.0
C2613 C 0.99491 0.39327 0.29388 0.0
H2614 H 0.01237 0.43269 0.30437 0.0
C2615 C 0.98116 0.43106 0.26012 0.0
C2616 C 0.99265 0.44384 0.25523 0.0
C2617 C 0.98297 0.42213 0.2707 0.0
C2618 C 0.00744 0.42171 0.30125 0.0
H2619 H 0.99591 0.3565 0.32978 0.0
H2620 H 0.9881 0.37151 0.31721 0.0
H2621 H 0.01748 0.41751 0.32104 0.0
H2622 H 0.01499 0.45739 0.25791 0.0
H2623 H 0.01818 0.4418 0.27619 0.0
H2624 H 0.98502 0.39756 0.27393 0.0
C2625 C 0.99908 0.37586 0.31994 0.0
C2626 C 0.01036 0.41301 0.31081 0.0
C2627 C 0.00354 0.36729 0.32724 0.0
C2628 C 0.00595 0.44755 0.26129 0.0
C2629 C 0.00775 0.43869 0.27193 0.0
C2630 C 0.99194 0.40198 0.28435 0.0
C2631 C 0.00874 0.38983 0.31602 0.0
C2632 C 0.00437 0.39873 0.30704 0.0
C2633 C 0.99629 0.42586 0.27674 0.0
C2634 C 0.99841 0.41636 0.28773 0.0
H2635 H 0.03833 0.39093 0.32972 0.0
H2636 H 0.03063 0.40574 0.31695 0.0
H2637 H 0.99023 0.38236 0.29051 0.0
H2638 H 0.97079 0.42787 0.25558 0.0
H2639 H 0.97393 0.41235 0.27425 0.0
C2640 C 0.6155 0.64072 0.32649 0.0
C2641 C 0.62935 0.64529 0.33113 0.0
C2642 C 0.60759 0.62794 0.31852 0.0
C2643 C 0.60498 0.594 0.30903 0.0
H2644 H 0.58466 0.59542 0.27104 0.0
C2645 C 0.57294 0.55899 0.24867 0.0
C2646 C 0.5638 0.5461 0.25603 0.0
C2647 C 0.58168 0.57059 0.25825 0.0
C2648 C 0.59035 0.59485 0.28153 0.0
H2649 H 0.64557 0.6397 0.33172 0.0
H2650 H 0.6317 0.61728 0.31772 0.0
H2651 H 0.59815 0.61632 0.28746 0.0
H2652 H 0.55704 0.5352 0.27926 0.0
H2653 H 0.57238 0.55549 0.29603 0.0
H2654 H 0.59719 0.57246 0.30291 0.0
C2655 C 0.62697 0.62362 0.32031 0.0
C2656 C 0.59795 0.6068 0.29107 0.0
C2657 C 0.63492 0.63647 0.32829 0.0
C2658 C 0.56403 0.54495 0.2732 0.0
C2659 C 0.57282 0.55657 0.28281 0.0
C2660 C 0.59727 0.58197 0.2995 0.0
C2661 C 0.61333 0.61938 0.31499 0.0
C2662 C 0.60532 0.60653 0.30497 0.0
C2663 C 0.58154 0.56959 0.27545 0.0
C2664 C 0.5899 0.58229 0.28561 0.0
H2665 H 0.61083 0.64719 0.3286 0.0
H2666 H 0.59702 0.62485 0.31487 0.0
H2667 H 0.61051 0.59346 0.3197 0.0
H2668 H 0.57325 0.56017 0.23546 0.0
H2669 H 0.58849 0.5804 0.25218 0.0
C2670 C 0.35606 0.97205 0.32091 0.0
C2671 C 0.3529 0.98214 0.3267 0.0
C2672 C 0.36841 0.976 0.31232 0.0
C2673 C 0.40372 0.00507 0.30376 0.0
H2674 H 0.39986 0.98392 0.26415 0.0
C2675 C 0.44984 0.01933 0.2588 0.0
C2676 C 0.45093 0.00809 0.25233 0.0
C2677 C 0.43805 0.01692 0.26784 0.0
C2678 C 0.40118 0.98984 0.27526 0.0
H2679 H 0.36053 0.00438 0.32857 0.0
H2680 H 0.38225 0.01131 0.31356 0.0
H2681 H 0.37932 0.97836 0.28053 0.0
H2682 H 0.44031 0.98553 0.25005 0.0
H2683 H 0.42004 0.98135 0.26609 0.0
H2684 H 0.42566 0.01643 0.29857 0.0
C2685 C 0.3751 1.00032 0.3157 0.0
C2686 C 0.38938 0.98667 0.28464 0.0
C2687 C 0.36266 0.99635 0.32426 0.0
C2688 C 0.43993 0.99443 0.25503 0.0
C2689 C 0.42819 0.99203 0.26406 0.0
C2690 C 0.41557 0.00822 0.29439 0.0
C2691 C 0.37795 0.99015 0.30934 0.0
C2692 C 0.39053 0.99411 0.29911 0.0
C2693 C 0.42707 0.00323 0.27056 0.0
C2694 C 0.41446 0.00051 0.28013 0.0
H2695 H 0.34883 0.96102 0.32265 0.0
H2696 H 0.37043 0.96793 0.30786 0.0
H2697 H 0.40493 0.01095 0.31488 0.0
H2698 H 0.45817 0.02998 0.25707 0.0
H2699 H 0.43747 0.02579 0.27255 0.0
C2700 C 0.61792 0.97392 0.32425 0.0
C2701 C 0.6316 0.98368 0.32903 0.0
C2702 C 0.60935 0.97826 0.31689 0.0
C2703 C 0.61087 0.00735 0.2932 0.0
H2704 H 0.57093 0.98726 0.30098 0.0
C2705 C 0.57206 0.02086 0.26105 0.0
C2706 C 0.55985 0.00936 0.25484 0.0
C2707 C 0.58117 0.01886 0.2711 0.0
C2708 C 0.58206 0.99293 0.29863 0.0
H2709 H 0.64687 0.00576 0.3302 0.0
H2710 H 0.63178 0.01339 0.31746 0.0
H2711 H 0.58605 0.98202 0.31754 0.0
H2712 H 0.54799 0.98672 0.25392 0.0
H2713 H 0.56371 0.98328 0.2716 0.0
H2714 H 0.60677 0.01819 0.27418 0.0
C2715 C 0.62777 0.00233 0.31925 0.0
C2716 C 0.59074 0.98993 0.30811 0.0
C2717 C 0.63639 0.99797 0.32665 0.0
C2718 C 0.5571 0.99583 0.25877 0.0
C2719 C 0.56613 0.99384 0.2689 0.0
C2720 C 0.60217 0.01042 0.28377 0.0
C2721 C 0.61419 0.9925 0.31412 0.0
C2722 C 0.60522 0.99687 0.30528 0.0
C2723 C 0.57821 0.00532 0.27527 0.0
C2724 C 0.58764 0.00302 0.28616 0.0
H2725 H 0.6139 0.96283 0.32585 0.0
H2726 H 0.59906 0.97037 0.31287 0.0
H2727 H 0.62195 0.0128 0.29057 0.0
H2728 H 0.57444 0.03143 0.25844 0.0
H2729 H 0.59038 0.02791 0.2759 0.0
C2730 C 0.0312 0.64475 0.32366 0.0
C2731 C 0.02129 0.64842 0.3287 0.0
C2732 C 0.02707 0.6322 0.31542 0.0
C2733 C 0.99703 0.59743 0.30584 0.0
H2734 H 0.0194 0.60031 0.26773 0.0
C2735 C 0.99612 0.56349 0.2452 0.0
C2736 C 0.9927 0.55066 0.2525 0.0
C2737 C 0.99855 0.57495 0.25484 0.0
C2738 C 0.01296 0.59933 0.27824 0.0
H2739 H 0.99917 0.64149 0.32964 0.0
H2740 H 0.99192 0.61951 0.31513 0.0
H2741 H 0.02565 0.62092 0.2843 0.0
H2742 H 0.98886 0.53976 0.2757 0.0
H2743 H 0.9931 0.55981 0.29255 0.0
H2744 H 0.98424 0.57579 0.29957 0.0
C2745 C 0.00291 0.62636 0.31764 0.0
C2746 C 0.01665 0.61112 0.28788 0.0
C2747 C 0.00706 0.63897 0.32592 0.0
C2748 C 0.99135 0.54945 0.26967 0.0
C2749 C 0.99377 0.56094 0.27933 0.0
C2750 C 0.99335 0.58558 0.2962 0.0
C2751 C 0.01291 0.623 0.31198 0.0
C2752 C 0.00878 0.61032 0.30182 0.0
C2753 C 0.99763 0.57388 0.27203 0.0
C2754 C 0.00128 0.58641 0.28228 0.0
H2755 H 0.04224 0.65172 0.32572 0.0
H2756 H 0.03501 0.62979 0.31152 0.0
H2757 H 0.99078 0.59647 0.31654 0.0
H2758 H 0.99696 0.56469 0.23199 0.0
H2759 H 0.00123 0.58469 0.24881 0.0
C2760 C 0.36109 0.38562 0.32606 0.0
C2761 C 0.35651 0.3717 0.33043 0.0
C2762 C 0.37383 0.39359 0.31802 0.0
C2763 C 0.40763 0.39616 0.30789 0.0
H2764 H 0.4062 0.41712 0.27059 0.0
C2765 C 0.45668 0.43745 0.27243 0.0
C2766 C 0.45551 0.43797 0.25529 0.0
C2767 C 0.44505 0.42858 0.28197 0.0
C2768 C 0.40677 0.41125 0.28088 0.0
H2769 H 0.36202 0.35542 0.33043 0.0
H2770 H 0.38434 0.36939 0.31629 0.0
H2771 H 0.38533 0.40345 0.28701 0.0
H2772 H 0.44137 0.42896 0.23469 0.0
H2773 H 0.42112 0.41358 0.2513 0.0
H2774 H 0.42913 0.40395 0.30157 0.0
C2775 C 0.37805 0.37412 0.31916 0.0
C2776 C 0.39484 0.40354 0.29043 0.0
C2777 C 0.36525 0.36612 0.32722 0.0
C2778 C 0.44257 0.42905 0.24788 0.0
C2779 C 0.43096 0.42022 0.25741 0.0
C2780 C 0.41964 0.40396 0.29836 0.0
C2781 C 0.38231 0.38784 0.31413 0.0
C2782 C 0.39513 0.39595 0.30408 0.0
C2783 C 0.43199 0.42006 0.27458 0.0
C2784 C 0.41932 0.41158 0.28472 0.0
H2785 H 0.35468 0.39031 0.32846 0.0
H2786 H 0.37693 0.40421 0.3146 0.0
H2787 H 0.40819 0.39045 0.31837 0.0
H2788 H 0.46646 0.44427 0.27853 0.0
H2789 H 0.44616 0.42879 0.29518 0.0
C2790 C 0.33397 0.30337 0.36889 0.0
C2791 C 0.31966 0.29791 0.36577 0.0
C2792 C 0.33868 0.29524 0.37678 0.0
C2793 C 0.32586 0.26564 0.40527 0.0
H2794 H 0.35965 0.26504 0.39389 0.0
C2795 C 0.34781 0.23977 0.44747 0.0
C2796 C 0.3518 0.23082 0.43998 0.0
C2797 C 0.34509 0.24866 0.43802 0.0
C2798 C 0.35016 0.26508 0.39717 0.0
H2799 H 0.2992 0.27939 0.36769 0.0
H2800 H 0.30741 0.26526 0.38125 0.0
H2801 H 0.35234 0.27872 0.37727 0.0
H2802 H 0.35649 0.22455 0.41668 0.0
H2803 H 0.35177 0.24015 0.40015 0.0
H2804 H 0.32353 0.25194 0.42498 0.0
C2805 C 0.31497 0.27589 0.3779 0.0
C2806 C 0.34604 0.27299 0.38773 0.0
C2807 C 0.31028 0.28398 0.37004 0.0
C2808 C 0.35354 0.23138 0.42284 0.0
C2809 C 0.35083 0.24032 0.41337 0.0
C2810 C 0.33001 0.25783 0.41471 0.0
C2811 C 0.32916 0.28151 0.38172 0.0
C2812 C 0.33379 0.27327 0.39164 0.0
C2813 C 0.34632 0.24887 0.42084 0.0
C2814 C 0.34219 0.25744 0.41079 0.0
H2815 H 0.34146 0.31407 0.36576 0.0
H2816 H 0.34968 0.29988 0.3796 0.0
H2817 H 0.31647 0.26578 0.40875 0.0
H2818 H 0.34667 0.23983 0.46067 0.0
H2819 H 0.34191 0.25533 0.44418 0.0
C2820 C 0.71973 0.02592 0.3708 0.0
C2821 C 0.70594 0.02139 0.3659 0.0
C2822 C 0.7276 0.03872 0.37873 0.0
C2823 C 0.7304 0.07284 0.38724 0.0
H2824 H 0.75072 0.07198 0.42554 0.0
C2825 C 0.76315 0.10914 0.44655 0.0
C2826 C 0.77228 0.12181 0.43874 0.0
C2827 C 0.75424 0.09732 0.43738 0.0
C2828 C 0.74502 0.0724 0.41497 0.0
H2829 H 0.68979 0.02706 0.36489 0.0
H2830 H 0.7036 0.04953 0.37882 0.0
H2831 H 0.737 0.05077 0.40968 0.0
H2832 H 0.77889 0.13205 0.41511 0.0
H2833 H 0.76328 0.11138 0.39907 0.0
H2834 H 0.73843 0.09454 0.39269 0.0
C2835 C 0.7083 0.04312 0.37646 0.0
C2836 C 0.73729 0.06027 0.40575 0.0
C2837 C 0.70038 0.03025 0.36852 0.0
C2838 C 0.77191 0.1225 0.42153 0.0
C2839 C 0.76297 0.11065 0.41233 0.0
C2840 C 0.73823 0.08505 0.39645 0.0
C2841 C 0.7219 0.04735 0.38197 0.0
C2842 C 0.72994 0.06034 0.39174 0.0
C2843 C 0.75422 0.09786 0.42015 0.0
C2844 C 0.74563 0.08495 0.41042 0.0
H2845 H 0.72438 0.01942 0.36887 0.0
H2846 H 0.73813 0.04179 0.38253 0.0
H2847 H 0.72489 0.07324 0.37648 0.0
H2848 H 0.76294 0.10832 0.4598 0.0
H2849 H 0.74743 0.0877 0.44379 0.0
C2850 C 0.97628 0.69153 0.37283 0.0
C2851 C 0.98079 0.6823 0.36759 0.0
C2852 C 0.96314 0.68649 0.37992 0.0
C2853 C 0.93552 0.65608 0.40185 0.0
H2854 H 0.91479 0.67536 0.39444 0.0
C2855 C 0.88174 0.6401 0.43225 0.0
C2856 C 0.88056 0.65123 0.43895 0.0
C2857 C 0.89328 0.6427 0.42257 0.0
C2858 C 0.92048 0.6699 0.39667 0.0
H2859 H 0.97486 0.66048 0.36537 0.0
H2860 H 0.95172 0.65162 0.37764 0.0
H2861 H 0.9358 0.68178 0.37849 0.0
H2862 H 0.89097 0.6738 0.44123 0.0
H2863 H 0.91085 0.67826 0.42416 0.0
H2864 H 0.92012 0.64424 0.42014 0.0
C2865 C 0.95848 0.6628 0.37642 0.0
C2866 C 0.93253 0.67358 0.38755 0.0
C2867 C 0.9717 0.66786 0.36929 0.0
C2868 C 0.89132 0.66497 0.43595 0.0
C2869 C 0.90275 0.66755 0.42619 0.0
C2870 C 0.92337 0.65231 0.41091 0.0
C2871 C 0.95409 0.67208 0.38192 0.0
C2872 C 0.9404 0.66696 0.39029 0.0
C2873 C 0.90381 0.65646 0.41928 0.0
C2874 C 0.91592 0.65942 0.40868 0.0
H2875 H 0.98302 0.70272 0.37177 0.0
H2876 H 0.96025 0.69397 0.38427 0.0
H2877 H 0.94138 0.65084 0.40438 0.0
H2878 H 0.8736 0.6294 0.43417 0.0
H2879 H 0.89381 0.63395 0.41735 0.0
C2880 C 0.38649 0.02981 0.70412 0.0
C2881 C 0.37272 0.01982 0.69997 0.0
C2882 C 0.39512 0.02588 0.71216 0.0
C2883 C 0.40003 0.99606 0.72235 0.0
H2884 H 0.42113 0.01978 0.75883 0.0
C2885 C 0.43124 0.98178 0.76818 0.0
C2886 C 0.44419 0.99276 0.7735 0.0
C2887 C 0.42235 0.9845 0.75863 0.0
C2888 C 0.41546 0.01313 0.74856 0.0
H2889 H 0.35738 0.99775 0.70044 0.0
H2890 H 0.37252 0.99085 0.71459 0.0
H2891 H 0.40609 0.02548 0.7429 0.0
H2892 H 0.45821 0.01513 0.77238 0.0
H2893 H 0.44282 0.01987 0.75572 0.0
H2894 H 0.4095 0.98372 0.72807 0.0
C2895 C 0.37662 0.00174 0.71154 0.0
C2896 C 0.40682 0.0164 0.73942 0.0
C2897 C 0.36795 0.0057 0.70348 0.0
C2898 C 0.44818 0.00647 0.76877 0.0
C2899 C 0.43934 0.00918 0.75922 0.0
C2900 C 0.40874 0.9928 0.7315 0.0
C2901 C 0.39021 0.01184 0.71629 0.0
C2902 C 0.3991 0.008 0.72612 0.0
C2903 C 0.42624 0.99827 0.75419 0.0
C2904 C 0.41665 0.00137 0.74463 0.0
H2905 H 0.39056 0.04078 0.70149 0.0
H2906 H 0.40562 0.03388 0.71533 0.0
H2907 H 0.39427 0.98943 0.71212 0.0
H2908 H 0.42783 0.97111 0.77172 0.0
H2909 H 0.41229 0.97587 0.75509 0.0
C2910 C 0.99736 0.36255 0.70092 0.0
C2911 C 0.9831 0.35328 0.69809 0.0
C2912 C 0.00177 0.37563 0.70812 0.0
C2913 C 0.98997 0.40107 0.71765 0.0
H2914 H 0.01698 0.4127 0.75294 0.0
C2915 C 0.99588 0.44167 0.766 0.0
C2916 C 0.00938 0.4516 0.77114 0.0
C2917 C 0.99378 0.43065 0.75572 0.0
C2918 C 0.00958 0.40971 0.74296 0.0
H2919 H 0.96234 0.35063 0.70022 0.0
H2920 H 0.96997 0.37323 0.71282 0.0
H2921 H 0.01149 0.39185 0.737 0.0
H2922 H 0.03128 0.45773 0.76955 0.0
H2923 H 0.02761 0.43845 0.75151 0.0
H2924 H 0.98781 0.41873 0.72387 0.0
C2925 C 0.9778 0.37054 0.70934 0.0
C2926 C 0.00645 0.39777 0.73379 0.0
C2927 C 0.97341 0.35751 0.7022 0.0
C2928 C 0.02076 0.45029 0.76571 0.0
C2929 C 0.01865 0.4392 0.7555 0.0
C2930 C 0.99307 0.41296 0.72684 0.0
C2931 C 0.99201 0.37971 0.71257 0.0
C2932 C 0.99641 0.39317 0.72122 0.0
C2933 C 0.00513 0.42926 0.75038 0.0
C2934 C 0.00272 0.41728 0.73978 0.0
H2935 H 0.00509 0.35961 0.69789 0.0
H2936 H 0.01281 0.38251 0.71028 0.0
H2937 H 0.9824 0.39799 0.70784 0.0
H2938 H 0.98691 0.44246 0.76982 0.0
H2939 H 0.98321 0.42309 0.75217 0.0
C2940 C 0.63785 0.63695 0.70026 0.0
C2941 C 0.64691 0.63159 0.69803 0.0
C2942 C 0.62471 0.62876 0.7075 0.0
C2943 C 0.59888 0.592 0.71856 0.0
H2944 H 0.58684 0.60908 0.75159 0.0
C2945 C 0.55783 0.55973 0.76732 0.0
C2946 C 0.5472 0.5629 0.7705 0.0
C2947 C 0.56921 0.56843 0.75744 0.0
C2948 C 0.58999 0.6042 0.74226 0.0
H2949 H 0.64914 0.61332 0.70137 0.0
H2950 H 0.6265 0.59923 0.71414 0.0
H2951 H 0.60796 0.62361 0.73564 0.0
H2952 H 0.5404 0.57792 0.76585 0.0
H2953 H 0.56053 0.59331 0.74887 0.0
H2954 H 0.58117 0.57255 0.72556 0.0
C2955 C 0.62935 0.60964 0.71009 0.0
C2956 C 0.60206 0.61252 0.73307 0.0
C2957 C 0.64242 0.61778 0.70284 0.0
C2958 C 0.54844 0.57521 0.76382 0.0
C2959 C 0.55994 0.58401 0.75404 0.0
C2960 C 0.58691 0.5837 0.72782 0.0
C2961 C 0.62036 0.61504 0.71267 0.0
C2962 C 0.6068 0.60648 0.72131 0.0
C2963 C 0.57037 0.58061 0.75061 0.0
C2964 C 0.58246 0.58967 0.73996 0.0
H2965 H 0.641 0.64755 0.69667 0.0
H2966 H 0.61799 0.6332 0.70912 0.0
H2967 H 0.60202 0.58702 0.70936 0.0
H2968 H 0.55743 0.55055 0.77256 0.0
H2969 H 0.57723 0.56569 0.75529 0.0
C2970 C 0.69071 0.71868 0.6664 0.0
C2971 C 0.68322 0.70415 0.66432 0.0
C2972 C 0.68613 0.72709 0.65908 0.0
C2973 C 0.65616 0.72612 0.63632 0.0
H2974 H 0.68541 0.762 0.62056 0.0
C2975 C 0.6493 0.76103 0.58772 0.0
C2976 C 0.65472 0.7751 0.59229 0.0
C2977 C 0.65165 0.75199 0.59747 0.0
C2978 C 0.67714 0.75204 0.62499 0.0
H2979 H 0.66488 0.68693 0.65331 0.0
H2980 H 0.65719 0.7016 0.63983 0.0
H2981 H 0.6916 0.747 0.63576 0.0
H2982 H 0.66632 0.7904 0.61127 0.0
H2983 H 0.67092 0.77478 0.62774 0.0
H2984 H 0.64179 0.73113 0.62464 0.0
C2985 C 0.66638 0.70657 0.64752 0.0
C2986 C 0.68065 0.74345 0.63385 0.0
C2987 C 0.67081 0.69812 0.6552 0.0
C2988 C 0.6623 0.77978 0.60704 0.0
C2989 C 0.66485 0.77081 0.61659 0.0
C2990 C 0.65268 0.73465 0.62713 0.0
C2991 C 0.67414 0.72122 0.64909 0.0
C2992 C 0.67022 0.73038 0.63977 0.0
C2993 C 0.65964 0.75688 0.61184 0.0
C2994 C 0.66315 0.74771 0.62149 0.0
H2995 H 0.70024 0.72359 0.67353 0.0
H2996 H 0.69216 0.73825 0.66109 0.0
H2997 H 0.6478 0.71627 0.64082 0.0
H2998 H 0.64358 0.75705 0.57638 0.0
H2999 H 0.64761 0.74129 0.5935 0.0
C3000 C 0.28463 0.97383 0.66102 0.0
C3001 C 0.29893 0.97948 0.66431 0.0
C3002 C 0.27687 0.96058 0.65405 0.0
C3003 C 0.28094 0.93578 0.62794 0.0
H3004 H 0.24231 0.91086 0.63996 0.0
C3005 C 0.2416 0.89252 0.58494 0.0
C3006 C 0.23154 0.87977 0.59184 0.0
C3007 C 0.25066 0.90366 0.59495 0.0
C3008 C 0.25314 0.91759 0.63657 0.0
H3009 H 0.3162 0.97543 0.6633 0.0
H3010 H 0.30259 0.95219 0.65109 0.0
H3011 H 0.25642 0.93185 0.65616 0.0
H3012 H 0.22327 0.86868 0.61473 0.0
H3013 H 0.23918 0.8881 0.63222 0.0
H3014 H 0.27761 0.92157 0.60825 0.0
C3015 C 0.29743 0.95811 0.65382 0.0
C3016 C 0.26119 0.9297 0.64576 0.0
C3017 C 0.3052 0.97138 0.66091 0.0
C3018 C 0.23096 0.87833 0.60901 0.0
C3019 C 0.23999 0.8895 0.61904 0.0
C3020 C 0.27287 0.92369 0.61871 0.0
C3021 C 0.28321 0.95264 0.65012 0.0
C3022 C 0.27511 0.93906 0.6414 0.0
C3023 C 0.24985 0.90235 0.61214 0.0
C3024 C 0.25881 0.91456 0.62275 0.0
H3025 H 0.27946 0.97979 0.66348 0.0
H3026 H 0.26599 0.95677 0.65118 0.0
H3027 H 0.29161 0.94281 0.62417 0.0
H3028 H 0.24243 0.89392 0.57175 0.0
H3029 H 0.25802 0.91344 0.58923 0.0
C3030 C 0.02603 0.30753 0.65749 0.0
C3031 C 0.02147 0.31684 0.66224 0.0
C3032 C 0.03877 0.31235 0.64942 0.0
C3033 C 0.07267 0.34361 0.63997 0.0
H3034 H 0.07144 0.32174 0.60205 0.0
C3035 C 0.12199 0.3517 0.60472 0.0
C3036 C 0.12103 0.35031 0.58753 0.0
C3037 C 0.11025 0.3488 0.61416 0.0
C3038 C 0.07196 0.32804 0.61252 0.0
H3039 H 0.02705 0.33863 0.66287 0.0
H3040 H 0.04939 0.34708 0.6487 0.0
H3041 H 0.05046 0.31441 0.61836 0.0
H3042 H 0.1071 0.34549 0.56678 0.0
H3043 H 0.08665 0.34037 0.58322 0.0
H3044 H 0.09422 0.3573 0.63396 0.0
C3045 C 0.04307 0.33604 0.65129 0.0
C3046 C 0.05996 0.32374 0.622 0.0
C3047 C 0.03026 0.33119 0.65937 0.0
C3048 C 0.10815 0.34639 0.58 0.0
C3049 C 0.09643 0.34346 0.58943 0.0
C3050 C 0.08474 0.34788 0.63051 0.0
C3051 C 0.0473 0.32661 0.64588 0.0
C3052 C 0.06017 0.33142 0.63588 0.0
C3053 C 0.09727 0.3444 0.60663 0.0
C3054 C 0.0845 0.34014 0.61666 0.0
H3055 H 0.01958 0.29642 0.65961 0.0
H3056 H 0.04185 0.30486 0.64571 0.0
H3057 H 0.07318 0.34972 0.65063 0.0
H3058 H 0.13171 0.35457 0.61094 0.0
H3059 H 0.11122 0.3495 0.6274 0.0
C3060 C 0.30174 0.33384 0.66386 0.0
C3061 C 0.29596 0.31945 0.66666 0.0
C3062 C 0.29361 0.33905 0.65706 0.0
C3063 C 0.25686 0.32961 0.64853 0.0
H3064 H 0.27297 0.3557 0.61243 0.0
C3065 C 0.22321 0.3364 0.59987 0.0
C3066 C 0.22738 0.34988 0.59404 0.0
C3067 C 0.23179 0.33411 0.61044 0.0
C3068 C 0.26837 0.34859 0.62266 0.0
H3069 H 0.27701 0.29932 0.66501 0.0
H3070 H 0.26296 0.30832 0.65313 0.0
H3071 H 0.28762 0.34928 0.6283 0.0
H3072 H 0.2438 0.37155 0.5948 0.0
H3073 H 0.25885 0.36754 0.61335 0.0
H3074 H 0.23752 0.32861 0.6426 0.0
C3075 C 0.2737 0.31565 0.6563 0.0
C3076 C 0.27678 0.34492 0.63178 0.0
C3077 C 0.2818 0.31046 0.66303 0.0
C3078 C 0.24028 0.36106 0.59916 0.0
C3079 C 0.24893 0.35874 0.60967 0.0
C3080 C 0.24846 0.33324 0.6394 0.0
C3081 C 0.27953 0.32997 0.65301 0.0
C3082 C 0.27104 0.33515 0.6446 0.0
C3083 C 0.24478 0.34523 0.61541 0.0
C3084 C 0.25405 0.34253 0.62614 0.0
H3085 H 0.31262 0.34105 0.66653 0.0
H3086 H 0.29838 0.35015 0.65483 0.0
H3087 H 0.25217 0.32227 0.65854 0.0
H3088 H 0.21326 0.32759 0.59631 0.0
H3089 H 0.22835 0.32355 0.61447 0.0
C3090 C 0.67164 0.97585 0.65415 0.0
C3091 C 0.68416 0.98229 0.66307 0.0
C3092 C 0.66719 0.96299 0.64639 0.0
C3093 C 0.68149 0.94048 0.63205 0.0
H3094 H 0.64258 0.9138 0.62343 0.0
C3095 C 0.66313 0.88569 0.60546 0.0
C3096 C 0.65534 0.88258 0.59085 0.0
C3097 C 0.66574 0.89729 0.61494 0.0
C3098 C 0.65348 0.92121 0.62575 0.0
H3099 H 0.70135 0.97995 0.67184 0.0
H3100 H 0.69324 0.95723 0.65926 0.0
H3101 H 0.64865 0.9347 0.63968 0.0
H3102 H 0.64389 0.88922 0.57513 0.0
H3103 H 0.64804 0.90918 0.59214 0.0
H3104 H 0.68621 0.92671 0.61853 0.0
C3105 C 0.68713 0.96231 0.65747 0.0
C3106 C 0.65699 0.93323 0.63498 0.0
C3107 C 0.69173 0.97529 0.66487 0.0
C3108 C 0.64978 0.89113 0.58636 0.0
C3109 C 0.65219 0.90261 0.59605 0.0
C3110 C 0.67795 0.92836 0.62314 0.0
C3111 C 0.67503 0.95615 0.64767 0.0
C3112 C 0.67108 0.94308 0.63824 0.0
C3113 C 0.66039 0.90591 0.61026 0.0
C3114 C 0.66393 0.91865 0.61986 0.0
H3115 H 0.66565 0.98109 0.65246 0.0
H3116 H 0.6579 0.95873 0.63885 0.0
H3117 H 0.69245 0.94792 0.6338 0.0
H3118 H 0.66725 0.87918 0.60964 0.0
H3119 H 0.67196 0.89954 0.62597 0.0
C3120 C 0.02984 0.70111 0.65913 0.0
C3121 C 0.02052 0.7061 0.66182 0.0
C3122 C 0.04271 0.70953 0.65137 0.0
C3123 C 0.05938 0.73943 0.62302 0.0
H3124 H 0.09413 0.74173 0.63628 0.0
C3125 C 0.11162 0.78044 0.59536 0.0
C3126 C 0.12133 0.77629 0.59105 0.0
C3127 C 0.09981 0.77169 0.60462 0.0
C3128 C 0.08447 0.74108 0.63232 0.0
H3129 H 0.0177 0.72406 0.65914 0.0
H3130 H 0.04006 0.7387 0.64587 0.0
H3131 H 0.07267 0.72677 0.65157 0.0
H3132 H 0.12637 0.75976 0.5934 0.0
H3133 H 0.10563 0.74439 0.60957 0.0
H3134 H 0.07102 0.75361 0.60378 0.0
C3135 C 0.03736 0.72821 0.64942 0.0
C3136 C 0.07219 0.73252 0.64109 0.0
C3137 C 0.02456 0.71983 0.65714 0.0
C3138 C 0.11912 0.76329 0.5966 0.0
C3139 C 0.10725 0.7545 0.60588 0.0
C3140 C 0.07159 0.74793 0.61428 0.0
C3141 C 0.04647 0.72308 0.64612 0.0
C3142 C 0.05953 0.73174 0.63664 0.0
C3143 C 0.09736 0.75853 0.60981 0.0
C3144 C 0.08433 0.74901 0.61892 0.0
H3145 H 0.02704 0.69057 0.66258 0.0
H3146 H 0.04948 0.70526 0.64896 0.0
H3147 H 0.04975 0.73881 0.619 0.0
H3148 H 0.11316 0.79051 0.59161 0.0
H3149 H 0.09259 0.77528 0.60775 0.0
C3150 C 0.97208 0.61632 0.70612 0.0
C3151 C 0.98208 0.62978 0.70091 0.0
C3152 C 0.97615 0.60781 0.71422 0.0
C3153 C 0.98669 0.59693 0.74134 0.0
H3154 H 0.01841 0.59308 0.72851 0.0
C3155 C 0.00716 0.56901 0.78274 0.0
C3156 C 0.01024 0.55944 0.7751 0.0
C3157 C 0.00469 0.57814 0.77339 0.0
C3158 C 0.00949 0.59402 0.7322 0.0
H3159 H 0.00425 0.64466 0.69957 0.0
H3160 H 0.01137 0.62973 0.71381 0.0
H3161 H 0.01201 0.60754 0.71204 0.0
H3162 H 0.01338 0.55217 0.75158 0.0
H3163 H 0.00912 0.56817 0.73527 0.0
H3164 H 0.98399 0.58332 0.76133 0.0
C3165 C 1.00038 0.62577 0.71154 0.0
C3166 C 0.0059 0.60239 0.72285 0.0
C3167 C 0.9963 0.63433 0.70342 0.0
C3168 C 0.01118 0.5595 0.75788 0.0
C3169 C 0.00873 0.56867 0.74852 0.0
C3170 C 0.9903 0.58865 0.7507 0.0
C3171 C 0.99031 0.61253 0.71734 0.0
C3172 C 0.99439 0.60385 0.72726 0.0
C3173 C 0.00527 0.57797 0.75616 0.0
C3174 C 0.00172 0.58706 0.74625 0.0
H3175 H 0.96104 0.61242 0.70428 0.0
H3176 H 0.96815 0.59756 0.71822 0.0
H3177 H 0.97788 0.59799 0.74522 0.0
H3178 H 0.00664 0.56945 0.79598 0.0
H3179 H 0.00231 0.58535 0.77968 0.0
C3180 C 0.38308 0.35777 0.70624 0.0
C3181 C 0.36963 0.35397 0.7006 0.0
C3182 C 0.39113 0.37037 0.71449 0.0
C3183 C 0.3961 0.40533 0.72201 0.0
H3184 H 0.41361 0.40293 0.7621 0.0
C3185 C 0.42683 0.45276 0.76556 0.0
C3186 C 0.43917 0.45427 0.77246 0.0
C3187 C 0.41773 0.44068 0.75681 0.0
C3188 C 0.40895 0.40385 0.75085 0.0
H3189 H 0.35433 0.36072 0.69864 0.0
H3190 H 0.36856 0.38292 0.71302 0.0
H3191 H 0.3992 0.38191 0.74621 0.0
H3192 H 0.45143 0.44407 0.77575 0.0
H3193 H 0.43591 0.42334 0.76015 0.0
H3194 H 0.40609 0.42736 0.72652 0.0
C3195 C 0.37279 0.37605 0.71104 0.0
C3196 C 0.40065 0.39178 0.74176 0.0
C3197 C 0.36465 0.36335 0.70285 0.0
C3198 C 0.44214 0.44338 0.77043 0.0
C3199 C 0.43311 0.43137 0.76166 0.0
C3200 C 0.40451 0.41748 0.73107 0.0
C3201 C 0.38599 0.37954 0.71726 0.0
C3202 C 0.39428 0.3924 0.72714 0.0
C3203 C 0.42076 0.42982 0.75477 0.0
C3204 C 0.41118 0.4169 0.74551 0.0
H3205 H 0.38728 0.35084 0.70466 0.0
H3206 H 0.40137 0.37288 0.71888 0.0
H3207 H 0.39135 0.40613 0.71076 0.0
H3208 H 0.42427 0.46099 0.76675 0.0
H3209 H 0.40826 0.43979 0.7518 0.0
C3210 C 0.63945 0.00619 0.70173 0.0
C3211 C 0.64849 0.02035 0.69805 0.0
C3212 C 0.62677 0.002 0.70985 0.0
C3213 C 0.61088 0.01625 0.73785 0.0
H3214 H 0.57576 0.98331 0.72683 0.0
C3215 C 0.55969 0.00592 0.76794 0.0
C3216 C 0.55008 0.99219 0.7727 0.0
C3217 C 0.57119 0.00869 0.75821 0.0
C3218 C 0.58552 0.99245 0.73018 0.0
H3219 H 0.65097 0.04109 0.69925 0.0
H3220 H 0.62894 0.03379 0.71323 0.0
H3221 H 0.59666 0.98922 0.71062 0.0
H3222 H 0.54489 0.97057 0.77076 0.0
H3223 H 0.56513 0.97543 0.75383 0.0
H3224 H 0.59994 0.01948 0.75744 0.0
C3225 C 0.63173 0.02595 0.71013 0.0
C3226 C 0.59748 0.99584 0.72087 0.0
C3227 C 0.64432 0.03011 0.70203 0.0
C3228 C 0.55208 0.98125 0.76721 0.0
C3229 C 0.56366 0.98403 0.75749 0.0
C3230 C 0.599 0.01285 0.74715 0.0
C3231 C 0.62295 0.01191 0.71448 0.0
C3232 C 0.61025 0.00789 0.7245 0.0
C3233 C 0.57344 0.99782 0.75303 0.0
C3234 C 0.58613 0.00101 0.74334 0.0
H3235 H 0.64236 0.99841 0.69883 0.0
H3236 H 0.62024 0.99111 0.71307 0.0
H3237 H 0.62063 0.02542 0.74121 0.0
H3238 H 0.55828 0.01455 0.77168 0.0
H3239 H 0.57832 0.01939 0.75468 0.0
loop_
_geom_bond_atom_site_label_1
_geom_bond_atom_site_label_2
_geom_bond_distance
_geom_bond_site_symmetry_2
_ccdc_geom_bond_type
O0 Cd1 2.223 . S
O0 C8 1.315 . S
Cd1 O0 2.223 . S
Cd1 O4 2.297 . S
Cd1 O5 2.439 . S
Cd1 O11 2.240 1_554 S
Cd2 O3 2.240 . S
Cd2 O10 2.223 1_554 S
Cd2 O12 2.297 1_554 S
Cd2 O13 2.426 1_554 S
O3 Cd2 2.240 . S
O3 C8 1.279 1_655 S
O4 Cd1 2.297 . S
O4 C6 1.247 . S
O5 Cd1 2.439 . S
O5 C6 1.208 . S
C6 O4 1.247 . S
C6 O5 1.208 . S
C7 O12 1.247 . S
C7 O13 1.227 . S
C8 O0 1.315 . S
C8 O3 1.279 1_455 S
C9 O10 1.335 . S
C9 O11 1.260 1_655 S
O10 Cd2 2.223 1_556 S
O10 C9 1.335 . S
O11 Cd1 2.240 1_556 S
O11 C9 1.260 1_455 S
O12 Cd2 2.297 1_556 S
O12 C7 1.247 . S
O13 Cd2 2.426 1_556 S
O13 C7 1.227 . S
O14 Cd15 2.223 . S
O14 C22 1.315 . S
Cd15 O14 2.223 . S
Cd15 O18 2.297 . S
Cd15 O19 2.439 . S
Cd15 O25 2.240 1_554 S
Cd16 O17 2.240 . S
Cd16 O24 2.223 1_554 S
Cd16 O26 2.297 1_554 S
Cd16 O27 2.439 1_554 S
O17 Cd16 2.240 . S
O17 C22 1.279 . S
O18 Cd15 2.297 . S
O18 C20 1.247 . S
O19 Cd15 2.439 . S
O19 C20 1.208 . S
C20 O18 1.247 . S
C20 O19 1.208 . S
C21 O26 1.247 . S
C21 O27 1.208 . S
C22 O14 1.315 . S
C22 O17 1.279 . S
C23 O24 1.315 . S
C23 O25 1.279 . S
O24 Cd16 2.223 1_556 S
O24 C23 1.315 . S
O25 Cd15 2.240 1_556 S
O25 C23 1.279 . S
O26 Cd16 2.297 1_556 S
O26 C21 1.247 . S
O27 Cd16 2.439 1_556 S
O27 C21 1.208 . S
O28 Cd29 2.223 1_556 S
O28 C36 1.315 . S
Cd29 O28 2.223 1_554 S
Cd29 O32 2.297 1_554 S
Cd29 O33 2.431 1_554 S
Cd29 O39 2.240 . S
Cd30 O31 2.240 1_554 S
Cd30 O38 2.223 . S
Cd30 O40 2.297 . S
Cd30 O41 2.439 . S
O31 Cd30 2.240 1_556 S
O31 C36 1.279 1_565 S
O32 Cd29 2.297 1_556 S
O32 C34 1.247 . S
O33 Cd29 2.431 1_556 S
O33 C34 1.220 . S
C34 O32 1.247 . S
C34 O33 1.220 . S
C35 O40 1.247 . S
C35 O41 1.208 . S
C36 O28 1.315 . S
C36 O31 1.279 1_545 S
C37 O38 1.339 . S
C37 O39 1.256 1_565 S
O38 Cd30 2.223 . S
O38 C37 1.339 . S
O39 Cd29 2.240 . S
O39 C37 1.256 1_545 S
O40 Cd30 2.297 . S
O40 C35 1.247 . S
O41 Cd30 2.439 . S
O41 C35 1.208 . S
O42 Cd43 2.223 1_556 S
O42 C50 1.315 . S
Cd43 O42 2.223 1_554 S
Cd43 O46 2.297 1_554 S
Cd43 O47 2.419 1_554 S
Cd43 O53 2.240 . S
Cd44 O45 2.240 1_554 S
Cd44 O52 2.223 . S
Cd44 O54 2.297 . S
Cd44 O55 2.439 . S
O45 Cd44 2.240 1_556 S
O45 C50 1.279 1_455 S
O46 Cd43 2.297 1_556 S
O46 C48 1.247 . S
O47 Cd43 2.419 1_556 S
O47 C48 1.237 . S
C48 O46 1.247 . S
C48 O47 1.237 . S
C49 O54 1.247 . S
C49 O55 1.208 . S
C50 O42 1.315 . S
C50 O45 1.279 1_655 S
C51 O52 1.315 . S
C51 O53 1.279 1_455 S
O52 Cd44 2.223 . S
O52 C51 1.315 . S
O53 Cd43 2.240 . S
O53 C51 1.279 1_655 S
O54 Cd44 2.297 . S
O54 C49 1.247 . S
O55 Cd44 2.439 . S
O55 C49 1.208 . S
O56 Cd57 2.223 1_556 S
O56 C64 1.315 . S
Cd57 O56 2.223 1_554 S
Cd57 O60 2.297 1_554 S
Cd57 O61 2.439 1_554 S
Cd57 O67 2.240 . S
Cd58 O59 2.240 1_554 S
Cd58 O66 2.223 . S
Cd58 O68 2.297 . S
Cd58 O69 2.439 . S
O59 Cd58 2.240 1_556 S
O59 C64 1.279 . S
O60 Cd57 2.297 1_556 S
O60 C62 1.247 . S
O61 Cd57 2.439 1_556 S
O61 C62 1.208 . S
C62 O60 1.247 . S
C62 O61 1.208 . S
C63 O68 1.247 . S
C63 O69 1.208 . S
C64 O56 1.315 . S
C64 O59 1.279 . S
C65 O66 1.315 . S
C65 O67 1.279 . S
O66 Cd58 2.223 . S
O66 C65 1.315 . S
O67 Cd57 2.240 . S
O67 C65 1.279 . S
O68 Cd58 2.297 . S
O68 C63 1.247 . S
O69 Cd58 2.439 . S
O69 C63 1.208 . S
O70 Cd71 2.223 . S
O70 C78 1.315 . S
Cd71 O70 2.223 . S
Cd71 O74 2.297 . S
Cd71 O75 2.439 . S
Cd71 O81 2.240 1_554 S
Cd72 O73 2.240 . S
Cd72 O80 2.223 1_554 S
Cd72 O82 2.297 1_554 S
Cd72 O83 2.438 1_554 S
O73 Cd72 2.240 . S
O73 C78 1.279 1_545 S
O74 Cd71 2.297 . S
O74 C76 1.247 . S
O75 Cd71 2.439 . S
O75 C76 1.208 . S
C76 O74 1.247 . S
C76 O75 1.208 . S
C77 O82 1.247 . S
C77 O83 1.209 . S
C78 O70 1.315 . S
C78 O73 1.279 1_565 S
C79 O80 1.315 . S
C79 O81 1.279 1_545 S
O80 Cd72 2.223 1_556 S
O80 C79 1.315 . S
O81 Cd71 2.240 1_556 S
O81 C79 1.279 1_565 S
O82 Cd72 2.297 1_556 S
O82 C77 1.247 . S
O83 Cd72 2.438 1_556 S
O83 C77 1.209 . S
O84 Cd85 2.223 . S
O84 C92 1.315 . S
Cd85 O84 2.223 . S
Cd85 O88 2.297 . S
Cd85 O89 2.439 . S
Cd85 O95 2.240 . S
Cd86 O87 2.240 . S
Cd86 O94 2.223 . S
Cd86 O96 2.297 . S
Cd86 O97 2.439 . S
O87 Cd86 2.240 . S
O87 C92 1.279 . S
O88 Cd85 2.297 . S
O88 C90 1.247 . S
O89 Cd85 2.439 . S
O89 C90 1.208 . S
C90 O88 1.247 . S
C90 O89 1.208 . S
C91 O96 1.247 . S
C91 O97 1.208 . S
C92 O84 1.315 . S
C92 O87 1.279 . S
C93 O94 1.315 . S
C93 O95 1.279 . S
O94 Cd86 2.223 . S
O94 C93 1.315 . S
O95 Cd85 2.240 . S
O95 C93 1.279 . S
O96 Cd86 2.297 . S
O96 C91 1.247 . S
O97 Cd86 2.439 . S
O97 C91 1.208 . S
O98 Cd99 2.223 . S
O98 C106 1.315 . S
Cd99 O98 2.223 . S
Cd99 O102 2.297 1_565 S
Cd99 O103 2.439 1_565 S
Cd99 O109 2.240 . S
Cd100 O101 2.240 . S
Cd100 O108 2.223 . S
Cd100 O110 2.297 . S
Cd100 O111 2.439 . S
O101 Cd100 2.240 . S
O101 C106 1.279 . S
O102 Cd99 2.297 1_545 S
O102 C104 1.247 . S
O103 Cd99 2.439 1_545 S
O103 C104 1.208 . S
C104 O102 1.247 . S
C104 O103 1.208 . S
C105 O110 1.247 . S
C105 O111 1.208 . S
C106 O98 1.315 . S
C106 O101 1.279 . S
C107 O108 1.315 . S
C107 O109 1.279 . S
O108 Cd100 2.223 . S
O108 C107 1.315 . S
O109 Cd99 2.240 . S
O109 C107 1.279 . S
O110 Cd100 2.297 . S
O110 C105 1.247 . S
O111 Cd100 2.439 . S
O111 C105 1.208 . S
O112 Cd113 2.223 . S
O112 C120 1.315 . S
Cd113 O112 2.223 . S
Cd113 O116 2.297 . S
Cd113 O117 2.439 . S
Cd113 O123 2.240 . S
Cd114 O115 2.240 . S
Cd114 O122 2.223 . S
Cd114 O124 2.297 1_455 S
Cd114 O125 2.439 1_455 S
O115 Cd114 2.240 . S
O115 C120 1.279 . S
O116 Cd113 2.297 . S
O116 C118 1.247 . S
O117 Cd113 2.439 . S
O117 C118 1.208 . S
C118 O116 1.247 . S
C118 O117 1.208 . S
C119 O124 1.247 . S
C119 O125 1.208 . S
C120 O112 1.315 . S
C120 O115 1.279 . S
C121 O122 1.315 . S
C121 O123 1.279 . S
O122 Cd114 2.223 . S
O122 C121 1.315 . S
O123 Cd113 2.240 . S
O123 C121 1.279 . S
O124 Cd114 2.297 1_655 S
O124 C119 1.247 . S
O125 Cd114 2.439 1_655 S
O125 C119 1.208 . S
O126 Cd127 2.223 . S
O126 C134 1.315 . S
Cd127 O126 2.223 . S
Cd127 O130 2.297 . S
Cd127 O131 2.439 . S
Cd127 O137 2.240 . S
Cd128 O129 2.240 . S
Cd128 O136 2.223 . S
Cd128 O138 2.297 1_565 S
Cd128 O139 2.439 1_565 S
O129 Cd128 2.240 . S
O129 C134 1.279 . S
O130 Cd127 2.297 . S
O130 C132 1.247 . S
O131 Cd127 2.439 . S
O131 C132 1.208 . S
C132 O130 1.247 . S
C132 O131 1.208 . S
C133 O138 1.247 . S
C133 O139 1.208 . S
C134 O126 1.315 . S
C134 O129 1.279 . S
C135 O136 1.315 . S
C135 O137 1.279 . S
O136 Cd128 2.223 . S
O136 C135 1.315 . S
O137 Cd127 2.240 . S
O137 C135 1.279 . S
O138 Cd128 2.297 1_545 S
O138 C133 1.247 . S
O139 Cd128 2.439 1_545 S
O139 C133 1.208 . S
O140 Cd141 2.223 . S
O140 C148 1.315 . S
Cd141 O140 2.223 . S
Cd141 O144 2.297 . S
Cd141 O145 2.439 . S
Cd141 O151 2.240 . S
Cd142 O143 2.240 . S
Cd142 O150 2.223 . S
Cd142 O152 2.297 1_455 S
Cd142 O153 2.439 1_455 S
O143 Cd142 2.240 . S
O143 C148 1.279 . S
O144 Cd141 2.297 . S
O144 C146 1.247 . S
O145 Cd141 2.439 . S
O145 C146 1.208 . S
C146 O144 1.247 . S
C146 O145 1.208 . S
C147 O152 1.247 . S
C147 O153 1.208 . S
C148 O140 1.315 . S
C148 O143 1.279 . S
C149 O150 1.315 . S
C149 O151 1.279 . S
O150 Cd142 2.223 . S
O150 C149 1.315 . S
O151 Cd141 2.240 . S
O151 C149 1.279 . S
O152 Cd142 2.297 1_655 S
O152 C147 1.247 . S
O153 Cd142 2.439 1_655 S
O153 C147 1.208 . S
O154 Cd155 2.223 . S
O154 C162 1.315 . S
Cd155 O154 2.223 . S
Cd155 O158 2.297 . S
Cd155 O159 2.439 . S
Cd155 O165 2.240 . S
Cd156 O157 2.240 . S
Cd156 O164 2.223 . S
Cd156 O166 2.297 . S
Cd156 O167 2.439 . S
O157 Cd156 2.240 . S
O157 C162 1.279 . S
O158 Cd155 2.297 . S
O158 C160 1.247 . S
O159 Cd155 2.439 . S
O159 C160 1.208 . S
C160 O158 1.247 . S
C160 O159 1.208 . S
C161 O166 1.247 . S
C161 O167 1.208 . S
C162 O154 1.315 . S
C162 O157 1.279 . S
C163 O164 1.315 . S
C163 O165 1.279 . S
O164 Cd156 2.223 . S
O164 C163 1.315 . S
O165 Cd155 2.240 . S
O165 C163 1.279 . S
O166 Cd156 2.297 . S
O166 C161 1.247 . S
O167 Cd156 2.439 . S
O167 C161 1.208 . S
O168 Cd169 2.223 . S
O168 C176 1.315 . S
Cd169 O168 2.223 . S
Cd169 O172 2.297 . S
Cd169 O173 2.439 . S
Cd169 O179 2.240 . S
Cd170 O171 2.240 . S
Cd170 O178 2.223 . S
Cd170 O180 2.297 1_545 S
Cd170 O181 2.439 1_545 S
O171 Cd170 2.240 . S
O171 C176 1.279 . S
O172 Cd169 2.297 . S
O172 C174 1.247 . S
O173 Cd169 2.439 . S
O173 C174 1.208 . S
C174 O172 1.247 . S
C174 O173 1.208 . S
C175 O180 1.247 . S
C175 O181 1.208 . S
C176 O168 1.315 . S
C176 O171 1.279 . S
C177 O178 1.315 . S
C177 O179 1.279 . S
O178 Cd170 2.223 . S
O178 C177 1.315 . S
O179 Cd169 2.240 . S
O179 C177 1.279 . S
O180 Cd170 2.297 1_565 S
O180 C175 1.247 . S
O181 Cd170 2.439 1_565 S
O181 C175 1.208 . S
O182 Cd183 2.223 . S
O182 C190 1.315 . S
Cd183 O182 2.223 . S
Cd183 O186 2.297 . S
Cd183 O187 2.439 . S
Cd183 O193 2.240 . S
Cd184 O185 2.240 . S
Cd184 O192 2.223 . S
Cd184 O194 2.297 1_655 S
Cd184 O195 2.439 1_655 S
O185 Cd184 2.240 . S
O185 C190 1.279 . S
O186 Cd183 2.297 . S
O186 C188 1.247 . S
O187 Cd183 2.439 . S
O187 C188 1.208 . S
C188 O186 1.247 . S
C188 O187 1.208 . S
C189 O194 1.247 . S
C189 O195 1.208 . S
C190 O182 1.315 . S
C190 O185 1.279 . S
C191 O192 1.315 . S
C191 O193 1.279 . S
O192 Cd184 2.223 . S
O192 C191 1.315 . S
O193 Cd183 2.240 . S
O193 C191 1.279 . S
O194 Cd184 2.297 1_455 S
O194 C189 1.247 . S
O195 Cd184 2.439 1_455 S
O195 C189 1.208 . S
O196 Cd197 2.223 . S
O196 C204 1.315 . S
Cd197 O196 2.223 . S
Cd197 O200 2.297 . S
Cd197 O201 2.439 . S
Cd197 O207 2.240 . S
Cd198 O199 2.240 . S
Cd198 O206 2.223 . S
Cd198 O208 2.297 . S
Cd198 O209 2.439 . S
O199 Cd198 2.240 . S
O199 C204 1.279 . S
O200 Cd197 2.297 . S
O200 C202 1.247 . S
O201 Cd197 2.439 . S
O201 C202 1.208 . S
C202 O200 1.247 . S
C202 O201 1.208 . S
C203 O208 1.247 . S
C203 O209 1.208 . S
C204 O196 1.315 . S
C204 O199 1.279 . S
C205 O206 1.315 . S
C205 O207 1.279 . S
O206 Cd198 2.223 . S
O206 C205 1.315 . S
O207 Cd197 2.240 . S
O207 C205 1.279 . S
O208 Cd198 2.297 . S
O208 C203 1.247 . S
O209 Cd198 2.439 . S
O209 C203 1.208 . S
O210 Cd211 2.223 . S
O210 C218 1.315 . S
Cd211 O210 2.223 . S
Cd211 O214 2.297 . S
Cd211 O215 2.439 . S
Cd211 O221 2.240 . S
Cd212 O213 2.240 . S
Cd212 O220 2.223 . S
Cd212 O222 2.297 . S
Cd212 O223 2.439 . S
O213 Cd212 2.240 . S
O213 C218 1.279 . S
O214 Cd211 2.297 . S
O214 C216 1.247 . S
O215 Cd211 2.439 . S
O215 C216 1.208 . S
C216 O214 1.247 . S
C216 O215 1.208 . S
C217 O222 1.247 . S
C217 O223 1.208 . S
C218 O210 1.315 . S
C218 O213 1.279 . S
C219 O220 1.315 . S
C219 O221 1.279 . S
O220 Cd212 2.223 . S
O220 C219 1.315 . S
O221 Cd211 2.240 . S
O221 C219 1.279 . S
O222 Cd212 2.297 . S
O222 C217 1.247 . S
O223 Cd212 2.439 . S
O223 C217 1.208 . S
O224 Cd225 2.223 . S
O224 C232 1.315 . S
Cd225 O224 2.223 . S
Cd225 O228 2.297 1_545 S
Cd225 O229 2.439 1_545 S
Cd225 O235 2.240 . S
Cd226 O227 2.240 . S
Cd226 O234 2.223 . S
Cd226 O236 2.297 . S
Cd226 O237 2.439 . S
O227 Cd226 2.240 . S
O227 C232 1.279 . S
O228 Cd225 2.297 1_565 S
O228 C230 1.247 . S
O229 Cd225 2.439 1_565 S
O229 C230 1.208 . S
C230 O228 1.247 . S
C230 O229 1.208 . S
C231 O236 1.247 . S
C231 O237 1.208 . S
C232 O224 1.315 . S
C232 O227 1.279 . S
C233 O234 1.315 . S
C233 O235 1.279 . S
O234 Cd226 2.223 . S
O234 C233 1.315 . S
O235 Cd225 2.240 . S
O235 C233 1.279 . S
O236 Cd226 2.297 . S
O236 C231 1.247 . S
O237 Cd226 2.439 . S
O237 C231 1.208 . S
O238 Cd239 2.223 . S
O238 C246 1.315 . S
Cd239 O238 2.223 . S
Cd239 O242 2.297 . S
Cd239 O243 2.439 . S
Cd239 O249 2.240 . S
Cd240 O241 2.240 . S
Cd240 O248 2.223 . S
Cd240 O250 2.297 1_655 S
Cd240 O251 2.439 1_655 S
O241 Cd240 2.240 . S
O241 C246 1.279 . S
O242 Cd239 2.297 . S
O242 C244 1.247 . S
O243 Cd239 2.439 . S
O243 C244 1.208 . S
C244 O242 1.247 . S
C244 O243 1.208 . S
C245 O250 1.247 . S
C245 O251 1.208 . S
C246 O238 1.315 . S
C246 O241 1.279 . S
C247 O248 1.315 . S
C247 O249 1.279 . S
O248 Cd240 2.223 . S
O248 C247 1.315 . S
O249 Cd239 2.240 . S
O249 C247 1.279 . S
O250 Cd240 2.297 1_455 S
O250 C245 1.247 . S
O251 Cd240 2.439 1_455 S
O251 C245 1.208 . S
C252 C253 1.384 . S
C252 C254 1.384 . S
C252 H280 0.931 . S
C253 C252 1.384 . S
C253 C256 1.382 . S
C254 C252 1.384 . S
C254 C255 1.381 . S
C254 H281 0.930 . S
C255 C254 1.381 . S
C255 C257 1.381 . S
C255 C258 1.487 . S
C256 C253 1.382 . S
C256 C257 1.387 . S
C256 H282 0.930 . S
C257 C255 1.381 . S
C257 C256 1.387 . S
C257 H283 0.931 . S
C258 C255 1.487 . S
C258 C265 1.399 . S
C258 N296 1.343 . S
C259 C260 1.384 . S
C259 C261 1.384 . S
C259 H284 0.931 . S
C260 C259 1.384 . S
C260 C263 1.382 . S
C261 C259 1.384 . S
C261 C262 1.381 . S
C261 H285 0.930 . S
C262 C261 1.381 . S
C262 C264 1.381 . S
C262 C265 1.487 . S
C263 C260 1.382 . S
C263 C264 1.387 . S
C263 H286 0.930 . S
C264 C262 1.381 . S
C264 C263 1.387 . S
C264 H287 0.931 . S
C265 C258 1.399 . S
C265 C262 1.487 . S
C265 N297 1.343 . S
C266 C267 1.384 . S
C266 C268 1.384 . S
C266 H288 0.931 . S
C267 C266 1.384 . S
C267 C270 1.382 . S
C268 C266 1.384 . S
C268 C269 1.381 . S
C268 H289 0.930 . S
C269 C268 1.381 . S
C269 C271 1.381 . S
C269 C272 1.487 . S
C270 C267 1.382 . S
C270 C271 1.387 . S
C270 H290 0.930 . S
C271 C269 1.381 . S
C271 C270 1.387 . S
C271 H291 0.931 . S
C272 C269 1.487 . S
C272 C279 1.399 . S
C272 N297 1.343 . S
C273 C274 1.384 . S
C273 C275 1.384 . S
C273 H292 0.931 . S
C274 C273 1.384 . S
C274 C277 1.382 . S
C275 C273 1.384 . S
C275 C276 1.381 . S
C275 H293 0.930 . S
C276 C275 1.381 . S
C276 C278 1.381 . S
C276 C279 1.487 . S
C277 C274 1.382 . S
C277 C278 1.387 . S
C277 H294 0.930 . S
C278 C276 1.381 . S
C278 C277 1.387 . S
C278 H295 0.931 . S
C279 C272 1.399 . S
C279 C276 1.487 . S
C279 N296 1.343 . S
H280 C252 0.931 . S
H281 C254 0.930 . S
H282 C256 0.930 . S
H283 C257 0.931 . S
H284 C259 0.931 . S
H285 C261 0.930 . S
H286 C263 0.930 . S
H287 C264 0.931 . S
H288 C266 0.931 . S
H289 C268 0.930 . S
H290 C270 0.930 . S
H291 C271 0.931 . S
H292 C273 0.931 . S
H293 C275 0.930 . S
H294 C277 0.930 . S
H295 C278 0.931 . S
N296 C258 1.343 . S
N296 C279 1.343 . S
N297 C265 1.343 . S
N297 C272 1.343 . S
C298 C299 1.384 . S
C298 C300 1.384 . S
C298 H326 0.931 . S
C299 C298 1.384 . S
C299 C302 1.382 . S
C300 C298 1.384 . S
C300 C301 1.381 . S
C300 H327 0.930 . S
C301 C300 1.381 . S
C301 C303 1.381 . S
C301 C304 1.487 . S
C302 C299 1.382 . S
C302 C303 1.387 . S
C302 H328 0.930 . S
C303 C301 1.381 . S
C303 C302 1.387 . S
C303 H329 0.931 . S
C304 C301 1.487 . S
C304 C311 1.399 . S
C304 N342 1.343 . S
C305 C306 1.384 . S
C305 C307 1.384 . S
C305 H330 0.931 . S
C306 C305 1.384 . S
C306 C309 1.382 . S
C307 C305 1.384 . S
C307 C308 1.381 . S
C307 H331 0.930 . S
C308 C307 1.381 . S
C308 C310 1.381 . S
C308 C311 1.487 . S
C309 C306 1.382 . S
C309 C310 1.387 . S
C309 H332 0.930 . S
C310 C308 1.381 . S
C310 C309 1.387 . S
C310 H333 0.931 . S
C311 C304 1.399 . S
C311 C308 1.487 . S
C311 N343 1.343 . S
C312 C313 1.384 . S
C312 C314 1.384 . S
C312 H334 0.931 . S
C313 C312 1.384 . S
C313 C316 1.382 . S
C314 C312 1.384 . S
C314 C315 1.381 . S
C314 H335 0.930 . S
C315 C314 1.381 . S
C315 C317 1.381 . S
C315 C318 1.487 . S
C316 C313 1.382 . S
C316 C317 1.387 . S
C316 H336 0.930 . S
C317 C315 1.381 . S
C317 C316 1.387 . S
C317 H337 0.931 . S
C318 C315 1.487 . S
C318 C325 1.399 . S
C318 N343 1.343 . S
C319 C320 1.384 . S
C319 C321 1.384 . S
C319 H338 0.931 . S
C320 C319 1.384 . S
C320 C323 1.382 . S
C321 C319 1.384 . S
C321 C322 1.381 . S
C321 H339 0.930 . S
C322 C321 1.381 . S
C322 C324 1.381 . S
C322 C325 1.487 . S
C323 C320 1.382 . S
C323 C324 1.387 . S
C323 H340 0.930 . S
C324 C322 1.381 . S
C324 C323 1.387 . S
C324 H341 0.931 . S
C325 C318 1.399 . S
C325 C322 1.487 . S
C325 N342 1.343 . S
H326 C298 0.931 . S
H327 C300 0.930 . S
H328 C302 0.930 . S
H329 C303 0.931 . S
H330 C305 0.931 . S
H331 C307 0.930 . S
H332 C309 0.930 . S
H333 C310 0.931 . S
H334 C312 0.931 . S
H335 C314 0.930 . S
H336 C316 0.930 . S
H337 C317 0.931 . S
H338 C319 0.931 . S
H339 C321 0.930 . S
H340 C323 0.930 . S
H341 C324 0.931 . S
N342 C304 1.343 . S
N342 C325 1.343 . S
N343 C311 1.343 . S
N343 C318 1.343 . S
C344 C345 1.384 . S
C344 C346 1.384 . S
C344 H372 0.931 . S
C345 C344 1.384 . S
C345 C348 1.382 . S
C346 C344 1.384 . S
C346 C347 1.381 . S
C346 H373 0.930 . S
C347 C346 1.381 . S
C347 C349 1.381 . S
C347 C350 1.487 . S
C348 C345 1.382 . S
C348 C349 1.387 . S
C348 H374 0.930 . S
C349 C347 1.381 . S
C349 C348 1.387 . S
C349 H375 0.931 . S
C350 C347 1.487 . S
C350 C357 1.399 . S
C350 N388 1.343 . S
C351 C352 1.384 . S
C351 C353 1.384 . S
C351 H376 0.931 . S
C352 C351 1.384 . S
C352 C355 1.382 . S
C353 C351 1.384 . S
C353 C354 1.381 . S
C353 H377 0.930 . S
C354 C353 1.381 . S
C354 C356 1.381 . S
C354 C357 1.487 . S
C355 C352 1.382 . S
C355 C356 1.387 . S
C355 H378 0.930 . S
C356 C354 1.381 . S
C356 C355 1.387 . S
C356 H379 0.931 . S
C357 C350 1.399 . S
C357 C354 1.487 . S
C357 N389 1.343 . S
C358 C359 1.384 . S
C358 C360 1.384 . S
C358 H380 0.931 . S
C359 C358 1.384 . S
C359 C362 1.382 . S
C360 C358 1.384 . S
C360 C361 1.381 . S
C360 H381 0.930 . S
C361 C360 1.381 . S
C361 C363 1.381 . S
C361 C364 1.487 . S
C362 C359 1.382 . S
C362 C363 1.387 . S
C362 H382 0.930 . S
C363 C361 1.381 . S
C363 C362 1.387 . S
C363 H383 0.931 . S
C364 C361 1.487 . S
C364 C371 1.399 . S
C364 N389 1.343 . S
C365 C366 1.384 . S
C365 C367 1.384 . S
C365 H384 0.931 . S
C366 C365 1.384 . S
C366 C369 1.382 . S
C367 C365 1.384 . S
C367 C368 1.381 . S
C367 H385 0.930 . S
C368 C367 1.381 . S
C368 C370 1.381 . S
C368 C371 1.487 . S
C369 C366 1.382 . S
C369 C370 1.387 . S
C369 H386 0.930 . S
C370 C368 1.381 . S
C370 C369 1.387 . S
C370 H387 0.931 . S
C371 C364 1.399 . S
C371 C368 1.487 . S
C371 N388 1.343 . S
H372 C344 0.931 . S
H373 C346 0.930 . S
H374 C348 0.930 . S
H375 C349 0.931 . S
H376 C351 0.931 . S
H377 C353 0.930 . S
H378 C355 0.930 . S
H379 C356 0.931 . S
H380 C358 0.931 . S
H381 C360 0.930 . S
H382 C362 0.930 . S
H383 C363 0.931 . S
H384 C365 0.931 . S
H385 C367 0.930 . S
H386 C369 0.930 . S
H387 C370 0.931 . S
N388 C350 1.343 . S
N388 C371 1.343 . S
N389 C357 1.343 . S
N389 C364 1.343 . S
C390 C391 1.384 . S
C390 C392 1.384 . S
C390 H418 0.931 . S
C391 C390 1.384 . S
C391 C394 1.382 . S
C392 C390 1.384 . S
C392 C393 1.381 . S
C392 H419 0.930 . S
C393 C392 1.381 . S
C393 C395 1.381 . S
C393 C396 1.487 . S
C394 C391 1.382 . S
C394 C395 1.387 . S
C394 H420 0.930 . S
C395 C393 1.381 . S
C395 C394 1.387 . S
C395 H421 0.931 . S
C396 C393 1.487 . S
C396 C403 1.399 . S
C396 N434 1.343 . S
C397 C398 1.384 . S
C397 C399 1.384 . S
C397 H422 0.931 . S
C398 C397 1.384 . S
C398 C401 1.382 . S
C399 C397 1.384 . S
C399 C400 1.381 . S
C399 H423 0.930 . S
C400 C399 1.381 . S
C400 C402 1.381 . S
C400 C403 1.487 . S
C401 C398 1.382 . S
C401 C402 1.387 . S
C401 H424 0.930 . S
C402 C400 1.381 . S
C402 C401 1.387 . S
C402 H425 0.931 . S
C403 C396 1.399 . S
C403 C400 1.487 . S
C403 N435 1.343 . S
C404 C405 1.384 . S
C404 C406 1.384 . S
C404 H426 0.931 . S
C405 C404 1.384 . S
C405 C408 1.382 . S
C406 C404 1.384 . S
C406 C407 1.381 . S
C406 H427 0.930 . S
C407 C406 1.381 . S
C407 C409 1.381 . S
C407 C410 1.487 . S
C408 C405 1.382 . S
C408 C409 1.387 . S
C408 H428 0.930 . S
C409 C407 1.381 . S
C409 C408 1.387 . S
C409 H429 0.931 . S
C410 C407 1.487 . S
C410 C417 1.399 . S
C410 N435 1.343 . S
C411 C412 1.384 . S
C411 C413 1.384 . S
C411 H430 0.931 . S
C412 C411 1.384 . S
C412 C415 1.382 . S
C413 C411 1.384 . S
C413 C414 1.381 . S
C413 H431 0.930 . S
C414 C413 1.381 . S
C414 C416 1.381 . S
C414 C417 1.487 . S
C415 C412 1.382 . S
C415 C416 1.387 . S
C415 H432 0.930 . S
C416 C414 1.381 . S
C416 C415 1.387 . S
C416 H433 0.931 . S
C417 C410 1.399 . S
C417 C414 1.487 . S
C417 N434 1.343 . S
H418 C390 0.931 . S
H419 C392 0.930 . S
H420 C394 0.930 . S
H421 C395 0.931 . S
H422 C397 0.931 . S
H423 C399 0.930 . S
H424 C401 0.930 . S
H425 C402 0.931 . S
H426 C404 0.931 . S
H427 C406 0.930 . S
H428 C408 0.930 . S
H429 C409 0.931 . S
H430 C411 0.931 . S
H431 C413 0.930 . S
H432 C415 0.930 . S
H433 C416 0.931 . S
N434 C396 1.343 . S
N434 C417 1.343 . S
N435 C403 1.343 . S
N435 C410 1.343 . S
C436 C437 1.384 . S
C436 C438 1.384 . S
C436 H464 0.931 . S
C437 C436 1.384 . S
C437 C440 1.382 . S
C438 C436 1.384 . S
C438 C439 1.381 . S
C438 H465 0.930 . S
C439 C438 1.381 . S
C439 C441 1.381 . S
C439 C442 1.487 . S
C440 C437 1.382 . S
C440 C441 1.387 . S
C440 H466 0.930 . S
C441 C439 1.381 . S
C441 C440 1.387 . S
C441 H467 0.931 . S
C442 C439 1.487 . S
C442 C449 1.399 . S
C442 N480 1.343 . S
C443 C444 1.384 . S
C443 C445 1.384 . S
C443 H468 0.931 . S
C444 C443 1.384 . S
C444 C447 1.382 . S
C445 C443 1.384 . S
C445 C446 1.381 . S
C445 H469 0.930 . S
C446 C445 1.381 . S
C446 C448 1.381 . S
C446 C449 1.487 . S
C447 C444 1.382 . S
C447 C448 1.387 . S
C447 H470 0.930 . S
C448 C446 1.381 . S
C448 C447 1.387 . S
C448 H471 0.931 . S
C449 C442 1.399 . S
C449 C446 1.487 . S
C449 N481 1.343 . S
C450 C451 1.384 . S
C450 C452 1.384 . S
C450 H472 0.931 . S
C451 C450 1.384 . S
C451 C454 1.382 . S
C452 C450 1.384 . S
C452 C453 1.381 . S
C452 H473 0.930 . S
C453 C452 1.381 . S
C453 C455 1.381 . S
C453 C456 1.487 . S
C454 C451 1.382 . S
C454 C455 1.387 . S
C454 H474 0.930 . S
C455 C453 1.381 . S
C455 C454 1.387 . S
C455 H475 0.931 . S
C456 C453 1.487 . S
C456 C463 1.399 . S
C456 N481 1.343 . S
C457 C458 1.384 . S
C457 C459 1.384 . S
C457 H476 0.931 . S
C458 C457 1.384 . S
C458 C461 1.382 . S
C459 C457 1.384 . S
C459 C460 1.381 . S
C459 H477 0.930 . S
C460 C459 1.381 . S
C460 C462 1.381 . S
C460 C463 1.487 . S
C461 C458 1.382 . S
C461 C462 1.387 . S
C461 H478 0.930 . S
C462 C460 1.381 . S
C462 C461 1.387 . S
C462 H479 0.931 . S
C463 C456 1.399 . S
C463 C460 1.487 . S
C463 N480 1.343 . S
H464 C436 0.931 . S
H465 C438 0.930 . S
H466 C440 0.930 . S
H467 C441 0.931 . S
H468 C443 0.931 . S
H469 C445 0.930 . S
H470 C447 0.930 . S
H471 C448 0.931 . S
H472 C450 0.931 . S
H473 C452 0.930 . S
H474 C454 0.930 . S
H475 C455 0.931 . S
H476 C457 0.931 . S
H477 C459 0.930 . S
H478 C461 0.930 . S
H479 C462 0.931 . S
N480 C442 1.343 . S
N480 C463 1.343 . S
N481 C449 1.343 . S
N481 C456 1.343 . S
C482 C483 1.384 . S
C482 C484 1.384 . S
C482 H510 0.931 . S
C483 C482 1.384 . S
C483 C486 1.382 . S
C484 C482 1.384 . S
C484 C485 1.381 . S
C484 H511 0.930 . S
C485 C484 1.381 . S
C485 C487 1.381 . S
C485 C488 1.487 . S
C486 C483 1.382 . S
C486 C487 1.387 . S
C486 H512 0.930 . S
C487 C485 1.381 . S
C487 C486 1.387 . S
C487 H513 0.931 . S
C488 C485 1.487 . S
C488 C495 1.399 . S
C488 N526 1.343 . S
C489 C490 1.384 . S
C489 C491 1.384 . S
C489 H514 0.931 . S
C490 C489 1.384 . S
C490 C493 1.382 . S
C491 C489 1.384 . S
C491 C492 1.381 . S
C491 H515 0.930 . S
C492 C491 1.381 . S
C492 C494 1.381 . S
C492 C495 1.487 . S
C493 C490 1.382 . S
C493 C494 1.387 . S
C493 H516 0.930 . S
C494 C492 1.381 . S
C494 C493 1.387 . S
C494 H517 0.931 . S
C495 C488 1.399 . S
C495 C492 1.487 . S
C495 N527 1.343 . S
C496 C497 1.384 . S
C496 C498 1.384 . S
C496 H518 0.931 . S
C497 C496 1.384 . S
C497 C500 1.382 . S
C498 C496 1.384 . S
C498 C499 1.381 . S
C498 H519 0.930 . S
C499 C498 1.381 . S
C499 C501 1.381 . S
C499 C502 1.487 . S
C500 C497 1.382 . S
C500 C501 1.387 . S
C500 H520 0.930 . S
C501 C499 1.381 . S
C501 C500 1.387 . S
C501 H521 0.931 . S
C502 C499 1.487 . S
C502 C509 1.399 . S
C502 N527 1.343 . S
C503 C504 1.384 . S
C503 C505 1.384 . S
C503 H522 0.931 . S
C504 C503 1.384 . S
C504 C507 1.382 . S
C505 C503 1.384 . S
C505 C506 1.381 . S
C505 H523 0.930 . S
C506 C505 1.381 . S
C506 C508 1.381 . S
C506 C509 1.487 . S
C507 C504 1.382 . S
C507 C508 1.387 . S
C507 H524 0.930 . S
C508 C506 1.381 . S
C508 C507 1.387 . S
C508 H525 0.931 . S
C509 C502 1.399 . S
C509 C506 1.487 . S
C509 N526 1.343 . S
H510 C482 0.931 . S
H511 C484 0.930 . S
H512 C486 0.930 . S
H513 C487 0.931 . S
H514 C489 0.931 . S
H515 C491 0.930 . S
H516 C493 0.930 . S
H517 C494 0.931 . S
H518 C496 0.931 . S
H519 C498 0.930 . S
H520 C500 0.930 . S
H521 C501 0.931 . S
H522 C503 0.931 . S
H523 C505 0.930 . S
H524 C507 0.930 . S
H525 C508 0.931 . S
N526 C488 1.343 . S
N526 C509 1.343 . S
N527 C495 1.343 . S
N527 C502 1.343 . S
C528 C529 1.384 . S
C528 C530 1.384 . S
C528 H556 0.931 . S
C529 C528 1.384 . S
C529 C532 1.382 . S
C530 C528 1.384 . S
C530 C531 1.381 . S
C530 H557 0.930 . S
C531 C530 1.381 . S
C531 C533 1.381 . S
C531 C534 1.487 . S
C532 C529 1.382 . S
C532 C533 1.387 . S
C532 H558 0.930 . S
C533 C531 1.381 . S
C533 C532 1.387 . S
C533 H559 0.931 . S
C534 C531 1.487 . S
C534 C541 1.399 . S
C534 N572 1.343 . S
C535 C536 1.384 . S
C535 C537 1.384 . S
C535 H560 0.931 . S
C536 C535 1.384 . S
C536 C539 1.382 . S
C537 C535 1.384 . S
C537 C538 1.381 . S
C537 H561 0.930 . S
C538 C537 1.381 . S
C538 C540 1.381 . S
C538 C541 1.487 . S
C539 C536 1.382 . S
C539 C540 1.387 . S
C539 H562 0.930 . S
C540 C538 1.381 . S
C540 C539 1.387 . S
C540 H563 0.931 . S
C541 C534 1.399 . S
C541 C538 1.487 . S
C541 N573 1.343 . S
C542 C543 1.384 . S
C542 C544 1.384 . S
C542 H564 0.931 . S
C543 C542 1.384 . S
C543 C546 1.382 . S
C544 C542 1.384 . S
C544 C545 1.381 . S
C544 H565 0.930 . S
C545 C544 1.381 . S
C545 C547 1.381 . S
C545 C548 1.487 . S
C546 C543 1.382 . S
C546 C547 1.387 . S
C546 H566 0.930 . S
C547 C545 1.381 . S
C547 C546 1.387 . S
C547 H567 0.931 . S
C548 C545 1.487 . S
C548 C555 1.399 . S
C548 N573 1.343 . S
C549 C550 1.384 . S
C549 C551 1.384 . S
C549 H568 0.931 . S
C550 C549 1.384 . S
C550 C553 1.382 . S
C551 C549 1.384 . S
C551 C552 1.381 . S
C551 H569 0.930 . S
C552 C551 1.381 . S
C552 C554 1.381 . S
C552 C555 1.487 . S
C553 C550 1.382 . S
C553 C554 1.387 . S
C553 H570 0.930 . S
C554 C552 1.381 . S
C554 C553 1.387 . S
C554 H571 0.931 . S
C555 C548 1.399 . S
C555 C552 1.487 . S
C555 N572 1.343 . S
H556 C528 0.931 . S
H557 C530 0.930 . S
H558 C532 0.930 . S
H559 C533 0.931 . S
H560 C535 0.931 . S
H561 C537 0.930 . S
H562 C539 0.930 . S
H563 C540 0.931 . S
H564 C542 0.931 . S
H565 C544 0.930 . S
H566 C546 0.930 . S
H567 C547 0.931 . S
H568 C549 0.931 . S
H569 C551 0.930 . S
H570 C553 0.930 . S
H571 C554 0.931 . S
N572 C534 1.343 . S
N572 C555 1.343 . S
N573 C541 1.343 . S
N573 C548 1.343 . S
C574 C575 1.384 . S
C574 C576 1.384 . S
C574 H602 0.931 . S
C575 C574 1.384 . S
C575 C578 1.382 . S
C576 C574 1.384 . S
C576 C577 1.381 . S
C576 H603 0.930 . S
C577 C576 1.381 . S
C577 C579 1.381 . S
C577 C580 1.487 . S
C578 C575 1.382 . S
C578 C579 1.387 . S
C578 H604 0.930 . S
C579 C577 1.381 . S
C579 C578 1.387 . S
C579 H605 0.931 . S
C580 C577 1.487 . S
C580 C587 1.399 . S
C580 N618 1.343 . S
C581 C582 1.384 . S
C581 C583 1.384 . S
C581 H606 0.931 . S
C582 C581 1.384 . S
C582 C585 1.382 . S
C583 C581 1.384 . S
C583 C584 1.381 . S
C583 H607 0.930 . S
C584 C583 1.381 . S
C584 C586 1.381 . S
C584 C587 1.487 . S
C585 C582 1.382 . S
C585 C586 1.387 . S
C585 H608 0.930 . S
C586 C584 1.381 . S
C586 C585 1.387 . S
C586 H609 0.931 . S
C587 C580 1.399 . S
C587 C584 1.487 . S
C587 N619 1.343 . S
C588 C589 1.384 . S
C588 C590 1.384 . S
C588 H610 0.931 . S
C589 C588 1.384 . S
C589 C592 1.382 . S
C590 C588 1.384 . S
C590 C591 1.381 . S
C590 H611 0.930 . S
C591 C590 1.381 . S
C591 C593 1.381 . S
C591 C594 1.487 . S
C592 C589 1.382 . S
C592 C593 1.387 . S
C592 H612 0.930 . S
C593 C591 1.381 . S
C593 C592 1.387 . S
C593 H613 0.931 . S
C594 C591 1.487 . S
C594 C601 1.399 . S
C594 N619 1.343 . S
C595 C596 1.384 . S
C595 C597 1.384 . S
C595 H614 0.931 . S
C596 C595 1.384 . S
C596 C599 1.382 . S
C597 C595 1.384 . S
C597 C598 1.381 . S
C597 H615 0.930 . S
C598 C597 1.381 . S
C598 C600 1.381 . S
C598 C601 1.487 . S
C599 C596 1.382 . S
C599 C600 1.387 . S
C599 H616 0.930 . S
C600 C598 1.381 . S
C600 C599 1.387 . S
C600 H617 0.931 . S
C601 C594 1.399 . S
C601 C598 1.487 . S
C601 N618 1.343 . S
H602 C574 0.931 . S
H603 C576 0.930 . S
H604 C578 0.930 . S
H605 C579 0.931 . S
H606 C581 0.931 . S
H607 C583 0.930 . S
H608 C585 0.930 . S
H609 C586 0.931 . S
H610 C588 0.931 . S
H611 C590 0.930 . S
H612 C592 0.930 . S
H613 C593 0.931 . S
H614 C595 0.931 . S
H615 C597 0.930 . S
H616 C599 0.930 . S
H617 C600 0.931 . S
N618 C580 1.343 . S
N618 C601 1.343 . S
N619 C587 1.343 . S
N619 C594 1.343 . S
C620 C621 1.384 . S
C620 C622 1.384 . S
C620 H648 0.931 . S
C621 C620 1.384 . S
C621 C624 1.382 . S
C622 C620 1.384 . S
C622 C623 1.381 . S
C622 H649 0.930 . S
C623 C622 1.381 . S
C623 C625 1.381 . S
C623 C626 1.487 . S
C624 C621 1.382 . S
C624 C625 1.387 . S
C624 H650 0.930 . S
C625 C623 1.381 . S
C625 C624 1.387 . S
C625 H651 0.931 . S
C626 C623 1.487 . S
C626 C633 1.399 . S
C626 N664 1.343 . S
C627 C628 1.384 . S
C627 C629 1.384 . S
C627 H652 0.931 . S
C628 C627 1.384 . S
C628 C631 1.382 . S
C629 C627 1.384 . S
C629 C630 1.381 . S
C629 H653 0.930 . S
C630 C629 1.381 . S
C630 C632 1.381 . S
C630 C633 1.487 . S
C631 C628 1.382 . S
C631 C632 1.387 . S
C631 H654 0.930 . S
C632 C630 1.381 . S
C632 C631 1.387 . S
C632 H655 0.931 . S
C633 C626 1.399 . S
C633 C630 1.487 . S
C633 N665 1.343 . S
C634 C635 1.384 . S
C634 C636 1.384 . S
C634 H656 0.931 . S
C635 C634 1.384 . S
C635 C638 1.382 . S
C636 C634 1.384 . S
C636 C637 1.381 . S
C636 H657 0.930 . S
C637 C636 1.381 . S
C637 C639 1.381 . S
C637 C640 1.487 . S
C638 C635 1.382 . S
C638 C639 1.387 . S
C638 H658 0.930 . S
C639 C637 1.381 . S
C639 C638 1.387 . S
C639 H659 0.931 . S
C640 C637 1.487 . S
C640 C647 1.399 . S
C640 N665 1.343 . S
C641 C642 1.384 . S
C641 C643 1.384 . S
C641 H660 0.931 . S
C642 C641 1.384 . S
C642 C645 1.382 . S
C643 C641 1.384 . S
C643 C644 1.381 . S
C643 H661 0.930 . S
C644 C643 1.381 . S
C644 C646 1.381 . S
C644 C647 1.487 . S
C645 C642 1.382 . S
C645 C646 1.387 . S
C645 H662 0.930 . S
C646 C644 1.381 . S
C646 C645 1.387 . S
C646 H663 0.931 . S
C647 C640 1.399 . S
C647 C644 1.487 . S
C647 N664 1.343 . S
H648 C620 0.931 . S
H649 C622 0.930 . S
H650 C624 0.930 . S
H651 C625 0.931 . S
H652 C627 0.931 . S
H653 C629 0.930 . S
H654 C631 0.930 . S
H655 C632 0.931 . S
H656 C634 0.931 . S
H657 C636 0.930 . S
H658 C638 0.930 . S
H659 C639 0.931 . S
H660 C641 0.931 . S
H661 C643 0.930 . S
H662 C645 0.930 . S
H663 C646 0.931 . S
N664 C626 1.343 . S
N664 C647 1.343 . S
N665 C633 1.343 . S
N665 C640 1.343 . S
C666 C667 1.384 . S
C666 C668 1.384 . S
C666 H694 0.931 . S
C667 C666 1.384 . S
C667 C670 1.382 1_655 S
C668 C666 1.384 . S
C668 C669 1.385 1_655 S
C668 H695 0.930 . S
C669 C668 1.385 1_455 S
C669 C671 1.379 . S
C669 C672 1.475 . S
C670 C667 1.382 1_455 S
C670 C671 1.387 . S
C670 H696 0.930 . S
C671 C669 1.379 . S
C671 C670 1.387 . S
C671 H697 0.931 . S
C672 C669 1.475 . S
C672 C679 1.398 1_455 S
C672 N710 1.314 . S
C673 C674 1.384 . S
C673 C675 1.384 . S
C673 H698 0.931 . S
C674 C673 1.384 . S
C674 C677 1.382 1_455 S
C675 C673 1.384 . S
C675 C676 1.380 . S
C675 H699 0.930 . S
C676 C675 1.380 . S
C676 C678 1.384 1_455 S
C676 C679 1.488 1_455 S
C677 C674 1.382 1_655 S
C677 C678 1.387 . S
C677 H700 0.930 . S
C678 C676 1.384 1_655 S
C678 C677 1.387 . S
C678 H701 0.931 . S
C679 C672 1.398 1_655 S
C679 C676 1.488 1_655 S
C679 N711 1.368 . S
C680 C681 1.384 . S
C680 C682 1.384 . S
C680 H702 0.931 . S
C681 C680 1.384 . S
C681 C684 1.382 1_455 S
C682 C680 1.384 . S
C682 C683 1.385 . S
C682 H703 0.930 . S
C683 C682 1.385 . S
C683 C685 1.379 1_455 S
C683 C686 1.484 1_455 S
C684 C681 1.382 1_655 S
C684 C685 1.387 . S
C684 H704 0.930 . S
C685 C683 1.379 1_655 S
C685 C684 1.387 . S
C685 H705 0.931 . S
C686 C683 1.484 1_655 S
C686 C693 1.398 1_655 S
C686 N711 1.314 . S
C687 C688 1.384 . S
C687 C689 1.384 . S
C687 H706 0.931 . S
C688 C687 1.384 . S
C688 C691 1.382 1_655 S
C689 C687 1.384 . S
C689 C690 1.380 1_655 S
C689 H707 0.930 . S
C690 C689 1.380 1_455 S
C690 C692 1.384 . S
C690 C693 1.497 . S
C691 C688 1.382 1_455 S
C691 C692 1.387 . S
C691 H708 0.930 . S
C692 C690 1.384 . S
C692 C691 1.387 . S
C692 H709 0.931 . S
C693 C686 1.398 1_455 S
C693 C690 1.497 . S
C693 N710 1.368 . S
H694 C666 0.931 . S
H695 C668 0.930 . S
H696 C670 0.930 . S
H697 C671 0.931 . S
H698 C673 0.931 . S
H699 C675 0.930 . S
H700 C677 0.930 . S
H701 C678 0.931 . S
H702 C680 0.931 . S
H703 C682 0.930 . S
H704 C684 0.930 . S
H705 C685 0.931 . S
H706 C687 0.931 . S
H707 C689 0.930 . S
H708 C691 0.930 . S
H709 C692 0.931 . S
N710 C672 1.314 . S
N710 C693 1.368 . S
N711 C679 1.368 . S
N711 C686 1.314 . S
C712 C713 1.384 . S
C712 C714 1.384 . S
C712 H740 0.931 . S
C713 C712 1.384 . S
C713 C716 1.382 . S
C714 C712 1.384 . S
C714 C715 1.381 . S
C714 H741 0.930 . S
C715 C714 1.381 . S
C715 C717 1.381 . S
C715 C718 1.487 . S
C716 C713 1.382 . S
C716 C717 1.387 . S
C716 H742 0.930 . S
C717 C715 1.381 . S
C717 C716 1.387 . S
C717 H743 0.931 . S
C718 C715 1.487 . S
C718 C725 1.399 . S
C718 N756 1.343 . S
C719 C720 1.384 . S
C719 C721 1.384 . S
C719 H744 0.931 . S
C720 C719 1.384 . S
C720 C723 1.382 . S
C721 C719 1.384 . S
C721 C722 1.381 . S
C721 H745 0.930 . S
C722 C721 1.381 . S
C722 C724 1.381 . S
C722 C725 1.487 . S
C723 C720 1.382 . S
C723 C724 1.387 . S
C723 H746 0.930 . S
C724 C722 1.381 . S
C724 C723 1.387 . S
C724 H747 0.931 . S
C725 C718 1.399 . S
C725 C722 1.487 . S
C725 N757 1.343 . S
C726 C727 1.384 . S
C726 C728 1.384 . S
C726 H748 0.931 . S
C727 C726 1.384 . S
C727 C730 1.382 . S
C728 C726 1.384 . S
C728 C729 1.381 . S
C728 H749 0.930 . S
C729 C728 1.381 . S
C729 C731 1.381 . S
C729 C732 1.487 . S
C730 C727 1.382 . S
C730 C731 1.387 . S
C730 H750 0.930 . S
C731 C729 1.381 . S
C731 C730 1.387 . S
C731 H751 0.931 . S
C732 C729 1.487 . S
C732 C739 1.399 . S
C732 N757 1.343 . S
C733 C734 1.384 . S
C733 C735 1.384 . S
C733 H752 0.931 . S
C734 C733 1.384 . S
C734 C737 1.382 . S
C735 C733 1.384 . S
C735 C736 1.381 . S
C735 H753 0.930 . S
C736 C735 1.381 . S
C736 C738 1.381 . S
C736 C739 1.487 . S
C737 C734 1.382 . S
C737 C738 1.387 . S
C737 H754 0.930 . S
C738 C736 1.381 . S
C738 C737 1.387 . S
C738 H755 0.931 . S
C739 C732 1.399 . S
C739 C736 1.487 . S
C739 N756 1.343 . S
H740 C712 0.931 . S
H741 C714 0.930 . S
H742 C716 0.930 . S
H743 C717 0.931 . S
H744 C719 0.931 . S
H745 C721 0.930 . S
H746 C723 0.930 . S
H747 C724 0.931 . S
H748 C726 0.931 . S
H749 C728 0.930 . S
H750 C730 0.930 . S
H751 C731 0.931 . S
H752 C733 0.931 . S
H753 C735 0.930 . S
H754 C737 0.930 . S
H755 C738 0.931 . S
N756 C718 1.343 . S
N756 C739 1.343 . S
N757 C725 1.343 . S
N757 C732 1.343 . S
C758 C759 1.384 1_545 S
C758 C760 1.384 . S
C758 H786 0.931 . S
C759 C758 1.384 1_565 S
C759 C762 1.382 . S
C760 C758 1.384 . S
C760 C761 1.381 1_545 S
C760 H787 0.930 . S
C761 C760 1.381 1_565 S
C761 C763 1.381 . S
C761 C764 1.487 . S
C762 C759 1.382 . S
C762 C763 1.387 . S
C762 H788 0.930 . S
C763 C761 1.381 . S
C763 C762 1.387 . S
C763 H789 0.931 . S
C764 C761 1.487 . S
C764 C771 1.391 1_565 S
C764 N802 1.343 . S
C765 C766 1.384 1_565 S
C765 C767 1.384 . S
C765 H790 0.931 . S
C766 C765 1.384 1_545 S
C766 C769 1.382 . S
C767 C765 1.384 . S
C767 C768 1.381 1_565 S
C767 H791 0.930 . S
C768 C767 1.381 1_545 S
C768 C770 1.381 . S
C768 C771 1.529 . S
C769 C766 1.382 . S
C769 C770 1.387 . S
C769 H792 0.930 . S
C770 C768 1.381 . S
C770 C769 1.387 . S
C770 H793 0.931 . S
C771 C764 1.391 1_545 S
C771 C768 1.529 . S
C771 N803 1.315 . S
C772 C773 1.384 1_565 S
C772 C774 1.384 . S
C772 H794 0.931 . S
C773 C772 1.384 1_545 S
C773 C776 1.382 . S
C774 C772 1.384 . S
C774 C775 1.381 1_565 S
C774 H795 0.930 . S
C775 C774 1.381 1_545 S
C775 C777 1.381 . S
C775 C778 1.458 . S
C776 C773 1.382 . S
C776 C777 1.387 . S
C776 H796 0.930 . S
C777 C775 1.381 . S
C777 C776 1.387 . S
C777 H797 0.931 . S
C778 C775 1.458 . S
C778 C785 1.391 1_545 S
C778 N803 1.388 . S
C779 C780 1.384 1_545 S
C779 C781 1.384 . S
C779 H798 0.931 . S
C780 C779 1.384 1_565 S
C780 C783 1.382 . S
C781 C779 1.384 . S
C781 C782 1.381 1_545 S
C781 H799 0.930 . S
C782 C781 1.381 1_565 S
C782 C784 1.381 . S
C782 C785 1.487 . S
C783 C780 1.382 . S
C783 C784 1.387 . S
C783 H800 0.930 . S
C784 C782 1.381 . S
C784 C783 1.387 . S
C784 H801 0.931 . S
C785 C778 1.391 1_565 S
C785 C782 1.487 . S
C785 N802 1.343 . S
H786 C758 0.931 . S
H787 C760 0.930 . S
H788 C762 0.930 . S
H789 C763 0.931 . S
H790 C765 0.931 . S
H791 C767 0.930 . S
H792 C769 0.930 . S
H793 C770 0.931 . S
H794 C772 0.931 . S
H795 C774 0.930 . S
H796 C776 0.930 . S
H797 C777 0.931 . S
H798 C779 0.931 . S
H799 C781 0.930 . S
H800 C783 0.930 . S
H801 C784 0.931 . S
N802 C764 1.343 . S
N802 C785 1.343 . S
N803 C771 1.315 . S
N803 C778 1.388 . S
C804 C805 1.384 . S
C804 C806 1.384 . S
C804 H832 0.931 . S
C805 C804 1.384 . S
C805 C808 1.382 1_545 S
C806 C804 1.384 . S
C806 C807 1.380 . S
C806 H833 0.930 . S
C807 C806 1.380 . S
C807 C809 1.384 1_545 S
C807 C810 1.488 1_545 S
C808 C805 1.382 1_565 S
C808 C809 1.387 . S
C808 H834 0.930 . S
C809 C807 1.384 1_565 S
C809 C808 1.387 . S
C809 H835 0.931 . S
C810 C807 1.488 1_565 S
C810 C817 1.398 1_565 S
C810 N848 1.368 . S
C811 C812 1.384 . S
C811 C813 1.384 . S
C811 H836 0.931 . S
C812 C811 1.384 . S
C812 C815 1.382 1_565 S
C813 C811 1.384 . S
C813 C814 1.384 1_565 S
C813 H837 0.930 . S
C814 C813 1.384 1_545 S
C814 C816 1.380 . S
C814 C817 1.475 . S
C815 C812 1.382 1_545 S
C815 C816 1.387 . S
C815 H838 0.930 . S
C816 C814 1.380 . S
C816 C815 1.387 . S
C816 H839 0.931 . S
C817 C810 1.398 1_545 S
C817 C814 1.475 . S
C817 N849 1.314 . S
C818 C819 1.384 . S
C818 C820 1.384 . S
C818 H840 0.931 . S
C819 C818 1.384 . S
C819 C822 1.382 1_565 S
C820 C818 1.384 . S
C820 C821 1.380 1_565 S
C820 H841 0.930 . S
C821 C820 1.380 1_545 S
C821 C823 1.384 . S
C821 C824 1.497 . S
C822 C819 1.382 1_545 S
C822 C823 1.387 . S
C822 H842 0.930 . S
C823 C821 1.384 . S
C823 C822 1.387 . S
C823 H843 0.931 . S
C824 C821 1.497 . S
C824 C831 1.398 1_545 S
C824 N849 1.368 . S
C825 C826 1.384 . S
C825 C827 1.384 . S
C825 H844 0.931 . S
C826 C825 1.384 . S
C826 C829 1.382 1_545 S
C827 C825 1.384 . S
C827 C828 1.384 . S
C827 H845 0.930 . S
C828 C827 1.384 . S
C828 C830 1.380 1_545 S
C828 C831 1.484 1_545 S
C829 C826 1.382 1_565 S
C829 C830 1.387 . S
C829 H846 0.930 . S
C830 C828 1.380 1_565 S
C830 C829 1.387 . S
C830 H847 0.931 . S
C831 C824 1.398 1_565 S
C831 C828 1.484 1_565 S
C831 N848 1.314 . S
H832 C804 0.931 . S
H833 C806 0.930 . S
H834 C808 0.930 . S
H835 C809 0.931 . S
H836 C811 0.931 . S
H837 C813 0.930 . S
H838 C815 0.930 . S
H839 C816 0.931 . S
H840 C818 0.931 . S
H841 C820 0.930 . S
H842 C822 0.930 . S
H843 C823 0.931 . S
H844 C825 0.931 . S
H845 C827 0.930 . S
H846 C829 0.930 . S
H847 C830 0.931 . S
N848 C810 1.368 . S
N848 C831 1.314 . S
N849 C817 1.314 . S
N849 C824 1.368 . S
C850 C851 1.384 . S
C850 C852 1.384 . S
C850 H878 0.931 . S
C851 C850 1.384 . S
C851 C854 1.382 1_655 S
C852 C850 1.384 . S
C852 C853 1.388 . S
C852 H879 0.930 . S
C853 C852 1.388 . S
C853 C855 1.377 1_655 S
C853 C856 1.483 1_655 S
C854 C851 1.382 1_455 S
C854 C855 1.387 . S
C854 H880 0.930 . S
C855 C853 1.377 1_455 S
C855 C854 1.387 . S
C855 H881 0.931 . S
C856 C853 1.483 1_455 S
C856 C863 1.399 1_455 S
C856 N894 1.315 . S
C857 C858 1.384 . S
C857 C859 1.384 . S
C857 H882 0.931 . S
C858 C857 1.384 . S
C858 C861 1.382 1_455 S
C859 C857 1.384 . S
C859 C860 1.381 1_455 S
C859 H883 0.930 . S
C860 C859 1.381 1_655 S
C860 C862 1.382 . S
C860 C863 1.498 . S
C861 C858 1.382 1_655 S
C861 C862 1.387 . S
C861 H884 0.930 . S
C862 C860 1.382 . S
C862 C861 1.387 . S
C862 H885 0.931 . S
C863 C856 1.399 1_655 S
C863 C860 1.498 . S
C863 N895 1.367 . S
C864 C865 1.384 . S
C864 C866 1.384 . S
C864 H886 0.931 . S
C865 C864 1.384 . S
C865 C868 1.382 1_455 S
C866 C864 1.384 . S
C866 C867 1.388 1_455 S
C866 H887 0.930 . S
C867 C866 1.388 1_655 S
C867 C869 1.377 . S
C867 C870 1.474 . S
C868 C865 1.382 1_655 S
C868 C869 1.387 . S
C868 H888 0.930 . S
C869 C867 1.377 . S
C869 C868 1.387 . S
C869 H889 0.931 . S
C870 C867 1.474 . S
C870 C877 1.399 1_655 S
C870 N895 1.315 . S
C871 C872 1.384 . S
C871 C873 1.384 . S
C871 H890 0.931 . S
C872 C871 1.384 . S
C872 C875 1.382 1_655 S
C873 C871 1.384 . S
C873 C874 1.381 . S
C873 H891 0.930 . S
C874 C873 1.381 . S
C874 C876 1.382 1_655 S
C874 C877 1.489 1_655 S
C875 C872 1.382 1_455 S
C875 C876 1.387 . S
C875 H892 0.930 . S
C876 C874 1.382 1_455 S
C876 C875 1.387 . S
C876 H893 0.931 . S
C877 C870 1.399 1_455 S
C877 C874 1.489 1_455 S
C877 N894 1.367 . S
H878 C850 0.931 . S
H879 C852 0.930 . S
H880 C854 0.930 . S
H881 C855 0.931 . S
H882 C857 0.931 . S
H883 C859 0.930 . S
H884 C861 0.930 . S
H885 C862 0.931 . S
H886 C864 0.931 . S
H887 C866 0.930 . S
H888 C868 0.930 . S
H889 C869 0.931 . S
H890 C871 0.931 . S
H891 C873 0.930 . S
H892 C875 0.930 . S
H893 C876 0.931 . S
N894 C856 1.315 . S
N894 C877 1.367 . S
N895 C863 1.367 . S
N895 C870 1.315 . S
C896 C897 1.384 . S
C896 C898 1.384 . S
C896 H924 0.931 . S
C897 C896 1.384 . S
C897 C900 1.382 . S
C898 C896 1.384 . S
C898 C899 1.381 . S
C898 H925 0.930 . S
C899 C898 1.381 . S
C899 C901 1.381 . S
C899 C902 1.487 . S
C900 C897 1.382 . S
C900 C901 1.387 . S
C900 H926 0.930 . S
C901 C899 1.381 . S
C901 C900 1.387 . S
C901 H927 0.931 . S
C902 C899 1.487 . S
C902 C909 1.399 . S
C902 N940 1.343 . S
C903 C904 1.384 . S
C903 C905 1.384 . S
C903 H928 0.931 . S
C904 C903 1.384 . S
C904 C907 1.382 . S
C905 C903 1.384 . S
C905 C906 1.381 . S
C905 H929 0.930 . S
C906 C905 1.381 . S
C906 C908 1.381 . S
C906 C909 1.487 . S
C907 C904 1.382 . S
C907 C908 1.387 . S
C907 H930 0.930 . S
C908 C906 1.381 . S
C908 C907 1.387 . S
C908 H931 0.931 . S
C909 C902 1.399 . S
C909 C906 1.487 . S
C909 N941 1.343 . S
C910 C911 1.384 . S
C910 C912 1.384 . S
C910 H932 0.931 . S
C911 C910 1.384 . S
C911 C914 1.382 . S
C912 C910 1.384 . S
C912 C913 1.381 . S
C912 H933 0.930 . S
C913 C912 1.381 . S
C913 C915 1.381 . S
C913 C916 1.487 . S
C914 C911 1.382 . S
C914 C915 1.387 . S
C914 H934 0.930 . S
C915 C913 1.381 . S
C915 C914 1.387 . S
C915 H935 0.931 . S
C916 C913 1.487 . S
C916 C923 1.399 . S
C916 N941 1.343 . S
C917 C918 1.384 . S
C917 C919 1.384 . S
C917 H936 0.931 . S
C918 C917 1.384 . S
C918 C921 1.382 . S
C919 C917 1.384 . S
C919 C920 1.381 . S
C919 H937 0.930 . S
C920 C919 1.381 . S
C920 C922 1.381 . S
C920 C923 1.487 . S
C921 C918 1.382 . S
C921 C922 1.387 . S
C921 H938 0.930 . S
C922 C920 1.381 . S
C922 C921 1.387 . S
C922 H939 0.931 . S
C923 C916 1.399 . S
C923 C920 1.487 . S
C923 N940 1.343 . S
H924 C896 0.931 . S
H925 C898 0.930 . S
H926 C900 0.930 . S
H927 C901 0.931 . S
H928 C903 0.931 . S
H929 C905 0.930 . S
H930 C907 0.930 . S
H931 C908 0.931 . S
H932 C910 0.931 . S
H933 C912 0.930 . S
H934 C914 0.930 . S
H935 C915 0.931 . S
H936 C917 0.931 . S
H937 C919 0.930 . S
H938 C921 0.930 . S
H939 C922 0.931 . S
N940 C902 1.343 . S
N940 C923 1.343 . S
N941 C909 1.343 . S
N941 C916 1.343 . S
C942 C943 1.384 . S
C942 C944 1.384 . S
C942 H970 0.931 . S
C943 C942 1.384 . S
C943 C946 1.382 . S
C944 C942 1.384 . S
C944 C945 1.381 . S
C944 H971 0.930 . S
C945 C944 1.381 . S
C945 C947 1.381 . S
C945 C948 1.487 . S
C946 C943 1.382 . S
C946 C947 1.387 . S
C946 H972 0.930 . S
C947 C945 1.381 . S
C947 C946 1.387 . S
C947 H973 0.931 . S
C948 C945 1.487 . S
C948 C955 1.399 . S
C948 N986 1.343 . S
C949 C950 1.384 . S
C949 C951 1.384 . S
C949 H974 0.931 . S
C950 C949 1.384 . S
C950 C953 1.382 . S
C951 C949 1.384 . S
C951 C952 1.381 . S
C951 H975 0.930 . S
C952 C951 1.381 . S
C952 C954 1.381 . S
C952 C955 1.487 . S
C953 C950 1.382 . S
C953 C954 1.387 . S
C953 H976 0.930 . S
C954 C952 1.381 . S
C954 C953 1.387 . S
C954 H977 0.931 . S
C955 C948 1.399 . S
C955 C952 1.487 . S
C955 N987 1.343 . S
C956 C957 1.384 . S
C956 C958 1.384 . S
C956 H978 0.931 . S
C957 C956 1.384 . S
C957 C960 1.382 . S
C958 C956 1.384 . S
C958 C959 1.381 . S
C958 H979 0.930 . S
C959 C958 1.381 . S
C959 C961 1.381 . S
C959 C962 1.487 . S
C960 C957 1.382 . S
C960 C961 1.387 . S
C960 H980 0.930 . S
C961 C959 1.381 . S
C961 C960 1.387 . S
C961 H981 0.931 . S
C962 C959 1.487 . S
C962 C969 1.399 . S
C962 N987 1.343 . S
C963 C964 1.384 . S
C963 C965 1.384 . S
C963 H982 0.931 . S
C964 C963 1.384 . S
C964 C967 1.382 . S
C965 C963 1.384 . S
C965 C966 1.381 . S
C965 H983 0.930 . S
C966 C965 1.381 . S
C966 C968 1.381 . S
C966 C969 1.487 . S
C967 C964 1.382 . S
C967 C968 1.387 . S
C967 H984 0.930 . S
C968 C966 1.381 . S
C968 C967 1.387 . S
C968 H985 0.931 . S
C969 C962 1.399 . S
C969 C966 1.487 . S
C969 N986 1.343 . S
H970 C942 0.931 . S
H971 C944 0.930 . S
H972 C946 0.930 . S
H973 C947 0.931 . S
H974 C949 0.931 . S
H975 C951 0.930 . S
H976 C953 0.930 . S
H977 C954 0.931 . S
H978 C956 0.931 . S
H979 C958 0.930 . S
H980 C960 0.930 . S
H981 C961 0.931 . S
H982 C963 0.931 . S
H983 C965 0.930 . S
H984 C967 0.930 . S
H985 C968 0.931 . S
N986 C948 1.343 . S
N986 C969 1.343 . S
N987 C955 1.343 . S
N987 C962 1.343 . S
C988 C989 1.384 . S
C988 C990 1.384 . S
C988 H1016 0.931 . S
C989 C988 1.384 . S
C989 C992 1.382 . S
C990 C988 1.384 . S
C990 C991 1.381 . S
C990 H1017 0.930 . S
C991 C990 1.381 . S
C991 C993 1.381 . S
C991 C994 1.487 . S
C992 C989 1.382 . S
C992 C993 1.387 . S
C992 H1018 0.930 . S
C993 C991 1.381 . S
C993 C992 1.387 . S
C993 H1019 0.931 . S
C994 C991 1.487 . S
C994 C1001 1.399 . S
C994 N1032 1.343 . S
C995 C996 1.384 . S
C995 C997 1.384 . S
C995 H1020 0.931 . S
C996 C995 1.384 . S
C996 C999 1.382 . S
C997 C995 1.384 . S
C997 C998 1.381 . S
C997 H1021 0.930 . S
C998 C997 1.381 . S
C998 C1000 1.381 . S
C998 C1001 1.487 . S
C999 C996 1.382 . S
C999 C1000 1.387 . S
C999 H1022 0.930 . S
C1000 C998 1.381 . S
C1000 C999 1.387 . S
C1000 H1023 0.931 . S
C1001 C994 1.399 . S
C1001 C998 1.487 . S
C1001 N1033 1.343 . S
C1002 C1003 1.384 . S
C1002 C1004 1.384 . S
C1002 H1024 0.931 . S
C1003 C1002 1.384 . S
C1003 C1006 1.382 . S
C1004 C1002 1.384 . S
C1004 C1005 1.381 . S
C1004 H1025 0.930 . S
C1005 C1004 1.381 . S
C1005 C1007 1.381 . S
C1005 C1008 1.487 . S
C1006 C1003 1.382 . S
C1006 C1007 1.387 . S
C1006 H1026 0.930 . S
C1007 C1005 1.381 . S
C1007 C1006 1.387 . S
C1007 H1027 0.931 . S
C1008 C1005 1.487 . S
C1008 C1015 1.399 . S
C1008 N1033 1.343 . S
C1009 C1010 1.384 . S
C1009 C1011 1.384 . S
C1009 H1028 0.931 . S
C1010 C1009 1.384 . S
C1010 C1013 1.382 . S
C1011 C1009 1.384 . S
C1011 C1012 1.381 . S
C1011 H1029 0.930 . S
C1012 C1011 1.381 . S
C1012 C1014 1.381 . S
C1012 C1015 1.487 . S
C1013 C1010 1.382 . S
C1013 C1014 1.387 . S
C1013 H1030 0.930 . S
C1014 C1012 1.381 . S
C1014 C1013 1.387 . S
C1014 H1031 0.931 . S
C1015 C1008 1.399 . S
C1015 C1012 1.487 . S
C1015 N1032 1.343 . S
H1016 C988 0.931 . S
H1017 C990 0.930 . S
H1018 C992 0.930 . S
H1019 C993 0.931 . S
H1020 C995 0.931 . S
H1021 C997 0.930 . S
H1022 C999 0.930 . S
H1023 C1000 0.931 . S
H1024 C1002 0.931 . S
H1025 C1004 0.930 . S
H1026 C1006 0.930 . S
H1027 C1007 0.931 . S
H1028 C1009 0.931 . S
H1029 C1011 0.930 . S
H1030 C1013 0.930 . S
H1031 C1014 0.931 . S
N1032 C994 1.343 . S
N1032 C1015 1.343 . S
N1033 C1001 1.343 . S
N1033 C1008 1.343 . S
C1034 C1035 1.384 . S
C1034 C1036 1.384 . S
C1034 H1062 0.931 . S
C1035 C1034 1.384 . S
C1035 C1038 1.382 . S
C1036 C1034 1.384 . S
C1036 C1037 1.381 . S
C1036 H1063 0.930 . S
C1037 C1036 1.381 . S
C1037 C1039 1.381 . S
C1037 C1040 1.487 . S
C1038 C1035 1.382 . S
C1038 C1039 1.387 . S
C1038 H1064 0.930 . S
C1039 C1037 1.381 . S
C1039 C1038 1.387 . S
C1039 H1065 0.931 . S
C1040 C1037 1.487 . S
C1040 C1047 1.399 . S
C1040 N1078 1.343 . S
C1041 C1042 1.384 . S
C1041 C1043 1.384 . S
C1041 H1066 0.931 . S
C1042 C1041 1.384 . S
C1042 C1045 1.382 . S
C1043 C1041 1.384 . S
C1043 C1044 1.381 . S
C1043 H1067 0.930 . S
C1044 C1043 1.381 . S
C1044 C1046 1.381 . S
C1044 C1047 1.487 . S
C1045 C1042 1.382 . S
C1045 C1046 1.387 . S
C1045 H1068 0.930 . S
C1046 C1044 1.381 . S
C1046 C1045 1.387 . S
C1046 H1069 0.931 . S
C1047 C1040 1.399 . S
C1047 C1044 1.487 . S
C1047 N1079 1.343 . S
C1048 C1049 1.384 . S
C1048 C1050 1.384 . S
C1048 H1070 0.931 . S
C1049 C1048 1.384 . S
C1049 C1052 1.382 . S
C1050 C1048 1.384 . S
C1050 C1051 1.381 . S
C1050 H1071 0.930 . S
C1051 C1050 1.381 . S
C1051 C1053 1.381 . S
C1051 C1054 1.487 . S
C1052 C1049 1.382 . S
C1052 C1053 1.387 . S
C1052 H1072 0.930 . S
C1053 C1051 1.381 . S
C1053 C1052 1.387 . S
C1053 H1073 0.931 . S
C1054 C1051 1.487 . S
C1054 C1061 1.399 . S
C1054 N1079 1.343 . S
C1055 C1056 1.384 . S
C1055 C1057 1.384 . S
C1055 H1074 0.931 . S
C1056 C1055 1.384 . S
C1056 C1059 1.382 . S
C1057 C1055 1.384 . S
C1057 C1058 1.381 . S
C1057 H1075 0.930 . S
C1058 C1057 1.381 . S
C1058 C1060 1.381 . S
C1058 C1061 1.487 . S
C1059 C1056 1.382 . S
C1059 C1060 1.387 . S
C1059 H1076 0.930 . S
C1060 C1058 1.381 . S
C1060 C1059 1.387 . S
C1060 H1077 0.931 . S
C1061 C1054 1.399 . S
C1061 C1058 1.487 . S
C1061 N1078 1.343 . S
H1062 C1034 0.931 . S
H1063 C1036 0.930 . S
H1064 C1038 0.930 . S
H1065 C1039 0.931 . S
H1066 C1041 0.931 . S
H1067 C1043 0.930 . S
H1068 C1045 0.930 . S
H1069 C1046 0.931 . S
H1070 C1048 0.931 . S
H1071 C1050 0.930 . S
H1072 C1052 0.930 . S
H1073 C1053 0.931 . S
H1074 C1055 0.931 . S
H1075 C1057 0.930 . S
H1076 C1059 0.930 . S
H1077 C1060 0.931 . S
N1078 C1040 1.343 . S
N1078 C1061 1.343 . S
N1079 C1047 1.343 . S
N1079 C1054 1.343 . S
C1080 C1081 1.359 . S
C1080 C1082 1.327 . S
C1080 H1105 0.950 . S
C1081 C1080 1.359 . S
C1081 C1097 1.344 1_655 S
C1082 C1080 1.327 . S
C1082 C1101 1.451 . S
C1082 H1106 0.950 . S
C1083 C1100 1.574 . S
C1083 C1102 1.329 1_455 S
C1083 H1107 0.949 . S
H1084 C1088 0.949 . S
C1085 C1086 1.349 1_455 S
C1085 C1087 1.327 . S
C1085 H1108 0.950 . S
C1086 C1085 1.349 1_655 S
C1086 C1098 1.349 . S
C1087 C1085 1.327 . S
C1087 C1103 1.429 1_455 S
C1087 H1109 0.950 . S
C1088 H1084 0.949 . S
C1088 C1096 1.574 . S
C1088 C1104 1.368 . S
H1089 C1097 0.950 . S
H1090 C1095 0.950 . S
H1091 C1096 0.949 . S
H1092 C1098 0.950 . S
H1093 C1099 0.950 . S
H1094 C1100 0.949 . S
C1095 H1090 0.950 . S
C1095 C1097 1.327 . S
C1095 C1101 1.384 1_455 S
C1096 C1088 1.574 . S
C1096 H1091 0.949 . S
C1096 C1102 1.433 . S
C1097 C1081 1.344 1_455 S
C1097 H1089 0.950 . S
C1097 C1095 1.327 . S
C1098 C1086 1.349 . S
C1098 H1092 0.950 . S
C1098 C1099 1.327 . S
C1099 H1093 0.950 . S
C1099 C1098 1.327 . S
C1099 C1103 1.429 . S
C1100 C1083 1.574 . S
C1100 H1094 0.949 . S
C1100 C1104 1.368 1_455 S
C1101 C1082 1.451 . S
C1101 C1095 1.384 1_655 S
C1101 C1102 1.514 . S
C1102 C1083 1.329 1_655 S
C1102 C1096 1.433 . S
C1102 C1101 1.514 . S
C1103 C1087 1.429 1_655 S
C1103 C1099 1.429 . S
C1103 C1104 1.523 . S
C1104 C1088 1.368 . S
C1104 C1100 1.368 1_655 S
C1104 C1103 1.523 . S
H1105 C1080 0.950 . S
H1106 C1082 0.950 . S
H1107 C1083 0.949 . S
H1108 C1085 0.950 . S
H1109 C1087 0.950 . S
C1110 C1111 1.349 . S
C1110 C1112 1.327 . S
C1110 H1135 0.950 . S
C1111 C1110 1.349 . S
C1111 C1127 1.349 . S
C1112 C1110 1.327 . S
C1112 C1131 1.429 . S
C1112 H1136 0.950 . S
C1113 C1130 1.574 . S
C1113 C1132 1.368 . S
C1113 H1137 0.949 . S
H1114 C1118 0.949 . S
C1115 C1116 1.349 . S
C1115 C1117 1.327 . S
C1115 H1138 0.950 . S
C1116 C1115 1.349 . S
C1116 C1128 1.349 . S
C1117 C1115 1.327 . S
C1117 C1133 1.429 . S
C1117 H1139 0.950 . S
C1118 H1114 0.949 . S
C1118 C1126 1.574 . S
C1118 C1134 1.368 . S
H1119 C1127 0.950 . S
H1120 C1125 0.950 . S
H1121 C1126 0.949 . S
H1122 C1128 0.950 . S
H1123 C1129 0.950 . S
H1124 C1130 0.949 . S
C1125 H1120 0.950 . S
C1125 C1127 1.327 . S
C1125 C1131 1.429 . S
C1126 C1118 1.574 . S
C1126 H1121 0.949 . S
C1126 C1132 1.368 . S
C1127 C1111 1.349 . S
C1127 H1119 0.950 . S
C1127 C1125 1.327 . S
C1128 C1116 1.349 . S
C1128 H1122 0.950 . S
C1128 C1129 1.327 . S
C1129 H1123 0.950 . S
C1129 C1128 1.327 . S
C1129 C1133 1.429 . S
C1130 C1113 1.574 . S
C1130 H1124 0.949 . S
C1130 C1134 1.368 . S
C1131 C1112 1.429 . S
C1131 C1125 1.429 . S
C1131 C1132 1.523 . S
C1132 C1113 1.368 . S
C1132 C1126 1.368 . S
C1132 C1131 1.523 . S
C1133 C1117 1.429 . S
C1133 C1129 1.429 . S
C1133 C1134 1.523 . S
C1134 C1118 1.368 . S
C1134 C1130 1.368 . S
C1134 C1133 1.523 . S
H1135 C1110 0.950 . S
H1136 C1112 0.950 . S
H1137 C1113 0.949 . S
H1138 C1115 0.950 . S
H1139 C1117 0.950 . S
C1140 C1141 1.349 1_565 S
C1140 C1142 1.327 . S
C1140 H1165 0.950 . S
C1141 C1140 1.349 1_545 S
C1141 C1157 1.349 . S
C1142 C1140 1.327 . S
C1142 C1161 1.429 1_565 S
C1142 H1166 0.950 . S
C1143 C1160 1.574 . S
C1143 C1162 1.368 . S
C1143 H1167 0.949 . S
H1144 C1148 0.949 . S
C1145 C1146 1.349 . S
C1145 C1147 1.327 . S
C1145 H1168 0.950 . S
C1146 C1145 1.349 . S
C1146 C1158 1.349 1_545 S
C1147 C1145 1.327 . S
C1147 C1163 1.429 . S
C1147 H1169 0.950 . S
C1148 H1144 0.949 . S
C1148 C1156 1.574 . S
C1148 C1164 1.368 1_565 S
H1149 C1157 0.950 . S
H1150 C1155 0.950 . S
H1151 C1156 0.949 . S
H1152 C1158 0.950 . S
H1153 C1159 0.950 . S
H1154 C1160 0.949 . S
C1155 H1150 0.950 . S
C1155 C1157 1.327 . S
C1155 C1161 1.429 . S
C1156 C1148 1.574 . S
C1156 H1151 0.949 . S
C1156 C1162 1.368 1_565 S
C1157 C1141 1.349 . S
C1157 H1149 0.950 . S
C1157 C1155 1.327 . S
C1158 C1146 1.349 1_565 S
C1158 H1152 0.950 . S
C1158 C1159 1.327 . S
C1159 H1153 0.950 . S
C1159 C1158 1.327 . S
C1159 C1163 1.429 1_565 S
C1160 C1143 1.574 . S
C1160 H1154 0.949 . S
C1160 C1164 1.368 . S
C1161 C1142 1.429 1_545 S
C1161 C1155 1.429 . S
C1161 C1162 1.523 . S
C1162 C1143 1.368 . S
C1162 C1156 1.368 1_545 S
C1162 C1161 1.523 . S
C1163 C1147 1.429 . S
C1163 C1159 1.429 1_545 S
C1163 C1164 1.523 . S
C1164 C1148 1.368 1_545 S
C1164 C1160 1.368 . S
C1164 C1163 1.523 . S
H1165 C1140 0.950 . S
H1166 C1142 0.950 . S
H1167 C1143 0.949 . S
H1168 C1145 0.950 . S
H1169 C1147 0.950 . S
C1170 C1171 1.345 1_545 S
C1170 C1172 1.327 . S
C1170 H1195 0.950 . S
C1171 C1170 1.345 1_565 S
C1171 C1187 1.360 . S
C1172 C1170 1.327 . S
C1172 C1191 1.393 1_545 S
C1172 H1196 0.950 . S
C1173 C1190 1.574 . S
C1173 C1192 1.419 . S
C1173 H1197 0.949 . S
H1174 C1178 0.949 . S
C1175 C1176 1.349 . S
C1175 C1177 1.327 . S
C1175 H1198 0.950 . S
C1176 C1175 1.349 . S
C1176 C1188 1.349 1_565 S
C1177 C1175 1.327 . S
C1177 C1193 1.429 . S
C1177 H1199 0.950 . S
C1178 H1174 0.949 . S
C1178 C1186 1.574 . S
C1178 C1194 1.368 1_545 S
H1179 C1187 0.950 . S
H1180 C1185 0.950 . S
H1181 C1186 0.949 . S
H1182 C1188 0.950 . S
H1183 C1189 0.950 . S
H1184 C1190 0.949 . S
C1185 H1180 0.950 . S
C1185 C1187 1.327 . S
C1185 C1191 1.442 . S
C1186 C1178 1.574 . S
C1186 H1181 0.949 . S
C1186 C1192 1.345 1_545 S
C1187 C1171 1.360 . S
C1187 H1179 0.950 . S
C1187 C1185 1.327 . S
C1188 C1176 1.349 1_545 S
C1188 H1182 0.950 . S
C1188 C1189 1.327 . S
C1189 H1183 0.950 . S
C1189 C1188 1.327 . S
C1189 C1193 1.429 1_545 S
C1190 C1173 1.574 . S
C1190 H1184 0.949 . S
C1190 C1194 1.368 . S
C1191 C1172 1.393 1_565 S
C1191 C1185 1.442 . S
C1191 C1192 1.514 . S
C1192 C1173 1.419 . S
C1192 C1186 1.345 1_565 S
C1192 C1191 1.514 . S
C1193 C1177 1.429 . S
C1193 C1189 1.429 1_565 S
C1193 C1194 1.523 . S
C1194 C1178 1.368 1_565 S
C1194 C1190 1.368 . S
C1194 C1193 1.523 . S
H1195 C1170 0.950 . S
H1196 C1172 0.950 . S
H1197 C1173 0.949 . S
H1198 C1175 0.950 . S
H1199 C1177 0.950 . S
C1200 C1201 1.349 1_655 S
C1200 C1202 1.327 . S
C1200 H1225 0.950 . S
C1201 C1200 1.349 1_455 S
C1201 C1217 1.349 . S
C1202 C1200 1.327 . S
C1202 C1221 1.429 1_655 S
C1202 H1226 0.950 . S
C1203 C1220 1.574 . S
C1203 C1222 1.368 . S
C1203 H1227 0.949 . S
H1204 C1208 0.949 . S
C1205 C1206 1.349 . S
C1205 C1207 1.327 . S
C1205 H1228 0.950 . S
C1206 C1205 1.349 . S
C1206 C1218 1.349 1_455 S
C1207 C1205 1.327 . S
C1207 C1223 1.429 . S
C1207 H1229 0.950 . S
C1208 H1204 0.949 . S
C1208 C1216 1.574 . S
C1208 C1224 1.368 1_655 S
H1209 C1217 0.950 . S
H1210 C1215 0.950 . S
H1211 C1216 0.949 . S
H1212 C1218 0.950 . S
H1213 C1219 0.950 . S
H1214 C1220 0.949 . S
C1215 H1210 0.950 . S
C1215 C1217 1.327 . S
C1215 C1221 1.429 . S
C1216 C1208 1.574 . S
C1216 H1211 0.949 . S
C1216 C1222 1.368 1_655 S
C1217 C1201 1.349 . S
C1217 H1209 0.950 . S
C1217 C1215 1.327 . S
C1218 C1206 1.349 1_655 S
C1218 H1212 0.950 . S
C1218 C1219 1.327 . S
C1219 H1213 0.950 . S
C1219 C1218 1.327 . S
C1219 C1223 1.429 1_655 S
C1220 C1203 1.574 . S
C1220 H1214 0.949 . S
C1220 C1224 1.368 . S
C1221 C1202 1.429 1_455 S
C1221 C1215 1.429 . S
C1221 C1222 1.523 . S
C1222 C1203 1.368 . S
C1222 C1216 1.368 1_455 S
C1222 C1221 1.523 . S
C1223 C1207 1.429 . S
C1223 C1219 1.429 1_455 S
C1223 C1224 1.523 . S
C1224 C1208 1.368 1_455 S
C1224 C1220 1.368 . S
C1224 C1223 1.523 . S
H1225 C1200 0.950 . S
H1226 C1202 0.950 . S
H1227 C1203 0.949 . S
H1228 C1205 0.950 . S
H1229 C1207 0.950 . S
C1230 C1231 1.349 . S
C1230 C1232 1.327 . S
C1230 H1255 0.950 . S
C1231 C1230 1.349 . S
C1231 C1247 1.349 . S
C1232 C1230 1.327 . S
C1232 C1251 1.429 . S
C1232 H1256 0.950 . S
C1233 C1250 1.574 . S
C1233 C1252 1.368 . S
C1233 H1257 0.949 . S
H1234 C1238 0.949 . S
C1235 C1236 1.349 . S
C1235 C1237 1.327 . S
C1235 H1258 0.950 . S
C1236 C1235 1.349 . S
C1236 C1248 1.349 . S
C1237 C1235 1.327 . S
C1237 C1253 1.429 . S
C1237 H1259 0.950 . S
C1238 H1234 0.949 . S
C1238 C1246 1.574 . S
C1238 C1254 1.368 . S
H1239 C1247 0.950 . S
H1240 C1245 0.950 . S
H1241 C1246 0.949 . S
H1242 C1248 0.950 . S
H1243 C1249 0.950 . S
H1244 C1250 0.949 . S
C1245 H1240 0.950 . S
C1245 C1247 1.327 . S
C1245 C1251 1.429 . S
C1246 C1238 1.574 . S
C1246 H1241 0.949 . S
C1246 C1252 1.368 . S
C1247 C1231 1.349 . S
C1247 H1239 0.950 . S
C1247 C1245 1.327 . S
C1248 C1236 1.349 . S
C1248 H1242 0.950 . S
C1248 C1249 1.327 . S
C1249 H1243 0.950 . S
C1249 C1248 1.327 . S
C1249 C1253 1.429 . S
C1250 C1233 1.574 . S
C1250 H1244 0.949 . S
C1250 C1254 1.368 . S
C1251 C1232 1.429 . S
C1251 C1245 1.429 . S
C1251 C1252 1.523 . S
C1252 C1233 1.368 . S
C1252 C1246 1.368 . S
C1252 C1251 1.523 . S
C1253 C1237 1.429 . S
C1253 C1249 1.429 . S
C1253 C1254 1.523 . S
C1254 C1238 1.368 . S
C1254 C1250 1.368 . S
C1254 C1253 1.523 . S
H1255 C1230 0.950 . S
H1256 C1232 0.950 . S
H1257 C1233 0.949 . S
H1258 C1235 0.950 . S
H1259 C1237 0.950 . S
C1260 C1261 1.349 1_655 S
C1260 C1262 1.327 . S
C1260 H1285 0.950 . S
C1261 C1260 1.349 1_455 S
C1261 C1277 1.349 . S
C1262 C1260 1.327 . S
C1262 C1281 1.429 1_655 S
C1262 H1286 0.950 . S
C1263 C1280 1.574 . S
C1263 C1282 1.368 . S
C1263 H1287 0.949 . S
H1264 C1268 0.949 . S
C1265 C1266 1.349 . S
C1265 C1267 1.327 . S
C1265 H1288 0.950 . S
C1266 C1265 1.349 . S
C1266 C1278 1.349 1_455 S
C1267 C1265 1.327 . S
C1267 C1283 1.429 . S
C1267 H1289 0.950 . S
C1268 H1264 0.949 . S
C1268 C1276 1.574 . S
C1268 C1284 1.368 1_655 S
H1269 C1277 0.950 . S
H1270 C1275 0.950 . S
H1271 C1276 0.949 . S
H1272 C1278 0.950 . S
H1273 C1279 0.950 . S
H1274 C1280 0.949 . S
C1275 H1270 0.950 . S
C1275 C1277 1.327 . S
C1275 C1281 1.429 . S
C1276 C1268 1.574 . S
C1276 H1271 0.949 . S
C1276 C1282 1.368 1_655 S
C1277 C1261 1.349 . S
C1277 H1269 0.950 . S
C1277 C1275 1.327 . S
C1278 C1266 1.349 1_655 S
C1278 H1272 0.950 . S
C1278 C1279 1.327 . S
C1279 H1273 0.950 . S
C1279 C1278 1.327 . S
C1279 C1283 1.429 1_655 S
C1280 C1263 1.574 . S
C1280 H1274 0.949 . S
C1280 C1284 1.368 . S
C1281 C1262 1.429 1_455 S
C1281 C1275 1.429 . S
C1281 C1282 1.523 . S
C1282 C1263 1.368 . S
C1282 C1276 1.368 1_455 S
C1282 C1281 1.523 . S
C1283 C1267 1.429 . S
C1283 C1279 1.429 1_455 S
C1283 C1284 1.523 . S
C1284 C1268 1.368 1_455 S
C1284 C1280 1.368 . S
C1284 C1283 1.523 . S
H1285 C1260 0.950 . S
H1286 C1262 0.950 . S
H1287 C1263 0.949 . S
H1288 C1265 0.950 . S
H1289 C1267 0.950 . S
C1290 C1291 1.349 . S
C1290 C1292 1.327 . S
C1290 H1315 0.950 . S
C1291 C1290 1.349 . S
C1291 C1307 1.349 . S
C1292 C1290 1.327 . S
C1292 C1311 1.429 . S
C1292 H1316 0.950 . S
C1293 C1310 1.574 . S
C1293 C1312 1.368 . S
C1293 H1317 0.949 . S
H1294 C1298 0.949 . S
C1295 C1296 1.349 . S
C1295 C1297 1.327 . S
C1295 H1318 0.950 . S
C1296 C1295 1.349 . S
C1296 C1308 1.349 . S
C1297 C1295 1.327 . S
C1297 C1313 1.429 . S
C1297 H1319 0.950 . S
C1298 H1294 0.949 . S
C1298 C1306 1.574 . S
C1298 C1314 1.368 . S
H1299 C1307 0.950 . S
H1300 C1305 0.950 . S
H1301 C1306 0.949 . S
H1302 C1308 0.950 . S
H1303 C1309 0.950 . S
H1304 C1310 0.949 . S
C1305 H1300 0.950 . S
C1305 C1307 1.327 . S
C1305 C1311 1.429 . S
C1306 C1298 1.574 . S
C1306 H1301 0.949 . S
C1306 C1312 1.368 . S
C1307 C1291 1.349 . S
C1307 H1299 0.950 . S
C1307 C1305 1.327 . S
C1308 C1296 1.349 . S
C1308 H1302 0.950 . S
C1308 C1309 1.327 . S
C1309 H1303 0.950 . S
C1309 C1308 1.327 . S
C1309 C1313 1.429 . S
C1310 C1293 1.574 . S
C1310 H1304 0.949 . S
C1310 C1314 1.368 . S
C1311 C1292 1.429 . S
C1311 C1305 1.429 . S
C1311 C1312 1.523 . S
C1312 C1293 1.368 . S
C1312 C1306 1.368 . S
C1312 C1311 1.523 . S
C1313 C1297 1.429 . S
C1313 C1309 1.429 . S
C1313 C1314 1.523 . S
C1314 C1298 1.368 . S
C1314 C1310 1.368 . S
C1314 C1313 1.523 . S
H1315 C1290 0.950 . S
H1316 C1292 0.950 . S
H1317 C1293 0.949 . S
H1318 C1295 0.950 . S
H1319 C1297 0.950 . S
C1320 C1321 1.349 . S
C1320 C1322 1.327 . S
C1320 H1345 0.950 . S
C1321 C1320 1.349 . S
C1321 C1337 1.349 1_565 S
C1322 C1320 1.327 . S
C1322 C1341 1.429 . S
C1322 H1346 0.950 . S
C1323 C1340 1.574 . S
C1323 C1342 1.368 1_545 S
C1323 H1347 0.949 . S
H1324 C1328 0.949 . S
C1325 C1326 1.349 1_545 S
C1325 C1327 1.327 . S
C1325 H1348 0.950 . S
C1326 C1325 1.349 1_565 S
C1326 C1338 1.349 . S
C1327 C1325 1.327 . S
C1327 C1343 1.429 1_545 S
C1327 H1349 0.950 . S
C1328 H1324 0.949 . S
C1328 C1336 1.574 . S
C1328 C1344 1.368 . S
H1329 C1337 0.950 . S
H1330 C1335 0.950 . S
H1331 C1336 0.949 . S
H1332 C1338 0.950 . S
H1333 C1339 0.950 . S
H1334 C1340 0.949 . S
C1335 H1330 0.950 . S
C1335 C1337 1.327 . S
C1335 C1341 1.429 1_545 S
C1336 C1328 1.574 . S
C1336 H1331 0.949 . S
C1336 C1342 1.368 . S
C1337 C1321 1.349 1_545 S
C1337 H1329 0.950 . S
C1337 C1335 1.327 . S
C1338 C1326 1.349 . S
C1338 H1332 0.950 . S
C1338 C1339 1.327 . S
C1339 H1333 0.950 . S
C1339 C1338 1.327 . S
C1339 C1343 1.429 . S
C1340 C1323 1.574 . S
C1340 H1334 0.949 . S
C1340 C1344 1.368 1_545 S
C1341 C1322 1.429 . S
C1341 C1335 1.429 1_565 S
C1341 C1342 1.523 . S
C1342 C1323 1.368 1_565 S
C1342 C1336 1.368 . S
C1342 C1341 1.523 . S
C1343 C1327 1.429 1_565 S
C1343 C1339 1.429 . S
C1343 C1344 1.523 . S
C1344 C1328 1.368 . S
C1344 C1340 1.368 1_565 S
C1344 C1343 1.523 . S
H1345 C1320 0.950 . S
H1346 C1322 0.950 . S
H1347 C1323 0.949 . S
H1348 C1325 0.950 . S
H1349 C1327 0.950 . S
C1350 C1351 1.349 1_565 S
C1350 C1352 1.327 . S
C1350 H1375 0.950 . S
C1351 C1350 1.349 1_545 S
C1351 C1367 1.349 . S
C1352 C1350 1.327 . S
C1352 C1371 1.429 1_565 S
C1352 H1376 0.950 . S
C1353 C1370 1.574 . S
C1353 C1372 1.368 . S
C1353 H1377 0.949 . S
H1354 C1358 0.949 . S
C1355 C1356 1.349 . S
C1355 C1357 1.327 . S
C1355 H1378 0.950 . S
C1356 C1355 1.349 . S
C1356 C1368 1.349 1_545 S
C1357 C1355 1.327 . S
C1357 C1373 1.429 . S
C1357 H1379 0.950 . S
C1358 H1354 0.949 . S
C1358 C1366 1.574 . S
C1358 C1374 1.368 1_565 S
H1359 C1367 0.950 . S
H1360 C1365 0.950 . S
H1361 C1366 0.949 . S
H1362 C1368 0.950 . S
H1363 C1369 0.950 . S
H1364 C1370 0.949 . S
C1365 H1360 0.950 . S
C1365 C1367 1.327 . S
C1365 C1371 1.429 . S
C1366 C1358 1.574 . S
C1366 H1361 0.949 . S
C1366 C1372 1.368 1_565 S
C1367 C1351 1.349 . S
C1367 H1359 0.950 . S
C1367 C1365 1.327 . S
C1368 C1356 1.349 1_565 S
C1368 H1362 0.950 . S
C1368 C1369 1.327 . S
C1369 H1363 0.950 . S
C1369 C1368 1.327 . S
C1369 C1373 1.429 1_565 S
C1370 C1353 1.574 . S
C1370 H1364 0.949 . S
C1370 C1374 1.368 . S
C1371 C1352 1.429 1_545 S
C1371 C1365 1.429 . S
C1371 C1372 1.523 . S
C1372 C1353 1.368 . S
C1372 C1366 1.368 1_545 S
C1372 C1371 1.523 . S
C1373 C1357 1.429 . S
C1373 C1369 1.429 1_545 S
C1373 C1374 1.523 . S
C1374 C1358 1.368 1_545 S
C1374 C1370 1.368 . S
C1374 C1373 1.523 . S
H1375 C1350 0.950 . S
H1376 C1352 0.950 . S
H1377 C1353 0.949 . S
H1378 C1355 0.950 . S
H1379 C1357 0.950 . S
C1380 C1381 1.349 . S
C1380 C1382 1.327 . S
C1380 H1405 0.950 . S
C1381 C1380 1.349 . S
C1381 C1397 1.351 1_655 S
C1382 C1380 1.327 . S
C1382 C1401 1.429 . S
C1382 H1406 0.950 . S
C1383 C1400 1.577 . S
C1383 C1402 1.364 . S
C1383 H1407 0.941 1_655 S
H1384 C1388 0.949 . S
C1385 C1386 1.356 . S
C1385 C1387 1.331 . S
C1385 H1408 0.906 1_655 S
C1386 C1385 1.356 . S
C1386 C1398 1.349 . S
C1387 C1385 1.331 . S
C1387 C1403 1.443 . S
C1387 H1409 0.936 1_655 S
C1388 H1384 0.949 . S
C1388 C1396 1.574 . S
C1388 C1404 1.368 . S
H1389 C1397 0.949 . S
H1390 C1395 0.946 . S
H1391 C1396 0.949 . S
H1392 C1398 0.950 . S
H1393 C1399 0.950 . S
H1394 C1400 0.907 1_455 S
C1395 H1390 0.946 . S
C1395 C1397 1.328 . S
C1395 C1401 1.430 1_455 S
C1396 C1388 1.574 . S
C1396 H1391 0.949 . S
C1396 C1402 1.368 . S
C1397 C1381 1.351 1_455 S
C1397 H1389 0.949 . S
C1397 C1395 1.328 . S
C1398 C1386 1.349 . S
C1398 H1392 0.950 . S
C1398 C1399 1.327 . S
C1399 H1393 0.950 . S
C1399 C1398 1.327 . S
C1399 C1403 1.429 . S
C1400 C1383 1.577 . S
C1400 H1394 0.907 1_655 S
C1400 C1404 1.369 . S
C1401 C1382 1.429 . S
C1401 C1395 1.430 1_655 S
C1401 C1402 1.523 . S
C1402 C1383 1.364 . S
C1402 C1396 1.368 . S
C1402 C1401 1.523 . S
C1403 C1387 1.443 . S
C1403 C1399 1.429 . S
C1403 C1404 1.523 . S
C1404 C1388 1.368 . S
C1404 C1400 1.369 . S
C1404 C1403 1.523 . S
H1405 C1380 0.950 . S
H1406 C1382 0.950 . S
H1407 C1383 0.941 1_455 S
H1408 C1385 0.906 1_455 S
H1409 C1387 0.936 1_455 S
C1410 C1411 1.349 . S
C1410 C1412 1.327 . S
C1410 H1435 0.950 . S
C1411 C1410 1.349 . S
C1411 C1427 1.349 . S
C1412 C1410 1.327 . S
C1412 C1431 1.429 . S
C1412 H1436 0.950 . S
C1413 C1430 1.574 . S
C1413 C1432 1.368 . S
C1413 H1437 0.949 . S
H1414 C1418 0.949 . S
C1415 C1416 1.349 . S
C1415 C1417 1.327 . S
C1415 H1438 0.950 . S
C1416 C1415 1.349 . S
C1416 C1428 1.349 . S
C1417 C1415 1.327 . S
C1417 C1433 1.429 . S
C1417 H1439 0.950 . S
C1418 H1414 0.949 . S
C1418 C1426 1.574 . S
C1418 C1434 1.368 . S
H1419 C1427 0.950 . S
H1420 C1425 0.950 . S
H1421 C1426 0.949 . S
H1422 C1428 0.950 . S
H1423 C1429 0.950 . S
H1424 C1430 0.949 . S
C1425 H1420 0.950 . S
C1425 C1427 1.327 . S
C1425 C1431 1.429 . S
C1426 C1418 1.574 . S
C1426 H1421 0.949 . S
C1426 C1432 1.368 . S
C1427 C1411 1.349 . S
C1427 H1419 0.950 . S
C1427 C1425 1.327 . S
C1428 C1416 1.349 . S
C1428 H1422 0.950 . S
C1428 C1429 1.327 . S
C1429 H1423 0.950 . S
C1429 C1428 1.327 . S
C1429 C1433 1.429 . S
C1430 C1413 1.574 . S
C1430 H1424 0.949 . S
C1430 C1434 1.368 . S
C1431 C1412 1.429 . S
C1431 C1425 1.429 . S
C1431 C1432 1.523 . S
C1432 C1413 1.368 . S
C1432 C1426 1.368 . S
C1432 C1431 1.523 . S
C1433 C1417 1.429 . S
C1433 C1429 1.429 . S
C1433 C1434 1.523 . S
C1434 C1418 1.368 . S
C1434 C1430 1.368 . S
C1434 C1433 1.523 . S
H1435 C1410 0.950 . S
H1436 C1412 0.950 . S
H1437 C1413 0.949 . S
H1438 C1415 0.950 . S
H1439 C1417 0.950 . S
C1440 C1441 1.349 . S
C1440 C1442 1.327 . S
C1440 H1465 0.950 . S
C1441 C1440 1.349 . S
C1441 C1457 1.349 . S
C1442 C1440 1.327 . S
C1442 C1461 1.429 . S
C1442 H1466 0.950 . S
C1443 C1460 1.574 . S
C1443 C1462 1.368 . S
C1443 H1467 0.949 . S
H1444 C1448 0.949 . S
C1445 C1446 1.349 . S
C1445 C1447 1.327 . S
C1445 H1468 0.950 . S
C1446 C1445 1.349 . S
C1446 C1458 1.349 . S
C1447 C1445 1.327 . S
C1447 C1463 1.429 . S
C1447 H1469 0.950 . S
C1448 H1444 0.949 . S
C1448 C1456 1.574 . S
C1448 C1464 1.368 . S
H1449 C1457 0.950 . S
H1450 C1455 0.950 . S
H1451 C1456 0.949 . S
H1452 C1458 0.950 . S
H1453 C1459 0.950 . S
H1454 C1460 0.949 . S
C1455 H1450 0.950 . S
C1455 C1457 1.327 . S
C1455 C1461 1.429 . S
C1456 C1448 1.574 . S
C1456 H1451 0.949 . S
C1456 C1462 1.368 . S
C1457 C1441 1.349 . S
C1457 H1449 0.950 . S
C1457 C1455 1.327 . S
C1458 C1446 1.349 . S
C1458 H1452 0.950 . S
C1458 C1459 1.327 . S
C1459 H1453 0.950 . S
C1459 C1458 1.327 . S
C1459 C1463 1.429 . S
C1460 C1443 1.574 . S
C1460 H1454 0.949 . S
C1460 C1464 1.368 . S
C1461 C1442 1.429 . S
C1461 C1455 1.429 . S
C1461 C1462 1.523 . S
C1462 C1443 1.368 . S
C1462 C1456 1.368 . S
C1462 C1461 1.523 . S
C1463 C1447 1.429 . S
C1463 C1459 1.429 . S
C1463 C1464 1.523 . S
C1464 C1448 1.368 . S
C1464 C1460 1.368 . S
C1464 C1463 1.523 . S
H1465 C1440 0.950 . S
H1466 C1442 0.950 . S
H1467 C1443 0.949 . S
H1468 C1445 0.950 . S
H1469 C1447 0.950 . S
C1470 C1471 1.349 . S
C1470 C1472 1.327 . S
C1470 H1495 0.950 . S
C1471 C1470 1.349 . S
C1471 C1487 1.349 . S
C1472 C1470 1.327 . S
C1472 C1491 1.429 . S
C1472 H1496 0.950 . S
C1473 C1490 1.574 . S
C1473 C1492 1.368 . S
C1473 H1497 0.949 . S
H1474 C1478 0.949 . S
C1475 C1476 1.349 . S
C1475 C1477 1.327 . S
C1475 H1498 0.950 . S
C1476 C1475 1.349 . S
C1476 C1488 1.349 . S
C1477 C1475 1.327 . S
C1477 C1493 1.429 . S
C1477 H1499 0.950 . S
C1478 H1474 0.949 . S
C1478 C1486 1.574 . S
C1478 C1494 1.368 . S
H1479 C1487 0.950 . S
H1480 C1485 0.950 . S
H1481 C1486 0.949 . S
H1482 C1488 0.950 . S
H1483 C1489 0.950 . S
H1484 C1490 0.949 . S
C1485 H1480 0.950 . S
C1485 C1487 1.327 . S
C1485 C1491 1.429 . S
C1486 C1478 1.574 . S
C1486 H1481 0.949 . S
C1486 C1492 1.368 . S
C1487 C1471 1.349 . S
C1487 H1479 0.950 . S
C1487 C1485 1.327 . S
C1488 C1476 1.349 . S
C1488 H1482 0.950 . S
C1488 C1489 1.327 . S
C1489 H1483 0.950 . S
C1489 C1488 1.327 . S
C1489 C1493 1.429 . S
C1490 C1473 1.574 . S
C1490 H1484 0.949 . S
C1490 C1494 1.368 . S
C1491 C1472 1.429 . S
C1491 C1485 1.429 . S
C1491 C1492 1.523 . S
C1492 C1473 1.368 . S
C1492 C1486 1.368 . S
C1492 C1491 1.523 . S
C1493 C1477 1.429 . S
C1493 C1489 1.429 . S
C1493 C1494 1.523 . S
C1494 C1478 1.368 . S
C1494 C1490 1.368 . S
C1494 C1493 1.523 . S
H1495 C1470 0.950 . S
H1496 C1472 0.950 . S
H1497 C1473 0.949 . S
H1498 C1475 0.950 . S
H1499 C1477 0.950 . S
C1500 C1501 1.349 . S
C1500 C1502 1.327 . S
C1500 H1525 0.950 . S
C1501 C1500 1.349 . S
C1501 C1517 1.349 . S
C1502 C1500 1.327 . S
C1502 C1521 1.429 . S
C1502 H1526 0.950 . S
C1503 C1520 1.574 . S
C1503 C1522 1.368 . S
C1503 H1527 0.949 . S
H1504 C1508 0.949 . S
C1505 C1506 1.349 . S
C1505 C1507 1.327 . S
C1505 H1528 0.950 . S
C1506 C1505 1.349 . S
C1506 C1518 1.349 . S
C1507 C1505 1.327 . S
C1507 C1523 1.429 . S
C1507 H1529 0.950 . S
C1508 H1504 0.949 . S
C1508 C1516 1.574 . S
C1508 C1524 1.368 . S
H1509 C1517 0.950 . S
H1510 C1515 0.950 . S
H1511 C1516 0.949 . S
H1512 C1518 0.950 . S
H1513 C1519 0.950 . S
H1514 C1520 0.949 . S
C1515 H1510 0.950 . S
C1515 C1517 1.327 . S
C1515 C1521 1.429 . S
C1516 C1508 1.574 . S
C1516 H1511 0.949 . S
C1516 C1522 1.368 . S
C1517 C1501 1.349 . S
C1517 H1509 0.950 . S
C1517 C1515 1.327 . S
C1518 C1506 1.349 . S
C1518 H1512 0.950 . S
C1518 C1519 1.327 . S
C1519 H1513 0.950 . S
C1519 C1518 1.327 . S
C1519 C1523 1.429 . S
C1520 C1503 1.574 . S
C1520 H1514 0.949 . S
C1520 C1524 1.368 . S
C1521 C1502 1.429 . S
C1521 C1515 1.429 . S
C1521 C1522 1.523 . S
C1522 C1503 1.368 . S
C1522 C1516 1.368 . S
C1522 C1521 1.523 . S
C1523 C1507 1.429 . S
C1523 C1519 1.429 . S
C1523 C1524 1.523 . S
C1524 C1508 1.368 . S
C1524 C1520 1.368 . S
C1524 C1523 1.523 . S
H1525 C1500 0.950 . S
H1526 C1502 0.950 . S
H1527 C1503 0.949 . S
H1528 C1505 0.950 . S
H1529 C1507 0.950 . S
C1530 C1531 1.349 . S
C1530 C1532 1.327 . S
C1530 H1555 0.950 . S
C1531 C1530 1.349 . S
C1531 C1547 1.349 . S
C1532 C1530 1.327 . S
C1532 C1551 1.429 . S
C1532 H1556 0.950 . S
C1533 C1550 1.574 . S
C1533 C1552 1.368 . S
C1533 H1557 0.949 . S
H1534 C1538 0.949 . S
C1535 C1536 1.349 . S
C1535 C1537 1.327 . S
C1535 H1558 0.950 . S
C1536 C1535 1.349 . S
C1536 C1548 1.349 . S
C1537 C1535 1.327 . S
C1537 C1553 1.429 . S
C1537 H1559 0.950 . S
C1538 H1534 0.949 . S
C1538 C1546 1.574 . S
C1538 C1554 1.368 . S
H1539 C1547 0.950 . S
H1540 C1545 0.950 . S
H1541 C1546 0.949 . S
H1542 C1548 0.950 . S
H1543 C1549 0.950 . S
H1544 C1550 0.949 . S
C1545 H1540 0.950 . S
C1545 C1547 1.327 . S
C1545 C1551 1.429 . S
C1546 C1538 1.574 . S
C1546 H1541 0.949 . S
C1546 C1552 1.368 . S
C1547 C1531 1.349 . S
C1547 H1539 0.950 . S
C1547 C1545 1.327 . S
C1548 C1536 1.349 . S
C1548 H1542 0.950 . S
C1548 C1549 1.327 . S
C1549 H1543 0.950 . S
C1549 C1548 1.327 . S
C1549 C1553 1.429 . S
C1550 C1533 1.574 . S
C1550 H1544 0.949 . S
C1550 C1554 1.368 . S
C1551 C1532 1.429 . S
C1551 C1545 1.429 . S
C1551 C1552 1.523 . S
C1552 C1533 1.368 . S
C1552 C1546 1.368 . S
C1552 C1551 1.523 . S
C1553 C1537 1.429 . S
C1553 C1549 1.429 . S
C1553 C1554 1.523 . S
C1554 C1538 1.368 . S
C1554 C1550 1.368 . S
C1554 C1553 1.523 . S
H1555 C1530 0.950 . S
H1556 C1532 0.950 . S
H1557 C1533 0.949 . S
H1558 C1535 0.950 . S
H1559 C1537 0.950 . S
C1560 C1561 1.349 . S
C1560 C1562 1.327 . S
C1560 H1585 0.950 . S
C1561 C1560 1.349 . S
C1561 C1577 1.349 . S
C1562 C1560 1.327 . S
C1562 C1581 1.429 . S
C1562 H1586 0.950 . S
C1563 C1580 1.574 . S
C1563 C1582 1.368 . S
C1563 H1587 0.949 . S
H1564 C1568 0.949 . S
C1565 C1566 1.349 . S
C1565 C1567 1.327 . S
C1565 H1588 0.950 . S
C1566 C1565 1.349 . S
C1566 C1578 1.349 . S
C1567 C1565 1.327 . S
C1567 C1583 1.429 . S
C1567 H1589 0.950 . S
C1568 H1564 0.949 . S
C1568 C1576 1.574 . S
C1568 C1584 1.368 . S
H1569 C1577 0.950 . S
H1570 C1575 0.950 . S
H1571 C1576 0.949 . S
H1572 C1578 0.950 . S
H1573 C1579 0.950 . S
H1574 C1580 0.949 . S
C1575 H1570 0.950 . S
C1575 C1577 1.327 . S
C1575 C1581 1.429 . S
C1576 C1568 1.574 . S
C1576 H1571 0.949 . S
C1576 C1582 1.368 . S
C1577 C1561 1.349 . S
C1577 H1569 0.950 . S
C1577 C1575 1.327 . S
C1578 C1566 1.349 . S
C1578 H1572 0.950 . S
C1578 C1579 1.327 . S
C1579 H1573 0.950 . S
C1579 C1578 1.327 . S
C1579 C1583 1.429 . S
C1580 C1563 1.574 . S
C1580 H1574 0.949 . S
C1580 C1584 1.368 . S
C1581 C1562 1.429 . S
C1581 C1575 1.429 . S
C1581 C1582 1.523 . S
C1582 C1563 1.368 . S
C1582 C1576 1.368 . S
C1582 C1581 1.523 . S
C1583 C1567 1.429 . S
C1583 C1579 1.429 . S
C1583 C1584 1.523 . S
C1584 C1568 1.368 . S
C1584 C1580 1.368 . S
C1584 C1583 1.523 . S
H1585 C1560 0.950 . S
H1586 C1562 0.950 . S
H1587 C1563 0.949 . S
H1588 C1565 0.950 . S
H1589 C1567 0.950 . S
C1590 C1591 1.349 . S
C1590 C1592 1.327 . S
C1590 H1615 0.950 . S
C1591 C1590 1.349 . S
C1591 C1607 1.349 . S
C1592 C1590 1.327 . S
C1592 C1611 1.429 . S
C1592 H1616 0.950 . S
C1593 C1610 1.574 . S
C1593 C1612 1.368 . S
C1593 H1617 0.949 . S
H1594 C1598 0.949 . S
C1595 C1596 1.349 . S
C1595 C1597 1.327 . S
C1595 H1618 0.950 . S
C1596 C1595 1.349 . S
C1596 C1608 1.349 . S
C1597 C1595 1.327 . S
C1597 C1613 1.429 . S
C1597 H1619 0.950 . S
C1598 H1594 0.949 . S
C1598 C1606 1.574 . S
C1598 C1614 1.368 . S
H1599 C1607 0.950 . S
H1600 C1605 0.950 . S
H1601 C1606 0.949 . S
H1602 C1608 0.950 . S
H1603 C1609 0.950 . S
H1604 C1610 0.949 . S
C1605 H1600 0.950 . S
C1605 C1607 1.327 . S
C1605 C1611 1.429 . S
C1606 C1598 1.574 . S
C1606 H1601 0.949 . S
C1606 C1612 1.368 . S
C1607 C1591 1.349 . S
C1607 H1599 0.950 . S
C1607 C1605 1.327 . S
C1608 C1596 1.349 . S
C1608 H1602 0.950 . S
C1608 C1609 1.327 . S
C1609 H1603 0.950 . S
C1609 C1608 1.327 . S
C1609 C1613 1.429 . S
C1610 C1593 1.574 . S
C1610 H1604 0.949 . S
C1610 C1614 1.368 . S
C1611 C1592 1.429 . S
C1611 C1605 1.429 . S
C1611 C1612 1.523 . S
C1612 C1593 1.368 . S
C1612 C1606 1.368 . S
C1612 C1611 1.523 . S
C1613 C1597 1.429 . S
C1613 C1609 1.429 . S
C1613 C1614 1.523 . S
C1614 C1598 1.368 . S
C1614 C1610 1.368 . S
C1614 C1613 1.523 . S
H1615 C1590 0.950 . S
H1616 C1592 0.950 . S
H1617 C1593 0.949 . S
H1618 C1595 0.950 . S
H1619 C1597 0.950 . S
C1620 C1621 1.349 . S
C1620 C1622 1.327 . S
C1620 H1645 0.950 . S
C1621 C1620 1.349 . S
C1621 C1637 1.349 . S
C1622 C1620 1.327 . S
C1622 C1641 1.429 . S
C1622 H1646 0.950 . S
C1623 C1640 1.574 . S
C1623 C1642 1.368 . S
C1623 H1647 0.949 . S
H1624 C1628 0.949 . S
C1625 C1626 1.349 . S
C1625 C1627 1.327 . S
C1625 H1648 0.950 . S
C1626 C1625 1.349 . S
C1626 C1638 1.349 . S
C1627 C1625 1.327 . S
C1627 C1643 1.429 . S
C1627 H1649 0.950 . S
C1628 H1624 0.949 . S
C1628 C1636 1.574 . S
C1628 C1644 1.368 . S
H1629 C1637 0.950 . S
H1630 C1635 0.950 . S
H1631 C1636 0.949 . S
H1632 C1638 0.950 . S
H1633 C1639 0.950 . S
H1634 C1640 0.949 . S
C1635 H1630 0.950 . S
C1635 C1637 1.327 . S
C1635 C1641 1.429 . S
C1636 C1628 1.574 . S
C1636 H1631 0.949 . S
C1636 C1642 1.368 . S
C1637 C1621 1.349 . S
C1637 H1629 0.950 . S
C1637 C1635 1.327 . S
C1638 C1626 1.349 . S
C1638 H1632 0.950 . S
C1638 C1639 1.327 . S
C1639 H1633 0.950 . S
C1639 C1638 1.327 . S
C1639 C1643 1.429 . S
C1640 C1623 1.574 . S
C1640 H1634 0.949 . S
C1640 C1644 1.368 . S
C1641 C1622 1.429 . S
C1641 C1635 1.429 . S
C1641 C1642 1.523 . S
C1642 C1623 1.368 . S
C1642 C1636 1.368 . S
C1642 C1641 1.523 . S
C1643 C1627 1.429 . S
C1643 C1639 1.429 . S
C1643 C1644 1.523 . S
C1644 C1628 1.368 . S
C1644 C1640 1.368 . S
C1644 C1643 1.523 . S
H1645 C1620 0.950 . S
H1646 C1622 0.950 . S
H1647 C1623 0.949 . S
H1648 C1625 0.950 . S
H1649 C1627 0.950 . S
C1650 C1651 1.349 . S
C1650 C1652 1.327 . S
C1650 H1675 0.950 . S
C1651 C1650 1.349 . S
C1651 C1667 1.349 . S
C1652 C1650 1.327 . S
C1652 C1671 1.429 . S
C1652 H1676 0.950 . S
C1653 C1670 1.574 . S
C1653 C1672 1.368 . S
C1653 H1677 0.949 . S
H1654 C1658 0.949 . S
C1655 C1656 1.349 . S
C1655 C1657 1.327 . S
C1655 H1678 0.950 . S
C1656 C1655 1.349 . S
C1656 C1668 1.349 . S
C1657 C1655 1.327 . S
C1657 C1673 1.429 . S
C1657 H1679 0.950 . S
C1658 H1654 0.949 . S
C1658 C1666 1.574 . S
C1658 C1674 1.368 . S
H1659 C1667 0.950 . S
H1660 C1665 0.950 . S
H1661 C1666 0.949 . S
H1662 C1668 0.950 . S
H1663 C1669 0.950 . S
H1664 C1670 0.949 . S
C1665 H1660 0.950 . S
C1665 C1667 1.327 . S
C1665 C1671 1.429 . S
C1666 C1658 1.574 . S
C1666 H1661 0.949 . S
C1666 C1672 1.368 . S
C1667 C1651 1.349 . S
C1667 H1659 0.950 . S
C1667 C1665 1.327 . S
C1668 C1656 1.349 . S
C1668 H1662 0.950 . S
C1668 C1669 1.327 . S
C1669 H1663 0.950 . S
C1669 C1668 1.327 . S
C1669 C1673 1.429 . S
C1670 C1653 1.574 . S
C1670 H1664 0.949 . S
C1670 C1674 1.368 . S
C1671 C1652 1.429 . S
C1671 C1665 1.429 . S
C1671 C1672 1.523 . S
C1672 C1653 1.368 . S
C1672 C1666 1.368 . S
C1672 C1671 1.523 . S
C1673 C1657 1.429 . S
C1673 C1669 1.429 . S
C1673 C1674 1.523 . S
C1674 C1658 1.368 . S
C1674 C1670 1.368 . S
C1674 C1673 1.523 . S
H1675 C1650 0.950 . S
H1676 C1652 0.950 . S
H1677 C1653 0.949 . S
H1678 C1655 0.950 . S
H1679 C1657 0.950 . S
C1680 C1681 1.349 . S
C1680 C1682 1.327 . S
C1680 H1705 0.950 . S
C1681 C1680 1.349 . S
C1681 C1697 1.349 . S
C1682 C1680 1.327 . S
C1682 C1701 1.429 . S
C1682 H1706 0.950 . S
C1683 C1700 1.574 . S
C1683 C1702 1.368 . S
C1683 H1707 0.949 . S
H1684 C1688 0.949 . S
C1685 C1686 1.349 . S
C1685 C1687 1.327 . S
C1685 H1708 0.950 . S
C1686 C1685 1.349 . S
C1686 C1698 1.349 . S
C1687 C1685 1.327 . S
C1687 C1703 1.429 . S
C1687 H1709 0.950 . S
C1688 H1684 0.949 . S
C1688 C1696 1.574 . S
C1688 C1704 1.368 . S
H1689 C1697 0.950 . S
H1690 C1695 0.950 . S
H1691 C1696 0.949 . S
H1692 C1698 0.950 . S
H1693 C1699 0.950 . S
H1694 C1700 0.949 . S
C1695 H1690 0.950 . S
C1695 C1697 1.327 . S
C1695 C1701 1.429 . S
C1696 C1688 1.574 . S
C1696 H1691 0.949 . S
C1696 C1702 1.368 . S
C1697 C1681 1.349 . S
C1697 H1689 0.950 . S
C1697 C1695 1.327 . S
C1698 C1686 1.349 . S
C1698 H1692 0.950 . S
C1698 C1699 1.327 . S
C1699 H1693 0.950 . S
C1699 C1698 1.327 . S
C1699 C1703 1.429 . S
C1700 C1683 1.574 . S
C1700 H1694 0.949 . S
C1700 C1704 1.368 . S
C1701 C1682 1.429 . S
C1701 C1695 1.429 . S
C1701 C1702 1.523 . S
C1702 C1683 1.368 . S
C1702 C1696 1.368 . S
C1702 C1701 1.523 . S
C1703 C1687 1.429 . S
C1703 C1699 1.429 . S
C1703 C1704 1.523 . S
C1704 C1688 1.368 . S
C1704 C1700 1.368 . S
C1704 C1703 1.523 . S
H1705 C1680 0.950 . S
H1706 C1682 0.950 . S
H1707 C1683 0.949 . S
H1708 C1685 0.950 . S
H1709 C1687 0.950 . S
C1710 C1711 1.349 . S
C1710 C1712 1.327 . S
C1710 H1735 0.950 . S
C1711 C1710 1.349 . S
C1711 C1727 1.349 . S
C1712 C1710 1.327 . S
C1712 C1731 1.429 . S
C1712 H1736 0.950 . S
C1713 C1730 1.574 . S
C1713 C1732 1.368 . S
C1713 H1737 0.949 . S
H1714 C1718 0.949 . S
C1715 C1716 1.349 . S
C1715 C1717 1.327 . S
C1715 H1738 0.950 . S
C1716 C1715 1.349 . S
C1716 C1728 1.349 . S
C1717 C1715 1.327 . S
C1717 C1733 1.429 . S
C1717 H1739 0.950 . S
C1718 H1714 0.949 . S
C1718 C1726 1.574 . S
C1718 C1734 1.368 . S
H1719 C1727 0.950 . S
H1720 C1725 0.950 . S
H1721 C1726 0.949 . S
H1722 C1728 0.950 . S
H1723 C1729 0.950 . S
H1724 C1730 0.949 . S
C1725 H1720 0.950 . S
C1725 C1727 1.327 . S
C1725 C1731 1.429 . S
C1726 C1718 1.574 . S
C1726 H1721 0.949 . S
C1726 C1732 1.368 . S
C1727 C1711 1.349 . S
C1727 H1719 0.950 . S
C1727 C1725 1.327 . S
C1728 C1716 1.349 . S
C1728 H1722 0.950 . S
C1728 C1729 1.327 . S
C1729 H1723 0.950 . S
C1729 C1728 1.327 . S
C1729 C1733 1.429 . S
C1730 C1713 1.574 . S
C1730 H1724 0.949 . S
C1730 C1734 1.368 . S
C1731 C1712 1.429 . S
C1731 C1725 1.429 . S
C1731 C1732 1.523 . S
C1732 C1713 1.368 . S
C1732 C1726 1.368 . S
C1732 C1731 1.523 . S
C1733 C1717 1.429 . S
C1733 C1729 1.429 . S
C1733 C1734 1.523 . S
C1734 C1718 1.368 . S
C1734 C1730 1.368 . S
C1734 C1733 1.523 . S
H1735 C1710 0.950 . S
H1736 C1712 0.950 . S
H1737 C1713 0.949 . S
H1738 C1715 0.950 . S
H1739 C1717 0.950 . S
C1740 C1741 1.349 . S
C1740 C1742 1.327 . S
C1740 H1765 0.950 . S
C1741 C1740 1.349 . S
C1741 C1757 1.349 . S
C1742 C1740 1.327 . S
C1742 C1761 1.429 . S
C1742 H1766 0.950 . S
C1743 C1760 1.574 . S
C1743 C1762 1.368 . S
C1743 H1767 0.949 . S
H1744 C1748 0.949 . S
C1745 C1746 1.349 . S
C1745 C1747 1.327 . S
C1745 H1768 0.950 . S
C1746 C1745 1.349 . S
C1746 C1758 1.349 . S
C1747 C1745 1.327 . S
C1747 C1763 1.429 . S
C1747 H1769 0.950 . S
C1748 H1744 0.949 . S
C1748 C1756 1.574 . S
C1748 C1764 1.368 . S
H1749 C1757 0.950 . S
H1750 C1755 0.950 . S
H1751 C1756 0.949 . S
H1752 C1758 0.950 . S
H1753 C1759 0.950 . S
H1754 C1760 0.949 . S
C1755 H1750 0.950 . S
C1755 C1757 1.327 . S
C1755 C1761 1.429 . S
C1756 C1748 1.574 . S
C1756 H1751 0.949 . S
C1756 C1762 1.368 . S
C1757 C1741 1.349 . S
C1757 H1749 0.950 . S
C1757 C1755 1.327 . S
C1758 C1746 1.349 . S
C1758 H1752 0.950 . S
C1758 C1759 1.327 . S
C1759 H1753 0.950 . S
C1759 C1758 1.327 . S
C1759 C1763 1.429 . S
C1760 C1743 1.574 . S
C1760 H1754 0.949 . S
C1760 C1764 1.368 . S
C1761 C1742 1.429 . S
C1761 C1755 1.429 . S
C1761 C1762 1.523 . S
C1762 C1743 1.368 . S
C1762 C1756 1.368 . S
C1762 C1761 1.523 . S
C1763 C1747 1.429 . S
C1763 C1759 1.429 . S
C1763 C1764 1.523 . S
C1764 C1748 1.368 . S
C1764 C1760 1.368 . S
C1764 C1763 1.523 . S
H1765 C1740 0.950 . S
H1766 C1742 0.950 . S
H1767 C1743 0.949 . S
H1768 C1745 0.950 . S
H1769 C1747 0.950 . S
C1770 C1771 1.349 . S
C1770 C1772 1.327 . S
C1770 H1795 0.950 . S
C1771 C1770 1.349 . S
C1771 C1787 1.349 . S
C1772 C1770 1.327 . S
C1772 C1791 1.429 . S
C1772 H1796 0.950 . S
C1773 C1790 1.574 . S
C1773 C1792 1.368 . S
C1773 H1797 0.949 . S
H1774 C1778 0.949 . S
C1775 C1776 1.349 . S
C1775 C1777 1.327 . S
C1775 H1798 0.950 . S
C1776 C1775 1.349 . S
C1776 C1788 1.349 . S
C1777 C1775 1.327 . S
C1777 C1793 1.429 . S
C1777 H1799 0.950 . S
C1778 H1774 0.949 . S
C1778 C1786 1.574 . S
C1778 C1794 1.368 . S
H1779 C1787 0.950 . S
H1780 C1785 0.950 . S
H1781 C1786 0.949 . S
H1782 C1788 0.950 . S
H1783 C1789 0.950 . S
H1784 C1790 0.949 . S
C1785 H1780 0.950 . S
C1785 C1787 1.327 . S
C1785 C1791 1.429 . S
C1786 C1778 1.574 . S
C1786 H1781 0.949 . S
C1786 C1792 1.368 . S
C1787 C1771 1.349 . S
C1787 H1779 0.950 . S
C1787 C1785 1.327 . S
C1788 C1776 1.349 . S
C1788 H1782 0.950 . S
C1788 C1789 1.327 . S
C1789 H1783 0.950 . S
C1789 C1788 1.327 . S
C1789 C1793 1.429 . S
C1790 C1773 1.574 . S
C1790 H1784 0.949 . S
C1790 C1794 1.368 . S
C1791 C1772 1.429 . S
C1791 C1785 1.429 . S
C1791 C1792 1.523 . S
C1792 C1773 1.368 . S
C1792 C1786 1.368 . S
C1792 C1791 1.523 . S
C1793 C1777 1.429 . S
C1793 C1789 1.429 . S
C1793 C1794 1.523 . S
C1794 C1778 1.368 . S
C1794 C1790 1.368 . S
C1794 C1793 1.523 . S
H1795 C1770 0.950 . S
H1796 C1772 0.950 . S
H1797 C1773 0.949 . S
H1798 C1775 0.950 . S
H1799 C1777 0.950 . S
C1800 C1801 1.349 . S
C1800 C1802 1.327 . S
C1800 H1825 0.950 . S
C1801 C1800 1.349 . S
C1801 C1817 1.349 . S
C1802 C1800 1.327 . S
C1802 C1821 1.429 . S
C1802 H1826 0.950 . S
C1803 C1820 1.574 . S
C1803 C1822 1.368 . S
C1803 H1827 0.949 . S
H1804 C1808 0.949 . S
C1805 C1806 1.349 . S
C1805 C1807 1.327 . S
C1805 H1828 0.950 . S
C1806 C1805 1.349 . S
C1806 C1818 1.349 . S
C1807 C1805 1.327 . S
C1807 C1823 1.429 . S
C1807 H1829 0.950 . S
C1808 H1804 0.949 . S
C1808 C1816 1.574 . S
C1808 C1824 1.368 . S
H1809 C1817 0.950 . S
H1810 C1815 0.950 . S
H1811 C1816 0.949 . S
H1812 C1818 0.950 . S
H1813 C1819 0.950 . S
H1814 C1820 0.949 . S
C1815 H1810 0.950 . S
C1815 C1817 1.327 . S
C1815 C1821 1.429 . S
C1816 C1808 1.574 . S
C1816 H1811 0.949 . S
C1816 C1822 1.368 . S
C1817 C1801 1.349 . S
C1817 H1809 0.950 . S
C1817 C1815 1.327 . S
C1818 C1806 1.349 . S
C1818 H1812 0.950 . S
C1818 C1819 1.327 . S
C1819 H1813 0.950 . S
C1819 C1818 1.327 . S
C1819 C1823 1.429 . S
C1820 C1803 1.574 . S
C1820 H1814 0.949 . S
C1820 C1824 1.368 . S
C1821 C1802 1.429 . S
C1821 C1815 1.429 . S
C1821 C1822 1.523 . S
C1822 C1803 1.368 . S
C1822 C1816 1.368 . S
C1822 C1821 1.523 . S
C1823 C1807 1.429 . S
C1823 C1819 1.429 . S
C1823 C1824 1.523 . S
C1824 C1808 1.368 . S
C1824 C1820 1.368 . S
C1824 C1823 1.523 . S
H1825 C1800 0.950 . S
H1826 C1802 0.950 . S
H1827 C1803 0.949 . S
H1828 C1805 0.950 . S
H1829 C1807 0.950 . S
C1830 C1831 1.349 . S
C1830 C1832 1.327 . S
C1830 H1855 0.950 . S
C1831 C1830 1.349 . S
C1831 C1847 1.349 . S
C1832 C1830 1.327 . S
C1832 C1851 1.429 . S
C1832 H1856 0.950 . S
C1833 C1850 1.574 . S
C1833 C1852 1.368 . S
C1833 H1857 0.949 . S
H1834 C1838 0.949 . S
C1835 C1836 1.349 . S
C1835 C1837 1.327 . S
C1835 H1858 0.950 . S
C1836 C1835 1.349 . S
C1836 C1848 1.349 . S
C1837 C1835 1.327 . S
C1837 C1853 1.429 . S
C1837 H1859 0.950 . S
C1838 H1834 0.949 . S
C1838 C1846 1.574 . S
C1838 C1854 1.368 . S
H1839 C1847 0.950 . S
H1840 C1845 0.950 . S
H1841 C1846 0.949 . S
H1842 C1848 0.950 . S
H1843 C1849 0.950 . S
H1844 C1850 0.949 . S
C1845 H1840 0.950 . S
C1845 C1847 1.327 . S
C1845 C1851 1.429 . S
C1846 C1838 1.574 . S
C1846 H1841 0.949 . S
C1846 C1852 1.368 . S
C1847 C1831 1.349 . S
C1847 H1839 0.950 . S
C1847 C1845 1.327 . S
C1848 C1836 1.349 . S
C1848 H1842 0.950 . S
C1848 C1849 1.327 . S
C1849 H1843 0.950 . S
C1849 C1848 1.327 . S
C1849 C1853 1.429 . S
C1850 C1833 1.574 . S
C1850 H1844 0.949 . S
C1850 C1854 1.368 . S
C1851 C1832 1.429 . S
C1851 C1845 1.429 . S
C1851 C1852 1.523 . S
C1852 C1833 1.368 . S
C1852 C1846 1.368 . S
C1852 C1851 1.523 . S
C1853 C1837 1.429 . S
C1853 C1849 1.429 . S
C1853 C1854 1.523 . S
C1854 C1838 1.368 . S
C1854 C1850 1.368 . S
C1854 C1853 1.523 . S
H1855 C1830 0.950 . S
H1856 C1832 0.950 . S
H1857 C1833 0.949 . S
H1858 C1835 0.950 . S
H1859 C1837 0.950 . S
C1860 C1861 1.349 . S
C1860 C1862 1.327 . S
C1860 H1885 0.950 . S
C1861 C1860 1.349 . S
C1861 C1877 1.349 . S
C1862 C1860 1.327 . S
C1862 C1881 1.429 . S
C1862 H1886 0.950 . S
C1863 C1880 1.574 . S
C1863 C1882 1.368 . S
C1863 H1887 0.949 . S
H1864 C1868 0.949 . S
C1865 C1866 1.349 . S
C1865 C1867 1.327 . S
C1865 H1888 0.950 . S
C1866 C1865 1.349 . S
C1866 C1878 1.349 . S
C1867 C1865 1.327 . S
C1867 C1883 1.429 . S
C1867 H1889 0.950 . S
C1868 H1864 0.949 . S
C1868 C1876 1.574 . S
C1868 C1884 1.368 . S
H1869 C1877 0.950 . S
H1870 C1875 0.950 . S
H1871 C1876 0.949 . S
H1872 C1878 0.950 . S
H1873 C1879 0.950 . S
H1874 C1880 0.949 . S
C1875 H1870 0.950 . S
C1875 C1877 1.327 . S
C1875 C1881 1.429 . S
C1876 C1868 1.574 . S
C1876 H1871 0.949 . S
C1876 C1882 1.368 . S
C1877 C1861 1.349 . S
C1877 H1869 0.950 . S
C1877 C1875 1.327 . S
C1878 C1866 1.349 . S
C1878 H1872 0.950 . S
C1878 C1879 1.327 . S
C1879 H1873 0.950 . S
C1879 C1878 1.327 . S
C1879 C1883 1.429 . S
C1880 C1863 1.574 . S
C1880 H1874 0.949 . S
C1880 C1884 1.368 . S
C1881 C1862 1.429 . S
C1881 C1875 1.429 . S
C1881 C1882 1.523 . S
C1882 C1863 1.368 . S
C1882 C1876 1.368 . S
C1882 C1881 1.523 . S
C1883 C1867 1.429 . S
C1883 C1879 1.429 . S
C1883 C1884 1.523 . S
C1884 C1868 1.368 . S
C1884 C1880 1.368 . S
C1884 C1883 1.523 . S
H1885 C1860 0.950 . S
H1886 C1862 0.950 . S
H1887 C1863 0.949 . S
H1888 C1865 0.950 . S
H1889 C1867 0.950 . S
C1890 C1891 1.349 . S
C1890 C1892 1.327 . S
C1890 H1915 0.950 . S
C1891 C1890 1.349 . S
C1891 C1907 1.349 . S
C1892 C1890 1.327 . S
C1892 C1911 1.429 . S
C1892 H1916 0.950 . S
C1893 C1910 1.574 . S
C1893 C1912 1.368 . S
C1893 H1917 0.949 . S
H1894 C1898 0.949 . S
C1895 C1896 1.349 . S
C1895 C1897 1.327 . S
C1895 H1918 0.950 . S
C1896 C1895 1.349 . S
C1896 C1908 1.349 . S
C1897 C1895 1.327 . S
C1897 C1913 1.429 . S
C1897 H1919 0.950 . S
C1898 H1894 0.949 . S
C1898 C1906 1.574 . S
C1898 C1914 1.368 . S
H1899 C1907 0.950 . S
H1900 C1905 0.950 . S
H1901 C1906 0.949 . S
H1902 C1908 0.950 . S
H1903 C1909 0.950 . S
H1904 C1910 0.949 . S
C1905 H1900 0.950 . S
C1905 C1907 1.327 . S
C1905 C1911 1.429 . S
C1906 C1898 1.574 . S
C1906 H1901 0.949 . S
C1906 C1912 1.368 . S
C1907 C1891 1.349 . S
C1907 H1899 0.950 . S
C1907 C1905 1.327 . S
C1908 C1896 1.349 . S
C1908 H1902 0.950 . S
C1908 C1909 1.327 . S
C1909 H1903 0.950 . S
C1909 C1908 1.327 . S
C1909 C1913 1.429 . S
C1910 C1893 1.574 . S
C1910 H1904 0.949 . S
C1910 C1914 1.368 . S
C1911 C1892 1.429 . S
C1911 C1905 1.429 . S
C1911 C1912 1.523 . S
C1912 C1893 1.368 . S
C1912 C1906 1.368 . S
C1912 C1911 1.523 . S
C1913 C1897 1.429 . S
C1913 C1909 1.429 . S
C1913 C1914 1.523 . S
C1914 C1898 1.368 . S
C1914 C1910 1.368 . S
C1914 C1913 1.523 . S
H1915 C1890 0.950 . S
H1916 C1892 0.950 . S
H1917 C1893 0.949 . S
H1918 C1895 0.950 . S
H1919 C1897 0.950 . S
C1920 C1921 1.349 . S
C1920 C1922 1.327 . S
C1920 H1945 0.950 . S
C1921 C1920 1.349 . S
C1921 C1937 1.349 . S
C1922 C1920 1.327 . S
C1922 C1941 1.429 . S
C1922 H1946 0.950 . S
C1923 C1940 1.574 . S
C1923 C1942 1.368 . S
C1923 H1947 0.949 . S
H1924 C1928 0.949 . S
C1925 C1926 1.349 . S
C1925 C1927 1.327 . S
C1925 H1948 0.950 . S
C1926 C1925 1.349 . S
C1926 C1938 1.349 . S
C1927 C1925 1.327 . S
C1927 C1943 1.429 . S
C1927 H1949 0.950 . S
C1928 H1924 0.949 . S
C1928 C1936 1.574 . S
C1928 C1944 1.368 . S
H1929 C1937 0.950 . S
H1930 C1935 0.950 . S
H1931 C1936 0.949 . S
H1932 C1938 0.950 . S
H1933 C1939 0.950 . S
H1934 C1940 0.949 . S
C1935 H1930 0.950 . S
C1935 C1937 1.327 . S
C1935 C1941 1.429 . S
C1936 C1928 1.574 . S
C1936 H1931 0.949 . S
C1936 C1942 1.368 . S
C1937 C1921 1.349 . S
C1937 H1929 0.950 . S
C1937 C1935 1.327 . S
C1938 C1926 1.349 . S
C1938 H1932 0.950 . S
C1938 C1939 1.327 . S
C1939 H1933 0.950 . S
C1939 C1938 1.327 . S
C1939 C1943 1.429 . S
C1940 C1923 1.574 . S
C1940 H1934 0.949 . S
C1940 C1944 1.368 . S
C1941 C1922 1.429 . S
C1941 C1935 1.429 . S
C1941 C1942 1.523 . S
C1942 C1923 1.368 . S
C1942 C1936 1.368 . S
C1942 C1941 1.523 . S
C1943 C1927 1.429 . S
C1943 C1939 1.429 . S
C1943 C1944 1.523 . S
C1944 C1928 1.368 . S
C1944 C1940 1.368 . S
C1944 C1943 1.523 . S
H1945 C1920 0.950 . S
H1946 C1922 0.950 . S
H1947 C1923 0.949 . S
H1948 C1925 0.950 . S
H1949 C1927 0.950 . S
C1950 C1951 1.349 . S
C1950 C1952 1.327 . S
C1950 H1975 0.950 . S
C1951 C1950 1.349 . S
C1951 C1967 1.349 . S
C1952 C1950 1.327 . S
C1952 C1971 1.429 . S
C1952 H1976 0.950 . S
C1953 C1970 1.574 . S
C1953 C1972 1.368 . S
C1953 H1977 0.949 . S
H1954 C1958 0.949 . S
C1955 C1956 1.349 . S
C1955 C1957 1.327 . S
C1955 H1978 0.950 . S
C1956 C1955 1.349 . S
C1956 C1968 1.349 . S
C1957 C1955 1.327 . S
C1957 C1973 1.429 . S
C1957 H1979 0.950 . S
C1958 H1954 0.949 . S
C1958 C1966 1.574 . S
C1958 C1974 1.368 . S
H1959 C1967 0.950 . S
H1960 C1965 0.950 . S
H1961 C1966 0.949 . S
H1962 C1968 0.950 . S
H1963 C1969 0.950 . S
H1964 C1970 0.949 . S
C1965 H1960 0.950 . S
C1965 C1967 1.327 . S
C1965 C1971 1.429 . S
C1966 C1958 1.574 . S
C1966 H1961 0.949 . S
C1966 C1972 1.368 . S
C1967 C1951 1.349 . S
C1967 H1959 0.950 . S
C1967 C1965 1.327 . S
C1968 C1956 1.349 . S
C1968 H1962 0.950 . S
C1968 C1969 1.327 . S
C1969 H1963 0.950 . S
C1969 C1968 1.327 . S
C1969 C1973 1.429 . S
C1970 C1953 1.574 . S
C1970 H1964 0.949 . S
C1970 C1974 1.368 . S
C1971 C1952 1.429 . S
C1971 C1965 1.429 . S
C1971 C1972 1.523 . S
C1972 C1953 1.368 . S
C1972 C1966 1.368 . S
C1972 C1971 1.523 . S
C1973 C1957 1.429 . S
C1973 C1969 1.429 . S
C1973 C1974 1.523 . S
C1974 C1958 1.368 . S
C1974 C1970 1.368 . S
C1974 C1973 1.523 . S
H1975 C1950 0.950 . S
H1976 C1952 0.950 . S
H1977 C1953 0.949 . S
H1978 C1955 0.950 . S
H1979 C1957 0.950 . S
C1980 C1981 1.349 . S
C1980 C1982 1.327 . S
C1980 H2005 0.950 . S
C1981 C1980 1.349 . S
C1981 C1997 1.349 . S
C1982 C1980 1.327 . S
C1982 C2001 1.429 . S
C1982 H2006 0.950 . S
C1983 C2000 1.574 . S
C1983 C2002 1.368 . S
C1983 H2007 0.949 . S
H1984 C1988 0.949 . S
C1985 C1986 1.349 . S
C1985 C1987 1.327 . S
C1985 H2008 0.950 . S
C1986 C1985 1.349 . S
C1986 C1998 1.349 . S
C1987 C1985 1.327 . S
C1987 C2003 1.429 . S
C1987 H2009 0.950 . S
C1988 H1984 0.949 . S
C1988 C1996 1.574 . S
C1988 C2004 1.368 . S
H1989 C1997 0.950 . S
H1990 C1995 0.950 . S
H1991 C1996 0.949 . S
H1992 C1998 0.950 . S
H1993 C1999 0.950 . S
H1994 C2000 0.949 . S
C1995 H1990 0.950 . S
C1995 C1997 1.327 . S
C1995 C2001 1.429 . S
C1996 C1988 1.574 . S
C1996 H1991 0.949 . S
C1996 C2002 1.368 . S
C1997 C1981 1.349 . S
C1997 H1989 0.950 . S
C1997 C1995 1.327 . S
C1998 C1986 1.349 . S
C1998 H1992 0.950 . S
C1998 C1999 1.327 . S
C1999 H1993 0.950 . S
C1999 C1998 1.327 . S
C1999 C2003 1.429 . S
C2000 C1983 1.574 . S
C2000 H1994 0.949 . S
C2000 C2004 1.368 . S
C2001 C1982 1.429 . S
C2001 C1995 1.429 . S
C2001 C2002 1.523 . S
C2002 C1983 1.368 . S
C2002 C1996 1.368 . S
C2002 C2001 1.523 . S
C2003 C1987 1.429 . S
C2003 C1999 1.429 . S
C2003 C2004 1.523 . S
C2004 C1988 1.368 . S
C2004 C2000 1.368 . S
C2004 C2003 1.523 . S
H2005 C1980 0.950 . S
H2006 C1982 0.950 . S
H2007 C1983 0.949 . S
H2008 C1985 0.950 . S
H2009 C1987 0.950 . S
C2010 C2011 1.349 . S
C2010 C2012 1.327 . S
C2010 H2035 0.950 . S
C2011 C2010 1.349 . S
C2011 C2027 1.349 . S
C2012 C2010 1.327 . S
C2012 C2031 1.429 . S
C2012 H2036 0.950 . S
C2013 C2030 1.574 . S
C2013 C2032 1.368 . S
C2013 H2037 0.949 . S
H2014 C2018 0.949 . S
C2015 C2016 1.349 . S
C2015 C2017 1.327 . S
C2015 H2038 0.950 . S
C2016 C2015 1.349 . S
C2016 C2028 1.349 . S
C2017 C2015 1.327 . S
C2017 C2033 1.429 . S
C2017 H2039 0.950 . S
C2018 H2014 0.949 . S
C2018 C2026 1.574 . S
C2018 C2034 1.368 . S
H2019 C2027 0.950 . S
H2020 C2025 0.950 . S
H2021 C2026 0.949 . S
H2022 C2028 0.950 . S
H2023 C2029 0.950 . S
H2024 C2030 0.949 . S
C2025 H2020 0.950 . S
C2025 C2027 1.327 . S
C2025 C2031 1.429 . S
C2026 C2018 1.574 . S
C2026 H2021 0.949 . S
C2026 C2032 1.368 . S
C2027 C2011 1.349 . S
C2027 H2019 0.950 . S
C2027 C2025 1.327 . S
C2028 C2016 1.349 . S
C2028 H2022 0.950 . S
C2028 C2029 1.327 . S
C2029 H2023 0.950 . S
C2029 C2028 1.327 . S
C2029 C2033 1.429 . S
C2030 C2013 1.574 . S
C2030 H2024 0.949 . S
C2030 C2034 1.368 . S
C2031 C2012 1.429 . S
C2031 C2025 1.429 . S
C2031 C2032 1.523 . S
C2032 C2013 1.368 . S
C2032 C2026 1.368 . S
C2032 C2031 1.523 . S
C2033 C2017 1.429 . S
C2033 C2029 1.429 . S
C2033 C2034 1.523 . S
C2034 C2018 1.368 . S
C2034 C2030 1.368 . S
C2034 C2033 1.523 . S
H2035 C2010 0.950 . S
H2036 C2012 0.950 . S
H2037 C2013 0.949 . S
H2038 C2015 0.950 . S
H2039 C2017 0.950 . S
C2040 C2041 1.349 . S
C2040 C2042 1.327 . S
C2040 H2065 0.950 . S
C2041 C2040 1.349 . S
C2041 C2057 1.349 . S
C2042 C2040 1.327 . S
C2042 C2061 1.429 . S
C2042 H2066 0.950 . S
C2043 C2060 1.574 . S
C2043 C2062 1.368 . S
C2043 H2067 0.949 . S
H2044 C2048 0.949 . S
C2045 C2046 1.349 . S
C2045 C2047 1.327 . S
C2045 H2068 0.950 . S
C2046 C2045 1.349 . S
C2046 C2058 1.349 . S
C2047 C2045 1.327 . S
C2047 C2063 1.429 . S
C2047 H2069 0.950 . S
C2048 H2044 0.949 . S
C2048 C2056 1.574 . S
C2048 C2064 1.368 . S
H2049 C2057 0.950 . S
H2050 C2055 0.950 . S
H2051 C2056 0.949 . S
H2052 C2058 0.950 . S
H2053 C2059 0.950 . S
H2054 C2060 0.949 . S
C2055 H2050 0.950 . S
C2055 C2057 1.327 . S
C2055 C2061 1.429 . S
C2056 C2048 1.574 . S
C2056 H2051 0.949 . S
C2056 C2062 1.368 . S
C2057 C2041 1.349 . S
C2057 H2049 0.950 . S
C2057 C2055 1.327 . S
C2058 C2046 1.349 . S
C2058 H2052 0.950 . S
C2058 C2059 1.327 . S
C2059 H2053 0.950 . S
C2059 C2058 1.327 . S
C2059 C2063 1.429 . S
C2060 C2043 1.574 . S
C2060 H2054 0.949 . S
C2060 C2064 1.368 . S
C2061 C2042 1.429 . S
C2061 C2055 1.429 . S
C2061 C2062 1.523 . S
C2062 C2043 1.368 . S
C2062 C2056 1.368 . S
C2062 C2061 1.523 . S
C2063 C2047 1.429 . S
C2063 C2059 1.429 . S
C2063 C2064 1.523 . S
C2064 C2048 1.368 . S
C2064 C2060 1.368 . S
C2064 C2063 1.523 . S
H2065 C2040 0.950 . S
H2066 C2042 0.950 . S
H2067 C2043 0.949 . S
H2068 C2045 0.950 . S
H2069 C2047 0.950 . S
C2070 C2071 1.349 . S
C2070 C2072 1.327 . S
C2070 H2095 0.950 . S
C2071 C2070 1.349 . S
C2071 C2087 1.349 . S
C2072 C2070 1.327 . S
C2072 C2091 1.429 . S
C2072 H2096 0.950 . S
C2073 C2090 1.574 . S
C2073 C2092 1.368 . S
C2073 H2097 0.949 . S
H2074 C2078 0.949 . S
C2075 C2076 1.349 . S
C2075 C2077 1.327 . S
C2075 H2098 0.950 . S
C2076 C2075 1.349 . S
C2076 C2088 1.349 . S
C2077 C2075 1.327 . S
C2077 C2093 1.429 . S
C2077 H2099 0.950 . S
C2078 H2074 0.949 . S
C2078 C2086 1.574 . S
C2078 C2094 1.368 . S
H2079 C2087 0.950 . S
H2080 C2085 0.950 . S
H2081 C2086 0.949 . S
H2082 C2088 0.950 . S
H2083 C2089 0.950 . S
H2084 C2090 0.949 . S
C2085 H2080 0.950 . S
C2085 C2087 1.327 . S
C2085 C2091 1.429 . S
C2086 C2078 1.574 . S
C2086 H2081 0.949 . S
C2086 C2092 1.368 . S
C2087 C2071 1.349 . S
C2087 H2079 0.950 . S
C2087 C2085 1.327 . S
C2088 C2076 1.349 . S
C2088 H2082 0.950 . S
C2088 C2089 1.327 . S
C2089 H2083 0.950 . S
C2089 C2088 1.327 . S
C2089 C2093 1.429 . S
C2090 C2073 1.574 . S
C2090 H2084 0.949 . S
C2090 C2094 1.368 . S
C2091 C2072 1.429 . S
C2091 C2085 1.429 . S
C2091 C2092 1.523 . S
C2092 C2073 1.368 . S
C2092 C2086 1.368 . S
C2092 C2091 1.523 . S
C2093 C2077 1.429 . S
C2093 C2089 1.429 . S
C2093 C2094 1.523 . S
C2094 C2078 1.368 . S
C2094 C2090 1.368 . S
C2094 C2093 1.523 . S
H2095 C2070 0.950 . S
H2096 C2072 0.950 . S
H2097 C2073 0.949 . S
H2098 C2075 0.950 . S
H2099 C2077 0.950 . S
C2100 C2101 1.349 . S
C2100 C2102 1.327 . S
C2100 H2125 0.950 . S
C2101 C2100 1.349 . S
C2101 C2117 1.349 . S
C2102 C2100 1.327 . S
C2102 C2121 1.429 . S
C2102 H2126 0.950 . S
C2103 C2120 1.574 . S
C2103 C2122 1.368 . S
C2103 H2127 0.949 . S
H2104 C2108 0.949 . S
C2105 C2106 1.349 . S
C2105 C2107 1.327 . S
C2105 H2128 0.950 . S
C2106 C2105 1.349 . S
C2106 C2118 1.349 . S
C2107 C2105 1.327 . S
C2107 C2123 1.429 . S
C2107 H2129 0.950 . S
C2108 H2104 0.949 . S
C2108 C2116 1.574 . S
C2108 C2124 1.368 . S
H2109 C2117 0.950 . S
H2110 C2115 0.950 . S
H2111 C2116 0.949 . S
H2112 C2118 0.950 . S
H2113 C2119 0.950 . S
H2114 C2120 0.949 . S
C2115 H2110 0.950 . S
C2115 C2117 1.327 . S
C2115 C2121 1.429 . S
C2116 C2108 1.574 . S
C2116 H2111 0.949 . S
C2116 C2122 1.368 . S
C2117 C2101 1.349 . S
C2117 H2109 0.950 . S
C2117 C2115 1.327 . S
C2118 C2106 1.349 . S
C2118 H2112 0.950 . S
C2118 C2119 1.327 . S
C2119 H2113 0.950 . S
C2119 C2118 1.327 . S
C2119 C2123 1.429 . S
C2120 C2103 1.574 . S
C2120 H2114 0.949 . S
C2120 C2124 1.368 . S
C2121 C2102 1.429 . S
C2121 C2115 1.429 . S
C2121 C2122 1.523 . S
C2122 C2103 1.368 . S
C2122 C2116 1.368 . S
C2122 C2121 1.523 . S
C2123 C2107 1.429 . S
C2123 C2119 1.429 . S
C2123 C2124 1.523 . S
C2124 C2108 1.368 . S
C2124 C2120 1.368 . S
C2124 C2123 1.523 . S
H2125 C2100 0.950 . S
H2126 C2102 0.950 . S
H2127 C2103 0.949 . S
H2128 C2105 0.950 . S
H2129 C2107 0.950 . S
C2130 C2131 1.349 . S
C2130 C2132 1.327 . S
C2130 H2155 0.950 . S
C2131 C2130 1.349 . S
C2131 C2147 1.349 . S
C2132 C2130 1.327 . S
C2132 C2151 1.429 . S
C2132 H2156 0.950 . S
C2133 C2150 1.574 . S
C2133 C2152 1.368 . S
C2133 H2157 0.949 . S
H2134 C2138 0.949 . S
C2135 C2136 1.349 . S
C2135 C2137 1.327 . S
C2135 H2158 0.950 . S
C2136 C2135 1.349 . S
C2136 C2148 1.349 . S
C2137 C2135 1.327 . S
C2137 C2153 1.429 . S
C2137 H2159 0.950 . S
C2138 H2134 0.949 . S
C2138 C2146 1.574 . S
C2138 C2154 1.368 . S
H2139 C2147 0.950 . S
H2140 C2145 0.950 . S
H2141 C2146 0.949 . S
H2142 C2148 0.950 . S
H2143 C2149 0.950 . S
H2144 C2150 0.949 . S
C2145 H2140 0.950 . S
C2145 C2147 1.327 . S
C2145 C2151 1.429 . S
C2146 C2138 1.574 . S
C2146 H2141 0.949 . S
C2146 C2152 1.368 . S
C2147 C2131 1.349 . S
C2147 H2139 0.950 . S
C2147 C2145 1.327 . S
C2148 C2136 1.349 . S
C2148 H2142 0.950 . S
C2148 C2149 1.327 . S
C2149 H2143 0.950 . S
C2149 C2148 1.327 . S
C2149 C2153 1.429 . S
C2150 C2133 1.574 . S
C2150 H2144 0.949 . S
C2150 C2154 1.368 . S
C2151 C2132 1.429 . S
C2151 C2145 1.429 . S
C2151 C2152 1.523 . S
C2152 C2133 1.368 . S
C2152 C2146 1.368 . S
C2152 C2151 1.523 . S
C2153 C2137 1.429 . S
C2153 C2149 1.429 . S
C2153 C2154 1.523 . S
C2154 C2138 1.368 . S
C2154 C2150 1.368 . S
C2154 C2153 1.523 . S
H2155 C2130 0.950 . S
H2156 C2132 0.950 . S
H2157 C2133 0.949 . S
H2158 C2135 0.950 . S
H2159 C2137 0.950 . S
C2160 C2161 1.349 . S
C2160 C2162 1.327 . S
C2160 H2185 0.950 . S
C2161 C2160 1.349 . S
C2161 C2177 1.349 . S
C2162 C2160 1.327 . S
C2162 C2181 1.429 . S
C2162 H2186 0.950 . S
C2163 C2180 1.574 . S
C2163 C2182 1.368 . S
C2163 H2187 0.949 . S
H2164 C2168 0.949 . S
C2165 C2166 1.349 . S
C2165 C2167 1.327 . S
C2165 H2188 0.950 . S
C2166 C2165 1.349 . S
C2166 C2178 1.349 . S
C2167 C2165 1.327 . S
C2167 C2183 1.429 . S
C2167 H2189 0.950 . S
C2168 H2164 0.949 . S
C2168 C2176 1.574 . S
C2168 C2184 1.368 . S
H2169 C2177 0.950 . S
H2170 C2175 0.950 . S
H2171 C2176 0.949 . S
H2172 C2178 0.950 . S
H2173 C2179 0.950 . S
H2174 C2180 0.949 . S
C2175 H2170 0.950 . S
C2175 C2177 1.327 . S
C2175 C2181 1.429 . S
C2176 C2168 1.574 . S
C2176 H2171 0.949 . S
C2176 C2182 1.368 . S
C2177 C2161 1.349 . S
C2177 H2169 0.950 . S
C2177 C2175 1.327 . S
C2178 C2166 1.349 . S
C2178 H2172 0.950 . S
C2178 C2179 1.327 . S
C2179 H2173 0.950 . S
C2179 C2178 1.327 . S
C2179 C2183 1.429 . S
C2180 C2163 1.574 . S
C2180 H2174 0.949 . S
C2180 C2184 1.368 . S
C2181 C2162 1.429 . S
C2181 C2175 1.429 . S
C2181 C2182 1.523 . S
C2182 C2163 1.368 . S
C2182 C2176 1.368 . S
C2182 C2181 1.523 . S
C2183 C2167 1.429 . S
C2183 C2179 1.429 . S
C2183 C2184 1.523 . S
C2184 C2168 1.368 . S
C2184 C2180 1.368 . S
C2184 C2183 1.523 . S
H2185 C2160 0.950 . S
H2186 C2162 0.950 . S
H2187 C2163 0.949 . S
H2188 C2165 0.950 . S
H2189 C2167 0.950 . S
C2190 C2191 1.349 . S
C2190 C2192 1.327 . S
C2190 H2215 0.950 . S
C2191 C2190 1.349 . S
C2191 C2207 1.349 . S
C2192 C2190 1.327 . S
C2192 C2211 1.429 . S
C2192 H2216 0.950 . S
C2193 C2210 1.574 . S
C2193 C2212 1.368 . S
C2193 H2217 0.949 . S
H2194 C2198 0.949 . S
C2195 C2196 1.349 . S
C2195 C2197 1.327 . S
C2195 H2218 0.950 . S
C2196 C2195 1.349 . S
C2196 C2208 1.349 . S
C2197 C2195 1.327 . S
C2197 C2213 1.429 . S
C2197 H2219 0.950 . S
C2198 H2194 0.949 . S
C2198 C2206 1.574 . S
C2198 C2214 1.368 . S
H2199 C2207 0.950 . S
H2200 C2205 0.950 . S
H2201 C2206 0.949 . S
H2202 C2208 0.950 . S
H2203 C2209 0.950 . S
H2204 C2210 0.949 . S
C2205 H2200 0.950 . S
C2205 C2207 1.327 . S
C2205 C2211 1.429 . S
C2206 C2198 1.574 . S
C2206 H2201 0.949 . S
C2206 C2212 1.368 . S
C2207 C2191 1.349 . S
C2207 H2199 0.950 . S
C2207 C2205 1.327 . S
C2208 C2196 1.349 . S
C2208 H2202 0.950 . S
C2208 C2209 1.327 . S
C2209 H2203 0.950 . S
C2209 C2208 1.327 . S
C2209 C2213 1.429 . S
C2210 C2193 1.574 . S
C2210 H2204 0.949 . S
C2210 C2214 1.368 . S
C2211 C2192 1.429 . S
C2211 C2205 1.429 . S
C2211 C2212 1.523 . S
C2212 C2193 1.368 . S
C2212 C2206 1.368 . S
C2212 C2211 1.523 . S
C2213 C2197 1.429 . S
C2213 C2209 1.429 . S
C2213 C2214 1.523 . S
C2214 C2198 1.368 . S
C2214 C2210 1.368 . S
C2214 C2213 1.523 . S
H2215 C2190 0.950 . S
H2216 C2192 0.950 . S
H2217 C2193 0.949 . S
H2218 C2195 0.950 . S
H2219 C2197 0.950 . S
C2220 C2221 1.349 . S
C2220 C2222 1.327 . S
C2220 H2245 0.950 . S
C2221 C2220 1.349 . S
C2221 C2237 1.349 . S
C2222 C2220 1.327 . S
C2222 C2241 1.429 . S
C2222 H2246 0.950 . S
C2223 C2240 1.574 . S
C2223 C2242 1.368 . S
C2223 H2247 0.949 . S
H2224 C2228 0.949 . S
C2225 C2226 1.349 . S
C2225 C2227 1.327 . S
C2225 H2248 0.950 . S
C2226 C2225 1.349 . S
C2226 C2238 1.349 . S
C2227 C2225 1.327 . S
C2227 C2243 1.429 . S
C2227 H2249 0.950 . S
C2228 H2224 0.949 . S
C2228 C2236 1.574 . S
C2228 C2244 1.368 . S
H2229 C2237 0.950 . S
H2230 C2235 0.950 . S
H2231 C2236 0.949 . S
H2232 C2238 0.950 . S
H2233 C2239 0.950 . S
H2234 C2240 0.949 . S
C2235 H2230 0.950 . S
C2235 C2237 1.327 . S
C2235 C2241 1.429 . S
C2236 C2228 1.574 . S
C2236 H2231 0.949 . S
C2236 C2242 1.368 . S
C2237 C2221 1.349 . S
C2237 H2229 0.950 . S
C2237 C2235 1.327 . S
C2238 C2226 1.349 . S
C2238 H2232 0.950 . S
C2238 C2239 1.327 . S
C2239 H2233 0.950 . S
C2239 C2238 1.327 . S
C2239 C2243 1.429 . S
C2240 C2223 1.574 . S
C2240 H2234 0.949 . S
C2240 C2244 1.368 . S
C2241 C2222 1.429 . S
C2241 C2235 1.429 . S
C2241 C2242 1.523 . S
C2242 C2223 1.368 . S
C2242 C2236 1.368 . S
C2242 C2241 1.523 . S
C2243 C2227 1.429 . S
C2243 C2239 1.429 . S
C2243 C2244 1.523 . S
C2244 C2228 1.368 . S
C2244 C2240 1.368 . S
C2244 C2243 1.523 . S
H2245 C2220 0.950 . S
H2246 C2222 0.950 . S
H2247 C2223 0.949 . S
H2248 C2225 0.950 . S
H2249 C2227 0.950 . S
C2250 C2251 1.349 . S
C2250 C2252 1.327 . S
C2250 H2275 0.950 . S
C2251 C2250 1.349 . S
C2251 C2267 1.349 . S
C2252 C2250 1.327 . S
C2252 C2271 1.429 . S
C2252 H2276 0.950 . S
C2253 C2270 1.574 . S
C2253 C2272 1.368 . S
C2253 H2277 0.949 . S
H2254 C2258 0.949 . S
C2255 C2256 1.349 . S
C2255 C2257 1.327 . S
C2255 H2278 0.950 . S
C2256 C2255 1.349 . S
C2256 C2268 1.349 . S
C2257 C2255 1.327 . S
C2257 C2273 1.429 . S
C2257 H2279 0.950 . S
C2258 H2254 0.949 . S
C2258 C2266 1.574 . S
C2258 C2274 1.368 . S
H2259 C2267 0.950 . S
H2260 C2265 0.950 . S
H2261 C2266 0.949 . S
H2262 C2268 0.950 . S
H2263 C2269 0.950 . S
H2264 C2270 0.949 . S
C2265 H2260 0.950 . S
C2265 C2267 1.327 . S
C2265 C2271 1.429 . S
C2266 C2258 1.574 . S
C2266 H2261 0.949 . S
C2266 C2272 1.368 . S
C2267 C2251 1.349 . S
C2267 H2259 0.950 . S
C2267 C2265 1.327 . S
C2268 C2256 1.349 . S
C2268 H2262 0.950 . S
C2268 C2269 1.327 . S
C2269 H2263 0.950 . S
C2269 C2268 1.327 . S
C2269 C2273 1.429 . S
C2270 C2253 1.574 . S
C2270 H2264 0.949 . S
C2270 C2274 1.368 . S
C2271 C2252 1.429 . S
C2271 C2265 1.429 . S
C2271 C2272 1.523 . S
C2272 C2253 1.368 . S
C2272 C2266 1.368 . S
C2272 C2271 1.523 . S
C2273 C2257 1.429 . S
C2273 C2269 1.429 . S
C2273 C2274 1.523 . S
C2274 C2258 1.368 . S
C2274 C2270 1.368 . S
C2274 C2273 1.523 . S
H2275 C2250 0.950 . S
H2276 C2252 0.950 . S
H2277 C2253 0.949 . S
H2278 C2255 0.950 . S
H2279 C2257 0.950 . S
C2280 C2281 1.349 . S
C2280 C2282 1.327 . S
C2280 H2305 0.950 . S
C2281 C2280 1.349 . S
C2281 C2297 1.349 . S
C2282 C2280 1.327 . S
C2282 C2301 1.429 . S
C2282 H2306 0.950 . S
C2283 C2300 1.574 . S
C2283 C2302 1.368 . S
C2283 H2307 0.949 . S
H2284 C2288 0.949 . S
C2285 C2286 1.349 . S
C2285 C2287 1.327 . S
C2285 H2308 0.950 . S
C2286 C2285 1.349 . S
C2286 C2298 1.349 . S
C2287 C2285 1.327 . S
C2287 C2303 1.429 . S
C2287 H2309 0.950 . S
C2288 H2284 0.949 . S
C2288 C2296 1.574 . S
C2288 C2304 1.368 . S
H2289 C2297 0.950 . S
H2290 C2295 0.950 . S
H2291 C2296 0.949 . S
H2292 C2298 0.950 . S
H2293 C2299 0.950 . S
H2294 C2300 0.949 . S
C2295 H2290 0.950 . S
C2295 C2297 1.327 . S
C2295 C2301 1.429 . S
C2296 C2288 1.574 . S
C2296 H2291 0.949 . S
C2296 C2302 1.368 . S
C2297 C2281 1.349 . S
C2297 H2289 0.950 . S
C2297 C2295 1.327 . S
C2298 C2286 1.349 . S
C2298 H2292 0.950 . S
C2298 C2299 1.327 . S
C2299 H2293 0.950 . S
C2299 C2298 1.327 . S
C2299 C2303 1.429 . S
C2300 C2283 1.574 . S
C2300 H2294 0.949 . S
C2300 C2304 1.368 . S
C2301 C2282 1.429 . S
C2301 C2295 1.429 . S
C2301 C2302 1.523 . S
C2302 C2283 1.368 . S
C2302 C2296 1.368 . S
C2302 C2301 1.523 . S
C2303 C2287 1.429 . S
C2303 C2299 1.429 . S
C2303 C2304 1.523 . S
C2304 C2288 1.368 . S
C2304 C2300 1.368 . S
C2304 C2303 1.523 . S
H2305 C2280 0.950 . S
H2306 C2282 0.950 . S
H2307 C2283 0.949 . S
H2308 C2285 0.950 . S
H2309 C2287 0.950 . S
C2310 C2311 1.349 . S
C2310 C2312 1.327 . S
C2310 H2335 0.950 . S
C2311 C2310 1.349 . S
C2311 C2327 1.349 . S
C2312 C2310 1.327 . S
C2312 C2331 1.429 . S
C2312 H2336 0.950 . S
C2313 C2330 1.574 . S
C2313 C2332 1.368 . S
C2313 H2337 0.949 . S
H2314 C2318 0.949 . S
C2315 C2316 1.349 . S
C2315 C2317 1.327 . S
C2315 H2338 0.950 . S
C2316 C2315 1.349 . S
C2316 C2328 1.349 . S
C2317 C2315 1.327 . S
C2317 C2333 1.429 . S
C2317 H2339 0.950 . S
C2318 H2314 0.949 . S
C2318 C2326 1.574 . S
C2318 C2334 1.368 . S
H2319 C2327 0.950 . S
H2320 C2325 0.950 . S
H2321 C2326 0.949 . S
H2322 C2328 0.950 . S
H2323 C2329 0.950 . S
H2324 C2330 0.949 . S
C2325 H2320 0.950 . S
C2325 C2327 1.327 . S
C2325 C2331 1.429 . S
C2326 C2318 1.574 . S
C2326 H2321 0.949 . S
C2326 C2332 1.368 . S
C2327 C2311 1.349 . S
C2327 H2319 0.950 . S
C2327 C2325 1.327 . S
C2328 C2316 1.349 . S
C2328 H2322 0.950 . S
C2328 C2329 1.327 . S
C2329 H2323 0.950 . S
C2329 C2328 1.327 . S
C2329 C2333 1.429 . S
C2330 C2313 1.574 . S
C2330 H2324 0.949 . S
C2330 C2334 1.368 . S
C2331 C2312 1.429 . S
C2331 C2325 1.429 . S
C2331 C2332 1.523 . S
C2332 C2313 1.368 . S
C2332 C2326 1.368 . S
C2332 C2331 1.523 . S
C2333 C2317 1.429 . S
C2333 C2329 1.429 . S
C2333 C2334 1.523 . S
C2334 C2318 1.368 . S
C2334 C2330 1.368 . S
C2334 C2333 1.523 . S
H2335 C2310 0.950 . S
H2336 C2312 0.950 . S
H2337 C2313 0.949 . S
H2338 C2315 0.950 . S
H2339 C2317 0.950 . S
C2340 C2341 1.349 . S
C2340 C2342 1.327 . S
C2340 H2365 0.950 . S
C2341 C2340 1.349 . S
C2341 C2357 1.349 . S
C2342 C2340 1.327 . S
C2342 C2361 1.429 . S
C2342 H2366 0.950 . S
C2343 C2360 1.574 . S
C2343 C2362 1.368 . S
C2343 H2367 0.949 . S
H2344 C2348 0.949 . S
C2345 C2346 1.349 . S
C2345 C2347 1.327 . S
C2345 H2368 0.950 . S
C2346 C2345 1.349 . S
C2346 C2358 1.349 . S
C2347 C2345 1.327 . S
C2347 C2363 1.429 . S
C2347 H2369 0.950 . S
C2348 H2344 0.949 . S
C2348 C2356 1.574 . S
C2348 C2364 1.368 . S
H2349 C2357 0.950 . S
H2350 C2355 0.950 . S
H2351 C2356 0.949 . S
H2352 C2358 0.950 . S
H2353 C2359 0.950 . S
H2354 C2360 0.949 . S
C2355 H2350 0.950 . S
C2355 C2357 1.327 . S
C2355 C2361 1.429 . S
C2356 C2348 1.574 . S
C2356 H2351 0.949 . S
C2356 C2362 1.368 . S
C2357 C2341 1.349 . S
C2357 H2349 0.950 . S
C2357 C2355 1.327 . S
C2358 C2346 1.349 . S
C2358 H2352 0.950 . S
C2358 C2359 1.327 . S
C2359 H2353 0.950 . S
C2359 C2358 1.327 . S
C2359 C2363 1.429 . S
C2360 C2343 1.574 . S
C2360 H2354 0.949 . S
C2360 C2364 1.368 . S
C2361 C2342 1.429 . S
C2361 C2355 1.429 . S
C2361 C2362 1.523 . S
C2362 C2343 1.368 . S
C2362 C2356 1.368 . S
C2362 C2361 1.523 . S
C2363 C2347 1.429 . S
C2363 C2359 1.429 . S
C2363 C2364 1.523 . S
C2364 C2348 1.368 . S
C2364 C2360 1.368 . S
C2364 C2363 1.523 . S
H2365 C2340 0.950 . S
H2366 C2342 0.950 . S
H2367 C2343 0.949 . S
H2368 C2345 0.950 . S
H2369 C2347 0.950 . S
C2370 C2371 1.349 . S
C2370 C2372 1.327 . S
C2370 H2395 0.950 . S
C2371 C2370 1.349 . S
C2371 C2387 1.349 . S
C2372 C2370 1.327 . S
C2372 C2391 1.429 . S
C2372 H2396 0.950 . S
C2373 C2390 1.574 . S
C2373 C2392 1.368 . S
C2373 H2397 0.949 . S
H2374 C2378 0.949 . S
C2375 C2376 1.349 . S
C2375 C2377 1.327 . S
C2375 H2398 0.950 . S
C2376 C2375 1.349 . S
C2376 C2388 1.349 . S
C2377 C2375 1.327 . S
C2377 C2393 1.429 . S
C2377 H2399 0.950 . S
C2378 H2374 0.949 . S
C2378 C2386 1.574 . S
C2378 C2394 1.368 . S
H2379 C2387 0.950 . S
H2380 C2385 0.950 . S
H2381 C2386 0.949 . S
H2382 C2388 0.950 . S
H2383 C2389 0.950 . S
H2384 C2390 0.949 . S
C2385 H2380 0.950 . S
C2385 C2387 1.327 . S
C2385 C2391 1.429 . S
C2386 C2378 1.574 . S
C2386 H2381 0.949 . S
C2386 C2392 1.368 . S
C2387 C2371 1.349 . S
C2387 H2379 0.950 . S
C2387 C2385 1.327 . S
C2388 C2376 1.349 . S
C2388 H2382 0.950 . S
C2388 C2389 1.327 . S
C2389 H2383 0.950 . S
C2389 C2388 1.327 . S
C2389 C2393 1.429 . S
C2390 C2373 1.574 . S
C2390 H2384 0.949 . S
C2390 C2394 1.368 . S
C2391 C2372 1.429 . S
C2391 C2385 1.429 . S
C2391 C2392 1.523 . S
C2392 C2373 1.368 . S
C2392 C2386 1.368 . S
C2392 C2391 1.523 . S
C2393 C2377 1.429 . S
C2393 C2389 1.429 . S
C2393 C2394 1.523 . S
C2394 C2378 1.368 . S
C2394 C2390 1.368 . S
C2394 C2393 1.523 . S
H2395 C2370 0.950 . S
H2396 C2372 0.950 . S
H2397 C2373 0.949 . S
H2398 C2375 0.950 . S
H2399 C2377 0.950 . S
C2400 C2401 1.349 . S
C2400 C2402 1.327 . S
C2400 H2425 0.950 . S
C2401 C2400 1.349 . S
C2401 C2417 1.349 . S
C2402 C2400 1.327 . S
C2402 C2421 1.429 . S
C2402 H2426 0.950 . S
C2403 C2420 1.574 . S
C2403 C2422 1.368 . S
C2403 H2427 0.949 . S
H2404 C2408 0.949 . S
C2405 C2406 1.349 . S
C2405 C2407 1.327 . S
C2405 H2428 0.950 . S
C2406 C2405 1.349 . S
C2406 C2418 1.349 . S
C2407 C2405 1.327 . S
C2407 C2423 1.429 . S
C2407 H2429 0.950 . S
C2408 H2404 0.949 . S
C2408 C2416 1.574 . S
C2408 C2424 1.368 . S
H2409 C2417 0.950 . S
H2410 C2415 0.950 . S
H2411 C2416 0.949 . S
H2412 C2418 0.950 . S
H2413 C2419 0.950 . S
H2414 C2420 0.949 . S
C2415 H2410 0.950 . S
C2415 C2417 1.327 . S
C2415 C2421 1.429 . S
C2416 C2408 1.574 . S
C2416 H2411 0.949 . S
C2416 C2422 1.368 . S
C2417 C2401 1.349 . S
C2417 H2409 0.950 . S
C2417 C2415 1.327 . S
C2418 C2406 1.349 . S
C2418 H2412 0.950 . S
C2418 C2419 1.327 . S
C2419 H2413 0.950 . S
C2419 C2418 1.327 . S
C2419 C2423 1.429 . S
C2420 C2403 1.574 . S
C2420 H2414 0.949 . S
C2420 C2424 1.368 . S
C2421 C2402 1.429 . S
C2421 C2415 1.429 . S
C2421 C2422 1.523 . S
C2422 C2403 1.368 . S
C2422 C2416 1.368 . S
C2422 C2421 1.523 . S
C2423 C2407 1.429 . S
C2423 C2419 1.429 . S
C2423 C2424 1.523 . S
C2424 C2408 1.368 . S
C2424 C2420 1.368 . S
C2424 C2423 1.523 . S
H2425 C2400 0.950 . S
H2426 C2402 0.950 . S
H2427 C2403 0.949 . S
H2428 C2405 0.950 . S
H2429 C2407 0.950 . S
C2430 C2431 1.349 . S
C2430 C2432 1.327 . S
C2430 H2455 0.950 . S
C2431 C2430 1.349 . S
C2431 C2447 1.349 . S
C2432 C2430 1.327 . S
C2432 C2451 1.429 . S
C2432 H2456 0.950 . S
C2433 C2450 1.574 . S
C2433 C2452 1.368 . S
C2433 H2457 0.949 . S
H2434 C2438 0.949 . S
C2435 C2436 1.349 . S
C2435 C2437 1.327 . S
C2435 H2458 0.950 . S
C2436 C2435 1.349 . S
C2436 C2448 1.349 . S
C2437 C2435 1.327 . S
C2437 C2453 1.429 . S
C2437 H2459 0.950 . S
C2438 H2434 0.949 . S
C2438 C2446 1.574 . S
C2438 C2454 1.368 . S
H2439 C2447 0.950 . S
H2440 C2445 0.950 . S
H2441 C2446 0.949 . S
H2442 C2448 0.950 . S
H2443 C2449 0.950 . S
H2444 C2450 0.949 . S
C2445 H2440 0.950 . S
C2445 C2447 1.327 . S
C2445 C2451 1.429 . S
C2446 C2438 1.574 . S
C2446 H2441 0.949 . S
C2446 C2452 1.368 . S
C2447 C2431 1.349 . S
C2447 H2439 0.950 . S
C2447 C2445 1.327 . S
C2448 C2436 1.349 . S
C2448 H2442 0.950 . S
C2448 C2449 1.327 . S
C2449 H2443 0.950 . S
C2449 C2448 1.327 . S
C2449 C2453 1.429 . S
C2450 C2433 1.574 . S
C2450 H2444 0.949 . S
C2450 C2454 1.368 . S
C2451 C2432 1.429 . S
C2451 C2445 1.429 . S
C2451 C2452 1.523 . S
C2452 C2433 1.368 . S
C2452 C2446 1.368 . S
C2452 C2451 1.523 . S
C2453 C2437 1.429 . S
C2453 C2449 1.429 . S
C2453 C2454 1.523 . S
C2454 C2438 1.368 . S
C2454 C2450 1.368 . S
C2454 C2453 1.523 . S
H2455 C2430 0.950 . S
H2456 C2432 0.950 . S
H2457 C2433 0.949 . S
H2458 C2435 0.950 . S
H2459 C2437 0.950 . S
C2460 C2461 1.349 . S
C2460 C2462 1.327 . S
C2460 H2485 0.950 . S
C2461 C2460 1.349 . S
C2461 C2477 1.349 . S
C2462 C2460 1.327 . S
C2462 C2481 1.429 . S
C2462 H2486 0.950 . S
C2463 C2480 1.574 . S
C2463 C2482 1.368 . S
C2463 H2487 0.949 . S
H2464 C2468 0.949 . S
C2465 C2466 1.349 . S
C2465 C2467 1.327 . S
C2465 H2488 0.950 . S
C2466 C2465 1.349 . S
C2466 C2478 1.349 . S
C2467 C2465 1.327 . S
C2467 C2483 1.429 . S
C2467 H2489 0.950 . S
C2468 H2464 0.949 . S
C2468 C2476 1.574 . S
C2468 C2484 1.368 . S
H2469 C2477 0.950 . S
H2470 C2475 0.950 . S
H2471 C2476 0.949 . S
H2472 C2478 0.950 . S
H2473 C2479 0.950 . S
H2474 C2480 0.949 . S
C2475 H2470 0.950 . S
C2475 C2477 1.327 . S
C2475 C2481 1.429 . S
C2476 C2468 1.574 . S
C2476 H2471 0.949 . S
C2476 C2482 1.368 . S
C2477 C2461 1.349 . S
C2477 H2469 0.950 . S
C2477 C2475 1.327 . S
C2478 C2466 1.349 . S
C2478 H2472 0.950 . S
C2478 C2479 1.327 . S
C2479 H2473 0.950 . S
C2479 C2478 1.327 . S
C2479 C2483 1.429 . S
C2480 C2463 1.574 . S
C2480 H2474 0.949 . S
C2480 C2484 1.368 . S
C2481 C2462 1.429 . S
C2481 C2475 1.429 . S
C2481 C2482 1.523 . S
C2482 C2463 1.368 . S
C2482 C2476 1.368 . S
C2482 C2481 1.523 . S
C2483 C2467 1.429 . S
C2483 C2479 1.429 . S
C2483 C2484 1.523 . S
C2484 C2468 1.368 . S
C2484 C2480 1.368 . S
C2484 C2483 1.523 . S
H2485 C2460 0.950 . S
H2486 C2462 0.950 . S
H2487 C2463 0.949 . S
H2488 C2465 0.950 . S
H2489 C2467 0.950 . S
C2490 C2491 1.349 . S
C2490 C2492 1.327 . S
C2490 H2515 0.950 . S
C2491 C2490 1.349 . S
C2491 C2507 1.349 . S
C2492 C2490 1.327 . S
C2492 C2511 1.429 . S
C2492 H2516 0.950 . S
C2493 C2510 1.574 . S
C2493 C2512 1.368 . S
C2493 H2517 0.949 . S
H2494 C2498 0.949 . S
C2495 C2496 1.349 . S
C2495 C2497 1.327 . S
C2495 H2518 0.950 . S
C2496 C2495 1.349 . S
C2496 C2508 1.349 . S
C2497 C2495 1.327 . S
C2497 C2513 1.429 . S
C2497 H2519 0.950 . S
C2498 H2494 0.949 . S
C2498 C2506 1.574 . S
C2498 C2514 1.368 . S
H2499 C2507 0.950 . S
H2500 C2505 0.950 . S
H2501 C2506 0.949 . S
H2502 C2508 0.950 . S
H2503 C2509 0.950 . S
H2504 C2510 0.949 . S
C2505 H2500 0.950 . S
C2505 C2507 1.327 . S
C2505 C2511 1.429 . S
C2506 C2498 1.574 . S
C2506 H2501 0.949 . S
C2506 C2512 1.368 . S
C2507 C2491 1.349 . S
C2507 H2499 0.950 . S
C2507 C2505 1.327 . S
C2508 C2496 1.349 . S
C2508 H2502 0.950 . S
C2508 C2509 1.327 . S
C2509 H2503 0.950 . S
C2509 C2508 1.327 . S
C2509 C2513 1.429 . S
C2510 C2493 1.574 . S
C2510 H2504 0.949 . S
C2510 C2514 1.368 . S
C2511 C2492 1.429 . S
C2511 C2505 1.429 . S
C2511 C2512 1.523 . S
C2512 C2493 1.368 . S
C2512 C2506 1.368 . S
C2512 C2511 1.523 . S
C2513 C2497 1.429 . S
C2513 C2509 1.429 . S
C2513 C2514 1.523 . S
C2514 C2498 1.368 . S
C2514 C2510 1.368 . S
C2514 C2513 1.523 . S
H2515 C2490 0.950 . S
H2516 C2492 0.950 . S
H2517 C2493 0.949 . S
H2518 C2495 0.950 . S
H2519 C2497 0.950 . S
C2520 C2521 1.349 . S
C2520 C2522 1.327 . S
C2520 H2545 0.950 . S
C2521 C2520 1.349 . S
C2521 C2537 1.349 . S
C2522 C2520 1.327 . S
C2522 C2541 1.429 . S
C2522 H2546 0.950 . S
C2523 C2540 1.574 . S
C2523 C2542 1.368 . S
C2523 H2547 0.949 . S
H2524 C2528 0.949 . S
C2525 C2526 1.349 . S
C2525 C2527 1.327 . S
C2525 H2548 0.950 . S
C2526 C2525 1.349 . S
C2526 C2538 1.349 . S
C2527 C2525 1.327 . S
C2527 C2543 1.429 . S
C2527 H2549 0.950 . S
C2528 H2524 0.949 . S
C2528 C2536 1.574 . S
C2528 C2544 1.368 . S
H2529 C2537 0.950 . S
H2530 C2535 0.950 . S
H2531 C2536 0.949 . S
H2532 C2538 0.950 . S
H2533 C2539 0.950 . S
H2534 C2540 0.949 . S
C2535 H2530 0.950 . S
C2535 C2537 1.327 . S
C2535 C2541 1.429 . S
C2536 C2528 1.574 . S
C2536 H2531 0.949 . S
C2536 C2542 1.368 . S
C2537 C2521 1.349 . S
C2537 H2529 0.950 . S
C2537 C2535 1.327 . S
C2538 C2526 1.349 . S
C2538 H2532 0.950 . S
C2538 C2539 1.327 . S
C2539 H2533 0.950 . S
C2539 C2538 1.327 . S
C2539 C2543 1.429 . S
C2540 C2523 1.574 . S
C2540 H2534 0.949 . S
C2540 C2544 1.368 . S
C2541 C2522 1.429 . S
C2541 C2535 1.429 . S
C2541 C2542 1.523 . S
C2542 C2523 1.368 . S
C2542 C2536 1.368 . S
C2542 C2541 1.523 . S
C2543 C2527 1.429 . S
C2543 C2539 1.429 . S
C2543 C2544 1.523 . S
C2544 C2528 1.368 . S
C2544 C2540 1.368 . S
C2544 C2543 1.523 . S
H2545 C2520 0.950 . S
H2546 C2522 0.950 . S
H2547 C2523 0.949 . S
H2548 C2525 0.950 . S
H2549 C2527 0.950 . S
C2550 C2551 1.349 . S
C2550 C2552 1.327 . S
C2550 H2575 0.950 . S
C2551 C2550 1.349 . S
C2551 C2567 1.349 . S
C2552 C2550 1.327 . S
C2552 C2571 1.429 . S
C2552 H2576 0.950 . S
C2553 C2570 1.574 . S
C2553 C2572 1.368 . S
C2553 H2577 0.949 . S
H2554 C2558 0.949 . S
C2555 C2556 1.349 . S
C2555 C2557 1.327 . S
C2555 H2578 0.950 . S
C2556 C2555 1.349 . S
C2556 C2568 1.349 . S
C2557 C2555 1.327 . S
C2557 C2573 1.429 . S
C2557 H2579 0.950 . S
C2558 H2554 0.949 . S
C2558 C2566 1.574 . S
C2558 C2574 1.368 . S
H2559 C2567 0.950 . S
H2560 C2565 0.950 . S
H2561 C2566 0.949 . S
H2562 C2568 0.950 . S
H2563 C2569 0.950 . S
H2564 C2570 0.949 . S
C2565 H2560 0.950 . S
C2565 C2567 1.327 . S
C2565 C2571 1.429 . S
C2566 C2558 1.574 . S
C2566 H2561 0.949 . S
C2566 C2572 1.368 . S
C2567 C2551 1.349 . S
C2567 H2559 0.950 . S
C2567 C2565 1.327 . S
C2568 C2556 1.349 . S
C2568 H2562 0.950 . S
C2568 C2569 1.327 . S
C2569 H2563 0.950 . S
C2569 C2568 1.327 . S
C2569 C2573 1.429 . S
C2570 C2553 1.574 . S
C2570 H2564 0.949 . S
C2570 C2574 1.368 . S
C2571 C2552 1.429 . S
C2571 C2565 1.429 . S
C2571 C2572 1.523 . S
C2572 C2553 1.368 . S
C2572 C2566 1.368 . S
C2572 C2571 1.523 . S
C2573 C2557 1.429 . S
C2573 C2569 1.429 . S
C2573 C2574 1.523 . S
C2574 C2558 1.368 . S
C2574 C2570 1.368 . S
C2574 C2573 1.523 . S
H2575 C2550 0.950 . S
H2576 C2552 0.950 . S
H2577 C2553 0.949 . S
H2578 C2555 0.950 . S
H2579 C2557 0.950 . S
C2580 C2581 1.349 . S
C2580 C2582 1.327 . S
C2580 H2605 0.950 . S
C2581 C2580 1.349 . S
C2581 C2597 1.349 . S
C2582 C2580 1.327 . S
C2582 C2601 1.429 . S
C2582 H2606 0.950 . S
C2583 C2600 1.574 . S
C2583 C2602 1.368 . S
C2583 H2607 0.949 . S
H2584 C2588 0.949 . S
C2585 C2586 1.349 . S
C2585 C2587 1.327 . S
C2585 H2608 0.950 . S
C2586 C2585 1.349 . S
C2586 C2598 1.349 . S
C2587 C2585 1.327 . S
C2587 C2603 1.429 . S
C2587 H2609 0.950 . S
C2588 H2584 0.949 . S
C2588 C2596 1.574 . S
C2588 C2604 1.368 . S
H2589 C2597 0.950 . S
H2590 C2595 0.950 . S
H2591 C2596 0.949 . S
H2592 C2598 0.950 . S
H2593 C2599 0.950 . S
H2594 C2600 0.949 . S
C2595 H2590 0.950 . S
C2595 C2597 1.327 . S
C2595 C2601 1.429 . S
C2596 C2588 1.574 . S
C2596 H2591 0.949 . S
C2596 C2602 1.368 . S
C2597 C2581 1.349 . S
C2597 H2589 0.950 . S
C2597 C2595 1.327 . S
C2598 C2586 1.349 . S
C2598 H2592 0.950 . S
C2598 C2599 1.327 . S
C2599 H2593 0.950 . S
C2599 C2598 1.327 . S
C2599 C2603 1.429 . S
C2600 C2583 1.574 . S
C2600 H2594 0.949 . S
C2600 C2604 1.368 . S
C2601 C2582 1.429 . S
C2601 C2595 1.429 . S
C2601 C2602 1.523 . S
C2602 C2583 1.368 . S
C2602 C2596 1.368 . S
C2602 C2601 1.523 . S
C2603 C2587 1.429 . S
C2603 C2599 1.429 . S
C2603 C2604 1.523 . S
C2604 C2588 1.368 . S
C2604 C2600 1.368 . S
C2604 C2603 1.523 . S
H2605 C2580 0.950 . S
H2606 C2582 0.950 . S
H2607 C2583 0.949 . S
H2608 C2585 0.950 . S
H2609 C2587 0.950 . S
C2610 C2611 1.349 . S
C2610 C2612 1.327 . S
C2610 H2635 0.950 . S
C2611 C2610 1.349 . S
C2611 C2627 1.349 1_455 S
C2612 C2610 1.327 . S
C2612 C2631 1.429 . S
C2612 H2636 0.950 . S
C2613 C2630 1.574 . S
C2613 C2632 1.368 1_655 S
C2613 H2637 0.949 . S
H2614 C2618 0.949 . S
C2615 C2616 1.349 1_655 S
C2615 C2617 1.327 . S
C2615 H2638 0.950 . S
C2616 C2615 1.349 1_455 S
C2616 C2628 1.349 . S
C2617 C2615 1.327 . S
C2617 C2633 1.429 1_655 S
C2617 H2639 0.950 . S
C2618 H2614 0.949 . S
C2618 C2626 1.574 . S
C2618 C2634 1.368 . S
H2619 C2627 0.950 . S
H2620 C2625 0.950 . S
H2621 C2626 0.949 . S
H2622 C2628 0.950 . S
H2623 C2629 0.950 . S
H2624 C2630 0.949 . S
C2625 H2620 0.950 . S
C2625 C2627 1.327 . S
C2625 C2631 1.429 1_655 S
C2626 C2618 1.574 . S
C2626 H2621 0.949 . S
C2626 C2632 1.368 . S
C2627 C2611 1.349 1_655 S
C2627 H2619 0.950 . S
C2627 C2625 1.327 . S
C2628 C2616 1.349 . S
C2628 H2622 0.950 . S
C2628 C2629 1.327 . S
C2629 H2623 0.950 . S
C2629 C2628 1.327 . S
C2629 C2633 1.429 . S
C2630 C2613 1.574 . S
C2630 H2624 0.949 . S
C2630 C2634 1.368 1_655 S
C2631 C2612 1.429 . S
C2631 C2625 1.429 1_455 S
C2631 C2632 1.523 . S
C2632 C2613 1.368 1_455 S
C2632 C2626 1.368 . S
C2632 C2631 1.523 . S
C2633 C2617 1.429 1_455 S
C2633 C2629 1.429 . S
C2633 C2634 1.523 . S
C2634 C2618 1.368 . S
C2634 C2630 1.368 1_455 S
C2634 C2633 1.523 . S
H2635 C2610 0.950 . S
H2636 C2612 0.950 . S
H2637 C2613 0.949 . S
H2638 C2615 0.950 . S
H2639 C2617 0.950 . S
C2640 C2641 1.349 . S
C2640 C2642 1.327 . S
C2640 H2665 0.950 . S
C2641 C2640 1.349 . S
C2641 C2657 1.349 . S
C2642 C2640 1.327 . S
C2642 C2661 1.429 . S
C2642 H2666 0.950 . S
C2643 C2660 1.574 . S
C2643 C2662 1.368 . S
C2643 H2667 0.949 . S
H2644 C2648 0.949 . S
C2645 C2646 1.349 . S
C2645 C2647 1.327 . S
C2645 H2668 0.950 . S
C2646 C2645 1.349 . S
C2646 C2658 1.349 . S
C2647 C2645 1.327 . S
C2647 C2663 1.429 . S
C2647 H2669 0.950 . S
C2648 H2644 0.949 . S
C2648 C2656 1.574 . S
C2648 C2664 1.368 . S
H2649 C2657 0.950 . S
H2650 C2655 0.950 . S
H2651 C2656 0.949 . S
H2652 C2658 0.950 . S
H2653 C2659 0.950 . S
H2654 C2660 0.949 . S
C2655 H2650 0.950 . S
C2655 C2657 1.327 . S
C2655 C2661 1.429 . S
C2656 C2648 1.574 . S
C2656 H2651 0.949 . S
C2656 C2662 1.368 . S
C2657 C2641 1.349 . S
C2657 H2649 0.950 . S
C2657 C2655 1.327 . S
C2658 C2646 1.349 . S
C2658 H2652 0.950 . S
C2658 C2659 1.327 . S
C2659 H2653 0.950 . S
C2659 C2658 1.327 . S
C2659 C2663 1.429 . S
C2660 C2643 1.574 . S
C2660 H2654 0.949 . S
C2660 C2664 1.368 . S
C2661 C2642 1.429 . S
C2661 C2655 1.429 . S
C2661 C2662 1.523 . S
C2662 C2643 1.368 . S
C2662 C2656 1.368 . S
C2662 C2661 1.523 . S
C2663 C2647 1.429 . S
C2663 C2659 1.429 . S
C2663 C2664 1.523 . S
C2664 C2648 1.368 . S
C2664 C2660 1.368 . S
C2664 C2663 1.523 . S
H2665 C2640 0.950 . S
H2666 C2642 0.950 . S
H2667 C2643 0.949 . S
H2668 C2645 0.950 . S
H2669 C2647 0.950 . S
C2670 C2671 1.349 . S
C2670 C2672 1.327 . S
C2670 H2695 0.950 . S
C2671 C2670 1.349 . S
C2671 C2687 1.349 1_565 S
C2672 C2670 1.327 . S
C2672 C2691 1.429 . S
C2672 H2696 0.950 . S
C2673 C2690 1.574 . S
C2673 C2692 1.368 1_545 S
C2673 H2697 0.949 . S
H2674 C2678 0.949 . S
C2675 C2676 1.349 1_545 S
C2675 C2677 1.327 . S
C2675 H2698 0.950 . S
C2676 C2675 1.349 1_565 S
C2676 C2688 1.349 . S
C2677 C2675 1.327 . S
C2677 C2693 1.429 1_545 S
C2677 H2699 0.950 . S
C2678 H2674 0.949 . S
C2678 C2686 1.574 . S
C2678 C2694 1.368 . S
H2679 C2687 0.950 . S
H2680 C2685 0.950 . S
H2681 C2686 0.949 . S
H2682 C2688 0.950 . S
H2683 C2689 0.950 . S
H2684 C2690 0.949 . S
C2685 H2680 0.950 . S
C2685 C2687 1.327 . S
C2685 C2691 1.429 1_545 S
C2686 C2678 1.574 . S
C2686 H2681 0.949 . S
C2686 C2692 1.368 . S
C2687 C2671 1.349 1_545 S
C2687 H2679 0.950 . S
C2687 C2685 1.327 . S
C2688 C2676 1.349 . S
C2688 H2682 0.950 . S
C2688 C2689 1.327 . S
C2689 H2683 0.950 . S
C2689 C2688 1.327 . S
C2689 C2693 1.429 . S
C2690 C2673 1.574 . S
C2690 H2684 0.949 . S
C2690 C2694 1.368 1_545 S
C2691 C2672 1.429 . S
C2691 C2685 1.429 1_565 S
C2691 C2692 1.523 . S
C2692 C2673 1.368 1_565 S
C2692 C2686 1.368 . S
C2692 C2691 1.523 . S
C2693 C2677 1.429 1_565 S
C2693 C2689 1.429 . S
C2693 C2694 1.523 . S
C2694 C2678 1.368 . S
C2694 C2690 1.368 1_565 S
C2694 C2693 1.523 . S
H2695 C2670 0.950 . S
H2696 C2672 0.950 . S
H2697 C2673 0.949 . S
H2698 C2675 0.950 . S
H2699 C2677 0.950 . S
C2700 C2701 1.349 . S
C2700 C2702 1.327 . S
C2700 H2725 0.950 . S
C2701 C2700 1.349 . S
C2701 C2717 1.349 1_565 S
C2702 C2700 1.327 . S
C2702 C2721 1.429 . S
C2702 H2726 0.950 . S
C2703 C2720 1.574 . S
C2703 C2722 1.368 1_545 S
C2703 H2727 0.949 . S
H2704 C2708 0.949 . S
C2705 C2706 1.349 1_545 S
C2705 C2707 1.327 . S
C2705 H2728 0.950 . S
C2706 C2705 1.349 1_565 S
C2706 C2718 1.349 . S
C2707 C2705 1.327 . S
C2707 C2723 1.429 1_545 S
C2707 H2729 0.950 . S
C2708 H2704 0.949 . S
C2708 C2716 1.574 . S
C2708 C2724 1.368 . S
H2709 C2717 0.950 . S
H2710 C2715 0.950 . S
H2711 C2716 0.949 . S
H2712 C2718 0.950 . S
H2713 C2719 0.950 . S
H2714 C2720 0.949 . S
C2715 H2710 0.950 . S
C2715 C2717 1.327 . S
C2715 C2721 1.429 1_545 S
C2716 C2708 1.574 . S
C2716 H2711 0.949 . S
C2716 C2722 1.368 . S
C2717 C2701 1.349 1_545 S
C2717 H2709 0.950 . S
C2717 C2715 1.327 . S
C2718 C2706 1.349 . S
C2718 H2712 0.950 . S
C2718 C2719 1.327 . S
C2719 H2713 0.950 . S
C2719 C2718 1.327 . S
C2719 C2723 1.429 . S
C2720 C2703 1.574 . S
C2720 H2714 0.949 . S
C2720 C2724 1.368 1_545 S
C2721 C2702 1.429 . S
C2721 C2715 1.429 1_565 S
C2721 C2722 1.523 . S
C2722 C2703 1.368 1_565 S
C2722 C2716 1.368 . S
C2722 C2721 1.523 . S
C2723 C2707 1.429 1_565 S
C2723 C2719 1.429 . S
C2723 C2724 1.523 . S
C2724 C2708 1.368 . S
C2724 C2720 1.368 1_565 S
C2724 C2723 1.523 . S
H2725 C2700 0.950 . S
H2726 C2702 0.950 . S
H2727 C2703 0.949 . S
H2728 C2705 0.950 . S
H2729 C2707 0.950 . S
C2730 C2731 1.349 . S
C2730 C2732 1.327 . S
C2730 H2755 0.950 . S
C2731 C2730 1.349 . S
C2731 C2747 1.349 . S
C2732 C2730 1.327 . S
C2732 C2751 1.429 . S
C2732 H2756 0.950 . S
C2733 C2750 1.574 . S
C2733 C2752 1.368 . S
C2733 H2757 0.949 . S
H2734 C2738 0.949 . S
C2735 C2736 1.349 . S
C2735 C2737 1.327 . S
C2735 H2758 0.964 . S
C2736 C2735 1.349 . S
C2736 C2748 1.349 . S
C2737 C2735 1.327 . S
C2737 C2753 1.429 . S
C2737 H2759 0.950 . S
C2738 H2734 0.949 . S
C2738 C2746 1.574 . S
C2738 C2754 1.368 . S
H2739 C2747 0.950 . S
H2740 C2745 0.950 . S
H2741 C2746 0.949 . S
H2742 C2748 0.950 . S
H2743 C2749 0.950 . S
H2744 C2750 0.949 . S
C2745 H2740 0.950 . S
C2745 C2747 1.327 . S
C2745 C2751 1.429 . S
C2746 C2738 1.574 . S
C2746 H2741 0.949 . S
C2746 C2752 1.368 . S
C2747 C2731 1.349 . S
C2747 H2739 0.950 . S
C2747 C2745 1.327 . S
C2748 C2736 1.349 . S
C2748 H2742 0.950 . S
C2748 C2749 1.327 . S
C2749 H2743 0.950 . S
C2749 C2748 1.327 . S
C2749 C2753 1.429 . S
C2750 C2733 1.574 . S
C2750 H2744 0.949 . S
C2750 C2754 1.368 . S
C2751 C2732 1.429 . S
C2751 C2745 1.429 . S
C2751 C2752 1.523 . S
C2752 C2733 1.368 . S
C2752 C2746 1.368 . S
C2752 C2751 1.523 . S
C2753 C2737 1.429 . S
C2753 C2749 1.429 . S
C2753 C2754 1.523 . S
C2754 C2738 1.368 . S
C2754 C2750 1.368 . S
C2754 C2753 1.523 . S
H2755 C2730 0.950 . S
H2756 C2732 0.950 . S
H2757 C2733 0.949 . S
H2758 C2735 0.964 . S
H2759 C2737 0.950 . S
C2760 C2761 1.349 . S
C2760 C2762 1.327 . S
C2760 H2785 0.950 . S
C2761 C2760 1.349 . S
C2761 C2777 1.349 . S
C2762 C2760 1.327 . S
C2762 C2781 1.429 . S
C2762 H2786 0.950 . S
C2763 C2780 1.574 . S
C2763 C2782 1.368 . S
C2763 H2787 0.949 . S
H2764 C2768 0.949 . S
C2765 C2766 1.349 . S
C2765 C2767 1.327 . S
C2765 H2788 0.950 . S
C2766 C2765 1.349 . S
C2766 C2778 1.349 . S
C2767 C2765 1.327 . S
C2767 C2783 1.429 . S
C2767 H2789 0.950 . S
C2768 H2764 0.949 . S
C2768 C2776 1.574 . S
C2768 C2784 1.368 . S
H2769 C2777 0.950 . S
H2770 C2775 0.950 . S
H2771 C2776 0.949 . S
H2772 C2778 0.950 . S
H2773 C2779 0.950 . S
H2774 C2780 0.949 . S
C2775 H2770 0.950 . S
C2775 C2777 1.327 . S
C2775 C2781 1.429 . S
C2776 C2768 1.574 . S
C2776 H2771 0.949 . S
C2776 C2782 1.368 . S
C2777 C2761 1.349 . S
C2777 H2769 0.950 . S
C2777 C2775 1.327 . S
C2778 C2766 1.349 . S
C2778 H2772 0.950 . S
C2778 C2779 1.327 . S
C2779 H2773 0.950 . S
C2779 C2778 1.327 . S
C2779 C2783 1.429 . S
C2780 C2763 1.574 . S
C2780 H2774 0.949 . S
C2780 C2784 1.368 . S
C2781 C2762 1.429 . S
C2781 C2775 1.429 . S
C2781 C2782 1.523 . S
C2782 C2763 1.368 . S
C2782 C2776 1.368 . S
C2782 C2781 1.523 . S
C2783 C2767 1.429 . S
C2783 C2779 1.429 . S
C2783 C2784 1.523 . S
C2784 C2768 1.368 . S
C2784 C2780 1.368 . S
C2784 C2783 1.523 . S
H2785 C2760 0.950 . S
H2786 C2762 0.950 . S
H2787 C2763 0.949 . S
H2788 C2765 0.950 . S
H2789 C2767 0.950 . S
C2790 C2791 1.349 . S
C2790 C2792 1.327 . S
C2790 H2815 0.950 . S
C2791 C2790 1.349 . S
C2791 C2807 1.349 . S
C2792 C2790 1.327 . S
C2792 C2811 1.429 . S
C2792 H2816 0.950 . S
C2793 C2810 1.574 . S
C2793 C2812 1.368 . S
C2793 H2817 0.949 . S
H2794 C2798 0.949 . S
C2795 C2796 1.349 . S
C2795 C2797 1.327 . S
C2795 H2818 0.950 . S
C2796 C2795 1.349 . S
C2796 C2808 1.349 . S
C2797 C2795 1.327 . S
C2797 C2813 1.429 . S
C2797 H2819 0.950 . S
C2798 H2794 0.949 . S
C2798 C2806 1.574 . S
C2798 C2814 1.368 . S
H2799 C2807 0.950 . S
H2800 C2805 0.950 . S
H2801 C2806 0.949 . S
H2802 C2808 0.950 . S
H2803 C2809 0.950 . S
H2804 C2810 0.949 . S
C2805 H2800 0.950 . S
C2805 C2807 1.327 . S
C2805 C2811 1.429 . S
C2806 C2798 1.574 . S
C2806 H2801 0.949 . S
C2806 C2812 1.368 . S
C2807 C2791 1.349 . S
C2807 H2799 0.950 . S
C2807 C2805 1.327 . S
C2808 C2796 1.349 . S
C2808 H2802 0.950 . S
C2808 C2809 1.327 . S
C2809 H2803 0.950 . S
C2809 C2808 1.327 . S
C2809 C2813 1.429 . S
C2810 C2793 1.574 . S
C2810 H2804 0.949 . S
C2810 C2814 1.368 . S
C2811 C2792 1.429 . S
C2811 C2805 1.429 . S
C2811 C2812 1.523 . S
C2812 C2793 1.368 . S
C2812 C2806 1.368 . S
C2812 C2811 1.523 . S
C2813 C2797 1.429 . S
C2813 C2809 1.429 . S
C2813 C2814 1.523 . S
C2814 C2798 1.368 . S
C2814 C2810 1.368 . S
C2814 C2813 1.523 . S
H2815 C2790 0.950 . S
H2816 C2792 0.950 . S
H2817 C2793 0.949 . S
H2818 C2795 0.950 . S
H2819 C2797 0.950 . S
C2820 C2821 1.349 . S
C2820 C2822 1.327 . S
C2820 H2845 0.950 . S
C2821 C2820 1.349 . S
C2821 C2837 1.349 . S
C2822 C2820 1.327 . S
C2822 C2841 1.429 . S
C2822 H2846 0.950 . S
C2823 C2840 1.574 . S
C2823 C2842 1.368 . S
C2823 H2847 0.949 . S
H2824 C2828 0.949 . S
C2825 C2826 1.349 . S
C2825 C2827 1.327 . S
C2825 H2848 0.950 . S
C2826 C2825 1.349 . S
C2826 C2838 1.349 . S
C2827 C2825 1.327 . S
C2827 C2843 1.429 . S
C2827 H2849 0.950 . S
C2828 H2824 0.949 . S
C2828 C2836 1.574 . S
C2828 C2844 1.368 . S
H2829 C2837 0.950 . S
H2830 C2835 0.950 . S
H2831 C2836 0.949 . S
H2832 C2838 0.950 . S
H2833 C2839 0.950 . S
H2834 C2840 0.949 . S
C2835 H2830 0.950 . S
C2835 C2837 1.327 . S
C2835 C2841 1.429 . S
C2836 C2828 1.574 . S
C2836 H2831 0.949 . S
C2836 C2842 1.368 . S
C2837 C2821 1.349 . S
C2837 H2829 0.950 . S
C2837 C2835 1.327 . S
C2838 C2826 1.349 . S
C2838 H2832 0.950 . S
C2838 C2839 1.327 . S
C2839 H2833 0.950 . S
C2839 C2838 1.327 . S
C2839 C2843 1.429 . S
C2840 C2823 1.574 . S
C2840 H2834 0.949 . S
C2840 C2844 1.368 . S
C2841 C2822 1.429 . S
C2841 C2835 1.429 . S
C2841 C2842 1.523 . S
C2842 C2823 1.368 . S
C2842 C2836 1.368 . S
C2842 C2841 1.523 . S
C2843 C2827 1.429 . S
C2843 C2839 1.429 . S
C2843 C2844 1.523 . S
C2844 C2828 1.368 . S
C2844 C2840 1.368 . S
C2844 C2843 1.523 . S
H2845 C2820 0.950 . S
H2846 C2822 0.950 . S
H2847 C2823 0.949 . S
H2848 C2825 0.950 . S
H2849 C2827 0.950 . S
C2850 C2851 1.349 . S
C2850 C2852 1.327 . S
C2850 H2875 0.950 . S
C2851 C2850 1.349 . S
C2851 C2867 1.349 . S
C2852 C2850 1.327 . S
C2852 C2871 1.429 . S
C2852 H2876 0.950 . S
C2853 C2870 1.574 . S
C2853 C2872 1.368 . S
C2853 H2877 0.949 . S
H2854 C2858 0.949 . S
C2855 C2856 1.349 . S
C2855 C2857 1.327 . S
C2855 H2878 0.950 . S
C2856 C2855 1.349 . S
C2856 C2868 1.349 . S
C2857 C2855 1.327 . S
C2857 C2873 1.429 . S
C2857 H2879 0.950 . S
C2858 H2854 0.949 . S
C2858 C2866 1.574 . S
C2858 C2874 1.368 . S
H2859 C2867 0.950 . S
H2860 C2865 0.950 . S
H2861 C2866 0.949 . S
H2862 C2868 0.950 . S
H2863 C2869 0.950 . S
H2864 C2870 0.949 . S
C2865 H2860 0.950 . S
C2865 C2867 1.327 . S
C2865 C2871 1.429 . S
C2866 C2858 1.574 . S
C2866 H2861 0.949 . S
C2866 C2872 1.368 . S
C2867 C2851 1.349 . S
C2867 H2859 0.950 . S
C2867 C2865 1.327 . S
C2868 C2856 1.349 . S
C2868 H2862 0.950 . S
C2868 C2869 1.327 . S
C2869 H2863 0.950 . S
C2869 C2868 1.327 . S
C2869 C2873 1.429 . S
C2870 C2853 1.574 . S
C2870 H2864 0.949 . S
C2870 C2874 1.368 . S
C2871 C2852 1.429 . S
C2871 C2865 1.429 . S
C2871 C2872 1.523 . S
C2872 C2853 1.368 . S
C2872 C2866 1.368 . S
C2872 C2871 1.523 . S
C2873 C2857 1.429 . S
C2873 C2869 1.429 . S
C2873 C2874 1.523 . S
C2874 C2858 1.368 . S
C2874 C2870 1.368 . S
C2874 C2873 1.523 . S
H2875 C2850 0.950 . S
H2876 C2852 0.950 . S
H2877 C2853 0.949 . S
H2878 C2855 0.950 . S
H2879 C2857 0.950 . S
C2880 C2881 1.349 . S
C2880 C2882 1.327 . S
C2880 H2905 0.950 . S
C2881 C2880 1.349 . S
C2881 C2897 1.349 1_545 S
C2882 C2880 1.327 . S
C2882 C2901 1.429 . S
C2882 H2906 0.950 . S
C2883 C2900 1.574 . S
C2883 C2902 1.368 1_565 S
C2883 H2907 0.949 . S
H2884 C2888 0.949 . S
C2885 C2886 1.349 1_565 S
C2885 C2887 1.327 . S
C2885 H2908 0.950 . S
C2886 C2885 1.349 1_545 S
C2886 C2898 1.349 . S
C2887 C2885 1.327 . S
C2887 C2903 1.429 1_565 S
C2887 H2909 0.950 . S
C2888 H2884 0.949 . S
C2888 C2896 1.574 . S
C2888 C2904 1.368 . S
H2889 C2897 0.950 . S
H2890 C2895 0.950 . S
H2891 C2896 0.949 . S
H2892 C2898 0.950 . S
H2893 C2899 0.950 . S
H2894 C2900 0.949 . S
C2895 H2890 0.950 . S
C2895 C2897 1.327 . S
C2895 C2901 1.429 1_565 S
C2896 C2888 1.574 . S
C2896 H2891 0.949 . S
C2896 C2902 1.368 . S
C2897 C2881 1.349 1_565 S
C2897 H2889 0.950 . S
C2897 C2895 1.327 . S
C2898 C2886 1.349 . S
C2898 H2892 0.950 . S
C2898 C2899 1.327 . S
C2899 H2893 0.950 . S
C2899 C2898 1.327 . S
C2899 C2903 1.429 . S
C2900 C2883 1.574 . S
C2900 H2894 0.949 . S
C2900 C2904 1.368 1_565 S
C2901 C2882 1.429 . S
C2901 C2895 1.429 1_545 S
C2901 C2902 1.523 . S
C2902 C2883 1.368 1_545 S
C2902 C2896 1.368 . S
C2902 C2901 1.523 . S
C2903 C2887 1.429 1_545 S
C2903 C2899 1.429 . S
C2903 C2904 1.523 . S
C2904 C2888 1.368 . S
C2904 C2900 1.368 1_545 S
C2904 C2903 1.523 . S
H2905 C2880 0.950 . S
H2906 C2882 0.950 . S
H2907 C2883 0.949 . S
H2908 C2885 0.950 . S
H2909 C2887 0.950 . S
C2910 C2911 1.349 1_455 S
C2910 C2912 1.327 . S
C2910 H2935 0.950 . S
C2911 C2910 1.349 1_655 S
C2911 C2927 1.349 . S
C2912 C2910 1.327 . S
C2912 C2931 1.429 1_455 S
C2912 H2936 0.950 . S
C2913 C2930 1.574 . S
C2913 C2932 1.368 . S
C2913 H2937 0.949 . S
H2914 C2918 0.949 . S
C2915 C2916 1.349 . S
C2915 C2917 1.327 . S
C2915 H2938 0.950 . S
C2916 C2915 1.349 . S
C2916 C2928 1.349 1_655 S
C2917 C2915 1.327 . S
C2917 C2933 1.429 . S
C2917 H2939 0.950 . S
C2918 H2914 0.949 . S
C2918 C2926 1.574 . S
C2918 C2934 1.368 1_455 S
H2919 C2927 0.950 . S
H2920 C2925 0.950 . S
H2921 C2926 0.949 . S
H2922 C2928 0.950 . S
H2923 C2929 0.950 . S
H2924 C2930 0.949 . S
C2925 H2920 0.950 . S
C2925 C2927 1.327 . S
C2925 C2931 1.429 . S
C2926 C2918 1.574 . S
C2926 H2921 0.949 . S
C2926 C2932 1.368 1_455 S
C2927 C2911 1.349 . S
C2927 H2919 0.950 . S
C2927 C2925 1.327 . S
C2928 C2916 1.349 1_455 S
C2928 H2922 0.950 . S
C2928 C2929 1.327 . S
C2929 H2923 0.950 . S
C2929 C2928 1.327 . S
C2929 C2933 1.429 1_455 S
C2930 C2913 1.574 . S
C2930 H2924 0.949 . S
C2930 C2934 1.368 . S
C2931 C2912 1.429 1_655 S
C2931 C2925 1.429 . S
C2931 C2932 1.523 . S
C2932 C2913 1.368 . S
C2932 C2926 1.368 1_655 S
C2932 C2931 1.523 . S
C2933 C2917 1.429 . S
C2933 C2929 1.429 1_655 S
C2933 C2934 1.523 . S
C2934 C2918 1.368 1_655 S
C2934 C2930 1.368 . S
C2934 C2933 1.523 . S
H2935 C2910 0.950 . S
H2936 C2912 0.950 . S
H2937 C2913 0.949 . S
H2938 C2915 0.950 . S
H2939 C2917 0.950 . S
C2940 C2941 1.349 . S
C2940 C2942 1.327 . S
C2940 H2965 0.950 . S
C2941 C2940 1.349 . S
C2941 C2957 1.349 . S
C2942 C2940 1.327 . S
C2942 C2961 1.429 . S
C2942 H2966 0.950 . S
C2943 C2960 1.574 . S
C2943 C2962 1.368 . S
C2943 H2967 0.949 . S
H2944 C2948 0.949 . S
C2945 C2946 1.349 . S
C2945 C2947 1.327 . S
C2945 H2968 0.950 . S
C2946 C2945 1.349 . S
C2946 C2958 1.349 . S
C2947 C2945 1.327 . S
C2947 C2963 1.429 . S
C2947 H2969 0.950 . S
C2948 H2944 0.949 . S
C2948 C2956 1.574 . S
C2948 C2964 1.368 . S
H2949 C2957 0.950 . S
H2950 C2955 0.950 . S
H2951 C2956 0.949 . S
H2952 C2958 0.950 . S
H2953 C2959 0.950 . S
H2954 C2960 0.949 . S
C2955 H2950 0.950 . S
C2955 C2957 1.327 . S
C2955 C2961 1.429 . S
C2956 C2948 1.574 . S
C2956 H2951 0.949 . S
C2956 C2962 1.368 . S
C2957 C2941 1.349 . S
C2957 H2949 0.950 . S
C2957 C2955 1.327 . S
C2958 C2946 1.349 . S
C2958 H2952 0.950 . S
C2958 C2959 1.327 . S
C2959 H2953 0.950 . S
C2959 C2958 1.327 . S
C2959 C2963 1.429 . S
C2960 C2943 1.574 . S
C2960 H2954 0.949 . S
C2960 C2964 1.368 . S
C2961 C2942 1.429 . S
C2961 C2955 1.429 . S
C2961 C2962 1.523 . S
C2962 C2943 1.368 . S
C2962 C2956 1.368 . S
C2962 C2961 1.523 . S
C2963 C2947 1.429 . S
C2963 C2959 1.429 . S
C2963 C2964 1.523 . S
C2964 C2948 1.368 . S
C2964 C2960 1.368 . S
C2964 C2963 1.523 . S
H2965 C2940 0.950 . S
H2966 C2942 0.950 . S
H2967 C2943 0.949 . S
H2968 C2945 0.950 . S
H2969 C2947 0.950 . S
C2970 C2971 1.349 . S
C2970 C2972 1.327 . S
C2970 H2995 0.950 . S
C2971 C2970 1.349 . S
C2971 C2987 1.349 . S
C2972 C2970 1.327 . S
C2972 C2991 1.429 . S
C2972 H2996 0.950 . S
C2973 C2990 1.574 . S
C2973 C2992 1.368 . S
C2973 H2997 0.949 . S
H2974 C2978 0.949 . S
C2975 C2976 1.349 . S
C2975 C2977 1.327 . S
C2975 H2998 0.950 . S
C2976 C2975 1.349 . S
C2976 C2988 1.349 . S
C2977 C2975 1.327 . S
C2977 C2993 1.429 . S
C2977 H2999 0.950 . S
C2978 H2974 0.949 . S
C2978 C2986 1.574 . S
C2978 C2994 1.368 . S
H2979 C2987 0.950 . S
H2980 C2985 0.950 . S
H2981 C2986 0.949 . S
H2982 C2988 0.950 . S
H2983 C2989 0.950 . S
H2984 C2990 0.949 . S
C2985 H2980 0.950 . S
C2985 C2987 1.327 . S
C2985 C2991 1.429 . S
C2986 C2978 1.574 . S
C2986 H2981 0.949 . S
C2986 C2992 1.368 . S
C2987 C2971 1.349 . S
C2987 H2979 0.950 . S
C2987 C2985 1.327 . S
C2988 C2976 1.349 . S
C2988 H2982 0.950 . S
C2988 C2989 1.327 . S
C2989 H2983 0.950 . S
C2989 C2988 1.327 . S
C2989 C2993 1.429 . S
C2990 C2973 1.574 . S
C2990 H2984 0.949 . S
C2990 C2994 1.368 . S
C2991 C2972 1.429 . S
C2991 C2985 1.429 . S
C2991 C2992 1.523 . S
C2992 C2973 1.368 . S
C2992 C2986 1.368 . S
C2992 C2991 1.523 . S
C2993 C2977 1.429 . S
C2993 C2989 1.429 . S
C2993 C2994 1.523 . S
C2994 C2978 1.368 . S
C2994 C2990 1.368 . S
C2994 C2993 1.523 . S
H2995 C2970 0.950 . S
H2996 C2972 0.950 . S
H2997 C2973 0.949 . S
H2998 C2975 0.950 . S
H2999 C2977 0.950 . S
C3000 C3001 1.349 . S
C3000 C3002 1.327 . S
C3000 H3025 0.950 . S
C3001 C3000 1.349 . S
C3001 C3017 1.349 . S
C3002 C3000 1.327 . S
C3002 C3021 1.429 . S
C3002 H3026 0.950 . S
C3003 C3020 1.574 . S
C3003 C3022 1.368 . S
C3003 H3027 0.949 . S
H3004 C3008 0.949 . S
C3005 C3006 1.349 . S
C3005 C3007 1.327 . S
C3005 H3028 0.950 . S
C3006 C3005 1.349 . S
C3006 C3018 1.349 . S
C3007 C3005 1.327 . S
C3007 C3023 1.429 . S
C3007 H3029 0.950 . S
C3008 H3004 0.949 . S
C3008 C3016 1.574 . S
C3008 C3024 1.368 . S
H3009 C3017 0.950 . S
H3010 C3015 0.950 . S
H3011 C3016 0.949 . S
H3012 C3018 0.950 . S
H3013 C3019 0.950 . S
H3014 C3020 0.949 . S
C3015 H3010 0.950 . S
C3015 C3017 1.327 . S
C3015 C3021 1.429 . S
C3016 C3008 1.574 . S
C3016 H3011 0.949 . S
C3016 C3022 1.368 . S
C3017 C3001 1.349 . S
C3017 H3009 0.950 . S
C3017 C3015 1.327 . S
C3018 C3006 1.349 . S
C3018 H3012 0.950 . S
C3018 C3019 1.327 . S
C3019 H3013 0.950 . S
C3019 C3018 1.327 . S
C3019 C3023 1.429 . S
C3020 C3003 1.574 . S
C3020 H3014 0.949 . S
C3020 C3024 1.368 . S
C3021 C3002 1.429 . S
C3021 C3015 1.429 . S
C3021 C3022 1.523 . S
C3022 C3003 1.368 . S
C3022 C3016 1.368 . S
C3022 C3021 1.523 . S
C3023 C3007 1.429 . S
C3023 C3019 1.429 . S
C3023 C3024 1.523 . S
C3024 C3008 1.368 . S
C3024 C3020 1.368 . S
C3024 C3023 1.523 . S
H3025 C3000 0.950 . S
H3026 C3002 0.950 . S
H3027 C3003 0.949 . S
H3028 C3005 0.950 . S
H3029 C3007 0.950 . S
C3030 C3031 1.349 . S
C3030 C3032 1.327 . S
C3030 H3055 0.950 . S
C3031 C3030 1.349 . S
C3031 C3047 1.349 . S
C3032 C3030 1.327 . S
C3032 C3051 1.429 . S
C3032 H3056 0.950 . S
C3033 C3050 1.574 . S
C3033 C3052 1.368 . S
C3033 H3057 0.949 . S
H3034 C3038 0.949 . S
C3035 C3036 1.349 . S
C3035 C3037 1.327 . S
C3035 H3058 0.950 . S
C3036 C3035 1.349 . S
C3036 C3048 1.349 . S
C3037 C3035 1.327 . S
C3037 C3053 1.429 . S
C3037 H3059 0.950 . S
C3038 H3034 0.949 . S
C3038 C3046 1.574 . S
C3038 C3054 1.368 . S
H3039 C3047 0.950 . S
H3040 C3045 0.950 . S
H3041 C3046 0.949 . S
H3042 C3048 0.950 . S
H3043 C3049 0.950 . S
H3044 C3050 0.949 . S
C3045 H3040 0.950 . S
C3045 C3047 1.327 . S
C3045 C3051 1.429 . S
C3046 C3038 1.574 . S
C3046 H3041 0.949 . S
C3046 C3052 1.368 . S
C3047 C3031 1.349 . S
C3047 H3039 0.950 . S
C3047 C3045 1.327 . S
C3048 C3036 1.349 . S
C3048 H3042 0.950 . S
C3048 C3049 1.327 . S
C3049 H3043 0.950 . S
C3049 C3048 1.327 . S
C3049 C3053 1.429 . S
C3050 C3033 1.574 . S
C3050 H3044 0.949 . S
C3050 C3054 1.368 . S
C3051 C3032 1.429 . S
C3051 C3045 1.429 . S
C3051 C3052 1.523 . S
C3052 C3033 1.368 . S
C3052 C3046 1.368 . S
C3052 C3051 1.523 . S
C3053 C3037 1.429 . S
C3053 C3049 1.429 . S
C3053 C3054 1.523 . S
C3054 C3038 1.368 . S
C3054 C3050 1.368 . S
C3054 C3053 1.523 . S
H3055 C3030 0.950 . S
H3056 C3032 0.950 . S
H3057 C3033 0.949 . S
H3058 C3035 0.950 . S
H3059 C3037 0.950 . S
C3060 C3061 1.349 . S
C3060 C3062 1.327 . S
C3060 H3085 0.950 . S
C3061 C3060 1.349 . S
C3061 C3077 1.349 . S
C3062 C3060 1.327 . S
C3062 C3081 1.429 . S
C3062 H3086 0.950 . S
C3063 C3080 1.574 . S
C3063 C3082 1.368 . S
C3063 H3087 0.949 . S
H3064 C3068 0.949 . S
C3065 C3066 1.349 . S
C3065 C3067 1.327 . S
C3065 H3088 0.950 . S
C3066 C3065 1.349 . S
C3066 C3078 1.349 . S
C3067 C3065 1.327 . S
C3067 C3083 1.429 . S
C3067 H3089 0.950 . S
C3068 H3064 0.949 . S
C3068 C3076 1.574 . S
C3068 C3084 1.368 . S
H3069 C3077 0.950 . S
H3070 C3075 0.950 . S
H3071 C3076 0.949 . S
H3072 C3078 0.950 . S
H3073 C3079 0.950 . S
H3074 C3080 0.949 . S
C3075 H3070 0.950 . S
C3075 C3077 1.327 . S
C3075 C3081 1.429 . S
C3076 C3068 1.574 . S
C3076 H3071 0.949 . S
C3076 C3082 1.368 . S
C3077 C3061 1.349 . S
C3077 H3069 0.950 . S
C3077 C3075 1.327 . S
C3078 C3066 1.349 . S
C3078 H3072 0.950 . S
C3078 C3079 1.327 . S
C3079 H3073 0.950 . S
C3079 C3078 1.327 . S
C3079 C3083 1.429 . S
C3080 C3063 1.574 . S
C3080 H3074 0.949 . S
C3080 C3084 1.368 . S
C3081 C3062 1.429 . S
C3081 C3075 1.429 . S
C3081 C3082 1.523 . S
C3082 C3063 1.368 . S
C3082 C3076 1.368 . S
C3082 C3081 1.523 . S
C3083 C3067 1.429 . S
C3083 C3079 1.429 . S
C3083 C3084 1.523 . S
C3084 C3068 1.368 . S
C3084 C3080 1.368 . S
C3084 C3083 1.523 . S
H3085 C3060 0.950 . S
H3086 C3062 0.950 . S
H3087 C3063 0.949 . S
H3088 C3065 0.950 . S
H3089 C3067 0.950 . S
C3090 C3091 1.349 . S
C3090 C3092 1.327 . S
C3090 H3115 0.950 . S
C3091 C3090 1.349 . S
C3091 C3107 1.349 . S
C3092 C3090 1.327 . S
C3092 C3111 1.429 . S
C3092 H3116 0.950 . S
C3093 C3110 1.574 . S
C3093 C3112 1.368 . S
C3093 H3117 0.949 . S
H3094 C3098 0.949 . S
C3095 C3096 1.349 . S
C3095 C3097 1.327 . S
C3095 H3118 0.950 . S
C3096 C3095 1.349 . S
C3096 C3108 1.349 . S
C3097 C3095 1.327 . S
C3097 C3113 1.429 . S
C3097 H3119 0.950 . S
C3098 H3094 0.949 . S
C3098 C3106 1.574 . S
C3098 C3114 1.368 . S
H3099 C3107 0.950 . S
H3100 C3105 0.950 . S
H3101 C3106 0.949 . S
H3102 C3108 0.950 . S
H3103 C3109 0.950 . S
H3104 C3110 0.949 . S
C3105 H3100 0.950 . S
C3105 C3107 1.327 . S
C3105 C3111 1.429 . S
C3106 C3098 1.574 . S
C3106 H3101 0.949 . S
C3106 C3112 1.368 . S
C3107 C3091 1.349 . S
C3107 H3099 0.950 . S
C3107 C3105 1.327 . S
C3108 C3096 1.349 . S
C3108 H3102 0.950 . S
C3108 C3109 1.327 . S
C3109 H3103 0.950 . S
C3109 C3108 1.327 . S
C3109 C3113 1.429 . S
C3110 C3093 1.574 . S
C3110 H3104 0.949 . S
C3110 C3114 1.368 . S
C3111 C3092 1.429 . S
C3111 C3105 1.429 . S
C3111 C3112 1.523 . S
C3112 C3093 1.368 . S
C3112 C3106 1.368 . S
C3112 C3111 1.523 . S
C3113 C3097 1.429 . S
C3113 C3109 1.429 . S
C3113 C3114 1.523 . S
C3114 C3098 1.368 . S
C3114 C3110 1.368 . S
C3114 C3113 1.523 . S
H3115 C3090 0.950 . S
H3116 C3092 0.950 . S
H3117 C3093 0.949 . S
H3118 C3095 0.950 . S
H3119 C3097 0.950 . S
C3120 C3121 1.349 . S
C3120 C3122 1.327 . S
C3120 H3145 0.950 . S
C3121 C3120 1.349 . S
C3121 C3137 1.349 . S
C3122 C3120 1.327 . S
C3122 C3141 1.429 . S
C3122 H3146 0.950 . S
C3123 C3140 1.574 . S
C3123 C3142 1.368 . S
C3123 H3147 0.949 . S
H3124 C3128 0.949 . S
C3125 C3126 1.349 . S
C3125 C3127 1.327 . S
C3125 H3148 0.950 . S
C3126 C3125 1.349 . S
C3126 C3138 1.349 . S
C3127 C3125 1.327 . S
C3127 C3143 1.429 . S
C3127 H3149 0.950 . S
C3128 H3124 0.949 . S
C3128 C3136 1.574 . S
C3128 C3144 1.368 . S
H3129 C3137 0.950 . S
H3130 C3135 0.950 . S
H3131 C3136 0.949 . S
H3132 C3138 0.950 . S
H3133 C3139 0.950 . S
H3134 C3140 0.949 . S
C3135 H3130 0.950 . S
C3135 C3137 1.327 . S
C3135 C3141 1.429 . S
C3136 C3128 1.574 . S
C3136 H3131 0.949 . S
C3136 C3142 1.368 . S
C3137 C3121 1.349 . S
C3137 H3129 0.950 . S
C3137 C3135 1.327 . S
C3138 C3126 1.349 . S
C3138 H3132 0.950 . S
C3138 C3139 1.327 . S
C3139 H3133 0.950 . S
C3139 C3138 1.327 . S
C3139 C3143 1.429 . S
C3140 C3123 1.574 . S
C3140 H3134 0.949 . S
C3140 C3144 1.368 . S
C3141 C3122 1.429 . S
C3141 C3135 1.429 . S
C3141 C3142 1.523 . S
C3142 C3123 1.368 . S
C3142 C3136 1.368 . S
C3142 C3141 1.523 . S
C3143 C3127 1.429 . S
C3143 C3139 1.429 . S
C3143 C3144 1.523 . S
C3144 C3128 1.368 . S
C3144 C3140 1.368 . S
C3144 C3143 1.523 . S
H3145 C3120 0.950 . S
H3146 C3122 0.950 . S
H3147 C3123 0.949 . S
H3148 C3125 0.950 . S
H3149 C3127 0.950 . S
C3150 C3151 1.349 . S
C3150 C3152 1.327 . S
C3150 H3175 0.950 . S
C3151 C3150 1.349 . S
C3151 C3167 1.349 . S
C3152 C3150 1.327 . S
C3152 C3171 1.429 . S
C3152 H3176 0.950 . S
C3153 C3170 1.574 . S
C3153 C3172 1.368 . S
C3153 H3177 0.949 . S
H3154 C3158 0.964 . S
C3155 C3156 1.349 . S
C3155 C3157 1.327 . S
C3155 H3178 0.950 . S
C3156 C3155 1.349 . S
C3156 C3168 1.356 . S
C3157 C3155 1.327 . S
C3157 C3173 1.429 . S
C3157 H3179 0.950 . S
C3158 H3154 0.964 . S
C3158 C3166 1.574 . S
C3158 C3174 1.368 . S
H3159 C3167 0.950 . S
H3160 C3165 0.950 . S
H3161 C3166 0.949 . S
H3162 C3168 0.925 1_455 S
H3163 C3169 0.943 1_455 S
H3164 C3170 0.949 . S
C3165 H3160 0.950 . S
C3165 C3167 1.327 . S
C3165 C3171 1.429 . S
C3166 C3158 1.574 . S
C3166 H3161 0.949 . S
C3166 C3172 1.368 . S
C3167 C3151 1.349 . S
C3167 H3159 0.950 . S
C3167 C3165 1.327 . S
C3168 C3156 1.356 . S
C3168 H3162 0.925 1_655 S
C3168 C3169 1.346 . S
C3169 H3163 0.943 1_655 S
C3169 C3168 1.346 . S
C3169 C3173 1.429 . S
C3170 C3153 1.574 . S
C3170 H3164 0.949 . S
C3170 C3174 1.368 . S
C3171 C3152 1.429 . S
C3171 C3165 1.429 . S
C3171 C3172 1.523 . S
C3172 C3153 1.368 . S
C3172 C3166 1.368 . S
C3172 C3171 1.523 . S
C3173 C3157 1.429 . S
C3173 C3169 1.429 . S
C3173 C3174 1.523 . S
C3174 C3158 1.368 . S
C3174 C3170 1.368 . S
C3174 C3173 1.523 . S
H3175 C3150 0.950 . S
H3176 C3152 0.950 . S
H3177 C3153 0.949 . S
H3178 C3155 0.950 . S
H3179 C3157 0.950 . S
C3180 C3181 1.349 . S
C3180 C3182 1.327 . S
C3180 H3205 0.950 . S
C3181 C3180 1.349 . S
C3181 C3197 1.349 . S
C3182 C3180 1.327 . S
C3182 C3201 1.429 . S
C3182 H3206 0.950 . S
C3183 C3200 1.574 . S
C3183 C3202 1.368 . S
C3183 H3207 0.949 . S
H3184 C3188 0.949 . S
C3185 C3186 1.349 . S
C3185 C3187 1.327 . S
C3185 H3208 0.950 . S
C3186 C3185 1.349 . S
C3186 C3198 1.349 . S
C3187 C3185 1.327 . S
C3187 C3203 1.429 . S
C3187 H3209 0.950 . S
C3188 H3184 0.949 . S
C3188 C3196 1.574 . S
C3188 C3204 1.368 . S
H3189 C3197 0.950 . S
H3190 C3195 0.950 . S
H3191 C3196 0.949 . S
H3192 C3198 0.950 . S
H3193 C3199 0.950 . S
H3194 C3200 0.949 . S
C3195 H3190 0.950 . S
C3195 C3197 1.327 . S
C3195 C3201 1.429 . S
C3196 C3188 1.574 . S
C3196 H3191 0.949 . S
C3196 C3202 1.368 . S
C3197 C3181 1.349 . S
C3197 H3189 0.950 . S
C3197 C3195 1.327 . S
C3198 C3186 1.349 . S
C3198 H3192 0.950 . S
C3198 C3199 1.327 . S
C3199 H3193 0.950 . S
C3199 C3198 1.327 . S
C3199 C3203 1.429 . S
C3200 C3183 1.574 . S
C3200 H3194 0.949 . S
C3200 C3204 1.368 . S
C3201 C3182 1.429 . S
C3201 C3195 1.429 . S
C3201 C3202 1.523 . S
C3202 C3183 1.368 . S
C3202 C3196 1.368 . S
C3202 C3201 1.523 . S
C3203 C3187 1.429 . S
C3203 C3199 1.429 . S
C3203 C3204 1.523 . S
C3204 C3188 1.368 . S
C3204 C3200 1.368 . S
C3204 C3203 1.523 . S
H3205 C3180 0.950 . S
H3206 C3182 0.950 . S
H3207 C3183 0.949 . S
H3208 C3185 0.950 . S
H3209 C3187 0.950 . S
C3210 C3211 1.349 1_565 S
C3210 C3212 1.327 . S
C3210 H3235 0.950 . S
C3211 C3210 1.349 1_545 S
C3211 C3227 1.349 . S
C3212 C3210 1.327 . S
C3212 C3231 1.429 1_565 S
C3212 H3236 0.950 . S
C3213 C3230 1.574 . S
C3213 C3232 1.368 . S
C3213 H3237 0.949 . S
H3214 C3218 0.949 . S
C3215 C3216 1.349 . S
C3215 C3217 1.327 . S
C3215 H3238 0.950 . S
C3216 C3215 1.349 . S
C3216 C3228 1.349 1_545 S
C3217 C3215 1.327 . S
C3217 C3233 1.429 . S
C3217 H3239 0.950 . S
C3218 H3214 0.949 . S
C3218 C3226 1.574 . S
C3218 C3234 1.368 1_565 S
H3219 C3227 0.950 . S
H3220 C3225 0.950 . S
H3221 C3226 0.949 . S
H3222 C3228 0.950 . S
H3223 C3229 0.950 . S
H3224 C3230 0.949 . S
C3225 H3220 0.950 . S
C3225 C3227 1.327 . S
C3225 C3231 1.429 . S
C3226 C3218 1.574 . S
C3226 H3221 0.949 . S
C3226 C3232 1.368 1_565 S
C3227 C3211 1.349 . S
C3227 H3219 0.950 . S
C3227 C3225 1.327 . S
C3228 C3216 1.349 1_565 S
C3228 H3222 0.950 . S
C3228 C3229 1.327 . S
C3229 H3223 0.950 . S
C3229 C3228 1.327 . S
C3229 C3233 1.429 1_565 S
C3230 C3213 1.574 . S
C3230 H3224 0.949 . S
C3230 C3234 1.368 . S
C3231 C3212 1.429 1_545 S
C3231 C3225 1.429 . S
C3231 C3232 1.523 . S
C3232 C3213 1.368 . S
C3232 C3226 1.368 1_545 S
C3232 C3231 1.523 . S
C3233 C3217 1.429 . S
C3233 C3229 1.429 1_545 S
C3233 C3234 1.523 . S
C3234 C3218 1.368 1_545 S
C3234 C3230 1.368 . S
C3234 C3233 1.523 . S
H3235 C3210 0.950 . S
H3236 C3212 0.950 . S
H3237 C3213 0.949 . S
H3238 C3215 0.950 . S
H3239 C3217 0.950 . S
C1081 C8 1.440 1_655 S
C1086 C688 1.471 . S
C1111 C22 1.554 . S
C1116 C734 1.560 . S
C1146 C766 1.483 . S
C1141 C37 1.460 1_545 S
C1171 C36 1.437 1_565 S
C1176 C819 1.471 . S
C1201 C9 1.456 1_455 S
C1206 C865 1.487 . S
C1231 C23 1.554 . S
C1236 C904 1.567 . S
C1261 C50 1.439 1_455 S
C1266 C858 1.461 . S
C1296 C911 1.566 . S
C1291 C64 1.553 . S
C1326 C812 1.490 . S
C1321 C79 1.461 1_565 S
C1351 C78 1.438 1_545 S
C1356 C773 1.461 . S
C1386 C667 1.490 . S
C1381 C51 1.461 1_655 S
C1411 C65 1.553 . S
C1416 C713 1.559 . S
C1441 C92 1.617 . S
C1446 C943 1.630 . S
C1471 C106 1.624 . S
C1476 C1010 1.624 . S
C1506 C1056 1.586 . S
C1501 C121 1.584 . S
C1531 C120 1.528 . S
C1536 C267 1.534 . S
C1561 C93 1.572 . S
C1566 C313 1.577 . S
C1591 C107 1.576 . S
C1596 C359 1.580 . S
C1621 C134 1.526 . S
C1626 C306 1.531 . S
C1651 C148 1.579 . S
C1656 C352 1.582 . S
C1686 C260 1.577 . S
C1681 C163 1.571 . S
C1716 C1035 1.625 . S
C1711 C162 1.621 . S
C1746 C964 1.589 . S
C1741 C135 1.580 . S
C1776 C989 1.625 . S
C1771 C149 1.625 . S
C1801 C176 1.528 . S
C1806 C391 1.541 . S
C1831 C190 1.576 . S
C1836 C444 1.587 . S
C1861 C205 1.571 . S
C1866 C490 1.584 . S
C1891 C204 1.617 . S
C1896 C536 1.629 . S
C1926 C589 1.586 . S
C1921 C177 1.584 . S
C1956 C635 1.624 . S
C1951 C191 1.624 . S
C1986 C582 1.625 . S
C1981 C218 1.620 . S
C2016 C628 1.625 . S
C2011 C232 1.624 . S
C2041 C247 1.580 . S
C2046 C543 1.589 . S
C2076 C497 1.539 . S
C2071 C246 1.526 . S
C2101 C219 1.571 . S
C2106 C412 1.584 . S
C2136 C451 1.590 . S
C2131 C233 1.579 . S
C2166 C274 1.567 . S
C2161 C6 1.551 . S
C2191 C20 1.484 . S
C2196 C320 1.504 . S
C2226 C366 1.569 . S
C2221 C35 1.554 . S
C2256 C398 1.561 . S
C2251 C34 1.551 . S
C2286 C437 1.562 . S
C2281 C7 1.554 . S
C2316 C483 1.498 . S
C2311 C21 1.485 . S
C2341 C48 1.556 . S
C2346 C504 1.575 . S
C2371 C62 1.483 . S
C2376 C405 1.497 . S
C2401 C77 1.549 . S
C2406 C458 1.553 . S
C2431 C76 1.557 . S
C2436 C299 1.582 . S
C2466 C345 1.564 . S
C2461 C49 1.549 . S
C2491 C63 1.483 . S
C2496 C253 1.503 . S
C2526 C529 1.539 . S
C2521 C90 1.523 . S
C2551 C104 1.584 . S
C2556 C596 1.611 . S
C2581 C119 1.585 . S
C2586 C642 1.611 . S
C2616 C681 1.480 . S
C2611 C118 1.434 . S
C2641 C91 1.535 . S
C2646 C727 1.558 . S
C2671 C105 1.442 . S
C2676 C759 1.486 . S
C2701 C132 1.437 . S
C2706 C780 1.471 . S
C2731 C146 1.445 . S
C2736 C674 1.488 . S
C2766 C720 1.560 . S
C2761 C161 1.537 . S
C2791 C160 1.527 . S
C2796 C575 1.550 . S
C2821 C133 1.582 . S
C2826 C621 1.608 . S
C2856 C550 1.603 . S
C2851 C147 1.582 . S
C2886 C826 1.480 . S
C2881 C174 1.434 . S
C2911 C188 1.442 . S
C2916 C872 1.486 . S
C2941 C203 1.534 . S
C2946 C897 1.551 . S
C2976 C950 1.539 . S
C2971 C202 1.523 . S
C3006 C1003 1.611 . S
C3001 C175 1.585 . S
C3031 C189 1.584 . S
C3036 C1049 1.611 . S
C3061 C216 1.528 . S
C3066 C1042 1.550 . S
C3091 C230 1.582 . S
C3096 C957 1.603 . S
C3126 C996 1.609 . S
C3121 C245 1.582 . S
C3156 C851 1.476 . S
C3151 C244 1.430 . S
C3186 C918 1.554 . S
C3181 C217 1.537 . S
C3211 C231 1.445 . S
C3216 C805 1.488 . S
