# Generated by pormake.
# Topology tsx, (6,3)-cn, num edge types: 1
# Building blocks:
#     Node 0, Type 0, BuildingBlock: CIFDUS_clean_sbu_1, # of connection points: 6
#     Node 1, Type 0, BuildingBlock: CIFDUS_clean_sbu_1, # of connection points: 6
#     Node 2, Type 1, BuildingBlock: INOVEN_clean_linker_0, # of connection points: 3
#     Node 3, Type 1, BuildingBlock: INOVEN_clean_linker_0, # of connection points: 3
#     Node 4, Type 1, BuildingBlock: INOVEN_clean_linker_0, # of connection points: 3
#     Node 5, Type 1, BuildingBlock: INOVEN_clean_linker_0, # of connection points: 3
#     Edge 6, Type (0, 1), BuildingBlock: MIFKUJ_clean_linker_0, # of connection points: 2
#     Edge 7, Type (0, 1), BuildingBlock: MIFKUJ_clean_linker_0, # of connection points: 2
#     Edge 8, Type (0, 1), BuildingBlock: MIFKUJ_clean_linker_0, # of connection points: 2
#     Edge 9, Type (0, 1), BuildingBlock: MIFKUJ_clean_linker_0, # of connection points: 2
#     Edge 10, Type (0, 1), BuildingBlock: MIFKUJ_clean_linker_0, # of connection points: 2
#     Edge 11, Type (0, 1), BuildingBlock: MIFKUJ_clean_linker_0, # of connection points: 2
#     Edge 12, Type (0, 1), BuildingBlock: MIFKUJ_clean_linker_0, # of connection points: 2
#     Edge 13, Type (0, 1), BuildingBlock: MIFKUJ_clean_linker_0, # of connection points: 2
#     Edge 14, Type (0, 1), BuildingBlock: MIFKUJ_clean_linker_0, # of connection points: 2
#     Edge 15, Type (0, 1), BuildingBlock: MIFKUJ_clean_linker_0, # of connection points: 2
#     Edge 16, Type (0, 1), BuildingBlock: MIFKUJ_clean_linker_0, # of connection points: 2
#     Edge 17, Type (0, 1), BuildingBlock: MIFKUJ_clean_linker_0, # of connection points: 2
# Relax obj value: 0.087
# Max RMSD: 0.139
# Mean RMSD: 0.104
data_MOF--net-tsx--node1-CIFDUS_clean_sbu_1--node2-INOVEN_clean_linker_0--edge1-MIFKUJ_clean_linker_0
_symmetry_space_group_name_H-M    P1
_symmetry_Int_Tables_number       1
_symmetry_cell_setting            triclinic
loop_
_symmetry_equiv_pos_as_xyz
'x, y, z'
_cell_length_a     24.488062
_cell_length_b     29.51475
_cell_length_c     44.21678
_cell_angle_alpha  96.930532
_cell_angle_beta   100.21858
_cell_angle_gamma 90.814851
loop_
_atom_site_label
_atom_site_type_symbol
_atom_site_fract_x
_atom_site_fract_y
_atom_site_fract_z
_atom_type_partial_charge
O0 O 0.00609 0.07113 0.01106 0.0
Mn1 Mn 0.05598 0.01336 0.0073 0.0
O2 O 0.92364 0.04848 0.98216 0.0
Mn3 Mn 0.94717 0.99316 0.9673 0.0
O4 O 0.10567 0.95542 0.00284 0.0
O5 O 0.12319 0.05845 0.01861 0.0
Mn6 Mn 0.17151 0.03116 0.04459 0.0
O7 O 0.05536 0.00676 0.05426 0.0
O8 O 0.1929 0.9788 0.02387 0.0
O9 O 0.05894 0.02107 0.96046 0.0
O10 O 0.97848 0.99225 0.93292 0.0
O11 O 0.20723 0.08422 0.04224 0.0
O12 O 0.14247 0.0239 0.07937 0.0
C13 C 0.94509 0.93802 0.99079 0.0
C14 C 0.95511 0.07847 0.00015 0.0
C15 C 0.15811 0.94857 0.0086 0.0
C16 C 0.16211 0.09063 0.02322 0.0
C17 C 0.09231 0.01206 0.0792 0.0
C18 C 0.02627 0.00988 0.93438 0.0
O19 O 0.9881 0.96721 0.99721 0.0
O20 O 0.90447 0.94481 0.96881 0.0
O21 O 0.49902 0.57113 0.50714 0.0
Mn22 Mn 0.54964 0.51351 0.50702 0.0
O23 O 0.41843 0.54559 0.47664 0.0
Mn24 Mn 0.43957 0.48756 0.46511 0.0
O25 O 0.598 0.45502 0.50551 0.0
O26 O 0.61825 0.55727 0.5172 0.0
Mn27 Mn 0.66438 0.53217 0.54574 0.0
O28 O 0.54697 0.51174 0.55432 0.0
O29 O 0.68458 0.47568 0.52969 0.0
O30 O 0.55356 0.51585 0.45975 0.0
O31 O 0.47592 0.48081 0.43222 0.0
O32 O 0.70265 0.58255 0.54042 0.0
O33 O 0.63228 0.53366 0.58041 0.0
C34 C 0.44224 0.43821 0.49525 0.0
C35 C 0.44864 0.57729 0.49405 0.0
C36 C 0.64924 0.44621 0.51402 0.0
C37 C 0.65799 0.58862 0.52096 0.0
C38 C 0.58182 0.52223 0.57977 0.0
C39 C 0.52361 0.49911 0.43376 0.0
O40 O 0.48186 0.46924 0.49755 0.0
O41 O 0.40044 0.43921 0.47284 0.0
H42 H 0.08753 0.9899 0.48758 0.0
H43 H 0.126 0.92854 0.40064 0.0
H44 H 0.02153 0.04369 0.40272 0.0
N45 N 0.0218 0.05387 0.46377 0.0
N46 N 1.00339 0.08763 0.45127 0.0
C47 C 0.08369 0.9889 0.46271 0.0
C48 C 0.1109 0.95549 0.44587 0.0
C49 C 0.05106 0.02084 0.44722 0.0
C50 C 0.04625 0.01907 0.41484 0.0
C51 C 0.07299 0.98602 0.39784 0.0
C52 C 0.1052 0.95436 0.41357 0.0
H53 H 0.98037 0.01734 0.5262 0.0
H54 H 0.94181 0.98604 0.61294 0.0
H55 H 0.05582 0.09698 0.61191 0.0
N56 N 0.05252 0.08747 0.55105 0.0
N57 N 0.06647 0.12771 0.56227 0.0
C58 C 0.98528 0.02445 0.55116 0.0
C59 C 0.9543 -0.00136 0.56758 0.0
C60 C 0.02126 0.06062 0.56708 0.0
C61 C 0.02775 0.06949 0.59954 0.0
C62 C 0.99958 0.04271 0.61629 0.0
C63 C 0.96278 0.00762 0.60008 0.0
H64 H 0.58023 0.47806 0.98616 0.0
H65 H 0.62615 0.42589 0.89919 0.0
H66 H 0.51685 0.5381 0.90345 0.0
N67 N 0.51356 0.54207 0.96375 0.0
N68 N 0.5089 0.58231 0.95797 0.0
C69 C 0.57752 0.47909 0.96152 0.0
C70 C 0.60767 0.4487 0.94439 0.0
C71 C 0.54499 0.5117 0.94685 0.0
C72 C 0.54241 0.5133 0.91494 0.0
C73 C 0.57061 0.48189 0.89752 0.0
C74 C 0.60316 0.44963 0.91239 0.0
H75 H 0.47848 0.52233 0.02584 0.0
H76 H 0.41636 0.4983 0.10779 0.0
H77 H 0.55573 0.5917 0.11412 0.0
N78 N 0.55649 0.58576 0.05455 0.0
N79 N 0.56742 0.62723 0.06322 0.0
C80 C 0.4799 0.52938 0.0506 0.0
C81 C 0.44239 0.50662 0.06488 0.0
C82 C 0.51851 0.56211 0.0684 0.0
C83 C 0.52251 0.56927 0.10073 0.0
C84 C 0.48718 0.54546 0.11564 0.0
C85 C 0.44548 0.51592 0.0971 0.0
H86 H 0.10941 0.16821 0.0386 0.0
H87 H 0.14556 0.24473 0.03418 0.0
H88 H 0.25415 0.18483 0.97483 0.0
H89 H 0.21736 0.10878 0.97875 0.0
H90 H 0.30746 0.23508 0.03339 0.0
H91 H 0.16452 0.25263 0.94512 0.0
H92 H 0.06671 0.25187 0.91904 0.0
H93 H 0.03285 0.357 0.98861 0.0
H94 H 0.13039 0.35796 0.0153 0.0
H95 H 0.46347 0.43261 0.02558 0.0
H96 H 0.40298 0.36429 0.00704 0.0
H97 H 0.2721 0.42879 0.04819 0.0
H98 H 0.33193 0.49726 0.06611 0.0
H99 H 0.22762 0.37642 0.99662 0.0
H100 H 0.35722 0.35963 0.08701 0.0
H101 H 0.44827 0.35977 0.12132 0.0
H102 H 0.50047 0.25359 0.0585 0.0
H103 H 0.40998 0.25347 0.02346 0.0
C104 C 0.13811 0.17169 0.02291 0.0
C105 C 0.15967 0.13269 0.00842 0.0
C106 C 0.1595 0.21536 0.02082 0.0
C107 C 0.203 0.22038 0.00443 0.0
C108 C 0.22064 0.18174 0.98757 0.0
C109 C 0.19886 0.13834 0.98939 0.0
C110 C 0.23562 0.26425 0.00855 0.0
C111 C 0.29046 0.26576 0.02473 0.0
C112 C 0.21252 0.30474 -0.00127 0.0
C113 C 0.1545 0.30514 0.98227 0.0
C114 C 0.13611 0.27542 0.95491 0.0
C115 C 0.08076 0.27498 0.94002 0.0
C116 C 0.04355 0.30431 0.95219 0.0
C117 C 0.06171 0.33431 0.97921 0.0
C118 C 0.11703 0.33487 0.99419 0.0
C119 C 0.42119 0.43271 0.02975 0.0
C120 C 0.40252 0.47009 0.04749 0.0
C121 C 0.38682 0.3935 0.01945 0.0
C122 C 0.33329 0.391 0.02677 0.0
C123 C 0.3132 0.42971 0.04235 0.0
C124 C 0.34749 0.4688 0.05266 0.0
C125 C 0.30023 0.34702 0.02073 0.0
C126 C 0.24515 0.34558 0.00471 0.0
C127 C 0.32247 0.30673 0.03165 0.0
C128 C 0.37719 0.30704 0.05238 0.0
C129 C 0.38836 0.3367 0.08032 0.0
C130 C 0.43981 0.33671 0.09994 0.0
C131 C 0.48021 0.30682 0.09204 0.0
C132 C 0.46919 0.27682 0.06453 0.0
C133 C 0.41785 0.2768 0.04476 0.0
H134 H 0.52 0.3068 0.10729 0.0
H135 H 1.00066 0.30384 0.94067 0.0
H136 H 0.11212 0.8612 0.00418 0.0
H137 H 0.16023 0.78903 0.99563 0.0
H138 H 0.30486 0.86529 0.98359 0.0
H139 H 0.25744 0.93614 0.99153 0.0
H140 H 0.28545 0.79324 0.94178 0.0
H141 H 0.29075 0.82555 0.05315 0.0
H142 H 0.24948 0.83594 0.10041 0.0
H143 H 0.17421 0.70098 0.07786 0.0
H144 H 0.21445 0.69004 0.03023 0.0
H145 H 0.52212 0.67192 0.96593 0.0
H146 H 0.45265 0.72722 0.97707 0.0
H147 H 0.34155 0.61723 0.98681 0.0
H148 H 0.4129 0.562 0.97736 0.0
H149 H 0.32703 0.69383 0.02521 0.0
H150 H 0.33332 0.65922 0.91687 0.0
H151 H 0.37961 0.64935 0.87142 0.0
H152 H 0.43519 0.79026 0.88917 0.0
H153 H 0.38987 0.80082 0.93496 0.0
C154 C 0.15369 0.86219 -0.00101 0.0
C155 C 0.18107 0.90426 0.99853 0.0
C156 C 0.18137 0.82109 0.99451 0.0
C157 C 0.2365 0.82174 0.98933 0.0
C158 C 0.26249 0.86372 0.98756 0.0
C159 C 0.23525 0.90432 0.99213 0.0
C160 C 0.26887 0.77964 0.98611 0.0
C161 C 0.2944 0.77153 0.96006 0.0
C162 C 0.27952 0.75035 0.00949 0.0
C163 C 0.25488 0.75725 0.0379 0.0
C164 C 0.2649 0.79829 0.0581 0.0
C165 C 0.24181 0.80423 0.08499 0.0
C166 C 0.20906 0.76921 0.09207 0.0
C167 C 0.19943 0.72813 0.0723 0.0
C168 C 0.22234 0.72205 0.04536 0.0
C169 C 0.48349 0.65988 0.97143 0.0
C170 C 0.47273 0.61312 0.9708 0.0
C171 C 0.44361 0.69129 0.9775 0.0
C172 C 0.39107 0.67628 0.98171 0.0
C173 C 0.38154 0.62959 0.98331 0.0
C174 C 0.42229 0.59811 0.978 0.0
C175 C 0.34537 0.70906 0.98158 0.0
C176 C 0.31717 0.71505 0.00673 0.0
C177 C 0.33227 0.73676 0.95743 0.0
C178 C 0.35829 0.73075 0.92939 0.0
C179 C 0.3555 0.68806 0.91111 0.0
C180 C 0.38162 0.68235 0.8853 0.0
C181 C 0.41035 0.71915 0.87742 0.0
C182 C 0.41289 0.76179 0.89528 0.0
C183 C 0.38691 0.76769 0.92112 0.0
H184 H 0.43061 0.71463 0.85747 0.0
H185 H 0.19129 0.77385 0.11292 0.0
H186 H 0.9214 0.85253 0.96425 0.0
H187 H 0.86661 0.79693 0.98345 0.0
H188 H 0.89312 0.87801 0.07309 0.0
H189 H 0.94528 0.93601 0.05289 0.0
H190 H 0.87734 0.7435 0.02701 0.0
H191 H 0.80764 0.88686 0.09422 0.0
H192 H 0.7826 0.96777 0.09512 0.0
H193 H 0.6946 0.9402 0.0014 0.0
H194 H 0.72072 0.85951 -0.00024 0.0
H195 H 0.67514 0.61198 0.07826 0.0
H196 H 0.75177 0.66266 0.07294 0.0
H197 H 0.6346 0.74701 0.02239 0.0
H198 H 0.55802 0.6985 0.03102 0.0
H199 H 0.70139 0.80059 0.05523 0.0
H200 H 0.73305 0.66698 0.9892 0.0
H201 H 0.74749 0.58547 0.97388 0.0
H202 H 0.89382 0.59085 0.0442 0.0
H203 H 0.87982 0.67225 0.06018 0.0
C204 C 0.91746 0.8577 0.98845 0.0
C205 C 0.93786 0.89842 0.00712 0.0
C206 C 0.88541 0.82611 -0.00068 0.0
C207 C 0.8737 0.83402 0.02938 0.0
C208 C 0.89941 0.87215 0.04936 0.0
C209 C 0.93086 0.90454 0.03818 0.0
C210 C 0.83207 0.80322 0.03828 0.0
C211 C 0.8393 0.75595 0.03385 0.0
C212 C 0.78127 0.81913 0.04578 0.0
C213 C 0.76728 0.86772 0.04663 0.0
C214 C 0.78369 0.89834 0.07371 0.0
C215 C 0.7693 0.94409 0.07434 0.0
C216 C 0.73735 0.9592 0.04826 0.0
C217 C 0.71978 0.92858 0.02148 0.0
C218 C 0.7347 0.88296 0.02062 0.0
C219 C 0.66631 0.64081 0.06539 0.0
C220 C 0.61126 0.65086 0.05413 0.0
C221 C 0.71004 0.66986 0.06228 0.0
C222 C 0.69973 0.70854 0.0466 0.0
C223 C 0.64425 0.71766 0.03462 0.0
C224 C 0.60044 0.68961 0.03899 0.0
C225 C 0.74625 0.7403 0.0437 0.0
C226 C 0.73978 0.78772 0.04912 0.0
C227 C 0.79676 0.72442 0.03554 0.0
C228 C 0.80505 0.67549 0.0261 0.0
C229 C 0.76806 0.65065 0.00153 0.0
C230 C 0.7762 0.60451 0.99271 0.0
C231 C 0.82145 0.58296 0.00812 0.0
C232 C 0.85873 0.60755 0.03233 0.0
C233 C 0.85074 0.65368 0.04127 0.0
H234 H 0.82769 0.54724 0.00124 0.0
H235 H 0.72597 0.99455 0.04885 0.0
H236 H 0.00433 0.16515 0.00773 0.0
H237 H 0.95429 0.23701 0.00429 0.0
H238 H 0.7995 0.1631 0.00032 0.0
H239 H 0.84851 0.09255 0.00452 0.0
H240 H 0.80726 0.21494 0.94847 0.0
H241 H 0.84058 0.22605 0.06106 0.0
H242 H 0.9023 0.23107 0.11196 0.0
H243 H 0.9795 0.35449 0.09443 0.0
H244 H 0.91883 0.34966 0.04313 0.0
H245 H 0.58636 0.35976 0.94931 0.0
H246 H 0.65443 0.30323 0.96551 0.0
H247 H 0.78404 0.40889 0.98689 0.0
H248 H 0.7154 0.46558 0.97142 0.0
H249 H 0.80174 0.34784 0.028 0.0
H250 H 0.76334 0.34242 0.91814 0.0
H251 H 0.70485 0.33769 0.8663 0.0
H252 H 0.64246 0.20462 0.87628 0.0
H253 H 0.69977 0.20892 0.92845 0.0
C254 C 0.95997 0.16474 0.00729 0.0
C255 C 0.93029 0.12327 0.0063 0.0
C256 C 0.9314 0.20558 0.00498 0.0
C257 C 0.87313 0.20501 0.00158 0.0
C258 C 0.84432 0.16414 0.00259 0.0
C259 C 0.87254 0.1239 0.00517 0.0
C260 C 0.84054 0.24564 0.99486 0.0
C261 C 0.80592 0.24401 0.96584 0.0
C262 C 0.84006 0.28396 0.01722 0.0
C263 C 0.87574 0.2872 0.04817 0.0
C264 C 0.87109 0.25401 0.06795 0.0
C265 C 0.9058 0.25685 0.09688 0.0
C266 C 0.94493 0.293 0.10639 0.0
C267 C 0.94926 0.32646 0.08701 0.0
C268 C 0.91474 0.32369 0.05801 0.0
C269 C 0.62913 0.37089 0.95829 0.0
C270 C 0.64594 0.41672 0.95943 0.0
C271 C 0.66806 0.33868 0.96726 0.0
C272 C 0.72458 0.3517 0.97683 0.0
C273 C 0.74078 0.39805 0.97953 0.0
C274 C 0.70169 0.43035 0.97078 0.0
C275 C 0.76687 0.31645 0.98187 0.0
C276 C 0.80346 0.31915 0.01042 0.0
C277 C 0.76962 0.27912 0.95889 0.0
C278 C 0.73556 0.27616 0.92733 0.0
C279 C 0.73687 0.31228 0.90937 0.0
C280 C 0.70393 0.30967 0.87992 0.0
C281 C 0.66989 0.27091 0.86802 0.0
C282 C 0.66881 0.23464 0.88553 0.0
C283 C 0.70153 0.23714 0.91505 0.0
H284 H 0.64442 0.26895 0.84521 0.0
H285 H 0.97179 0.29515 0.1288 0.0
H286 H 0.70801 0.60644 0.47396 0.0
H287 H 0.74727 0.68185 0.47045 0.0
H288 H 0.65034 0.74243 0.53618 0.0
H289 H 0.61043 0.66692 0.53923 0.0
H290 H 0.66928 0.80296 0.49736 0.0
H291 H 0.77572 0.70519 0.56131 0.0
H292 H 0.82325 0.63528 0.5746 0.0
H293 H 0.93052 0.65082 0.50923 0.0
H294 H 0.88285 0.72043 0.49512 0.0
H295 H 0.85127 0.98227 0.57985 0.0
H296 H 0.78981 0.91558 0.56112 0.0
H297 H 0.90072 0.86491 0.50015 0.0
H298 H 0.96438 0.9311 0.52022 0.0
H299 H 0.87336 0.79996 0.53151 0.0
H300 H 0.76718 0.90773 0.47361 0.0
H301 H 0.7205 0.98049 0.46782 0.0
H302 H 0.6135 0.94902 0.53017 0.0
H303 H 0.66003 0.87638 0.53667 0.0
C304 C 0.69231 0.63622 0.48603 0.0
C305 C 0.65542 0.63094 0.50643 0.0
C306 C 0.71563 0.67927 0.48452 0.0
C307 C 0.70295 0.7177 0.50371 0.0
C308 C 0.66099 0.71331 0.52124 0.0
C309 C 0.63745 0.67017 0.52261 0.0
C310 C 0.73855 0.76035 0.50882 0.0
C311 C 0.71389 0.80233 0.50481 0.0
C312 C 0.79688 0.75974 0.51869 0.0
C313 C 0.82517 0.7176 0.52681 0.0
C314 C 0.80901 0.6934 0.5495 0.0
C315 C 0.83605 0.65389 0.55723 0.0
C316 C 0.87974 0.63852 0.54268 0.0
C317 C 0.89653 0.66268 0.5204 0.0
C318 C 0.86949 0.70214 0.51251 0.0
C319 C 0.86255 0.95712 0.56228 0.0
C320 C 0.91313 0.96178 0.5518 0.0
C321 C 0.82689 0.91913 0.55128 0.0
C322 C 0.84006 0.88523 0.52889 0.0
C323 C 0.88948 0.89066 0.51736 0.0
C324 C 0.92563 0.92869 0.52862 0.0
C325 C 0.80434 0.84269 0.5195 0.0
C326 C 0.82897 0.80062 0.5232 0.0
C327 C 0.74591 0.84346 0.51008 0.0
C328 C 0.71719 0.88668 0.50567 0.0
C329 C 0.73381 0.91641 0.48616 0.0
C330 C 0.70739 0.95764 0.48276 0.0
C331 C 0.66408 0.96938 0.49863 0.0
C332 C 0.64701 0.93987 0.51788 0.0
C333 C 0.67332 0.89863 0.52138 0.0
H334 H 0.64371 0.00133 0.49599 0.0
H335 H 0.90071 0.60797 0.54875 0.0
H336 H 0.65917 0.37796 0.55013 0.0
H337 H 0.7113 0.30818 0.54306 0.0
H338 H 0.74149 0.34408 0.45551 0.0
H339 H 0.68825 0.41319 0.46239 0.0
H340 H 0.72491 0.25463 0.45154 0.0
H341 H 0.83614 0.36993 0.52432 0.0
H342 H 0.85849 0.42441 0.57203 0.0
H343 H 0.85138 0.31489 0.62711 0.0
H344 H 0.82817 0.25984 0.57966 0.0
H345 H 0.97492 0.16305 0.4282 0.0
H346 H 0.90687 0.21704 0.44337 0.0
H347 H 0.88519 0.14003 0.51762 0.0
H348 H 0.95367 0.08556 0.5021 0.0
H349 H 0.88954 0.23997 0.53288 0.0
H350 H 0.79025 0.12333 0.45851 0.0
H351 H 0.77425 0.07044 0.40994 0.0
H352 H 0.7633 0.18404 0.35722 0.0
H353 H 0.78008 0.23765 0.40551 0.0
C354 C 0.67552 0.36997 0.52897 0.0
C355 C 0.66913 0.40021 0.50652 0.0
C356 C 0.70583 0.33049 0.52509 0.0
C357 C 0.73118 0.32117 0.49898 0.0
C358 C 0.72234 0.35042 0.47583 0.0
C359 C 0.69176 0.38974 0.47965 0.0
C360 C 0.76965 0.28279 0.49646 0.0
C361 C 0.76087 0.25155 0.46935 0.0
C362 C 0.81605 0.27785 0.51998 0.0
C363 C 0.82971 0.3109 0.54847 0.0
C364 C 0.83885 0.35755 0.54661 0.0
C365 C 0.85175 0.38851 0.57359 0.0
C366 C 0.85617 0.37315 0.60258 0.0
C367 C 0.8478 0.32676 0.60464 0.0
C368 C 0.83476 0.29567 0.57771 0.0
C369 C 0.95627 0.15825 0.4481 0.0
C370 C 0.96956 0.12063 0.46404 0.0
C371 C 0.91731 0.18883 0.45665 0.0
C372 C 0.89048 0.18221 0.48135 0.0
C373 C 0.90543 0.14566 0.49844 0.0
C374 C 0.94462 0.11472 0.48969 0.0
C375 C 0.84516 0.21272 0.48779 0.0
C376 C 0.85278 0.24249 0.51549 0.0
C377 C 0.79785 0.21653 0.46478 0.0
C378 C 0.78664 0.18449 0.43564 0.0
C379 C 0.78471 0.13703 0.43656 0.0
C380 C 0.77549 0.10692 0.40908 0.0
C381 C 0.76782 0.12386 0.38051 0.0
C382 C 0.76922 0.17097 0.37937 0.0
C383 C 0.77849 0.20124 0.40679 0.0
H384 H 0.76073 0.10049 0.35926 0.0
H385 H 0.86623 0.39716 0.62345 0.0
H386 H 0.46866 0.3499 0.48637 0.0
H387 H 0.41461 0.28894 0.50154 0.0
H388 H 0.34576 0.38821 0.56279 0.0
H389 H 0.40117 0.44878 0.54825 0.0
H390 H 0.34587 0.30924 0.58403 0.0
H391 H 0.2868 0.36183 0.48585 0.0
H392 H 0.2942 0.37902 0.43351 0.0
H393 H 0.31543 0.23704 0.40499 0.0
H394 H 0.30917 0.21911 0.4574 0.0
H395 H 0.07961 0.21637 0.57713 0.0
H396 H 0.15436 0.26559 0.56759 0.0
H397 H 0.21533 0.15121 0.51445 0.0
H398 H 0.139 0.10211 0.52337 0.0
H399 H 0.22422 0.23182 0.48948 0.0
H400 H 0.27162 0.18235 0.59097 0.0
H401 H 0.2541 0.17197 0.64298 0.0
H402 H 0.24378 0.31702 0.66472 0.0
H403 H 0.26036 0.32822 0.61267 0.0
C404 C 0.44501 0.35819 0.5047 0.0
C405 C 0.43958 0.40396 0.51642 0.0
C406 C 0.41301 0.32346 0.51282 0.0
C407 C 0.37446 0.33417 0.53242 0.0
C408 C 0.37469 0.37903 0.54735 0.0
C409 C 0.40715 0.41367 0.53943 0.0
C410 C 0.32931 0.30065 0.53418 0.0
C411 C 0.31931 0.2924 0.56334 0.0
C412 C 0.29428 0.27856 0.50718 0.0
C413 C 0.29835 0.28922 0.47568 0.0
C414 C 0.29359 0.33433 0.46851 0.0
C415 C 0.29751 0.3442 0.43882 0.0
C416 C 0.30549 0.30916 0.41597 0.0
C417 C 0.30944 0.26416 0.42275 0.0
C418 C 0.30576 0.25413 0.45246 0.0
C419 C 0.10822 0.20221 0.56273 0.0
C420 C 0.10363 0.15588 0.55095 0.0
C421 C 0.15121 0.23009 0.55757 0.0
C422 C 0.19141 0.21183 0.54105 0.0
C423 C 0.18506 0.16592 0.52753 0.0
C424 C 0.14139 0.13796 0.53248 0.0
C425 C 0.24107 0.24037 0.53928 0.0
C426 C 0.25158 0.24794 0.51012 0.0
C427 C 0.27565 0.26275 0.56627 0.0
C428 C 0.26697 0.25608 0.59785 0.0
C429 C 0.2654 0.21201 0.6068 0.0
C430 C 0.2556 0.20599 0.63628 0.0
C431 C 0.24775 0.2438 0.65713 0.0
C432 C 0.24985 0.28775 0.64856 0.0
C433 C 0.25951 0.29396 0.61908 0.0
H434 H 0.24012 0.23906 0.67993 0.0
H435 H 0.30843 0.31686 0.39298 0.0
H436 H 0.4952 0.66149 0.52385 0.0
H437 H 0.4499 0.73592 0.52382 0.0
H438 H 0.2996 0.66901 0.47065 0.0
H439 H 0.34249 0.59619 0.47107 0.0
H440 H 0.34075 0.74499 0.44511 0.0
H441 H 0.29877 0.69752 0.54051 0.0
H442 H 0.32484 0.67677 0.59341 0.0
H443 H 0.40886 0.80745 0.62348 0.0
H444 H 0.38399 0.82866 0.57055 0.0
H445 H 0.10014 0.8634 0.43286 0.0
H446 H 0.16825 0.80757 0.44936 0.0
H447 H 0.27128 0.91468 0.50833 0.0
H448 H 0.20206 0.97086 0.49218 0.0
H449 H 0.27464 0.83191 0.5341 0.0
H450 H 0.29734 0.88315 0.43812 0.0
H451 H 0.26552 0.90114 0.38495 0.0
H452 H 0.21547 0.76057 0.35483 0.0
H453 H 0.24588 0.74186 0.40796 0.0
C454 C 0.45235 0.66276 0.51252 0.0
C455 C 0.42293 0.62265 0.49729 0.0
C456 C 0.42663 0.70521 0.51244 0.0
C457 C 0.37158 0.70785 0.4969 0.0
C458 C 0.34221 0.66783 0.48249 0.0
C459 C 0.36718 0.62598 0.48286 0.0
C460 C 0.34317 0.75162 0.49433 0.0
C461 C 0.3267 0.76431 0.46459 0.0
C462 C 0.32554 0.77709 0.5198 0.0
C463 C 0.34034 0.76438 0.55152 0.0
C464 C 0.32337 0.72161 0.55832 0.0
C465 C 0.33779 0.70981 0.58832 0.0
C466 C 0.36871 0.7407 0.61176 0.0
C467 C 0.38508 0.78351 0.60527 0.0
C468 C 0.37085 0.79543 0.57529 0.0
C469 C 0.13668 0.87484 0.44992 0.0
C470 C 0.14614 0.92137 0.46112 0.0
C471 C 0.1757 0.84301 0.45922 0.0
C472 C 0.22553 0.85714 0.47946 0.0
C473 C 0.23331 0.90312 0.49251 0.0
C474 C 0.19376 0.9351 0.48338 0.0
C475 C 0.27065 0.82425 0.48465 0.0
C476 C 0.29009 0.81363 0.51474 0.0
C477 C 0.29078 0.80024 0.45936 0.0
C478 C 0.27369 0.81117 0.42714 0.0
C479 C 0.2793 0.8561 0.42021 0.0
C480 C 0.26148 0.86643 0.39007 0.0
C481 C 0.23845 0.83203 0.36654 0.0
C482 C 0.23333 0.78719 0.37309 0.0
C483 C 0.25089 0.7767 0.40322 0.0
H484 H 0.22465 0.84012 0.34322 0.0
H485 H 0.37981 0.73152 0.63498 0.0
H486 H 0.99093 0.01599 0.0989 0.0
H487 H 0.97408 0.00635 0.1512 0.0
H488 H 0.14673 0.9777 0.17904 0.0
H489 H 0.16359 0.98703 0.12775 0.0
H490 H 0.08192 0.92023 0.20047 0.0
H491 H 0.1013 0.08186 0.19668 0.0
H492 H 0.07778 0.1552 0.17709 0.0
H493 H 0.91431 0.1435 0.19863 0.0
H494 H 0.93667 0.06964 0.21792 0.0
H495 H 0.15427 0.97284 0.36269 0.0
H496 H 0.14522 0.97243 0.30672 0.0
H497 H 0.97047 -0.00305 0.29968 0.0
H498 H 0.97908 -0.00291 0.35569 0.0
H499 H 0.02089 0.05156 0.26588 0.0
H500 H 0.01236 0.8916 0.27715 0.0
H501 H 0.04589 0.82289 0.30028 0.0
H502 H 0.19918 0.83552 0.26705 0.0
H503 H 0.16684 0.90467 0.24407 0.0
C504 C 0.02495 0.00718 0.11617 0.0
C505 C 0.07867 0.00283 0.10928 0.0
C506 C 0.0154 0.00186 0.14601 0.0
C507 C 0.05931 0.99157 0.16909 0.0
C508 C 0.11221 0.98556 0.1617 0.0
C509 C 0.12181 0.99126 0.1323 0.0
C510 C 0.05202 0.9886 0.20146 0.0
C511 C 0.06839 0.94892 0.21473 0.0
C512 C 0.03401 0.02583 0.22008 0.0
C513 C 0.02031 0.06991 0.20823 0.0
C514 C 0.06012 0.09467 0.19689 0.0
C515 C 0.04706 0.13638 0.18592 0.0
C516 C 0.99449 0.1539 0.18647 0.0
C517 C 0.95494 0.1298 0.1981 0.0
C518 C 0.96777 0.088 0.20904 0.0
C519 C 0.11377 0.97763 0.34921 0.0
C520 C 0.06738 0.9849 0.36368 0.0
C521 C 0.10867 0.97751 0.31722 0.0
C522 C 0.05701 0.98421 0.29896 0.0
C523 C 0.01071 0.99177 0.31332 0.0
C524 C 0.01577 0.99193 0.34534 0.0
C525 C 0.05161 0.98348 0.26491 0.0
C526 C 0.03303 0.02246 0.25141 0.0
C527 C 0.06852 0.9459 0.24617 0.0
C528 C 0.08724 0.9034 0.259 0.0
C529 C 0.05326 0.87977 0.27484 0.0
C530 C 0.07207 0.84076 0.28793 0.0
C531 C 0.12465 0.82487 0.28516 0.0
C532 C 0.15844 0.84784 0.26915 0.0
C533 C 0.13985 0.88689 0.25604 0.0
H534 H 0.13922 0.79476 0.29541 0.0
H535 H 0.98446 0.18623 0.178 0.0
H536 H 0.95218 0.02966 0.8858 0.0
H537 H 0.96714 0.04157 0.83474 0.0
H538 H 0.14357 0.03041 0.86354 0.0
H539 H 0.1288 0.01813 0.91603 0.0
H540 H 0.09388 0.10707 0.8211 0.0
H541 H 0.09721 0.94385 0.826 0.0
H542 H 0.06339 0.87174 0.8404 0.0
H543 H 0.90236 0.88817 0.78663 0.0
H544 H 0.93497 0.96071 0.77234 0.0
H545 H 0.09928 0.06245 0.6556 0.0
H546 H 0.118 0.06647 0.71208 0.0
H547 H 0.94387 0.04148 0.71142 0.0
H548 H 0.92438 0.03889 0.65509 0.0
H549 H 0.01219 0.98016 0.74107 0.0
H550 H 0.99731 0.14109 0.74054 0.0
H551 H 0.01835 0.21767 0.72772 0.0
H552 H 0.18749 0.21065 0.77346 0.0
H553 H 0.16761 0.13365 0.78616 0.0
C554 C 0.99446 0.02982 0.8816 0.0
C555 C 0.03931 0.02189 0.90484 0.0
C556 C 1.00283 0.03699 0.85235 0.0
C557 C 0.05621 0.03631 0.84532 0.0
C558 C 0.10195 0.03092 0.86869 0.0
C559 C 0.09354 0.02383 0.8985 0.0
C560 C 0.06142 0.03769 0.81264 0.0
C561 C 0.07791 0.07888 0.80351 0.0
C562 C 0.03806 0.00157 0.78982 0.0
C563 C 0.01853 0.95776 0.7982 0.0
C564 C 0.0545 0.93222 0.81743 0.0
C565 C 0.03555 0.89125 0.82555 0.0
C566 C 0.98076 0.8754 0.81445 0.0
C567 C 0.9448 0.90046 0.79519 0.0
C568 C 0.96352 0.94146 0.78704 0.0
C569 C 0.0647 0.05899 0.66749 0.0
C570 C 0.01033 0.04985 0.65075 0.0
C571 C 0.07558 0.06118 0.69978 0.0
C572 C 0.03238 0.05403 0.71584 0.0
C573 C 0.97784 0.04677 0.69936 0.0
C574 C 0.96684 0.04498 0.66717 0.0
C575 C 0.04432 0.04965 0.74935 0.0
C576 C 0.03026 0.0079 0.75853 0.0
C577 C 0.06889 0.08555 0.77204 0.0
C578 C 0.08123 0.13133 0.76386 0.0
C579 C 0.03919 0.1556 0.74748 0.0
C580 C 0.05084 0.19915 0.74034 0.0
C581 C 0.10428 0.21893 0.74965 0.0
C582 C 0.14615 0.19522 0.76617 0.0
C583 C 0.13473 0.15163 0.77335 0.0
H584 H 0.11321 0.2527 0.74415 0.0
H585 H 0.96618 0.84366 0.82075 0.0
H586 H 0.51078 0.45983 0.59581 0.0
H587 H 0.50049 0.44858 0.6488 0.0
H588 H 0.60643 0.56812 0.6848 0.0
H589 H 0.61779 0.5786 0.63248 0.0
H590 H 0.64225 0.4995 0.7141 0.0
H591 H 0.46459 0.56547 0.68513 0.0
H592 H 0.37284 0.57061 0.65234 0.0
H593 H 0.32586 0.43672 0.66975 0.0
H594 H 0.41768 0.43061 0.70236 0.0
H595 H 0.59601 0.55344 0.86849 0.0
H596 H 0.59053 0.55514 0.81264 0.0
H597 H 0.52875 0.41515 0.79487 0.0
H598 H 0.53576 0.41292 0.85089 0.0
H599 H 0.46841 0.48426 0.75561 0.0
H600 H 0.64614 0.42193 0.78782 0.0
H601 H 0.738 0.41913 0.82091 0.0
H602 H 0.78509 0.5492 0.79716 0.0
H603 H 0.69299 0.5532 0.76443 0.0
C604 C 0.53065 0.48421 0.61505 0.0
C605 C 0.56528 0.51993 0.61012 0.0
C606 C 0.52497 0.47771 0.64531 0.0
C607 C 0.55312 0.50732 0.67088 0.0
C608 C 0.58492 0.54447 0.66558 0.0
C609 C 0.59109 0.55059 0.63562 0.0
C610 C 0.55283 0.49873 0.70335 0.0
C611 C 0.60412 0.49656 0.72313 0.0
C612 C 0.5033 0.49355 0.71511 0.0
C613 C 0.44806 0.4974 0.69587 0.0
C614 C 0.43478 0.53702 0.68178 0.0
C615 C 0.38278 0.54013 0.66327 0.0
C616 C 0.34359 0.50396 0.6589 0.0
C617 C 0.35628 0.46468 0.67313 0.0
C618 C 0.40826 0.46139 0.69164 0.0
C619 C 0.58116 0.52313 0.8526 0.0
C620 C 0.56638 0.48304 0.86382 0.0
C621 C 0.57803 0.52412 0.82082 0.0
C622 C 0.55907 0.4853 0.79973 0.0
C623 C 0.54325 0.44545 0.81083 0.0
C624 C 0.54756 0.44414 0.84271 0.0
C625 C 0.55771 0.48629 0.76619 0.0
C626 C 0.50633 0.48687 0.74633 0.0
C627 C 0.60715 0.49036 0.75431 0.0
C628 C 0.66248 0.4881 0.77398 0.0
C629 C 0.67585 0.45018 0.78995 0.0
C630 C 0.728 0.44833 0.80858 0.0
C631 C 0.76731 0.48402 0.8112 0.0
C632 C 0.75456 0.52161 0.79516 0.0
C633 C 0.70239 0.5237 0.77657 0.0
H634 H 0.80772 0.4825 0.8256 0.0
H635 H 0.30334 0.50642 0.64454 0.0
H636 H 0.4839 0.44991 0.37839 0.0
H637 H 0.49619 0.46584 0.32762 0.0
H638 H 0.61337 0.5761 0.36906 0.0
H639 H 0.59949 0.56122 0.42094 0.0
H640 H 0.53317 0.60065 0.32145 0.0
H641 H 0.65845 0.47702 0.3334 0.0
H642 H 0.68423 0.40081 0.3475 0.0
H643 H 0.55017 0.33874 0.27815 0.0
H644 H 0.52312 0.41452 0.26392 0.0
H645 H 0.53468 0.61672 0.1601 0.0
H646 H 0.56113 0.61538 0.21563 0.0
H647 H 0.48264 0.48131 0.20635 0.0
H648 H 0.46375 0.47928 0.151 0.0
H649 H 0.57078 0.47826 0.24147 0.0
H650 H 0.43014 0.59431 0.23779 0.0
H651 H 0.39073 0.66765 0.22511 0.0
H652 H 0.53685 0.73986 0.27814 0.0
H653 H 0.57731 0.66688 0.29086 0.0
C654 C 0.51303 0.47722 0.37697 0.0
C655 C 0.54069 0.50435 0.40382 0.0
C656 C 0.52021 0.48615 0.34777 0.0
C657 C 0.55623 0.52178 0.34445 0.0
C658 C 0.58555 0.54825 0.37114 0.0
C659 C 0.57807 0.53943 0.40072 0.0
C660 C 0.55995 0.53191 0.31275 0.0
C661 C 0.54256 0.57429 0.30398 0.0
C662 C 0.5711 0.49724 0.28988 0.0
C663 C 0.58888 0.4515 0.29757 0.0
C664 C 0.63451 0.44711 0.32115 0.0
C665 C 0.64928 0.40398 0.3292 0.0
C666 C 0.61888 0.36497 0.31372 0.0
C667 C 0.57377 0.36897 0.29007 0.0
C668 C 0.55881 0.41199 0.28195 0.0
C669 C 0.5238 0.58647 0.16963 0.0
C670 C 0.49696 0.54803 0.15031 0.0
C671 C 0.53808 0.58623 0.20175 0.0
C672 C 0.52365 0.54839 0.21557 0.0
C673 C 0.49484 0.51094 0.1965 0.0
C674 C 0.48274 0.51033 0.16447 0.0
C675 C 0.53992 0.54592 0.24951 0.0
C676 C 0.56205 0.50508 0.25881 0.0
C677 C 0.53135 0.58149 0.27261 0.0
C678 C 0.50699 0.62519 0.26492 0.0
C679 C 0.45397 0.62584 0.24655 0.0
C680 C 0.43144 0.66732 0.23939 0.0
C681 C 0.46135 0.70837 0.25071 0.0
C682 C 0.51379 0.70804 0.26931 0.0
C683 C 0.53652 0.66665 0.27651 0.0
H684 H 0.44384 0.74045 0.24515 0.0
H685 H 0.63028 0.33163 0.32006 0.0
loop_
_geom_bond_atom_site_label_1
_geom_bond_atom_site_label_2
_geom_bond_distance
_geom_bond_site_symmetry_2
_ccdc_geom_bond_type
O0 Mn1 2.163 . S
O0 C14 1.244 1_454 S
Mn1 O0 2.163 . S
Mn1 O4 2.160 1_545 S
Mn1 O5 2.221 . S
Mn1 O7 2.163 . S
Mn1 O9 2.160 1_554 S
Mn1 O19 2.221 1_444 S
O2 Mn3 2.087 1_545 S
O2 C14 1.256 . S
Mn3 O2 2.087 1_565 S
Mn3 O10 2.089 1_565 S
Mn3 O19 2.290 . S
Mn3 O20 2.251 . S
O4 Mn1 2.160 1_565 S
O4 C15 1.239 . S
O5 Mn1 2.221 . S
O5 Mn6 2.290 . S
O5 C16 1.278 . S
Mn6 O5 2.290 . S
Mn6 O8 2.089 1_545 S
Mn6 O11 2.251 . S
Mn6 O12 2.087 . S
O7 Mn1 2.163 . S
O7 C17 1.244 . S
O8 Mn6 2.089 1_565 S
O8 C15 1.256 . S
O9 Mn1 2.160 1_556 S
O9 C18 1.239 . S
O10 Mn3 2.089 1_545 S
O10 C18 1.256 1_655 S
O11 Mn6 2.251 . S
O11 C16 1.241 . S
O12 Mn6 2.087 . S
O12 C17 1.256 . S
C13 O19 1.263 1_554 S
C13 O20 1.237 1_554 S
C14 O0 1.244 1_656 S
C14 O2 1.256 . S
C15 O4 1.239 . S
C15 O8 1.256 . S
C16 O5 1.278 . S
C16 O11 1.241 . S
C17 O7 1.244 . S
C17 O12 1.256 . S
C18 O9 1.239 . S
C18 O10 1.256 1_455 S
O19 Mn1 2.221 1_666 S
O19 Mn3 2.290 . S
O19 C13 1.263 1_556 S
O20 Mn3 2.251 . S
O20 C13 1.237 1_556 S
O21 Mn22 2.163 . S
O21 C35 1.244 . S
Mn22 O21 2.163 . S
Mn22 O25 2.160 . S
Mn22 O26 2.221 . S
Mn22 O28 2.163 . S
Mn22 O30 2.160 . S
Mn22 O40 2.221 . S
O23 Mn24 2.087 . S
O23 C35 1.256 . S
Mn24 O23 2.087 . S
Mn24 O31 2.089 . S
Mn24 O40 2.290 . S
Mn24 O41 2.251 . S
O25 Mn22 2.160 . S
O25 C36 1.239 . S
O26 Mn22 2.221 . S
O26 Mn27 2.290 . S
O26 C37 1.278 . S
Mn27 O26 2.290 . S
Mn27 O29 2.089 . S
Mn27 O32 2.251 . S
Mn27 O33 2.087 . S
O28 Mn22 2.163 . S
O28 C38 1.244 . S
O29 Mn27 2.089 . S
O29 C36 1.256 . S
O30 Mn22 2.160 . S
O30 C39 1.239 . S
O31 Mn24 2.089 . S
O31 C39 1.256 . S
O32 Mn27 2.251 . S
O32 C37 1.241 . S
O33 Mn27 2.087 . S
O33 C38 1.256 . S
C34 O40 1.278 . S
C34 O41 1.241 . S
C35 O21 1.244 . S
C35 O23 1.256 . S
C36 O25 1.239 . S
C36 O29 1.256 . S
C37 O26 1.278 . S
C37 O32 1.241 . S
C38 O28 1.244 . S
C38 O33 1.256 . S
C39 O30 1.239 . S
C39 O31 1.256 . S
O40 Mn22 2.221 . S
O40 Mn24 2.290 . S
O40 C34 1.278 . S
O41 Mn24 2.251 . S
O41 C34 1.241 . S
H42 C47 0.929 . S
H43 C52 0.931 . S
H44 C50 0.930 . S
N45 N46 1.234 1_455 S
N45 C49 1.453 . S
N46 N45 1.234 1_655 S
C47 H42 0.929 . S
C47 C48 1.373 . S
C47 C49 1.368 1_565 S
C48 C47 1.373 . S
C48 C52 1.397 . S
C49 N45 1.453 . S
C49 C47 1.368 1_545 S
C49 C50 1.373 . S
C50 H44 0.930 . S
C50 C49 1.373 . S
C50 C51 1.371 1_545 S
C51 C50 1.371 1_565 S
C51 C52 1.383 . S
C52 H43 0.931 . S
C52 C48 1.397 . S
C52 C51 1.383 . S
H53 C58 0.929 . S
H54 C63 0.931 . S
H55 C61 0.930 . S
N56 N57 1.234 . S
N56 C60 1.453 . S
N57 N56 1.234 . S
C58 H53 0.929 . S
C58 C59 1.373 . S
C58 C60 1.368 1_655 S
C59 C58 1.373 . S
C59 C63 1.397 . S
C60 N56 1.453 . S
C60 C58 1.368 1_455 S
C60 C61 1.373 . S
C61 H55 0.930 . S
C61 C60 1.373 . S
C61 C62 1.371 1_455 S
C62 C61 1.371 1_655 S
C62 C63 1.383 . S
C63 H54 0.931 . S
C63 C59 1.397 . S
C63 C62 1.383 . S
H64 C69 0.929 . S
H65 C74 0.931 . S
H66 C72 0.930 . S
N67 N68 1.234 . S
N67 C71 1.453 . S
N68 N67 1.234 . S
C69 H64 0.929 . S
C69 C70 1.373 . S
C69 C71 1.368 . S
C70 C69 1.373 . S
C70 C74 1.397 . S
C71 N67 1.453 . S
C71 C69 1.368 . S
C71 C72 1.373 . S
C72 H66 0.930 . S
C72 C71 1.373 . S
C72 C73 1.371 . S
C73 C72 1.371 . S
C73 C74 1.383 . S
C74 H65 0.931 . S
C74 C70 1.397 . S
C74 C73 1.383 . S
H75 C80 0.929 . S
H76 C85 0.931 . S
H77 C83 0.930 . S
N78 N79 1.234 . S
N78 C82 1.453 . S
N79 N78 1.234 . S
C80 H75 0.929 . S
C80 C81 1.373 . S
C80 C82 1.368 . S
C81 C80 1.373 . S
C81 C85 1.397 . S
C82 N78 1.453 . S
C82 C80 1.368 . S
C82 C83 1.373 . S
C83 H77 0.930 . S
C83 C82 1.373 . S
C83 C84 1.371 . S
C84 C83 1.371 . S
C84 C85 1.383 . S
C85 H76 0.931 . S
C85 C81 1.397 . S
C85 C84 1.383 . S
H86 C104 0.951 . S
H87 C106 0.951 . S
H88 C108 0.950 . S
H89 C109 0.950 . S
H90 C111 0.950 . S
H91 C114 0.950 . S
H92 C115 0.950 . S
H93 C117 0.950 . S
H94 C118 0.950 . S
H95 C119 0.951 . S
H96 C121 0.951 . S
H97 C123 0.950 . S
H98 C124 0.950 . S
H99 C126 0.950 . S
H100 C129 0.950 . S
H101 C130 0.950 . S
H102 C132 0.950 . S
H103 C133 0.950 . S
C104 H86 0.951 . S
C104 C105 1.366 . S
C104 C106 1.388 . S
C105 C104 1.366 . S
C105 C109 1.385 . S
C106 H87 0.951 . S
C106 C104 1.388 . S
C106 C107 1.366 . S
C107 C106 1.366 . S
C107 C108 1.414 . S
C107 C110 1.499 . S
C108 H88 0.950 . S
C108 C107 1.414 . S
C108 C109 1.374 . S
C109 H89 0.950 . S
C109 C105 1.385 . S
C109 C108 1.374 . S
C110 C107 1.499 . S
C110 C111 1.373 . S
C110 C112 1.389 . S
C111 H90 0.950 . S
C111 C110 1.373 . S
C111 C127 1.377 . S
C112 C110 1.389 . S
C112 C113 1.524 . S
C112 C126 1.377 . S
C113 C112 1.524 . S
C113 C114 1.397 1_554 S
C113 C118 1.363 . S
C114 H91 0.950 . S
C114 C113 1.397 1_556 S
C114 C115 1.334 . S
C115 H92 0.950 . S
C115 C114 1.334 . S
C115 C116 1.287 . S
C116 C115 1.287 . S
C116 C117 1.524 . S
C116 H135 0.913 . S
C117 H93 0.950 . S
C117 C116 1.524 . S
C117 C118 1.415 1_556 S
C118 H94 0.950 . S
C118 C113 1.363 . S
C118 C117 1.415 1_554 S
C119 H95 0.951 . S
C119 C120 1.366 . S
C119 C121 1.388 . S
C120 C119 1.366 . S
C120 C124 1.385 . S
C121 H96 0.951 . S
C121 C119 1.388 . S
C121 C122 1.366 . S
C122 C121 1.366 . S
C122 C123 1.414 . S
C122 C125 1.499 . S
C123 H97 0.950 . S
C123 C122 1.414 . S
C123 C124 1.374 . S
C124 H98 0.950 . S
C124 C120 1.385 . S
C124 C123 1.374 . S
C125 C122 1.499 . S
C125 C126 1.373 . S
C125 C127 1.389 . S
C126 H99 0.950 . S
C126 C112 1.377 . S
C126 C125 1.373 . S
C127 C111 1.377 . S
C127 C125 1.389 . S
C127 C128 1.524 . S
C128 C127 1.524 . S
C128 C129 1.397 . S
C128 C133 1.363 . S
C129 H100 0.950 . S
C129 C128 1.397 . S
C129 C130 1.334 . S
C130 H101 0.950 . S
C130 C129 1.334 . S
C130 C131 1.287 . S
C131 C130 1.287 . S
C131 C132 1.524 . S
C131 H134 0.999 . S
C132 H102 0.950 . S
C132 C131 1.524 . S
C132 C133 1.415 . S
C133 H103 0.950 . S
C133 C128 1.363 . S
C133 C132 1.415 . S
H134 C131 0.999 . S
H135 C116 0.913 . S
H136 C154 0.951 . S
H137 C156 0.951 . S
H138 C158 0.950 . S
H139 C159 0.950 . S
H140 C161 0.950 . S
H141 C164 0.950 . S
H142 C165 0.950 . S
H143 C167 0.950 . S
H144 C168 0.950 . S
H145 C169 0.951 . S
H146 C171 0.951 . S
H147 C173 0.950 . S
H148 C174 0.950 . S
H149 C176 0.950 . S
H150 C179 0.950 . S
H151 C180 0.950 . S
H152 C182 0.950 . S
H153 C183 0.950 . S
C154 H136 0.951 . S
C154 C155 1.366 . S
C154 C156 1.388 . S
C155 C154 1.366 . S
C155 C159 1.385 . S
C156 H137 0.951 . S
C156 C154 1.388 . S
C156 C157 1.366 . S
C157 C156 1.366 . S
C157 C158 1.414 . S
C157 C160 1.499 . S
C158 H138 0.950 . S
C158 C157 1.414 . S
C158 C159 1.374 . S
C159 H139 0.950 . S
C159 C155 1.385 . S
C159 C158 1.374 . S
C160 C157 1.499 . S
C160 C161 1.374 1_554 S
C160 C162 1.389 . S
C161 H140 0.950 . S
C161 C160 1.374 1_556 S
C161 C177 1.377 . S
C162 C160 1.389 . S
C162 C163 1.524 . S
C162 C176 1.377 . S
C163 C162 1.524 . S
C163 C164 1.397 . S
C163 C168 1.363 . S
C164 H141 0.950 . S
C164 C163 1.397 . S
C164 C165 1.334 . S
C165 H142 0.950 . S
C165 C164 1.334 . S
C165 C166 1.287 . S
C166 C165 1.287 . S
C166 C167 1.524 . S
C166 H185 0.913 . S
C167 H143 0.950 . S
C167 C166 1.524 . S
C167 C168 1.415 . S
C168 H144 0.950 . S
C168 C163 1.363 . S
C168 C167 1.415 . S
C169 H145 0.951 . S
C169 C170 1.366 . S
C169 C171 1.388 . S
C170 C169 1.366 . S
C170 C174 1.385 . S
C171 H146 0.951 . S
C171 C169 1.388 . S
C171 C172 1.366 . S
C172 C171 1.366 . S
C172 C173 1.414 . S
C172 C175 1.499 . S
C173 H147 0.950 . S
C173 C172 1.414 . S
C173 C174 1.374 . S
C174 H148 0.950 . S
C174 C170 1.385 . S
C174 C173 1.374 . S
C175 C172 1.499 . S
C175 C176 1.373 1_556 S
C175 C177 1.389 . S
C176 H149 0.950 . S
C176 C162 1.377 . S
C176 C175 1.373 1_554 S
C177 C161 1.377 . S
C177 C175 1.389 . S
C177 C178 1.524 . S
C178 C177 1.524 . S
C178 C179 1.397 . S
C178 C183 1.363 . S
C179 H150 0.950 . S
C179 C178 1.397 . S
C179 C180 1.334 . S
C180 H151 0.950 . S
C180 C179 1.334 . S
C180 C181 1.287 . S
C181 C180 1.287 . S
C181 C182 1.524 . S
C181 H184 0.999 . S
C182 H152 0.950 . S
C182 C181 1.524 . S
C182 C183 1.415 . S
C183 H153 0.950 . S
C183 C178 1.363 . S
C183 C182 1.415 . S
H184 C181 0.999 . S
H185 C166 0.913 . S
H186 C204 0.951 . S
H187 C206 0.949 1_556 S
H188 C208 0.950 . S
H189 C209 0.950 . S
H190 C211 0.950 . S
H191 C214 0.950 . S
H192 C215 0.950 . S
H193 C217 0.950 . S
H194 C218 0.954 . S
H195 C219 0.951 . S
H196 C221 0.951 . S
H197 C223 0.950 . S
H198 C224 0.950 . S
H199 C226 0.950 . S
H200 C229 0.950 1_556 S
H201 C230 0.950 . S
H202 C232 0.950 . S
H203 C233 0.950 . S
C204 H186 0.951 . S
C204 C205 1.366 1_556 S
C204 C206 1.386 1_556 S
C205 C204 1.366 1_554 S
C205 C209 1.385 . S
C206 H187 0.949 1_554 S
C206 C204 1.386 1_554 S
C206 C207 1.369 . S
C207 C206 1.369 . S
C207 C208 1.414 . S
C207 C210 1.499 . S
C208 H188 0.950 . S
C208 C207 1.414 . S
C208 C209 1.374 . S
C209 H189 0.950 . S
C209 C205 1.385 . S
C209 C208 1.374 . S
C210 C207 1.499 . S
C210 C211 1.373 . S
C210 C212 1.389 . S
C211 H190 0.950 . S
C211 C210 1.373 . S
C211 C227 1.377 . S
C212 C210 1.389 . S
C212 C213 1.524 . S
C212 C226 1.377 . S
C213 C212 1.524 . S
C213 C214 1.397 . S
C213 C218 1.363 . S
C214 H191 0.950 . S
C214 C213 1.397 . S
C214 C215 1.334 . S
C215 H192 0.950 . S
C215 C214 1.334 . S
C215 C216 1.287 . S
C216 C215 1.287 . S
C216 C217 1.524 . S
C216 H235 0.913 . S
C217 H193 0.950 . S
C217 C216 1.524 . S
C217 C218 1.415 . S
C218 H194 0.954 . S
C218 C213 1.363 . S
C218 C217 1.415 . S
C219 H195 0.951 . S
C219 C220 1.366 . S
C219 C221 1.388 . S
C220 C219 1.366 . S
C220 C224 1.385 . S
C221 H196 0.951 . S
C221 C219 1.388 . S
C221 C222 1.366 . S
C222 C221 1.366 . S
C222 C223 1.414 . S
C222 C225 1.499 . S
C223 H197 0.950 . S
C223 C222 1.414 . S
C223 C224 1.374 . S
C224 H198 0.950 . S
C224 C220 1.385 . S
C224 C223 1.374 . S
C225 C222 1.499 . S
C225 C226 1.373 . S
C225 C227 1.389 . S
C226 H199 0.950 . S
C226 C212 1.377 . S
C226 C225 1.373 . S
C227 C211 1.377 . S
C227 C225 1.389 . S
C227 C228 1.524 . S
C228 C227 1.524 . S
C228 C229 1.397 . S
C228 C233 1.363 . S
C229 H200 0.950 1_554 S
C229 C228 1.397 . S
C229 C230 1.334 1_554 S
C230 H201 0.950 . S
C230 C229 1.334 1_556 S
C230 C231 1.287 1_556 S
C231 C230 1.287 1_554 S
C231 C232 1.524 . S
C231 H234 0.999 . S
C232 H202 0.950 . S
C232 C231 1.524 . S
C232 C233 1.415 . S
C233 H203 0.950 . S
C233 C228 1.363 . S
C233 C232 1.415 . S
H234 C231 0.999 . S
H235 C216 0.913 . S
H236 C254 0.951 . S
H237 C256 0.952 1_554 S
H238 C258 0.950 . S
H239 C259 0.950 . S
H240 C261 0.950 . S
H241 C264 0.950 . S
H242 C265 0.950 . S
H243 C267 0.950 . S
H244 C268 0.950 . S
H245 C269 0.951 . S
H246 C271 0.951 . S
H247 C273 0.950 . S
H248 C274 0.950 . S
H249 C276 0.931 1_554 S
H250 C279 0.950 . S
H251 C280 0.950 . S
H252 C282 0.950 . S
H253 C283 0.950 . S
C254 H236 0.951 . S
C254 C255 1.366 1_554 S
C254 C256 1.388 1_554 S
C255 C254 1.366 1_556 S
C255 C259 1.385 . S
C256 H237 0.952 1_556 S
C256 C254 1.388 1_556 S
C256 C257 1.366 . S
C257 C256 1.366 . S
C257 C258 1.414 . S
C257 C260 1.499 . S
C258 H238 0.950 . S
C258 C257 1.414 . S
C258 C259 1.374 . S
C259 H239 0.950 . S
C259 C255 1.385 . S
C259 C258 1.374 . S
C260 C257 1.499 . S
C260 C261 1.373 . S
C260 C262 1.389 1_556 S
C261 H240 0.950 . S
C261 C260 1.373 . S
C261 C277 1.377 . S
C262 C260 1.389 1_554 S
C262 C263 1.524 . S
C262 C276 1.370 1_554 S
C263 C262 1.524 . S
C263 C264 1.397 . S
C263 C268 1.363 . S
C264 H241 0.950 . S
C264 C263 1.397 . S
C264 C265 1.334 . S
C265 H242 0.950 . S
C265 C264 1.334 . S
C265 C266 1.287 . S
C266 C265 1.287 . S
C266 C267 1.524 . S
C266 H285 0.913 . S
C267 H243 0.950 . S
C267 C266 1.524 . S
C267 C268 1.415 . S
C268 H244 0.950 . S
C268 C263 1.363 . S
C268 C267 1.415 . S
C269 H245 0.951 . S
C269 C270 1.366 . S
C269 C271 1.388 . S
C270 C269 1.366 . S
C270 C274 1.385 . S
C271 H246 0.951 . S
C271 C269 1.388 . S
C271 C272 1.366 . S
C272 C271 1.366 . S
C272 C273 1.414 . S
C272 C275 1.499 . S
C273 H247 0.950 . S
C273 C272 1.414 . S
C273 C274 1.374 . S
C274 H248 0.950 . S
C274 C270 1.385 . S
C274 C273 1.374 . S
C275 C272 1.499 . S
C275 C276 1.400 . S
C275 C277 1.389 . S
C276 H249 0.931 1_556 S
C276 C262 1.370 1_556 S
C276 C275 1.400 . S
C277 C261 1.377 . S
C277 C275 1.389 . S
C277 C278 1.524 . S
C278 C277 1.524 . S
C278 C279 1.397 . S
C278 C283 1.363 . S
C279 H250 0.950 . S
C279 C278 1.397 . S
C279 C280 1.334 . S
C280 H251 0.950 . S
C280 C279 1.334 . S
C280 C281 1.287 . S
C281 C280 1.287 . S
C281 C282 1.524 . S
C281 H284 0.999 . S
C282 H252 0.950 . S
C282 C281 1.524 . S
C282 C283 1.415 . S
C283 H253 0.950 . S
C283 C278 1.363 . S
C283 C282 1.415 . S
H284 C281 0.999 . S
H285 C266 0.913 . S
H286 C304 0.951 . S
H287 C306 0.951 . S
H288 C308 0.950 . S
H289 C309 0.950 . S
H290 C311 0.950 . S
H291 C314 0.950 . S
H292 C315 0.950 . S
H293 C317 0.950 . S
H294 C318 0.950 . S
H295 C319 0.951 . S
H296 C321 0.951 . S
H297 C323 0.950 . S
H298 C324 0.950 . S
H299 C326 0.950 . S
H300 C329 0.950 . S
H301 C330 0.950 . S
H302 C332 0.950 . S
H303 C333 0.950 . S
C304 H286 0.951 . S
C304 C305 1.366 . S
C304 C306 1.388 . S
C305 C304 1.366 . S
C305 C309 1.385 . S
C306 H287 0.951 . S
C306 C304 1.388 . S
C306 C307 1.366 . S
C307 C306 1.366 . S
C307 C308 1.414 . S
C307 C310 1.499 . S
C308 H288 0.950 . S
C308 C307 1.414 . S
C308 C309 1.374 . S
C309 H289 0.950 . S
C309 C305 1.385 . S
C309 C308 1.374 . S
C310 C307 1.499 . S
C310 C311 1.373 . S
C310 C312 1.389 . S
C311 H290 0.950 . S
C311 C310 1.373 . S
C311 C327 1.377 . S
C312 C310 1.389 . S
C312 C313 1.524 . S
C312 C326 1.377 . S
C313 C312 1.524 . S
C313 C314 1.397 . S
C313 C318 1.363 . S
C314 H291 0.950 . S
C314 C313 1.397 . S
C314 C315 1.334 . S
C315 H292 0.950 . S
C315 C314 1.334 . S
C315 C316 1.287 . S
C316 C315 1.287 . S
C316 C317 1.524 . S
C316 H335 0.913 . S
C317 H293 0.950 . S
C317 C316 1.524 . S
C317 C318 1.415 . S
C318 H294 0.950 . S
C318 C313 1.363 . S
C318 C317 1.415 . S
C319 H295 0.951 . S
C319 C320 1.366 . S
C319 C321 1.388 . S
C320 C319 1.366 . S
C320 C324 1.385 . S
C321 H296 0.951 . S
C321 C319 1.388 . S
C321 C322 1.366 . S
C322 C321 1.366 . S
C322 C323 1.414 . S
C322 C325 1.499 . S
C323 H297 0.950 . S
C323 C322 1.414 . S
C323 C324 1.374 . S
C324 H298 0.950 . S
C324 C320 1.385 . S
C324 C323 1.374 . S
C325 C322 1.499 . S
C325 C326 1.373 . S
C325 C327 1.389 . S
C326 H299 0.950 . S
C326 C312 1.377 . S
C326 C325 1.373 . S
C327 C311 1.377 . S
C327 C325 1.389 . S
C327 C328 1.524 . S
C328 C327 1.524 . S
C328 C329 1.397 . S
C328 C333 1.363 . S
C329 H300 0.950 . S
C329 C328 1.397 . S
C329 C330 1.334 . S
C330 H301 0.950 . S
C330 C329 1.334 . S
C330 C331 1.287 . S
C331 C330 1.287 . S
C331 C332 1.524 . S
C331 H334 0.999 . S
C332 H302 0.950 . S
C332 C331 1.524 . S
C332 C333 1.415 . S
C333 H303 0.950 . S
C333 C328 1.363 . S
C333 C332 1.415 . S
H334 C331 0.999 . S
H335 C316 0.913 . S
H336 C354 0.951 . S
H337 C356 0.951 . S
H338 C358 0.950 . S
H339 C359 0.950 . S
H340 C361 0.950 . S
H341 C364 0.950 . S
H342 C365 0.950 . S
H343 C367 0.950 . S
H344 C368 0.950 . S
H345 C369 0.951 . S
H346 C371 0.951 . S
H347 C373 0.950 . S
H348 C374 0.950 . S
H349 C376 0.950 . S
H350 C379 0.950 . S
H351 C380 0.950 . S
H352 C382 0.950 . S
H353 C383 0.950 . S
C354 H336 0.951 . S
C354 C355 1.366 . S
C354 C356 1.388 . S
C355 C354 1.366 . S
C355 C359 1.385 . S
C356 H337 0.951 . S
C356 C354 1.388 . S
C356 C357 1.366 . S
C357 C356 1.366 . S
C357 C358 1.414 . S
C357 C360 1.499 . S
C358 H338 0.950 . S
C358 C357 1.414 . S
C358 C359 1.374 . S
C359 H339 0.950 . S
C359 C355 1.385 . S
C359 C358 1.374 . S
C360 C357 1.499 . S
C360 C361 1.373 . S
C360 C362 1.389 . S
C361 H340 0.950 . S
C361 C360 1.373 . S
C361 C377 1.377 . S
C362 C360 1.389 . S
C362 C363 1.524 . S
C362 C376 1.377 . S
C363 C362 1.524 . S
C363 C364 1.397 . S
C363 C368 1.363 . S
C364 H341 0.950 . S
C364 C363 1.397 . S
C364 C365 1.334 . S
C365 H342 0.950 . S
C365 C364 1.334 . S
C365 C366 1.287 . S
C366 C365 1.287 . S
C366 C367 1.524 . S
C366 H385 0.913 . S
C367 H343 0.950 . S
C367 C366 1.524 . S
C367 C368 1.415 . S
C368 H344 0.950 . S
C368 C363 1.363 . S
C368 C367 1.415 . S
C369 H345 0.951 . S
C369 C370 1.366 . S
C369 C371 1.388 . S
C370 C369 1.366 . S
C370 C374 1.385 . S
C371 H346 0.951 . S
C371 C369 1.388 . S
C371 C372 1.366 . S
C372 C371 1.366 . S
C372 C373 1.414 . S
C372 C375 1.499 . S
C373 H347 0.950 . S
C373 C372 1.414 . S
C373 C374 1.374 . S
C374 H348 0.950 . S
C374 C370 1.385 . S
C374 C373 1.374 . S
C375 C372 1.499 . S
C375 C376 1.373 . S
C375 C377 1.389 . S
C376 H349 0.950 . S
C376 C362 1.377 . S
C376 C375 1.373 . S
C377 C361 1.377 . S
C377 C375 1.389 . S
C377 C378 1.524 . S
C378 C377 1.524 . S
C378 C379 1.397 . S
C378 C383 1.363 . S
C379 H350 0.950 . S
C379 C378 1.397 . S
C379 C380 1.334 . S
C380 H351 0.950 . S
C380 C379 1.334 . S
C380 C381 1.287 . S
C381 C380 1.287 . S
C381 C382 1.524 . S
C381 H384 0.999 . S
C382 H352 0.950 . S
C382 C381 1.524 . S
C382 C383 1.415 . S
C383 H353 0.950 . S
C383 C378 1.363 . S
C383 C382 1.415 . S
H384 C381 0.999 . S
H385 C366 0.913 . S
H386 C404 0.951 . S
H387 C406 0.951 . S
H388 C408 0.950 . S
H389 C409 0.950 . S
H390 C411 0.950 . S
H391 C414 0.950 . S
H392 C415 0.950 . S
H393 C417 0.950 . S
H394 C418 0.950 . S
H395 C419 0.951 . S
H396 C421 0.951 . S
H397 C423 0.950 . S
H398 C424 0.950 . S
H399 C426 0.950 . S
H400 C429 0.950 . S
H401 C430 0.950 . S
H402 C432 0.950 . S
H403 C433 0.950 . S
C404 H386 0.951 . S
C404 C405 1.366 . S
C404 C406 1.388 . S
C405 C404 1.366 . S
C405 C409 1.385 . S
C406 H387 0.951 . S
C406 C404 1.388 . S
C406 C407 1.366 . S
C407 C406 1.366 . S
C407 C408 1.414 . S
C407 C410 1.499 . S
C408 H388 0.950 . S
C408 C407 1.414 . S
C408 C409 1.374 . S
C409 H389 0.950 . S
C409 C405 1.385 . S
C409 C408 1.374 . S
C410 C407 1.499 . S
C410 C411 1.373 . S
C410 C412 1.389 . S
C411 H390 0.950 . S
C411 C410 1.373 . S
C411 C427 1.377 . S
C412 C410 1.389 . S
C412 C413 1.524 . S
C412 C426 1.377 . S
C413 C412 1.524 . S
C413 C414 1.397 . S
C413 C418 1.363 . S
C414 H391 0.950 . S
C414 C413 1.397 . S
C414 C415 1.334 . S
C415 H392 0.950 . S
C415 C414 1.334 . S
C415 C416 1.287 . S
C416 C415 1.287 . S
C416 C417 1.524 . S
C416 H435 0.913 . S
C417 H393 0.950 . S
C417 C416 1.524 . S
C417 C418 1.415 . S
C418 H394 0.950 . S
C418 C413 1.363 . S
C418 C417 1.415 . S
C419 H395 0.951 . S
C419 C420 1.366 . S
C419 C421 1.388 . S
C420 C419 1.366 . S
C420 C424 1.385 . S
C421 H396 0.951 . S
C421 C419 1.388 . S
C421 C422 1.366 . S
C422 C421 1.366 . S
C422 C423 1.414 . S
C422 C425 1.499 . S
C423 H397 0.950 . S
C423 C422 1.414 . S
C423 C424 1.374 . S
C424 H398 0.950 . S
C424 C420 1.385 . S
C424 C423 1.374 . S
C425 C422 1.499 . S
C425 C426 1.373 . S
C425 C427 1.389 . S
C426 H399 0.950 . S
C426 C412 1.377 . S
C426 C425 1.373 . S
C427 C411 1.377 . S
C427 C425 1.389 . S
C427 C428 1.524 . S
C428 C427 1.524 . S
C428 C429 1.397 . S
C428 C433 1.363 . S
C429 H400 0.950 . S
C429 C428 1.397 . S
C429 C430 1.334 . S
C430 H401 0.950 . S
C430 C429 1.334 . S
C430 C431 1.287 . S
C431 C430 1.287 . S
C431 C432 1.524 . S
C431 H434 0.999 . S
C432 H402 0.950 . S
C432 C431 1.524 . S
C432 C433 1.415 . S
C433 H403 0.950 . S
C433 C428 1.363 . S
C433 C432 1.415 . S
H434 C431 0.999 . S
H435 C416 0.913 . S
H436 C454 0.951 . S
H437 C456 0.951 . S
H438 C458 0.950 . S
H439 C459 0.950 . S
H440 C461 0.950 . S
H441 C464 0.950 . S
H442 C465 0.950 . S
H443 C467 0.950 . S
H444 C468 0.950 . S
H445 C469 0.951 . S
H446 C471 0.951 . S
H447 C473 0.950 . S
H448 C474 0.950 . S
H449 C476 0.950 . S
H450 C479 0.950 . S
H451 C480 0.950 . S
H452 C482 0.950 . S
H453 C483 0.950 . S
C454 H436 0.951 . S
C454 C455 1.366 . S
C454 C456 1.388 . S
C455 C454 1.366 . S
C455 C459 1.385 . S
C456 H437 0.951 . S
C456 C454 1.388 . S
C456 C457 1.366 . S
C457 C456 1.366 . S
C457 C458 1.414 . S
C457 C460 1.499 . S
C458 H438 0.950 . S
C458 C457 1.414 . S
C458 C459 1.374 . S
C459 H439 0.950 . S
C459 C455 1.385 . S
C459 C458 1.374 . S
C460 C457 1.499 . S
C460 C461 1.373 . S
C460 C462 1.389 . S
C461 H440 0.950 . S
C461 C460 1.373 . S
C461 C477 1.377 . S
C462 C460 1.389 . S
C462 C463 1.524 . S
C462 C476 1.377 . S
C463 C462 1.524 . S
C463 C464 1.397 . S
C463 C468 1.363 . S
C464 H441 0.950 . S
C464 C463 1.397 . S
C464 C465 1.334 . S
C465 H442 0.950 . S
C465 C464 1.334 . S
C465 C466 1.287 . S
C466 C465 1.287 . S
C466 C467 1.524 . S
C466 H485 0.913 . S
C467 H443 0.950 . S
C467 C466 1.524 . S
C467 C468 1.415 . S
C468 H444 0.950 . S
C468 C463 1.363 . S
C468 C467 1.415 . S
C469 H445 0.951 . S
C469 C470 1.366 . S
C469 C471 1.388 . S
C470 C469 1.366 . S
C470 C474 1.385 . S
C471 H446 0.951 . S
C471 C469 1.388 . S
C471 C472 1.366 . S
C472 C471 1.366 . S
C472 C473 1.414 . S
C472 C475 1.499 . S
C473 H447 0.950 . S
C473 C472 1.414 . S
C473 C474 1.374 . S
C474 H448 0.950 . S
C474 C470 1.385 . S
C474 C473 1.374 . S
C475 C472 1.499 . S
C475 C476 1.373 . S
C475 C477 1.389 . S
C476 H449 0.950 . S
C476 C462 1.377 . S
C476 C475 1.373 . S
C477 C461 1.377 . S
C477 C475 1.389 . S
C477 C478 1.524 . S
C478 C477 1.524 . S
C478 C479 1.397 . S
C478 C483 1.363 . S
C479 H450 0.950 . S
C479 C478 1.397 . S
C479 C480 1.334 . S
C480 H451 0.950 . S
C480 C479 1.334 . S
C480 C481 1.287 . S
C481 C480 1.287 . S
C481 C482 1.524 . S
C481 H484 0.999 . S
C482 H452 0.950 . S
C482 C481 1.524 . S
C482 C483 1.415 . S
C483 H453 0.950 . S
C483 C478 1.363 . S
C483 C482 1.415 . S
H484 C481 0.999 . S
H485 C466 0.913 . S
H486 C504 0.951 1_655 S
H487 C506 0.951 1_655 S
H488 C508 0.950 . S
H489 C509 0.950 . S
H490 C511 0.950 . S
H491 C514 0.950 . S
H492 C515 0.950 . S
H493 C517 0.950 . S
H494 C518 0.950 . S
H495 C519 0.951 . S
H496 C521 0.951 . S
H497 C523 0.950 1_655 S
H498 C524 0.950 1_655 S
H499 C526 0.950 . S
H500 C529 0.950 . S
H501 C530 0.950 . S
H502 C532 0.950 . S
H503 C533 0.950 . S
C504 H486 0.951 1_455 S
C504 C505 1.366 . S
C504 C506 1.388 . S
C505 C504 1.366 . S
C505 C509 1.385 1_545 S
C506 H487 0.951 1_455 S
C506 C504 1.388 . S
C506 C507 1.366 . S
C507 C506 1.366 . S
C507 C508 1.414 1_545 S
C507 C510 1.499 . S
C508 H488 0.950 . S
C508 C507 1.414 1_565 S
C508 C509 1.374 . S
C509 H489 0.950 . S
C509 C505 1.385 1_565 S
C509 C508 1.374 . S
C510 C507 1.499 . S
C510 C511 1.373 1_545 S
C510 C512 1.389 . S
C511 H490 0.950 . S
C511 C510 1.373 1_565 S
C511 C527 1.377 . S
C512 C510 1.389 . S
C512 C513 1.524 . S
C512 C526 1.377 . S
C513 C512 1.524 . S
C513 C514 1.397 . S
C513 C518 1.363 1_455 S
C514 H491 0.950 . S
C514 C513 1.397 . S
C514 C515 1.334 . S
C515 H492 0.950 . S
C515 C514 1.334 . S
C515 C516 1.287 . S
C516 C515 1.287 . S
C516 C517 1.524 1_455 S
C516 H535 0.913 1_455 S
C517 H493 0.950 . S
C517 C516 1.524 1_655 S
C517 C518 1.415 . S
C518 H494 0.950 . S
C518 C513 1.363 1_655 S
C518 C517 1.415 . S
C519 H495 0.951 . S
C519 C520 1.366 . S
C519 C521 1.388 . S
C520 C519 1.366 . S
C520 C524 1.385 1_565 S
C521 H496 0.951 . S
C521 C519 1.388 . S
C521 C522 1.366 . S
C522 C521 1.366 . S
C522 C523 1.414 1_565 S
C522 C525 1.499 . S
C523 H497 0.950 1_455 S
C523 C522 1.414 1_545 S
C523 C524 1.374 . S
C524 H498 0.950 1_455 S
C524 C520 1.385 1_545 S
C524 C523 1.374 . S
C525 C522 1.499 . S
C525 C526 1.373 1_565 S
C525 C527 1.389 . S
C526 H499 0.950 . S
C526 C512 1.377 . S
C526 C525 1.373 1_545 S
C527 C511 1.377 . S
C527 C525 1.389 . S
C527 C528 1.524 . S
C528 C527 1.524 . S
C528 C529 1.397 . S
C528 C533 1.363 . S
C529 H500 0.950 . S
C529 C528 1.397 . S
C529 C530 1.334 . S
C530 H501 0.950 . S
C530 C529 1.334 . S
C530 C531 1.287 . S
C531 C530 1.287 . S
C531 C532 1.524 . S
C531 H534 0.999 . S
C532 H502 0.950 . S
C532 C531 1.524 . S
C532 C533 1.415 . S
C533 H503 0.950 . S
C533 C528 1.363 . S
C533 C532 1.415 . S
H534 C531 0.999 . S
H535 C516 0.913 1_655 S
H536 C554 0.951 . S
H537 C556 0.951 . S
H538 C558 0.950 . S
H539 C559 0.950 . S
H540 C561 0.950 . S
H541 C564 0.950 . S
H542 C565 0.950 . S
H543 C567 0.950 . S
H544 C568 0.950 . S
H545 C569 0.951 . S
H546 C571 0.951 . S
H547 C573 0.950 . S
H548 C574 0.950 . S
H549 C576 0.950 1_565 S
H550 C579 0.950 1_655 S
H551 C580 0.950 1_655 S
H552 C582 0.950 . S
H553 C583 0.950 . S
C554 H536 0.951 . S
C554 C555 1.366 1_655 S
C554 C556 1.388 . S
C555 C554 1.366 1_455 S
C555 C559 1.385 . S
C556 H537 0.951 . S
C556 C554 1.388 . S
C556 C557 1.366 1_655 S
C557 C556 1.366 1_455 S
C557 C558 1.414 . S
C557 C560 1.499 . S
C558 H538 0.950 . S
C558 C557 1.414 . S
C558 C559 1.374 . S
C559 H539 0.950 . S
C559 C555 1.385 . S
C559 C558 1.374 . S
C560 C557 1.499 . S
C560 C561 1.373 . S
C560 C562 1.389 1_455 S
C561 H540 0.950 . S
C561 C560 1.373 . S
C561 C577 1.377 . S
C562 C560 1.389 1_655 S
C562 C563 1.524 1_545 S
C562 C576 1.377 . S
C563 C562 1.524 1_565 S
C563 C564 1.397 1_655 S
C563 C568 1.363 . S
C564 H541 0.950 . S
C564 C563 1.397 1_455 S
C564 C565 1.334 . S
C565 H542 0.950 . S
C565 C564 1.334 . S
C565 C566 1.287 1_455 S
C566 C565 1.287 1_655 S
C566 C567 1.524 . S
C566 H585 0.913 . S
C567 H543 0.950 . S
C567 C566 1.524 . S
C567 C568 1.415 . S
C568 H544 0.950 . S
C568 C563 1.363 . S
C568 C567 1.415 . S
C569 H545 0.951 . S
C569 C570 1.366 1_455 S
C569 C571 1.388 . S
C570 C569 1.366 1_655 S
C570 C574 1.385 . S
C571 H546 0.951 . S
C571 C569 1.388 . S
C571 C572 1.366 . S
C572 C571 1.366 . S
C572 C573 1.414 1_455 S
C572 C575 1.499 . S
C573 H547 0.950 . S
C573 C572 1.414 1_655 S
C573 C574 1.374 . S
C574 H548 0.950 . S
C574 C570 1.385 . S
C574 C573 1.374 . S
C575 C572 1.499 . S
C575 C576 1.373 1_455 S
C575 C577 1.389 . S
C576 H549 0.950 1_545 S
C576 C562 1.377 . S
C576 C575 1.373 1_655 S
C577 C561 1.377 . S
C577 C575 1.389 . S
C577 C578 1.524 . S
C578 C577 1.524 . S
C578 C579 1.397 . S
C578 C583 1.363 . S
C579 H550 0.950 1_455 S
C579 C578 1.397 . S
C579 C580 1.334 . S
C580 H551 0.950 1_455 S
C580 C579 1.334 . S
C580 C581 1.287 . S
C581 C580 1.287 . S
C581 C582 1.524 . S
C581 H584 0.999 . S
C582 H552 0.950 . S
C582 C581 1.524 . S
C582 C583 1.415 . S
C583 H553 0.950 . S
C583 C578 1.363 . S
C583 C582 1.415 . S
H584 C581 0.999 . S
H585 C566 0.913 . S
H586 C604 0.951 . S
H587 C606 0.951 . S
H588 C608 0.950 . S
H589 C609 0.950 . S
H590 C611 0.950 . S
H591 C614 0.950 . S
H592 C615 0.950 . S
H593 C617 0.950 . S
H594 C618 0.950 . S
H595 C619 0.951 . S
H596 C621 0.951 . S
H597 C623 0.950 . S
H598 C624 0.950 . S
H599 C626 0.950 . S
H600 C629 0.950 . S
H601 C630 0.950 . S
H602 C632 0.950 . S
H603 C633 0.950 . S
C604 H586 0.951 . S
C604 C605 1.366 . S
C604 C606 1.388 . S
C605 C604 1.366 . S
C605 C609 1.385 . S
C606 H587 0.951 . S
C606 C604 1.388 . S
C606 C607 1.366 . S
C607 C606 1.366 . S
C607 C608 1.414 . S
C607 C610 1.499 . S
C608 H588 0.950 . S
C608 C607 1.414 . S
C608 C609 1.374 . S
C609 H589 0.950 . S
C609 C605 1.385 . S
C609 C608 1.374 . S
C610 C607 1.499 . S
C610 C611 1.373 . S
C610 C612 1.389 . S
C611 H590 0.950 . S
C611 C610 1.373 . S
C611 C627 1.377 . S
C612 C610 1.389 . S
C612 C613 1.524 . S
C612 C626 1.377 . S
C613 C612 1.524 . S
C613 C614 1.397 . S
C613 C618 1.363 . S
C614 H591 0.950 . S
C614 C613 1.397 . S
C614 C615 1.334 . S
C615 H592 0.950 . S
C615 C614 1.334 . S
C615 C616 1.287 . S
C616 C615 1.287 . S
C616 C617 1.524 . S
C616 H635 0.913 . S
C617 H593 0.950 . S
C617 C616 1.524 . S
C617 C618 1.415 . S
C618 H594 0.950 . S
C618 C613 1.363 . S
C618 C617 1.415 . S
C619 H595 0.951 . S
C619 C620 1.366 . S
C619 C621 1.388 . S
C620 C619 1.366 . S
C620 C624 1.385 . S
C621 H596 0.951 . S
C621 C619 1.388 . S
C621 C622 1.366 . S
C622 C621 1.366 . S
C622 C623 1.414 . S
C622 C625 1.499 . S
C623 H597 0.950 . S
C623 C622 1.414 . S
C623 C624 1.374 . S
C624 H598 0.950 . S
C624 C620 1.385 . S
C624 C623 1.374 . S
C625 C622 1.499 . S
C625 C626 1.373 . S
C625 C627 1.389 . S
C626 H599 0.950 . S
C626 C612 1.377 . S
C626 C625 1.373 . S
C627 C611 1.377 . S
C627 C625 1.389 . S
C627 C628 1.524 . S
C628 C627 1.524 . S
C628 C629 1.397 . S
C628 C633 1.363 . S
C629 H600 0.950 . S
C629 C628 1.397 . S
C629 C630 1.334 . S
C630 H601 0.950 . S
C630 C629 1.334 . S
C630 C631 1.287 . S
C631 C630 1.287 . S
C631 C632 1.524 . S
C631 H634 0.999 . S
C632 H602 0.950 . S
C632 C631 1.524 . S
C632 C633 1.415 . S
C633 H603 0.950 . S
C633 C628 1.363 . S
C633 C632 1.415 . S
H634 C631 0.999 . S
H635 C616 0.913 . S
H636 C654 0.951 . S
H637 C656 0.951 . S
H638 C658 0.950 . S
H639 C659 0.950 . S
H640 C661 0.950 . S
H641 C664 0.950 . S
H642 C665 0.950 . S
H643 C667 0.950 . S
H644 C668 0.950 . S
H645 C669 0.951 . S
H646 C671 0.951 . S
H647 C673 0.950 . S
H648 C674 0.950 . S
H649 C676 0.950 . S
H650 C679 0.950 . S
H651 C680 0.950 . S
H652 C682 0.950 . S
H653 C683 0.950 . S
C654 H636 0.951 . S
C654 C655 1.366 . S
C654 C656 1.388 . S
C655 C654 1.366 . S
C655 C659 1.385 . S
C656 H637 0.951 . S
C656 C654 1.388 . S
C656 C657 1.366 . S
C657 C656 1.366 . S
C657 C658 1.414 . S
C657 C660 1.499 . S
C658 H638 0.950 . S
C658 C657 1.414 . S
C658 C659 1.374 . S
C659 H639 0.950 . S
C659 C655 1.385 . S
C659 C658 1.374 . S
C660 C657 1.499 . S
C660 C661 1.373 . S
C660 C662 1.389 . S
C661 H640 0.950 . S
C661 C660 1.373 . S
C661 C677 1.377 . S
C662 C660 1.389 . S
C662 C663 1.524 . S
C662 C676 1.377 . S
C663 C662 1.524 . S
C663 C664 1.397 . S
C663 C668 1.363 . S
C664 H641 0.950 . S
C664 C663 1.397 . S
C664 C665 1.334 . S
C665 H642 0.950 . S
C665 C664 1.334 . S
C665 C666 1.287 . S
C666 C665 1.287 . S
C666 C667 1.524 . S
C666 H685 0.913 . S
C667 H643 0.950 . S
C667 C666 1.524 . S
C667 C668 1.415 . S
C668 H644 0.950 . S
C668 C663 1.363 . S
C668 C667 1.415 . S
C669 H645 0.951 . S
C669 C670 1.366 . S
C669 C671 1.388 . S
C670 C669 1.366 . S
C670 C674 1.385 . S
C671 H646 0.951 . S
C671 C669 1.388 . S
C671 C672 1.366 . S
C672 C671 1.366 . S
C672 C673 1.414 . S
C672 C675 1.499 . S
C673 H647 0.950 . S
C673 C672 1.414 . S
C673 C674 1.374 . S
C674 H648 0.950 . S
C674 C670 1.385 . S
C674 C673 1.374 . S
C675 C672 1.499 . S
C675 C676 1.373 . S
C675 C677 1.389 . S
C676 H649 0.950 . S
C676 C662 1.377 . S
C676 C675 1.373 . S
C677 C661 1.377 . S
C677 C675 1.389 . S
C677 C678 1.524 . S
C678 C677 1.524 . S
C678 C679 1.397 . S
C678 C683 1.363 . S
C679 H650 0.950 . S
C679 C678 1.397 . S
C679 C680 1.334 . S
C680 H651 0.950 . S
C680 C679 1.334 . S
C680 C681 1.287 . S
C681 C680 1.287 . S
C681 C682 1.524 . S
C681 H684 0.999 . S
C682 H652 0.950 . S
C682 C681 1.524 . S
C682 C683 1.415 . S
C683 H653 0.950 . S
C683 C678 1.363 . S
C683 C682 1.415 . S
H684 C681 0.999 . S
H685 C666 0.913 . S
C120 C81 1.431 . S
C105 C16 1.280 . S
C155 C15 1.385 . S
C170 N68 1.362 . S
C205 C13 1.270 . S
C220 N79 1.394 . S
C255 C14 1.403 . S
C270 C70 1.438 . S
C305 C37 1.283 . S
C320 C59 1.430 1_565 S
C355 C36 1.385 . S
C370 N46 1.362 . S
C420 N57 1.394 . S
C405 C34 1.255 . S
C470 C48 1.438 . S
C455 C35 1.403 . S
C505 C17 1.579 . S
C520 C51 1.618 . S
C555 C18 1.382 . S
C570 C62 1.406 . S
C620 C73 1.619 . S
C605 C38 1.579 . S
C655 C39 1.382 . S
C670 C84 1.406 . S
