# Generated by pormake.
# Topology ssb, (4,4)-cn, num edge types: 1
# Building blocks:
#     Node 0, Type 0, BuildingBlock: NAWXER_clean_linker_0, # of connection points: 4
#     Node 1, Type 0, BuildingBlock: NAWXER_clean_linker_0, # of connection points: 4
#     Node 2, Type 0, BuildingBlock: NAWXER_clean_linker_0, # of connection points: 4
#     Node 3, Type 0, BuildingBlock: NAWXER_clean_linker_0, # of connection points: 4
#     Node 4, Type 0, BuildingBlock: NAWXER_clean_linker_0, # of connection points: 4
#     Node 5, Type 0, BuildingBlock: NAWXER_clean_linker_0, # of connection points: 4
#     Node 6, Type 0, BuildingBlock: NAWXER_clean_linker_0, # of connection points: 4
#     Node 7, Type 0, BuildingBlock: NAWXER_clean_linker_0, # of connection points: 4
#     Node 8, Type 1, BuildingBlock: NAWXER_clean_sbu_0, # of connection points: 4
#     Node 9, Type 1, BuildingBlock: NAWXER_clean_sbu_0, # of connection points: 4
#     Node 10, Type 1, BuildingBlock: NAWXER_clean_sbu_0, # of connection points: 4
#     Node 11, Type 1, BuildingBlock: NAWXER_clean_sbu_0, # of connection points: 4
#     Node 12, Type 1, BuildingBlock: NAWXER_clean_sbu_0, # of connection points: 4
#     Node 13, Type 1, BuildingBlock: NAWXER_clean_sbu_0, # of connection points: 4
#     Node 14, Type 1, BuildingBlock: NAWXER_clean_sbu_0, # of connection points: 4
#     Node 15, Type 1, BuildingBlock: NAWXER_clean_sbu_0, # of connection points: 4
#     Edge 16, Type (0, 1), BuildingBlock: XIVTED_clean_linker_0, # of connection points: 2
#     Edge 17, Type (0, 1), BuildingBlock: XIVTED_clean_linker_0, # of connection points: 2
#     Edge 18, Type (0, 1), BuildingBlock: XIVTED_clean_linker_0, # of connection points: 2
#     Edge 19, Type (0, 1), BuildingBlock: XIVTED_clean_linker_0, # of connection points: 2
#     Edge 20, Type (0, 1), BuildingBlock: XIVTED_clean_linker_0, # of connection points: 2
#     Edge 21, Type (0, 1), BuildingBlock: XIVTED_clean_linker_0, # of connection points: 2
#     Edge 22, Type (0, 1), BuildingBlock: XIVTED_clean_linker_0, # of connection points: 2
#     Edge 23, Type (0, 1), BuildingBlock: XIVTED_clean_linker_0, # of connection points: 2
#     Edge 24, Type (0, 1), BuildingBlock: XIVTED_clean_linker_0, # of connection points: 2
#     Edge 25, Type (0, 1), BuildingBlock: XIVTED_clean_linker_0, # of connection points: 2
#     Edge 26, Type (0, 1), BuildingBlock: XIVTED_clean_linker_0, # of connection points: 2
#     Edge 27, Type (0, 1), BuildingBlock: XIVTED_clean_linker_0, # of connection points: 2
#     Edge 28, Type (0, 1), BuildingBlock: XIVTED_clean_linker_0, # of connection points: 2
#     Edge 29, Type (0, 1), BuildingBlock: XIVTED_clean_linker_0, # of connection points: 2
#     Edge 30, Type (0, 1), BuildingBlock: XIVTED_clean_linker_0, # of connection points: 2
#     Edge 31, Type (0, 1), BuildingBlock: XIVTED_clean_linker_0, # of connection points: 2
#     Edge 32, Type (0, 1), BuildingBlock: XIVTED_clean_linker_0, # of connection points: 2
#     Edge 33, Type (0, 1), BuildingBlock: XIVTED_clean_linker_0, # of connection points: 2
#     Edge 34, Type (0, 1), BuildingBlock: XIVTED_clean_linker_0, # of connection points: 2
#     Edge 35, Type (0, 1), BuildingBlock: XIVTED_clean_linker_0, # of connection points: 2
#     Edge 36, Type (0, 1), BuildingBlock: XIVTED_clean_linker_0, # of connection points: 2
#     Edge 37, Type (0, 1), BuildingBlock: XIVTED_clean_linker_0, # of connection points: 2
#     Edge 38, Type (0, 1), BuildingBlock: XIVTED_clean_linker_0, # of connection points: 2
#     Edge 39, Type (0, 1), BuildingBlock: XIVTED_clean_linker_0, # of connection points: 2
#     Edge 40, Type (0, 1), BuildingBlock: XIVTED_clean_linker_0, # of connection points: 2
#     Edge 41, Type (0, 1), BuildingBlock: XIVTED_clean_linker_0, # of connection points: 2
#     Edge 42, Type (0, 1), BuildingBlock: XIVTED_clean_linker_0, # of connection points: 2
#     Edge 43, Type (0, 1), BuildingBlock: XIVTED_clean_linker_0, # of connection points: 2
#     Edge 44, Type (0, 1), BuildingBlock: XIVTED_clean_linker_0, # of connection points: 2
#     Edge 45, Type (0, 1), BuildingBlock: XIVTED_clean_linker_0, # of connection points: 2
#     Edge 46, Type (0, 1), BuildingBlock: XIVTED_clean_linker_0, # of connection points: 2
#     Edge 47, Type (0, 1), BuildingBlock: XIVTED_clean_linker_0, # of connection points: 2
# Relax obj value: 0.000
# Max RMSD: 0.001
# Mean RMSD: 0.001
data_MOF--net-ssb--node1-NAWXER_clean_sbu_0--node2-NAWXER_clean_linker_0--edge1-XIVTED_clean_linker_0
_symmetry_space_group_name_H-M    P1
_symmetry_Int_Tables_number       1
_symmetry_cell_setting            triclinic
loop_
_symmetry_equiv_pos_as_xyz
'x, y, z'
_cell_length_a     54.457434
_cell_length_b     54.072262
_cell_length_c     47.551241
_cell_angle_alpha  90.017461
_cell_angle_beta   89.912004
_cell_angle_gamma 90.017137
loop_
_atom_site_label
_atom_site_type_symbol
_atom_site_fract_x
_atom_site_fract_y
_atom_site_fract_z
_atom_type_partial_charge
C0 C 0.31579 0.27335 0.16659 0.0
C1 C 0.33983 0.27418 0.17721 0.0
C2 C 0.29578 0.27123 0.1848 0.0
C3 C 0.29939 0.27046 0.21403 0.0
C4 C 0.34349 0.27185 0.20638 0.0
C5 C 0.32339 0.26999 0.22466 0.0
C6 C 0.27815 0.27221 0.23336 0.0
C7 C 0.28882 0.34257 0.18654 0.0
C8 C 0.26956 0.34733 0.16761 0.0
C9 C 0.28575 0.32548 0.20834 0.0
C10 C 0.26357 0.31241 0.21125 0.0
C11 C 0.24684 0.33544 0.17189 0.0
C12 C 0.2439 0.31818 0.19347 0.0
C13 C 0.26103 0.29179 0.23162 0.0
C14 C 0.1956 0.27588 0.33167 0.0
C15 C 0.17256 0.28014 0.31926 0.0
C16 C 0.21657 0.27319 0.31493 0.0
C17 C 0.21483 0.27478 0.28553 0.0
C18 C 0.17095 0.2819 0.28985 0.0
C19 C 0.19193 0.27947 0.27317 0.0
C20 C 0.23689 0.27287 0.26751 0.0
C21 C 0.22469 0.19677 0.30339 0.0
C22 C 0.24412 0.18758 0.31979 0.0
C23 C 0.22771 0.21819 0.28721 0.0
C24 C 0.25013 0.23112 0.28737 0.0
C25 C 0.26655 0.20056 0.31985 0.0
C26 C 0.26954 0.22198 0.3037 0.0
C27 C 0.25396 0.25319 0.26927 0.0
H28 H 0.31243 0.27449 0.14418 0.0
H29 H 0.2774 0.27109 0.17611 0.0
H30 H 0.36183 0.27235 0.21513 0.0
H31 H 0.32654 0.26929 0.24714 0.0
H32 H 0.30654 0.35137 0.18398 0.0
H33 H 0.301 0.32187 0.22235 0.0
H34 H 0.23136 0.3392 0.15829 0.0
H35 H 0.22649 0.30863 0.19557 0.0
H36 H 0.19734 0.2743 0.35429 0.0
H37 H 0.23415 0.2701 0.32496 0.0
H38 H 0.15348 0.28542 0.27975 0.0
H39 H 0.19024 0.28104 0.25053 0.0
H40 H 0.20733 0.18703 0.3024 0.0
H41 H 0.21266 0.2243 0.27408 0.0
H42 H 0.28183 0.19422 0.33247 0.0
H43 H 0.28706 0.23149 0.30403 0.0
N44 N 0.27411 0.25374 0.25223 0.0
N45 N 0.24099 0.29126 0.2486 0.0
C46 C 0.66226 0.25785 0.19182 0.0
C47 C 0.66047 0.23697 0.17426 0.0
C48 C 0.68005 0.25894 0.2129 0.0
C49 C 0.69658 0.2393 0.21649 0.0
C50 C 0.67657 0.21704 0.17854 0.0
C51 C 0.6944 0.21818 0.19954 0.0
C52 C 0.71573 0.24004 0.23837 0.0
C53 C 0.73062 0.30198 0.1775 0.0
C54 C 0.73192 0.32538 0.19033 0.0
C55 C 0.73154 0.28043 0.19376 0.0
C56 C 0.73307 0.28188 0.22323 0.0
C57 C 0.73436 0.32676 0.2197 0.0
C58 C 0.73493 0.30524 0.23596 0.0
C59 C 0.73302 0.25942 0.24117 0.0
C60 C 0.80586 0.21267 0.32065 0.0
C61 C 0.81478 0.23404 0.33407 0.0
C62 C 0.78541 0.21387 0.30302 0.0
C63 C 0.7729 0.23634 0.29898 0.0
C64 C 0.80254 0.25662 0.32946 0.0
C65 C 0.78185 0.25773 0.31214 0.0
C66 C 0.7516 0.23798 0.2796 0.0
C67 C 0.72624 0.1861 0.34743 0.0
C68 C 0.72308 0.16153 0.33849 0.0
C69 C 0.72981 0.20499 0.3278 0.0
C70 C 0.73028 0.19963 0.2989 0.0
C71 C 0.7232 0.15628 0.30953 0.0
C72 C 0.72654 0.17521 0.28991 0.0
C73 C 0.73321 0.21959 0.27793 0.0
H74 H 0.64979 0.2733 0.18937 0.0
H75 H 0.68094 0.27509 0.22633 0.0
H76 H 0.67576 0.20079 0.16525 0.0
H77 H 0.70683 0.20272 0.20222 0.0
H78 H 0.72924 0.30035 0.15485 0.0
H79 H 0.73102 0.26266 0.18326 0.0
H80 H 0.73537 0.34452 0.23018 0.0
H81 H 0.73636 0.30687 0.25861 0.0
H82 H 0.81463 0.19491 0.32375 0.0
H83 H 0.77964 0.19722 0.29226 0.0
H84 H 0.80916 0.27361 0.33883 0.0
H85 H 0.77287 0.27539 0.30896 0.0
H86 H 0.72638 0.19064 0.36961 0.0
H87 H 0.73205 0.2238 0.33519 0.0
H88 H 0.72057 0.13754 0.30206 0.0
H89 H 0.72648 0.17074 0.2677 0.0
N90 N 0.71639 0.22105 0.257 0.0
N91 N 0.75043 0.25747 0.26155 0.0
C92 C 0.71003 0.78191 0.144 0.0
C93 C 0.68653 0.78731 0.15469 0.0
C94 C 0.73048 0.78154 0.1618 0.0
C95 C 0.72773 0.7859 0.1908 0.0
C96 C 0.68396 0.79247 0.18349 0.0
C97 C 0.70431 0.79176 0.20132 0.0
C98 C 0.74898 0.78539 0.21036 0.0
C99 C 0.74638 0.70796 0.17417 0.0
C100 C 0.76838 0.6993 0.16203 0.0
C101 C 0.74586 0.7302 0.18918 0.0
C102 C 0.76714 0.74473 0.1917 0.0
C103 C 0.78965 0.71391 0.16464 0.0
C104 C 0.78901 0.73631 0.17929 0.0
C105 C 0.76765 0.76705 0.20987 0.0
C106 C 0.81692 0.7805 0.31996 0.0
C107 C 0.84198 0.78281 0.31343 0.0
C108 C 0.79927 0.78167 0.29879 0.0
C109 C 0.80634 0.78513 0.27068 0.0
C110 C 0.84906 0.78619 0.28523 0.0
C111 C 0.83134 0.78708 0.26395 0.0
C112 C 0.78743 0.78684 0.24856 0.0
C113 C 0.7894 0.85683 0.29742 0.0
C114 C 0.76872 0.85965 0.31487 0.0
C115 C 0.78923 0.83969 0.27541 0.0
C116 C 0.76846 0.82488 0.27056 0.0
C117 C 0.74766 0.84534 0.3093 0.0
C118 C 0.7475 0.82825 0.28726 0.0
C119 C 0.76889 0.80498 0.24918 0.0
H120 H 0.71262 0.77824 0.12179 0.0
H121 H 0.74842 0.7779 0.15287 0.0
H122 H 0.66608 0.79651 0.19238 0.0
H123 H 0.70165 0.79543 0.22352 0.0
H124 H 0.72953 0.69746 0.17237 0.0
H125 H 0.72893 0.73566 0.19938 0.0
H126 H 0.80704 0.70773 0.15613 0.0
H127 H 0.80581 0.7469 0.18138 0.0
H128 H 0.81095 0.77801 0.34152 0.0
H129 H 0.78005 0.77991 0.30436 0.0
H130 H 0.86828 0.78777 0.27963 0.0
H131 H 0.83709 0.78965 0.24233 0.0
H132 H 0.80573 0.86788 0.30073 0.0
H133 H 0.80546 0.83776 0.26239 0.0
H134 H 0.73149 0.8468 0.32247 0.0
H135 H 0.7313 0.817 0.28391 0.0
N136 N 0.75033 0.80351 0.2302 0.0
N137 N 0.7862 0.76867 0.22893 0.0
C138 C 0.31504 0.70143 0.18757 0.0
C139 C 0.32341 0.72356 0.17527 0.0
C140 C 0.29559 0.70164 0.20681 0.0
C141 C 0.28363 0.7239 0.21364 0.0
C142 C 0.3116 0.74583 0.18252 0.0
C143 C 0.29196 0.74597 0.20139 0.0
C144 C 0.2639 0.72487 0.23519 0.0
C145 C 0.23394 0.67595 0.16727 0.0
C146 C 0.23153 0.65102 0.17517 0.0
C147 C 0.23836 0.69416 0.18751 0.0
C148 C 0.24047 0.6878 0.21605 0.0
C149 C 0.23311 0.64478 0.20383 0.0
C150 C 0.23729 0.66305 0.22411 0.0
C151 C 0.24506 0.70704 0.23759 0.0
C152 C 0.17773 0.74793 0.32624 0.0
C153 C 0.17127 0.72557 0.33955 0.0
C154 C 0.19711 0.7488 0.30696 0.0
C155 C 0.21097 0.7275 0.30114 0.0
C156 C 0.18522 0.7043 0.33367 0.0
C157 C 0.20481 0.70528 0.3147 0.0
C158 C 0.2301 0.72729 0.27893 0.0
C159 C 0.2557 0.78736 0.33973 0.0
C160 C 0.25638 0.81088 0.32707 0.0
C161 C 0.25267 0.76603 0.32327 0.0
C162 C 0.25041 0.76794 0.29392 0.0
C163 C 0.25428 0.8126 0.2977 0.0
C164 C 0.25153 0.79137 0.28132 0.0
C165 C 0.24822 0.74585 0.27567 0.0
H166 H 0.32354 0.6839 0.18244 0.0
H167 H 0.29028 0.68443 0.21671 0.0
H168 H 0.31784 0.76335 0.17412 0.0
H169 H 0.28339 0.76346 0.20662 0.0
H170 H 0.23296 0.68132 0.14536 0.0
H171 H 0.24015 0.71324 0.18086 0.0
H172 H 0.23108 0.62575 0.21057 0.0
H173 H 0.23849 0.65779 0.24604 0.0
H174 H 0.16764 0.76478 0.33043 0.0
H175 H 0.20073 0.766 0.29608 0.0
H176 H 0.18059 0.68665 0.34304 0.0
H177 H 0.21493 0.68847 0.31022 0.0
H178 H 0.25721 0.78548 0.36233 0.0
H179 H 0.25233 0.7481 0.33341 0.0
H180 H 0.25508 0.83041 0.28729 0.0
H181 H 0.25011 0.79328 0.2587 0.0
N182 N 0.26442 0.74374 0.25406 0.0
N183 N 0.22923 0.70871 0.25963 0.0
C184 C 0.16685 0.79115 0.70317 0.0
C185 C 0.16241 0.77085 0.68541 0.0
C186 C 0.18761 0.79169 0.72034 0.0
C187 C 0.20452 0.77207 0.71988 0.0
C188 C 0.17891 0.75081 0.68581 0.0
C189 C 0.19971 0.75138 0.70301 0.0
C190 C 0.22745 0.77342 0.73649 0.0
C191 C 0.23255 0.82732 0.66645 0.0
C192 C 0.23227 0.85223 0.67482 0.0
C193 C 0.23669 0.8086 0.68607 0.0
C194 C 0.24009 0.81428 0.71465 0.0
C195 C 0.23647 0.85799 0.7033 0.0
C196 C 0.24039 0.83916 0.72302 0.0
C197 C 0.2432 0.79421 0.73563 0.0
C198 C 0.32747 0.76087 0.8086 0.0
C199 C 0.32935 0.7804 0.82805 0.0
C200 C 0.30797 0.75987 0.78962 0.0
C201 C 0.28983 0.77829 0.78978 0.0
C202 C 0.31181 0.79948 0.8272 0.0
C203 C 0.29226 0.79846 0.80814 0.0
C204 C 0.26798 0.77617 0.77146 0.0
C205 C 0.26113 0.71584 0.83684 0.0
C206 C 0.26396 0.69204 0.82532 0.0
C207 C 0.25779 0.73635 0.81935 0.0
C208 C 0.25709 0.73343 0.79002 0.0
C209 C 0.26347 0.68922 0.79594 0.0
C210 C 0.25981 0.7097 0.77847 0.0
C211 C 0.25287 0.75489 0.77132 0.0
H212 H 0.15424 0.80663 0.70384 0.0
H213 H 0.19062 0.80759 0.73377 0.0
H214 H 0.17614 0.73496 0.67225 0.0
H215 H 0.21245 0.736 0.70246 0.0
H216 H 0.23005 0.82231 0.64458 0.0
H217 H 0.23719 0.7896 0.67887 0.0
H218 H 0.23641 0.87702 0.71038 0.0
H219 H 0.24318 0.844 0.7449 0.0
H220 H 0.341 0.74619 0.80819 0.0
H221 H 0.30685 0.74448 0.77509 0.0
H222 H 0.31266 0.81473 0.84193 0.0
H223 H 0.27855 0.81297 0.80844 0.0
H224 H 0.26148 0.71856 0.85941 0.0
H225 H 0.25542 0.75445 0.82873 0.0
H226 H 0.26529 0.67108 0.7865 0.0
H227 H 0.25919 0.70705 0.7559 0.0
N228 N 0.2331 0.75435 0.75391 0.0
N229 N 0.26266 0.79504 0.75353 0.0
C230 C 0.31298 0.25827 0.81306 0.0
C231 C 0.31735 0.23692 0.82926 0.0
C232 C 0.29414 0.25868 0.79313 0.0
C233 C 0.27924 0.23781 0.7892 0.0
C234 C 0.30216 0.21617 0.82541 0.0
C235 C 0.28342 0.21658 0.80544 0.0
C236 C 0.2609 0.2369 0.76643 0.0
C237 C 0.2366 0.29451 0.82843 0.0
C238 C 0.23243 0.31801 0.81673 0.0
C239 C 0.23906 0.27372 0.81113 0.0
C240 C 0.23815 0.27611 0.78169 0.0
C241 C 0.23024 0.32019 0.78741 0.0
C242 C 0.23311 0.29947 0.77009 0.0
C243 C 0.242 0.25457 0.7627 0.0
C244 C 0.1817 0.20574 0.67138 0.0
C245 C 0.17419 0.22679 0.65632 0.0
C246 C 0.19918 0.2077 0.69275 0.0
C247 C 0.20996 0.23066 0.69912 0.0
C248 C 0.18444 0.24987 0.66341 0.0
C249 C 0.2021 0.25177 0.68458 0.0
C250 C 0.22876 0.23297 0.72149 0.0
C251 C 0.26249 0.18394 0.65551 0.0
C252 C 0.26686 0.15956 0.66449 0.0
C253 C 0.25643 0.20237 0.67495 0.0
C254 C 0.25445 0.19673 0.70371 0.0
C255 C 0.26554 0.15416 0.69339 0.0
C256 C 0.25956 0.1726 0.7128 0.0
C257 C 0.24838 0.2161 0.72461 0.0
H258 H 0.32459 0.27442 0.81512 0.0
H259 H 0.29165 0.27502 0.78028 0.0
H260 H 0.30479 0.19957 0.83777 0.0
H261 H 0.27223 0.2002 0.80251 0.0
H262 H 0.23791 0.29222 0.85101 0.0
H263 H 0.24177 0.25582 0.82083 0.0
H264 H 0.2271 0.33807 0.77779 0.0
H265 H 0.23197 0.30182 0.7475 0.0
H266 H 0.17428 0.18766 0.66652 0.0
H267 H 0.20422 0.19122 0.70431 0.0
H268 H 0.17866 0.2666 0.6528 0.0
H269 H 0.20979 0.26976 0.68942 0.0
H270 H 0.26323 0.18866 0.63339 0.0
H271 H 0.2533 0.22103 0.6675 0.0
H272 H 0.26915 0.13564 0.70101 0.0
H273 H 0.25858 0.16793 0.73493 0.0
N274 N 0.26334 0.2185 0.74721 0.0
N275 N 0.22661 0.25178 0.74038 0.0
C276 C 0.83792 0.24858 0.69544 0.0
C277 C 0.84199 0.26915 0.67786 0.0
C278 C 0.81776 0.24799 0.71366 0.0
C279 C 0.80126 0.26789 0.71452 0.0
C280 C 0.82561 0.28922 0.67925 0.0
C281 C 0.80556 0.28864 0.69756 0.0
C282 C 0.77996 0.26779 0.7337 0.0
C283 C 0.76876 0.20666 0.67021 0.0
C284 C 0.76478 0.18337 0.6826 0.0
C285 C 0.76743 0.22826 0.68642 0.0
C286 C 0.76264 0.22692 0.71545 0.0
C287 C 0.7595 0.18218 0.71151 0.0
C288 C 0.75841 0.20369 0.7277 0.0
C289 C 0.76159 0.24932 0.73349 0.0
C290 C 0.68542 0.29663 0.81011 0.0
C291 C 0.67482 0.27506 0.8214 0.0
C292 C 0.70637 0.29525 0.79313 0.0
C293 C 0.71768 0.27235 0.78767 0.0
C294 C 0.68555 0.25208 0.81475 0.0
C295 C 0.70672 0.25076 0.79818 0.0
C296 C 0.74035 0.2706 0.7703 0.0
C297 C 0.76197 0.31527 0.84527 0.0
C298 C 0.7686 0.33991 0.83969 0.0
C299 C 0.7591 0.29838 0.82334 0.0
C300 C 0.76241 0.30585 0.7953 0.0
C301 C 0.77267 0.34719 0.81167 0.0
C302 C 0.76968 0.33026 0.78968 0.0
C303 C 0.75989 0.28778 0.77208 0.0
H304 H 0.85042 0.23302 0.69531 0.0
H305 H 0.8151 0.23205 0.72713 0.0
H306 H 0.82797 0.3052 0.66581 0.0
H307 H 0.79311 0.30427 0.69813 0.0
H308 H 0.77242 0.2082 0.64788 0.0
H309 H 0.76998 0.24597 0.6762 0.0
H310 H 0.7565 0.16453 0.72173 0.0
H311 H 0.75457 0.20214 0.75 0.0
H312 H 0.67781 0.31468 0.81471 0.0
H313 H 0.71373 0.31218 0.78437 0.0
H314 H 0.67757 0.23496 0.82226 0.0
H315 H 0.71469 0.2328 0.79384 0.0
H316 H 0.75923 0.30896 0.86666 0.0
H317 H 0.75447 0.27941 0.82835 0.0
H318 H 0.77767 0.36608 0.80671 0.0
H319 H 0.77274 0.33632 0.76824 0.0
N320 N 0.77854 0.28611 0.75318 0.0
N321 N 0.74233 0.25168 0.75156 0.0
C322 C 0.78826 0.71851 0.65161 0.0
C323 C 0.81168 0.71727 0.66392 0.0
C324 C 0.7672 0.71964 0.66848 0.0
C325 C 0.76926 0.7194 0.69792 0.0
C326 C 0.81362 0.71675 0.69337 0.0
C327 C 0.7926 0.71756 0.71019 0.0
C328 C 0.74727 0.72031 0.71618 0.0
C329 C 0.75158 0.79646 0.67666 0.0
C330 C 0.72989 0.80519 0.66395 0.0
C331 C 0.75158 0.77446 0.69215 0.0
C332 C 0.73007 0.76025 0.69463 0.0
C333 C 0.70845 0.7908 0.66634 0.0
C334 C 0.70859 0.76863 0.68141 0.0
C335 C 0.72872 0.73854 0.71372 0.0
C336 C 0.65767 0.7413 0.80129 0.0
C337 C 0.64418 0.71957 0.80645 0.0
C338 C 0.67733 0.74119 0.78246 0.0
C339 C 0.68408 0.71933 0.76866 0.0
C340 C 0.65039 0.69789 0.79174 0.0
C341 C 0.67008 0.69781 0.77285 0.0
C342 C 0.70631 0.71909 0.75081 0.0
C343 C 0.72824 0.64043 0.79255 0.0
C344 C 0.72325 0.64753 0.82045 0.0
C345 C 0.72936 0.65814 0.77113 0.0
C346 C 0.72543 0.6832 0.77722 0.0
C347 C 0.71995 0.67273 0.82657 0.0
C348 C 0.72132 0.69041 0.80523 0.0
C349 C 0.72543 0.70176 0.75429 0.0
H350 H 0.78625 0.71904 0.62895 0.0
H351 H 0.74933 0.72062 0.65856 0.0
H352 H 0.83143 0.71553 0.70341 0.0
H353 H 0.79459 0.71712 0.73285 0.0
H354 H 0.76855 0.80678 0.67505 0.0
H355 H 0.76823 0.76915 0.70296 0.0
H356 H 0.69126 0.79701 0.65741 0.0
H357 H 0.69162 0.7583 0.68334 0.0
H358 H 0.65357 0.75825 0.81249 0.0
H359 H 0.68786 0.758 0.77947 0.0
H360 H 0.64009 0.68098 0.79489 0.0
H361 H 0.67465 0.68086 0.7619 0.0
H362 H 0.73088 0.62114 0.78721 0.0
H363 H 0.73277 0.65219 0.74972 0.0
H364 H 0.71667 0.67883 0.84795 0.0
H365 H 0.71901 0.70973 0.81061 0.0
N366 N 0.74502 0.70279 0.73659 0.0
N367 N 0.70887 0.73697 0.731 0.0
C368 C 0.97389 0.26755 0.53034 0.0
C369 C 0.02945 0.27428 0.44998 0.0
O370 O 0.983 0.28732 0.52024 0.0
Zn371 Zn 0.00167 0.27186 0.49023 0.0
O372 O 0.97949 0.24666 0.51931 0.0
Zn373 Zn 0.0015 0.23239 0.48581 0.0
O374 O 0.02562 0.21265 0.50597 0.0
O375 O 0.02985 0.25286 0.51255 0.0
O376 O 0.02341 0.25193 0.45578 0.0
O377 O 0.02094 0.29197 0.46469 0.0
O378 O 0.97313 0.25714 0.46415 0.0
O379 O 0.9772 0.21652 0.46215 0.0
C380 C 0.03713 0.23068 0.51699 0.0
C381 C 0.96569 0.23605 0.4552 0.0
C382 C 0.76467 0.03233 0.55986 0.0
C383 C 0.76523 0.97042 0.48452 0.0
O384 O 0.7834 0.02296 0.54793 0.0
Zn385 Zn 0.76609 1.00022 0.52319 0.0
O386 O 0.74317 0.02486 0.55295 0.0
Zn387 Zn 0.72673 0.99967 0.52399 0.0
O388 O 0.70999 0.97572 0.54741 0.0
O389 O 0.75034 0.97321 0.55075 0.0
O390 O 0.74373 0.97646 0.4931 0.0
O391 O 0.78404 0.97954 0.49657 0.0
O392 O 0.7482 0.02491 0.4947 0.0
O393 O 0.70798 0.02198 0.50013 0.0
C394 C 0.72893 0.9655 0.55781 0.0
C395 C 0.72644 0.03148 0.48773 0.0
C396 C 0.96078 0.72617 0.54047 0.0
C397 C 0.02736 0.72706 0.4714 0.0
O398 O 0.96819 0.74802 0.53425 0.0
Zn399 Zn 0.99478 0.76527 0.5073 0.0
O400 O 0.97081 0.70752 0.5289 0.0
Zn401 Zn 0.99429 0.72569 0.50626 0.0
O402 O 0.01812 0.74161 0.53703 0.0
O403 O 0.01607 0.78226 0.53364 0.0
O404 O 0.01733 0.70806 0.48221 0.0
O405 O 0.02042 0.74868 0.47905 0.0
O406 O 0.97445 0.78411 0.4816 0.0
O407 O 0.97059 0.74367 0.47675 0.0
C408 C 0.02495 0.7631 0.54532 0.0
C409 C 0.96464 0.76567 0.46937 0.0
C410 C 0.27274 0.03175 0.51328 0.0
C411 C 0.26705 0.96604 0.44252 0.0
O412 O 0.29097 0.02159 0.50107 0.0
Zn413 Zn 0.27144 1.00008 0.4767 0.0
O414 O 0.25081 0.02627 0.50581 0.0
Zn415 Zn 0.23187 0.00285 0.47692 0.0
O416 O 0.21273 0.98279 0.50339 0.0
O417 O 0.2529 0.97836 0.50768 0.0
O418 O 0.24626 0.97528 0.44951 0.0
O419 O 0.28664 0.97471 0.45324 0.0
O420 O 0.25676 0.02615 0.44765 0.0
O421 O 0.21643 0.02683 0.45177 0.0
C422 C 0.23108 0.97333 0.51602 0.0
C423 C 0.23592 0.03498 0.44024 0.0
C424 C 0.46765 0.73709 0.04458 0.0
C425 C 0.5251 0.73451 0.966 0.0
O426 O 0.4738 0.75866 0.03587 0.0
Zn427 Zn 0.4981 0.77466 0.00551 0.0
O428 O 0.47784 0.71809 0.03402 0.0
Zn429 Zn 0.49786 0.73518 0.00652 0.0
O430 O 0.52637 0.75182 0.03074 0.0
O431 O 0.52249 0.79229 0.02776 0.0
O432 O 0.51651 0.71613 0.97951 0.0
O433 O 0.51968 0.75656 0.97378 0.0
O434 O 0.47511 0.79287 0.98217 0.0
O435 O 0.47081 0.75229 0.97983 0.0
C436 C 0.53393 0.77355 0.03714 0.0
C437 C 0.46405 0.77403 0.97229 0.0
C438 C 0.23309 0.52913 0.01691 0.0
C439 C 0.23691 0.46931 0.93947 0.0
O440 O 0.25489 0.52436 0.00833 0.0
Zn441 Zn 0.27308 0.50322 0.97654 0.0
O442 O 0.21474 0.51976 0.00421 0.0
Zn443 Zn 0.2337 0.50093 0.97662 0.0
O444 O 0.25266 0.47506 0.0032 0.0
O445 O 0.2927 0.48178 0.00044 0.0
O446 O 0.21759 0.47884 0.94994 0.0
O447 O 0.258 0.47706 0.94756 0.0
O448 O 0.28864 0.52828 0.95293 0.0
O449 O 0.24824 0.52982 0.95121 0.0
C450 C 0.27467 0.46967 0.01056 0.0
C451 C 0.26918 0.53851 0.94389 0.0
C452 C 0.52959 0.27427 0.95212 0.0
C453 C 0.47097 0.27768 0.03046 0.0
O454 O 0.52028 0.29382 0.96258 0.0
Zn455 Zn 0.49904 0.27756 0.99009 0.0
O456 O 0.52238 0.25309 0.96094 0.0
Zn457 Zn 0.49777 0.23759 0.99098 0.0
O458 O 0.47312 0.22087 0.96818 0.0
O459 O 0.47119 0.26151 0.96507 0.0
O460 O 0.47646 0.25578 0.02237 0.0
O461 O 0.47963 0.29629 0.01734 0.0
O462 O 0.52527 0.2597 0.01656 0.0
O463 O 0.5204 0.21911 0.01454 0.0
C464 C 0.4629 0.24016 0.95837 0.0
C465 C 0.53172 0.23791 0.02418 0.0
C466 C 0.76799 0.53896 0.0558 0.0
C467 C 0.76847 0.46853 0.99124 0.0
O468 O 0.78664 0.5285 0.04496 0.0
Zn469 Zn 0.76922 0.50341 0.02368 0.0
O470 O 0.74643 0.53093 0.05005 0.0
Zn471 Zn 0.72988 0.50297 0.02461 0.0
O472 O 0.71279 0.4823 0.0515 0.0
O473 O 0.75315 0.47984 0.05512 0.0
O474 O 0.74693 0.47549 -0.00129 0.0
O475 O 0.78725 0.47985 0.00064 0.0
O476 O 0.75172 0.52469 0.99175 0.0
O477 O 0.71154 0.52232 0.9971 0.0
C478 C 0.73168 0.47319 0.06331 0.0
C479 C 0.73005 0.53046 0.98364 0.0
H480 H 0.16606 0.30712 0.36756 0.0
H481 H 0.03778 0.24568 0.40402 0.0
H482 H 0.12818 0.25784 0.31096 0.0
H483 H 0.06257 0.31234 0.445 0.0
H484 H 0.07122 0.24957 0.37014 0.0
H485 H 0.12915 0.30882 0.39716 0.0
C486 C 0.14995 0.2967 0.36137 0.0
C487 C 0.15017 0.28223 0.33686 0.0
C488 C 0.06921 0.26354 0.3863 0.0
C489 C 0.10804 0.28409 0.3705 0.0
C490 C 0.05014 0.26132 0.40566 0.0
C491 C 0.04749 0.27868 0.42737 0.0
C492 C 0.08611 0.28299 0.38895 0.0
C493 C 0.06395 0.29862 0.42848 0.0
C494 C 0.12888 0.29784 0.37812 0.0
C495 C 0.12874 0.26933 0.3296 0.0
N496 N 0.08284 0.30005 0.40976 0.0
N497 N 0.10864 0.27037 0.34648 0.0
H498 H 0.69407 0.16003 0.38578 0.0
H499 H 0.75832 0.03943 0.44507 0.0
H500 H 0.74676 0.11715 0.33864 0.0
H501 H 0.68826 0.0638 0.47729 0.0
H502 H 0.75537 0.06982 0.40758 0.0
H503 H 0.69244 0.12699 0.42121 0.0
C504 C 0.70521 0.14363 0.38287 0.0
C505 C 0.72064 0.14131 0.35932 0.0
C506 C 0.74053 0.06849 0.42269 0.0
C507 C 0.71892 0.10371 0.39961 0.0
C508 C 0.74226 0.05122 0.44422 0.0
C509 C 0.72356 0.04923 0.46441 0.0
C510 C 0.72014 0.08427 0.42147 0.0
C511 C 0.70305 0.06479 0.46209 0.0
C512 C 0.70414 0.12477 0.40294 0.0
C513 C 0.7345 0.11962 0.35636 0.0
N514 N 0.70199 0.08194 0.44111 0.0
N515 N 0.73349 0.10179 0.3764 0.0
H516 H 0.8813 0.8134 0.32325 0.0
H517 H 0.93272 0.73132 0.44932 0.0
H518 H 0.84483 0.74832 0.35502 0.0
H519 H 0.95489 0.80732 0.43783 0.0
H520 H 0.90319 0.73596 0.41135 0.0
H521 H 0.91133 0.81019 0.36164 0.0
C522 C 0.87971 0.7984 0.33824 0.0
C523 C 0.86057 0.78111 0.33605 0.0
C524 C 0.91443 0.75168 0.41715 0.0
C525 C 0.89468 0.77732 0.37973 0.0
C526 C 0.93138 0.74904 0.43879 0.0
C527 C 0.94631 0.76898 0.44677 0.0
C528 C 0.91249 0.77436 0.40302 0.0
C529 C 0.94365 0.79151 0.43241 0.0
C530 C 0.8967 0.79669 0.36019 0.0
C531 C 0.85916 0.76216 0.3561 0.0
N532 N 0.92713 0.79357 0.41104 0.0
N533 N 0.87604 0.76071 0.377 0.0
H534 H 0.2885 0.82009 0.37047 0.0
H535 H 0.232 0.95287 0.40479 0.0
H536 H 0.23027 0.85377 0.32249 0.0
H537 H 0.30256 0.93002 0.4367 0.0
H538 H 0.23025 0.91546 0.37633 0.0
H539 H 0.29284 0.85868 0.39737 0.0
C540 C 0.27657 0.83555 0.3657 0.0
C541 C 0.25901 0.83374 0.34419 0.0
C542 C 0.24624 0.91864 0.38936 0.0
C543 C 0.26391 0.87781 0.37473 0.0
C544 C 0.24725 0.94003 0.40565 0.0
C545 C 0.26746 0.94458 0.42317 0.0
C546 C 0.2654 0.90134 0.39081 0.0
C547 C 0.2867 0.92729 0.42335 0.0
C548 C 0.2792 0.8576 0.38088 0.0
C549 C 0.2442 0.85441 0.33869 0.0
N550 N 0.28509 0.90626 0.40762 0.0
N551 N 0.24691 0.87548 0.35391 0.0
H552 H 0.14395 0.80939 0.65433 0.0
H553 H 0.0428 0.72592 0.57811 0.0
H554 H 0.13185 0.73213 0.67257 0.0
H555 H 0.04968 0.80448 0.56386 0.0
H556 H 0.07499 0.72837 0.61337 0.0
H557 H 0.10913 0.8085 0.62193 0.0
C558 C 0.13385 0.79228 0.65174 0.0
C559 C 0.1409 0.77077 0.6662 0.0
C560 C 0.06944 0.74513 0.60267 0.0
C561 C 0.1012 0.76958 0.62883 0.0
C562 C 0.05103 0.74375 0.58245 0.0
C563 C 0.04357 0.76503 0.56786 0.0
C564 C 0.08071 0.76792 0.60836 0.0
C565 C 0.05486 0.78761 0.57458 0.0
C566 C 0.11404 0.79177 0.63311 0.0
C567 C 0.12735 0.74906 0.6616 0.0
N568 N 0.07299 0.78845 0.59425 0.0
N569 N 0.10823 0.74902 0.6433 0.0
H570 H 0.29654 0.16062 0.61749 0.0
H571 H 0.24377 0.03389 0.55903 0.0
H572 H 0.24758 0.113 0.66405 0.0
H573 H 0.3082 0.0675 0.52258 0.0
H574 H 0.24525 0.06352 0.59738 0.0
H575 H 0.30141 0.12789 0.58207 0.0
C576 C 0.28692 0.14327 0.62032 0.0
C577 C 0.27155 0.13957 0.64373 0.0
C578 C 0.25926 0.06441 0.58122 0.0
C579 C 0.27707 0.1022 0.60343 0.0
C580 C 0.25836 0.04753 0.55924 0.0
C581 C 0.27579 0.04843 0.53755 0.0
C582 C 0.27748 0.08275 0.58141 0.0
C583 C 0.29446 0.06626 0.53899 0.0
C584 C 0.28986 0.12457 0.60023 0.0
C585 C 0.25977 0.11663 0.64653 0.0
N586 N 0.29463 0.08305 0.56043 0.0
N587 N 0.26261 0.09896 0.62654 0.0
H588 H 0.87168 0.30832 0.66313 0.0
H589 H 0.95156 0.22822 0.55535 0.0
H590 H 0.8599 0.23072 0.64635 0.0
H591 H 0.95565 0.30792 0.55912 0.0
H592 H 0.92083 0.22878 0.59238 0.0
H593 H 0.90488 0.30849 0.62838 0.0
C594 C 0.876 0.29133 0.65214 0.0
C595 C 0.86288 0.26946 0.65769 0.0
C596 C 0.92843 0.24618 0.5852 0.0
C597 C 0.90109 0.26951 0.61821 0.0
C598 C 0.94608 0.2459 0.56403 0.0
C599 C 0.95616 0.2681 0.55394 0.0
C600 C 0.92071 0.26882 0.59657 0.0
C601 C 0.94832 0.29038 0.56619 0.0
C602 C 0.89504 0.29144 0.63241 0.0
C603 C 0.86966 0.24793 0.64314 0.0
N604 N 0.93098 0.29019 0.58686 0.0
N605 N 0.88824 0.24853 0.62409 0.0
H606 H 0.75548 0.84762 0.67706 0.0
H607 H 0.69064 0.93271 0.56199 0.0
H608 H 0.70268 0.819 0.61758 0.0
H609 H 0.7627 0.94824 0.59524 0.0
H610 H 0.68995 0.89399 0.58896 0.0
H611 H 0.75406 0.88743 0.65305 0.0
C612 C 0.74374 0.84951 0.65885 0.0
C613 C 0.72932 0.82963 0.64932 0.0
C614 C 0.7058 0.90601 0.59044 0.0
C615 C 0.72705 0.87567 0.62231 0.0
C616 C 0.70613 0.92816 0.57527 0.0
C617 C 0.7268 0.94364 0.57632 0.0
C618 C 0.7261 0.89956 0.60711 0.0
C619 C 0.74646 0.93676 0.5937 0.0
C620 C 0.74279 0.87239 0.64532 0.0
C621 C 0.7139 0.83373 0.62604 0.0
N622 N 0.74562 0.91525 0.60843 0.0
N623 N 0.71313 0.85628 0.61341 0.0
H624 H 0.82135 0.68893 0.61731 0.0
H625 H 0.94554 0.7591 0.58003 0.0
H626 H 0.85301 0.74523 0.67034 0.0
H627 H 0.92895 0.68696 0.5462 0.0
H628 H 0.90989 0.75584 0.6109 0.0
H629 H 0.8587 0.68949 0.58827 0.0
C630 C 0.83615 0.70141 0.62278 0.0
C631 C 0.83413 0.71707 0.64623 0.0
C632 C 0.91411 0.74063 0.59688 0.0
C633 C 0.87669 0.71784 0.61321 0.0
C634 C 0.93443 0.7425 0.57919 0.0
C635 C 0.94019 0.72327 0.56049 0.0
C636 C 0.89911 0.71956 0.5956 0.0
C637 C 0.92519 0.70215 0.5604 0.0
C638 C 0.85748 0.70159 0.60637 0.0
C639 C 0.8539 0.73273 0.65258 0.0
N640 N 0.90514 0.70095 0.5775 0.0
N641 N 0.87426 0.73285 0.63606 0.0
H642 H 0.19883 0.85383 0.63159 0.0
H643 H 0.26328 0.96906 0.55885 0.0
H644 H 0.25759 0.89568 0.66948 0.0
H645 H 0.19277 0.94226 0.53099 0.0
H646 H 0.2611 0.94168 0.59924 0.0
H647 H 0.19578 0.88518 0.59446 0.0
C648 C 0.211 0.86967 0.63217 0.0
C649 C 0.22863 0.87206 0.65358 0.0
C650 C 0.24596 0.94181 0.58449 0.0
C651 C 0.22521 0.9079 0.61122 0.0
C652 C 0.24725 0.95738 0.56128 0.0
C653 C 0.22827 0.95775 0.54137 0.0
C654 C 0.2257 0.92606 0.58779 0.0
C655 C 0.2078 0.94248 0.54586 0.0
C656 C 0.20913 0.8876 0.61108 0.0
C657 C 0.24366 0.89312 0.65353 0.0
N658 N 0.20718 0.92695 0.56848 0.0
N659 N 0.24177 0.91005 0.63255 0.0
H660 H 0.17283 0.25213 0.60639 0.0
H661 H 0.04902 0.19027 0.54955 0.0
H662 H 0.13326 0.19677 0.65376 0.0
H663 H 0.07479 0.26259 0.52501 0.0
H664 H 0.08408 0.18687 0.58204 0.0
H665 H 0.141 0.25067 0.57045 0.0
C666 C 0.15744 0.23971 0.60934 0.0
C667 C 0.15562 0.22484 0.63345 0.0
C668 C 0.08204 0.20337 0.56934 0.0
C669 C 0.11932 0.22269 0.5919 0.0
C670 C 0.06219 0.20525 0.55076 0.0
C671 C 0.05895 0.22682 0.53481 0.0
C672 C 0.09888 0.223 0.57142 0.0
C673 C 0.07645 0.24575 0.53717 0.0
C674 C 0.13936 0.23878 0.58868 0.0
C675 C 0.13556 0.20851 0.63552 0.0
N676 N 0.09563 0.24339 0.55511 0.0
N677 N 0.11812 0.20795 0.61507 0.0
H678 H 0.7328 0.14443 0.684 0.0
H679 H 0.80416 0.06318 0.56898 0.0
H680 H 0.79855 0.16987 0.64234 0.0
H681 H 0.73017 0.04852 0.59705 0.0
H682 H 0.80531 0.09959 0.5999 0.0
H683 H 0.73434 0.10652 0.65621 0.0
C684 C 0.74766 0.14197 0.66909 0.0
C685 C 0.76557 0.16036 0.6655 0.0
C686 C 0.7889 0.08828 0.59934 0.0
C687 C 0.76743 0.11691 0.63344 0.0
C688 C 0.7883 0.06742 0.58187 0.0
C689 C 0.767 0.05284 0.58035 0.0
C690 C 0.76817 0.09437 0.61558 0.0
C691 C 0.74693 0.05929 0.59739 0.0
C692 C 0.74847 0.12036 0.65312 0.0
C693 C 0.78423 0.15628 0.64557 0.0
N694 N 0.748 0.07954 0.61423 0.0
N695 N 0.78472 0.13495 0.63033 0.0
H696 H 0.85616 0.20509 0.32785 0.0
H697 H 0.93043 0.27133 0.44999 0.0
H698 H 0.82415 0.26035 0.38238 0.0
H699 H 0.94987 0.19832 0.42071 0.0
H700 H 0.89349 0.26989 0.4212 0.0
H701 H 0.89244 0.20417 0.35803 0.0
C702 C 0.85657 0.21688 0.34625 0.0
C703 C 0.83692 0.23289 0.35243 0.0
C704 C 0.90578 0.25414 0.42111 0.0
C705 C 0.87878 0.23228 0.38662 0.0
C706 C 0.92696 0.25498 0.43742 0.0
C707 C 0.9433 0.23491 0.43771 0.0
C708 C 0.90097 0.23324 0.40455 0.0
C709 C 0.93772 0.21417 0.42114 0.0
C710 C 0.87739 0.21639 0.36337 0.0
C711 C 0.83892 0.24807 0.37631 0.0
N712 N 0.91707 0.21393 0.40502 0.0
N713 N 0.8595 0.2475 0.39238 0.0
H714 H 0.73167 0.88984 0.33336 0.0
H715 H 0.80695 0.9497 0.46096 0.0
H716 H 0.80664 0.86943 0.35152 0.0
H717 H 0.72819 0.95364 0.45139 0.0
H718 H 0.80885 0.92323 0.41888 0.0
H719 H 0.73174 0.91674 0.3744 0.0
C720 C 0.74814 0.89092 0.34604 0.0
C721 C 0.7691 0.87713 0.33904 0.0
C722 C 0.7912 0.92991 0.42614 0.0
C723 C 0.76942 0.90829 0.3861 0.0
C724 C 0.79011 0.94499 0.45011 0.0
C725 C 0.76739 0.95388 0.4598 0.0
C726 C 0.76945 0.92398 0.41171 0.0
C727 C 0.74614 0.94722 0.44488 0.0
C728 C 0.74821 0.90639 0.36945 0.0
C729 C 0.79012 0.87985 0.35595 0.0
N730 N 0.74773 0.9328 0.42164 0.0
N731 N 0.78973 0.89508 0.37876 0.0
H732 H 0.16518 0.6975 0.38757 0.0
H733 H 0.0395 0.76064 0.4314 0.0
H734 H 0.12743 0.75038 0.33499 0.0
H735 H 0.06025 0.68899 0.46342 0.0
H736 H 0.0738 0.759 0.39849 0.0
H737 H 0.12901 0.69567 0.41811 0.0
C738 C 0.14932 0.70862 0.38227 0.0
C739 C 0.14955 0.72426 0.35863 0.0
C740 C 0.07079 0.74353 0.41255 0.0
C741 C 0.1083 0.7225 0.39389 0.0
C742 C 0.05126 0.74448 0.43141 0.0
C743 C 0.04708 0.72493 0.4502 0.0
C744 C 0.08663 0.72309 0.41274 0.0
C745 C 0.06281 0.70439 0.44918 0.0
C746 C 0.12871 0.70757 0.3998 0.0
C747 C 0.12849 0.73849 0.35325 0.0
N748 N 0.08213 0.70411 0.43094 0.0
N749 N 0.10884 0.73738 0.37082 0.0
H750 H 0.20408 0.17133 0.35026 0.0
H751 H 0.273 0.05011 0.40587 0.0
H752 H 0.2777 0.15028 0.32652 0.0
H753 H 0.19789 0.06698 0.42768 0.0
H754 H 0.27393 0.0861 0.37529 0.0
H755 H 0.20043 0.13292 0.37733 0.0
C756 C 0.21943 0.15861 0.35058 0.0
C757 C 0.24132 0.16422 0.33619 0.0
C758 C 0.25715 0.08195 0.38658 0.0
C759 C 0.23727 0.12025 0.36731 0.0
C760 C 0.25658 0.06132 0.4041 0.0
C761 C 0.23535 0.05552 0.41954 0.0
C762 C 0.23639 0.09722 0.38447 0.0
C763 C 0.21464 0.07072 0.41616 0.0
C764 C 0.21734 0.13671 0.36613 0.0
C765 C 0.26065 0.14708 0.33766 0.0
N766 N 0.21573 0.09101 0.39915 0.0
N767 N 0.25817 0.126 0.35293 0.0
H768 H 0.63353 0.68375 0.8456 0.0
H769 H 0.53797 0.76913 0.92725 0.0
H770 H 0.60964 0.75534 0.81623 0.0
H771 H 0.54833 0.69209 0.94793 0.0
H772 H 0.5649 0.7641 0.88689 0.0
H773 H 0.60273 0.6858 0.88309 0.0
C774 C 0.6216 0.69975 0.84678 0.0
C775 C 0.62431 0.71951 0.82785 0.0
C776 C 0.56124 0.74821 0.90011 0.0
C777 C 0.58938 0.72211 0.87094 0.0
C778 C 0.54592 0.75109 0.9233 0.0
C779 C 0.54099 0.73101 0.94111 0.0
C780 C 0.572 0.72512 0.8947 0.0
C781 C 0.55168 0.70806 0.93474 0.0
C782 C 0.60413 0.70094 0.86829 0.0
C783 C 0.60856 0.7399 0.83065 0.0
N784 N 0.56687 0.70576 0.91212 0.0
N785 N 0.59192 0.74073 0.85189 0.0
H786 H 0.23608 0.68061 0.87121 0.0
H787 H 0.30793 0.55718 0.9129 0.0
H788 H 0.29672 0.65349 0.82156 0.0
H789 H 0.23236 0.5715 0.93506 0.0
H790 H 0.30796 0.59516 0.88429 0.0
H791 H 0.23859 0.64359 0.90054 0.0
C792 C 0.25009 0.66695 0.86666 0.0
C793 C 0.26619 0.67009 0.8439 0.0
C794 C 0.29142 0.58986 0.89544 0.0
C795 C 0.26915 0.62762 0.87737 0.0
C796 C 0.2914 0.56828 0.91178 0.0
C797 C 0.27008 0.56109 0.92627 0.0
C798 C 0.27013 0.60451 0.89413 0.0
C799 C 0.24917 0.57617 0.92409 0.0
C800 C 0.2514 0.64575 0.88327 0.0
C801 C 0.28382 0.65165 0.83878 0.0
N802 N 0.24978 0.59717 0.9085 0.0
N803 N 0.2849 0.63119 0.85545 0.0
H804 H 0.34877 0.19829 0.84016 0.0
H805 H 0.4336 0.27817 0.94208 0.0
H806 H 0.33328 0.27362 0.86457 0.0
H807 H 0.44223 0.19918 0.93292 0.0
H808 H 0.39777 0.27662 0.91194 0.0
H809 H 0.38354 0.19792 0.87265 0.0
C810 C 0.3525 0.21468 0.85252 0.0
C811 C 0.33807 0.23608 0.84953 0.0
C812 C 0.40739 0.25957 0.91651 0.0
C813 C 0.3781 0.23583 0.88638 0.0
C814 C 0.42799 0.26042 0.93368 0.0
C815 C 0.44105 0.23875 0.93999 0.0
C816 C 0.39972 0.23689 0.90525 0.0
C817 C 0.43271 0.21633 0.92858 0.0
C818 C 0.37245 0.21446 0.87096 0.0
C819 C 0.34409 0.25687 0.86577 0.0
N820 N 0.41258 0.21598 0.9116 0.0
N821 N 0.36367 0.25623 0.88338 0.0
H822 H 0.80387 0.37565 0.84806 0.0
H823 H 0.73453 0.43307 0.98079 0.0
H824 H 0.7377 0.34546 0.88446 0.0
H825 H 0.80711 0.45673 0.95608 0.0
H826 H 0.73596 0.40087 0.94522 0.0
H827 H 0.8058 0.4058 0.8866 0.0
C828 C 0.78976 0.37537 0.86414 0.0
C829 C 0.77059 0.35801 0.86305 0.0
C830 C 0.7517 0.41294 0.94759 0.0
C831 C 0.77275 0.39227 0.90713 0.0
C832 C 0.75088 0.4314 0.96791 0.0
C833 C 0.77069 0.44771 0.97129 0.0
C834 C 0.77238 0.41081 0.93013 0.0
C835 C 0.79147 0.4445 0.95416 0.0
C836 C 0.79098 0.39244 0.8862 0.0
C837 C 0.75296 0.35829 0.88459 0.0
N838 N 0.79169 0.42652 0.93406 0.0
N839 N 0.75442 0.37519 0.9056 0.0
H840 H 0.64869 0.27405 0.13787 0.0
H841 H 0.54602 0.19697 0.05486 0.0
H842 H 0.63116 0.19819 0.15776 0.0
H843 H 0.5639 0.27363 0.03966 0.0
H844 H 0.57852 0.19554 0.0907 0.0
H845 H 0.61865 0.27299 0.10008 0.0
C846 C 0.63837 0.2572 0.13439 0.0
C847 C 0.64228 0.23626 0.15114 0.0
C848 C 0.57531 0.21259 0.07936 0.0
C849 C 0.60794 0.23474 0.10756 0.0
C850 C 0.55686 0.21338 0.05889 0.0
C851 C 0.55211 0.23549 0.04444 0.0
C852 C 0.58904 0.23403 0.08519 0.0
C853 C 0.56668 0.25623 0.05046 0.0
C854 C 0.62131 0.25652 0.11265 0.0
C855 C 0.62878 0.21472 0.14523 0.0
N856 N 0.58436 0.25499 0.07038 0.0
N857 N 0.6121 0.21453 0.12396 0.0
H858 H 0.7432 0.65675 0.1754 0.0
H859 H 0.80624 0.57207 0.05808 0.0
H860 H 0.79601 0.6855 0.11586 0.0
H861 H 0.73523 0.55637 0.09431 0.0
H862 H 0.80764 0.6108 0.08514 0.0
H863 H 0.74456 0.61703 0.15123 0.0
C864 C 0.75495 0.65488 0.15714 0.0
C865 C 0.76931 0.6748 0.14758 0.0
C866 C 0.79185 0.59874 0.08722 0.0
C867 C 0.77147 0.62886 0.12029 0.0
C868 C 0.79113 0.57661 0.07198 0.0
C869 C 0.77054 0.56107 0.07388 0.0
C870 C 0.77205 0.60508 0.10479 0.0
C871 C 0.75138 0.5679 0.09206 0.0
C872 C 0.75585 0.63206 0.1435 0.0
C873 C 0.78477 0.67074 0.12427 0.0
N874 N 0.75261 0.58936 0.10682 0.0
N875 N 0.78545 0.64825 0.11145 0.0
H876 H 0.36505 0.69442 0.17632 0.0
H877 H 0.43459 0.7724 0.05963 0.0
H878 H 0.33053 0.75303 0.12892 0.0
H879 H 0.45417 0.69636 0.0759 0.0
H880 H 0.39954 0.76806 0.0911 0.0
H881 H 0.40047 0.69661 0.14464 0.0
C882 C 0.36472 0.70758 0.15917 0.0
C883 C 0.34469 0.7237 0.15552 0.0
C884 C 0.41151 0.75232 0.08781 0.0
C885 C 0.38552 0.72666 0.11979 0.0
C886 C 0.43166 0.75481 0.07001 0.0
C887 C 0.44736 0.73468 0.0651 0.0
C888 C 0.40713 0.72965 0.10121 0.0
C889 C 0.44248 0.71231 0.07905 0.0
C890 C 0.38504 0.70887 0.14123 0.0
C891 C 0.34567 0.74063 0.13313 0.0
N892 N 0.4228 0.7104 0.09663 0.0
N893 N 0.3658 0.7418 0.11632 0.0
H894 H 0.25166 0.34147 0.11427 0.0
H895 H 0.31077 0.46494 0.05073 0.0
H896 H 0.2963 0.39069 0.16428 0.0
H897 H 0.24621 0.42913 0.01757 0.0
H898 H 0.31236 0.43359 0.08833 0.0
H899 H 0.25605 0.36947 0.0745 0.0
C900 C 0.26227 0.35824 0.11701 0.0
C901 C 0.27321 0.36391 0.14295 0.0
C902 C 0.29803 0.43256 0.07261 0.0
C903 C 0.27881 0.39584 0.09703 0.0
C904 C 0.29723 0.45027 0.05111 0.0
C905 C 0.27825 0.44964 0.0312 0.0
C906 C 0.27998 0.41397 0.07371 0.0
C907 C 0.26102 0.4304 0.03268 0.0
C908 C 0.26493 0.37413 0.09417 0.0
C909 C 0.28752 0.38552 0.14475 0.0
N910 N 0.26229 0.41338 0.05355 0.0
N911 N 0.28982 0.40079 0.12212 0.0
H912 H 0.34399 0.30703 0.13361 0.0
H913 H 0.4658 0.24571 0.07382 0.0
H914 H 0.38363 0.24931 0.17665 0.0
H915 H 0.43866 0.31548 0.0428 0.0
H916 H 0.43579 0.24719 0.11175 0.0
H917 H 0.37802 0.31081 0.1001 0.0
C918 C 0.35989 0.29517 0.13601 0.0
C919 C 0.36091 0.27764 0.15778 0.0
C920 C 0.43648 0.26234 0.09688 0.0
C921 C 0.39987 0.28195 0.11963 0.0
C922 C 0.45358 0.26148 0.07514 0.0
C923 C 0.45457 0.28043 0.05502 0.0
C924 C 0.41985 0.28211 0.09836 0.0
C925 C 0.43848 0.30052 0.05792 0.0
C926 C 0.37935 0.29748 0.11702 0.0
C927 C 0.3821 0.26308 0.16023 0.0
N928 N 0.42149 0.30068 0.079 0.0
N929 N 0.40061 0.26539 0.14122 0.0
H930 H 0.76158 0.36608 0.19408 0.0
H931 H 0.69227 0.44286 0.0741 0.0
H932 H 0.70005 0.33686 0.14769 0.0
H933 H 0.7662 0.4586 0.10133 0.0
H934 H 0.69113 0.40755 0.10652 0.0
H935 H 0.75993 0.40365 0.16545 0.0
C936 C 0.74763 0.36765 0.17796 0.0
C937 C 0.73098 0.3483 0.17317 0.0
C938 C 0.70751 0.41887 0.10549 0.0
C939 C 0.72893 0.39126 0.14041 0.0
C940 C 0.70811 0.43911 0.08717 0.0
C941 C 0.7294 0.45363 0.08493 0.0
C942 C 0.72822 0.41336 0.12193 0.0
C943 C 0.74946 0.44782 0.10223 0.0
C944 C 0.74676 0.38903 0.16157 0.0
C945 C 0.7134 0.35123 0.15184 0.0
N946 N 0.74838 0.42816 0.11996 0.0
N947 N 0.71278 0.37234 0.13628 0.0
H948 H 0.64896 0.82106 0.15186 0.0
H949 H 0.56735 0.73784 0.04995 0.0
H950 H 0.67408 0.75245 0.11556 0.0
H951 H 0.55209 0.8153 0.06328 0.0
H952 H 0.6048 0.74204 0.07745 0.0
H953 H 0.61185 0.81863 0.12277 0.0
C954 C 0.64667 0.80552 0.13773 0.0
C955 C 0.66461 0.7869 0.13613 0.0
C956 C 0.59332 0.75816 0.07434 0.0
C957 C 0.62222 0.78395 0.10301 0.0
C958 C 0.57181 0.75576 0.05875 0.0
C959 C 0.55647 0.77626 0.05431 0.0
C960 C 0.59954 0.78116 0.08598 0.0
C961 C 0.56337 0.79903 0.06614 0.0
C962 C 0.62557 0.80421 0.12107 0.0
C963 C 0.66083 0.7673 0.11729 0.0
N964 N 0.58436 0.80085 0.08159 0.0
N965 N 0.63999 0.76624 0.10166 0.0
H966 H 0.20089 0.65091 0.12923 0.0
H967 H 0.26533 0.5345 0.05969 0.0
H968 H 0.25556 0.60684 0.17151 0.0
H969 H 0.19447 0.55982 0.03126 0.0
H970 H 0.26263 0.56249 0.09964 0.0
H971 H 0.19865 0.61949 0.09199 0.0
C972 C 0.21232 0.63458 0.13073 0.0
C973 C 0.22851 0.63151 0.15345 0.0
C974 C 0.24754 0.56186 0.08485 0.0
C975 C 0.22611 0.59569 0.11099 0.0
C976 C 0.24911 0.54595 0.06194 0.0
C977 C 0.23014 0.54495 0.04205 0.0
C978 C 0.22704 0.57733 0.0878 0.0
C979 C 0.20947 0.56003 0.04617 0.0
C980 C 0.21092 0.61662 0.10959 0.0
C981 C 0.24272 0.6099 0.15451 0.0
N982 N 0.20858 0.5759 0.06846 0.0
N983 N 0.24137 0.59298 0.13346 0.0
H984 H 0.34583 0.74083 0.85825 0.0
H985 H 0.4462 0.8163 0.9468 0.0
H986 H 0.35717 0.81932 0.84799 0.0
H987 H 0.4353 0.73729 0.9512 0.0
H988 H 0.41292 0.81877 0.91203 0.0
H989 H 0.37801 0.74007 0.89361 0.0
C990 C 0.35525 0.75791 0.86326 0.0
C991 C 0.34892 0.78012 0.84985 0.0
C992 C 0.41786 0.80094 0.9207 0.0
C993 C 0.38577 0.77949 0.89091 0.0
C994 C 0.4368 0.79952 0.94056 0.0
C995 C 0.44363 0.77655 0.9519 0.0
C996 C 0.40568 0.77923 0.91226 0.0
C997 C 0.43082 0.75541 0.94302 0.0
C998 C 0.37356 0.75751 0.88365 0.0
C999 C 0.36137 0.80179 0.85786 0.0
N1000 N 0.41256 0.75729 0.9238 0.0
N1001 N 0.37928 0.80093 0.87782 0.0
H1002 H 0.19878 0.35595 0.81609 0.0
H1003 H 0.27435 0.4389 0.9239 0.0
H1004 H 0.26419 0.331 0.85849 0.0
H1005 H 0.19679 0.45067 0.91075 0.0
H1006 H 0.2724 0.40233 0.8942 0.0
H1007 H 0.19896 0.39343 0.84547 0.0
C1008 C 0.21313 0.35836 0.83159 0.0
C1009 C 0.23147 0.34033 0.83494 0.0
C1010 C 0.25579 0.4129 0.89775 0.0
C1011 C 0.23194 0.38311 0.86818 0.0
C1012 C 0.25689 0.43394 0.91459 0.0
C1013 C 0.23567 0.44796 0.91989 0.0
C1014 C 0.23339 0.40581 0.88569 0.0
C1015 C 0.21358 0.4404 0.90728 0.0
C1016 C 0.21316 0.37965 0.84837 0.0
C1017 C 0.24958 0.34429 0.8554 0.0
N1018 N 0.21302 0.41985 0.89063 0.0
N1019 N 0.24946 0.36531 0.87106 0.0
H1020 H 0.63564 0.3077 0.81961 0.0
H1021 H 0.55935 0.23643 0.93646 0.0
H1022 H 0.66396 0.24571 0.86684 0.0
H1023 H 0.54659 0.31406 0.92092 0.0
H1024 H 0.59415 0.23759 0.90454 0.0
H1025 H 0.59997 0.30889 0.85112 0.0
C1026 C 0.63454 0.29443 0.8366 0.0
C1027 C 0.65294 0.27642 0.8403 0.0
C1028 C 0.58376 0.2544 0.90805 0.0
C1029 C 0.61183 0.27744 0.8759 0.0
C1030 C 0.56373 0.25376 0.92618 0.0
C1031 C 0.54997 0.27523 0.93147 0.0
C1032 C 0.5901 0.27658 0.89466 0.0
C1033 C 0.55674 0.29711 0.91752 0.0
C1034 C 0.61409 0.29511 0.85447 0.0
C1035 C 0.65012 0.25953 0.86253 0.0
N1036 N 0.57634 0.29722 0.89959 0.0
N1037 N 0.62994 0.26036 0.87927 0.0
H1038 H 0.68958 0.6439 0.86329 0.0
H1039 H 0.76416 0.5386 0.94305 0.0
H1040 H 0.75441 0.60876 0.82967 0.0
H1041 H 0.69002 0.55797 0.96651 0.0
H1042 H 0.76107 0.56559 0.90237 0.0
H1043 H 0.68951 0.61405 0.90214 0.0
C1044 C 0.70377 0.62988 0.86408 0.0
C1045 C 0.72211 0.62885 0.84328 0.0
C1046 C 0.74538 0.56391 0.91627 0.0
C1047 C 0.72211 0.59475 0.88757 0.0
C1048 C 0.74716 0.54855 0.93963 0.0
C1049 C 0.72735 0.54613 0.95834 0.0
C1050 C 0.72373 0.5773 0.91158 0.0
C1051 C 0.70572 0.55931 0.95261 0.0
C1052 C 0.70361 0.61278 0.88613 0.0
C1053 C 0.73984 0.61013 0.84511 0.0
N1054 N 0.70455 0.57456 0.92982 0.0
N1055 N 0.73951 0.59397 0.86696 0.0
loop_
_geom_bond_atom_site_label_1
_geom_bond_atom_site_label_2
_geom_bond_distance
_geom_bond_site_symmetry_2
_ccdc_geom_bond_type
C0 C1 1.384 . S
C0 C2 1.384 . S
C0 H28 0.931 . S
C1 C0 1.384 . S
C1 C4 1.382 . S
C2 C0 1.384 . S
C2 C3 1.381 . S
C2 H29 0.930 . S
C3 C2 1.381 . S
C3 C5 1.381 . S
C3 C6 1.487 . S
C4 C1 1.382 . S
C4 C5 1.387 . S
C4 H30 0.930 . S
C5 C3 1.381 . S
C5 C4 1.387 . S
C5 H31 0.931 . S
C6 C3 1.487 . S
C6 C13 1.399 . S
C6 N44 1.343 . S
C7 C8 1.384 . S
C7 C9 1.384 . S
C7 H32 0.931 . S
C8 C7 1.384 . S
C8 C11 1.382 . S
C9 C7 1.384 . S
C9 C10 1.381 . S
C9 H33 0.930 . S
C10 C9 1.381 . S
C10 C12 1.381 . S
C10 C13 1.487 . S
C11 C8 1.382 . S
C11 C12 1.387 . S
C11 H34 0.930 . S
C12 C10 1.381 . S
C12 C11 1.387 . S
C12 H35 0.931 . S
C13 C6 1.399 . S
C13 C10 1.487 . S
C13 N45 1.343 . S
C14 C15 1.384 . S
C14 C16 1.384 . S
C14 H36 0.931 . S
C15 C14 1.384 . S
C15 C18 1.382 . S
C16 C14 1.384 . S
C16 C17 1.381 . S
C16 H37 0.930 . S
C17 C16 1.381 . S
C17 C19 1.381 . S
C17 C20 1.487 . S
C18 C15 1.382 . S
C18 C19 1.387 . S
C18 H38 0.930 . S
C19 C17 1.381 . S
C19 C18 1.387 . S
C19 H39 0.931 . S
C20 C17 1.487 . S
C20 C27 1.399 . S
C20 N45 1.343 . S
C21 C22 1.384 . S
C21 C23 1.384 . S
C21 H40 0.931 . S
C22 C21 1.384 . S
C22 C25 1.382 . S
C23 C21 1.384 . S
C23 C24 1.381 . S
C23 H41 0.930 . S
C24 C23 1.381 . S
C24 C26 1.381 . S
C24 C27 1.487 . S
C25 C22 1.382 . S
C25 C26 1.387 . S
C25 H42 0.930 . S
C26 C24 1.381 . S
C26 C25 1.387 . S
C26 H43 0.931 . S
C27 C20 1.399 . S
C27 C24 1.487 . S
C27 N44 1.343 . S
H28 C0 0.931 . S
H29 C2 0.930 . S
H30 C4 0.930 . S
H31 C5 0.931 . S
H32 C7 0.931 . S
H33 C9 0.930 . S
H34 C11 0.930 . S
H35 C12 0.931 . S
H36 C14 0.931 . S
H37 C16 0.930 . S
H38 C18 0.930 . S
H39 C19 0.931 . S
H40 C21 0.931 . S
H41 C23 0.930 . S
H42 C25 0.930 . S
H43 C26 0.931 . S
N44 C6 1.343 . S
N44 C27 1.343 . S
N45 C13 1.343 . S
N45 C20 1.343 . S
C46 C47 1.384 . S
C46 C48 1.384 . S
C46 H74 0.931 . S
C47 C46 1.384 . S
C47 C50 1.382 . S
C48 C46 1.384 . S
C48 C49 1.381 . S
C48 H75 0.930 . S
C49 C48 1.381 . S
C49 C51 1.381 . S
C49 C52 1.487 . S
C50 C47 1.382 . S
C50 C51 1.387 . S
C50 H76 0.930 . S
C51 C49 1.381 . S
C51 C50 1.387 . S
C51 H77 0.931 . S
C52 C49 1.487 . S
C52 C59 1.399 . S
C52 N90 1.343 . S
C53 C54 1.384 . S
C53 C55 1.384 . S
C53 H78 0.931 . S
C54 C53 1.384 . S
C54 C57 1.382 . S
C55 C53 1.384 . S
C55 C56 1.381 . S
C55 H79 0.930 . S
C56 C55 1.381 . S
C56 C58 1.381 . S
C56 C59 1.487 . S
C57 C54 1.382 . S
C57 C58 1.387 . S
C57 H80 0.930 . S
C58 C56 1.381 . S
C58 C57 1.387 . S
C58 H81 0.931 . S
C59 C52 1.399 . S
C59 C56 1.487 . S
C59 N91 1.343 . S
C60 C61 1.384 . S
C60 C62 1.384 . S
C60 H82 0.931 . S
C61 C60 1.384 . S
C61 C64 1.382 . S
C62 C60 1.384 . S
C62 C63 1.381 . S
C62 H83 0.930 . S
C63 C62 1.381 . S
C63 C65 1.381 . S
C63 C66 1.487 . S
C64 C61 1.382 . S
C64 C65 1.387 . S
C64 H84 0.930 . S
C65 C63 1.381 . S
C65 C64 1.387 . S
C65 H85 0.931 . S
C66 C63 1.487 . S
C66 C73 1.399 . S
C66 N91 1.343 . S
C67 C68 1.384 . S
C67 C69 1.384 . S
C67 H86 0.931 . S
C68 C67 1.384 . S
C68 C71 1.382 . S
C69 C67 1.384 . S
C69 C70 1.381 . S
C69 H87 0.930 . S
C70 C69 1.381 . S
C70 C72 1.381 . S
C70 C73 1.487 . S
C71 C68 1.382 . S
C71 C72 1.387 . S
C71 H88 0.930 . S
C72 C70 1.381 . S
C72 C71 1.387 . S
C72 H89 0.931 . S
C73 C66 1.399 . S
C73 C70 1.487 . S
C73 N90 1.343 . S
H74 C46 0.931 . S
H75 C48 0.930 . S
H76 C50 0.930 . S
H77 C51 0.931 . S
H78 C53 0.931 . S
H79 C55 0.930 . S
H80 C57 0.930 . S
H81 C58 0.931 . S
H82 C60 0.931 . S
H83 C62 0.930 . S
H84 C64 0.930 . S
H85 C65 0.931 . S
H86 C67 0.931 . S
H87 C69 0.930 . S
H88 C71 0.930 . S
H89 C72 0.931 . S
N90 C52 1.343 . S
N90 C73 1.343 . S
N91 C59 1.343 . S
N91 C66 1.343 . S
C92 C93 1.384 . S
C92 C94 1.384 . S
C92 H120 0.931 . S
C93 C92 1.384 . S
C93 C96 1.382 . S
C94 C92 1.384 . S
C94 C95 1.381 . S
C94 H121 0.930 . S
C95 C94 1.381 . S
C95 C97 1.381 . S
C95 C98 1.487 . S
C96 C93 1.382 . S
C96 C97 1.387 . S
C96 H122 0.930 . S
C97 C95 1.381 . S
C97 C96 1.387 . S
C97 H123 0.931 . S
C98 C95 1.487 . S
C98 C105 1.399 . S
C98 N136 1.343 . S
C99 C100 1.384 . S
C99 C101 1.384 . S
C99 H124 0.931 . S
C100 C99 1.384 . S
C100 C103 1.382 . S
C101 C99 1.384 . S
C101 C102 1.381 . S
C101 H125 0.930 . S
C102 C101 1.381 . S
C102 C104 1.381 . S
C102 C105 1.487 . S
C103 C100 1.382 . S
C103 C104 1.387 . S
C103 H126 0.930 . S
C104 C102 1.381 . S
C104 C103 1.387 . S
C104 H127 0.931 . S
C105 C98 1.399 . S
C105 C102 1.487 . S
C105 N137 1.343 . S
C106 C107 1.384 . S
C106 C108 1.384 . S
C106 H128 0.931 . S
C107 C106 1.384 . S
C107 C110 1.382 . S
C108 C106 1.384 . S
C108 C109 1.381 . S
C108 H129 0.930 . S
C109 C108 1.381 . S
C109 C111 1.381 . S
C109 C112 1.487 . S
C110 C107 1.382 . S
C110 C111 1.387 . S
C110 H130 0.930 . S
C111 C109 1.381 . S
C111 C110 1.387 . S
C111 H131 0.931 . S
C112 C109 1.487 . S
C112 C119 1.399 . S
C112 N137 1.343 . S
C113 C114 1.384 . S
C113 C115 1.384 . S
C113 H132 0.931 . S
C114 C113 1.384 . S
C114 C117 1.382 . S
C115 C113 1.384 . S
C115 C116 1.381 . S
C115 H133 0.930 . S
C116 C115 1.381 . S
C116 C118 1.381 . S
C116 C119 1.487 . S
C117 C114 1.382 . S
C117 C118 1.387 . S
C117 H134 0.930 . S
C118 C116 1.381 . S
C118 C117 1.387 . S
C118 H135 0.931 . S
C119 C112 1.399 . S
C119 C116 1.487 . S
C119 N136 1.343 . S
H120 C92 0.931 . S
H121 C94 0.930 . S
H122 C96 0.930 . S
H123 C97 0.931 . S
H124 C99 0.931 . S
H125 C101 0.930 . S
H126 C103 0.930 . S
H127 C104 0.931 . S
H128 C106 0.931 . S
H129 C108 0.930 . S
H130 C110 0.930 . S
H131 C111 0.931 . S
H132 C113 0.931 . S
H133 C115 0.930 . S
H134 C117 0.930 . S
H135 C118 0.931 . S
N136 C98 1.343 . S
N136 C119 1.343 . S
N137 C105 1.343 . S
N137 C112 1.343 . S
C138 C139 1.384 . S
C138 C140 1.384 . S
C138 H166 0.931 . S
C139 C138 1.384 . S
C139 C142 1.382 . S
C140 C138 1.384 . S
C140 C141 1.381 . S
C140 H167 0.930 . S
C141 C140 1.381 . S
C141 C143 1.381 . S
C141 C144 1.487 . S
C142 C139 1.382 . S
C142 C143 1.387 . S
C142 H168 0.930 . S
C143 C141 1.381 . S
C143 C142 1.387 . S
C143 H169 0.931 . S
C144 C141 1.487 . S
C144 C151 1.399 . S
C144 N182 1.343 . S
C145 C146 1.384 . S
C145 C147 1.384 . S
C145 H170 0.931 . S
C146 C145 1.384 . S
C146 C149 1.382 . S
C147 C145 1.384 . S
C147 C148 1.381 . S
C147 H171 0.930 . S
C148 C147 1.381 . S
C148 C150 1.381 . S
C148 C151 1.487 . S
C149 C146 1.382 . S
C149 C150 1.387 . S
C149 H172 0.930 . S
C150 C148 1.381 . S
C150 C149 1.387 . S
C150 H173 0.931 . S
C151 C144 1.399 . S
C151 C148 1.487 . S
C151 N183 1.343 . S
C152 C153 1.384 . S
C152 C154 1.384 . S
C152 H174 0.931 . S
C153 C152 1.384 . S
C153 C156 1.382 . S
C154 C152 1.384 . S
C154 C155 1.381 . S
C154 H175 0.930 . S
C155 C154 1.381 . S
C155 C157 1.381 . S
C155 C158 1.487 . S
C156 C153 1.382 . S
C156 C157 1.387 . S
C156 H176 0.930 . S
C157 C155 1.381 . S
C157 C156 1.387 . S
C157 H177 0.931 . S
C158 C155 1.487 . S
C158 C165 1.399 . S
C158 N183 1.343 . S
C159 C160 1.384 . S
C159 C161 1.384 . S
C159 H178 0.931 . S
C160 C159 1.384 . S
C160 C163 1.382 . S
C161 C159 1.384 . S
C161 C162 1.381 . S
C161 H179 0.930 . S
C162 C161 1.381 . S
C162 C164 1.381 . S
C162 C165 1.487 . S
C163 C160 1.382 . S
C163 C164 1.387 . S
C163 H180 0.930 . S
C164 C162 1.381 . S
C164 C163 1.387 . S
C164 H181 0.931 . S
C165 C158 1.399 . S
C165 C162 1.487 . S
C165 N182 1.343 . S
H166 C138 0.931 . S
H167 C140 0.930 . S
H168 C142 0.930 . S
H169 C143 0.931 . S
H170 C145 0.931 . S
H171 C147 0.930 . S
H172 C149 0.930 . S
H173 C150 0.931 . S
H174 C152 0.931 . S
H175 C154 0.930 . S
H176 C156 0.930 . S
H177 C157 0.931 . S
H178 C159 0.931 . S
H179 C161 0.930 . S
H180 C163 0.930 . S
H181 C164 0.931 . S
N182 C144 1.343 . S
N182 C165 1.343 . S
N183 C151 1.343 . S
N183 C158 1.343 . S
C184 C185 1.384 . S
C184 C186 1.384 . S
C184 H212 0.931 . S
C185 C184 1.384 . S
C185 C188 1.382 . S
C186 C184 1.384 . S
C186 C187 1.381 . S
C186 H213 0.930 . S
C187 C186 1.381 . S
C187 C189 1.381 . S
C187 C190 1.487 . S
C188 C185 1.382 . S
C188 C189 1.387 . S
C188 H214 0.930 . S
C189 C187 1.381 . S
C189 C188 1.387 . S
C189 H215 0.931 . S
C190 C187 1.487 . S
C190 C197 1.399 . S
C190 N228 1.343 . S
C191 C192 1.384 . S
C191 C193 1.384 . S
C191 H216 0.931 . S
C192 C191 1.384 . S
C192 C195 1.382 . S
C193 C191 1.384 . S
C193 C194 1.381 . S
C193 H217 0.930 . S
C194 C193 1.381 . S
C194 C196 1.381 . S
C194 C197 1.487 . S
C195 C192 1.382 . S
C195 C196 1.387 . S
C195 H218 0.930 . S
C196 C194 1.381 . S
C196 C195 1.387 . S
C196 H219 0.931 . S
C197 C190 1.399 . S
C197 C194 1.487 . S
C197 N229 1.343 . S
C198 C199 1.384 . S
C198 C200 1.384 . S
C198 H220 0.931 . S
C199 C198 1.384 . S
C199 C202 1.382 . S
C200 C198 1.384 . S
C200 C201 1.381 . S
C200 H221 0.930 . S
C201 C200 1.381 . S
C201 C203 1.381 . S
C201 C204 1.487 . S
C202 C199 1.382 . S
C202 C203 1.387 . S
C202 H222 0.930 . S
C203 C201 1.381 . S
C203 C202 1.387 . S
C203 H223 0.931 . S
C204 C201 1.487 . S
C204 C211 1.399 . S
C204 N229 1.343 . S
C205 C206 1.384 . S
C205 C207 1.384 . S
C205 H224 0.931 . S
C206 C205 1.384 . S
C206 C209 1.382 . S
C207 C205 1.384 . S
C207 C208 1.381 . S
C207 H225 0.930 . S
C208 C207 1.381 . S
C208 C210 1.381 . S
C208 C211 1.487 . S
C209 C206 1.382 . S
C209 C210 1.387 . S
C209 H226 0.930 . S
C210 C208 1.381 . S
C210 C209 1.387 . S
C210 H227 0.931 . S
C211 C204 1.399 . S
C211 C208 1.487 . S
C211 N228 1.343 . S
H212 C184 0.931 . S
H213 C186 0.930 . S
H214 C188 0.930 . S
H215 C189 0.931 . S
H216 C191 0.931 . S
H217 C193 0.930 . S
H218 C195 0.930 . S
H219 C196 0.931 . S
H220 C198 0.931 . S
H221 C200 0.930 . S
H222 C202 0.930 . S
H223 C203 0.931 . S
H224 C205 0.931 . S
H225 C207 0.930 . S
H226 C209 0.930 . S
H227 C210 0.931 . S
N228 C190 1.343 . S
N228 C211 1.343 . S
N229 C197 1.343 . S
N229 C204 1.343 . S
C230 C231 1.384 . S
C230 C232 1.384 . S
C230 H258 0.931 . S
C231 C230 1.384 . S
C231 C234 1.382 . S
C232 C230 1.384 . S
C232 C233 1.381 . S
C232 H259 0.930 . S
C233 C232 1.381 . S
C233 C235 1.381 . S
C233 C236 1.487 . S
C234 C231 1.382 . S
C234 C235 1.387 . S
C234 H260 0.930 . S
C235 C233 1.381 . S
C235 C234 1.387 . S
C235 H261 0.931 . S
C236 C233 1.487 . S
C236 C243 1.399 . S
C236 N274 1.343 . S
C237 C238 1.384 . S
C237 C239 1.384 . S
C237 H262 0.931 . S
C238 C237 1.384 . S
C238 C241 1.382 . S
C239 C237 1.384 . S
C239 C240 1.381 . S
C239 H263 0.930 . S
C240 C239 1.381 . S
C240 C242 1.381 . S
C240 C243 1.487 . S
C241 C238 1.382 . S
C241 C242 1.387 . S
C241 H264 0.930 . S
C242 C240 1.381 . S
C242 C241 1.387 . S
C242 H265 0.931 . S
C243 C236 1.399 . S
C243 C240 1.487 . S
C243 N275 1.343 . S
C244 C245 1.384 . S
C244 C246 1.384 . S
C244 H266 0.931 . S
C245 C244 1.384 . S
C245 C248 1.382 . S
C246 C244 1.384 . S
C246 C247 1.381 . S
C246 H267 0.930 . S
C247 C246 1.381 . S
C247 C249 1.381 . S
C247 C250 1.487 . S
C248 C245 1.382 . S
C248 C249 1.387 . S
C248 H268 0.930 . S
C249 C247 1.381 . S
C249 C248 1.387 . S
C249 H269 0.931 . S
C250 C247 1.487 . S
C250 C257 1.399 . S
C250 N275 1.343 . S
C251 C252 1.384 . S
C251 C253 1.384 . S
C251 H270 0.931 . S
C252 C251 1.384 . S
C252 C255 1.382 . S
C253 C251 1.384 . S
C253 C254 1.381 . S
C253 H271 0.930 . S
C254 C253 1.381 . S
C254 C256 1.381 . S
C254 C257 1.487 . S
C255 C252 1.382 . S
C255 C256 1.387 . S
C255 H272 0.930 . S
C256 C254 1.381 . S
C256 C255 1.387 . S
C256 H273 0.931 . S
C257 C250 1.399 . S
C257 C254 1.487 . S
C257 N274 1.343 . S
H258 C230 0.931 . S
H259 C232 0.930 . S
H260 C234 0.930 . S
H261 C235 0.931 . S
H262 C237 0.931 . S
H263 C239 0.930 . S
H264 C241 0.930 . S
H265 C242 0.931 . S
H266 C244 0.931 . S
H267 C246 0.930 . S
H268 C248 0.930 . S
H269 C249 0.931 . S
H270 C251 0.931 . S
H271 C253 0.930 . S
H272 C255 0.930 . S
H273 C256 0.931 . S
N274 C236 1.343 . S
N274 C257 1.343 . S
N275 C243 1.343 . S
N275 C250 1.343 . S
C276 C277 1.384 . S
C276 C278 1.384 . S
C276 H304 0.931 . S
C277 C276 1.384 . S
C277 C280 1.382 . S
C278 C276 1.384 . S
C278 C279 1.381 . S
C278 H305 0.930 . S
C279 C278 1.381 . S
C279 C281 1.381 . S
C279 C282 1.487 . S
C280 C277 1.382 . S
C280 C281 1.387 . S
C280 H306 0.930 . S
C281 C279 1.381 . S
C281 C280 1.387 . S
C281 H307 0.931 . S
C282 C279 1.487 . S
C282 C289 1.399 . S
C282 N320 1.343 . S
C283 C284 1.384 . S
C283 C285 1.384 . S
C283 H308 0.931 . S
C284 C283 1.384 . S
C284 C287 1.382 . S
C285 C283 1.384 . S
C285 C286 1.381 . S
C285 H309 0.930 . S
C286 C285 1.381 . S
C286 C288 1.381 . S
C286 C289 1.487 . S
C287 C284 1.382 . S
C287 C288 1.387 . S
C287 H310 0.930 . S
C288 C286 1.381 . S
C288 C287 1.387 . S
C288 H311 0.931 . S
C289 C282 1.399 . S
C289 C286 1.487 . S
C289 N321 1.343 . S
C290 C291 1.384 . S
C290 C292 1.384 . S
C290 H312 0.931 . S
C291 C290 1.384 . S
C291 C294 1.382 . S
C292 C290 1.384 . S
C292 C293 1.381 . S
C292 H313 0.930 . S
C293 C292 1.381 . S
C293 C295 1.381 . S
C293 C296 1.487 . S
C294 C291 1.382 . S
C294 C295 1.387 . S
C294 H314 0.930 . S
C295 C293 1.381 . S
C295 C294 1.387 . S
C295 H315 0.931 . S
C296 C293 1.487 . S
C296 C303 1.399 . S
C296 N321 1.343 . S
C297 C298 1.384 . S
C297 C299 1.384 . S
C297 H316 0.931 . S
C298 C297 1.384 . S
C298 C301 1.382 . S
C299 C297 1.384 . S
C299 C300 1.381 . S
C299 H317 0.930 . S
C300 C299 1.381 . S
C300 C302 1.381 . S
C300 C303 1.487 . S
C301 C298 1.382 . S
C301 C302 1.387 . S
C301 H318 0.930 . S
C302 C300 1.381 . S
C302 C301 1.387 . S
C302 H319 0.931 . S
C303 C296 1.399 . S
C303 C300 1.487 . S
C303 N320 1.343 . S
H304 C276 0.931 . S
H305 C278 0.930 . S
H306 C280 0.930 . S
H307 C281 0.931 . S
H308 C283 0.931 . S
H309 C285 0.930 . S
H310 C287 0.930 . S
H311 C288 0.931 . S
H312 C290 0.931 . S
H313 C292 0.930 . S
H314 C294 0.930 . S
H315 C295 0.931 . S
H316 C297 0.931 . S
H317 C299 0.930 . S
H318 C301 0.930 . S
H319 C302 0.931 . S
N320 C282 1.343 . S
N320 C303 1.343 . S
N321 C289 1.343 . S
N321 C296 1.343 . S
C322 C323 1.384 . S
C322 C324 1.384 . S
C322 H350 0.931 . S
C323 C322 1.384 . S
C323 C326 1.382 . S
C324 C322 1.384 . S
C324 C325 1.381 . S
C324 H351 0.930 . S
C325 C324 1.381 . S
C325 C327 1.381 . S
C325 C328 1.487 . S
C326 C323 1.382 . S
C326 C327 1.387 . S
C326 H352 0.930 . S
C327 C325 1.381 . S
C327 C326 1.387 . S
C327 H353 0.931 . S
C328 C325 1.487 . S
C328 C335 1.399 . S
C328 N366 1.343 . S
C329 C330 1.384 . S
C329 C331 1.384 . S
C329 H354 0.931 . S
C330 C329 1.384 . S
C330 C333 1.382 . S
C331 C329 1.384 . S
C331 C332 1.381 . S
C331 H355 0.930 . S
C332 C331 1.381 . S
C332 C334 1.381 . S
C332 C335 1.487 . S
C333 C330 1.382 . S
C333 C334 1.387 . S
C333 H356 0.930 . S
C334 C332 1.381 . S
C334 C333 1.387 . S
C334 H357 0.931 . S
C335 C328 1.399 . S
C335 C332 1.487 . S
C335 N367 1.343 . S
C336 C337 1.384 . S
C336 C338 1.384 . S
C336 H358 0.931 . S
C337 C336 1.384 . S
C337 C340 1.382 . S
C338 C336 1.384 . S
C338 C339 1.381 . S
C338 H359 0.930 . S
C339 C338 1.381 . S
C339 C341 1.381 . S
C339 C342 1.487 . S
C340 C337 1.382 . S
C340 C341 1.387 . S
C340 H360 0.930 . S
C341 C339 1.381 . S
C341 C340 1.387 . S
C341 H361 0.931 . S
C342 C339 1.487 . S
C342 C349 1.399 . S
C342 N367 1.343 . S
C343 C344 1.384 . S
C343 C345 1.384 . S
C343 H362 0.931 . S
C344 C343 1.384 . S
C344 C347 1.382 . S
C345 C343 1.384 . S
C345 C346 1.381 . S
C345 H363 0.930 . S
C346 C345 1.381 . S
C346 C348 1.381 . S
C346 C349 1.487 . S
C347 C344 1.382 . S
C347 C348 1.387 . S
C347 H364 0.930 . S
C348 C346 1.381 . S
C348 C347 1.387 . S
C348 H365 0.931 . S
C349 C342 1.399 . S
C349 C346 1.487 . S
C349 N366 1.343 . S
H350 C322 0.931 . S
H351 C324 0.930 . S
H352 C326 0.930 . S
H353 C327 0.931 . S
H354 C329 0.931 . S
H355 C331 0.930 . S
H356 C333 0.930 . S
H357 C334 0.931 . S
H358 C336 0.931 . S
H359 C338 0.930 . S
H360 C340 0.930 . S
H361 C341 0.931 . S
H362 C343 0.931 . S
H363 C345 0.930 . S
H364 C347 0.930 . S
H365 C348 0.931 . S
N366 C328 1.343 . S
N366 C349 1.343 . S
N367 C335 1.343 . S
N367 C342 1.343 . S
C368 O370 1.247 . S
C368 O372 1.258 . S
C369 O376 1.247 . S
C369 O377 1.258 . S
O370 C368 1.247 . S
O370 Zn371 2.028 . S
Zn371 O370 2.028 . S
Zn371 O375 2.035 1_655 S
Zn371 O377 2.035 1_655 S
Zn371 O378 2.028 . S
O372 C368 1.258 . S
O372 Zn373 2.028 1_655 S
Zn373 O372 2.028 1_455 S
Zn373 O374 2.035 . S
Zn373 O376 2.035 . S
Zn373 O379 2.028 1_455 S
O374 Zn373 2.035 . S
O374 C380 1.247 . S
O375 Zn371 2.035 1_455 S
O375 C380 1.258 . S
O376 C369 1.247 . S
O376 Zn373 2.035 . S
O377 C369 1.258 . S
O377 Zn371 2.035 1_455 S
O378 Zn371 2.028 . S
O378 C381 1.247 . S
O379 Zn373 2.028 1_655 S
O379 C381 1.258 . S
C380 O374 1.247 . S
C380 O375 1.258 . S
C381 O378 1.247 . S
C381 O379 1.258 . S
C382 O384 1.247 . S
C382 O386 1.258 . S
C383 O390 1.247 . S
C383 O391 1.258 . S
O384 C382 1.247 . S
O384 Zn385 2.035 . S
Zn385 O384 2.035 . S
Zn385 O389 2.028 1_545 S
Zn385 O391 2.028 1_545 S
Zn385 O392 2.035 . S
O386 C382 1.258 . S
O386 Zn387 2.036 1_545 S
Zn387 O386 2.036 1_565 S
Zn387 O388 2.028 . S
Zn387 O390 2.028 . S
Zn387 O393 2.036 1_565 S
O388 Zn387 2.028 . S
O388 C394 1.247 . S
O389 Zn385 2.028 1_565 S
O389 C394 1.258 . S
O390 C383 1.247 . S
O390 Zn387 2.028 . S
O391 C383 1.258 . S
O391 Zn385 2.028 1_565 S
O392 Zn385 2.035 . S
O392 C395 1.247 . S
O393 Zn387 2.036 1_545 S
O393 C395 1.258 . S
C394 O388 1.247 . S
C394 O389 1.258 . S
C395 O392 1.247 . S
C395 O393 1.258 . S
C396 O398 1.247 . S
C396 O400 1.258 . S
C397 O404 1.247 . S
C397 O405 1.258 . S
O398 C396 1.247 . S
O398 Zn399 2.028 . S
Zn399 O398 2.028 . S
Zn399 O403 2.035 1_655 S
Zn399 O405 2.035 1_655 S
Zn399 O406 2.028 . S
O400 C396 1.258 . S
O400 Zn401 2.028 1_655 S
Zn401 O400 2.028 1_455 S
Zn401 O402 2.035 . S
Zn401 O404 2.035 . S
Zn401 O407 2.028 1_455 S
O402 Zn401 2.035 . S
O402 C408 1.247 . S
O403 Zn399 2.035 1_455 S
O403 C408 1.258 . S
O404 C397 1.247 . S
O404 Zn401 2.035 . S
O405 C397 1.258 . S
O405 Zn399 2.035 1_455 S
O406 Zn399 2.028 . S
O406 C409 1.247 . S
O407 Zn401 2.028 1_655 S
O407 C409 1.258 . S
C408 O402 1.247 . S
C408 O403 1.258 . S
C409 O406 1.247 . S
C409 O407 1.258 . S
C410 O412 1.247 . S
C410 O414 1.258 . S
C411 O418 1.247 . S
C411 O419 1.258 . S
O412 C410 1.247 . S
O412 Zn413 2.035 . S
Zn413 O412 2.035 . S
Zn413 O417 2.028 1_545 S
Zn413 O419 2.028 1_545 S
Zn413 O420 2.035 . S
O414 C410 1.258 . S
O414 Zn415 2.036 1_545 S
Zn415 O414 2.036 1_565 S
Zn415 O416 2.028 . S
Zn415 O418 2.028 . S
Zn415 O421 2.036 1_565 S
O416 Zn415 2.028 . S
O416 C422 1.247 . S
O417 Zn413 2.028 1_565 S
O417 C422 1.258 . S
O418 C411 1.247 . S
O418 Zn415 2.028 . S
O419 C411 1.258 . S
O419 Zn413 2.028 1_565 S
O420 Zn413 2.035 . S
O420 C423 1.247 . S
O421 Zn415 2.036 1_545 S
O421 C423 1.258 . S
C422 O416 1.247 . S
C422 O417 1.258 . S
C423 O420 1.247 . S
C423 O421 1.258 . S
C424 O426 1.247 . S
C424 O428 1.258 . S
C425 O432 1.247 . S
C425 O433 1.258 . S
O426 C424 1.247 . S
O426 Zn427 2.028 . S
Zn427 O426 2.028 . S
Zn427 O431 2.035 . S
Zn427 O433 2.035 1_554 S
Zn427 O434 2.028 1_554 S
O428 C424 1.258 . S
O428 Zn429 2.035 . S
Zn429 O428 2.035 . S
Zn429 O430 2.028 . S
Zn429 O432 2.028 1_554 S
Zn429 O435 2.035 1_554 S
O430 Zn429 2.028 . S
O430 C436 1.247 . S
O431 Zn427 2.035 . S
O431 C436 1.258 . S
O432 C425 1.247 . S
O432 Zn429 2.028 1_556 S
O433 C425 1.258 . S
O433 Zn427 2.035 1_556 S
O434 Zn427 2.028 1_556 S
O434 C437 1.247 . S
O435 Zn429 2.035 1_556 S
O435 C437 1.258 . S
C436 O430 1.247 . S
C436 O431 1.258 . S
C437 O434 1.247 . S
C437 O435 1.258 . S
C438 O440 1.247 . S
C438 O442 1.258 . S
C439 O446 1.247 . S
C439 O447 1.258 . S
O440 C438 1.247 . S
O440 Zn441 2.028 . S
Zn441 O440 2.028 . S
Zn441 O445 2.035 . S
Zn441 O447 2.035 1_554 S
Zn441 O448 2.028 1_554 S
O442 C438 1.258 . S
O442 Zn443 2.035 . S
Zn443 O442 2.035 . S
Zn443 O444 2.028 . S
Zn443 O446 2.028 1_554 S
Zn443 O449 2.035 1_554 S
O444 Zn443 2.028 . S
O444 C450 1.247 . S
O445 Zn441 2.035 . S
O445 C450 1.258 . S
O446 C439 1.247 . S
O446 Zn443 2.028 1_556 S
O447 C439 1.258 . S
O447 Zn441 2.035 1_556 S
O448 Zn441 2.028 1_556 S
O448 C451 1.247 . S
O449 Zn443 2.035 1_556 S
O449 C451 1.258 . S
C450 O444 1.247 . S
C450 O445 1.258 . S
C451 O448 1.247 . S
C451 O449 1.258 . S
C452 O454 1.247 . S
C452 O456 1.258 . S
C453 O460 1.247 . S
C453 O461 1.258 . S
O454 C452 1.247 . S
O454 Zn455 2.028 1_556 S
Zn455 O454 2.028 1_554 S
Zn455 O459 2.035 1_554 S
Zn455 O461 2.035 . S
Zn455 O462 2.028 . S
O456 C452 1.258 . S
O456 Zn457 2.035 1_556 S
Zn457 O456 2.035 1_554 S
Zn457 O458 2.028 1_554 S
Zn457 O460 2.028 . S
Zn457 O463 2.035 . S
O458 Zn457 2.028 1_556 S
O458 C464 1.247 . S
O459 Zn455 2.035 1_556 S
O459 C464 1.258 . S
O460 C453 1.247 . S
O460 Zn457 2.028 . S
O461 C453 1.258 . S
O461 Zn455 2.035 . S
O462 Zn455 2.028 . S
O462 C465 1.247 . S
O463 Zn457 2.035 . S
O463 C465 1.258 . S
C464 O458 1.247 . S
C464 O459 1.258 . S
C465 O462 1.247 . S
C465 O463 1.258 . S
C466 O468 1.247 . S
C466 O470 1.258 . S
C467 O474 1.247 . S
C467 O475 1.258 . S
O468 C466 1.247 . S
O468 Zn469 2.028 . S
Zn469 O468 2.028 . S
Zn469 O473 2.035 . S
Zn469 O475 2.035 1_554 S
Zn469 O476 2.028 1_554 S
O470 C466 1.258 . S
O470 Zn471 2.035 . S
Zn471 O470 2.035 . S
Zn471 O472 2.028 . S
Zn471 O474 2.028 1_554 S
Zn471 O477 2.035 1_554 S
O472 Zn471 2.028 . S
O472 C478 1.247 . S
O473 Zn469 2.035 . S
O473 C478 1.258 . S
O474 C467 1.247 . S
O474 Zn471 2.028 1_556 S
O475 C467 1.258 . S
O475 Zn469 2.035 1_556 S
O476 Zn469 2.028 1_556 S
O476 C479 1.247 . S
O477 Zn471 2.035 1_556 S
O477 C479 1.258 . S
C478 O472 1.247 . S
C478 O473 1.258 . S
C479 O476 1.247 . S
C479 O477 1.258 . S
H480 C486 0.930 . S
H481 C490 0.930 . S
H482 C495 0.929 . S
H483 C493 0.929 . S
H484 C488 0.929 . S
H485 C494 0.929 . S
C486 H480 0.930 . S
C486 C487 1.367 . S
C486 C494 1.378 . S
C487 C486 1.367 . S
C487 C495 1.433 . S
C488 H484 0.929 . S
C488 C490 1.378 . S
C488 C492 1.350 . S
C489 C492 1.463 . S
C489 C494 1.350 . S
C489 N497 1.427 . S
C490 H481 0.930 . S
C490 C488 1.378 . S
C490 C491 1.367 . S
C491 C490 1.367 . S
C491 C493 1.433 . S
C492 C488 1.350 . S
C492 C489 1.463 . S
C492 N496 1.427 . S
C493 H483 0.929 . S
C493 C491 1.433 . S
C493 N496 1.384 . S
C494 H485 0.929 . S
C494 C486 1.378 . S
C494 C489 1.350 . S
C495 H482 0.929 . S
C495 C487 1.433 . S
C495 N497 1.384 . S
N496 C492 1.427 . S
N496 C493 1.384 . S
N497 C489 1.427 . S
N497 C495 1.384 . S
H498 C504 0.930 . S
H499 C508 0.930 . S
H500 C513 0.929 . S
H501 C511 0.929 . S
H502 C506 0.929 . S
H503 C512 0.929 . S
C504 H498 0.930 . S
C504 C505 1.367 . S
C504 C512 1.378 . S
C505 C504 1.367 . S
C505 C513 1.433 . S
C506 H502 0.929 . S
C506 C508 1.378 . S
C506 C510 1.350 . S
C507 C510 1.463 . S
C507 C512 1.350 . S
C507 N515 1.427 . S
C508 H499 0.930 . S
C508 C506 1.378 . S
C508 C509 1.367 . S
C509 C508 1.367 . S
C509 C511 1.433 . S
C510 C506 1.350 . S
C510 C507 1.463 . S
C510 N514 1.427 . S
C511 H501 0.929 . S
C511 C509 1.433 . S
C511 N514 1.384 . S
C512 H503 0.929 . S
C512 C504 1.378 . S
C512 C507 1.350 . S
C513 H500 0.929 . S
C513 C505 1.433 . S
C513 N515 1.384 . S
N514 C510 1.427 . S
N514 C511 1.384 . S
N515 C507 1.427 . S
N515 C513 1.384 . S
H516 C522 0.930 . S
H517 C526 0.930 . S
H518 C531 0.929 . S
H519 C529 0.929 . S
H520 C524 0.929 . S
H521 C530 0.929 . S
C522 H516 0.930 . S
C522 C523 1.367 . S
C522 C530 1.378 . S
C523 C522 1.367 . S
C523 C531 1.433 . S
C524 H520 0.929 . S
C524 C526 1.378 . S
C524 C528 1.350 . S
C525 C528 1.463 . S
C525 C530 1.350 . S
C525 N533 1.427 . S
C526 H517 0.930 . S
C526 C524 1.378 . S
C526 C527 1.367 . S
C527 C526 1.367 . S
C527 C529 1.433 . S
C528 C524 1.350 . S
C528 C525 1.463 . S
C528 N532 1.427 . S
C529 H519 0.929 . S
C529 C527 1.433 . S
C529 N532 1.384 . S
C530 H521 0.929 . S
C530 C522 1.378 . S
C530 C525 1.350 . S
C531 H518 0.929 . S
C531 C523 1.433 . S
C531 N533 1.384 . S
N532 C528 1.427 . S
N532 C529 1.384 . S
N533 C525 1.427 . S
N533 C531 1.384 . S
H534 C540 0.930 . S
H535 C544 0.930 . S
H536 C549 0.929 . S
H537 C547 0.929 . S
H538 C542 0.929 . S
H539 C548 0.929 . S
C540 H534 0.930 . S
C540 C541 1.367 . S
C540 C548 1.378 . S
C541 C540 1.367 . S
C541 C549 1.433 . S
C542 H538 0.929 . S
C542 C544 1.378 . S
C542 C546 1.350 . S
C543 C546 1.463 . S
C543 C548 1.350 . S
C543 N551 1.427 . S
C544 H535 0.930 . S
C544 C542 1.378 . S
C544 C545 1.367 . S
C545 C544 1.367 . S
C545 C547 1.433 . S
C546 C542 1.350 . S
C546 C543 1.463 . S
C546 N550 1.427 . S
C547 H537 0.929 . S
C547 C545 1.433 . S
C547 N550 1.384 . S
C548 H539 0.929 . S
C548 C540 1.378 . S
C548 C543 1.350 . S
C549 H536 0.929 . S
C549 C541 1.433 . S
C549 N551 1.384 . S
N550 C546 1.427 . S
N550 C547 1.384 . S
N551 C543 1.427 . S
N551 C549 1.384 . S
H552 C558 0.930 . S
H553 C562 0.930 . S
H554 C567 0.929 . S
H555 C565 0.929 . S
H556 C560 0.929 . S
H557 C566 0.929 . S
C558 H552 0.930 . S
C558 C559 1.367 . S
C558 C566 1.378 . S
C559 C558 1.367 . S
C559 C567 1.433 . S
C560 H556 0.929 . S
C560 C562 1.378 . S
C560 C564 1.350 . S
C561 C564 1.463 . S
C561 C566 1.350 . S
C561 N569 1.427 . S
C562 H553 0.930 . S
C562 C560 1.378 . S
C562 C563 1.367 . S
C563 C562 1.367 . S
C563 C565 1.433 . S
C564 C560 1.350 . S
C564 C561 1.463 . S
C564 N568 1.427 . S
C565 H555 0.929 . S
C565 C563 1.433 . S
C565 N568 1.384 . S
C566 H557 0.929 . S
C566 C558 1.378 . S
C566 C561 1.350 . S
C567 H554 0.929 . S
C567 C559 1.433 . S
C567 N569 1.384 . S
N568 C564 1.427 . S
N568 C565 1.384 . S
N569 C561 1.427 . S
N569 C567 1.384 . S
H570 C576 0.930 . S
H571 C580 0.930 . S
H572 C585 0.929 . S
H573 C583 0.929 . S
H574 C578 0.929 . S
H575 C584 0.929 . S
C576 H570 0.930 . S
C576 C577 1.367 . S
C576 C584 1.378 . S
C577 C576 1.367 . S
C577 C585 1.433 . S
C578 H574 0.929 . S
C578 C580 1.378 . S
C578 C582 1.350 . S
C579 C582 1.463 . S
C579 C584 1.350 . S
C579 N587 1.427 . S
C580 H571 0.930 . S
C580 C578 1.378 . S
C580 C581 1.367 . S
C581 C580 1.367 . S
C581 C583 1.433 . S
C582 C578 1.350 . S
C582 C579 1.463 . S
C582 N586 1.427 . S
C583 H573 0.929 . S
C583 C581 1.433 . S
C583 N586 1.384 . S
C584 H575 0.929 . S
C584 C576 1.378 . S
C584 C579 1.350 . S
C585 H572 0.929 . S
C585 C577 1.433 . S
C585 N587 1.384 . S
N586 C582 1.427 . S
N586 C583 1.384 . S
N587 C579 1.427 . S
N587 C585 1.384 . S
H588 C594 0.930 . S
H589 C598 0.930 . S
H590 C603 0.929 . S
H591 C601 0.929 . S
H592 C596 0.929 . S
H593 C602 0.929 . S
C594 H588 0.930 . S
C594 C595 1.367 . S
C594 C602 1.378 . S
C595 C594 1.367 . S
C595 C603 1.433 . S
C596 H592 0.929 . S
C596 C598 1.378 . S
C596 C600 1.350 . S
C597 C600 1.463 . S
C597 C602 1.350 . S
C597 N605 1.427 . S
C598 H589 0.930 . S
C598 C596 1.378 . S
C598 C599 1.367 . S
C599 C598 1.367 . S
C599 C601 1.433 . S
C600 C596 1.350 . S
C600 C597 1.463 . S
C600 N604 1.427 . S
C601 H591 0.929 . S
C601 C599 1.433 . S
C601 N604 1.384 . S
C602 H593 0.929 . S
C602 C594 1.378 . S
C602 C597 1.350 . S
C603 H590 0.929 . S
C603 C595 1.433 . S
C603 N605 1.384 . S
N604 C600 1.427 . S
N604 C601 1.384 . S
N605 C597 1.427 . S
N605 C603 1.384 . S
H606 C612 0.930 . S
H607 C616 0.930 . S
H608 C621 0.929 . S
H609 C619 0.929 . S
H610 C614 0.929 . S
H611 C620 0.929 . S
C612 H606 0.930 . S
C612 C613 1.367 . S
C612 C620 1.378 . S
C613 C612 1.367 . S
C613 C621 1.433 . S
C614 H610 0.929 . S
C614 C616 1.378 . S
C614 C618 1.350 . S
C615 C618 1.463 . S
C615 C620 1.350 . S
C615 N623 1.427 . S
C616 H607 0.930 . S
C616 C614 1.378 . S
C616 C617 1.367 . S
C617 C616 1.367 . S
C617 C619 1.433 . S
C618 C614 1.350 . S
C618 C615 1.463 . S
C618 N622 1.427 . S
C619 H609 0.929 . S
C619 C617 1.433 . S
C619 N622 1.384 . S
C620 H611 0.929 . S
C620 C612 1.378 . S
C620 C615 1.350 . S
C621 H608 0.929 . S
C621 C613 1.433 . S
C621 N623 1.384 . S
N622 C618 1.427 . S
N622 C619 1.384 . S
N623 C615 1.427 . S
N623 C621 1.384 . S
H624 C630 0.930 . S
H625 C634 0.930 . S
H626 C639 0.929 . S
H627 C637 0.929 . S
H628 C632 0.929 . S
H629 C638 0.929 . S
C630 H624 0.930 . S
C630 C631 1.367 . S
C630 C638 1.378 . S
C631 C630 1.367 . S
C631 C639 1.433 . S
C632 H628 0.929 . S
C632 C634 1.378 . S
C632 C636 1.350 . S
C633 C636 1.463 . S
C633 C638 1.350 . S
C633 N641 1.427 . S
C634 H625 0.930 . S
C634 C632 1.378 . S
C634 C635 1.367 . S
C635 C634 1.367 . S
C635 C637 1.433 . S
C636 C632 1.350 . S
C636 C633 1.463 . S
C636 N640 1.427 . S
C637 H627 0.929 . S
C637 C635 1.433 . S
C637 N640 1.384 . S
C638 H629 0.929 . S
C638 C630 1.378 . S
C638 C633 1.350 . S
C639 H626 0.929 . S
C639 C631 1.433 . S
C639 N641 1.384 . S
N640 C636 1.427 . S
N640 C637 1.384 . S
N641 C633 1.427 . S
N641 C639 1.384 . S
H642 C648 0.930 . S
H643 C652 0.930 . S
H644 C657 0.929 . S
H645 C655 0.929 . S
H646 C650 0.929 . S
H647 C656 0.929 . S
C648 H642 0.930 . S
C648 C649 1.367 . S
C648 C656 1.378 . S
C649 C648 1.367 . S
C649 C657 1.433 . S
C650 H646 0.929 . S
C650 C652 1.378 . S
C650 C654 1.350 . S
C651 C654 1.463 . S
C651 C656 1.350 . S
C651 N659 1.427 . S
C652 H643 0.930 . S
C652 C650 1.378 . S
C652 C653 1.367 . S
C653 C652 1.367 . S
C653 C655 1.433 . S
C654 C650 1.350 . S
C654 C651 1.463 . S
C654 N658 1.427 . S
C655 H645 0.929 . S
C655 C653 1.433 . S
C655 N658 1.384 . S
C656 H647 0.929 . S
C656 C648 1.378 . S
C656 C651 1.350 . S
C657 H644 0.929 . S
C657 C649 1.433 . S
C657 N659 1.384 . S
N658 C654 1.427 . S
N658 C655 1.384 . S
N659 C651 1.427 . S
N659 C657 1.384 . S
H660 C666 0.930 . S
H661 C670 0.930 . S
H662 C675 0.929 . S
H663 C673 0.929 . S
H664 C668 0.929 . S
H665 C674 0.929 . S
C666 H660 0.930 . S
C666 C667 1.367 . S
C666 C674 1.378 . S
C667 C666 1.367 . S
C667 C675 1.433 . S
C668 H664 0.929 . S
C668 C670 1.378 . S
C668 C672 1.350 . S
C669 C672 1.463 . S
C669 C674 1.350 . S
C669 N677 1.427 . S
C670 H661 0.930 . S
C670 C668 1.378 . S
C670 C671 1.367 . S
C671 C670 1.367 . S
C671 C673 1.433 . S
C672 C668 1.350 . S
C672 C669 1.463 . S
C672 N676 1.427 . S
C673 H663 0.929 . S
C673 C671 1.433 . S
C673 N676 1.384 . S
C674 H665 0.929 . S
C674 C666 1.378 . S
C674 C669 1.350 . S
C675 H662 0.929 . S
C675 C667 1.433 . S
C675 N677 1.384 . S
N676 C672 1.427 . S
N676 C673 1.384 . S
N677 C669 1.427 . S
N677 C675 1.384 . S
H678 C684 0.930 . S
H679 C688 0.930 . S
H680 C693 0.929 . S
H681 C691 0.929 . S
H682 C686 0.929 . S
H683 C692 0.929 . S
C684 H678 0.930 . S
C684 C685 1.367 . S
C684 C692 1.378 . S
C685 C684 1.367 . S
C685 C693 1.433 . S
C686 H682 0.929 . S
C686 C688 1.378 . S
C686 C690 1.350 . S
C687 C690 1.463 . S
C687 C692 1.350 . S
C687 N695 1.427 . S
C688 H679 0.930 . S
C688 C686 1.378 . S
C688 C689 1.367 . S
C689 C688 1.367 . S
C689 C691 1.433 . S
C690 C686 1.350 . S
C690 C687 1.463 . S
C690 N694 1.427 . S
C691 H681 0.929 . S
C691 C689 1.433 . S
C691 N694 1.384 . S
C692 H683 0.929 . S
C692 C684 1.378 . S
C692 C687 1.350 . S
C693 H680 0.929 . S
C693 C685 1.433 . S
C693 N695 1.384 . S
N694 C690 1.427 . S
N694 C691 1.384 . S
N695 C687 1.427 . S
N695 C693 1.384 . S
H696 C702 0.930 . S
H697 C706 0.930 . S
H698 C711 0.929 . S
H699 C709 0.929 . S
H700 C704 0.929 . S
H701 C710 0.929 . S
C702 H696 0.930 . S
C702 C703 1.367 . S
C702 C710 1.378 . S
C703 C702 1.367 . S
C703 C711 1.433 . S
C704 H700 0.929 . S
C704 C706 1.378 . S
C704 C708 1.350 . S
C705 C708 1.463 . S
C705 C710 1.350 . S
C705 N713 1.427 . S
C706 H697 0.930 . S
C706 C704 1.378 . S
C706 C707 1.367 . S
C707 C706 1.367 . S
C707 C709 1.433 . S
C708 C704 1.350 . S
C708 C705 1.463 . S
C708 N712 1.427 . S
C709 H699 0.929 . S
C709 C707 1.433 . S
C709 N712 1.384 . S
C710 H701 0.929 . S
C710 C702 1.378 . S
C710 C705 1.350 . S
C711 H698 0.929 . S
C711 C703 1.433 . S
C711 N713 1.384 . S
N712 C708 1.427 . S
N712 C709 1.384 . S
N713 C705 1.427 . S
N713 C711 1.384 . S
H714 C720 0.930 . S
H715 C724 0.930 . S
H716 C729 0.929 . S
H717 C727 0.929 . S
H718 C722 0.929 . S
H719 C728 0.929 . S
C720 H714 0.930 . S
C720 C721 1.367 . S
C720 C728 1.378 . S
C721 C720 1.367 . S
C721 C729 1.433 . S
C722 H718 0.929 . S
C722 C724 1.378 . S
C722 C726 1.350 . S
C723 C726 1.463 . S
C723 C728 1.350 . S
C723 N731 1.427 . S
C724 H715 0.930 . S
C724 C722 1.378 . S
C724 C725 1.367 . S
C725 C724 1.367 . S
C725 C727 1.433 . S
C726 C722 1.350 . S
C726 C723 1.463 . S
C726 N730 1.427 . S
C727 H717 0.929 . S
C727 C725 1.433 . S
C727 N730 1.384 . S
C728 H719 0.929 . S
C728 C720 1.378 . S
C728 C723 1.350 . S
C729 H716 0.929 . S
C729 C721 1.433 . S
C729 N731 1.384 . S
N730 C726 1.427 . S
N730 C727 1.384 . S
N731 C723 1.427 . S
N731 C729 1.384 . S
H732 C738 0.930 . S
H733 C742 0.930 . S
H734 C747 0.929 . S
H735 C745 0.929 . S
H736 C740 0.929 . S
H737 C746 0.929 . S
C738 H732 0.930 . S
C738 C739 1.367 . S
C738 C746 1.378 . S
C739 C738 1.367 . S
C739 C747 1.433 . S
C740 H736 0.929 . S
C740 C742 1.378 . S
C740 C744 1.350 . S
C741 C744 1.463 . S
C741 C746 1.350 . S
C741 N749 1.427 . S
C742 H733 0.930 . S
C742 C740 1.378 . S
C742 C743 1.367 . S
C743 C742 1.367 . S
C743 C745 1.433 . S
C744 C740 1.350 . S
C744 C741 1.463 . S
C744 N748 1.427 . S
C745 H735 0.929 . S
C745 C743 1.433 . S
C745 N748 1.384 . S
C746 H737 0.929 . S
C746 C738 1.378 . S
C746 C741 1.350 . S
C747 H734 0.929 . S
C747 C739 1.433 . S
C747 N749 1.384 . S
N748 C744 1.427 . S
N748 C745 1.384 . S
N749 C741 1.427 . S
N749 C747 1.384 . S
H750 C756 0.930 . S
H751 C760 0.930 . S
H752 C765 0.929 . S
H753 C763 0.929 . S
H754 C758 0.929 . S
H755 C764 0.929 . S
C756 H750 0.930 . S
C756 C757 1.367 . S
C756 C764 1.378 . S
C757 C756 1.367 . S
C757 C765 1.433 . S
C758 H754 0.929 . S
C758 C760 1.378 . S
C758 C762 1.350 . S
C759 C762 1.463 . S
C759 C764 1.350 . S
C759 N767 1.427 . S
C760 H751 0.930 . S
C760 C758 1.378 . S
C760 C761 1.367 . S
C761 C760 1.367 . S
C761 C763 1.433 . S
C762 C758 1.350 . S
C762 C759 1.463 . S
C762 N766 1.427 . S
C763 H753 0.929 . S
C763 C761 1.433 . S
C763 N766 1.384 . S
C764 H755 0.929 . S
C764 C756 1.378 . S
C764 C759 1.350 . S
C765 H752 0.929 . S
C765 C757 1.433 . S
C765 N767 1.384 . S
N766 C762 1.427 . S
N766 C763 1.384 . S
N767 C759 1.427 . S
N767 C765 1.384 . S
H768 C774 0.930 . S
H769 C778 0.930 . S
H770 C783 0.929 . S
H771 C781 0.929 . S
H772 C776 0.929 . S
H773 C782 0.929 . S
C774 H768 0.930 . S
C774 C775 1.367 . S
C774 C782 1.378 . S
C775 C774 1.367 . S
C775 C783 1.433 . S
C776 H772 0.929 . S
C776 C778 1.378 . S
C776 C780 1.350 . S
C777 C780 1.463 . S
C777 C782 1.350 . S
C777 N785 1.427 . S
C778 H769 0.930 . S
C778 C776 1.378 . S
C778 C779 1.367 . S
C779 C778 1.367 . S
C779 C781 1.433 . S
C780 C776 1.350 . S
C780 C777 1.463 . S
C780 N784 1.427 . S
C781 H771 0.929 . S
C781 C779 1.433 . S
C781 N784 1.384 . S
C782 H773 0.929 . S
C782 C774 1.378 . S
C782 C777 1.350 . S
C783 H770 0.929 . S
C783 C775 1.433 . S
C783 N785 1.384 . S
N784 C780 1.427 . S
N784 C781 1.384 . S
N785 C777 1.427 . S
N785 C783 1.384 . S
H786 C792 0.930 . S
H787 C796 0.930 . S
H788 C801 0.929 . S
H789 C799 0.929 . S
H790 C794 0.929 . S
H791 C800 0.929 . S
C792 H786 0.930 . S
C792 C793 1.367 . S
C792 C800 1.378 . S
C793 C792 1.367 . S
C793 C801 1.433 . S
C794 H790 0.929 . S
C794 C796 1.378 . S
C794 C798 1.350 . S
C795 C798 1.463 . S
C795 C800 1.350 . S
C795 N803 1.427 . S
C796 H787 0.930 . S
C796 C794 1.378 . S
C796 C797 1.367 . S
C797 C796 1.367 . S
C797 C799 1.433 . S
C798 C794 1.350 . S
C798 C795 1.463 . S
C798 N802 1.427 . S
C799 H789 0.929 . S
C799 C797 1.433 . S
C799 N802 1.384 . S
C800 H791 0.929 . S
C800 C792 1.378 . S
C800 C795 1.350 . S
C801 H788 0.929 . S
C801 C793 1.433 . S
C801 N803 1.384 . S
N802 C798 1.427 . S
N802 C799 1.384 . S
N803 C795 1.427 . S
N803 C801 1.384 . S
H804 C810 0.930 . S
H805 C814 0.930 . S
H806 C819 0.929 . S
H807 C817 0.929 . S
H808 C812 0.929 . S
H809 C818 0.929 . S
C810 H804 0.930 . S
C810 C811 1.367 . S
C810 C818 1.378 . S
C811 C810 1.367 . S
C811 C819 1.433 . S
C812 H808 0.929 . S
C812 C814 1.378 . S
C812 C816 1.350 . S
C813 C816 1.463 . S
C813 C818 1.350 . S
C813 N821 1.427 . S
C814 H805 0.930 . S
C814 C812 1.378 . S
C814 C815 1.367 . S
C815 C814 1.367 . S
C815 C817 1.433 . S
C816 C812 1.350 . S
C816 C813 1.463 . S
C816 N820 1.427 . S
C817 H807 0.929 . S
C817 C815 1.433 . S
C817 N820 1.384 . S
C818 H809 0.929 . S
C818 C810 1.378 . S
C818 C813 1.350 . S
C819 H806 0.929 . S
C819 C811 1.433 . S
C819 N821 1.384 . S
N820 C816 1.427 . S
N820 C817 1.384 . S
N821 C813 1.427 . S
N821 C819 1.384 . S
H822 C828 0.930 . S
H823 C832 0.930 . S
H824 C837 0.929 . S
H825 C835 0.929 . S
H826 C830 0.929 . S
H827 C836 0.929 . S
C828 H822 0.930 . S
C828 C829 1.367 . S
C828 C836 1.378 . S
C829 C828 1.367 . S
C829 C837 1.433 . S
C830 H826 0.929 . S
C830 C832 1.378 . S
C830 C834 1.350 . S
C831 C834 1.463 . S
C831 C836 1.350 . S
C831 N839 1.427 . S
C832 H823 0.930 . S
C832 C830 1.378 . S
C832 C833 1.367 . S
C833 C832 1.367 . S
C833 C835 1.433 . S
C834 C830 1.350 . S
C834 C831 1.463 . S
C834 N838 1.427 . S
C835 H825 0.929 . S
C835 C833 1.433 . S
C835 N838 1.384 . S
C836 H827 0.929 . S
C836 C828 1.378 . S
C836 C831 1.350 . S
C837 H824 0.929 . S
C837 C829 1.433 . S
C837 N839 1.384 . S
N838 C834 1.427 . S
N838 C835 1.384 . S
N839 C831 1.427 . S
N839 C837 1.384 . S
H840 C846 0.930 . S
H841 C850 0.930 . S
H842 C855 0.929 . S
H843 C853 0.929 . S
H844 C848 0.929 . S
H845 C854 0.929 . S
C846 H840 0.930 . S
C846 C847 1.367 . S
C846 C854 1.378 . S
C847 C846 1.367 . S
C847 C855 1.433 . S
C848 H844 0.929 . S
C848 C850 1.378 . S
C848 C852 1.350 . S
C849 C852 1.463 . S
C849 C854 1.350 . S
C849 N857 1.427 . S
C850 H841 0.930 . S
C850 C848 1.378 . S
C850 C851 1.367 . S
C851 C850 1.367 . S
C851 C853 1.433 . S
C852 C848 1.350 . S
C852 C849 1.463 . S
C852 N856 1.427 . S
C853 H843 0.929 . S
C853 C851 1.433 . S
C853 N856 1.384 . S
C854 H845 0.929 . S
C854 C846 1.378 . S
C854 C849 1.350 . S
C855 H842 0.929 . S
C855 C847 1.433 . S
C855 N857 1.384 . S
N856 C852 1.427 . S
N856 C853 1.384 . S
N857 C849 1.427 . S
N857 C855 1.384 . S
H858 C864 0.930 . S
H859 C868 0.930 . S
H860 C873 0.929 . S
H861 C871 0.929 . S
H862 C866 0.929 . S
H863 C872 0.929 . S
C864 H858 0.930 . S
C864 C865 1.367 . S
C864 C872 1.378 . S
C865 C864 1.367 . S
C865 C873 1.433 . S
C866 H862 0.929 . S
C866 C868 1.378 . S
C866 C870 1.350 . S
C867 C870 1.463 . S
C867 C872 1.350 . S
C867 N875 1.427 . S
C868 H859 0.930 . S
C868 C866 1.378 . S
C868 C869 1.367 . S
C869 C868 1.367 . S
C869 C871 1.433 . S
C870 C866 1.350 . S
C870 C867 1.463 . S
C870 N874 1.427 . S
C871 H861 0.929 . S
C871 C869 1.433 . S
C871 N874 1.384 . S
C872 H863 0.929 . S
C872 C864 1.378 . S
C872 C867 1.350 . S
C873 H860 0.929 . S
C873 C865 1.433 . S
C873 N875 1.384 . S
N874 C870 1.427 . S
N874 C871 1.384 . S
N875 C867 1.427 . S
N875 C873 1.384 . S
H876 C882 0.930 . S
H877 C886 0.930 . S
H878 C891 0.929 . S
H879 C889 0.929 . S
H880 C884 0.929 . S
H881 C890 0.929 . S
C882 H876 0.930 . S
C882 C883 1.367 . S
C882 C890 1.378 . S
C883 C882 1.367 . S
C883 C891 1.433 . S
C884 H880 0.929 . S
C884 C886 1.378 . S
C884 C888 1.350 . S
C885 C888 1.463 . S
C885 C890 1.350 . S
C885 N893 1.427 . S
C886 H877 0.930 . S
C886 C884 1.378 . S
C886 C887 1.367 . S
C887 C886 1.367 . S
C887 C889 1.433 . S
C888 C884 1.350 . S
C888 C885 1.463 . S
C888 N892 1.427 . S
C889 H879 0.929 . S
C889 C887 1.433 . S
C889 N892 1.384 . S
C890 H881 0.929 . S
C890 C882 1.378 . S
C890 C885 1.350 . S
C891 H878 0.929 . S
C891 C883 1.433 . S
C891 N893 1.384 . S
N892 C888 1.427 . S
N892 C889 1.384 . S
N893 C885 1.427 . S
N893 C891 1.384 . S
H894 C900 0.930 . S
H895 C904 0.930 . S
H896 C909 0.929 . S
H897 C907 0.929 . S
H898 C902 0.929 . S
H899 C908 0.929 . S
C900 H894 0.930 . S
C900 C901 1.367 . S
C900 C908 1.378 . S
C901 C900 1.367 . S
C901 C909 1.433 . S
C902 H898 0.929 . S
C902 C904 1.378 . S
C902 C906 1.350 . S
C903 C906 1.463 . S
C903 C908 1.350 . S
C903 N911 1.427 . S
C904 H895 0.930 . S
C904 C902 1.378 . S
C904 C905 1.367 . S
C905 C904 1.367 . S
C905 C907 1.433 . S
C906 C902 1.350 . S
C906 C903 1.463 . S
C906 N910 1.427 . S
C907 H897 0.929 . S
C907 C905 1.433 . S
C907 N910 1.384 . S
C908 H899 0.929 . S
C908 C900 1.378 . S
C908 C903 1.350 . S
C909 H896 0.929 . S
C909 C901 1.433 . S
C909 N911 1.384 . S
N910 C906 1.427 . S
N910 C907 1.384 . S
N911 C903 1.427 . S
N911 C909 1.384 . S
H912 C918 0.930 . S
H913 C922 0.930 . S
H914 C927 0.929 . S
H915 C925 0.929 . S
H916 C920 0.929 . S
H917 C926 0.929 . S
C918 H912 0.930 . S
C918 C919 1.367 . S
C918 C926 1.378 . S
C919 C918 1.367 . S
C919 C927 1.433 . S
C920 H916 0.929 . S
C920 C922 1.378 . S
C920 C924 1.350 . S
C921 C924 1.463 . S
C921 C926 1.350 . S
C921 N929 1.427 . S
C922 H913 0.930 . S
C922 C920 1.378 . S
C922 C923 1.367 . S
C923 C922 1.367 . S
C923 C925 1.433 . S
C924 C920 1.350 . S
C924 C921 1.463 . S
C924 N928 1.427 . S
C925 H915 0.929 . S
C925 C923 1.433 . S
C925 N928 1.384 . S
C926 H917 0.929 . S
C926 C918 1.378 . S
C926 C921 1.350 . S
C927 H914 0.929 . S
C927 C919 1.433 . S
C927 N929 1.384 . S
N928 C924 1.427 . S
N928 C925 1.384 . S
N929 C921 1.427 . S
N929 C927 1.384 . S
H930 C936 0.930 . S
H931 C940 0.930 . S
H932 C945 0.929 . S
H933 C943 0.929 . S
H934 C938 0.929 . S
H935 C944 0.929 . S
C936 H930 0.930 . S
C936 C937 1.367 . S
C936 C944 1.378 . S
C937 C936 1.367 . S
C937 C945 1.433 . S
C938 H934 0.929 . S
C938 C940 1.378 . S
C938 C942 1.350 . S
C939 C942 1.463 . S
C939 C944 1.350 . S
C939 N947 1.427 . S
C940 H931 0.930 . S
C940 C938 1.378 . S
C940 C941 1.367 . S
C941 C940 1.367 . S
C941 C943 1.433 . S
C942 C938 1.350 . S
C942 C939 1.463 . S
C942 N946 1.427 . S
C943 H933 0.929 . S
C943 C941 1.433 . S
C943 N946 1.384 . S
C944 H935 0.929 . S
C944 C936 1.378 . S
C944 C939 1.350 . S
C945 H932 0.929 . S
C945 C937 1.433 . S
C945 N947 1.384 . S
N946 C942 1.427 . S
N946 C943 1.384 . S
N947 C939 1.427 . S
N947 C945 1.384 . S
H948 C954 0.930 . S
H949 C958 0.930 . S
H950 C963 0.929 . S
H951 C961 0.929 . S
H952 C956 0.929 . S
H953 C962 0.929 . S
C954 H948 0.930 . S
C954 C955 1.367 . S
C954 C962 1.378 . S
C955 C954 1.367 . S
C955 C963 1.433 . S
C956 H952 0.929 . S
C956 C958 1.378 . S
C956 C960 1.350 . S
C957 C960 1.463 . S
C957 C962 1.350 . S
C957 N965 1.427 . S
C958 H949 0.930 . S
C958 C956 1.378 . S
C958 C959 1.367 . S
C959 C958 1.367 . S
C959 C961 1.433 . S
C960 C956 1.350 . S
C960 C957 1.463 . S
C960 N964 1.427 . S
C961 H951 0.929 . S
C961 C959 1.433 . S
C961 N964 1.384 . S
C962 H953 0.929 . S
C962 C954 1.378 . S
C962 C957 1.350 . S
C963 H950 0.929 . S
C963 C955 1.433 . S
C963 N965 1.384 . S
N964 C960 1.427 . S
N964 C961 1.384 . S
N965 C957 1.427 . S
N965 C963 1.384 . S
H966 C972 0.930 . S
H967 C976 0.930 . S
H968 C981 0.929 . S
H969 C979 0.929 . S
H970 C974 0.929 . S
H971 C980 0.929 . S
C972 H966 0.930 . S
C972 C973 1.367 . S
C972 C980 1.378 . S
C973 C972 1.367 . S
C973 C981 1.433 . S
C974 H970 0.929 . S
C974 C976 1.378 . S
C974 C978 1.350 . S
C975 C978 1.463 . S
C975 C980 1.350 . S
C975 N983 1.427 . S
C976 H967 0.930 . S
C976 C974 1.378 . S
C976 C977 1.367 . S
C977 C976 1.367 . S
C977 C979 1.433 . S
C978 C974 1.350 . S
C978 C975 1.463 . S
C978 N982 1.427 . S
C979 H969 0.929 . S
C979 C977 1.433 . S
C979 N982 1.384 . S
C980 H971 0.929 . S
C980 C972 1.378 . S
C980 C975 1.350 . S
C981 H968 0.929 . S
C981 C973 1.433 . S
C981 N983 1.384 . S
N982 C978 1.427 . S
N982 C979 1.384 . S
N983 C975 1.427 . S
N983 C981 1.384 . S
H984 C990 0.930 . S
H985 C994 0.930 . S
H986 C999 0.929 . S
H987 C997 0.929 . S
H988 C992 0.929 . S
H989 C998 0.929 . S
C990 H984 0.930 . S
C990 C991 1.367 . S
C990 C998 1.378 . S
C991 C990 1.367 . S
C991 C999 1.433 . S
C992 H988 0.929 . S
C992 C994 1.378 . S
C992 C996 1.350 . S
C993 C996 1.463 . S
C993 C998 1.350 . S
C993 N1001 1.427 . S
C994 H985 0.930 . S
C994 C992 1.378 . S
C994 C995 1.367 . S
C995 C994 1.367 . S
C995 C997 1.433 . S
C996 C992 1.350 . S
C996 C993 1.463 . S
C996 N1000 1.427 . S
C997 H987 0.929 . S
C997 C995 1.433 . S
C997 N1000 1.384 . S
C998 H989 0.929 . S
C998 C990 1.378 . S
C998 C993 1.350 . S
C999 H986 0.929 . S
C999 C991 1.433 . S
C999 N1001 1.384 . S
N1000 C996 1.427 . S
N1000 C997 1.384 . S
N1001 C993 1.427 . S
N1001 C999 1.384 . S
H1002 C1008 0.930 . S
H1003 C1012 0.930 . S
H1004 C1017 0.929 . S
H1005 C1015 0.929 . S
H1006 C1010 0.929 . S
H1007 C1016 0.929 . S
C1008 H1002 0.930 . S
C1008 C1009 1.367 . S
C1008 C1016 1.378 . S
C1009 C1008 1.367 . S
C1009 C1017 1.433 . S
C1010 H1006 0.929 . S
C1010 C1012 1.378 . S
C1010 C1014 1.350 . S
C1011 C1014 1.463 . S
C1011 C1016 1.350 . S
C1011 N1019 1.427 . S
C1012 H1003 0.930 . S
C1012 C1010 1.378 . S
C1012 C1013 1.367 . S
C1013 C1012 1.367 . S
C1013 C1015 1.433 . S
C1014 C1010 1.350 . S
C1014 C1011 1.463 . S
C1014 N1018 1.427 . S
C1015 H1005 0.929 . S
C1015 C1013 1.433 . S
C1015 N1018 1.384 . S
C1016 H1007 0.929 . S
C1016 C1008 1.378 . S
C1016 C1011 1.350 . S
C1017 H1004 0.929 . S
C1017 C1009 1.433 . S
C1017 N1019 1.384 . S
N1018 C1014 1.427 . S
N1018 C1015 1.384 . S
N1019 C1011 1.427 . S
N1019 C1017 1.384 . S
H1020 C1026 0.930 . S
H1021 C1030 0.930 . S
H1022 C1035 0.929 . S
H1023 C1033 0.929 . S
H1024 C1028 0.929 . S
H1025 C1034 0.929 . S
C1026 H1020 0.930 . S
C1026 C1027 1.367 . S
C1026 C1034 1.378 . S
C1027 C1026 1.367 . S
C1027 C1035 1.433 . S
C1028 H1024 0.929 . S
C1028 C1030 1.378 . S
C1028 C1032 1.350 . S
C1029 C1032 1.463 . S
C1029 C1034 1.350 . S
C1029 N1037 1.427 . S
C1030 H1021 0.930 . S
C1030 C1028 1.378 . S
C1030 C1031 1.367 . S
C1031 C1030 1.367 . S
C1031 C1033 1.433 . S
C1032 C1028 1.350 . S
C1032 C1029 1.463 . S
C1032 N1036 1.427 . S
C1033 H1023 0.929 . S
C1033 C1031 1.433 . S
C1033 N1036 1.384 . S
C1034 H1025 0.929 . S
C1034 C1026 1.378 . S
C1034 C1029 1.350 . S
C1035 H1022 0.929 . S
C1035 C1027 1.433 . S
C1035 N1037 1.384 . S
N1036 C1032 1.427 . S
N1036 C1033 1.384 . S
N1037 C1029 1.427 . S
N1037 C1035 1.384 . S
H1038 C1044 0.930 . S
H1039 C1048 0.930 . S
H1040 C1053 0.929 . S
H1041 C1051 0.929 . S
H1042 C1046 0.929 . S
H1043 C1052 0.929 . S
C1044 H1038 0.930 . S
C1044 C1045 1.367 . S
C1044 C1052 1.378 . S
C1045 C1044 1.367 . S
C1045 C1053 1.433 . S
C1046 H1042 0.929 . S
C1046 C1048 1.378 . S
C1046 C1050 1.350 . S
C1047 C1050 1.463 . S
C1047 C1052 1.350 . S
C1047 N1055 1.427 . S
C1048 H1039 0.930 . S
C1048 C1046 1.378 . S
C1048 C1049 1.367 . S
C1049 C1048 1.367 . S
C1049 C1051 1.433 . S
C1050 C1046 1.350 . S
C1050 C1047 1.463 . S
C1050 N1054 1.427 . S
C1051 H1041 0.929 . S
C1051 C1049 1.433 . S
C1051 N1054 1.384 . S
C1052 H1043 0.929 . S
C1052 C1044 1.378 . S
C1052 C1047 1.350 . S
C1053 H1040 0.929 . S
C1053 C1045 1.433 . S
C1053 N1055 1.384 . S
N1054 C1050 1.427 . S
N1054 C1051 1.384 . S
N1055 C1047 1.427 . S
N1055 C1053 1.384 . S
C491 C369 1.511 . S
C487 C15 1.516 . S
C509 C395 1.511 . S
C505 C68 1.515 . S
C527 C409 1.514 . S
C523 C107 1.518 . S
C545 C411 1.511 . S
C541 C160 1.517 . S
C559 C185 1.515 . S
C563 C408 1.513 . S
C581 C410 1.511 . S
C577 C252 1.516 . S
C599 C368 1.511 . S
C595 C277 1.516 . S
C617 C394 1.515 . S
C613 C330 1.518 . S
C635 C396 1.511 . S
C631 C323 1.518 . S
C653 C422 1.513 . S
C649 C192 1.516 . S
C671 C380 1.510 . S
C667 C245 1.515 . S
C689 C382 1.513 . S
C685 C284 1.515 . S
C707 C381 1.515 . S
C703 C61 1.517 . S
C725 C383 1.513 . S
C721 C114 1.518 . S
C743 C397 1.511 . S
C739 C153 1.514 . S
C761 C423 1.513 . S
C757 C22 1.515 . S
C779 C425 1.514 . S
C775 C337 1.519 . S
C793 C206 1.516 . S
C797 C451 1.514 . S
C811 C231 1.516 . S
C815 C464 1.515 . S
C829 C298 1.517 . S
C833 C467 1.515 . S
C847 C47 1.515 . S
C851 C465 1.510 . S
C865 C100 1.517 . S
C869 C466 1.512 . S
C883 C139 1.517 . S
C887 C424 1.512 . S
C905 C450 1.511 . S
C901 C8 1.512 . S
C923 C453 1.514 . S
C919 C1 1.513 . S
C937 C54 1.517 . S
C941 C478 1.510 . S
C955 C93 1.517 . S
C959 C436 1.508 . S
C973 C146 1.517 . S
C977 C438 1.508 . S
C995 C437 1.514 . S
C991 C199 1.518 . S
C1013 C439 1.514 . S
C1009 C238 1.520 . S
C1027 C291 1.516 . S
C1031 C452 1.517 . S
C1049 C479 1.512 . S
C1045 C344 1.518 . S
