# Generated by pormake.
# Topology pts, (4,4)-cn, num edge types: 1
# Building blocks:
#     Node 0, Type 0, BuildingBlock: KUFVIS_clean_linker_0, # of connection points: 4
#     Node 1, Type 0, BuildingBlock: KUFVIS_clean_linker_0, # of connection points: 4
#     Node 2, Type 1, BuildingBlock: QUQFOY_clean_sbu_1, # of connection points: 4
#     Node 3, Type 1, BuildingBlock: QUQFOY_clean_sbu_1, # of connection points: 4
#     Edge 4, Type (0, 1), BuildingBlock: UVAHIK_clean_linker_0, # of connection points: 2
#     Edge 5, Type (0, 1), BuildingBlock: UVAHIK_clean_linker_0, # of connection points: 2
#     Edge 6, Type (0, 1), BuildingBlock: UVAHIK_clean_linker_0, # of connection points: 2
#     Edge 7, Type (0, 1), BuildingBlock: UVAHIK_clean_linker_0, # of connection points: 2
#     Edge 8, Type (0, 1), BuildingBlock: UVAHIK_clean_linker_0, # of connection points: 2
#     Edge 9, Type (0, 1), BuildingBlock: UVAHIK_clean_linker_0, # of connection points: 2
#     Edge 10, Type (0, 1), BuildingBlock: UVAHIK_clean_linker_0, # of connection points: 2
#     Edge 11, Type (0, 1), BuildingBlock: UVAHIK_clean_linker_0, # of connection points: 2
# Relax obj value: 0.104
# Max RMSD: 0.274
# Mean RMSD: 0.186
data_MOF--net-pts--node1-QUQFOY_clean_sbu_1--node2-KUFVIS_clean_linker_0--edge1-UVAHIK_clean_linker_0
_symmetry_space_group_name_H-M    P1
_symmetry_Int_Tables_number       1
_symmetry_cell_setting            triclinic
loop_
_symmetry_equiv_pos_as_xyz
'x, y, z'
_cell_length_a     31.120243
_cell_length_b     34.004422
_cell_length_c     47.756372
_cell_angle_alpha  89.977331
_cell_angle_beta   90.172138
_cell_angle_gamma 91.120281
loop_
_atom_site_label
_atom_site_type_symbol
_atom_site_fract_x
_atom_site_fract_y
_atom_site_fract_z
_atom_type_partial_charge
H0 H 0.36837 0.05991 -0.01918 0.0
H1 H 0.47895 1.0145 0.94004 0.0
H2 H 0.48363 0.04428 0.0282 0.0
H3 H 0.53504 1.00202 0.02983 0.0
H4 H 0.65401 0.98373 -0.01233 0.0
H5 H 0.54758 0.02809 0.94139 0.0
C6 C 0.40196 0.05205 -0.01837 0.0
C7 C 0.42373 0.05259 0.00731 0.0
C8 C 0.42213 0.03897 0.9573 0.0
C9 C 0.46467 0.02618 0.95881 0.0
C10 C 0.48822 0.02832 -0.01584 0.0
C11 C 0.467 0.04181 0.00835 0.0
C12 C 0.53436 1.01609 -0.0147 0.0
C13 C 0.55335 1.00358 0.01065 0.0
C14 C 0.5965 0.99245 0.0116 0.0
C15 C 0.6205 0.99188 -0.0131 0.0
C16 C 0.60264 1.00416 0.96152 0.0
C17 C 0.56012 1.01714 0.96097 0.0
H18 H 0.99289 0.65522 0.47108 0.0
H19 H 0.01154 0.55427 0.52266 0.0
H20 H 1.00514 0.54353 0.43204 0.0
H21 H 0.03503 0.48847 0.43693 0.0
H22 H 0.03256 0.38472 0.48742 0.0
H23 H 0.99718 0.49303 0.52449 0.0
C24 C 0.99633 0.62366 0.47315 0.0
C25 C 0.9993 0.60088 0.44902 0.0
C26 C 0.99969 0.60678 0.49973 0.0
C27 C 1.00718 0.56621 0.50194 0.0
C28 C 1.00897 0.54184 0.47781 0.0
C29 C 1.00476 0.56018 0.45127 0.0
C30 C 0.01543 0.49793 0.48034 0.0
C31 C 0.02844 0.47514 0.457 0.0
C32 C 0.03397 0.43431 0.45928 0.0
C33 C 0.02854 0.41621 0.48532 0.0
C34 C 0.01642 0.43773 0.50869 0.0
C35 C 1.00861 0.47801 0.50614 0.0
O36 O 0.96056 0.9817 0.21187 0.0
Cd37 Cd 0.01921 0.9783 0.23193 0.0
Cd38 Cd 1.0039 0.06316 0.23305 0.0
O39 O 0.94529 0.04441 0.21708 0.0
O40 O 0.02664 0.92021 0.23298 0.0
O41 O 0.02154 0.95622 0.27122 0.0
C42 C 0.02519 0.92198 0.25987 0.0
C43 C 1.00527 0.11454 0.26559 0.0
C44 C 0.93493 1.01001 0.20877 0.0
C45 C 0.08276 0.03327 0.20313 0.0
O46 O 0.05765 0.06149 0.20796 0.0
O47 O 0.07414 0.99881 0.21211 0.0
O48 O 0.99629 0.12051 0.23962 0.0
O49 O 0.01242 0.07889 0.27344 0.0
O50 O 0.95404 0.04767 0.75082 0.0
Cd51 Cd 1.01007 0.06182 0.72994 0.0
Cd52 Cd 0.01321 0.97535 0.72998 0.0
O53 O 0.95824 0.98294 0.75331 0.0
O54 O 1.00683 0.12015 0.72676 0.0
O55 O 1.00819 0.081 0.68993 0.0
C56 C 1.00638 0.1162 0.69997 0.0
C57 C 0.01171 0.92236 0.69877 0.0
C58 C 0.93892 1.01459 0.75886 0.0
C59 C 0.08844 0.02239 0.75439 0.0
O60 O 0.0722 0.98921 0.74748 0.0
O61 O 0.06841 0.05395 0.7497 0.0
O62 O 0.0165 0.91724 0.72529 0.0
O63 O 1.00763 0.9579 0.68972 0.0
C64 C 0.37223 0.09309 0.03462 0.0
C65 C 0.39947 0.06074 0.03321 0.0
C66 C 0.34323 0.09659 0.0567 0.0
C67 C 0.31056 0.05337 0.12572 0.0
H68 H 0.19698 0.08337 0.101 0.0
C69 C 0.15373 1.01164 0.18435 0.0
C70 C 0.12237 0.04067 0.18667 0.0
C71 C 0.19064 0.01843 0.16832 0.0
C72 C 0.22862 0.07545 0.10835 0.0
H73 H 0.41938 1.00775 0.05433 0.0
H74 H 0.36816 1.01316 0.09251 0.0
H75 H 0.25711 0.08879 0.06883 0.0
H76 H 0.10561 0.09987 0.17425 0.0
H77 H 0.1698 0.11143 0.14603 0.0
H78 H 0.28112 0.03839 0.16496 0.0
C79 C 0.3696 0.03638 0.07701 0.0
C80 C 0.26325 0.07874 0.08996 0.0
C81 C 0.39899 0.03319 0.0551 0.0
C82 C 0.12903 0.07682 0.17287 0.0
C83 C 0.16573 0.08344 0.15663 0.0
C84 C 0.27573 0.0497 0.14406 0.0
C85 C 0.34038 0.06745 0.0776 0.0
C86 C 0.30463 0.06736 0.09827 0.0
C87 C 0.19677 0.05424 0.15405 0.0
C88 C 0.23435 0.06034 0.13543 0.0
H89 H 0.3723 0.11491 0.01808 0.0
H90 H 0.32202 0.12145 0.05686 0.0
H91 H 0.34203 0.04487 0.133 0.0
H92 H 0.14969 0.98353 0.19479 0.0
H93 H 0.21384 0.99525 0.16647 0.0
C94 C 0.97262 0.40202 0.5446 0.0
C95 C 0.01266 0.41671 0.53558 0.0
C96 C 0.97038 0.37319 0.56553 0.0
C97 C 0.03596 0.29281 0.59171 0.0
H98 H 0.94971 0.2826 0.64978 0.0
C99 C 1.00827 0.14785 0.65244 0.0
C100 C 1.00418 0.15121 0.68162 0.0
C101 C 1.00749 0.18136 0.63544 0.0
C102 C 0.97409 0.28515 0.63371 0.0
H103 H 0.0814 0.41486 0.54193 0.0
H104 H 0.07764 0.36529 0.57895 0.0
H105 H 0.95273 0.34199 0.62079 0.0
H106 H 0.99523 0.19233 0.71579 0.0
H107 H 0.99394 0.25059 0.68615 0.0
H108 H 0.05749 0.23623 0.60455 0.0
C109 C 0.048 0.37547 0.56976 0.0
C110 C 0.97564 0.31902 0.61704 0.0
C111 C 0.05019 0.40415 0.54889 0.0
C112 C 0.99854 0.18868 0.69337 0.0
C113 C 0.99751 0.2221 0.67638 0.0
C114 C 0.03423 0.25894 0.60821 0.0
C115 C 1.00822 0.35853 0.57753 0.0
C116 C 1.00675 0.32328 0.59593 0.0
C117 C 1.00233 0.21888 0.64726 0.0
C118 C 1.00333 0.25469 0.62941 0.0
H119 H 0.9434 0.41084 0.53415 0.0
H120 H 0.93928 0.36057 0.57097 0.0
H121 H 0.05986 0.29486 0.5753 0.0
H122 H 0.01252 0.1194 0.64275 0.0
H123 H 0.01083 0.1779 0.61301 0.0
C124 C 0.64347 0.95136 0.0419 0.0
C125 C 0.61839 0.98488 0.03855 0.0
C126 C 0.67107 0.94808 0.06486 0.0
C127 C 0.7043 0.99535 0.13264 0.0
H128 H 0.81612 0.9573 0.11114 0.0
C129 C 0.8635 0.03315 0.19119 0.0
C130 C 0.89335 1.0029 0.19423 0.0
C131 C 0.82568 0.02691 0.17575 0.0
C132 C 0.78493 0.96749 0.11765 0.0
H133 H 0.60062 0.04027 0.05709 0.0
H134 H 0.64966 0.03529 0.09677 0.0
H135 H 0.75672 0.95249 0.07827 0.0
H136 H 0.90594 0.94188 0.18428 0.0
H137 H 0.84025 0.93126 0.15729 0.0
H138 H 0.73372 1.01196 0.1717 0.0
C139 C 0.64751 1.011 0.08215 0.0
C140 C 0.75067 0.96456 0.09883 0.0
C141 C 0.61939 1.01395 0.05939 0.0
C142 C 0.88385 0.96594 0.18224 0.0
C143 C 0.84626 0.95983 0.16669 0.0
C144 C 0.73883 0.99865 0.15141 0.0
C145 C 0.67483 0.97865 0.08464 0.0
C146 C 0.70994 0.97873 0.10593 0.0
C147 C 0.81712 0.99041 0.1629 0.0
C148 C 0.77957 0.985 0.14399 0.0
H149 H 0.64295 0.92843 0.02615 0.0
H150 H 0.6907 0.92223 0.06648 0.0
H151 H 0.67331 1.00614 0.13898 0.0
H152 H 0.86971 0.06191 0.20023 0.0
H153 H 0.80394 0.05111 0.173 0.0
C154 C 0.02499 0.62959 0.54743 0.0
C155 C 0.99628 0.63257 0.52479 0.0
C156 C 0.02469 0.65735 0.56912 0.0
C157 C 0.96095 0.74077 0.59798 0.0
H158 H 0.07189 0.77601 0.62661 0.0
C159 C 0.99094 0.89053 0.65321 0.0
C160 C 0.01068 0.88822 0.67963 0.0
C161 C 0.98841 0.85742 0.63584 0.0
C162 C 0.04071 0.76626 0.61886 0.0
H163 H 0.94285 0.66545 0.50821 0.0
H164 H 0.94366 0.71448 0.54486 0.0
H165 H 0.06772 0.72016 0.5946 0.0
H166 H 0.04421 0.84987 0.70831 0.0
H167 H 0.04093 0.79245 0.67751 0.0
H168 H 0.93448 0.78836 0.62133 0.0
C169 C 0.96605 0.69061 0.54642 0.0
C170 C 0.03817 0.73402 0.60072 0.0
C171 C 0.96599 0.6627 0.52506 0.0
C172 C 0.02865 0.85248 0.68808 0.0
C173 C 0.02694 0.81968 0.67048 0.0
C174 C 0.96365 0.77346 0.61566 0.0
C175 C 0.99589 0.68884 0.56853 0.0
C176 C 0.99827 0.72102 0.58978 0.0
C177 C 1.00642 0.82175 0.64435 0.0
C178 C 1.00357 0.78665 0.62608 0.0
H179 H 0.0488 0.6068 0.54787 0.0
H180 H 0.04759 0.65447 0.58607 0.0
H181 H 0.92952 0.73118 0.59064 0.0
H182 H 0.97672 0.91766 0.64622 0.0
H183 H 0.97264 0.85972 0.61567 0.0
C184 C 0.39622 1.00317 0.91431 0.0
C185 C 0.3977 0.03753 0.93063 0.0
C186 C 0.36956 1.00076 0.8907 0.0
C187 C 0.30685 0.06023 0.84072 0.0
H188 H 0.23038 0.96891 0.83838 0.0
C189 C 0.14551 0.05928 0.78135 0.0
C190 C 0.13035 0.02402 0.76917 0.0
C191 C 0.18338 0.06009 0.79715 0.0
C192 C 0.25198 0.99426 0.83828 0.0
H193 H 0.37434 0.09689 0.93439 0.0
H194 H 0.32782 0.09273 0.89326 0.0
H195 H 0.28849 0.97173 0.87255 0.0
H196 H 0.14424 0.96234 0.76295 0.0
H197 H 0.21068 0.96396 0.79005 0.0
H198 H 0.26991 0.08308 0.80675 0.0
C199 C 0.34721 0.06768 0.89859 0.0
C200 C 0.2853 0.99586 0.85792 0.0
C201 C 0.37351 0.06996 0.92226 0.0
C202 C 0.15476 0.98992 0.77229 0.0
C203 C 0.19278 0.9908 0.78794 0.0
C204 C 0.27366 0.05854 0.82095 0.0
C205 C 0.34428 0.03281 0.88287 0.0
C206 C 0.31252 0.0292 0.85974 0.0
C207 C 0.20716 0.02572 0.80098 0.0
C208 C 0.24524 0.02589 0.81989 0.0
H209 H 0.41438 0.97768 0.92039 0.0
H210 H 0.36815 0.97361 0.87885 0.0
H211 H 0.32772 0.08609 0.84141 0.0
H212 H 0.12748 0.08608 0.77941 0.0
H213 H 0.19314 0.08739 0.80719 0.0
C214 C 0.07134 0.37798 0.43677 0.0
C215 C 0.04254 0.4092 0.43452 0.0
C216 C 0.07199 0.34852 0.41645 0.0
C217 C 0.03946 0.31978 0.34523 0.0
H218 H 0.02245 0.21639 0.37823 0.0
C219 C 0.99228 0.18475 0.2779 0.0
C220 C 1.00899 0.14806 0.28525 0.0
C221 C 0.9979 0.21724 0.29552 0.0
C222 C 0.02795 0.24484 0.36856 0.0
H223 H 0.99455 0.43579 0.40797 0.0
H224 H 0.99645 0.38457 0.37198 0.0
H225 H 0.03335 0.27334 0.40838 0.0
H226 H 0.04475 0.11662 0.31683 0.0
H227 H 0.05581 0.17349 0.34724 0.0
H228 H 0.03484 0.29134 0.30537 0.0
C229 C 0.01816 0.38282 0.38969 0.0
C230 C 0.03409 0.27754 0.3859 0.0
C231 C 0.01723 0.41222 0.41021 0.0
C232 C 0.03114 0.14443 0.31073 0.0
C233 C 0.03733 0.1771 0.32821 0.0
C234 C 0.03393 0.28695 0.32781 0.0
C235 C 0.04426 0.34988 0.39325 0.0
C236 C 0.03973 0.31534 0.37444 0.0
C237 C 0.02095 0.21403 0.32078 0.0
C238 C 0.02781 0.24902 0.33925 0.0
H239 H 0.09182 0.37524 0.45502 0.0
H240 H 0.09304 0.32385 0.41941 0.0
H241 H 0.04394 0.34859 0.33587 0.0
H242 H 0.97481 0.18842 0.25845 0.0
H243 H 0.98391 0.24483 0.28934 0.0
C244 C 0.63208 0.03813 0.91883 0.0
C245 C 0.62935 1.00451 0.93589 0.0
C246 C 0.66035 0.03946 0.89613 0.0
C247 C 0.72515 0.97767 0.84935 0.0
H248 H 0.80106 0.06929 0.84578 0.0
C249 C 0.88506 0.97822 0.78863 0.0
C250 C 0.89875 1.01318 0.7754 0.0
C251 C 0.84829 0.97753 0.80536 0.0
C252 C 0.77968 0.04379 0.84607 0.0
H253 H 0.65242 0.94539 0.94193 0.0
H254 H 0.7018 0.9477 0.90235 0.0
H255 H 0.74251 0.06753 0.87945 0.0
H256 H 0.8836 0.07449 0.76856 0.0
H257 H 0.81911 0.07304 0.79725 0.0
H258 H 0.76254 0.95374 0.81615 0.0
C259 C 0.68212 0.97298 0.90643 0.0
C260 C 0.74612 0.0428 0.86541 0.0
C261 C 0.65417 0.97177 0.92922 0.0
C262 C 0.87421 0.04714 0.77868 0.0
C263 C 0.83731 0.04637 0.79524 0.0
C264 C 0.75857 0.97875 0.82987 0.0
C265 C 0.68607 1.00707 0.88994 0.0
C266 C 0.71892 1.00949 0.86755 0.0
C267 C 0.82419 1.0117 0.80909 0.0
C268 C 0.78666 1.01158 0.82829 0.0
H269 H 0.61348 0.06385 0.92362 0.0
H270 H 0.66253 0.06601 0.88364 0.0
H271 H 0.70433 0.9518 0.85032 0.0
H272 H 0.90327 0.95155 0.7866 0.0
H273 H 0.83949 0.95044 0.81602 0.0
C274 C 0.03782 0.6248 0.40649 0.0
C275 C 0.99945 0.62127 0.42171 0.0
C276 C 0.04169 0.6525 0.38493 0.0
C277 C 0.98225 0.71813 0.33785 0.0
H278 H 0.07822 0.79098 0.3495 0.0
C279 C 0.01986 0.84876 0.26368 0.0
C280 C 0.02587 0.88551 0.27678 0.0
C281 C 0.0183 0.81418 0.27947 0.0
C282 C 0.05135 0.77083 0.34599 0.0
H283 H 0.93438 0.6418 0.42558 0.0
H284 H 0.94057 0.68935 0.38726 0.0
H285 H 0.07166 0.73179 0.37844 0.0
H286 H 0.03583 0.91473 0.31667 0.0
H287 H 0.0339 0.85398 0.3443 0.0
H288 H 0.9617 0.75746 0.3056 0.0
C289 C 0.96769 0.67095 0.39198 0.0
C290 C 0.04783 0.73679 0.36231 0.0
C291 C 0.96406 0.64374 0.41381 0.0
C292 C 0.03116 0.88687 0.306 0.0
C293 C 0.03022 0.85214 0.32177 0.0
C294 C 0.98614 0.75188 0.32123 0.0
C295 C 1.00704 0.67666 0.37806 0.0
C296 C 0.01295 0.71037 0.35865 0.0
C297 C 0.02333 0.81551 0.30866 0.0
C298 C 0.0204 0.77883 0.32541 0.0
H299 H 0.06567 0.60814 0.41257 0.0
H300 H 0.07227 0.65617 0.37438 0.0
H301 H 0.95504 0.69827 0.33464 0.0
H302 H 0.01559 0.84667 0.24121 0.0
H303 H 0.01328 0.78634 0.26882 0.0
loop_
_geom_bond_atom_site_label_1
_geom_bond_atom_site_label_2
_geom_bond_distance
_geom_bond_site_symmetry_2
_ccdc_geom_bond_type
H0 C6 0.928 1_565 S
H1 C9 0.931 . S
H2 C11 0.931 1_565 S
H3 C13 0.930 . S
H4 C15 0.931 . S
H5 C17 0.930 1_565 S
C6 H0 0.928 1_545 S
C6 C7 1.380 1_545 S
C6 C8 1.394 1_554 S
C7 C6 1.380 1_565 S
C7 C11 1.382 1_565 S
C8 C6 1.394 1_556 S
C8 C9 1.400 . S
C9 H1 0.931 . S
C9 C8 1.400 . S
C9 C10 1.375 1_556 S
C10 C9 1.375 1_554 S
C10 C11 1.415 . S
C10 C12 1.501 . S
C11 H2 0.931 1_545 S
C11 C7 1.382 1_545 S
C11 C10 1.415 . S
C12 C10 1.501 . S
C12 C13 1.384 . S
C12 C17 1.409 1_554 S
C13 H3 0.930 . S
C13 C12 1.384 . S
C13 C14 1.389 . S
C14 C13 1.389 . S
C14 C15 1.405 . S
C15 H4 0.931 . S
C15 C14 1.405 . S
C15 C16 1.364 1_554 S
C16 C15 1.364 1_556 S
C16 C17 1.400 . S
C17 H5 0.930 1_545 S
C17 C12 1.409 1_556 S
C17 C16 1.400 . S
H18 C24 0.930 . S
H19 C27 0.931 . S
H20 C29 0.931 . S
H21 C31 0.930 . S
H22 C33 0.930 . S
H23 C35 0.931 . S
C24 H18 0.930 . S
C24 C25 1.380 . S
C24 C26 1.394 1_455 S
C25 C24 1.380 . S
C25 C29 1.382 . S
C26 C24 1.394 1_655 S
C26 C27 1.400 . S
C27 H19 0.931 . S
C27 C26 1.400 . S
C27 C28 1.375 . S
C28 C27 1.375 . S
C28 C29 1.415 1_655 S
C28 C30 1.501 . S
C29 H20 0.931 . S
C29 C25 1.382 . S
C29 C28 1.415 1_455 S
C30 C28 1.501 . S
C30 C31 1.384 . S
C30 C35 1.408 1_655 S
C31 H21 0.930 . S
C31 C30 1.384 . S
C31 C32 1.389 . S
C32 C31 1.389 . S
C32 C33 1.406 . S
C33 H22 0.930 . S
C33 C32 1.406 . S
C33 C34 1.363 1_655 S
C34 C33 1.363 1_455 S
C34 C35 1.400 . S
C35 H23 0.931 . S
C35 C30 1.408 1_455 S
C35 C34 1.400 . S
O36 Cd37 2.223 1_655 S
O36 C44 1.315 . S
Cd37 O36 2.223 1_455 S
Cd37 O40 2.297 1_455 S
Cd37 O41 2.439 1_455 S
Cd37 O47 2.240 1_565 S
Cd38 O39 2.240 1_545 S
Cd38 O46 2.223 1_655 S
Cd38 O48 2.297 1_655 S
Cd38 O49 2.439 1_655 S
O39 Cd38 2.240 1_565 S
O39 C44 1.279 . S
O40 Cd37 2.297 1_655 S
O40 C42 1.247 . S
O41 Cd37 2.439 1_655 S
O41 C42 1.208 . S
C42 O40 1.247 . S
C42 O41 1.208 . S
C43 O48 1.247 . S
C43 O49 1.208 . S
C44 O36 1.315 . S
C44 O39 1.279 . S
C45 O46 1.315 . S
C45 O47 1.279 . S
O46 Cd38 2.223 1_455 S
O46 C45 1.315 . S
O47 Cd37 2.240 1_545 S
O47 C45 1.279 . S
O48 Cd38 2.297 1_455 S
O48 C43 1.247 . S
O49 Cd38 2.439 1_455 S
O49 C43 1.208 . S
O50 Cd51 2.223 1_655 S
O50 C58 1.315 . S
Cd51 O50 2.223 1_455 S
Cd51 O54 2.297 1_455 S
Cd51 O55 2.439 1_455 S
Cd51 O61 2.240 1_545 S
Cd52 O53 2.240 1_565 S
Cd52 O60 2.223 1_655 S
Cd52 O62 2.297 1_655 S
Cd52 O63 2.439 1_655 S
O53 Cd52 2.240 1_545 S
O53 C58 1.279 . S
O54 Cd51 2.297 1_655 S
O54 C56 1.247 . S
O55 Cd51 2.439 1_655 S
O55 C56 1.208 . S
C56 O54 1.247 . S
C56 O55 1.208 . S
C57 O62 1.247 . S
C57 O63 1.208 . S
C58 O50 1.315 . S
C58 O53 1.279 . S
C59 O60 1.315 . S
C59 O61 1.279 . S
O60 Cd52 2.223 1_455 S
O60 C59 1.315 . S
O61 Cd51 2.240 1_565 S
O61 C59 1.279 . S
O62 Cd52 2.297 1_455 S
O62 C57 1.247 . S
O63 Cd52 2.439 1_455 S
O63 C57 1.208 . S
C64 C65 1.349 1_545 S
C64 C66 1.327 . S
C64 H89 0.950 . S
C65 C64 1.349 1_565 S
C65 C81 1.349 . S
C66 C64 1.327 . S
C66 C85 1.429 . S
C66 H90 0.950 . S
C67 C84 1.574 . S
C67 C86 1.368 1_565 S
C67 H91 0.949 . S
H68 C72 0.949 . S
C69 C70 1.349 1_565 S
C69 C71 1.327 . S
C69 H92 0.950 . S
C70 C69 1.349 1_545 S
C70 C82 1.349 . S
C71 C69 1.327 . S
C71 C87 1.429 1_565 S
C71 H93 0.950 . S
C72 H68 0.949 . S
C72 C80 1.574 . S
C72 C88 1.368 . S
H73 C81 0.950 . S
H74 C79 0.950 . S
H75 C80 0.949 . S
H76 C82 0.950 . S
H77 C83 0.950 . S
H78 C84 0.949 . S
C79 H74 0.950 . S
C79 C81 1.327 . S
C79 C85 1.429 1_565 S
C80 C72 1.574 . S
C80 H75 0.949 . S
C80 C86 1.368 . S
C81 C65 1.349 . S
C81 H73 0.950 . S
C81 C79 1.327 . S
C82 C70 1.349 . S
C82 H76 0.950 . S
C82 C83 1.327 . S
C83 H77 0.950 . S
C83 C82 1.327 . S
C83 C87 1.429 . S
C84 C67 1.574 . S
C84 H78 0.949 . S
C84 C88 1.368 1_565 S
C85 C66 1.429 . S
C85 C79 1.429 1_545 S
C85 C86 1.523 . S
C86 C67 1.368 1_545 S
C86 C80 1.368 . S
C86 C85 1.523 . S
C87 C71 1.429 1_545 S
C87 C83 1.429 . S
C87 C88 1.523 . S
C88 C72 1.368 . S
C88 C84 1.368 1_545 S
C88 C87 1.523 . S
H89 C64 0.950 . S
H90 C66 0.950 . S
H91 C67 0.949 . S
H92 C69 0.950 . S
H93 C71 0.950 . S
C94 C95 1.349 1_655 S
C94 C96 1.327 . S
C94 H119 0.950 . S
C95 C94 1.349 1_455 S
C95 C111 1.349 . S
C96 C94 1.327 . S
C96 C115 1.429 . S
C96 H120 0.950 . S
C97 C114 1.574 . S
C97 C116 1.368 1_455 S
C97 H121 0.949 . S
H98 C102 0.949 . S
C99 C100 1.339 1_455 S
C99 C101 1.329 . S
C99 H122 0.958 . S
C100 C99 1.339 1_655 S
C100 C112 1.349 . S
C101 C99 1.329 . S
C101 C117 1.429 1_455 S
C101 H123 0.950 . S
C102 H98 0.949 . S
C102 C110 1.574 . S
C102 C118 1.368 . S
H103 C111 0.950 . S
H104 C109 0.950 . S
H105 C110 0.949 . S
H106 C112 0.950 . S
H107 C113 0.950 . S
H108 C114 0.949 . S
C109 H104 0.950 . S
C109 C111 1.327 . S
C109 C115 1.429 1_455 S
C110 C102 1.574 . S
C110 H105 0.949 . S
C110 C116 1.368 . S
C111 C95 1.349 . S
C111 H103 0.950 . S
C111 C109 1.327 . S
C112 C100 1.349 . S
C112 H106 0.950 . S
C112 C113 1.327 . S
C113 H107 0.950 . S
C113 C112 1.327 . S
C113 C117 1.429 . S
C114 C97 1.574 . S
C114 H108 0.949 . S
C114 C118 1.368 1_455 S
C115 C96 1.429 . S
C115 C109 1.429 1_655 S
C115 C116 1.523 . S
C116 C97 1.368 1_655 S
C116 C110 1.368 . S
C116 C115 1.523 . S
C117 C101 1.429 1_655 S
C117 C113 1.429 . S
C117 C118 1.523 . S
C118 C102 1.368 . S
C118 C114 1.368 1_655 S
C118 C117 1.523 . S
H119 C94 0.950 . S
H120 C96 0.950 . S
H121 C97 0.949 . S
H122 C99 0.958 . S
H123 C101 0.950 . S
C124 C125 1.349 1_565 S
C124 C126 1.327 . S
C124 H149 0.950 . S
C125 C124 1.349 1_545 S
C125 C141 1.349 . S
C126 C124 1.327 . S
C126 C145 1.428 . S
C126 H150 0.950 . S
C127 C144 1.574 . S
C127 C146 1.368 1_545 S
C127 H151 0.949 . S
H128 C132 0.949 . S
C129 C130 1.349 1_545 S
C129 C131 1.327 . S
C129 H152 0.950 . S
C130 C129 1.349 1_565 S
C130 C142 1.349 . S
C131 C129 1.327 . S
C131 C147 1.429 1_545 S
C131 H153 0.950 . S
C132 H128 0.949 . S
C132 C140 1.574 . S
C132 C148 1.368 . S
H133 C141 0.950 . S
H134 C139 0.950 . S
H135 C140 0.949 . S
H136 C142 0.950 . S
H137 C143 0.950 . S
H138 C144 0.949 . S
C139 H134 0.950 . S
C139 C141 1.327 . S
C139 C145 1.429 1_545 S
C140 C132 1.574 . S
C140 H135 0.949 . S
C140 C146 1.368 . S
C141 C125 1.349 . S
C141 H133 0.950 . S
C141 C139 1.327 . S
C142 C130 1.349 . S
C142 H136 0.950 . S
C142 C143 1.327 . S
C143 H137 0.950 . S
C143 C142 1.327 . S
C143 C147 1.429 . S
C144 C127 1.574 . S
C144 H138 0.949 . S
C144 C148 1.368 1_545 S
C145 C126 1.428 . S
C145 C139 1.429 1_565 S
C145 C146 1.523 . S
C146 C127 1.368 1_565 S
C146 C140 1.368 . S
C146 C145 1.523 . S
C147 C131 1.429 1_565 S
C147 C143 1.429 . S
C147 C148 1.523 . S
C148 C132 1.368 . S
C148 C144 1.368 1_565 S
C148 C147 1.523 . S
H149 C124 0.950 . S
H150 C126 0.950 . S
H151 C127 0.949 . S
H152 C129 0.950 . S
H153 C131 0.950 . S
C154 C155 1.349 1_455 S
C154 C156 1.327 . S
C154 H179 0.950 . S
C155 C154 1.349 1_655 S
C155 C171 1.349 . S
C156 C154 1.327 . S
C156 C175 1.429 . S
C156 H180 0.950 . S
C157 C174 1.574 . S
C157 C176 1.368 1_655 S
C157 H181 0.949 . S
H158 C162 0.949 . S
C159 C160 1.349 1_655 S
C159 C161 1.327 . S
C159 H182 0.950 . S
C160 C159 1.349 1_455 S
C160 C172 1.349 . S
C161 C159 1.327 . S
C161 C177 1.429 1_655 S
C161 H183 0.950 . S
C162 H158 0.949 . S
C162 C170 1.574 . S
C162 C178 1.368 . S
H163 C171 0.950 . S
H164 C169 0.950 . S
H165 C170 0.949 . S
H166 C172 0.950 . S
H167 C173 0.950 . S
H168 C174 0.949 . S
C169 H164 0.950 . S
C169 C171 1.327 . S
C169 C175 1.429 1_655 S
C170 C162 1.574 . S
C170 H165 0.949 . S
C170 C176 1.368 . S
C171 C155 1.349 . S
C171 H163 0.950 . S
C171 C169 1.327 . S
C172 C160 1.349 . S
C172 H166 0.950 . S
C172 C173 1.327 . S
C173 H167 0.950 . S
C173 C172 1.327 . S
C173 C177 1.429 . S
C174 C157 1.574 . S
C174 H168 0.949 . S
C174 C178 1.368 1_655 S
C175 C156 1.429 . S
C175 C169 1.429 1_455 S
C175 C176 1.523 . S
C176 C157 1.368 1_455 S
C176 C170 1.368 . S
C176 C175 1.523 . S
C177 C161 1.429 1_455 S
C177 C173 1.429 . S
C177 C178 1.523 . S
C178 C162 1.368 . S
C178 C174 1.368 1_455 S
C178 C177 1.523 . S
H179 C154 0.950 . S
H180 C156 0.950 . S
H181 C157 0.949 . S
H182 C159 0.950 . S
H183 C161 0.950 . S
C184 C185 1.349 1_565 S
C184 C186 1.327 . S
C184 H209 0.950 . S
C185 C184 1.349 1_545 S
C185 C201 1.349 . S
C186 C184 1.327 . S
C186 C205 1.431 1_565 S
C186 H210 0.950 . S
C187 C204 1.574 . S
C187 C206 1.368 1_545 S
C187 H211 0.949 . S
H188 C192 0.949 . S
C189 C190 1.349 1_545 S
C189 C191 1.327 . S
C189 H212 0.950 . S
C190 C189 1.349 1_565 S
C190 C202 1.349 . S
C191 C189 1.327 . S
C191 C207 1.429 1_545 S
C191 H213 0.950 . S
C192 H188 0.949 . S
C192 C200 1.574 . S
C192 C208 1.368 . S
H193 C201 0.950 . S
H194 C199 0.950 . S
H195 C200 0.949 . S
H196 C202 0.950 . S
H197 C203 0.950 . S
H198 C204 0.949 . S
C199 H194 0.950 . S
C199 C201 1.327 . S
C199 C205 1.426 . S
C200 C192 1.574 . S
C200 H195 0.949 . S
C200 C206 1.368 . S
C201 C185 1.349 . S
C201 H193 0.950 . S
C201 C199 1.327 . S
C202 C190 1.349 . S
C202 H196 0.950 . S
C202 C203 1.327 . S
C203 H197 0.950 . S
C203 C202 1.327 . S
C203 C207 1.429 . S
C204 C187 1.574 . S
C204 H198 0.949 . S
C204 C208 1.368 1_545 S
C205 C186 1.431 1_545 S
C205 C199 1.426 . S
C205 C206 1.523 1_545 S
C206 C187 1.368 1_565 S
C206 C200 1.368 . S
C206 C205 1.523 1_565 S
C207 C191 1.429 1_565 S
C207 C203 1.429 . S
C207 C208 1.523 . S
C208 C192 1.368 . S
C208 C204 1.368 1_565 S
C208 C207 1.523 . S
H209 C184 0.950 . S
H210 C186 0.950 . S
H211 C187 0.949 . S
H212 C189 0.950 . S
H213 C191 0.950 . S
C214 C215 1.349 1_455 S
C214 C216 1.327 . S
C214 H239 0.950 . S
C215 C214 1.349 1_655 S
C215 C231 1.349 . S
C216 C214 1.327 . S
C216 C235 1.429 . S
C216 H240 0.950 . S
C217 C234 1.574 . S
C217 C236 1.368 . S
C217 H241 0.949 . S
H218 C222 0.949 . S
C219 C220 1.349 . S
C219 C221 1.327 . S
C219 H242 0.950 . S
C220 C219 1.349 . S
C220 C232 1.349 . S
C221 C219 1.327 . S
C221 C237 1.429 . S
C221 H243 0.950 . S
C222 H218 0.949 . S
C222 C230 1.574 . S
C222 C238 1.368 . S
H223 C231 0.950 . S
H224 C229 0.950 . S
H225 C230 0.949 . S
H226 C232 0.950 . S
H227 C233 0.950 . S
H228 C234 0.949 . S
C229 H224 0.950 . S
C229 C231 1.327 1_455 S
C229 C235 1.429 . S
C230 C222 1.574 . S
C230 H225 0.949 . S
C230 C236 1.368 . S
C231 C215 1.349 . S
C231 H223 0.950 . S
C231 C229 1.327 1_655 S
C232 C220 1.349 . S
C232 H226 0.950 . S
C232 C233 1.327 . S
C233 H227 0.950 . S
C233 C232 1.327 . S
C233 C237 1.429 . S
C234 C217 1.574 . S
C234 H228 0.949 . S
C234 C238 1.368 . S
C235 C216 1.429 . S
C235 C229 1.429 . S
C235 C236 1.523 . S
C236 C217 1.368 . S
C236 C230 1.368 . S
C236 C235 1.523 . S
C237 C221 1.429 . S
C237 C233 1.429 . S
C237 C238 1.523 . S
C238 C222 1.368 . S
C238 C234 1.368 . S
C238 C237 1.523 . S
H239 C214 0.950 . S
H240 C216 0.950 . S
H241 C217 0.949 . S
H242 C219 0.950 . S
H243 C221 0.950 . S
C244 C245 1.349 1_545 S
C244 C246 1.327 . S
C244 H269 0.950 . S
C245 C244 1.349 1_565 S
C245 C261 1.349 . S
C246 C244 1.327 . S
C246 C265 1.429 . S
C246 H270 0.950 . S
C247 C264 1.574 . S
C247 C266 1.368 1_565 S
C247 H271 0.949 . S
H248 C252 0.949 . S
C249 C250 1.349 1_565 S
C249 C251 1.327 . S
C249 H272 0.950 . S
C250 C249 1.349 1_545 S
C250 C262 1.349 . S
C251 C249 1.327 . S
C251 C267 1.429 1_565 S
C251 H273 0.950 . S
C252 H248 0.949 . S
C252 C260 1.574 . S
C252 C268 1.368 . S
H253 C261 0.950 . S
H254 C259 0.950 . S
H255 C260 0.949 . S
H256 C262 0.950 . S
H257 C263 0.950 . S
H258 C264 0.949 . S
C259 H254 0.950 . S
C259 C261 1.327 . S
C259 C265 1.429 1_565 S
C260 C252 1.574 . S
C260 H255 0.949 . S
C260 C266 1.368 . S
C261 C245 1.349 . S
C261 H253 0.950 . S
C261 C259 1.327 . S
C262 C250 1.349 . S
C262 H256 0.950 . S
C262 C263 1.327 . S
C263 H257 0.950 . S
C263 C262 1.327 . S
C263 C267 1.429 . S
C264 C247 1.574 . S
C264 H258 0.949 . S
C264 C268 1.368 1_565 S
C265 C246 1.429 . S
C265 C259 1.429 1_545 S
C265 C266 1.523 . S
C266 C247 1.368 1_545 S
C266 C260 1.368 . S
C266 C265 1.523 . S
C267 C251 1.429 1_545 S
C267 C263 1.429 . S
C267 C268 1.523 . S
C268 C252 1.368 . S
C268 C264 1.368 1_545 S
C268 C267 1.523 . S
H269 C244 0.950 . S
H270 C246 0.950 . S
H271 C247 0.949 . S
H272 C249 0.950 . S
H273 C251 0.950 . S
C274 C275 1.349 . S
C274 C276 1.327 . S
C274 H299 0.950 . S
C275 C274 1.349 . S
C275 C291 1.349 1_455 S
C276 C274 1.327 . S
C276 C295 1.429 1_455 S
C276 H300 0.950 . S
C277 C294 1.574 . S
C277 C296 1.368 . S
C277 H301 0.949 . S
H278 C282 0.949 . S
C279 C280 1.349 . S
C279 C281 1.327 . S
C279 H302 0.950 . S
C280 C279 1.349 . S
C280 C292 1.349 1_655 S
C281 C279 1.327 . S
C281 C297 1.429 . S
C281 H303 0.950 . S
C282 H278 0.949 . S
C282 C290 1.574 . S
C282 C298 1.368 1_455 S
H283 C291 0.950 . S
H284 C289 0.950 . S
H285 C290 0.949 . S
H286 C292 0.950 . S
H287 C293 0.950 . S
H288 C294 0.949 . S
C289 H284 0.950 . S
C289 C291 1.327 . S
C289 C295 1.429 . S
C290 C282 1.574 . S
C290 H285 0.949 . S
C290 C296 1.368 1_455 S
C291 C275 1.349 1_655 S
C291 H283 0.950 . S
C291 C289 1.327 . S
C292 C280 1.349 1_455 S
C292 H286 0.950 . S
C292 C293 1.327 . S
C293 H287 0.950 . S
C293 C292 1.327 . S
C293 C297 1.429 1_455 S
C294 C277 1.574 . S
C294 H288 0.949 . S
C294 C298 1.368 . S
C295 C276 1.429 1_655 S
C295 C289 1.429 . S
C295 C296 1.523 . S
C296 C277 1.368 . S
C296 C290 1.368 1_655 S
C296 C295 1.523 . S
C297 C281 1.429 . S
C297 C293 1.429 1_655 S
C297 C298 1.523 . S
C298 C282 1.368 1_655 S
C298 C294 1.368 . S
C298 C297 1.523 . S
H299 C274 0.950 . S
H300 C276 0.950 . S
H301 C277 0.949 . S
H302 C279 0.950 . S
H303 C281 0.950 . S
C70 C45 1.679 . S
C65 C7 1.637 . S
C100 C56 1.581 . S
C95 C34 1.599 . S
C130 C44 1.681 . S
C125 C14 1.647 . S
C160 C57 1.578 . S
C155 C26 1.606 . S
C190 C59 1.672 . S
C185 C8 1.638 . S
C220 C43 1.588 . S
C215 C32 1.615 . S
C250 C58 1.676 . S
C245 C16 1.633 1_565 S
C275 C25 1.605 . S
C280 C42 1.586 . S
