# Generated by pormake.
# Topology ctn, (3,4)-cn, num edge types: 1
# Building blocks:
#     Node 0, Type 0, BuildingBlock: BETDAH_clean_linker_0, # of connection points: 3
#     Node 1, Type 0, BuildingBlock: BETDAH_clean_linker_0, # of connection points: 3
#     Node 2, Type 0, BuildingBlock: BETDAH_clean_linker_0, # of connection points: 3
#     Node 3, Type 0, BuildingBlock: BETDAH_clean_linker_0, # of connection points: 3
#     Node 4, Type 0, BuildingBlock: BETDAH_clean_linker_0, # of connection points: 3
#     Node 5, Type 0, BuildingBlock: BETDAH_clean_linker_0, # of connection points: 3
#     Node 6, Type 0, BuildingBlock: BETDAH_clean_linker_0, # of connection points: 3
#     Node 7, Type 0, BuildingBlock: BETDAH_clean_linker_0, # of connection points: 3
#     Node 8, Type 0, BuildingBlock: BETDAH_clean_linker_0, # of connection points: 3
#     Node 9, Type 0, BuildingBlock: BETDAH_clean_linker_0, # of connection points: 3
#     Node 10, Type 0, BuildingBlock: BETDAH_clean_linker_0, # of connection points: 3
#     Node 11, Type 0, BuildingBlock: BETDAH_clean_linker_0, # of connection points: 3
#     Node 12, Type 0, BuildingBlock: BETDAH_clean_linker_0, # of connection points: 3
#     Node 13, Type 0, BuildingBlock: BETDAH_clean_linker_0, # of connection points: 3
#     Node 14, Type 0, BuildingBlock: BETDAH_clean_linker_0, # of connection points: 3
#     Node 15, Type 0, BuildingBlock: BETDAH_clean_linker_0, # of connection points: 3
#     Node 16, Type 1, BuildingBlock: UXUYUI_clean_sbu_0, # of connection points: 4
#     Node 17, Type 1, BuildingBlock: UXUYUI_clean_sbu_0, # of connection points: 4
#     Node 18, Type 1, BuildingBlock: UXUYUI_clean_sbu_0, # of connection points: 4
#     Node 19, Type 1, BuildingBlock: UXUYUI_clean_sbu_0, # of connection points: 4
#     Node 20, Type 1, BuildingBlock: UXUYUI_clean_sbu_0, # of connection points: 4
#     Node 21, Type 1, BuildingBlock: UXUYUI_clean_sbu_0, # of connection points: 4
#     Node 22, Type 1, BuildingBlock: UXUYUI_clean_sbu_0, # of connection points: 4
#     Node 23, Type 1, BuildingBlock: UXUYUI_clean_sbu_0, # of connection points: 4
#     Node 24, Type 1, BuildingBlock: UXUYUI_clean_sbu_0, # of connection points: 4
#     Node 25, Type 1, BuildingBlock: UXUYUI_clean_sbu_0, # of connection points: 4
#     Node 26, Type 1, BuildingBlock: UXUYUI_clean_sbu_0, # of connection points: 4
#     Node 27, Type 1, BuildingBlock: UXUYUI_clean_sbu_0, # of connection points: 4
#     Edge 28, Type (0, 1), BuildingBlock: UVAHIK_clean_linker_0, # of connection points: 2
#     Edge 29, Type (0, 1), BuildingBlock: UVAHIK_clean_linker_0, # of connection points: 2
#     Edge 30, Type (0, 1), BuildingBlock: UVAHIK_clean_linker_0, # of connection points: 2
#     Edge 31, Type (0, 1), BuildingBlock: UVAHIK_clean_linker_0, # of connection points: 2
#     Edge 32, Type (0, 1), BuildingBlock: UVAHIK_clean_linker_0, # of connection points: 2
#     Edge 33, Type (0, 1), BuildingBlock: UVAHIK_clean_linker_0, # of connection points: 2
#     Edge 34, Type (0, 1), BuildingBlock: UVAHIK_clean_linker_0, # of connection points: 2
#     Edge 35, Type (0, 1), BuildingBlock: UVAHIK_clean_linker_0, # of connection points: 2
#     Edge 36, Type (0, 1), BuildingBlock: UVAHIK_clean_linker_0, # of connection points: 2
#     Edge 37, Type (0, 1), BuildingBlock: UVAHIK_clean_linker_0, # of connection points: 2
#     Edge 38, Type (0, 1), BuildingBlock: UVAHIK_clean_linker_0, # of connection points: 2
#     Edge 39, Type (0, 1), BuildingBlock: UVAHIK_clean_linker_0, # of connection points: 2
#     Edge 40, Type (0, 1), BuildingBlock: UVAHIK_clean_linker_0, # of connection points: 2
#     Edge 41, Type (0, 1), BuildingBlock: UVAHIK_clean_linker_0, # of connection points: 2
#     Edge 42, Type (0, 1), BuildingBlock: UVAHIK_clean_linker_0, # of connection points: 2
#     Edge 43, Type (0, 1), BuildingBlock: UVAHIK_clean_linker_0, # of connection points: 2
#     Edge 44, Type (0, 1), BuildingBlock: UVAHIK_clean_linker_0, # of connection points: 2
#     Edge 45, Type (0, 1), BuildingBlock: UVAHIK_clean_linker_0, # of connection points: 2
#     Edge 46, Type (0, 1), BuildingBlock: UVAHIK_clean_linker_0, # of connection points: 2
#     Edge 47, Type (0, 1), BuildingBlock: UVAHIK_clean_linker_0, # of connection points: 2
#     Edge 48, Type (0, 1), BuildingBlock: UVAHIK_clean_linker_0, # of connection points: 2
#     Edge 49, Type (0, 1), BuildingBlock: UVAHIK_clean_linker_0, # of connection points: 2
#     Edge 50, Type (0, 1), BuildingBlock: UVAHIK_clean_linker_0, # of connection points: 2
#     Edge 51, Type (0, 1), BuildingBlock: UVAHIK_clean_linker_0, # of connection points: 2
#     Edge 52, Type (0, 1), BuildingBlock: UVAHIK_clean_linker_0, # of connection points: 2
#     Edge 53, Type (0, 1), BuildingBlock: UVAHIK_clean_linker_0, # of connection points: 2
#     Edge 54, Type (0, 1), BuildingBlock: UVAHIK_clean_linker_0, # of connection points: 2
#     Edge 55, Type (0, 1), BuildingBlock: UVAHIK_clean_linker_0, # of connection points: 2
#     Edge 56, Type (0, 1), BuildingBlock: UVAHIK_clean_linker_0, # of connection points: 2
#     Edge 57, Type (0, 1), BuildingBlock: UVAHIK_clean_linker_0, # of connection points: 2
#     Edge 58, Type (0, 1), BuildingBlock: UVAHIK_clean_linker_0, # of connection points: 2
#     Edge 59, Type (0, 1), BuildingBlock: UVAHIK_clean_linker_0, # of connection points: 2
#     Edge 60, Type (0, 1), BuildingBlock: UVAHIK_clean_linker_0, # of connection points: 2
#     Edge 61, Type (0, 1), BuildingBlock: UVAHIK_clean_linker_0, # of connection points: 2
#     Edge 62, Type (0, 1), BuildingBlock: UVAHIK_clean_linker_0, # of connection points: 2
#     Edge 63, Type (0, 1), BuildingBlock: UVAHIK_clean_linker_0, # of connection points: 2
#     Edge 64, Type (0, 1), BuildingBlock: UVAHIK_clean_linker_0, # of connection points: 2
#     Edge 65, Type (0, 1), BuildingBlock: UVAHIK_clean_linker_0, # of connection points: 2
#     Edge 66, Type (0, 1), BuildingBlock: UVAHIK_clean_linker_0, # of connection points: 2
#     Edge 67, Type (0, 1), BuildingBlock: UVAHIK_clean_linker_0, # of connection points: 2
#     Edge 68, Type (0, 1), BuildingBlock: UVAHIK_clean_linker_0, # of connection points: 2
#     Edge 69, Type (0, 1), BuildingBlock: UVAHIK_clean_linker_0, # of connection points: 2
#     Edge 70, Type (0, 1), BuildingBlock: UVAHIK_clean_linker_0, # of connection points: 2
#     Edge 71, Type (0, 1), BuildingBlock: UVAHIK_clean_linker_0, # of connection points: 2
#     Edge 72, Type (0, 1), BuildingBlock: UVAHIK_clean_linker_0, # of connection points: 2
#     Edge 73, Type (0, 1), BuildingBlock: UVAHIK_clean_linker_0, # of connection points: 2
#     Edge 74, Type (0, 1), BuildingBlock: UVAHIK_clean_linker_0, # of connection points: 2
#     Edge 75, Type (0, 1), BuildingBlock: UVAHIK_clean_linker_0, # of connection points: 2
# Relax obj value: 0.051
# Max RMSD: 0.166
# Mean RMSD: 0.106
data_MOF--net-ctn--node1-UXUYUI_clean_sbu_0--node2-BETDAH_clean_linker_0--edge1-UVAHIK_clean_linker_0
_symmetry_space_group_name_H-M    P1
_symmetry_Int_Tables_number       1
_symmetry_cell_setting            triclinic
loop_
_symmetry_equiv_pos_as_xyz
'x, y, z'
_cell_length_a     83.421385
_cell_length_b     83.36376
_cell_length_c     84.414573
_cell_angle_alpha  98.000279
_cell_angle_beta   90.378198
_cell_angle_gamma 94.439301
loop_
_atom_site_label
_atom_site_type_symbol
_atom_site_fract_x
_atom_site_fract_y
_atom_site_fract_z
_atom_type_partial_charge
H0 H 0.05972 0.02767 0.08708 0.0
H1 H 0.06172 0.04814 0.0429 0.0
H2 H 0.02605 0.0618 0.07759 0.0
C3 C 0.05501 0.03549 0.07923 0.0
C4 C 0.04208 0.04464 0.08428 0.0
C5 C 0.06212 0.03652 0.06429 0.0
C6 C 0.05643 0.04732 0.05447 0.0
C7 C 0.0434 0.05647 0.0594 0.0
C8 C 0.0363 0.05494 0.07413 0.0
N9 N 0.03657 0.06694 0.04978 0.0
C10 C 0.04348 0.07259 0.03647 0.0
H11 H 0.3118 0.70263 0.24248 0.0
H12 H 0.34121 0.7354 0.21772 0.0
H13 H 0.29458 0.71656 0.19855 0.0
C14 C 0.31341 0.70974 0.23271 0.0
C15 C 0.30142 0.70852 0.22072 0.0
C16 C 0.32785 0.71932 0.23172 0.0
C17 C 0.33014 0.7279 0.21864 0.0
C18 C 0.31811 0.7273 0.20688 0.0
C19 C 0.30375 0.71748 0.20785 0.0
N20 N 0.3212 0.73633 0.19403 0.0
C21 C 0.30945 0.74202 0.18499 0.0
H22 H 0.01331 0.45219 0.04207 0.0
H23 H 0.98564 0.49413 0.04875 0.0
H24 H 0.97701 0.45797 0.00743 0.0
C25 C 0.00413 0.45922 0.03791 0.0
C26 C 0.99549 0.4532 0.02375 0.0
C27 C 1.00068 0.47396 0.04704 0.0
C28 C 0.98829 0.4827 0.04188 0.0
C29 C 0.97984 0.47691 0.02747 0.0
C30 C 0.98353 0.46227 0.01855 0.0
N31 N 0.96788 0.48555 0.02113 0.0
C32 C 0.95988 0.49797 0.02953 0.0
H33 H 0.75859 0.8048 0.21408 0.0
H34 H 0.72543 0.77294 0.23659 0.0
H35 H 0.75295 0.81245 0.265 0.0
C36 C 0.75258 0.80145 0.22463 0.0
C37 C 0.75675 0.81044 0.23957 0.0
C38 C 0.7415 0.78767 0.22336 0.0
C39 C 0.73408 0.78342 0.23733 0.0
C40 C 0.73825 0.79241 0.25234 0.0
C41 C 0.74974 0.80564 0.25337 0.0
N42 N 0.73168 0.78817 0.26678 0.0
C43 C 0.71638 0.7807 0.26813 0.0
H44 H 0.06343 0.99438 0.46843 0.0
H45 H 0.07318 0.98806 0.51707 0.0
H46 H 0.03023 0.96468 0.49318 0.0
C47 C 0.06012 0.98886 0.47895 0.0
C48 C 0.0456 0.97905 0.47897 0.0
C49 C 0.07028 0.992 0.49252 0.0
C50 C 0.06572 0.98535 0.50633 0.0
C51 C 0.05147 0.97537 0.50654 0.0
C52 C 0.04142 0.97213 0.49284 0.0
N53 N 0.04692 0.96996 0.52116 0.0
C54 C 0.04139 0.95408 0.52253 0.0
H55 H 0.25192 0.71146 0.82745 0.0
H56 H 0.21134 0.72866 0.80502 0.0
H57 H 0.23554 0.68907 0.78052 0.0
C58 C 0.24352 0.71047 0.81746 0.0
C59 C 0.24531 0.69884 0.80398 0.0
C60 C 0.23128 0.72124 0.81798 0.0
C61 C 0.22079 0.72042 0.8047 0.0
C62 C 0.22245 0.7088 0.79115 0.0
C63 C 0.23462 0.69813 0.79093 0.0
N64 N 0.21219 0.70732 0.77745 0.0
C65 C 0.1989 0.71611 0.77595 0.0
H66 H 0.96011 0.54779 0.50057 0.0
H67 H 0.00556 0.54989 0.47665 0.0
H68 H 0.97505 0.50562 0.4707 0.0
C69 C 0.96861 0.54211 0.49236 0.0
C70 C 0.96548 0.52572 0.48574 0.0
C71 C 0.98302 0.55097 0.48923 0.0
C72 C 0.99433 0.54331 0.47907 0.0
C73 C 0.99138 0.52691 0.47253 0.0
C74 C 0.97711 0.51824 0.47597 0.0
N75 N 0.00305 0.51839 0.46346 0.0
C76 C 0.01146 0.52421 0.45103 0.0
H77 H 0.81858 0.75378 0.81239 0.0
H78 H 0.79621 0.78998 0.78992 0.0
H79 H 0.77239 0.76896 0.82786 0.0
C80 C 0.80874 0.76141 0.81154 0.0
C81 C 0.79549 0.76003 0.82161 0.0
C82 C 0.80909 0.7721 0.79997 0.0
C83 C 0.79603 0.78164 0.79869 0.0
C84 C 0.78278 0.7804 0.80877 0.0
C85 C 0.78261 0.76961 0.82004 0.0
N86 N 0.76923 0.78957 0.80796 0.0
C87 C 0.76823 0.80259 0.79946 0.0
H88 H 0.32244 0.27371 0.30429 0.0
H89 H 0.30442 0.31385 0.28437 0.0
H90 H 0.28345 0.29858 0.32668 0.0
C91 C 0.31396 0.28296 0.30448 0.0
C92 C 0.30284 0.28479 0.31689 0.0
C93 C 0.31474 0.29347 0.29275 0.0
C94 C 0.30396 0.30576 0.29337 0.0
C95 C 0.29262 0.30751 0.30563 0.0
C96 C 0.29225 0.29712 0.3173 0.0
N97 N 0.28144 0.31962 0.30693 0.0
C98 C 0.27878 0.32993 0.29573 0.0
H99 H 0.501 0.95529 0.55544 0.0
H100 H 0.5016 0.00729 0.56704 0.0
H101 H 0.4788 0.98333 0.52346 0.0
C102 C 0.4977 0.96692 0.55265 0.0
C103 C 0.48947 0.96762 0.5382 0.0
C104 C 0.50212 0.98114 0.56326 0.0
C105 C 0.49796 0.99611 0.55928 0.0
C106 C 0.48924 0.99695 0.54525 0.0
C107 C 0.48506 0.98268 0.53462 0.0
N108 N 0.48568 0.0125 0.54189 0.0
C109 C 0.47216 0.01552 0.53342 0.0
H110 H 0.27172 0.30932 0.704 0.0
H111 H 0.23547 0.27929 0.72479 0.0
H112 H 0.25962 0.32084 0.75342 0.0
C113 C 0.26441 0.30679 0.71406 0.0
C114 C 0.26679 0.31692 0.72874 0.0
C115 C 0.25322 0.29308 0.71244 0.0
C116 C 0.24418 0.28972 0.72583 0.0
C117 C 0.24663 0.29975 0.74063 0.0
C118 C 0.25798 0.31313 0.74198 0.0
N119 N 0.23826 0.29664 0.7546 0.0
C120 C 0.22367 0.28745 0.75478 0.0
H121 H 0.81509 0.19709 0.75 0.0
H122 H 0.82929 0.22905 0.71571 0.0
H123 H 0.78877 0.19409 0.70558 0.0
C124 C 0.81315 0.20148 0.73871 0.0
C125 C 0.80034 0.19432 0.7286 0.0
C126 C 0.82379 0.2139 0.73413 0.0
C127 C 0.82116 0.21955 0.71943 0.0
C128 C 0.80836 0.21246 0.70926 0.0
C129 C 0.79825 0.19979 0.7138 0.0
N130 N 0.80586 0.21696 0.69391 0.0
C131 C 0.80847 0.23266 0.69022 0.0
H132 H 0.57089 0.53212 0.58696 0.0
H133 H 0.57741 0.53509 0.53691 0.0
H134 H 0.53979 0.55959 0.56202 0.0
C135 C 0.56749 0.53674 0.57614 0.0
C136 C 0.5543 0.54632 0.57625 0.0
C137 C 0.57606 0.53276 0.56205 0.0
C138 C 0.57125 0.53843 0.54801 0.0
C139 C 0.55846 0.54831 0.548 0.0
C140 C 0.54997 0.55229 0.56213 0.0
N141 N 0.55381 0.5531 0.53329 0.0
C142 C 0.54892 0.56836 0.53172 0.0
H143 H 0.56533 0.48744 0.95895 0.0
H144 H 0.56473 0.46488 0.00184 0.0
H145 H 0.52168 0.46285 0.97326 0.0
C146 C 0.55889 0.48047 0.96714 0.0
C147 C 0.54255 0.47545 0.96417 0.0
C148 C 0.56696 0.47692 0.98077 0.0
C149 C 0.55861 0.46771 0.99133 0.0
C150 C 0.5423 0.46243 0.98839 0.0
C151 C 0.53437 0.46655 0.97504 0.0
N152 N 0.5332 0.45339 0.99878 0.0
C153 C 0.53954 0.44492 0.01011 0.0
H154 H 0.7568 0.20632 0.334 0.0
H155 H 0.71593 0.2246 0.31297 0.0
H156 H 0.73628 0.18204 0.28939 0.0
C157 C 0.7479 0.20548 0.32446 0.0
C158 C 0.74811 0.19286 0.31159 0.0
C159 C 0.73637 0.21704 0.32512 0.0
C160 C 0.72478 0.21573 0.31268 0.0
C161 C 0.72485 0.20309 0.29974 0.0
C162 C 0.73648 0.19182 0.29932 0.0
N163 N 0.71353 0.20118 0.28685 0.0
C164 C 0.70116 0.21112 0.28522 0.0
H165 H 0.45328 0.04911 0.01049 0.0
H166 H 0.4954 0.05135 0.98124 0.0
H167 H 0.46364 0.0079 0.97666 0.0
C168 C 0.46074 0.04359 1.00112 0.0
C169 C 0.45659 0.02754 0.99402 0.0
C170 C 0.47476 0.05233 0.99668 0.0
C171 C 0.48463 0.04477 0.98483 0.0
C172 C 0.48058 0.02867 0.97772 0.0
C173 C 0.4667 0.02022 0.98242 0.0
N174 N 0.4902 0.02028 0.96602 0.0
C175 C 0.50232 0.02732 0.95743 0.0
Li176 Li 0.26327 0.89731 0.0231 0.0
Li177 Li 0.24969 0.87793 0.03729 0.0
Li178 Li 0.24606 0.87515 0.00824 0.0
Li179 Li 0.23428 0.89822 0.02737 0.0
C180 C 0.28134 0.87154 0.02445 0.0
N181 N 0.3128 0.86752 0.03242 0.0
C182 C 0.28737 0.87732 0.03983 0.0
C183 C 0.2913 0.8637 0.01311 0.0
C184 C 0.30331 0.87517 0.04364 0.0
C185 C 0.30718 0.8618 0.01738 0.0
C186 C 0.2509 0.90672 0.05944 0.0
C187 C 0.23512 0.91358 0.08291 0.0
N188 N 0.24887 0.91682 0.09191 0.0
C189 C 0.26488 0.9103 0.0689 0.0
C190 C 0.23589 0.90852 0.06646 0.0
C191 C 0.26359 0.9153 0.08531 0.0
C192 C 0.28497 0.92517 0.03132 0.0
N193 N 0.28253 0.91087 0.02139 0.0
C194 C 0.30726 0.91615 0.00823 0.0
C195 C 0.2933 0.90624 0.00997 0.0
C196 C 0.31014 0.93105 0.01827 0.0
C197 C 0.29877 0.9355 0.02997 0.0
H198 H 0.27609 0.92865 0.04015 0.0
H199 H 0.29097 0.89491 0.00209 0.0
C200 C 0.25837 0.8499 0.04912 0.0
N201 N 0.25143 0.86402 0.05372 0.0
C202 C 0.26027 0.83891 0.05991 0.0
C203 C 0.24735 0.8568 0.07997 0.0
C204 C 0.24572 0.86747 0.06877 0.0
C205 C 0.25481 0.84231 0.07563 0.0
H206 H 0.26241 0.84711 0.03698 0.0
H207 H 0.23967 0.87835 0.0721 0.0
C208 C 0.25396 0.90895 0.99754 0.0
N209 N 0.27101 0.92951 0.97961 0.0
C210 C 0.25455 0.92576 0.00206 0.0
C211 C 0.26193 0.90258 0.98385 0.0
C212 C 0.26328 0.93595 0.99285 0.0
C213 C 0.2705 0.91318 0.97495 0.0
C214 C 0.22128 0.86252 0.03237 0.0
C215 C 0.2236 0.84616 0.02752 0.0
C216 C 0.21158 0.8669 0.04544 0.0
C217 C 0.21629 0.83441 0.03601 0.0
C218 C 0.20446 0.85479 0.0536 0.0
N219 N 0.20697 0.83894 0.04877 0.0
C220 C 0.25112 0.84696 0.98723 0.0
C221 C 0.23288 0.86375 0.97726 0.0
C222 C 0.24957 0.83602 0.9731 0.0
N223 N 0.24291 0.86053 0.98898 0.0
C224 C 0.2309 0.85307 0.96294 0.0
C225 C 0.2394 0.83903 0.96068 0.0
H226 H 0.25888 0.84466 0.99683 0.0
H227 H 0.22654 0.87468 0.97901 0.0
C228 C 0.22045 0.928 0.03564 0.0
N229 N 0.21707 0.91198 0.0301 0.0
C230 C 0.20812 0.93849 0.03761 0.0
C231 C 0.18906 0.9158 0.02811 0.0
C232 C 0.20177 0.90574 0.02632 0.0
C233 C 0.19215 0.93244 0.03383 0.0
H234 H 0.23274 0.93259 0.03861 0.0
H235 H 0.19947 0.89296 0.02185 0.0
O236 O 0.26583 0.87374 0.0204 0.0
O237 O 0.25197 0.90213 0.0433 0.0
O238 O 0.24591 0.89875 0.00667 0.0
O239 O 0.22879 0.87422 0.02457 0.0
H240 H 0.27981 0.88337 0.04873 0.0
H241 H 0.28684 0.85926 1.00111 0.0
H242 H 0.30813 0.87959 0.05551 0.0
H243 H 0.31504 0.85579 0.00871 0.0
H244 H 0.22358 0.9149 0.08851 0.0
H245 H 0.27661 0.90935 0.06363 0.0
H246 H 0.22494 0.90582 0.05938 0.0
H247 H 0.27431 0.91805 0.09278 0.0
H248 H 0.31575 0.91211 0.99917 0.0
H249 H 0.30035 0.94696 0.03781 0.0
H250 H 0.26618 0.82797 0.056 0.0
H251 H 0.24262 0.85977 0.09184 0.0
H252 H 0.24851 0.93086 0.01267 0.0
H253 H 0.26167 0.88958 0.98027 0.0
H254 H 0.26395 0.94899 0.99626 0.0
H255 H 0.27681 0.90843 0.96438 0.0
H256 H 0.23115 0.8426 0.01746 0.0
H257 H 0.20968 0.87953 0.04932 0.0
H258 H 0.21808 0.8217 0.03249 0.0
H259 H 0.197 0.858 0.0638 0.0
H260 H 0.25615 0.82523 0.97197 0.0
H261 H 0.22304 0.85592 0.95363 0.0
H262 H 0.21105 0.95116 0.04228 0.0
H263 H 0.17698 0.91063 0.02486 0.0
Li264 Li 0.13722 0.51489 0.26312 0.0
Li265 Li 0.15626 0.49726 0.24848 0.0
Li266 Li 0.1571 0.52622 0.24726 0.0
Li267 Li 0.13481 0.5082 0.23406 0.0
C268 C 0.17284 0.52574 0.27394 0.0
N269 N 0.19728 0.54728 0.28833 0.0
C270 C 0.18852 0.52103 0.27456 0.0
C271 C 0.16956 0.54131 0.28094 0.0
C272 C 0.20072 0.5321 0.28181 0.0
C273 C 0.18207 0.55206 0.28807 0.0
C274 C 0.12799 0.4818 0.25998 0.0
C275 C 0.11084 0.45897 0.26625 0.0
N276 N 0.11922 0.45936 0.28019 0.0
C277 C 0.13642 0.48198 0.2744 0.0
C278 C 0.11507 0.47023 0.25589 0.0
C279 C 0.13181 0.47053 0.28444 0.0
C280 C 0.10856 0.51461 0.2807 0.0
N281 N 0.12475 0.51793 0.28213 0.0
C282 C 0.12286 0.52463 0.31051 0.0
C283 C 0.13202 0.52274 0.29666 0.0
C284 C 0.10604 0.5215 0.30941 0.0
C285 C 0.09893 0.51648 0.29419 0.0
H286 H 0.10311 0.51048 0.26904 0.0
H287 H 0.14495 0.52487 0.29755 0.0
C288 C 0.18536 0.48209 0.24581 0.0
N289 N 0.16931 0.47903 0.24787 0.0
C290 C 0.19582 0.46981 0.2461 0.0
C291 C 0.17295 0.45108 0.24946 0.0
C292 C 0.16295 0.46374 0.24916 0.0
C293 C 0.18967 0.45408 0.24821 0.0
H294 H 0.19006 0.49415 0.24401 0.0
H295 H 0.15014 0.46125 0.25002 0.0
C296 C 0.12091 0.5376 0.25294 0.0
N297 N 0.09435 0.5527 0.26514 0.0
C298 C 0.10568 0.53311 0.24596 0.0
C299 C 0.12261 0.54994 0.26601 0.0
C300 C 0.09241 0.54085 0.25232 0.0
C301 C 0.10905 0.55737 0.27205 0.0
C302 C 0.16055 0.49707 0.21619 0.0
C303 C 0.17214 0.50046 0.20499 0.0
C304 C 0.15139 0.48213 0.21402 0.0
C305 C 0.17436 0.48884 0.19175 0.0
C306 C 0.15398 0.47083 0.20062 0.0
N307 N 0.16532 0.47439 0.18986 0.0
C308 C 0.18624 0.54291 0.23939 0.0
C309 C 0.16549 0.55983 0.24795 0.0
C310 C 0.1965 0.55645 0.23713 0.0
N311 N 0.17107 0.54486 0.24471 0.0
C312 C 0.17537 0.57369 0.24602 0.0
C313 C 0.19109 0.57209 0.24048 0.0
H314 H 0.19033 0.53083 0.23688 0.0
H315 H 0.15333 0.56102 0.25197 0.0
C316 C 0.10713 0.49454 0.2154 0.0
N317 N 0.12094 0.50437 0.21569 0.0
C318 C 0.09673 0.49255 0.20209 0.0
C319 C 0.11516 0.51054 0.18954 0.0
C320 C 0.12513 0.51228 0.20312 0.0
C321 C 0.10068 0.50066 0.18894 0.0
H322 H 0.10406 0.4885 0.22562 0.0
H323 H 0.13616 0.52009 0.20374 0.0
O324 O 0.16076 0.51519 0.26657 0.0
O325 O 0.13206 0.49309 0.25007 0.0
O326 O 0.13404 0.52998 0.24699 0.0
O327 O 0.15834 0.50834 0.22924 0.0
H328 H 0.19127 0.50893 0.26963 0.0
H329 H 0.1575 0.54512 0.28073 0.0
H330 H 0.21292 0.52862 0.2823 0.0
H331 H 0.1797 0.5642 0.29337 0.0
H332 H 0.10088 0.44993 0.26322 0.0
H333 H 0.14644 0.49082 0.27782 0.0
H334 H 0.10838 0.46992 0.24481 0.0
H335 H 0.13823 0.47053 0.29561 0.0
H336 H 0.12894 0.52817 0.32197 0.0
H337 H 0.08603 0.51407 0.29267 0.0
H338 H 0.20857 0.47259 0.24466 0.0
H339 H 0.16764 0.43916 0.25106 0.0
H340 H 0.10406 0.5237 0.23581 0.0
H341 H 0.13423 0.55368 0.27158 0.0
H342 H 0.08057 0.53741 0.24707 0.0
H343 H 0.11021 0.56683 0.28224 0.0
H344 H 0.17934 0.51196 0.20654 0.0
H345 H 0.1424 0.47926 0.22256 0.0
H346 H 0.18329 0.4913 0.18298 0.0
H347 H 0.14699 0.45922 0.19879 0.0
H348 H 0.20858 0.55471 0.23296 0.0
H349 H 0.17067 0.58551 0.24854 0.0
H350 H 0.08575 0.48471 0.20207 0.0
H351 H 0.11859 0.51715 0.17976 0.0
Li352 Li 0.75557 0.6217 0.01199 0.0
Li353 Li 0.7665 0.64632 0.02955 0.0
Li354 Li 0.77279 0.64208 0.99992 0.0
Li355 Li 0.78535 0.62675 0.01879 0.0
C356 C 0.73622 0.64617 0.006 0.0
N357 N 0.70485 0.64881 0.99657 0.0
C358 C 0.72517 0.65247 0.01711 0.0
C359 C 0.73138 0.64151 0.99004 0.0
C360 C 0.70935 0.65363 0.01213 0.0
C361 C 0.71545 0.64286 0.98552 0.0
C362 C 0.76354 0.62251 0.04878 0.0
C363 C 0.77103 0.62859 0.07675 0.0
N364 N 0.75661 0.62151 0.08063 0.0
C365 C 0.74887 0.61514 0.05304 0.0
C366 C 0.77477 0.62914 0.06073 0.0
C367 C 0.74557 0.61481 0.0692 0.0
C368 C 0.73993 0.59082 1.00027 0.0
N369 N 0.73774 0.60561 0.00866 0.0
C370 C 0.71031 0.59718 0.01331 0.0
C371 C 0.72332 0.6089 0.01525 0.0
C372 C 0.71216 0.58181 0.0046 0.0
C373 C 0.72723 0.57872 0.99801 0.0
H374 H 0.75161 0.58835 0.99547 0.0
H375 H 0.72198 0.62054 0.0223 0.0
C376 C 0.77139 0.67572 0.05102 0.0
N377 N 0.76173 0.66175 0.04754 0.0
C378 C 0.76851 0.68688 0.06445 0.0
C379 C 0.74564 0.66922 0.07033 0.0
C380 C 0.74889 0.65848 0.05673 0.0
C381 C 0.75556 0.68364 0.07444 0.0
H382 H 0.78137 0.67818 0.04338 0.0
H383 H 0.74121 0.64745 0.05358 0.0
C384 C 0.77573 0.61202 0.98209 0.0
N385 N 0.77834 0.59988 0.9501 0.0
C386 C 0.79057 0.60769 0.97597 0.0
C387 C 0.76217 0.60985 0.97199 0.0
C388 C 0.79166 0.60167 0.95975 0.0
C389 C 0.76374 0.60378 0.95584 0.0
C390 C 0.80308 0.6554 0.02217 0.0
C391 C 0.81369 0.65843 0.01 0.0
C392 C 0.80878 0.65718 0.03798 0.0
C393 C 0.8299 0.66287 0.0138 0.0
C394 C 0.82507 0.66163 0.0413 0.0
N395 N 0.83521 0.66434 0.02924 0.0
C396 C 0.76572 0.66383 0.97836 0.0
C397 C 0.78833 0.64903 0.97123 0.0
C398 C 0.7675 0.67173 0.96485 0.0
N399 N 0.77596 0.65258 0.9812 0.0
C400 C 0.79065 0.65675 0.95765 0.0
C401 C 0.7801 0.66822 0.95427 0.0
H402 H 0.75622 0.66676 0.98664 0.0
H403 H 0.79654 0.64033 0.9739 0.0
C404 C 0.80381 0.60737 0.0356 0.0
N405 N 0.80427 0.61646 0.02342 0.0
C406 C 0.8171 0.59919 0.03909 0.0
C407 C 0.83113 0.60973 0.01735 0.0
C408 C 0.8176 0.61782 0.01436 0.0
C409 C 0.83098 0.60013 0.0298 0.0
H410 H 0.79303 0.60624 0.04249 0.0
H411 H 0.81763 0.62495 0.0046 0.0
O412 O 0.75176 0.64487 0.01071 0.0
O413 O 0.7669 0.62309 0.033 0.0
O414 O 0.77447 0.61808 0.99792 0.0
O415 O 0.78719 0.65088 0.01865 0.0
H416 H 0.72873 0.65635 0.02945 0.0
H417 H 0.73985 0.6371 0.98118 0.0
H418 H 0.70065 0.65836 0.02063 0.0
H419 H 0.71154 0.63925 0.97321 0.0
H420 H 0.77959 0.63376 0.08611 0.0
H421 H 0.74011 0.60975 0.04399 0.0
H422 H 0.78627 0.63463 0.05766 0.0
H423 H 0.73423 0.60923 0.07266 0.0
H424 H 0.69891 0.60016 0.01852 0.0
H425 H 0.7293 0.56697 0.99144 0.0
H426 H 0.7763 0.69797 0.06692 0.0
H427 H 0.73562 0.66607 0.07769 0.0
H428 H 0.80116 0.60907 0.98362 0.0
H429 H 0.75052 0.61266 0.97659 0.0
H430 H 0.8031 0.5984 0.95484 0.0
H431 H 0.75334 0.60212 0.9479 0.0
H432 H 0.80949 0.6573 0.99774 0.0
H433 H 0.8007 0.65523 0.04759 0.0
H434 H 0.83826 0.66515 0.00447 0.0
H435 H 0.82964 0.66297 0.05347 0.0
H436 H 0.75926 0.6807 0.96285 0.0
H437 H 0.8005 0.65367 0.94981 0.0
H438 H 0.81644 0.59214 0.04895 0.0
H439 H 0.84141 0.61064 0.00967 0.0
Li440 Li 0.89986 0.03107 0.28847 0.0
Li441 Li 0.91988 0.01502 0.29933 0.0
Li442 Li 0.92125 0.02048 0.27169 0.0
Li443 Li 0.90003 0.00152 0.27906 0.0
C444 C 0.92832 0.05162 0.28798 0.0
N445 N 0.93811 0.08199 0.28035 0.0
C446 C 0.94194 0.06034 0.29545 0.0
C447 C 0.91969 0.05833 0.27662 0.0
C448 C 0.9467 0.07569 0.29143 0.0
C449 C 0.92483 0.0737 0.27293 0.0
C450 C 0.88797 0.01148 0.31438 0.0
C451 C 0.87273 0.99556 0.33172 0.0
N452 N 0.87105 0.00929 0.34214 0.0
C453 C 0.88598 0.02544 0.32521 0.0
C454 C 0.8812 0.99642 0.3176 0.0
C455 C 0.87743 0.02407 0.3392 0.0
C456 C 0.87113 0.04556 0.28551 0.0
N457 N 0.88571 0.04795 0.29309 0.0
C458 C 0.8793 0.07397 0.30608 0.0
C459 C 0.88996 0.06178 0.30326 0.0
C460 C 0.86414 0.0719 0.29835 0.0
C461 C 0.86013 0.05742 0.28795 0.0
H462 H 0.86811 0.03445 0.27747 0.0
H463 H 0.90162 0.06333 0.30921 0.0
C464 C 0.94629 0.00485 0.31541 0.0
N465 N 0.93235 0.01221 0.31786 0.0
C466 C 0.95528 1.00137 0.32834 0.0
C467 C 0.93607 0.01411 0.34623 0.0
C468 C 0.92731 0.01713 0.33292 0.0
C469 C 0.95018 0.0059 0.34406 0.0
H470 H 0.95033 1.00142 0.30337 0.0
H471 H 0.91651 0.02342 0.33465 0.0
C472 C 0.89498 0.01316 0.25049 0.0
N473 N 0.88901 1.00027 0.21886 0.0
C474 C 0.9036 1.00042 0.24332 0.0
C475 C 0.88336 0.01936 0.24156 0.0
C476 C 0.9004 0.99407 0.22732 0.0
C477 C 0.88051 0.01267 0.22558 0.0
C478 C 0.9269 0.98448 0.2832 0.0
C479 C 0.93785 0.9754 0.2741 0.0
C480 C 0.91917 0.97817 0.29589 0.0
C481 C 0.9409 0.96011 0.27788 0.0
C482 C 0.92255 0.96285 0.29929 0.0
N483 N 0.93325 0.95421 0.29028 0.0
C484 C 0.94966 0.01779 0.25379 0.0
C485 C 0.93082 0.03392 0.24378 0.0
C486 C 0.9599 0.01989 0.24107 0.0
N487 N 0.93541 0.02471 0.25484 0.0
C488 C 0.94072 0.03643 0.23095 0.0
C489 C 0.95544 0.02927 0.2294 0.0
H490 H 0.95299 0.0105 0.26275 0.0
H491 H 0.91932 0.0391 0.24475 0.0
C492 C 0.87029 0.98316 0.27575 0.0
N493 N 0.88617 0.98246 0.27243 0.0
C494 C 0.85955 0.96945 0.27176 0.0
C495 C 0.88167 0.95463 0.2608 0.0
C496 C 0.89192 0.96868 0.26477 0.0
C497 C 0.86529 0.9549 0.26441 0.0
H498 H 0.86603 0.99434 0.2817 0.0
H499 H 0.90448 0.9685 0.2618 0.0
O500 O 0.9236 0.03655 0.29176 0.0
O501 O 0.89604 0.01259 0.30047 0.0
O502 O 0.8979 0.01965 0.26613 0.0
O503 O 0.92373 0.99942 0.27954 0.0
H504 H 0.94877 0.05529 0.30425 0.0
H505 H 0.90914 0.05175 0.27069 0.0
H506 H 0.95722 0.08258 0.29711 0.0
H507 H 0.91826 0.07903 0.26415 0.0
H508 H 0.86747 0.98398 0.33437 0.0
H509 H 0.89119 0.03716 0.32297 0.0
H510 H 0.88242 0.9855 0.30927 0.0
H511 H 0.8759 0.03477 0.34774 0.0
H512 H 0.88284 0.08482 0.31435 0.0
H513 H 0.84871 0.05537 0.28154 0.0
H514 H 0.96596 0.99491 0.32595 0.0
H515 H 0.93184 0.01827 0.35807 0.0
H516 H 0.9127 0.99551 0.24999 0.0
H517 H 0.87662 0.02925 0.24693 0.0
H518 H 0.90697 0.98421 0.22163 0.0
H519 H 0.87154 0.01735 0.21853 0.0
H520 H 0.94389 0.98009 0.2642 0.0
H521 H 0.91074 0.98506 0.30308 0.0
H522 H 0.94934 0.95293 0.27093 0.0
H523 H 0.91667 0.95784 0.30909 0.0
H524 H 0.9712 0.01427 0.24039 0.0
H525 H 0.9367 0.04354 0.2221 0.0
H526 H 0.847 0.9701 0.27476 0.0
H527 H 0.88648 0.94368 0.25491 0.0
Li528 Li 0.27648 0.1547 0.51519 0.0
Li529 Li 0.26242 0.13255 0.49671 0.0
Li530 Li 0.29246 0.13439 0.50112 0.0
Li531 Li 0.28047 0.15299 0.48529 0.0
C532 C 0.2717 0.12971 0.53206 0.0
N533 N 0.26481 0.12783 0.56377 0.0
C534 C 0.25647 0.1236 0.53627 0.0
C535 C 0.28348 0.13465 0.54397 0.0
C536 C 0.25321 0.1228 0.55237 0.0
C537 C 0.27974 0.13368 0.55993 0.0
C538 C 0.24627 0.16119 0.49318 0.0
C539 C 0.22715 0.16397 0.47235 0.0
N540 N 0.21733 0.17112 0.48355 0.0
C541 C 0.23609 0.16879 0.50445 0.0
C542 C 0.24185 0.15893 0.47698 0.0
C543 C 0.22147 0.17363 0.49936 0.0
C544 C 0.28503 0.18093 0.53999 0.0
N545 N 0.2736 0.16886 0.53463 0.0
C546 C 0.25738 0.17625 0.55734 0.0
C547 C 0.25988 0.16649 0.54289 0.0
C548 C 0.26898 0.18883 0.56328 0.0
C549 C 0.28295 0.19113 0.55432 0.0
H550 H 0.29575 0.18269 0.5331 0.0
H551 H 0.25089 0.15692 0.53828 0.0
C552 C 0.24448 0.10255 0.48726 0.0
N553 N 0.24332 0.11825 0.49384 0.0
C554 C 0.23087 0.09151 0.48576 0.0
C555 C 0.21516 0.11301 0.49782 0.0
C556 C 0.22907 0.12358 0.49919 0.0
C557 C 0.21597 0.09672 0.4911 0.0
H558 H 0.25602 0.09857 0.48332 0.0
H559 H 0.22854 0.13591 0.50494 0.0
C560 C 0.31296 0.16047 0.50474 0.0
N561 N 0.3461 0.16352 0.50763 0.0
C562 C 0.32235 0.16326 0.4916 0.0
C563 C 0.32042 0.15945 0.5194 0.0
C564 C 0.33909 0.16472 0.49329 0.0
C565 C 0.33719 0.16096 0.5206 0.0
C566 C 0.27752 0.12275 0.46489 0.0
C567 C 0.2903 0.11666 0.45592 0.0
C568 C 0.26233 0.12218 0.45766 0.0
C569 C 0.28776 0.11053 0.43976 0.0
C570 C 0.26026 0.11593 0.44149 0.0
N571 N 0.27292 0.11031 0.43293 0.0
C572 C 0.31144 0.11287 0.51482 0.0
C573 C 0.32208 0.12177 0.49131 0.0
C574 C 0.32442 0.10346 0.51608 0.0
N575 N 0.31054 0.12183 0.50261 0.0
C576 C 0.33524 0.11249 0.49206 0.0
C577 C 0.33655 0.10313 0.50458 0.0
H578 H 0.30206 0.11298 0.52357 0.0
H579 H 0.32104 0.12891 0.48166 0.0
C580 C 0.27636 0.17966 0.46875 0.0
N581 N 0.28344 0.16542 0.4679 0.0
C582 C 0.2781 0.18916 0.45638 0.0
C583 C 0.29484 0.16946 0.44267 0.0
C584 C 0.29268 0.16029 0.45527 0.0
C585 C 0.28745 0.18411 0.44307 0.0
H586 H 0.26931 0.18365 0.47905 0.0
H587 H 0.29864 0.14923 0.45509 0.0
O588 O 0.27504 0.13078 0.51638 0.0
O589 O 0.26063 0.15635 0.498 0.0
O590 O 0.29656 0.15873 0.50325 0.0
O591 O 0.27981 0.12876 0.48075 0.0
H592 H 0.24724 0.11959 0.52724 0.0
H593 H 0.29534 0.13931 0.54093 0.0
H594 H 0.24146 0.11818 0.5558 0.0
H595 H 0.28871 0.13758 0.56927 0.0
H596 H 0.22359 0.16226 0.45985 0.0
H597 H 0.23937 0.17086 0.51701 0.0
H598 H 0.24978 0.15361 0.46802 0.0
H599 H 0.21343 0.17941 0.50798 0.0
H600 H 0.24654 0.1738 0.56385 0.0
H601 H 0.2921 0.20082 0.55822 0.0
H602 H 0.232 0.07906 0.48046 0.0
H603 H 0.20399 0.11744 0.50241 0.0
H604 H 0.31678 0.16416 0.4802 0.0
H605 H 0.31333 0.15746 0.52973 0.0
H606 H 0.34651 0.16678 0.48319 0.0
H607 H 0.34312 0.16009 0.53185 0.0
H608 H 0.30209 0.11677 0.46133 0.0
H609 H 0.25217 0.12631 0.46449 0.0
H610 H 0.29759 0.10592 0.43266 0.0
H611 H 0.24857 0.11548 0.43575 0.0
H612 H 0.32499 0.09664 0.52606 0.0
H613 H 0.34414 0.11246 0.48279 0.0
H614 H 0.27204 0.20026 0.4572 0.0
H615 H 0.30245 0.16524 0.43287 0.0
Li616 Li 0.42325 0.5258 0.78585 0.0
Li617 Li 0.40125 0.54128 0.77787 0.0
Li618 Li 0.40351 0.51303 0.76718 0.0
Li619 Li 0.42306 0.53261 0.75891 0.0
C620 C 0.3895 0.51093 0.79441 0.0
N621 N 0.36798 0.48659 0.80245 0.0
C622 C 0.37298 0.51258 0.79379 0.0
C623 C 0.39509 0.49696 0.79925 0.0
C624 C 0.36229 0.50012 0.79787 0.0
C625 C 0.38402 0.48478 0.80323 0.0
C626 C 0.43538 0.55578 0.7907 0.0
C627 C 0.46194 0.56735 0.79925 0.0
N628 N 0.45683 0.57002 0.81459 0.0
C629 C 0.43036 0.55874 0.80653 0.0
C630 C 0.45127 0.56019 0.78699 0.0
C631 C 0.4414 0.56591 0.81845 0.0
C632 C 0.45266 0.52143 0.80158 0.0
N633 N 0.43658 0.52255 0.80343 0.0
C634 C 0.43848 0.51769 0.83059 0.0
C635 C 0.42945 0.52101 0.81763 0.0
C636 C 0.45505 0.51622 0.82899 0.0
C637 C 0.46222 0.51839 0.81434 0.0
H638 H 0.458 0.52274 0.79014 0.0
H639 H 0.4167 0.5222 0.81886 0.0
C640 C 0.37128 0.55432 0.77769 0.0
N641 N 0.38655 0.5575 0.78364 0.0
C642 C 0.36008 0.56592 0.78065 0.0
C643 C 0.38044 0.58387 0.79598 0.0
C644 C 0.39131 0.57195 0.79257 0.0
C645 C 0.36457 0.58098 0.78992 0.0
H646 H 0.36789 0.54284 0.77036 0.0
H647 H 0.40359 0.57435 0.7969 0.0
C648 C 0.43079 0.5011 0.75273 0.0
N649 N 0.4387 0.48027 0.72603 0.0
C650 C 0.42185 0.50008 0.73849 0.0
C651 C 0.44374 0.49153 0.75337 0.0
C652 C 0.42605 0.48948 0.72513 0.0
C653 C 0.44755 0.48107 0.73975 0.0
C654 C 0.39419 0.54188 0.74597 0.0
C655 C 0.38232 0.53728 0.73411 0.0
C656 C 0.40087 0.55796 0.74862 0.0
C657 C 0.37737 0.54883 0.72501 0.0
C658 C 0.39559 0.56915 0.73928 0.0
N659 N 0.38405 0.5644 0.72776 0.0
C660 C 0.3758 0.49349 0.75466 0.0
C661 C 0.39701 0.47885 0.76265 0.0
C662 C 0.36598 0.4791 0.75081 0.0
N663 N 0.39093 0.49309 0.76057 0.0
C664 C 0.3876 0.4642 0.759 0.0
C665 C 0.37181 0.46421 0.75313 0.0
H666 H 0.37124 0.50503 0.75332 0.0
H667 H 0.40904 0.47891 0.76752 0.0
C668 C 0.45268 0.53702 0.74333 0.0
N669 N 0.43651 0.53733 0.74134 0.0
C670 C 0.46305 0.53914 0.73069 0.0
C671 C 0.43999 0.54185 0.71415 0.0
C672 C 0.43009 0.53945 0.727 0.0
C673 C 0.45674 0.54157 0.71579 0.0
H674 H 0.45749 0.53466 0.75464 0.0
H675 H 0.41727 0.53891 0.72523 0.0
O676 O 0.40014 0.5228 0.79004 0.0
O677 O 0.42485 0.54838 0.77894 0.0
O678 O 0.42709 0.51149 0.76598 0.0
O679 O 0.39886 0.53073 0.75517 0.0
H680 H 0.36844 0.52331 0.79009 0.0
H681 H 0.40784 0.4954 0.79961 0.0
H682 H 0.34946 0.5012 0.79735 0.0
H683 H 0.38818 0.47384 0.80686 0.0
H684 H 0.47429 0.57078 0.79656 0.0
H685 H 0.41815 0.5552 0.80964 0.0
H686 H 0.45533 0.55811 0.7748 0.0
H687 H 0.43771 0.56812 0.83077 0.0
H688 H 0.43257 0.51631 0.84176 0.0
H689 H 0.47497 0.51729 0.81267 0.0
H690 H 0.34813 0.56322 0.7754 0.0
H691 H 0.38446 0.5952 0.8033 0.0
H692 H 0.4118 0.50738 0.73771 0.0
H693 H 0.4508 0.49222 0.76429 0.0
H694 H 0.41925 0.48858 0.71405 0.0
H695 H 0.45755 0.47359 0.74008 0.0
H696 H 0.37697 0.5249 0.73197 0.0
H697 H 0.41004 0.56179 0.75777 0.0
H698 H 0.3682 0.54544 0.71578 0.0
H699 H 0.40065 0.58163 0.74119 0.0
H700 H 0.35381 0.47967 0.74649 0.0
H701 H 0.39263 0.45298 0.76081 0.0
H702 H 0.47582 0.53843 0.73249 0.0
H703 H 0.43448 0.54382 0.70301 0.0
Li704 Li 0.77677 0.39387 0.5267 0.0
Li705 Li 0.76686 0.37596 0.54394 0.0
Li706 Li 0.75909 0.37053 0.51526 0.0
Li707 Li 0.74854 0.39422 0.53489 0.0
C708 C 0.79622 0.36978 0.52155 0.0
N709 N 0.82835 0.36876 0.51404 0.0
C710 C 0.80809 0.37531 0.53321 0.0
C711 C 0.80068 0.36355 0.50611 0.0
C712 C 0.82427 0.37475 0.52917 0.0
C713 C 0.81699 0.36317 0.50254 0.0
C714 C 0.7707 0.40413 0.56416 0.0
C715 C 0.76081 0.41202 0.59066 0.0
N716 N 0.77598 0.41228 0.59673 0.0
C717 C 0.78622 0.40464 0.57064 0.0
C718 C 0.75789 0.40796 0.57422 0.0
C719 C 0.78863 0.40871 0.58714 0.0
C720 C 0.79878 0.42164 0.5326 0.0
N721 N 0.79473 0.40816 0.52189 0.0
C722 C 0.81619 0.41529 0.50492 0.0
C723 C 0.80298 0.40499 0.50812 0.0
C724 C 0.82084 0.42921 0.51586 0.0
C725 C 0.81181 0.43238 0.5298 0.0
H726 H 0.79184 0.4241 0.5433 0.0
H727 H 0.79934 0.39445 0.49957 0.0
C728 C 0.78295 0.35335 0.55877 0.0
N729 N 0.77205 0.36468 0.56157 0.0
C730 C 0.78744 0.34468 0.57087 0.0
C731 C 0.76914 0.35916 0.58854 0.0
C732 C 0.76497 0.36752 0.57606 0.0
C733 C 0.7806 0.3476 0.58606 0.0
H734 H 0.78807 0.35088 0.54705 0.0
H735 H 0.75597 0.37616 0.57796 0.0
C736 C 0.76253 0.40386 0.50214 0.0
N737 N 0.77404 0.42457 0.48125 0.0
C738 C 0.76288 0.42067 0.50655 0.0
C739 C 0.76793 0.39756 0.48708 0.0
C740 C 0.76879 0.43094 0.49583 0.0
C741 C 0.77372 0.40824 0.47669 0.0
C742 C 0.73873 0.35927 0.54376 0.0
C743 C 0.74272 0.34317 0.5408 0.0
C744 C 0.72903 0.36417 0.55669 0.0
C745 C 0.73705 0.33222 0.55097 0.0
C746 C 0.72356 0.35284 0.56657 0.0
N747 N 0.72767 0.33725 0.56354 0.0
C748 C 0.76137 0.34069 0.49558 0.0
C749 C 0.74332 0.35778 0.48581 0.0
C750 C 0.75883 0.3293 0.48185 0.0
N751 N 0.75387 0.35471 0.49715 0.0
C752 C 0.74031 0.34664 0.47192 0.0
C753 C 0.74832 0.3323 0.4697 0.0
H754 H 0.7696 0.33853 0.50487 0.0
H755 H 0.73752 0.36905 0.4874 0.0
C756 C 0.73437 0.42346 0.54396 0.0
N757 N 0.73102 0.40727 0.53928 0.0
C758 C 0.72193 0.4337 0.54681 0.0
C759 C 0.70278 0.4104 0.54015 0.0
C760 C 0.71562 0.4006 0.53737 0.0
C761 C 0.70587 0.42722 0.54482 0.0
H762 H 0.74675 0.4284 0.54545 0.0
H763 H 0.71333 0.38769 0.53353 0.0
O764 O 0.78031 0.37028 0.52527 0.0
O765 O 0.76812 0.40025 0.54801 0.0
O766 O 0.75711 0.39361 0.5126 0.0
O767 O 0.74449 0.37025 0.53418 0.0
H768 H 0.80484 0.37999 0.54524 0.0
H769 H 0.79167 0.35931 0.4969 0.0
H770 H 0.83358 0.37907 0.53806 0.0
H771 H 0.82062 0.35851 0.49061 0.0
H772 H 0.75099 0.41489 0.5986 0.0
H773 H 0.7963 0.40196 0.56301 0.0
H774 H 0.74579 0.40756 0.56944 0.0
H775 H 0.80057 0.40908 0.59233 0.0
H776 H 0.82281 0.41219 0.49408 0.0
H777 H 0.81467 0.44312 0.53842 0.0
H778 H 0.796 0.33559 0.56824 0.0
H779 H 0.76353 0.36183 0.60004 0.0
H780 H 0.75883 0.42573 0.51819 0.0
H781 H 0.76787 0.38457 0.48355 0.0
H782 H 0.76924 0.44399 0.49911 0.0
H783 H 0.77802 0.40354 0.46503 0.0
H784 H 0.75028 0.33924 0.53086 0.0
H785 H 0.72593 0.37663 0.55919 0.0
H786 H 0.74013 0.31974 0.5489 0.0
H787 H 0.71612 0.35647 0.57669 0.0
H788 H 0.76507 0.31829 0.48072 0.0
H789 H 0.73221 0.34947 0.4628 0.0
H790 H 0.72486 0.44655 0.5506 0.0
H791 H 0.69059 0.40493 0.53831 0.0
Li792 Li 0.65619 0.98284 0.76486 0.0
Li793 Li 0.6376 1.0014 0.77861 0.0
Li794 Li 0.63643 0.99388 0.74948 0.0
Li795 Li 0.65872 0.01187 0.76269 0.0
C796 C 0.61887 0.97058 0.76067 0.0
N797 N 0.59076 0.95349 0.74844 0.0
C798 C 0.60416 0.97392 0.76772 0.0
C799 C 0.61929 0.95849 0.74746 0.0
C800 C 0.59008 0.96514 0.76136 0.0
C801 C 0.60495 0.95001 0.74143 0.0
C802 C 0.66216 0.00294 0.7982 0.0
C803 C 0.66096 0.01912 0.82411 0.0
N804 N 0.66242 0.0056 0.83119 0.0
C805 C 0.66367 0.9892 0.80573 0.0
C806 C 0.66084 0.01803 0.80745 0.0
C807 C 0.66378 0.99081 0.82243 0.0
C808 C 0.68442 0.96785 0.77016 0.0
N809 N 0.66852 0.96471 0.76636 0.0
C810 C 0.671 0.93611 0.76407 0.0
C811 C 0.66167 0.94924 0.76343 0.0
C812 C 0.68752 0.93895 0.76783 0.0
C813 C 0.69419 0.95511 0.77092 0.0
H814 H 0.68953 0.98029 0.77246 0.0
H815 H 0.64898 0.94708 0.76059 0.0
C816 C 0.61842 0.0207 0.79987 0.0
N817 N 0.62498 0.00617 0.79726 0.0
C818 C 0.60927 0.02469 0.81344 0.0
C819 C 0.61361 0.99857 0.82134 0.0
C820 C 0.62269 0.99509 0.80759 0.0
C821 C 0.60674 0.01356 0.82441 0.0
H822 H 0.62025 0.02922 0.7914 0.0
H823 H 0.62788 0.98353 0.80512 0.0
C824 C 0.6716 0.98509 0.73825 0.0
N825 N 0.69631 0.96755 0.72531 0.0
C826 C 0.68752 0.99171 0.74018 0.0
C827 C 0.66823 0.96959 0.72966 0.0
C828 C 0.69985 0.98264 0.73355 0.0
C829 C 0.6809 0.9609 0.72325 0.0
C830 C 0.63609 0.03102 0.75827 0.0
C831 C 0.63234 0.03354 0.74269 0.0
C832 C 0.64111 0.0443 0.76969 0.0
C833 C 0.63373 0.04932 0.73877 0.0
C834 C 0.64239 0.05989 0.76528 0.0
N835 N 0.63871 0.06205 0.75004 0.0
C836 C 0.60664 0.99312 0.73326 0.0
C837 C 0.62826 0.98568 0.71645 0.0
C838 C 0.59607 0.99118 0.72012 0.0
N839 N 0.62236 0.99027 0.73121 0.0
C840 C 0.61814 0.98373 0.70294 0.0
C841 C 0.60179 0.98655 0.70465 0.0
H842 H 0.60234 0.99704 0.74512 0.0
H843 H 0.64088 0.98384 0.71511 0.0
C844 C 0.68311 0.0369 0.77295 0.0
N845 N 0.67356 0.02988 0.76038 0.0
C846 C 0.69371 0.05038 0.77142 0.0
C847 C 0.68456 0.04902 0.74399 0.0
C848 C 0.67425 0.03548 0.74601 0.0
C849 C 0.69443 0.05668 0.75683 0.0
H850 H 0.68246 0.03206 0.78418 0.0
H851 H 0.66668 0.02948 0.73615 0.0
O852 O 0.63275 0.97919 0.76658 0.0
O853 O 0.66168 0.00156 0.78187 0.0
O854 O 0.6594 0.99361 0.74498 0.0
O855 O 0.63509 0.01562 0.76227 0.0
H856 H 0.60359 0.98328 0.7779 0.0
H857 H 0.63055 0.95586 0.74175 0.0
H858 H 0.5786 0.96764 0.76665 0.0
H859 H 0.60509 0.94071 0.73113 0.0
H860 H 0.65983 0.0307 0.83141 0.0
H861 H 0.66457 0.9774 0.79876 0.0
H862 H 0.65947 0.02875 0.80181 0.0
H863 H 0.66488 0.98028 0.82841 0.0
H864 H 0.66529 0.92388 0.76185 0.0
H865 H 0.70688 0.95789 0.7737 0.0
H866 H 0.60436 0.03644 0.81537 0.0
H867 H 0.61178 0.98951 0.82931 0.0
H868 H 0.69036 0.00364 0.74688 0.0
H869 H 0.65599 0.96424 0.72816 0.0
H870 H 0.71223 0.98758 0.73502 0.0
H871 H 0.67848 0.94884 0.71668 0.0
H872 H 0.62852 0.02343 0.73366 0.0
H873 H 0.64428 0.04256 0.78174 0.0
H874 H 0.63092 0.05144 0.72674 0.0
H875 H 0.64639 0.07025 0.77396 0.0
H876 H 0.58355 0.99331 0.72209 0.0
H877 H 0.62319 0.98047 0.69126 0.0
H878 H 0.70106 0.05598 0.78163 0.0
H879 H 0.68493 0.05334 0.73247 0.0
Li880 Li 0.03888 0.23773 0.87063 0.0
Li881 Li 0.02381 0.25227 0.89224 0.0
Li882 Li 0.02653 0.22194 0.88989 0.0
Li883 Li 0.00885 0.23311 0.87125 0.0
C884 C 0.05973 0.24345 0.89457 0.0
N885 N 0.09275 0.2497 0.89481 0.0
C886 C 0.06666 0.25916 0.89955 0.0
C887 C 0.06959 0.23088 0.8899 0.0
C888 C 0.08338 0.26208 0.89955 0.0
C889 C 0.08626 0.2343 0.89004 0.0
C890 C 0.01695 0.2678 0.86616 0.0
C891 C 0.99562 0.2858 0.86654 0.0
N892 N 0.00582 0.29694 0.86061 0.0
C893 C 0.02717 0.27935 0.85989 0.0
C894 C 1.00101 0.27099 0.86936 0.0
C895 C 0.02134 0.29404 0.85725 0.0
C896 C 0.06041 0.22732 0.84606 0.0
N897 N 0.05671 0.24011 0.85686 0.0
C898 C 0.07831 0.25696 0.84792 0.0
C899 C 0.06534 0.25475 0.85796 0.0
C900 C 0.08243 0.24399 0.83661 0.0
C901 C 0.07333 0.22898 0.83581 0.0
H902 H 0.05325 0.21587 0.84532 0.0
H903 H 0.06217 0.2647 0.86669 0.0
C904 C 0.01431 0.27176 0.92017 0.0
N905 N 0.02286 0.272 0.90654 0.0
C906 C 0.01275 0.28611 0.93055 0.0
C907 C 0.02944 0.3006 0.91306 0.0
C908 C 0.03056 0.28598 0.90295 0.0
C909 C 0.02028 0.30081 0.92698 0.0
H910 H 0.00862 0.26041 0.92295 0.0
H911 H 0.03757 0.2858 0.89222 0.0
C912 C 0.0241 0.20039 0.86317 0.0
N913 N 0.02187 0.16683 0.85771 0.0
C914 C 0.00929 0.19176 0.85899 0.0
C915 C 0.03779 0.19197 0.86443 0.0
C916 C 0.00841 0.17479 0.8563 0.0
C917 C 0.03641 0.17499 0.86168 0.0
C918 C 0.9916 0.23277 0.89984 0.0
C919 C 0.9849 0.21782 0.90338 0.0
C920 C 0.98234 0.24617 0.90162 0.0
C921 C 0.96896 0.21642 0.9083 0.0
C922 C 0.96644 0.24429 0.90656 0.0
N923 N 0.96012 0.22957 0.90975 0.0
C924 C 0.04198 0.20738 0.91322 0.0
C925 C 0.02017 0.1905 0.90052 0.0
C926 C 0.0452 0.1956 0.9228 0.0
N927 N 0.02968 0.20467 0.9023 0.0
C928 C 0.0229 0.17839 0.90993 0.0
C929 C 0.03556 0.18086 0.92131 0.0
H930 H 0.04931 0.21876 0.91459 0.0
H931 H 0.01036 0.18859 0.89189 0.0
C932 C 0.99156 0.23686 0.84387 0.0
N933 N 0.98995 0.23033 0.85772 0.0
C934 C 0.97846 0.23645 0.83342 0.0
C935 C 0.9623 0.22199 0.8513 0.0
C936 C 0.97573 0.22276 0.86146 0.0
C937 C 0.96351 0.22902 0.8371 0.0
H938 H 0.00304 0.24265 0.84105 0.0
H939 H 0.97476 0.21724 0.87226 0.0
O940 O 0.04337 0.2404 0.89422 0.0
O941 O 0.02252 0.2534 0.86897 0.0
O942 O 0.02518 0.217 0.86588 0.0
O943 O 0.00723 0.23434 0.89505 0.0
H944 H 0.05922 0.269 0.9033 0.0
H945 H 0.06442 0.21864 0.88609 0.0
H946 H 0.08891 0.2742 0.90329 0.0
H947 H 0.09403 0.22471 0.88635 0.0
H948 H 0.98331 0.28842 0.869 0.0
H949 H 0.03949 0.27705 0.85716 0.0
H950 H 0.99283 0.26206 0.87381 0.0
H951 H 0.02916 0.30312 0.8525 0.0
H952 H 0.08512 0.26868 0.8491 0.0
H953 H 0.07599 0.21871 0.82715 0.0
H954 H 0.00581 0.2857 0.94131 0.0
H955 H 0.03541 0.31167 0.90985 0.0
H956 H 0.99859 0.19807 0.85791 0.0
H957 H 0.04935 0.19845 0.86761 0.0
H958 H 0.99702 0.16795 0.85312 0.0
H959 H 0.04689 0.16831 0.86272 0.0
H960 H 0.99188 0.20736 0.90224 0.0
H961 H 0.98738 0.25795 0.89939 0.0
H962 H 0.96361 0.20488 0.91096 0.0
H963 H 0.95914 0.25456 0.90793 0.0
H964 H 0.05523 0.19803 0.93122 0.0
H965 H 0.01498 0.16735 0.90849 0.0
H966 H 0.97999 0.24218 0.82273 0.0
H967 H 0.95112 0.21582 0.85448 0.0
Li968 Li 0.52837 0.74976 0.38773 0.0
Li969 Li 0.51125 0.76605 0.40641 0.0
Li970 Li 0.5152 0.7365 0.40831 0.0
Li971 Li 0.49852 0.74373 0.38664 0.0
C972 C 0.54712 0.76094 0.41248 0.0
N973 N 0.5794 0.77139 0.41377 0.0
C974 C 0.55189 0.77755 0.4147 0.0
C975 C 0.55874 0.74963 0.41107 0.0
C976 C 0.56828 0.78259 0.41529 0.0
C977 C 0.57501 0.75517 0.4117 0.0
C978 C 0.50485 0.77552 0.37551 0.0
C979 C 0.48201 0.79012 0.37014 0.0
N980 N 0.49132 0.79899 0.36082 0.0
C981 C 0.51416 0.7847 0.36579 0.0
C982 C 0.48862 0.77818 0.37763 0.0
C983 C 0.50711 0.79655 0.35851 0.0
C984 C 0.55193 0.7373 0.36638 0.0
N985 N 0.54695 0.75111 0.37473 0.0
C986 C 0.568 0.76716 0.36385 0.0
C987 C 0.55463 0.76588 0.37362 0.0
C988 C 0.57345 0.7531 0.35506 0.0
C989 C 0.56523 0.73801 0.35647 0.0
H990 H 0.54545 0.72573 0.36725 0.0
H991 H 0.55034 0.7767 0.38028 0.0
C992 C 0.50488 0.78699 0.43422 0.0
N993 N 0.50841 0.78675 0.4185 0.0
C994 C 0.50214 0.8016 0.44372 0.0
C995 C 0.50678 0.81549 0.4207 0.0
C996 C 0.50965 0.80065 0.41171 0.0
C997 C 0.50291 0.81616 0.43697 0.0
H998 H 0.50413 0.77577 0.43935 0.0
H999 H 0.51278 0.80028 0.3993 0.0
C1000 C 0.51611 0.71201 0.38426 0.0
N1001 N 0.51677 0.67881 0.38337 0.0
C1002 C 0.50251 0.70168 0.37915 0.0
C1003 C 0.53009 0.70546 0.38878 0.0
C1004 C 0.50308 0.68492 0.37881 0.0
C1005 C 0.53016 0.68864 0.38829 0.0
C1006 C 0.47969 0.74821 0.41528 0.0
C1007 C 0.47212 0.73446 0.42065 0.0
C1008 C 0.47146 0.76224 0.41568 0.0
C1009 C 0.45632 0.73485 0.42597 0.0
C1010 C 0.45567 0.76216 0.42109 0.0
N1011 N 0.44848 0.74857 0.42606 0.0
C1012 C 0.529 0.72476 0.43467 0.0
C1013 C 0.50757 0.70731 0.42193 0.0
C1014 C 0.53133 0.71389 0.44552 0.0
N1015 N 0.51736 0.72126 0.42309 0.0
C1016 C 0.50957 0.69602 0.43242 0.0
C1017 C 0.52163 0.69919 0.44442 0.0
H1018 H 0.53651 0.73602 0.43549 0.0
H1019 H 0.49833 0.70481 0.41271 0.0
C1020 C 0.48292 0.74115 0.35703 0.0
N1021 N 0.48064 0.73777 0.37218 0.0
C1022 C 0.47039 0.73812 0.34574 0.0
C1023 C 0.45352 0.72741 0.36558 0.0
C1024 C 0.46638 0.73077 0.37655 0.0
C1025 C 0.45537 0.73126 0.34996 0.0
H1026 H 0.49444 0.7465 0.3538 0.0
H1027 H 0.46495 0.72777 0.3885 0.0
O1028 O 0.53115 0.75576 0.41158 0.0
O1029 O 0.51161 0.7639 0.38273 0.0
O1030 O 0.51574 0.72844 0.38475 0.0
O1031 O 0.49523 0.74807 0.41018 0.0
H1032 H 0.54303 0.78644 0.4158 0.0
H1033 H 0.55523 0.73674 0.40937 0.0
H1034 H 0.57216 0.79541 0.41691 0.0
H1035 H 0.58414 0.74656 0.41051 0.0
H1036 H 0.46945 0.79228 0.37168 0.0
H1037 H 0.52671 0.78273 0.3639 0.0
H1038 H 0.48116 0.77096 0.3848 0.0
H1039 H 0.51419 0.80378 0.351 0.0
H1040 H 0.57405 0.77903 0.36329 0.0
H1041 H 0.56883 0.72688 0.34973 0.0
H1042 H 0.49957 0.80146 0.45625 0.0
H1043 H 0.50737 0.82627 0.41485 0.0
H1044 H 0.49161 0.70654 0.37557 0.0
H1045 H 0.54071 0.71329 0.39277 0.0
H1046 H 0.49262 0.67678 0.37495 0.0
H1047 H 0.54086 0.68342 0.39186 0.0
H1048 H 0.47833 0.72355 0.4206 0.0
H1049 H 0.47721 0.77316 0.41201 0.0
H1050 H 0.45029 0.72425 0.43004 0.0
H1051 H 0.44916 0.77292 0.42141 0.0
H1052 H 0.54058 0.71704 0.45472 0.0
H1053 H 0.50192 0.6848 0.43092 0.0
H1054 H 0.47238 0.74148 0.33393 0.0
H1055 H 0.44229 0.72179 0.36929 0.0
Li1056 Li 0.00604 0.77674 0.64051 0.0
Li1057 Li 0.98824 0.76356 0.65897 0.0
Li1058 Li 0.018 0.76157 0.65944 0.0
Li1059 Li 0.00158 0.74601 0.63752 0.0
C1060 C 0.00695 0.79766 0.66808 0.0
N1061 N 0.00919 0.83114 0.6752 0.0
C1062 C 0.99367 0.80567 0.67403 0.0
C1063 C 0.02141 0.80667 0.66589 0.0
C1064 C 0.99504 0.82261 0.67753 0.0
C1065 C 0.02228 0.82358 0.66951 0.0
C1066 C 0.97069 0.76263 0.62934 0.0
C1067 C 0.9456 0.74858 0.61904 0.0
N1068 N 0.94003 0.76303 0.61682 0.0
C1069 C 0.96479 0.77731 0.62675 0.0
C1070 C 0.96108 0.74812 0.62527 0.0
C1071 C 0.94924 0.77727 0.6205 0.0
C1072 C 0.01921 0.7923 0.61561 0.0
N1073 N 0.00913 0.7944 0.62819 0.0
C1074 C 0.00352 0.82053 0.62184 0.0
C1075 C 0.00124 0.80814 0.63137 0.0
C1076 C 0.01389 0.81872 0.60875 0.0
C1077 C 0.02178 0.80433 0.60571 0.0
H1078 H 0.02513 0.78116 0.61313 0.0
H1079 H 0.99305 0.80947 0.64123 0.0
C1080 C 0.96984 0.75832 0.68587 0.0
N1081 N 0.96966 0.76536 0.67228 0.0
C1082 C 0.95687 0.75921 0.69625 0.0
C1083 C 0.94386 0.77497 0.67874 0.0
C1084 C 0.95706 0.7737 0.66864 0.0
C1085 C 0.94361 0.76765 0.69278 0.0
H1086 H 0.9801 0.75199 0.68867 0.0
H1087 H 0.95736 0.77967 0.6581 0.0
C1088 C 0.03795 0.75845 0.63544 0.0
N1089 N 0.07066 0.75522 0.63515 0.0
C1090 C 0.04373 0.74307 0.63216 0.0
C1091 C 0.04879 0.77221 0.63837 0.0
C1092 C 0.06031 0.74168 0.63212 0.0
C1093 C 0.06529 0.77032 0.63823 0.0
C1094 C 0.99268 0.72968 0.66321 0.0
C1095 C 1.00072 0.71836 0.67034 0.0
C1096 C 0.97649 0.72623 0.65873 0.0
C1097 C 0.99247 0.70366 0.67266 0.0
C1098 C 0.96865 0.71141 0.66127 0.0
N1099 N 0.97674 0.70051 0.6681 0.0
C1100 C 0.0426 0.77329 0.68293 0.0
C1101 C 0.04226 0.7454 0.67236 0.0
C1102 C 0.05572 0.7719 0.69292 0.0
N1103 N 0.03619 0.76013 0.67292 0.0
C1104 C 0.05531 0.74345 0.68216 0.0
C1105 C 0.06219 0.75679 0.69268 0.0
H1106 H 0.03744 0.78482 0.68331 0.0
H1107 H 0.03695 0.73515 0.66427 0.0
C1108 C 0.99348 0.72758 0.60757 0.0
N1109 N 0.9997 0.72673 0.62233 0.0
C1110 C 0.99255 0.71395 0.59582 0.0
C1111 C 0.00466 0.69888 0.6146 0.0
C1112 C 0.00529 0.71279 0.626 0.0
C1113 C 0.99826 0.69936 0.59924 0.0
H1114 H 0.98944 0.73893 0.60485 0.0
H1115 H 0.01053 0.71252 0.63769 0.0
O1116 O 0.00582 0.78109 0.66457 0.0
O1117 O 0.98598 0.76244 0.63527 0.0
O1118 O 0.02176 0.76003 0.6359 0.0
O1119 O 1.00063 0.74408 0.66072 0.0
H1120 H 0.98243 0.7989 0.67591 0.0
H1121 H 0.03181 0.80067 0.66135 0.0
H1122 H 0.98484 0.82897 0.68209 0.0
H1123 H 0.03337 0.83071 0.66778 0.0
H1124 H 0.93803 0.73744 0.61589 0.0
H1125 H 0.97206 0.78864 0.62971 0.0
H1126 H 0.96555 0.73658 0.62674 0.0
H1127 H 0.94448 0.78857 0.61858 0.0
H1128 H 0.99729 0.83145 0.62478 0.0
H1129 H 0.02964 0.80221 0.59561 0.0
H1130 H 0.9572 0.75322 0.70682 0.0
H1131 H 0.9341 0.7819 0.67571 0.0
H1132 H 0.0355 0.7323 0.62985 0.0
H1133 H 0.04452 0.78421 0.64077 0.0
H1134 H 0.06496 0.72984 0.62971 0.0
H1135 H 0.07382 0.78086 0.64057 0.0
H1136 H 0.01321 0.72087 0.67401 0.0
H1137 H 0.97001 0.73499 0.65354 0.0
H1138 H 0.99856 0.69476 0.67809 0.0
H1139 H 0.95612 0.7086 0.65785 0.0
H1140 H 0.06053 0.78246 0.70097 0.0
H1141 H 0.06003 0.73163 0.68141 0.0
H1142 H 0.98776 0.71494 0.58407 0.0
H1143 H 0.00912 0.68788 0.61778 0.0
Li1144 Li 0.51823 0.27937 0.14254 0.0
Li1145 Li 0.49886 0.26671 0.16081 0.0
Li1146 Li 0.52781 0.26303 0.16316 0.0
Li1147 Li 0.51209 0.24978 0.14078 0.0
C1148 C 0.52316 0.29079 0.18081 0.0
N1149 N 0.53713 0.30318 0.21018 0.0
C1150 C 0.51495 0.2889 0.19489 0.0
C1151 C 0.53848 0.29898 0.18166 0.0
C1152 C 0.52221 0.29527 0.20962 0.0
C1153 C 0.54534 0.30514 0.19663 0.0
C1154 C 0.48211 0.27003 0.13486 0.0
C1155 C 0.45365 0.26219 0.13305 0.0
N1156 N 0.45077 0.27771 0.13136 0.0
C1157 C 0.47889 0.28588 0.13303 0.0
C1158 C 0.46941 0.25806 0.13479 0.0
C1159 C 0.46296 0.28952 0.13129 0.0
C1160 C 0.51874 0.29506 0.11507 0.0
N1161 N 0.52288 0.29716 0.13086 0.0
C1162 C 0.53347 0.32443 0.12951 0.0
C1163 C 0.53003 0.31151 0.1382 0.0
C1164 C 0.52945 0.3226 0.11311 0.0
C1165 C 0.52193 0.30765 0.10593 0.0
H1166 H 0.51281 0.28362 0.10959 0.0
H1167 H 0.53307 0.31293 0.15079 0.0
C1168 C 0.47309 0.25785 0.18039 0.0
N1169 N 0.47948 0.26994 0.17254 0.0
C1170 C 0.45903 0.2598 0.18912 0.0
C1171 C 0.45843 0.2867 0.18169 0.0
C1172 C 0.47259 0.28427 0.1732 0.0
C1173 C 0.45142 0.27436 0.18981 0.0
H1174 H 0.47899 0.24674 0.18004 0.0
H1175 H 0.47809 0.29383 0.16713 0.0
C1176 C 0.54159 0.25264 0.12934 0.0
N1177 N 0.55683 0.23253 0.10641 0.0
C1178 C 0.55194 0.24163 0.13393 0.0
C1179 C 0.53908 0.2535 0.11311 0.0
C1180 C 0.55953 0.23156 0.12215 0.0
C1181 C 0.54686 0.24319 0.1017 0.0
C1182 C 0.5071 0.23049 0.16313 0.0
C1183 C 0.51942 0.22174 0.16801 0.0
C1184 C 0.49241 0.2223 0.15768 0.0
C1185 C 0.51689 0.20487 0.16721 0.0
C1186 C 0.49037 0.20543 0.15702 0.0
N1187 N 0.50255 0.19714 0.16176 0.0
C1188 C 0.54113 0.2572 0.1925 0.0
C1189 C 0.56037 0.26519 0.17401 0.0
C1190 C 0.5533 0.25572 0.20354 0.0
N1191 N 0.54487 0.26169 0.17802 0.0
C1192 C 0.57293 0.26382 0.18466 0.0
C1193 C 0.56949 0.25888 0.19962 0.0
H1194 H 0.52867 0.25466 0.19543 0.0
H1195 H 0.56298 0.2689 0.16246 0.0
C1196 C 0.49892 0.23036 0.11276 0.0
N1197 N 0.50942 0.23044 0.12516 0.0
C1198 C 0.49669 0.21681 0.10095 0.0
C1199 C 0.51624 0.20367 0.11477 0.0
C1200 C 0.51811 0.21747 0.12627 0.0
C1201 C 0.5054 0.20318 0.10187 0.0
H1202 H 0.49235 0.2409 0.11193 0.0
H1203 H 0.52658 0.21782 0.13604 0.0
O1204 O 0.51646 0.2842 0.16629 0.0
O1205 O 0.49759 0.26627 0.13684 0.0
O1206 O 0.53386 0.26242 0.14069 0.0
O1207 O 0.50934 0.24701 0.16385 0.0
H1208 H 0.50317 0.28245 0.19448 0.0
H1209 H 0.54516 0.30025 0.17091 0.0
H1210 H 0.51601 0.29386 0.22062 0.0
H1211 H 0.55724 0.31139 0.19747 0.0
H1212 H 0.4437 0.25306 0.13305 0.0
H1213 H 0.48856 0.29533 0.13316 0.0
H1214 H 0.4717 0.24572 0.13614 0.0
H1215 H 0.46028 0.30176 0.12995 0.0
H1216 H 0.53938 0.33567 0.13554 0.0
H1217 H 0.51832 0.30576 0.09342 0.0
H1218 H 0.45436 0.25008 0.19548 0.0
H1219 H 0.45299 0.29809 0.18175 0.0
H1220 H 0.55388 0.24066 0.14643 0.0
H1221 H 0.53105 0.26189 0.10937 0.0
H1222 H 0.56748 0.22291 0.12552 0.0
H1223 H 0.54493 0.24365 0.08909 0.0
H1224 H 0.5309 0.22784 0.17218 0.0
H1225 H 0.48275 0.22889 0.15388 0.0
H1226 H 0.52636 0.19793 0.17086 0.0
H1227 H 0.4791 0.19893 0.15273 0.0
H1228 H 0.55004 0.25216 0.21502 0.0
H1229 H 0.5852 0.26624 0.18103 0.0
H1230 H 0.48841 0.21713 0.09109 0.0
H1231 H 0.52311 0.19342 0.11611 0.0
C1232 C 0.228 0.74977 0.8311 0.0
C1233 C 0.22974 0.73337 0.83243 0.0
C1234 C 0.22795 0.76135 0.84482 0.0
C1235 C 0.24146 0.76773 0.88725 0.0
H1236 H 0.21513 0.80435 0.89068 0.0
C1237 C 0.25145 0.821 0.93836 0.0
C1238 C 0.2378 0.82761 0.94548 0.0
C1239 C 0.24999 0.80991 0.92431 0.0
C1240 C 0.22247 0.79412 0.88997 0.0
H1241 H 0.23186 0.71611 0.84914 0.0
H1242 H 0.23149 0.73617 0.87302 0.0
H1243 H 0.21264 0.78388 0.86693 0.0
H1244 H 0.21191 0.8278 0.94336 0.0
H1245 H 0.20932 0.80826 0.91891 0.0
H1246 H 0.25102 0.77768 0.91038 0.0
C1247 C 0.23064 0.74023 0.86142 0.0
C1248 C 0.22118 0.78248 0.87626 0.0
C1249 C 0.2308 0.7287 0.84774 0.0
C1250 C 0.22267 0.82304 0.93809 0.0
C1251 C 0.2212 0.81186 0.92405 0.0
C1252 C 0.24272 0.77931 0.90093 0.0
C1253 C 0.22954 0.75675 0.86015 0.0
C1254 C 0.23066 0.76913 0.87474 0.0
C1255 C 0.23484 0.80505 0.91706 0.0
C1256 C 0.2333 0.7927 0.90246 0.0
H1257 H 0.22728 0.75374 0.81945 0.0
H1258 H 0.22722 0.77398 0.84337 0.0
H1259 H 0.24914 0.75776 0.88642 0.0
H1260 H 0.26331 0.8245 0.94359 0.0
H1261 H 0.2608 0.8052 0.91909 0.0
C1262 C 0.03354 0.53775 0.43703 0.0
C1263 C 0.01989 0.52678 0.43664 0.0
C1264 C 0.04264 0.53854 0.42321 0.0
C1265 C 0.05218 0.51274 0.38622 0.0
H1266 H 0.06851 0.55272 0.37135 0.0
C1267 C 0.08267 0.51199 0.32532 0.0
C1268 C 0.09604 0.52306 0.32403 0.0
C1269 C 0.07339 0.51324 0.33908 0.0
C1270 C 0.06423 0.54144 0.37546 0.0
H1271 H 0.00465 0.50837 0.42183 0.0
H1272 H 0.02045 0.50972 0.3977 0.0
H1273 H 0.05223 0.55386 0.39543 0.0
H1274 H 0.10992 0.54433 0.33628 0.0
H1275 H 0.09407 0.54614 0.36053 0.0
H1276 H 0.0643 0.50025 0.36658 0.0
C1277 C 0.02425 0.51765 0.40857 0.0
C1278 C 0.05487 0.54212 0.38922 0.0
C1279 C 0.01515 0.51695 0.4223 0.0
C1280 C 0.09984 0.53546 0.3369 0.0
C1281 C 0.0906 0.53664 0.35075 0.0
C1282 C 0.06161 0.51206 0.37258 0.0
C1283 C 0.03827 0.52821 0.40893 0.0
C1284 C 0.0486 0.52775 0.39463 0.0
C1285 C 0.0773 0.52548 0.35205 0.0
C1286 C 0.06763 0.52638 0.3669 0.0
H1287 H 0.03741 0.54532 0.44808 0.0
H1288 H 0.05343 0.54673 0.42385 0.0
H1289 H 0.04781 0.50146 0.39028 0.0
H1290 H 0.07946 0.50215 0.31577 0.0
H1291 H 0.06309 0.50458 0.33951 0.0
C1292 C 0.80858 0.74733 0.84332 0.0
C1293 C 0.79495 0.74875 0.83387 0.0
C1294 C 0.80757 0.73773 0.8557 0.0
C1295 C 0.77801 0.72168 0.88278 0.0
H1296 H 0.81062 0.69313 0.89126 0.0
C1297 C 0.76893 0.67876 0.93039 0.0
C1298 C 0.78226 0.67661 0.93991 0.0
C1299 C 0.77086 0.68696 0.91708 0.0
C1300 C 0.8015 0.7012 0.88918 0.0
H1301 H 0.76982 0.7404 0.82945 0.0
H1302 H 0.76805 0.72387 0.85108 0.0
H1303 H 0.81353 0.70844 0.86862 0.0
H1304 H 0.80808 0.6814 0.94292 0.0
H1305 H 0.81145 0.69597 0.91986 0.0
H1306 H 0.76608 0.71478 0.9034 0.0
C1307 C 0.77944 0.7304 0.84912 0.0
C1308 C 0.80316 0.70994 0.87619 0.0
C1309 C 0.78046 0.7399 0.83673 0.0
C1310 C 0.7976 0.68271 0.93572 0.0
C1311 C 0.79952 0.69103 0.92246 0.0
C1312 C 0.7764 0.71306 0.89581 0.0
C1313 C 0.7929 0.72941 0.85892 0.0
C1314 C 0.79137 0.72019 0.87279 0.0
C1315 C 0.78615 0.69335 0.91301 0.0
C1316 C 0.78806 0.70262 0.89915 0.0
H1317 H 0.81989 0.75407 0.84152 0.0
H1318 H 0.81813 0.73727 0.86311 0.0
H1319 H 0.76887 0.72972 0.88067 0.0
H1320 H 0.75699 0.67397 0.93315 0.0
H1321 H 0.76033 0.68818 0.90991 0.0
C1322 C 0.04078 0.97567 0.44926 0.0
C1323 C 0.03454 0.97726 0.4648 0.0
C1324 C 0.03099 0.97697 0.4361 0.0
C1325 C 0.98959 0.97536 0.42081 0.0
H1326 H 0.00693 0.00788 0.39553 0.0
C1327 C 0.95163 0.99806 0.37184 0.0
C1328 C 0.95949 0.00205 0.35804 0.0
C1329 C 0.96038 0.99435 0.38488 0.0
C1330 C 0.00197 0.99855 0.40223 0.0
H1331 H 0.0128 0.98032 0.47848 0.0
H1332 H 0.99557 0.98215 0.45531 0.0
H1333 H 0.02269 1.00131 0.41773 0.0
H1334 H 0.98292 0.00536 0.34738 0.0
H1335 H 0.998 0.99812 0.36959 0.0
H1336 H 0.969 0.9723 0.40511 0.0
C1337 C 0.00812 0.98006 0.45344 0.0
C1338 C 0.01101 0.99484 0.41502 0.0
C1339 C 0.01798 0.97895 0.46669 0.0
C1340 C 0.97635 0.00214 0.35764 0.0
C1341 C 0.98508 0.99823 0.37057 0.0
C1342 C 0.98061 0.97889 0.40783 0.0
C1343 C 0.01468 0.97964 0.43811 0.0
C1344 C 0.00495 0.98321 0.42443 0.0
C1345 C 0.97724 0.99437 0.38443 0.0
C1346 C 0.98669 0.99054 0.39834 0.0
H1347 H 0.0534 0.97398 0.44733 0.0
H1348 H 0.03628 0.97629 0.42436 0.0
H1349 H 0.98467 0.96631 0.42786 0.0
H1350 H 0.93865 0.9976 0.37256 0.0
H1351 H 0.9539 0.99166 0.39539 0.0
C1352 C 0.25268 0.28848 0.68237 0.0
C1353 C 0.25168 0.28207 0.69693 0.0
C1354 C 0.25326 0.27824 0.66785 0.0
C1355 C 0.24463 0.23635 0.6479 0.0
H1356 H 0.27905 0.2477 0.6198 0.0
C1357 C 0.25101 0.20386 0.58311 0.0
C1358 C 0.26649 0.19944 0.57868 0.0
C1359 C 0.24864 0.21366 0.59761 0.0
C1360 C 0.26942 0.24435 0.62754 0.0
H1361 H 0.24979 0.25971 0.70748 0.0
H1362 H 0.25043 0.2418 0.68201 0.0
H1363 H 0.27522 0.26531 0.6449 0.0
H1364 H 0.29157 0.2018 0.58632 0.0
H1365 H 0.28745 0.21927 0.61138 0.0
H1366 H 0.23884 0.21536 0.63046 0.0
C1367 C 0.25084 0.25481 0.68193 0.0
C1368 C 0.26713 0.2545 0.64183 0.0
C1369 C 0.25041 0.26508 0.69651 0.0
C1370 C 0.27953 0.20518 0.58913 0.0
C1371 C 0.27718 0.21513 0.60355 0.0
C1372 C 0.24679 0.22629 0.63348 0.0
C1373 C 0.25266 0.26131 0.66749 0.0
C1374 C 0.25475 0.25059 0.65218 0.0
C1375 C 0.26171 0.21946 0.60795 0.0
C1376 C 0.25926 0.23015 0.62319 0.0
H1377 H 0.25331 0.30148 0.6822 0.0
H1378 H 0.25436 0.28358 0.65688 0.0
H1379 H 0.23496 0.23308 0.65563 0.0
H1380 H 0.2407 0.19996 0.57527 0.0
H1381 H 0.23662 0.21698 0.6006 0.0
C1382 C 0.5519 0.55385 0.60594 0.0
C1383 C 0.54451 0.54906 0.59085 0.0
C1384 C 0.54276 0.55499 0.61983 0.0
C1385 C 0.50042 0.55559 0.63417 0.0
H1386 H 0.51864 0.54084 0.67148 0.0
C1387 C 0.4621 0.53703 0.68624 0.0
C1388 C 0.46739 0.5434 0.70189 0.0
C1389 C 0.47181 0.53903 0.67313 0.0
C1390 C 0.51347 0.54515 0.66121 0.0
H1391 H 0.52175 0.54183 0.57843 0.0
H1392 H 0.50582 0.54337 0.60258 0.0
H1393 H 0.5349 0.5422 0.64774 0.0
H1394 H 0.48728 0.5568 0.71588 0.0
H1395 H 0.50444 0.55978 0.69295 0.0
H1396 H 0.47877 0.55788 0.64754 0.0
C1397 C 0.51861 0.5467 0.60378 0.0
C1398 C 0.5228 0.54601 0.64759 0.0
C1399 C 0.52774 0.54578 0.58989 0.0
C1400 C 0.48284 0.55155 0.70406 0.0
C1401 C 0.49266 0.55334 0.69093 0.0
C1402 C 0.49104 0.55451 0.6477 0.0
C1403 C 0.52601 0.55114 0.61897 0.0
C1404 C 0.51636 0.55112 0.63381 0.0
C1405 C 0.48717 0.54722 0.67533 0.0
C1406 C 0.49743 0.54916 0.66131 0.0
H1407 H 0.56481 0.55659 0.60701 0.0
H1408 H 0.54886 0.55879 0.63125 0.0
H1409 H 0.49513 0.55991 0.62397 0.0
H1410 H 0.45049 0.5303 0.68405 0.0
H1411 H 0.46739 0.53393 0.66126 0.0
C1412 C 0.79437 0.25587 0.68424 0.0
C1413 C 0.80856 0.24794 0.68405 0.0
C1414 C 0.79327 0.26906 0.67584 0.0
C1415 C 0.81106 0.28543 0.64102 0.0
H1416 H 0.78434 0.32083 0.65407 0.0
C1417 C 0.80123 0.33469 0.60093 0.0
C1418 C 0.78522 0.3384 0.59908 0.0
C1419 C 0.80546 0.32542 0.61268 0.0
C1420 C 0.79179 0.31098 0.65025 0.0
H1421 H 0.83295 0.2476 0.6756 0.0
H1422 H 0.83128 0.27099 0.66114 0.0
H1423 H 0.78987 0.302 0.67278 0.0
H1424 H 0.76112 0.33535 0.60832 0.0
H1425 H 0.76854 0.3193 0.62888 0.0
H1426 H 0.81281 0.29427 0.61844 0.0
C1427 C 0.82088 0.26696 0.66757 0.0
C1428 C 0.79497 0.30018 0.66096 0.0
C1429 C 0.82192 0.2537 0.67595 0.0
C1430 C 0.77361 0.33292 0.60953 0.0
C1431 C 0.77786 0.32372 0.62133 0.0
C1432 C 0.80795 0.29626 0.63036 0.0
C1433 C 0.80638 0.27453 0.66705 0.0
C1434 C 0.80442 0.28709 0.65639 0.0
C1435 C 0.7938 0.31971 0.62292 0.0
C1436 C 0.79807 0.309 0.63475 0.0
H1437 H 0.78386 0.2514 0.69028 0.0
H1438 H 0.78186 0.27438 0.67556 0.0
H1439 H 0.81815 0.27535 0.63695 0.0
H1440 H 0.81055 0.33897 0.59331 0.0
H1441 H 0.81789 0.32274 0.61375 0.0
C1442 C 0.52399 0.9701 0.57832 0.0
C1443 C 0.51151 0.98052 0.5782 0.0
C1444 C 0.53324 0.97008 0.5922 0.0
C1445 C 0.54627 0.99611 0.62941 0.0
H1446 H 0.55737 0.95605 0.64362 0.0
C1447 C 0.57903 0.99615 0.68969 0.0
C1448 C 0.5909 0.98516 0.69038 0.0
C1449 C 0.56902 0.99511 0.67619 0.0
C1450 C 0.55456 0.96736 0.63971 0.0
H1451 H 0.49865 0.99866 0.59282 0.0
H1452 H 0.51495 0.99878 0.61692 0.0
H1453 H 0.54052 0.95498 0.61968 0.0
H1454 H 0.60131 0.96425 0.67739 0.0
H1455 H 0.58424 0.9628 0.65364 0.0
H1456 H 0.56051 0.00854 0.64916 0.0
C1457 C 0.51767 0.99077 0.6062 0.0
C1458 C 0.54486 0.96673 0.62602 0.0
C1459 C 0.50836 0.99071 0.59238 0.0
C1460 C 0.59244 0.97305 0.67722 0.0
C1461 C 0.58248 0.97207 0.66366 0.0
C1462 C 0.55606 0.99675 0.64301 0.0
C1463 C 0.53029 0.98054 0.60624 0.0
C1464 C 0.54057 0.98111 0.62076 0.0
C1465 C 0.57068 0.98314 0.66294 0.0
C1466 C 0.5603 0.98238 0.64839 0.0
H1467 H 0.52693 0.96227 0.56757 0.0
H1468 H 0.54299 0.96218 0.59182 0.0
H1469 H 0.54339 0.00741 0.6255 0.0
H1470 H 0.5776 0.00578 0.69947 0.0
H1471 H 0.55992 0.0037 0.67618 0.0
C1472 C 0.83717 0.22291 0.76098 0.0
C1473 C 0.83829 0.21979 0.74423 0.0
C1474 C 0.85104 0.22605 0.77064 0.0
C1475 C 0.89334 0.217 0.77018 0.0
H1476 H 0.89698 0.24789 0.80911 0.0
C1477 C 0.95109 0.22651 0.80952 0.0
C1478 C 0.94931 0.22873 0.82622 0.0
C1479 C 0.93785 0.22654 0.7993 0.0
C1480 C 0.89609 0.23908 0.79837 0.0
H1481 H 0.85483 0.21821 0.72448 0.0
H1482 H 0.87907 0.22388 0.74136 0.0
H1483 H 0.87344 0.24682 0.79155 0.0
H1484 H 0.93209 0.23286 0.84522 0.0
H1485 H 0.90892 0.23239 0.8274 0.0
H1486 H 0.91574 0.20897 0.7771 0.0
C1487 C 0.86745 0.22372 0.74701 0.0
C1488 C 0.88262 0.23852 0.78827 0.0
C1489 C 0.85356 0.22067 0.73734 0.0
C1490 C 0.9339 0.23092 0.83243 0.0
C1491 C 0.92063 0.23089 0.8222 0.0
C1492 C 0.90676 0.2175 0.7803 0.0
C1493 C 0.86635 0.22606 0.76378 0.0
C1494 C 0.88106 0.22742 0.7741 0.0
C1495 C 0.92243 0.22872 0.80549 0.0
C1496 C 0.90828 0.22849 0.79457 0.0
H1497 H 0.82556 0.22244 0.76663 0.0
H1498 H 0.84977 0.22773 0.78351 0.0
H1499 H 0.89237 0.20809 0.75951 0.0
H1500 H 0.96273 0.2246 0.80429 0.0
H1501 H 0.93974 0.22501 0.78652 0.0
C1502 C 0.47958 0.93833 0.5312 0.0
C1503 C 0.48673 0.95267 0.52648 0.0
C1504 C 0.479 0.92369 0.52081 0.0
C1505 C 0.4862 0.90585 0.47839 0.0
H1506 H 0.49359 0.86765 0.49807 0.0
C1507 C 0.50799 0.84657 0.44403 0.0
C1508 C 0.49968 0.83187 0.44679 0.0
C1509 C 0.50493 0.86128 0.45322 0.0
C1510 C 0.49136 0.87819 0.49242 0.0
H1511 H 0.49859 0.96309 0.50714 0.0
H1512 H 0.49813 0.93751 0.48915 0.0
H1513 H 0.4906 0.89338 0.51489 0.0
H1514 H 0.48135 0.82139 0.46132 0.0
H1515 H 0.47655 0.84699 0.4777 0.0
H1516 H 0.48774 0.89059 0.45587 0.0
C1517 C 0.49251 0.93753 0.50067 0.0
C1518 C 0.48954 0.89296 0.50205 0.0
C1519 C 0.49282 0.95222 0.51098 0.0
C1520 C 0.48825 0.83234 0.45902 0.0
C1521 C 0.4854 0.84703 0.46836 0.0
C1522 C 0.48829 0.89111 0.46876 0.0
C1523 C 0.48588 0.92297 0.50555 0.0
C1524 C 0.48698 0.90704 0.49519 0.0
C1525 C 0.49369 0.86163 0.46554 0.0
C1526 C 0.49095 0.87716 0.47569 0.0
H1527 H 0.47471 0.93841 0.54308 0.0
H1528 H 0.4734 0.91288 0.52488 0.0
H1529 H 0.48396 0.9163 0.47263 0.0
H1530 H 0.51709 0.84673 0.43497 0.0
H1531 H 0.51165 0.87234 0.45093 0.0
C1532 C 0.19468 0.28867 0.75868 0.0
C1533 C 0.20821 0.27969 0.75791 0.0
C1534 C 0.18021 0.2824 0.7645 0.0
C1535 C 0.16564 0.25376 0.79165 0.0
H1536 H 0.12371 0.26347 0.7772 0.0
C1537 C 0.107 0.23414 0.82244 0.0
C1538 C 0.09608 0.24616 0.82567 0.0
C1539 C 0.12007 0.23643 0.81248 0.0
C1540 C 0.13534 0.26072 0.78141 0.0
H1541 H 0.21745 0.25705 0.76195 0.0
H1542 H 0.19202 0.24579 0.77184 0.0
H1543 H 0.14751 0.27013 0.76201 0.0
H1544 H 0.09006 0.2698 0.8206 0.0
H1545 H 0.11295 0.27387 0.80339 0.0
H1546 H 0.1535 0.2446 0.81118 0.0
C1547 C 0.19254 0.25776 0.76816 0.0
C1548 C 0.14899 0.26453 0.7727 0.0
C1549 C 0.20703 0.26409 0.76236 0.0
C1550 C 0.09837 0.26039 0.8185 0.0
C1551 C 0.11137 0.26264 0.80848 0.0
C1552 C 0.152 0.2499 0.80031 0.0
C1553 C 0.17907 0.26702 0.7697 0.0
C1554 C 0.16434 0.26136 0.77787 0.0
C1555 C 0.12244 0.25074 0.80544 0.0
C1556 C 0.13672 0.25359 0.79545 0.0
H1557 H 0.19548 0.30086 0.75549 0.0
H1558 H 0.17019 0.28998 0.7657 0.0
H1559 H 0.17728 0.25139 0.79615 0.0
H1560 H 0.10563 0.2231 0.82787 0.0
H1561 H 0.12833 0.22699 0.81028 0.0
C1562 C 0.55823 0.59527 0.52526 0.0
C1563 C 0.54548 0.58383 0.52726 0.0
C1564 C 0.55548 0.6091 0.51833 0.0
C1565 C 0.52416 0.63476 0.50707 0.0
H1566 H 0.5536 0.64289 0.47321 0.0
C1567 C 0.51119 0.67783 0.46103 0.0
C1568 C 0.52425 0.68713 0.4555 0.0
C1569 C 0.51373 0.66612 0.47096 0.0
C1570 C 0.5454 0.64102 0.48279 0.0
H1571 H 0.51987 0.5778 0.52418 0.0
H1572 H 0.51493 0.60214 0.51211 0.0
H1573 H 0.55808 0.62142 0.48908 0.0
H1574 H 0.55026 0.69136 0.45629 0.0
H1575 H 0.55463 0.67145 0.47401 0.0
H1576 H 0.51147 0.6544 0.50076 0.0
C1577 C 0.52703 0.60055 0.516 0.0
C1578 C 0.54797 0.62867 0.4919 0.0
C1579 C 0.52983 0.58664 0.52288 0.0
C1580 C 0.53988 0.68459 0.46042 0.0
C1581 C 0.54241 0.67297 0.47043 0.0
C1582 C 0.52164 0.64723 0.49802 0.0
C1583 C 0.53992 0.61171 0.51325 0.0
C1584 C 0.53737 0.62534 0.50411 0.0
C1585 C 0.52939 0.66345 0.4757 0.0
C1586 C 0.5322 0.65048 0.4857 0.0
H1587 H 0.57042 0.59319 0.52847 0.0
H1588 H 0.56562 0.61758 0.51657 0.0
H1589 H 0.51584 0.63256 0.51647 0.0
H1590 H 0.49896 0.67958 0.4577 0.0
H1591 H 0.50341 0.65893 0.47464 0.0
C1592 C 0.8388 0.77327 0.79495 0.0
C1593 C 0.82297 0.77298 0.78904 0.0
C1594 C 0.85182 0.77341 0.78461 0.0
C1595 C 0.8636 0.78136 0.74381 0.0
H1596 H 0.89882 0.7554 0.75117 0.0
C1597 C 0.91387 0.76812 0.69778 0.0
C1598 C 0.92972 0.7689 0.70381 0.0
C1599 C 0.90085 0.7691 0.70816 0.0
C1600 C 0.88916 0.76284 0.74904 0.0
H1601 H 0.80843 0.77264 0.76761 0.0
H1602 H 0.83111 0.77271 0.74952 0.0
H1603 H 0.87617 0.7563 0.76924 0.0
H1604 H 0.94424 0.77178 0.7256 0.0
H1605 H 0.92156 0.77328 0.74363 0.0
H1606 H 0.87657 0.7877 0.72344 0.0
C1607 C 0.83351 0.77312 0.7622 0.0
C1608 C 0.87617 0.7634 0.75943 0.0
C1609 C 0.82049 0.77307 0.77257 0.0
C1610 C 0.93221 0.7708 0.72049 0.0
C1611 C 0.91919 0.7717 0.73085 0.0
C1612 C 0.87657 0.78073 0.73336 0.0
C1613 C 0.84935 0.77318 0.76807 0.0
C1614 C 0.86322 0.77268 0.75698 0.0
C1615 C 0.90336 0.77081 0.72481 0.0
C1616 C 0.88952 0.77149 0.73587 0.0
H1617 H 0.84113 0.77346 0.80762 0.0
H1618 H 0.86385 0.77379 0.78962 0.0
H1619 H 0.85397 0.78883 0.74167 0.0
H1620 H 0.91146 0.76643 0.68501 0.0
H1621 H 0.88879 0.76818 0.70311 0.0
C1622 C 0.04956 0.9276 0.52764 0.0
C1623 C 0.0374 0.93816 0.52689 0.0
C1624 C 0.04662 0.91338 0.53455 0.0
C1625 C 0.0147 0.88524 0.54816 0.0
H1626 H 0.04738 0.8785 0.57892 0.0
C1627 C 0.00359 0.84054 0.5944 0.0
C1628 C 0.0164 0.83167 0.59828 0.0
C1629 C 0.00599 0.85276 0.58466 0.0
C1630 C 0.03823 0.88 0.5702 0.0
H1631 H 0.0126 0.94223 0.53222 0.0
H1632 H 0.00733 0.91725 0.54426 0.0
H1633 H 0.05171 0.90056 0.563 0.0
H1634 H 0.04184 0.82884 0.59487 0.0
H1635 H 0.0459 0.84974 0.57754 0.0
H1636 H 0.00121 0.86466 0.55541 0.0
C1637 C 0.01909 0.9198 0.53939 0.0
C1638 C 0.04072 0.89268 0.56106 0.0
C1639 C 0.02207 0.93407 0.53251 0.0
C1640 C 0.03164 0.83527 0.59203 0.0
C1641 C 0.03403 0.84743 0.58224 0.0
C1642 C 0.01224 0.87246 0.55726 0.0
C1643 C 0.03147 0.90952 0.54087 0.0
C1644 C 0.02897 0.8955 0.54998 0.0
C1645 C 0.02126 0.85641 0.57848 0.0
C1646 C 0.02395 0.86973 0.56846 0.0
H1647 H 0.06151 0.93066 0.52346 0.0
H1648 H 0.05634 0.90561 0.53531 0.0
H1649 H 0.00548 0.88702 0.53963 0.0
H1650 H 0.99163 0.83798 0.5988 0.0
H1651 H 0.99591 0.85953 0.58219 0.0
C1652 C 0.16969 0.71454 0.77153 0.0
C1653 C 0.18463 0.72347 0.7719 0.0
C1654 C 0.15612 0.72044 0.76525 0.0
C1655 C 0.14537 0.74755 0.73658 0.0
H1656 H 0.10236 0.73929 0.75227 0.0
C1657 C 0.08901 0.76664 0.7058 0.0
C1658 C 0.0759 0.75485 0.70343 0.0
C1659 C 0.10207 0.76454 0.7156 0.0
C1660 C 0.1143 0.74162 0.7477 0.0
H1661 H 0.19735 0.74562 0.76658 0.0
H1662 H 0.17356 0.75622 0.75583 0.0
H1663 H 0.12551 0.73302 0.76745 0.0
H1664 H 0.06605 0.73185 0.70988 0.0
H1665 H 0.08887 0.72809 0.72678 0.0
H1666 H 0.13414 0.75591 0.71672 0.0
C1667 C 0.17227 0.74458 0.76019 0.0
C1668 C 0.12757 0.73802 0.75641 0.0
C1669 C 0.18584 0.73863 0.76647 0.0
C1670 C 0.07604 0.74106 0.7113 0.0
C1671 C 0.08904 0.73901 0.72114 0.0
C1672 C 0.1321 0.75118 0.72791 0.0
C1673 C 0.1573 0.73538 0.75918 0.0
C1674 C 0.14327 0.74069 0.75082 0.0
C1675 C 0.10226 0.75067 0.72334 0.0
C1676 C 0.11639 0.74801 0.73323 0.0
H1677 H 0.16861 0.70269 0.7755 0.0
H1678 H 0.14489 0.71292 0.76447 0.0
H1679 H 0.15725 0.74953 0.73177 0.0
H1680 H 0.08932 0.77735 0.69984 0.0
H1681 H 0.11201 0.77381 0.71714 0.0
C1682 C 0.97447 0.57877 0.49916 0.0
C1683 C 0.98654 0.5678 0.49758 0.0
C1684 C 0.97708 0.59387 0.50868 0.0
C1685 C 0.00128 0.61384 0.54339 0.0
H1686 H 0.98455 0.65309 0.53249 0.0
C1687 C 0.01089 0.67511 0.58494 0.0
C1688 C 0.99779 0.68481 0.58679 0.0
C1689 C 0.01045 0.66143 0.57325 0.0
C1690 C 0.98917 0.6422 0.53578 0.0
H1691 H 0.01101 0.56435 0.50434 0.0
H1692 H 0.01566 0.59084 0.52083 0.0
H1693 H 0.98247 0.62843 0.51303 0.0
H1694 H 0.97389 0.68764 0.57785 0.0
H1695 H 0.97305 0.6637 0.55757 0.0
H1696 H 0.00769 0.62744 0.56623 0.0
C1697 C 0.00411 0.58766 0.51482 0.0
C1698 C 0.98801 0.62808 0.5246 0.0
C1699 C 0.00151 0.57256 0.50522 0.0
C1700 C 0.98427 0.68055 0.57661 0.0
C1701 C 0.98381 0.66684 0.56495 0.0
C1702 C 0.00239 0.62793 0.55458 0.0
C1703 C 0.99181 0.59836 0.51691 0.0
C1704 C 0.99395 0.61369 0.52832 0.0
C1705 C 0.99688 0.65708 0.56314 0.0
C1706 C 0.99624 0.64226 0.55097 0.0
H1707 H 0.96285 0.5755 0.4933 0.0
H1708 H 0.96732 0.60177 0.5101 0.0
H1709 H 0.00573 0.60289 0.54675 0.0
H1710 H 0.0216 0.67822 0.5924 0.0
H1711 H 0.02084 0.65436 0.57203 0.0
C1712 C 0.76654 0.83737 0.23179 0.0
C1713 C 0.76856 0.82478 0.24089 0.0
C1714 C 0.77717 0.85134 0.23376 0.0
C1715 C 0.80785 0.8739 0.26257 0.0
H1716 H 0.8186 0.89738 0.22701 0.0
C1717 C 0.85866 0.92538 0.26579 0.0
C1718 C 0.85437 0.93994 0.26093 0.0
C1719 C 0.84822 0.91132 0.26296 0.0
C1720 C 0.81561 0.89096 0.23705 0.0
H1721 H 0.78355 0.81653 0.25866 0.0
H1722 H 0.80252 0.84053 0.26167 0.0
H1723 H 0.80074 0.87249 0.22252 0.0
H1724 H 0.83602 0.95119 0.24906 0.0
H1725 H 0.81783 0.92641 0.24381 0.0
H1726 H 0.82316 0.89219 0.27694 0.0
C1727 C 0.79243 0.84001 0.25344 0.0
C1728 C 0.80532 0.87674 0.23452 0.0
C1729 C 0.78164 0.82618 0.25165 0.0
C1730 C 0.83955 0.94013 0.25298 0.0
C1731 C 0.82922 0.92597 0.2499 0.0
C1732 C 0.81833 0.88794 0.26501 0.0
C1733 C 0.79022 0.85291 0.2447 0.0
C1734 C 0.80128 0.86801 0.24726 0.0
C1735 C 0.83342 0.91148 0.255 0.0
C1736 C 0.82228 0.89661 0.25229 0.0
H1737 H 0.75645 0.8366 0.2235 0.0
H1738 H 0.7749 0.86107 0.22699 0.0
H1739 H 0.80476 0.8678 0.27277 0.0
H1740 H 0.86997 0.92495 0.27204 0.0
H1741 H 0.85176 0.90027 0.26693 0.0
C1742 C 0.76784 0.17553 0.29637 0.0
C1743 C 0.76047 0.18082 0.3109 0.0
C1744 C 0.77938 0.16416 0.29567 0.0
C1745 C 0.79406 0.13231 0.31729 0.0
H1746 H 0.83107 0.13646 0.29019 0.0
C1747 C 0.83602 0.08057 0.30199 0.0
C1748 C 0.8526 0.08475 0.30095 0.0
C1749 C 0.82512 0.09258 0.30391 0.0
C1750 C 0.8209 0.13519 0.29795 0.0
H1751 H 0.75946 0.17819 0.33609 0.0
H1752 H 0.77987 0.15866 0.33494 0.0
H1753 H 0.81173 0.15706 0.29239 0.0
H1754 H 0.87069 0.10495 0.30121 0.0
H1755 H 0.85171 0.12591 0.30495 0.0
H1756 H 0.80339 0.11059 0.32307 0.0
C1757 C 0.77657 0.16315 0.32403 0.0
C1758 C 0.80968 0.14691 0.29905 0.0
C1759 C 0.765 0.17451 0.32473 0.0
C1760 C 0.85802 0.10128 0.30211 0.0
C1761 C 0.84711 0.1133 0.30405 0.0
C1762 C 0.80529 0.1206 0.31621 0.0
C1763 C 0.78389 0.15781 0.30948 0.0
C1764 C 0.79607 0.14557 0.30866 0.0
C1765 C 0.83051 0.1091 0.30488 0.0
C1766 C 0.81881 0.12184 0.30645 0.0
H1767 H 0.76478 0.18027 0.28553 0.0
H1768 H 0.78461 0.16019 0.28422 0.0
H1769 H 0.78364 0.13079 0.32468 0.0
H1770 H 0.83143 0.06798 0.30136 0.0
H1771 H 0.81241 0.08887 0.30433 0.0
C1772 C 0.44173 0.00179 1.00009 0.0
C1773 C 0.44169 0.01836 0.99853 0.0
C1774 C 0.42753 0.99282 0.00318 0.0
C1775 C 0.38627 0.9963 0.01814 0.0
H1776 H 0.378 0.95385 0.99287 0.0
C1777 C 0.33328 0.95037 0.02995 0.0
C1778 C 0.32488 0.94186 0.01645 0.0
C1779 C 0.34735 0.96019 0.02819 0.0
C1780 C 0.38008 0.96572 0.99996 0.0
H1781 H 0.4267 0.03858 0.99937 0.0
H1782 H 0.40189 0.02292 0.00489 0.0
H1783 H 0.40292 0.97014 0.98934 0.0
H1784 H 0.32445 0.9375 0.9905 0.0
H1785 H 0.34904 0.95446 0.98747 0.0
H1786 H 0.36329 0.99189 0.02862 0.0
C1787 C 0.41296 0.0169 0.0038 0.0
C1788 C 0.39444 0.97497 0.99806 0.0
C1789 C 0.42718 0.02588 1.00065 0.0
C1790 C 0.33078 0.94359 1.00116 0.0
C1791 C 0.34487 0.95334 0.99942 0.0
C1792 C 0.37192 0.98698 0.02011 0.0
C1793 C 0.41294 1.00021 0.00485 0.0
C1794 C 0.39771 0.99038 0.00711 0.0
C1795 C 0.35338 0.96167 0.0129 0.0
C1796 C 0.36864 0.9716 0.01099 0.0
H1797 H 0.45275 0.99569 0.99887 0.0
H1798 H 0.42797 0.98006 0.00423 0.0
H1799 H 0.38848 0.00808 0.02535 0.0
H1800 H 0.32919 0.94917 0.04191 0.0
H1801 H 0.35373 0.96632 0.03882 0.0
C1802 C 0.27827 0.35809 0.29023 0.0
C1803 C 0.27336 0.34158 0.28617 0.0
C1804 C 0.27077 0.36979 0.28308 0.0
C1805 C 0.23181 0.37533 0.26478 0.0
H1806 H 0.25338 0.41577 0.2555 0.0
C1807 C 0.19643 0.42493 0.24252 0.0
C1808 C 0.20061 0.44101 0.24959 0.0
C1809 C 0.20623 0.41249 0.2447 0.0
C1810 C 0.24716 0.40458 0.25813 0.0
H1811 H 0.25732 0.32405 0.27125 0.0
H1812 H 0.24434 0.34443 0.25846 0.0
H1813 H 0.26924 0.39445 0.26292 0.0
H1814 H 0.21851 0.45661 0.26439 0.0
H1815 H 0.23552 0.43497 0.26826 0.0
H1816 H 0.20974 0.38553 0.2604 0.0
C1817 C 0.25384 0.34845 0.26725 0.0
C1818 C 0.25626 0.39235 0.26236 0.0
C1819 C 0.26136 0.33677 0.27441 0.0
C1820 C 0.21503 0.44441 0.25858 0.0
C1821 C 0.22481 0.43198 0.26079 0.0
C1822 C 0.22273 0.38755 0.26058 0.0
C1823 C 0.25815 0.36514 0.27182 0.0
C1824 C 0.24869 0.37764 0.26593 0.0
C1825 C 0.22044 0.41582 0.25404 0.0
C1826 C 0.23026 0.40242 0.25739 0.0
H1827 H 0.28736 0.36201 0.29947 0.0
H1828 H 0.27428 0.3825 0.28703 0.0
H1829 H 0.22554 0.3643 0.26773 0.0
H1830 H 0.18555 0.42192 0.23529 0.0
H1831 H 0.20263 0.40025 0.23909 0.0
C1832 C 0.09984 0.99784 0.49842 0.0
C1833 C 0.08546 0.0025 0.49233 0.0
C1834 C 0.11421 0.00756 0.49792 0.0
C1835 C 0.13316 0.04077 0.47757 0.0
H1836 H 0.16357 0.04601 0.5132 0.0
C1837 C 0.18654 0.08983 0.48517 0.0
C1838 C 0.2014 0.08519 0.49014 0.0
C1839 C 0.17269 0.07923 0.48488 0.0
C1840 C 0.15527 0.04452 0.50308 0.0
H1841 H 0.07477 0.02121 0.48134 0.0
H1842 H 0.09973 0.03832 0.48069 0.0
H1843 H 0.13875 0.02868 0.51405 0.0
H1844 H 0.2134 0.0658 0.49869 0.0
H1845 H 0.18917 0.04724 0.49814 0.0
H1846 H 0.1496 0.05686 0.46675 0.0
C1847 C 0.10004 0.02695 0.48548 0.0
C1848 C 0.14105 0.03457 0.50355 0.0
C1849 C 0.08571 0.01717 0.48589 0.0
C1850 C 0.20214 0.06966 0.49467 0.0
C1851 C 0.18825 0.05911 0.49451 0.0
C1852 C 0.14733 0.0508 0.47715 0.0
C1853 C 0.1145 0.02224 0.49141 0.0
C1854 C 0.12978 0.03261 0.49082 0.0
C1855 C 0.17336 0.06381 0.48968 0.0
C1856 C 0.15851 0.05282 0.48992 0.0
H1857 H 0.10004 0.9865 0.50329 0.0
H1858 H 0.12514 0.00343 0.50238 0.0
H1859 H 0.12491 0.03931 0.46741 0.0
H1860 H 0.18562 0.10167 0.4815 0.0
H1861 H 0.16137 0.08325 0.48122 0.0
C1862 C 0.79558 0.1684 0.7406 0.0
C1863 C 0.78946 0.18078 0.73317 0.0
C1864 C 0.78541 0.15536 0.74429 0.0
C1865 C 0.74237 0.14213 0.74921 0.0
H1866 H 0.75746 0.09893 0.74149 0.0
C1867 C 0.70003 0.08366 0.7472 0.0
C1868 C 0.70539 0.07116 0.75498 0.0
C1869 C 0.71035 0.09728 0.7454 0.0
C1870 C 0.75314 0.11094 0.74387 0.0
H1871 H 0.76772 0.18933 0.72417 0.0
H1872 H 0.75008 0.16638 0.73014 0.0
H1873 H 0.77534 0.12231 0.7369 0.0
H1874 H 0.72578 0.06309 0.76688 0.0
H1875 H 0.74383 0.08692 0.76374 0.0
H1876 H 0.72004 0.13065 0.75587 0.0
C1877 C 0.76271 0.16684 0.73334 0.0
C1878 C 0.76339 0.12436 0.74129 0.0
C1879 C 0.77287 0.17991 0.72972 0.0
C1880 C 0.72128 0.07258 0.76094 0.0
C1881 C 0.73165 0.08615 0.75902 0.0
C1882 C 0.73208 0.1287 0.7517 0.0
C1883 C 0.76886 0.15434 0.74057 0.0
C1884 C 0.75811 0.14012 0.74385 0.0
C1885 C 0.72629 0.09864 0.75123 0.0
C1886 C 0.73734 0.11296 0.74899 0.0
H1887 H 0.80832 0.16859 0.74328 0.0
H1888 H 0.79052 0.14606 0.75005 0.0
H1889 H 0.73799 0.15412 0.75158 0.0
H1890 H 0.6878 0.08297 0.74262 0.0
H1891 H 0.70592 0.10664 0.73922 0.0
C1892 C 0.46054 0.03497 0.51824 0.0
C1893 C 0.45837 0.02155 0.52651 0.0
C1894 C 0.44728 0.0427 0.5138 0.0
C1895 C 0.40294 0.03866 0.50869 0.0
H1896 H 0.40729 0.08559 0.51931 0.0
C1897 C 0.34836 0.07775 0.51081 0.0
C1898 C 0.35046 0.0931 0.50564 0.0
C1899 C 0.36146 0.06848 0.51211 0.0
C1900 C 0.4059 0.07253 0.51601 0.0
H1901 H 0.44094 0.00525 0.53634 0.0
H1902 H 0.41758 0.01871 0.52851 0.0
H1903 H 0.43015 0.07003 0.52305 0.0
H1904 H 0.36812 0.11065 0.49774 0.0
H1905 H 0.39083 0.09432 0.49953 0.0
H1906 H 0.37865 0.04118 0.50167 0.0
C1907 C 0.42947 0.0232 0.52529 0.0
C1908 C 0.41904 0.06359 0.51817 0.0
C1909 C 0.44279 0.0155 0.52977 0.0
C1910 C 0.36599 0.09883 0.50161 0.0
C1911 C 0.37908 0.08953 0.50284 0.0
C1912 C 0.38979 0.04762 0.50643 0.0
C1913 C 0.43161 0.03716 0.51762 0.0
C1914 C 0.41771 0.04655 0.5146 0.0
C1915 C 0.37702 0.07428 0.50822 0.0
C1916 C 0.39109 0.06468 0.51014 0.0
H1917 H 0.47253 0.03986 0.51574 0.0
H1918 H 0.44931 0.05327 0.50771 0.0
H1919 H 0.40158 0.02556 0.50571 0.0
H1920 H 0.33655 0.07282 0.5138 0.0
H1921 H 0.35942 0.05688 0.51646 0.0
C1922 C 0.58866 0.50812 0.56899 0.0
C1923 C 0.58977 0.52235 0.56174 0.0
C1924 C 0.60125 0.49786 0.5678 0.0
C1925 C 0.63633 0.4877 0.5428 0.0
H1926 H 0.64894 0.46614 0.57824 0.0
C1927 C 0.69357 0.45311 0.54152 0.0
C1928 C 0.69247 0.43803 0.54727 0.0
C1929 C 0.68097 0.46327 0.54363 0.0
C1930 C 0.64544 0.47195 0.56819 0.0
H1931 H 0.60518 0.53733 0.54816 0.0
H1932 H 0.62718 0.5196 0.54625 0.0
H1933 H 0.62724 0.48433 0.58158 0.0
H1934 H 0.67734 0.4219 0.55993 0.0
H1935 H 0.65523 0.4396 0.5635 0.0
H1936 H 0.65456 0.47542 0.52943 0.0
C1937 C 0.61645 0.51611 0.55251 0.0
C1938 C 0.633 0.48237 0.5701 0.0
C1939 C 0.60387 0.52631 0.55364 0.0
C1940 C 0.67849 0.43338 0.55524 0.0
C1941 C 0.6659 0.44359 0.55743 0.0
C1942 C 0.64878 0.47735 0.54092 0.0
C1943 C 0.61523 0.50165 0.55939 0.0
C1944 C 0.62835 0.49043 0.55744 0.0
C1945 C 0.66697 0.45862 0.55158 0.0
C1946 C 0.65353 0.4694 0.5536 0.0
H1947 H 0.57788 0.50465 0.57517 0.0
H1948 H 0.59982 0.48674 0.5731 0.0
H1949 H 0.63284 0.49342 0.53268 0.0
H1950 H 0.70409 0.457 0.53518 0.0
H1951 H 0.68224 0.47484 0.53913 0.0
C1952 C 0.75133 0.23791 0.34531 0.0
C1953 C 0.7366 0.23033 0.3389 0.0
C1954 C 0.75179 0.24934 0.35909 0.0
C1955 C 0.72816 0.27771 0.38464 0.0
H1956 H 0.75908 0.27181 0.41744 0.0
C1957 C 0.7309 0.31632 0.4476 0.0
C1958 C 0.74622 0.32078 0.4546 0.0
C1959 C 0.72906 0.30536 0.43342 0.0
C1960 C 0.75052 0.27381 0.40835 0.0
H1961 H 0.71072 0.22934 0.34169 0.0
H1962 H 0.71155 0.2496 0.36571 0.0
H1963 H 0.75711 0.25309 0.39256 0.0
H1964 H 0.77166 0.31768 0.45193 0.0
H1965 H 0.76855 0.29889 0.42716 0.0
H1966 H 0.72177 0.29863 0.40033 0.0
C1967 C 0.72273 0.24658 0.36002 0.0
C1968 C 0.74937 0.26303 0.3941 0.0
C1969 C 0.72227 0.23502 0.34625 0.0
C1970 C 0.75967 0.31424 0.44701 0.0
C1971 C 0.75786 0.30342 0.43281 0.0
C1972 C 0.72941 0.28862 0.39889 0.0
C1973 C 0.73753 0.25361 0.36676 0.0
C1974 C 0.73828 0.26492 0.38203 0.0
C1975 C 0.74253 0.29872 0.42587 0.0
C1976 C 0.74071 0.28688 0.41088 0.0
H1977 H 0.76258 0.23492 0.33974 0.0
H1978 H 0.76336 0.2548 0.36381 0.0
H1979 H 0.71956 0.27951 0.37551 0.0
H1980 H 0.7203 0.32107 0.45325 0.0
H1981 H 0.71706 0.30188 0.42855 0.0
C1982 C 0.52982 0.02578 0.94743 0.0
C1983 C 0.51453 0.03144 0.94636 0.0
C1984 C 0.54069 0.02679 0.935 0.0
C1985 C 0.54033 0.02763 0.89162 0.0
H1986 H 0.58661 0.0348 0.89738 0.0
C1987 C 0.58274 0.02561 0.83781 0.0
C1988 C 0.59679 0.01748 0.83881 0.0
C1989 C 0.57325 0.02912 0.85124 0.0
C1990 C 0.57371 0.03264 0.89558 0.0
H1991 H 0.49859 0.04308 0.93206 0.0
H1992 H 0.51769 0.04519 0.91038 0.0
H1993 H 0.56929 0.03867 0.92061 0.0
H1994 H 0.61202 0.00696 0.85488 0.0
H1995 H 0.59526 0.01273 0.87823 0.0
H1996 H 0.54469 0.02128 0.86669 0.0
C1997 C 0.5213 0.03982 0.92068 0.0
C1998 C 0.56379 0.03491 0.90889 0.0
C1999 C 0.51044 0.03879 0.93312 0.0
C2000 C 0.60118 0.01306 0.85363 0.0
C2001 C 0.59168 0.01657 0.86708 0.0
C2002 C 0.55023 0.02536 0.87834 0.0
C2003 C 0.53638 0.03339 0.92125 0.0
C2004 C 0.54698 0.03229 0.90708 0.0
C2005 C 0.57754 0.02456 0.86603 0.0
C2006 C 0.56705 0.0277 0.88015 0.0
H2007 H 0.53306 0.01983 0.95749 0.0
H2008 H 0.55212 0.02157 0.93578 0.0
H2009 H 0.52746 0.02518 0.8898 0.0
H2010 H 0.57889 0.02904 0.82656 0.0
H2011 H 0.56254 0.03543 0.85003 0.0
C2012 C 0.30094 0.28076 0.34574 0.0
C2013 C 0.30234 0.27409 0.32962 0.0
C2014 C 0.2998 0.27075 0.35772 0.0
C2015 C 0.30679 0.22935 0.36645 0.0
H2016 H 0.27761 0.24027 0.40117 0.0
C2017 C 0.29009 0.18678 0.41378 0.0
C2018 C 0.28959 0.19415 0.4298 0.0
C2019 C 0.29191 0.19624 0.40135 0.0
C2020 C 0.28592 0.23713 0.39164 0.0
H2021 H 0.3038 0.25168 0.31346 0.0
H2022 H 0.30158 0.23412 0.33438 0.0
H2023 H 0.2803 0.25714 0.37987 0.0
H2024 H 0.29107 0.21734 0.44524 0.0
H2025 H 0.294 0.23377 0.42358 0.0
H2026 H 0.31222 0.20918 0.37824 0.0
C2027 C 0.30161 0.24714 0.3378 0.0
C2028 C 0.2875 0.24683 0.37942 0.0
C2029 C 0.30286 0.25718 0.32579 0.0
C2030 C 0.29106 0.21122 0.43305 0.0
C2031 C 0.29278 0.22066 0.42063 0.0
C2032 C 0.30513 0.21957 0.37865 0.0
C2033 C 0.29992 0.25379 0.35391 0.0
C2034 C 0.29805 0.24316 0.36672 0.0
C2035 C 0.29318 0.2133 0.40463 0.0
C2036 C 0.29475 0.22343 0.39145 0.0
H2037 H 0.30081 0.29377 0.34911 0.0
H2038 H 0.2989 0.27637 0.37001 0.0
H2039 H 0.31516 0.22624 0.35697 0.0
H2040 H 0.28876 0.17368 0.41078 0.0
H2041 H 0.292 0.1902 0.38913 0.0
C2042 C 0.53752 0.49477 0.94449 0.0
C2043 C 0.53395 0.47969 0.94993 0.0
C2044 C 0.52941 0.49873 0.93118 0.0
C2045 C 0.49162 0.49024 0.9086 0.0
H2046 H 0.5151 0.50637 0.87383 0.0
C2047 C 0.45918 0.49894 0.85039 0.0
C2048 C 0.46463 0.512 0.84246 0.0
C2049 C 0.46796 0.495 0.86326 0.0
C2050 C 0.50831 0.50214 0.88353 0.0
H2051 H 0.51914 0.45688 0.9453 0.0
H2052 H 0.50464 0.46411 0.92246 0.0
H2053 H 0.52976 0.49978 0.89689 0.0
H2054 H 0.48348 0.53123 0.84174 0.0
H2055 H 0.4986 0.52478 0.86461 0.0
H2056 H 0.47016 0.49301 0.89568 0.0
C2057 C 0.51375 0.47281 0.92856 0.0
C2058 C 0.51674 0.49829 0.8967 0.0
C2059 C 0.52202 0.46872 0.9417 0.0
C2060 C 0.47909 0.52102 0.8476 0.0
C2061 C 0.48777 0.51725 0.86066 0.0
C2062 C 0.48317 0.49432 0.89558 0.0
C2063 C 0.51737 0.48784 0.92316 0.0
C2064 C 0.50848 0.49219 0.9093 0.0
C2065 C 0.4823 0.50419 0.86871 0.0
C2066 C 0.49138 0.5002 0.88277 0.0
H2067 H 0.54637 0.50368 0.95066 0.0
H2068 H 0.53231 0.51048 0.92736 0.0
H2069 H 0.48494 0.48577 0.91828 0.0
H2070 H 0.44818 0.49164 0.84651 0.0
H2071 H 0.46354 0.48462 0.86882 0.0
C2072 C 0.73827 0.76016 0.20663 0.0
C2073 C 0.73879 0.77718 0.20764 0.0
C2074 C 0.73791 0.75038 0.19173 0.0
C2075 C 0.75071 0.75213 0.15059 0.0
H2076 H 0.7258 0.71059 0.14118 0.0
C2077 C 0.76548 0.70323 0.09855 0.0
C2078 C 0.75256 0.69507 0.08915 0.0
C2079 C 0.7627 0.71369 0.11252 0.0
C2080 C 0.73274 0.72222 0.14359 0.0
H2081 H 0.73826 0.79716 0.19374 0.0
H2082 H 0.73781 0.78009 0.16777 0.0
H2083 H 0.72193 0.72805 0.16644 0.0
H2084 H 0.72651 0.69186 0.08704 0.0
H2085 H 0.72172 0.70989 0.11159 0.0
H2086 H 0.76165 0.74626 0.12785 0.0
C2087 C 0.73792 0.77435 0.17852 0.0
C2088 C 0.73061 0.73215 0.15809 0.0
C2089 C 0.73818 0.78412 0.1934 0.0
C2090 C 0.73677 0.6977 0.09409 0.0
C2091 C 0.734 0.70807 0.10815 0.0
C2092 C 0.75294 0.74215 0.13617 0.0
C2093 C 0.73814 0.7574 0.17752 0.0
C2094 C 0.73964 0.74718 0.16178 0.0
C2095 C 0.74694 0.71617 0.11751 0.0
C2096 C 0.74406 0.72704 0.13255 0.0
H2097 H 0.73893 0.75441 0.21733 0.0
H2098 H 0.73822 0.73737 0.19136 0.0
H2099 H 0.75799 0.76356 0.15315 0.0
H2100 H 0.77779 0.7013 0.09532 0.0
H2101 H 0.77292 0.71959 0.11961 0.0
C2102 C 0.03184 0.02817 0.10549 0.0
C2103 C 0.03444 0.04332 0.09999 0.0
C2104 C 0.02421 0.0269 0.12002 0.0
C2105 C 0.99648 0.04778 0.14805 0.0
H2106 H 0.0117 0.02055 0.17774 0.0
C2107 C 0.96823 0.04645 0.21002 0.0
C2108 C 0.9658 0.03127 0.21545 0.0
C2109 C 0.97738 0.04818 0.19646 0.0
C2110 C 0.00719 0.02807 0.16951 0.0
H2111 H 0.03148 0.06909 0.10579 0.0
H2112 H 0.01802 0.06684 0.13102 0.0
H2113 H 0.02619 0.02297 0.15304 0.0
H2114 H 0.97112 0.00601 0.21092 0.0
H2115 H 0.98692 0.00897 0.18715 0.0
H2116 H 0.97735 0.05271 0.16429 0.0
C2117 C 0.02171 0.05591 0.12397 0.0
C2118 C 0.01551 0.02947 0.15537 0.0
C2119 C 0.0294 0.05719 0.10949 0.0
C2120 C 0.97293 0.01791 0.20715 0.0
C2121 C 0.98201 0.01962 0.19353 0.0
C2122 C 0.98812 0.04632 0.16213 0.0
C2123 C 0.01893 0.04074 0.12936 0.0
C2124 C 0.01024 0.03934 0.14448 0.0
C2125 C 0.98425 0.03475 0.18793 0.0
C2126 C 0.99335 0.03645 0.17305 0.0
H2127 H 0.03536 0.0172 0.09838 0.0
H2128 H 0.02208 0.01502 0.12375 0.0
H2129 H 0.99196 0.05528 0.13979 0.0
H2130 H 0.96309 0.05702 0.2163 0.0
H2131 H 0.9791 0.06008 0.19269 0.0
C2132 C 0.29339 0.74231 0.16037 0.0
C2133 C 0.29937 0.75014 0.17522 0.0
C2134 C 0.28567 0.75104 0.14994 0.0
C2135 C 0.26778 0.79037 0.14753 0.0
H2136 H 0.28068 0.78267 0.10325 0.0
C2137 C 0.26157 0.83683 0.10339 0.0
C2138 C 0.25712 0.8309 0.08742 0.0
C2139 C 0.26458 0.82612 0.11424 0.0
C2140 C 0.27674 0.78483 0.11551 0.0
H2141 H 0.30187 0.77287 0.19118 0.0
H2142 H 0.28857 0.78822 0.17301 0.0
H2143 H 0.28932 0.76525 0.122 0.0
H2144 H 0.25168 0.80897 0.07058 0.0
H2145 H 0.25706 0.79034 0.08947 0.0
H2146 H 0.25557 0.81026 0.14105 0.0
C2147 C 0.28947 0.77534 0.1694 0.0
C2148 C 0.28167 0.7748 0.12628 0.0
C2149 C 0.29713 0.76659 0.1798 0.0
C2150 C 0.2554 0.81398 0.08269 0.0
C2151 C 0.25845 0.80329 0.09353 0.0
C2152 C 0.2629 0.80044 0.13675 0.0
C2153 C 0.28393 0.76776 0.15419 0.0
C2154 C 0.27743 0.77756 0.14248 0.0
C2155 C 0.26324 0.80923 0.10939 0.0
C2156 C 0.26749 0.79792 0.12066 0.0
H2157 H 0.29513 0.7296 0.15662 0.0
H2158 H 0.28136 0.74476 0.13843 0.0
H2159 H 0.26407 0.7927 0.15985 0.0
H2160 H 0.26322 0.84977 0.10741 0.0
H2161 H 0.26846 0.83112 0.12631 0.0
C2162 C 0.00264 0.48489 0.07636 0.0
C2163 C 0.01022 0.48 0.06187 0.0
C2164 C 0.01171 0.48902 0.09058 0.0
C2165 C 0.05306 0.50105 0.10633 0.0
H2166 H 0.03895 0.48057 0.14289 0.0
C2167 C 0.09585 0.49725 0.15923 0.0
C2168 C 0.08969 0.49905 0.17477 0.0
C2169 C 0.08559 0.49607 0.14589 0.0
C2170 C 0.04296 0.48661 0.1329 0.0
H2171 H 0.03322 0.47633 0.05073 0.0
H2172 H 0.04902 0.48355 0.07543 0.0
H2173 H 0.02187 0.47738 0.11891 0.0
H2174 H 0.06789 0.5012 0.18849 0.0
H2175 H 0.04997 0.49929 0.16521 0.0
H2176 H 0.07417 0.51023 0.12021 0.0
C2177 C 0.03611 0.48419 0.07588 0.0
C2178 C 0.03315 0.48478 0.11915 0.0
C2179 C 0.02705 0.47993 0.06175 0.0
C2180 C 0.073 0.4996 0.17666 0.0
C2181 C 0.06273 0.4985 0.16331 0.0
C2182 C 0.06282 0.50296 0.12009 0.0
C2183 C 0.02854 0.48853 0.0905 0.0
C2184 C 0.03821 0.49177 0.10562 0.0
C2185 C 0.0689 0.49677 0.14775 0.0
C2186 C 0.05803 0.49554 0.13347 0.0
H2187 H 0.98967 0.48499 0.07679 0.0
H2188 H 0.00556 0.49244 0.10165 0.0
H2189 H 0.05719 0.50679 0.09618 0.0
H2190 H 0.10863 0.49654 0.15735 0.0
H2191 H 0.09076 0.4944 0.1341 0.0
C2192 C 0.33684 0.72224 0.26047 0.0
C2193 C 0.34065 0.72006 0.24416 0.0
C2194 C 0.34889 0.72288 0.27219 0.0
C2195 C 0.3895 0.71055 0.27868 0.0
H2196 H 0.39119 0.74459 0.3151 0.0
C2197 C 0.44433 0.72347 0.32189 0.0
C2198 C 0.44169 0.72849 0.33821 0.0
C2199 C 0.43165 0.72173 0.31073 0.0
C2200 C 0.39077 0.73484 0.30516 0.0
H2201 H 0.36 0.71662 0.22732 0.0
H2202 H 0.38106 0.71774 0.24779 0.0
H2203 H 0.36971 0.74295 0.2951 0.0
H2204 H 0.42348 0.7354 0.35554 0.0
H2205 H 0.4013 0.73179 0.33618 0.0
H2206 H 0.41043 0.7023 0.28876 0.0
C2207 C 0.36876 0.71894 0.25151 0.0
C2208 C 0.37847 0.73394 0.29367 0.0
C2209 C 0.35674 0.71846 0.2398 0.0
C2210 C 0.42596 0.73136 0.34311 0.0
C2211 C 0.41326 0.72952 0.33195 0.0
C2212 C 0.40172 0.71135 0.29024 0.0
C2213 C 0.36497 0.72119 0.26783 0.0
C2214 C 0.37778 0.72186 0.28025 0.0
C2215 C 0.41597 0.72484 0.31558 0.0
C2216 C 0.40259 0.72358 0.30358 0.0
H2217 H 0.32456 0.7236 0.26418 0.0
H2218 H 0.3456 0.72452 0.28467 0.0
H2219 H 0.38914 0.70096 0.26857 0.0
H2220 H 0.45622 0.72091 0.31769 0.0
H2221 H 0.43426 0.71828 0.29822 0.0
C2222 C 0.98593 0.42602 0.00878 0.0
C2223 C 0.99874 0.43735 0.01447 0.0
C2224 C 0.98888 0.41111 0.99998 0.0
C2225 C 0.01873 0.39084 0.97439 0.0
H2226 H 0.99522 0.3513 0.98356 0.0
C2227 C 0.03167 0.32758 0.9417 0.0
C2228 C 0.01841 0.31628 0.9376 0.0
C2229 C 0.02982 0.3422 0.95161 0.0
C2230 C 0.00176 0.36224 0.98069 0.0
H2231 H 0.02468 0.44199 0.01532 0.0
H2232 H 0.02985 0.41587 0.99984 0.0
H2233 H 0.99096 0.3771 0.99981 0.0
H2234 H 0.99275 0.31157 0.94045 0.0
H2235 H 0.98942 0.33714 0.95747 0.0
H2236 H 0.02927 0.37609 0.95505 0.0
C2237 C 0.01753 0.41857 0.00221 0.0
C2238 C 0.99934 0.37701 0.99005 0.0
C2239 C 0.01458 0.43345 0.01117 0.0
C2240 C 0.00324 0.31993 0.9436 0.0
C2241 C 0.00136 0.33458 0.95339 0.0
C2242 C 0.02106 0.37607 0.96493 0.0
C2243 C 0.0047 0.40724 0.99655 0.0
C2244 C 0.00773 0.39148 0.98695 0.0
C2245 C 0.01462 0.34592 0.95755 0.0
C2246 C 0.01253 0.36159 0.96791 0.0
H2247 H 0.97361 0.42863 0.01126 0.0
H2248 H 0.97875 0.40269 0.99565 0.0
H2249 H 0.02523 0.40183 0.9716 0.0
H2250 H 0.04354 0.32502 0.93741 0.0
H2251 H 0.04035 0.35051 0.95476 0.0
C2252 C 0.68763 0.78419 0.27193 0.0
C2253 C 0.70062 0.77459 0.27242 0.0
C2254 C 0.673 0.77976 0.27876 0.0
C2255 C 0.6576 0.757 0.31049 0.0
H2256 H 0.61588 0.76477 0.2939 0.0
C2257 C 0.59891 0.74252 0.34344 0.0
C2258 C 0.58749 0.75416 0.34437 0.0
C2259 C 0.61216 0.74359 0.33347 0.0
C2260 C 0.62746 0.76265 0.29874 0.0
H2261 H 0.70871 0.75269 0.27978 0.0
H2262 H 0.68303 0.74469 0.29151 0.0
H2263 H 0.63979 0.7686 0.27789 0.0
H2264 H 0.58092 0.77588 0.33524 0.0
H2265 H 0.6042 0.77795 0.31815 0.0
H2266 H 0.64538 0.75136 0.33145 0.0
C2267 C 0.68409 0.75572 0.28604 0.0
C2268 C 0.64115 0.76481 0.28955 0.0
C2269 C 0.69871 0.76017 0.2792 0.0
C2270 C 0.58959 0.76682 0.33498 0.0
C2271 C 0.60283 0.76788 0.325 0.0
C2272 C 0.64393 0.75485 0.31967 0.0
C2273 C 0.67119 0.76569 0.28628 0.0
C2274 C 0.65642 0.76216 0.29538 0.0
C2275 C 0.61431 0.75632 0.32417 0.0
C2276 C 0.62871 0.75781 0.31399 0.0
H2277 H 0.689 0.79549 0.26692 0.0
H2278 H 0.66341 0.78781 0.27888 0.0
H2279 H 0.66919 0.75515 0.31549 0.0
H2280 H 0.59775 0.73269 0.3506 0.0
H2281 H 0.62069 0.7344 0.333 0.0
C2282 C 0.05361 0.09742 0.02613 0.0
C2283 C 0.0479 0.08103 0.02316 0.0
C2284 C 0.05492 0.10675 0.01359 0.0
C2285 C 0.03698 0.10804 0.97377 0.0
H2286 H 0.06867 0.14456 0.97349 0.0
C2287 C 0.03651 0.15165 0.92587 0.0
C2288 C 0.03855 0.16834 0.93178 0.0
C2289 C 0.03921 0.13997 0.93581 0.0
C2290 C 0.05971 0.13443 0.97344 0.0
H2291 H 0.03956 0.0612 0.00499 0.0
H2292 H 0.04224 0.07736 0.98286 0.0
H2293 H 0.07156 0.12554 0.99265 0.0
H2294 H 0.0448 0.18571 0.95296 0.0
H2295 H 0.04969 0.1654 0.97013 0.0
H2296 H 0.02506 0.11706 0.95466 0.0
C2297 C 0.04552 0.08314 0.99486 0.0
C2298 C 0.06135 0.12352 0.98443 0.0
C2299 C 0.04416 0.07383 0.00745 0.0
C2300 C 0.04342 0.17301 0.94786 0.0
C2301 C 0.04622 0.16135 0.95774 0.0
C2302 C 0.0354 0.11889 0.96272 0.0
C2303 C 0.05049 0.09985 0.99784 0.0
C2304 C 0.04983 0.11036 0.98495 0.0
C2305 C 0.04411 0.1447 0.95186 0.0
C2306 C 0.04657 0.13238 0.96263 0.0
H2307 H 0.05629 0.10323 0.03825 0.0
H2308 H 0.05857 0.11959 0.01643 0.0
H2309 H 0.02773 0.09822 0.97396 0.0
H2310 H 0.03301 0.14759 0.9135 0.0
H2311 H 0.03761 0.12723 0.93089 0.0
C2312 C 0.33687 0.30552 0.27695 0.0
C2313 C 0.32724 0.29185 0.28028 0.0
C2314 C 0.34955 0.30378 0.26621 0.0
C2315 C 0.37597 0.27273 0.24756 0.0
H2316 H 0.38828 0.30535 0.22041 0.0
C2317 C 0.42481 0.26358 0.19968 0.0
C2318 C 0.43642 0.27666 0.19914 0.0
C2319 C 0.41103 0.26555 0.20888 0.0
C2320 C 0.38503 0.2962 0.228 0.0
H2321 H 0.32285 0.26574 0.27442 0.0
H2322 H 0.34464 0.2627 0.2554 0.0
H2323 H 0.36478 0.30848 0.23733 0.0
H2324 H 0.44245 0.30217 0.20792 0.0
H2325 H 0.41826 0.30564 0.2237 0.0
H2326 H 0.39614 0.2604 0.23809 0.0
C2327 C 0.34277 0.27474 0.26141 0.0
C2328 C 0.37158 0.29799 0.23775 0.0
C2329 C 0.33022 0.27647 0.27225 0.0
C2330 C 0.4337 0.29187 0.20782 0.0
C2331 C 0.41984 0.29386 0.21691 0.0
C2332 C 0.3893 0.27088 0.23773 0.0
C2333 C 0.35281 0.28833 0.25844 0.0
C2334 C 0.36689 0.28631 0.24771 0.0
C2335 C 0.40842 0.28069 0.21767 0.0
C2336 C 0.39403 0.2826 0.22787 0.0
H2337 H 0.33498 0.31751 0.28308 0.0
H2338 H 0.3571 0.31451 0.26441 0.0
H2339 H 0.37299 0.26365 0.25529 0.0
H2340 H 0.42628 0.25178 0.19291 0.0
H2341 H 0.40234 0.25522 0.20902 0.0
C2342 C 0.54047 0.43944 0.03799 0.0
C2343 C 0.54327 0.43458 0.02176 0.0
C2344 C 0.5414 0.42841 0.04899 0.0
C2345 C 0.55522 0.38808 0.0545 0.0
H2346 H 0.51979 0.38729 0.08396 0.0
C2347 C 0.53823 0.33317 0.08775 0.0
C2348 C 0.53289 0.33621 0.10358 0.0
C2349 C 0.54103 0.34587 0.07865 0.0
C2350 C 0.52992 0.38748 0.07601 0.0
H2351 H 0.54957 0.41481 0.00412 0.0
H2352 H 0.5512 0.39545 0.02326 0.0
H2353 H 0.52258 0.40843 0.06677 0.0
H2354 H 0.52641 0.35511 0.12223 0.0
H2355 H 0.53159 0.37728 0.10647 0.0
H2356 H 0.56238 0.36693 0.0636 0.0
C2357 C 0.54853 0.40777 0.02765 0.0
C2358 C 0.53154 0.39963 0.06614 0.0
C2359 C 0.54759 0.41881 0.01668 0.0
C2360 C 0.53064 0.35232 0.11014 0.0
C2361 C 0.53345 0.36503 0.10103 0.0
C2362 C 0.55361 0.37591 0.06439 0.0
C2363 C 0.54505 0.41231 0.04388 0.0
C2364 C 0.54411 0.40002 0.05515 0.0
C2365 C 0.53857 0.36196 0.08513 0.0
C2366 C 0.54084 0.37536 0.07517 0.0
H2367 H 0.53698 0.45156 0.04209 0.0
H2368 H 0.53888 0.43239 0.06142 0.0
H2369 H 0.56516 0.38813 0.04632 0.0
H2370 H 0.54029 0.32095 0.08237 0.0
H2371 H 0.54481 0.34302 0.0664 0.0
C2372 C 0.67208 0.21198 0.28121 0.0
C2373 C 0.68764 0.21953 0.28098 0.0
C2374 C 0.65914 0.21871 0.2747 0.0
C2375 C 0.65073 0.24501 0.24448 0.0
H2376 H 0.6075 0.24147 0.26093 0.0
C2377 C 0.59674 0.2672 0.21257 0.0
C2378 C 0.58271 0.25656 0.21085 0.0
C2379 C 0.60941 0.26456 0.22261 0.0
C2380 C 0.6195 0.24248 0.25615 0.0
H2381 H 0.7021 0.24012 0.27434 0.0
H2382 H 0.67942 0.2522 0.26319 0.0
H2383 H 0.6299 0.234 0.2764 0.0
H2384 H 0.57107 0.23477 0.21844 0.0
H2385 H 0.59306 0.23026 0.23597 0.0
H2386 H 0.64031 0.25324 0.22412 0.0
C2387 C 0.67716 0.24099 0.26821 0.0
C2388 C 0.63234 0.2382 0.26502 0.0
C2389 C 0.69011 0.2342 0.27471 0.0
C2390 C 0.58156 0.24338 0.21965 0.0
C2391 C 0.59419 0.24078 0.22972 0.0
C2392 C 0.6379 0.24933 0.23565 0.0
C2393 C 0.66156 0.23312 0.26779 0.0
C2394 C 0.64809 0.23917 0.25918 0.0
C2395 C 0.60833 0.25125 0.23122 0.0
C2396 C 0.62209 0.24788 0.24125 0.0
H2397 H 0.67002 0.20051 0.28583 0.0
H2398 H 0.64738 0.21219 0.27441 0.0
H2399 H 0.66264 0.24567 0.23947 0.0
H2400 H 0.59794 0.27763 0.20619 0.0
H2401 H 0.62004 0.27298 0.22367 0.0
C2402 C 0.46728 0.08001 0.00865 0.0
C2403 C 0.47919 0.0691 0.0049 0.0
C2404 C 0.47111 0.09523 0.01763 0.0
C2405 C 0.50143 0.11673 0.04676 0.0
H2406 H 0.47994 0.15471 0.03939 0.0
C2407 C 0.51636 0.17977 0.08422 0.0
C2408 C 0.50318 0.18853 0.08951 0.0
C2409 C 0.5142 0.16578 0.07293 0.0
C2410 C 0.48596 0.14418 0.04167 0.0
H2411 H 0.5046 0.06591 0.00728 0.0
H2412 H 0.51137 0.09265 0.02262 0.0
H2413 H 0.4751 0.12947 0.02099 0.0
H2414 H 0.47736 0.18931 0.08701 0.0
H2415 H 0.47363 0.16501 0.06724 0.0
H2416 H 0.51222 0.13142 0.06748 0.0
C2417 C 0.49899 0.0893 0.01885 0.0
C2418 C 0.48319 0.12971 0.03112 0.0
C2419 C 0.49514 0.07404 0.00987 0.0
C2420 C 0.48782 0.18304 0.08305 0.0
C2421 C 0.48568 0.16909 0.07171 0.0
C2422 C 0.50425 0.13122 0.05726 0.0
C2423 C 0.48697 0.09999 0.02306 0.0
C2424 C 0.49075 0.11573 0.03363 0.0
C2425 C 0.49882 0.16023 0.06658 0.0
C2426 C 0.49642 0.14507 0.05494 0.0
H2427 H 0.4549 0.0767 0.00483 0.0
H2428 H 0.4615 0.10305 0.02074 0.0
H2429 H 0.50727 0.10616 0.04923 0.0
H2430 H 0.5284 0.1838 0.0887 0.0
H2431 H 0.52461 0.15938 0.06906 0.0
C2432 C 0.27899 0.34189 0.71846 0.0
C2433 C 0.27841 0.33151 0.73026 0.0
C2434 C 0.28949 0.35595 0.72019 0.0
C2435 C 0.3264 0.37505 0.74157 0.0
H2436 H 0.31037 0.41527 0.73237 0.0
C2437 C 0.36129 0.43727 0.7605 0.0
C2438 C 0.36138 0.44881 0.74984 0.0
C2439 C 0.35145 0.42281 0.75753 0.0
C2440 C 0.31512 0.40411 0.73478 0.0
H2441 H 0.2887 0.32754 0.75291 0.0
H2442 H 0.30691 0.35216 0.75601 0.0
H2443 H 0.29286 0.39019 0.72807 0.0
H2444 H 0.3513 0.45413 0.72759 0.0
H2445 H 0.33415 0.42881 0.72233 0.0
H2446 H 0.34864 0.38894 0.74832 0.0
C2447 C 0.29929 0.34939 0.74538 0.0
C2448 C 0.30507 0.38974 0.73233 0.0
C2449 C 0.28875 0.33538 0.74369 0.0
C2450 C 0.35137 0.44556 0.73613 0.0
C2451 C 0.34153 0.43106 0.73312 0.0
C2452 C 0.33646 0.38941 0.74399 0.0
C2453 C 0.29971 0.3599 0.7337 0.0
C2454 C 0.31057 0.37506 0.73579 0.0
C2455 C 0.34146 0.41951 0.74379 0.0
C2456 C 0.33091 0.40414 0.74073 0.0
H2457 H 0.27109 0.33931 0.70803 0.0
H2458 H 0.28964 0.36372 0.7109 0.0
H2459 H 0.33108 0.3639 0.74412 0.0
H2460 H 0.36865 0.43954 0.77133 0.0
H2461 H 0.35147 0.41434 0.76615 0.0
C2462 C 0.26641 0.68297 0.78918 0.0
C2463 C 0.25831 0.68746 0.80348 0.0
C2464 C 0.27832 0.67201 0.78856 0.0
C2465 C 0.29354 0.64018 0.81016 0.0
H2466 H 0.33011 0.64501 0.78266 0.0
C2467 C 0.33646 0.58931 0.79504 0.0
C2468 C 0.35286 0.59367 0.7929 0.0
C2469 C 0.32536 0.60113 0.79717 0.0
C2470 C 0.32011 0.64356 0.79058 0.0
H2471 H 0.25655 0.68389 0.82841 0.0
H2472 H 0.27776 0.66533 0.8275 0.0
H2473 H 0.31049 0.66523 0.78515 0.0
H2474 H 0.37036 0.61407 0.79149 0.0
H2475 H 0.35117 0.63468 0.79589 0.0
H2476 H 0.30345 0.6188 0.816 0.0
C2477 C 0.27465 0.67001 0.81664 0.0
C2478 C 0.30868 0.65506 0.79181 0.0
C2479 C 0.26263 0.68087 0.81722 0.0
C2480 C 0.35789 0.61022 0.79328 0.0
C2481 C 0.34681 0.62206 0.79556 0.0
C2482 C 0.30505 0.62876 0.80904 0.0
C2483 C 0.28261 0.66536 0.80228 0.0
C2484 C 0.29514 0.65345 0.80149 0.0
C2485 C 0.33036 0.61767 0.79738 0.0
C2486 C 0.31842 0.6302 0.79912 0.0
H2487 H 0.26362 0.68796 0.7784 0.0
H2488 H 0.28399 0.66857 0.77722 0.0
H2489 H 0.28321 0.63841 0.8176 0.0
H2490 H 0.33214 0.57673 0.79508 0.0
H2491 H 0.3128 0.59721 0.79833 0.0
C2492 C 0.95024 0.49986 0.49124 0.0
C2493 C 0.95028 0.51635 0.48926 0.0
C2494 C 0.93593 0.49094 0.49409 0.0
C2495 C 0.89557 0.49471 0.50995 0.0
H2496 H 0.88546 0.45254 0.48466 0.0
C2497 C 0.84529 0.44774 0.5255 0.0
C2498 C 0.8351 0.44021 0.51281 0.0
C2499 C 0.8589 0.4577 0.52259 0.0
C2500 C 0.8881 0.46433 0.49176 0.0
H2501 H 0.93513 0.53634 0.48882 0.0
H2502 H 0.91024 0.52081 0.49428 0.0
H2503 H 0.91023 0.46865 0.47974 0.0
H2504 H 0.83113 0.43777 0.4871 0.0
H2505 H 0.85516 0.45474 0.48204 0.0
H2506 H 0.87351 0.49027 0.52211 0.0
C2507 C 0.92135 0.51485 0.49357 0.0
C2508 C 0.90231 0.47347 0.48903 0.0
C2509 C 0.93563 0.52374 0.4905 0.0
C2510 C 0.83884 0.44304 0.49715 0.0
C2511 C 0.85257 0.45283 0.49423 0.0
C2512 C 0.88146 0.48545 0.51285 0.0
C2513 C 0.92135 0.49833 0.49526 0.0
C2514 C 0.90618 0.48875 0.4981 0.0
C2515 C 0.86276 0.46021 0.50691 0.0
C2516 C 0.87759 0.47018 0.50376 0.0
H2517 H 0.96129 0.49382 0.49075 0.0
H2518 H 0.93631 0.47827 0.49558 0.0
H2519 H 0.89832 0.50641 0.51717 0.0
H2520 H 0.84299 0.44565 0.53769 0.0
H2521 H 0.86666 0.4631 0.53257 0.0
C2522 C 0.7552 0.81473 0.77827 0.0
C2523 C 0.76443 0.81664 0.79241 0.0
C2524 C 0.7489 0.82819 0.77302 0.0
C2525 C 0.75084 0.87348 0.77948 0.0
H2526 H 0.70572 0.86658 0.76711 0.0
C2527 C 0.70947 0.92606 0.78085 0.0
C2528 C 0.69768 0.92518 0.7687 0.0
C2529 C 0.71879 0.913 0.7819 0.0
C2530 C 0.71838 0.8687 0.77028 0.0
H2531 H 0.77483 0.83382 0.81202 0.0
H2532 H 0.76383 0.85741 0.80298 0.0
H2533 H 0.72047 0.84354 0.77166 0.0
H2534 H 0.68681 0.91 0.74785 0.0
H2535 H 0.70304 0.88718 0.74972 0.0
H2536 H 0.7486 0.89875 0.77844 0.0
C2537 C 0.7616 0.84566 0.79572 0.0
C2538 C 0.72687 0.85546 0.77286 0.0
C2539 C 0.76789 0.83219 0.80093 0.0
C2540 C 0.69559 0.91098 0.75752 0.0
C2541 C 0.70491 0.89791 0.75857 0.0
C2542 C 0.74234 0.88674 0.7769 0.0
C2543 C 0.75165 0.84377 0.78194 0.0
C2544 C 0.74315 0.8577 0.77771 0.0
C2545 C 0.71656 0.89872 0.77084 0.0
C2546 C 0.72595 0.88454 0.77248 0.0
H2547 H 0.7523 0.80275 0.77163 0.0
H2548 H 0.74149 0.82634 0.76224 0.0
H2549 H 0.76343 0.87562 0.78299 0.0
H2550 H 0.71125 0.9367 0.7898 0.0
H2551 H 0.72745 0.91394 0.79166 0.0
C2552 C 0.58827 0.49211 0.99944 0.0
C2553 C 0.58379 0.48379 0.98423 0.0
C2554 C 0.60335 0.50075 0.00201 0.0
C2555 C 0.63457 0.52112 0.97946 0.0
H2556 H 0.65943 0.52525 0.01897 0.0
C2557 C 0.69564 0.55906 0.98777 0.0
C2558 C 0.69846 0.5691 0.0025 0.0
C2559 C 0.68253 0.54741 0.9857 0.0
C2560 C 0.65256 0.52431 0.00791 0.0
H2561 H 0.59204 0.47699 0.96012 0.0
H2562 H 0.61838 0.49187 0.96461 0.0
H2563 H 0.63521 0.50659 0.01524 0.0
H2564 H 0.68992 0.57438 0.02674 0.0
H2565 H 0.66687 0.55433 0.02302 0.0
H2566 H 0.6517 0.53898 0.97219 0.0
C2567 C 0.61011 0.4921 0.97446 0.0
C2568 C 0.63869 0.5136 0.00577 0.0
C2569 C 0.59505 0.48351 0.9719 0.0
C2570 C 0.68798 0.56702 0.01517 0.0
C2571 C 0.67488 0.55536 0.0131 0.0
C2572 C 0.6484 0.5318 0.98159 0.0
C2573 C 0.61428 0.5012 0.98942 0.0
C2574 C 0.62948 0.51193 0.99154 0.0
C2575 C 0.67191 0.54549 0.9983 0.0
C2576 C 0.65753 0.53361 0.99587 0.0
H2577 H 0.5798 0.49267 0.00914 0.0
H2578 H 0.60611 0.50771 0.01365 0.0
H2579 H 0.6276 0.5204 0.96847 0.0
H2580 H 0.7034 0.56041 0.97773 0.0
H2581 H 0.68071 0.5399 0.97419 0.0
C2582 C 0.28305 0.68483 0.20836 0.0
C2583 C 0.28712 0.69693 0.22136 0.0
C2584 C 0.2713 0.67224 0.2099 0.0
C2585 C 0.25191 0.65113 0.24148 0.0
H2586 H 0.22421 0.6297 0.20655 0.0
C2587 C 0.20257 0.60059 0.24971 0.0
C2588 C 0.20166 0.5867 0.23811 0.0
C2589 C 0.21235 0.61444 0.24742 0.0
C2590 C 0.23196 0.63552 0.21637 0.0
H2591 H 0.28142 0.70602 0.24579 0.0
H2592 H 0.26053 0.68444 0.24836 0.0
H2593 H 0.2416 0.65381 0.20283 0.0
H2594 H 0.21013 0.5765 0.21493 0.0
H2595 H 0.22725 0.60074 0.21093 0.0
H2596 H 0.24217 0.63291 0.25505 0.0
C2597 C 0.26674 0.68429 0.23713 0.0
C2598 C 0.24194 0.64932 0.21425 0.0
C2599 C 0.2786 0.69674 0.23563 0.0
C2600 C 0.2107 0.58698 0.22414 0.0
C2601 C 0.22036 0.6009 0.22178 0.0
C2602 C 0.24184 0.63745 0.24364 0.0
C2603 C 0.26328 0.67159 0.22446 0.0
C2604 C 0.2521 0.65728 0.22677 0.0
C2605 C 0.22132 0.61476 0.23342 0.0
C2606 C 0.23181 0.62945 0.2311 0.0
H2607 H 0.28957 0.68461 0.19728 0.0
H2608 H 0.26909 0.66263 0.19993 0.0
H2609 H 0.25982 0.65665 0.25129 0.0
H2610 H 0.19583 0.6007 0.26064 0.0
H2611 H 0.21277 0.62497 0.25656 0.0
C2612 C 0.95181 0.526 0.03209 0.0
C2613 C 0.949 0.50999 0.0353 0.0
C2614 C 0.93967 0.53675 0.03449 0.0
C2615 C 0.89579 0.53515 0.03359 0.0
H2616 H 0.90163 0.58119 0.04943 0.0
C2617 C 0.84236 0.575 0.0371 0.0
C2618 C 0.84491 0.59065 0.03269 0.0
C2619 C 0.8553 0.56581 0.03928 0.0
C2620 C 0.89983 0.56838 0.04482 0.0
H2621 H 0.93188 0.49263 0.04406 0.0
H2622 H 0.91067 0.5114 0.04846 0.0
H2623 H 0.9241 0.56418 0.05068 0.0
H2624 H 0.86327 0.609 0.02751 0.0
H2625 H 0.88581 0.59272 0.03072 0.0
H2626 H 0.87179 0.53927 0.02724 0.0
C2627 C 0.92214 0.51571 0.04402 0.0
C2628 C 0.91269 0.55864 0.04561 0.0
C2629 C 0.93429 0.50502 0.04167 0.0
C2630 C 0.86081 0.59692 0.0307 0.0
C2631 C 0.87377 0.58766 0.03277 0.0
C2632 C 0.88301 0.54487 0.0327 0.0
C2633 C 0.92451 0.53153 0.03997 0.0
C2634 C 0.9108 0.54191 0.04 0.0
C2635 C 0.87117 0.57191 0.03694 0.0
C2636 C 0.88483 0.56162 0.03828 0.0
H2637 H 0.96305 0.52994 0.02693 0.0
H2638 H 0.94183 0.5488 0.03115 0.0
H2639 H 0.89402 0.52238 0.02882 0.0
H2640 H 0.83031 0.56964 0.03855 0.0
H2641 H 0.85282 0.55385 0.04274 0.0
C2642 C 0.08929 0.03212 0.05218 0.0
C2643 C 0.07522 0.02594 0.05905 0.0
C2644 C 0.10204 0.02228 0.04855 0.0
C2645 C 0.11858 0.98562 0.06014 0.0
H2646 H 0.14345 0.98583 0.02153 0.0
C2647 C 0.16401 0.93805 0.04216 0.0
C2648 C 0.17879 0.94337 0.03599 0.0
C2649 C 0.15155 0.94837 0.04446 0.0
C2650 C 0.13673 0.98576 0.03245 0.0
H2651 H 0.06311 0.00436 0.06654 0.0
H2652 H 0.08519 0.98728 0.06018 0.0
H2653 H 0.12136 0.00347 0.02619 0.0
H2654 H 0.1919 0.96371 0.02712 0.0
H2655 H 0.17024 0.98183 0.03143 0.0
H2656 H 0.13387 0.968 0.06647 0.0
C2657 C 0.08661 0.9998 0.05798 0.0
C2658 C 0.12407 0.99587 0.03512 0.0
C2659 C 0.07393 0.00959 0.06161 0.0
C2660 C 0.18074 0.95926 0.03207 0.0
C2661 C 0.16826 0.9696 0.03436 0.0
C2662 C 0.13119 0.97556 0.05749 0.0
C2663 C 0.10094 0.00609 0.0517 0.0
C2664 C 0.11475 0.9958 0.04893 0.0
C2665 C 0.15354 0.96431 0.04068 0.0
C2666 C 0.14035 0.97538 0.04356 0.0
H2667 H 0.09066 0.04469 0.05013 0.0
H2668 H 0.11295 0.02751 0.04377 0.0
H2669 H 0.11188 0.98552 0.07108 0.0
H2670 H 0.16213 0.92595 0.04546 0.0
H2671 H 0.14031 0.94382 0.04916 0.0
loop_
_geom_bond_atom_site_label_1
_geom_bond_atom_site_label_2
_geom_bond_distance
_geom_bond_site_symmetry_2
_ccdc_geom_bond_type
H0 C3 0.929 . S
H1 C6 0.929 . S
H2 C8 0.930 . S
C3 H0 0.929 . S
C3 C4 1.398 . S
C3 C5 1.396 . S
C4 C3 1.398 . S
C4 C8 1.407 . S
C5 C3 1.396 . S
C5 C6 1.394 . S
C6 H1 0.929 . S
C6 C5 1.394 . S
C6 C7 1.382 . S
C7 C6 1.382 . S
C7 C8 1.392 . S
C7 N9 1.420 . S
C8 H2 0.930 . S
C8 C4 1.407 . S
C8 C7 1.392 . S
N9 C7 1.420 . S
N9 C10 1.244 . S
C10 N9 1.244 . S
H11 C14 0.929 . S
H12 C17 0.929 . S
H13 C19 0.930 . S
C14 H11 0.929 . S
C14 C15 1.398 . S
C14 C16 1.396 . S
C15 C14 1.398 . S
C15 C19 1.407 . S
C16 C14 1.396 . S
C16 C17 1.394 . S
C17 H12 0.929 . S
C17 C16 1.394 . S
C17 C18 1.382 . S
C18 C17 1.382 . S
C18 C19 1.392 . S
C18 N20 1.420 . S
C19 H13 0.930 . S
C19 C15 1.407 . S
C19 C18 1.392 . S
N20 C18 1.420 . S
N20 C21 1.244 . S
C21 N20 1.244 . S
H22 C25 0.939 . S
H23 C28 0.929 . S
H24 C30 0.930 . S
C25 H22 0.939 . S
C25 C26 1.391 1_455 S
C25 C27 1.393 1_455 S
C26 C25 1.391 1_655 S
C26 C30 1.407 . S
C27 C25 1.393 1_655 S
C27 C28 1.394 . S
C28 H23 0.929 . S
C28 C27 1.394 . S
C28 C29 1.382 . S
C29 C28 1.382 . S
C29 C30 1.392 . S
C29 N31 1.420 . S
C30 H24 0.930 . S
C30 C26 1.407 . S
C30 C29 1.392 . S
N31 C29 1.420 . S
N31 C32 1.244 . S
C32 N31 1.244 . S
H33 C36 0.929 . S
H34 C39 0.929 . S
H35 C41 0.930 . S
C36 H33 0.929 . S
C36 C37 1.398 . S
C36 C38 1.396 . S
C37 C36 1.398 . S
C37 C41 1.407 . S
C38 C36 1.396 . S
C38 C39 1.394 . S
C39 H34 0.929 . S
C39 C38 1.394 . S
C39 C40 1.382 . S
C40 C39 1.382 . S
C40 C41 1.392 . S
C40 N42 1.420 . S
C41 H35 0.930 . S
C41 C37 1.407 . S
C41 C40 1.392 . S
N42 C40 1.420 . S
N42 C43 1.244 . S
C43 N42 1.244 . S
H44 C47 0.929 . S
H45 C50 0.929 . S
H46 C52 0.930 . S
C47 H44 0.929 . S
C47 C48 1.398 . S
C47 C49 1.396 . S
C48 C47 1.398 . S
C48 C52 1.407 . S
C49 C47 1.396 . S
C49 C50 1.394 . S
C50 H45 0.929 . S
C50 C49 1.394 . S
C50 C51 1.382 . S
C51 C50 1.382 . S
C51 C52 1.392 . S
C51 N53 1.420 . S
C52 H46 0.930 . S
C52 C48 1.407 . S
C52 C51 1.392 . S
N53 C51 1.420 . S
N53 C54 1.244 . S
C54 N53 1.244 . S
H55 C58 0.929 . S
H56 C61 0.929 . S
H57 C63 0.930 . S
C58 H55 0.929 . S
C58 C59 1.398 . S
C58 C60 1.396 . S
C59 C58 1.398 . S
C59 C63 1.407 . S
C60 C58 1.396 . S
C60 C61 1.394 . S
C61 H56 0.929 . S
C61 C60 1.394 . S
C61 C62 1.382 . S
C62 C61 1.382 . S
C62 C63 1.392 . S
C62 N64 1.420 . S
C63 H57 0.930 . S
C63 C59 1.407 . S
C63 C62 1.392 . S
N64 C62 1.420 . S
N64 C65 1.244 . S
C65 N64 1.244 . S
H66 C69 0.929 . S
H67 C72 0.929 1_455 S
H68 C74 0.930 . S
C69 H66 0.929 . S
C69 C70 1.398 . S
C69 C71 1.396 . S
C70 C69 1.398 . S
C70 C74 1.407 . S
C71 C69 1.396 . S
C71 C72 1.394 . S
C72 H67 0.929 1_655 S
C72 C71 1.394 . S
C72 C73 1.382 . S
C73 C72 1.382 . S
C73 C74 1.392 . S
C73 N75 1.420 1_655 S
C74 H68 0.930 . S
C74 C70 1.407 . S
C74 C73 1.392 . S
N75 C73 1.420 1_455 S
N75 C76 1.244 . S
C76 N75 1.244 . S
H77 C80 0.929 . S
H78 C83 0.929 . S
H79 C85 0.930 . S
C80 H77 0.929 . S
C80 C81 1.398 . S
C80 C82 1.396 . S
C81 C80 1.398 . S
C81 C85 1.407 . S
C82 C80 1.396 . S
C82 C83 1.394 . S
C83 H78 0.929 . S
C83 C82 1.394 . S
C83 C84 1.382 . S
C84 C83 1.382 . S
C84 C85 1.392 . S
C84 N86 1.420 . S
C85 H79 0.930 . S
C85 C81 1.407 . S
C85 C84 1.392 . S
N86 C84 1.420 . S
N86 C87 1.244 . S
C87 N86 1.244 . S
H88 C91 0.929 . S
H89 C94 0.929 . S
H90 C96 0.930 . S
C91 H88 0.929 . S
C91 C92 1.398 . S
C91 C93 1.396 . S
C92 C91 1.398 . S
C92 C96 1.407 . S
C93 C91 1.396 . S
C93 C94 1.394 . S
C94 H89 0.929 . S
C94 C93 1.394 . S
C94 C95 1.382 . S
C95 C94 1.382 . S
C95 C96 1.392 . S
C95 N97 1.420 . S
C96 H90 0.930 . S
C96 C92 1.407 . S
C96 C95 1.392 . S
N97 C95 1.420 . S
N97 C98 1.244 . S
C98 N97 1.244 . S
H99 C102 0.929 . S
H100 C105 0.929 1_545 S
H101 C107 0.930 . S
C102 H99 0.929 . S
C102 C103 1.398 . S
C102 C104 1.396 . S
C103 C102 1.398 . S
C103 C107 1.407 . S
C104 C102 1.396 . S
C104 C105 1.394 . S
C105 H100 0.929 1_565 S
C105 C104 1.394 . S
C105 C106 1.382 . S
C106 C105 1.382 . S
C106 C107 1.392 . S
C106 N108 1.420 1_565 S
C107 H101 0.930 . S
C107 C103 1.407 . S
C107 C106 1.392 . S
N108 C106 1.420 1_545 S
N108 C109 1.244 . S
C109 N108 1.244 . S
H110 C113 0.929 . S
H111 C116 0.929 . S
H112 C118 0.930 . S
C113 H110 0.929 . S
C113 C114 1.398 . S
C113 C115 1.396 . S
C114 C113 1.398 . S
C114 C118 1.407 . S
C115 C113 1.396 . S
C115 C116 1.394 . S
C116 H111 0.929 . S
C116 C115 1.394 . S
C116 C117 1.382 . S
C117 C116 1.382 . S
C117 C118 1.392 . S
C117 N119 1.420 . S
C118 H112 0.930 . S
C118 C114 1.407 . S
C118 C117 1.392 . S
N119 C117 1.420 . S
N119 C120 1.244 . S
C120 N119 1.244 . S
H121 C124 0.929 . S
H122 C127 0.929 . S
H123 C129 0.930 . S
C124 H121 0.929 . S
C124 C125 1.398 . S
C124 C126 1.396 . S
C125 C124 1.398 . S
C125 C129 1.407 . S
C126 C124 1.396 . S
C126 C127 1.394 . S
C127 H122 0.929 . S
C127 C126 1.394 . S
C127 C128 1.382 . S
C128 C127 1.382 . S
C128 C129 1.392 . S
C128 N130 1.420 . S
C129 H123 0.930 . S
C129 C125 1.407 . S
C129 C128 1.392 . S
N130 C128 1.420 . S
N130 C131 1.244 . S
C131 N130 1.244 . S
H132 C135 0.929 . S
H133 C138 0.929 . S
H134 C140 0.930 . S
C135 H132 0.929 . S
C135 C136 1.398 . S
C135 C137 1.396 . S
C136 C135 1.398 . S
C136 C140 1.407 . S
C137 C135 1.396 . S
C137 C138 1.394 . S
C138 H133 0.929 . S
C138 C137 1.394 . S
C138 C139 1.382 . S
C139 C138 1.382 . S
C139 C140 1.392 . S
C139 N141 1.420 . S
C140 H134 0.930 . S
C140 C136 1.407 . S
C140 C139 1.392 . S
N141 C139 1.420 . S
N141 C142 1.244 . S
C142 N141 1.244 . S
H143 C146 0.929 . S
H144 C149 0.929 . S
H145 C151 0.930 . S
C146 H143 0.929 . S
C146 C147 1.398 . S
C146 C148 1.396 . S
C147 C146 1.398 . S
C147 C151 1.407 . S
C148 C146 1.396 . S
C148 C149 1.394 1_556 S
C149 H144 0.929 . S
C149 C148 1.394 1_554 S
C149 C150 1.382 . S
C150 C149 1.382 . S
C150 C151 1.392 1_554 S
C150 N152 1.420 . S
C151 H145 0.930 . S
C151 C147 1.407 . S
C151 C150 1.392 1_556 S
N152 C150 1.420 . S
N152 C153 1.244 . S
C153 N152 1.244 . S
H154 C157 0.929 . S
H155 C160 0.929 . S
H156 C162 0.930 . S
C157 H154 0.929 . S
C157 C158 1.398 . S
C157 C159 1.396 . S
C158 C157 1.398 . S
C158 C162 1.407 . S
C159 C157 1.396 . S
C159 C160 1.394 . S
C160 H155 0.929 . S
C160 C159 1.394 . S
C160 C161 1.382 . S
C161 C160 1.382 . S
C161 C162 1.392 . S
C161 N163 1.420 . S
C162 H156 0.930 . S
C162 C158 1.407 . S
C162 C161 1.392 . S
N163 C161 1.420 . S
N163 C164 1.244 . S
C164 N163 1.244 . S
H165 C168 0.929 . S
H166 C171 0.929 . S
H167 C173 0.930 . S
C168 H165 0.929 . S
C168 C169 1.398 . S
C168 C170 1.396 . S
C169 C168 1.398 . S
C169 C173 1.407 . S
C170 C168 1.396 . S
C170 C171 1.394 . S
C171 H166 0.929 . S
C171 C170 1.394 . S
C171 C172 1.382 . S
C172 C171 1.382 . S
C172 C173 1.392 . S
C172 N174 1.420 . S
C173 H167 0.930 . S
C173 C169 1.407 . S
C173 C172 1.392 . S
N174 C172 1.420 . S
N174 C175 1.244 . S
C175 N174 1.244 . S
Li176 N193 1.990 . S
Li176 O236 1.956 . S
Li176 O237 1.970 . S
Li176 O238 1.961 . S
Li177 N201 1.990 . S
Li177 O236 1.970 . S
Li177 O237 1.956 . S
Li177 O239 1.961 . S
Li178 N223 1.990 1_554 S
Li178 O236 1.961 . S
Li178 O238 1.956 . S
Li178 O239 1.970 . S
Li179 N229 1.990 . S
Li179 O237 1.961 . S
Li179 O238 1.970 . S
Li179 O239 1.956 . S
C180 C182 1.348 . S
C180 C183 1.356 . S
C180 O236 1.325 . S
N181 C184 1.314 . S
N181 C185 1.279 . S
C182 C180 1.348 . S
C182 C184 1.353 . S
C182 H240 0.929 . S
C183 C180 1.356 . S
C183 C185 1.358 . S
C183 H241 0.930 . S
C184 N181 1.314 . S
C184 C182 1.353 . S
C184 H242 0.930 . S
C185 N181 1.279 . S
C185 C183 1.358 . S
C185 H243 0.970 . S
C186 C189 1.348 . S
C186 C190 1.356 . S
C186 O237 1.325 . S
C187 N188 1.279 . S
C187 C190 1.358 . S
C187 H244 0.930 . S
N188 C187 1.279 . S
N188 C191 1.314 . S
C189 C186 1.348 . S
C189 C191 1.353 . S
C189 H245 0.929 . S
C190 C186 1.356 . S
C190 C187 1.358 . S
C190 H246 0.930 . S
C191 N188 1.314 . S
C191 C189 1.353 . S
C191 H247 0.930 . S
C192 N193 1.314 . S
C192 C197 1.353 . S
C192 H198 0.930 . S
N193 Li176 1.990 . S
N193 C192 1.314 . S
N193 C195 1.279 . S
C194 C195 1.358 . S
C194 C196 1.356 . S
C194 H248 0.930 . S
C195 N193 1.279 . S
C195 C194 1.358 . S
C195 H199 0.930 . S
C196 C194 1.356 . S
C196 C197 1.348 . S
C197 C192 1.353 . S
C197 C196 1.348 . S
C197 H249 0.929 . S
H198 C192 0.930 . S
H199 C195 0.930 . S
C200 N201 1.314 . S
C200 C202 1.353 . S
C200 H206 0.930 . S
N201 Li177 1.990 . S
N201 C200 1.314 . S
N201 C204 1.279 . S
C202 C200 1.353 . S
C202 C205 1.348 . S
C202 H250 0.929 . S
C203 C204 1.358 . S
C203 C205 1.356 . S
C203 H251 0.930 . S
C204 N201 1.279 . S
C204 C203 1.358 . S
C204 H207 0.930 . S
C205 C202 1.348 . S
C205 C203 1.356 . S
H206 C200 0.930 . S
H207 C204 0.930 . S
C208 C210 1.348 . S
C208 C211 1.356 1_554 S
C208 O238 1.325 . S
N209 C212 1.314 . S
N209 C213 1.279 . S
C210 C208 1.348 . S
C210 C212 1.353 1_554 S
C210 H252 0.929 . S
C211 C208 1.356 1_556 S
C211 C213 1.358 . S
C211 H253 0.930 . S
C212 N209 1.314 . S
C212 C210 1.353 1_556 S
C212 H254 0.930 . S
C213 N209 1.279 . S
C213 C211 1.358 . S
C213 H255 0.930 . S
C214 C215 1.348 . S
C214 C216 1.356 . S
C214 O239 1.325 . S
C215 C214 1.348 . S
C215 C217 1.353 . S
C215 H256 0.929 . S
C216 C214 1.356 . S
C216 C218 1.358 . S
C216 H257 0.930 . S
C217 C215 1.353 . S
C217 N219 1.314 . S
C217 H258 0.930 . S
C218 C216 1.358 . S
C218 N219 1.279 . S
C218 H259 0.930 . S
N219 C217 1.314 . S
N219 C218 1.279 . S
C220 C222 1.353 . S
C220 N223 1.314 . S
C220 H226 0.930 1_556 S
C221 N223 1.279 . S
C221 C224 1.358 . S
C221 H227 0.930 . S
C222 C220 1.353 . S
C222 C225 1.348 . S
C222 H260 0.929 . S
N223 Li178 1.990 1_556 S
N223 C220 1.314 . S
N223 C221 1.279 . S
C224 C221 1.358 . S
C224 C225 1.356 . S
C224 H261 0.930 . S
C225 C222 1.348 . S
C225 C224 1.356 . S
H226 C220 0.930 1_554 S
H227 C221 0.930 . S
C228 N229 1.314 . S
C228 C230 1.353 . S
C228 H234 0.930 . S
N229 Li179 1.990 . S
N229 C228 1.314 . S
N229 C232 1.279 . S
C230 C228 1.353 . S
C230 C233 1.348 . S
C230 H262 0.929 . S
C231 C232 1.358 . S
C231 C233 1.356 . S
C231 H263 0.930 . S
C232 N229 1.279 . S
C232 C231 1.358 . S
C232 H235 0.930 . S
C233 C230 1.348 . S
C233 C231 1.356 . S
H234 C228 0.930 . S
H235 C232 0.930 . S
O236 Li176 1.956 . S
O236 Li177 1.970 . S
O236 Li178 1.961 . S
O236 C180 1.325 . S
O237 Li176 1.970 . S
O237 Li177 1.956 . S
O237 Li179 1.961 . S
O237 C186 1.325 . S
O238 Li176 1.961 . S
O238 Li178 1.956 . S
O238 Li179 1.970 . S
O238 C208 1.325 . S
O239 Li177 1.961 . S
O239 Li178 1.970 . S
O239 Li179 1.956 . S
O239 C214 1.325 . S
H240 C182 0.929 . S
H241 C183 0.930 . S
H242 C184 0.930 . S
H243 C185 0.970 . S
H244 C187 0.930 . S
H245 C189 0.929 . S
H246 C190 0.930 . S
H247 C191 0.930 . S
H248 C194 0.930 . S
H249 C197 0.929 . S
H250 C202 0.929 . S
H251 C203 0.930 . S
H252 C210 0.929 . S
H253 C211 0.930 . S
H254 C212 0.930 . S
H255 C213 0.930 . S
H256 C215 0.929 . S
H257 C216 0.930 . S
H258 C217 0.930 . S
H259 C218 0.930 . S
H260 C222 0.929 . S
H261 C224 0.930 . S
H262 C230 0.929 . S
H263 C231 0.930 . S
Li264 N281 1.990 . S
Li264 O324 1.956 . S
Li264 O325 1.970 . S
Li264 O326 1.961 . S
Li265 N289 1.990 . S
Li265 O324 1.970 . S
Li265 O325 1.956 . S
Li265 O327 1.961 . S
Li266 N311 1.990 . S
Li266 O324 1.961 . S
Li266 O326 1.956 . S
Li266 O327 1.970 . S
Li267 N317 1.990 . S
Li267 O325 1.961 . S
Li267 O326 1.970 . S
Li267 O327 1.956 . S
C268 C270 1.348 . S
C268 C271 1.356 . S
C268 O324 1.325 . S
N269 C272 1.314 . S
N269 C273 1.279 . S
C270 C268 1.348 . S
C270 C272 1.353 . S
C270 H328 0.929 . S
C271 C268 1.356 . S
C271 C273 1.358 . S
C271 H329 0.930 . S
C272 N269 1.314 . S
C272 C270 1.353 . S
C272 H330 0.930 . S
C273 N269 1.279 . S
C273 C271 1.358 . S
C273 H331 0.930 . S
C274 C277 1.348 . S
C274 C278 1.356 . S
C274 O325 1.325 . S
C275 N276 1.279 . S
C275 C278 1.358 . S
C275 H332 0.930 . S
N276 C275 1.279 . S
N276 C279 1.314 . S
C277 C274 1.348 . S
C277 C279 1.353 . S
C277 H333 0.929 . S
C278 C274 1.356 . S
C278 C275 1.358 . S
C278 H334 0.930 . S
C279 N276 1.314 . S
C279 C277 1.353 . S
C279 H335 0.930 . S
C280 N281 1.314 . S
C280 C285 1.353 . S
C280 H286 0.930 . S
N281 Li264 1.990 . S
N281 C280 1.314 . S
N281 C283 1.279 . S
C282 C283 1.358 . S
C282 C284 1.356 . S
C282 H336 0.930 . S
C283 N281 1.279 . S
C283 C282 1.358 . S
C283 H287 0.930 . S
C284 C282 1.356 . S
C284 C285 1.348 . S
C285 C280 1.353 . S
C285 C284 1.348 . S
C285 H337 0.929 . S
H286 C280 0.930 . S
H287 C283 0.930 . S
C288 N289 1.314 . S
C288 C290 1.353 . S
C288 H294 0.930 . S
N289 Li265 1.990 . S
N289 C288 1.314 . S
N289 C292 1.279 . S
C290 C288 1.353 . S
C290 C293 1.348 . S
C290 H338 0.929 . S
C291 C292 1.358 . S
C291 C293 1.356 . S
C291 H339 0.930 . S
C292 N289 1.279 . S
C292 C291 1.358 . S
C292 H295 0.930 . S
C293 C290 1.348 . S
C293 C291 1.356 . S
H294 C288 0.930 . S
H295 C292 0.930 . S
C296 C298 1.348 . S
C296 C299 1.356 . S
C296 O326 1.325 . S
N297 C300 1.314 . S
N297 C301 1.279 . S
C298 C296 1.348 . S
C298 C300 1.353 . S
C298 H340 0.929 . S
C299 C296 1.356 . S
C299 C301 1.358 . S
C299 H341 0.930 . S
C300 N297 1.314 . S
C300 C298 1.353 . S
C300 H342 0.930 . S
C301 N297 1.279 . S
C301 C299 1.358 . S
C301 H343 0.930 . S
C302 C303 1.348 . S
C302 C304 1.356 . S
C302 O327 1.325 . S
C303 C302 1.348 . S
C303 C305 1.353 . S
C303 H344 0.929 . S
C304 C302 1.356 . S
C304 C306 1.358 . S
C304 H345 0.930 . S
C305 C303 1.353 . S
C305 N307 1.314 . S
C305 H346 0.930 . S
C306 C304 1.358 . S
C306 N307 1.279 . S
C306 H347 0.930 . S
N307 C305 1.314 . S
N307 C306 1.279 . S
C308 C310 1.353 . S
C308 N311 1.314 . S
C308 H314 0.930 . S
C309 N311 1.279 . S
C309 C312 1.358 . S
C309 H315 0.930 . S
C310 C308 1.353 . S
C310 C313 1.348 . S
C310 H348 0.929 . S
N311 Li266 1.990 . S
N311 C308 1.314 . S
N311 C309 1.279 . S
C312 C309 1.358 . S
C312 C313 1.356 . S
C312 H349 0.930 . S
C313 C310 1.348 . S
C313 C312 1.356 . S
H314 C308 0.930 . S
H315 C309 0.930 . S
C316 N317 1.314 . S
C316 C318 1.353 . S
C316 H322 0.930 . S
N317 Li267 1.990 . S
N317 C316 1.314 . S
N317 C320 1.279 . S
C318 C316 1.353 . S
C318 C321 1.348 . S
C318 H350 0.929 . S
C319 C320 1.358 . S
C319 C321 1.356 . S
C319 H351 0.930 . S
C320 N317 1.279 . S
C320 C319 1.358 . S
C320 H323 0.930 . S
C321 C318 1.348 . S
C321 C319 1.356 . S
H322 C316 0.930 . S
H323 C320 0.930 . S
O324 Li264 1.956 . S
O324 Li265 1.970 . S
O324 Li266 1.961 . S
O324 C268 1.325 . S
O325 Li264 1.970 . S
O325 Li265 1.956 . S
O325 Li267 1.961 . S
O325 C274 1.325 . S
O326 Li264 1.961 . S
O326 Li266 1.956 . S
O326 Li267 1.970 . S
O326 C296 1.325 . S
O327 Li265 1.961 . S
O327 Li266 1.970 . S
O327 Li267 1.956 . S
O327 C302 1.325 . S
H328 C270 0.929 . S
H329 C271 0.930 . S
H330 C272 0.930 . S
H331 C273 0.930 . S
H332 C275 0.930 . S
H333 C277 0.929 . S
H334 C278 0.930 . S
H335 C279 0.930 . S
H336 C282 0.930 . S
H337 C285 0.929 . S
H338 C290 0.929 . S
H339 C291 0.930 . S
H340 C298 0.929 . S
H341 C299 0.930 . S
H342 C300 0.930 . S
H343 C301 0.930 . S
H344 C303 0.929 . S
H345 C304 0.930 . S
H346 C305 0.930 . S
H347 C306 0.930 . S
H348 C310 0.929 . S
H349 C312 0.930 . S
H350 C318 0.929 . S
H351 C319 0.930 . S
Li352 N369 1.993 . S
Li352 O412 1.968 1_556 S
Li352 O413 1.935 1_556 S
Li352 O414 1.991 . S
Li353 N377 1.990 . S
Li353 O412 2.018 . S
Li353 O413 1.956 . S
Li353 O415 1.961 . S
Li354 N399 1.990 . S
Li354 O412 1.921 1_556 S
Li354 O414 1.956 . S
Li354 O415 1.970 1_556 S
Li355 N405 1.990 . S
Li355 O413 1.961 . S
Li355 O414 1.970 1_554 S
Li355 O415 1.956 . S
C356 C358 1.343 1_556 S
C356 C359 1.362 . S
C356 O412 1.318 1_556 S
N357 C360 1.314 1_556 S
N357 C361 1.279 . S
C358 C356 1.343 1_554 S
C358 C360 1.353 . S
C358 H416 0.929 . S
C359 C356 1.362 . S
C359 C361 1.358 . S
C359 H417 0.930 . S
C360 N357 1.314 1_554 S
C360 C358 1.353 . S
C360 H418 0.930 . S
C361 N357 1.279 . S
C361 C359 1.358 . S
C361 H419 0.930 . S
C362 C365 1.348 . S
C362 C366 1.356 . S
C362 O413 1.325 . S
C363 N364 1.279 . S
C363 C366 1.358 . S
C363 H420 0.930 . S
N364 C363 1.279 . S
N364 C367 1.314 . S
C365 C362 1.348 . S
C365 C367 1.353 . S
C365 H421 0.929 . S
C366 C362 1.356 . S
C366 C363 1.358 . S
C366 H422 0.930 . S
C367 N364 1.314 . S
C367 C365 1.353 . S
C367 H423 0.930 . S
C368 N369 1.314 . S
C368 C373 1.353 . S
C368 H374 0.930 . S
N369 Li352 1.993 . S
N369 C368 1.314 . S
N369 C371 1.279 . S
C370 C371 1.358 . S
C370 C372 1.356 . S
C370 H424 0.930 . S
C371 N369 1.279 . S
C371 C370 1.358 . S
C371 H375 0.930 1_556 S
C372 C370 1.356 . S
C372 C373 1.348 . S
C373 C368 1.353 . S
C373 C372 1.348 . S
C373 H425 0.929 . S
H374 C368 0.930 . S
H375 C371 0.930 1_554 S
C376 N377 1.314 . S
C376 C378 1.353 . S
C376 H382 0.930 . S
N377 Li353 1.990 . S
N377 C376 1.314 . S
N377 C380 1.279 . S
C378 C376 1.353 . S
C378 C381 1.348 . S
C378 H426 0.929 . S
C379 C380 1.358 . S
C379 C381 1.356 . S
C379 H427 0.930 . S
C380 N377 1.279 . S
C380 C379 1.358 . S
C380 H383 0.930 . S
C381 C378 1.348 . S
C381 C379 1.356 . S
H382 C376 0.930 . S
H383 C380 0.930 . S
C384 C386 1.348 . S
C384 C387 1.356 . S
C384 O414 1.325 . S
N385 C388 1.314 . S
N385 C389 1.279 . S
C386 C384 1.348 . S
C386 C388 1.353 . S
C386 H428 0.929 . S
C387 C384 1.356 . S
C387 C389 1.358 . S
C387 H429 0.930 . S
C388 N385 1.314 . S
C388 C386 1.353 . S
C388 H430 0.930 . S
C389 N385 1.279 . S
C389 C387 1.358 . S
C389 H431 0.930 . S
C390 C391 1.348 1_554 S
C390 C392 1.356 . S
C390 O415 1.325 . S
C391 C390 1.348 1_556 S
C391 C393 1.353 . S
C391 H432 0.929 . S
C392 C390 1.356 . S
C392 C394 1.358 . S
C392 H433 0.930 . S
C393 C391 1.353 . S
C393 N395 1.314 1_556 S
C393 H434 0.930 . S
C394 C392 1.358 . S
C394 N395 1.279 . S
C394 H435 0.930 . S
N395 C393 1.314 1_554 S
N395 C394 1.279 . S
C396 C398 1.353 . S
C396 N399 1.314 . S
C396 H402 0.930 . S
C397 N399 1.279 . S
C397 C400 1.358 . S
C397 H403 0.930 . S
C398 C396 1.353 . S
C398 C401 1.348 . S
C398 H436 0.929 . S
N399 Li354 1.990 . S
N399 C396 1.314 . S
N399 C397 1.279 . S
C400 C397 1.358 . S
C400 C401 1.356 . S
C400 H437 0.930 . S
C401 C398 1.348 . S
C401 C400 1.356 . S
H402 C396 0.930 . S
H403 C397 0.930 . S
C404 N405 1.314 . S
C404 C406 1.353 . S
C404 H410 0.930 . S
N405 Li355 1.990 . S
N405 C404 1.314 . S
N405 C408 1.279 . S
C406 C404 1.353 . S
C406 C409 1.348 . S
C406 H438 0.929 . S
C407 C408 1.358 . S
C407 C409 1.356 . S
C407 H439 0.930 . S
C408 N405 1.279 . S
C408 C407 1.358 . S
C408 H411 0.955 . S
C409 C406 1.348 . S
C409 C407 1.356 . S
H410 C404 0.930 . S
H411 C408 0.955 . S
O412 Li352 1.968 1_554 S
O412 Li353 2.018 . S
O412 Li354 1.921 1_554 S
O412 C356 1.318 1_554 S
O413 Li352 1.935 1_554 S
O413 Li353 1.956 . S
O413 Li355 1.961 . S
O413 C362 1.325 . S
O414 Li352 1.991 . S
O414 Li354 1.956 . S
O414 Li355 1.970 1_556 S
O414 C384 1.325 . S
O415 Li353 1.961 . S
O415 Li354 1.970 1_554 S
O415 Li355 1.956 . S
O415 C390 1.325 . S
H416 C358 0.929 . S
H417 C359 0.930 . S
H418 C360 0.930 . S
H419 C361 0.930 . S
H420 C363 0.930 . S
H421 C365 0.929 . S
H422 C366 0.930 . S
H423 C367 0.930 . S
H424 C370 0.930 . S
H425 C373 0.929 . S
H426 C378 0.929 . S
H427 C379 0.930 . S
H428 C386 0.929 . S
H429 C387 0.930 . S
H430 C388 0.930 . S
H431 C389 0.930 . S
H432 C391 0.929 . S
H433 C392 0.930 . S
H434 C393 0.930 . S
H435 C394 0.930 . S
H436 C398 0.929 . S
H437 C400 0.930 . S
H438 C406 0.929 . S
H439 C407 0.930 . S
Li440 N457 1.990 . S
Li440 O500 1.956 . S
Li440 O501 1.970 . S
Li440 O502 1.961 . S
Li441 N465 1.990 . S
Li441 O500 1.970 . S
Li441 O501 1.956 . S
Li441 O503 1.961 . S
Li442 N487 1.990 . S
Li442 O500 1.961 . S
Li442 O502 1.956 . S
Li442 O503 1.970 . S
Li443 N493 1.973 1_545 S
Li443 O501 1.972 . S
Li443 O502 1.988 . S
Li443 O503 1.955 . S
C444 C446 1.348 . S
C444 C447 1.356 . S
C444 O500 1.325 . S
N445 C448 1.314 . S
N445 C449 1.279 . S
C446 C444 1.348 . S
C446 C448 1.353 . S
C446 H504 0.929 . S
C447 C444 1.356 . S
C447 C449 1.358 . S
C447 H505 0.930 . S
C448 N445 1.314 . S
C448 C446 1.353 . S
C448 H506 0.930 . S
C449 N445 1.279 . S
C449 C447 1.358 . S
C449 H507 0.930 . S
C450 C453 1.348 . S
C450 C454 1.356 1_545 S
C450 O501 1.325 . S
C451 N452 1.279 1_565 S
C451 C454 1.358 . S
C451 H508 0.930 . S
N452 C451 1.279 1_545 S
N452 C455 1.314 . S
C453 C450 1.348 . S
C453 C455 1.353 . S
C453 H509 0.929 . S
C454 C450 1.356 1_565 S
C454 C451 1.358 . S
C454 H510 0.930 . S
C455 N452 1.314 . S
C455 C453 1.353 . S
C455 H511 0.930 . S
C456 N457 1.314 . S
C456 C461 1.353 . S
C456 H462 0.930 . S
N457 Li440 1.990 . S
N457 C456 1.314 . S
N457 C459 1.279 . S
C458 C459 1.358 . S
C458 C460 1.356 . S
C458 H512 0.930 . S
C459 N457 1.279 . S
C459 C458 1.358 . S
C459 H463 0.930 . S
C460 C458 1.356 . S
C460 C461 1.348 . S
C461 C456 1.353 . S
C461 C460 1.348 . S
C461 H513 0.929 . S
H462 C456 0.930 . S
H463 C459 0.930 . S
C464 N465 1.314 . S
C464 C466 1.353 . S
C464 H470 0.930 . S
N465 Li441 1.990 . S
N465 C464 1.314 . S
N465 C468 1.279 . S
C466 C464 1.353 . S
C466 C469 1.348 . S
C466 H514 0.929 . S
C467 C468 1.358 . S
C467 C469 1.356 . S
C467 H515 0.930 . S
C468 N465 1.279 . S
C468 C467 1.358 . S
C468 H471 0.930 . S
C469 C466 1.348 . S
C469 C467 1.356 . S
H470 C464 0.930 . S
H471 C468 0.930 . S
C472 C474 1.348 . S
C472 C475 1.356 . S
C472 O502 1.325 . S
N473 C476 1.314 . S
N473 C477 1.279 . S
C474 C472 1.348 . S
C474 C476 1.353 . S
C474 H516 0.929 1_545 S
C475 C472 1.356 . S
C475 C477 1.358 . S
C475 H517 0.930 . S
C476 N473 1.314 . S
C476 C474 1.353 . S
C476 H518 0.883 1_545 S
C477 N473 1.279 . S
C477 C475 1.358 . S
C477 H519 0.930 . S
C478 C479 1.348 . S
C478 C480 1.356 . S
C478 O503 1.325 1_565 S
C479 C478 1.348 . S
C479 C481 1.353 . S
C479 H520 0.929 . S
C480 C478 1.356 . S
C480 C482 1.358 . S
C480 H521 0.930 . S
C481 C479 1.353 . S
C481 N483 1.314 . S
C481 H522 0.930 . S
C482 C480 1.358 . S
C482 N483 1.279 . S
C482 H523 0.930 . S
N483 C481 1.314 . S
N483 C482 1.279 . S
C484 C486 1.353 . S
C484 N487 1.314 . S
C484 H490 0.930 . S
C485 N487 1.279 . S
C485 C488 1.358 . S
C485 H491 0.930 . S
C486 C484 1.353 . S
C486 C489 1.348 . S
C486 H524 0.929 . S
N487 Li442 1.990 . S
N487 C484 1.314 . S
N487 C485 1.279 . S
C488 C485 1.358 . S
C488 C489 1.356 . S
C488 H525 0.930 . S
C489 C486 1.348 . S
C489 C488 1.356 . S
H490 C484 0.930 . S
H491 C485 0.930 . S
C492 N493 1.314 . S
C492 C494 1.353 . S
C492 H498 0.930 . S
N493 Li443 1.973 1_565 S
N493 C492 1.314 . S
N493 C496 1.279 . S
C494 C492 1.353 . S
C494 C497 1.348 . S
C494 H526 0.929 . S
C495 C496 1.358 . S
C495 C497 1.356 . S
C495 H527 0.930 . S
C496 N493 1.279 . S
C496 C495 1.358 . S
C496 H499 0.930 . S
C497 C494 1.348 . S
C497 C495 1.356 . S
H498 C492 0.930 . S
H499 C496 0.930 . S
O500 Li440 1.956 . S
O500 Li441 1.970 . S
O500 Li442 1.961 . S
O500 C444 1.325 . S
O501 Li440 1.970 . S
O501 Li441 1.956 . S
O501 Li443 1.972 . S
O501 C450 1.325 . S
O502 Li440 1.961 . S
O502 Li442 1.956 . S
O502 Li443 1.988 . S
O502 C472 1.325 . S
O503 Li441 1.961 . S
O503 Li442 1.970 . S
O503 Li443 1.955 . S
O503 C478 1.325 1_545 S
H504 C446 0.929 . S
H505 C447 0.930 . S
H506 C448 0.930 . S
H507 C449 0.930 . S
H508 C451 0.930 . S
H509 C453 0.929 . S
H510 C454 0.930 . S
H511 C455 0.930 . S
H512 C458 0.930 . S
H513 C461 0.929 . S
H514 C466 0.929 . S
H515 C467 0.930 . S
H516 C474 0.929 1_565 S
H517 C475 0.930 . S
H518 C476 0.883 1_565 S
H519 C477 0.930 . S
H520 C479 0.929 . S
H521 C480 0.930 . S
H522 C481 0.930 . S
H523 C482 0.930 . S
H524 C486 0.929 . S
H525 C488 0.930 . S
H526 C494 0.929 . S
H527 C495 0.930 . S
Li528 N545 1.990 . S
Li528 O588 1.956 . S
Li528 O589 1.970 . S
Li528 O590 1.961 . S
Li529 N553 1.990 . S
Li529 O588 1.970 . S
Li529 O589 1.956 . S
Li529 O591 1.961 . S
Li530 N575 1.990 . S
Li530 O588 1.961 . S
Li530 O590 1.956 . S
Li530 O591 1.970 . S
Li531 N581 1.990 . S
Li531 O589 1.961 . S
Li531 O590 1.970 . S
Li531 O591 1.956 . S
C532 C534 1.348 . S
C532 C535 1.356 . S
C532 O588 1.325 . S
N533 C536 1.314 . S
N533 C537 1.279 . S
C534 C532 1.348 . S
C534 C536 1.353 . S
C534 H592 0.929 . S
C535 C532 1.356 . S
C535 C537 1.358 . S
C535 H593 0.930 . S
C536 N533 1.314 . S
C536 C534 1.353 . S
C536 H594 0.930 . S
C537 N533 1.279 . S
C537 C535 1.358 . S
C537 H595 0.930 . S
C538 C541 1.348 . S
C538 C542 1.356 . S
C538 O589 1.325 . S
C539 N540 1.279 . S
C539 C542 1.358 . S
C539 H596 0.930 . S
N540 C539 1.279 . S
N540 C543 1.314 . S
C541 C538 1.348 . S
C541 C543 1.353 . S
C541 H597 0.929 . S
C542 C538 1.356 . S
C542 C539 1.358 . S
C542 H598 0.930 . S
C543 N540 1.314 . S
C543 C541 1.353 . S
C543 H599 0.930 . S
C544 N545 1.314 . S
C544 C549 1.353 . S
C544 H550 0.930 . S
N545 Li528 1.990 . S
N545 C544 1.314 . S
N545 C547 1.279 . S
C546 C547 1.358 . S
C546 C548 1.356 . S
C546 H600 0.930 . S
C547 N545 1.279 . S
C547 C546 1.358 . S
C547 H551 0.930 . S
C548 C546 1.356 . S
C548 C549 1.348 . S
C549 C544 1.353 . S
C549 C548 1.348 . S
C549 H601 0.929 . S
H550 C544 0.930 . S
H551 C547 0.930 . S
C552 N553 1.314 . S
C552 C554 1.353 . S
C552 H558 0.930 . S
N553 Li529 1.990 . S
N553 C552 1.314 . S
N553 C556 1.279 . S
C554 C552 1.353 . S
C554 C557 1.348 . S
C554 H602 0.929 . S
C555 C556 1.358 . S
C555 C557 1.356 . S
C555 H603 0.930 . S
C556 N553 1.279 . S
C556 C555 1.358 . S
C556 H559 0.930 . S
C557 C554 1.348 . S
C557 C555 1.356 . S
H558 C552 0.930 . S
H559 C556 0.930 . S
C560 C562 1.348 . S
C560 C563 1.356 . S
C560 O590 1.325 . S
N561 C564 1.314 . S
N561 C565 1.279 . S
C562 C560 1.348 . S
C562 C564 1.353 . S
C562 H604 0.929 . S
C563 C560 1.356 . S
C563 C565 1.358 . S
C563 H605 0.930 . S
C564 N561 1.314 . S
C564 C562 1.353 . S
C564 H606 0.930 . S
C565 N561 1.279 . S
C565 C563 1.358 . S
C565 H607 0.930 . S
C566 C567 1.348 . S
C566 C568 1.356 . S
C566 O591 1.325 . S
C567 C566 1.348 . S
C567 C569 1.353 . S
C567 H608 0.929 . S
C568 C566 1.356 . S
C568 C570 1.358 . S
C568 H609 0.930 . S
C569 C567 1.353 . S
C569 N571 1.314 . S
C569 H610 0.930 . S
C570 C568 1.358 . S
C570 N571 1.279 . S
C570 H611 0.930 . S
N571 C569 1.314 . S
N571 C570 1.279 . S
C572 C574 1.353 . S
C572 N575 1.314 . S
C572 H578 0.930 . S
C573 N575 1.279 . S
C573 C576 1.358 . S
C573 H579 0.930 . S
C574 C572 1.353 . S
C574 C577 1.348 . S
C574 H612 0.929 . S
N575 Li530 1.990 . S
N575 C572 1.314 . S
N575 C573 1.279 . S
C576 C573 1.358 . S
C576 C577 1.356 . S
C576 H613 0.930 . S
C577 C574 1.348 . S
C577 C576 1.356 . S
H578 C572 0.930 . S
H579 C573 0.930 . S
C580 N581 1.314 . S
C580 C582 1.353 . S
C580 H586 0.930 . S
N581 Li531 1.990 . S
N581 C580 1.314 . S
N581 C584 1.279 . S
C582 C580 1.353 . S
C582 C585 1.348 . S
C582 H614 0.929 . S
C583 C584 1.358 . S
C583 C585 1.356 . S
C583 H615 0.930 . S
C584 N581 1.279 . S
C584 C583 1.358 . S
C584 H587 0.930 . S
C585 C582 1.348 . S
C585 C583 1.356 . S
H586 C580 0.930 . S
H587 C584 0.930 . S
O588 Li528 1.956 . S
O588 Li529 1.970 . S
O588 Li530 1.961 . S
O588 C532 1.325 . S
O589 Li528 1.970 . S
O589 Li529 1.956 . S
O589 Li531 1.961 . S
O589 C538 1.325 . S
O590 Li528 1.961 . S
O590 Li530 1.956 . S
O590 Li531 1.970 . S
O590 C560 1.325 . S
O591 Li529 1.961 . S
O591 Li530 1.970 . S
O591 Li531 1.956 . S
O591 C566 1.325 . S
H592 C534 0.929 . S
H593 C535 0.930 . S
H594 C536 0.930 . S
H595 C537 0.930 . S
H596 C539 0.930 . S
H597 C541 0.929 . S
H598 C542 0.930 . S
H599 C543 0.930 . S
H600 C546 0.930 . S
H601 C549 0.929 . S
H602 C554 0.929 . S
H603 C555 0.930 . S
H604 C562 0.929 . S
H605 C563 0.930 . S
H606 C564 0.930 . S
H607 C565 0.930 . S
H608 C567 0.929 . S
H609 C568 0.930 . S
H610 C569 0.930 . S
H611 C570 0.930 . S
H612 C574 0.929 . S
H613 C576 0.930 . S
H614 C582 0.929 . S
H615 C583 0.930 . S
Li616 N633 1.990 . S
Li616 O676 1.956 . S
Li616 O677 1.970 . S
Li616 O678 1.961 . S
Li617 N641 1.990 . S
Li617 O676 1.970 . S
Li617 O677 1.956 . S
Li617 O679 1.961 . S
Li618 N663 1.990 . S
Li618 O676 1.961 . S
Li618 O678 1.956 . S
Li618 O679 1.970 . S
Li619 N669 1.990 . S
Li619 O677 1.961 . S
Li619 O678 1.970 . S
Li619 O679 1.956 . S
C620 C622 1.348 . S
C620 C623 1.356 . S
C620 O676 1.325 . S
N621 C624 1.314 . S
N621 C625 1.279 . S
C622 C620 1.348 . S
C622 C624 1.353 . S
C622 H680 0.929 . S
C623 C620 1.356 . S
C623 C625 1.358 . S
C623 H681 0.930 . S
C624 N621 1.314 . S
C624 C622 1.353 . S
C624 H682 0.930 . S
C625 N621 1.279 . S
C625 C623 1.358 . S
C625 H683 0.930 . S
C626 C629 1.348 . S
C626 C630 1.356 . S
C626 O677 1.325 . S
C627 N628 1.279 . S
C627 C630 1.358 . S
C627 H684 0.930 . S
N628 C627 1.279 . S
N628 C631 1.314 . S
C629 C626 1.348 . S
C629 C631 1.353 . S
C629 H685 0.929 . S
C630 C626 1.356 . S
C630 C627 1.358 . S
C630 H686 0.930 . S
C631 N628 1.314 . S
C631 C629 1.353 . S
C631 H687 0.930 . S
C632 N633 1.314 . S
C632 C637 1.353 . S
C632 H638 0.930 . S
N633 Li616 1.990 . S
N633 C632 1.314 . S
N633 C635 1.279 . S
C634 C635 1.358 . S
C634 C636 1.356 . S
C634 H688 0.930 . S
C635 N633 1.279 . S
C635 C634 1.358 . S
C635 H639 0.930 . S
C636 C634 1.356 . S
C636 C637 1.348 . S
C637 C632 1.353 . S
C637 C636 1.348 . S
C637 H689 0.929 . S
H638 C632 0.930 . S
H639 C635 0.930 . S
C640 N641 1.314 . S
C640 C642 1.353 . S
C640 H646 0.930 . S
N641 Li617 1.990 . S
N641 C640 1.314 . S
N641 C644 1.279 . S
C642 C640 1.353 . S
C642 C645 1.348 . S
C642 H690 0.929 . S
C643 C644 1.358 . S
C643 C645 1.356 . S
C643 H691 0.930 . S
C644 N641 1.279 . S
C644 C643 1.358 . S
C644 H647 0.930 . S
C645 C642 1.348 . S
C645 C643 1.356 . S
H646 C640 0.930 . S
H647 C644 0.930 . S
C648 C650 1.348 . S
C648 C651 1.356 . S
C648 O678 1.325 . S
N649 C652 1.314 . S
N649 C653 1.279 . S
C650 C648 1.348 . S
C650 C652 1.353 . S
C650 H692 0.929 . S
C651 C648 1.356 . S
C651 C653 1.358 . S
C651 H693 0.930 . S
C652 N649 1.314 . S
C652 C650 1.353 . S
C652 H694 0.930 . S
C653 N649 1.279 . S
C653 C651 1.358 . S
C653 H695 0.930 . S
C654 C655 1.348 . S
C654 C656 1.356 . S
C654 O679 1.325 . S
C655 C654 1.348 . S
C655 C657 1.353 . S
C655 H696 0.929 . S
C656 C654 1.356 . S
C656 C658 1.358 . S
C656 H697 0.930 . S
C657 C655 1.353 . S
C657 N659 1.314 . S
C657 H698 0.930 . S
C658 C656 1.358 . S
C658 N659 1.279 . S
C658 H699 0.930 . S
N659 C657 1.314 . S
N659 C658 1.279 . S
C660 C662 1.353 . S
C660 N663 1.314 . S
C660 H666 0.930 . S
C661 N663 1.279 . S
C661 C664 1.358 . S
C661 H667 0.930 . S
C662 C660 1.353 . S
C662 C665 1.348 . S
C662 H700 0.929 . S
N663 Li618 1.990 . S
N663 C660 1.314 . S
N663 C661 1.279 . S
C664 C661 1.358 . S
C664 C665 1.356 . S
C664 H701 0.930 . S
C665 C662 1.348 . S
C665 C664 1.356 . S
H666 C660 0.930 . S
H667 C661 0.930 . S
C668 N669 1.314 . S
C668 C670 1.353 . S
C668 H674 0.930 . S
N669 Li619 1.990 . S
N669 C668 1.314 . S
N669 C672 1.279 . S
C670 C668 1.353 . S
C670 C673 1.348 . S
C670 H702 0.929 . S
C671 C672 1.358 . S
C671 C673 1.356 . S
C671 H703 0.930 . S
C672 N669 1.279 . S
C672 C671 1.358 . S
C672 H675 0.930 . S
C673 C670 1.348 . S
C673 C671 1.356 . S
H674 C668 0.930 . S
H675 C672 0.930 . S
O676 Li616 1.956 . S
O676 Li617 1.970 . S
O676 Li618 1.961 . S
O676 C620 1.325 . S
O677 Li616 1.970 . S
O677 Li617 1.956 . S
O677 Li619 1.961 . S
O677 C626 1.325 . S
O678 Li616 1.961 . S
O678 Li618 1.956 . S
O678 Li619 1.970 . S
O678 C648 1.325 . S
O679 Li617 1.961 . S
O679 Li618 1.970 . S
O679 Li619 1.956 . S
O679 C654 1.325 . S
H680 C622 0.929 . S
H681 C623 0.930 . S
H682 C624 0.930 . S
H683 C625 0.930 . S
H684 C627 0.930 . S
H685 C629 0.929 . S
H686 C630 0.930 . S
H687 C631 0.930 . S
H688 C634 0.930 . S
H689 C637 0.929 . S
H690 C642 0.929 . S
H691 C643 0.930 . S
H692 C650 0.929 . S
H693 C651 0.930 . S
H694 C652 0.930 . S
H695 C653 0.930 . S
H696 C655 0.929 . S
H697 C656 0.930 . S
H698 C657 0.930 . S
H699 C658 0.930 . S
H700 C662 0.929 . S
H701 C664 0.930 . S
H702 C670 0.929 . S
H703 C671 0.930 . S
Li704 N721 1.990 . S
Li704 O764 1.956 . S
Li704 O765 1.970 . S
Li704 O766 1.961 . S
Li705 N729 1.990 . S
Li705 O764 1.970 . S
Li705 O765 1.956 . S
Li705 O767 1.961 . S
Li706 N751 1.990 . S
Li706 O764 1.961 . S
Li706 O766 1.956 . S
Li706 O767 1.970 . S
Li707 N757 1.990 . S
Li707 O765 1.961 . S
Li707 O766 1.970 . S
Li707 O767 1.956 . S
C708 C710 1.348 . S
C708 C711 1.356 . S
C708 O764 1.325 . S
N709 C712 1.314 . S
N709 C713 1.279 . S
C710 C708 1.348 . S
C710 C712 1.353 . S
C710 H768 0.929 . S
C711 C708 1.356 . S
C711 C713 1.358 . S
C711 H769 0.930 . S
C712 N709 1.314 . S
C712 C710 1.353 . S
C712 H770 0.930 . S
C713 N709 1.279 . S
C713 C711 1.358 . S
C713 H771 0.930 . S
C714 C717 1.348 . S
C714 C718 1.356 . S
C714 O765 1.325 . S
C715 N716 1.279 . S
C715 C718 1.358 . S
C715 H772 0.930 . S
N716 C715 1.279 . S
N716 C719 1.314 . S
C717 C714 1.348 . S
C717 C719 1.353 . S
C717 H773 0.929 . S
C718 C714 1.356 . S
C718 C715 1.358 . S
C718 H774 0.930 . S
C719 N716 1.314 . S
C719 C717 1.353 . S
C719 H775 0.930 . S
C720 N721 1.314 . S
C720 C725 1.353 . S
C720 H726 0.930 . S
N721 Li704 1.990 . S
N721 C720 1.314 . S
N721 C723 1.279 . S
C722 C723 1.358 . S
C722 C724 1.356 . S
C722 H776 0.930 . S
C723 N721 1.279 . S
C723 C722 1.358 . S
C723 H727 0.930 . S
C724 C722 1.356 . S
C724 C725 1.348 . S
C725 C720 1.353 . S
C725 C724 1.348 . S
C725 H777 0.929 . S
H726 C720 0.930 . S
H727 C723 0.930 . S
C728 N729 1.314 . S
C728 C730 1.353 . S
C728 H734 0.930 . S
N729 Li705 1.990 . S
N729 C728 1.314 . S
N729 C732 1.279 . S
C730 C728 1.353 . S
C730 C733 1.348 . S
C730 H778 0.929 . S
C731 C732 1.358 . S
C731 C733 1.356 . S
C731 H779 0.930 . S
C732 N729 1.279 . S
C732 C731 1.358 . S
C732 H735 0.930 . S
C733 C730 1.348 . S
C733 C731 1.356 . S
H734 C728 0.930 . S
H735 C732 0.930 . S
C736 C738 1.348 . S
C736 C739 1.356 . S
C736 O766 1.325 . S
N737 C740 1.314 . S
N737 C741 1.279 . S
C738 C736 1.348 . S
C738 C740 1.353 . S
C738 H780 0.929 . S
C739 C736 1.356 . S
C739 C741 1.358 . S
C739 H781 0.930 . S
C740 N737 1.314 . S
C740 C738 1.353 . S
C740 H782 0.930 . S
C741 N737 1.279 . S
C741 C739 1.358 . S
C741 H783 0.930 . S
C742 C743 1.348 . S
C742 C744 1.356 . S
C742 O767 1.325 . S
C743 C742 1.348 . S
C743 C745 1.353 . S
C743 H784 0.929 . S
C744 C742 1.356 . S
C744 C746 1.358 . S
C744 H785 0.930 . S
C745 C743 1.353 . S
C745 N747 1.314 . S
C745 H786 0.930 . S
C746 C744 1.358 . S
C746 N747 1.279 . S
C746 H787 0.930 . S
N747 C745 1.314 . S
N747 C746 1.279 . S
C748 C750 1.353 . S
C748 N751 1.314 . S
C748 H754 0.930 . S
C749 N751 1.279 . S
C749 C752 1.358 . S
C749 H755 0.930 . S
C750 C748 1.353 . S
C750 C753 1.348 . S
C750 H788 0.929 . S
N751 Li706 1.990 . S
N751 C748 1.314 . S
N751 C749 1.279 . S
C752 C749 1.358 . S
C752 C753 1.356 . S
C752 H789 0.930 . S
C753 C750 1.348 . S
C753 C752 1.356 . S
H754 C748 0.930 . S
H755 C749 0.930 . S
C756 N757 1.314 . S
C756 C758 1.353 . S
C756 H762 0.930 . S
N757 Li707 1.990 . S
N757 C756 1.314 . S
N757 C760 1.279 . S
C758 C756 1.353 . S
C758 C761 1.348 . S
C758 H790 0.929 . S
C759 C760 1.358 . S
C759 C761 1.356 . S
C759 H791 0.930 . S
C760 N757 1.279 . S
C760 C759 1.358 . S
C760 H763 0.930 . S
C761 C758 1.348 . S
C761 C759 1.356 . S
H762 C756 0.930 . S
H763 C760 0.930 . S
O764 Li704 1.956 . S
O764 Li705 1.970 . S
O764 Li706 1.961 . S
O764 C708 1.325 . S
O765 Li704 1.970 . S
O765 Li705 1.956 . S
O765 Li707 1.961 . S
O765 C714 1.325 . S
O766 Li704 1.961 . S
O766 Li706 1.956 . S
O766 Li707 1.970 . S
O766 C736 1.325 . S
O767 Li705 1.961 . S
O767 Li706 1.970 . S
O767 Li707 1.956 . S
O767 C742 1.325 . S
H768 C710 0.929 . S
H769 C711 0.930 . S
H770 C712 0.930 . S
H771 C713 0.930 . S
H772 C715 0.930 . S
H773 C717 0.929 . S
H774 C718 0.930 . S
H775 C719 0.930 . S
H776 C722 0.930 . S
H777 C725 0.929 . S
H778 C730 0.929 . S
H779 C731 0.930 . S
H780 C738 0.929 . S
H781 C739 0.930 . S
H782 C740 0.930 . S
H783 C741 0.930 . S
H784 C743 0.929 . S
H785 C744 0.930 . S
H786 C745 0.930 . S
H787 C746 0.930 . S
H788 C750 0.929 . S
H789 C752 0.930 . S
H790 C758 0.929 . S
H791 C759 0.930 . S
Li792 N809 1.990 . S
Li792 O852 1.956 . S
Li792 O853 1.970 1_565 S
Li792 O854 1.961 . S
Li793 N817 1.990 . S
Li793 O852 1.970 1_545 S
Li793 O853 1.956 . S
Li793 O855 1.961 . S
Li794 N839 1.990 . S
Li794 O852 1.961 . S
Li794 O854 1.956 . S
Li794 O855 1.970 1_565 S
Li795 N845 1.990 . S
Li795 O853 1.961 . S
Li795 O854 1.970 1_545 S
Li795 O855 1.956 . S
C796 C798 1.348 . S
C796 C799 1.356 . S
C796 O852 1.325 . S
N797 C800 1.314 . S
N797 C801 1.279 . S
C798 C796 1.348 . S
C798 C800 1.353 . S
C798 H856 0.929 . S
C799 C796 1.356 . S
C799 C801 1.358 . S
C799 H857 0.930 . S
C800 N797 1.314 . S
C800 C798 1.353 . S
C800 H858 0.930 . S
C801 N797 1.279 . S
C801 C799 1.358 . S
C801 H859 0.930 . S
C802 C805 1.348 1_545 S
C802 C806 1.356 . S
C802 O853 1.325 . S
C803 N804 1.279 . S
C803 C806 1.358 . S
C803 H860 0.930 . S
N804 C803 1.279 . S
N804 C807 1.314 1_545 S
C805 C802 1.348 1_565 S
C805 C807 1.353 . S
C805 H861 0.929 . S
C806 C802 1.356 . S
C806 C803 1.358 . S
C806 H862 0.930 . S
C807 N804 1.314 1_565 S
C807 C805 1.353 . S
C807 H863 0.930 . S
C808 N809 1.314 . S
C808 C813 1.353 . S
C808 H814 0.930 . S
N809 Li792 1.990 . S
N809 C808 1.314 . S
N809 C811 1.279 . S
C810 C811 1.358 . S
C810 C812 1.356 . S
C810 H864 0.930 . S
C811 N809 1.279 . S
C811 C810 1.358 . S
C811 H815 0.930 . S
C812 C810 1.356 . S
C812 C813 1.348 . S
C813 C808 1.353 . S
C813 C812 1.348 . S
C813 H865 0.929 . S
H814 C808 0.930 . S
H815 C811 0.930 . S
C816 N817 1.314 . S
C816 C818 1.353 . S
C816 H822 0.930 . S
N817 Li793 1.990 . S
N817 C816 1.314 . S
N817 C820 1.279 . S
C818 C816 1.353 . S
C818 C821 1.348 . S
C818 H866 0.929 . S
C819 C820 1.358 . S
C819 C821 1.356 . S
C819 H867 0.930 . S
C820 N817 1.279 . S
C820 C819 1.358 . S
C820 H823 0.930 . S
C821 C818 1.348 . S
C821 C819 1.356 . S
H822 C816 0.930 . S
H823 C820 0.930 . S
C824 C826 1.348 1_565 S
C824 C827 1.356 . S
C824 O854 1.325 . S
N825 C828 1.314 1_565 S
N825 C829 1.279 . S
C826 C824 1.348 1_545 S
C826 C828 1.353 . S
C826 H868 0.929 . S
C827 C824 1.356 . S
C827 C829 1.358 . S
C827 H869 0.930 . S
C828 N825 1.314 1_545 S
C828 C826 1.353 . S
C828 H870 0.930 . S
C829 N825 1.279 . S
C829 C827 1.358 . S
C829 H871 0.930 . S
C830 C831 1.348 . S
C830 C832 1.356 . S
C830 O855 1.325 . S
C831 C830 1.348 . S
C831 C833 1.353 . S
C831 H872 0.929 . S
C832 C830 1.356 . S
C832 C834 1.358 . S
C832 H873 0.930 . S
C833 C831 1.353 . S
C833 N835 1.314 . S
C833 H874 0.930 . S
C834 C832 1.358 . S
C834 N835 1.279 . S
C834 H875 0.930 . S
N835 C833 1.314 . S
N835 C834 1.279 . S
C836 C838 1.353 . S
C836 N839 1.314 . S
C836 H842 0.930 . S
C837 N839 1.279 . S
C837 C840 1.358 . S
C837 H843 0.930 . S
C838 C836 1.353 . S
C838 C841 1.348 . S
C838 H876 0.929 . S
N839 Li794 1.990 . S
N839 C836 1.314 . S
N839 C837 1.279 . S
C840 C837 1.358 . S
C840 C841 1.356 . S
C840 H877 0.930 . S
C841 C838 1.348 . S
C841 C840 1.356 . S
H842 C836 0.930 . S
H843 C837 0.930 . S
C844 N845 1.314 . S
C844 C846 1.353 . S
C844 H850 0.930 . S
N845 Li795 1.990 . S
N845 C844 1.314 . S
N845 C848 1.279 . S
C846 C844 1.353 . S
C846 C849 1.348 . S
C846 H878 0.929 . S
C847 C848 1.358 . S
C847 C849 1.356 . S
C847 H879 0.930 . S
C848 N845 1.279 . S
C848 C847 1.358 . S
C848 H851 0.930 . S
C849 C846 1.348 . S
C849 C847 1.356 . S
H850 C844 0.930 . S
H851 C848 0.930 . S
O852 Li792 1.956 . S
O852 Li793 1.970 1_565 S
O852 Li794 1.961 . S
O852 C796 1.325 . S
O853 Li792 1.970 1_545 S
O853 Li793 1.956 . S
O853 Li795 1.961 . S
O853 C802 1.325 . S
O854 Li792 1.961 . S
O854 Li794 1.956 . S
O854 Li795 1.970 1_565 S
O854 C824 1.325 . S
O855 Li793 1.961 . S
O855 Li794 1.970 1_545 S
O855 Li795 1.956 . S
O855 C830 1.325 . S
H856 C798 0.929 . S
H857 C799 0.930 . S
H858 C800 0.930 . S
H859 C801 0.930 . S
H860 C803 0.930 . S
H861 C805 0.929 . S
H862 C806 0.930 . S
H863 C807 0.930 . S
H864 C810 0.930 . S
H865 C813 0.929 . S
H866 C818 0.929 . S
H867 C819 0.930 . S
H868 C826 0.929 . S
H869 C827 0.930 . S
H870 C828 0.930 . S
H871 C829 0.930 . S
H872 C831 0.929 . S
H873 C832 0.930 . S
H874 C833 0.930 . S
H875 C834 0.930 . S
H876 C838 0.929 . S
H877 C840 0.930 . S
H878 C846 0.929 . S
H879 C847 0.930 . S
Li880 N897 1.990 . S
Li880 O940 1.956 . S
Li880 O941 1.970 . S
Li880 O942 1.961 . S
Li881 N905 1.990 . S
Li881 O940 1.970 . S
Li881 O941 1.956 . S
Li881 O943 1.961 1_455 S
Li882 N927 1.990 . S
Li882 O940 1.961 . S
Li882 O942 1.956 . S
Li882 O943 1.970 1_455 S
Li883 N933 1.990 . S
Li883 O941 1.961 1_655 S
Li883 O942 1.970 1_655 S
Li883 O943 1.956 . S
C884 C886 1.348 . S
C884 C887 1.356 . S
C884 O940 1.325 . S
N885 C888 1.314 . S
N885 C889 1.279 . S
C886 C884 1.348 . S
C886 C888 1.353 . S
C886 H944 0.929 . S
C887 C884 1.356 . S
C887 C889 1.358 . S
C887 H945 0.930 . S
C888 N885 1.314 . S
C888 C886 1.353 . S
C888 H946 0.930 . S
C889 N885 1.279 . S
C889 C887 1.358 . S
C889 H947 0.930 . S
C890 C893 1.348 . S
C890 C894 1.356 1_455 S
C890 O941 1.325 . S
C891 N892 1.279 1_655 S
C891 C894 1.358 . S
C891 H948 0.930 . S
N892 C891 1.279 1_455 S
N892 C895 1.314 . S
C893 C890 1.348 . S
C893 C895 1.353 . S
C893 H949 0.929 . S
C894 C890 1.356 1_655 S
C894 C891 1.358 . S
C894 H950 0.930 . S
C895 N892 1.314 . S
C895 C893 1.353 . S
C895 H951 0.930 . S
C896 N897 1.314 . S
C896 C901 1.353 . S
C896 H902 0.930 . S
N897 Li880 1.990 . S
N897 C896 1.314 . S
N897 C899 1.279 . S
C898 C899 1.358 . S
C898 C900 1.356 . S
C898 H952 0.930 . S
C899 N897 1.279 . S
C899 C898 1.358 . S
C899 H903 0.930 . S
C900 C898 1.356 . S
C900 C901 1.348 . S
C901 C896 1.353 . S
C901 C900 1.348 . S
C901 H953 0.929 . S
H902 C896 0.930 . S
H903 C899 0.930 . S
C904 N905 1.314 . S
C904 C906 1.353 . S
C904 H910 0.930 . S
N905 Li881 1.990 . S
N905 C904 1.314 . S
N905 C908 1.279 . S
C906 C904 1.353 . S
C906 C909 1.348 . S
C906 H954 0.937 . S
C907 C908 1.358 . S
C907 C909 1.356 . S
C907 H955 0.930 . S
C908 N905 1.279 . S
C908 C907 1.358 . S
C908 H911 0.930 . S
C909 C906 1.348 . S
C909 C907 1.356 . S
H910 C904 0.930 . S
H911 C908 0.930 . S
C912 C914 1.348 . S
C912 C915 1.356 . S
C912 O942 1.325 . S
N913 C916 1.314 . S
N913 C917 1.279 . S
C914 C912 1.348 . S
C914 C916 1.353 . S
C914 H956 0.929 1_455 S
C915 C912 1.356 . S
C915 C917 1.358 . S
C915 H957 0.930 . S
C916 N913 1.314 . S
C916 C914 1.353 . S
C916 H958 0.930 1_455 S
C917 N913 1.279 . S
C917 C915 1.358 . S
C917 H959 0.930 . S
C918 C919 1.348 . S
C918 C920 1.356 . S
C918 O943 1.325 . S
C919 C918 1.348 . S
C919 C921 1.353 . S
C919 H960 0.929 . S
C920 C918 1.356 . S
C920 C922 1.358 . S
C920 H961 0.930 . S
C921 C919 1.353 . S
C921 N923 1.314 . S
C921 H962 0.930 . S
C922 C920 1.358 . S
C922 N923 1.279 . S
C922 H963 0.930 . S
N923 C921 1.314 . S
N923 C922 1.279 . S
C924 C926 1.353 . S
C924 N927 1.314 . S
C924 H930 0.930 . S
C925 N927 1.279 . S
C925 C928 1.358 . S
C925 H931 0.930 . S
C926 C924 1.353 . S
C926 C929 1.348 . S
C926 H964 0.929 . S
N927 Li882 1.990 . S
N927 C924 1.314 . S
N927 C925 1.279 . S
C928 C925 1.358 . S
C928 C929 1.356 . S
C928 H965 0.930 . S
C929 C926 1.348 . S
C929 C928 1.356 . S
H930 C924 0.930 . S
H931 C925 0.930 . S
C932 N933 1.314 . S
C932 C934 1.353 . S
C932 H938 0.930 . S
N933 Li883 1.990 . S
N933 C932 1.314 . S
N933 C936 1.279 . S
C934 C932 1.353 . S
C934 C937 1.348 . S
C934 H966 0.929 . S
C935 C936 1.358 . S
C935 C937 1.356 . S
C935 H967 0.930 . S
C936 N933 1.279 . S
C936 C935 1.358 . S
C936 H939 0.930 . S
C937 C934 1.348 . S
C937 C935 1.356 . S
H938 C932 0.930 . S
H939 C936 0.930 . S
O940 Li880 1.956 . S
O940 Li881 1.970 . S
O940 Li882 1.961 . S
O940 C884 1.325 . S
O941 Li880 1.970 . S
O941 Li881 1.956 . S
O941 Li883 1.961 1_455 S
O941 C890 1.325 . S
O942 Li880 1.961 . S
O942 Li882 1.956 . S
O942 Li883 1.970 1_455 S
O942 C912 1.325 . S
O943 Li881 1.961 1_655 S
O943 Li882 1.970 1_655 S
O943 Li883 1.956 . S
O943 C918 1.325 . S
H944 C886 0.929 . S
H945 C887 0.930 . S
H946 C888 0.930 . S
H947 C889 0.930 . S
H948 C891 0.930 . S
H949 C893 0.929 . S
H950 C894 0.930 . S
H951 C895 0.930 . S
H952 C898 0.930 . S
H953 C901 0.929 . S
H954 C906 0.937 . S
H955 C907 0.930 . S
H956 C914 0.929 1_655 S
H957 C915 0.930 . S
H958 C916 0.930 1_655 S
H959 C917 0.930 . S
H960 C919 0.929 . S
H961 C920 0.930 . S
H962 C921 0.930 . S
H963 C922 0.930 . S
H964 C926 0.929 . S
H965 C928 0.930 . S
H966 C934 0.929 . S
H967 C935 0.930 . S
Li968 N985 1.990 . S
Li968 O1028 1.956 . S
Li968 O1029 1.970 . S
Li968 O1030 1.961 . S
Li969 N993 1.990 . S
Li969 O1028 1.970 . S
Li969 O1029 1.956 . S
Li969 O1031 1.961 . S
Li970 N1015 1.990 . S
Li970 O1028 1.961 . S
Li970 O1030 1.956 . S
Li970 O1031 1.970 . S
Li971 N1021 1.990 . S
Li971 O1029 1.961 . S
Li971 O1030 1.970 . S
Li971 O1031 1.956 . S
C972 C974 1.348 . S
C972 C975 1.356 . S
C972 O1028 1.325 . S
N973 C976 1.314 . S
N973 C977 1.279 . S
C974 C972 1.348 . S
C974 C976 1.353 . S
C974 H1032 0.929 . S
C975 C972 1.356 . S
C975 C977 1.358 . S
C975 H1033 0.930 . S
C976 N973 1.314 . S
C976 C974 1.353 . S
C976 H1034 0.930 . S
C977 N973 1.279 . S
C977 C975 1.358 . S
C977 H1035 0.930 . S
C978 C981 1.348 . S
C978 C982 1.356 . S
C978 O1029 1.325 . S
C979 N980 1.279 . S
C979 C982 1.358 . S
C979 H1036 0.930 . S
N980 C979 1.279 . S
N980 C983 1.314 . S
C981 C978 1.348 . S
C981 C983 1.353 . S
C981 H1037 0.929 . S
C982 C978 1.356 . S
C982 C979 1.358 . S
C982 H1038 0.930 . S
C983 N980 1.314 . S
C983 C981 1.353 . S
C983 H1039 0.930 . S
C984 N985 1.314 . S
C984 C989 1.353 . S
C984 H990 0.930 . S
N985 Li968 1.990 . S
N985 C984 1.314 . S
N985 C987 1.279 . S
C986 C987 1.358 . S
C986 C988 1.356 . S
C986 H1040 0.930 . S
C987 N985 1.279 . S
C987 C986 1.358 . S
C987 H991 0.930 . S
C988 C986 1.356 . S
C988 C989 1.348 . S
C989 C984 1.353 . S
C989 C988 1.348 . S
C989 H1041 0.929 . S
H990 C984 0.930 . S
H991 C987 0.930 . S
C992 N993 1.314 . S
C992 C994 1.353 . S
C992 H998 0.930 . S
N993 Li969 1.990 . S
N993 C992 1.314 . S
N993 C996 1.279 . S
C994 C992 1.353 . S
C994 C997 1.348 . S
C994 H1042 0.929 . S
C995 C996 1.358 . S
C995 C997 1.356 . S
C995 H1043 0.930 . S
C996 N993 1.279 . S
C996 C995 1.358 . S
C996 H999 0.930 . S
C997 C994 1.348 . S
C997 C995 1.356 . S
H998 C992 0.930 . S
H999 C996 0.930 . S
C1000 C1002 1.348 . S
C1000 C1003 1.356 . S
C1000 O1030 1.325 . S
N1001 C1004 1.314 . S
N1001 C1005 1.279 . S
C1002 C1000 1.348 . S
C1002 C1004 1.353 . S
C1002 H1044 0.929 . S
C1003 C1000 1.356 . S
C1003 C1005 1.358 . S
C1003 H1045 0.930 . S
C1004 N1001 1.314 . S
C1004 C1002 1.353 . S
C1004 H1046 0.930 . S
C1005 N1001 1.279 . S
C1005 C1003 1.358 . S
C1005 H1047 0.930 . S
C1006 C1007 1.348 . S
C1006 C1008 1.356 . S
C1006 O1031 1.325 . S
C1007 C1006 1.348 . S
C1007 C1009 1.353 . S
C1007 H1048 0.929 . S
C1008 C1006 1.356 . S
C1008 C1010 1.358 . S
C1008 H1049 0.930 . S
C1009 C1007 1.353 . S
C1009 N1011 1.314 . S
C1009 H1050 0.930 . S
C1010 C1008 1.358 . S
C1010 N1011 1.279 . S
C1010 H1051 0.930 . S
N1011 C1009 1.314 . S
N1011 C1010 1.279 . S
C1012 C1014 1.353 . S
C1012 N1015 1.314 . S
C1012 H1018 0.930 . S
C1013 N1015 1.279 . S
C1013 C1016 1.358 . S
C1013 H1019 0.930 . S
C1014 C1012 1.353 . S
C1014 C1017 1.348 . S
C1014 H1052 0.929 . S
N1015 Li970 1.990 . S
N1015 C1012 1.314 . S
N1015 C1013 1.279 . S
C1016 C1013 1.358 . S
C1016 C1017 1.356 . S
C1016 H1053 0.930 . S
C1017 C1014 1.348 . S
C1017 C1016 1.356 . S
H1018 C1012 0.930 . S
H1019 C1013 0.930 . S
C1020 N1021 1.314 . S
C1020 C1022 1.353 . S
C1020 H1026 0.930 . S
N1021 Li971 1.990 . S
N1021 C1020 1.314 . S
N1021 C1024 1.279 . S
C1022 C1020 1.353 . S
C1022 C1025 1.348 . S
C1022 H1054 0.929 . S
C1023 C1024 1.358 . S
C1023 C1025 1.356 . S
C1023 H1055 0.930 . S
C1024 N1021 1.279 . S
C1024 C1023 1.358 . S
C1024 H1027 0.930 . S
C1025 C1022 1.348 . S
C1025 C1023 1.356 . S
H1026 C1020 0.930 . S
H1027 C1024 0.930 . S
O1028 Li968 1.956 . S
O1028 Li969 1.970 . S
O1028 Li970 1.961 . S
O1028 C972 1.325 . S
O1029 Li968 1.970 . S
O1029 Li969 1.956 . S
O1029 Li971 1.961 . S
O1029 C978 1.325 . S
O1030 Li968 1.961 . S
O1030 Li970 1.956 . S
O1030 Li971 1.970 . S
O1030 C1000 1.325 . S
O1031 Li969 1.961 . S
O1031 Li970 1.970 . S
O1031 Li971 1.956 . S
O1031 C1006 1.325 . S
H1032 C974 0.929 . S
H1033 C975 0.930 . S
H1034 C976 0.930 . S
H1035 C977 0.930 . S
H1036 C979 0.930 . S
H1037 C981 0.929 . S
H1038 C982 0.930 . S
H1039 C983 0.930 . S
H1040 C986 0.930 . S
H1041 C989 0.929 . S
H1042 C994 0.929 . S
H1043 C995 0.930 . S
H1044 C1002 0.929 . S
H1045 C1003 0.930 . S
H1046 C1004 0.930 . S
H1047 C1005 0.930 . S
H1048 C1007 0.929 . S
H1049 C1008 0.930 . S
H1050 C1009 0.930 . S
H1051 C1010 0.930 . S
H1052 C1014 0.929 . S
H1053 C1016 0.930 . S
H1054 C1022 0.929 . S
H1055 C1023 0.930 . S
Li1056 N1073 1.990 . S
Li1056 O1116 1.956 . S
Li1056 O1117 1.970 1_455 S
Li1056 O1118 1.961 . S
Li1057 N1081 1.990 . S
Li1057 O1116 1.970 1_655 S
Li1057 O1117 1.956 . S
Li1057 O1119 1.983 . S
Li1058 N1103 1.990 . S
Li1058 O1116 1.961 . S
Li1058 O1118 1.956 . S
Li1058 O1119 1.943 1_455 S
Li1059 N1109 1.987 1_455 S
Li1059 O1117 1.934 1_455 S
Li1059 O1118 2.006 . S
Li1059 O1119 1.953 1_455 S
C1060 C1062 1.348 1_455 S
C1060 C1063 1.356 . S
C1060 O1116 1.325 . S
N1061 C1064 1.314 1_455 S
N1061 C1065 1.279 . S
C1062 C1060 1.348 1_655 S
C1062 C1064 1.353 . S
C1062 H1120 0.929 . S
C1063 C1060 1.356 . S
C1063 C1065 1.358 . S
C1063 H1121 0.930 . S
C1064 N1061 1.314 1_655 S
C1064 C1062 1.353 . S
C1064 H1122 0.930 . S
C1065 N1061 1.279 . S
C1065 C1063 1.358 . S
C1065 H1123 0.930 . S
C1066 C1069 1.348 . S
C1066 C1070 1.356 . S
C1066 O1117 1.325 . S
C1067 N1068 1.279 . S
C1067 C1070 1.358 . S
C1067 H1124 0.930 . S
N1068 C1067 1.279 . S
N1068 C1071 1.314 . S
C1069 C1066 1.348 . S
C1069 C1071 1.353 . S
C1069 H1125 0.929 . S
C1070 C1066 1.356 . S
C1070 C1067 1.358 . S
C1070 H1126 0.930 . S
C1071 N1068 1.314 . S
C1071 C1069 1.353 . S
C1071 H1127 0.930 . S
C1072 N1073 1.314 . S
C1072 C1077 1.353 . S
C1072 H1078 0.930 . S
N1073 Li1056 1.990 . S
N1073 C1072 1.314 . S
N1073 C1075 1.279 . S
C1074 C1075 1.358 . S
C1074 C1076 1.356 . S
C1074 H1128 0.930 . S
C1075 N1073 1.279 . S
C1075 C1074 1.358 . S
C1075 H1079 0.930 . S
C1076 C1074 1.356 . S
C1076 C1077 1.348 . S
C1077 C1072 1.353 . S
C1077 C1076 1.348 . S
C1077 H1129 0.929 . S
H1078 C1072 0.930 . S
H1079 C1075 0.930 . S
C1080 N1081 1.314 . S
C1080 C1082 1.353 . S
C1080 H1086 0.930 . S
N1081 Li1057 1.990 . S
N1081 C1080 1.314 . S
N1081 C1084 1.279 . S
C1082 C1080 1.353 . S
C1082 C1085 1.348 . S
C1082 H1130 0.929 . S
C1083 C1084 1.358 . S
C1083 C1085 1.356 . S
C1083 H1131 0.930 . S
C1084 N1081 1.279 . S
C1084 C1083 1.358 . S
C1084 H1087 0.930 . S
C1085 C1082 1.348 . S
C1085 C1083 1.356 . S
H1086 C1080 0.930 . S
H1087 C1084 0.930 . S
C1088 C1090 1.348 . S
C1088 C1091 1.356 . S
C1088 O1118 1.325 . S
N1089 C1092 1.314 . S
N1089 C1093 1.279 . S
C1090 C1088 1.348 . S
C1090 C1092 1.353 . S
C1090 H1132 0.929 . S
C1091 C1088 1.356 . S
C1091 C1093 1.358 . S
C1091 H1133 0.930 . S
C1092 N1089 1.314 . S
C1092 C1090 1.353 . S
C1092 H1134 0.930 . S
C1093 N1089 1.279 . S
C1093 C1091 1.358 . S
C1093 H1135 0.930 . S
C1094 C1095 1.348 1_655 S
C1094 C1096 1.356 . S
C1094 O1119 1.331 . S
C1095 C1094 1.348 1_455 S
C1095 C1097 1.353 . S
C1095 H1136 0.929 . S
C1096 C1094 1.356 . S
C1096 C1098 1.358 . S
C1096 H1137 0.930 . S
C1097 C1095 1.353 . S
C1097 N1099 1.314 1_455 S
C1097 H1138 0.930 . S
C1098 C1096 1.358 . S
C1098 N1099 1.279 . S
C1098 H1139 0.930 . S
N1099 C1097 1.314 1_655 S
N1099 C1098 1.279 . S
C1100 C1102 1.353 . S
C1100 N1103 1.314 . S
C1100 H1106 0.930 . S
C1101 N1103 1.279 . S
C1101 C1104 1.358 . S
C1101 H1107 0.930 . S
C1102 C1100 1.353 . S
C1102 C1105 1.348 . S
C1102 H1140 0.929 . S
N1103 Li1058 1.990 . S
N1103 C1100 1.314 . S
N1103 C1101 1.279 . S
C1104 C1101 1.358 . S
C1104 C1105 1.356 . S
C1104 H1141 0.930 . S
C1105 C1102 1.348 . S
C1105 C1104 1.356 . S
H1106 C1100 0.930 . S
H1107 C1101 0.930 . S
C1108 N1109 1.314 . S
C1108 C1110 1.353 . S
C1108 H1114 0.930 . S
N1109 Li1059 1.987 1_655 S
N1109 C1108 1.314 . S
N1109 C1112 1.279 . S
C1110 C1108 1.353 . S
C1110 C1113 1.348 . S
C1110 H1142 0.929 . S
C1111 C1112 1.358 . S
C1111 C1113 1.356 . S
C1111 H1143 0.930 . S
C1112 N1109 1.279 . S
C1112 C1111 1.358 . S
C1112 H1115 0.944 . S
C1113 C1110 1.348 . S
C1113 C1111 1.356 . S
H1114 C1108 0.930 . S
H1115 C1112 0.944 . S
O1116 Li1056 1.956 . S
O1116 Li1057 1.970 1_455 S
O1116 Li1058 1.961 . S
O1116 C1060 1.325 . S
O1117 Li1056 1.970 1_655 S
O1117 Li1057 1.956 . S
O1117 Li1059 1.934 1_655 S
O1117 C1066 1.325 . S
O1118 Li1056 1.961 . S
O1118 Li1058 1.956 . S
O1118 Li1059 2.006 . S
O1118 C1088 1.325 . S
O1119 Li1057 1.983 . S
O1119 Li1058 1.943 1_655 S
O1119 Li1059 1.953 1_655 S
O1119 C1094 1.331 . S
H1120 C1062 0.929 . S
H1121 C1063 0.930 . S
H1122 C1064 0.930 . S
H1123 C1065 0.930 . S
H1124 C1067 0.930 . S
H1125 C1069 0.929 . S
H1126 C1070 0.930 . S
H1127 C1071 0.930 . S
H1128 C1074 0.930 . S
H1129 C1077 0.929 . S
H1130 C1082 0.929 . S
H1131 C1083 0.930 . S
H1132 C1090 0.929 . S
H1133 C1091 0.930 . S
H1134 C1092 0.930 . S
H1135 C1093 0.930 . S
H1136 C1095 0.929 . S
H1137 C1096 0.930 . S
H1138 C1097 0.930 . S
H1139 C1098 0.930 . S
H1140 C1102 0.929 . S
H1141 C1104 0.930 . S
H1142 C1110 0.929 . S
H1143 C1111 0.930 . S
Li1144 N1161 1.990 . S
Li1144 O1204 1.956 . S
Li1144 O1205 1.970 . S
Li1144 O1206 1.961 . S
Li1145 N1169 1.990 . S
Li1145 O1204 1.970 . S
Li1145 O1205 1.956 . S
Li1145 O1207 1.961 . S
Li1146 N1191 1.990 . S
Li1146 O1204 1.961 . S
Li1146 O1206 1.956 . S
Li1146 O1207 1.970 . S
Li1147 N1197 1.990 . S
Li1147 O1205 1.961 . S
Li1147 O1206 1.970 . S
Li1147 O1207 1.956 . S
C1148 C1150 1.348 . S
C1148 C1151 1.356 . S
C1148 O1204 1.325 . S
N1149 C1152 1.314 . S
N1149 C1153 1.279 . S
C1150 C1148 1.348 . S
C1150 C1152 1.353 . S
C1150 H1208 0.929 . S
C1151 C1148 1.356 . S
C1151 C1153 1.358 . S
C1151 H1209 0.930 . S
C1152 N1149 1.314 . S
C1152 C1150 1.353 . S
C1152 H1210 0.930 . S
C1153 N1149 1.279 . S
C1153 C1151 1.358 . S
C1153 H1211 0.930 . S
C1154 C1157 1.348 . S
C1154 C1158 1.356 . S
C1154 O1205 1.325 . S
C1155 N1156 1.279 . S
C1155 C1158 1.358 . S
C1155 H1212 0.930 . S
N1156 C1155 1.279 . S
N1156 C1159 1.314 . S
C1157 C1154 1.348 . S
C1157 C1159 1.353 . S
C1157 H1213 0.929 . S
C1158 C1154 1.356 . S
C1158 C1155 1.358 . S
C1158 H1214 0.930 . S
C1159 N1156 1.314 . S
C1159 C1157 1.353 . S
C1159 H1215 0.930 . S
C1160 N1161 1.314 . S
C1160 C1165 1.353 . S
C1160 H1166 0.930 . S
N1161 Li1144 1.990 . S
N1161 C1160 1.314 . S
N1161 C1163 1.279 . S
C1162 C1163 1.358 . S
C1162 C1164 1.356 . S
C1162 H1216 0.930 . S
C1163 N1161 1.279 . S
C1163 C1162 1.358 . S
C1163 H1167 0.930 . S
C1164 C1162 1.356 . S
C1164 C1165 1.348 . S
C1165 C1160 1.353 . S
C1165 C1164 1.348 . S
C1165 H1217 0.929 . S
H1166 C1160 0.930 . S
H1167 C1163 0.930 . S
C1168 N1169 1.314 . S
C1168 C1170 1.353 . S
C1168 H1174 0.930 . S
N1169 Li1145 1.990 . S
N1169 C1168 1.314 . S
N1169 C1172 1.279 . S
C1170 C1168 1.353 . S
C1170 C1173 1.348 . S
C1170 H1218 0.929 . S
C1171 C1172 1.358 . S
C1171 C1173 1.356 . S
C1171 H1219 0.930 . S
C1172 N1169 1.279 . S
C1172 C1171 1.358 . S
C1172 H1175 0.930 . S
C1173 C1170 1.348 . S
C1173 C1171 1.356 . S
H1174 C1168 0.930 . S
H1175 C1172 0.930 . S
C1176 C1178 1.348 . S
C1176 C1179 1.356 . S
C1176 O1206 1.325 . S
N1177 C1180 1.314 . S
N1177 C1181 1.279 . S
C1178 C1176 1.348 . S
C1178 C1180 1.353 . S
C1178 H1220 0.929 . S
C1179 C1176 1.356 . S
C1179 C1181 1.358 . S
C1179 H1221 0.930 . S
C1180 N1177 1.314 . S
C1180 C1178 1.353 . S
C1180 H1222 0.930 . S
C1181 N1177 1.279 . S
C1181 C1179 1.358 . S
C1181 H1223 0.930 . S
C1182 C1183 1.348 . S
C1182 C1184 1.356 . S
C1182 O1207 1.325 . S
C1183 C1182 1.348 . S
C1183 C1185 1.353 . S
C1183 H1224 0.929 . S
C1184 C1182 1.356 . S
C1184 C1186 1.358 . S
C1184 H1225 0.930 . S
C1185 C1183 1.353 . S
C1185 N1187 1.314 . S
C1185 H1226 0.930 . S
C1186 C1184 1.358 . S
C1186 N1187 1.279 . S
C1186 H1227 0.930 . S
N1187 C1185 1.314 . S
N1187 C1186 1.279 . S
C1188 C1190 1.353 . S
C1188 N1191 1.314 . S
C1188 H1194 0.930 . S
C1189 N1191 1.279 . S
C1189 C1192 1.358 . S
C1189 H1195 0.930 . S
C1190 C1188 1.353 . S
C1190 C1193 1.348 . S
C1190 H1228 0.929 . S
N1191 Li1146 1.990 . S
N1191 C1188 1.314 . S
N1191 C1189 1.279 . S
C1192 C1189 1.358 . S
C1192 C1193 1.356 . S
C1192 H1229 0.930 . S
C1193 C1190 1.348 . S
C1193 C1192 1.356 . S
H1194 C1188 0.930 . S
H1195 C1189 0.930 . S
C1196 N1197 1.314 . S
C1196 C1198 1.353 . S
C1196 H1202 0.930 . S
N1197 Li1147 1.990 . S
N1197 C1196 1.314 . S
N1197 C1200 1.279 . S
C1198 C1196 1.353 . S
C1198 C1201 1.348 . S
C1198 H1230 0.929 . S
C1199 C1200 1.358 . S
C1199 C1201 1.356 . S
C1199 H1231 0.930 . S
C1200 N1197 1.279 . S
C1200 C1199 1.358 . S
C1200 H1203 0.930 . S
C1201 C1198 1.348 . S
C1201 C1199 1.356 . S
H1202 C1196 0.930 . S
H1203 C1200 0.930 . S
O1204 Li1144 1.956 . S
O1204 Li1145 1.970 . S
O1204 Li1146 1.961 . S
O1204 C1148 1.325 . S
O1205 Li1144 1.970 . S
O1205 Li1145 1.956 . S
O1205 Li1147 1.961 . S
O1205 C1154 1.325 . S
O1206 Li1144 1.961 . S
O1206 Li1146 1.956 . S
O1206 Li1147 1.970 . S
O1206 C1176 1.325 . S
O1207 Li1145 1.961 . S
O1207 Li1146 1.970 . S
O1207 Li1147 1.956 . S
O1207 C1182 1.325 . S
H1208 C1150 0.929 . S
H1209 C1151 0.930 . S
H1210 C1152 0.930 . S
H1211 C1153 0.930 . S
H1212 C1155 0.930 . S
H1213 C1157 0.929 . S
H1214 C1158 0.930 . S
H1215 C1159 0.930 . S
H1216 C1162 0.930 . S
H1217 C1165 0.929 . S
H1218 C1170 0.929 . S
H1219 C1171 0.930 . S
H1220 C1178 0.929 . S
H1221 C1179 0.930 . S
H1222 C1180 0.930 . S
H1223 C1181 0.930 . S
H1224 C1183 0.929 . S
H1225 C1184 0.930 . S
H1226 C1185 0.930 . S
H1227 C1186 0.930 . S
H1228 C1190 0.929 . S
H1229 C1192 0.930 . S
H1230 C1198 0.929 . S
H1231 C1199 0.930 . S
C1232 C1233 1.349 . S
C1232 C1234 1.327 . S
C1232 H1257 0.950 . S
C1233 C1232 1.349 . S
C1233 C1249 1.349 . S
C1234 C1232 1.327 . S
C1234 C1253 1.429 . S
C1234 H1258 0.950 . S
C1235 C1252 1.574 . S
C1235 C1254 1.368 . S
C1235 H1259 0.949 . S
H1236 C1240 0.949 . S
C1237 C1238 1.349 . S
C1237 C1239 1.327 . S
C1237 H1260 0.950 . S
C1238 C1237 1.349 . S
C1238 C1250 1.349 . S
C1239 C1237 1.327 . S
C1239 C1255 1.429 . S
C1239 H1261 0.950 . S
C1240 H1236 0.949 . S
C1240 C1248 1.574 . S
C1240 C1256 1.368 . S
H1241 C1249 0.950 . S
H1242 C1247 0.950 . S
H1243 C1248 0.949 . S
H1244 C1250 0.950 . S
H1245 C1251 0.950 . S
H1246 C1252 0.949 . S
C1247 H1242 0.950 . S
C1247 C1249 1.327 . S
C1247 C1253 1.429 . S
C1248 C1240 1.574 . S
C1248 H1243 0.949 . S
C1248 C1254 1.368 . S
C1249 C1233 1.349 . S
C1249 H1241 0.950 . S
C1249 C1247 1.327 . S
C1250 C1238 1.349 . S
C1250 H1244 0.950 . S
C1250 C1251 1.327 . S
C1251 H1245 0.950 . S
C1251 C1250 1.327 . S
C1251 C1255 1.429 . S
C1252 C1235 1.574 . S
C1252 H1246 0.949 . S
C1252 C1256 1.368 . S
C1253 C1234 1.429 . S
C1253 C1247 1.429 . S
C1253 C1254 1.523 . S
C1254 C1235 1.368 . S
C1254 C1248 1.368 . S
C1254 C1253 1.523 . S
C1255 C1239 1.429 . S
C1255 C1251 1.429 . S
C1255 C1256 1.523 . S
C1256 C1240 1.368 . S
C1256 C1252 1.368 . S
C1256 C1255 1.523 . S
H1257 C1232 0.950 . S
H1258 C1234 0.950 . S
H1259 C1235 0.949 . S
H1260 C1237 0.950 . S
H1261 C1239 0.950 . S
C1262 C1263 1.349 . S
C1262 C1264 1.327 . S
C1262 H1287 0.950 . S
C1263 C1262 1.349 . S
C1263 C1279 1.349 . S
C1264 C1262 1.327 . S
C1264 C1283 1.429 . S
C1264 H1288 0.950 . S
C1265 C1282 1.574 . S
C1265 C1284 1.368 . S
C1265 H1289 0.949 . S
H1266 C1270 0.949 . S
C1267 C1268 1.349 . S
C1267 C1269 1.327 . S
C1267 H1290 0.950 . S
C1268 C1267 1.349 . S
C1268 C1280 1.349 . S
C1269 C1267 1.327 . S
C1269 C1285 1.429 . S
C1269 H1291 0.950 . S
C1270 H1266 0.949 . S
C1270 C1278 1.574 . S
C1270 C1286 1.368 . S
H1271 C1279 0.950 . S
H1272 C1277 0.950 . S
H1273 C1278 0.949 . S
H1274 C1280 0.950 . S
H1275 C1281 0.950 . S
H1276 C1282 0.949 . S
C1277 H1272 0.950 . S
C1277 C1279 1.327 . S
C1277 C1283 1.429 . S
C1278 C1270 1.574 . S
C1278 H1273 0.949 . S
C1278 C1284 1.368 . S
C1279 C1263 1.349 . S
C1279 H1271 0.950 . S
C1279 C1277 1.327 . S
C1280 C1268 1.349 . S
C1280 H1274 0.950 . S
C1280 C1281 1.327 . S
C1281 H1275 0.950 . S
C1281 C1280 1.327 . S
C1281 C1285 1.429 . S
C1282 C1265 1.574 . S
C1282 H1276 0.949 . S
C1282 C1286 1.368 . S
C1283 C1264 1.429 . S
C1283 C1277 1.429 . S
C1283 C1284 1.523 . S
C1284 C1265 1.368 . S
C1284 C1278 1.368 . S
C1284 C1283 1.523 . S
C1285 C1269 1.429 . S
C1285 C1281 1.429 . S
C1285 C1286 1.523 . S
C1286 C1270 1.368 . S
C1286 C1282 1.368 . S
C1286 C1285 1.523 . S
H1287 C1262 0.950 . S
H1288 C1264 0.950 . S
H1289 C1265 0.949 . S
H1290 C1267 0.950 . S
H1291 C1269 0.950 . S
C1292 C1293 1.349 . S
C1292 C1294 1.327 . S
C1292 H1317 0.950 . S
C1293 C1292 1.349 . S
C1293 C1309 1.349 . S
C1294 C1292 1.327 . S
C1294 C1313 1.429 . S
C1294 H1318 0.950 . S
C1295 C1312 1.574 . S
C1295 C1314 1.368 . S
C1295 H1319 0.949 . S
H1296 C1300 0.949 . S
C1297 C1298 1.349 . S
C1297 C1299 1.327 . S
C1297 H1320 0.950 . S
C1298 C1297 1.349 . S
C1298 C1310 1.349 . S
C1299 C1297 1.327 . S
C1299 C1315 1.429 . S
C1299 H1321 0.950 . S
C1300 H1296 0.949 . S
C1300 C1308 1.574 . S
C1300 C1316 1.368 . S
H1301 C1309 0.950 . S
H1302 C1307 0.950 . S
H1303 C1308 0.949 . S
H1304 C1310 0.950 . S
H1305 C1311 0.950 . S
H1306 C1312 0.949 . S
C1307 H1302 0.950 . S
C1307 C1309 1.327 . S
C1307 C1313 1.429 . S
C1308 C1300 1.574 . S
C1308 H1303 0.949 . S
C1308 C1314 1.368 . S
C1309 C1293 1.349 . S
C1309 H1301 0.950 . S
C1309 C1307 1.327 . S
C1310 C1298 1.349 . S
C1310 H1304 0.950 . S
C1310 C1311 1.327 . S
C1311 H1305 0.950 . S
C1311 C1310 1.327 . S
C1311 C1315 1.429 . S
C1312 C1295 1.574 . S
C1312 H1306 0.949 . S
C1312 C1316 1.368 . S
C1313 C1294 1.429 . S
C1313 C1307 1.429 . S
C1313 C1314 1.523 . S
C1314 C1295 1.368 . S
C1314 C1308 1.368 . S
C1314 C1313 1.523 . S
C1315 C1299 1.429 . S
C1315 C1311 1.429 . S
C1315 C1316 1.523 . S
C1316 C1300 1.368 . S
C1316 C1312 1.368 . S
C1316 C1315 1.523 . S
H1317 C1292 0.950 . S
H1318 C1294 0.950 . S
H1319 C1295 0.949 . S
H1320 C1297 0.950 . S
H1321 C1299 0.950 . S
C1322 C1323 1.349 . S
C1322 C1324 1.327 . S
C1322 H1347 0.950 . S
C1323 C1322 1.349 . S
C1323 C1339 1.349 . S
C1324 C1322 1.327 . S
C1324 C1343 1.429 . S
C1324 H1348 0.950 . S
C1325 C1342 1.574 . S
C1325 C1344 1.368 1_655 S
C1325 H1349 0.949 . S
H1326 C1330 0.949 . S
C1327 C1328 1.349 . S
C1327 C1329 1.314 1_545 S
C1327 H1350 0.955 . S
C1328 C1327 1.349 . S
C1328 C1340 1.349 . S
C1329 C1327 1.314 1_565 S
C1329 C1345 1.425 1_565 S
C1329 H1351 0.968 . S
C1330 H1326 0.949 . S
C1330 C1338 1.571 1_545 S
C1330 C1346 1.358 1_445 S
H1331 C1339 0.950 . S
H1332 C1337 0.950 1_655 S
H1333 C1338 0.948 1_545 S
H1334 C1340 0.950 . S
H1335 C1341 0.950 1_455 S
H1336 C1342 0.949 . S
C1337 H1332 0.950 1_455 S
C1337 C1339 1.327 . S
C1337 C1343 1.429 . S
C1338 C1330 1.571 1_565 S
C1338 H1333 0.948 1_565 S
C1338 C1344 1.371 . S
C1339 C1323 1.349 . S
C1339 H1331 0.950 . S
C1339 C1337 1.327 . S
C1340 C1328 1.349 . S
C1340 H1334 0.950 . S
C1340 C1341 1.327 . S
C1341 H1335 0.950 1_655 S
C1341 C1340 1.327 . S
C1341 C1345 1.429 . S
C1342 C1325 1.574 . S
C1342 H1336 0.949 . S
C1342 C1346 1.397 . S
C1343 C1324 1.429 . S
C1343 C1337 1.429 . S
C1343 C1344 1.523 . S
C1344 C1325 1.368 1_455 S
C1344 C1338 1.371 . S
C1344 C1343 1.523 . S
C1345 C1329 1.425 1_545 S
C1345 C1341 1.429 . S
C1345 C1346 1.503 1_545 S
C1346 C1330 1.358 1_665 S
C1346 C1342 1.397 . S
C1346 C1345 1.503 1_565 S
H1347 C1322 0.950 . S
H1348 C1324 0.950 . S
H1349 C1325 0.949 . S
H1350 C1327 0.955 . S
H1351 C1329 0.968 . S
C1352 C1353 1.349 . S
C1352 C1354 1.327 . S
C1352 H1377 0.950 . S
C1353 C1352 1.349 . S
C1353 C1369 1.349 . S
C1354 C1352 1.327 . S
C1354 C1373 1.429 . S
C1354 H1378 0.950 . S
C1355 C1372 1.574 . S
C1355 C1374 1.368 . S
C1355 H1379 0.949 . S
H1356 C1360 0.949 . S
C1357 C1358 1.349 . S
C1357 C1359 1.327 . S
C1357 H1380 0.950 . S
C1358 C1357 1.349 . S
C1358 C1370 1.349 . S
C1359 C1357 1.327 . S
C1359 C1375 1.429 . S
C1359 H1381 0.950 . S
C1360 H1356 0.949 . S
C1360 C1368 1.574 . S
C1360 C1376 1.368 . S
H1361 C1369 0.950 . S
H1362 C1367 0.950 . S
H1363 C1368 0.949 . S
H1364 C1370 0.950 . S
H1365 C1371 0.950 . S
H1366 C1372 0.949 . S
C1367 H1362 0.950 . S
C1367 C1369 1.327 . S
C1367 C1373 1.429 . S
C1368 C1360 1.574 . S
C1368 H1363 0.949 . S
C1368 C1374 1.368 . S
C1369 C1353 1.349 . S
C1369 H1361 0.950 . S
C1369 C1367 1.327 . S
C1370 C1358 1.349 . S
C1370 H1364 0.950 . S
C1370 C1371 1.327 . S
C1371 H1365 0.950 . S
C1371 C1370 1.327 . S
C1371 C1375 1.429 . S
C1372 C1355 1.574 . S
C1372 H1366 0.949 . S
C1372 C1376 1.368 . S
C1373 C1354 1.429 . S
C1373 C1367 1.429 . S
C1373 C1374 1.523 . S
C1374 C1355 1.368 . S
C1374 C1368 1.368 . S
C1374 C1373 1.523 . S
C1375 C1359 1.429 . S
C1375 C1371 1.429 . S
C1375 C1376 1.523 . S
C1376 C1360 1.368 . S
C1376 C1372 1.368 . S
C1376 C1375 1.523 . S
H1377 C1352 0.950 . S
H1378 C1354 0.950 . S
H1379 C1355 0.949 . S
H1380 C1357 0.950 . S
H1381 C1359 0.950 . S
C1382 C1383 1.349 . S
C1382 C1384 1.327 . S
C1382 H1407 0.950 . S
C1383 C1382 1.349 . S
C1383 C1399 1.349 . S
C1384 C1382 1.327 . S
C1384 C1403 1.429 . S
C1384 H1408 0.950 . S
C1385 C1402 1.574 . S
C1385 C1404 1.368 . S
C1385 H1409 0.949 . S
H1386 C1390 0.949 . S
C1387 C1388 1.349 . S
C1387 C1389 1.327 . S
C1387 H1410 0.950 . S
C1388 C1387 1.349 . S
C1388 C1400 1.349 . S
C1389 C1387 1.327 . S
C1389 C1405 1.429 . S
C1389 H1411 0.950 . S
C1390 H1386 0.949 . S
C1390 C1398 1.574 . S
C1390 C1406 1.368 . S
H1391 C1399 0.950 . S
H1392 C1397 0.950 . S
H1393 C1398 0.949 . S
H1394 C1400 0.950 . S
H1395 C1401 0.950 . S
H1396 C1402 0.949 . S
C1397 H1392 0.950 . S
C1397 C1399 1.327 . S
C1397 C1403 1.429 . S
C1398 C1390 1.574 . S
C1398 H1393 0.949 . S
C1398 C1404 1.368 . S
C1399 C1383 1.349 . S
C1399 H1391 0.950 . S
C1399 C1397 1.327 . S
C1400 C1388 1.349 . S
C1400 H1394 0.950 . S
C1400 C1401 1.327 . S
C1401 H1395 0.950 . S
C1401 C1400 1.327 . S
C1401 C1405 1.429 . S
C1402 C1385 1.574 . S
C1402 H1396 0.949 . S
C1402 C1406 1.368 . S
C1403 C1384 1.429 . S
C1403 C1397 1.429 . S
C1403 C1404 1.523 . S
C1404 C1385 1.368 . S
C1404 C1398 1.368 . S
C1404 C1403 1.523 . S
C1405 C1389 1.429 . S
C1405 C1401 1.429 . S
C1405 C1406 1.523 . S
C1406 C1390 1.368 . S
C1406 C1402 1.368 . S
C1406 C1405 1.523 . S
H1407 C1382 0.950 . S
H1408 C1384 0.950 . S
H1409 C1385 0.949 . S
H1410 C1387 0.950 . S
H1411 C1389 0.950 . S
C1412 C1413 1.349 . S
C1412 C1414 1.327 . S
C1412 H1437 0.950 . S
C1413 C1412 1.349 . S
C1413 C1429 1.349 . S
C1414 C1412 1.327 . S
C1414 C1433 1.429 . S
C1414 H1438 0.950 . S
C1415 C1432 1.574 . S
C1415 C1434 1.368 . S
C1415 H1439 0.949 . S
H1416 C1420 0.949 . S
C1417 C1418 1.349 . S
C1417 C1419 1.327 . S
C1417 H1440 0.950 . S
C1418 C1417 1.349 . S
C1418 C1430 1.349 . S
C1419 C1417 1.327 . S
C1419 C1435 1.429 . S
C1419 H1441 0.950 . S
C1420 H1416 0.949 . S
C1420 C1428 1.574 . S
C1420 C1436 1.368 . S
H1421 C1429 0.950 . S
H1422 C1427 0.950 . S
H1423 C1428 0.949 . S
H1424 C1430 0.950 . S
H1425 C1431 0.950 . S
H1426 C1432 0.949 . S
C1427 H1422 0.950 . S
C1427 C1429 1.327 . S
C1427 C1433 1.429 . S
C1428 C1420 1.574 . S
C1428 H1423 0.949 . S
C1428 C1434 1.368 . S
C1429 C1413 1.349 . S
C1429 H1421 0.950 . S
C1429 C1427 1.327 . S
C1430 C1418 1.349 . S
C1430 H1424 0.950 . S
C1430 C1431 1.327 . S
C1431 H1425 0.950 . S
C1431 C1430 1.327 . S
C1431 C1435 1.429 . S
C1432 C1415 1.574 . S
C1432 H1426 0.949 . S
C1432 C1436 1.368 . S
C1433 C1414 1.429 . S
C1433 C1427 1.429 . S
C1433 C1434 1.523 . S
C1434 C1415 1.368 . S
C1434 C1428 1.368 . S
C1434 C1433 1.523 . S
C1435 C1419 1.429 . S
C1435 C1431 1.429 . S
C1435 C1436 1.523 . S
C1436 C1420 1.368 . S
C1436 C1432 1.368 . S
C1436 C1435 1.523 . S
H1437 C1412 0.950 . S
H1438 C1414 0.950 . S
H1439 C1415 0.949 . S
H1440 C1417 0.950 . S
H1441 C1419 0.950 . S
C1442 C1443 1.349 . S
C1442 C1444 1.327 . S
C1442 H1467 0.950 . S
C1443 C1442 1.349 . S
C1443 C1459 1.324 1_565 S
C1444 C1442 1.327 . S
C1444 C1463 1.429 . S
C1444 H1468 0.950 . S
C1445 C1462 1.574 . S
C1445 C1464 1.368 1_545 S
C1445 H1469 0.949 . S
H1446 C1450 0.949 . S
C1447 C1448 1.346 1_545 S
C1447 C1449 1.322 . S
C1447 H1470 0.952 . S
C1448 C1447 1.346 1_565 S
C1448 C1460 1.349 . S
C1449 C1447 1.322 . S
C1449 C1465 1.409 1_545 S
C1449 H1471 0.977 . S
C1450 H1446 0.949 . S
C1450 C1458 1.574 . S
C1450 C1466 1.368 . S
H1451 C1459 0.982 . S
H1452 C1457 0.990 . S
H1453 C1458 0.949 . S
H1454 C1460 0.950 . S
H1455 C1461 0.950 . S
H1456 C1462 0.949 . S
C1457 H1452 0.990 . S
C1457 C1459 1.330 . S
C1457 C1463 1.382 1_545 S
C1458 C1450 1.574 . S
C1458 H1453 0.949 . S
C1458 C1464 1.368 . S
C1459 C1443 1.324 1_545 S
C1459 H1451 0.982 . S
C1459 C1457 1.330 . S
C1460 C1448 1.349 . S
C1460 H1454 0.950 . S
C1460 C1461 1.327 . S
C1461 H1455 0.950 . S
C1461 C1460 1.327 . S
C1461 C1465 1.429 . S
C1462 C1445 1.574 . S
C1462 H1456 0.949 . S
C1462 C1466 1.368 1_545 S
C1463 C1444 1.429 . S
C1463 C1457 1.382 1_565 S
C1463 C1464 1.523 . S
C1464 C1445 1.368 1_565 S
C1464 C1458 1.368 . S
C1464 C1463 1.523 . S
C1465 C1449 1.409 1_565 S
C1465 C1461 1.429 . S
C1465 C1466 1.523 . S
C1466 C1450 1.368 . S
C1466 C1462 1.368 1_565 S
C1466 C1465 1.523 . S
H1467 C1442 0.950 . S
H1468 C1444 0.950 . S
H1469 C1445 0.949 . S
H1470 C1447 0.952 . S
H1471 C1449 0.977 . S
C1472 C1473 1.349 . S
C1472 C1474 1.327 . S
C1472 H1497 0.950 . S
C1473 C1472 1.349 . S
C1473 C1489 1.349 . S
C1474 C1472 1.327 . S
C1474 C1493 1.429 . S
C1474 H1498 0.950 . S
C1475 C1492 1.574 . S
C1475 C1494 1.368 . S
C1475 H1499 0.949 . S
H1476 C1480 0.949 . S
C1477 C1478 1.349 . S
C1477 C1479 1.327 . S
C1477 H1500 0.950 . S
C1478 C1477 1.349 . S
C1478 C1490 1.349 . S
C1479 C1477 1.327 . S
C1479 C1495 1.429 . S
C1479 H1501 0.950 . S
C1480 H1476 0.949 . S
C1480 C1488 1.574 . S
C1480 C1496 1.368 . S
H1481 C1489 0.950 . S
H1482 C1487 0.950 . S
H1483 C1488 0.949 . S
H1484 C1490 0.950 . S
H1485 C1491 0.950 . S
H1486 C1492 0.949 . S
C1487 H1482 0.950 . S
C1487 C1489 1.327 . S
C1487 C1493 1.429 . S
C1488 C1480 1.574 . S
C1488 H1483 0.949 . S
C1488 C1494 1.368 . S
C1489 C1473 1.349 . S
C1489 H1481 0.950 . S
C1489 C1487 1.327 . S
C1490 C1478 1.349 . S
C1490 H1484 0.950 . S
C1490 C1491 1.327 . S
C1491 H1485 0.950 . S
C1491 C1490 1.327 . S
C1491 C1495 1.429 . S
C1492 C1475 1.574 . S
C1492 H1486 0.949 . S
C1492 C1496 1.368 . S
C1493 C1474 1.429 . S
C1493 C1487 1.429 . S
C1493 C1494 1.523 . S
C1494 C1475 1.368 . S
C1494 C1488 1.368 . S
C1494 C1493 1.523 . S
C1495 C1479 1.429 . S
C1495 C1491 1.429 . S
C1495 C1496 1.523 . S
C1496 C1480 1.368 . S
C1496 C1492 1.368 . S
C1496 C1495 1.523 . S
H1497 C1472 0.950 . S
H1498 C1474 0.950 . S
H1499 C1475 0.949 . S
H1500 C1477 0.950 . S
H1501 C1479 0.950 . S
C1502 C1503 1.349 . S
C1502 C1504 1.327 . S
C1502 H1527 0.950 . S
C1503 C1502 1.349 . S
C1503 C1519 1.349 . S
C1504 C1502 1.327 . S
C1504 C1523 1.429 . S
C1504 H1528 0.950 . S
C1505 C1522 1.574 . S
C1505 C1524 1.368 . S
C1505 H1529 0.949 . S
H1506 C1510 0.949 . S
C1507 C1508 1.349 . S
C1507 C1509 1.327 . S
C1507 H1530 0.950 . S
C1508 C1507 1.349 . S
C1508 C1520 1.349 . S
C1509 C1507 1.327 . S
C1509 C1525 1.429 . S
C1509 H1531 0.950 . S
C1510 H1506 0.949 . S
C1510 C1518 1.574 . S
C1510 C1526 1.368 . S
H1511 C1519 0.950 . S
H1512 C1517 0.950 . S
H1513 C1518 0.949 . S
H1514 C1520 0.950 . S
H1515 C1521 0.950 . S
H1516 C1522 0.949 . S
C1517 H1512 0.950 . S
C1517 C1519 1.327 . S
C1517 C1523 1.429 . S
C1518 C1510 1.574 . S
C1518 H1513 0.949 . S
C1518 C1524 1.368 . S
C1519 C1503 1.349 . S
C1519 H1511 0.950 . S
C1519 C1517 1.327 . S
C1520 C1508 1.349 . S
C1520 H1514 0.950 . S
C1520 C1521 1.327 . S
C1521 H1515 0.950 . S
C1521 C1520 1.327 . S
C1521 C1525 1.429 . S
C1522 C1505 1.574 . S
C1522 H1516 0.949 . S
C1522 C1526 1.368 . S
C1523 C1504 1.429 . S
C1523 C1517 1.429 . S
C1523 C1524 1.523 . S
C1524 C1505 1.368 . S
C1524 C1518 1.368 . S
C1524 C1523 1.523 . S
C1525 C1509 1.429 . S
C1525 C1521 1.429 . S
C1525 C1526 1.523 . S
C1526 C1510 1.368 . S
C1526 C1522 1.368 . S
C1526 C1525 1.523 . S
H1527 C1502 0.950 . S
H1528 C1504 0.950 . S
H1529 C1505 0.949 . S
H1530 C1507 0.950 . S
H1531 C1509 0.950 . S
C1532 C1533 1.349 . S
C1532 C1534 1.327 . S
C1532 H1557 0.950 . S
C1533 C1532 1.349 . S
C1533 C1549 1.349 . S
C1534 C1532 1.327 . S
C1534 C1553 1.429 . S
C1534 H1558 0.950 . S
C1535 C1552 1.574 . S
C1535 C1554 1.368 . S
C1535 H1559 0.949 . S
H1536 C1540 0.949 . S
C1537 C1538 1.349 . S
C1537 C1539 1.327 . S
C1537 H1560 0.950 . S
C1538 C1537 1.349 . S
C1538 C1550 1.349 . S
C1539 C1537 1.327 . S
C1539 C1555 1.429 . S
C1539 H1561 0.950 . S
C1540 H1536 0.949 . S
C1540 C1548 1.574 . S
C1540 C1556 1.368 . S
H1541 C1549 0.950 . S
H1542 C1547 0.950 . S
H1543 C1548 0.949 . S
H1544 C1550 0.950 . S
H1545 C1551 0.950 . S
H1546 C1552 0.949 . S
C1547 H1542 0.950 . S
C1547 C1549 1.327 . S
C1547 C1553 1.429 . S
C1548 C1540 1.574 . S
C1548 H1543 0.949 . S
C1548 C1554 1.368 . S
C1549 C1533 1.349 . S
C1549 H1541 0.950 . S
C1549 C1547 1.327 . S
C1550 C1538 1.349 . S
C1550 H1544 0.950 . S
C1550 C1551 1.327 . S
C1551 H1545 0.950 . S
C1551 C1550 1.327 . S
C1551 C1555 1.429 . S
C1552 C1535 1.574 . S
C1552 H1546 0.949 . S
C1552 C1556 1.368 . S
C1553 C1534 1.429 . S
C1553 C1547 1.429 . S
C1553 C1554 1.523 . S
C1554 C1535 1.368 . S
C1554 C1548 1.368 . S
C1554 C1553 1.523 . S
C1555 C1539 1.429 . S
C1555 C1551 1.429 . S
C1555 C1556 1.523 . S
C1556 C1540 1.368 . S
C1556 C1552 1.368 . S
C1556 C1555 1.523 . S
H1557 C1532 0.950 . S
H1558 C1534 0.950 . S
H1559 C1535 0.949 . S
H1560 C1537 0.950 . S
H1561 C1539 0.950 . S
C1562 C1563 1.349 . S
C1562 C1564 1.327 . S
C1562 H1587 0.950 . S
C1563 C1562 1.349 . S
C1563 C1579 1.349 . S
C1564 C1562 1.327 . S
C1564 C1583 1.429 . S
C1564 H1588 0.950 . S
C1565 C1582 1.574 . S
C1565 C1584 1.368 . S
C1565 H1589 0.949 . S
H1566 C1570 0.949 . S
C1567 C1568 1.349 . S
C1567 C1569 1.327 . S
C1567 H1590 0.950 . S
C1568 C1567 1.349 . S
C1568 C1580 1.349 . S
C1569 C1567 1.327 . S
C1569 C1585 1.429 . S
C1569 H1591 0.950 . S
C1570 H1566 0.949 . S
C1570 C1578 1.574 . S
C1570 C1586 1.368 . S
H1571 C1579 0.950 . S
H1572 C1577 0.950 . S
H1573 C1578 0.949 . S
H1574 C1580 0.950 . S
H1575 C1581 0.950 . S
H1576 C1582 0.949 . S
C1577 H1572 0.950 . S
C1577 C1579 1.327 . S
C1577 C1583 1.429 . S
C1578 C1570 1.574 . S
C1578 H1573 0.949 . S
C1578 C1584 1.368 . S
C1579 C1563 1.349 . S
C1579 H1571 0.950 . S
C1579 C1577 1.327 . S
C1580 C1568 1.349 . S
C1580 H1574 0.950 . S
C1580 C1581 1.327 . S
C1581 H1575 0.950 . S
C1581 C1580 1.327 . S
C1581 C1585 1.429 . S
C1582 C1565 1.574 . S
C1582 H1576 0.949 . S
C1582 C1586 1.368 . S
C1583 C1564 1.429 . S
C1583 C1577 1.429 . S
C1583 C1584 1.523 . S
C1584 C1565 1.368 . S
C1584 C1578 1.368 . S
C1584 C1583 1.523 . S
C1585 C1569 1.429 . S
C1585 C1581 1.429 . S
C1585 C1586 1.523 . S
C1586 C1570 1.368 . S
C1586 C1582 1.368 . S
C1586 C1585 1.523 . S
H1587 C1562 0.950 . S
H1588 C1564 0.950 . S
H1589 C1565 0.949 . S
H1590 C1567 0.950 . S
H1591 C1569 0.950 . S
C1592 C1593 1.349 . S
C1592 C1594 1.327 . S
C1592 H1617 0.950 . S
C1593 C1592 1.349 . S
C1593 C1609 1.349 . S
C1594 C1592 1.327 . S
C1594 C1613 1.429 . S
C1594 H1618 0.950 . S
C1595 C1612 1.574 . S
C1595 C1614 1.368 . S
C1595 H1619 0.949 . S
H1596 C1600 0.949 . S
C1597 C1598 1.349 . S
C1597 C1599 1.327 . S
C1597 H1620 0.950 . S
C1598 C1597 1.349 . S
C1598 C1610 1.349 . S
C1599 C1597 1.327 . S
C1599 C1615 1.429 . S
C1599 H1621 0.950 . S
C1600 H1596 0.949 . S
C1600 C1608 1.574 . S
C1600 C1616 1.368 . S
H1601 C1609 0.950 . S
H1602 C1607 0.950 . S
H1603 C1608 0.949 . S
H1604 C1610 0.950 . S
H1605 C1611 0.950 . S
H1606 C1612 0.949 . S
C1607 H1602 0.950 . S
C1607 C1609 1.327 . S
C1607 C1613 1.429 . S
C1608 C1600 1.574 . S
C1608 H1603 0.949 . S
C1608 C1614 1.368 . S
C1609 C1593 1.349 . S
C1609 H1601 0.950 . S
C1609 C1607 1.327 . S
C1610 C1598 1.349 . S
C1610 H1604 0.950 . S
C1610 C1611 1.327 . S
C1611 H1605 0.950 . S
C1611 C1610 1.327 . S
C1611 C1615 1.429 . S
C1612 C1595 1.574 . S
C1612 H1606 0.949 . S
C1612 C1616 1.368 . S
C1613 C1594 1.429 . S
C1613 C1607 1.429 . S
C1613 C1614 1.523 . S
C1614 C1595 1.368 . S
C1614 C1608 1.368 . S
C1614 C1613 1.523 . S
C1615 C1599 1.429 . S
C1615 C1611 1.429 . S
C1615 C1616 1.523 . S
C1616 C1600 1.368 . S
C1616 C1612 1.368 . S
C1616 C1615 1.523 . S
H1617 C1592 0.950 . S
H1618 C1594 0.950 . S
H1619 C1595 0.949 . S
H1620 C1597 0.950 . S
H1621 C1599 0.950 . S
C1622 C1623 1.349 . S
C1622 C1624 1.327 . S
C1622 H1647 0.950 . S
C1623 C1622 1.349 . S
C1623 C1639 1.349 . S
C1624 C1622 1.327 . S
C1624 C1643 1.429 . S
C1624 H1648 0.950 . S
C1625 C1642 1.574 . S
C1625 C1644 1.368 . S
C1625 H1649 0.949 . S
H1626 C1630 0.949 . S
C1627 C1628 1.349 . S
C1627 C1629 1.327 . S
C1627 H1650 0.961 . S
C1628 C1627 1.349 . S
C1628 C1640 1.349 . S
C1629 C1627 1.327 . S
C1629 C1645 1.429 . S
C1629 H1651 0.950 . S
C1630 H1626 0.949 . S
C1630 C1638 1.574 . S
C1630 C1646 1.368 . S
H1631 C1639 0.950 . S
H1632 C1637 0.950 . S
H1633 C1638 0.949 . S
H1634 C1640 0.950 . S
H1635 C1641 0.950 . S
H1636 C1642 0.949 . S
C1637 H1632 0.950 . S
C1637 C1639 1.327 . S
C1637 C1643 1.429 . S
C1638 C1630 1.574 . S
C1638 H1633 0.949 . S
C1638 C1644 1.368 . S
C1639 C1623 1.349 . S
C1639 H1631 0.950 . S
C1639 C1637 1.327 . S
C1640 C1628 1.349 . S
C1640 H1634 0.950 . S
C1640 C1641 1.327 . S
C1641 H1635 0.950 . S
C1641 C1640 1.327 . S
C1641 C1645 1.429 . S
C1642 C1625 1.574 . S
C1642 H1636 0.949 . S
C1642 C1646 1.368 . S
C1643 C1624 1.429 . S
C1643 C1637 1.429 . S
C1643 C1644 1.523 . S
C1644 C1625 1.368 . S
C1644 C1638 1.368 . S
C1644 C1643 1.523 . S
C1645 C1629 1.429 . S
C1645 C1641 1.429 . S
C1645 C1646 1.523 . S
C1646 C1630 1.368 . S
C1646 C1642 1.368 . S
C1646 C1645 1.523 . S
H1647 C1622 0.950 . S
H1648 C1624 0.950 . S
H1649 C1625 0.949 . S
H1650 C1627 0.961 . S
H1651 C1629 0.950 . S
C1652 C1653 1.349 . S
C1652 C1654 1.327 . S
C1652 H1677 0.950 . S
C1653 C1652 1.349 . S
C1653 C1669 1.349 . S
C1654 C1652 1.327 . S
C1654 C1673 1.429 . S
C1654 H1678 0.950 . S
C1655 C1672 1.574 . S
C1655 C1674 1.368 . S
C1655 H1679 0.949 . S
H1656 C1660 0.949 . S
C1657 C1658 1.349 . S
C1657 C1659 1.327 . S
C1657 H1680 0.950 . S
C1658 C1657 1.349 . S
C1658 C1670 1.349 . S
C1659 C1657 1.327 . S
C1659 C1675 1.429 . S
C1659 H1681 0.950 . S
C1660 H1656 0.949 . S
C1660 C1668 1.574 . S
C1660 C1676 1.368 . S
H1661 C1669 0.950 . S
H1662 C1667 0.950 . S
H1663 C1668 0.949 . S
H1664 C1670 0.950 . S
H1665 C1671 0.950 . S
H1666 C1672 0.949 . S
C1667 H1662 0.950 . S
C1667 C1669 1.327 . S
C1667 C1673 1.429 . S
C1668 C1660 1.574 . S
C1668 H1663 0.949 . S
C1668 C1674 1.368 . S
C1669 C1653 1.349 . S
C1669 H1661 0.950 . S
C1669 C1667 1.327 . S
C1670 C1658 1.349 . S
C1670 H1664 0.950 . S
C1670 C1671 1.327 . S
C1671 H1665 0.950 . S
C1671 C1670 1.327 . S
C1671 C1675 1.429 . S
C1672 C1655 1.574 . S
C1672 H1666 0.949 . S
C1672 C1676 1.368 . S
C1673 C1654 1.429 . S
C1673 C1667 1.429 . S
C1673 C1674 1.523 . S
C1674 C1655 1.368 . S
C1674 C1668 1.368 . S
C1674 C1673 1.523 . S
C1675 C1659 1.429 . S
C1675 C1671 1.429 . S
C1675 C1676 1.523 . S
C1676 C1660 1.368 . S
C1676 C1672 1.368 . S
C1676 C1675 1.523 . S
H1677 C1652 0.950 . S
H1678 C1654 0.950 . S
H1679 C1655 0.949 . S
H1680 C1657 0.950 . S
H1681 C1659 0.950 . S
C1682 C1683 1.349 . S
C1682 C1684 1.327 . S
C1682 H1707 0.950 . S
C1683 C1682 1.349 . S
C1683 C1699 1.349 . S
C1684 C1682 1.327 . S
C1684 C1703 1.429 . S
C1684 H1708 0.950 . S
C1685 C1702 1.573 . S
C1685 C1704 1.321 1_455 S
C1685 H1709 0.997 . S
H1686 C1690 0.949 . S
C1687 C1688 1.349 1_455 S
C1687 C1689 1.327 . S
C1687 H1710 0.950 . S
C1688 C1687 1.349 1_655 S
C1688 C1700 1.349 . S
C1689 C1687 1.327 . S
C1689 C1705 1.429 1_455 S
C1689 H1711 0.950 . S
C1690 H1686 0.949 . S
C1690 C1698 1.574 . S
C1690 C1706 1.368 . S
H1691 C1699 0.950 1_455 S
H1692 C1697 0.920 1_455 S
H1693 C1698 0.949 . S
H1694 C1700 0.950 . S
H1695 C1701 0.950 . S
H1696 C1702 0.949 . S
C1697 H1692 0.920 1_655 S
C1697 C1699 1.327 . S
C1697 C1703 1.460 . S
C1698 C1690 1.574 . S
C1698 H1693 0.949 . S
C1698 C1704 1.368 . S
C1699 C1683 1.349 . S
C1699 H1691 0.950 1_655 S
C1699 C1697 1.327 . S
C1700 C1688 1.349 . S
C1700 H1694 0.950 . S
C1700 C1701 1.327 . S
C1701 H1695 0.950 . S
C1701 C1700 1.327 . S
C1701 C1705 1.429 . S
C1702 C1685 1.573 . S
C1702 H1696 0.949 . S
C1702 C1706 1.368 1_455 S
C1703 C1684 1.429 . S
C1703 C1697 1.460 . S
C1703 C1704 1.523 . S
C1704 C1685 1.321 1_655 S
C1704 C1698 1.368 . S
C1704 C1703 1.523 . S
C1705 C1689 1.429 1_655 S
C1705 C1701 1.429 . S
C1705 C1706 1.523 . S
C1706 C1690 1.368 . S
C1706 C1702 1.368 1_655 S
C1706 C1705 1.523 . S
H1707 C1682 0.950 . S
H1708 C1684 0.950 . S
H1709 C1685 0.997 . S
H1710 C1687 0.950 . S
H1711 C1689 0.950 . S
C1712 C1713 1.349 . S
C1712 C1714 1.327 . S
C1712 H1737 0.950 . S
C1713 C1712 1.349 . S
C1713 C1729 1.349 . S
C1714 C1712 1.327 . S
C1714 C1733 1.429 . S
C1714 H1738 0.950 . S
C1715 C1732 1.574 . S
C1715 C1734 1.368 . S
C1715 H1739 0.949 . S
H1716 C1720 0.949 . S
C1717 C1718 1.349 . S
C1717 C1719 1.327 . S
C1717 H1740 0.950 . S
C1718 C1717 1.349 . S
C1718 C1730 1.349 . S
C1719 C1717 1.327 . S
C1719 C1735 1.429 . S
C1719 H1741 0.950 . S
C1720 H1716 0.949 . S
C1720 C1728 1.574 . S
C1720 C1736 1.368 . S
H1721 C1729 0.950 . S
H1722 C1727 0.950 . S
H1723 C1728 0.949 . S
H1724 C1730 0.950 . S
H1725 C1731 0.950 . S
H1726 C1732 0.949 . S
C1727 H1722 0.950 . S
C1727 C1729 1.327 . S
C1727 C1733 1.429 . S
C1728 C1720 1.574 . S
C1728 H1723 0.949 . S
C1728 C1734 1.368 . S
C1729 C1713 1.349 . S
C1729 H1721 0.950 . S
C1729 C1727 1.327 . S
C1730 C1718 1.349 . S
C1730 H1724 0.950 . S
C1730 C1731 1.327 . S
C1731 H1725 0.950 . S
C1731 C1730 1.327 . S
C1731 C1735 1.429 . S
C1732 C1715 1.574 . S
C1732 H1726 0.949 . S
C1732 C1736 1.368 . S
C1733 C1714 1.429 . S
C1733 C1727 1.429 . S
C1733 C1734 1.523 . S
C1734 C1715 1.368 . S
C1734 C1728 1.368 . S
C1734 C1733 1.523 . S
C1735 C1719 1.429 . S
C1735 C1731 1.429 . S
C1735 C1736 1.523 . S
C1736 C1720 1.368 . S
C1736 C1732 1.368 . S
C1736 C1735 1.523 . S
H1737 C1712 0.950 . S
H1738 C1714 0.950 . S
H1739 C1715 0.949 . S
H1740 C1717 0.950 . S
H1741 C1719 0.950 . S
C1742 C1743 1.349 . S
C1742 C1744 1.327 . S
C1742 H1767 0.950 . S
C1743 C1742 1.349 . S
C1743 C1759 1.349 . S
C1744 C1742 1.327 . S
C1744 C1763 1.429 . S
C1744 H1768 0.950 . S
C1745 C1762 1.574 . S
C1745 C1764 1.368 . S
C1745 H1769 0.949 . S
H1746 C1750 0.949 . S
C1747 C1748 1.349 . S
C1747 C1749 1.327 . S
C1747 H1770 0.950 . S
C1748 C1747 1.349 . S
C1748 C1760 1.349 . S
C1749 C1747 1.327 . S
C1749 C1765 1.429 . S
C1749 H1771 0.950 . S
C1750 H1746 0.949 . S
C1750 C1758 1.574 . S
C1750 C1766 1.368 . S
H1751 C1759 0.950 . S
H1752 C1757 0.950 . S
H1753 C1758 0.949 . S
H1754 C1760 0.950 . S
H1755 C1761 0.950 . S
H1756 C1762 0.949 . S
C1757 H1752 0.950 . S
C1757 C1759 1.327 . S
C1757 C1763 1.429 . S
C1758 C1750 1.574 . S
C1758 H1753 0.949 . S
C1758 C1764 1.368 . S
C1759 C1743 1.349 . S
C1759 H1751 0.950 . S
C1759 C1757 1.327 . S
C1760 C1748 1.349 . S
C1760 H1754 0.950 . S
C1760 C1761 1.327 . S
C1761 H1755 0.950 . S
C1761 C1760 1.327 . S
C1761 C1765 1.429 . S
C1762 C1745 1.574 . S
C1762 H1756 0.949 . S
C1762 C1766 1.368 . S
C1763 C1744 1.429 . S
C1763 C1757 1.429 . S
C1763 C1764 1.523 . S
C1764 C1745 1.368 . S
C1764 C1758 1.368 . S
C1764 C1763 1.523 . S
C1765 C1749 1.429 . S
C1765 C1761 1.429 . S
C1765 C1766 1.523 . S
C1766 C1750 1.368 . S
C1766 C1762 1.368 . S
C1766 C1765 1.523 . S
H1767 C1742 0.950 . S
H1768 C1744 0.950 . S
H1769 C1745 0.949 . S
H1770 C1747 0.950 . S
H1771 C1749 0.950 . S
C1772 C1773 1.349 1_565 S
C1772 C1774 1.327 . S
C1772 H1797 0.950 . S
C1773 C1772 1.349 1_545 S
C1773 C1789 1.349 . S
C1774 C1772 1.327 . S
C1774 C1793 1.429 . S
C1774 H1798 0.950 . S
C1775 C1792 1.574 1_556 S
C1775 C1794 1.368 . S
C1775 H1799 0.949 1_565 S
H1776 C1780 0.949 . S
C1777 C1778 1.349 . S
C1777 C1779 1.327 . S
C1777 H1800 0.950 . S
C1778 C1777 1.349 . S
C1778 C1790 1.349 . S
C1779 C1777 1.327 . S
C1779 C1795 1.429 . S
C1779 H1801 0.950 . S
C1780 H1776 0.949 . S
C1780 C1788 1.574 1_554 S
C1780 C1796 1.368 . S
H1781 C1789 0.950 . S
H1782 C1787 0.950 . S
H1783 C1788 0.949 . S
H1784 C1790 0.950 . S
H1785 C1791 0.950 . S
H1786 C1792 0.949 . S
C1787 H1782 0.950 . S
C1787 C1789 1.327 . S
C1787 C1793 1.429 1_545 S
C1788 C1780 1.574 1_556 S
C1788 H1783 0.949 . S
C1788 C1794 1.368 . S
C1789 C1773 1.349 . S
C1789 H1781 0.950 . S
C1789 C1787 1.327 . S
C1790 C1778 1.349 . S
C1790 H1784 0.950 . S
C1790 C1791 1.327 . S
C1791 H1785 0.950 . S
C1791 C1790 1.327 . S
C1791 C1795 1.429 . S
C1792 C1775 1.574 1_554 S
C1792 H1786 0.949 . S
C1792 C1796 1.368 . S
C1793 C1774 1.429 . S
C1793 C1787 1.429 1_565 S
C1793 C1794 1.523 . S
C1794 C1775 1.368 . S
C1794 C1788 1.368 . S
C1794 C1793 1.523 . S
C1795 C1779 1.429 . S
C1795 C1791 1.429 . S
C1795 C1796 1.523 . S
C1796 C1780 1.368 . S
C1796 C1792 1.368 . S
C1796 C1795 1.523 . S
H1797 C1772 0.950 . S
H1798 C1774 0.950 . S
H1799 C1775 0.949 1_545 S
H1800 C1777 0.950 . S
H1801 C1779 0.950 . S
C1802 C1803 1.349 . S
C1802 C1804 1.327 . S
C1802 H1827 0.950 . S
C1803 C1802 1.349 . S
C1803 C1819 1.349 . S
C1804 C1802 1.327 . S
C1804 C1823 1.429 . S
C1804 H1828 0.950 . S
C1805 C1822 1.574 . S
C1805 C1824 1.368 . S
C1805 H1829 0.949 . S
H1806 C1810 0.949 . S
C1807 C1808 1.349 . S
C1807 C1809 1.327 . S
C1807 H1830 0.950 . S
C1808 C1807 1.349 . S
C1808 C1820 1.349 . S
C1809 C1807 1.327 . S
C1809 C1825 1.429 . S
C1809 H1831 0.950 . S
C1810 H1806 0.949 . S
C1810 C1818 1.574 . S
C1810 C1826 1.368 . S
H1811 C1819 0.950 . S
H1812 C1817 0.950 . S
H1813 C1818 0.949 . S
H1814 C1820 0.950 . S
H1815 C1821 0.950 . S
H1816 C1822 0.949 . S
C1817 H1812 0.950 . S
C1817 C1819 1.327 . S
C1817 C1823 1.429 . S
C1818 C1810 1.574 . S
C1818 H1813 0.949 . S
C1818 C1824 1.368 . S
C1819 C1803 1.349 . S
C1819 H1811 0.950 . S
C1819 C1817 1.327 . S
C1820 C1808 1.349 . S
C1820 H1814 0.950 . S
C1820 C1821 1.327 . S
C1821 H1815 0.950 . S
C1821 C1820 1.327 . S
C1821 C1825 1.429 . S
C1822 C1805 1.574 . S
C1822 H1816 0.949 . S
C1822 C1826 1.368 . S
C1823 C1804 1.429 . S
C1823 C1817 1.429 . S
C1823 C1824 1.523 . S
C1824 C1805 1.368 . S
C1824 C1818 1.368 . S
C1824 C1823 1.523 . S
C1825 C1809 1.429 . S
C1825 C1821 1.429 . S
C1825 C1826 1.523 . S
C1826 C1810 1.368 . S
C1826 C1822 1.368 . S
C1826 C1825 1.523 . S
H1827 C1802 0.950 . S
H1828 C1804 0.950 . S
H1829 C1805 0.949 . S
H1830 C1807 0.950 . S
H1831 C1809 0.950 . S
C1832 C1833 1.349 . S
C1832 C1834 1.327 1_565 S
C1832 H1857 0.950 . S
C1833 C1832 1.349 . S
C1833 C1849 1.349 1_565 S
C1834 C1832 1.327 1_545 S
C1834 C1853 1.429 . S
C1834 H1858 0.950 . S
C1835 C1852 1.574 . S
C1835 C1854 1.368 . S
C1835 H1859 0.949 . S
H1836 C1840 0.949 . S
C1837 C1838 1.349 . S
C1837 C1839 1.327 . S
C1837 H1860 0.950 . S
C1838 C1837 1.349 . S
C1838 C1850 1.349 . S
C1839 C1837 1.327 . S
C1839 C1855 1.429 . S
C1839 H1861 0.950 . S
C1840 H1836 0.949 . S
C1840 C1848 1.574 . S
C1840 C1856 1.368 . S
H1841 C1849 0.950 . S
H1842 C1847 0.950 . S
H1843 C1848 0.949 . S
H1844 C1850 0.950 . S
H1845 C1851 0.950 . S
H1846 C1852 0.949 . S
C1847 H1842 0.950 . S
C1847 C1849 1.327 . S
C1847 C1853 1.429 . S
C1848 C1840 1.574 . S
C1848 H1843 0.949 . S
C1848 C1854 1.368 . S
C1849 C1833 1.349 1_545 S
C1849 H1841 0.950 . S
C1849 C1847 1.327 . S
C1850 C1838 1.349 . S
C1850 H1844 0.950 . S
C1850 C1851 1.327 . S
C1851 H1845 0.950 . S
C1851 C1850 1.327 . S
C1851 C1855 1.429 . S
C1852 C1835 1.574 . S
C1852 H1846 0.949 . S
C1852 C1856 1.368 . S
C1853 C1834 1.429 . S
C1853 C1847 1.429 . S
C1853 C1854 1.523 . S
C1854 C1835 1.368 . S
C1854 C1848 1.368 . S
C1854 C1853 1.523 . S
C1855 C1839 1.429 . S
C1855 C1851 1.429 . S
C1855 C1856 1.523 . S
C1856 C1840 1.368 . S
C1856 C1852 1.368 . S
C1856 C1855 1.523 . S
H1857 C1832 0.950 . S
H1858 C1834 0.950 . S
H1859 C1835 0.949 . S
H1860 C1837 0.950 . S
H1861 C1839 0.950 . S
C1862 C1863 1.349 . S
C1862 C1864 1.327 . S
C1862 H1887 0.950 . S
C1863 C1862 1.349 . S
C1863 C1879 1.349 . S
C1864 C1862 1.327 . S
C1864 C1883 1.429 . S
C1864 H1888 0.950 . S
C1865 C1882 1.574 . S
C1865 C1884 1.368 . S
C1865 H1889 0.949 . S
H1866 C1870 0.949 . S
C1867 C1868 1.349 . S
C1867 C1869 1.327 . S
C1867 H1890 0.950 . S
C1868 C1867 1.349 . S
C1868 C1880 1.349 . S
C1869 C1867 1.327 . S
C1869 C1885 1.429 . S
C1869 H1891 0.950 . S
C1870 H1866 0.949 . S
C1870 C1878 1.574 . S
C1870 C1886 1.368 . S
H1871 C1879 0.950 . S
H1872 C1877 0.950 . S
H1873 C1878 0.949 . S
H1874 C1880 0.950 . S
H1875 C1881 0.950 . S
H1876 C1882 0.949 . S
C1877 H1872 0.950 . S
C1877 C1879 1.327 . S
C1877 C1883 1.429 . S
C1878 C1870 1.574 . S
C1878 H1873 0.949 . S
C1878 C1884 1.368 . S
C1879 C1863 1.349 . S
C1879 H1871 0.950 . S
C1879 C1877 1.327 . S
C1880 C1868 1.349 . S
C1880 H1874 0.950 . S
C1880 C1881 1.327 . S
C1881 H1875 0.950 . S
C1881 C1880 1.327 . S
C1881 C1885 1.429 . S
C1882 C1865 1.574 . S
C1882 H1876 0.949 . S
C1882 C1886 1.368 . S
C1883 C1864 1.429 . S
C1883 C1877 1.429 . S
C1883 C1884 1.523 . S
C1884 C1865 1.368 . S
C1884 C1878 1.368 . S
C1884 C1883 1.523 . S
C1885 C1869 1.429 . S
C1885 C1881 1.429 . S
C1885 C1886 1.523 . S
C1886 C1870 1.368 . S
C1886 C1882 1.368 . S
C1886 C1885 1.523 . S
H1887 C1862 0.950 . S
H1888 C1864 0.950 . S
H1889 C1865 0.949 . S
H1890 C1867 0.950 . S
H1891 C1869 0.950 . S
C1892 C1893 1.349 . S
C1892 C1894 1.327 . S
C1892 H1917 0.950 . S
C1893 C1892 1.349 . S
C1893 C1909 1.349 . S
C1894 C1892 1.327 . S
C1894 C1913 1.429 . S
C1894 H1918 0.950 . S
C1895 C1912 1.574 . S
C1895 C1914 1.368 . S
C1895 H1919 0.949 . S
H1896 C1900 0.949 . S
C1897 C1898 1.349 . S
C1897 C1899 1.327 . S
C1897 H1920 0.950 . S
C1898 C1897 1.349 . S
C1898 C1910 1.349 . S
C1899 C1897 1.327 . S
C1899 C1915 1.429 . S
C1899 H1921 0.950 . S
C1900 H1896 0.949 . S
C1900 C1908 1.574 . S
C1900 C1916 1.368 . S
H1901 C1909 0.950 . S
H1902 C1907 0.950 . S
H1903 C1908 0.949 . S
H1904 C1910 0.950 . S
H1905 C1911 0.950 . S
H1906 C1912 0.949 . S
C1907 H1902 0.950 . S
C1907 C1909 1.327 . S
C1907 C1913 1.429 . S
C1908 C1900 1.574 . S
C1908 H1903 0.949 . S
C1908 C1914 1.368 . S
C1909 C1893 1.349 . S
C1909 H1901 0.950 . S
C1909 C1907 1.327 . S
C1910 C1898 1.349 . S
C1910 H1904 0.950 . S
C1910 C1911 1.327 . S
C1911 H1905 0.950 . S
C1911 C1910 1.327 . S
C1911 C1915 1.429 . S
C1912 C1895 1.574 . S
C1912 H1906 0.949 . S
C1912 C1916 1.368 . S
C1913 C1894 1.429 . S
C1913 C1907 1.429 . S
C1913 C1914 1.523 . S
C1914 C1895 1.368 . S
C1914 C1908 1.368 . S
C1914 C1913 1.523 . S
C1915 C1899 1.429 . S
C1915 C1911 1.429 . S
C1915 C1916 1.523 . S
C1916 C1900 1.368 . S
C1916 C1912 1.368 . S
C1916 C1915 1.523 . S
H1917 C1892 0.950 . S
H1918 C1894 0.950 . S
H1919 C1895 0.949 . S
H1920 C1897 0.950 . S
H1921 C1899 0.950 . S
C1922 C1923 1.349 . S
C1922 C1924 1.327 . S
C1922 H1947 0.950 . S
C1923 C1922 1.349 . S
C1923 C1939 1.349 . S
C1924 C1922 1.327 . S
C1924 C1943 1.429 . S
C1924 H1948 0.950 . S
C1925 C1942 1.574 . S
C1925 C1944 1.368 . S
C1925 H1949 0.949 . S
H1926 C1930 0.949 . S
C1927 C1928 1.349 . S
C1927 C1929 1.327 . S
C1927 H1950 0.950 . S
C1928 C1927 1.349 . S
C1928 C1940 1.349 . S
C1929 C1927 1.327 . S
C1929 C1945 1.429 . S
C1929 H1951 0.950 . S
C1930 H1926 0.949 . S
C1930 C1938 1.574 . S
C1930 C1946 1.368 . S
H1931 C1939 0.950 . S
H1932 C1937 0.950 . S
H1933 C1938 0.949 . S
H1934 C1940 0.950 . S
H1935 C1941 0.950 . S
H1936 C1942 0.949 . S
C1937 H1932 0.950 . S
C1937 C1939 1.327 . S
C1937 C1943 1.429 . S
C1938 C1930 1.574 . S
C1938 H1933 0.949 . S
C1938 C1944 1.368 . S
C1939 C1923 1.349 . S
C1939 H1931 0.950 . S
C1939 C1937 1.327 . S
C1940 C1928 1.349 . S
C1940 H1934 0.950 . S
C1940 C1941 1.327 . S
C1941 H1935 0.950 . S
C1941 C1940 1.327 . S
C1941 C1945 1.429 . S
C1942 C1925 1.574 . S
C1942 H1936 0.949 . S
C1942 C1946 1.368 . S
C1943 C1924 1.429 . S
C1943 C1937 1.429 . S
C1943 C1944 1.523 . S
C1944 C1925 1.368 . S
C1944 C1938 1.368 . S
C1944 C1943 1.523 . S
C1945 C1929 1.429 . S
C1945 C1941 1.429 . S
C1945 C1946 1.523 . S
C1946 C1930 1.368 . S
C1946 C1942 1.368 . S
C1946 C1945 1.523 . S
H1947 C1922 0.950 . S
H1948 C1924 0.950 . S
H1949 C1925 0.949 . S
H1950 C1927 0.950 . S
H1951 C1929 0.950 . S
C1952 C1953 1.349 . S
C1952 C1954 1.327 . S
C1952 H1977 0.950 . S
C1953 C1952 1.349 . S
C1953 C1969 1.349 . S
C1954 C1952 1.327 . S
C1954 C1973 1.429 . S
C1954 H1978 0.950 . S
C1955 C1972 1.574 . S
C1955 C1974 1.368 . S
C1955 H1979 0.949 . S
H1956 C1960 0.949 . S
C1957 C1958 1.349 . S
C1957 C1959 1.327 . S
C1957 H1980 0.950 . S
C1958 C1957 1.349 . S
C1958 C1970 1.349 . S
C1959 C1957 1.327 . S
C1959 C1975 1.429 . S
C1959 H1981 0.950 . S
C1960 H1956 0.949 . S
C1960 C1968 1.574 . S
C1960 C1976 1.368 . S
H1961 C1969 0.950 . S
H1962 C1967 0.950 . S
H1963 C1968 0.949 . S
H1964 C1970 0.950 . S
H1965 C1971 0.950 . S
H1966 C1972 0.949 . S
C1967 H1962 0.950 . S
C1967 C1969 1.327 . S
C1967 C1973 1.429 . S
C1968 C1960 1.574 . S
C1968 H1963 0.949 . S
C1968 C1974 1.368 . S
C1969 C1953 1.349 . S
C1969 H1961 0.950 . S
C1969 C1967 1.327 . S
C1970 C1958 1.349 . S
C1970 H1964 0.950 . S
C1970 C1971 1.327 . S
C1971 H1965 0.950 . S
C1971 C1970 1.327 . S
C1971 C1975 1.429 . S
C1972 C1955 1.574 . S
C1972 H1966 0.949 . S
C1972 C1976 1.368 . S
C1973 C1954 1.429 . S
C1973 C1967 1.429 . S
C1973 C1974 1.523 . S
C1974 C1955 1.368 . S
C1974 C1968 1.368 . S
C1974 C1973 1.523 . S
C1975 C1959 1.429 . S
C1975 C1971 1.429 . S
C1975 C1976 1.523 . S
C1976 C1960 1.368 . S
C1976 C1972 1.368 . S
C1976 C1975 1.523 . S
H1977 C1952 0.950 . S
H1978 C1954 0.950 . S
H1979 C1955 0.949 . S
H1980 C1957 0.950 . S
H1981 C1959 0.950 . S
C1982 C1983 1.349 . S
C1982 C1984 1.327 . S
C1982 H2007 0.950 . S
C1983 C1982 1.349 . S
C1983 C1999 1.349 . S
C1984 C1982 1.327 . S
C1984 C2003 1.429 . S
C1984 H2008 0.950 . S
C1985 C2002 1.574 . S
C1985 C2004 1.368 . S
C1985 H2009 0.920 1_545 S
H1986 C1990 0.949 . S
C1987 C1988 1.349 . S
C1987 C1989 1.327 . S
C1987 H2010 0.950 1_545 S
C1988 C1987 1.349 . S
C1988 C2000 1.349 . S
C1989 C1987 1.327 . S
C1989 C2005 1.429 . S
C1989 H2011 0.950 1_545 S
C1990 H1986 0.949 . S
C1990 C1998 1.574 . S
C1990 C2006 1.368 . S
H1991 C1999 0.950 . S
H1992 C1997 0.950 . S
H1993 C1998 0.949 . S
H1994 C2000 0.950 . S
H1995 C2001 0.950 . S
H1996 C2002 0.949 1_565 S
C1997 H1992 0.950 . S
C1997 C1999 1.327 . S
C1997 C2003 1.429 . S
C1998 C1990 1.574 . S
C1998 H1993 0.949 . S
C1998 C2004 1.368 . S
C1999 C1983 1.349 . S
C1999 H1991 0.950 . S
C1999 C1997 1.327 . S
C2000 C1988 1.349 . S
C2000 H1994 0.950 . S
C2000 C2001 1.327 . S
C2001 H1995 0.950 . S
C2001 C2000 1.327 . S
C2001 C2005 1.429 . S
C2002 C1985 1.574 . S
C2002 H1996 0.949 1_545 S
C2002 C2006 1.368 . S
C2003 C1984 1.429 . S
C2003 C1997 1.429 . S
C2003 C2004 1.523 . S
C2004 C1985 1.368 . S
C2004 C1998 1.368 . S
C2004 C2003 1.523 . S
C2005 C1989 1.429 . S
C2005 C2001 1.429 . S
C2005 C2006 1.523 . S
C2006 C1990 1.368 . S
C2006 C2002 1.368 . S
C2006 C2005 1.523 . S
H2007 C1982 0.950 . S
H2008 C1984 0.950 . S
H2009 C1985 0.920 1_565 S
H2010 C1987 0.950 1_565 S
H2011 C1989 0.950 1_565 S
C2012 C2013 1.349 . S
C2012 C2014 1.327 . S
C2012 H2037 0.950 . S
C2013 C2012 1.349 . S
C2013 C2029 1.349 . S
C2014 C2012 1.327 . S
C2014 C2033 1.429 . S
C2014 H2038 0.950 . S
C2015 C2032 1.574 . S
C2015 C2034 1.368 . S
C2015 H2039 0.949 . S
H2016 C2020 0.949 . S
C2017 C2018 1.349 . S
C2017 C2019 1.327 . S
C2017 H2040 0.950 . S
C2018 C2017 1.349 . S
C2018 C2030 1.349 . S
C2019 C2017 1.327 . S
C2019 C2035 1.429 . S
C2019 H2041 0.950 . S
C2020 H2016 0.949 . S
C2020 C2028 1.574 . S
C2020 C2036 1.368 . S
H2021 C2029 0.950 . S
H2022 C2027 0.950 . S
H2023 C2028 0.949 . S
H2024 C2030 0.950 . S
H2025 C2031 0.950 . S
H2026 C2032 0.949 . S
C2027 H2022 0.950 . S
C2027 C2029 1.327 . S
C2027 C2033 1.429 . S
C2028 C2020 1.574 . S
C2028 H2023 0.949 . S
C2028 C2034 1.368 . S
C2029 C2013 1.349 . S
C2029 H2021 0.950 . S
C2029 C2027 1.327 . S
C2030 C2018 1.349 . S
C2030 H2024 0.950 . S
C2030 C2031 1.327 . S
C2031 H2025 0.950 . S
C2031 C2030 1.327 . S
C2031 C2035 1.429 . S
C2032 C2015 1.574 . S
C2032 H2026 0.949 . S
C2032 C2036 1.368 . S
C2033 C2014 1.429 . S
C2033 C2027 1.429 . S
C2033 C2034 1.523 . S
C2034 C2015 1.368 . S
C2034 C2028 1.368 . S
C2034 C2033 1.523 . S
C2035 C2019 1.429 . S
C2035 C2031 1.429 . S
C2035 C2036 1.523 . S
C2036 C2020 1.368 . S
C2036 C2032 1.368 . S
C2036 C2035 1.523 . S
H2037 C2012 0.950 . S
H2038 C2014 0.950 . S
H2039 C2015 0.949 . S
H2040 C2017 0.950 . S
H2041 C2019 0.950 . S
C2042 C2043 1.349 . S
C2042 C2044 1.327 . S
C2042 H2067 0.950 . S
C2043 C2042 1.349 . S
C2043 C2059 1.349 . S
C2044 C2042 1.327 . S
C2044 C2063 1.429 . S
C2044 H2068 0.950 . S
C2045 C2062 1.574 . S
C2045 C2064 1.368 . S
C2045 H2069 0.949 . S
H2046 C2050 0.949 . S
C2047 C2048 1.349 . S
C2047 C2049 1.327 . S
C2047 H2070 0.950 . S
C2048 C2047 1.349 . S
C2048 C2060 1.349 . S
C2049 C2047 1.327 . S
C2049 C2065 1.429 . S
C2049 H2071 0.950 . S
C2050 H2046 0.949 . S
C2050 C2058 1.574 . S
C2050 C2066 1.368 . S
H2051 C2059 0.950 . S
H2052 C2057 0.950 . S
H2053 C2058 0.949 . S
H2054 C2060 0.950 . S
H2055 C2061 0.950 . S
H2056 C2062 0.949 . S
C2057 H2052 0.950 . S
C2057 C2059 1.327 . S
C2057 C2063 1.429 . S
C2058 C2050 1.574 . S
C2058 H2053 0.949 . S
C2058 C2064 1.368 . S
C2059 C2043 1.349 . S
C2059 H2051 0.950 . S
C2059 C2057 1.327 . S
C2060 C2048 1.349 . S
C2060 H2054 0.950 . S
C2060 C2061 1.327 . S
C2061 H2055 0.950 . S
C2061 C2060 1.327 . S
C2061 C2065 1.429 . S
C2062 C2045 1.574 . S
C2062 H2056 0.949 . S
C2062 C2066 1.368 . S
C2063 C2044 1.429 . S
C2063 C2057 1.429 . S
C2063 C2064 1.523 . S
C2064 C2045 1.368 . S
C2064 C2058 1.368 . S
C2064 C2063 1.523 . S
C2065 C2049 1.429 . S
C2065 C2061 1.429 . S
C2065 C2066 1.523 . S
C2066 C2050 1.368 . S
C2066 C2062 1.368 . S
C2066 C2065 1.523 . S
H2067 C2042 0.950 . S
H2068 C2044 0.950 . S
H2069 C2045 0.949 . S
H2070 C2047 0.950 . S
H2071 C2049 0.950 . S
C2072 C2073 1.349 . S
C2072 C2074 1.327 . S
C2072 H2097 0.950 . S
C2073 C2072 1.349 . S
C2073 C2089 1.349 . S
C2074 C2072 1.327 . S
C2074 C2093 1.429 . S
C2074 H2098 0.950 . S
C2075 C2092 1.574 . S
C2075 C2094 1.368 . S
C2075 H2099 0.949 . S
H2076 C2080 0.949 . S
C2077 C2078 1.349 . S
C2077 C2079 1.327 . S
C2077 H2100 0.950 . S
C2078 C2077 1.349 . S
C2078 C2090 1.349 . S
C2079 C2077 1.327 . S
C2079 C2095 1.429 . S
C2079 H2101 0.950 . S
C2080 H2076 0.949 . S
C2080 C2088 1.574 . S
C2080 C2096 1.368 . S
H2081 C2089 0.950 . S
H2082 C2087 0.950 . S
H2083 C2088 0.949 . S
H2084 C2090 0.950 . S
H2085 C2091 0.950 . S
H2086 C2092 0.949 . S
C2087 H2082 0.950 . S
C2087 C2089 1.327 . S
C2087 C2093 1.429 . S
C2088 C2080 1.574 . S
C2088 H2083 0.949 . S
C2088 C2094 1.368 . S
C2089 C2073 1.349 . S
C2089 H2081 0.950 . S
C2089 C2087 1.327 . S
C2090 C2078 1.349 . S
C2090 H2084 0.950 . S
C2090 C2091 1.327 . S
C2091 H2085 0.950 . S
C2091 C2090 1.327 . S
C2091 C2095 1.429 . S
C2092 C2075 1.574 . S
C2092 H2086 0.949 . S
C2092 C2096 1.368 . S
C2093 C2074 1.429 . S
C2093 C2087 1.429 . S
C2093 C2094 1.523 . S
C2094 C2075 1.368 . S
C2094 C2088 1.368 . S
C2094 C2093 1.523 . S
C2095 C2079 1.429 . S
C2095 C2091 1.429 . S
C2095 C2096 1.523 . S
C2096 C2080 1.368 . S
C2096 C2092 1.368 . S
C2096 C2095 1.523 . S
H2097 C2072 0.950 . S
H2098 C2074 0.950 . S
H2099 C2075 0.949 . S
H2100 C2077 0.950 . S
H2101 C2079 0.950 . S
C2102 C2103 1.349 . S
C2102 C2104 1.327 . S
C2102 H2127 0.950 . S
C2103 C2102 1.349 . S
C2103 C2119 1.349 . S
C2104 C2102 1.327 . S
C2104 C2123 1.429 . S
C2104 H2128 0.950 . S
C2105 C2122 1.574 1_455 S
C2105 C2124 1.368 . S
C2105 H2129 0.948 1_455 S
H2106 C2110 0.949 . S
C2107 C2108 1.349 . S
C2107 C2109 1.327 . S
C2107 H2130 0.950 . S
C2108 C2107 1.349 . S
C2108 C2120 1.349 . S
C2109 C2107 1.327 . S
C2109 C2125 1.429 . S
C2109 H2131 0.950 . S
C2110 H2106 0.949 . S
C2110 C2118 1.574 . S
C2110 C2126 1.368 1_455 S
H2111 C2119 0.950 . S
H2112 C2117 0.950 . S
H2113 C2118 0.949 . S
H2114 C2120 0.950 . S
H2115 C2121 0.950 . S
H2116 C2122 0.949 . S
C2117 H2112 0.950 . S
C2117 C2119 1.327 . S
C2117 C2123 1.429 . S
C2118 C2110 1.574 . S
C2118 H2113 0.949 . S
C2118 C2124 1.368 . S
C2119 C2103 1.349 . S
C2119 H2111 0.950 . S
C2119 C2117 1.327 . S
C2120 C2108 1.349 . S
C2120 H2114 0.950 . S
C2120 C2121 1.327 . S
C2121 H2115 0.950 . S
C2121 C2120 1.327 . S
C2121 C2125 1.429 . S
C2122 C2105 1.574 1_655 S
C2122 H2116 0.949 . S
C2122 C2126 1.368 . S
C2123 C2104 1.429 . S
C2123 C2117 1.429 . S
C2123 C2124 1.523 . S
C2124 C2105 1.368 . S
C2124 C2118 1.368 . S
C2124 C2123 1.523 . S
C2125 C2109 1.429 . S
C2125 C2121 1.429 . S
C2125 C2126 1.523 . S
C2126 C2110 1.368 1_655 S
C2126 C2122 1.368 . S
C2126 C2125 1.523 . S
H2127 C2102 0.950 . S
H2128 C2104 0.950 . S
H2129 C2105 0.948 1_655 S
H2130 C2107 0.950 . S
H2131 C2109 0.950 . S
C2132 C2133 1.349 . S
C2132 C2134 1.327 . S
C2132 H2157 0.950 . S
C2133 C2132 1.349 . S
C2133 C2149 1.349 . S
C2134 C2132 1.327 . S
C2134 C2153 1.429 . S
C2134 H2158 0.950 . S
C2135 C2152 1.574 . S
C2135 C2154 1.368 . S
C2135 H2159 0.949 . S
H2136 C2140 0.949 . S
C2137 C2138 1.349 . S
C2137 C2139 1.327 . S
C2137 H2160 0.950 . S
C2138 C2137 1.349 . S
C2138 C2150 1.349 . S
C2139 C2137 1.327 . S
C2139 C2155 1.429 . S
C2139 H2161 0.950 . S
C2140 H2136 0.949 . S
C2140 C2148 1.574 . S
C2140 C2156 1.368 . S
H2141 C2149 0.950 . S
H2142 C2147 0.950 . S
H2143 C2148 0.949 . S
H2144 C2150 0.950 . S
H2145 C2151 0.950 . S
H2146 C2152 0.949 . S
C2147 H2142 0.950 . S
C2147 C2149 1.327 . S
C2147 C2153 1.429 . S
C2148 C2140 1.574 . S
C2148 H2143 0.949 . S
C2148 C2154 1.368 . S
C2149 C2133 1.349 . S
C2149 H2141 0.950 . S
C2149 C2147 1.327 . S
C2150 C2138 1.349 . S
C2150 H2144 0.950 . S
C2150 C2151 1.327 . S
C2151 H2145 0.950 . S
C2151 C2150 1.327 . S
C2151 C2155 1.429 . S
C2152 C2135 1.574 . S
C2152 H2146 0.949 . S
C2152 C2156 1.368 . S
C2153 C2134 1.429 . S
C2153 C2147 1.429 . S
C2153 C2154 1.523 . S
C2154 C2135 1.368 . S
C2154 C2148 1.368 . S
C2154 C2153 1.523 . S
C2155 C2139 1.429 . S
C2155 C2151 1.429 . S
C2155 C2156 1.523 . S
C2156 C2140 1.368 . S
C2156 C2152 1.368 . S
C2156 C2155 1.523 . S
H2157 C2132 0.950 . S
H2158 C2134 0.950 . S
H2159 C2135 0.949 . S
H2160 C2137 0.950 . S
H2161 C2139 0.950 . S
C2162 C2163 1.349 . S
C2162 C2164 1.327 . S
C2162 H2187 0.950 1_455 S
C2163 C2162 1.349 . S
C2163 C2179 1.349 . S
C2164 C2162 1.327 . S
C2164 C2183 1.429 . S
C2164 H2188 0.950 . S
C2165 C2182 1.574 . S
C2165 C2184 1.368 . S
C2165 H2189 0.949 . S
H2166 C2170 0.949 . S
C2167 C2168 1.349 . S
C2167 C2169 1.327 . S
C2167 H2190 0.950 . S
C2168 C2167 1.349 . S
C2168 C2180 1.349 . S
C2169 C2167 1.327 . S
C2169 C2185 1.429 . S
C2169 H2191 0.950 . S
C2170 H2166 0.949 . S
C2170 C2178 1.574 . S
C2170 C2186 1.368 . S
H2171 C2179 0.950 . S
H2172 C2177 0.950 . S
H2173 C2178 0.949 . S
H2174 C2180 0.950 . S
H2175 C2181 0.950 . S
H2176 C2182 0.949 . S
C2177 H2172 0.950 . S
C2177 C2179 1.327 . S
C2177 C2183 1.429 . S
C2178 C2170 1.574 . S
C2178 H2173 0.949 . S
C2178 C2184 1.368 . S
C2179 C2163 1.349 . S
C2179 H2171 0.950 . S
C2179 C2177 1.327 . S
C2180 C2168 1.349 . S
C2180 H2174 0.950 . S
C2180 C2181 1.327 . S
C2181 H2175 0.950 . S
C2181 C2180 1.327 . S
C2181 C2185 1.429 . S
C2182 C2165 1.574 . S
C2182 H2176 0.949 . S
C2182 C2186 1.368 . S
C2183 C2164 1.429 . S
C2183 C2177 1.429 . S
C2183 C2184 1.523 . S
C2184 C2165 1.368 . S
C2184 C2178 1.368 . S
C2184 C2183 1.523 . S
C2185 C2169 1.429 . S
C2185 C2181 1.429 . S
C2185 C2186 1.523 . S
C2186 C2170 1.368 . S
C2186 C2182 1.368 . S
C2186 C2185 1.523 . S
H2187 C2162 0.950 1_655 S
H2188 C2164 0.950 . S
H2189 C2165 0.949 . S
H2190 C2167 0.950 . S
H2191 C2169 0.950 . S
C2192 C2193 1.349 . S
C2192 C2194 1.327 . S
C2192 H2217 0.950 . S
C2193 C2192 1.349 . S
C2193 C2209 1.349 . S
C2194 C2192 1.327 . S
C2194 C2213 1.429 . S
C2194 H2218 0.950 . S
C2195 C2212 1.574 . S
C2195 C2214 1.368 . S
C2195 H2219 0.949 . S
H2196 C2200 0.949 . S
C2197 C2198 1.349 . S
C2197 C2199 1.327 . S
C2197 H2220 0.950 . S
C2198 C2197 1.349 . S
C2198 C2210 1.349 . S
C2199 C2197 1.327 . S
C2199 C2215 1.429 . S
C2199 H2221 0.950 . S
C2200 H2196 0.949 . S
C2200 C2208 1.574 . S
C2200 C2216 1.368 . S
H2201 C2209 0.950 . S
H2202 C2207 0.950 . S
H2203 C2208 0.949 . S
H2204 C2210 0.950 . S
H2205 C2211 0.950 . S
H2206 C2212 0.949 . S
C2207 H2202 0.950 . S
C2207 C2209 1.327 . S
C2207 C2213 1.429 . S
C2208 C2200 1.574 . S
C2208 H2203 0.949 . S
C2208 C2214 1.368 . S
C2209 C2193 1.349 . S
C2209 H2201 0.950 . S
C2209 C2207 1.327 . S
C2210 C2198 1.349 . S
C2210 H2204 0.950 . S
C2210 C2211 1.327 . S
C2211 H2205 0.950 . S
C2211 C2210 1.327 . S
C2211 C2215 1.429 . S
C2212 C2195 1.574 . S
C2212 H2206 0.949 . S
C2212 C2216 1.368 . S
C2213 C2194 1.429 . S
C2213 C2207 1.429 . S
C2213 C2214 1.523 . S
C2214 C2195 1.368 . S
C2214 C2208 1.368 . S
C2214 C2213 1.523 . S
C2215 C2199 1.429 . S
C2215 C2211 1.429 . S
C2215 C2216 1.523 . S
C2216 C2200 1.368 . S
C2216 C2212 1.368 . S
C2216 C2215 1.523 . S
H2217 C2192 0.950 . S
H2218 C2194 0.950 . S
H2219 C2195 0.949 . S
H2220 C2197 0.950 . S
H2221 C2199 0.950 . S
C2222 C2223 1.349 . S
C2222 C2224 1.327 . S
C2222 H2247 0.950 . S
C2223 C2222 1.349 . S
C2223 C2239 1.349 1_655 S
C2224 C2222 1.327 . S
C2224 C2243 1.429 1_554 S
C2224 H2248 0.950 . S
C2225 C2242 1.574 . S
C2225 C2244 1.368 1_455 S
C2225 H2249 0.949 . S
H2226 C2230 0.949 . S
C2227 C2228 1.349 . S
C2227 C2229 1.327 . S
C2227 H2250 0.950 . S
C2228 C2227 1.349 . S
C2228 C2240 1.349 1_455 S
C2229 C2227 1.327 . S
C2229 C2245 1.429 . S
C2229 H2251 0.950 . S
C2230 H2226 0.949 . S
C2230 C2238 1.574 . S
C2230 C2246 1.323 1_655 S
H2231 C2239 0.956 . S
H2232 C2237 0.950 . S
H2233 C2238 0.949 . S
H2234 C2240 0.950 . S
H2235 C2241 0.950 . S
H2236 C2242 0.949 . S
C2237 H2232 0.950 . S
C2237 C2239 1.327 1_556 S
C2237 C2243 1.429 1_455 S
C2238 C2230 1.574 . S
C2238 H2233 0.949 . S
C2238 C2244 1.368 . S
C2239 C2223 1.349 1_455 S
C2239 H2231 0.956 . S
C2239 C2237 1.327 1_554 S
C2240 C2228 1.349 1_655 S
C2240 H2234 0.950 . S
C2240 C2241 1.327 . S
C2241 H2235 0.950 . S
C2241 C2240 1.327 . S
C2241 C2245 1.429 1_655 S
C2242 C2225 1.574 . S
C2242 H2236 0.949 . S
C2242 C2246 1.407 . S
C2243 C2224 1.429 1_556 S
C2243 C2237 1.429 1_655 S
C2243 C2244 1.523 . S
C2244 C2225 1.368 1_655 S
C2244 C2238 1.368 . S
C2244 C2243 1.523 . S
C2245 C2229 1.429 . S
C2245 C2241 1.429 1_455 S
C2245 C2246 1.533 . S
C2246 C2230 1.323 1_455 S
C2246 C2242 1.407 . S
C2246 C2245 1.533 . S
H2247 C2222 0.950 . S
H2248 C2224 0.950 . S
H2249 C2225 0.949 . S
H2250 C2227 0.950 . S
H2251 C2229 0.950 . S
C2252 C2253 1.349 . S
C2252 C2254 1.327 . S
C2252 H2277 0.950 . S
C2253 C2252 1.349 . S
C2253 C2269 1.349 . S
C2254 C2252 1.327 . S
C2254 C2273 1.429 . S
C2254 H2278 0.950 . S
C2255 C2272 1.574 . S
C2255 C2274 1.368 . S
C2255 H2279 0.949 . S
H2256 C2260 0.949 . S
C2257 C2258 1.349 . S
C2257 C2259 1.327 . S
C2257 H2280 0.950 . S
C2258 C2257 1.349 . S
C2258 C2270 1.349 . S
C2259 C2257 1.327 . S
C2259 C2275 1.429 . S
C2259 H2281 0.950 . S
C2260 H2256 0.949 . S
C2260 C2268 1.574 . S
C2260 C2276 1.368 . S
H2261 C2269 0.950 . S
H2262 C2267 0.950 . S
H2263 C2268 0.949 . S
H2264 C2270 0.950 . S
H2265 C2271 0.950 . S
H2266 C2272 0.949 . S
C2267 H2262 0.950 . S
C2267 C2269 1.327 . S
C2267 C2273 1.429 . S
C2268 C2260 1.574 . S
C2268 H2263 0.949 . S
C2268 C2274 1.368 . S
C2269 C2253 1.349 . S
C2269 H2261 0.950 . S
C2269 C2267 1.327 . S
C2270 C2258 1.349 . S
C2270 H2264 0.950 . S
C2270 C2271 1.327 . S
C2271 H2265 0.950 . S
C2271 C2270 1.327 . S
C2271 C2275 1.429 . S
C2272 C2255 1.574 . S
C2272 H2266 0.949 . S
C2272 C2276 1.368 . S
C2273 C2254 1.429 . S
C2273 C2267 1.429 . S
C2273 C2274 1.523 . S
C2274 C2255 1.368 . S
C2274 C2268 1.368 . S
C2274 C2273 1.523 . S
C2275 C2259 1.429 . S
C2275 C2271 1.429 . S
C2275 C2276 1.523 . S
C2276 C2260 1.368 . S
C2276 C2272 1.368 . S
C2276 C2275 1.523 . S
H2277 C2252 0.950 . S
H2278 C2254 0.950 . S
H2279 C2255 0.949 . S
H2280 C2257 0.950 . S
H2281 C2259 0.950 . S
C2282 C2283 1.349 . S
C2282 C2284 1.327 . S
C2282 H2307 0.950 . S
C2283 C2282 1.349 . S
C2283 C2299 1.349 . S
C2284 C2282 1.327 . S
C2284 C2303 1.429 . S
C2284 H2308 0.950 . S
C2285 C2302 1.574 . S
C2285 C2304 1.368 . S
C2285 H2309 0.949 . S
H2286 C2290 0.949 . S
C2287 C2288 1.349 . S
C2287 C2289 1.327 . S
C2287 H2310 0.950 . S
C2288 C2287 1.349 . S
C2288 C2300 1.349 . S
C2289 C2287 1.327 . S
C2289 C2305 1.429 . S
C2289 H2311 0.950 . S
C2290 H2286 0.949 . S
C2290 C2298 1.574 . S
C2290 C2306 1.368 . S
H2291 C2299 0.950 . S
H2292 C2297 0.950 . S
H2293 C2298 0.949 1_554 S
H2294 C2300 0.950 . S
H2295 C2301 0.950 . S
H2296 C2302 0.949 . S
C2297 H2292 0.950 . S
C2297 C2299 1.327 1_556 S
C2297 C2303 1.429 1_556 S
C2298 C2290 1.574 . S
C2298 H2293 0.949 1_556 S
C2298 C2304 1.368 . S
C2299 C2283 1.349 . S
C2299 H2291 0.950 . S
C2299 C2297 1.327 1_554 S
C2300 C2288 1.349 . S
C2300 H2294 0.950 . S
C2300 C2301 1.327 . S
C2301 H2295 0.950 . S
C2301 C2300 1.327 . S
C2301 C2305 1.429 . S
C2302 C2285 1.574 . S
C2302 H2296 0.949 . S
C2302 C2306 1.368 . S
C2303 C2284 1.429 . S
C2303 C2297 1.429 1_554 S
C2303 C2304 1.523 1_554 S
C2304 C2285 1.368 . S
C2304 C2298 1.368 . S
C2304 C2303 1.523 1_556 S
C2305 C2289 1.429 . S
C2305 C2301 1.429 . S
C2305 C2306 1.523 . S
C2306 C2290 1.368 . S
C2306 C2302 1.368 . S
C2306 C2305 1.523 . S
H2307 C2282 0.950 . S
H2308 C2284 0.950 . S
H2309 C2285 0.949 . S
H2310 C2287 0.950 . S
H2311 C2289 0.950 . S
C2312 C2313 1.349 . S
C2312 C2314 1.327 . S
C2312 H2337 0.950 . S
C2313 C2312 1.349 . S
C2313 C2329 1.349 . S
C2314 C2312 1.327 . S
C2314 C2333 1.429 . S
C2314 H2338 0.950 . S
C2315 C2332 1.574 . S
C2315 C2334 1.368 . S
C2315 H2339 0.949 . S
H2316 C2320 0.949 . S
C2317 C2318 1.349 . S
C2317 C2319 1.327 . S
C2317 H2340 0.950 . S
C2318 C2317 1.349 . S
C2318 C2330 1.349 . S
C2319 C2317 1.327 . S
C2319 C2335 1.429 . S
C2319 H2341 0.950 . S
C2320 H2316 0.949 . S
C2320 C2328 1.574 . S
C2320 C2336 1.368 . S
H2321 C2329 0.950 . S
H2322 C2327 0.950 . S
H2323 C2328 0.949 . S
H2324 C2330 0.950 . S
H2325 C2331 0.950 . S
H2326 C2332 0.949 . S
C2327 H2322 0.950 . S
C2327 C2329 1.327 . S
C2327 C2333 1.429 . S
C2328 C2320 1.574 . S
C2328 H2323 0.949 . S
C2328 C2334 1.368 . S
C2329 C2313 1.349 . S
C2329 H2321 0.950 . S
C2329 C2327 1.327 . S
C2330 C2318 1.349 . S
C2330 H2324 0.950 . S
C2330 C2331 1.327 . S
C2331 H2325 0.950 . S
C2331 C2330 1.327 . S
C2331 C2335 1.429 . S
C2332 C2315 1.574 . S
C2332 H2326 0.949 . S
C2332 C2336 1.368 . S
C2333 C2314 1.429 . S
C2333 C2327 1.429 . S
C2333 C2334 1.523 . S
C2334 C2315 1.368 . S
C2334 C2328 1.368 . S
C2334 C2333 1.523 . S
C2335 C2319 1.429 . S
C2335 C2331 1.429 . S
C2335 C2336 1.523 . S
C2336 C2320 1.368 . S
C2336 C2332 1.368 . S
C2336 C2335 1.523 . S
H2337 C2312 0.950 . S
H2338 C2314 0.950 . S
H2339 C2315 0.949 . S
H2340 C2317 0.950 . S
H2341 C2319 0.950 . S
C2342 C2343 1.349 . S
C2342 C2344 1.327 . S
C2342 H2367 0.950 . S
C2343 C2342 1.349 . S
C2343 C2359 1.349 . S
C2344 C2342 1.327 . S
C2344 C2363 1.429 . S
C2344 H2368 0.950 . S
C2345 C2362 1.574 . S
C2345 C2364 1.368 . S
C2345 H2369 0.949 . S
H2346 C2350 0.949 . S
C2347 C2348 1.349 . S
C2347 C2349 1.327 . S
C2347 H2370 0.950 . S
C2348 C2347 1.349 . S
C2348 C2360 1.349 . S
C2349 C2347 1.327 . S
C2349 C2365 1.429 . S
C2349 H2371 0.950 . S
C2350 H2346 0.949 . S
C2350 C2358 1.574 . S
C2350 C2366 1.368 . S
H2351 C2359 0.950 . S
H2352 C2357 0.950 . S
H2353 C2358 0.949 . S
H2354 C2360 0.950 . S
H2355 C2361 0.950 . S
H2356 C2362 0.949 . S
C2357 H2352 0.950 . S
C2357 C2359 1.327 . S
C2357 C2363 1.429 . S
C2358 C2350 1.574 . S
C2358 H2353 0.949 . S
C2358 C2364 1.368 . S
C2359 C2343 1.349 . S
C2359 H2351 0.950 . S
C2359 C2357 1.327 . S
C2360 C2348 1.349 . S
C2360 H2354 0.950 . S
C2360 C2361 1.327 . S
C2361 H2355 0.950 . S
C2361 C2360 1.327 . S
C2361 C2365 1.429 . S
C2362 C2345 1.574 . S
C2362 H2356 0.949 . S
C2362 C2366 1.368 . S
C2363 C2344 1.429 . S
C2363 C2357 1.429 . S
C2363 C2364 1.523 . S
C2364 C2345 1.368 . S
C2364 C2358 1.368 . S
C2364 C2363 1.523 . S
C2365 C2349 1.429 . S
C2365 C2361 1.429 . S
C2365 C2366 1.523 . S
C2366 C2350 1.368 . S
C2366 C2362 1.368 . S
C2366 C2365 1.523 . S
H2367 C2342 0.950 . S
H2368 C2344 0.950 . S
H2369 C2345 0.949 . S
H2370 C2347 0.950 . S
H2371 C2349 0.950 . S
C2372 C2373 1.349 . S
C2372 C2374 1.327 . S
C2372 H2397 0.950 . S
C2373 C2372 1.349 . S
C2373 C2389 1.349 . S
C2374 C2372 1.327 . S
C2374 C2393 1.429 . S
C2374 H2398 0.950 . S
C2375 C2392 1.574 . S
C2375 C2394 1.368 . S
C2375 H2399 0.949 . S
H2376 C2380 0.949 . S
C2377 C2378 1.349 . S
C2377 C2379 1.327 . S
C2377 H2400 0.950 . S
C2378 C2377 1.349 . S
C2378 C2390 1.349 . S
C2379 C2377 1.327 . S
C2379 C2395 1.429 . S
C2379 H2401 0.950 . S
C2380 H2376 0.949 . S
C2380 C2388 1.574 . S
C2380 C2396 1.368 . S
H2381 C2389 0.950 . S
H2382 C2387 0.950 . S
H2383 C2388 0.949 . S
H2384 C2390 0.950 . S
H2385 C2391 0.950 . S
H2386 C2392 0.949 . S
C2387 H2382 0.950 . S
C2387 C2389 1.327 . S
C2387 C2393 1.429 . S
C2388 C2380 1.574 . S
C2388 H2383 0.949 . S
C2388 C2394 1.368 . S
C2389 C2373 1.349 . S
C2389 H2381 0.950 . S
C2389 C2387 1.327 . S
C2390 C2378 1.349 . S
C2390 H2384 0.950 . S
C2390 C2391 1.327 . S
C2391 H2385 0.950 . S
C2391 C2390 1.327 . S
C2391 C2395 1.429 . S
C2392 C2375 1.574 . S
C2392 H2386 0.949 . S
C2392 C2396 1.368 . S
C2393 C2374 1.429 . S
C2393 C2387 1.429 . S
C2393 C2394 1.523 . S
C2394 C2375 1.368 . S
C2394 C2388 1.368 . S
C2394 C2393 1.523 . S
C2395 C2379 1.429 . S
C2395 C2391 1.429 . S
C2395 C2396 1.523 . S
C2396 C2380 1.368 . S
C2396 C2392 1.368 . S
C2396 C2395 1.523 . S
H2397 C2372 0.950 . S
H2398 C2374 0.950 . S
H2399 C2375 0.949 . S
H2400 C2377 0.950 . S
H2401 C2379 0.950 . S
C2402 C2403 1.349 . S
C2402 C2404 1.327 1_556 S
C2402 H2427 0.950 . S
C2403 C2402 1.349 . S
C2403 C2419 1.349 1_556 S
C2404 C2402 1.327 1_554 S
C2404 C2423 1.429 . S
C2404 H2428 0.966 . S
C2405 C2422 1.574 . S
C2405 C2424 1.368 . S
C2405 H2429 0.949 . S
H2406 C2410 0.949 . S
C2407 C2408 1.349 . S
C2407 C2409 1.327 . S
C2407 H2430 0.950 . S
C2408 C2407 1.349 . S
C2408 C2420 1.349 . S
C2409 C2407 1.327 . S
C2409 C2425 1.429 . S
C2409 H2431 0.950 . S
C2410 H2406 0.949 . S
C2410 C2418 1.574 . S
C2410 C2426 1.368 . S
H2411 C2419 0.950 . S
H2412 C2417 0.950 . S
H2413 C2418 0.949 . S
H2414 C2420 0.950 . S
H2415 C2421 0.950 . S
H2416 C2422 0.949 . S
C2417 H2412 0.950 . S
C2417 C2419 1.327 . S
C2417 C2423 1.429 . S
C2418 C2410 1.574 . S
C2418 H2413 0.949 . S
C2418 C2424 1.368 . S
C2419 C2403 1.349 1_554 S
C2419 H2411 0.950 . S
C2419 C2417 1.327 . S
C2420 C2408 1.349 . S
C2420 H2414 0.950 . S
C2420 C2421 1.327 . S
C2421 H2415 0.950 . S
C2421 C2420 1.327 . S
C2421 C2425 1.429 . S
C2422 C2405 1.574 . S
C2422 H2416 0.949 . S
C2422 C2426 1.368 . S
C2423 C2404 1.429 . S
C2423 C2417 1.429 . S
C2423 C2424 1.523 . S
C2424 C2405 1.368 . S
C2424 C2418 1.368 . S
C2424 C2423 1.523 . S
C2425 C2409 1.429 . S
C2425 C2421 1.429 . S
C2425 C2426 1.523 . S
C2426 C2410 1.368 . S
C2426 C2422 1.368 . S
C2426 C2425 1.523 . S
H2427 C2402 0.950 . S
H2428 C2404 0.966 . S
H2429 C2405 0.949 . S
H2430 C2407 0.950 . S
H2431 C2409 0.950 . S
C2432 C2433 1.349 . S
C2432 C2434 1.327 . S
C2432 H2457 0.950 . S
C2433 C2432 1.349 . S
C2433 C2449 1.349 . S
C2434 C2432 1.327 . S
C2434 C2453 1.429 . S
C2434 H2458 0.950 . S
C2435 C2452 1.574 . S
C2435 C2454 1.368 . S
C2435 H2459 0.949 . S
H2436 C2440 0.949 . S
C2437 C2438 1.349 . S
C2437 C2439 1.327 . S
C2437 H2460 0.950 . S
C2438 C2437 1.349 . S
C2438 C2450 1.349 . S
C2439 C2437 1.327 . S
C2439 C2455 1.429 . S
C2439 H2461 0.950 . S
C2440 H2436 0.949 . S
C2440 C2448 1.574 . S
C2440 C2456 1.368 . S
H2441 C2449 0.950 . S
H2442 C2447 0.950 . S
H2443 C2448 0.949 . S
H2444 C2450 0.950 . S
H2445 C2451 0.950 . S
H2446 C2452 0.949 . S
C2447 H2442 0.950 . S
C2447 C2449 1.327 . S
C2447 C2453 1.429 . S
C2448 C2440 1.574 . S
C2448 H2443 0.949 . S
C2448 C2454 1.368 . S
C2449 C2433 1.349 . S
C2449 H2441 0.950 . S
C2449 C2447 1.327 . S
C2450 C2438 1.349 . S
C2450 H2444 0.950 . S
C2450 C2451 1.327 . S
C2451 H2445 0.950 . S
C2451 C2450 1.327 . S
C2451 C2455 1.429 . S
C2452 C2435 1.574 . S
C2452 H2446 0.949 . S
C2452 C2456 1.368 . S
C2453 C2434 1.429 . S
C2453 C2447 1.429 . S
C2453 C2454 1.523 . S
C2454 C2435 1.368 . S
C2454 C2448 1.368 . S
C2454 C2453 1.523 . S
C2455 C2439 1.429 . S
C2455 C2451 1.429 . S
C2455 C2456 1.523 . S
C2456 C2440 1.368 . S
C2456 C2452 1.368 . S
C2456 C2455 1.523 . S
H2457 C2432 0.950 . S
H2458 C2434 0.950 . S
H2459 C2435 0.949 . S
H2460 C2437 0.950 . S
H2461 C2439 0.950 . S
C2462 C2463 1.349 . S
C2462 C2464 1.327 . S
C2462 H2487 0.950 . S
C2463 C2462 1.349 . S
C2463 C2479 1.349 . S
C2464 C2462 1.327 . S
C2464 C2483 1.429 . S
C2464 H2488 0.950 . S
C2465 C2482 1.574 . S
C2465 C2484 1.368 . S
C2465 H2489 0.949 . S
H2466 C2470 0.949 . S
C2467 C2468 1.349 . S
C2467 C2469 1.327 . S
C2467 H2490 0.950 . S
C2468 C2467 1.349 . S
C2468 C2480 1.349 . S
C2469 C2467 1.327 . S
C2469 C2485 1.429 . S
C2469 H2491 0.950 . S
C2470 H2466 0.949 . S
C2470 C2478 1.574 . S
C2470 C2486 1.368 . S
H2471 C2479 0.950 . S
H2472 C2477 0.950 . S
H2473 C2478 0.949 . S
H2474 C2480 0.950 . S
H2475 C2481 0.950 . S
H2476 C2482 0.949 . S
C2477 H2472 0.950 . S
C2477 C2479 1.327 . S
C2477 C2483 1.429 . S
C2478 C2470 1.574 . S
C2478 H2473 0.949 . S
C2478 C2484 1.368 . S
C2479 C2463 1.349 . S
C2479 H2471 0.950 . S
C2479 C2477 1.327 . S
C2480 C2468 1.349 . S
C2480 H2474 0.950 . S
C2480 C2481 1.327 . S
C2481 H2475 0.950 . S
C2481 C2480 1.327 . S
C2481 C2485 1.429 . S
C2482 C2465 1.574 . S
C2482 H2476 0.949 . S
C2482 C2486 1.368 . S
C2483 C2464 1.429 . S
C2483 C2477 1.429 . S
C2483 C2484 1.523 . S
C2484 C2465 1.368 . S
C2484 C2478 1.368 . S
C2484 C2483 1.523 . S
C2485 C2469 1.429 . S
C2485 C2481 1.429 . S
C2485 C2486 1.523 . S
C2486 C2470 1.368 . S
C2486 C2482 1.368 . S
C2486 C2485 1.523 . S
H2487 C2462 0.950 . S
H2488 C2464 0.950 . S
H2489 C2465 0.949 . S
H2490 C2467 0.950 . S
H2491 C2469 0.950 . S
C2492 C2493 1.349 . S
C2492 C2494 1.327 . S
C2492 H2517 0.950 . S
C2493 C2492 1.349 . S
C2493 C2509 1.349 . S
C2494 C2492 1.327 . S
C2494 C2513 1.429 . S
C2494 H2518 0.950 . S
C2495 C2512 1.574 . S
C2495 C2514 1.368 . S
C2495 H2519 0.949 . S
H2496 C2500 0.949 . S
C2497 C2498 1.349 . S
C2497 C2499 1.327 . S
C2497 H2520 0.950 . S
C2498 C2497 1.349 . S
C2498 C2510 1.349 . S
C2499 C2497 1.327 . S
C2499 C2515 1.429 . S
C2499 H2521 0.950 . S
C2500 H2496 0.949 . S
C2500 C2508 1.574 . S
C2500 C2516 1.368 . S
H2501 C2509 0.950 . S
H2502 C2507 0.950 . S
H2503 C2508 0.949 . S
H2504 C2510 0.950 . S
H2505 C2511 0.950 . S
H2506 C2512 0.949 . S
C2507 H2502 0.950 . S
C2507 C2509 1.327 . S
C2507 C2513 1.429 . S
C2508 C2500 1.574 . S
C2508 H2503 0.949 . S
C2508 C2514 1.368 . S
C2509 C2493 1.349 . S
C2509 H2501 0.950 . S
C2509 C2507 1.327 . S
C2510 C2498 1.349 . S
C2510 H2504 0.950 . S
C2510 C2511 1.327 . S
C2511 H2505 0.950 . S
C2511 C2510 1.327 . S
C2511 C2515 1.429 . S
C2512 C2495 1.574 . S
C2512 H2506 0.949 . S
C2512 C2516 1.368 . S
C2513 C2494 1.429 . S
C2513 C2507 1.429 . S
C2513 C2514 1.523 . S
C2514 C2495 1.368 . S
C2514 C2508 1.368 . S
C2514 C2513 1.523 . S
C2515 C2499 1.429 . S
C2515 C2511 1.429 . S
C2515 C2516 1.523 . S
C2516 C2500 1.368 . S
C2516 C2512 1.368 . S
C2516 C2515 1.523 . S
H2517 C2492 0.950 . S
H2518 C2494 0.950 . S
H2519 C2495 0.949 . S
H2520 C2497 0.950 . S
H2521 C2499 0.950 . S
C2522 C2523 1.349 . S
C2522 C2524 1.327 . S
C2522 H2547 0.950 . S
C2523 C2522 1.349 . S
C2523 C2539 1.349 . S
C2524 C2522 1.327 . S
C2524 C2543 1.429 . S
C2524 H2548 0.950 . S
C2525 C2542 1.574 . S
C2525 C2544 1.368 . S
C2525 H2549 0.949 . S
H2526 C2530 0.949 . S
C2527 C2528 1.349 . S
C2527 C2529 1.327 . S
C2527 H2550 0.950 . S
C2528 C2527 1.349 . S
C2528 C2540 1.349 . S
C2529 C2527 1.327 . S
C2529 C2545 1.429 . S
C2529 H2551 0.950 . S
C2530 H2526 0.949 . S
C2530 C2538 1.574 . S
C2530 C2546 1.368 . S
H2531 C2539 0.950 . S
H2532 C2537 0.950 . S
H2533 C2538 0.949 . S
H2534 C2540 0.950 . S
H2535 C2541 0.950 . S
H2536 C2542 0.949 . S
C2537 H2532 0.950 . S
C2537 C2539 1.327 . S
C2537 C2543 1.429 . S
C2538 C2530 1.574 . S
C2538 H2533 0.949 . S
C2538 C2544 1.368 . S
C2539 C2523 1.349 . S
C2539 H2531 0.950 . S
C2539 C2537 1.327 . S
C2540 C2528 1.349 . S
C2540 H2534 0.950 . S
C2540 C2541 1.327 . S
C2541 H2535 0.950 . S
C2541 C2540 1.327 . S
C2541 C2545 1.429 . S
C2542 C2525 1.574 . S
C2542 H2536 0.949 . S
C2542 C2546 1.368 . S
C2543 C2524 1.429 . S
C2543 C2537 1.429 . S
C2543 C2544 1.523 . S
C2544 C2525 1.368 . S
C2544 C2538 1.368 . S
C2544 C2543 1.523 . S
C2545 C2529 1.429 . S
C2545 C2541 1.429 . S
C2545 C2546 1.523 . S
C2546 C2530 1.368 . S
C2546 C2542 1.368 . S
C2546 C2545 1.523 . S
H2547 C2522 0.950 . S
H2548 C2524 0.950 . S
H2549 C2525 0.949 . S
H2550 C2527 0.950 . S
H2551 C2529 0.950 . S
C2552 C2553 1.349 1_554 S
C2552 C2554 1.327 . S
C2552 H2577 0.950 . S
C2553 C2552 1.349 1_556 S
C2553 C2569 1.349 . S
C2554 C2552 1.327 . S
C2554 C2573 1.429 1_554 S
C2554 H2578 0.950 . S
C2555 C2572 1.574 . S
C2555 C2574 1.368 . S
C2555 H2579 0.949 . S
H2556 C2560 0.949 . S
C2557 C2558 1.349 . S
C2557 C2559 1.327 . S
C2557 H2580 0.950 . S
C2558 C2557 1.349 . S
C2558 C2570 1.349 1_556 S
C2559 C2557 1.327 . S
C2559 C2575 1.429 . S
C2559 H2581 0.950 . S
C2560 H2556 0.949 . S
C2560 C2568 1.574 . S
C2560 C2576 1.368 1_554 S
H2561 C2569 0.950 . S
H2562 C2567 0.950 . S
H2563 C2568 0.949 . S
H2564 C2570 0.950 . S
H2565 C2571 0.950 . S
H2566 C2572 0.949 . S
C2567 H2562 0.950 . S
C2567 C2569 1.327 . S
C2567 C2573 1.429 . S
C2568 C2560 1.574 . S
C2568 H2563 0.949 . S
C2568 C2574 1.368 1_554 S
C2569 C2553 1.349 . S
C2569 H2561 0.950 . S
C2569 C2567 1.327 . S
C2570 C2558 1.349 1_554 S
C2570 H2564 0.950 . S
C2570 C2571 1.327 . S
C2571 H2565 0.950 . S
C2571 C2570 1.327 . S
C2571 C2575 1.429 1_554 S
C2572 C2555 1.574 . S
C2572 H2566 0.949 . S
C2572 C2576 1.368 . S
C2573 C2554 1.429 1_556 S
C2573 C2567 1.429 . S
C2573 C2574 1.523 . S
C2574 C2555 1.368 . S
C2574 C2568 1.368 1_556 S
C2574 C2573 1.523 . S
C2575 C2559 1.429 . S
C2575 C2571 1.429 1_556 S
C2575 C2576 1.523 . S
C2576 C2560 1.368 1_556 S
C2576 C2572 1.368 . S
C2576 C2575 1.523 . S
H2577 C2552 0.950 . S
H2578 C2554 0.950 . S
H2579 C2555 0.949 . S
H2580 C2557 0.950 . S
H2581 C2559 0.950 . S
C2582 C2583 1.349 . S
C2582 C2584 1.327 . S
C2582 H2607 0.950 . S
C2583 C2582 1.349 . S
C2583 C2599 1.349 . S
C2584 C2582 1.327 . S
C2584 C2603 1.429 . S
C2584 H2608 0.950 . S
C2585 C2602 1.574 . S
C2585 C2604 1.368 . S
C2585 H2609 0.949 . S
H2586 C2590 0.949 . S
C2587 C2588 1.349 . S
C2587 C2589 1.327 . S
C2587 H2610 0.950 . S
C2588 C2587 1.349 . S
C2588 C2600 1.349 . S
C2589 C2587 1.327 . S
C2589 C2605 1.429 . S
C2589 H2611 0.950 . S
C2590 H2586 0.949 . S
C2590 C2598 1.574 . S
C2590 C2606 1.368 . S
H2591 C2599 0.950 . S
H2592 C2597 0.950 . S
H2593 C2598 0.949 . S
H2594 C2600 0.950 . S
H2595 C2601 0.950 . S
H2596 C2602 0.949 . S
C2597 H2592 0.950 . S
C2597 C2599 1.327 . S
C2597 C2603 1.429 . S
C2598 C2590 1.574 . S
C2598 H2593 0.949 . S
C2598 C2604 1.368 . S
C2599 C2583 1.349 . S
C2599 H2591 0.950 . S
C2599 C2597 1.327 . S
C2600 C2588 1.349 . S
C2600 H2594 0.950 . S
C2600 C2601 1.327 . S
C2601 H2595 0.950 . S
C2601 C2600 1.327 . S
C2601 C2605 1.429 . S
C2602 C2585 1.574 . S
C2602 H2596 0.949 . S
C2602 C2606 1.368 . S
C2603 C2584 1.429 . S
C2603 C2597 1.429 . S
C2603 C2604 1.523 . S
C2604 C2585 1.368 . S
C2604 C2598 1.368 . S
C2604 C2603 1.523 . S
C2605 C2589 1.429 . S
C2605 C2601 1.429 . S
C2605 C2606 1.523 . S
C2606 C2590 1.368 . S
C2606 C2602 1.368 . S
C2606 C2605 1.523 . S
H2607 C2582 0.950 . S
H2608 C2584 0.950 . S
H2609 C2585 0.949 . S
H2610 C2587 0.950 . S
H2611 C2589 0.950 . S
C2612 C2613 1.349 . S
C2612 C2614 1.327 . S
C2612 H2637 0.950 . S
C2613 C2612 1.349 . S
C2613 C2629 1.349 . S
C2614 C2612 1.327 . S
C2614 C2633 1.429 . S
C2614 H2638 0.950 . S
C2615 C2632 1.574 . S
C2615 C2634 1.368 . S
C2615 H2639 0.949 1_554 S
H2616 C2620 0.949 . S
C2617 C2618 1.349 1_556 S
C2617 C2619 1.327 . S
C2617 H2640 0.950 . S
C2618 C2617 1.349 1_554 S
C2618 C2630 1.349 . S
C2619 C2617 1.327 . S
C2619 C2635 1.429 1_556 S
C2619 H2641 0.950 . S
C2620 H2616 0.949 . S
C2620 C2628 1.574 . S
C2620 C2636 1.368 . S
H2621 C2629 0.950 . S
H2622 C2627 0.950 . S
H2623 C2628 0.949 . S
H2624 C2630 0.950 . S
H2625 C2631 0.950 . S
H2626 C2632 0.949 1_556 S
C2627 H2622 0.950 . S
C2627 C2629 1.327 . S
C2627 C2633 1.429 . S
C2628 C2620 1.574 . S
C2628 H2623 0.949 . S
C2628 C2634 1.368 . S
C2629 C2613 1.349 . S
C2629 H2621 0.950 . S
C2629 C2627 1.327 . S
C2630 C2618 1.349 . S
C2630 H2624 0.950 . S
C2630 C2631 1.327 . S
C2631 H2625 0.950 . S
C2631 C2630 1.327 . S
C2631 C2635 1.429 . S
C2632 C2615 1.574 . S
C2632 H2626 0.949 1_554 S
C2632 C2636 1.368 . S
C2633 C2614 1.429 . S
C2633 C2627 1.429 . S
C2633 C2634 1.523 . S
C2634 C2615 1.368 . S
C2634 C2628 1.368 . S
C2634 C2633 1.523 . S
C2635 C2619 1.429 1_554 S
C2635 C2631 1.429 . S
C2635 C2636 1.523 . S
C2636 C2620 1.368 . S
C2636 C2632 1.368 . S
C2636 C2635 1.523 . S
H2637 C2612 0.950 . S
H2638 C2614 0.950 . S
H2639 C2615 0.949 1_556 S
H2640 C2617 0.950 . S
H2641 C2619 0.950 . S
C2642 C2643 1.349 . S
C2642 C2644 1.327 . S
C2642 H2667 0.950 . S
C2643 C2642 1.349 . S
C2643 C2659 1.349 . S
C2644 C2642 1.327 . S
C2644 C2663 1.429 . S
C2644 H2668 0.950 . S
C2645 C2662 1.574 . S
C2645 C2664 1.368 . S
C2645 H2669 0.949 . S
H2646 C2650 0.949 . S
C2647 C2648 1.349 . S
C2647 C2649 1.327 . S
C2647 H2670 0.950 . S
C2648 C2647 1.349 . S
C2648 C2660 1.349 . S
C2649 C2647 1.327 . S
C2649 C2665 1.429 . S
C2649 H2671 0.950 . S
C2650 H2646 0.949 . S
C2650 C2658 1.574 . S
C2650 C2666 1.368 . S
H2651 C2659 0.950 . S
H2652 C2657 0.950 1_565 S
H2653 C2658 0.949 1_545 S
H2654 C2660 0.950 . S
H2655 C2661 0.950 . S
H2656 C2662 0.949 . S
C2657 H2652 0.950 1_545 S
C2657 C2659 1.327 . S
C2657 C2663 1.429 . S
C2658 C2650 1.574 . S
C2658 H2653 0.949 1_565 S
C2658 C2664 1.368 . S
C2659 C2643 1.349 . S
C2659 H2651 0.950 . S
C2659 C2657 1.327 . S
C2660 C2648 1.349 . S
C2660 H2654 0.950 . S
C2660 C2661 1.327 . S
C2661 H2655 0.950 . S
C2661 C2660 1.327 . S
C2661 C2665 1.429 . S
C2662 C2645 1.574 . S
C2662 H2656 0.949 . S
C2662 C2666 1.368 . S
C2663 C2644 1.429 . S
C2663 C2657 1.429 . S
C2663 C2664 1.523 1_545 S
C2664 C2645 1.368 . S
C2664 C2658 1.368 . S
C2664 C2663 1.523 1_565 S
C2665 C2649 1.429 . S
C2665 C2661 1.429 . S
C2665 C2666 1.523 . S
C2666 C2650 1.368 . S
C2666 C2662 1.368 . S
C2666 C2665 1.523 . S
H2667 C2642 0.950 . S
H2668 C2644 0.950 . S
H2669 C2645 0.949 . S
H2670 C2647 0.950 . S
H2671 C2649 0.950 . S
C1238 C225 1.579 . S
C1233 C60 1.580 . S
C1268 C284 1.263 . S
C1263 C76 1.258 . S
C1293 C81 1.744 . S
C1298 C401 1.743 . S
C1328 C469 1.636 . S
C1323 C48 1.645 . S
C1358 C548 1.521 . S
C1353 C115 1.519 . S
C1388 C673 1.591 . S
C1383 C136 1.595 . S
C1413 C131 1.285 . S
C1418 C733 1.285 . S
C1448 C841 1.590 . S
C1443 C104 1.577 . S
C1473 C126 1.535 . S
C1478 C937 1.539 . S
C1508 C997 1.408 . S
C1503 C103 1.411 . S
C1533 C120 1.408 . S
C1538 C900 1.411 . S
C1568 C1017 1.382 . S
C1563 C142 1.383 . S
C1593 C82 1.457 . S
C1598 C1085 1.463 . S
C1623 C54 1.950 . S
C1628 C1076 1.955 . S
C1653 C65 1.384 . S
C1658 C1105 1.390 . S
C1683 C71 1.215 . S
C1688 C1113 1.225 . S
C1713 C37 1.617 . S
C1718 C497 1.615 . S
C1743 C158 2.141 . S
C1748 C460 2.135 . S
C1778 C196 1.353 . S
C1773 C169 1.357 . S
C1808 C293 1.156 . S
C1803 C98 1.149 . S
C1833 C49 1.808 . S
C1838 C557 1.826 . S
C1868 C849 1.397 . S
C1863 C125 1.396 . S
C1898 C577 1.357 . S
C1893 C109 1.358 . S
C1928 C761 1.897 . S
C1923 C137 1.889 . S
C1958 C753 1.579 . S
C1953 C159 1.580 . S
C1983 C175 1.258 . S
C1988 C821 1.263 . S
C2013 C92 1.744 . S
C2018 C585 1.743 . S
C2048 C636 1.636 . S
C2043 C147 1.644 . S
C2073 C38 1.519 . S
C2078 C381 1.521 . S
C2108 C489 1.590 . S
C2103 C4 1.595 . S
C2138 C205 1.285 . S
C2133 C21 1.285 . S
C2168 C321 1.590 . S
C2163 C27 1.576 1_455 S
C2193 C16 1.535 . S
C2198 C1025 1.539 . S
C2223 C26 1.411 . S
C2228 C909 1.408 . S
C2253 C43 1.408 . S
C2258 C988 1.411 . S
C2283 C10 1.383 . S
C2288 C929 1.382 . S
C2318 C1173 1.463 . S
C2313 C93 1.457 . S
C2348 C1164 1.955 . S
C2343 C153 1.950 . S
C2378 C1193 1.390 . S
C2373 C164 1.384 . S
C2403 C170 1.215 . S
C2408 C1201 1.225 . S
C2433 C114 1.617 . S
C2438 C665 1.615 . S
C2468 C645 2.135 . S
C2463 C59 2.141 . S
C2498 C724 1.353 . S
C2493 C70 1.357 . S
C2528 C812 1.156 . S
C2523 C87 1.148 . S
C2553 C148 1.808 . S
C2558 C372 1.826 . S
C2588 C313 1.397 . S
C2583 C15 1.396 . S
C2613 C32 1.358 . S
C2618 C409 1.357 . S
C2648 C233 1.897 . S
C2643 C5 1.889 . S
