# Generated by pormake.
# Topology rtl, (3,6)-cn, num edge types: 1
# Building blocks:
#     Node 0, Type 0, BuildingBlock: PAMTOO_clean_linker_0, # of connection points: 3
#     Node 1, Type 0, BuildingBlock: PAMTOO_clean_linker_0, # of connection points: 3
#     Node 2, Type 0, BuildingBlock: PAMTOO_clean_linker_0, # of connection points: 3
#     Node 3, Type 0, BuildingBlock: PAMTOO_clean_linker_0, # of connection points: 3
#     Node 4, Type 1, BuildingBlock: KUMJIN_clean_sbu_1, # of connection points: 6
#     Node 5, Type 1, BuildingBlock: KUMJIN_clean_sbu_1, # of connection points: 6
#     Edge 6, Type (0, 1), BuildingBlock: XUDNAN_clean_linker_2, # of connection points: 2
#     Edge 7, Type (0, 1), BuildingBlock: XUDNAN_clean_linker_2, # of connection points: 2
#     Edge 8, Type (0, 1), BuildingBlock: XUDNAN_clean_linker_2, # of connection points: 2
#     Edge 9, Type (0, 1), BuildingBlock: XUDNAN_clean_linker_2, # of connection points: 2
#     Edge 10, Type (0, 1), BuildingBlock: XUDNAN_clean_linker_2, # of connection points: 2
#     Edge 11, Type (0, 1), BuildingBlock: XUDNAN_clean_linker_2, # of connection points: 2
#     Edge 12, Type (0, 1), BuildingBlock: XUDNAN_clean_linker_2, # of connection points: 2
#     Edge 13, Type (0, 1), BuildingBlock: XUDNAN_clean_linker_2, # of connection points: 2
#     Edge 14, Type (0, 1), BuildingBlock: XUDNAN_clean_linker_2, # of connection points: 2
#     Edge 15, Type (0, 1), BuildingBlock: XUDNAN_clean_linker_2, # of connection points: 2
#     Edge 16, Type (0, 1), BuildingBlock: XUDNAN_clean_linker_2, # of connection points: 2
#     Edge 17, Type (0, 1), BuildingBlock: XUDNAN_clean_linker_2, # of connection points: 2
# Relax obj value: 0.052
# Max RMSD: 0.218
# Mean RMSD: 0.163
data_MOF--net-rtl--node1-KUMJIN_clean_sbu_1--node2-PAMTOO_clean_linker_0--edge1-XUDNAN_clean_linker_2
_symmetry_space_group_name_H-M    P1
_symmetry_Int_Tables_number       1
_symmetry_cell_setting            triclinic
loop_
_symmetry_equiv_pos_as_xyz
'x, y, z'
_cell_length_a     34.908803
_cell_length_b     35.113196
_cell_length_c     27.096117
_cell_angle_alpha  78.697011
_cell_angle_beta   99.591307
_cell_angle_gamma 91.416543
loop_
_atom_site_label
_atom_site_type_symbol
_atom_site_fract_x
_atom_site_fract_y
_atom_site_fract_z
_atom_type_partial_charge
H0 H 0.17777 0.91182 0.01573 0.0
H1 H 0.25088 0.8177 0.10693 0.0
H2 H 0.24885 0.8477 0.94525 0.0
H3 H 0.25269 0.76623 0.98057 0.0
C4 C 0.26618 0.76403 0.02126 0.0
O5 O 0.27802 0.80039 0.02953 0.0
H6 H 0.24405 0.75258 0.04548 0.0
C7 C 0.19945 0.88942 0.0195 0.0
C8 C 0.21234 0.88313 0.97545 0.0
C9 C 0.21287 0.8661 0.06752 0.0
C10 C 0.23963 0.83596 0.07054 0.0
C11 C 0.25237 0.82932 0.02644 0.0
C12 C 0.23878 0.85294 0.97909 0.0
H13 H 0.64361 0.65955 0.65133 0.0
H14 H 0.73733 0.725 0.59015 0.0
H15 H 0.71632 0.73123 0.73943 0.0
H16 H 0.73679 0.80909 0.67346 0.0
C17 C 0.75363 0.79629 0.6492 0.0
O18 O 0.75896 0.75698 0.66839 0.0
H19 H 0.73661 0.80109 0.60986 0.0
C20 C 0.6682 0.6788 0.65504 0.0
C21 C 0.67829 0.69275 0.70068 0.0
C22 C 0.68858 0.69073 0.61396 0.0
C23 C 0.72 0.71629 0.62003 0.0
C24 C 0.72943 0.73142 0.66453 0.0
C25 C 0.70853 0.71977 0.70479 0.0
H26 H 0.86546 0.12242 0.10507 0.0
H27 H 0.79249 0.21033 1.00044 0.0
H28 H 0.7853 0.18843 0.16013 0.0
H29 H 0.71023 0.1978 0.07777 0.0
C30 C 0.71972 0.2256 0.05571 0.0
O31 O 0.75892 0.23109 0.07033 0.0
H32 H 0.71385 0.22393 0.01457 0.0
C33 C 0.84313 0.1447 0.09754 0.0
C34 C 0.82679 0.15293 0.13817 0.0
C35 C 0.8308 0.16496 0.04747 0.0
C36 C 0.80179 0.19371 0.03857 0.0
C37 C 0.78534 0.20204 0.07904 0.0
C38 C 0.79774 0.18154 0.12883 0.0
H39 H 0.41123 0.36539 0.46524 0.0
H40 H 0.31467 0.30006 0.51791 0.0
H41 H 0.33688 0.30248 0.36633 0.0
H42 H 0.32217 0.22417 0.4723 0.0
C43 C 0.29604 0.2341 0.44328 0.0
O44 O 0.29233 0.27414 0.43386 0.0
H45 H 0.29977 0.22502 0.40729 0.0
C46 C 0.38637 0.34682 0.45878 0.0
C47 C 0.37669 0.33569 0.41119 0.0
C48 C 0.36413 0.33454 0.49774 0.0
C49 C 0.33251 0.30971 0.48883 0.0
C50 C 0.32295 0.29792 0.44178 0.0
C51 C 0.34462 0.31145 0.40274 0.0
Eu52 Eu 0.04769 0.98051 0.52581 0.0
C53 C 0.93973 0.1199 0.49733 0.0
N54 N 0.97677 0.11656 0.52311 0.0
C55 C 0.99071 0.18126 0.48307 0.0
C56 C 0.92676 0.15448 0.46308 0.0
C57 C 1.00223 0.1465 0.51687 0.0
C58 C 0.9528 0.18531 0.4561 0.0
C59 C 0.87608 0.09146 0.47918 0.0
C60 C 0.91469 0.08859 0.50543 0.0
C61 C 0.86321 0.12579 0.44473 0.0
C62 C 0.88833 0.15732 0.43716 0.0
Eu63 Eu 0.99293 0.05787 0.58102 0.0
N64 N 0.92776 0.05576 0.53955 0.0
C65 C 0.8512 0.0601 0.4893 0.0
C66 C 0.9026 0.02663 0.55258 0.0
C67 C 0.86438 0.02777 0.52669 0.0
H68 H 0.03128 0.14373 0.53845 0.0
H69 H 0.84482 1.00414 0.53653 0.0
H70 H 0.99098 0.90202 0.51966 0.0
H71 H 0.19743 0.99142 0.61974 0.0
H72 H 0.91117 1.00314 0.58416 0.0
H73 H 0.8214 0.06113 0.46979 0.0
H74 H 0.13453 0.01599 0.56877 0.0
H75 H 1.01097 0.205 0.47813 0.0
H76 H 0.83363 0.12848 0.42435 0.0
H77 H 0.87769 0.18385 0.41122 0.0
H78 H 0.99491 0.83134 0.55291 0.0
H79 H 0.94392 0.21234 0.43007 0.0
H80 H 0.20692 0.92104 0.6542 0.0
N81 N 0.04809 0.91272 0.55569 0.0
C82 C 0.08189 0.89712 0.58403 0.0
C83 C 0.01951 0.84952 0.56212 0.0
C84 C 0.08582 0.85672 0.60235 0.0
C85 C 0.0172 0.88964 0.54394 0.0
C86 C 0.05396 0.83297 0.59146 0.0
N87 N 0.10804 0.9605 0.57686 0.0
C88 C 0.13809 0.9854 0.58447 0.0
C89 C 0.14861 0.90618 0.62259 0.0
C90 C 0.1129 0.92158 0.59429 0.0
C91 C 0.17911 0.93174 0.63231 0.0
C92 C 0.17384 0.9715 0.61303 0.0
H93 H 0.0558 0.80181 0.60502 0.0
H94 H 0.12504 0.81028 0.64456 0.0
H95 H 0.18011 0.8535 0.66167 0.0
O96 O 0.07795 1.00188 0.4619 0.0
O97 O 0.06089 0.97504 0.61205 0.0
O98 O 0.05001 0.03556 0.62957 0.0
O99 O 0.05426 0.94383 0.47102 0.0
O100 O 0.07014 0.04316 0.51342 0.0
O101 O 0.05525 0.07384 0.57659 0.0
O102 O 0.96279 0.05322 0.64641 0.0
O103 O 0.99407 0.06405 0.49575 0.0
O104 O 0.98828 1.0016 0.48453 0.0
O105 O 0.9941 0.10552 0.62241 0.0
O106 O 0.98292 0.99342 0.60814 0.0
O107 O 0.9854 0.96793 0.53707 0.0
C108 C 0.06582 1.00066 0.64201 0.0
C109 C 0.06147 0.97527 0.38768 0.0
C110 C 0.07435 0.96028 0.30781 0.0
C111 C 0.04485 0.98663 0.281 0.0
C112 C 0.03187 1.00118 0.36056 0.0
C113 C 0.02361 1.00674 0.30736 0.0
C114 C 0.08233 0.95469 0.3613 0.0
C115 C 0.07596 0.07046 0.54121 0.0
C116 C 0.07247 0.9703 0.4432 0.0
C117 C 0.12142 0.84126 0.63038 0.0
C118 C 0.15282 0.86588 0.64005 0.0
C119 C 0.97965 0.03845 0.46863 0.0
C120 C 0.93998 0.11137 0.6627 0.0
C121 C 0.90572 0.13333 0.72376 0.0
C122 C 0.88066 0.1556 0.6827 0.0
C123 C 0.91476 0.13374 0.62237 0.0
C124 C 0.93516 0.11096 0.71313 0.0
C125 C 0.88514 0.15561 0.63241 0.0
C126 C 0.97461 0.96582 0.58168 0.0
C127 C 0.97156 0.08821 0.65343 0.0
H128 H 0.03798 0.99135 0.23977 0.0
H129 H 0.01555 0.01731 0.38041 0.0
H130 H 1.00084 0.02685 0.28648 0.0
H131 H 0.10549 0.93501 0.38241 0.0
H132 H 0.85809 0.17367 0.68934 0.0
H133 H 0.91802 0.13453 0.58332 0.0
H134 H 0.9544 0.09304 0.74405 0.0
H135 H 0.86585 0.17298 0.60112 0.0
Eu136 Eu 0.48305 0.49236 0.99931 0.0
C137 C 0.63191 0.57353 0.04019 0.0
N138 N 0.62078 0.53901 0.06643 0.0
C139 C 0.67892 0.50867 0.05564 0.0
C140 C 0.66609 0.5763 0.01831 0.0
C141 C 0.64513 0.50752 0.07727 0.0
C142 C 0.68902 0.54298 0.0251 0.0
C143 C 0.6218 0.64323 0.01258 0.0
C144 C 0.61005 0.60669 0.03713 0.0
C145 C 0.65497 0.64576 0.98911 0.0
C146 C 0.67694 0.61235 0.99175 0.0
Eu147 Eu 0.56083 0.54039 0.09699 0.0
N148 N 0.57708 0.60322 0.05804 0.0
C149 C 0.59972 0.6761 0.01225 0.0
C150 C 0.55621 0.63515 0.05968 0.0
C151 C 0.56704 0.67208 0.03642 0.0
H152 H 0.63934 0.48155 0.10345 0.0
H153 H 0.55008 0.69736 0.03689 0.0
H154 H 0.39865 0.52773 0.0139 0.0
H155 H 0.52339 0.34156 1.00536 0.0
H156 H 0.53087 0.63183 0.07825 0.0
H157 H 0.60782 0.70469 0.9938 0.0
H158 H 0.52731 0.41276 0.98083 0.0
H159 H 0.69751 0.48326 0.06332 0.0
H160 H 0.66409 0.67348 0.96928 0.0
H161 H 0.70283 0.61488 0.97419 0.0
H162 H 0.3376 0.50358 0.04306 0.0
H163 H 0.71542 0.54388 0.00879 0.0
H164 H 0.46948 0.31201 0.04808 0.0
N165 N 0.42447 0.47163 0.02791 0.0
C166 C 0.41957 0.43272 0.04131 0.0
C167 C 0.36056 0.48337 0.04322 0.0
C168 C 0.38513 0.41759 0.05798 0.0
C169 C 0.39528 0.49699 0.02715 0.0
C170 C 0.35551 0.44352 0.05893 0.0
N171 N 0.47985 0.42363 0.01621 0.0
C172 C 0.50534 0.40031 1.00259 0.0
C173 C 0.44378 0.36742 0.04856 0.0
C174 C 0.44849 0.40803 0.03635 0.0
C175 C 0.47198 0.34333 0.03915 0.0
C176 C 0.50252 0.35989 0.01517 0.0
H177 H 0.32844 0.43303 0.07099 0.0
H178 H 0.35493 0.36504 0.08543 0.0
H179 H 0.40644 0.3211 0.07762 0.0
O180 O 0.46115 0.46886 0.9305 0.0
O181 O 0.47328 0.4841 0.08241 0.0
O182 O 0.53507 0.48275 0.12897 0.0
O183 O 0.45274 0.53035 0.9308 0.0
O184 O 0.54624 0.47143 0.01292 0.0
O185 O 0.5706 0.47701 0.09584 0.0
O186 O 0.55051 0.56369 0.16294 0.0
O187 O 0.53899 0.57016 0.01525 0.0
O188 O 0.53818 0.51942 0.97516 0.0
O189 O 0.60834 0.54597 0.15836 0.0
O190 O 0.49818 0.55662 0.09347 0.0
O191 O 0.46653 0.55205 0.01224 0.0
C192 C 0.49838 0.47215 0.12437 0.0
C193 C 0.42701 0.50847 0.85167 0.0
C194 C 0.4068 0.48535 0.77158 0.0
C195 C 0.38874 0.52158 0.75005 0.0
C196 C 0.40893 0.54435 0.82894 0.0
C197 C 0.38989 0.55074 0.77853 0.0
C198 C 0.42577 0.47894 0.8228 0.0
C199 C 0.56824 0.45872 0.05737 0.0
C200 C 0.44736 0.50239 0.90509 0.0
C201 C 0.38102 0.37722 0.07203 0.0
C202 C 0.4104 0.3522 0.06768 0.0
C203 C 0.54481 0.55611 0.97583 0.0
C204 C 0.59315 0.54266 0.24055 0.0
C205 C 0.6119 0.55364 0.32777 0.0
C206 C 0.61352 0.51303 0.34525 0.0
C207 C 0.59454 0.50246 0.25873 0.0
C208 C 0.6007 0.56795 0.27502 0.0
C209 C 0.60438 0.48778 0.311 0.0
C210 C 0.47017 0.56669 0.05425 0.0
C211 C 0.5864 0.55913 0.18571 0.0
H212 H 0.37317 0.52728 0.71125 0.0
H213 H 0.40938 0.56754 0.85016 0.0
H214 H 0.37583 0.57844 0.76147 0.0
H215 H 0.44008 0.45133 0.83985 0.0
H216 H 0.62273 0.50049 0.38513 0.0
H217 H 0.58872 0.48257 0.23251 0.0
H218 H 0.59824 0.5989 0.26011 0.0
H219 H 0.60586 0.45669 0.32493 0.0
H220 H 0.25048 0.17572 0.40955 0.0
H221 H 0.26379 0.24841 0.52339 0.0
H222 H 0.20848 0.21524 0.55964 0.0
H223 H 0.14479 0.17127 0.38996 0.0
H224 H 0.14341 0.12119 0.38312 0.0
H225 H 0.18306 0.1516 0.36495 0.0
H226 H 0.23209 0.10225 0.42543 0.0
H227 H 0.19256 0.07183 0.44391 0.0
H228 H 0.2275 0.08842 0.49186 0.0
H229 H 0.15309 0.17345 0.58458 0.0
H230 H 0.10095 0.12597 0.59713 0.0
H231 H 0.12328 0.07937 0.46732 0.0
C232 C 0.24136 0.18493 0.4417 0.0
C233 C 0.26084 0.21518 0.46315 0.0
C234 C 0.24874 0.22583 0.50592 0.0
C235 C 0.21749 0.20708 0.52679 0.0
C236 C 0.19882 0.17747 0.5047 0.0
C237 C 0.21023 0.1664 0.46311 0.0
C238 C 0.18576 0.13302 0.44751 0.0
C239 C 0.1629 0.145 0.39316 0.0
C240 C 0.21099 0.09674 0.45249 0.0
C241 C 0.15889 0.12701 0.48693 0.0
C242 C 0.16696 0.15303 0.51943 0.0
C243 C 0.1464 0.15305 0.55923 0.0
C244 C 0.11673 0.12587 0.56597 0.0
C245 C 0.10768 0.09889 0.53307 0.0
C246 C 0.12928 0.09957 0.49308 0.0
H247 H 0.2961 0.72245 0.95928 0.0
H248 H 0.31238 0.74311 0.11397 0.0
H249 H 0.36693 0.69577 0.13858 0.0
H250 H 0.31455 0.6204 0.99193 0.0
H251 H 0.34004 0.61894 0.93969 0.0
H252 H 0.30353 0.65573 0.93339 0.0
H253 H 0.35352 0.70942 0.91067 0.0
H254 H 0.39009 0.67274 0.91661 0.0
H255 H 0.39883 0.71055 0.95342 0.0
H256 H 0.41789 0.64545 0.14684 0.0
H257 H 0.46305 0.59526 0.13906 0.0
H258 H 0.41378 0.60607 0.97862 0.0
C259 C 0.31142 0.71716 0.9982 0.0
C260 C 0.30035 0.73646 0.03487 0.0
C261 C 0.32074 0.72868 0.08548 0.0
C262 C 0.35163 0.70189 0.0997 0.0
C263 C 0.36167 0.68313 0.06279 0.0
C264 C 0.34231 0.69042 0.01305 0.0
C265 C 0.35855 0.66561 0.98122 0.0
C266 C 0.3273 0.63857 0.96034 0.0
C267 C 0.3763 0.69111 0.93792 0.0
C268 C 0.38969 0.64287 0.02105 0.0
C269 C 0.39105 0.65367 0.0677 0.0
C270 C 0.41719 0.63682 0.11049 0.0
C271 C 0.44276 0.60824 0.10557 0.0
C272 C 0.44207 0.59654 0.05817 0.0
C273 C 0.41501 0.61417 0.0154 0.0
H274 H 0.78764 0.83035 0.56609 0.0
H275 H 0.80629 0.80774 0.73143 0.0
H276 H 0.86804 0.84409 0.73205 0.0
H277 H 0.8905 0.82421 0.55174 0.0
H278 H 0.88568 0.86316 0.49675 0.0
H279 H 0.84465 0.83276 0.50925 0.0
H280 H 0.80381 0.89378 0.50766 0.0
H281 H 0.84469 0.92431 0.49533 0.0
H282 H 0.82165 0.92677 0.5494 0.0
H283 H 0.92415 0.88744 0.71469 0.0
H284 H 0.97176 0.9343 0.68074 0.0
H285 H 0.91809 0.928 0.52629 0.0
C286 C 0.80508 0.83264 0.60237 0.0
C287 C 0.79239 0.81628 0.64887 0.0
C288 C 0.81571 0.82005 0.69558 0.0
C289 C 0.85074 0.84056 0.69622 0.0
C290 C 0.86219 0.85687 0.64977 0.0
C291 C 0.8402 0.85302 0.60366 0.0
C292 C 0.85822 0.87502 0.5592 0.0
C293 C 0.87049 0.84711 0.52736 0.0
C294 C 0.83044 0.90685 0.52595 0.0
C295 C 0.89336 0.89242 0.58751 0.0
C296 C 0.89512 0.88143 0.63973 0.0
C297 C 0.92341 0.89576 0.67392 0.0
C298 C 0.95027 0.92239 0.6543 0.0
C299 C 0.94887 0.93429 0.601 0.0
C300 C 0.92041 0.9186 0.56722 0.0
H301 H 0.68512 0.28868 0.98618 0.0
H302 H 0.70507 0.23716 0.14738 0.0
H303 H 0.66878 0.29136 0.16505 0.0
H304 H 0.69491 0.38876 1.00083 0.0
H305 H 0.65705 0.40651 0.94794 0.0
H306 H 0.68466 0.36383 0.94798 0.0
H307 H 0.62084 0.32524 0.93549 0.0
H308 H 0.59281 0.36746 0.9363 0.0
H309 H 0.58783 0.32277 0.98054 0.0
H310 H 0.63012 0.35009 0.16507 0.0
H311 H 0.59173 0.41048 0.14818 0.0
H312 H 0.59737 0.42535 0.9867 0.0
C313 C 0.68165 0.28888 0.0251 0.0
C314 C 0.69731 0.25864 0.06553 0.0
C315 C 0.69278 0.25994 0.11606 0.0
C316 C 0.67233 0.29055 0.12635 0.0
C317 C 0.65682 0.3197 0.08565 0.0
C318 C 0.66127 0.31926 0.03604 0.0
C319 C 0.64162 0.35429 0.9994 0.0
C320 C 0.67134 0.37986 0.97246 0.0
C321 C 0.60883 0.34168 0.96064 0.0
C322 C 0.62551 0.37448 0.03621 0.0
C323 C 0.63461 0.35392 0.08571 0.0
C324 C 0.62285 0.36646 0.12649 0.0
C325 C 0.60112 0.40088 0.11647 0.0
C326 C 0.59127 0.42247 0.06606 0.0
C327 C 0.60396 0.40916 0.0255 0.0
H328 H 0.19369 0.93585 0.08957 0.0
H329 H 0.1963 0.81154 0.14922 0.0
H330 H 0.16516 0.82256 0.22062 0.0
H331 H 0.20772 0.96841 0.21108 0.0
H332 H 0.17405 1.00843 0.18699 0.0
H333 H 0.20105 0.99114 0.14451 0.0
H334 H 0.13666 0.981 0.08557 0.0
H335 H 0.10945 0.99802 0.12795 0.0
H336 H 0.09945 0.95096 0.11178 0.0
H337 H 0.12958 0.84697 0.28261 0.0
H338 H 0.09186 0.88262 0.32897 0.0
H339 H 0.10861 0.99 0.2247 0.0
C340 C 0.18784 0.91079 0.11754 0.0
C341 C 0.19756 0.87274 0.11343 0.0
C342 C 0.18986 0.84104 0.1517 0.0
C343 C 0.17188 0.84698 0.1923 0.0
C344 C 0.16165 0.88476 0.19409 0.0
C345 C 0.1694 0.9161 0.15769 0.0
C346 C 0.15317 0.95348 0.16612 0.0
C347 C 0.18596 0.98205 0.17789 0.0
C348 C 0.12288 0.97193 0.12013 0.0
C349 C 0.13442 0.93822 0.21249 0.0
C350 C 0.14008 0.89859 0.22854 0.0
C351 C 0.12512 0.87801 0.27047 0.0
C352 C 0.10379 0.89847 0.29656 0.0
C353 C 0.09721 0.93898 0.28022 0.0
C354 C 0.11285 0.95897 0.23769 0.0
H355 H 0.66663 0.61783 0.74737 0.0
H356 H 0.64112 0.73751 0.75016 0.0
H357 H 0.60198 0.71515 0.81859 0.0
H358 H 0.57478 0.57715 0.76997 0.0
H359 H 0.59489 0.53319 0.81146 0.0
H360 H 0.62067 0.5584 0.76259 0.0
H361 H 0.6815 0.56271 0.83077 0.0
H362 H 0.65597 0.53723 0.87975 0.0
H363 H 0.67696 0.58395 0.88498 0.0
H364 H 0.56302 0.6797 0.8831 0.0
H365 H 0.53339 0.6341 0.94727 0.0
H366 H 0.58777 0.5372 0.90727 0.0
C367 C 0.65277 0.63923 0.76253 0.0
C368 C 0.65657 0.67939 0.74345 0.0
C369 C 0.63854 0.70666 0.76446 0.0
C370 C 0.61616 0.69421 0.80306 0.0
C371 C 0.6126 0.6544 0.82066 0.0
C372 C 0.63095 0.62731 0.80175 0.0
C373 C 0.6236 0.5863 0.82871 0.0
C374 C 0.60221 0.56235 0.79092 0.0
C375 C 0.66178 0.56638 0.85777 0.0
C376 C 0.59774 0.59452 0.86518 0.0
C377 C 0.59154 0.634 0.85953 0.0
C378 C 0.56808 0.64879 0.88823 0.0
C379 C 0.55144 0.62266 0.92464 0.0
C380 C 0.55886 0.58224 0.93283 0.0
C381 C 0.58166 0.56796 0.90189 0.0
H382 H 0.89037 0.17095 0.20171 0.0
H383 H 0.79704 0.08796 0.19052 0.0
H384 H 0.82509 0.05012 0.27577 0.0
H385 H 0.96583 0.10187 0.26337 0.0
H386 H 0.99047 0.13355 0.30309 0.0
H387 H 0.96242 0.15381 0.24192 0.0
H388 H 0.92412 0.19445 0.28596 0.0
H389 H 0.94905 0.17316 0.34868 0.0
H390 H 0.89674 0.17097 0.33374 0.0
H391 H 0.86648 0.01897 0.3586 0.0
H392 H 0.91526 0.9991 0.43646 0.0
H393 H 0.97929 0.1049 0.39639 0.0
C394 C 0.87571 0.14506 0.21776 0.0
C395 C 0.84148 0.1323 0.19043 0.0
C396 C 0.82309 0.09816 0.21165 0.0
C397 C 0.83889 0.07655 0.25975 0.0
C398 C 0.87293 0.08973 0.28584 0.0
C399 C 0.891 0.12331 0.26572 0.0
C400 C 0.92749 0.13093 0.30118 0.0
C401 C 0.96368 0.12997 0.27586 0.0
C402 C 0.92419 0.16966 0.31853 0.0
C403 C 0.9271 0.09649 0.3446 0.0
C404 C 0.89572 0.07274 0.33461 0.0
C405 C 0.89084 0.03759 0.36715 0.0
C406 C 0.91878 0.02642 0.41099 0.0
C407 C 0.95072 0.05064 0.42226 0.0
C408 C 0.95473 0.08622 0.38886 0.0
H409 H 0.38668 0.40772 0.51157 0.0
H410 H 0.36161 0.29375 0.59509 0.0
H411 H 0.37399 0.31855 0.6756 0.0
H412 H 0.46508 0.43104 0.60918 0.0
H413 H 0.45126 0.48159 0.59618 0.0
H414 H 0.44253 0.45404 0.54592 0.0
H415 H 0.36955 0.47293 0.52918 0.0
H416 H 0.37797 0.50041 0.57939 0.0
H417 H 0.34211 0.46255 0.58098 0.0
H418 H 0.38592 0.3574 0.74679 0.0
H419 H 0.39463 0.40694 0.80121 0.0
H420 H 0.41435 0.49423 0.67069 0.0
C421 C 0.38456 0.38764 0.54682 0.0
C422 C 0.37323 0.34868 0.54682 0.0
C423 C 0.36984 0.32381 0.5939 0.0
C424 C 0.37714 0.33755 0.63992 0.0
C425 C 0.38804 0.3762 0.63838 0.0
C426 C 0.39188 0.4008 0.59298 0.0
C427 C 0.40242 0.44144 0.60111 0.0
C428 C 0.44272 0.45268 0.58728 0.0
C429 C 0.37114 0.47106 0.57088 0.0
C430 C 0.40297 0.43621 0.65801 0.0
C431 C 0.39501 0.39833 0.67904 0.0
C432 C 0.39256 0.38706 0.73074 0.0
C433 C 0.39775 0.41538 0.76145 0.0
C434 C 0.40508 0.45458 0.74033 0.0
C435 C 0.40838 0.46468 0.68804 0.0
H436 H 0.65594 0.62036 0.59772 0.0
H437 H 0.69337 0.73095 0.51711 0.0
H438 H 0.6776 0.708 0.43625 0.0
H439 H 0.68803 0.55937 0.52442 0.0
H440 H 0.64607 0.52839 0.52367 0.0
H441 H 0.66043 0.55308 0.57605 0.0
H442 H 0.59198 0.58441 0.56056 0.0
H443 H 0.57723 0.55951 0.5084 0.0
H444 H 0.57248 0.61159 0.49815 0.0
H445 H 0.66346 0.67125 0.36544 0.0
H446 H 0.64515 0.62608 0.30743 0.0
H447 H 0.60657 0.54329 0.43094 0.0
C448 C 0.66028 0.64019 0.56318 0.0
C449 C 0.67684 0.67732 0.56457 0.0
C450 C 0.68217 0.70186 0.51793 0.0
C451 C 0.67285 0.68929 0.47146 0.0
C452 C 0.6572 0.65245 0.47178 0.0
C453 C 0.65016 0.62855 0.51617 0.0
C454 C 0.63223 0.59059 0.50554 0.0
C455 C 0.65825 0.55581 0.53412 0.0
C456 C 0.59103 0.58629 0.51895 0.0
C457 C 0.6313 0.5966 0.4484 0.0
C458 C 0.64609 0.63238 0.42988 0.0
C459 C 0.65077 0.64356 0.37913 0.0
C460 C 0.63978 0.61761 0.34623 0.0
C461 C 0.62333 0.58099 0.36365 0.0
C462 C 0.61904 0.57071 0.41574 0.0
H463 H 0.79503 0.15675 0.95187 0.0
H464 H 0.90823 0.15561 0.04703 0.0
H465 H 0.9394 0.14393 0.97594 0.0
H466 H 0.81688 0.08137 0.88471 0.0
H467 H 0.78892 0.10473 0.82482 0.0
H468 H 0.77529 0.11103 0.88402 0.0
H469 H 0.77894 0.18574 0.85554 0.0
H470 H 0.7926 0.17968 0.79632 0.0
H471 H 0.8231 0.20717 0.8369 0.0
H472 H 0.9585 0.1367 0.89333 0.0
H473 H 0.96439 0.13313 0.80505 0.0
H474 H 0.83859 0.13663 0.76404 0.0
C475 C 0.82637 0.15401 0.9577 0.0
C476 C 0.84923 0.157 1.00498 0.0
C477 C 0.89013 0.15292 0.01132 0.0
C478 C 0.9081 0.14643 0.97114 0.0
C479 C 0.88475 0.14383 0.92498 0.0
C480 C 0.84477 0.14726 0.91809 0.0
C481 C 0.8265 0.14407 0.86429 0.0
C482 C 0.80036 0.10816 0.8645 0.0
C483 C 0.80396 0.18139 0.83665 0.0
C484 C 0.86254 0.13927 0.8417 0.0
C485 C 0.89579 0.139 0.87744 0.0
C486 C 0.93266 0.13633 0.86515 0.0
C487 C 0.93566 0.13407 0.81488 0.0
C488 C 0.90198 0.13432 0.77742 0.0
C489 C 0.86496 0.13666 0.79146 0.0
H490 H 0.35267 0.37644 0.31379 0.0
H491 H 0.45472 0.32689 0.41867 0.0
H492 H 0.49601 0.35318 0.35427 0.0
H493 H 0.38437 0.36251 0.19475 0.0
H494 H 0.36234 0.40806 0.16067 0.0
H495 H 0.34256 0.38107 0.21391 0.0
H496 H 0.34991 0.44373 0.25289 0.0
H497 H 0.37193 0.46892 0.20028 0.0
H498 H 0.39734 0.46489 0.26472 0.0
H499 H 0.5264 0.3873 0.28133 0.0
H500 H 0.54497 0.42792 0.20449 0.0
H501 H 0.42367 0.45744 0.14565 0.0
C502 C 0.38364 0.37065 0.32266 0.0
C503 C 0.40062 0.34938 0.37091 0.0
C504 C 0.44128 0.34304 0.38182 0.0
C505 C 0.46488 0.35778 0.34549 0.0
C506 C 0.44739 0.37905 0.2985 0.0
C507 C 0.40776 0.38565 0.28697 0.0
C508 C 0.39676 0.41123 0.23459 0.0
C509 C 0.36996 0.38934 0.19887 0.0
C510 C 0.37787 0.44946 0.23838 0.0
C511 C 0.43644 0.41823 0.21858 0.0
C512 C 0.46511 0.39915 0.25612 0.0
C513 C 0.50421 0.40217 0.25152 0.0
C514 C 0.51446 0.42554 0.20768 0.0
C515 C 0.48584 0.44591 0.16874 0.0
C516 C 0.4462 0.44181 0.17421 0.0
H517 H 0.17479 0.85922 0.89031 0.0
H518 H 0.21371 0.96205 0.94969 0.0
H519 H 0.18343 1.00356 0.86843 0.0
H520 H 0.18398 0.89559 0.75503 0.0
H521 H 0.14013 0.87053 0.73488 0.0
H522 H 0.17021 0.85169 0.79487 0.0
H523 H 0.10763 0.85269 0.83603 0.0
H524 H 0.07978 0.87441 0.77538 0.0
H525 H 0.0825 0.89817 0.82907 0.0
H526 H 0.14605 0.03354 0.78302 0.0
H527 H 0.10335 0.05039 0.69949 0.0
H528 H 0.08761 0.92778 0.69624 0.0
C529 C 0.1776 0.89046 0.88557 0.0
C530 C 0.19694 0.90763 0.9256 0.0
C531 C 0.19916 0.94856 0.91904 0.0
C532 C 0.18215 0.97225 0.87313 0.0
C533 C 0.16281 0.95446 0.83449 0.0
C534 C 0.16032 0.91452 0.84028 0.0
C535 C 0.1354 0.90282 0.79446 0.0
C536 C 0.15894 0.87878 0.76825 0.0
C537 C 0.09919 0.88073 0.80967 0.0
C538 C 0.12461 0.94239 0.76165 0.0
C539 C 0.14067 0.97178 0.78553 0.0
C540 C 0.13348 0.0108 0.76379 0.0
C541 C 0.10903 0.02006 0.71647 0.0
C542 C 0.09217 0.99041 0.69137 0.0
C543 C 0.10041 0.9511 0.71422 0.0
loop_
_geom_bond_atom_site_label_1
_geom_bond_atom_site_label_2
_geom_bond_distance
_geom_bond_site_symmetry_2
_ccdc_geom_bond_type
H0 C7 0.929 . S
H1 C10 0.930 . S
H2 C12 0.929 . S
H3 C4 0.969 . S
C4 H3 0.969 . S
C4 O5 1.550 . S
C4 H6 0.973 . S
O5 C4 1.550 . S
O5 C11 1.412 . S
H6 C4 0.973 . S
C7 H0 0.929 . S
C7 C8 1.400 1_554 S
C7 C9 1.364 . S
C8 C7 1.400 1_556 S
C8 C12 1.377 . S
C9 C7 1.364 . S
C9 C10 1.374 . S
C10 H1 0.930 . S
C10 C9 1.374 . S
C10 C11 1.383 . S
C11 O5 1.412 . S
C11 C10 1.383 . S
C11 C12 1.394 1_554 S
C12 H2 0.929 . S
C12 C8 1.377 . S
C12 C11 1.394 1_556 S
H13 C20 0.929 . S
H14 C23 0.930 . S
H15 C25 0.929 . S
H16 C17 0.969 . S
C17 H16 0.969 . S
C17 O18 1.550 . S
C17 H19 0.973 . S
O18 C17 1.550 . S
O18 C24 1.412 . S
H19 C17 0.973 . S
C20 H13 0.929 . S
C20 C21 1.400 . S
C20 C22 1.364 . S
C21 C20 1.400 . S
C21 C25 1.377 . S
C22 C20 1.364 . S
C22 C23 1.374 . S
C23 H14 0.930 . S
C23 C22 1.374 . S
C23 C24 1.383 . S
C24 O18 1.412 . S
C24 C23 1.383 . S
C24 C25 1.394 . S
C25 H15 0.929 . S
C25 C21 1.377 . S
C25 C24 1.394 . S
H26 C33 0.929 . S
H27 C36 0.930 1_556 S
H28 C38 0.929 . S
H29 C30 0.969 . S
C30 H29 0.969 . S
C30 O31 1.550 . S
C30 H32 0.973 1_554 S
O31 C30 1.550 . S
O31 C37 1.412 . S
H32 C30 0.973 1_556 S
C33 H26 0.929 . S
C33 C34 1.400 . S
C33 C35 1.364 . S
C34 C33 1.400 . S
C34 C38 1.377 . S
C35 C33 1.364 . S
C35 C36 1.374 . S
C36 H27 0.930 1_554 S
C36 C35 1.374 . S
C36 C37 1.383 . S
C37 O31 1.412 . S
C37 C36 1.383 . S
C37 C38 1.394 . S
C38 H28 0.929 . S
C38 C34 1.377 . S
C38 C37 1.394 . S
H39 C46 0.929 . S
H40 C49 0.930 . S
H41 C51 0.929 . S
H42 C43 0.969 . S
C43 H42 0.969 . S
C43 O44 1.550 . S
C43 H45 0.973 . S
O44 C43 1.550 . S
O44 C50 1.412 . S
H45 C43 0.973 . S
C46 H39 0.929 . S
C46 C47 1.400 . S
C46 C48 1.364 . S
C47 C46 1.400 . S
C47 C51 1.377 . S
C48 C46 1.364 . S
C48 C49 1.374 . S
C49 H40 0.930 . S
C49 C48 1.374 . S
C49 C50 1.383 . S
C50 O44 1.412 . S
C50 C49 1.383 . S
C50 C51 1.394 . S
C51 H41 0.929 . S
C51 C47 1.377 . S
C51 C50 1.394 . S
Eu52 N81 2.600 . S
Eu52 N87 2.562 . S
Eu52 O96 2.462 . S
Eu52 O97 2.373 . S
Eu52 O99 2.432 . S
Eu52 O100 2.291 1_565 S
Eu52 O104 2.335 1_465 S
Eu52 O107 2.372 1_455 S
Eu52 C116 2.787 . S
C53 N54 1.365 . S
C53 C56 1.405 . S
C53 C60 1.448 . S
N54 C53 1.365 . S
N54 C57 1.319 1_655 S
N54 Eu63 2.600 . S
C55 C57 1.397 . S
C55 C58 1.367 1_455 S
C55 H75 0.931 . S
C56 C53 1.405 . S
C56 C58 1.403 . S
C56 C62 1.439 . S
C57 N54 1.319 1_455 S
C57 C55 1.397 . S
C57 H68 0.930 . S
C58 C55 1.367 1_655 S
C58 C56 1.403 . S
C58 H79 0.929 . S
C59 C60 1.430 . S
C59 C61 1.387 . S
C59 C65 1.404 . S
C60 C53 1.448 . S
C60 C59 1.430 . S
C60 N64 1.351 . S
C61 C59 1.387 . S
C61 C62 1.374 . S
C61 H76 0.931 . S
C62 C56 1.439 . S
C62 C61 1.374 . S
C62 H77 0.931 . S
Eu63 N54 2.600 . S
Eu63 N64 2.562 . S
Eu63 O98 2.335 1_655 S
Eu63 O101 2.372 1_655 S
Eu63 O102 2.462 . S
Eu63 O103 2.373 . S
Eu63 O105 2.432 . S
Eu63 O106 2.291 1_545 S
Eu63 C127 2.787 . S
N64 C60 1.351 . S
N64 Eu63 2.562 . S
N64 C66 1.325 . S
C65 C59 1.404 . S
C65 C67 1.366 . S
C65 H73 0.930 . S
C66 N64 1.325 . S
C66 C67 1.416 . S
C66 H72 0.929 . S
C67 C65 1.366 . S
C67 C66 1.416 . S
C67 H69 0.930 . S
H68 C57 0.930 . S
H69 C67 0.930 . S
H70 C85 0.930 1_655 S
H71 C92 0.930 . S
H72 C66 0.929 . S
H73 C65 0.930 . S
H74 C88 0.929 . S
H75 C55 0.931 . S
H76 C61 0.931 . S
H77 C62 0.931 . S
H78 C83 0.931 1_655 S
H79 C58 0.929 . S
H80 C91 0.930 . S
N81 Eu52 2.600 . S
N81 C82 1.365 . S
N81 C85 1.319 . S
C82 N81 1.365 . S
C82 C84 1.405 . S
C82 C90 1.448 . S
C83 H78 0.931 1_455 S
C83 C85 1.397 . S
C83 C86 1.367 . S
C84 C82 1.405 . S
C84 C86 1.403 . S
C84 C117 1.439 . S
C85 H70 0.930 1_455 S
C85 N81 1.319 . S
C85 C83 1.397 . S
C86 C83 1.367 . S
C86 C84 1.403 . S
C86 H93 0.929 . S
N87 Eu52 2.562 . S
N87 C88 1.325 . S
N87 C90 1.351 . S
C88 H74 0.929 . S
C88 N87 1.325 . S
C88 C92 1.416 . S
C89 C90 1.430 . S
C89 C91 1.404 . S
C89 C118 1.387 . S
C90 C82 1.448 . S
C90 N87 1.351 . S
C90 C89 1.430 . S
C91 H80 0.930 . S
C91 C89 1.404 . S
C91 C92 1.366 . S
C92 H71 0.930 . S
C92 C88 1.416 . S
C92 C91 1.366 . S
H93 C86 0.929 . S
H94 C117 0.931 . S
H95 C118 0.931 . S
O96 Eu52 2.462 . S
O96 C116 1.252 . S
O97 Eu52 2.373 . S
O97 C108 1.249 . S
O98 Eu63 2.335 1_455 S
O98 C108 1.264 1_545 S
O99 Eu52 2.432 . S
O99 C116 1.268 . S
O100 Eu52 2.291 1_545 S
O100 C115 1.255 . S
O101 Eu63 2.372 1_455 S
O101 C115 1.257 . S
O102 Eu63 2.462 . S
O102 C127 1.252 . S
O103 Eu63 2.373 . S
O103 C119 1.249 . S
O104 Eu52 2.335 1_645 S
O104 C119 1.264 . S
O105 Eu63 2.432 . S
O105 C127 1.268 . S
O106 Eu63 2.291 1_565 S
O106 C126 1.255 . S
O107 Eu52 2.372 1_655 S
O107 C126 1.257 . S
C108 O97 1.249 . S
C108 O98 1.264 1_565 S
C109 C112 1.382 . S
C109 C114 1.390 . S
C109 C116 1.506 . S
C110 C111 1.398 . S
C110 C114 1.392 . S
C111 C110 1.398 . S
C111 C113 1.372 . S
C111 H128 0.931 . S
C112 C109 1.382 . S
C112 C113 1.390 . S
C112 H129 0.931 . S
C113 C111 1.372 . S
C113 C112 1.390 . S
C113 H130 0.929 . S
C114 C109 1.390 . S
C114 C110 1.392 . S
C114 H131 0.930 . S
C115 O100 1.255 . S
C115 O101 1.257 . S
C116 Eu52 2.787 . S
C116 O96 1.252 . S
C116 O99 1.268 . S
C116 C109 1.506 . S
C117 C84 1.439 . S
C117 H94 0.931 . S
C117 C118 1.374 . S
C118 C89 1.387 . S
C118 H95 0.931 . S
C118 C117 1.374 . S
C119 O103 1.249 . S
C119 O104 1.264 . S
C120 C123 1.382 . S
C120 C124 1.390 . S
C120 C127 1.506 . S
C121 C122 1.398 . S
C121 C124 1.392 . S
C122 C121 1.398 . S
C122 C125 1.372 . S
C122 H132 0.931 . S
C123 C120 1.382 . S
C123 C125 1.390 . S
C123 H133 0.931 . S
C124 C120 1.390 . S
C124 C121 1.392 . S
C124 H134 0.930 . S
C125 C122 1.372 . S
C125 C123 1.390 . S
C125 H135 0.929 . S
C126 O106 1.255 . S
C126 O107 1.257 . S
C127 Eu63 2.787 . S
C127 O102 1.252 . S
C127 O105 1.268 . S
C127 C120 1.506 . S
H128 C111 0.931 . S
H129 C112 0.931 . S
H130 C113 0.929 . S
H131 C114 0.930 . S
H132 C122 0.931 . S
H133 C123 0.931 . S
H134 C124 0.930 . S
H135 C125 0.929 . S
Eu136 N165 2.600 . S
Eu136 N171 2.562 1_556 S
Eu136 O180 2.462 . S
Eu136 O181 2.373 1_556 S
Eu136 O183 2.432 . S
Eu136 O184 2.291 1_556 S
Eu136 O188 2.335 . S
Eu136 O191 2.372 1_556 S
Eu136 C200 2.787 . S
C137 N138 1.365 . S
C137 C140 1.405 . S
C137 C144 1.448 . S
N138 C137 1.365 . S
N138 C141 1.319 . S
N138 Eu147 2.600 . S
C139 C141 1.397 . S
C139 C142 1.367 . S
C139 H159 0.931 . S
C140 C137 1.405 . S
C140 C142 1.403 . S
C140 C146 1.439 . S
C141 N138 1.319 . S
C141 C139 1.397 . S
C141 H152 0.930 . S
C142 C139 1.367 . S
C142 C140 1.403 . S
C142 H163 0.929 . S
C143 C144 1.430 . S
C143 C145 1.387 . S
C143 C149 1.404 . S
C144 C137 1.448 . S
C144 C143 1.430 . S
C144 N148 1.351 . S
C145 C143 1.387 . S
C145 C146 1.374 . S
C145 H160 0.931 . S
C146 C140 1.439 . S
C146 C145 1.374 . S
C146 H161 0.931 . S
Eu147 N138 2.600 . S
Eu147 N148 2.562 . S
Eu147 O182 2.335 . S
Eu147 O185 2.372 . S
Eu147 O186 2.462 . S
Eu147 O187 2.373 . S
Eu147 O189 2.432 . S
Eu147 O190 2.291 . S
Eu147 C211 2.787 . S
N148 C144 1.351 . S
N148 Eu147 2.562 . S
N148 C150 1.325 . S
C149 C143 1.404 . S
C149 C151 1.366 . S
C149 H157 0.930 . S
C150 N148 1.325 . S
C150 C151 1.416 . S
C150 H156 0.929 . S
C151 C149 1.366 . S
C151 C150 1.416 . S
C151 H153 0.930 . S
H152 C141 0.930 . S
H153 C151 0.930 . S
H154 C169 0.930 . S
H155 C176 0.930 . S
H156 C150 0.929 . S
H157 C149 0.930 . S
H158 C172 0.929 . S
H159 C139 0.931 . S
H160 C145 0.931 . S
H161 C146 0.931 . S
H162 C167 0.931 . S
H163 C142 0.929 . S
H164 C175 0.930 . S
N165 Eu136 2.600 . S
N165 C166 1.365 1_556 S
N165 C169 1.319 . S
C166 N165 1.365 1_554 S
C166 C168 1.405 . S
C166 C174 1.448 . S
C167 H162 0.931 . S
C167 C169 1.397 . S
C167 C170 1.367 1_556 S
C168 C166 1.405 . S
C168 C170 1.403 . S
C168 C201 1.439 . S
C169 H154 0.930 . S
C169 N165 1.319 . S
C169 C167 1.397 . S
C170 C167 1.367 1_554 S
C170 C168 1.403 . S
C170 H177 0.929 . S
N171 Eu136 2.562 1_554 S
N171 C172 1.325 . S
N171 C174 1.351 . S
C172 H158 0.929 . S
C172 N171 1.325 . S
C172 C176 1.416 . S
C173 C174 1.430 . S
C173 C175 1.404 . S
C173 C202 1.387 . S
C174 C166 1.448 . S
C174 N171 1.351 . S
C174 C173 1.430 . S
C175 H164 0.930 . S
C175 C173 1.404 . S
C175 C176 1.366 . S
C176 H155 0.930 . S
C176 C172 1.416 . S
C176 C175 1.366 . S
H177 C170 0.929 . S
H178 C201 0.931 . S
H179 C202 0.931 . S
O180 Eu136 2.462 . S
O180 C200 1.252 . S
O181 Eu136 2.373 1_554 S
O181 C192 1.249 . S
O182 Eu147 2.335 . S
O182 C192 1.264 . S
O183 Eu136 2.432 . S
O183 C200 1.268 . S
O184 Eu136 2.291 1_554 S
O184 C199 1.255 . S
O185 Eu147 2.372 . S
O185 C199 1.257 . S
O186 Eu147 2.462 . S
O186 C211 1.252 . S
O187 Eu147 2.373 . S
O187 C203 1.249 1_554 S
O188 Eu136 2.335 . S
O188 C203 1.264 . S
O189 Eu147 2.432 . S
O189 C211 1.268 . S
O190 Eu147 2.291 . S
O190 C210 1.255 . S
O191 Eu136 2.372 1_554 S
O191 C210 1.257 . S
C192 O181 1.249 . S
C192 O182 1.264 . S
C193 C196 1.382 . S
C193 C198 1.390 . S
C193 C200 1.506 . S
C194 C195 1.398 . S
C194 C198 1.392 . S
C195 C194 1.398 . S
C195 C197 1.372 . S
C195 H212 0.931 . S
C196 C193 1.382 . S
C196 C197 1.390 . S
C196 H213 0.931 . S
C197 C195 1.372 . S
C197 C196 1.390 . S
C197 H214 0.929 . S
C198 C193 1.390 . S
C198 C194 1.392 . S
C198 H215 0.930 . S
C199 O184 1.255 . S
C199 O185 1.257 . S
C200 Eu136 2.787 . S
C200 O180 1.252 . S
C200 O183 1.268 . S
C200 C193 1.506 . S
C201 C168 1.439 . S
C201 H178 0.931 . S
C201 C202 1.374 . S
C202 C173 1.387 . S
C202 H179 0.931 . S
C202 C201 1.374 . S
C203 O187 1.249 1_556 S
C203 O188 1.264 . S
C204 C207 1.382 . S
C204 C208 1.390 . S
C204 C211 1.506 . S
C205 C206 1.398 . S
C205 C208 1.392 . S
C206 C205 1.398 . S
C206 C209 1.372 . S
C206 H216 0.931 . S
C207 C204 1.382 . S
C207 C209 1.390 . S
C207 H217 0.931 . S
C208 C204 1.390 . S
C208 C205 1.392 . S
C208 H218 0.930 . S
C209 C206 1.372 . S
C209 C207 1.390 . S
C209 H219 0.929 . S
C210 O190 1.255 . S
C210 O191 1.257 . S
C211 Eu147 2.787 . S
C211 O186 1.252 . S
C211 O189 1.268 . S
C211 C204 1.506 . S
H212 C195 0.931 . S
H213 C196 0.931 . S
H214 C197 0.929 . S
H215 C198 0.930 . S
H216 C206 0.931 . S
H217 C207 0.931 . S
H218 C208 0.930 . S
H219 C209 0.929 . S
H220 C232 0.930 . S
H221 C234 0.930 . S
H222 C235 0.930 . S
H223 C239 0.959 . S
H224 C239 0.959 . S
H225 C239 0.961 . S
H226 C240 0.960 . S
H227 C240 0.961 . S
H228 C240 0.959 . S
H229 C243 0.929 . S
H230 C244 0.931 . S
H231 C246 0.930 . S
C232 H220 0.930 . S
C232 C233 1.399 . S
C232 C237 1.399 . S
C233 C232 1.399 . S
C233 C234 1.376 . S
C234 H221 0.930 . S
C234 C233 1.376 . S
C234 C235 1.388 . S
C235 H222 0.930 . S
C235 C234 1.388 . S
C235 C236 1.390 . S
C236 C235 1.390 . S
C236 C237 1.394 . S
C236 C242 1.465 . S
C237 C232 1.399 . S
C237 C236 1.394 . S
C237 C238 1.516 . S
C238 C237 1.516 . S
C238 C239 1.502 . S
C238 C240 1.561 . S
C238 C241 1.526 . S
C239 H223 0.959 . S
C239 H224 0.959 . S
C239 H225 0.961 . S
C239 C238 1.502 . S
C240 H226 0.960 . S
C240 H227 0.961 . S
C240 H228 0.959 . S
C240 C238 1.561 . S
C241 C238 1.526 . S
C241 C242 1.396 . S
C241 C246 1.390 . S
C242 C236 1.465 . S
C242 C241 1.396 . S
C242 C243 1.399 . S
C243 H229 0.929 . S
C243 C242 1.399 . S
C243 C244 1.385 . S
C244 H230 0.931 . S
C244 C243 1.385 . S
C244 C245 1.389 . S
C245 C244 1.389 . S
C245 C246 1.387 . S
C246 H231 0.930 . S
C246 C241 1.390 . S
C246 C245 1.387 . S
H247 C259 0.930 1_556 S
H248 C261 0.930 . S
H249 C262 0.930 . S
H250 C266 0.959 . S
H251 C266 0.959 . S
H252 C266 0.961 . S
H253 C267 0.960 . S
H254 C267 0.961 . S
H255 C267 0.959 . S
H256 C270 0.929 . S
H257 C271 0.931 . S
H258 C273 0.930 1_556 S
C259 H247 0.930 1_554 S
C259 C260 1.399 . S
C259 C264 1.399 . S
C260 C259 1.399 . S
C260 C261 1.376 . S
C261 H248 0.930 . S
C261 C260 1.376 . S
C261 C262 1.388 . S
C262 H249 0.930 . S
C262 C261 1.388 . S
C262 C263 1.390 . S
C263 C262 1.390 . S
C263 C264 1.394 . S
C263 C269 1.465 . S
C264 C259 1.399 . S
C264 C263 1.394 . S
C264 C265 1.516 1_554 S
C265 C264 1.516 1_556 S
C265 C266 1.502 . S
C265 C267 1.561 . S
C265 C268 1.526 1_556 S
C266 H250 0.959 . S
C266 H251 0.959 . S
C266 H252 0.961 . S
C266 C265 1.502 . S
C267 H253 0.960 . S
C267 H254 0.961 . S
C267 H255 0.959 . S
C267 C265 1.561 . S
C268 C265 1.526 1_554 S
C268 C269 1.396 . S
C268 C273 1.390 . S
C269 C263 1.465 . S
C269 C268 1.396 . S
C269 C270 1.399 . S
C270 H256 0.929 . S
C270 C269 1.399 . S
C270 C271 1.385 . S
C271 H257 0.931 . S
C271 C270 1.385 . S
C271 C272 1.389 . S
C272 C271 1.389 . S
C272 C273 1.387 . S
C273 H258 0.930 1_554 S
C273 C268 1.390 . S
C273 C272 1.387 . S
H274 C286 0.930 . S
H275 C288 0.930 . S
H276 C289 0.930 . S
H277 C293 0.959 . S
H278 C293 0.959 . S
H279 C293 0.961 . S
H280 C294 0.960 . S
H281 C294 0.961 . S
H282 C294 0.959 . S
H283 C297 0.929 . S
H284 C298 0.931 . S
H285 C300 0.930 . S
C286 H274 0.930 . S
C286 C287 1.399 . S
C286 C291 1.399 . S
C287 C286 1.399 . S
C287 C288 1.376 . S
C288 H275 0.930 . S
C288 C287 1.376 . S
C288 C289 1.388 . S
C289 H276 0.930 . S
C289 C288 1.388 . S
C289 C290 1.390 . S
C290 C289 1.390 . S
C290 C291 1.394 . S
C290 C296 1.465 . S
C291 C286 1.399 . S
C291 C290 1.394 . S
C291 C292 1.516 . S
C292 C291 1.516 . S
C292 C293 1.502 . S
C292 C294 1.561 . S
C292 C295 1.526 . S
C293 H277 0.959 . S
C293 H278 0.959 . S
C293 H279 0.961 . S
C293 C292 1.502 . S
C294 H280 0.960 . S
C294 H281 0.961 . S
C294 H282 0.959 . S
C294 C292 1.561 . S
C295 C292 1.526 . S
C295 C296 1.396 . S
C295 C300 1.390 . S
C296 C290 1.465 . S
C296 C295 1.396 . S
C296 C297 1.399 . S
C297 H283 0.929 . S
C297 C296 1.399 . S
C297 C298 1.385 . S
C298 H284 0.931 . S
C298 C297 1.385 . S
C298 C299 1.389 . S
C299 C298 1.389 . S
C299 C300 1.387 . S
C300 H285 0.930 . S
C300 C295 1.390 . S
C300 C299 1.387 . S
H301 C313 0.930 1_556 S
H302 C315 0.930 . S
H303 C316 0.930 . S
H304 C320 0.959 . S
H305 C320 0.959 . S
H306 C320 0.961 . S
H307 C321 0.960 . S
H308 C321 0.961 . S
H309 C321 0.959 . S
H310 C324 0.929 . S
H311 C325 0.931 . S
H312 C327 0.930 1_556 S
C313 H301 0.930 1_554 S
C313 C314 1.399 . S
C313 C318 1.399 . S
C314 C313 1.399 . S
C314 C315 1.376 . S
C315 H302 0.930 . S
C315 C314 1.376 . S
C315 C316 1.388 . S
C316 H303 0.930 . S
C316 C315 1.388 . S
C316 C317 1.390 . S
C317 C316 1.390 . S
C317 C318 1.394 . S
C317 C323 1.465 . S
C318 C313 1.399 . S
C318 C317 1.394 . S
C318 C319 1.516 1_554 S
C319 C318 1.516 1_556 S
C319 C320 1.502 . S
C319 C321 1.561 . S
C319 C322 1.526 1_556 S
C320 H304 0.959 . S
C320 H305 0.959 . S
C320 H306 0.961 . S
C320 C319 1.502 . S
C321 H307 0.960 . S
C321 H308 0.961 . S
C321 H309 0.959 . S
C321 C319 1.561 . S
C322 C319 1.526 1_554 S
C322 C323 1.396 . S
C322 C327 1.390 . S
C323 C317 1.465 . S
C323 C322 1.396 . S
C323 C324 1.399 . S
C324 H310 0.929 . S
C324 C323 1.399 . S
C324 C325 1.385 . S
C325 H311 0.931 . S
C325 C324 1.385 . S
C325 C326 1.389 . S
C326 C325 1.389 . S
C326 C327 1.387 . S
C327 H312 0.930 1_554 S
C327 C322 1.390 . S
C327 C326 1.387 . S
H328 C340 0.930 . S
H329 C342 0.930 . S
H330 C343 0.930 . S
H331 C347 0.959 . S
H332 C347 0.959 1_545 S
H333 C347 0.961 . S
H334 C348 0.960 . S
H335 C348 0.961 1_545 S
H336 C348 0.959 . S
H337 C351 0.929 . S
H338 C352 0.931 . S
H339 C354 0.930 . S
C340 H328 0.930 . S
C340 C341 1.399 . S
C340 C345 1.399 . S
C341 C340 1.399 . S
C341 C342 1.376 . S
C342 H329 0.930 . S
C342 C341 1.376 . S
C342 C343 1.388 . S
C343 H330 0.930 . S
C343 C342 1.388 . S
C343 C344 1.390 . S
C344 C343 1.390 . S
C344 C345 1.394 . S
C344 C350 1.465 . S
C345 C340 1.399 . S
C345 C344 1.394 . S
C345 C346 1.516 . S
C346 C345 1.516 . S
C346 C347 1.502 . S
C346 C348 1.561 . S
C346 C349 1.526 . S
C347 H331 0.959 . S
C347 H332 0.959 1_565 S
C347 H333 0.961 . S
C347 C346 1.502 . S
C348 H334 0.960 . S
C348 H335 0.961 1_565 S
C348 H336 0.959 . S
C348 C346 1.561 . S
C349 C346 1.526 . S
C349 C350 1.396 . S
C349 C354 1.390 . S
C350 C344 1.465 . S
C350 C349 1.396 . S
C350 C351 1.399 . S
C351 H337 0.929 . S
C351 C350 1.399 . S
C351 C352 1.385 . S
C352 H338 0.931 . S
C352 C351 1.385 . S
C352 C353 1.389 . S
C353 C352 1.389 . S
C353 C354 1.387 . S
C354 H339 0.930 . S
C354 C349 1.390 . S
C354 C353 1.387 . S
H355 C367 0.930 . S
H356 C369 0.930 . S
H357 C370 0.930 . S
H358 C374 0.959 . S
H359 C374 0.959 . S
H360 C374 0.961 . S
H361 C375 0.960 . S
H362 C375 0.961 . S
H363 C375 0.959 . S
H364 C378 0.929 . S
H365 C379 0.931 . S
H366 C381 0.930 . S
C367 H355 0.930 . S
C367 C368 1.399 . S
C367 C372 1.399 . S
C368 C367 1.399 . S
C368 C369 1.376 . S
C369 H356 0.930 . S
C369 C368 1.376 . S
C369 C370 1.388 . S
C370 H357 0.930 . S
C370 C369 1.388 . S
C370 C371 1.390 . S
C371 C370 1.390 . S
C371 C372 1.394 . S
C371 C377 1.465 . S
C372 C367 1.399 . S
C372 C371 1.394 . S
C372 C373 1.516 . S
C373 C372 1.516 . S
C373 C374 1.502 . S
C373 C375 1.561 . S
C373 C376 1.526 . S
C374 H358 0.959 . S
C374 H359 0.959 . S
C374 H360 0.961 . S
C374 C373 1.502 . S
C375 H361 0.960 . S
C375 H362 0.961 . S
C375 H363 0.959 . S
C375 C373 1.561 . S
C376 C373 1.526 . S
C376 C377 1.396 . S
C376 C381 1.390 . S
C377 C371 1.465 . S
C377 C376 1.396 . S
C377 C378 1.399 . S
C378 H364 0.929 . S
C378 C377 1.399 . S
C378 C379 1.385 . S
C379 H365 0.931 . S
C379 C378 1.385 . S
C379 C380 1.389 . S
C380 C379 1.389 . S
C380 C381 1.387 . S
C381 H366 0.930 . S
C381 C376 1.390 . S
C381 C380 1.387 . S
H382 C394 0.930 . S
H383 C396 0.930 . S
H384 C397 0.930 . S
H385 C401 0.959 . S
H386 C401 0.959 . S
H387 C401 0.961 . S
H388 C402 0.960 . S
H389 C402 0.961 . S
H390 C402 0.959 . S
H391 C405 0.929 1_565 S
H392 C406 0.931 1_565 S
H393 C408 0.930 . S
C394 H382 0.930 . S
C394 C395 1.399 . S
C394 C399 1.399 . S
C395 C394 1.399 . S
C395 C396 1.376 . S
C396 H383 0.930 . S
C396 C395 1.376 . S
C396 C397 1.388 . S
C397 H384 0.930 . S
C397 C396 1.388 . S
C397 C398 1.390 . S
C398 C397 1.390 . S
C398 C399 1.394 . S
C398 C404 1.465 . S
C399 C394 1.399 . S
C399 C398 1.394 . S
C399 C400 1.516 . S
C400 C399 1.516 . S
C400 C401 1.502 . S
C400 C402 1.561 . S
C400 C403 1.526 . S
C401 H385 0.959 . S
C401 H386 0.959 . S
C401 H387 0.961 . S
C401 C400 1.502 . S
C402 H388 0.960 . S
C402 H389 0.961 . S
C402 H390 0.959 . S
C402 C400 1.561 . S
C403 C400 1.526 . S
C403 C404 1.396 . S
C403 C408 1.390 . S
C404 C398 1.465 . S
C404 C403 1.396 . S
C404 C405 1.399 . S
C405 H391 0.929 1_545 S
C405 C404 1.399 . S
C405 C406 1.385 . S
C406 H392 0.931 1_545 S
C406 C405 1.385 . S
C406 C407 1.389 . S
C407 C406 1.389 . S
C407 C408 1.387 . S
C408 H393 0.930 . S
C408 C403 1.390 . S
C408 C407 1.387 . S
H409 C421 0.930 . S
H410 C423 0.930 . S
H411 C424 0.930 . S
H412 C428 0.959 . S
H413 C428 0.959 . S
H414 C428 0.961 . S
H415 C429 0.960 . S
H416 C429 0.961 . S
H417 C429 0.959 . S
H418 C432 0.929 . S
H419 C433 0.931 . S
H420 C435 0.930 . S
C421 H409 0.930 . S
C421 C422 1.399 . S
C421 C426 1.399 . S
C422 C421 1.399 . S
C422 C423 1.376 . S
C423 H410 0.930 . S
C423 C422 1.376 . S
C423 C424 1.388 . S
C424 H411 0.930 . S
C424 C423 1.388 . S
C424 C425 1.390 . S
C425 C424 1.390 . S
C425 C426 1.394 . S
C425 C431 1.465 . S
C426 C421 1.399 . S
C426 C425 1.394 . S
C426 C427 1.516 . S
C427 C426 1.516 . S
C427 C428 1.502 . S
C427 C429 1.561 . S
C427 C430 1.526 . S
C428 H412 0.959 . S
C428 H413 0.959 . S
C428 H414 0.961 . S
C428 C427 1.502 . S
C429 H415 0.960 . S
C429 H416 0.961 . S
C429 H417 0.959 . S
C429 C427 1.561 . S
C430 C427 1.526 . S
C430 C431 1.396 . S
C430 C435 1.390 . S
C431 C425 1.465 . S
C431 C430 1.396 . S
C431 C432 1.399 . S
C432 H418 0.929 . S
C432 C431 1.399 . S
C432 C433 1.385 . S
C433 H419 0.931 . S
C433 C432 1.385 . S
C433 C434 1.389 . S
C434 C433 1.389 . S
C434 C435 1.387 . S
C435 H420 0.930 . S
C435 C430 1.390 . S
C435 C434 1.387 . S
H436 C448 0.930 . S
H437 C450 0.930 . S
H438 C451 0.930 . S
H439 C455 0.959 . S
H440 C455 0.959 . S
H441 C455 0.961 . S
H442 C456 0.960 . S
H443 C456 0.961 . S
H444 C456 0.959 . S
H445 C459 0.929 . S
H446 C460 0.931 . S
H447 C462 0.930 . S
C448 H436 0.930 . S
C448 C449 1.399 . S
C448 C453 1.399 . S
C449 C448 1.399 . S
C449 C450 1.376 . S
C450 H437 0.930 . S
C450 C449 1.376 . S
C450 C451 1.388 . S
C451 H438 0.930 . S
C451 C450 1.388 . S
C451 C452 1.390 . S
C452 C451 1.390 . S
C452 C453 1.394 . S
C452 C458 1.465 . S
C453 C448 1.399 . S
C453 C452 1.394 . S
C453 C454 1.516 . S
C454 C453 1.516 . S
C454 C455 1.502 . S
C454 C456 1.561 . S
C454 C457 1.526 . S
C455 H439 0.959 . S
C455 H440 0.959 . S
C455 H441 0.961 . S
C455 C454 1.502 . S
C456 H442 0.960 . S
C456 H443 0.961 . S
C456 H444 0.959 . S
C456 C454 1.561 . S
C457 C454 1.526 . S
C457 C458 1.396 . S
C457 C462 1.390 . S
C458 C452 1.465 . S
C458 C457 1.396 . S
C458 C459 1.399 . S
C459 H445 0.929 . S
C459 C458 1.399 . S
C459 C460 1.385 . S
C460 H446 0.931 . S
C460 C459 1.385 . S
C460 C461 1.389 . S
C461 C460 1.389 . S
C461 C462 1.387 . S
C462 H447 0.930 . S
C462 C457 1.390 . S
C462 C461 1.387 . S
H463 C475 0.930 . S
H464 C477 0.930 1_554 S
H465 C478 0.930 . S
H466 C482 0.959 . S
H467 C482 0.959 . S
H468 C482 0.961 . S
H469 C483 0.960 . S
H470 C483 0.961 . S
H471 C483 0.959 . S
H472 C486 0.929 . S
H473 C487 0.931 . S
H474 C489 0.930 . S
C475 H463 0.930 . S
C475 C476 1.399 . S
C475 C480 1.399 . S
C476 C475 1.399 . S
C476 C477 1.376 . S
C477 H464 0.930 1_556 S
C477 C476 1.376 . S
C477 C478 1.388 . S
C478 H465 0.930 . S
C478 C477 1.388 . S
C478 C479 1.390 . S
C479 C478 1.390 . S
C479 C480 1.394 . S
C479 C485 1.465 . S
C480 C475 1.399 . S
C480 C479 1.394 . S
C480 C481 1.516 . S
C481 C480 1.516 . S
C481 C482 1.502 . S
C481 C483 1.561 . S
C481 C484 1.526 . S
C482 H466 0.959 . S
C482 H467 0.959 . S
C482 H468 0.961 . S
C482 C481 1.502 . S
C483 H469 0.960 . S
C483 H470 0.961 . S
C483 H471 0.959 . S
C483 C481 1.561 . S
C484 C481 1.526 . S
C484 C485 1.396 . S
C484 C489 1.390 . S
C485 C479 1.465 . S
C485 C484 1.396 . S
C485 C486 1.399 . S
C486 H472 0.929 . S
C486 C485 1.399 . S
C486 C487 1.385 . S
C487 H473 0.931 . S
C487 C486 1.385 . S
C487 C488 1.389 . S
C488 C487 1.389 . S
C488 C489 1.387 . S
C489 H474 0.930 . S
C489 C484 1.390 . S
C489 C488 1.387 . S
H490 C502 0.930 . S
H491 C504 0.930 . S
H492 C505 0.930 . S
H493 C509 0.959 . S
H494 C509 0.959 . S
H495 C509 0.961 . S
H496 C510 0.960 . S
H497 C510 0.961 . S
H498 C510 0.959 . S
H499 C513 0.929 . S
H500 C514 0.931 . S
H501 C516 0.930 . S
C502 H490 0.930 . S
C502 C503 1.399 . S
C502 C507 1.399 . S
C503 C502 1.399 . S
C503 C504 1.376 . S
C504 H491 0.930 . S
C504 C503 1.376 . S
C504 C505 1.388 . S
C505 H492 0.930 . S
C505 C504 1.388 . S
C505 C506 1.390 . S
C506 C505 1.390 . S
C506 C507 1.394 . S
C506 C512 1.465 . S
C507 C502 1.399 . S
C507 C506 1.394 . S
C507 C508 1.516 . S
C508 C507 1.516 . S
C508 C509 1.502 . S
C508 C510 1.561 . S
C508 C511 1.526 . S
C509 H493 0.959 . S
C509 H494 0.959 . S
C509 H495 0.961 . S
C509 C508 1.502 . S
C510 H496 0.960 . S
C510 H497 0.961 . S
C510 H498 0.959 . S
C510 C508 1.561 . S
C511 C508 1.526 . S
C511 C512 1.396 . S
C511 C516 1.390 . S
C512 C506 1.465 . S
C512 C511 1.396 . S
C512 C513 1.399 . S
C513 H499 0.929 . S
C513 C512 1.399 . S
C513 C514 1.385 . S
C514 H500 0.931 . S
C514 C513 1.385 . S
C514 C515 1.389 . S
C515 C514 1.389 . S
C515 C516 1.387 . S
C516 H501 0.930 . S
C516 C511 1.390 . S
C516 C515 1.387 . S
H517 C529 0.930 . S
H518 C531 0.930 . S
H519 C532 0.930 . S
H520 C536 0.959 . S
H521 C536 0.959 . S
H522 C536 0.961 . S
H523 C537 0.960 . S
H524 C537 0.961 . S
H525 C537 0.959 . S
H526 C540 0.929 1_545 S
H527 C541 0.931 1_545 S
H528 C543 0.930 . S
C529 H517 0.930 . S
C529 C530 1.399 . S
C529 C534 1.399 . S
C530 C529 1.399 . S
C530 C531 1.376 . S
C531 H518 0.930 . S
C531 C530 1.376 . S
C531 C532 1.388 . S
C532 H519 0.930 . S
C532 C531 1.388 . S
C532 C533 1.390 . S
C533 C532 1.390 . S
C533 C534 1.394 . S
C533 C539 1.465 . S
C534 C529 1.399 . S
C534 C533 1.394 . S
C534 C535 1.516 . S
C535 C534 1.516 . S
C535 C536 1.502 . S
C535 C537 1.561 . S
C535 C538 1.526 . S
C536 H520 0.959 . S
C536 H521 0.959 . S
C536 H522 0.961 . S
C536 C535 1.502 . S
C537 H523 0.960 . S
C537 H524 0.961 . S
C537 H525 0.959 . S
C537 C535 1.561 . S
C538 C535 1.526 . S
C538 C539 1.396 . S
C538 C543 1.390 . S
C539 C533 1.465 . S
C539 C538 1.396 . S
C539 C540 1.399 . S
C540 H526 0.929 1_565 S
C540 C539 1.399 . S
C540 C541 1.385 . S
C541 H527 0.931 1_565 S
C541 C540 1.385 . S
C541 C542 1.389 . S
C542 C541 1.389 . S
C542 C543 1.387 . S
C543 H528 0.930 . S
C543 C538 1.390 . S
C543 C542 1.387 . S
C245 C115 1.629 . S
C233 C43 1.515 . S
C260 C4 1.601 . S
C272 C210 1.653 . S
C287 C17 1.615 . S
C299 C126 1.670 . S
C314 C30 1.641 . S
C326 C199 1.618 . S
C353 C110 1.341 . S
C341 C9 1.564 . S
C380 C203 1.659 . S
C368 C21 1.666 . S
C395 C34 1.626 . S
C407 C119 1.625 . S
C422 C48 1.584 . S
C434 C194 1.404 . S
C461 C205 1.461 . S
C449 C22 1.578 . S
C488 C121 1.348 . S
C476 C35 1.565 1_556 S
C515 C192 1.668 . S
C503 C47 1.644 . S
C530 C8 1.615 . S
C542 C108 1.624 . S
