# Generated by pormake.
# Topology pth, (4,4)-cn, num edge types: 1
# Building blocks:
#     Node 0, Type 0, BuildingBlock: NAHDIM_clean_sbu_0, # of connection points: 4
#     Node 1, Type 0, BuildingBlock: NAHDIM_clean_sbu_0, # of connection points: 4
#     Node 2, Type 0, BuildingBlock: NAHDIM_clean_sbu_0, # of connection points: 4
#     Node 3, Type 1, BuildingBlock: AZAVOO_clean_linker_0, # of connection points: 4
#     Node 4, Type 1, BuildingBlock: AZAVOO_clean_linker_0, # of connection points: 4
#     Node 5, Type 1, BuildingBlock: AZAVOO_clean_linker_0, # of connection points: 4
#     Edge 6, Type (0, 1), BuildingBlock: MIFKUJ_clean_linker_0, # of connection points: 2
#     Edge 7, Type (0, 1), BuildingBlock: MIFKUJ_clean_linker_0, # of connection points: 2
#     Edge 8, Type (0, 1), BuildingBlock: MIFKUJ_clean_linker_0, # of connection points: 2
#     Edge 9, Type (0, 1), BuildingBlock: MIFKUJ_clean_linker_0, # of connection points: 2
#     Edge 10, Type (0, 1), BuildingBlock: MIFKUJ_clean_linker_0, # of connection points: 2
#     Edge 11, Type (0, 1), BuildingBlock: MIFKUJ_clean_linker_0, # of connection points: 2
#     Edge 12, Type (0, 1), BuildingBlock: MIFKUJ_clean_linker_0, # of connection points: 2
#     Edge 13, Type (0, 1), BuildingBlock: MIFKUJ_clean_linker_0, # of connection points: 2
#     Edge 14, Type (0, 1), BuildingBlock: MIFKUJ_clean_linker_0, # of connection points: 2
#     Edge 15, Type (0, 1), BuildingBlock: MIFKUJ_clean_linker_0, # of connection points: 2
#     Edge 16, Type (0, 1), BuildingBlock: MIFKUJ_clean_linker_0, # of connection points: 2
#     Edge 17, Type (0, 1), BuildingBlock: MIFKUJ_clean_linker_0, # of connection points: 2
# Relax obj value: 0.147
# Max RMSD: 0.228
# Mean RMSD: 0.208
data_MOF--net-pth--node1-NAHDIM_clean_sbu_0--node2-AZAVOO_clean_linker_0--edge1-MIFKUJ_clean_linker_0
_symmetry_space_group_name_H-M    P1
_symmetry_Int_Tables_number       1
_symmetry_cell_setting            triclinic
loop_
_symmetry_equiv_pos_as_xyz
'x, y, z'
_cell_length_a     32.744468
_cell_length_b     33.071002
_cell_length_c     87.35845
_cell_angle_alpha  93.948903
_cell_angle_beta   89.011766
_cell_angle_gamma 120.55179
loop_
_atom_site_label
_atom_site_type_symbol
_atom_site_fract_x
_atom_site_fract_y
_atom_site_fract_z
_atom_type_partial_charge
C0 C 0.10593 0.04975 0.10143 0.0
O1 O 0.11499 0.09037 0.1081 0.0
O2 O 0.05422 0.1144 0.09284 0.0
Zn3 Zn 0.07645 0.08288 0.07723 0.0
O4 O 0.0278 0.04793 0.06044 0.0
C5 C 0.16416 0.17098 0.07483 0.0
O6 O 0.15521 0.18008 0.08896 0.0
O7 O 0.08957 0.03858 0.08774 0.0
C8 C 0.01072 0.0685 0.05337 0.0
O9 O 0.02388 0.11238 0.05766 0.0
C10 C 0.01844 0.09149 0.10111 0.0
O11 O 0.99278 0.04549 0.09875 0.0
O12 O 0.1358 0.13161 0.06783 0.0
C13 C 0.05746 0.16364 0.39517 0.0
O14 O 0.02812 0.14752 0.40661 0.0
O15 O 0.07542 0.04611 0.3962 0.0
Zn16 Zn 0.09254 0.10804 0.40726 0.0
O17 O 0.05005 0.0974 0.42512 0.0
C18 C 0.18669 0.12379 0.41097 0.0
O19 O 0.17415 0.094 0.39882 0.0
O20 O 0.08825 0.15132 0.3931 0.0
C21 C 0.04654 0.07125 0.43566 0.0
O22 O 0.07023 0.04892 0.43464 0.0
C23 C 0.03411 0.00995 0.39524 0.0
O24 O -0.00172 0.01236 0.40124 0.0
O25 O 0.15836 0.13687 0.41605 0.0
C26 C 0.10737 0.99543 0.71545 0.0
O27 O 0.07715 -2e-05 0.7071 0.0
O28 O 0.02918 0.03616 0.72552 0.0
Zn29 Zn 0.07046 0.0289 0.74042 0.0
O30 O 0.11576 0.09173 0.75093 0.0
C31 C 0.01149 0.00292 0.7661 0.0
O32 O 0.02381 0.04741 0.76598 0.0
O33 O 0.10907 0.00395 0.7299 0.0
C34 C 0.14447 0.09329 0.76086 0.0
O35 O 0.14303 0.05412 0.76375 0.0
C36 C 0.04441 0.07199 0.71774 0.0
O37 O 0.08913 0.1055 0.71922 0.0
O38 O 0.02817 0.98588 0.75606 0.0
H39 H 0.97068 0.46451 0.14296 0.0
H40 H 0.08556 0.86287 0.25941 0.0
H41 H 0.93023 0.4424 0.22559 0.0
H42 H 0.92521 0.37019 0.21432 0.0
H43 H 0.06849 0.42053 0.23024 0.0
H44 H 0.07348 0.49315 0.24119 0.0
H45 H 0.94496 0.52695 0.20479 0.0
H46 H 0.94313 0.49988 0.17788 0.0
H47 H 0.0777 0.50817 0.1849 0.0
H48 H 0.07938 0.53584 0.21171 0.0
H49 H 0.96252 0.62676 0.22127 0.0
H50 H 0.98067 0.68509 0.20244 0.0
H51 H 0.1138 0.69155 0.1932 0.0
H52 H 0.09609 0.63426 0.21233 0.0
H53 H 0.95203 0.62853 0.2572 0.0
H54 H 0.96032 0.70598 0.26278 0.0
H55 H 0.10659 0.77237 0.24892 0.0
H56 H 0.09791 0.6948 0.24349 0.0
H57 H 0.9401 0.53916 0.27713 0.0
H58 H 0.93458 0.56867 0.30308 0.0
H59 H 0.07825 0.68531 0.30003 0.0
H60 H 0.08425 0.65371 0.27464 0.0
H61 H 0.93773 0.45346 0.26389 0.0
H62 H 0.94275 0.40647 0.2836 0.0
H63 H 0.09177 0.50881 0.29057 0.0
H64 H 0.0864 0.55553 0.27098 0.0
O65 O 0.9722 0.47542 0.15362 0.0
O66 O 0.04121 0.47992 0.15786 0.0
O67 O 0.0049 0.79593 0.26309 0.0
O68 O 0.08147 0.83183 0.2575 0.0
C69 C 0.00806 0.51978 0.2383 0.0
C70 C 0.01287 0.54915 0.22656 0.0
C71 C 0.01908 0.59411 0.2304 0.0
C72 C 0.01866 0.60904 0.24593 0.0
C73 C 0.01374 0.57951 0.25765 0.0
C74 C 0.00984 0.53551 0.25382 0.0
C75 C 0.00225 0.47293 0.23413 0.0
C76 C 0.96008 0.43726 0.22694 0.0
C77 C 0.95723 0.396 0.22058 0.0
C78 C 0.9966 0.38989 0.22131 0.0
C79 C 0.03781 0.42455 0.22936 0.0
C80 C 0.0406 0.4658 0.23573 0.0
C81 C 0.01214 0.53308 0.2102 0.0
C82 C 0.97404 0.52301 0.20047 0.0
C83 C 0.97307 0.50748 0.18512 0.0
C84 C 0.01022 0.50174 0.17924 0.0
C85 C 0.04846 0.5121 0.18905 0.0
C86 C 0.04945 0.52776 0.20438 0.0
C87 C 0.02806 0.62646 0.21817 0.0
C88 C 0.99552 0.64073 0.21515 0.0
C89 C 0.00592 0.67396 0.20445 0.0
C90 C 0.04864 0.69272 0.19645 0.0
C91 C 0.08048 0.67727 0.19915 0.0
C92 C 0.0704 0.64462 0.21002 0.0
C93 C 0.02429 0.65609 0.24988 0.0
C94 C 0.98587 0.65987 0.25546 0.0
C95 C 0.99067 0.70412 0.25858 0.0
C96 C 0.03405 0.74538 0.25619 0.0
C97 C 0.07266 0.74136 0.25083 0.0
C98 C 0.06781 0.69711 0.24771 0.0
C99 C 0.01238 0.59464 0.27395 0.0
C100 C 0.97071 0.57042 0.28227 0.0
C101 C 0.96751 0.58757 0.29704 0.0
C102 C 0.00581 0.62956 0.30366 0.0
C103 C 0.04825 0.65245 0.29549 0.0
C104 C 0.05162 0.63486 0.28085 0.0
C105 C 0.01171 0.50775 0.26607 0.0
C106 C 0.97129 0.46572 0.26977 0.0
C107 C 0.97419 0.43915 0.28101 0.0
C108 C 0.0177 0.45407 0.28852 0.0
C109 C 0.05796 0.49639 0.28484 0.0
C110 C 0.0549 0.52314 0.27375 0.0
C111 C 0.00899 0.48506 0.16295 0.0
C112 C 0.03906 0.79245 0.25914 0.0
H113 H 0.62378 0.06292 0.47381 0.0
H114 H 0.35772 0.15155 0.60581 0.0
H115 H 0.62793 0.02008 0.55708 0.0
H116 H 0.6943 0.01475 0.54583 0.0
H117 H 0.78912 0.16187 0.55924 0.0
H118 H 0.72247 0.16677 0.57056 0.0
H119 H 0.55335 0.03212 0.53641 0.0
H120 H 0.5716 0.03184 0.50913 0.0
H121 H 0.69287 0.17236 0.51672 0.0
H122 H 0.67383 0.17233 0.54394 0.0
H123 H 0.473 0.03883 0.55271 0.0
H124 H 0.42599 0.04602 0.53267 0.0
H125 H 0.53769 0.18976 0.52798 0.0
H126 H 0.5841 0.18238 0.54815 0.0
H127 H 0.46728 0.03072 0.58918 0.0
H128 H 0.39826 0.03325 0.59913 0.0
H129 H 0.46546 0.1799 0.58958 0.0
H130 H 0.53464 0.17707 0.5799 0.0
H131 H 0.54531 0.0226 0.60642 0.0
H132 H 0.49992 0.00839 0.63 0.0
H133 H 0.53208 0.15256 0.63318 0.0
H134 H 0.5783 0.16685 0.60976 0.0
H135 H 0.6265 0.02201 0.59117 0.0
H136 H 0.68201 0.01992 0.60912 0.0
H137 H 0.7365 0.16665 0.62314 0.0
H138 H 0.68115 0.16845 0.60502 0.0
O139 O 0.61716 0.06383 0.48463 0.0
O140 O 0.67924 0.13596 0.48914 0.0
O141 O 0.35176 0.07422 0.6067 0.0
O142 O 0.38422 0.14937 0.60169 0.0
C143 C 0.62961 0.0981 0.56964 0.0
C144 C 0.60102 0.1021 0.55865 0.0
C145 C 0.56117 0.10509 0.56336 0.0
C146 C 0.54927 0.10297 0.57899 0.0
C147 C 0.5784 0.09958 0.59002 0.0
C148 C 0.6187 0.09747 0.58533 0.0
C149 C 0.67061 0.09381 0.56455 0.0
C150 C 0.66324 0.05085 0.55783 0.0
C151 C 0.70109 0.04784 0.5515 0.0
C152 C 0.74669 0.08794 0.55168 0.0
C153 C 0.75422 0.13055 0.55892 0.0
C154 C 0.7164 0.13338 0.5654 0.0
C155 C 0.61231 0.1022 0.54211 0.0
C156 C 0.58374 0.06283 0.53213 0.0
C157 C 0.59431 0.06275 0.51657 0.0
C158 C 0.63374 0.10207 0.51074 0.0
C159 C 0.66228 0.14149 0.52083 0.0
C160 C 0.65158 0.14155 0.53638 0.0
C161 C 0.53178 0.1101 0.55182 0.0
C162 C 0.487 0.07193 0.54742 0.0
C163 C 0.46045 0.07601 0.53594 0.0
C164 C 0.4783 0.11842 0.52876 0.0
C165 C 0.52288 0.15685 0.53342 0.0
C166 C 0.54947 0.15265 0.54485 0.0
C167 C 0.50594 0.10373 0.58385 0.0
C168 C 0.46691 0.06329 0.58919 0.0
C169 C 0.42756 0.06485 0.59487 0.0
C170 C 0.4264 0.10685 0.59519 0.0
C171 C 0.46522 0.14703 0.58952 0.0
C172 C 0.50467 0.14547 0.58391 0.0
C173 C 0.5645 0.09556 0.60632 0.0
C174 C 0.54445 0.05169 0.61261 0.0
C175 C 0.5185 0.04361 0.62604 0.0
C176 C 0.51208 0.07925 0.63321 0.0
C177 C 0.53631 0.12449 0.62776 0.0
C178 C 0.56274 0.1327 0.61445 0.0
C179 C 0.65003 0.09538 0.59684 0.0
C180 C 0.65029 0.05354 0.5982 0.0
C181 C 0.68178 0.0524 0.60848 0.0
C182 C 0.71362 0.09318 0.61748 0.0
C183 C 0.71271 0.13487 0.61621 0.0
C184 C 0.68102 0.13589 0.60599 0.0
C185 C 0.6449 0.10183 0.49421 0.0
C186 C 0.38512 0.10895 0.60153 0.0
H187 H 0.60766 0.74384 0.00943 0.0
H188 H 0.30019 0.30513 0.89332 0.0
H189 H 0.57339 0.73116 0.92759 0.0
H190 H 0.64376 0.80218 0.93817 0.0
H191 H 0.73006 0.74225 0.92377 0.0
H192 H 0.65886 0.67016 0.91422 0.0
H193 H 0.51142 0.66956 0.94958 0.0
H194 H 0.54247 0.70545 0.97536 0.0
H195 H 0.64492 0.65973 0.9713 0.0
H196 H 0.61317 0.62366 0.94559 0.0
H197 H 0.44133 0.5827 0.94814 0.0
H198 H 0.40776 0.5357 0.97046 0.0
H199 H 0.48178 0.46121 0.9584 0.0
H200 H 0.5154 0.50855 0.93627 0.0
H201 H 0.39491 0.53257 0.9161 0.0
H202 H 0.32473 0.45433 0.91114 0.0
H203 H 0.4154 0.39847 0.89802 0.0
H204 H 0.48518 0.47669 0.90325 0.0
H205 H 0.44014 0.57586 0.88295 0.0
H206 H 0.40308 0.52413 0.85976 0.0
H207 H 0.51256 0.48767 0.85871 0.0
H208 H 0.54841 0.5383 0.88211 0.0
H209 H 0.55215 0.69826 0.88798 0.0
H210 H 0.60511 0.74444 0.86779 0.0
H211 H 0.67352 0.66186 0.86797 0.0
H212 H 0.62019 0.61583 0.8879 0.0
O213 O 0.59552 0.72888 -0.00069 0.0
O214 O 0.64953 0.70734 0.99623 0.0
O215 O 0.28227 0.36647 0.90279 0.0
O216 O 0.3273 0.33629 0.89557 0.0
C217 C 0.56756 0.64894 0.91734 0.0
C218 C 0.54225 0.62371 0.92998 0.0
C219 C 0.5026 0.57804 0.92752 0.0
C220 C 0.48727 0.55809 0.91245 0.0
C221 C 0.51275 0.58323 0.89981 0.0
C222 C 0.5533 0.62833 0.90227 0.0
C223 C 0.61107 0.69556 0.9202 0.0
C224 C 0.6077 0.73392 0.92643 0.0
C225 C 0.64808 0.77461 0.93238 0.0
C226 C 0.6926 0.77776 0.93199 0.0
C227 C 0.69621 0.74062 0.92455 0.0
C228 C 0.65569 0.69964 0.91886 0.0
C229 C 0.55984 0.64376 0.94583 0.0
C230 C 0.54023 0.66696 0.95437 0.0
C231 C 0.55817 0.68756 0.96905 0.0
C232 C 0.59617 0.68544 0.9754 0.0
C233 C 0.61562 0.66198 0.96676 0.0
C234 C 0.59752 0.64126 0.95211 0.0
C235 C 0.48078 0.54897 0.94069 0.0
C236 C 0.45032 0.55633 0.9504 0.0
C237 C 0.4314 0.52966 0.96311 0.0
C238 C 0.44232 0.49495 0.96614 0.0
C239 C 0.47249 0.48745 0.95625 0.0
C240 C 0.4917 0.51439 0.94366 0.0
C241 C 0.44499 0.51026 0.90992 0.0
C242 C 0.39947 0.5033 0.91223 0.0
C243 C 0.35949 0.45863 0.90935 0.0
C244 C 0.36446 0.42016 0.90411 0.0
C245 C 0.41028 0.4273 0.90199 0.0
C246 C 0.4502 0.47195 0.90493 0.0
C247 C 0.49711 0.56106 0.88409 0.0
C248 C 0.45685 0.55779 0.87741 0.0
C249 C 0.43582 0.52831 0.86417 0.0
C250 C 0.45477 0.50161 0.8575 0.0
C251 C 0.49695 0.50749 0.8637 0.0
C252 C 0.51785 0.53686 0.87693 0.0
C253 C 0.58209 0.65345 0.88919 0.0
C254 C 0.57813 0.68982 0.88343 0.0
C255 C 0.60856 0.71627 0.87201 0.0
C256 C 0.64342 0.70671 0.86626 0.0
C257 C 0.64649 0.66953 0.87192 0.0
C258 C 0.6161 0.6432 0.8833 0.0
C259 C 0.61547 0.7078 0.99093 0.0
C260 C 0.32211 0.37278 0.90082 0.0
H261 H 0.94371 0.05528 0.12076 0.0
H262 H 0.93302 0.09557 0.14378 0.0
H263 H 0.06291 0.22279 0.13454 0.0
H264 H 0.07378 0.18324 0.11161 0.0
H265 H 0.05704 0.19736 0.16484 0.0
H266 H 0.96072 0.21417 0.12675 0.0
H267 H 0.8956 0.1838 0.10755 0.0
H268 H 0.7948 0.10612 0.14162 0.0
H269 H 0.85948 0.1356 0.16098 0.0
H270 H 0.06636 0.3939 0.20304 0.0
H271 H 0.0635 0.33159 0.18575 0.0
H272 H 0.92325 0.2342 0.20118 0.0
H273 H 0.92582 0.29704 0.21855 0.0
H274 H 0.92498 0.2294 0.17096 0.0
H275 H 0.0187 0.22229 0.21013 0.0
H276 H 0.08283 0.25191 0.22963 0.0
H277 H 0.18695 0.308 0.19458 0.0
H278 H 0.12348 0.27935 0.17487 0.0
C279 C 0.96976 0.09193 0.12358 0.0
C280 C 0.00958 0.11606 0.11437 0.0
C281 C 0.96361 0.11483 0.13672 0.0
C282 C 0.99731 0.16203 0.14085 0.0
C283 C 0.03669 0.18624 0.13157 0.0
C284 C 0.04266 0.16362 0.11842 0.0
C285 C 0.99234 0.18669 0.15488 0.0
C286 C 0.02829 0.20456 0.16621 0.0
C287 C 0.95375 0.19424 0.15689 0.0
C288 C 0.91497 0.17657 0.14525 0.0
C289 C 0.92472 0.19026 0.13011 0.0
C290 C 0.88789 0.17329 0.11921 0.0
C291 C 0.84111 0.14291 0.12335 0.0
C292 C 0.83106 0.12956 0.13841 0.0
C293 C 0.86778 0.1464 0.14936 0.0
C294 C 0.03538 0.35894 0.20307 0.0
C295 C 0.99645 0.35026 0.21224 0.0
C296 C 0.03376 0.32329 0.19316 0.0
C297 C 0.99342 0.278 0.19232 0.0
C298 C 0.95479 0.26886 0.20169 0.0
C299 C 0.95629 0.30472 0.21159 0.0
C300 C 0.99071 0.24172 0.18074 0.0
C301 C 0.95327 0.22147 0.16986 0.0
C302 C 0.02779 0.23162 0.17921 0.0
C303 C 0.06623 0.24882 0.19102 0.0
C304 C 0.05526 0.24121 0.20658 0.0
C305 C 0.09152 0.2578 0.21768 0.0
C306 C 0.13893 0.28187 0.21335 0.0
C307 C 0.1502 0.28933 0.19791 0.0
C308 C 0.11408 0.27285 0.18677 0.0
H309 H 0.16695 0.29469 0.22196 0.0
H310 H 0.81264 0.12983 0.11489 0.0
H311 H 0.00297 0.12155 0.44252 0.0
H312 H 0.9588 0.11986 0.46542 0.0
H313 H 0.98086 0.01311 0.48259 0.0
H314 H 0.02577 0.0147 0.4596 0.0
H315 H 0.88478 0.99623 0.48471 0.0
H316 H 0.0442 0.11569 0.4987 0.0
H317 H 0.12191 0.18615 0.49472 0.0
H318 H 0.05522 0.26855 0.49167 0.0
H319 H 0.97699 0.19842 0.49541 0.0
H320 H 0.7751 0.02331 0.55268 0.0
H321 H 0.83361 0.01702 0.53635 0.0
H322 H 0.86077 0.14114 0.51436 0.0
H323 H 0.80368 0.14823 0.53092 0.0
H324 H 0.94017 0.1431 0.51803 0.0
H325 H 0.78253 0.02544 0.49905 0.0
H326 H 0.70234 0.95633 0.50103 0.0
H327 H 0.76261 0.87235 0.51156 0.0
H328 H 0.8432 0.94119 0.50983 0.0
C329 C -0.00157 0.09755 0.45111 0.0
C330 C 0.01805 0.06837 0.44928 0.0
C331 C 0.9733 0.09678 0.46421 0.0
C332 C 0.96715 0.06678 0.47572 0.0
C333 C 0.98553 0.03664 0.47382 0.0
C334 C 0.01116 0.03767 0.46072 0.0
C335 C 0.94144 0.06753 0.48969 0.0
C336 C 0.89726 0.0279 0.49226 0.0
C337 C 0.95757 0.10923 0.49928 0.0
C338 C 0.00468 0.1517 0.49727 0.0
C339 C 0.04606 0.14877 0.49709 0.0
C340 C 0.09022 0.18866 0.49489 0.0
C341 C 0.0935 0.23179 0.49293 0.0
C342 C 0.05263 0.23513 0.4932 0.0
C343 C 0.00838 0.19533 0.49539 0.0
C344 C 0.7941 0.04947 0.54447 0.0
C345 C 0.78503 0.08626 0.54303 0.0
C346 C 0.82732 0.04579 0.53512 0.0
C347 C 0.85107 0.07821 0.52397 0.0
C348 C 0.84305 0.1158 0.52291 0.0
C349 C 0.81047 0.11988 0.53238 0.0
C350 C 0.88258 0.07225 0.51281 0.0
C351 C 0.92799 0.11098 0.51076 0.0
C352 C 0.8672 0.02993 0.50354 0.0
C353 C 0.81882 0.98855 0.5045 0.0
C354 C 0.77865 0.99231 0.50189 0.0
C355 C 0.73314 0.95319 0.50296 0.0
C356 C 0.72738 0.91002 0.50647 0.0
C357 C 0.76713 0.90584 0.50888 0.0
C358 C 0.81272 0.94488 0.50786 0.0
H359 H 0.69213 0.87977 0.50729 0.0
H360 H 0.12771 0.26263 0.49121 0.0
H361 H 0.9696 0.90748 0.76707 0.0
H362 H 0.90729 0.85695 0.78425 0.0
H363 H 0.91119 0.97882 0.80705 0.0
H364 H 0.97364 0.02968 0.78999 0.0
H365 H 0.90571 0.91587 0.82732 0.0
H366 H 0.82649 0.91344 0.78104 0.0
H367 H 0.81071 0.9025 0.75312 0.0
H368 H 0.77413 0.75811 0.75343 0.0
H369 H 0.79037 0.76839 0.78134 0.0
H370 H 0.68918 0.80254 0.86604 0.0
H371 H 0.75108 0.8525 0.84871 0.0
H372 H 0.74018 0.72933 0.8243 0.0
H373 H 0.67688 0.67899 0.84123 0.0
H374 H 0.74978 0.79254 0.80482 0.0
H375 H 0.82795 0.79384 0.85091 0.0
H376 H 0.84394 0.80398 0.87881 0.0
H377 H 0.88329 0.94923 0.8789 0.0
H378 H 0.86685 0.93977 0.85102 0.0
C379 C 0.95747 0.92359 0.77581 0.0
C380 C 0.97627 0.97254 0.77711 0.0
C381 C 0.92177 0.89465 0.78557 0.0
C382 C 0.90432 0.91418 0.79676 0.0
C383 C 0.92415 0.96313 0.79843 0.0
C384 C 0.95969 0.99208 0.78865 0.0
C385 C 0.86447 0.88349 0.80646 0.0
C386 C 0.87143 0.88926 0.82244 0.0
C387 C 0.82017 0.84816 0.80001 0.0
C388 C 0.81012 0.84182 0.78325 0.0
C389 C 0.81545 0.87946 0.77513 0.0
C390 C 0.80636 0.87336 0.75931 0.0
C391 C 0.79155 0.82967 0.7515 0.0
C392 C 0.78567 0.79195 0.75949 0.0
C393 C 0.79478 0.79788 0.77532 0.0
C394 C 0.69929 0.78603 0.8568 0.0
C395 C 0.67831 0.73682 0.85504 0.0
C396 C 0.73505 0.81465 0.84702 0.0
C397 C 0.75078 0.79461 0.83541 0.0
C398 C 0.72875 0.74548 0.83327 0.0
C399 C 0.69287 0.71682 0.84301 0.0
C400 C 0.79093 0.82491 0.82571 0.0
C401 C 0.78406 0.81909 0.80972 0.0
C402 C 0.83539 0.86006 0.83215 0.0
C403 C 0.84572 0.86597 0.8489 0.0
C404 C 0.83968 0.82785 0.8569 0.0
C405 C 0.84887 0.83349 0.87271 0.0
C406 C 0.8645 0.87719 0.88063 0.0
C407 C 0.87112 0.91538 0.87275 0.0
C408 C 0.8619 0.90992 0.85694 0.0
H409 H 0.87158 0.88148 0.89287 0.0
H410 H 0.78453 0.82502 0.73925 0.0
H411 H 0.11277 0.97433 0.0902 0.0
H412 H 0.11432 0.91476 0.10491 0.0
H413 H 0.10834 0.9877 0.14705 0.0
H414 H 0.1091 0.04834 0.13246 0.0
H415 H 0.16377 0.95546 0.15139 0.0
H416 H 0.00728 0.8897 0.12867 0.0
H417 H 0.94921 0.86593 0.1074 0.0
H418 H 0.99444 0.77358 0.08704 0.0
H419 H 0.0532 0.79727 0.10811 0.0
H420 H 0.04539 0.77293 0.20171 0.0
H421 H 0.0658 0.83451 0.18402 0.0
H422 H 0.09964 0.75729 0.14937 0.0
H423 H 0.07944 0.69551 0.1671 0.0
H424 H 0.03834 0.78908 0.13936 0.0
H425 H 0.18774 0.84926 0.16548 0.0
H426 H 0.24092 0.87231 0.18809 0.0
H427 H 0.20326 0.97492 0.20361 0.0
H428 H 0.14927 0.95199 0.1812 0.0
C429 C 0.11229 0.97782 0.10261 0.0
C430 C 0.11044 0.01569 0.1102 0.0
C431 C 0.11298 0.9437 0.111 0.0
C432 C 0.11043 0.94621 0.12707 0.0
C433 C 0.11028 0.98496 0.13466 0.0
C434 C 0.11058 0.01955 0.12631 0.0
C435 C 0.10572 0.90764 0.13605 0.0
C436 C 0.13617 0.91914 0.14879 0.0
C437 C 0.07036 0.86002 0.13249 0.0
C438 C 0.03497 0.84566 0.11985 0.0
C439 C 0.00504 0.86457 0.1196 0.0
C440 C 0.97199 0.85108 0.10759 0.0
C441 C 0.96825 0.81838 0.09585 0.0
C442 C 0.99745 0.79898 0.09612 0.0
C443 C 0.03062 0.81241 0.1081 0.0
C444 C 0.05705 0.76909 0.1903 0.0
C445 C 0.06074 0.72957 0.1857 0.0
C446 C 0.06902 0.80434 0.18028 0.0
C447 C 0.08454 0.80045 0.16548 0.0
C448 C 0.08792 0.76086 0.16079 0.0
C449 C 0.07653 0.72582 0.1709 0.0
C450 C 0.09562 0.83723 0.15481 0.0
C451 C 0.06637 0.82534 0.14177 0.0
C452 C 0.13147 0.88453 0.15826 0.0
C453 C 0.16418 0.89865 0.1717 0.0
C454 C 0.1905 0.87648 0.17377 0.0
C455 C 0.22085 0.88958 0.18655 0.0
C456 C 0.2254 0.925 0.1973 0.0
C457 C 0.19968 0.94747 0.19528 0.0
C458 C 0.16925 0.93448 0.18253 0.0
H459 H 0.24891 0.93508 0.20718 0.0
H460 H 0.94264 0.80798 0.08657 0.0
H461 H 0.23634 0.07797 0.40946 0.0
H462 H 0.29359 0.08452 0.42848 0.0
H463 H 0.28801 0.19922 0.45301 0.0
H464 H 0.22995 0.19247 0.43416 0.0
H465 H 0.38373 0.20569 0.45092 0.0
H466 H 0.22098 0.10687 0.46595 0.0
H467 H 0.1382 0.04286 0.46127 0.0
H468 H 0.185 0.94347 0.45286 0.0
H469 H 0.26822 0.00714 0.45721 0.0
H470 H 0.46253 0.19052 0.52454 0.0
H471 H 0.41868 0.19712 0.50339 0.0
H472 H 0.38948 0.06185 0.48333 0.0
H473 H 0.43291 0.05493 0.5045 0.0
H474 H 0.31216 0.06808 0.48285 0.0
H475 H 0.47446 0.16513 0.46887 0.0
H476 H 0.55777 0.22876 0.47266 0.0
H477 H 0.5136 0.3308 0.47846 0.0
H478 H 0.4299 0.26765 0.47492 0.0
C479 C 0.24815 0.1054 0.41866 0.0
C480 C 0.22825 0.13435 0.42044 0.0
C481 C 0.28081 0.10904 0.42951 0.0
C482 C 0.29448 0.14205 0.44215 0.0
C483 C 0.27775 0.17358 0.44329 0.0
C484 C 0.24451 0.16952 0.43256 0.0
C485 C 0.32135 0.13958 0.45505 0.0
C486 C 0.36814 0.17598 0.45805 0.0
C487 C 0.30088 0.10032 0.46409 0.0
C488 C 0.25084 0.06184 0.46173 0.0
C489 C 0.21365 0.07144 0.46297 0.0
C490 C 0.16665 0.03522 0.46039 0.0
C491 C 0.15636 0.98915 0.45673 0.0
C492 C 0.19304 0.97919 0.45567 0.0
C493 C 0.24013 0.01533 0.4582 0.0
C494 C 0.44694 0.16234 0.51557 0.0
C495 C 0.45111 0.12223 0.51614 0.0
C496 C 0.42199 0.16617 0.50349 0.0
C497 C 0.40135 0.13023 0.49169 0.0
C498 C 0.40513 0.08997 0.49232 0.0
C499 C 0.42978 0.08599 0.50444 0.0
C500 C 0.37512 0.13414 0.47878 0.0
C501 C 0.32812 0.09792 0.47578 0.0
C502 C 0.39558 0.17354 0.46972 0.0
C503 C 0.44588 0.2116 0.47178 0.0
C504 C 0.48248 0.20109 0.47107 0.0
C505 C 0.52977 0.23708 0.47316 0.0
C506 C 0.54096 0.28378 0.47584 0.0
C507 C 0.50487 0.2946 0.4764 0.0
C508 C 0.4575 0.25873 0.47434 0.0
H509 H 0.5776 0.31159 0.47745 0.0
H510 H 0.11995 0.96114 0.45474 0.0
H511 H 0.20498 0.1069 0.78431 0.0
H512 H 0.25846 0.18055 0.79899 0.0
H513 H 0.21379 0.25498 0.7714 0.0
H514 H 0.16011 0.18127 0.75655 0.0
H515 H 0.31169 0.30317 0.7768 0.0
H516 H 0.16956 0.23026 0.80544 0.0
H517 H 0.10255 0.16574 0.81812 0.0
H518 H 0.19948 0.15856 0.84875 0.0
H519 H 0.26717 0.22258 0.83608 0.0
H520 H 0.40917 0.50512 0.83197 0.0
H521 H 0.3576 0.43925 0.81366 0.0
H522 H 0.38714 0.34698 0.8377 0.0
H523 H 0.43762 0.41198 0.8561 0.0
H524 H 0.29253 0.31151 0.8332 0.0
H525 H 0.43495 0.38256 0.80345 0.0
H526 H 0.50134 0.44713 0.79057 0.0
H527 H 0.40281 0.45894 0.7621 0.0
H528 H 0.33577 0.39482 0.77497 0.0
C529 C 0.20659 0.1389 0.7813 0.0
C530 C 0.17806 0.1382 0.76934 0.0
C531 C 0.23712 0.18094 0.78972 0.0
C532 C 0.23962 0.22301 0.78637 0.0
C533 C 0.21223 0.22279 0.77416 0.0
C534 C 0.18148 0.18064 0.76575 0.0
C535 C 0.26996 0.26682 0.79596 0.0
C536 C 0.30715 0.30539 0.78911 0.0
C537 C 0.2641 0.26934 0.812 0.0
C538 C 0.22347 0.23096 0.81971 0.0
C539 C 0.17662 0.21467 0.81479 0.0
C540 C 0.13851 0.17823 0.82199 0.0
C541 C 0.14675 0.15799 0.83421 0.0
C542 C 0.19315 0.17424 0.83927 0.0
C543 C 0.2314 0.21063 0.8321 0.0
C544 C 0.40489 0.47083 0.83324 0.0
C545 C 0.42763 0.46374 0.8454 0.0
C546 C 0.37569 0.43338 0.82275 0.0
C547 C 0.36874 0.38835 0.82433 0.0
C548 C 0.39214 0.3815 0.83628 0.0
C549 C 0.42136 0.4188 0.84669 0.0
C550 C 0.33511 0.3475 0.81413 0.0
C551 C 0.297 0.30949 0.82089 0.0
C552 C 0.34008 0.34571 0.79802 0.0
C553 C 0.38035 0.38428 0.7903 0.0
C554 C 0.42743 0.39923 0.79454 0.0
C555 C 0.46518 0.43568 0.78722 0.0
C556 C 0.4563 0.45723 0.77555 0.0
C557 C 0.40963 0.44228 0.77116 0.0
C558 C 0.37175 0.40587 0.77845 0.0
H559 H 0.48557 0.48543 0.76989 0.0
H560 H 0.11719 0.12979 0.83977 0.0
H561 H 0.94947 0.01092 0.71335 0.0
H562 H 0.89549 0.01648 0.69591 0.0
H563 H 0.01126 0.14582 0.68049 0.0
H564 H 0.06561 0.14099 0.69817 0.0
H565 H 0.93337 0.1524 0.68583 0.0
H566 H 0.96825 0.04343 0.65826 0.0
H567 H 0.97596 0.97301 0.65462 0.0
H568 H 0.82722 0.88447 0.66253 0.0
H569 H 0.81874 0.95442 0.66644 0.0
H570 H 0.80794 0.15805 0.62111 0.0
H571 H 0.86566 0.15605 0.63795 0.0
H572 H 0.75552 0.02475 0.65419 0.0
H573 H 0.69771 0.0264 0.63725 0.0
H574 H 0.83318 0.0208 0.64777 0.0
H575 H 0.79851 0.12938 0.67608 0.0
H576 H 0.79046 0.19955 0.67995 0.0
H577 H 0.9383 0.28852 0.67083 0.0
H578 H 0.9471 0.21879 0.66669 0.0
C579 C 0.96357 0.04055 0.70624 0.0
C580 C 0.0119 0.07545 0.7071 0.0
C581 C 0.93266 0.04355 0.69623 0.0
C582 C 0.94951 0.08121 0.68676 0.0
C583 C 0.99761 0.1164 0.68768 0.0
C584 C 0.02861 0.11351 0.69776 0.0
C585 C 0.91663 0.08398 0.67604 0.0
C586 C 0.91198 0.12397 0.67734 0.0
C587 C 0.88801 0.04638 0.66521 0.0
C588 C 0.89295 0.00422 0.66277 0.0
C589 C 0.93725 0.00897 0.65933 0.0
C590 C 0.94175 0.96913 0.65721 0.0
C591 C 0.90212 0.9243 0.65838 0.0
C592 C 0.85789 0.91922 0.66164 0.0
C593 C 0.85321 0.95895 0.6638 0.0
C594 C 0.79598 0.12903 0.62839 0.0
C595 C 0.74833 0.09246 0.62793 0.0
C596 C 0.82896 0.12791 0.638 0.0
C597 C 0.81476 0.09051 0.64745 0.0
C598 C 0.76722 0.0539 0.64697 0.0
C599 C 0.73428 0.05485 0.6373 0.0
C600 C 0.8496 0.08905 0.65764 0.0
C601 C 0.85466 0.04931 0.65623 0.0
C602 C 0.87853 0.12684 0.66838 0.0
C603 C 0.87335 0.16883 0.67093 0.0
C604 C 0.82922 0.16388 0.67478 0.0
C605 C 0.82454 0.20358 0.67705 0.0
C606 C 0.86381 0.24846 0.6756 0.0
C607 C 0.9079 0.25373 0.67193 0.0
C608 C 0.91276 0.21414 0.66963 0.0
H609 H 0.86011 0.27915 0.67736 0.0
H610 H 0.90568 0.89351 0.65673 0.0
H611 H 0.98538 0.98202 0.03974 0.0
H612 H 0.93623 0.94342 0.01669 0.0
H613 H 0.91507 0.06099 0.01317 0.0
H614 H 0.96442 0.10013 0.03635 0.0
H615 H 0.83185 0.97381 0.0086 0.0
H616 H 0.989 0.05187 0.98946 0.0
H617 H 0.07359 0.07582 0.98849 0.0
H618 H 0.03582 0.93142 0.97986 0.0
H619 H 0.95096 0.9065 0.981 0.0
H620 H 0.71894 0.87135 0.93568 0.0
H621 H 0.77851 0.93146 0.95384 0.0
H622 H 0.81815 0.83228 0.9667 0.0
H623 H 0.75808 0.77184 0.94912 0.0
H624 H 0.89593 0.92279 0.9643 0.0
H625 H 0.741 0.84448 0.98721 0.0
H626 H 0.65597 0.8186 0.98836 0.0
H627 H 0.68967 0.96245 0.99029 0.0
H628 H 0.77499 0.98917 0.9888 0.0
C629 C 0.97021 -0.00029 0.03413 0.0
C630 C 0.97899 0.04426 0.03984 0.0
C631 C 0.94232 0.97768 0.0209 0.0
C632 C 0.92267 -0.00028 0.01312 0.0
C633 C 0.93023 0.04361 0.01898 0.0
C634 C 0.95843 0.06588 0.0322 0.0
C635 C 0.894 0.97633 -0.00108 0.0
C636 C 0.84609 0.96358 -0.00124 0.0
C637 C 0.91255 0.96248 0.9862 0.0
C638 C 0.96358 0.9773 0.98542 0.0
C639 C -0.00129 0.02518 0.98746 0.0
C640 C 0.04672 0.03894 0.98687 0.0
C641 C 0.06007 0.00516 0.98414 0.0
C642 C 0.02543 0.95755 0.98197 0.0
C643 C 0.97736 0.94359 0.98257 0.0
C644 C 0.74059 0.86245 0.94229 0.0
C645 C 0.73348 0.81663 0.94097 0.0
C646 C 0.77473 0.89689 0.95258 0.0
C647 C 0.80239 0.88608 0.96165 0.0
C648 C 0.79731 0.84134 0.95972 0.0
C649 C 0.76302 0.80686 0.94957 0.0
C650 C 0.8337 0.91955 0.97413 0.0
C651 C 0.88204 0.93401 0.97399 0.0
C652 C 0.81551 0.9348 0.9866 0.0
C653 C 0.76431 0.9188 0.9877 0.0
C654 C 0.73027 0.87058 0.98775 0.0
C655 C 0.68202 0.85575 0.98848 0.0
C656 C 0.66741 0.88884 0.98937 0.0
C657 C 0.70104 0.93685 0.98956 0.0
C658 C 0.74935 0.95187 0.98876 0.0
H659 H 0.63003 0.87728 0.98995 0.0
H660 H 0.09726 0.01588 0.98368 0.0
H661 H 0.95048 0.92708 0.38893 0.0
H662 H 0.94031 0.85372 0.37653 0.0
H663 H 0.09216 0.91831 0.37298 0.0
H664 H 0.10255 0.99169 0.38499 0.0
H665 H 0.05097 0.87388 0.34684 0.0
H666 H 0.02882 0.83715 0.39957 0.0
H667 H 0.99323 0.82838 0.42511 0.0
H668 H 0.8568 0.72593 0.40554 0.0
H669 H 0.89148 0.73458 0.37982 0.0
H670 H 0.072 0.67929 0.32675 0.0
H671 H 0.06947 0.73382 0.34653 0.0
H672 H 0.92453 0.68548 0.3337 0.0
H673 H 0.92725 0.63265 0.31336 0.0
H674 H 0.95918 0.71794 0.36869 0.0
H675 H 0.98272 0.76235 0.31559 0.0
H676 H 0.02061 0.76564 0.29078 0.0
H677 H 0.15803 0.85415 0.31214 0.0
H678 H 0.12076 0.84964 0.33729 0.0
C679 C 0.98167 0.92558 0.38552 0.0
C680 C 0.02729 0.96526 0.38788 0.0
C681 C 0.97582 0.88356 0.37853 0.0
C682 C 0.01552 0.88041 0.37395 0.0
C683 C 0.06103 0.91994 0.37639 0.0
C684 C 0.06688 0.96191 0.38326 0.0
C685 C 0.00995 0.83671 0.36605 0.0
C686 C 0.03127 0.84001 0.35176 0.0
C687 C 0.98361 0.7922 0.3723 0.0
C688 C 0.96266 0.78689 0.38774 0.0
C689 C 0.99115 0.81305 0.40069 0.0
C690 C 0.97116 0.80804 0.4152 0.0
C691 C 0.92275 0.77671 0.41694 0.0
C692 C 0.89427 0.75024 0.40417 0.0
C693 C 0.91408 0.75515 0.38962 0.0
C694 C 0.03926 0.67958 0.32828 0.0
C695 C 0.00029 0.65248 0.31817 0.0
C696 C 0.0377 0.71025 0.33975 0.0
C697 C 0.99692 0.71371 0.34144 0.0
C698 C 0.95616 0.6829 0.3326 0.0
C699 C 0.9579 0.65273 0.32095 0.0
C700 C 0.00044 0.75577 0.34973 0.0
C701 C 0.97874 0.75205 0.36393 0.0
C702 C 0.02659 0.80009 0.34351 0.0
C703 C 0.04901 0.80525 0.32832 0.0
C704 C 0.02103 0.78225 0.31501 0.0
C705 C 0.0424 0.78431 0.30089 0.0
C706 C 0.09175 0.81018 0.29985 0.0
C707 C 0.1198 0.83409 0.31296 0.0
C708 C 0.09857 0.83169 0.32717 0.0
H709 H 0.10823 0.81169 0.28889 0.0
H710 H 0.90734 0.77288 0.42819 0.0
H711 H 0.12925 -0.0002 0.68517 0.0
H712 H 0.19687 -0.00084 0.67352 0.0
H713 H 0.23561 0.97212 0.71702 0.0
H714 H 0.16871 0.97468 0.72895 0.0
H715 H 0.30944 0.03961 0.7059 0.0
H716 H 0.19583 0.88831 0.68516 0.0
H717 H 0.12148 0.82578 0.67256 0.0
H718 H 0.15916 0.89888 0.63121 0.0
H719 H 0.23343 0.96223 0.64362 0.0
H720 H 0.4965 0.03259 0.65945 0.0
H721 H 0.4271 0.00567 0.6761 0.0
H722 H 0.37112 0.06891 0.64782 0.0
H723 H 0.44018 0.09645 0.63146 0.0
H724 H 0.30784 0.96707 0.65412 0.0
H725 H 0.4147 0.12475 0.67847 0.0
H726 H 0.48943 0.1843 0.69168 0.0
H727 H 0.46359 0.09091 0.72718 0.0
H728 H 0.38897 0.03053 0.71404 0.0
C729 C 0.15156 0.99281 0.69222 0.0
C730 C 0.14378 0.98754 0.70799 0.0
C731 C 0.19016 0.99212 0.6855 0.0
C732 C 0.22115 0.98501 0.69433 0.0
C733 C 0.21221 0.97764 0.70997 0.0
C734 C 0.17392 0.979 0.71676 0.0
C735 C 0.26524 0.9902 0.68748 0.0
C736 C 0.3089 0.02267 0.69476 0.0
C737 C 0.26487 0.96823 0.67294 0.0
C738 C 0.2202 0.93018 0.66537 0.0
C739 C 0.18815 0.89124 0.67342 0.0
C740 C 0.14602 0.8556 0.6663 0.0
C741 C 0.13558 0.85838 0.6511 0.0
C742 C 0.1673 0.89676 0.64298 0.0
C743 C 0.20948 0.93251 0.65004 0.0
C744 C 0.46961 0.04123 0.657 0.0
C745 C 0.4738 0.06704 0.64434 0.0
C746 C 0.43014 0.0258 0.66643 0.0
C747 C 0.39419 0.03526 0.66308 0.0
C748 C 0.3986 0.06132 0.65054 0.0
C749 C 0.43823 0.0774 0.64132 0.0
C750 C 0.35109 0.0175 0.67232 0.0
C751 C 0.30788 0.98271 0.66546 0.0
C752 C 0.35187 0.03662 0.68732 0.0
C753 C 0.39667 0.07292 0.69517 0.0
C754 C 0.42523 0.11673 0.689 0.0
C755 C 0.46749 0.15068 0.6965 0.0
C756 C 0.48135 0.14133 0.71023 0.0
C757 C 0.45289 0.09806 0.71652 0.0
C758 C 0.41061 0.06397 0.70906 0.0
H759 H 0.51406 0.16767 0.71602 0.0
H760 H 0.10294 0.83076 0.64561 0.0
H761 H 0.22376 0.26342 0.0845 0.0
H762 H 0.28419 0.32532 0.06944 0.0
H763 H 0.255 0.2231 0.0315 0.0
H764 H 0.19506 0.16115 0.04642 0.0
H765 H 0.35038 0.28752 0.03524 0.0
H766 H 0.20141 0.28675 0.03292 0.0
H767 H 0.13474 0.29206 0.04435 0.0
H768 H 0.23212 0.42994 0.0648 0.0
H769 H 0.29943 0.42513 0.05363 0.0
H770 H 0.40115 0.39993 0.96659 0.0
H771 H 0.36659 0.35197 0.98843 0.0
H772 H 0.40321 0.47692 0.01762 0.0
H773 H 0.43732 0.52512 0.99565 0.0
H774 H 0.3156 0.41086 0.02226 0.0
H775 H 0.46379 0.41712 0.02053 0.0
H776 H 0.53007 0.41181 0.00879 0.0
H777 H 0.43625 0.26509 0.99609 0.0
H778 H 0.36923 0.26963 0.00755 0.0
C779 C 0.23072 0.25403 0.07303 0.0
C780 C 0.20426 0.20752 0.06657 0.0
C781 C 0.26518 0.28942 0.06446 0.0
C782 C 0.27359 0.27877 0.04932 0.0
C783 C 0.249 0.232 0.04316 0.0
C784 C 0.21456 0.19669 0.05169 0.0
C785 C 0.30499 0.31643 0.03935 0.0
C786 C 0.34291 0.31454 0.03236 0.0
C787 C 0.29588 0.35238 0.03598 0.0
C788 C 0.25543 0.35535 0.04261 0.0
C789 C 0.2086 0.31803 0.03995 0.0
C790 C 0.1707 0.32098 0.04636 0.0
C791 C 0.1792 0.36125 0.05534 0.0
C792 C 0.2256 0.39872 0.05787 0.0
C793 C 0.26363 0.39592 0.05151 0.0
C794 C 0.40229 0.4172 0.9777 0.0
C795 C 0.42198 0.46618 0.97946 0.0
C796 C 0.38273 0.38982 0.99019 0.0
C797 C 0.38314 0.41097 0.00473 0.0
C798 C 0.40276 0.45994 0.00652 0.0
C799 C 0.42201 0.48735 0.99398 0.0
C800 C 0.36048 0.38138 0.01777 0.0
C801 C 0.32405 0.38469 0.02535 0.0
C802 C 0.3711 0.34683 0.02169 0.0
C803 C 0.4114 0.34381 0.01484 0.0
C804 C 0.45721 0.38378 0.01515 0.0
C805 C 0.49493 0.3809 0.00855 0.0
C806 C 0.48736 0.33816 0.00168 0.0
C807 C 0.44206 0.29818 0.00142 0.0
C808 C 0.40421 0.30087 0.00799 0.0
H809 H 0.51661 0.33601 0.99657 0.0
H810 H 0.14981 0.36347 0.06029 0.0
H811 H 0.11175 0.20267 0.37024 0.0
H812 H 0.10545 0.25444 0.35297 0.0
H813 H 0.99053 0.24894 0.37947 0.0
H814 H 0.99617 0.19677 0.39669 0.0
H815 H 0.97025 0.23511 0.34905 0.0
H816 H 0.09998 0.34635 0.3823 0.0
H817 H 0.17742 0.37994 0.39563 0.0
H818 H 0.24626 0.39699 0.3523 0.0
H819 H 0.16912 0.36291 0.3387 0.0
H820 H 0.96069 0.41589 0.31288 0.0
H821 H 0.9679 0.36864 0.33189 0.0
H822 H 0.08999 0.37921 0.30859 0.0
H823 H 0.0836 0.42749 0.28987 0.0
H824 H 0.10614 0.39167 0.33821 0.0
H825 H 0.97749 0.27803 0.30489 0.0
H826 H 0.90051 0.24368 0.29119 0.0
H827 H 0.83023 0.2298 0.33412 0.0
H828 H 0.90692 0.26465 0.34808 0.0
C829 C 0.08522 0.21257 0.37243 0.0
C830 C 0.05443 0.19559 0.38483 0.0
C831 C 0.08182 0.24233 0.36259 0.0
C832 C 0.04781 0.25584 0.36504 0.0
C833 C 0.01704 0.23893 0.3774 0.0
C834 C 0.02039 0.20918 0.38723 0.0
C835 C 0.0434 0.28654 0.35445 0.0
C836 C -0.00026 0.26966 0.34684 0.0
C837 C 0.08225 0.33107 0.35132 0.0
C838 C 0.12869 0.35166 0.35948 0.0
C839 C 0.13158 0.35691 0.37561 0.0
C840 C 0.17543 0.37611 0.38322 0.0
C841 C 0.21672 0.39048 0.37482 0.0
C842 C 0.21425 0.38579 0.35879 0.0
C843 C 0.17047 0.36658 0.35113 0.0
C844 C 0.98889 0.40789 0.31183 0.0
C845 C 0.02154 0.42515 0.29994 0.0
C846 C 0.99297 0.38089 0.32265 0.0
C847 C 0.02913 0.36986 0.32154 0.0
C848 C 0.06188 0.38735 0.30969 0.0
C849 C 0.0582 0.41485 0.29901 0.0
C850 C 0.03302 0.34014 0.33271 0.0
C851 C 0.07658 0.35719 0.34044 0.0
C852 C 0.99416 0.2956 0.33588 0.0
C853 C 0.94799 0.27436 0.32752 0.0
C854 C 0.94566 0.26794 0.3114 0.0
C855 C 0.90208 0.24834 0.30359 0.0
C856 C 0.86053 0.23468 0.31178 0.0
C857 C 0.86245 0.24046 0.3278 0.0
C858 C 0.90595 0.26009 0.33566 0.0
H859 H 0.82682 0.21952 0.30571 0.0
H860 H 0.25064 0.40534 0.38073 0.0
loop_
_geom_bond_atom_site_label_1
_geom_bond_atom_site_label_2
_geom_bond_distance
_geom_bond_site_symmetry_2
_ccdc_geom_bond_type
C0 O1 1.160 . S
C0 O7 1.185 . S
O1 C0 1.160 . S
O2 Zn3 1.899 . S
O2 C10 1.284 . S
Zn3 O2 1.899 . S
Zn3 O4 2.032 . S
Zn3 O7 2.086 . S
Zn3 O12 1.977 . S
O4 Zn3 2.032 . S
O4 C8 1.278 . S
C5 O6 1.203 . S
C5 O12 1.267 . S
O6 C5 1.203 . S
O7 C0 1.185 . S
O7 Zn3 2.086 . S
C8 O4 1.278 . S
C8 O9 1.211 . S
O9 C8 1.211 . S
C10 O2 1.284 . S
C10 O11 1.273 . S
O11 C10 1.273 . S
O12 Zn3 1.977 . S
O12 C5 1.267 . S
C13 O14 1.160 . S
C13 O20 1.185 . S
O14 C13 1.160 . S
O15 Zn16 1.899 . S
O15 C23 1.284 . S
Zn16 O15 1.899 . S
Zn16 O17 2.032 . S
Zn16 O20 2.086 . S
Zn16 O25 1.977 . S
O17 Zn16 2.032 . S
O17 C21 1.278 . S
C18 O19 1.203 . S
C18 O25 1.267 . S
O19 C18 1.203 . S
O20 C13 1.185 . S
O20 Zn16 2.086 . S
C21 O17 1.278 . S
C21 O22 1.211 . S
O22 C21 1.211 . S
C23 O15 1.284 . S
C23 O24 1.273 1_545 S
O24 C23 1.273 1_565 S
O25 Zn16 1.977 . S
O25 C18 1.267 . S
C26 O27 1.160 . S
C26 O33 1.185 . S
O27 C26 1.160 . S
O28 Zn29 1.899 . S
O28 C36 1.284 . S
Zn29 O28 1.899 . S
Zn29 O30 2.032 . S
Zn29 O33 2.086 . S
Zn29 O38 1.977 . S
O30 Zn29 2.032 . S
O30 C34 1.278 . S
C31 O32 1.203 . S
C31 O38 1.267 . S
O32 C31 1.203 . S
O33 C26 1.185 . S
O33 Zn29 2.086 . S
C34 O30 1.278 . S
C34 O35 1.211 . S
O35 C34 1.211 . S
C36 O28 1.284 . S
C36 O37 1.273 . S
O37 C36 1.273 . S
O38 Zn29 1.977 . S
O38 C31 1.267 . S
H39 O65 0.856 . S
H40 O68 0.854 . S
H41 C76 0.930 . S
H42 C77 0.930 . S
H43 C79 0.930 . S
H44 C80 0.930 . S
H45 C82 0.931 1_655 S
H46 C83 0.930 1_655 S
H47 C85 0.930 . S
H48 C86 0.929 . S
H49 C88 0.930 1_655 S
H50 C89 0.931 1_655 S
H51 C91 0.930 . S
H52 C92 0.929 . S
H53 C94 0.931 1_655 S
H54 C95 0.930 1_655 S
H55 C97 0.930 . S
H56 C98 0.932 . S
H57 C100 0.938 . S
H58 C101 0.929 . S
H59 C103 0.931 . S
H60 C104 0.930 . S
H61 C106 0.929 1_655 S
H62 C107 0.931 1_655 S
H63 C109 0.930 . S
H64 C110 0.929 . S
O65 H39 0.856 . S
O65 C111 1.300 . S
O66 C111 1.209 . S
O67 C112 1.199 . S
O68 H40 0.854 . S
O68 C112 1.297 . S
C69 C70 1.404 . S
C69 C74 1.397 . S
C69 C75 1.492 . S
C70 C69 1.404 . S
C70 C71 1.396 . S
C70 C81 1.492 . S
C71 C70 1.396 . S
C71 C72 1.397 . S
C71 C87 1.509 . S
C72 C71 1.397 . S
C72 C73 1.412 . S
C72 C93 1.485 . S
C73 C72 1.412 . S
C73 C74 1.388 . S
C73 C99 1.490 . S
C74 C69 1.397 . S
C74 C73 1.388 . S
C74 C105 1.519 . S
C75 C69 1.492 . S
C75 C76 1.363 1_455 S
C75 C80 1.390 . S
C76 H41 0.930 . S
C76 C75 1.363 1_655 S
C76 C77 1.372 . S
C77 H42 0.930 . S
C77 C76 1.372 . S
C77 C78 1.383 1_655 S
C78 C77 1.383 1_455 S
C78 C79 1.395 . S
C79 H43 0.930 . S
C79 C78 1.395 . S
C79 C80 1.362 . S
C80 H44 0.930 . S
C80 C75 1.390 . S
C80 C79 1.362 . S
C81 C70 1.492 . S
C81 C82 1.377 . S
C81 C86 1.397 . S
C82 H45 0.931 1_455 S
C82 C81 1.377 . S
C82 C83 1.376 . S
C83 H46 0.930 1_455 S
C83 C82 1.376 . S
C83 C84 1.376 . S
C84 C83 1.376 . S
C84 C85 1.378 . S
C84 C111 1.486 . S
C85 H47 0.930 . S
C85 C84 1.378 . S
C85 C86 1.376 . S
C86 H48 0.929 . S
C86 C81 1.397 . S
C86 C85 1.376 . S
C87 C71 1.509 . S
C87 C88 1.391 . S
C87 C92 1.386 . S
C88 H49 0.930 1_455 S
C88 C87 1.391 . S
C88 C89 1.375 . S
C89 H50 0.931 1_455 S
C89 C88 1.375 . S
C89 C90 1.375 . S
C90 C89 1.375 . S
C90 C91 1.361 . S
C91 H51 0.930 . S
C91 C90 1.361 . S
C91 C92 1.399 . S
C92 H52 0.929 . S
C92 C87 1.386 . S
C92 C91 1.399 . S
C93 C72 1.485 . S
C93 C94 1.394 . S
C93 C98 1.360 . S
C94 H53 0.931 1_455 S
C94 C93 1.394 . S
C94 C95 1.372 . S
C95 H54 0.930 1_455 S
C95 C94 1.372 . S
C95 C96 1.397 . S
C96 C95 1.397 . S
C96 C97 1.390 . S
C96 C112 1.476 . S
C97 H55 0.930 . S
C97 C96 1.390 . S
C97 C98 1.366 . S
C98 H56 0.932 . S
C98 C93 1.360 . S
C98 C97 1.366 . S
C99 C73 1.490 . S
C99 C100 1.369 1_455 S
C99 C104 1.386 . S
C100 H57 0.938 . S
C100 C99 1.369 1_655 S
C100 C101 1.385 . S
C101 H58 0.929 . S
C101 C100 1.385 . S
C101 C102 1.371 1_655 S
C102 C101 1.371 1_455 S
C102 C103 1.380 . S
C103 H59 0.931 . S
C103 C102 1.380 . S
C103 C104 1.387 . S
C104 H60 0.930 . S
C104 C99 1.386 . S
C104 C103 1.387 . S
C105 C74 1.519 . S
C105 C106 1.377 . S
C105 C110 1.361 . S
C106 H61 0.929 1_455 S
C106 C105 1.377 . S
C106 C107 1.386 . S
C107 H62 0.931 1_455 S
C107 C106 1.386 . S
C107 C108 1.363 . S
C108 C107 1.363 . S
C108 C109 1.385 . S
C109 H63 0.930 . S
C109 C108 1.385 . S
C109 C110 1.396 . S
C110 H64 0.929 . S
C110 C105 1.361 . S
C110 C109 1.396 . S
C111 O65 1.300 . S
C111 O66 1.209 . S
C111 C84 1.486 . S
C112 O67 1.199 . S
C112 O68 1.297 . S
C112 C96 1.476 . S
H113 O139 0.856 . S
H114 O142 0.854 . S
H115 C150 0.930 . S
H116 C151 0.930 . S
H117 C153 0.930 . S
H118 C154 0.930 . S
H119 C156 0.931 . S
H120 C157 0.930 . S
H121 C159 0.930 . S
H122 C160 0.929 . S
H123 C162 0.930 . S
H124 C163 0.931 . S
H125 C165 0.930 . S
H126 C166 0.929 . S
H127 C168 0.931 . S
H128 C169 0.930 . S
H129 C171 0.930 . S
H130 C172 0.932 . S
H131 C174 0.930 . S
H132 C175 0.929 . S
H133 C177 0.931 . S
H134 C178 0.930 . S
H135 C180 0.929 . S
H136 C181 0.931 . S
H137 C183 0.930 . S
H138 C184 0.929 . S
O139 H113 0.856 . S
O139 C185 1.300 . S
O140 C185 1.209 . S
O141 C186 1.199 . S
O142 H114 0.854 . S
O142 C186 1.297 . S
C143 C144 1.404 . S
C143 C148 1.397 . S
C143 C149 1.492 . S
C144 C143 1.404 . S
C144 C145 1.396 . S
C144 C155 1.492 . S
C145 C144 1.396 . S
C145 C146 1.397 . S
C145 C161 1.509 . S
C146 C145 1.397 . S
C146 C147 1.412 . S
C146 C167 1.485 . S
C147 C146 1.412 . S
C147 C148 1.388 . S
C147 C173 1.490 . S
C148 C143 1.397 . S
C148 C147 1.388 . S
C148 C179 1.519 . S
C149 C143 1.492 . S
C149 C150 1.363 . S
C149 C154 1.390 . S
C150 H115 0.930 . S
C150 C149 1.363 . S
C150 C151 1.372 . S
C151 H116 0.930 . S
C151 C150 1.372 . S
C151 C152 1.383 . S
C152 C151 1.383 . S
C152 C153 1.395 . S
C153 H117 0.930 . S
C153 C152 1.395 . S
C153 C154 1.362 . S
C154 H118 0.930 . S
C154 C149 1.390 . S
C154 C153 1.362 . S
C155 C144 1.492 . S
C155 C156 1.377 . S
C155 C160 1.397 . S
C156 H119 0.931 . S
C156 C155 1.377 . S
C156 C157 1.376 . S
C157 H120 0.930 . S
C157 C156 1.376 . S
C157 C158 1.376 . S
C158 C157 1.376 . S
C158 C159 1.378 . S
C158 C185 1.486 . S
C159 H121 0.930 . S
C159 C158 1.378 . S
C159 C160 1.376 . S
C160 H122 0.929 . S
C160 C155 1.397 . S
C160 C159 1.376 . S
C161 C145 1.509 . S
C161 C162 1.391 . S
C161 C166 1.386 . S
C162 H123 0.930 . S
C162 C161 1.391 . S
C162 C163 1.375 . S
C163 H124 0.931 . S
C163 C162 1.375 . S
C163 C164 1.375 . S
C164 C163 1.375 . S
C164 C165 1.361 . S
C165 H125 0.930 . S
C165 C164 1.361 . S
C165 C166 1.399 . S
C166 H126 0.929 . S
C166 C161 1.386 . S
C166 C165 1.399 . S
C167 C146 1.485 . S
C167 C168 1.394 . S
C167 C172 1.360 . S
C168 H127 0.931 . S
C168 C167 1.394 . S
C168 C169 1.372 . S
C169 H128 0.930 . S
C169 C168 1.372 . S
C169 C170 1.397 . S
C170 C169 1.397 . S
C170 C171 1.390 . S
C170 C186 1.476 . S
C171 H129 0.930 . S
C171 C170 1.390 . S
C171 C172 1.366 . S
C172 H130 0.932 . S
C172 C167 1.360 . S
C172 C171 1.366 . S
C173 C147 1.490 . S
C173 C174 1.380 . S
C173 C178 1.386 . S
C174 H131 0.930 . S
C174 C173 1.380 . S
C174 C175 1.381 . S
C175 H132 0.929 . S
C175 C174 1.381 . S
C175 C176 1.371 . S
C176 C175 1.371 . S
C176 C177 1.380 . S
C177 H133 0.931 . S
C177 C176 1.380 . S
C177 C178 1.387 . S
C178 H134 0.930 . S
C178 C173 1.386 . S
C178 C177 1.387 . S
C179 C148 1.519 . S
C179 C180 1.377 . S
C179 C184 1.361 . S
C180 H135 0.929 . S
C180 C179 1.377 . S
C180 C181 1.386 . S
C181 H136 0.931 . S
C181 C180 1.386 . S
C181 C182 1.363 . S
C182 C181 1.363 . S
C182 C183 1.385 . S
C183 H137 0.930 . S
C183 C182 1.385 . S
C183 C184 1.396 . S
C184 H138 0.929 . S
C184 C179 1.361 . S
C184 C183 1.396 . S
C185 O139 1.300 . S
C185 O140 1.209 . S
C185 C158 1.486 . S
C186 O141 1.199 . S
C186 O142 1.297 . S
C186 C170 1.476 . S
H187 O213 0.856 . S
H188 O216 0.854 . S
H189 C224 0.930 . S
H190 C225 0.930 . S
H191 C227 0.930 . S
H192 C228 0.930 . S
H193 C230 0.931 . S
H194 C231 0.930 . S
H195 C233 0.930 . S
H196 C234 0.929 . S
H197 C236 0.930 . S
H198 C237 0.931 . S
H199 C239 0.930 . S
H200 C240 0.929 . S
H201 C242 0.931 . S
H202 C243 0.930 . S
H203 C245 0.930 . S
H204 C246 0.932 . S
H205 C248 0.930 . S
H206 C249 0.929 . S
H207 C251 0.931 . S
H208 C252 0.930 . S
H209 C254 0.929 . S
H210 C255 0.931 . S
H211 C257 0.930 . S
H212 C258 0.929 . S
O213 H187 0.856 . S
O213 C259 1.300 . S
O214 C259 1.209 . S
O215 C260 1.199 . S
O216 H188 0.854 . S
O216 C260 1.297 . S
C217 C218 1.404 . S
C217 C222 1.397 . S
C217 C223 1.492 . S
C218 C217 1.404 . S
C218 C219 1.396 . S
C218 C229 1.492 . S
C219 C218 1.396 . S
C219 C220 1.397 . S
C219 C235 1.509 . S
C220 C219 1.397 . S
C220 C221 1.412 . S
C220 C241 1.485 . S
C221 C220 1.412 . S
C221 C222 1.388 . S
C221 C247 1.490 . S
C222 C217 1.397 . S
C222 C221 1.388 . S
C222 C253 1.519 . S
C223 C217 1.492 . S
C223 C224 1.363 . S
C223 C228 1.390 . S
C224 H189 0.930 . S
C224 C223 1.363 . S
C224 C225 1.372 . S
C225 H190 0.930 . S
C225 C224 1.372 . S
C225 C226 1.383 . S
C226 C225 1.383 . S
C226 C227 1.395 . S
C227 H191 0.930 . S
C227 C226 1.395 . S
C227 C228 1.362 . S
C228 H192 0.930 . S
C228 C223 1.390 . S
C228 C227 1.362 . S
C229 C218 1.492 . S
C229 C230 1.377 . S
C229 C234 1.397 . S
C230 H193 0.931 . S
C230 C229 1.377 . S
C230 C231 1.376 . S
C231 H194 0.930 . S
C231 C230 1.376 . S
C231 C232 1.376 . S
C232 C231 1.376 . S
C232 C233 1.378 . S
C232 C259 1.486 1_556 S
C233 H195 0.930 . S
C233 C232 1.378 . S
C233 C234 1.376 . S
C234 H196 0.929 . S
C234 C229 1.397 . S
C234 C233 1.376 . S
C235 C219 1.509 . S
C235 C236 1.391 . S
C235 C240 1.386 . S
C236 H197 0.930 . S
C236 C235 1.391 . S
C236 C237 1.375 . S
C237 H198 0.931 . S
C237 C236 1.375 . S
C237 C238 1.375 . S
C238 C237 1.375 . S
C238 C239 1.361 . S
C239 H199 0.930 . S
C239 C238 1.361 . S
C239 C240 1.399 . S
C240 H200 0.929 . S
C240 C235 1.386 . S
C240 C239 1.399 . S
C241 C220 1.485 . S
C241 C242 1.394 . S
C241 C246 1.360 . S
C242 H201 0.931 . S
C242 C241 1.394 . S
C242 C243 1.372 . S
C243 H202 0.930 . S
C243 C242 1.372 . S
C243 C244 1.397 . S
C244 C243 1.397 . S
C244 C245 1.390 . S
C244 C260 1.476 . S
C245 H203 0.930 . S
C245 C244 1.390 . S
C245 C246 1.366 . S
C246 H204 0.932 . S
C246 C241 1.360 . S
C246 C245 1.366 . S
C247 C221 1.490 . S
C247 C248 1.380 . S
C247 C252 1.386 . S
C248 H205 0.930 . S
C248 C247 1.380 . S
C248 C249 1.381 . S
C249 H206 0.929 . S
C249 C248 1.381 . S
C249 C250 1.371 . S
C250 C249 1.371 . S
C250 C251 1.380 . S
C251 H207 0.931 . S
C251 C250 1.380 . S
C251 C252 1.387 . S
C252 H208 0.930 . S
C252 C247 1.386 . S
C252 C251 1.387 . S
C253 C222 1.519 . S
C253 C254 1.377 . S
C253 C258 1.361 . S
C254 H209 0.929 . S
C254 C253 1.377 . S
C254 C255 1.386 . S
C255 H210 0.931 . S
C255 C254 1.386 . S
C255 C256 1.363 . S
C256 C255 1.363 . S
C256 C257 1.385 . S
C257 H211 0.930 . S
C257 C256 1.385 . S
C257 C258 1.396 . S
C258 H212 0.929 . S
C258 C253 1.361 . S
C258 C257 1.396 . S
C259 O213 1.300 . S
C259 O214 1.209 . S
C259 C232 1.486 1_554 S
C260 O215 1.199 . S
C260 O216 1.297 . S
C260 C244 1.476 . S
H261 C279 0.951 1_655 S
H262 C281 0.951 1_655 S
H263 C283 0.950 . S
H264 C284 0.950 . S
H265 C286 0.950 . S
H266 C289 0.950 . S
H267 C290 0.950 . S
H268 C292 0.950 . S
H269 C293 0.950 . S
H270 C294 0.951 . S
H271 C296 0.951 . S
H272 C298 0.950 . S
H273 C299 0.950 . S
H274 C301 0.950 . S
H275 C304 0.950 . S
H276 C305 0.950 . S
H277 C307 0.950 . S
H278 C308 0.950 . S
C279 H261 0.951 1_455 S
C279 C280 1.366 . S
C279 C281 1.388 . S
C280 C279 1.366 . S
C280 C284 1.385 . S
C281 H262 0.951 1_455 S
C281 C279 1.388 . S
C281 C282 1.366 . S
C282 C281 1.366 . S
C282 C283 1.414 . S
C282 C285 1.499 . S
C283 H263 0.950 . S
C283 C282 1.414 . S
C283 C284 1.374 . S
C284 H264 0.950 . S
C284 C280 1.385 . S
C284 C283 1.374 . S
C285 C282 1.499 . S
C285 C286 1.373 . S
C285 C287 1.384 1_455 S
C286 H265 0.950 . S
C286 C285 1.373 . S
C286 C302 1.377 . S
C287 C285 1.384 1_655 S
C287 C288 1.528 . S
C287 C301 1.378 . S
C288 C287 1.528 . S
C288 C289 1.397 . S
C288 C293 1.363 . S
C289 H266 0.950 . S
C289 C288 1.397 . S
C289 C290 1.334 . S
C290 H267 0.950 . S
C290 C289 1.334 . S
C290 C291 1.287 . S
C291 C290 1.287 . S
C291 C292 1.524 . S
C291 H310 0.913 . S
C292 H268 0.950 . S
C292 C291 1.524 . S
C292 C293 1.415 . S
C293 H269 0.950 . S
C293 C288 1.363 . S
C293 C292 1.415 . S
C294 H270 0.951 . S
C294 C295 1.366 . S
C294 C296 1.388 . S
C295 C294 1.366 . S
C295 C299 1.385 1_455 S
C296 H271 0.951 . S
C296 C294 1.388 . S
C296 C297 1.366 . S
C297 C296 1.366 . S
C297 C298 1.414 1_455 S
C297 C300 1.499 . S
C298 H272 0.950 . S
C298 C297 1.414 1_655 S
C298 C299 1.374 . S
C299 H273 0.950 . S
C299 C295 1.385 1_655 S
C299 C298 1.374 . S
C300 C297 1.499 . S
C300 C301 1.373 1_455 S
C300 C302 1.389 . S
C301 H274 0.950 . S
C301 C287 1.378 . S
C301 C300 1.373 1_655 S
C302 C286 1.377 . S
C302 C300 1.389 . S
C302 C303 1.524 . S
C303 C302 1.524 . S
C303 C304 1.397 . S
C303 C308 1.363 . S
C304 H275 0.950 . S
C304 C303 1.397 . S
C304 C305 1.334 . S
C305 H276 0.950 . S
C305 C304 1.334 . S
C305 C306 1.287 . S
C306 C305 1.287 . S
C306 C307 1.524 . S
C306 H309 0.999 . S
C307 H277 0.950 . S
C307 C306 1.524 . S
C307 C308 1.415 . S
C308 H278 0.950 . S
C308 C303 1.363 . S
C308 C307 1.415 . S
H309 C306 0.999 . S
H310 C291 0.913 . S
H311 C329 0.951 . S
H312 C331 0.951 . S
H313 C333 0.950 . S
H314 C334 0.950 1_455 S
H315 C336 0.950 1_565 S
H316 C339 0.950 . S
H317 C340 0.950 . S
H318 C342 0.950 . S
H319 C343 0.950 . S
H320 C344 0.951 . S
H321 C346 0.951 . S
H322 C348 0.950 . S
H323 C349 0.950 . S
H324 C351 0.950 . S
H325 C354 0.950 . S
H326 C355 0.950 . S
H327 C357 0.950 . S
H328 C358 0.950 . S
C329 H311 0.951 . S
C329 C330 1.366 . S
C329 C331 1.388 . S
C330 C329 1.366 . S
C330 C334 1.385 . S
C331 H312 0.951 . S
C331 C329 1.388 . S
C331 C332 1.366 . S
C332 C331 1.366 . S
C332 C333 1.414 . S
C332 C335 1.499 . S
C333 H313 0.950 . S
C333 C332 1.414 . S
C333 C334 1.374 . S
C334 H314 0.950 1_655 S
C334 C330 1.385 . S
C334 C333 1.374 . S
C335 C332 1.499 . S
C335 C336 1.373 . S
C335 C337 1.389 . S
C336 H315 0.950 1_545 S
C336 C335 1.373 . S
C336 C352 1.377 . S
C337 C335 1.389 . S
C337 C338 1.524 . S
C337 C351 1.377 . S
C338 C337 1.524 . S
C338 C339 1.397 . S
C338 C343 1.363 . S
C339 H316 0.950 . S
C339 C338 1.397 . S
C339 C340 1.334 1_655 S
C340 H317 0.950 . S
C340 C339 1.334 1_455 S
C340 C341 1.287 1_455 S
C341 C340 1.287 1_655 S
C341 C342 1.524 . S
C341 H360 0.913 1_655 S
C342 H318 0.950 . S
C342 C341 1.524 . S
C342 C343 1.415 . S
C343 H319 0.950 . S
C343 C338 1.363 . S
C343 C342 1.415 . S
C344 H320 0.951 . S
C344 C345 1.366 . S
C344 C346 1.388 . S
C345 C344 1.366 . S
C345 C349 1.385 . S
C346 H321 0.951 . S
C346 C344 1.388 . S
C346 C347 1.366 . S
C347 C346 1.366 . S
C347 C348 1.414 . S
C347 C350 1.499 . S
C348 H322 0.950 . S
C348 C347 1.414 . S
C348 C349 1.374 . S
C349 H323 0.950 . S
C349 C345 1.385 . S
C349 C348 1.374 . S
C350 C347 1.499 . S
C350 C351 1.373 . S
C350 C352 1.389 . S
C351 H324 0.950 . S
C351 C337 1.377 . S
C351 C350 1.373 . S
C352 C336 1.377 . S
C352 C350 1.389 . S
C352 C353 1.524 1_545 S
C353 C352 1.524 1_565 S
C353 C354 1.397 . S
C353 C358 1.363 . S
C354 H325 0.950 . S
C354 C353 1.397 . S
C354 C355 1.334 . S
C355 H326 0.950 . S
C355 C354 1.334 . S
C355 C356 1.287 . S
C356 C355 1.287 . S
C356 C357 1.524 . S
C356 H359 0.999 . S
C357 H327 0.950 . S
C357 C356 1.524 . S
C357 C358 1.415 . S
C358 H328 0.950 . S
C358 C353 1.363 . S
C358 C357 1.415 . S
H359 C356 0.999 . S
H360 C341 0.913 1_455 S
H361 C379 0.951 . S
H362 C381 0.951 . S
H363 C383 0.950 . S
H364 C384 0.950 1_545 S
H365 C386 0.950 . S
H366 C389 0.950 . S
H367 C390 0.950 . S
H368 C392 0.950 . S
H369 C393 0.950 . S
H370 C394 0.951 . S
H371 C396 0.951 . S
H372 C398 0.950 . S
H373 C399 0.950 . S
H374 C401 0.950 . S
H375 C404 0.950 . S
H376 C405 0.950 . S
H377 C407 0.950 . S
H378 C408 0.950 . S
C379 H361 0.951 . S
C379 C380 1.366 . S
C379 C381 1.388 . S
C380 C379 1.366 . S
C380 C384 1.385 . S
C381 H362 0.951 . S
C381 C379 1.388 . S
C381 C382 1.366 . S
C382 C381 1.366 . S
C382 C383 1.414 . S
C382 C385 1.499 . S
C383 H363 0.950 . S
C383 C382 1.414 . S
C383 C384 1.374 . S
C384 H364 0.950 1_565 S
C384 C380 1.385 . S
C384 C383 1.374 . S
C385 C382 1.499 . S
C385 C386 1.373 . S
C385 C387 1.389 . S
C386 H365 0.950 . S
C386 C385 1.373 . S
C386 C402 1.377 . S
C387 C385 1.389 . S
C387 C388 1.524 . S
C387 C401 1.377 . S
C388 C387 1.524 . S
C388 C389 1.397 . S
C388 C393 1.363 . S
C389 H366 0.950 . S
C389 C388 1.397 . S
C389 C390 1.334 . S
C390 H367 0.950 . S
C390 C389 1.334 . S
C390 C391 1.287 . S
C391 C390 1.287 . S
C391 C392 1.524 . S
C391 H410 0.913 . S
C392 H368 0.950 . S
C392 C391 1.524 . S
C392 C393 1.415 . S
C393 H369 0.950 . S
C393 C388 1.363 . S
C393 C392 1.415 . S
C394 H370 0.951 . S
C394 C395 1.366 . S
C394 C396 1.388 . S
C395 C394 1.366 . S
C395 C399 1.385 . S
C396 H371 0.951 . S
C396 C394 1.388 . S
C396 C397 1.366 . S
C397 C396 1.366 . S
C397 C398 1.414 . S
C397 C400 1.499 . S
C398 H372 0.950 . S
C398 C397 1.414 . S
C398 C399 1.374 . S
C399 H373 0.950 . S
C399 C395 1.385 . S
C399 C398 1.374 . S
C400 C397 1.499 . S
C400 C401 1.373 . S
C400 C402 1.389 . S
C401 H374 0.950 . S
C401 C387 1.377 . S
C401 C400 1.373 . S
C402 C386 1.377 . S
C402 C400 1.389 . S
C402 C403 1.524 . S
C403 C402 1.524 . S
C403 C404 1.397 . S
C403 C408 1.363 . S
C404 H375 0.950 . S
C404 C403 1.397 . S
C404 C405 1.334 . S
C405 H376 0.950 . S
C405 C404 1.334 . S
C405 C406 1.287 . S
C406 C405 1.287 . S
C406 C407 1.524 . S
C406 H409 0.999 . S
C407 H377 0.950 . S
C407 C406 1.524 . S
C407 C408 1.415 . S
C408 H378 0.950 . S
C408 C403 1.363 . S
C408 C407 1.415 . S
H409 C406 0.999 . S
H410 C391 0.913 . S
H411 C429 0.951 . S
H412 C431 0.951 . S
H413 C433 0.950 . S
H414 C434 0.950 . S
H415 C436 0.950 . S
H416 C439 0.950 . S
H417 C440 0.950 . S
H418 C442 0.950 . S
H419 C443 0.950 . S
H420 C444 0.951 . S
H421 C446 0.951 . S
H422 C448 0.950 . S
H423 C449 0.950 . S
H424 C451 0.950 . S
H425 C454 0.950 . S
H426 C455 0.950 . S
H427 C457 0.950 . S
H428 C458 0.950 . S
C429 H411 0.951 . S
C429 C430 1.366 1_565 S
C429 C431 1.388 . S
C430 C429 1.366 1_545 S
C430 C434 1.385 . S
C431 H412 0.951 . S
C431 C429 1.388 . S
C431 C432 1.366 . S
C432 C431 1.366 . S
C432 C433 1.414 . S
C432 C435 1.499 . S
C433 H413 0.950 . S
C433 C432 1.414 . S
C433 C434 1.374 1_565 S
C434 H414 0.950 . S
C434 C430 1.385 . S
C434 C433 1.374 1_545 S
C435 C432 1.499 . S
C435 C436 1.373 . S
C435 C437 1.389 . S
C436 H415 0.950 . S
C436 C435 1.373 . S
C436 C452 1.377 . S
C437 C435 1.389 . S
C437 C438 1.524 . S
C437 C451 1.377 . S
C438 C437 1.524 . S
C438 C439 1.397 1_455 S
C438 C443 1.363 . S
C439 H416 0.950 . S
C439 C438 1.397 1_655 S
C439 C440 1.334 . S
C440 H417 0.950 . S
C440 C439 1.334 . S
C440 C441 1.287 . S
C441 C440 1.287 . S
C441 C442 1.524 1_655 S
C441 H460 0.913 . S
C442 H418 0.950 . S
C442 C441 1.524 1_455 S
C442 C443 1.415 . S
C443 H419 0.950 . S
C443 C438 1.363 . S
C443 C442 1.415 . S
C444 H420 0.951 . S
C444 C445 1.366 . S
C444 C446 1.388 . S
C445 C444 1.366 . S
C445 C449 1.385 . S
C446 H421 0.951 . S
C446 C444 1.388 . S
C446 C447 1.366 . S
C447 C446 1.366 . S
C447 C448 1.414 . S
C447 C450 1.499 . S
C448 H422 0.950 . S
C448 C447 1.414 . S
C448 C449 1.374 . S
C449 H423 0.950 . S
C449 C445 1.385 . S
C449 C448 1.374 . S
C450 C447 1.499 . S
C450 C451 1.373 . S
C450 C452 1.389 . S
C451 H424 0.950 . S
C451 C437 1.377 . S
C451 C450 1.373 . S
C452 C436 1.377 . S
C452 C450 1.389 . S
C452 C453 1.524 . S
C453 C452 1.524 . S
C453 C454 1.397 . S
C453 C458 1.363 . S
C454 H425 0.950 . S
C454 C453 1.397 . S
C454 C455 1.334 . S
C455 H426 0.950 . S
C455 C454 1.334 . S
C455 C456 1.287 . S
C456 C455 1.287 . S
C456 C457 1.524 . S
C456 H459 0.999 . S
C457 H427 0.950 . S
C457 C456 1.524 . S
C457 C458 1.415 . S
C458 H428 0.950 . S
C458 C453 1.363 . S
C458 C457 1.415 . S
H459 C456 0.999 . S
H460 C441 0.913 . S
H461 C479 0.951 . S
H462 C481 0.951 . S
H463 C483 0.950 . S
H464 C484 0.950 . S
H465 C486 0.950 . S
H466 C489 0.950 . S
H467 C490 0.950 . S
H468 C492 0.950 . S
H469 C493 0.950 . S
H470 C494 0.951 . S
H471 C496 0.951 . S
H472 C498 0.950 . S
H473 C499 0.950 . S
H474 C501 0.950 . S
H475 C504 0.950 . S
H476 C505 0.950 . S
H477 C507 0.950 . S
H478 C508 0.950 . S
C479 H461 0.951 . S
C479 C480 1.366 . S
C479 C481 1.388 . S
C480 C479 1.366 . S
C480 C484 1.385 . S
C481 H462 0.951 . S
C481 C479 1.388 . S
C481 C482 1.366 . S
C482 C481 1.366 . S
C482 C483 1.414 . S
C482 C485 1.499 . S
C483 H463 0.950 . S
C483 C482 1.414 . S
C483 C484 1.374 . S
C484 H464 0.950 . S
C484 C480 1.385 . S
C484 C483 1.374 . S
C485 C482 1.499 . S
C485 C486 1.373 . S
C485 C487 1.389 . S
C486 H465 0.950 . S
C486 C485 1.373 . S
C486 C502 1.377 . S
C487 C485 1.389 . S
C487 C488 1.524 . S
C487 C501 1.377 . S
C488 C487 1.524 . S
C488 C489 1.397 . S
C488 C493 1.363 1_545 S
C489 H466 0.950 . S
C489 C488 1.397 . S
C489 C490 1.334 . S
C490 H467 0.950 . S
C490 C489 1.334 . S
C490 C491 1.287 1_545 S
C491 C490 1.287 1_565 S
C491 C492 1.524 . S
C491 H510 0.913 . S
C492 H468 0.950 . S
C492 C491 1.524 . S
C492 C493 1.415 . S
C493 H469 0.950 . S
C493 C488 1.363 1_565 S
C493 C492 1.415 . S
C494 H470 0.951 . S
C494 C495 1.366 . S
C494 C496 1.388 . S
C495 C494 1.366 . S
C495 C499 1.385 . S
C496 H471 0.951 . S
C496 C494 1.388 . S
C496 C497 1.366 . S
C497 C496 1.366 . S
C497 C498 1.414 . S
C497 C500 1.499 . S
C498 H472 0.950 . S
C498 C497 1.414 . S
C498 C499 1.374 . S
C499 H473 0.950 . S
C499 C495 1.385 . S
C499 C498 1.374 . S
C500 C497 1.499 . S
C500 C501 1.373 . S
C500 C502 1.389 . S
C501 H474 0.950 . S
C501 C487 1.377 . S
C501 C500 1.373 . S
C502 C486 1.377 . S
C502 C500 1.389 . S
C502 C503 1.524 . S
C503 C502 1.524 . S
C503 C504 1.397 . S
C503 C508 1.363 . S
C504 H475 0.950 . S
C504 C503 1.397 . S
C504 C505 1.334 . S
C505 H476 0.950 . S
C505 C504 1.334 . S
C505 C506 1.287 . S
C506 C505 1.287 . S
C506 C507 1.524 . S
C506 H509 0.999 . S
C507 H477 0.950 . S
C507 C506 1.524 . S
C507 C508 1.415 . S
C508 H478 0.950 . S
C508 C503 1.363 . S
C508 C507 1.415 . S
H509 C506 0.999 . S
H510 C491 0.913 . S
H511 C529 0.951 . S
H512 C531 0.951 . S
H513 C533 0.950 . S
H514 C534 0.950 . S
H515 C536 0.950 . S
H516 C539 0.950 . S
H517 C540 0.950 . S
H518 C542 0.950 . S
H519 C543 0.950 . S
H520 C544 0.951 . S
H521 C546 0.951 . S
H522 C548 0.950 . S
H523 C549 0.950 . S
H524 C551 0.950 . S
H525 C554 0.950 . S
H526 C555 0.950 . S
H527 C557 0.950 . S
H528 C558 0.950 . S
C529 H511 0.951 . S
C529 C530 1.366 . S
C529 C531 1.388 . S
C530 C529 1.366 . S
C530 C534 1.385 . S
C531 H512 0.951 . S
C531 C529 1.388 . S
C531 C532 1.366 . S
C532 C531 1.366 . S
C532 C533 1.414 . S
C532 C535 1.499 . S
C533 H513 0.950 . S
C533 C532 1.414 . S
C533 C534 1.374 . S
C534 H514 0.950 . S
C534 C530 1.385 . S
C534 C533 1.374 . S
C535 C532 1.499 . S
C535 C536 1.373 . S
C535 C537 1.389 . S
C536 H515 0.950 . S
C536 C535 1.373 . S
C536 C552 1.377 . S
C537 C535 1.389 . S
C537 C538 1.524 . S
C537 C551 1.377 . S
C538 C537 1.524 . S
C538 C539 1.397 . S
C538 C543 1.363 . S
C539 H516 0.950 . S
C539 C538 1.397 . S
C539 C540 1.334 . S
C540 H517 0.950 . S
C540 C539 1.334 . S
C540 C541 1.287 . S
C541 C540 1.287 . S
C541 C542 1.524 . S
C541 H560 0.913 . S
C542 H518 0.950 . S
C542 C541 1.524 . S
C542 C543 1.415 . S
C543 H519 0.950 . S
C543 C538 1.363 . S
C543 C542 1.415 . S
C544 H520 0.951 . S
C544 C545 1.366 . S
C544 C546 1.388 . S
C545 C544 1.366 . S
C545 C549 1.385 . S
C546 H521 0.951 . S
C546 C544 1.388 . S
C546 C547 1.366 . S
C547 C546 1.366 . S
C547 C548 1.414 . S
C547 C550 1.499 . S
C548 H522 0.950 . S
C548 C547 1.414 . S
C548 C549 1.374 . S
C549 H523 0.950 . S
C549 C545 1.385 . S
C549 C548 1.374 . S
C550 C547 1.499 . S
C550 C551 1.373 . S
C550 C552 1.389 . S
C551 H524 0.950 . S
C551 C537 1.377 . S
C551 C550 1.373 . S
C552 C536 1.377 . S
C552 C550 1.389 . S
C552 C553 1.524 . S
C553 C552 1.524 . S
C553 C554 1.397 . S
C553 C558 1.363 . S
C554 H525 0.950 . S
C554 C553 1.397 . S
C554 C555 1.334 . S
C555 H526 0.950 . S
C555 C554 1.334 . S
C555 C556 1.287 . S
C556 C555 1.287 . S
C556 C557 1.524 . S
C556 H559 0.999 . S
C557 H527 0.950 . S
C557 C556 1.524 . S
C557 C558 1.415 . S
C558 H528 0.950 . S
C558 C553 1.363 . S
C558 C557 1.415 . S
H559 C556 0.999 . S
H560 C541 0.913 . S
H561 C579 0.951 . S
H562 C581 0.951 . S
H563 C583 0.950 . S
H564 C584 0.950 . S
H565 C586 0.950 . S
H566 C589 0.950 1_545 S
H567 C590 0.950 . S
H568 C592 0.950 . S
H569 C593 0.950 . S
H570 C594 0.951 . S
H571 C596 0.951 . S
H572 C598 0.950 . S
H573 C599 0.950 . S
H574 C601 0.950 . S
H575 C604 0.950 . S
H576 C605 0.950 . S
H577 C607 0.950 . S
H578 C608 0.950 . S
C579 H561 0.951 . S
C579 C580 1.379 . S
C579 C581 1.388 . S
C580 C579 1.379 . S
C580 C584 1.383 1_655 S
C581 H562 0.951 . S
C581 C579 1.388 . S
C581 C582 1.366 . S
C582 C581 1.366 . S
C582 C583 1.414 . S
C582 C585 1.499 . S
C583 H563 0.950 . S
C583 C582 1.414 . S
C583 C584 1.374 1_655 S
C584 H564 0.950 . S
C584 C580 1.383 1_455 S
C584 C583 1.374 1_455 S
C585 C582 1.499 . S
C585 C586 1.373 . S
C585 C587 1.389 . S
C586 H565 0.950 . S
C586 C585 1.373 . S
C586 C602 1.377 . S
C587 C585 1.389 . S
C587 C588 1.524 . S
C587 C601 1.377 . S
C588 C587 1.524 . S
C588 C589 1.397 1_545 S
C588 C593 1.363 1_545 S
C589 H566 0.950 1_565 S
C589 C588 1.397 1_565 S
C589 C590 1.334 . S
C590 H567 0.950 . S
C590 C589 1.334 . S
C590 C591 1.287 . S
C591 C590 1.287 . S
C591 C592 1.524 . S
C591 H610 0.913 . S
C592 H568 0.950 . S
C592 C591 1.524 . S
C592 C593 1.415 . S
C593 H569 0.950 . S
C593 C588 1.363 1_565 S
C593 C592 1.415 . S
C594 H570 0.951 . S
C594 C595 1.366 . S
C594 C596 1.388 . S
C595 C594 1.366 . S
C595 C599 1.385 . S
C596 H571 0.951 . S
C596 C594 1.388 . S
C596 C597 1.366 . S
C597 C596 1.366 . S
C597 C598 1.414 . S
C597 C600 1.499 . S
C598 H572 0.950 . S
C598 C597 1.414 . S
C598 C599 1.374 . S
C599 H573 0.950 . S
C599 C595 1.385 . S
C599 C598 1.374 . S
C600 C597 1.499 . S
C600 C601 1.373 . S
C600 C602 1.389 . S
C601 H574 0.950 . S
C601 C587 1.377 . S
C601 C600 1.373 . S
C602 C586 1.377 . S
C602 C600 1.389 . S
C602 C603 1.524 . S
C603 C602 1.524 . S
C603 C604 1.397 . S
C603 C608 1.363 . S
C604 H575 0.950 . S
C604 C603 1.397 . S
C604 C605 1.334 . S
C605 H576 0.950 . S
C605 C604 1.334 . S
C605 C606 1.287 . S
C606 C605 1.287 . S
C606 C607 1.524 . S
C606 H609 0.999 . S
C607 H577 0.950 . S
C607 C606 1.524 . S
C607 C608 1.415 . S
C608 H578 0.950 . S
C608 C603 1.363 . S
C608 C607 1.415 . S
H609 C606 0.999 . S
H610 C591 0.913 . S
H611 C629 0.951 . S
H612 C631 0.951 . S
H613 C633 0.950 1_545 S
H614 C634 0.950 . S
H615 C636 0.950 . S
H616 C639 0.950 . S
H617 C640 0.952 1_545 S
H618 C642 0.950 . S
H619 C643 0.950 . S
H620 C644 0.951 . S
H621 C646 0.951 . S
H622 C648 0.950 . S
H623 C649 0.950 . S
H624 C651 0.950 . S
H625 C654 0.950 . S
H626 C655 0.950 . S
H627 C657 0.950 . S
H628 C658 0.950 . S
C629 H611 0.951 . S
C629 C630 1.366 1_565 S
C629 C631 1.388 . S
C630 C629 1.366 1_545 S
C630 C634 1.385 . S
C631 H612 0.951 . S
C631 C629 1.388 . S
C631 C632 1.366 . S
C632 C631 1.366 . S
C632 C633 1.414 . S
C632 C635 1.499 . S
C633 H613 0.950 1_565 S
C633 C632 1.414 . S
C633 C634 1.374 1_565 S
C634 H614 0.950 . S
C634 C630 1.385 . S
C634 C633 1.374 1_545 S
C635 C632 1.499 . S
C635 C636 1.373 . S
C635 C637 1.389 . S
C636 H615 0.950 . S
C636 C635 1.373 . S
C636 C652 1.377 . S
C637 C635 1.389 . S
C637 C638 1.529 . S
C637 C651 1.377 1_554 S
C638 C637 1.529 . S
C638 C639 1.396 . S
C638 C643 1.357 1_554 S
C639 H616 0.950 . S
C639 C638 1.396 . S
C639 C640 1.334 1_654 S
C640 H617 0.952 1_565 S
C640 C639 1.334 1_456 S
C640 C641 1.287 . S
C641 C640 1.287 . S
C641 C642 1.524 . S
C641 H660 0.913 . S
C642 H618 0.950 . S
C642 C641 1.524 . S
C642 C643 1.415 1_455 S
C643 H619 0.950 . S
C643 C638 1.357 1_556 S
C643 C642 1.415 1_655 S
C644 H620 0.951 . S
C644 C645 1.366 . S
C644 C646 1.388 . S
C645 C644 1.366 . S
C645 C649 1.385 . S
C646 H621 0.951 . S
C646 C644 1.388 . S
C646 C647 1.366 . S
C647 C646 1.366 . S
C647 C648 1.414 . S
C647 C650 1.499 . S
C648 H622 0.950 . S
C648 C647 1.414 . S
C648 C649 1.374 . S
C649 H623 0.950 . S
C649 C645 1.385 . S
C649 C648 1.374 . S
C650 C647 1.499 . S
C650 C651 1.373 . S
C650 C652 1.389 1_556 S
C651 H624 0.950 . S
C651 C637 1.377 1_556 S
C651 C650 1.373 . S
C652 C636 1.377 . S
C652 C650 1.389 1_554 S
C652 C653 1.524 . S
C653 C652 1.524 . S
C653 C654 1.397 . S
C653 C658 1.363 . S
C654 H625 0.950 . S
C654 C653 1.397 . S
C654 C655 1.334 . S
C655 H626 0.950 . S
C655 C654 1.334 . S
C655 C656 1.287 . S
C656 C655 1.287 . S
C656 C657 1.524 . S
C656 H659 0.999 . S
C657 H627 0.950 . S
C657 C656 1.524 . S
C657 C658 1.415 . S
C658 H628 0.950 . S
C658 C653 1.363 . S
C658 C657 1.415 . S
H659 C656 0.999 . S
H660 C641 0.913 . S
H661 C679 0.951 1_655 S
H662 C681 0.951 1_655 S
H663 C683 0.950 . S
H664 C684 0.950 1_545 S
H665 C686 0.950 . S
H666 C689 0.950 . S
H667 C690 0.950 . S
H668 C692 0.950 . S
H669 C693 0.950 . S
H670 C694 0.951 . S
H671 C696 0.951 . S
H672 C698 0.950 . S
H673 C699 0.950 . S
H674 C701 0.950 1_655 S
H675 C704 0.950 . S
H676 C705 0.950 . S
H677 C707 0.950 . S
H678 C708 0.950 . S
C679 H661 0.951 1_455 S
C679 C680 1.366 . S
C679 C681 1.388 . S
C680 C679 1.366 . S
C680 C684 1.385 . S
C681 H662 0.951 1_455 S
C681 C679 1.388 . S
C681 C682 1.366 . S
C682 C681 1.366 . S
C682 C683 1.414 . S
C682 C685 1.499 . S
C683 H663 0.950 . S
C683 C682 1.414 . S
C683 C684 1.374 . S
C684 H664 0.950 1_565 S
C684 C680 1.385 . S
C684 C683 1.374 . S
C685 C682 1.499 . S
C685 C686 1.373 . S
C685 C687 1.389 . S
C686 H665 0.950 . S
C686 C685 1.373 . S
C686 C702 1.377 . S
C687 C685 1.389 . S
C687 C688 1.524 . S
C687 C701 1.377 . S
C688 C687 1.524 . S
C688 C689 1.397 . S
C688 C693 1.363 1_455 S
C689 H666 0.950 . S
C689 C688 1.397 . S
C689 C690 1.334 . S
C690 H667 0.950 . S
C690 C689 1.334 . S
C690 C691 1.287 1_455 S
C691 C690 1.287 1_655 S
C691 C692 1.524 . S
C691 H710 0.913 . S
C692 H668 0.950 . S
C692 C691 1.524 . S
C692 C693 1.415 . S
C693 H669 0.950 . S
C693 C688 1.363 1_655 S
C693 C692 1.415 . S
C694 H670 0.951 . S
C694 C695 1.366 . S
C694 C696 1.388 . S
C695 C694 1.366 . S
C695 C699 1.385 1_455 S
C696 H671 0.951 . S
C696 C694 1.388 . S
C696 C697 1.366 . S
C697 C696 1.366 . S
C697 C698 1.414 1_455 S
C697 C700 1.499 . S
C698 H672 0.950 . S
C698 C697 1.414 1_655 S
C698 C699 1.374 . S
C699 H673 0.950 . S
C699 C695 1.385 1_655 S
C699 C698 1.374 . S
C700 C697 1.499 . S
C700 C701 1.373 . S
C700 C702 1.389 . S
C701 H674 0.950 1_455 S
C701 C687 1.377 . S
C701 C700 1.373 . S
C702 C686 1.377 . S
C702 C700 1.389 . S
C702 C703 1.524 . S
C703 C702 1.524 . S
C703 C704 1.397 . S
C703 C708 1.363 . S
C704 H675 0.950 . S
C704 C703 1.397 . S
C704 C705 1.334 . S
C705 H676 0.950 . S
C705 C704 1.334 . S
C705 C706 1.287 . S
C706 C705 1.287 . S
C706 C707 1.524 . S
C706 H709 0.999 . S
C707 H677 0.950 . S
C707 C706 1.524 . S
C707 C708 1.415 . S
C708 H678 0.950 . S
C708 C703 1.363 . S
C708 C707 1.415 . S
H709 C706 0.999 . S
H710 C691 0.913 . S
H711 C729 0.951 . S
H712 C731 0.951 . S
H713 C733 0.950 . S
H714 C734 0.950 . S
H715 C736 0.950 . S
H716 C739 0.950 . S
H717 C740 0.950 . S
H718 C742 0.950 . S
H719 C743 0.950 1_545 S
H720 C744 0.951 . S
H721 C746 0.951 . S
H722 C748 0.950 . S
H723 C749 0.950 . S
H724 C751 0.950 . S
H725 C754 0.950 . S
H726 C755 0.950 . S
H727 C757 0.950 . S
H728 C758 0.950 . S
C729 H711 0.951 . S
C729 C730 1.366 . S
C729 C731 1.388 . S
C730 C729 1.366 . S
C730 C734 1.385 . S
C731 H712 0.951 . S
C731 C729 1.388 . S
C731 C732 1.366 . S
C732 C731 1.366 . S
C732 C733 1.414 . S
C732 C735 1.499 . S
C733 H713 0.950 . S
C733 C732 1.414 . S
C733 C734 1.374 . S
C734 H714 0.950 . S
C734 C730 1.385 . S
C734 C733 1.374 . S
C735 C732 1.499 . S
C735 C736 1.373 . S
C735 C737 1.389 . S
C736 H715 0.950 . S
C736 C735 1.373 . S
C736 C752 1.377 . S
C737 C735 1.389 . S
C737 C738 1.524 1_545 S
C737 C751 1.377 . S
C738 C737 1.524 1_565 S
C738 C739 1.397 . S
C738 C743 1.363 . S
C739 H716 0.950 . S
C739 C738 1.397 . S
C739 C740 1.334 . S
C740 H717 0.950 . S
C740 C739 1.334 . S
C740 C741 1.287 . S
C741 C740 1.287 . S
C741 C742 1.524 . S
C741 H760 0.913 . S
C742 H718 0.950 . S
C742 C741 1.524 . S
C742 C743 1.415 . S
C743 H719 0.950 1_565 S
C743 C738 1.363 . S
C743 C742 1.415 . S
C744 H720 0.951 . S
C744 C745 1.366 . S
C744 C746 1.388 . S
C745 C744 1.366 . S
C745 C749 1.385 . S
C746 H721 0.951 . S
C746 C744 1.388 . S
C746 C747 1.366 . S
C747 C746 1.366 . S
C747 C748 1.414 . S
C747 C750 1.499 . S
C748 H722 0.950 . S
C748 C747 1.414 . S
C748 C749 1.374 . S
C749 H723 0.950 . S
C749 C745 1.385 . S
C749 C748 1.374 . S
C750 C747 1.499 . S
C750 C751 1.373 . S
C750 C752 1.389 . S
C751 H724 0.950 . S
C751 C737 1.377 . S
C751 C750 1.373 . S
C752 C736 1.377 . S
C752 C750 1.389 . S
C752 C753 1.524 . S
C753 C752 1.524 . S
C753 C754 1.397 . S
C753 C758 1.363 . S
C754 H725 0.950 . S
C754 C753 1.397 . S
C754 C755 1.334 . S
C755 H726 0.950 . S
C755 C754 1.334 . S
C755 C756 1.287 . S
C756 C755 1.287 . S
C756 C757 1.524 . S
C756 H759 0.999 . S
C757 H727 0.950 . S
C757 C756 1.524 . S
C757 C758 1.415 . S
C758 H728 0.950 . S
C758 C753 1.363 . S
C758 C757 1.415 . S
H759 C756 0.999 . S
H760 C741 0.913 . S
H761 C779 0.951 . S
H762 C781 0.951 . S
H763 C783 0.950 . S
H764 C784 0.950 . S
H765 C786 0.950 . S
H766 C789 0.950 . S
H767 C790 0.950 . S
H768 C792 0.950 . S
H769 C793 0.950 . S
H770 C794 0.951 . S
H771 C796 0.951 . S
H772 C798 0.950 . S
H773 C799 0.950 . S
H774 C801 0.950 . S
H775 C804 0.950 . S
H776 C805 0.950 . S
H777 C807 0.950 . S
H778 C808 0.950 . S
C779 H761 0.951 . S
C779 C780 1.366 . S
C779 C781 1.388 . S
C780 C779 1.366 . S
C780 C784 1.385 . S
C781 H762 0.951 . S
C781 C779 1.388 . S
C781 C782 1.366 . S
C782 C781 1.366 . S
C782 C783 1.414 . S
C782 C785 1.499 . S
C783 H763 0.950 . S
C783 C782 1.414 . S
C783 C784 1.374 . S
C784 H764 0.950 . S
C784 C780 1.385 . S
C784 C783 1.374 . S
C785 C782 1.499 . S
C785 C786 1.373 . S
C785 C787 1.389 . S
C786 H765 0.950 . S
C786 C785 1.373 . S
C786 C802 1.377 . S
C787 C785 1.389 . S
C787 C788 1.524 . S
C787 C801 1.377 . S
C788 C787 1.524 . S
C788 C789 1.397 . S
C788 C793 1.363 . S
C789 H766 0.950 . S
C789 C788 1.397 . S
C789 C790 1.334 . S
C790 H767 0.950 . S
C790 C789 1.334 . S
C790 C791 1.287 . S
C791 C790 1.287 . S
C791 C792 1.524 . S
C791 H810 0.913 . S
C792 H768 0.950 . S
C792 C791 1.524 . S
C792 C793 1.415 . S
C793 H769 0.950 . S
C793 C788 1.363 . S
C793 C792 1.415 . S
C794 H770 0.951 . S
C794 C795 1.366 . S
C794 C796 1.388 . S
C795 C794 1.366 . S
C795 C799 1.385 . S
C796 H771 0.951 . S
C796 C794 1.388 . S
C796 C797 1.366 . S
C797 C796 1.366 . S
C797 C798 1.414 1_556 S
C797 C800 1.499 1_556 S
C798 H772 0.950 . S
C798 C797 1.414 1_554 S
C798 C799 1.374 1_554 S
C799 H773 0.950 . S
C799 C795 1.385 . S
C799 C798 1.374 1_556 S
C800 C797 1.499 1_554 S
C800 C801 1.373 . S
C800 C802 1.389 . S
C801 H774 0.950 . S
C801 C787 1.377 . S
C801 C800 1.373 . S
C802 C786 1.377 . S
C802 C800 1.389 . S
C802 C803 1.524 . S
C803 C802 1.524 . S
C803 C804 1.397 . S
C803 C808 1.363 1_554 S
C804 H775 0.950 . S
C804 C803 1.397 . S
C804 C805 1.334 . S
C805 H776 0.950 . S
C805 C804 1.334 . S
C805 C806 1.287 1_554 S
C806 C805 1.287 1_556 S
C806 C807 1.524 . S
C806 H809 0.999 . S
C807 H777 0.950 . S
C807 C806 1.524 . S
C807 C808 1.415 . S
C808 H778 0.950 . S
C808 C803 1.363 1_556 S
C808 C807 1.415 . S
H809 C806 0.999 . S
H810 C791 0.913 . S
H811 C829 0.951 . S
H812 C831 0.951 . S
H813 C833 0.950 . S
H814 C834 0.950 . S
H815 C836 0.950 . S
H816 C839 0.950 . S
H817 C840 0.950 . S
H818 C842 0.950 . S
H819 C843 0.950 . S
H820 C844 0.951 . S
H821 C846 0.951 . S
H822 C848 0.950 . S
H823 C849 0.950 . S
H824 C851 0.950 . S
H825 C854 0.950 1_455 S
H826 C855 0.950 . S
H827 C857 0.950 . S
H828 C858 0.950 . S
C829 H811 0.951 . S
C829 C830 1.366 . S
C829 C831 1.388 . S
C830 C829 1.366 . S
C830 C834 1.385 . S
C831 H812 0.951 . S
C831 C829 1.388 . S
C831 C832 1.366 . S
C832 C831 1.366 . S
C832 C833 1.414 . S
C832 C835 1.499 . S
C833 H813 0.950 . S
C833 C832 1.414 . S
C833 C834 1.374 . S
C834 H814 0.950 . S
C834 C830 1.385 . S
C834 C833 1.374 . S
C835 C832 1.499 . S
C835 C836 1.373 . S
C835 C837 1.389 . S
C836 H815 0.950 . S
C836 C835 1.373 . S
C836 C852 1.377 . S
C837 C835 1.389 . S
C837 C838 1.524 . S
C837 C851 1.377 . S
C838 C837 1.524 . S
C838 C839 1.397 . S
C838 C843 1.363 . S
C839 H816 0.950 . S
C839 C838 1.397 . S
C839 C840 1.334 . S
C840 H817 0.950 . S
C840 C839 1.334 . S
C840 C841 1.287 . S
C841 C840 1.287 . S
C841 C842 1.524 . S
C841 H860 0.913 . S
C842 H818 0.950 . S
C842 C841 1.524 . S
C842 C843 1.415 . S
C843 H819 0.950 . S
C843 C838 1.363 . S
C843 C842 1.415 . S
C844 H820 0.951 . S
C844 C845 1.366 . S
C844 C846 1.388 . S
C845 C844 1.366 . S
C845 C849 1.385 . S
C846 H821 0.951 . S
C846 C844 1.388 . S
C846 C847 1.366 . S
C847 C846 1.366 . S
C847 C848 1.414 . S
C847 C850 1.499 . S
C848 H822 0.950 . S
C848 C847 1.414 . S
C848 C849 1.374 . S
C849 H823 0.950 . S
C849 C845 1.385 . S
C849 C848 1.374 . S
C850 C847 1.499 . S
C850 C851 1.373 . S
C850 C852 1.389 . S
C851 H824 0.950 . S
C851 C837 1.377 . S
C851 C850 1.373 . S
C852 C836 1.377 . S
C852 C850 1.389 . S
C852 C853 1.524 1_455 S
C853 C852 1.524 1_655 S
C853 C854 1.397 . S
C853 C858 1.363 . S
C854 H825 0.950 1_655 S
C854 C853 1.397 . S
C854 C855 1.334 . S
C855 H826 0.950 . S
C855 C854 1.334 . S
C855 C856 1.287 . S
C856 C855 1.287 . S
C856 C857 1.524 . S
C856 H859 0.999 . S
C857 H827 0.950 . S
C857 C856 1.524 . S
C857 C858 1.415 . S
C858 H828 0.950 . S
C858 C853 1.363 . S
C858 C857 1.415 . S
H859 C856 0.999 . S
H860 C841 0.913 . S
C295 C78 1.267 . S
C280 C10 1.327 . S
C330 C21 1.275 1_655 S
C345 C152 1.275 . S
C380 C31 2.043 1_665 S
C395 C256 2.125 . S
C430 C0 0.623 . S
C445 C90 0.598 . S
C495 C164 0.575 . S
C480 C18 0.601 . S
C530 C34 1.372 . S
C545 C250 1.300 . S
C595 C182 2.134 . S
C580 C36 2.123 1_655 S
C630 C8 1.305 1_655 S
C645 C226 1.294 . S
C695 C102 1.306 . S
C680 C23 1.387 1_565 S
C745 C176 1.182 . S
C730 C26 1.221 . S
C795 C238 0.619 . S
C780 C5 0.646 . S
C830 C13 2.072 . S
C845 C108 2.144 . S
