# Generated by pormake.
# Topology llj, (12,3)-cn, num edge types: 1
# Building blocks:
#     Node 0, Type 0, BuildingBlock: QEWDON_clean_sbu_0, # of connection points: 12
#     Node 1, Type 0, BuildingBlock: QEWDON_clean_sbu_0, # of connection points: 12
#     Node 2, Type 1, BuildingBlock: ESEHIV_clean_linker_0, # of connection points: 3
#     Node 3, Type 1, BuildingBlock: ESEHIV_clean_linker_0, # of connection points: 3
#     Node 4, Type 1, BuildingBlock: ESEHIV_clean_linker_0, # of connection points: 3
#     Node 5, Type 1, BuildingBlock: ESEHIV_clean_linker_0, # of connection points: 3
#     Node 6, Type 1, BuildingBlock: ESEHIV_clean_linker_0, # of connection points: 3
#     Node 7, Type 1, BuildingBlock: ESEHIV_clean_linker_0, # of connection points: 3
#     Node 8, Type 1, BuildingBlock: ESEHIV_clean_linker_0, # of connection points: 3
#     Node 9, Type 1, BuildingBlock: ESEHIV_clean_linker_0, # of connection points: 3
#     Edge 10, Type (0, 1), BuildingBlock: AJUNOK_clean_linker_0, # of connection points: 2
#     Edge 11, Type (0, 1), BuildingBlock: AJUNOK_clean_linker_0, # of connection points: 2
#     Edge 12, Type (0, 1), BuildingBlock: AJUNOK_clean_linker_0, # of connection points: 2
#     Edge 13, Type (0, 1), BuildingBlock: AJUNOK_clean_linker_0, # of connection points: 2
#     Edge 14, Type (0, 1), BuildingBlock: AJUNOK_clean_linker_0, # of connection points: 2
#     Edge 15, Type (0, 1), BuildingBlock: AJUNOK_clean_linker_0, # of connection points: 2
#     Edge 16, Type (0, 1), BuildingBlock: AJUNOK_clean_linker_0, # of connection points: 2
#     Edge 17, Type (0, 1), BuildingBlock: AJUNOK_clean_linker_0, # of connection points: 2
#     Edge 18, Type (0, 1), BuildingBlock: AJUNOK_clean_linker_0, # of connection points: 2
#     Edge 19, Type (0, 1), BuildingBlock: AJUNOK_clean_linker_0, # of connection points: 2
#     Edge 20, Type (0, 1), BuildingBlock: AJUNOK_clean_linker_0, # of connection points: 2
#     Edge 21, Type (0, 1), BuildingBlock: AJUNOK_clean_linker_0, # of connection points: 2
#     Edge 22, Type (0, 1), BuildingBlock: AJUNOK_clean_linker_0, # of connection points: 2
#     Edge 23, Type (0, 1), BuildingBlock: AJUNOK_clean_linker_0, # of connection points: 2
#     Edge 24, Type (0, 1), BuildingBlock: AJUNOK_clean_linker_0, # of connection points: 2
#     Edge 25, Type (0, 1), BuildingBlock: AJUNOK_clean_linker_0, # of connection points: 2
#     Edge 26, Type (0, 1), BuildingBlock: AJUNOK_clean_linker_0, # of connection points: 2
#     Edge 27, Type (0, 1), BuildingBlock: AJUNOK_clean_linker_0, # of connection points: 2
#     Edge 28, Type (0, 1), BuildingBlock: AJUNOK_clean_linker_0, # of connection points: 2
#     Edge 29, Type (0, 1), BuildingBlock: AJUNOK_clean_linker_0, # of connection points: 2
#     Edge 30, Type (0, 1), BuildingBlock: AJUNOK_clean_linker_0, # of connection points: 2
#     Edge 31, Type (0, 1), BuildingBlock: AJUNOK_clean_linker_0, # of connection points: 2
#     Edge 32, Type (0, 1), BuildingBlock: AJUNOK_clean_linker_0, # of connection points: 2
#     Edge 33, Type (0, 1), BuildingBlock: AJUNOK_clean_linker_0, # of connection points: 2
# Relax obj value: 0.011
# Max RMSD: 0.060
# Mean RMSD: 0.055
data_MOF--net-llj--node1-QEWDON_clean_sbu_0--node2-ESEHIV_clean_linker_0--edge1-AJUNOK_clean_linker_0
_symmetry_space_group_name_H-M    P1
_symmetry_Int_Tables_number       1
_symmetry_cell_setting            triclinic
loop_
_symmetry_equiv_pos_as_xyz
'x, y, z'
_cell_length_a     27.129074
_cell_length_b     27.317304
_cell_length_c     18.529737
_cell_angle_alpha  89.714945
_cell_angle_beta   89.952222
_cell_angle_gamma 90.402364
loop_
_atom_site_label
_atom_site_type_symbol
_atom_site_fract_x
_atom_site_fract_y
_atom_site_fract_z
_atom_type_partial_charge
Zn0 Zn 0.92209 0.11347 0.91087 0.0
Zn1 Zn 0.92266 0.10305 0.08431 0.0
O2 O 0.96402 0.0944 0.99665 0.0
H3 H 0.99528 0.07792 0.99372 0.0
C4 C 0.88073 0.01965 0.82825 0.0
O5 O 0.85501 0.03026 0.88616 0.0
Zn6 Zn 0.07304 0.87976 0.08582 0.0
Zn7 Zn 0.08064 0.87272 0.91274 0.0
O8 O 0.03452 0.88831 0.99534 0.0
H9 H 0.00618 0.90924 0.9904 0.0
Zn10 Zn 0.90533 0.93957 0.92192 0.0
O11 O 0.92646 0.97473 0.0116 0.0
Zn12 Zn 0.90952 0.92922 0.09203 0.0
H13 H 0.95291 -0.00152 0.01236 0.0
Zn14 Zn 0.0789 0.05704 0.93594 0.0
O15 O 0.06471 0.01299 0.02091 0.0
H16 H 0.03888 0.98856 0.02053 0.0
Zn17 Zn 0.08421 0.05368 0.10492 0.0
C18 C 0.12157 -0.00203 0.82732 0.0
O19 O 0.1568 0.00088 0.87575 0.0
O20 O 0.85957 0.15144 0.93955 0.0
O21 O 0.86365 0.14452 0.0595 0.0
O22 O 0.14246 0.83543 0.94702 0.0
O23 O 0.13331 0.83868 0.06668 0.0
O24 O 0.85068 0.88824 0.94133 0.0
O25 O 0.85778 0.87953 0.06045 0.0
C26 C 0.00701 0.12423 0.16907 0.0
O27 O 0.13424 0.10708 0.95793 0.0
O28 O 0.14211 0.09758 0.07683 0.0
O29 O 0.04714 0.85487 0.81485 0.0
C30 C 0.84294 0.1606 0.0024 0.0
O31 O 0.95968 0.13201 0.8167 0.0
C32 C 0.98619 0.86525 0.16378 0.0
O33 O 0.90603 0.98076 0.82791 0.0
C34 C 0.15669 0.8246 0.01073 0.0
O35 O 0.08156 0.02041 0.83886 0.0
C36 C 0.88423 0.01423 0.17481 0.0
O37 O 0.96273 0.13733 0.1603 0.0
O38 O 0.02384 0.09288 0.12529 0.0
C39 C 0.83771 0.86792 0.00053 0.0
O40 O 0.02994 0.84914 0.16224 0.0
O41 O 0.97323 0.89602 0.11613 0.0
C42 C 0.09695 0.96394 0.18153 0.0
O43 O 0.88284 0.96772 0.17567 0.0
O44 O 0.90312 0.03517 0.11966 0.0
C45 C 0.15608 0.11669 0.01709 0.0
O46 O 0.09871 0.00996 0.19068 0.0
O47 O 0.09019 0.94751 0.1184 0.0
C48 C 0.00044 0.85839 0.81264 0.0
O49 O 0.97712 0.87241 0.87093 0.0
C50 C 0.00616 0.13794 0.81968 0.0
O51 O 0.0283 0.13416 0.88237 0.0
Zn52 Zn 0.41722 0.6171 0.42753 0.0
Zn53 Zn 0.41738 0.60284 0.60035 0.0
O54 O 0.45977 0.59911 0.51176 0.0
H55 H 0.48857 0.57906 0.50558 0.0
C56 C 0.39848 0.50674 0.34316 0.0
O57 O 0.37183 0.51481 0.40108 0.0
Zn58 Zn 0.57091 0.3876 0.58707 0.0
Zn59 Zn 0.57088 0.39211 0.41726 0.0
O60 O 0.52513 0.39177 0.50356 0.0
H61 H 0.49167 0.37954 0.50188 0.0
Zn62 Zn 0.42463 0.42787 0.43584 0.0
O63 O 0.43295 0.46869 0.52571 0.0
Zn64 Zn 0.41046 0.42517 0.60551 0.0
H65 H 0.45701 0.49469 0.52998 0.0
Zn66 Zn 0.58385 0.56335 0.42613 0.0
O67 O 0.56663 0.52303 0.51341 0.0
H68 H 0.54289 0.49657 0.51192 0.0
Zn69 Zn 0.58454 0.56425 0.59853 0.0
C70 C 0.62771 0.49931 0.32397 0.0
O71 O 0.66038 0.4994 0.37626 0.0
O72 O 0.35474 0.65147 0.46015 0.0
O73 O 0.35488 0.64347 0.57999 0.0
O74 O 0.63617 0.35519 0.4376 0.0
O75 O 0.63221 0.35122 0.55762 0.0
O76 O 0.37081 0.37388 0.44887 0.0
O77 O 0.35857 0.37795 0.56784 0.0
C78 C 0.50422 0.62023 0.68144 0.0
O79 O 0.63754 0.6142 0.449 0.0
O80 O 0.63588 0.61622 0.56938 0.0
O81 O 0.53341 0.37994 0.32153 0.0
C82 C 0.33532 0.65944 0.52158 0.0
O83 O 0.45145 0.64152 0.33382 0.0
C84 C 0.49222 0.36017 0.678 0.0
O85 O 0.42596 0.46932 0.34163 0.0
C86 C 0.6538 0.34142 0.49819 0.0
O87 O 0.58928 0.52513 0.33078 0.0
C88 C 0.38644 0.51245 0.68367 0.0
O89 O 0.4589 0.6319 0.681 0.0
O90 O 0.52027 0.5938 0.63052 0.0
C91 C 0.34796 0.36032 0.50593 0.0
O92 O 0.53766 0.35165 0.66855 0.0
O93 O 0.47207 0.38988 0.63432 0.0
C94 C 0.60571 0.47461 0.67248 0.0
O95 O 0.38499 0.46602 0.68819 0.0
O96 O 0.40106 0.53246 0.62543 0.0
C97 C 0.65329 0.63103 0.5088 0.0
O98 O 0.61107 0.5207 0.6774 0.0
O99 O 0.58689 0.45678 0.61569 0.0
C100 C 0.50323 0.34414 0.32172 0.0
O101 O 0.49999 0.31638 0.37966 0.0
C102 C 0.49776 0.64868 0.33295 0.0
O103 O 0.52326 0.64032 0.39188 0.0
H104 H 0.44649 0.32589 0.9964 0.0
H105 H 0.33158 0.25647 0.11952 0.0
H106 H 0.33269 0.24531 0.88721 0.0
C107 C 0.41267 0.30454 -0.00147 0.0
C108 C 0.39121 0.28827 0.93415 0.0
C109 C 0.39163 0.29275 0.06544 0.0
C110 C 0.3485 0.26437 0.06772 0.0
C111 C 0.32728 0.24612 0.00397 0.0
C112 C 0.34835 0.25918 0.93692 0.0
H113 H 0.61881 0.43243 0.99678 0.0
H114 H 0.68735 0.32045 0.12451 0.0
H115 H 0.69334 0.31418 0.89233 0.0
C116 C 0.63821 0.39792 0.00043 0.0
C117 C 0.65203 0.37361 0.93712 0.0
C118 C 0.65278 0.37979 0.06799 0.0
C119 C 0.6783 0.33543 0.07196 0.0
C120 C 0.69454 0.31201 0.00905 0.0
C121 C 0.68057 0.33114 0.94163 0.0
H122 H 0.54848 0.65642 0.00057 0.0
H123 H 0.6682 0.72439 0.88509 0.0
H124 H 0.6556 0.74217 0.11557 0.0
C125 C 0.58174 0.67869 0.00066 0.0
C126 C 0.59969 0.69762 0.06581 0.0
C127 C 0.6061 0.68873 0.93544 0.0
C128 C 0.64923 0.71728 0.93562 0.0
C129 C 0.66824 0.73596 0.00064 0.0
C130 C 0.64282 0.72626 0.06546 0.0
H131 H 0.39122 0.56173 0.01235 0.0
H132 H 0.3252 0.67693 0.13526 0.0
H133 H 0.30628 0.67241 0.90488 0.0
C134 C 0.3707 0.59562 0.01437 0.0
C135 C 0.35151 0.61571 0.95043 0.0
C136 C 0.36038 0.61712 0.08129 0.0
C137 C 0.33212 0.65985 0.08361 0.0
C138 C 0.31134 0.67948 0.02062 0.0
C139 C 0.32212 0.6577 0.954 0.0
H140 H 0.94223 0.84282 0.48171 0.0
H141 H 0.83902 0.76001 0.60964 0.0
H142 H 0.81978 0.77103 0.37925 0.0
C143 C 0.90902 0.8206 0.48555 0.0
C144 C 0.88348 0.80773 0.42268 0.0
C145 C 0.89241 0.80453 0.55323 0.0
C146 C 0.85006 0.77476 0.55767 0.0
C147 C 0.82299 0.7628 0.49544 0.0
C148 C 0.84011 0.77967 0.42794 0.0
H149 H 0.10482 0.92258 0.50493 0.0
H150 H 0.18479 0.81907 0.63241 0.0
H151 H 0.15327 0.78766 0.41001 0.0
C152 C 0.12156 0.8868 0.50968 0.0
C153 C 0.12749 0.85743 0.44817 0.0
C154 C 0.14076 0.87229 0.57663 0.0
C155 C 0.16705 0.82834 0.58191 0.0
C156 C 0.17313 0.79822 0.52142 0.0
C157 C 0.15034 0.81168 0.4561 0.0
H158 H 0.06099 0.14585 0.48849 0.0
H159 H 0.17313 0.22633 0.37449 0.0
H160 H 0.17366 0.22158 0.60715 0.0
C161 C 0.09422 0.16817 0.48945 0.0
C162 C 0.11465 0.18198 0.55563 0.0
C163 C 0.11523 0.18399 0.4243 0.0
C164 C 0.15838 0.21258 0.42507 0.0
C165 C 0.18036 0.22591 0.49103 0.0
C166 C 0.15805 0.21034 0.55603 0.0
H167 H 0.87983 0.07216 0.49994 0.0
H168 H 0.82411 0.19718 0.61262 0.0
H169 H 0.79549 0.1795 0.38577 0.0
C170 C 0.86073 0.10679 0.4996 0.0
C171 C 0.84067 0.1243 0.43465 0.0
C172 C 0.85391 0.13215 0.56449 0.0
C173 C 0.82896 0.17705 0.5629 0.0
C174 C 0.80765 0.19473 0.49874 0.0
C175 C 0.81384 0.16799 0.43482 0.0
C176 C 0.20291 0.18709 0.96336 0.0
C177 C 0.19946 0.14968 0.01565 0.0
C178 C 0.24421 0.21817 0.95995 0.0
C179 C 0.28395 0.21249 0.00798 0.0
H180 H 0.1732 0.19279 0.92525 0.0
H181 H 0.24475 0.24715 0.91984 0.0
S182 S 0.29495 0.11667 0.15011 0.0
N183 N 0.24005 0.10718 0.11432 0.0
N184 N 0.31864 0.16386 0.1059 0.0
C185 C 0.28139 0.17431 0.05938 0.0
C186 C 0.23892 0.14338 0.06373 0.0
C187 C 0.76253 0.19508 0.9619 0.0
C188 C 0.80258 0.19586 0.0098 0.0
C189 C 0.72645 0.23152 0.96423 0.0
C190 C 0.72999 0.27076 0.01315 0.0
H191 H 0.75932 0.16635 0.92203 0.0
H192 H 0.69606 0.22942 0.92646 0.0
S193 S 0.83026 0.29035 0.14707 0.0
N194 N 0.84419 0.23834 0.10736 0.0
N195 N 0.77866 0.30862 0.10874 0.0
C196 C 0.77014 0.27161 0.06147 0.0
C197 C 0.80591 0.23375 0.06044 0.0
C198 C 0.76015 0.83515 0.9463 0.0
C199 C 0.79657 0.83208 7e-05 0.0
C200 C 0.71918 0.80372 0.94667 0.0
C201 C 0.7133 0.7674 0.00023 0.0
H202 H 0.76248 0.86304 0.90463 0.0
H203 H 0.69132 0.80876 0.90551 0.0
S204 S 0.80121 0.74069 0.14869 0.0
N205 N 0.82576 0.78814 0.10602 0.0
N206 N 0.74972 0.72767 0.10515 0.0
C207 C 0.75042 0.7628 0.05294 0.0
C208 C 0.7918 0.79541 0.0532 0.0
C209 C 0.23736 0.79185 0.96876 0.0
C210 C 0.19888 0.79138 0.01956 0.0
C211 C 0.27495 0.75701 0.97161 0.0
C212 C 0.27484 0.71976 0.02444 0.0
H213 H 0.23807 0.81893 0.92583 0.0
H214 H 0.30372 0.75863 0.93109 0.0
S215 S 0.18134 0.70241 0.16938 0.0
N216 N 0.16326 0.75171 0.12527 0.0
N217 N 0.23213 0.68456 0.12848 0.0
C218 C 0.23686 0.71956 0.07645 0.0
C219 C 0.1993 0.75576 0.07449 0.0
C220 C 0.73033 0.66234 0.45147 0.0
C221 C 0.69521 0.66593 0.50702 0.0
C222 C 0.77126 0.69369 0.44846 0.0
C223 C 0.77842 0.73067 0.50011 0.0
H224 H 0.72682 0.63427 0.41063 0.0
H225 H 0.79794 0.68824 0.40578 0.0
S226 S 0.69463 0.75789 0.65345 0.0
N227 N 0.66906 0.71007 0.61371 0.0
N228 N 0.74482 0.77084 0.60637 0.0
C229 C 0.74286 0.73537 0.55526 0.0
C230 C 0.70157 0.70261 0.55909 0.0
C231 C 0.28238 0.72225 0.46382 0.0
C232 C 0.29138 0.6915 0.52345 0.0
C233 C 0.24332 0.7551 0.46339 0.0
C234 C 0.21056 0.75843 0.52204 0.0
H235 H 0.30672 0.7223 0.41743 0.0
H236 H 0.24012 0.77941 0.41733 0.0
S237 S 0.21509 0.68313 0.68936 0.0
N238 N 0.2631 0.66483 0.64195 0.0
N239 N 0.18792 0.7256 0.64002 0.0
C240 C 0.21799 0.72678 0.58138 0.0
C241 C 0.25868 0.69359 0.58232 0.0
C242 C 0.2664 0.32917 0.54816 0.0
C243 C 0.3064 0.32518 0.5004 0.0
C244 C 0.22593 0.29731 0.544 0.0
C245 C 0.22413 0.25928 0.49296 0.0
H246 H 0.26582 0.35785 0.58833 0.0
H247 H 0.19549 0.30309 0.58076 0.0
S248 S 0.32125 0.23151 0.35791 0.0
N249 N 0.34246 0.28007 0.40094 0.0
N250 N 0.26738 0.21844 0.39521 0.0
C251 C 0.26433 0.25449 0.44526 0.0
C252 C 0.30521 0.28776 0.44857 0.0
C253 C 0.70197 0.27543 0.55759 0.0
C254 C 0.69707 0.30875 0.49998 0.0
C255 C 0.73883 0.23998 0.55765 0.0
C256 C 0.77308 0.23683 0.50077 0.0
H257 H 0.67569 0.27511 0.60166 0.0
H258 H 0.73895 0.21351 0.60135 0.0
S259 S 0.7805 0.32001 0.34197 0.0
N260 N 0.73183 0.33908 0.38718 0.0
N261 N 0.80283 0.27365 0.38887 0.0
C262 C 0.77034 0.27174 0.44469 0.0
C263 C 0.73202 0.30739 0.44394 0.0
C264 C 0.08572 0.13077 0.24063 0.0
C265 C 0.0358 0.14315 0.23129 0.0
C266 C 0.11216 0.14576 0.30185 0.0
C267 C 0.08931 0.17317 0.35615 0.0
H268 H 0.1044 0.10863 0.20133 0.0
H269 H 0.15013 0.13443 0.30796 0.0
S270 S 0.96078 0.21818 0.35698 0.0
N271 N 0.96566 0.18726 0.28107 0.0
N272 N 0.01534 0.21458 0.39581 0.0
C273 C 0.0401 0.18714 0.34679 0.0
C274 C 0.01333 0.17237 0.28449 0.0
C275 C 0.86938 0.09342 0.23967 0.0
C276 C 0.86747 0.042 0.23908 0.0
C277 C 0.85969 0.1199 0.30256 0.0
C278 C 0.84632 0.09595 0.36702 0.0
H279 H 0.87859 0.1136 0.19153 0.0
H280 H 0.86367 0.15937 0.30096 0.0
S281 S 0.82095 0.9631 0.38893 0.0
N282 N 0.84184 0.96882 0.30561 0.0
N283 N 0.82142 0.01888 0.42257 0.0
C284 C 0.83925 0.04496 0.36544 0.0
C285 C 0.85006 0.01792 0.30177 0.0
C286 C 0.94019 0.8858 0.27456 0.0
C287 C 0.95317 0.8509 0.22279 0.0
C288 C 0.91638 0.87169 0.33847 0.0
C289 C 0.90361 0.82247 0.35157 0.0
H290 H 0.9509 0.9238 0.26744 0.0
H291 H 0.90926 0.8992 0.37891 0.0
S292 S 0.92887 0.71753 0.23125 0.0
N293 N 0.95171 0.7655 0.18767 0.0
N294 N 0.90509 0.73895 0.3068 0.0
C295 C 0.91486 0.78752 0.29874 0.0
C296 C 0.94021 0.80178 0.23452 0.0
C297 C 0.06763 0.93496 0.30169 0.0
C298 C 0.10081 0.93088 0.24395 0.0
C299 C 0.07447 0.9082 0.36564 0.0
C300 C 0.1158 0.87777 0.37511 0.0
H301 H 0.03675 0.95977 0.29789 0.0
H302 H 0.04808 0.91282 0.40893 0.0
S303 S 0.21321 0.85526 0.23756 0.0
N304 N 0.17466 0.89311 0.19749 0.0
N305 N 0.19018 0.84533 0.31884 0.0
C306 C 0.14849 0.87257 0.31613 0.0
C307 C 0.14042 0.89869 0.25035 0.0
C308 C 0.08616 0.95393 0.7209 0.0
C309 C 0.12763 0.96745 0.76213 0.0
C310 C 0.09075 0.92349 0.66062 0.0
C311 C 0.1369 0.90528 0.63962 0.0
H312 H 0.04971 0.96616 0.73598 0.0
H313 H 0.05783 0.91347 0.63092 0.0
S314 S 0.25746 0.93368 0.72448 0.0
N315 N 0.21681 0.96277 0.7745 0.0
N316 N 0.22526 0.90592 0.66097 0.0
C317 C 0.17878 0.91956 0.67904 0.0
C318 C 0.17418 0.95052 0.74036 0.0
C319 C 0.01072 0.16646 0.69152 0.0
C320 C 0.03487 0.14888 0.75341 0.0
C321 C 0.03684 0.17692 0.62805 0.0
C322 C 0.08815 0.16984 0.62368 0.0
H323 H 0.97131 0.17264 0.69213 0.0
H324 H 0.01666 0.19125 0.58225 0.0
S325 S 0.16852 0.12195 0.7692 0.0
N326 N 0.11309 0.12396 0.80581 0.0
N327 N 0.16179 0.14206 0.68567 0.0
C328 C 0.11271 0.15171 0.6848 0.0
C329 C 0.08618 0.14161 0.7498 0.0
C330 C 0.83628 0.0811 0.75354 0.0
C331 C 0.87757 0.05105 0.76319 0.0
C332 C 0.83016 0.10864 0.69041 0.0
C333 C 0.86555 0.10805 0.63472 0.0
H334 H 0.80736 0.08201 0.79387 0.0
H335 H 0.79625 0.12891 0.68414 0.0
S336 S 0.98429 0.04121 0.63874 0.0
N337 N 0.95677 0.02559 0.71507 0.0
N338 N 0.94627 0.07904 0.59736 0.0
C339 C 0.9085 0.08027 0.64554 0.0
C340 C 0.91428 0.0514 0.70947 0.0
C341 C 0.99688 0.82622 0.68613 0.0
C342 C 0.97243 0.8458 0.74642 0.0
C343 C 0.97088 0.81309 0.62369 0.0
C344 C 0.91946 0.81887 0.61935 0.0
H345 H 0.03637 0.82062 0.68719 0.0
H346 H 0.99108 0.7977 0.57884 0.0
S347 S 0.83825 0.87155 0.75938 0.0
N348 N 0.8937 0.87209 0.79591 0.0
N349 N 0.8454 0.8479 0.67835 0.0
C350 C 0.89469 0.83915 0.67842 0.0
C351 C 0.92101 0.85251 0.74194 0.0
C352 C 0.54513 0.68645 0.75152 0.0
C353 C 0.53617 0.63628 0.74104 0.0
C354 C 0.57005 0.70315 0.81313 0.0
C355 C 0.58543 0.67018 0.86697 0.0
H356 H 0.53189 0.71298 0.71257 0.0
H357 H 0.57546 0.74216 0.82019 0.0
S358 S 0.57099 0.53541 0.86496 0.0
N359 N 0.54582 0.55384 0.78843 0.0
N360 N 0.59106 0.5854 0.90536 0.0
C361 C 0.57743 0.61996 0.85644 0.0
C362 C 0.55315 0.60292 0.79309 0.0
C363 C 0.41586 0.55322 0.79455 0.0
C364 C 0.37682 0.54165 0.74811 0.0
C365 C 0.40758 0.57779 0.85956 0.0
C366 C 0.35964 0.59102 0.88041 0.0
H367 H 0.45282 0.54226 0.78085 0.0
H368 H 0.43881 0.58622 0.89388 0.0
S369 S 0.2444 0.56462 0.7794 0.0
N370 N 0.28865 0.54277 0.72769 0.0
N371 N 0.27221 0.58808 0.85072 0.0
C372 C 0.3201 0.57893 0.83439 0.0
C373 C 0.32885 0.55423 0.76805 0.0
C374 C 0.41471 0.34577 0.75019 0.0
C375 C 0.46548 0.33768 0.73996 0.0
C376 C 0.39002 0.32759 0.81155 0.0
C377 C 0.41536 0.30095 0.86478 0.0
H378 H 0.39404 0.36704 0.71141 0.0
H379 H 0.35138 0.33604 0.81877 0.0
S380 S 0.54703 0.26568 0.86145 0.0
N381 N 0.53919 0.29789 0.78684 0.0
N382 N 0.49265 0.26422 0.90135 0.0
C383 C 0.46543 0.29082 0.85385 0.0
C384 C 0.49052 0.30904 0.79166 0.0
C385 C 0.58049 0.42605 0.77976 0.0
C386 C 0.61818 0.44349 0.73423 0.0
C387 C 0.59164 0.40257 0.84509 0.0
C388 C 0.64082 0.39544 0.8661 0.0
H389 H 0.54224 0.43269 0.76643 0.0
H390 H 0.56173 0.39068 0.87994 0.0
S391 S 0.75249 0.43451 0.76519 0.0
N392 N 0.70609 0.45246 0.71402 0.0
N393 N 0.72737 0.40736 0.83626 0.0
C394 C 0.67875 0.41182 0.82011 0.0
C395 C 0.66733 0.43625 0.75422 0.0
C396 C 0.59475 0.45768 0.21396 0.0
C397 C 0.635 0.46892 0.25896 0.0
C398 C 0.60046 0.42869 0.1523 0.0
C399 C 0.64671 0.4098 0.13371 0.0
H400 H 0.55843 0.47091 0.22704 0.0
H401 H 0.56852 0.42065 0.1193 0.0
S402 S 0.76484 0.43211 0.22933 0.0
N403 N 0.72329 0.46088 0.27814 0.0
N404 N 0.73415 0.40708 0.16193 0.0
C405 C 0.68747 0.42146 0.17741 0.0
C406 C 0.68161 0.45079 0.24018 0.0
C407 C 0.57415 0.65598 0.258 0.0
C408 C 0.52316 0.66386 0.2656 0.0
C409 C 0.59875 0.6676 0.19355 0.0
C410 C 0.57328 0.68746 0.13436 0.0
H411 H 0.59512 0.63971 0.30156 0.0
H412 H 0.6378 0.66002 0.18946 0.0
S413 S 0.44096 0.72002 0.12868 0.0
N414 N 0.44883 0.69606 0.2098 0.0
N415 N 0.49532 0.71783 0.0888 0.0
C416 C 0.52269 0.69681 0.14178 0.0
C417 C 0.49759 0.68509 0.20738 0.0
C418 C 0.34458 0.55633 0.26375 0.0
C419 C 0.39154 0.53739 0.27823 0.0
C420 C 0.33535 0.58275 0.20051 0.0
C421 C 0.37283 0.59158 0.1495 0.0
H422 H 0.31421 0.54944 0.30054 0.0
H423 H 0.29813 0.59525 0.19059 0.0
S424 S 0.50393 0.55652 0.16709 0.0
N425 N 0.47735 0.53392 0.24051 0.0
N426 N 0.45967 0.58322 0.12046 0.0
C427 C 0.42046 0.57451 0.16446 0.0
C428 C 0.42994 0.5476 0.22922 0.0
C429 C 0.4531 0.28546 0.24888 0.0
C430 C 0.47273 0.33291 0.25763 0.0
C431 C 0.42568 0.27306 0.18753 0.0
C432 C 0.4166 0.30777 0.13294 0.0
H433 H 0.45995 0.25725 0.28885 0.0
H434 H 0.41275 0.23566 0.18185 0.0
S435 S 0.45357 0.43837 0.13408 0.0
N436 N 0.47707 0.41579 0.20929 0.0
N437 N 0.42498 0.39239 0.09448 0.0
C438 C 0.43406 0.35576 0.14242 0.0
C439 C 0.46225 0.36836 0.2046 0.0
loop_
_geom_bond_atom_site_label_1
_geom_bond_atom_site_label_2
_geom_bond_distance
_geom_bond_site_symmetry_2
_ccdc_geom_bond_type
Zn0 O2 1.933 1_556 S
Zn0 O20 1.985 . S
Zn0 O31 1.955 . S
Zn1 O2 1.911 . S
Zn1 O21 1.970 . S
Zn1 O37 1.945 . S
Zn1 O44 1.981 . S
O2 Zn0 1.933 1_554 S
O2 Zn1 1.911 . S
O2 H3 0.841 1_655 S
H3 O2 0.841 1_455 S
C4 O5 1.246 . S
C4 O33 1.276 1_545 S
O5 C4 1.246 . S
Zn6 O8 1.911 . S
Zn6 O23 1.970 . S
Zn6 O40 1.945 . S
Zn6 O47 1.981 . S
Zn7 O8 1.933 1_556 S
Zn7 O22 1.985 . S
Zn7 O29 1.955 . S
O8 Zn6 1.911 . S
O8 Zn7 1.933 1_554 S
O8 H9 0.841 1_455 S
H9 O8 0.841 1_655 S
Zn10 O11 1.933 1_556 S
Zn10 O24 1.985 . S
Zn10 O33 1.955 . S
O11 Zn10 1.933 1_554 S
O11 Zn12 1.911 . S
O11 H13 0.841 1_565 S
Zn12 O11 1.911 . S
Zn12 O25 1.970 . S
Zn12 O41 1.981 . S
Zn12 O43 1.945 . S
H13 O11 0.841 1_545 S
Zn14 O15 1.933 1_556 S
Zn14 O27 1.985 . S
Zn14 O35 1.955 . S
O15 Zn14 1.933 1_554 S
O15 H16 0.841 1_545 S
O15 Zn17 1.911 . S
H16 O15 0.841 1_565 S
Zn17 O15 1.911 . S
Zn17 O28 1.970 . S
Zn17 O38 1.981 . S
Zn17 O46 1.945 . S
C18 O19 1.246 . S
C18 O35 1.276 1_565 S
O19 C18 1.246 . S
O20 Zn0 1.985 . S
O20 C30 1.245 1_556 S
O21 Zn1 1.970 . S
O21 C30 1.263 . S
O22 Zn7 1.985 . S
O22 C34 1.245 1_556 S
O23 Zn6 1.970 . S
O23 C34 1.263 . S
O24 Zn10 1.985 . S
O24 C39 1.245 1_556 S
O25 Zn12 1.970 . S
O25 C39 1.263 . S
C26 O37 1.262 1_455 S
C26 O38 1.245 . S
O27 Zn14 1.985 . S
O27 C45 1.245 1_556 S
O28 Zn17 1.970 . S
O28 C45 1.263 . S
O29 Zn7 1.955 . S
O29 C48 1.276 1_455 S
C30 O20 1.245 1_554 S
C30 O21 1.263 . S
O31 Zn0 1.955 . S
O31 C50 1.276 1_655 S
C32 O40 1.262 1_655 S
C32 O41 1.245 . S
O33 C4 1.276 1_565 S
O33 Zn10 1.955 . S
C34 O22 1.245 1_554 S
C34 O23 1.263 . S
O35 Zn14 1.955 . S
O35 C18 1.276 1_545 S
C36 O43 1.262 1_545 S
C36 O44 1.245 . S
O37 Zn1 1.945 . S
O37 C26 1.262 1_655 S
O38 Zn17 1.981 . S
O38 C26 1.245 . S
C39 O24 1.245 1_554 S
C39 O25 1.263 . S
O40 Zn6 1.945 . S
O40 C32 1.262 1_455 S
O41 Zn12 1.981 . S
O41 C32 1.245 . S
C42 O46 1.262 1_565 S
C42 O47 1.245 . S
O43 Zn12 1.945 . S
O43 C36 1.262 1_565 S
O44 Zn1 1.981 . S
O44 C36 1.245 . S
C45 O27 1.245 1_554 S
C45 O28 1.263 . S
O46 Zn17 1.945 . S
O46 C42 1.262 1_545 S
O47 Zn6 1.981 . S
O47 C42 1.245 . S
C48 O29 1.276 1_655 S
C48 O49 1.246 . S
O49 C48 1.246 . S
C50 O31 1.276 1_455 S
C50 O51 1.246 . S
O51 C50 1.246 . S
Zn52 O54 1.933 . S
Zn52 O72 1.985 . S
Zn52 O83 1.955 . S
Zn53 O54 1.911 . S
Zn53 O73 1.970 . S
Zn53 O89 1.945 . S
Zn53 O96 1.981 . S
O54 Zn52 1.933 . S
O54 Zn53 1.911 . S
O54 H55 0.841 . S
H55 O54 0.841 . S
C56 O57 1.246 . S
C56 O85 1.276 . S
O57 C56 1.246 . S
Zn58 O60 1.911 . S
Zn58 O75 1.970 . S
Zn58 O92 1.945 . S
Zn58 O99 1.981 . S
Zn59 O60 1.933 . S
Zn59 O74 1.985 . S
Zn59 O81 1.955 . S
O60 Zn58 1.911 . S
O60 Zn59 1.933 . S
O60 H61 0.841 . S
H61 O60 0.841 . S
Zn62 O63 1.933 . S
Zn62 O76 1.985 . S
Zn62 O85 1.955 . S
O63 Zn62 1.933 . S
O63 Zn64 1.911 . S
O63 H65 0.841 . S
Zn64 O63 1.911 . S
Zn64 O77 1.970 . S
Zn64 O93 1.981 . S
Zn64 O95 1.945 . S
H65 O63 0.841 . S
Zn66 O67 1.933 . S
Zn66 O79 1.985 . S
Zn66 O87 1.955 . S
O67 Zn66 1.933 . S
O67 H68 0.841 . S
O67 Zn69 1.911 . S
H68 O67 0.841 . S
Zn69 O67 1.911 . S
Zn69 O80 1.970 . S
Zn69 O90 1.981 . S
Zn69 O98 1.945 . S
C70 O71 1.246 . S
C70 O87 1.276 . S
O71 C70 1.246 . S
O72 Zn52 1.985 . S
O72 C82 1.245 . S
O73 Zn53 1.970 . S
O73 C82 1.263 . S
O74 Zn59 1.985 . S
O74 C86 1.245 . S
O75 Zn58 1.970 . S
O75 C86 1.263 . S
O76 Zn62 1.985 . S
O76 C91 1.245 . S
O77 Zn64 1.970 . S
O77 C91 1.263 . S
C78 O89 1.262 . S
C78 O90 1.245 . S
O79 Zn66 1.985 . S
O79 C97 1.245 . S
O80 Zn69 1.970 . S
O80 C97 1.263 . S
O81 Zn59 1.955 . S
O81 C100 1.276 . S
C82 O72 1.245 . S
C82 O73 1.263 . S
O83 Zn52 1.955 . S
O83 C102 1.276 . S
C84 O92 1.262 . S
C84 O93 1.245 . S
O85 C56 1.276 . S
O85 Zn62 1.955 . S
C86 O74 1.245 . S
C86 O75 1.263 . S
O87 Zn66 1.955 . S
O87 C70 1.276 . S
C88 O95 1.262 . S
C88 O96 1.245 . S
O89 Zn53 1.945 . S
O89 C78 1.262 . S
O90 Zn69 1.981 . S
O90 C78 1.245 . S
C91 O76 1.245 . S
C91 O77 1.263 . S
O92 Zn58 1.945 . S
O92 C84 1.262 . S
O93 Zn64 1.981 . S
O93 C84 1.245 . S
C94 O98 1.262 . S
C94 O99 1.245 . S
O95 Zn64 1.945 . S
O95 C88 1.262 . S
O96 Zn53 1.981 . S
O96 C88 1.245 . S
C97 O79 1.245 . S
C97 O80 1.263 . S
O98 Zn69 1.945 . S
O98 C94 1.262 . S
O99 Zn58 1.981 . S
O99 C94 1.245 . S
C100 O81 1.276 . S
C100 O101 1.246 . S
O101 C100 1.246 . S
C102 O83 1.276 . S
C102 O103 1.246 . S
O103 C102 1.246 . S
H104 C107 0.931 . S
H105 C110 0.928 . S
H106 C112 0.930 . S
C107 H104 0.931 . S
C107 C108 1.413 1_554 S
C107 C109 1.360 . S
C108 C107 1.413 1_556 S
C108 C112 1.429 . S
C109 C107 1.360 . S
C109 C110 1.372 . S
C110 H105 0.928 . S
C110 C109 1.372 . S
C110 C111 1.404 . S
C111 C110 1.404 . S
C111 C112 1.391 1_554 S
C112 H106 0.930 . S
C112 C108 1.429 . S
C112 C111 1.391 1_556 S
H113 C116 0.931 . S
H114 C119 0.928 . S
H115 C121 0.930 . S
C116 H113 0.931 . S
C116 C117 1.413 1_554 S
C116 C118 1.360 . S
C117 C116 1.413 1_556 S
C117 C121 1.429 . S
C118 C116 1.360 . S
C118 C119 1.372 . S
C119 H114 0.928 . S
C119 C118 1.372 . S
C119 C120 1.404 . S
C120 C119 1.404 . S
C120 C121 1.391 1_554 S
C121 H115 0.930 . S
C121 C117 1.429 . S
C121 C120 1.391 1_556 S
H122 C125 0.931 . S
H123 C128 0.928 . S
H124 C130 0.930 . S
C125 H122 0.931 . S
C125 C126 1.413 . S
C125 C127 1.360 1_554 S
C126 C125 1.413 . S
C126 C130 1.429 . S
C127 C125 1.360 1_556 S
C127 C128 1.372 . S
C128 H123 0.928 . S
C128 C127 1.372 . S
C128 C129 1.404 1_556 S
C129 C128 1.404 1_554 S
C129 C130 1.391 . S
C130 H124 0.930 . S
C130 C126 1.429 . S
C130 C129 1.391 . S
H131 C134 0.931 . S
H132 C137 0.928 . S
H133 C139 0.930 . S
C134 H131 0.931 . S
C134 C135 1.413 1_554 S
C134 C136 1.360 . S
C135 C134 1.413 1_556 S
C135 C139 1.429 . S
C136 C134 1.360 . S
C136 C137 1.372 . S
C137 H132 0.928 . S
C137 C136 1.372 . S
C137 C138 1.404 . S
C138 C137 1.404 . S
C138 C139 1.391 1_554 S
C139 H133 0.930 . S
C139 C135 1.429 . S
C139 C138 1.391 1_556 S
H140 C143 0.931 . S
H141 C146 0.928 . S
H142 C148 0.930 . S
C143 H140 0.931 . S
C143 C144 1.413 . S
C143 C145 1.360 . S
C144 C143 1.413 . S
C144 C148 1.429 . S
C145 C143 1.360 . S
C145 C146 1.372 . S
C146 H141 0.928 . S
C146 C145 1.372 . S
C146 C147 1.404 . S
C147 C146 1.404 . S
C147 C148 1.391 . S
C148 H142 0.930 . S
C148 C144 1.429 . S
C148 C147 1.391 . S
H149 C152 0.931 . S
H150 C155 0.928 . S
H151 C157 0.930 . S
C152 H149 0.931 . S
C152 C153 1.413 . S
C152 C154 1.360 . S
C153 C152 1.413 . S
C153 C157 1.429 . S
C154 C152 1.360 . S
C154 C155 1.372 . S
C155 H150 0.928 . S
C155 C154 1.372 . S
C155 C156 1.404 . S
C156 C155 1.404 . S
C156 C157 1.391 . S
C157 H151 0.930 . S
C157 C153 1.429 . S
C157 C156 1.391 . S
H158 C161 0.931 . S
H159 C164 0.928 . S
H160 C166 0.930 . S
C161 H158 0.931 . S
C161 C162 1.413 . S
C161 C163 1.360 . S
C162 C161 1.413 . S
C162 C166 1.429 . S
C163 C161 1.360 . S
C163 C164 1.372 . S
C164 H159 0.928 . S
C164 C163 1.372 . S
C164 C165 1.404 . S
C165 C164 1.404 . S
C165 C166 1.391 . S
C166 H160 0.930 . S
C166 C162 1.429 . S
C166 C165 1.391 . S
H167 C170 0.931 . S
H168 C173 0.928 . S
H169 C175 0.930 . S
C170 H167 0.931 . S
C170 C171 1.413 . S
C170 C172 1.360 . S
C171 C170 1.413 . S
C171 C175 1.429 . S
C172 C170 1.360 . S
C172 C173 1.372 . S
C173 H168 0.928 . S
C173 C172 1.372 . S
C173 C174 1.404 . S
C174 C173 1.404 . S
C174 C175 1.391 . S
C175 H169 0.930 . S
C175 C171 1.429 . S
C175 C174 1.391 . S
C176 C177 1.369 1_556 S
C176 C178 1.419 . S
C176 H180 0.930 . S
C177 C176 1.369 1_554 S
C177 C186 1.429 . S
C178 C176 1.419 . S
C178 C179 1.363 1_556 S
C178 H181 0.929 . S
C179 C178 1.363 1_554 S
C179 C185 1.428 . S
H180 C176 0.930 . S
H181 C178 0.929 . S
S182 N183 1.613 . S
S182 N184 1.610 . S
N183 S182 1.613 . S
N183 C186 1.350 . S
N184 S182 1.610 . S
N184 C185 1.351 . S
C185 C179 1.428 . S
C185 N184 1.351 . S
C185 C186 1.434 . S
C186 C177 1.429 . S
C186 N183 1.350 . S
C186 C185 1.434 . S
C187 C188 1.369 1_556 S
C187 C189 1.419 . S
C187 H191 0.930 . S
C188 C187 1.369 1_554 S
C188 C197 1.429 . S
C189 C187 1.419 . S
C189 C190 1.363 1_556 S
C189 H192 0.929 . S
C190 C189 1.363 1_554 S
C190 C196 1.428 . S
H191 C187 0.930 . S
H192 C189 0.929 . S
S193 N194 1.613 . S
S193 N195 1.610 . S
N194 S193 1.613 . S
N194 C197 1.350 . S
N195 S193 1.610 . S
N195 C196 1.351 . S
C196 C190 1.428 . S
C196 N195 1.351 . S
C196 C197 1.434 . S
C197 C188 1.429 . S
C197 N194 1.350 . S
C197 C196 1.434 . S
C198 C199 1.369 1_556 S
C198 C200 1.419 . S
C198 H202 0.930 . S
C199 C198 1.369 1_554 S
C199 C208 1.429 . S
C200 C198 1.419 . S
C200 C201 1.363 1_556 S
C200 H203 0.929 . S
C201 C200 1.363 1_554 S
C201 C207 1.428 . S
H202 C198 0.930 . S
H203 C200 0.929 . S
S204 N205 1.613 . S
S204 N206 1.610 . S
N205 S204 1.613 . S
N205 C208 1.350 . S
N206 S204 1.610 . S
N206 C207 1.351 . S
C207 C201 1.428 . S
C207 N206 1.351 . S
C207 C208 1.434 . S
C208 C199 1.429 . S
C208 N205 1.350 . S
C208 C207 1.434 . S
C209 C210 1.369 1_556 S
C209 C211 1.419 . S
C209 H213 0.930 . S
C210 C209 1.369 1_554 S
C210 C219 1.429 . S
C211 C209 1.419 . S
C211 C212 1.363 1_556 S
C211 H214 0.929 . S
C212 C211 1.363 1_554 S
C212 C218 1.428 . S
H213 C209 0.930 . S
H214 C211 0.929 . S
S215 N216 1.613 . S
S215 N217 1.610 . S
N216 S215 1.613 . S
N216 C219 1.350 . S
N217 S215 1.610 . S
N217 C218 1.351 . S
C218 C212 1.428 . S
C218 N217 1.351 . S
C218 C219 1.434 . S
C219 C210 1.429 . S
C219 N216 1.350 . S
C219 C218 1.434 . S
C220 C221 1.369 . S
C220 C222 1.419 . S
C220 H224 0.930 . S
C221 C220 1.369 . S
C221 C230 1.429 . S
C222 C220 1.419 . S
C222 C223 1.363 . S
C222 H225 0.929 . S
C223 C222 1.363 . S
C223 C229 1.428 . S
H224 C220 0.930 . S
H225 C222 0.929 . S
S226 N227 1.613 . S
S226 N228 1.610 . S
N227 S226 1.613 . S
N227 C230 1.350 . S
N228 S226 1.610 . S
N228 C229 1.351 . S
C229 C223 1.428 . S
C229 N228 1.351 . S
C229 C230 1.434 . S
C230 C221 1.429 . S
C230 N227 1.350 . S
C230 C229 1.434 . S
C231 C232 1.369 . S
C231 C233 1.419 . S
C231 H235 0.930 . S
C232 C231 1.369 . S
C232 C241 1.429 . S
C233 C231 1.419 . S
C233 C234 1.363 . S
C233 H236 0.929 . S
C234 C233 1.363 . S
C234 C240 1.428 . S
H235 C231 0.930 . S
H236 C233 0.929 . S
S237 N238 1.613 . S
S237 N239 1.610 . S
N238 S237 1.613 . S
N238 C241 1.350 . S
N239 S237 1.610 . S
N239 C240 1.351 . S
C240 C234 1.428 . S
C240 N239 1.351 . S
C240 C241 1.434 . S
C241 C232 1.429 . S
C241 N238 1.350 . S
C241 C240 1.434 . S
C242 C243 1.369 . S
C242 C244 1.419 . S
C242 H246 0.930 . S
C243 C242 1.369 . S
C243 C252 1.429 . S
C244 C242 1.419 . S
C244 C245 1.363 . S
C244 H247 0.929 . S
C245 C244 1.363 . S
C245 C251 1.428 . S
H246 C242 0.930 . S
H247 C244 0.929 . S
S248 N249 1.613 . S
S248 N250 1.610 . S
N249 S248 1.613 . S
N249 C252 1.350 . S
N250 S248 1.610 . S
N250 C251 1.351 . S
C251 C245 1.428 . S
C251 N250 1.351 . S
C251 C252 1.434 . S
C252 C243 1.429 . S
C252 N249 1.350 . S
C252 C251 1.434 . S
C253 C254 1.369 . S
C253 C255 1.419 . S
C253 H257 0.930 . S
C254 C253 1.369 . S
C254 C263 1.429 . S
C255 C253 1.419 . S
C255 C256 1.363 . S
C255 H258 0.929 . S
C256 C255 1.363 . S
C256 C262 1.428 . S
H257 C253 0.930 . S
H258 C255 0.929 . S
S259 N260 1.613 . S
S259 N261 1.610 . S
N260 S259 1.613 . S
N260 C263 1.350 . S
N261 S259 1.610 . S
N261 C262 1.351 . S
C262 C256 1.428 . S
C262 N261 1.351 . S
C262 C263 1.434 . S
C263 C254 1.429 . S
C263 N260 1.350 . S
C263 C262 1.434 . S
C264 C265 1.369 . S
C264 C266 1.419 . S
C264 H268 0.930 . S
C265 C264 1.369 . S
C265 C274 1.429 . S
C266 C264 1.419 . S
C266 C267 1.363 . S
C266 H269 0.929 . S
C267 C266 1.363 . S
C267 C273 1.428 . S
H268 C264 0.930 . S
H269 C266 0.929 . S
S270 N271 1.613 . S
S270 N272 1.610 . S
N271 S270 1.613 . S
N271 C274 1.350 1_655 S
N272 S270 1.610 . S
N272 C273 1.351 1_655 S
C273 C267 1.428 . S
C273 N272 1.351 1_455 S
C273 C274 1.434 . S
C274 C265 1.429 . S
C274 N271 1.350 1_455 S
C274 C273 1.434 . S
C275 C276 1.369 . S
C275 C277 1.419 . S
C275 H279 0.930 . S
C276 C275 1.369 . S
C276 C285 1.429 . S
C277 C275 1.419 . S
C277 C278 1.363 . S
C277 H280 0.929 . S
C278 C277 1.363 . S
C278 C284 1.428 . S
H279 C275 0.930 . S
H280 C277 0.929 . S
S281 N282 1.613 . S
S281 N283 1.610 . S
N282 S281 1.613 . S
N282 C285 1.350 1_565 S
N283 S281 1.610 . S
N283 C284 1.351 1_565 S
C284 C278 1.428 . S
C284 N283 1.351 1_545 S
C284 C285 1.434 . S
C285 C276 1.429 . S
C285 N282 1.350 1_545 S
C285 C284 1.434 . S
C286 C287 1.369 . S
C286 C288 1.419 . S
C286 H290 0.930 . S
C287 C286 1.369 . S
C287 C296 1.429 . S
C288 C286 1.419 . S
C288 C289 1.363 . S
C288 H291 0.929 . S
C289 C288 1.363 . S
C289 C295 1.428 . S
H290 C286 0.930 . S
H291 C288 0.929 . S
S292 N293 1.613 . S
S292 N294 1.610 . S
N293 S292 1.613 . S
N293 C296 1.350 . S
N294 S292 1.610 . S
N294 C295 1.351 . S
C295 C289 1.428 . S
C295 N294 1.351 . S
C295 C296 1.434 . S
C296 C287 1.429 . S
C296 N293 1.350 . S
C296 C295 1.434 . S
C297 C298 1.369 . S
C297 C299 1.419 . S
C297 H301 0.930 . S
C298 C297 1.369 . S
C298 C307 1.429 . S
C299 C297 1.419 . S
C299 C300 1.363 . S
C299 H302 0.929 . S
C300 C299 1.363 . S
C300 C306 1.428 . S
H301 C297 0.930 . S
H302 C299 0.929 . S
S303 N304 1.613 . S
S303 N305 1.610 . S
N304 S303 1.613 . S
N304 C307 1.350 . S
N305 S303 1.610 . S
N305 C306 1.351 . S
C306 C300 1.428 . S
C306 N305 1.351 . S
C306 C307 1.434 . S
C307 C298 1.429 . S
C307 N304 1.350 . S
C307 C306 1.434 . S
C308 C309 1.369 . S
C308 C310 1.419 . S
C308 H312 0.930 . S
C309 C308 1.369 . S
C309 C318 1.429 . S
C310 C308 1.419 . S
C310 C311 1.363 . S
C310 H313 0.929 . S
C311 C310 1.363 . S
C311 C317 1.428 . S
H312 C308 0.930 . S
H313 C310 0.929 . S
S314 N315 1.613 . S
S314 N316 1.610 . S
N315 S314 1.613 . S
N315 C318 1.350 . S
N316 S314 1.610 . S
N316 C317 1.351 . S
C317 C311 1.428 . S
C317 N316 1.351 . S
C317 C318 1.434 . S
C318 C309 1.429 . S
C318 N315 1.350 . S
C318 C317 1.434 . S
C319 C320 1.369 . S
C319 C321 1.419 . S
C319 H323 0.930 . S
C320 C319 1.369 . S
C320 C329 1.429 . S
C321 C319 1.419 . S
C321 C322 1.363 . S
C321 H324 0.929 . S
C322 C321 1.363 . S
C322 C328 1.428 . S
H323 C319 0.930 . S
H324 C321 0.929 . S
S325 N326 1.613 . S
S325 N327 1.610 . S
N326 S325 1.613 . S
N326 C329 1.350 . S
N327 S325 1.610 . S
N327 C328 1.351 . S
C328 C322 1.428 . S
C328 N327 1.351 . S
C328 C329 1.434 . S
C329 C320 1.429 . S
C329 N326 1.350 . S
C329 C328 1.434 . S
C330 C331 1.369 . S
C330 C332 1.419 . S
C330 H334 0.930 . S
C331 C330 1.369 . S
C331 C340 1.429 . S
C332 C330 1.419 . S
C332 C333 1.363 . S
C332 H335 0.929 . S
C333 C332 1.363 . S
C333 C339 1.428 . S
H334 C330 0.930 . S
H335 C332 0.929 . S
S336 N337 1.613 . S
S336 N338 1.610 . S
N337 S336 1.613 . S
N337 C340 1.350 . S
N338 S336 1.610 . S
N338 C339 1.351 . S
C339 C333 1.428 . S
C339 N338 1.351 . S
C339 C340 1.434 . S
C340 C331 1.429 . S
C340 N337 1.350 . S
C340 C339 1.434 . S
C341 C342 1.369 . S
C341 C343 1.419 . S
C341 H345 0.930 . S
C342 C341 1.369 . S
C342 C351 1.429 . S
C343 C341 1.419 . S
C343 C344 1.363 . S
C343 H346 0.929 . S
C344 C343 1.363 . S
C344 C350 1.428 . S
H345 C341 0.930 . S
H346 C343 0.929 . S
S347 N348 1.613 . S
S347 N349 1.610 . S
N348 S347 1.613 . S
N348 C351 1.350 . S
N349 S347 1.610 . S
N349 C350 1.351 . S
C350 C344 1.428 . S
C350 N349 1.351 . S
C350 C351 1.434 . S
C351 C342 1.429 . S
C351 N348 1.350 . S
C351 C350 1.434 . S
C352 C353 1.369 . S
C352 C354 1.419 . S
C352 H356 0.930 . S
C353 C352 1.369 . S
C353 C362 1.429 . S
C354 C352 1.419 . S
C354 C355 1.363 . S
C354 H357 0.929 . S
C355 C354 1.363 . S
C355 C361 1.428 . S
H356 C352 0.930 . S
H357 C354 0.929 . S
S358 N359 1.613 . S
S358 N360 1.610 . S
N359 S358 1.613 . S
N359 C362 1.350 . S
N360 S358 1.610 . S
N360 C361 1.351 . S
C361 C355 1.428 . S
C361 N360 1.351 . S
C361 C362 1.434 . S
C362 C353 1.429 . S
C362 N359 1.350 . S
C362 C361 1.434 . S
C363 C364 1.369 . S
C363 C365 1.419 . S
C363 H367 0.930 . S
C364 C363 1.369 . S
C364 C373 1.429 . S
C365 C363 1.419 . S
C365 C366 1.363 . S
C365 H368 0.929 . S
C366 C365 1.363 . S
C366 C372 1.428 . S
H367 C363 0.930 . S
H368 C365 0.929 . S
S369 N370 1.613 . S
S369 N371 1.610 . S
N370 S369 1.613 . S
N370 C373 1.350 . S
N371 S369 1.610 . S
N371 C372 1.351 . S
C372 C366 1.428 . S
C372 N371 1.351 . S
C372 C373 1.434 . S
C373 C364 1.429 . S
C373 N370 1.350 . S
C373 C372 1.434 . S
C374 C375 1.369 . S
C374 C376 1.419 . S
C374 H378 0.930 . S
C375 C374 1.369 . S
C375 C384 1.429 . S
C376 C374 1.419 . S
C376 C377 1.363 . S
C376 H379 0.929 . S
C377 C376 1.363 . S
C377 C383 1.428 . S
H378 C374 0.930 . S
H379 C376 0.929 . S
S380 N381 1.613 . S
S380 N382 1.610 . S
N381 S380 1.613 . S
N381 C384 1.350 . S
N382 S380 1.610 . S
N382 C383 1.351 . S
C383 C377 1.428 . S
C383 N382 1.351 . S
C383 C384 1.434 . S
C384 C375 1.429 . S
C384 N381 1.350 . S
C384 C383 1.434 . S
C385 C386 1.369 . S
C385 C387 1.419 . S
C385 H389 0.930 . S
C386 C385 1.369 . S
C386 C395 1.429 . S
C387 C385 1.419 . S
C387 C388 1.363 . S
C387 H390 0.929 . S
C388 C387 1.363 . S
C388 C394 1.428 . S
H389 C385 0.930 . S
H390 C387 0.929 . S
S391 N392 1.613 . S
S391 N393 1.610 . S
N392 S391 1.613 . S
N392 C395 1.350 . S
N393 S391 1.610 . S
N393 C394 1.351 . S
C394 C388 1.428 . S
C394 N393 1.351 . S
C394 C395 1.434 . S
C395 C386 1.429 . S
C395 N392 1.350 . S
C395 C394 1.434 . S
C396 C397 1.369 . S
C396 C398 1.419 . S
C396 H400 0.930 . S
C397 C396 1.369 . S
C397 C406 1.429 . S
C398 C396 1.419 . S
C398 C399 1.363 . S
C398 H401 0.929 . S
C399 C398 1.363 . S
C399 C405 1.428 . S
H400 C396 0.930 . S
H401 C398 0.929 . S
S402 N403 1.613 . S
S402 N404 1.610 . S
N403 S402 1.613 . S
N403 C406 1.350 . S
N404 S402 1.610 . S
N404 C405 1.351 . S
C405 C399 1.428 . S
C405 N404 1.351 . S
C405 C406 1.434 . S
C406 C397 1.429 . S
C406 N403 1.350 . S
C406 C405 1.434 . S
C407 C408 1.369 . S
C407 C409 1.419 . S
C407 H411 0.930 . S
C408 C407 1.369 . S
C408 C417 1.429 . S
C409 C407 1.419 . S
C409 C410 1.363 . S
C409 H412 0.929 . S
C410 C409 1.363 . S
C410 C416 1.428 . S
H411 C407 0.930 . S
H412 C409 0.929 . S
S413 N414 1.613 . S
S413 N415 1.610 . S
N414 S413 1.613 . S
N414 C417 1.350 . S
N415 S413 1.610 . S
N415 C416 1.351 . S
C416 C410 1.428 . S
C416 N415 1.351 . S
C416 C417 1.434 . S
C417 C408 1.429 . S
C417 N414 1.350 . S
C417 C416 1.434 . S
C418 C419 1.369 . S
C418 C420 1.419 . S
C418 H422 0.930 . S
C419 C418 1.369 . S
C419 C428 1.429 . S
C420 C418 1.419 . S
C420 C421 1.363 . S
C420 H423 0.929 . S
C421 C420 1.363 . S
C421 C427 1.428 . S
H422 C418 0.930 . S
H423 C420 0.929 . S
S424 N425 1.613 . S
S424 N426 1.610 . S
N425 S424 1.613 . S
N425 C428 1.350 . S
N426 S424 1.610 . S
N426 C427 1.351 . S
C427 C421 1.428 . S
C427 N426 1.351 . S
C427 C428 1.434 . S
C428 C419 1.429 . S
C428 N425 1.350 . S
C428 C427 1.434 . S
C429 C430 1.369 . S
C429 C431 1.419 . S
C429 H433 0.930 . S
C430 C429 1.369 . S
C430 C439 1.429 . S
C431 C429 1.419 . S
C431 C432 1.363 . S
C431 H434 0.929 . S
C432 C431 1.363 . S
C432 C438 1.428 . S
H433 C429 0.930 . S
H434 C431 0.929 . S
S435 N436 1.613 . S
S435 N437 1.610 . S
N436 S435 1.613 . S
N436 C439 1.350 . S
N437 S435 1.610 . S
N437 C438 1.351 . S
C438 C432 1.428 . S
C438 N437 1.351 . S
C438 C439 1.434 . S
C439 C430 1.429 . S
C439 N436 1.350 . S
C439 C438 1.434 . S
C177 C45 1.531 . S
C179 C111 1.546 . S
C188 C30 1.534 . S
C190 C120 1.544 . S
C199 C39 1.536 . S
C201 C129 1.540 . S
C212 C138 1.546 . S
C210 C34 1.534 . S
C221 C97 1.536 . S
C223 C147 1.544 . S
C234 C156 1.544 . S
C232 C82 1.535 . S
C245 C165 1.541 . S
C243 C91 1.532 . S
C256 C174 1.545 . S
C254 C86 1.534 . S
C267 C163 1.478 . S
C265 C26 1.432 . S
C278 C171 1.480 . S
C276 C36 1.432 . S
C289 C144 1.480 . S
C287 C32 1.439 . S
C300 C153 1.480 . S
C298 C42 1.433 . S
C309 C18 1.477 . S
C311 C154 1.548 . S
C322 C162 1.539 . S
C320 C50 1.478 . S
C331 C4 1.488 . S
C333 C172 1.543 . S
C342 C48 1.479 . S
C344 C145 1.546 . S
C355 C127 1.475 . S
C353 C78 1.441 . S
C364 C88 1.433 . S
C366 C135 1.480 . S
C377 C108 1.482 . S
C375 C84 1.433 . S
C388 C117 1.479 . S
C386 C94 1.436 . S
C399 C118 1.547 . S
C397 C70 1.477 . S
C410 C126 1.540 . S
C408 C102 1.478 . S
C419 C56 1.487 . S
C421 C136 1.544 . S
C430 C100 1.485 . S
C432 C109 1.543 . S
