# Generated by pormake.
# Topology csq, (4,8)-cn, num edge types: 1
# Building blocks:
#     Node 0, Type 0, BuildingBlock: AZAVOO_clean_linker_0, # of connection points: 4
#     Node 1, Type 0, BuildingBlock: AZAVOO_clean_linker_0, # of connection points: 4
#     Node 2, Type 0, BuildingBlock: AZAVOO_clean_linker_0, # of connection points: 4
#     Node 3, Type 0, BuildingBlock: AZAVOO_clean_linker_0, # of connection points: 4
#     Node 4, Type 0, BuildingBlock: AZAVOO_clean_linker_0, # of connection points: 4
#     Node 5, Type 0, BuildingBlock: AZAVOO_clean_linker_0, # of connection points: 4
#     Node 6, Type 1, BuildingBlock: TAGTUT_clean_sbu_1, # of connection points: 8
#     Node 7, Type 1, BuildingBlock: TAGTUT_clean_sbu_1, # of connection points: 8
#     Node 8, Type 1, BuildingBlock: TAGTUT_clean_sbu_1, # of connection points: 8
#     Edge 9, Type (0, 1), BuildingBlock: OJICUG_clean_linker_0, # of connection points: 2
#     Edge 10, Type (0, 1), BuildingBlock: OJICUG_clean_linker_0, # of connection points: 2
#     Edge 11, Type (0, 1), BuildingBlock: OJICUG_clean_linker_0, # of connection points: 2
#     Edge 12, Type (0, 1), BuildingBlock: OJICUG_clean_linker_0, # of connection points: 2
#     Edge 13, Type (0, 1), BuildingBlock: OJICUG_clean_linker_0, # of connection points: 2
#     Edge 14, Type (0, 1), BuildingBlock: OJICUG_clean_linker_0, # of connection points: 2
#     Edge 15, Type (0, 1), BuildingBlock: OJICUG_clean_linker_0, # of connection points: 2
#     Edge 16, Type (0, 1), BuildingBlock: OJICUG_clean_linker_0, # of connection points: 2
#     Edge 17, Type (0, 1), BuildingBlock: OJICUG_clean_linker_0, # of connection points: 2
#     Edge 18, Type (0, 1), BuildingBlock: OJICUG_clean_linker_0, # of connection points: 2
#     Edge 19, Type (0, 1), BuildingBlock: OJICUG_clean_linker_0, # of connection points: 2
#     Edge 20, Type (0, 1), BuildingBlock: OJICUG_clean_linker_0, # of connection points: 2
#     Edge 21, Type (0, 1), BuildingBlock: OJICUG_clean_linker_0, # of connection points: 2
#     Edge 22, Type (0, 1), BuildingBlock: OJICUG_clean_linker_0, # of connection points: 2
#     Edge 23, Type (0, 1), BuildingBlock: OJICUG_clean_linker_0, # of connection points: 2
#     Edge 24, Type (0, 1), BuildingBlock: OJICUG_clean_linker_0, # of connection points: 2
#     Edge 25, Type (0, 1), BuildingBlock: OJICUG_clean_linker_0, # of connection points: 2
#     Edge 26, Type (0, 1), BuildingBlock: OJICUG_clean_linker_0, # of connection points: 2
#     Edge 27, Type (0, 1), BuildingBlock: OJICUG_clean_linker_0, # of connection points: 2
#     Edge 28, Type (0, 1), BuildingBlock: OJICUG_clean_linker_0, # of connection points: 2
#     Edge 29, Type (0, 1), BuildingBlock: OJICUG_clean_linker_0, # of connection points: 2
#     Edge 30, Type (0, 1), BuildingBlock: OJICUG_clean_linker_0, # of connection points: 2
#     Edge 31, Type (0, 1), BuildingBlock: OJICUG_clean_linker_0, # of connection points: 2
#     Edge 32, Type (0, 1), BuildingBlock: OJICUG_clean_linker_0, # of connection points: 2
# Relax obj value: 0.145
# Max RMSD: 0.237
# Mean RMSD: 0.200
data_MOF--net-csq--node1-TAGTUT_clean_sbu_1--node2-AZAVOO_clean_linker_0--edge1-OJICUG_clean_linker_0
_symmetry_space_group_name_H-M    P1
_symmetry_Int_Tables_number       1
_symmetry_cell_setting            triclinic
loop_
_symmetry_equiv_pos_as_xyz
'x, y, z'
_cell_length_a     44.869915
_cell_length_b     44.395412
_cell_length_c     18.614043
_cell_angle_alpha  92.862227
_cell_angle_beta   92.418085
_cell_angle_gamma 119.99953
loop_
_atom_site_label
_atom_site_type_symbol
_atom_site_fract_x
_atom_site_fract_y
_atom_site_fract_z
_atom_type_partial_charge
H0 H 0.1572 0.44956 0.58257 0.0
H1 H 0.48206 0.52596 0.1787 0.0
H2 H 0.17374 0.42104 0.20793 0.0
H3 H 0.13236 0.42297 0.28399 0.0
H4 H 0.16842 0.52966 0.23528 0.0
H5 H 0.21242 0.52818 0.16539 0.0
H6 H 0.22126 0.42928 0.33103 0.0
H7 H 0.19296 0.42812 0.44139 0.0
H8 H 0.21938 0.53521 0.42247 0.0
H9 H 0.24766 0.53602 0.31246 0.0
H10 H 0.29482 0.43391 0.28536 0.0
H11 H 0.32927 0.43624 0.3922 0.0
H12 H 0.34336 0.53721 0.46329 0.0
H13 H 0.31091 0.53559 0.35298 0.0
H14 H 0.31052 0.43622 0.12028 0.0
H15 H 0.36626 0.43933 0.11253 0.0
H16 H 0.41721 0.5427 0.22328 0.0
H17 H 0.36125 0.53931 0.23042 0.0
H18 H 0.26143 0.4404 0.989 0.0
H19 H 0.29575 0.4448 0.88841 0.0
H20 H 0.37746 0.54477 0.98581 0.0
H21 H 0.34087 0.54198 0.07943 0.0
H22 H 0.18581 0.42549 0.05622 0.0
H23 H 0.15418 0.41815 0.94097 0.0
H24 H 0.23452 0.51999 0.89039 0.0
H25 H 0.26427 0.52819 0.00857 0.0
O26 O 0.16951 0.45089 0.54024 0.0
O27 O 0.18371 0.50594 0.52773 0.0
O28 O 0.43181 0.46876 0.13507 0.0
O29 O 0.4596 0.5237 0.18289 0.0
C30 C 0.23188 0.47926 0.17741 0.0
C31 C 0.25077 0.48238 0.24306 0.0
C32 C 0.28312 0.48472 0.24223 0.0
C33 C 0.29802 0.4862 0.17633 0.0
C34 C 0.28065 0.4859 0.11056 0.0
C35 C 0.24685 0.48124 0.11073 0.0
C36 C 0.19685 0.47474 0.18268 0.0
C37 C 0.17164 0.44434 0.21094 0.0
C38 C 0.14799 0.44574 0.25564 0.0
C39 C 0.14791 0.4772 0.26997 0.0
C40 C 0.16895 0.50557 0.22987 0.0
C41 C 0.19348 0.50448 0.18729 0.0
C42 C 0.23619 0.48261 0.31346 0.0
C43 C 0.2212 0.45255 0.35131 0.0
C44 C 0.20494 0.45193 0.41412 0.0
C45 C 0.20362 0.48148 0.44041 0.0
C46 C 0.21974 0.51194 0.40353 0.0
C47 C 0.23594 0.5125 0.34073 0.0
C48 C 0.30108 0.48488 0.31087 0.0
C49 C 0.30526 0.45642 0.32429 0.0
C50 C 0.32439 0.45756 0.38629 0.0
C51 C 0.33926 0.48703 0.43656 0.0
C52 C 0.33273 0.51438 0.42526 0.0
C53 C 0.31419 0.5135 0.36241 0.0
C54 C 0.33184 0.48752 0.17586 0.0
C55 C 0.33373 0.45943 0.14317 0.0
C56 C 0.3656 0.46129 0.13881 0.0
C57 C 0.39621 0.49132 0.16711 0.0
C58 C 0.39415 0.51923 0.20082 0.0
C59 C 0.36222 0.5173 0.20532 0.0
C60 C 0.29873 0.49058 0.04264 0.0
C61 C 0.2863 0.46378 0.987 0.0
C62 C 0.30664 0.46611 0.93003 0.0
C63 C 0.34068 0.49459 0.92894 0.0
C64 C 0.35185 0.52231 0.98289 0.0
C65 C 0.3309 0.52063 0.03776 0.0
C66 C 0.22717 0.47754 0.04145 0.0
C67 C 0.19626 0.44644 0.02069 0.0
C68 C 0.17862 0.44198 0.95377 0.0
C69 C 0.1918 0.46833 0.90541 0.0
C70 C 0.2232 0.49924 0.92615 0.0
C71 C 0.24038 0.50398 0.99377 0.0
C72 C 0.18511 0.48033 0.50544 0.0
C73 C 0.43019 0.49374 0.16082 0.0
H74 H 0.88005 0.38866 0.54086 0.0
H75 H 0.60353 0.02015 0.18759 0.0
H76 H 0.82289 0.3322 0.15085 0.0
H77 H 0.87425 0.38501 0.2032 0.0
H78 H 0.92561 0.32514 0.23099 0.0
H79 H 0.87567 0.27421 0.17227 0.0
H80 H 0.7857 0.30181 0.29339 0.0
H81 H 0.81851 0.342 0.39912 0.0
H82 H 0.88418 0.29668 0.41128 0.0
H83 H 0.85114 0.2567 0.30569 0.0
H84 H 0.70764 0.21392 0.275 0.0
H85 H 0.68136 0.187 0.38291 0.0
H86 H 0.77114 0.17873 0.44373 0.0
H87 H 0.79518 0.20209 0.33099 0.0
H88 H 0.68357 0.18829 0.1222 0.0
H89 H 0.6302 0.13212 0.12275 0.0
H90 H 0.68913 0.08596 0.20105 0.0
H91 H 0.74237 0.14215 0.19887 0.0
H92 H 0.72431 0.23453 0.01144 0.0
H93 H 0.67707 0.19685 0.92074 0.0
H94 H 0.70562 0.11758 0.9321 0.0
H95 H 0.75246 0.15516 0.02399 0.0
H96 H 0.79994 0.30004 0.01666 0.0
H97 H 0.84449 0.33212 0.93443 0.0
H98 H 0.87496 0.25404 0.93793 0.0
H99 H 0.83053 0.22227 0.02103 0.0
O100 O 0.86671 0.37181 0.50064 0.0
O101 O 0.89914 0.34697 0.5056 0.0
O102 O 0.59526 0.06729 0.1437 0.0
O103 O 0.62426 0.04258 0.18613 0.0
C104 C 0.81207 0.26644 0.15767 0.0
C105 C 0.79814 0.25445 0.22392 0.0
C106 C 0.76715 0.22249 0.22476 0.0
C107 C 0.74932 0.20318 0.15891 0.0
C108 C 0.76283 0.21586 0.09231 0.0
C109 C 0.79476 0.24704 0.09195 0.0
C110 C 0.84551 0.29938 0.15948 0.0
C111 C 0.84611 0.33126 0.16452 0.0
C112 C 0.87534 0.36125 0.19608 0.0
C113 C 0.9037 0.35929 0.22568 0.0
C114 C 0.90457 0.32828 0.21011 0.0
C115 C 0.8758 0.29871 0.17628 0.0
C116 C 0.81591 0.27624 0.29231 0.0
C117 C 0.80686 0.3003 0.31968 0.0
C118 C 0.82577 0.32333 0.3798 0.0
C119 C 0.854 0.32258 0.41363 0.0
C120 C 0.86256 0.29792 0.38665 0.0
C121 C 0.84365 0.27495 0.32657 0.0
C122 C 0.7531 0.2096 0.29467 0.0
C123 C 0.72154 0.20622 0.3117 0.0
C124 C 0.7069 0.1914 0.37457 0.0
C125 C 0.72399 0.18047 0.42295 0.0
C126 C 0.75676 0.18606 0.40755 0.0
C127 C 0.77083 0.19986 0.34341 0.0
C128 C 0.71683 0.16918 0.15987 0.0
C129 C 0.68491 0.16594 0.13883 0.0
C130 C 0.65446 0.13386 0.13951 0.0
C131 C 0.6554 0.10451 0.16193 0.0
C132 C 0.68747 0.10799 0.18342 0.0
C133 C 0.71791 0.14005 0.18232 0.0
C134 C 0.74181 0.19758 0.02404 0.0
C135 C 0.72115 0.20956 0.99243 0.0
C136 C 0.69401 0.18793 0.94133 0.0
C137 C 0.68763 0.15429 0.92011 0.0
C138 C 0.71017 0.14349 0.94737 0.0
C139 C 0.73698 0.16493 -0.00055 0.0
C140 C 0.81205 0.25889 0.02467 0.0
C141 C 0.81529 0.28915 0.99739 0.0
C142 C 0.84098 0.3076 0.95124 0.0
C143 C 0.86351 0.29581 0.93113 0.0
C144 C 0.85793 0.26364 0.95271 0.0
C145 C 0.83242 0.24536 -0.00039 0.0
C146 C 0.87466 0.34772 0.47616 0.0
C147 C 0.6231 0.07042 0.16323 0.0
H148 H 0.53385 0.87177 0.6558 0.0
H149 H 0.4463 0.52187 0.0128 0.0
H150 H 0.55959 0.84168 0.05806 0.0
H151 H 0.56838 0.89481 0.00811 0.0
H152 H 0.46089 0.8412 0.92756 0.0
H153 H 0.45179 0.78949 0.98417 0.0
H154 H 0.55647 0.8123 0.9111 0.0
H155 H 0.5578 0.84292 0.80466 0.0
H156 H 0.44936 0.76928 0.75163 0.0
H157 H 0.44834 0.73906 0.85896 0.0
H158 H 0.56311 0.75561 0.92061 0.0
H159 H 0.58761 0.72421 0.85964 0.0
H160 H 0.48522 0.63476 0.81387 0.0
H161 H 0.46081 0.66652 0.87556 0.0
H162 H 0.54872 0.6949 0.02905 0.0
H163 H 0.54213 0.63663 0.02492 0.0
H164 H 0.4318 0.59125 0.0312 0.0
H165 H 0.43866 0.64955 0.03421 0.0
H166 H 0.5653 0.74446 0.14984 0.0
H167 H 0.57625 0.70835 0.22766 0.0
H168 H 0.46768 0.64953 0.26264 0.0
H169 H 0.45699 0.68628 0.1836 0.0
H170 H 0.57106 0.79993 0.1605 0.0
H171 H 0.59531 0.85269 0.24233 0.0
H172 H 0.49391 0.84071 0.2508 0.0
H173 H 0.46959 0.78727 0.16996 0.0
O174 O 0.5331 0.85822 0.69553 0.0
O175 O 0.47794 0.81839 0.66756 0.0
O176 O 0.50702 0.56988 0.02126 0.0
O177 O 0.44988 0.54529 0.01738 0.0
C178 C 0.50266 0.77713 0.02835 0.0
C179 C 0.50041 0.75825 0.96293 0.0
C180 C 0.49931 0.72619 0.96454 0.0
C181 C 0.49771 0.71151 0.03074 0.0
C182 C 0.50317 0.73161 0.09622 0.0
C183 C 0.50656 0.76496 0.09502 0.0
C184 C 0.50507 0.81157 0.02429 0.0
C185 C 0.53744 0.84213 0.03412 0.0
C186 C 0.54258 0.8723 0.00379 0.0
C187 C 0.51574 0.8719 0.96097 0.0
C188 C 0.4823 0.84267 0.95974 0.0
C189 C 0.47697 0.81288 0.99211 0.0
C190 C 0.50224 0.77364 0.89295 0.0
C191 C 0.53312 0.8026 0.87599 0.0
C192 C 0.53378 0.82012 0.81528 0.0
C193 C 0.5036 0.80877 0.77003 0.0
C194 C 0.47302 0.77881 0.78559 0.0
C195 C 0.47239 0.76135 0.84653 0.0
C196 C 0.51026 0.71312 0.90283 0.0
C197 C 0.54578 0.72992 0.89403 0.0
C198 C 0.55981 0.71181 0.86009 0.0
C199 C 0.53836 0.67678 0.83457 0.0
C200 C 0.50232 0.66152 0.83525 0.0
C201 C 0.48826 0.67974 0.86901 0.0
C202 C 0.49412 0.67634 0.03155 0.0
C203 C 0.52316 0.67231 0.02968 0.0
C204 C 0.51932 0.63902 0.02738 0.0
C205 C 0.48633 0.60922 0.02704 0.0
C206 C 0.45745 0.61355 0.03046 0.0
C207 C 0.46131 0.64682 0.0325 0.0
C208 C 0.51053 0.71888 0.16287 0.0
C209 C 0.54418 0.7253 0.17781 0.0
C210 C 0.55028 0.70407 0.22142 0.0
C211 C 0.52278 0.6758 0.25092 0.0
C212 C 0.48933 0.67081 0.23988 0.0
C213 C 0.48327 0.69227 0.19621 0.0
C214 C 0.51842 0.78933 0.16046 0.0
C215 C 0.55372 0.80746 0.18325 0.0
C216 C 0.56768 0.83801 0.22886 0.0
C217 C 0.54656 0.85103 0.25135 0.0
C218 C 0.5108 0.83145 0.23284 0.0
C219 C 0.49679 0.80068 0.18788 0.0
C220 C 0.50399 0.82858 0.70778 0.0
C221 C 0.48186 0.5737 0.02197 0.0
H222 H 0.69185 0.48894 0.51464 0.0
H223 H 0.01679 0.5897 0.15375 0.0
H224 H 0.7015 0.4619 0.11841 0.0
H225 H 0.65921 0.46045 0.19714 0.0
H226 H 0.69776 0.5701 0.17473 0.0
H227 H 0.74154 0.5715 0.09929 0.0
H228 H 0.74679 0.47087 0.24631 0.0
H229 H 0.72124 0.46826 0.36121 0.0
H230 H 0.75314 0.57764 0.35989 0.0
H231 H 0.77745 0.57954 0.24385 0.0
H232 H 0.82629 0.48347 0.21665 0.0
H233 H 0.84891 0.48237 0.33634 0.0
H234 H 0.85592 0.58118 0.40007 0.0
H235 H 0.83762 0.58386 0.27677 0.0
H236 H 0.84822 0.48566 0.06316 0.0
H237 H 0.90691 0.49504 0.06934 0.0
H238 H 0.94614 0.60112 0.15833 0.0
H239 H 0.88746 0.59158 0.15065 0.0
H240 H 0.78851 0.47047 0.94193 0.0
H241 H 0.82296 0.46241 0.85285 0.0
H242 H 0.90148 0.57116 0.89423 0.0
H243 H 0.86598 0.5792 0.97987 0.0
H244 H 0.71539 0.46709 0.97405 0.0
H245 H 0.67919 0.46678 0.87184 0.0
H246 H 0.75716 0.57221 0.8372 0.0
H247 H 0.79284 0.57256 0.94084 0.0
O248 O 0.70237 0.49057 0.46953 0.0
O249 O 0.72143 0.5474 0.46867 0.0
O250 O 0.97239 0.53153 0.0983 0.0
O251 O 0.99342 0.58545 0.14892 0.0
C252 C 0.76043 0.52204 0.10059 0.0
C253 C 0.77933 0.52678 0.16688 0.0
C254 C 0.8129 0.53205 0.16791 0.0
C255 C 0.828 0.53242 0.10289 0.0
C256 C 0.80925 0.52752 0.03581 0.0
C257 C 0.7754 0.52256 0.03468 0.0
C258 C 0.7252 0.51697 0.10439 0.0
C259 C 0.69951 0.48514 0.12685 0.0
C260 C 0.67548 0.48453 0.17312 0.0
C261 C 0.67608 0.51562 0.1956 0.0
C262 C 0.69763 0.546 0.16156 0.0
C263 C 0.72209 0.54668 0.11635 0.0
C264 C 0.76353 0.52526 0.23646 0.0
C265 C 0.74795 0.49413 0.27075 0.0
C266 C 0.73347 0.49276 0.33639 0.0
C267 C 0.73492 0.52269 0.36948 0.0
C268 C 0.75129 0.55404 0.33558 0.0
C269 C 0.76515 0.5552 0.2693 0.0
C270 C 0.83058 0.5338 0.23812 0.0
C271 C 0.83361 0.50525 0.25616 0.0
C272 C 0.84552 0.50424 0.32568 0.0
C273 C 0.8536 0.53133 0.37944 0.0
C274 C 0.85033 0.55993 0.36066 0.0
C275 C 0.8398 0.56154 0.29016 0.0
C276 C 0.86362 0.53802 0.10596 0.0
C277 C 0.86956 0.51098 0.08337 0.0
C278 C 0.90309 0.51638 0.0872 0.0
C279 C 0.93124 0.54886 0.11441 0.0
C280 C 0.92509 0.57582 0.13714 0.0
C281 C 0.8916 0.57044 0.13288 0.0
C282 C 0.82482 0.52535 0.96799 0.0
C283 C 0.81248 0.49285 0.92945 0.0
C284 C 0.83257 0.48818 0.87942 0.0
C285 C 0.86554 0.51588 0.8674 0.0
C286 C 0.87629 0.54917 0.90143 0.0
C287 C 0.85599 0.55388 0.9507 0.0
C288 C 0.75643 0.52004 0.96554 0.0
C289 C 0.7249 0.48986 0.94353 0.0
C290 C 0.70445 0.48961 0.88454 0.0
C291 C 0.71524 0.51958 0.84666 0.0
C292 C 0.74805 0.54886 0.86572 0.0
C293 C 0.76846 0.54908 0.92475 0.0
C294 C 0.71926 0.52111 0.43888 0.0
C295 C 0.96686 0.55463 0.11981 0.0
H296 H 0.2653 0.9123 0.49731 0.0
H297 H 0.04472 0.56292 0.05973 0.0
H298 H 0.29345 0.874 0.14324 0.0
H299 H 0.3408 0.91191 0.23274 0.0
H300 H 0.36646 0.83076 0.25183 0.0
H301 H 0.31842 0.79274 0.16378 0.0
H302 H 0.21948 0.83848 0.20949 0.0
H303 H 0.23285 0.87377 0.32429 0.0
H304 H 0.29241 0.82858 0.40423 0.0
H305 H 0.27832 0.79305 0.2898 0.0
H306 H 0.14385 0.7555 0.14102 0.0
H307 H 0.09579 0.71904 0.21349 0.0
H308 H 0.16611 0.70613 0.3564 0.0
H309 H 0.21317 0.74004 0.28169 0.0
H310 H 0.14845 0.72877 0.99288 0.0
H311 H 0.09317 0.67427 0.96989 0.0
H312 H 0.1261 0.62723 0.12945 0.0
H313 H 0.18145 0.6817 0.15104 0.0
H314 H 0.20157 0.74664 0.90077 0.0
H315 H 0.17267 0.69267 0.82267 0.0
H316 H 0.20747 0.64353 0.97222 0.0
H317 H 0.23872 0.69867 0.04825 0.0
H318 H 0.23933 0.80639 0.93746 0.0
H319 H 0.26808 0.8271 0.82849 0.0
H320 H 0.35681 0.82427 0.92108 0.0
H321 H 0.32532 0.79883 0.02622 0.0
O322 O 0.26002 0.89785 0.45268 0.0
O323 O 0.29075 0.87419 0.49074 0.0
O324 O 0.04925 0.61121 0.99158 0.0
O325 O 0.06619 0.5849 0.06834 0.0
C326 C 0.26689 0.80366 0.12035 0.0
C327 C 0.24106 0.79321 0.17029 0.0
C328 C 0.20838 0.76341 0.153 0.0
C329 C 0.20219 0.74259 0.08839 0.0
C330 C 0.22794 0.75278 0.03907 0.0
C331 C 0.2593 0.78475 0.05206 0.0
C332 C 0.30259 0.83068 0.14637 0.0
C333 C 0.31032 0.86505 0.1641 0.0
C334 C 0.33709 0.88645 0.21626 0.0
C335 C 0.35681 0.87395 0.25095 0.0
C336 C 0.35114 0.84078 0.22766 0.0
C337 C 0.32433 0.81939 0.17569 0.0
C338 C 0.2482 0.8135 0.24115 0.0
C339 C 0.23524 0.83614 0.25206 0.0
C340 C 0.24301 0.85631 0.31759 0.0
C341 C 0.26383 0.85412 0.37335 0.0
C342 C 0.27639 0.83099 0.3624 0.0
C343 C 0.26848 0.81075 0.29701 0.0
C344 C 0.18206 0.75063 0.20647 0.0
C345 C 0.14898 0.74556 0.18914 0.0
C346 C 0.12166 0.72478 0.23006 0.0
C347 C 0.12765 0.71016 0.29004 0.0
C348 C 0.16122 0.71763 0.31061 0.0
C349 C 0.18816 0.73734 0.26858 0.0
C350 C 0.16893 0.70911 0.07342 0.0
C351 C 0.14372 0.70657 0.02242 0.0
C352 C 0.11212 0.6755 0.00973 0.0
C353 C 0.10516 0.64643 0.04809 0.0
C354 C 0.13058 0.64911 0.09909 0.0
C355 C 0.16221 0.68016 0.11151 0.0
C356 C 0.22294 0.72695 0.97957 0.0
C357 C 0.20543 0.72534 0.91409 0.0
C358 C 0.18844 0.69424 0.87004 0.0
C359 C 0.18796 0.66422 0.89202 0.0
C360 C 0.20788 0.66656 0.95421 0.0
C361 C 0.2259 0.69806 0.99709 0.0
C362 C 0.27993 0.80069 0.98989 0.0
C363 C 0.26477 0.80959 0.93359 0.0
C364 C 0.28166 0.82207 0.87131 0.0
C365 C 0.31522 0.82782 0.86466 0.0
C366 C 0.33076 0.81957 0.92238 0.0
C367 C 0.31311 0.8057 0.98383 0.0
C368 C 0.27241 0.87591 0.44253 0.0
C369 C 0.07179 0.61323 0.03422 0.0
H370 H 0.4005 0.28274 0.75831 0.0
H371 H 0.44129 0.00864 0.23717 0.0
H372 H 0.5234 0.30013 0.10443 0.0
H373 H 0.5308 0.35322 0.05538 0.0
H374 H 0.42754 0.32535 0.10665 0.0
H375 H 0.42049 0.27221 0.15641 0.0
H376 H 0.47928 0.25642 0.97925 0.0
H377 H 0.45535 0.27211 0.87684 0.0
H378 H 0.3536 0.21374 0.95384 0.0
H379 H 0.37804 0.19873 0.05682 0.0
H380 H 0.45525 0.1823 0.96177 0.0
H381 H 0.43347 0.12905 0.88282 0.0
H382 H 0.36156 0.07052 0.0377 0.0
H383 H 0.38145 0.12474 0.11448 0.0
H384 H 0.49266 0.15798 0.08421 0.0
H385 H 0.49405 0.10386 0.09299 0.0
H386 H 0.41973 0.07327 0.25426 0.0
H387 H 0.41796 0.12706 0.24363 0.0
H388 H 0.5339 0.20632 0.22887 0.0
H389 H 0.54627 0.17166 0.31059 0.0
H390 H 0.45744 0.15265 0.4251 0.0
H391 H 0.44506 0.18637 0.3431 0.0
H392 H 0.5355 0.30335 0.24065 0.0
H393 H 0.53909 0.35128 0.31726 0.0
H394 H 0.4428 0.27904 0.40368 0.0
H395 H 0.4372 0.23301 0.3191 0.0
O396 O 0.40929 0.27566 0.79847 0.0
O397 O 0.35725 0.24396 0.8383 0.0
O398 O 0.47633 0.04519 0.14362 0.0
O399 O 0.44052 0.02978 0.23128 0.0
C400 C 0.46447 0.24681 0.14568 0.0
C401 C 0.44548 0.21972 0.09096 0.0
C402 C 0.44019 0.18616 0.09984 0.0
C403 C 0.45614 0.18036 0.16041 0.0
C404 C 0.47383 0.20705 0.21658 0.0
C405 C 0.47674 0.23989 0.21036 0.0
C406 C 0.47144 0.28244 0.13386 0.0
C407 C 0.50294 0.30626 0.10786 0.0
C408 C 0.50713 0.33659 0.07996 0.0
C409 C 0.47964 0.34325 0.07676 0.0
C410 C 0.44904 0.32069 0.10816 0.0
C411 C 0.445 0.29047 0.13673 0.0
C412 C 0.4304 0.22657 0.0255 0.0
C413 C 0.45182 0.24699 0.97377 0.0
C414 C 0.43808 0.2559 0.91534 0.0
C415 C 0.40258 0.2443 0.90729 0.0
C416 C 0.38106 0.22316 0.9585 0.0
C417 C 0.3949 0.2144 0.01715 0.0
C418 C 0.42013 0.15722 0.04397 0.0
C419 C 0.43333 0.15853 0.97672 0.0
C420 C 0.42099 0.12811 0.93196 0.0
C421 C 0.3961 0.09608 0.95505 0.0
C422 C 0.3806 0.09515 0.01916 0.0
C423 C 0.39204 0.12593 0.06277 0.0
C424 C 0.45551 0.1466 0.16385 0.0
C425 C 0.47654 0.13943 0.12103 0.0
C426 C 0.47736 0.10857 0.12633 0.0
C427 C 0.45718 0.08435 0.17477 0.0
C428 C 0.43572 0.09142 0.21673 0.0
C429 C 0.43474 0.12217 0.21097 0.0
C430 C 0.4889 0.19946 0.28068 0.0
C431 C 0.51822 0.19615 0.27399 0.0
C432 C 0.52488 0.17582 0.31981 0.0
C433 C 0.50261 0.15908 0.37369 0.0
C434 C 0.47539 0.16552 0.38474 0.0
C435 C 0.46852 0.1854 0.33845 0.0
C436 C 0.48604 0.26478 0.27409 0.0
C437 C 0.51555 0.29794 0.27714 0.0
C438 C 0.51752 0.32532 0.32133 0.0
C439 C 0.49059 0.31945 0.36533 0.0
C440 C 0.46324 0.28508 0.36825 0.0
C441 C 0.46058 0.25824 0.32175 0.0
C442 C 0.3882 0.2545 0.84603 0.0
C443 C 0.45863 0.05196 0.18197 0.0
C444 C 0.97983 0.39105 0.78097 0.0
C445 C 0.08531 0.45205 0.71023 0.0
C446 C 0.06898 0.56027 0.73421 0.0
Mg447 Mg 0.01199 0.4154 0.63493 0.0
O448 O 0.00719 0.45339 0.66932 0.0
Mg449 Mg 0.03048 0.47766 0.76617 0.0
Mg450 Mg 0.02058 0.4948 0.61344 0.0
O451 O 0.03382 0.53651 0.55939 0.0
Mg452 Mg 0.0279 0.57153 0.60622 0.0
Mg453 Mg 0.0035 0.51157 0.46949 0.0
C454 C 0.98079 0.43135 0.49119 0.0
C455 C 0.06648 0.49568 0.48 0.0
O456 O -0.00227 0.42288 0.80826 0.0
O457 O 0.98079 0.38206 0.71482 0.0
O458 O 0.07481 0.46867 0.74927 0.0
O459 O 0.06588 0.42951 0.65898 0.0
O460 O 0.99047 0.41231 0.52377 0.0
O461 O 0.98356 0.45938 0.52157 0.0
C462 C 0.97023 0.49608 0.73715 0.0
O463 O 0.97845 0.50095 0.67189 0.0
O464 O 0.986 0.48704 0.78182 0.0
O465 O 0.0275 0.5672 0.42656 0.0
O466 O 0.04603 0.60627 0.52352 0.0
O467 O 0.95862 0.51704 0.50822 0.0
C468 C 0.04221 0.59885 0.4552 0.0
O469 O 0.9744 0.55455 0.60563 0.0
O470 O 0.05993 0.5803 0.70472 0.0
C471 C 0.95149 0.5325 0.55854 0.0
O472 O 0.05839 0.52907 0.70778 0.0
O473 O 0.06148 0.48944 0.54687 0.0
O474 O 0.04857 0.50499 0.44149 0.0
C475 C 0.42858 0.0098 0.78876 0.0
C476 C 0.40962 0.91815 0.67837 0.0
C477 C 0.53894 0.95684 0.7215 0.0
Mg478 Mg 0.43998 0.99196 0.63248 0.0
O479 O 0.48369 0.00801 0.68057 0.0
Mg480 Mg 0.48448 0.98172 0.76416 0.0
Mg481 Mg 0.51431 -5e-05 0.61834 0.0
O482 O 0.54391 0.99093 0.55608 0.0
Mg483 Mg 0.58555 0.99477 0.59324 0.0
Mg484 Mg 0.54592 0.02031 0.47649 0.0
C485 C 0.49034 0.04334 0.52085 0.0
C486 C 0.46739 0.9571 0.46904 0.0
O487 O 0.45078 0.00221 0.81561 0.0
O488 O 0.42161 0.00819 0.72078 0.0
O489 O 0.43454 0.93236 0.72683 0.0
O490 O 0.40718 0.93532 0.62754 0.0
O491 O 0.46007 0.02642 0.54437 0.0
O492 O 0.5158 0.04003 0.54468 0.0
C493 C 0.56137 0.04916 0.76179 0.0
O494 O 0.56 0.04192 0.69371 0.0
O495 O 0.53578 0.03141 0.79923 0.0
O496 O 0.57102 0.99233 0.41613 0.0
O497 O 0.59148 0.97017 0.49823 0.0
O498 O 0.59871 0.06515 0.52103 0.0
C499 C 0.58419 0.97339 0.43279 0.0
O500 O 0.6254 0.0488 0.60043 0.0
O501 O 0.56702 0.96677 0.69008 0.0
C502 C 0.62441 0.07209 0.56475 0.0
O503 O 0.51534 0.96286 0.69728 0.0
O504 O 0.46779 0.95822 0.53844 0.0
O505 O 0.49388 0.97727 0.4368 0.0
C506 C 0.54905 0.58018 0.40465 0.0
C507 C 0.60339 0.52479 0.43839 0.0
C508 C 0.48776 0.42708 0.54321 0.0
Mg509 Mg 0.58759 0.57166 0.53849 0.0
O510 O 0.54268 0.53489 0.54408 0.0
Mg511 Mg 0.51974 0.49938 0.46028 0.0
Mg512 Mg 0.5297 0.50531 0.62669 0.0
O513 O 0.51555 0.47504 0.70832 0.0
Mg514 Mg 0.46906 0.43929 0.7012 0.0
Mg515 Mg 0.53025 0.51305 0.78757 0.0
C516 C 0.57371 0.58374 0.70249 0.0
C517 C 0.59754 0.51668 0.71812 0.0
O518 O 0.52916 0.54679 0.39398 0.0
O519 O 0.57252 0.59451 0.45688 0.0
O520 O 0.57072 0.50534 0.42711 0.0
O521 O 0.61689 0.55126 0.48496 0.0
O522 O 0.59322 0.59451 0.64958 0.0
O523 O 0.54747 0.55277 0.70054 0.0
C524 C 0.45883 0.49569 0.55202 0.0
O525 O 0.47641 0.49964 0.61073 0.0
O526 O 0.46985 0.49455 0.49069 0.0
O527 O 0.51256 0.46806 0.86527 0.0
O528 O 0.47261 0.41868 0.8005 0.0
O529 O 0.47556 0.50759 0.79225 0.0
C530 C 0.49095 0.43495 0.85924 0.0
O531 O 0.43653 0.46084 0.72188 0.0
O532 O 0.46818 0.41453 0.59524 0.0
C533 C 0.44452 0.48746 0.76508 0.0
O534 O 0.51195 0.45896 0.54568 0.0
O535 O 0.58354 0.51191 0.65362 0.0
O536 O 0.58247 0.51771 0.77457 0.0
C537 C 0.14005 0.51446 0.3667 0.0
C538 C 0.12862 0.48137 0.33036 0.0
H539 H 0.12939 0.54487 0.44364 0.0
C540 C 0.09933 0.45243 0.3543 0.0
H541 H 0.16318 0.53739 0.35308 0.0
C542 C 0.08142 0.45675 0.41007 0.0
C543 C 0.09161 0.49004 0.44197 0.0
H544 H 0.08914 0.42647 0.32847 0.0
H545 H 0.05833 0.43426 0.42525 0.0
C546 C 0.12136 0.51879 0.42061 0.0
C547 C 0.70977 0.13087 0.50046 0.0
C548 C 0.70544 0.15902 0.48268 0.0
H549 H 0.68749 0.08136 0.54488 0.0
C550 C 0.67901 0.16246 0.51335 0.0
H551 H 0.72965 0.12701 0.47844 0.0
C552 C 0.65414 0.13546 0.54976 0.0
C553 C 0.65614 0.10534 0.5586 0.0
H554 H 0.67571 0.18452 0.50393 0.0
H555 H 0.63172 0.13671 0.56506 0.0
C556 C 0.68553 0.10449 0.53904 0.0
C557 C 0.50619 0.61455 0.27861 0.0
C558 C 0.52912 0.65081 0.28958 0.0
H559 H 0.49452 0.5636 0.3061 0.0
C560 C 0.55917 0.66314 0.3356 0.0
H561 H 0.48309 0.60416 0.24239 0.0
C562 C 0.56612 0.63999 0.37017 0.0
C563 C 0.54304 0.60377 0.36042 0.0
H564 H 0.57723 0.69086 0.34581 0.0
H565 H 0.58943 0.65072 0.40585 0.0
C566 C 0.51304 0.59126 0.31393 0.0
C567 C 0.86405 0.50009 0.47752 0.0
C568 C 0.8697 0.53159 0.45113 0.0
H569 H 0.88714 0.47544 0.53527 0.0
C570 C 0.89619 0.56326 0.48601 0.0
H571 H 0.84261 0.47522 0.45548 0.0
C572 C 0.92022 0.5632 0.53569 0.0
C573 C 0.9187 0.53167 0.54846 0.0
H574 H 0.90133 0.58822 0.46888 0.0
H575 H 0.94293 0.58792 0.55416 0.0
C576 C 0.88899 0.50008 0.52468 0.0
C577 C 0.40428 0.93119 0.30754 0.0
C578 C 0.38284 0.89526 0.3117 0.0
H579 H 0.44699 0.97866 0.35541 0.0
C580 C 0.38688 0.88005 0.37359 0.0
H581 H 0.402 0.94377 0.26093 0.0
C582 C 0.41299 0.90026 0.42849 0.0
C583 C 0.43546 0.93582 0.4217 0.0
H584 H 0.37017 0.85246 0.37903 0.0
H585 H 0.41661 0.88787 0.47407 0.0
C586 C 0.43015 0.95115 0.36174 0.0
C587 C 0.45809 0.34675 0.41813 0.0
C588 C 0.48985 0.34891 0.40515 0.0
H589 H 0.43246 0.3699 0.47304 0.0
C590 C 0.52064 0.37931 0.43096 0.0
H591 H 0.43377 0.32455 0.39662 0.0
C592 C 0.51966 0.40609 0.47103 0.0
C593 C 0.48794 0.40255 0.48806 0.0
H594 H 0.54559 0.38204 0.42296 0.0
H595 H 0.54382 0.42857 0.49272 0.0
C596 C 0.45717 0.37298 0.46058 0.0
C597 C 0.49913 0.90726 0.88447 0.0
C598 C 0.52366 0.89821 0.90751 0.0
H599 H 0.48409 0.93185 0.80701 0.0
C600 C 0.5542 0.9108 0.87179 0.0
H601 H 0.47544 0.89835 0.91095 0.0
C602 C 0.55953 0.93079 0.81322 0.0
C603 C 0.53428 0.93837 0.78791 0.0
H604 H 0.5734 0.90374 0.8863 0.0
H605 H 0.58299 0.93911 0.78613 0.0
C606 C 0.50423 0.92681 0.82493 0.0
C607 C 0.66641 0.49359 0.74911 0.0
C608 C 0.69007 0.52217 0.79674 0.0
H609 H 0.61823 0.46989 0.68405 0.0
C610 C 0.68601 0.55152 0.80533 0.0
H611 H 0.66905 0.47073 0.74112 0.0
C612 C 0.65712 0.55091 0.77301 0.0
C613 C 0.63207 0.52125 0.73058 0.0
H614 H 0.70345 0.57378 0.84218 0.0
H615 H 0.65304 0.57262 0.78555 0.0
C616 C 0.63759 0.49321 0.7159 0.0
C617 C 0.13158 0.60988 0.89347 0.0
C618 C 0.1614 0.63015 0.85758 0.0
H619 H 0.07759 0.57117 0.88145 0.0
C620 C 0.16189 0.62193 0.78429 0.0
H621 H 0.13088 0.61611 0.95006 0.0
C622 C 0.132 0.59568 0.74595 0.0
C623 C 0.10117 0.57805 0.78013 0.0
H624 H 0.18454 0.63755 0.75571 0.0
H625 H 0.13212 0.59139 0.68814 0.0
C626 C 0.10128 0.58423 0.85459 0.0
C627 C 0.38109 0.05527 0.84734 0.0
C628 C 0.39304 0.06442 0.92 0.0
H629 H 0.38233 0.02979 0.74876 0.0
C630 C 0.4112 0.04996 0.95285 0.0
H631 H 0.36731 0.06653 0.82134 0.0
C632 C 0.42087 0.02975 0.91116 0.0
C633 C 0.41214 0.02369 0.83648 0.0
H634 H 0.42092 0.05723 0.00902 0.0
H635 H 0.43723 0.02117 0.93642 0.0
C636 C 0.39022 0.03466 0.80593 0.0
C637 C 0.35987 0.46207 0.84425 0.0
C638 C 0.36531 0.49402 0.8767 0.0
H639 H 0.37979 0.43535 0.78204 0.0
C640 C 0.39608 0.52473 0.86342 0.0
H641 H 0.33744 0.43748 0.85317 0.0
C642 C 0.42147 0.5231 0.82462 0.0
C643 C 0.41617 0.49093 0.79512 0.0
H644 H 0.40137 0.55021 0.88434 0.0
H645 H 0.44555 0.54692 0.81905 0.0
C646 C 0.38457 0.46069 0.80321 0.0
C647 C 0.90377 0.30694 0.83287 0.0
C648 C 0.89483 0.31896 0.8949 0.0
H649 H 0.93799 0.32031 0.74796 0.0
C650 C 0.91619 0.35366 0.92326 0.0
H651 H 0.88783 0.28017 0.81043 0.0
C652 C 0.94509 0.37641 0.88863 0.0
C653 C 0.95315 0.36511 0.82419 0.0
H654 H 0.91029 0.36335 0.97204 0.0
H655 H 0.96025 0.40327 0.91098 0.0
C656 C 0.93255 0.32989 0.79745 0.0
C657 C 0.91462 0.53517 0.78589 0.0
C658 C 0.89003 0.50942 0.82632 0.0
H659 H 0.96021 0.55198 0.72956 0.0
C660 C 0.89117 0.47853 0.83299 0.0
H661 H 0.91473 0.55933 0.77955 0.0
C662 C 0.91654 0.4739 0.80164 0.0
C663 C 0.94141 0.49993 0.76266 0.0
H664 H 0.87341 0.45843 0.86514 0.0
H665 H 0.91724 0.45022 0.80938 0.0
C666 C 0.94024 0.53062 0.75522 0.0
C667 C 0.3618 0.83962 0.77908 0.0
C668 C 0.33455 0.84438 0.80035 0.0
H669 H 0.40713 0.8591 0.72038 0.0
C670 C 0.32782 0.86756 0.76301 0.0
H671 H 0.36725 0.82117 0.80378 0.0
C672 C 0.34958 0.8877 0.71167 0.0
C673 C 0.37925 0.88609 0.69802 0.0
H674 H 0.30754 0.87263 0.77721 0.0
H675 H 0.34558 0.90769 0.68981 0.0
C676 C 0.38417 0.8606 0.72933 0.0
C677 C 0.5105 0.40276 0.02989 0.0
C678 C 0.4808 0.36962 0.02961 0.0
H679 H 0.53696 0.44994 0.97636 0.0
C680 C 0.45354 0.35972 0.97691 0.0
H681 H 0.53188 0.41096 0.06999 0.0
C682 C 0.45656 0.38166 0.92337 0.0
C683 C 0.48683 0.41412 0.9214 0.0
H684 H 0.43059 0.33413 0.97449 0.0
H685 H 0.43547 0.37264 0.88214 0.0
C686 C 0.51338 0.42501 0.97647 0.0
C687 C 0.14833 0.43211 0.80074 0.0
C688 C 0.17096 0.465 0.83764 0.0
H689 H 0.1031 0.40206 0.72788 0.0
C690 C 0.17016 0.49433 0.81485 0.0
H691 H 0.14894 0.40908 0.81504 0.0
C692 C 0.14473 0.49033 0.76338 0.0
C693 C 0.11924 0.45695 0.73422 0.0
H694 H 0.18692 0.52011 0.84139 0.0
H695 H 0.14272 0.51303 0.75237 0.0
C696 C 0.12252 0.4281 0.74946 0.0
C697 C 0.65656 0.11036 0.8143 0.0
C698 C 0.65556 0.12924 0.87598 0.0
H699 H 0.62737 0.07031 0.72967 0.0
C700 C 0.62342 0.12253 0.89832 0.0
H701 H 0.68103 0.11492 0.79633 0.0
C702 C 0.59279 0.09682 0.86062 0.0
C703 C 0.59373 0.07779 0.79905 0.0
H704 H 0.62198 0.13642 0.94639 0.0
H705 H 0.56835 0.09167 0.87991 0.0
C706 C 0.6259 0.08508 0.77583 0.0
C707 C 0.54023 0.62181 0.83653 0.0
C708 C 0.55349 0.65535 0.81276 0.0
H709 H 0.53812 0.57286 0.82311 0.0
C710 C 0.58051 0.6677 0.76701 0.0
H711 H 0.52036 0.61221 0.87431 0.0
C712 C 0.59113 0.64531 0.7384 0.0
C713 C 0.57446 0.61019 0.7546 0.0
H714 H 0.59167 0.69378 0.74921 0.0
H715 H 0.60978 0.65461 0.69806 0.0
C716 C 0.55084 0.59946 0.8081 0.0
C717 C 0.50946 0.10619 0.3764 0.0
C718 C 0.50492 0.13202 0.4132 0.0
H719 H 0.50845 0.05731 0.38204 0.0
C720 C 0.49854 0.12945 0.48643 0.0
H721 H 0.5139 0.1072 0.3196 0.0
C722 C 0.49478 0.10081 0.52103 0.0
C723 C 0.49781 0.07439 0.4836 0.0
H724 H 0.49537 0.14907 0.51644 0.0
H725 H 0.48875 0.0989 0.577 0.0
C726 C 0.50609 0.07756 0.41163 0.0
C727 C 0.36512 0.46283 0.52248 0.0
C728 C 0.36645 0.49179 0.49168 0.0
H729 H 0.3947 0.44152 0.56783 0.0
C730 C 0.39729 0.52419 0.50146 0.0
H731 H 0.34152 0.43774 0.51751 0.0
C732 C 0.42723 0.52636 0.53171 0.0
C733 C 0.42674 0.4963 0.5526 0.0
H734 H 0.39953 0.54707 0.47838 0.0
H735 H 0.45149 0.55065 0.53118 0.0
C736 C 0.39533 0.465 0.55215 0.0
C737 C 0.91675 0.40341 0.33043 0.0
C738 C 0.92807 0.38569 0.28389 0.0
H739 H 0.92529 0.43261 0.4319 0.0
C740 C 0.9603 0.38869 0.30189 0.0
H741 H 0.89202 0.40168 0.32013 0.0
C742 C 0.97818 0.40468 0.36852 0.0
C743 C 0.9654 0.41995 0.41665 0.0
H744 H 0.97088 0.37689 0.26669 0.0
H745 H 0.00131 0.40392 0.38341 0.0
C746 C 0.93562 0.42093 0.39548 0.0
C747 C 0.5851 0.89478 0.35152 0.0
C748 C 0.56181 0.88576 0.29084 0.0
H749 H 0.61163 0.93073 0.44368 0.0
C750 C 0.55198 0.90962 0.26941 0.0
H751 H 0.59342 0.87697 0.36845 0.0
C752 C 0.5627 0.94061 0.31174 0.0
C753 C 0.58306 0.94799 0.37679 0.0
H754 H 0.53485 0.90364 0.2214 0.0
H755 H 0.55273 0.95729 0.29625 0.0
C756 C 0.59564 0.92566 0.39426 0.0
C757 C 0.62651 0.48841 0.2757 0.0
C758 C 0.65789 0.51729 0.26 0.0
H759 H 0.58541 0.46762 0.34573 0.0
C760 C 0.67294 0.5473 0.309 0.0
H761 H 0.61389 0.46487 0.23954 0.0
C762 C 0.65669 0.54877 0.37057 0.0
C763 C 0.62471 0.5204 0.38452 0.0
H764 H 0.69739 0.56991 0.30004 0.0
H765 H 0.66846 0.57279 0.40529 0.0
C766 C 0.6102 0.48994 0.33707 0.0
C767 C 0.09748 0.69017 0.40091 0.0
C768 C 0.09909 0.68387 0.32727 0.0
H769 H 0.07749 0.66825 0.49893 0.0
C770 C 0.07805 0.65021 0.29324 0.0
H771 H 0.11377 0.71601 0.42787 0.0
C772 C 0.05765 0.62248 0.33398 0.0
C773 C 0.05808 0.62827 0.40908 0.0
H774 H 0.0794 0.64495 0.23633 0.0
H775 H 0.04319 0.59637 0.30736 0.0
C776 C 0.07689 0.66268 0.4414 0.0
loop_
_geom_bond_atom_site_label_1
_geom_bond_atom_site_label_2
_geom_bond_distance
_geom_bond_site_symmetry_2
_ccdc_geom_bond_type
H0 O26 0.856 . S
H1 O29 0.854 . S
H2 C37 0.930 . S
H3 C38 0.930 . S
H4 C40 0.930 . S
H5 C41 0.930 . S
H6 C43 0.931 . S
H7 C44 0.930 . S
H8 C46 0.930 . S
H9 C47 0.929 . S
H10 C49 0.930 . S
H11 C50 0.931 . S
H12 C52 0.930 . S
H13 C53 0.929 . S
H14 C55 0.931 . S
H15 C56 0.930 . S
H16 C58 0.930 . S
H17 C59 0.932 . S
H18 C61 0.930 . S
H19 C62 0.929 . S
H20 C64 0.931 . S
H21 C65 0.930 . S
H22 C67 0.929 . S
H23 C68 0.931 . S
H24 C70 0.930 . S
H25 C71 0.929 . S
O26 H0 0.856 . S
O26 C72 1.300 . S
O27 C72 1.209 . S
O28 C73 1.199 . S
O29 H1 0.854 . S
O29 C73 1.297 . S
C30 C31 1.404 . S
C30 C35 1.397 . S
C30 C36 1.492 . S
C31 C30 1.404 . S
C31 C32 1.396 . S
C31 C42 1.492 . S
C32 C31 1.396 . S
C32 C33 1.397 . S
C32 C48 1.509 . S
C33 C32 1.397 . S
C33 C34 1.412 . S
C33 C54 1.485 . S
C34 C33 1.412 . S
C34 C35 1.388 . S
C34 C60 1.490 . S
C35 C30 1.397 . S
C35 C34 1.388 . S
C35 C66 1.519 . S
C36 C30 1.492 . S
C36 C37 1.363 . S
C36 C41 1.390 . S
C37 H2 0.930 . S
C37 C36 1.363 . S
C37 C38 1.372 . S
C38 H3 0.930 . S
C38 C37 1.372 . S
C38 C39 1.383 . S
C39 C38 1.383 . S
C39 C40 1.395 . S
C40 H4 0.930 . S
C40 C39 1.395 . S
C40 C41 1.362 . S
C41 H5 0.930 . S
C41 C36 1.390 . S
C41 C40 1.362 . S
C42 C31 1.492 . S
C42 C43 1.377 . S
C42 C47 1.397 . S
C43 H6 0.931 . S
C43 C42 1.377 . S
C43 C44 1.376 . S
C44 H7 0.930 . S
C44 C43 1.376 . S
C44 C45 1.376 . S
C45 C44 1.376 . S
C45 C46 1.378 . S
C45 C72 1.486 . S
C46 H8 0.930 . S
C46 C45 1.378 . S
C46 C47 1.376 . S
C47 H9 0.929 . S
C47 C42 1.397 . S
C47 C46 1.376 . S
C48 C32 1.509 . S
C48 C49 1.391 . S
C48 C53 1.386 . S
C49 H10 0.930 . S
C49 C48 1.391 . S
C49 C50 1.375 . S
C50 H11 0.931 . S
C50 C49 1.375 . S
C50 C51 1.375 . S
C51 C50 1.375 . S
C51 C52 1.361 . S
C52 H12 0.930 . S
C52 C51 1.361 . S
C52 C53 1.399 . S
C53 H13 0.929 . S
C53 C48 1.386 . S
C53 C52 1.399 . S
C54 C33 1.485 . S
C54 C55 1.394 . S
C54 C59 1.360 . S
C55 H14 0.931 . S
C55 C54 1.394 . S
C55 C56 1.372 . S
C56 H15 0.930 . S
C56 C55 1.372 . S
C56 C57 1.397 . S
C57 C56 1.397 . S
C57 C58 1.390 . S
C57 C73 1.476 . S
C58 H16 0.930 . S
C58 C57 1.390 . S
C58 C59 1.366 . S
C59 H17 0.932 . S
C59 C54 1.360 . S
C59 C58 1.366 . S
C60 C34 1.490 . S
C60 C61 1.380 . S
C60 C65 1.386 . S
C61 H18 0.930 . S
C61 C60 1.380 . S
C61 C62 1.381 1_554 S
C62 H19 0.929 . S
C62 C61 1.381 1_556 S
C62 C63 1.371 . S
C63 C62 1.371 . S
C63 C64 1.380 . S
C64 H20 0.931 . S
C64 C63 1.380 . S
C64 C65 1.387 1_556 S
C65 H21 0.930 . S
C65 C60 1.386 . S
C65 C64 1.387 1_554 S
C66 C35 1.519 . S
C66 C67 1.377 . S
C66 C71 1.361 . S
C67 H22 0.929 . S
C67 C66 1.377 . S
C67 C68 1.386 . S
C68 H23 0.931 . S
C68 C67 1.386 . S
C68 C69 1.363 . S
C69 C68 1.363 . S
C69 C70 1.385 . S
C70 H24 0.930 . S
C70 C69 1.385 . S
C70 C71 1.396 . S
C71 H25 0.929 . S
C71 C66 1.361 . S
C71 C70 1.396 . S
C72 O26 1.300 . S
C72 O27 1.209 . S
C72 C45 1.486 . S
C73 O28 1.199 . S
C73 O29 1.297 . S
C73 C57 1.476 . S
H74 O100 0.856 . S
H75 O103 0.854 1_565 S
H76 C111 0.930 . S
H77 C112 0.930 . S
H78 C114 0.930 . S
H79 C115 0.930 . S
H80 C117 0.931 . S
H81 C118 0.930 . S
H82 C120 0.930 . S
H83 C121 0.929 . S
H84 C123 0.930 . S
H85 C124 0.931 . S
H86 C126 0.930 . S
H87 C127 0.929 . S
H88 C129 0.931 . S
H89 C130 0.930 . S
H90 C132 0.930 . S
H91 C133 0.932 . S
H92 C135 0.930 1_554 S
H93 C136 0.929 . S
H94 C138 0.931 . S
H95 C139 0.930 1_554 S
H96 C141 0.929 . S
H97 C142 0.931 . S
H98 C144 0.930 . S
H99 C145 0.929 . S
O100 H74 0.856 . S
O100 C146 1.300 . S
O101 C146 1.209 . S
O102 C147 1.199 . S
O103 H75 0.854 1_545 S
O103 C147 1.297 . S
C104 C105 1.404 . S
C104 C109 1.397 . S
C104 C110 1.492 . S
C105 C104 1.404 . S
C105 C106 1.396 . S
C105 C116 1.492 . S
C106 C105 1.396 . S
C106 C107 1.397 . S
C106 C122 1.509 . S
C107 C106 1.397 . S
C107 C108 1.412 . S
C107 C128 1.485 . S
C108 C107 1.412 . S
C108 C109 1.388 . S
C108 C134 1.490 . S
C109 C104 1.397 . S
C109 C108 1.388 . S
C109 C140 1.519 . S
C110 C104 1.492 . S
C110 C111 1.363 . S
C110 C115 1.390 . S
C111 H76 0.930 . S
C111 C110 1.363 . S
C111 C112 1.372 . S
C112 H77 0.930 . S
C112 C111 1.372 . S
C112 C113 1.383 . S
C113 C112 1.383 . S
C113 C114 1.395 . S
C114 H78 0.930 . S
C114 C113 1.395 . S
C114 C115 1.362 . S
C115 H79 0.930 . S
C115 C110 1.390 . S
C115 C114 1.362 . S
C116 C105 1.492 . S
C116 C117 1.377 . S
C116 C121 1.397 . S
C117 H80 0.931 . S
C117 C116 1.377 . S
C117 C118 1.376 . S
C118 H81 0.930 . S
C118 C117 1.376 . S
C118 C119 1.376 . S
C119 C118 1.376 . S
C119 C120 1.378 . S
C119 C146 1.486 . S
C120 H82 0.930 . S
C120 C119 1.378 . S
C120 C121 1.376 . S
C121 H83 0.929 . S
C121 C116 1.397 . S
C121 C120 1.376 . S
C122 C106 1.509 . S
C122 C123 1.391 . S
C122 C127 1.386 . S
C123 H84 0.930 . S
C123 C122 1.391 . S
C123 C124 1.375 . S
C124 H85 0.931 . S
C124 C123 1.375 . S
C124 C125 1.375 . S
C125 C124 1.375 . S
C125 C126 1.361 . S
C126 H86 0.930 . S
C126 C125 1.361 . S
C126 C127 1.399 . S
C127 H87 0.929 . S
C127 C122 1.386 . S
C127 C126 1.399 . S
C128 C107 1.485 . S
C128 C129 1.394 . S
C128 C133 1.360 . S
C129 H88 0.931 . S
C129 C128 1.394 . S
C129 C130 1.372 . S
C130 H89 0.930 . S
C130 C129 1.372 . S
C130 C131 1.397 . S
C131 C130 1.397 . S
C131 C132 1.390 . S
C131 C147 1.476 . S
C132 H90 0.930 . S
C132 C131 1.390 . S
C132 C133 1.366 . S
C133 H91 0.932 . S
C133 C128 1.360 . S
C133 C132 1.366 . S
C134 C108 1.490 . S
C134 C135 1.380 1_554 S
C134 C139 1.386 1_554 S
C135 H92 0.930 1_556 S
C135 C134 1.380 1_556 S
C135 C136 1.381 . S
C136 H93 0.929 . S
C136 C135 1.381 . S
C136 C137 1.371 . S
C137 C136 1.371 . S
C137 C138 1.380 . S
C138 H94 0.931 . S
C138 C137 1.380 . S
C138 C139 1.387 . S
C139 H95 0.930 1_556 S
C139 C134 1.386 1_556 S
C139 C138 1.387 . S
C140 C109 1.519 . S
C140 C141 1.377 . S
C140 C145 1.361 . S
C141 H96 0.929 . S
C141 C140 1.377 . S
C141 C142 1.386 . S
C142 H97 0.931 . S
C142 C141 1.386 . S
C142 C143 1.363 1_554 S
C143 C142 1.363 1_556 S
C143 C144 1.385 . S
C144 H98 0.930 . S
C144 C143 1.385 . S
C144 C145 1.396 1_556 S
C145 H99 0.929 . S
C145 C140 1.361 . S
C145 C144 1.396 1_554 S
C146 O100 1.300 . S
C146 O101 1.209 . S
C146 C119 1.486 . S
C147 O102 1.199 . S
C147 O103 1.297 . S
C147 C131 1.476 . S
H148 O174 0.856 . S
H149 O177 0.854 . S
H150 C185 0.930 . S
H151 C186 0.930 . S
H152 C188 0.930 . S
H153 C189 0.930 . S
H154 C191 0.931 . S
H155 C192 0.930 . S
H156 C194 0.930 . S
H157 C195 0.929 . S
H158 C197 0.930 . S
H159 C198 0.931 . S
H160 C200 0.930 . S
H161 C201 0.929 . S
H162 C203 0.931 . S
H163 C204 0.930 . S
H164 C206 0.930 1_556 S
H165 C207 0.932 . S
H166 C209 0.930 . S
H167 C210 0.929 . S
H168 C212 0.931 . S
H169 C213 0.930 . S
H170 C215 0.929 . S
H171 C216 0.931 . S
H172 C218 0.930 . S
H173 C219 0.929 . S
O174 H148 0.856 . S
O174 C220 1.300 . S
O175 C220 1.209 . S
O176 C221 1.199 . S
O177 H149 0.854 . S
O177 C221 1.297 . S
C178 C179 1.404 . S
C178 C183 1.397 1_556 S
C178 C184 1.492 . S
C179 C178 1.404 . S
C179 C180 1.396 . S
C179 C190 1.492 . S
C180 C179 1.396 . S
C180 C181 1.397 . S
C180 C196 1.509 . S
C181 C180 1.397 . S
C181 C182 1.412 1_556 S
C181 C202 1.485 1_556 S
C182 C181 1.412 1_554 S
C182 C183 1.388 . S
C182 C208 1.490 . S
C183 C178 1.397 1_554 S
C183 C182 1.388 . S
C183 C214 1.519 . S
C184 C178 1.492 . S
C184 C185 1.363 . S
C184 C189 1.390 . S
C185 H150 0.930 . S
C185 C184 1.363 . S
C185 C186 1.372 . S
C186 H151 0.930 . S
C186 C185 1.372 . S
C186 C187 1.383 . S
C187 C186 1.383 . S
C187 C188 1.395 . S
C188 H152 0.930 . S
C188 C187 1.395 . S
C188 C189 1.362 . S
C189 H153 0.930 . S
C189 C184 1.390 . S
C189 C188 1.362 . S
C190 C179 1.492 . S
C190 C191 1.377 . S
C190 C195 1.397 . S
C191 H154 0.931 . S
C191 C190 1.377 . S
C191 C192 1.376 . S
C192 H155 0.930 . S
C192 C191 1.376 . S
C192 C193 1.376 . S
C193 C192 1.376 . S
C193 C194 1.378 . S
C193 C220 1.486 . S
C194 H156 0.930 . S
C194 C193 1.378 . S
C194 C195 1.376 . S
C195 H157 0.929 . S
C195 C190 1.397 . S
C195 C194 1.376 . S
C196 C180 1.509 . S
C196 C197 1.391 . S
C196 C201 1.386 . S
C197 H158 0.930 . S
C197 C196 1.391 . S
C197 C198 1.375 . S
C198 H159 0.931 . S
C198 C197 1.375 . S
C198 C199 1.375 . S
C199 C198 1.375 . S
C199 C200 1.361 . S
C200 H160 0.930 . S
C200 C199 1.361 . S
C200 C201 1.399 . S
C201 H161 0.929 . S
C201 C196 1.386 . S
C201 C200 1.399 . S
C202 C181 1.485 1_554 S
C202 C203 1.394 . S
C202 C207 1.360 1_554 S
C203 H162 0.931 . S
C203 C202 1.394 . S
C203 C204 1.372 . S
C204 H163 0.930 . S
C204 C203 1.372 . S
C204 C205 1.397 . S
C205 C204 1.397 . S
C205 C206 1.390 . S
C205 C221 1.476 . S
C206 H164 0.930 1_554 S
C206 C205 1.390 . S
C206 C207 1.366 1_554 S
C207 H165 0.932 . S
C207 C202 1.360 1_556 S
C207 C206 1.366 1_556 S
C208 C182 1.490 . S
C208 C209 1.380 . S
C208 C213 1.386 . S
C209 H166 0.930 . S
C209 C208 1.380 . S
C209 C210 1.381 . S
C210 H167 0.929 . S
C210 C209 1.381 . S
C210 C211 1.371 . S
C211 C210 1.371 . S
C211 C212 1.380 . S
C212 H168 0.931 . S
C212 C211 1.380 . S
C212 C213 1.387 . S
C213 H169 0.930 . S
C213 C208 1.386 . S
C213 C212 1.387 . S
C214 C183 1.519 . S
C214 C215 1.377 . S
C214 C219 1.361 . S
C215 H170 0.929 . S
C215 C214 1.377 . S
C215 C216 1.386 . S
C216 H171 0.931 . S
C216 C215 1.386 . S
C216 C217 1.363 . S
C217 C216 1.363 . S
C217 C218 1.385 . S
C218 H172 0.930 . S
C218 C217 1.385 . S
C218 C219 1.396 . S
C219 H173 0.929 . S
C219 C214 1.361 . S
C219 C218 1.396 . S
C220 O174 1.300 . S
C220 O175 1.209 . S
C220 C193 1.486 . S
C221 O176 1.199 . S
C221 O177 1.297 . S
C221 C205 1.476 . S
H222 O248 0.856 . S
H223 O251 0.854 1_455 S
H224 C259 0.930 . S
H225 C260 0.930 . S
H226 C262 0.930 . S
H227 C263 0.930 . S
H228 C265 0.931 . S
H229 C266 0.930 . S
H230 C268 0.930 . S
H231 C269 0.929 . S
H232 C271 0.930 . S
H233 C272 0.931 . S
H234 C274 0.930 . S
H235 C275 0.929 . S
H236 C277 0.931 . S
H237 C278 0.930 1_556 S
H238 C280 0.930 . S
H239 C281 0.932 . S
H240 C283 0.930 . S
H241 C284 0.929 . S
H242 C286 0.931 . S
H243 C287 0.930 . S
H244 C289 0.929 . S
H245 C290 0.931 . S
H246 C292 0.930 . S
H247 C293 0.929 . S
O248 H222 0.856 . S
O248 C294 1.300 . S
O249 C294 1.209 . S
O250 C295 1.199 1_556 S
O251 H223 0.854 1_655 S
O251 C295 1.297 . S
C252 C253 1.404 . S
C252 C257 1.397 . S
C252 C258 1.492 . S
C253 C252 1.404 . S
C253 C254 1.396 . S
C253 C264 1.492 . S
C254 C253 1.396 . S
C254 C255 1.397 . S
C254 C270 1.509 . S
C255 C254 1.397 . S
C255 C256 1.412 . S
C255 C276 1.485 . S
C256 C255 1.412 . S
C256 C257 1.388 . S
C256 C282 1.490 1_554 S
C257 C252 1.397 . S
C257 C256 1.388 . S
C257 C288 1.519 1_554 S
C258 C252 1.492 . S
C258 C259 1.363 . S
C258 C263 1.390 . S
C259 H224 0.930 . S
C259 C258 1.363 . S
C259 C260 1.372 . S
C260 H225 0.930 . S
C260 C259 1.372 . S
C260 C261 1.383 . S
C261 C260 1.383 . S
C261 C262 1.395 . S
C262 H226 0.930 . S
C262 C261 1.395 . S
C262 C263 1.362 . S
C263 H227 0.930 . S
C263 C258 1.390 . S
C263 C262 1.362 . S
C264 C253 1.492 . S
C264 C265 1.377 . S
C264 C269 1.397 . S
C265 H228 0.931 . S
C265 C264 1.377 . S
C265 C266 1.376 . S
C266 H229 0.930 . S
C266 C265 1.376 . S
C266 C267 1.376 . S
C267 C266 1.376 . S
C267 C268 1.378 . S
C267 C294 1.486 . S
C268 H230 0.930 . S
C268 C267 1.378 . S
C268 C269 1.376 . S
C269 H231 0.929 . S
C269 C264 1.397 . S
C269 C268 1.376 . S
C270 C254 1.509 . S
C270 C271 1.391 . S
C270 C275 1.386 . S
C271 H232 0.930 . S
C271 C270 1.391 . S
C271 C272 1.375 . S
C272 H233 0.931 . S
C272 C271 1.375 . S
C272 C273 1.375 . S
C273 C272 1.375 . S
C273 C274 1.361 . S
C274 H234 0.930 . S
C274 C273 1.361 . S
C274 C275 1.399 . S
C275 H235 0.929 . S
C275 C270 1.386 . S
C275 C274 1.399 . S
C276 C255 1.485 . S
C276 C277 1.394 . S
C276 C281 1.360 . S
C277 H236 0.931 . S
C277 C276 1.394 . S
C277 C278 1.372 . S
C278 H237 0.930 1_554 S
C278 C277 1.372 . S
C278 C279 1.397 . S
C279 C278 1.397 . S
C279 C280 1.390 . S
C279 C295 1.476 . S
C280 H238 0.930 . S
C280 C279 1.390 . S
C280 C281 1.366 . S
C281 H239 0.932 . S
C281 C276 1.360 . S
C281 C280 1.366 . S
C282 C256 1.490 1_556 S
C282 C283 1.380 . S
C282 C287 1.386 . S
C283 H240 0.930 . S
C283 C282 1.380 . S
C283 C284 1.381 . S
C284 H241 0.929 . S
C284 C283 1.381 . S
C284 C285 1.371 . S
C285 C284 1.371 . S
C285 C286 1.380 . S
C286 H242 0.931 . S
C286 C285 1.380 . S
C286 C287 1.387 . S
C287 H243 0.930 . S
C287 C282 1.386 . S
C287 C286 1.387 . S
C288 C257 1.519 1_556 S
C288 C289 1.377 . S
C288 C293 1.361 . S
C289 H244 0.929 . S
C289 C288 1.377 . S
C289 C290 1.386 . S
C290 H245 0.931 . S
C290 C289 1.386 . S
C290 C291 1.363 . S
C291 C290 1.363 . S
C291 C292 1.385 . S
C292 H246 0.930 . S
C292 C291 1.385 . S
C292 C293 1.396 . S
C293 H247 0.929 . S
C293 C288 1.361 . S
C293 C292 1.396 . S
C294 O248 1.300 . S
C294 O249 1.209 . S
C294 C267 1.486 . S
C295 O250 1.199 1_554 S
C295 O251 1.297 . S
C295 C279 1.476 . S
H296 O322 0.856 . S
H297 O325 0.854 . S
H298 C333 0.930 . S
H299 C334 0.930 . S
H300 C336 0.930 . S
H301 C337 0.930 . S
H302 C339 0.931 . S
H303 C340 0.930 . S
H304 C342 0.930 . S
H305 C343 0.929 . S
H306 C345 0.930 . S
H307 C346 0.931 . S
H308 C348 0.930 . S
H309 C349 0.929 . S
H310 C351 0.931 . S
H311 C352 0.930 1_556 S
H312 C354 0.930 . S
H313 C355 0.932 . S
H314 C357 0.930 . S
H315 C358 0.929 . S
H316 C360 0.931 . S
H317 C361 0.930 . S
H318 C363 0.929 . S
H319 C364 0.931 . S
H320 C366 0.930 . S
H321 C367 0.929 . S
O322 H296 0.856 . S
O322 C368 1.300 . S
O323 C368 1.209 . S
O324 C369 1.199 1_556 S
O325 H297 0.854 . S
O325 C369 1.297 . S
C326 C327 1.404 . S
C326 C331 1.397 . S
C326 C332 1.492 . S
C327 C326 1.404 . S
C327 C328 1.396 . S
C327 C338 1.492 . S
C328 C327 1.396 . S
C328 C329 1.397 . S
C328 C344 1.509 . S
C329 C328 1.397 . S
C329 C330 1.412 . S
C329 C350 1.485 . S
C330 C329 1.412 . S
C330 C331 1.388 . S
C330 C356 1.490 1_554 S
C331 C326 1.397 . S
C331 C330 1.388 . S
C331 C362 1.519 . S
C332 C326 1.492 . S
C332 C333 1.363 . S
C332 C337 1.390 . S
C333 H298 0.930 . S
C333 C332 1.363 . S
C333 C334 1.372 . S
C334 H299 0.930 . S
C334 C333 1.372 . S
C334 C335 1.383 . S
C335 C334 1.383 . S
C335 C336 1.395 . S
C336 H300 0.930 . S
C336 C335 1.395 . S
C336 C337 1.362 . S
C337 H301 0.930 . S
C337 C332 1.390 . S
C337 C336 1.362 . S
C338 C327 1.492 . S
C338 C339 1.377 . S
C338 C343 1.397 . S
C339 H302 0.931 . S
C339 C338 1.377 . S
C339 C340 1.376 . S
C340 H303 0.930 . S
C340 C339 1.376 . S
C340 C341 1.376 . S
C341 C340 1.376 . S
C341 C342 1.378 . S
C341 C368 1.486 . S
C342 H304 0.930 . S
C342 C341 1.378 . S
C342 C343 1.376 . S
C343 H305 0.929 . S
C343 C338 1.397 . S
C343 C342 1.376 . S
C344 C328 1.509 . S
C344 C345 1.391 . S
C344 C349 1.386 . S
C345 H306 0.930 . S
C345 C344 1.391 . S
C345 C346 1.375 . S
C346 H307 0.931 . S
C346 C345 1.375 . S
C346 C347 1.375 . S
C347 C346 1.375 . S
C347 C348 1.361 . S
C348 H308 0.930 . S
C348 C347 1.361 . S
C348 C349 1.399 . S
C349 H309 0.929 . S
C349 C344 1.386 . S
C349 C348 1.399 . S
C350 C329 1.485 . S
C350 C351 1.394 . S
C350 C355 1.360 . S
C351 H310 0.931 . S
C351 C350 1.394 . S
C351 C352 1.372 . S
C352 H311 0.930 1_554 S
C352 C351 1.372 . S
C352 C353 1.397 . S
C353 C352 1.397 . S
C353 C354 1.390 . S
C353 C369 1.476 . S
C354 H312 0.930 . S
C354 C353 1.390 . S
C354 C355 1.366 . S
C355 H313 0.932 . S
C355 C350 1.360 . S
C355 C354 1.366 . S
C356 C330 1.490 1_556 S
C356 C357 1.380 . S
C356 C361 1.386 . S
C357 H314 0.930 . S
C357 C356 1.380 . S
C357 C358 1.381 . S
C358 H315 0.929 . S
C358 C357 1.381 . S
C358 C359 1.371 . S
C359 C358 1.371 . S
C359 C360 1.380 . S
C360 H316 0.931 . S
C360 C359 1.380 . S
C360 C361 1.387 . S
C361 H317 0.930 . S
C361 C356 1.386 . S
C361 C360 1.387 . S
C362 C331 1.519 . S
C362 C363 1.377 . S
C362 C367 1.361 1_554 S
C363 H318 0.929 . S
C363 C362 1.377 . S
C363 C364 1.386 1_554 S
C364 H319 0.931 . S
C364 C363 1.386 1_556 S
C364 C365 1.363 . S
C365 C364 1.363 . S
C365 C366 1.385 . S
C366 H320 0.930 . S
C366 C365 1.385 . S
C366 C367 1.396 . S
C367 H321 0.929 . S
C367 C362 1.361 1_556 S
C367 C366 1.396 . S
C368 O322 1.300 . S
C368 O323 1.209 . S
C368 C341 1.486 . S
C369 O324 1.199 1_554 S
C369 O325 1.297 . S
C369 C353 1.476 . S
H370 O396 0.856 . S
H371 O399 0.854 . S
H372 C407 0.930 . S
H373 C408 0.930 . S
H374 C410 0.930 . S
H375 C411 0.930 . S
H376 C413 0.931 . S
H377 C414 0.930 . S
H378 C416 0.930 . S
H379 C417 0.929 1_554 S
H380 C419 0.930 . S
H381 C420 0.931 . S
H382 C422 0.930 . S
H383 C423 0.929 . S
H384 C425 0.931 . S
H385 C426 0.930 . S
H386 C428 0.930 . S
H387 C429 0.932 . S
H388 C431 0.930 . S
H389 C432 0.929 . S
H390 C434 0.931 . S
H391 C435 0.930 . S
H392 C437 0.929 . S
H393 C438 0.931 . S
H394 C440 0.930 . S
H395 C441 0.929 . S
O396 H370 0.856 . S
O396 C442 1.300 . S
O397 C442 1.209 . S
O398 C443 1.199 . S
O399 H371 0.854 . S
O399 C443 1.297 . S
C400 C401 1.404 . S
C400 C405 1.397 . S
C400 C406 1.492 . S
C401 C400 1.404 . S
C401 C402 1.396 . S
C401 C412 1.492 . S
C402 C401 1.396 . S
C402 C403 1.397 . S
C402 C418 1.509 . S
C403 C402 1.397 . S
C403 C404 1.412 . S
C403 C424 1.485 . S
C404 C403 1.412 . S
C404 C405 1.388 . S
C404 C430 1.490 . S
C405 C400 1.397 . S
C405 C404 1.388 . S
C405 C436 1.519 . S
C406 C400 1.492 . S
C406 C407 1.363 . S
C406 C411 1.390 . S
C407 H372 0.930 . S
C407 C406 1.363 . S
C407 C408 1.372 . S
C408 H373 0.930 . S
C408 C407 1.372 . S
C408 C409 1.383 . S
C409 C408 1.383 . S
C409 C410 1.395 . S
C410 H374 0.930 . S
C410 C409 1.395 . S
C410 C411 1.362 . S
C411 H375 0.930 . S
C411 C406 1.390 . S
C411 C410 1.362 . S
C412 C401 1.492 . S
C412 C413 1.377 1_554 S
C412 C417 1.397 1_554 S
C413 H376 0.931 . S
C413 C412 1.377 1_556 S
C413 C414 1.376 . S
C414 H377 0.930 . S
C414 C413 1.376 . S
C414 C415 1.376 . S
C415 C414 1.376 . S
C415 C416 1.378 . S
C415 C442 1.486 . S
C416 H378 0.930 . S
C416 C415 1.378 . S
C416 C417 1.376 . S
C417 H379 0.929 1_556 S
C417 C412 1.397 1_556 S
C417 C416 1.376 . S
C418 C402 1.509 . S
C418 C419 1.391 . S
C418 C423 1.386 . S
C419 H380 0.930 . S
C419 C418 1.391 . S
C419 C420 1.375 1_554 S
C420 H381 0.931 . S
C420 C419 1.375 1_556 S
C420 C421 1.375 . S
C421 C420 1.375 . S
C421 C422 1.361 . S
C422 H382 0.930 . S
C422 C421 1.361 . S
C422 C423 1.399 1_556 S
C423 H383 0.929 . S
C423 C418 1.386 . S
C423 C422 1.399 1_554 S
C424 C403 1.485 . S
C424 C425 1.394 . S
C424 C429 1.360 . S
C425 H384 0.931 . S
C425 C424 1.394 . S
C425 C426 1.372 . S
C426 H385 0.930 . S
C426 C425 1.372 . S
C426 C427 1.397 . S
C427 C426 1.397 . S
C427 C428 1.390 . S
C427 C443 1.476 . S
C428 H386 0.930 . S
C428 C427 1.390 . S
C428 C429 1.366 . S
C429 H387 0.932 . S
C429 C424 1.360 . S
C429 C428 1.366 . S
C430 C404 1.490 . S
C430 C431 1.380 . S
C430 C435 1.386 . S
C431 H388 0.930 . S
C431 C430 1.380 . S
C431 C432 1.381 . S
C432 H389 0.929 . S
C432 C431 1.381 . S
C432 C433 1.371 . S
C433 C432 1.371 . S
C433 C434 1.380 . S
C434 H390 0.931 . S
C434 C433 1.380 . S
C434 C435 1.387 . S
C435 H391 0.930 . S
C435 C430 1.386 . S
C435 C434 1.387 . S
C436 C405 1.519 . S
C436 C437 1.377 . S
C436 C441 1.361 . S
C437 H392 0.929 . S
C437 C436 1.377 . S
C437 C438 1.386 . S
C438 H393 0.931 . S
C438 C437 1.386 . S
C438 C439 1.363 . S
C439 C438 1.363 . S
C439 C440 1.385 . S
C440 H394 0.930 . S
C440 C439 1.385 . S
C440 C441 1.396 . S
C441 H395 0.929 . S
C441 C436 1.361 . S
C441 C440 1.396 . S
C442 O396 1.300 . S
C442 O397 1.209 . S
C442 C415 1.486 . S
C443 O398 1.199 . S
C443 O399 1.297 . S
C443 C427 1.476 . S
C444 O456 1.241 . S
C444 O457 1.280 . S
C445 O458 1.277 . S
C445 O459 1.245 . S
C446 O470 1.247 . S
C446 O472 1.289 . S
Mg447 O448 1.918 . S
Mg447 O457 1.975 1_455 S
Mg447 O459 2.002 . S
Mg447 O460 2.053 1_455 S
O448 Mg447 1.918 . S
O448 Mg449 1.986 . S
O448 Mg450 1.917 . S
Mg449 O448 1.986 . S
Mg449 O456 2.042 1_455 S
Mg449 O458 2.041 . S
Mg449 O464 2.038 1_455 S
Mg449 O472 2.238 . S
Mg450 O448 1.917 . S
Mg450 O451 1.917 . S
Mg450 O461 2.106 1_455 S
Mg450 O463 2.079 1_455 S
Mg450 O472 2.106 . S
Mg450 O473 2.079 . S
O451 Mg450 1.917 . S
O451 Mg452 1.926 . S
O451 Mg453 1.986 . S
Mg452 O451 1.926 . S
Mg452 O466 1.984 . S
Mg452 O469 1.988 1_455 S
Mg452 O470 2.061 . S
Mg453 O451 1.986 . S
Mg453 O461 2.238 1_455 S
Mg453 O465 2.042 . S
Mg453 O467 2.041 1_455 S
Mg453 O474 2.038 . S
C454 O460 1.247 . S
C454 O461 1.289 . S
C455 O473 1.245 . S
C455 O474 1.274 . S
O456 C444 1.241 . S
O456 Mg449 2.042 1_655 S
O457 C444 1.280 . S
O457 Mg447 1.975 1_655 S
O458 C445 1.277 . S
O458 Mg449 2.041 . S
O459 C445 1.245 . S
O459 Mg447 2.002 . S
O460 Mg447 2.053 1_655 S
O460 C454 1.247 . S
O461 Mg450 2.106 1_655 S
O461 Mg453 2.238 1_655 S
O461 C454 1.289 . S
C462 O463 1.245 . S
C462 O464 1.274 . S
O463 Mg450 2.079 1_655 S
O463 C462 1.245 . S
O464 Mg449 2.038 1_655 S
O464 C462 1.274 . S
O465 Mg453 2.042 . S
O465 C468 1.241 . S
O466 Mg452 1.984 . S
O466 C468 1.280 . S
O467 Mg453 2.041 1_655 S
O467 C471 1.277 . S
C468 O465 1.241 . S
C468 O466 1.280 . S
O469 Mg452 1.988 1_655 S
O469 C471 1.245 . S
O470 C446 1.247 . S
O470 Mg452 2.061 . S
C471 O467 1.277 . S
C471 O469 1.245 . S
O472 C446 1.289 . S
O472 Mg449 2.238 . S
O472 Mg450 2.106 . S
O473 Mg450 2.079 . S
O473 C455 1.245 . S
O474 Mg453 2.038 . S
O474 C455 1.274 . S
C475 O487 1.241 . S
C475 O488 1.280 . S
C476 O489 1.277 . S
C476 O490 1.245 . S
C477 O501 1.247 . S
C477 O503 1.289 . S
Mg478 O479 1.926 . S
Mg478 O488 1.984 . S
Mg478 O490 1.988 1_545 S
Mg478 O491 2.061 . S
O479 Mg478 1.926 . S
O479 Mg480 1.986 . S
O479 Mg481 1.917 . S
Mg480 O479 1.986 . S
Mg480 O487 2.042 . S
Mg480 O489 2.041 1_545 S
Mg480 O495 2.038 . S
Mg480 O503 2.238 1_545 S
Mg481 O479 1.917 . S
Mg481 O482 1.917 1_545 S
Mg481 O492 2.106 . S
Mg481 O494 2.079 . S
Mg481 O503 2.106 1_545 S
Mg481 O504 2.079 1_545 S
O482 Mg481 1.917 1_565 S
O482 Mg483 1.926 . S
O482 Mg484 1.986 1_565 S
Mg483 O482 1.926 . S
Mg483 O497 1.984 . S
Mg483 O500 1.988 1_565 S
Mg483 O501 2.061 . S
Mg484 O482 1.986 1_545 S
Mg484 O492 2.238 . S
Mg484 O496 2.042 1_545 S
Mg484 O498 2.041 . S
Mg484 O505 2.038 1_545 S
C485 O491 1.247 . S
C485 O492 1.289 . S
C486 O504 1.245 . S
C486 O505 1.274 . S
O487 C475 1.241 . S
O487 Mg480 2.042 . S
O488 C475 1.280 . S
O488 Mg478 1.984 . S
O489 C476 1.277 . S
O489 Mg480 2.041 1_565 S
O490 C476 1.245 . S
O490 Mg478 1.988 1_565 S
O491 Mg478 2.061 . S
O491 C485 1.247 . S
O492 Mg481 2.106 . S
O492 Mg484 2.238 . S
O492 C485 1.289 . S
C493 O494 1.245 . S
C493 O495 1.274 . S
O494 Mg481 2.079 . S
O494 C493 1.245 . S
O495 Mg480 2.038 . S
O495 C493 1.274 . S
O496 Mg484 2.042 1_565 S
O496 C499 1.241 . S
O497 Mg483 1.984 . S
O497 C499 1.280 . S
O498 Mg484 2.041 . S
O498 C502 1.277 . S
C499 O496 1.241 . S
C499 O497 1.280 . S
O500 Mg483 1.988 1_545 S
O500 C502 1.245 . S
O501 C477 1.247 . S
O501 Mg483 2.061 . S
C502 O498 1.277 . S
C502 O500 1.245 . S
O503 C477 1.289 . S
O503 Mg480 2.238 1_565 S
O503 Mg481 2.106 1_565 S
O504 Mg481 2.079 1_565 S
O504 C486 1.245 . S
O505 Mg484 2.038 1_565 S
O505 C486 1.274 . S
C506 O518 1.241 . S
C506 O519 1.280 . S
C507 O520 1.277 . S
C507 O521 1.245 . S
C508 O532 1.247 . S
C508 O534 1.289 . S
Mg509 O510 1.926 . S
Mg509 O519 1.984 . S
Mg509 O521 1.988 . S
Mg509 O522 2.061 . S
O510 Mg509 1.926 . S
O510 Mg511 1.986 . S
O510 Mg512 1.917 . S
Mg511 O510 1.986 . S
Mg511 O518 2.042 . S
Mg511 O520 2.041 . S
Mg511 O526 2.038 . S
Mg511 O534 2.238 . S
Mg512 O510 1.917 . S
Mg512 O513 1.917 . S
Mg512 O523 2.106 . S
Mg512 O525 2.079 . S
Mg512 O534 2.106 . S
Mg512 O535 2.079 . S
O513 Mg512 1.917 . S
O513 Mg514 1.926 . S
O513 Mg515 1.986 . S
Mg514 O513 1.926 . S
Mg514 O528 1.984 . S
Mg514 O531 1.988 . S
Mg514 O532 2.061 . S
Mg515 O513 1.986 . S
Mg515 O523 2.238 . S
Mg515 O527 2.042 . S
Mg515 O529 2.041 . S
Mg515 O536 2.038 . S
C516 O522 1.247 . S
C516 O523 1.289 . S
C517 O535 1.245 . S
C517 O536 1.274 . S
O518 C506 1.241 . S
O518 Mg511 2.042 . S
O519 C506 1.280 . S
O519 Mg509 1.984 . S
O520 C507 1.277 . S
O520 Mg511 2.041 . S
O521 C507 1.245 . S
O521 Mg509 1.988 . S
O522 Mg509 2.061 . S
O522 C516 1.247 . S
O523 Mg512 2.106 . S
O523 Mg515 2.238 . S
O523 C516 1.289 . S
C524 O525 1.245 . S
C524 O526 1.274 . S
O525 Mg512 2.079 . S
O525 C524 1.245 . S
O526 Mg511 2.038 . S
O526 C524 1.274 . S
O527 Mg515 2.042 . S
O527 C530 1.241 . S
O528 Mg514 1.984 . S
O528 C530 1.280 . S
O529 Mg515 2.041 . S
O529 C533 1.277 . S
C530 O527 1.241 . S
C530 O528 1.280 . S
O531 Mg514 1.988 . S
O531 C533 1.245 . S
O532 C508 1.247 . S
O532 Mg514 2.061 . S
C533 O529 1.277 . S
C533 O531 1.245 . S
O534 C508 1.289 . S
O534 Mg511 2.238 . S
O534 Mg512 2.106 . S
O535 Mg512 2.079 . S
O535 C517 1.245 . S
O536 Mg515 2.038 . S
O536 C517 1.274 . S
C537 C538 1.387 . S
C537 H541 0.950 . S
C537 C546 1.390 . S
C538 C537 1.387 . S
C538 C540 1.387 . S
H539 C546 0.950 . S
C540 C538 1.387 . S
C540 C542 1.390 . S
C540 H544 0.950 . S
H541 C537 0.950 . S
C542 C540 1.390 . S
C542 C543 1.387 . S
C542 H545 0.950 . S
C543 C542 1.387 . S
C543 C546 1.387 . S
H544 C540 0.950 . S
H545 C542 0.950 . S
C546 C537 1.390 . S
C546 H539 0.950 . S
C546 C543 1.387 . S
C547 C548 1.387 . S
C547 H551 0.950 . S
C547 C556 1.390 . S
C548 C547 1.387 . S
C548 C550 1.387 . S
H549 C556 0.950 . S
C550 C548 1.387 . S
C550 C552 1.390 . S
C550 H554 0.950 . S
H551 C547 0.950 . S
C552 C550 1.390 . S
C552 C553 1.387 . S
C552 H555 0.950 . S
C553 C552 1.387 . S
C553 C556 1.387 . S
H554 C550 0.950 . S
H555 C552 0.950 . S
C556 C547 1.390 . S
C556 H549 0.950 . S
C556 C553 1.387 . S
C557 C558 1.387 . S
C557 H561 0.950 . S
C557 C566 1.390 . S
C558 C557 1.387 . S
C558 C560 1.387 . S
H559 C566 0.950 . S
C560 C558 1.387 . S
C560 C562 1.390 . S
C560 H564 0.950 . S
H561 C557 0.950 . S
C562 C560 1.390 . S
C562 C563 1.387 . S
C562 H565 0.950 . S
C563 C562 1.387 . S
C563 C566 1.387 . S
H564 C560 0.950 . S
H565 C562 0.950 . S
C566 C557 1.390 . S
C566 H559 0.950 . S
C566 C563 1.387 . S
C567 C568 1.387 . S
C567 H571 0.950 . S
C567 C576 1.390 . S
C568 C567 1.387 . S
C568 C570 1.387 . S
H569 C576 0.950 . S
C570 C568 1.387 . S
C570 C572 1.390 . S
C570 H574 0.950 . S
H571 C567 0.950 . S
C572 C570 1.390 . S
C572 C573 1.387 . S
C572 H575 0.950 . S
C573 C572 1.387 . S
C573 C576 1.387 . S
H574 C570 0.950 . S
H575 C572 0.950 . S
C576 C567 1.390 . S
C576 H569 0.950 . S
C576 C573 1.387 . S
C577 C578 1.387 . S
C577 H581 0.950 . S
C577 C586 1.390 . S
C578 C577 1.387 . S
C578 C580 1.387 . S
H579 C586 0.950 . S
C580 C578 1.387 . S
C580 C582 1.390 . S
C580 H584 0.950 . S
H581 C577 0.950 . S
C582 C580 1.390 . S
C582 C583 1.387 . S
C582 H585 0.950 . S
C583 C582 1.387 . S
C583 C586 1.387 . S
H584 C580 0.950 . S
H585 C582 0.950 . S
C586 C577 1.390 . S
C586 H579 0.950 . S
C586 C583 1.387 . S
C587 C588 1.387 . S
C587 H591 0.950 . S
C587 C596 1.390 . S
C588 C587 1.387 . S
C588 C590 1.387 . S
H589 C596 0.950 . S
C590 C588 1.387 . S
C590 C592 1.390 . S
C590 H594 0.950 . S
H591 C587 0.950 . S
C592 C590 1.390 . S
C592 C593 1.387 . S
C592 H595 0.950 . S
C593 C592 1.387 . S
C593 C596 1.387 . S
H594 C590 0.950 . S
H595 C592 0.950 . S
C596 C587 1.390 . S
C596 H589 0.950 . S
C596 C593 1.387 . S
C597 C598 1.387 . S
C597 H601 0.950 . S
C597 C606 1.390 . S
C598 C597 1.387 . S
C598 C600 1.387 . S
H599 C606 0.950 . S
C600 C598 1.387 . S
C600 C602 1.390 . S
C600 H604 0.950 . S
H601 C597 0.950 . S
C602 C600 1.390 . S
C602 C603 1.387 . S
C602 H605 0.950 . S
C603 C602 1.387 . S
C603 C606 1.387 . S
H604 C600 0.950 . S
H605 C602 0.950 . S
C606 C597 1.390 . S
C606 H599 0.950 . S
C606 C603 1.387 . S
C607 C608 1.387 . S
C607 H611 0.950 . S
C607 C616 1.390 . S
C608 C607 1.387 . S
C608 C610 1.387 . S
H609 C616 0.950 . S
C610 C608 1.387 . S
C610 C612 1.390 . S
C610 H614 0.950 . S
H611 C607 0.950 . S
C612 C610 1.390 . S
C612 C613 1.387 . S
C612 H615 0.950 . S
C613 C612 1.387 . S
C613 C616 1.387 . S
H614 C610 0.950 . S
H615 C612 0.950 . S
C616 C607 1.390 . S
C616 H609 0.950 . S
C616 C613 1.387 . S
C617 C618 1.387 . S
C617 H621 0.950 . S
C617 C626 1.390 . S
C618 C617 1.387 . S
C618 C620 1.387 . S
H619 C626 0.950 . S
C620 C618 1.387 . S
C620 C622 1.390 . S
C620 H624 0.950 . S
H621 C617 0.950 . S
C622 C620 1.390 . S
C622 C623 1.387 . S
C622 H625 0.950 . S
C623 C622 1.387 . S
C623 C626 1.387 . S
H624 C620 0.950 . S
H625 C622 0.950 . S
C626 C617 1.390 . S
C626 H619 0.950 . S
C626 C623 1.387 . S
C627 C628 1.387 . S
C627 H631 0.950 . S
C627 C636 1.390 . S
C628 C627 1.387 . S
C628 C630 1.387 . S
H629 C636 0.950 . S
C630 C628 1.387 . S
C630 C632 1.390 . S
C630 H634 0.950 . S
H631 C627 0.950 . S
C632 C630 1.390 . S
C632 C633 1.387 . S
C632 H635 0.950 . S
C633 C632 1.387 . S
C633 C636 1.387 . S
H634 C630 0.950 . S
H635 C632 0.950 . S
C636 C627 1.390 . S
C636 H629 0.950 . S
C636 C633 1.387 . S
C637 C638 1.387 . S
C637 H641 0.950 . S
C637 C646 1.390 . S
C638 C637 1.387 . S
C638 C640 1.387 . S
H639 C646 0.950 . S
C640 C638 1.387 . S
C640 C642 1.390 . S
C640 H644 0.950 . S
H641 C637 0.950 . S
C642 C640 1.390 . S
C642 C643 1.387 . S
C642 H645 0.950 . S
C643 C642 1.387 . S
C643 C646 1.387 . S
H644 C640 0.950 . S
H645 C642 0.950 . S
C646 C637 1.390 . S
C646 H639 0.950 . S
C646 C643 1.387 . S
C647 C648 1.387 . S
C647 H651 0.950 . S
C647 C656 1.390 . S
C648 C647 1.387 . S
C648 C650 1.387 . S
H649 C656 0.950 . S
C650 C648 1.387 . S
C650 C652 1.390 . S
C650 H654 0.950 1_556 S
H651 C647 0.950 . S
C652 C650 1.390 . S
C652 C653 1.387 . S
C652 H655 0.950 . S
C653 C652 1.387 . S
C653 C656 1.387 . S
H654 C650 0.950 1_554 S
H655 C652 0.950 . S
C656 C647 1.390 . S
C656 H649 0.950 . S
C656 C653 1.387 . S
C657 C658 1.387 . S
C657 H661 0.950 . S
C657 C666 1.390 . S
C658 C657 1.387 . S
C658 C660 1.387 . S
H659 C666 0.950 . S
C660 C658 1.387 . S
C660 C662 1.390 . S
C660 H664 0.950 . S
H661 C657 0.950 . S
C662 C660 1.390 . S
C662 C663 1.387 . S
C662 H665 0.950 . S
C663 C662 1.387 . S
C663 C666 1.387 . S
H664 C660 0.950 . S
H665 C662 0.950 . S
C666 C657 1.390 . S
C666 H659 0.950 . S
C666 C663 1.387 . S
C667 C668 1.387 . S
C667 H671 0.950 . S
C667 C676 1.390 . S
C668 C667 1.387 . S
C668 C670 1.387 . S
H669 C676 0.950 . S
C670 C668 1.387 . S
C670 C672 1.390 . S
C670 H674 0.950 . S
H671 C667 0.950 . S
C672 C670 1.390 . S
C672 C673 1.387 . S
C672 H675 0.950 . S
C673 C672 1.387 . S
C673 C676 1.387 . S
H674 C670 0.950 . S
H675 C672 0.950 . S
C676 C667 1.390 . S
C676 H669 0.950 . S
C676 C673 1.387 . S
C677 C678 1.387 . S
C677 H681 0.950 . S
C677 C686 1.390 1_554 S
C678 C677 1.387 . S
C678 C680 1.387 1_554 S
H679 C686 0.950 . S
C680 C678 1.387 1_556 S
C680 C682 1.390 . S
C680 H684 0.950 . S
H681 C677 0.950 . S
C682 C680 1.390 . S
C682 C683 1.387 . S
C682 H685 0.950 . S
C683 C682 1.387 . S
C683 C686 1.387 . S
H684 C680 0.950 . S
H685 C682 0.950 . S
C686 C677 1.390 1_556 S
C686 H679 0.950 . S
C686 C683 1.387 . S
C687 C688 1.387 . S
C687 H691 0.950 . S
C687 C696 1.390 . S
C688 C687 1.387 . S
C688 C690 1.387 . S
H689 C696 0.950 . S
C690 C688 1.387 . S
C690 C692 1.390 . S
C690 H694 0.950 . S
H691 C687 0.950 . S
C692 C690 1.390 . S
C692 C693 1.387 . S
C692 H695 0.950 . S
C693 C692 1.387 . S
C693 C696 1.387 . S
H694 C690 0.950 . S
H695 C692 0.950 . S
C696 C687 1.390 . S
C696 H689 0.950 . S
C696 C693 1.387 . S
C697 C698 1.387 . S
C697 H701 0.950 . S
C697 C706 1.390 . S
C698 C697 1.387 . S
C698 C700 1.387 . S
H699 C706 0.950 . S
C700 C698 1.387 . S
C700 C702 1.390 . S
C700 H704 0.950 . S
H701 C697 0.950 . S
C702 C700 1.390 . S
C702 C703 1.387 . S
C702 H705 0.950 . S
C703 C702 1.387 . S
C703 C706 1.387 . S
H704 C700 0.950 . S
H705 C702 0.950 . S
C706 C697 1.390 . S
C706 H699 0.950 . S
C706 C703 1.387 . S
C707 C708 1.387 . S
C707 H711 0.950 . S
C707 C716 1.390 . S
C708 C707 1.387 . S
C708 C710 1.387 . S
H709 C716 0.950 . S
C710 C708 1.387 . S
C710 C712 1.390 . S
C710 H714 0.950 . S
H711 C707 0.950 . S
C712 C710 1.390 . S
C712 C713 1.387 . S
C712 H715 0.950 . S
C713 C712 1.387 . S
C713 C716 1.387 . S
H714 C710 0.950 . S
H715 C712 0.950 . S
C716 C707 1.390 . S
C716 H709 0.950 . S
C716 C713 1.387 . S
C717 C718 1.387 . S
C717 H721 0.950 . S
C717 C726 1.390 . S
C718 C717 1.387 . S
C718 C720 1.387 . S
H719 C726 0.950 . S
C720 C718 1.387 . S
C720 C722 1.390 . S
C720 H724 0.950 . S
H721 C717 0.950 . S
C722 C720 1.390 . S
C722 C723 1.387 . S
C722 H725 0.950 . S
C723 C722 1.387 . S
C723 C726 1.387 . S
H724 C720 0.950 . S
H725 C722 0.950 . S
C726 C717 1.390 . S
C726 H719 0.950 . S
C726 C723 1.387 . S
C727 C728 1.387 . S
C727 H731 0.950 . S
C727 C736 1.390 . S
C728 C727 1.387 . S
C728 C730 1.387 . S
H729 C736 0.950 . S
C730 C728 1.387 . S
C730 C732 1.390 . S
C730 H734 0.950 . S
H731 C727 0.950 . S
C732 C730 1.390 . S
C732 C733 1.387 . S
C732 H735 0.950 . S
C733 C732 1.387 . S
C733 C736 1.387 . S
H734 C730 0.950 . S
H735 C732 0.950 . S
C736 C727 1.390 . S
C736 H729 0.950 . S
C736 C733 1.387 . S
C737 C738 1.387 . S
C737 H741 0.950 . S
C737 C746 1.390 . S
C738 C737 1.387 . S
C738 C740 1.387 . S
H739 C746 0.950 . S
C740 C738 1.387 . S
C740 C742 1.390 . S
C740 H744 0.950 . S
H741 C737 0.950 . S
C742 C740 1.390 . S
C742 C743 1.387 . S
C742 H745 0.950 . S
C743 C742 1.387 . S
C743 C746 1.387 . S
H744 C740 0.950 . S
H745 C742 0.950 . S
C746 C737 1.390 . S
C746 H739 0.950 . S
C746 C743 1.387 . S
C747 C748 1.387 . S
C747 H751 0.950 . S
C747 C756 1.390 . S
C748 C747 1.387 . S
C748 C750 1.387 . S
H749 C756 0.950 . S
C750 C748 1.387 . S
C750 C752 1.390 . S
C750 H754 0.950 . S
H751 C747 0.950 . S
C752 C750 1.390 . S
C752 C753 1.387 . S
C752 H755 0.950 . S
C753 C752 1.387 . S
C753 C756 1.387 . S
H754 C750 0.950 . S
H755 C752 0.950 . S
C756 C747 1.390 . S
C756 H749 0.950 . S
C756 C753 1.387 . S
C757 C758 1.387 . S
C757 H761 0.950 . S
C757 C766 1.390 . S
C758 C757 1.387 . S
C758 C760 1.387 . S
H759 C766 0.950 . S
C760 C758 1.387 . S
C760 C762 1.390 . S
C760 H764 0.950 . S
H761 C757 0.950 . S
C762 C760 1.390 . S
C762 C763 1.387 . S
C762 H765 0.950 . S
C763 C762 1.387 . S
C763 C766 1.387 . S
H764 C760 0.950 . S
H765 C762 0.950 . S
C766 C757 1.390 . S
C766 H759 0.950 . S
C766 C763 1.387 . S
C767 C768 1.387 . S
C767 H771 0.950 . S
C767 C776 1.390 . S
C768 C767 1.387 . S
C768 C770 1.387 . S
H769 C776 0.950 . S
C770 C768 1.387 . S
C770 C772 1.390 . S
C770 H774 0.950 . S
H771 C767 0.950 . S
C772 C770 1.390 . S
C772 C773 1.387 . S
C772 H775 0.950 . S
C773 C772 1.387 . S
C773 C776 1.387 . S
H774 C770 0.950 . S
H775 C772 0.950 . S
C776 C767 1.390 . S
C776 H769 0.950 . S
C776 C773 1.387 . S
C538 C39 2.004 . S
C543 C455 1.954 . S
C548 C125 1.015 . S
C553 C502 1.029 . S
C563 C506 2.150 . S
C558 C211 2.022 . S
C573 C471 0.925 . S
C568 C273 0.940 . S
C578 C335 2.100 . S
C583 C486 2.092 . S
C593 C508 1.465 . S
C588 C439 1.510 . S
C603 C477 1.591 . S
C598 C187 1.602 . S
C608 C291 1.875 . S
C613 C517 1.858 . S
C623 C446 1.985 . S
C618 C359 1.841 . S
C628 C421 0.860 . S
C633 C475 0.839 . S
C638 C63 2.100 . S
C643 C533 2.279 . S
C653 C444 1.845 . S
C648 C143 1.886 . S
C663 C462 2.417 . S
C658 C285 2.188 . S
C673 C476 1.877 . S
C668 C365 1.915 . S
C683 C530 1.983 . S
C678 C409 1.937 . S
C693 C445 1.777 . S
C688 C69 1.835 1_556 S
C703 C493 2.188 . S
C698 C137 2.039 . S
C708 C199 0.616 . S
C713 C516 0.620 . S
C723 C485 2.081 . S
C718 C433 1.883 . S
C733 C524 0.696 . S
C728 C51 0.702 . S
C743 C454 1.639 . S
C738 C113 1.634 . S
C753 C499 1.697 . S
C748 C217 1.749 . S
C758 C261 2.064 . S
C763 C507 2.067 . S
C768 C347 0.780 . S
C773 C468 0.776 . S
