# Generated by pormake.
# Topology pto, (3,4)-cn, num edge types: 1
# Building blocks:
#     Node 0, Type 0, BuildingBlock: BETDAH_clean_linker_0, # of connection points: 3
#     Node 1, Type 0, BuildingBlock: BETDAH_clean_linker_0, # of connection points: 3
#     Node 2, Type 0, BuildingBlock: BETDAH_clean_linker_0, # of connection points: 3
#     Node 3, Type 0, BuildingBlock: BETDAH_clean_linker_0, # of connection points: 3
#     Node 4, Type 0, BuildingBlock: BETDAH_clean_linker_0, # of connection points: 3
#     Node 5, Type 0, BuildingBlock: BETDAH_clean_linker_0, # of connection points: 3
#     Node 6, Type 0, BuildingBlock: BETDAH_clean_linker_0, # of connection points: 3
#     Node 7, Type 0, BuildingBlock: BETDAH_clean_linker_0, # of connection points: 3
#     Node 8, Type 1, BuildingBlock: KOZSID_clean_sbu_0, # of connection points: 4
#     Node 9, Type 1, BuildingBlock: KOZSID_clean_sbu_0, # of connection points: 4
#     Node 10, Type 1, BuildingBlock: KOZSID_clean_sbu_0, # of connection points: 4
#     Node 11, Type 1, BuildingBlock: KOZSID_clean_sbu_0, # of connection points: 4
#     Node 12, Type 1, BuildingBlock: KOZSID_clean_sbu_0, # of connection points: 4
#     Node 13, Type 1, BuildingBlock: KOZSID_clean_sbu_0, # of connection points: 4
#     Edge 14, Type (0, 1), BuildingBlock: UVAHIK_clean_linker_0, # of connection points: 2
#     Edge 15, Type (0, 1), BuildingBlock: UVAHIK_clean_linker_0, # of connection points: 2
#     Edge 16, Type (0, 1), BuildingBlock: UVAHIK_clean_linker_0, # of connection points: 2
#     Edge 17, Type (0, 1), BuildingBlock: UVAHIK_clean_linker_0, # of connection points: 2
#     Edge 18, Type (0, 1), BuildingBlock: UVAHIK_clean_linker_0, # of connection points: 2
#     Edge 19, Type (0, 1), BuildingBlock: UVAHIK_clean_linker_0, # of connection points: 2
#     Edge 20, Type (0, 1), BuildingBlock: UVAHIK_clean_linker_0, # of connection points: 2
#     Edge 21, Type (0, 1), BuildingBlock: UVAHIK_clean_linker_0, # of connection points: 2
#     Edge 22, Type (0, 1), BuildingBlock: UVAHIK_clean_linker_0, # of connection points: 2
#     Edge 23, Type (0, 1), BuildingBlock: UVAHIK_clean_linker_0, # of connection points: 2
#     Edge 24, Type (0, 1), BuildingBlock: UVAHIK_clean_linker_0, # of connection points: 2
#     Edge 25, Type (0, 1), BuildingBlock: UVAHIK_clean_linker_0, # of connection points: 2
#     Edge 26, Type (0, 1), BuildingBlock: UVAHIK_clean_linker_0, # of connection points: 2
#     Edge 27, Type (0, 1), BuildingBlock: UVAHIK_clean_linker_0, # of connection points: 2
#     Edge 28, Type (0, 1), BuildingBlock: UVAHIK_clean_linker_0, # of connection points: 2
#     Edge 29, Type (0, 1), BuildingBlock: UVAHIK_clean_linker_0, # of connection points: 2
#     Edge 30, Type (0, 1), BuildingBlock: UVAHIK_clean_linker_0, # of connection points: 2
#     Edge 31, Type (0, 1), BuildingBlock: UVAHIK_clean_linker_0, # of connection points: 2
#     Edge 32, Type (0, 1), BuildingBlock: UVAHIK_clean_linker_0, # of connection points: 2
#     Edge 33, Type (0, 1), BuildingBlock: UVAHIK_clean_linker_0, # of connection points: 2
#     Edge 34, Type (0, 1), BuildingBlock: UVAHIK_clean_linker_0, # of connection points: 2
#     Edge 35, Type (0, 1), BuildingBlock: UVAHIK_clean_linker_0, # of connection points: 2
#     Edge 36, Type (0, 1), BuildingBlock: UVAHIK_clean_linker_0, # of connection points: 2
#     Edge 37, Type (0, 1), BuildingBlock: UVAHIK_clean_linker_0, # of connection points: 2
# Relax obj value: 0.010
# Max RMSD: 0.122
# Mean RMSD: 0.061
data_MOF--net-pto--node1-KOZSID_clean_sbu_0--node2-BETDAH_clean_linker_0--edge1-UVAHIK_clean_linker_0
_symmetry_space_group_name_H-M    P1
_symmetry_Int_Tables_number       1
_symmetry_cell_setting            triclinic
loop_
_symmetry_equiv_pos_as_xyz
'x, y, z'
_cell_length_a     48.847075
_cell_length_b     63.693248
_cell_length_c     57.12398
_cell_angle_alpha  102.68402
_cell_angle_beta   94.342626
_cell_angle_gamma 102.71624
loop_
_atom_site_label
_atom_site_type_symbol
_atom_site_fract_x
_atom_site_fract_y
_atom_site_fract_z
_atom_type_partial_charge
H0 H 0.3347 0.23473 0.408 0.0
H1 H 0.30306 0.29326 0.41214 0.0
H2 H 0.2866 0.25509 0.4651 0.0
C3 C 0.32311 0.24619 0.41689 0.0
C4 C 0.31113 0.24269 0.4377 0.0
C5 C 0.32041 0.26442 0.40753 0.0
C6 C 0.30505 0.27908 0.41909 0.0
C7 C 0.29301 0.27572 0.44 0.0
C8 C 0.29625 0.25764 0.44914 0.0
N9 N 0.27772 0.29015 0.45259 0.0
C10 C 0.27028 0.30751 0.4447 0.0
H11 H 0.27249 0.71759 0.76217 0.0
H12 H 0.29709 0.77702 0.73708 0.0
H13 H 0.21623 0.73152 0.70915 0.0
C14 C 0.26804 0.72791 0.7503 0.0
C15 C 0.24191 0.72198 0.73554 0.0
C16 C 0.28798 0.74769 0.75094 0.0
C17 C 0.28178 0.76169 0.73647 0.0
C18 C 0.25584 0.75568 0.72119 0.0
C19 C 0.23615 0.73595 0.72092 0.0
N20 N 0.24847 0.76899 0.70599 0.0
C21 C 0.26577 0.78865 0.70356 0.0
H22 H 0.84829 0.74077 0.38561 0.0
H23 H 0.81072 0.75857 0.32449 0.0
H24 H 0.8351 0.69666 0.31476 0.0
C25 C 0.84084 0.73688 0.36642 0.0
C26 C 0.84294 0.71679 0.35146 0.0
C27 C 0.82932 0.75205 0.35682 0.0
C28 C 0.81962 0.74692 0.33194 0.0
C29 C 0.82149 0.72676 0.31681 0.0
C30 C 0.83333 0.71198 0.32664 0.0
N31 N 0.81207 0.72082 0.29159 0.0
C32 C 0.7938 0.73055 0.28028 0.0
H33 H 0.80577 0.26221 0.85501 0.0
H34 H 0.79131 0.2126 0.89623 0.0
H35 H 0.78971 0.2797 0.92893 0.0
C36 C 0.8009 0.25733 0.87154 0.0
C37 C 0.79815 0.27349 0.89175 0.0
C38 C 0.79847 0.23523 0.87282 0.0
C39 C 0.7926 0.22941 0.89458 0.0
C40 C 0.78856 0.24513 0.9145 0.0
C41 C 0.79158 0.26728 0.91318 0.0
N42 N 0.78311 0.2384 0.93608 0.0
C43 C 0.76337 0.24515 0.95037 0.0
H44 H 0.77487 0.72092 0.80564 0.0
H45 H 0.80555 0.72984 0.73899 0.0
H46 H 0.74782 0.76688 0.76944 0.0
C47 C 0.77581 0.72912 0.79088 0.0
C48 C 0.75935 0.74451 0.78985 0.0
C49 C 0.79281 0.72375 0.77282 0.0
C50 C 0.79293 0.7339 0.75335 0.0
C51 C 0.77726 0.74969 0.75236 0.0
C52 C 0.76072 0.75525 0.77076 0.0
N53 N 0.7764 0.75812 0.73148 0.0
C54 C 0.78242 0.78061 0.73224 0.0
H55 H 0.78213 0.28543 0.4147 0.0
H56 H 0.80461 0.26126 0.47622 0.0
H57 H 0.72392 0.23171 0.43249 0.0
C58 C 0.77708 0.27366 0.42579 0.0
C59 C 0.75077 0.25817 0.42067 0.0
C60 C 0.79665 0.27482 0.44563 0.0
C61 C 0.7897 0.26031 0.46076 0.0
C62 C 0.76329 0.24478 0.45595 0.0
C63 C 0.744 0.24394 0.43611 0.0
N64 N 0.75508 0.22997 0.47082 0.0
C65 C 0.77389 0.223 0.48508 0.0
H66 H 0.29538 0.24636 0.83922 0.0
H67 H 0.30174 0.31627 0.86616 0.0
H68 H 0.28424 0.28697 0.78994 0.0
C69 C 0.29412 0.26232 0.83609 0.0
C70 C 0.28895 0.26426 0.81223 0.0
C71 C 0.29916 0.28096 0.85582 0.0
C72 C 0.29734 0.30153 0.85141 0.0
C73 C 0.29169 0.30353 0.82768 0.0
C74 C 0.28789 0.28505 0.80821 0.0
N75 N 0.29248 0.32452 0.82306 0.0
C76 C 0.27022 0.33457 0.82697 0.0
H77 H 0.28817 0.74625 0.35298 0.0
H78 H 0.31591 0.76625 0.28974 0.0
H79 H 0.26567 0.70017 0.28319 0.0
C80 C 0.28915 0.74235 0.33365 0.0
C81 C 0.27537 0.72119 0.31947 0.0
C82 C 0.30377 0.75868 0.32306 0.0
C83 C 0.30483 0.75363 0.29797 0.0
C84 C 0.29127 0.73234 0.28362 0.0
C85 C 0.27652 0.71637 0.29445 0.0
N86 N 0.29142 0.72647 0.25821 0.0
C87 C 0.31055 0.73794 0.24589 0.0
C88 C 0.09631 0.55583 0.4383 0.0
C89 C 0.11436 0.57162 0.45704 0.0
C90 C 0.10618 0.56713 0.47808 0.0
C91 C 0.08387 0.54883 0.47103 0.0
N92 N 0.07723 0.54134 0.44674 0.0
Co93 Co 0.04712 0.51451 0.42879 0.0
N94 N 0.03505 0.50802 0.45981 0.0
C95 C 0.04514 0.5204 0.48252 0.0
C96 C 0.03259 0.51189 0.5002 0.0
C97 C 0.01338 0.49286 0.4881 0.0
C98 C 0.01546 0.49083 0.46365 0.0
N99 N 0.01769 0.48721 0.41084 0.0
C100 C 0.00039 0.47163 0.41933 0.0
C101 C 0.9844 0.4545 0.40059 0.0
C102 C 0.99176 0.45945 0.37955 0.0
C103 C 0.01189 0.47912 0.38656 0.0
N104 N 0.05857 0.52133 0.39774 0.0
C105 C 0.04652 0.51018 0.37501 0.0
C106 C 0.05793 0.51937 0.35733 0.0
C107 C 0.07849 0.53753 0.36943 0.0
C108 C 0.07861 0.53825 0.39393 0.0
N109 N 0.075 0.49611 0.42914 0.0
C110 C 0.11334 0.46891 0.42945 0.0
C111 C 0.09791 0.46901 0.40789 0.0
C112 C 0.07906 0.4826 0.40814 0.0
C113 C 0.10959 0.48298 0.45084 0.0
C114 C 0.09048 0.49635 0.45028 0.0
N115 N 0.01923 0.53301 0.42831 0.0
C116 C 0.98192 0.54324 0.4064 0.0
C117 C 0.98315 0.56165 0.42532 0.0
C118 C 0.00205 0.565 0.44619 0.0
C119 C 0.0196 0.5505 0.44736 0.0
C120 C 0.99986 0.52927 0.40829 0.0
H121 H 0.03355 0.55399 0.46373 0.0
H122 H 0.99796 0.51582 0.39303 0.0
H123 H 0.06795 0.48181 0.3911 0.0
H124 H 0.08839 0.5066 0.46718 0.0
C125 C 0.06804 0.53885 0.48674 0.0
C126 C 0.09807 0.55539 0.41282 0.0
C127 C 0.9987 0.47212 0.44483 0.0
C128 C 0.02541 0.49056 0.37078 0.0
H129 H 0.13161 0.58507 0.45568 0.0
H130 H 0.11528 0.57621 0.49634 0.0
H131 H 0.03734 0.51844 0.5196 0.0
H132 H 0.99966 0.48158 0.49634 0.0
H133 H 0.96912 0.43982 0.40195 0.0
H134 H 0.98357 0.44979 0.3613 0.0
H135 H 0.0521 0.51348 0.33793 0.0
H136 H 0.09186 0.54892 0.3611 0.0
H137 H 0.10043 0.45872 0.39077 0.0
H138 H 0.1209 0.48338 0.46805 0.0
H139 H 0.96782 0.53996 0.38975 0.0
H140 H 0.00342 0.57881 0.46154 0.0
C141 C 0.04694 0.54159 0.81397 0.0
C142 C 0.06633 0.55791 0.83126 0.0
C143 C 0.05843 0.55604 0.85326 0.0
C144 C 0.03484 0.53872 0.84817 0.0
N145 N 0.02726 0.52931 0.82424 0.0
Co146 Co 0.99455 0.50346 0.80886 0.0
N147 N 0.98127 0.50219 0.84101 0.0
C148 C 0.99228 0.51644 0.86264 0.0
C149 C 0.97797 0.51195 0.88138 0.0
C150 C 0.95663 0.49365 0.87118 0.0
C151 C 0.95938 0.48785 0.84673 0.0
N152 N 0.96257 0.47698 0.79363 0.0
C153 C 0.94356 0.46415 0.80401 0.0
C154 C 0.92654 0.4461 0.78688 0.0
C155 C 0.93487 0.44769 0.76497 0.0
C156 C 0.95662 0.46635 0.7699 0.0
N157 N 0.00712 0.5054 0.77658 0.0
C158 C 0.99475 0.49236 0.75468 0.0
C159 C 0.00719 0.49842 0.73567 0.0
C160 C 0.02858 0.51665 0.74599 0.0
C161 C 0.02793 0.52061 0.7708 0.0
N162 N 0.01915 0.48313 0.81279 0.0
C163 C 0.05653 0.45598 0.81809 0.0
C164 C 0.04153 0.45402 0.79559 0.0
C165 C 0.02305 0.46759 0.79337 0.0
C166 C 0.05184 0.47132 0.83801 0.0
C167 C 0.03322 0.48457 0.83499 0.0
N168 N 0.97018 0.52393 0.80491 0.0
C169 C 0.93452 0.53427 0.78112 0.0
C170 C 0.93826 0.55453 0.79807 0.0
C171 C 0.95792 0.55894 0.81869 0.0
C172 C 0.97328 0.54351 0.82181 0.0
C173 C 0.95061 0.51938 0.78483 0.0
H174 H 0.98783 0.54799 0.83793 0.0
H175 H 0.94699 0.50437 0.7711 0.0
H176 H 0.01243 0.46537 0.77571 0.0
H177 H 0.03076 0.49596 0.8509 0.0
C178 C 0.01751 0.5326 0.86511 0.0
C179 C 0.04716 0.53924 0.78806 0.0
C180 C 0.94141 0.46808 0.82994 0.0
C181 C 0.97176 0.47436 0.75263 0.0
H182 H 0.0839 0.57028 0.82824 0.0
H183 H 0.06808 0.56659 0.8708 0.0
H184 H 0.98291 0.52061 0.90031 0.0
H185 H 0.94114 0.48525 0.88076 0.0
H186 H 0.91003 0.4329 0.78979 0.0
H187 H 0.92632 0.43641 0.74755 0.0
H188 H 0.00129 0.49059 0.71657 0.0
H189 H 0.04291 0.5261 0.73638 0.0
H190 H 0.04451 0.44246 0.77956 0.0
H191 H 0.06248 0.47314 0.85594 0.0
H192 H 0.91919 0.52982 0.76504 0.0
H193 H 0.962 0.57447 0.83226 0.0
C194 C 0.35192 0.99296 0.60484 0.0
C195 C 0.37751 0.99363 0.61771 0.0
C196 C 0.39753 0.00942 0.61162 0.0
C197 C 0.38307 0.01755 0.59559 0.0
N198 N 0.35496 0.00799 0.59112 0.0
Co199 Co 0.32596 0.01525 0.56941 0.0
N200 N 0.3557 0.03767 0.55959 0.0
C201 C 0.38401 0.04237 0.56607 0.0
C202 C 0.39903 0.05852 0.55642 0.0
C203 C 0.37913 0.06467 0.54314 0.0
C204 C 0.35302 0.05193 0.5456 0.0
N205 N 0.29686 0.02305 0.5483 0.0
C206 C 0.29972 0.03913 0.53593 0.0
C207 C 0.2738 0.03987 0.52478 0.0
C208 C 0.25382 0.02377 0.53039 0.0
C209 C 0.26857 0.01424 0.54468 0.0
N210 N 0.29633 0.99237 0.57872 0.0
C211 C 0.26829 0.98637 0.5706 0.0
C212 C 0.2534 0.96947 0.57924 0.0
C213 C 0.27309 0.96416 0.59359 0.0
C214 C 0.29897 0.97832 0.59302 0.0
N215 N 0.32071 0.03855 0.59688 0.0
C216 C 0.31285 0.07403 0.63279 0.0
C217 C 0.28986 0.05688 0.62053 0.0
C218 C 0.29423 0.03944 0.60278 0.0
C219 C 0.33992 0.07267 0.62744 0.0
C220 C 0.34336 0.05487 0.60969 0.0
N221 N 0.33121 0.99201 0.54178 0.0
C222 C 0.3117 0.96251 0.50596 0.0
C223 C 0.3384 0.95868 0.50284 0.0
C224 C 0.36148 0.97187 0.51944 0.0
C225 C 0.35746 0.98836 0.53854 0.0
C226 C 0.3086 0.97904 0.52541 0.0
H227 H 0.37594 0.99787 0.55048 0.0
H228 H 0.28764 0.98084 0.52687 0.0
H229 H 0.27581 0.0271 0.59377 0.0
H230 H 0.36452 0.05485 0.6064 0.0
C231 C 0.39554 0.03298 0.58316 0.0
C232 C 0.32551 0.97736 0.60583 0.0
C233 C 0.32627 0.05462 0.53508 0.0
C234 C 0.25648 0.99717 0.55517 0.0
H235 H 0.38137 0.98353 0.62997 0.0
H236 H 0.42003 0.01408 0.61776 0.0
H237 H 0.42167 0.06551 0.55936 0.0
H238 H 0.38329 0.07744 0.53322 0.0
H239 H 0.26964 0.05113 0.51403 0.0
H240 H 0.23118 0.01973 0.52502 0.0
H241 H 0.23093 0.96182 0.57542 0.0
H242 H 0.26883 0.95116 0.60319 0.0
H243 H 0.26846 0.05723 0.62406 0.0
H244 H 0.35844 0.08535 0.63686 0.0
H245 H 0.29309 0.95247 0.49376 0.0
H246 H 0.38263 0.96961 0.51764 0.0
C247 C 0.50932 0.79078 0.06338 0.0
C248 C 0.50712 0.81159 0.07571 0.0
C249 C 0.52747 0.82675 0.06908 0.0
C250 C 0.54093 0.81441 0.05321 0.0
N251 N 0.53022 0.79224 0.04906 0.0
Co252 Co 0.54413 0.76821 0.02796 0.0
N253 N 0.57516 0.79054 0.01938 0.0
C254 C 0.5812 0.81288 0.02751 0.0
C255 C 0.60316 0.82385 0.01779 0.0
C256 C 0.61141 0.80758 0.00223 0.0
C257 C 0.5939 0.78757 0.00339 0.0
N258 N 0.55798 0.74417 0.0068 0.0
C259 C 0.57835 0.74569 0.99199 0.0
C260 C 0.58075 0.72493 0.97973 0.0
C261 C 0.56085 0.70971 0.98675 0.0
C262 C 0.54753 0.72199 0.00284 0.0
N263 N 0.51311 0.74585 0.03652 0.0
C264 C 0.50725 0.72349 0.02855 0.0
C265 C 0.48497 0.71253 0.03794 0.0
C266 C 0.47627 0.72882 0.05307 0.0
C267 C 0.4939 0.74885 0.05207 0.0
N268 N 0.51872 0.76925 0.99961 0.0
C269 C 0.4861 0.77025 0.95711 0.0
C270 C 0.48647 0.75021 0.96314 0.0
C271 C 0.50273 0.75009 0.98424 0.0
C272 C 0.50163 0.78987 0.97318 0.0
C273 C 0.51759 0.789 0.99418 0.0
N274 N 0.56966 0.76713 0.05628 0.0
C275 C 0.58802 0.74603 0.08141 0.0
C276 C 0.6047 0.76539 0.09708 0.0
C277 C 0.60374 0.78566 0.09187 0.0
C278 C 0.58614 0.78615 0.07161 0.0
C279 C 0.57093 0.74726 0.06129 0.0
H280 H 0.5861 0.80213 0.06885 0.0
H281 H 0.5589 0.73187 0.05012 0.0
H282 H 0.50227 0.73425 0.98754 0.0
H283 H 0.5292 0.8045 0.00555 0.0
C284 C 0.5646 0.8231 0.04296 0.0
C285 C 0.49212 0.77016 0.06685 0.0
C286 C 0.59495 0.76632 0.98809 0.0
C287 C 0.5239 0.71324 0.01314 0.0
H288 H 0.49272 0.81542 0.0886 0.0
H289 H 0.53237 0.84462 0.07555 0.0
H290 H 0.61157 0.84159 0.02105 0.0
H291 H 0.62798 0.81015 0.99085 0.0
H292 H 0.59496 0.72121 0.96663 0.0
H293 H 0.55607 0.69183 0.98033 0.0
H294 H 0.47647 0.69479 0.03459 0.0
H295 H 0.45918 0.72624 0.06394 0.0
H296 H 0.47423 0.73456 0.95164 0.0
H297 H 0.50208 0.80585 0.96933 0.0
H298 H 0.58837 0.72988 0.08447 0.0
H299 H 0.61616 0.80114 0.1036 0.0
C300 C 0.87195 0.99104 0.64497 0.0
C301 C 0.89753 0.98884 0.65532 0.0
C302 C 0.91818 0.99839 0.64328 0.0
C303 C 0.90422 0.00607 0.62645 0.0
N304 N 0.87612 0.00224 0.62743 0.0
Co305 Co 0.84839 0.01098 0.60665 0.0
N306 N 0.87873 0.03217 0.59671 0.0
C307 C 0.90639 0.03238 0.59832 0.0
C308 C 0.92224 0.04966 0.59067 0.0
C309 C 0.90329 0.06097 0.58389 0.0
C310 C 0.87689 0.04984 0.58774 0.0
N311 N 0.82087 0.0198 0.58589 0.0
C312 C 0.82394 0.03854 0.57795 0.0
C313 C 0.79945 0.03847 0.5639 0.0
C314 C 0.7804 0.01887 0.56321 0.0
C315 C 0.79434 0.00814 0.57678 0.0
N316 N 0.81781 0.98971 0.61626 0.0
C317 C 0.79141 0.98131 0.60429 0.0
C318 C 0.77503 0.96619 0.61441 0.0
C319 C 0.79228 0.96472 0.63372 0.0
C320 C 0.81842 0.97914 0.63437 0.0
N321 N 0.84508 0.0344 0.63394 0.0
C322 C 0.84002 0.06844 0.67242 0.0
C323 C 0.81598 0.05439 0.65744 0.0
C324 C 0.81896 0.03745 0.63842 0.0
C325 C 0.86666 0.06502 0.66779 0.0
C326 C 0.86873 0.04799 0.64841 0.0
N327 N 0.85147 0.98741 0.57926 0.0
C328 C 0.85086 0.97344 0.53641 0.0
C329 C 0.84952 0.95202 0.53959 0.0
C330 C 0.85069 0.94907 0.5632 0.0
C331 C 0.85151 0.96683 0.58265 0.0
C332 C 0.852 0.99092 0.55649 0.0
H333 H 0.85144 0.96367 0.60038 0.0
H334 H 0.85244 0.00714 0.55352 0.0
H335 H 0.80008 0.02683 0.62727 0.0
H336 H 0.88949 0.04591 0.64505 0.0
C337 C 0.91708 0.01948 0.61193 0.0
C338 C 0.8441 0.97986 0.65011 0.0
C339 C 0.85026 0.05588 0.58236 0.0
C340 C 0.78184 0.9899 0.58549 0.0
H341 H 0.90085 0.9807 0.66967 0.0
H342 H 0.94072 0.99999 0.64679 0.0
H343 H 0.94503 0.05432 0.59135 0.0
H344 H 0.90843 0.07585 0.57728 0.0
H345 H 0.79576 0.05124 0.55518 0.0
H346 H 0.75858 0.01365 0.55487 0.0
H347 H 0.75308 0.95745 0.60864 0.0
H348 H 0.78641 0.9537 0.64544 0.0
H349 H 0.79497 0.05629 0.66057 0.0
H350 H 0.88579 0.07564 0.67883 0.0
H351 H 0.85007 0.97657 0.51852 0.0
H352 H 0.85058 0.93303 0.56672 0.0
C353 C 0.46917 0.29086 0.18744 0.0
C354 C 0.46837 0.3118 0.20047 0.0
C355 C 0.48783 0.32667 0.19257 0.0
C356 C 0.49942 0.314 0.17534 0.0
N357 N 0.48819 0.29193 0.17138 0.0
Co358 Co 0.50028 0.26746 0.14925 0.0
N359 N 0.53059 0.28926 0.13913 0.0
C360 C 0.53613 0.31166 0.14608 0.0
C361 C 0.55799 0.32227 0.136 0.0
C362 C 0.5669 0.30568 0.12158 0.0
C363 C 0.5498 0.28581 0.12367 0.0
N364 N 0.513 0.24293 0.12778 0.0
C365 C 0.53436 0.24384 0.11388 0.0
C366 C 0.53609 0.22278 0.10194 0.0
C367 C 0.51522 0.20804 0.10861 0.0
C368 C 0.50194 0.22085 0.12415 0.0
N369 N 0.46945 0.2457 0.15883 0.0
C370 C 0.46203 0.2234 0.15016 0.0
C371 C 0.44027 0.21289 0.16046 0.0
C372 C 0.43357 0.22943 0.1769 0.0
C373 C 0.4518 0.24911 0.17571 0.0
N374 N 0.47344 0.26867 0.12185 0.0
C375 C 0.43705 0.2703 0.08184 0.0
C376 C 0.44048 0.25007 0.08564 0.0
C377 C 0.45853 0.24964 0.10556 0.0
C378 C 0.45167 0.2897 0.0987 0.0
C379 C 0.46961 0.28852 0.11837 0.0
N380 N 0.52697 0.26621 0.17655 0.0
C381 C 0.5438 0.2455 0.2029 0.0
C382 C 0.56336 0.26455 0.21634 0.0
C383 C 0.56471 0.28441 0.20943 0.0
C384 C 0.54629 0.28491 0.18973 0.0
C385 C 0.52616 0.24664 0.18307 0.0
H386 H 0.54788 0.30064 0.18562 0.0
H387 H 0.51196 0.23147 0.17335 0.0
H388 H 0.46015 0.23367 0.1072 0.0
H389 H 0.48037 0.30393 0.13032 0.0
C390 C 0.52137 0.32226 0.16306 0.0
C391 C 0.45251 0.27045 0.19179 0.0
C392 C 0.55292 0.26415 0.11084 0.0
C393 C 0.47812 0.21269 0.13457 0.0
H394 H 0.45546 0.3159 0.21457 0.0
H395 H 0.49336 0.34455 0.19903 0.0
H396 H 0.56666 0.33995 0.13901 0.0
H397 H 0.58419 0.30798 0.11089 0.0
H398 H 0.55068 0.21848 0.08942 0.0
H399 H 0.51005 0.19013 0.10255 0.0
H400 H 0.43116 0.19524 0.15714 0.0
H401 H 0.41764 0.22723 0.18892 0.0
H402 H 0.42922 0.23454 0.07329 0.0
H403 H 0.44988 0.30582 0.09643 0.0
H404 H 0.54234 0.22969 0.20749 0.0
H405 H 0.57952 0.2996 0.21948 0.0
C406 C 0.27263 0.34739 0.45195 0.0
C407 C 0.26008 0.32557 0.43899 0.0
C408 C 0.26032 0.36464 0.44895 0.0
C409 C 0.20699 0.37932 0.40964 0.0
H410 H 0.19964 0.41961 0.46919 0.0
C411 C 0.12489 0.43212 0.41499 0.0
C412 C 0.13275 0.45392 0.42955 0.0
C413 C 0.14293 0.4179 0.41505 0.0
C414 C 0.20187 0.40875 0.45235 0.0
H415 H 0.22564 0.30431 0.41245 0.0
H416 H 0.20388 0.33437 0.40717 0.0
H417 H 0.2274 0.3924 0.47055 0.0
H418 H 0.16598 0.47795 0.45535 0.0
H419 H 0.19749 0.45304 0.45553 0.0
H420 H 0.18094 0.39542 0.39151 0.0
C421 C 0.22339 0.33838 0.41937 0.0
C422 C 0.21784 0.39315 0.45311 0.0
C423 C 0.23573 0.32116 0.4224 0.0
C424 C 0.15913 0.46117 0.44417 0.0
C425 C 0.1772 0.44691 0.44424 0.0
C426 C 0.19101 0.39493 0.40887 0.0
C427 C 0.2352 0.36026 0.43301 0.0
C428 C 0.22027 0.37805 0.43181 0.0
C429 C 0.16928 0.4251 0.4297 0.0
C430 C 0.18793 0.40961 0.43027 0.0
H431 H 0.29141 0.351 0.46494 0.0
H432 H 0.27015 0.38133 0.45948 0.0
H433 H 0.20879 0.36815 0.39286 0.0
H434 H 0.10451 0.42586 0.40385 0.0
H435 H 0.13593 0.40107 0.404 0.0
C436 C 0.22815 0.68212 0.73782 0.0
C437 C 0.22026 0.70179 0.73639 0.0
C438 C 0.20816 0.66372 0.7406 0.0
C439 C 0.13953 0.64954 0.76322 0.0
H440 H 0.14063 0.58911 0.73249 0.0
C441 C 0.05563 0.57459 0.77473 0.0
C442 C 0.06575 0.55675 0.77927 0.0
C443 C 0.07342 0.59166 0.7674 0.0
C444 C 0.1402 0.60589 0.74133 0.0
H445 H 0.18496 0.71733 0.7362 0.0
H446 H 0.14998 0.68508 0.74047 0.0
H447 H 0.17347 0.62003 0.72292 0.0
H448 H 0.10172 0.54218 0.77958 0.0
H449 H 0.13317 0.57215 0.76688 0.0
H450 H 0.10653 0.63548 0.78182 0.0
C451 C 0.17173 0.68399 0.7398 0.0
C452 C 0.159 0.6236 0.73585 0.0
C453 C 0.19173 0.70239 0.73705 0.0
C454 C 0.09365 0.55588 0.77605 0.0
C455 C 0.11148 0.57293 0.76868 0.0
C456 C 0.12074 0.63186 0.76867 0.0
C457 C 0.17979 0.66456 0.74199 0.0
C458 C 0.15899 0.64564 0.74684 0.0
C459 C 0.10163 0.59113 0.76449 0.0
C460 C 0.12096 0.60983 0.75791 0.0
H461 H 0.2499 0.68102 0.73708 0.0
H462 H 0.21514 0.64909 0.7424 0.0
H463 H 0.1393 0.66629 0.77237 0.0
H464 H 0.03406 0.5754 0.7771 0.0
H465 H 0.06509 0.60528 0.76401 0.0
C466 C 0.88044 0.70834 0.37796 0.0
C467 C 0.85531 0.70089 0.36166 0.0
C468 C 0.89251 0.69326 0.38697 0.0
C469 C 0.89288 0.63378 0.37294 0.0
H470 H 0.93047 0.6483 0.43876 0.0
C471 C 0.93794 0.57007 0.4106 0.0
C472 C 0.9658 0.57765 0.42258 0.0
C473 C 0.92276 0.58506 0.40545 0.0
C474 C 0.92015 0.64407 0.42031 0.0
H475 H 0.82259 0.67191 0.34271 0.0
H476 H 0.84337 0.64561 0.35864 0.0
H477 H 0.90704 0.67453 0.42524 0.0
H478 H 0.99912 0.60704 0.43933 0.0
H479 H 0.97249 0.63323 0.43047 0.0
H480 H 0.90602 0.6034 0.36797 0.0
C481 C 0.85418 0.66304 0.36405 0.0
C482 C 0.90679 0.65911 0.41252 0.0
C483 C 0.84222 0.6781 0.35493 0.0
C484 C 0.97761 0.60065 0.43029 0.0
C485 C 0.96237 0.61566 0.42518 0.0
C486 C 0.90608 0.61874 0.38075 0.0
C487 C 0.87963 0.67039 0.37999 0.0
C488 C 0.89311 0.65419 0.38869 0.0
C489 C 0.93502 0.608 0.41221 0.0
C490 C 0.91998 0.62374 0.40448 0.0
H491 H 0.89117 0.72579 0.38328 0.0
H492 H 0.91233 0.69949 0.39892 0.0
H493 H 0.88307 0.6296 0.35434 0.0
H494 H 0.92799 0.55248 0.40484 0.0
H495 H 0.90151 0.57866 0.39585 0.0
C496 C 0.8288 0.31183 0.90573 0.0
C497 C 0.8052 0.29704 0.89081 0.0
C498 C 0.83915 0.33286 0.90176 0.0
C499 C 0.83748 0.36216 0.85225 0.0
H500 H 0.88348 0.41169 0.90192 0.0
C501 C 0.89305 0.44594 0.83327 0.0
C502 C 0.92253 0.45114 0.83954 0.0
C503 C 0.87562 0.42914 0.84133 0.0
C504 C 0.87055 0.398 0.88793 0.0
H505 H 0.77268 0.29287 0.86114 0.0
H506 H 0.78954 0.33008 0.85504 0.0
H507 H 0.8567 0.37918 0.91339 0.0
H508 H 0.95692 0.44377 0.85989 0.0
H509 H 0.92631 0.41483 0.87471 0.0
H510 H 0.85119 0.38132 0.82691 0.0
C511 C 0.80093 0.32528 0.8692 0.0
C512 C 0.85534 0.37927 0.89442 0.0
C513 C 0.79098 0.30406 0.87284 0.0
C514 C 0.93422 0.43997 0.85482 0.0
C515 C 0.91676 0.42353 0.86332 0.0
C516 C 0.8522 0.38107 0.84586 0.0
C517 C 0.8258 0.3397 0.88301 0.0
C518 C 0.83912 0.36083 0.87661 0.0
C519 C 0.88736 0.41773 0.85634 0.0
C520 C 0.86935 0.39892 0.86357 0.0
H521 H 0.84032 0.30661 0.91948 0.0
H522 H 0.85854 0.34319 0.9126 0.0
H523 H 0.8258 0.34826 0.83787 0.0
H524 H 0.88362 0.45458 0.82175 0.0
H525 H 0.85299 0.42499 0.8358 0.0
C526 C 0.32003 0.22595 0.47257 0.0
C527 C 0.31407 0.22342 0.44751 0.0
C528 C 0.32215 0.20776 0.48189 0.0
C529 C 0.33378 0.15127 0.46507 0.0
H530 H 0.29908 0.14439 0.52266 0.0
C531 C 0.32103 0.07131 0.4997 0.0
C532 C 0.32596 0.074 0.52479 0.0
C533 C 0.32025 0.08961 0.49014 0.0
C534 C 0.30918 0.14621 0.50674 0.0
H535 H 0.30558 0.19977 0.41257 0.0
H536 H 0.30929 0.168 0.42884 0.0
H537 H 0.29652 0.1762 0.50619 0.0
H538 H 0.33447 0.09749 0.55967 0.0
H539 H 0.33344 0.12967 0.54305 0.0
H540 H 0.34637 0.12122 0.46561 0.0
C541 C 0.31269 0.18412 0.44127 0.0
C542 C 0.30771 0.16444 0.49729 0.0
C543 C 0.31056 0.20232 0.43195 0.0
C544 C 0.33049 0.09517 0.54024 0.0
C545 C 0.32972 0.11348 0.53071 0.0
C546 C 0.33526 0.13302 0.47452 0.0
C547 C 0.31837 0.18661 0.46636 0.0
C548 C 0.32001 0.1672 0.47636 0.0
C549 C 0.32444 0.11089 0.50555 0.0
C550 C 0.32299 0.13029 0.49548 0.0
H551 H 0.32331 0.24205 0.48501 0.0
H552 H 0.32703 0.21032 0.50127 0.0
H553 H 0.34381 0.15308 0.44911 0.0
H554 H 0.31755 0.05503 0.48757 0.0
H555 H 0.31586 0.08703 0.47071 0.0
C556 C 0.33129 0.73846 0.76761 0.0
C557 C 0.31455 0.75377 0.76781 0.0
C558 C 0.35359 0.74229 0.78599 0.0
C559 C 0.39745 0.7844 0.83926 0.0
H560 H 0.40081 0.732 0.86233 0.0
C561 C 0.45444 0.78665 0.93326 0.0
C562 C 0.46977 0.77048 0.93413 0.0
C563 C 0.43809 0.78609 0.91181 0.0
C564 C 0.40043 0.74676 0.85595 0.0
H565 H 0.30862 0.78553 0.78662 0.0
H566 H 0.34726 0.7921 0.81923 0.0
H567 H 0.36839 0.72866 0.82662 0.0
H568 H 0.48105 0.74175 0.91272 0.0
H569 H 0.4523 0.74062 0.87554 0.0
H570 H 0.42908 0.80252 0.8693 0.0
C571 C 0.34357 0.7773 0.80465 0.0
C572 C 0.38189 0.74485 0.83537 0.0
C573 C 0.32142 0.77357 0.78602 0.0
C574 C 0.46898 0.75414 0.91288 0.0
C575 C 0.45258 0.75353 0.89153 0.0
C576 C 0.41593 0.78633 0.86003 0.0
C577 C 0.35936 0.76135 0.80526 0.0
C578 C 0.38013 0.76361 0.8267 0.0
C579 C 0.43665 0.7693 0.89083 0.0
C580 C 0.41759 0.7675 0.86857 0.0
H581 H 0.3265 0.72315 0.7536 0.0
H582 H 0.36578 0.72994 0.78548 0.0
H583 H 0.39684 0.79917 0.83299 0.0
H584 H 0.45439 0.79936 0.94932 0.0
H585 H 0.42584 0.79835 0.91187 0.0
C586 C 0.8394 0.79362 0.36748 0.0
C587 C 0.82796 0.77332 0.37302 0.0
C588 C 0.84076 0.81369 0.3841 0.0
C589 C 0.84013 0.83568 0.44975 0.0
H590 H 0.83057 0.88885 0.43103 0.0
C591 C 0.82857 0.91197 0.51914 0.0
C592 C 0.84596 0.93261 0.51863 0.0
C593 C 0.8261 0.89333 0.50027 0.0
C594 C 0.8335 0.87415 0.43644 0.0
H595 H 0.80746 0.75798 0.39947 0.0
H596 H 0.80891 0.79285 0.42809 0.0
H597 H 0.82563 0.85454 0.39986 0.0
H598 H 0.87364 0.94988 0.49728 0.0
H599 H 0.86882 0.91714 0.46391 0.0
H600 H 0.84745 0.85512 0.48628 0.0
C601 C 0.8178 0.79342 0.41138 0.0
C602 C 0.83073 0.8545 0.41863 0.0
C603 C 0.81677 0.77343 0.39494 0.0
C604 C 0.85998 0.93428 0.49823 0.0
C605 C 0.85728 0.91556 0.47915 0.0
C606 C 0.8426 0.85517 0.46747 0.0
C607 C 0.83045 0.81382 0.40647 0.0
C608 C 0.83376 0.83496 0.42511 0.0
C609 C 0.84068 0.89484 0.48023 0.0
C610 C 0.8391 0.87455 0.46104 0.0
H611 H 0.84833 0.79394 0.35073 0.0
H612 H 0.85082 0.82905 0.37976 0.0
H613 H 0.84344 0.82119 0.45543 0.0
H614 H 0.81677 0.91016 0.53418 0.0
H615 H 0.81272 0.87765 0.50135 0.0
C616 C 0.71906 0.23053 0.96505 0.0
C617 C 0.7415 0.24857 0.96529 0.0
C618 C 0.6986 0.23298 0.98054 0.0
C619 C 0.66736 0.27423 0.01804 0.0
H620 H 0.64374 0.22738 0.05097 0.0
C621 C 0.57154 0.2688 0.07217 0.0
C622 C 0.57478 0.26282 0.09423 0.0
C623 C 0.59225 0.26776 0.05662 0.0
C624 C 0.65024 0.24068 0.04206 0.0
H625 H 0.76043 0.28334 0.98125 0.0
H626 H 0.72448 0.28779 0.00859 0.0
H627 H 0.67928 0.22463 0.02349 0.0
H628 H 0.60179 0.25121 0.11764 0.0
H629 H 0.63814 0.24931 0.09047 0.0
H630 H 0.63842 0.29037 0.03686 0.0
C631 C 0.72252 0.27178 0.99634 0.0
C632 C 0.67038 0.23899 0.0261 0.0
C633 C 0.74309 0.26926 0.98082 0.0
C634 C 0.59892 0.25577 0.10059 0.0
C635 C 0.61958 0.25464 0.08502 0.0
C636 C 0.64706 0.27587 0.03395 0.0
C637 C 0.70024 0.25355 0.99658 0.0
C638 C 0.67911 0.25569 0.01383 0.0
C639 C 0.61648 0.26062 0.06284 0.0
C640 C 0.63825 0.25909 0.04612 0.0
H641 H 0.71756 0.21442 0.95312 0.0
H642 H 0.68149 0.21872 0.97999 0.0
H643 H 0.67352 0.2873 0.00876 0.0
H644 H 0.55296 0.27423 0.06698 0.0
H645 H 0.58906 0.27222 0.03955 0.0
C646 C 0.29815 0.80847 0.68026 0.0
C647 C 0.28043 0.80901 0.69841 0.0
C648 C 0.3088 0.82767 0.6725 0.0
C649 C 0.31811 0.88892 0.68738 0.0
H650 H 0.3095 0.88024 0.61763 0.0
C651 C 0.31378 0.95983 0.64018 0.0
C652 C 0.32587 0.95951 0.61866 0.0
C653 C 0.31257 0.94228 0.65139 0.0
C654 C 0.31256 0.88299 0.63714 0.0
H655 H 0.26038 0.82966 0.72334 0.0
H656 H 0.27883 0.86332 0.70983 0.0
H657 H 0.30057 0.84821 0.63503 0.0
H658 H 0.34706 0.94137 0.59229 0.0
H659 H 0.34543 0.91073 0.61202 0.0
H660 H 0.32954 0.9238 0.68941 0.0
C661 C 0.28496 0.84829 0.70174 0.0
C662 C 0.30745 0.86458 0.64714 0.0
C663 C 0.27432 0.82906 0.70945 0.0
C664 C 0.33753 0.9418 0.60886 0.0
C665 C 0.33641 0.92427 0.62008 0.0
C666 C 0.32327 0.90737 0.67737 0.0
C667 C 0.30174 0.84769 0.68274 0.0
C668 C 0.30979 0.86731 0.67237 0.0
C669 C 0.32354 0.92413 0.64129 0.0
C670 C 0.32019 0.90463 0.65211 0.0
H671 H 0.30292 0.79303 0.67146 0.0
H672 H 0.32198 0.82673 0.65807 0.0
H673 H 0.32044 0.89158 0.70689 0.0
H674 H 0.30472 0.97342 0.64797 0.0
H675 H 0.30222 0.9426 0.66753 0.0
C676 C 0.74484 0.72781 0.26398 0.0
C677 C 0.77373 0.73795 0.26626 0.0
C678 C 0.72551 0.73277 0.248 0.0
C679 C 0.71588 0.77281 0.21166 0.0
H680 H 0.66169 0.72184 0.17025 0.0
C681 C 0.65091 0.77735 0.12454 0.0
C682 C 0.62298 0.7643 0.11856 0.0
C683 C 0.66849 0.77547 0.14409 0.0
C684 C 0.67634 0.73633 0.18188 0.0
H685 H 0.80543 0.76147 0.2545 0.0
H686 H 0.77165 0.77029 0.22642 0.0
H687 H 0.6935 0.71663 0.20215 0.0
H688 H 0.5912 0.73973 0.12905 0.0
H689 H 0.62166 0.73661 0.16327 0.0
H690 H 0.69875 0.79249 0.19123 0.0
C691 C 0.76376 0.75869 0.23709 0.0
C692 C 0.69462 0.73332 0.20019 0.0
C693 C 0.7831 0.75365 0.25306 0.0
C694 C 0.61279 0.74973 0.13293 0.0
C695 C 0.63028 0.74793 0.15253 0.0
C696 C 0.69748 0.77584 0.19336 0.0
C697 C 0.73481 0.74794 0.234 0.0
C698 C 0.71468 0.7515 0.21524 0.0
C699 C 0.65847 0.76056 0.15818 0.0
C700 C 0.67756 0.7576 0.17817 0.0
H701 H 0.73732 0.71556 0.27402 0.0
H702 H 0.70333 0.72445 0.24629 0.0
H703 H 0.73093 0.78717 0.22311 0.0
H704 H 0.65946 0.78857 0.11367 0.0
H705 H 0.69018 0.78524 0.14771 0.0
C706 C 0.82432 0.22406 0.83746 0.0
C707 C 0.80297 0.21843 0.85179 0.0
C708 C 0.8288 0.2082 0.81792 0.0
C709 C 0.81786 0.14809 0.79451 0.0
H710 H 0.82872 0.16269 0.73287 0.0
C711 C 0.85249 0.08998 0.71575 0.0
C712 C 0.83719 0.08645 0.69281 0.0
C713 C 0.84906 0.10647 0.73516 0.0
C714 C 0.82564 0.15837 0.74996 0.0
H715 H 0.7693 0.19169 0.85647 0.0
H716 H 0.77745 0.16395 0.82258 0.0
H717 H 0.82067 0.19063 0.76674 0.0
H718 H 0.80691 0.09779 0.67203 0.0
H719 H 0.80092 0.12661 0.70594 0.0
H720 H 0.82264 0.1158 0.7777 0.0
C721 C 0.79084 0.18064 0.82664 0.0
C722 C 0.82127 0.1744 0.76938 0.0
C723 C 0.78622 0.19653 0.84607 0.0
C724 C 0.81877 0.1 0.68957 0.0
C725 C 0.81553 0.11661 0.70891 0.0
C726 C 0.82248 0.13213 0.77516 0.0
C727 C 0.81219 0.18631 0.81237 0.0
C728 C 0.81719 0.16939 0.79182 0.0
C729 C 0.83048 0.11991 0.73195 0.0
C730 C 0.82629 0.13706 0.75265 0.0
H731 H 0.83799 0.24064 0.84159 0.0
H732 H 0.84564 0.21298 0.80742 0.0
H733 H 0.81504 0.14383 0.81166 0.0
H734 H 0.8667 0.0797 0.71881 0.0
H735 H 0.86104 0.10877 0.75266 0.0
C736 C 0.36143 0.26512 0.38365 0.0
C737 C 0.33398 0.26807 0.38586 0.0
C738 C 0.37386 0.26739 0.36284 0.0
C739 C 0.35595 0.2649 0.29833 0.0
H740 H 0.43625 0.29136 0.3028 0.0
C741 C 0.4119 0.2766 0.21443 0.0
C742 C 0.4382 0.27122 0.2138 0.0
C743 C 0.39867 0.27749 0.23539 0.0
C744 C 0.41384 0.28377 0.30124 0.0
H745 H 0.29823 0.27613 0.36808 0.0
H746 H 0.32016 0.28045 0.33176 0.0
H747 H 0.41417 0.29143 0.33966 0.0
H748 H 0.47138 0.26236 0.23389 0.0
H749 H 0.44831 0.26377 0.27061 0.0
H750 H 0.35573 0.25712 0.25987 0.0
C751 C 0.33191 0.2761 0.34607 0.0
C752 C 0.40118 0.28382 0.32237 0.0
C753 C 0.31946 0.27385 0.36696 0.0
C754 C 0.4511 0.26663 0.2342 0.0
C755 C 0.43798 0.26759 0.25516 0.0
C756 C 0.36863 0.26491 0.27718 0.0
C757 C 0.35919 0.27273 0.34371 0.0
C758 C 0.37216 0.27412 0.32119 0.0
C759 C 0.41164 0.27309 0.25604 0.0
C760 C 0.39779 0.27408 0.27841 0.0
H761 H 0.37334 0.26096 0.39801 0.0
H762 H 0.39476 0.26444 0.36155 0.0
H763 H 0.33363 0.25705 0.29677 0.0
H764 H 0.40171 0.28018 0.19876 0.0
H765 H 0.37851 0.28194 0.23556 0.0
C766 C 0.82261 0.7061 0.79654 0.0
C767 C 0.80958 0.70705 0.7741 0.0
C768 C 0.83666 0.68952 0.79811 0.0
C769 C 0.87251 0.65051 0.76444 0.0
H770 H 0.85095 0.6165 0.81159 0.0
C771 C 0.91593 0.57422 0.77102 0.0
C772 C 0.92215 0.57109 0.79428 0.0
C773 C 0.90159 0.59029 0.76767 0.0
C774 C 0.85758 0.62601 0.79857 0.0
H775 H 0.80185 0.69149 0.73558 0.0
H776 H 0.82726 0.66291 0.73835 0.0
H777 H 0.8285 0.64631 0.80763 0.0
H778 H 0.91748 0.58222 0.83218 0.0
H779 H 0.8939 0.6108 0.82654 0.0
H780 H 0.90223 0.63075 0.75584 0.0
C781 C 0.82633 0.67502 0.75468 0.0
C782 C 0.8446 0.64302 0.79626 0.0
C783 C 0.8119 0.69145 0.75313 0.0
C784 C 0.91349 0.58434 0.81405 0.0
C785 C 0.8995 0.60055 0.81074 0.0
C786 C 0.88585 0.63367 0.76699 0.0
C787 C 0.83839 0.67369 0.77725 0.0
C788 C 0.85201 0.65548 0.77926 0.0
C789 C 0.89334 0.60377 0.78752 0.0
C790 C 0.87863 0.62126 0.78418 0.0
H791 H 0.82188 0.71815 0.81298 0.0
H792 H 0.8462 0.68905 0.81568 0.0
H793 H 0.8787 0.65999 0.75129 0.0
H794 H 0.92255 0.56453 0.75539 0.0
H795 H 0.8969 0.59206 0.74947 0.0
C796 C 0.83946 0.2949 0.43138 0.0
C797 C 0.82368 0.29201 0.45048 0.0
C798 C 0.86142 0.31375 0.43409 0.0
C799 C 0.90866 0.36251 0.47681 0.0
H800 H 0.89963 0.39039 0.4237 0.0
C801 C 0.99062 0.43748 0.45986 0.0
C802 C 0.97958 0.4534 0.45145 0.0
C803 C 0.97241 0.41841 0.46327 0.0
C804 C 0.90232 0.38293 0.43878 0.0
H805 H 0.81981 0.30564 0.48796 0.0
H806 H 0.8585 0.33883 0.49277 0.0
H807 H 0.86817 0.35482 0.42285 0.0
H808 H 0.94139 0.46286 0.44117 0.0
H809 H 0.90939 0.42954 0.4471 0.0
H810 H 0.943 0.3909 0.49266 0.0
C811 C 0.85382 0.32644 0.47572 0.0
C812 C 0.88453 0.36241 0.43814 0.0
C813 C 0.83175 0.30746 0.473 0.0
C814 C 0.95021 0.45063 0.44756 0.0
C815 C 0.93202 0.43158 0.45085 0.0
C816 C 0.92675 0.38308 0.47734 0.0
C817 C 0.86805 0.33016 0.45595 0.0
C818 C 0.88754 0.3519 0.45706 0.0
C819 C 0.94292 0.415 0.45815 0.0
C820 C 0.92365 0.3935 0.45832 0.0
H821 H 0.83389 0.28306 0.41394 0.0
H822 H 0.87244 0.31595 0.41872 0.0
H823 H 0.91141 0.35478 0.49164 0.0
H824 H 0.0133 0.43942 0.46291 0.0
H825 H 0.9814 0.40587 0.46877 0.0
C826 C 0.22092 0.33516 0.81552 0.0
C827 C 0.24739 0.3455 0.82915 0.0
C828 C 0.19943 0.34652 0.81596 0.0
C829 C 0.18959 0.40337 0.82784 0.0
H830 H 0.11089 0.37466 0.82798 0.0
C831 C 0.10343 0.45237 0.83568 0.0
C832 C 0.07751 0.44264 0.8207 0.0
C833 C 0.12356 0.44013 0.83772 0.0
C834 C 0.13274 0.38284 0.8277 0.0
H835 H 0.27254 0.37526 0.85425 0.0
H836 H 0.23491 0.39518 0.85535 0.0
H837 H 0.14707 0.35386 0.83028 0.0
H838 H 0.05225 0.41222 0.79646 0.0
H839 H 0.08769 0.39095 0.79963 0.0
H840 H 0.17535 0.43224 0.82501 0.0
C841 C 0.23069 0.37845 0.8441 0.0
C842 C 0.15347 0.37094 0.82905 0.0
C843 C 0.25212 0.36707 0.84364 0.0
C844 C 0.07211 0.42028 0.80796 0.0
C845 C 0.09229 0.40802 0.81 0.0
C846 C 0.16891 0.41523 0.82647 0.0
C847 C 0.20421 0.36842 0.82999 0.0
C848 C 0.18213 0.38108 0.82913 0.0
C849 C 0.11833 0.41785 0.82479 0.0
C850 C 0.14024 0.40513 0.82638 0.0
H851 H 0.21707 0.31852 0.80409 0.0
H852 H 0.17942 0.33841 0.80469 0.0
H853 H 0.2114 0.41154 0.82737 0.0
H854 H 0.10843 0.46962 0.84553 0.0
H855 H 0.14325 0.44814 0.84949 0.0
C856 C 0.24051 0.70991 0.34712 0.0
C857 C 0.25924 0.70428 0.33069 0.0
C858 C 0.22479 0.69388 0.35728 0.0
C859 C 0.19897 0.63302 0.34735 0.0
H860 H 0.18314 0.64832 0.41365 0.0
C861 C 0.14151 0.56746 0.39391 0.0
C862 C 0.11912 0.57288 0.40597 0.0
C863 C 0.16025 0.5836 0.386 0.0
C864 C 0.1873 0.64386 0.39508 0.0
H865 H 0.27676 0.67766 0.31245 0.0
H866 H 0.24975 0.64971 0.33051 0.0
H867 H 0.21314 0.67626 0.3974 0.0
H868 H 0.0988 0.59914 0.41978 0.0
H869 H 0.13182 0.6276 0.40618 0.0
H870 H 0.17324 0.60059 0.34513 0.0
C871 C 0.24666 0.66637 0.33515 0.0
C872 C 0.2044 0.65986 0.38572 0.0
C873 C 0.2622 0.68237 0.32484 0.0
C874 C 0.11608 0.59474 0.41059 0.0
C875 C 0.13497 0.61094 0.40288 0.0
C876 C 0.18208 0.617 0.35677 0.0
C877 C 0.22761 0.67189 0.35137 0.0
C878 C 0.21027 0.65469 0.36167 0.0
C879 C 0.15702 0.60546 0.39022 0.0
C880 C 0.17592 0.62229 0.38067 0.0
H881 H 0.23755 0.72662 0.35171 0.0
H882 H 0.20997 0.69865 0.36935 0.0
H883 H 0.20259 0.62854 0.32864 0.0
H884 H 0.14416 0.55065 0.39027 0.0
H885 H 0.17722 0.57897 0.37651 0.0
C886 C 0.81025 0.80625 0.71198 0.0
C887 C 0.79109 0.80261 0.72852 0.0
C888 C 0.81735 0.82679 0.70629 0.0
C889 C 0.81856 0.88589 0.72585 0.0
H890 H 0.815 0.88257 0.65705 0.0
C891 C 0.82874 0.96278 0.68421 0.0
C892 C 0.84261 0.96218 0.66352 0.0
C893 C 0.82373 0.94441 0.69444 0.0
C894 C 0.81656 0.88387 0.67636 0.0
H895 H 0.76475 0.81729 0.75276 0.0
H896 H 0.77732 0.8537 0.74284 0.0
H897 H 0.80386 0.84866 0.67092 0.0
H898 H 0.86272 0.94246 0.6376 0.0
H899 H 0.85524 0.91093 0.65593 0.0
H900 H 0.83161 0.92125 0.7312 0.0
C901 C 0.78691 0.84066 0.73435 0.0
C902 C 0.81003 0.86439 0.68429 0.0
C903 C 0.77967 0.81993 0.73996 0.0
C904 C 0.85229 0.94338 0.65375 0.0
C905 C 0.8476 0.92522 0.66406 0.0
C906 C 0.82533 0.9055 0.71789 0.0
C907 C 0.8054 0.84411 0.71706 0.0
C908 C 0.81127 0.86514 0.70909 0.0
C909 C 0.83253 0.9252 0.68409 0.0
C910 C 0.82474 0.90468 0.69301 0.0
H911 H 0.81929 0.79302 0.70303 0.0
H912 H 0.83196 0.82905 0.69318 0.0
H913 H 0.81972 0.88692 0.7451 0.0
H914 H 0.82081 0.97706 0.6918 0.0
H915 H 0.8119 0.9449 0.70975 0.0
C916 C 0.7012 0.253 0.40039 0.0
C917 C 0.73055 0.25714 0.39932 0.0
C918 C 0.68252 0.253 0.38058 0.0
C919 C 0.67913 0.27693 0.32859 0.0
H920 H 0.6133 0.22841 0.30196 0.0
C921 C 0.6114 0.27272 0.23986 0.0
C922 C 0.58214 0.26367 0.2375 0.0
C923 C 0.62918 0.27158 0.25965 0.0
C924 C 0.6313 0.2423 0.30938 0.0
H925 H 0.76297 0.26358 0.376 0.0
H926 H 0.73044 0.26438 0.34192 0.0
H927 H 0.64447 0.22696 0.33674 0.0
H928 H 0.54833 0.24675 0.25407 0.0
H929 H 0.57909 0.24547 0.28913 0.0
H930 H 0.6658 0.2927 0.30195 0.0
C931 C 0.72202 0.26125 0.35817 0.0
C932 C 0.64919 0.24137 0.32923 0.0
C933 C 0.74063 0.2609 0.37778 0.0
C934 C 0.5709 0.25364 0.25538 0.0
C935 C 0.58859 0.25282 0.27539 0.0
C936 C 0.66103 0.27806 0.30902 0.0
C937 C 0.69284 0.25745 0.35944 0.0
C938 C 0.67338 0.25859 0.33886 0.0
C939 C 0.61801 0.26169 0.27776 0.0
C940 C 0.63697 0.26067 0.29899 0.0
H941 H 0.69267 0.25032 0.41674 0.0
H942 H 0.66008 0.25015 0.38201 0.0
H943 H 0.69749 0.29057 0.33591 0.0
H944 H 0.6206 0.28031 0.22614 0.0
H945 H 0.65173 0.27819 0.26052 0.0
C946 C 0.27175 0.22366 0.79196 0.0
C947 C 0.28715 0.245 0.79161 0.0
C948 C 0.27238 0.20525 0.77363 0.0
C949 C 0.31807 0.18668 0.72956 0.0
H950 H 0.25205 0.13885 0.70101 0.0
C951 C 0.32345 0.11502 0.6503 0.0
C952 C 0.30862 0.09352 0.65051 0.0
C953 C 0.31957 0.13346 0.66685 0.0
C954 C 0.27074 0.15196 0.70901 0.0
H955 H 0.31476 0.26379 0.77147 0.0
H956 H 0.31556 0.23172 0.73936 0.0
H957 H 0.24687 0.17128 0.73077 0.0
H958 H 0.27811 0.07446 0.66827 0.0
H959 H 0.2716 0.10669 0.6975 0.0
H960 H 0.34207 0.16737 0.70825 0.0
C961 C 0.30319 0.22921 0.75391 0.0
C962 C 0.26774 0.17054 0.726 0.0
C963 C 0.30247 0.24761 0.77216 0.0
C964 C 0.28966 0.09085 0.66756 0.0
C965 C 0.28588 0.10932 0.68424 0.0
C966 C 0.32109 0.1681 0.71271 0.0
C967 C 0.28856 0.20779 0.75467 0.0
C968 C 0.29138 0.18813 0.73639 0.0
C969 C 0.30088 0.13085 0.68414 0.0
C970 C 0.29747 0.15053 0.70217 0.0
H971 H 0.25956 0.22118 0.80663 0.0
H972 H 0.26099 0.18894 0.77476 0.0
H973 H 0.33678 0.19975 0.73761 0.0
H974 H 0.33779 0.11763 0.63707 0.0
H975 H 0.33103 0.14982 0.66593 0.0
C976 C 0.35815 0.74534 0.23365 0.0
C977 C 0.33014 0.74722 0.23112 0.0
C978 C 0.3763 0.75161 0.21728 0.0
C979 C 0.37366 0.75736 0.15458 0.0
H980 H 0.45399 0.78395 0.17288 0.0
C981 C 0.44821 0.77657 0.08412 0.0
C982 C 0.4741 0.77071 0.08661 0.0
C983 C 0.43091 0.77638 0.10253 0.0
C984 C 0.43162 0.7764 0.16748 0.0
H985 H 0.2989 0.75756 0.21041 0.0
H986 H 0.3307 0.76893 0.18184 0.0
H987 H 0.42337 0.77967 0.20423 0.0
H988 H 0.50255 0.76009 0.1098 0.0
H989 H 0.47227 0.7595 0.14202 0.0
H990 H 0.38193 0.75372 0.11784 0.0
C991 C 0.3387 0.76241 0.19623 0.0
C992 C 0.41408 0.77397 0.18544 0.0
C993 C 0.32059 0.7561 0.21262 0.0
C994 C 0.48265 0.76478 0.10771 0.0
C995 C 0.46541 0.7646 0.12613 0.0
C996 C 0.39118 0.75981 0.13663 0.0
C997 C 0.36661 0.7598 0.19807 0.0
C998 C 0.38495 0.76415 0.17919 0.0
C999 C 0.43927 0.77029 0.12371 0.0
C1000 C 0.42042 0.76909 0.14286 0.0
H1001 H 0.36572 0.73828 0.24776 0.0
H1002 H 0.39751 0.74912 0.21907 0.0
H1003 H 0.3514 0.74939 0.14909 0.0
H1004 H 0.44134 0.78115 0.06787 0.0
H1005 H 0.41104 0.78103 0.1002 0.0
C1006 C 0.78716 0.21404 0.52343 0.0
C1007 C 0.79014 0.21257 0.49899 0.0
C1008 C 0.79906 0.20094 0.53593 0.0
C1009 C 0.8489 0.16406 0.53269 0.0
H1010 H 0.79672 0.13309 0.56888 0.0
C1011 C 0.85766 0.08132 0.5545 0.0
C1012 C 0.84993 0.07735 0.57656 0.0
C1013 C 0.85445 0.10061 0.54793 0.0
C1014 C 0.81183 0.14186 0.55926 0.0
H1015 H 0.80832 0.19718 0.46838 0.0
H1016 H 0.8291 0.17412 0.49007 0.0
H1017 H 0.78454 0.16248 0.55254 0.0
H1018 H 0.83303 0.09004 0.60916 0.0
H1019 H 0.82775 0.12407 0.59797 0.0
H1020 H 0.87587 0.14295 0.53895 0.0
C1021 C 0.81803 0.18554 0.49983 0.0
C1022 C 0.80484 0.15876 0.54988 0.0
C1023 C 0.80611 0.19865 0.48737 0.0
C1024 C 0.83933 0.09299 0.59215 0.0
C1025 C 0.83615 0.11232 0.58564 0.0
C1026 C 0.85593 0.14714 0.54211 0.0
C1027 C 0.81399 0.18609 0.52408 0.0
C1028 C 0.82306 0.16983 0.53615 0.0
C1029 C 0.84327 0.1162 0.56327 0.0
C1030 C 0.83725 0.13559 0.55518 0.0
H1031 H 0.77471 0.22465 0.5326 0.0
H1032 H 0.7959 0.20198 0.55467 0.0
H1033 H 0.86356 0.17245 0.52245 0.0
H1034 H 0.86535 0.06916 0.54204 0.0
H1035 H 0.85966 0.10285 0.53041 0.0
C1036 C 0.32748 0.26586 0.88362 0.0
C1037 C 0.30872 0.27922 0.88055 0.0
C1038 C 0.33724 0.26445 0.90665 0.0
C1039 C 0.35165 0.29496 0.9699 0.0
H1040 H 0.35675 0.23793 0.98101 0.0
C1041 C 0.40107 0.2857 0.0616 0.0
C1042 C 0.41903 0.27109 0.06007 0.0
C1043 C 0.38435 0.28642 0.04091 0.0
C1044 C 0.35566 0.25401 0.97817 0.0
H1045 H 0.28556 0.30162 0.89954 0.0
H1046 H 0.30327 0.2995 0.94004 0.0
H1047 H 0.33303 0.23966 0.94263 0.0
H1048 H 0.43395 0.24615 0.03555 0.0
H1049 H 0.40511 0.24751 0.99959 0.0
H1050 H 0.37512 0.30939 0.00514 0.0
C1051 C 0.31019 0.29005 0.9244 0.0
C1052 C 0.34198 0.25497 0.95622 0.0
C1053 C 0.30013 0.29129 0.90124 0.0
C1054 C 0.41994 0.25728 0.03744 0.0
C1055 C 0.40334 0.25804 0.01681 0.0
C1056 C 0.36551 0.29401 0.99186 0.0
C1057 C 0.3288 0.27656 0.9273 0.0
C1058 C 0.34036 0.27548 0.95165 0.0
C1059 C 0.3853 0.27258 0.01827 0.0
C1060 C 0.3682 0.27355 0.99603 0.0
H1061 H 0.33527 0.25683 0.86824 0.0
H1062 H 0.35205 0.25429 0.90833 0.0
H1063 H 0.35089 0.31101 0.96679 0.0
H1064 H 0.39969 0.29638 0.07883 0.0
H1065 H 0.37049 0.29765 0.0427 0.0
C1066 C 0.30893 0.79973 0.3328 0.0
C1067 C 0.31652 0.78123 0.33841 0.0
C1068 C 0.31716 0.82044 0.34935 0.0
C1069 C 0.33722 0.84363 0.41513 0.0
H1070 H 0.34998 0.90006 0.39745 0.0
C1071 C 0.35862 0.92616 0.48715 0.0
C1072 C 0.34184 0.94056 0.48282 0.0
C1073 C 0.36011 0.90806 0.46878 0.0
C1074 C 0.34643 0.8844 0.40262 0.0
H1075 H 0.34033 0.77004 0.36469 0.0
H1076 H 0.35559 0.80628 0.39323 0.0
H1077 H 0.34545 0.86593 0.36625 0.0
H1078 H 0.31458 0.94793 0.45556 0.0
H1079 H 0.31705 0.91622 0.4235 0.0
H1080 H 0.33792 0.86202 0.45139 0.0
C1081 C 0.34249 0.80477 0.37649 0.0
C1082 C 0.34377 0.86485 0.38477 0.0
C1083 C 0.33396 0.78405 0.3601 0.0
C1084 C 0.32742 0.93696 0.4595 0.0
C1085 C 0.32908 0.91895 0.44108 0.0
C1086 C 0.3401 0.86315 0.43295 0.0
C1087 C 0.33339 0.82307 0.37172 0.0
C1088 C 0.33875 0.84417 0.39076 0.0
C1089 C 0.34504 0.90409 0.44565 0.0
C1090 C 0.34436 0.88371 0.42686 0.0
H1091 H 0.29529 0.79791 0.31624 0.0
H1092 H 0.30952 0.83407 0.34511 0.0
H1093 H 0.33274 0.82803 0.42042 0.0
H1094 H 0.36984 0.92843 0.50497 0.0
H1095 H 0.37277 0.89698 0.47277 0.0
C1096 C 0.73839 0.76974 0.8199 0.0
C1097 C 0.73991 0.74824 0.80827 0.0
C1098 C 0.72197 0.77292 0.83888 0.0
C1099 C 0.69333 0.74517 0.88498 0.0
H1100 H 0.64565 0.78685 0.89303 0.0
C1101 C 0.64038 0.76493 0.9712 0.0
C1102 C 0.61198 0.76572 0.96772 0.0
C1103 C 0.65632 0.76411 0.95185 0.0
C1104 C 0.65882 0.77509 0.89096 0.0
H1105 H 0.72384 0.7132 0.80613 0.0
H1106 H 0.69542 0.71874 0.83907 0.0
H1107 H 0.67199 0.78275 0.85818 0.0
H1108 H 0.57769 0.76648 0.94193 0.0
H1109 H 0.60545 0.76485 0.90783 0.0
H1110 H 0.67993 0.73717 0.9174 0.0
C1111 C 0.70741 0.73317 0.83405 0.0
C1112 C 0.67407 0.7729 0.87114 0.0
C1113 C 0.72368 0.73 0.81517 0.0
C1114 C 0.59967 0.7659 0.94483 0.0
C1115 C 0.61559 0.76512 0.92546 0.0
C1116 C 0.67823 0.74742 0.90478 0.0
C1117 C 0.70684 0.75465 0.84648 0.0
C1118 C 0.69128 0.75775 0.86783 0.0
C1119 C 0.64406 0.76409 0.92873 0.0
C1120 C 0.66068 0.7623 0.90795 0.0
H1121 H 0.75069 0.78408 0.81495 0.0
H1122 H 0.72194 0.78968 0.84815 0.0
H1123 H 0.7067 0.73356 0.88311 0.0
H1124 H 0.65015 0.76488 0.98885 0.0
H1125 H 0.67827 0.76359 0.95502 0.0
loop_
_geom_bond_atom_site_label_1
_geom_bond_atom_site_label_2
_geom_bond_distance
_geom_bond_site_symmetry_2
_ccdc_geom_bond_type
H0 C3 0.929 . S
H1 C6 0.929 . S
H2 C8 0.930 . S
C3 H0 0.929 . S
C3 C4 1.398 . S
C3 C5 1.396 . S
C4 C3 1.398 . S
C4 C8 1.407 . S
C5 C3 1.396 . S
C5 C6 1.394 . S
C6 H1 0.929 . S
C6 C5 1.394 . S
C6 C7 1.382 . S
C7 C6 1.382 . S
C7 C8 1.392 . S
C7 N9 1.420 . S
C8 H2 0.930 . S
C8 C4 1.407 . S
C8 C7 1.392 . S
N9 C7 1.420 . S
N9 C10 1.244 . S
C10 N9 1.244 . S
H11 C14 0.929 . S
H12 C17 0.929 . S
H13 C19 0.930 . S
C14 H11 0.929 . S
C14 C15 1.398 . S
C14 C16 1.396 . S
C15 C14 1.398 . S
C15 C19 1.407 . S
C16 C14 1.396 . S
C16 C17 1.394 . S
C17 H12 0.929 . S
C17 C16 1.394 . S
C17 C18 1.382 . S
C18 C17 1.382 . S
C18 C19 1.392 . S
C18 N20 1.420 . S
C19 H13 0.930 . S
C19 C15 1.407 . S
C19 C18 1.392 . S
N20 C18 1.420 . S
N20 C21 1.244 . S
C21 N20 1.244 . S
H22 C25 0.929 . S
H23 C28 0.929 . S
H24 C30 0.930 . S
C25 H22 0.929 . S
C25 C26 1.398 . S
C25 C27 1.396 . S
C26 C25 1.398 . S
C26 C30 1.407 . S
C27 C25 1.396 . S
C27 C28 1.394 . S
C28 H23 0.929 . S
C28 C27 1.394 . S
C28 C29 1.382 . S
C29 C28 1.382 . S
C29 C30 1.392 . S
C29 N31 1.420 . S
C30 H24 0.930 . S
C30 C26 1.407 . S
C30 C29 1.392 . S
N31 C29 1.420 . S
N31 C32 1.244 . S
C32 N31 1.244 . S
H33 C36 0.929 . S
H34 C39 0.929 . S
H35 C41 0.930 . S
C36 H33 0.929 . S
C36 C37 1.398 . S
C36 C38 1.396 . S
C37 C36 1.398 . S
C37 C41 1.407 . S
C38 C36 1.396 . S
C38 C39 1.394 . S
C39 H34 0.929 . S
C39 C38 1.394 . S
C39 C40 1.382 . S
C40 C39 1.382 . S
C40 C41 1.392 . S
C40 N42 1.420 . S
C41 H35 0.930 . S
C41 C37 1.407 . S
C41 C40 1.392 . S
N42 C40 1.420 . S
N42 C43 1.244 . S
C43 N42 1.244 . S
H44 C47 0.929 . S
H45 C50 0.929 . S
H46 C52 0.930 . S
C47 H44 0.929 . S
C47 C48 1.398 . S
C47 C49 1.396 . S
C48 C47 1.398 . S
C48 C52 1.407 . S
C49 C47 1.396 . S
C49 C50 1.394 . S
C50 H45 0.929 . S
C50 C49 1.394 . S
C50 C51 1.382 . S
C51 C50 1.382 . S
C51 C52 1.392 . S
C51 N53 1.420 . S
C52 H46 0.930 . S
C52 C48 1.407 . S
C52 C51 1.392 . S
N53 C51 1.420 . S
N53 C54 1.244 . S
C54 N53 1.244 . S
H55 C58 0.929 . S
H56 C61 0.929 . S
H57 C63 0.930 . S
C58 H55 0.929 . S
C58 C59 1.398 . S
C58 C60 1.396 . S
C59 C58 1.398 . S
C59 C63 1.407 . S
C60 C58 1.396 . S
C60 C61 1.394 . S
C61 H56 0.929 . S
C61 C60 1.394 . S
C61 C62 1.382 . S
C62 C61 1.382 . S
C62 C63 1.392 . S
C62 N64 1.420 . S
C63 H57 0.930 . S
C63 C59 1.407 . S
C63 C62 1.392 . S
N64 C62 1.420 . S
N64 C65 1.244 . S
C65 N64 1.244 . S
H66 C69 0.929 . S
H67 C72 0.929 . S
H68 C74 0.930 . S
C69 H66 0.929 . S
C69 C70 1.398 . S
C69 C71 1.396 . S
C70 C69 1.398 . S
C70 C74 1.407 . S
C71 C69 1.396 . S
C71 C72 1.394 . S
C72 H67 0.929 . S
C72 C71 1.394 . S
C72 C73 1.382 . S
C73 C72 1.382 . S
C73 C74 1.392 . S
C73 N75 1.420 . S
C74 H68 0.930 . S
C74 C70 1.407 . S
C74 C73 1.392 . S
N75 C73 1.420 . S
N75 C76 1.244 . S
C76 N75 1.244 . S
H77 C80 0.929 . S
H78 C83 0.929 . S
H79 C85 0.930 . S
C80 H77 0.929 . S
C80 C81 1.398 . S
C80 C82 1.396 . S
C81 C80 1.398 . S
C81 C85 1.407 . S
C82 C80 1.396 . S
C82 C83 1.394 . S
C83 H78 0.929 . S
C83 C82 1.394 . S
C83 C84 1.382 . S
C84 C83 1.382 . S
C84 C85 1.392 . S
C84 N86 1.420 . S
C85 H79 0.930 . S
C85 C81 1.407 . S
C85 C84 1.392 . S
N86 C84 1.420 . S
N86 C87 1.244 . S
C87 N86 1.244 . S
C88 C89 1.443 . S
C88 N92 1.376 . S
C88 C126 1.389 . S
C89 C88 1.443 . S
C89 C90 1.340 . S
C89 H129 0.951 . S
C90 C89 1.340 . S
C90 C91 1.439 . S
C90 H130 0.950 . S
C91 C90 1.439 . S
C91 N92 1.374 . S
C91 C125 1.395 . S
N92 C88 1.376 . S
N92 C91 1.374 . S
N92 Co93 2.008 . S
Co93 N92 2.008 . S
Co93 N94 1.995 . S
Co93 N99 2.008 . S
Co93 N104 1.995 . S
Co93 N109 2.282 . S
Co93 N115 2.282 . S
N94 Co93 1.995 . S
N94 C95 1.376 . S
N94 C98 1.383 . S
C95 N94 1.376 . S
C95 C96 1.446 . S
C95 C125 1.391 . S
C96 C95 1.446 . S
C96 C97 1.339 . S
C96 H131 0.949 . S
C97 C96 1.339 . S
C97 C98 1.439 . S
C97 H132 0.950 . S
C98 N94 1.383 . S
C98 C97 1.439 . S
C98 C127 1.392 . S
N99 Co93 2.008 . S
N99 C100 1.376 . S
N99 C103 1.374 . S
C100 N99 1.376 . S
C100 C101 1.445 . S
C100 C127 1.389 . S
C101 C100 1.445 . S
C101 C102 1.343 . S
C101 H133 0.948 1_455 S
C102 C101 1.343 . S
C102 C103 1.439 . S
C102 H134 0.950 . S
C103 N99 1.374 . S
C103 C102 1.439 . S
C103 C128 1.395 . S
N104 Co93 1.995 . S
N104 C105 1.376 . S
N104 C108 1.383 . S
C105 N104 1.376 . S
C105 C106 1.446 . S
C105 C128 1.391 . S
C106 C105 1.446 . S
C106 C107 1.339 . S
C106 H135 0.949 . S
C107 C106 1.339 . S
C107 C108 1.439 . S
C107 H136 0.950 . S
C108 N104 1.383 . S
C108 C107 1.439 . S
C108 C126 1.392 . S
N109 Co93 2.282 . S
N109 C112 1.332 . S
N109 C114 1.332 . S
C110 C111 1.386 . S
C110 C113 1.388 . S
C111 C110 1.386 . S
C111 C112 1.382 . S
C111 H137 0.950 . S
C112 N109 1.332 . S
C112 C111 1.382 . S
C112 H123 0.952 . S
C113 C110 1.388 . S
C113 C114 1.382 . S
C113 H138 0.950 . S
C114 N109 1.332 . S
C114 C113 1.382 . S
C114 H124 0.948 . S
N115 Co93 2.282 . S
N115 C119 1.332 . S
N115 C120 1.332 . S
C116 C117 1.388 1_455 S
C116 C120 1.382 . S
C116 H139 0.950 1_455 S
C117 C116 1.388 1_655 S
C117 C118 1.386 1_655 S
C118 C117 1.386 1_455 S
C118 C119 1.382 . S
C118 H140 0.950 . S
C119 N115 1.332 . S
C119 C118 1.382 . S
C119 H121 0.952 . S
C120 N115 1.332 . S
C120 C116 1.382 . S
C120 H122 0.948 . S
H121 C119 0.952 . S
H122 C120 0.948 . S
H123 C112 0.952 . S
H124 C114 0.948 . S
C125 C91 1.395 . S
C125 C95 1.391 . S
C126 C88 1.389 . S
C126 C108 1.392 . S
C127 C98 1.392 . S
C127 C100 1.389 . S
C128 C103 1.395 . S
C128 C105 1.391 . S
H129 C89 0.951 . S
H130 C90 0.950 . S
H131 C96 0.949 . S
H132 C97 0.950 . S
H133 C101 0.948 1_655 S
H134 C102 0.950 . S
H135 C106 0.949 . S
H136 C107 0.950 . S
H137 C111 0.950 . S
H138 C113 0.950 . S
H139 C116 0.950 1_655 S
H140 C118 0.950 . S
C141 C142 1.443 . S
C141 N145 1.376 . S
C141 C179 1.389 . S
C142 C141 1.443 . S
C142 C143 1.340 . S
C142 H182 0.951 . S
C143 C142 1.340 . S
C143 C144 1.439 . S
C143 H183 0.950 . S
C144 C143 1.439 . S
C144 N145 1.374 . S
C144 C178 1.395 . S
N145 C141 1.376 . S
N145 C144 1.374 . S
N145 Co146 2.008 . S
Co146 N145 2.008 . S
Co146 N147 1.995 1_455 S
Co146 N152 2.008 1_455 S
Co146 N157 1.995 . S
Co146 N162 2.282 . S
Co146 N168 2.282 1_455 S
N147 Co146 1.995 1_655 S
N147 C148 1.376 1_655 S
N147 C151 1.383 . S
C148 N147 1.376 1_455 S
C148 C149 1.448 1_455 S
C148 C178 1.389 . S
C149 C148 1.448 1_655 S
C149 C150 1.339 . S
C149 H184 0.949 . S
C150 C149 1.339 . S
C150 C151 1.439 . S
C150 H185 0.950 . S
C151 N147 1.383 . S
C151 C150 1.439 . S
C151 C180 1.392 . S
N152 Co146 2.008 1_655 S
N152 C153 1.376 . S
N152 C156 1.374 . S
C153 N152 1.376 . S
C153 C154 1.443 . S
C153 C180 1.389 . S
C154 C153 1.443 . S
C154 C155 1.340 . S
C154 H186 0.951 . S
C155 C154 1.340 . S
C155 C156 1.439 . S
C155 H187 0.950 . S
C156 N152 1.374 . S
C156 C155 1.439 . S
C156 C181 1.395 . S
N157 Co146 1.995 . S
N157 C158 1.376 . S
N157 C161 1.383 . S
C158 N157 1.376 . S
C158 C159 1.446 . S
C158 C181 1.391 1_455 S
C159 C158 1.446 . S
C159 C160 1.339 . S
C159 H188 0.949 . S
C160 C159 1.339 . S
C160 C161 1.439 . S
C160 H189 0.950 . S
C161 N157 1.383 . S
C161 C160 1.439 . S
C161 C179 1.392 . S
N162 Co146 2.282 . S
N162 C165 1.332 . S
N162 C167 1.332 . S
C163 C164 1.386 . S
C163 C166 1.388 . S
C164 C163 1.386 . S
C164 C165 1.382 . S
C164 H190 0.950 . S
C165 N162 1.332 . S
C165 C164 1.382 . S
C165 H176 0.952 . S
C166 C163 1.388 . S
C166 C167 1.382 . S
C166 H191 0.950 . S
C167 N162 1.332 . S
C167 C166 1.382 . S
C167 H177 0.948 . S
N168 Co146 2.282 1_655 S
N168 C172 1.332 . S
N168 C173 1.332 . S
C169 C170 1.388 . S
C169 C173 1.382 . S
C169 H192 0.950 . S
C170 C169 1.388 . S
C170 C171 1.386 . S
C171 C170 1.386 . S
C171 C172 1.382 . S
C171 H193 0.950 . S
C172 N168 1.332 . S
C172 C171 1.382 . S
C172 H174 0.952 . S
C173 N168 1.332 . S
C173 C169 1.382 . S
C173 H175 0.948 . S
H174 C172 0.952 . S
H175 C173 0.948 . S
H176 C165 0.952 . S
H177 C167 0.948 . S
C178 C144 1.395 . S
C178 C148 1.389 . S
C179 C141 1.389 . S
C179 C161 1.392 . S
C180 C151 1.392 . S
C180 C153 1.389 . S
C181 C156 1.395 . S
C181 C158 1.391 1_655 S
H182 C142 0.951 . S
H183 C143 0.950 . S
H184 C149 0.949 . S
H185 C150 0.950 . S
H186 C154 0.951 . S
H187 C155 0.950 . S
H188 C159 0.949 . S
H189 C160 0.950 . S
H190 C164 0.950 . S
H191 C166 0.950 . S
H192 C169 0.950 . S
H193 C171 0.950 . S
C194 C195 1.443 . S
C194 N198 1.376 1_565 S
C194 C232 1.389 . S
C195 C194 1.443 . S
C195 C196 1.340 1_565 S
C195 H235 0.951 . S
C196 C195 1.340 1_545 S
C196 C197 1.439 . S
C196 H236 0.950 . S
C197 C196 1.439 . S
C197 N198 1.374 . S
C197 C231 1.395 . S
N198 C194 1.376 1_545 S
N198 C197 1.374 . S
N198 Co199 2.008 . S
Co199 N198 2.008 . S
Co199 N200 1.995 . S
Co199 N205 2.008 . S
Co199 N210 1.995 . S
Co199 N215 2.282 . S
Co199 N221 2.282 . S
N200 Co199 1.995 . S
N200 C201 1.376 . S
N200 C204 1.383 . S
C201 N200 1.376 . S
C201 C202 1.446 . S
C201 C231 1.391 . S
C202 C201 1.446 . S
C202 C203 1.339 . S
C202 H237 0.949 . S
C203 C202 1.339 . S
C203 C204 1.439 . S
C203 H238 0.950 . S
C204 N200 1.383 . S
C204 C203 1.439 . S
C204 C233 1.392 . S
N205 Co199 2.008 . S
N205 C206 1.376 . S
N205 C209 1.374 . S
C206 N205 1.376 . S
C206 C207 1.443 . S
C206 C233 1.389 . S
C207 C206 1.443 . S
C207 C208 1.340 . S
C207 H239 0.951 . S
C208 C207 1.340 . S
C208 C209 1.439 . S
C208 H240 0.950 . S
C209 N205 1.374 . S
C209 C208 1.439 . S
C209 C234 1.395 . S
N210 Co199 1.995 . S
N210 C211 1.376 . S
N210 C214 1.383 1_545 S
C211 N210 1.376 . S
C211 C212 1.446 1_545 S
C211 C234 1.391 . S
C212 C211 1.446 1_565 S
C212 C213 1.339 . S
C212 H241 0.949 . S
C213 C212 1.339 . S
C213 C214 1.439 . S
C213 H242 0.950 . S
C214 N210 1.383 1_565 S
C214 C213 1.439 . S
C214 C232 1.392 . S
N215 Co199 2.282 . S
N215 C218 1.332 . S
N215 C220 1.332 . S
C216 C217 1.386 . S
C216 C219 1.388 . S
C217 C216 1.386 . S
C217 C218 1.382 . S
C217 H243 0.950 . S
C218 N215 1.332 . S
C218 C217 1.382 . S
C218 H229 0.952 . S
C219 C216 1.388 . S
C219 C220 1.382 . S
C219 H244 0.950 . S
C220 N215 1.332 . S
C220 C219 1.382 . S
C220 H230 0.948 . S
N221 Co199 2.282 . S
N221 C225 1.328 1_545 S
N221 C226 1.332 1_545 S
C222 C223 1.388 . S
C222 C226 1.382 . S
C222 H245 0.950 . S
C223 C222 1.388 . S
C223 C224 1.386 . S
C224 C223 1.386 . S
C224 C225 1.396 . S
C224 H246 0.950 . S
C225 N221 1.328 1_565 S
C225 C224 1.396 . S
C225 H227 0.940 1_565 S
C226 N221 1.332 1_565 S
C226 C222 1.382 . S
C226 H228 0.948 . S
H227 C225 0.940 1_545 S
H228 C226 0.948 . S
H229 C218 0.952 . S
H230 C220 0.948 . S
C231 C197 1.395 . S
C231 C201 1.391 . S
C232 C194 1.389 . S
C232 C214 1.392 . S
C233 C204 1.392 . S
C233 C206 1.389 . S
C234 C209 1.395 . S
C234 C211 1.391 . S
H235 C195 0.951 . S
H236 C196 0.950 . S
H237 C202 0.949 . S
H238 C203 0.950 . S
H239 C207 0.951 . S
H240 C208 0.950 . S
H241 C212 0.949 . S
H242 C213 0.950 . S
H243 C217 0.950 . S
H244 C219 0.950 . S
H245 C222 0.950 . S
H246 C224 0.950 . S
C247 C248 1.443 . S
C247 N251 1.376 . S
C247 C285 1.389 . S
C248 C247 1.443 . S
C248 C249 1.340 . S
C248 H288 0.951 . S
C249 C248 1.340 . S
C249 C250 1.439 . S
C249 H289 0.950 . S
C250 C249 1.439 . S
C250 N251 1.374 . S
C250 C284 1.395 . S
N251 C247 1.376 . S
N251 C250 1.374 . S
N251 Co252 2.019 . S
Co252 N251 2.019 . S
Co252 N253 1.986 1_554 S
Co252 N258 1.997 1_554 S
Co252 N263 2.004 . S
Co252 N268 2.269 1_554 S
Co252 N274 2.296 . S
N253 Co252 1.986 1_556 S
N253 C254 1.371 1_556 S
N253 C257 1.383 . S
C254 N253 1.371 1_554 S
C254 C255 1.423 1_554 S
C254 C284 1.415 . S
C255 C254 1.423 1_556 S
C255 C256 1.339 . S
C255 H290 0.949 . S
C256 C255 1.339 . S
C256 C257 1.439 . S
C256 H291 0.950 . S
C257 N253 1.383 . S
C257 C256 1.439 . S
C257 C286 1.392 . S
N258 Co252 1.997 1_556 S
N258 C259 1.376 . S
N258 C262 1.374 . S
C259 N258 1.376 . S
C259 C260 1.443 . S
C259 C286 1.389 . S
C260 C259 1.443 . S
C260 C261 1.340 . S
C260 H292 0.951 . S
C261 C260 1.340 . S
C261 C262 1.439 . S
C261 H293 0.950 . S
C262 N258 1.374 . S
C262 C261 1.439 . S
C262 C287 1.395 . S
N263 Co252 2.004 . S
N263 C264 1.377 . S
N263 C267 1.383 . S
C264 N263 1.377 . S
C264 C265 1.449 . S
C264 C287 1.388 1_554 S
C265 C264 1.449 . S
C265 C266 1.339 . S
C265 H294 0.949 . S
C266 C265 1.339 . S
C266 C267 1.439 . S
C266 H295 0.950 . S
C267 N263 1.383 . S
C267 C266 1.439 . S
C267 C285 1.392 . S
N268 Co252 2.269 1_556 S
N268 C271 1.332 . S
N268 C273 1.332 . S
C269 C270 1.386 . S
C269 C272 1.388 . S
C270 C269 1.386 . S
C270 C271 1.382 . S
C270 H296 0.950 . S
C271 N268 1.332 . S
C271 C270 1.382 . S
C271 H282 0.952 . S
C272 C269 1.388 . S
C272 C273 1.382 . S
C272 H297 0.950 . S
C273 N268 1.332 . S
C273 C272 1.382 . S
C273 H283 0.948 . S
N274 Co252 2.296 . S
N274 C278 1.332 . S
N274 C279 1.332 . S
C275 C276 1.388 . S
C275 C279 1.382 . S
C275 H298 0.950 . S
C276 C275 1.388 . S
C276 C277 1.386 . S
C277 C276 1.386 . S
C277 C278 1.382 . S
C277 H299 0.950 . S
C278 N274 1.332 . S
C278 C277 1.382 . S
C278 H280 0.952 . S
C279 N274 1.332 . S
C279 C275 1.382 . S
C279 H281 0.948 . S
H280 C278 0.952 . S
H281 C279 0.948 . S
H282 C271 0.952 . S
H283 C273 0.948 . S
C284 C250 1.395 . S
C284 C254 1.415 . S
C285 C247 1.389 . S
C285 C267 1.392 . S
C286 C257 1.392 . S
C286 C259 1.389 . S
C287 C262 1.395 . S
C287 C264 1.388 1_556 S
H288 C248 0.951 . S
H289 C249 0.950 . S
H290 C255 0.949 . S
H291 C256 0.950 . S
H292 C260 0.951 . S
H293 C261 0.950 . S
H294 C265 0.949 . S
H295 C266 0.950 . S
H296 C270 0.950 . S
H297 C272 0.950 . S
H298 C275 0.950 . S
H299 C277 0.950 . S
C300 C301 1.446 1_545 S
C300 N304 1.372 . S
C300 C338 1.390 1_545 S
C301 C300 1.446 1_565 S
C301 C302 1.340 1_565 S
C301 H341 0.951 . S
C302 C301 1.340 1_545 S
C302 C303 1.439 . S
C302 H342 0.950 . S
C303 C302 1.439 . S
C303 N304 1.374 . S
C303 C337 1.395 . S
N304 C300 1.372 . S
N304 C303 1.374 . S
N304 Co305 2.008 . S
Co305 N304 2.008 . S
Co305 N306 1.995 . S
Co305 N311 2.008 . S
Co305 N316 1.995 . S
Co305 N321 2.282 . S
Co305 N327 2.282 . S
N306 Co305 1.995 . S
N306 C307 1.376 . S
N306 C310 1.383 . S
C307 N306 1.376 . S
C307 C308 1.446 . S
C307 C337 1.391 . S
C308 C307 1.446 . S
C308 C309 1.339 . S
C308 H343 0.949 . S
C309 C308 1.339 . S
C309 C310 1.439 . S
C309 H344 0.950 . S
C310 N306 1.383 . S
C310 C309 1.439 . S
C310 C339 1.392 . S
N311 Co305 2.008 . S
N311 C312 1.376 . S
N311 C315 1.374 . S
C312 N311 1.376 . S
C312 C313 1.443 . S
C312 C339 1.389 . S
C313 C312 1.443 . S
C313 C314 1.340 . S
C313 H345 0.951 . S
C314 C313 1.340 . S
C314 C315 1.439 . S
C314 H346 0.950 . S
C315 N311 1.374 . S
C315 C314 1.439 . S
C315 C340 1.395 . S
N316 Co305 1.995 . S
N316 C317 1.376 . S
N316 C320 1.383 1_545 S
C317 N316 1.376 . S
C317 C318 1.446 1_545 S
C317 C340 1.391 . S
C318 C317 1.446 1_565 S
C318 C319 1.339 . S
C318 H347 0.949 . S
C319 C318 1.339 . S
C319 C320 1.439 . S
C319 H348 0.950 . S
C320 N316 1.383 1_565 S
C320 C319 1.439 . S
C320 C338 1.392 . S
N321 Co305 2.282 . S
N321 C324 1.332 . S
N321 C326 1.332 . S
C322 C323 1.386 . S
C322 C325 1.388 . S
C323 C322 1.386 . S
C323 C324 1.382 . S
C323 H349 0.950 . S
C324 N321 1.332 . S
C324 C323 1.382 . S
C324 H335 0.952 . S
C325 C322 1.388 . S
C325 C326 1.382 . S
C325 H350 0.950 . S
C326 N321 1.332 . S
C326 C325 1.382 . S
C326 H336 0.948 . S
N327 Co305 2.282 . S
N327 C331 1.332 . S
N327 C332 1.332 1_545 S
C328 C329 1.388 . S
C328 C332 1.382 . S
C328 H351 0.950 . S
C329 C328 1.388 . S
C329 C330 1.386 . S
C330 C329 1.386 . S
C330 C331 1.382 1_565 S
C330 H352 0.950 . S
C331 N327 1.332 . S
C331 C330 1.382 1_545 S
C331 H333 0.952 . S
C332 N327 1.332 1_565 S
C332 C328 1.382 . S
C332 H334 0.948 . S
H333 C331 0.952 . S
H334 C332 0.948 . S
H335 C324 0.952 . S
H336 C326 0.948 . S
C337 C303 1.395 . S
C337 C307 1.391 . S
C338 C300 1.390 1_565 S
C338 C320 1.392 . S
C339 C310 1.392 . S
C339 C312 1.389 . S
C340 C315 1.395 . S
C340 C317 1.391 . S
H341 C301 0.951 . S
H342 C302 0.950 . S
H343 C308 0.949 . S
H344 C309 0.950 . S
H345 C313 0.951 . S
H346 C314 0.950 . S
H347 C318 0.949 . S
H348 C319 0.950 . S
H349 C323 0.950 . S
H350 C325 0.950 . S
H351 C328 0.950 . S
H352 C330 0.950 . S
C353 C354 1.443 . S
C353 N357 1.376 . S
C353 C391 1.389 . S
C354 C353 1.443 . S
C354 C355 1.340 . S
C354 H394 0.951 . S
C355 C354 1.340 . S
C355 C356 1.439 . S
C355 H395 0.950 . S
C356 C355 1.439 . S
C356 N357 1.374 . S
C356 C390 1.395 . S
N357 C353 1.376 . S
N357 C356 1.374 . S
N357 Co358 2.008 . S
Co358 N357 2.008 . S
Co358 N359 1.995 . S
Co358 N364 2.008 . S
Co358 N369 1.995 . S
Co358 N374 2.282 . S
Co358 N380 2.282 . S
N359 Co358 1.995 . S
N359 C360 1.376 . S
N359 C363 1.383 . S
C360 N359 1.376 . S
C360 C361 1.446 . S
C360 C390 1.391 . S
C361 C360 1.446 . S
C361 C362 1.339 . S
C361 H396 0.949 . S
C362 C361 1.339 . S
C362 C363 1.439 . S
C362 H397 0.950 . S
C363 N359 1.383 . S
C363 C362 1.439 . S
C363 C392 1.392 . S
N364 Co358 2.008 . S
N364 C365 1.376 . S
N364 C368 1.374 . S
C365 N364 1.376 . S
C365 C366 1.443 . S
C365 C392 1.389 . S
C366 C365 1.443 . S
C366 C367 1.340 . S
C366 H398 0.951 . S
C367 C366 1.340 . S
C367 C368 1.439 . S
C367 H399 0.950 . S
C368 N364 1.374 . S
C368 C367 1.439 . S
C368 C393 1.395 . S
N369 Co358 1.995 . S
N369 C370 1.376 . S
N369 C373 1.383 . S
C370 N369 1.376 . S
C370 C371 1.446 . S
C370 C393 1.391 . S
C371 C370 1.446 . S
C371 C372 1.339 . S
C371 H400 0.949 . S
C372 C371 1.339 . S
C372 C373 1.439 . S
C372 H401 0.950 . S
C373 N369 1.383 . S
C373 C372 1.439 . S
C373 C391 1.392 . S
N374 Co358 2.282 . S
N374 C377 1.332 . S
N374 C379 1.332 . S
C375 C376 1.386 . S
C375 C378 1.388 . S
C376 C375 1.386 . S
C376 C377 1.382 . S
C376 H402 0.950 . S
C377 N374 1.332 . S
C377 C376 1.382 . S
C377 H388 0.952 . S
C378 C375 1.388 . S
C378 C379 1.382 . S
C378 H403 0.950 . S
C379 N374 1.332 . S
C379 C378 1.382 . S
C379 H389 0.948 . S
N380 Co358 2.282 . S
N380 C384 1.332 . S
N380 C385 1.332 . S
C381 C382 1.388 . S
C381 C385 1.382 . S
C381 H404 0.950 . S
C382 C381 1.388 . S
C382 C383 1.386 . S
C383 C382 1.386 . S
C383 C384 1.382 . S
C383 H405 0.950 . S
C384 N380 1.332 . S
C384 C383 1.382 . S
C384 H386 0.952 . S
C385 N380 1.332 . S
C385 C381 1.382 . S
C385 H387 0.948 . S
H386 C384 0.952 . S
H387 C385 0.948 . S
H388 C377 0.952 . S
H389 C379 0.948 . S
C390 C356 1.395 . S
C390 C360 1.391 . S
C391 C353 1.389 . S
C391 C373 1.392 . S
C392 C363 1.392 . S
C392 C365 1.389 . S
C393 C368 1.395 . S
C393 C370 1.391 . S
H394 C354 0.951 . S
H395 C355 0.950 . S
H396 C361 0.949 . S
H397 C362 0.950 . S
H398 C366 0.951 . S
H399 C367 0.950 . S
H400 C371 0.949 . S
H401 C372 0.950 . S
H402 C376 0.950 . S
H403 C378 0.950 . S
H404 C381 0.950 . S
H405 C383 0.950 . S
C406 C407 1.349 . S
C406 C408 1.327 . S
C406 H431 0.950 . S
C407 C406 1.349 . S
C407 C423 1.349 . S
C408 C406 1.327 . S
C408 C427 1.429 . S
C408 H432 0.950 . S
C409 C426 1.574 . S
C409 C428 1.368 . S
C409 H433 0.949 . S
H410 C414 0.949 . S
C411 C412 1.349 . S
C411 C413 1.327 . S
C411 H434 0.950 . S
C412 C411 1.349 . S
C412 C424 1.349 . S
C413 C411 1.327 . S
C413 C429 1.429 . S
C413 H435 0.950 . S
C414 H410 0.949 . S
C414 C422 1.574 . S
C414 C430 1.368 . S
H415 C423 0.950 . S
H416 C421 0.950 . S
H417 C422 0.949 . S
H418 C424 0.950 . S
H419 C425 0.950 . S
H420 C426 0.949 . S
C421 H416 0.950 . S
C421 C423 1.327 . S
C421 C427 1.429 . S
C422 C414 1.574 . S
C422 H417 0.949 . S
C422 C428 1.368 . S
C423 C407 1.349 . S
C423 H415 0.950 . S
C423 C421 1.327 . S
C424 C412 1.349 . S
C424 H418 0.950 . S
C424 C425 1.327 . S
C425 H419 0.950 . S
C425 C424 1.327 . S
C425 C429 1.429 . S
C426 C409 1.574 . S
C426 H420 0.949 . S
C426 C430 1.368 . S
C427 C408 1.429 . S
C427 C421 1.429 . S
C427 C428 1.523 . S
C428 C409 1.368 . S
C428 C422 1.368 . S
C428 C427 1.523 . S
C429 C413 1.429 . S
C429 C425 1.429 . S
C429 C430 1.523 . S
C430 C414 1.368 . S
C430 C426 1.368 . S
C430 C429 1.523 . S
H431 C406 0.950 . S
H432 C408 0.950 . S
H433 C409 0.949 . S
H434 C411 0.950 . S
H435 C413 0.950 . S
C436 C437 1.349 . S
C436 C438 1.327 . S
C436 H461 0.950 . S
C437 C436 1.349 . S
C437 C453 1.349 . S
C438 C436 1.327 . S
C438 C457 1.429 . S
C438 H462 0.950 . S
C439 C456 1.574 . S
C439 C458 1.368 . S
C439 H463 0.949 . S
H440 C444 0.949 . S
C441 C442 1.349 . S
C441 C443 1.327 . S
C441 H464 0.950 . S
C442 C441 1.349 . S
C442 C454 1.349 . S
C443 C441 1.327 . S
C443 C459 1.429 . S
C443 H465 0.950 . S
C444 H440 0.949 . S
C444 C452 1.574 . S
C444 C460 1.368 . S
H445 C453 0.950 . S
H446 C451 0.950 . S
H447 C452 0.949 . S
H448 C454 0.950 . S
H449 C455 0.950 . S
H450 C456 0.949 . S
C451 H446 0.950 . S
C451 C453 1.327 . S
C451 C457 1.429 . S
C452 C444 1.574 . S
C452 H447 0.949 . S
C452 C458 1.368 . S
C453 C437 1.349 . S
C453 H445 0.950 . S
C453 C451 1.327 . S
C454 C442 1.349 . S
C454 H448 0.950 . S
C454 C455 1.327 . S
C455 H449 0.950 . S
C455 C454 1.327 . S
C455 C459 1.429 . S
C456 C439 1.574 . S
C456 H450 0.949 . S
C456 C460 1.368 . S
C457 C438 1.429 . S
C457 C451 1.429 . S
C457 C458 1.523 . S
C458 C439 1.368 . S
C458 C452 1.368 . S
C458 C457 1.523 . S
C459 C443 1.429 . S
C459 C455 1.429 . S
C459 C460 1.523 . S
C460 C444 1.368 . S
C460 C456 1.368 . S
C460 C459 1.523 . S
H461 C436 0.950 . S
H462 C438 0.950 . S
H463 C439 0.949 . S
H464 C441 0.950 . S
H465 C443 0.950 . S
C466 C467 1.349 . S
C466 C468 1.327 . S
C466 H491 0.950 . S
C467 C466 1.349 . S
C467 C483 1.349 . S
C468 C466 1.327 . S
C468 C487 1.429 . S
C468 H492 0.950 . S
C469 C486 1.574 . S
C469 C488 1.368 . S
C469 H493 0.949 . S
H470 C474 0.949 . S
C471 C472 1.349 . S
C471 C473 1.327 . S
C471 H494 0.950 . S
C472 C471 1.349 . S
C472 C484 1.349 . S
C473 C471 1.327 . S
C473 C489 1.429 . S
C473 H495 0.950 . S
C474 H470 0.949 . S
C474 C482 1.574 . S
C474 C490 1.368 . S
H475 C483 0.950 . S
H476 C481 0.950 . S
H477 C482 0.949 . S
H478 C484 0.950 1_455 S
H479 C485 0.950 . S
H480 C486 0.949 . S
C481 H476 0.950 . S
C481 C483 1.327 . S
C481 C487 1.429 . S
C482 C474 1.574 . S
C482 H477 0.949 . S
C482 C488 1.368 . S
C483 C467 1.349 . S
C483 H475 0.950 . S
C483 C481 1.327 . S
C484 C472 1.349 . S
C484 H478 0.950 1_655 S
C484 C485 1.327 . S
C485 H479 0.950 . S
C485 C484 1.327 . S
C485 C489 1.429 . S
C486 C469 1.574 . S
C486 H480 0.949 . S
C486 C490 1.368 . S
C487 C468 1.429 . S
C487 C481 1.429 . S
C487 C488 1.523 . S
C488 C469 1.368 . S
C488 C482 1.368 . S
C488 C487 1.523 . S
C489 C473 1.429 . S
C489 C485 1.429 . S
C489 C490 1.523 . S
C490 C474 1.368 . S
C490 C486 1.368 . S
C490 C489 1.523 . S
H491 C466 0.950 . S
H492 C468 0.950 . S
H493 C469 0.949 . S
H494 C471 0.950 . S
H495 C473 0.950 . S
C496 C497 1.349 . S
C496 C498 1.327 . S
C496 H521 0.950 . S
C497 C496 1.349 . S
C497 C513 1.349 . S
C498 C496 1.327 . S
C498 C517 1.429 . S
C498 H522 0.950 . S
C499 C516 1.574 . S
C499 C518 1.368 . S
C499 H523 0.949 . S
H500 C504 0.949 . S
C501 C502 1.349 . S
C501 C503 1.327 . S
C501 H524 0.950 . S
C502 C501 1.349 . S
C502 C514 1.349 . S
C503 C501 1.327 . S
C503 C519 1.429 . S
C503 H525 0.950 . S
C504 H500 0.949 . S
C504 C512 1.574 . S
C504 C520 1.368 . S
H505 C513 0.950 . S
H506 C511 0.950 . S
H507 C512 0.949 . S
H508 C514 0.950 . S
H509 C515 0.950 . S
H510 C516 0.949 . S
C511 H506 0.950 . S
C511 C513 1.327 . S
C511 C517 1.429 . S
C512 C504 1.574 . S
C512 H507 0.949 . S
C512 C518 1.368 . S
C513 C497 1.349 . S
C513 H505 0.950 . S
C513 C511 1.327 . S
C514 C502 1.349 . S
C514 H508 0.950 . S
C514 C515 1.327 . S
C515 H509 0.950 . S
C515 C514 1.327 . S
C515 C519 1.429 . S
C516 C499 1.574 . S
C516 H510 0.949 . S
C516 C520 1.368 . S
C517 C498 1.429 . S
C517 C511 1.429 . S
C517 C518 1.523 . S
C518 C499 1.368 . S
C518 C512 1.368 . S
C518 C517 1.523 . S
C519 C503 1.429 . S
C519 C515 1.429 . S
C519 C520 1.523 . S
C520 C504 1.368 . S
C520 C516 1.368 . S
C520 C519 1.523 . S
H521 C496 0.950 . S
H522 C498 0.950 . S
H523 C499 0.949 . S
H524 C501 0.950 . S
H525 C503 0.950 . S
C526 C527 1.349 . S
C526 C528 1.327 . S
C526 H551 0.950 . S
C527 C526 1.349 . S
C527 C543 1.349 . S
C528 C526 1.327 . S
C528 C547 1.429 . S
C528 H552 0.950 . S
C529 C546 1.574 . S
C529 C548 1.368 . S
C529 H553 0.949 . S
H530 C534 0.949 . S
C531 C532 1.349 . S
C531 C533 1.327 . S
C531 H554 0.950 . S
C532 C531 1.349 . S
C532 C544 1.349 . S
C533 C531 1.327 . S
C533 C549 1.429 . S
C533 H555 0.950 . S
C534 H530 0.949 . S
C534 C542 1.574 . S
C534 C550 1.368 . S
H535 C543 0.950 . S
H536 C541 0.950 . S
H537 C542 0.949 . S
H538 C544 0.950 . S
H539 C545 0.950 . S
H540 C546 0.949 . S
C541 H536 0.950 . S
C541 C543 1.327 . S
C541 C547 1.429 . S
C542 C534 1.574 . S
C542 H537 0.949 . S
C542 C548 1.368 . S
C543 C527 1.349 . S
C543 H535 0.950 . S
C543 C541 1.327 . S
C544 C532 1.349 . S
C544 H538 0.950 . S
C544 C545 1.327 . S
C545 H539 0.950 . S
C545 C544 1.327 . S
C545 C549 1.429 . S
C546 C529 1.574 . S
C546 H540 0.949 . S
C546 C550 1.368 . S
C547 C528 1.429 . S
C547 C541 1.429 . S
C547 C548 1.523 . S
C548 C529 1.368 . S
C548 C542 1.368 . S
C548 C547 1.523 . S
C549 C533 1.429 . S
C549 C545 1.429 . S
C549 C550 1.523 . S
C550 C534 1.368 . S
C550 C546 1.368 . S
C550 C549 1.523 . S
H551 C526 0.950 . S
H552 C528 0.950 . S
H553 C529 0.949 . S
H554 C531 0.950 . S
H555 C533 0.950 . S
C556 C557 1.349 . S
C556 C558 1.327 . S
C556 H581 0.950 . S
C557 C556 1.349 . S
C557 C573 1.349 . S
C558 C556 1.327 . S
C558 C577 1.429 . S
C558 H582 0.950 . S
C559 C576 1.574 . S
C559 C578 1.368 . S
C559 H583 0.949 . S
H560 C564 0.949 . S
C561 C562 1.349 . S
C561 C563 1.327 . S
C561 H584 0.950 . S
C562 C561 1.349 . S
C562 C574 1.349 . S
C563 C561 1.327 . S
C563 C579 1.429 . S
C563 H585 0.950 . S
C564 H560 0.949 . S
C564 C572 1.574 . S
C564 C580 1.368 . S
H565 C573 0.950 . S
H566 C571 0.950 . S
H567 C572 0.949 . S
H568 C574 0.950 . S
H569 C575 0.950 . S
H570 C576 0.949 . S
C571 H566 0.950 . S
C571 C573 1.327 . S
C571 C577 1.429 . S
C572 C564 1.574 . S
C572 H567 0.949 . S
C572 C578 1.368 . S
C573 C557 1.349 . S
C573 H565 0.950 . S
C573 C571 1.327 . S
C574 C562 1.349 . S
C574 H568 0.950 . S
C574 C575 1.327 . S
C575 H569 0.950 . S
C575 C574 1.327 . S
C575 C579 1.429 . S
C576 C559 1.574 . S
C576 H570 0.949 . S
C576 C580 1.368 . S
C577 C558 1.429 . S
C577 C571 1.429 . S
C577 C578 1.523 . S
C578 C559 1.368 . S
C578 C572 1.368 . S
C578 C577 1.523 . S
C579 C563 1.429 . S
C579 C575 1.429 . S
C579 C580 1.523 . S
C580 C564 1.368 . S
C580 C576 1.368 . S
C580 C579 1.523 . S
H581 C556 0.950 . S
H582 C558 0.950 . S
H583 C559 0.949 . S
H584 C561 0.950 . S
H585 C563 0.950 . S
C586 C587 1.349 . S
C586 C588 1.327 . S
C586 H611 0.950 . S
C587 C586 1.349 . S
C587 C603 1.349 . S
C588 C586 1.327 . S
C588 C607 1.429 . S
C588 H612 0.950 . S
C589 C606 1.574 . S
C589 C608 1.368 . S
C589 H613 0.949 . S
H590 C594 0.949 . S
C591 C592 1.349 . S
C591 C593 1.327 . S
C591 H614 0.950 . S
C592 C591 1.349 . S
C592 C604 1.349 . S
C593 C591 1.327 . S
C593 C609 1.429 . S
C593 H615 0.950 . S
C594 H590 0.949 . S
C594 C602 1.574 . S
C594 C610 1.368 . S
H595 C603 0.950 . S
H596 C601 0.950 . S
H597 C602 0.949 . S
H598 C604 0.950 . S
H599 C605 0.950 . S
H600 C606 0.949 . S
C601 H596 0.950 . S
C601 C603 1.327 . S
C601 C607 1.429 . S
C602 C594 1.574 . S
C602 H597 0.949 . S
C602 C608 1.368 . S
C603 C587 1.349 . S
C603 H595 0.950 . S
C603 C601 1.327 . S
C604 C592 1.349 . S
C604 H598 0.950 . S
C604 C605 1.327 . S
C605 H599 0.950 . S
C605 C604 1.327 . S
C605 C609 1.429 . S
C606 C589 1.574 . S
C606 H600 0.949 . S
C606 C610 1.368 . S
C607 C588 1.429 . S
C607 C601 1.429 . S
C607 C608 1.523 . S
C608 C589 1.368 . S
C608 C602 1.368 . S
C608 C607 1.523 . S
C609 C593 1.429 . S
C609 C605 1.429 . S
C609 C610 1.523 . S
C610 C594 1.368 . S
C610 C606 1.368 . S
C610 C609 1.523 . S
H611 C586 0.950 . S
H612 C588 0.950 . S
H613 C589 0.949 . S
H614 C591 0.950 . S
H615 C593 0.950 . S
C616 C617 1.349 . S
C616 C618 1.327 . S
C616 H641 0.950 . S
C617 C616 1.349 . S
C617 C633 1.349 . S
C618 C616 1.327 . S
C618 C637 1.429 . S
C618 H642 0.950 . S
C619 C636 1.574 1_556 S
C619 C638 1.368 . S
C619 H643 0.949 . S
H620 C624 0.949 . S
C621 C622 1.349 . S
C621 C623 1.327 . S
C621 H644 0.950 . S
C622 C621 1.349 . S
C622 C634 1.349 . S
C623 C621 1.327 . S
C623 C639 1.429 . S
C623 H645 0.950 . S
C624 H620 0.949 . S
C624 C632 1.574 . S
C624 C640 1.368 . S
H625 C633 0.950 . S
H626 C631 0.950 . S
H627 C632 0.949 1_556 S
H628 C634 0.950 . S
H629 C635 0.950 . S
H630 C636 0.949 . S
C631 H626 0.950 . S
C631 C633 1.327 . S
C631 C637 1.429 . S
C632 C624 1.574 . S
C632 H627 0.949 1_554 S
C632 C638 1.368 1_554 S
C633 C617 1.349 . S
C633 H625 0.950 . S
C633 C631 1.327 . S
C634 C622 1.349 . S
C634 H628 0.950 . S
C634 C635 1.327 . S
C635 H629 0.950 . S
C635 C634 1.327 . S
C635 C639 1.429 . S
C636 C619 1.574 1_554 S
C636 H630 0.949 . S
C636 C640 1.368 . S
C637 C618 1.429 . S
C637 C631 1.429 . S
C637 C638 1.523 . S
C638 C619 1.368 . S
C638 C632 1.368 1_556 S
C638 C637 1.523 . S
C639 C623 1.429 . S
C639 C635 1.429 . S
C639 C640 1.523 . S
C640 C624 1.368 . S
C640 C636 1.368 . S
C640 C639 1.523 . S
H641 C616 0.950 . S
H642 C618 0.950 . S
H643 C619 0.949 . S
H644 C621 0.950 . S
H645 C623 0.950 . S
C646 C647 1.349 . S
C646 C648 1.327 . S
C646 H671 0.950 . S
C647 C646 1.349 . S
C647 C663 1.349 . S
C648 C646 1.327 . S
C648 C667 1.429 . S
C648 H672 0.950 . S
C649 C666 1.574 . S
C649 C668 1.368 . S
C649 H673 0.949 . S
H650 C654 0.949 . S
C651 C652 1.349 . S
C651 C653 1.327 . S
C651 H674 0.950 . S
C652 C651 1.349 . S
C652 C664 1.349 . S
C653 C651 1.327 . S
C653 C669 1.429 . S
C653 H675 0.950 . S
C654 H650 0.949 . S
C654 C662 1.574 . S
C654 C670 1.368 . S
H655 C663 0.950 . S
H656 C661 0.950 . S
H657 C662 0.949 . S
H658 C664 0.950 . S
H659 C665 0.950 . S
H660 C666 0.949 . S
C661 H656 0.950 . S
C661 C663 1.327 . S
C661 C667 1.429 . S
C662 C654 1.574 . S
C662 H657 0.949 . S
C662 C668 1.368 . S
C663 C647 1.349 . S
C663 H655 0.950 . S
C663 C661 1.327 . S
C664 C652 1.349 . S
C664 H658 0.950 . S
C664 C665 1.327 . S
C665 H659 0.950 . S
C665 C664 1.327 . S
C665 C669 1.429 . S
C666 C649 1.574 . S
C666 H660 0.949 . S
C666 C670 1.368 . S
C667 C648 1.429 . S
C667 C661 1.429 . S
C667 C668 1.523 . S
C668 C649 1.368 . S
C668 C662 1.368 . S
C668 C667 1.523 . S
C669 C653 1.429 . S
C669 C665 1.429 . S
C669 C670 1.523 . S
C670 C654 1.368 . S
C670 C666 1.368 . S
C670 C669 1.523 . S
H671 C646 0.950 . S
H672 C648 0.950 . S
H673 C649 0.949 . S
H674 C651 0.950 . S
H675 C653 0.950 . S
C676 C677 1.349 . S
C676 C678 1.327 . S
C676 H701 0.950 . S
C677 C676 1.349 . S
C677 C693 1.349 . S
C678 C676 1.327 . S
C678 C697 1.429 . S
C678 H702 0.950 . S
C679 C696 1.574 . S
C679 C698 1.368 . S
C679 H703 0.949 . S
H680 C684 0.949 . S
C681 C682 1.349 . S
C681 C683 1.327 . S
C681 H704 0.950 . S
C682 C681 1.349 . S
C682 C694 1.349 . S
C683 C681 1.327 . S
C683 C699 1.429 . S
C683 H705 0.950 . S
C684 H680 0.949 . S
C684 C692 1.574 . S
C684 C700 1.368 . S
H685 C693 0.950 . S
H686 C691 0.950 . S
H687 C692 0.949 . S
H688 C694 0.950 . S
H689 C695 0.950 . S
H690 C696 0.949 . S
C691 H686 0.950 . S
C691 C693 1.327 . S
C691 C697 1.429 . S
C692 C684 1.574 . S
C692 H687 0.949 . S
C692 C698 1.368 . S
C693 C677 1.349 . S
C693 H685 0.950 . S
C693 C691 1.327 . S
C694 C682 1.349 . S
C694 H688 0.950 . S
C694 C695 1.327 . S
C695 H689 0.950 . S
C695 C694 1.327 . S
C695 C699 1.429 . S
C696 C679 1.574 . S
C696 H690 0.949 . S
C696 C700 1.368 . S
C697 C678 1.429 . S
C697 C691 1.429 . S
C697 C698 1.523 . S
C698 C679 1.368 . S
C698 C692 1.368 . S
C698 C697 1.523 . S
C699 C683 1.429 . S
C699 C695 1.429 . S
C699 C700 1.523 . S
C700 C684 1.368 . S
C700 C696 1.368 . S
C700 C699 1.523 . S
H701 C676 0.950 . S
H702 C678 0.950 . S
H703 C679 0.949 . S
H704 C681 0.950 . S
H705 C683 0.950 . S
C706 C707 1.349 . S
C706 C708 1.327 . S
C706 H731 0.950 . S
C707 C706 1.349 . S
C707 C723 1.349 . S
C708 C706 1.327 . S
C708 C727 1.429 . S
C708 H732 0.950 . S
C709 C726 1.574 . S
C709 C728 1.368 . S
C709 H733 0.949 . S
H710 C714 0.949 . S
C711 C712 1.349 . S
C711 C713 1.327 . S
C711 H734 0.950 . S
C712 C711 1.349 . S
C712 C724 1.349 . S
C713 C711 1.327 . S
C713 C729 1.429 . S
C713 H735 0.950 . S
C714 H710 0.949 . S
C714 C722 1.574 . S
C714 C730 1.368 . S
H715 C723 0.950 . S
H716 C721 0.950 . S
H717 C722 0.949 . S
H718 C724 0.950 . S
H719 C725 0.950 . S
H720 C726 0.949 . S
C721 H716 0.950 . S
C721 C723 1.327 . S
C721 C727 1.429 . S
C722 C714 1.574 . S
C722 H717 0.949 . S
C722 C728 1.368 . S
C723 C707 1.349 . S
C723 H715 0.950 . S
C723 C721 1.327 . S
C724 C712 1.349 . S
C724 H718 0.950 . S
C724 C725 1.327 . S
C725 H719 0.950 . S
C725 C724 1.327 . S
C725 C729 1.429 . S
C726 C709 1.574 . S
C726 H720 0.949 . S
C726 C730 1.368 . S
C727 C708 1.429 . S
C727 C721 1.429 . S
C727 C728 1.523 . S
C728 C709 1.368 . S
C728 C722 1.368 . S
C728 C727 1.523 . S
C729 C713 1.429 . S
C729 C725 1.429 . S
C729 C730 1.523 . S
C730 C714 1.368 . S
C730 C726 1.368 . S
C730 C729 1.523 . S
H731 C706 0.950 . S
H732 C708 0.950 . S
H733 C709 0.949 . S
H734 C711 0.950 . S
H735 C713 0.950 . S
C736 C737 1.349 . S
C736 C738 1.327 . S
C736 H761 0.950 . S
C737 C736 1.349 . S
C737 C753 1.349 . S
C738 C736 1.327 . S
C738 C757 1.429 . S
C738 H762 0.950 . S
C739 C756 1.574 . S
C739 C758 1.368 . S
C739 H763 0.949 . S
H740 C744 0.949 . S
C741 C742 1.349 . S
C741 C743 1.327 . S
C741 H764 0.950 . S
C742 C741 1.349 . S
C742 C754 1.349 . S
C743 C741 1.327 . S
C743 C759 1.429 . S
C743 H765 0.950 . S
C744 H740 0.949 . S
C744 C752 1.574 . S
C744 C760 1.368 . S
H745 C753 0.950 . S
H746 C751 0.950 . S
H747 C752 0.949 . S
H748 C754 0.950 . S
H749 C755 0.950 . S
H750 C756 0.949 . S
C751 H746 0.950 . S
C751 C753 1.327 . S
C751 C757 1.429 . S
C752 C744 1.574 . S
C752 H747 0.949 . S
C752 C758 1.368 . S
C753 C737 1.349 . S
C753 H745 0.950 . S
C753 C751 1.327 . S
C754 C742 1.349 . S
C754 H748 0.950 . S
C754 C755 1.327 . S
C755 H749 0.950 . S
C755 C754 1.327 . S
C755 C759 1.429 . S
C756 C739 1.574 . S
C756 H750 0.949 . S
C756 C760 1.368 . S
C757 C738 1.429 . S
C757 C751 1.429 . S
C757 C758 1.523 . S
C758 C739 1.368 . S
C758 C752 1.368 . S
C758 C757 1.523 . S
C759 C743 1.429 . S
C759 C755 1.429 . S
C759 C760 1.523 . S
C760 C744 1.368 . S
C760 C756 1.368 . S
C760 C759 1.523 . S
H761 C736 0.950 . S
H762 C738 0.950 . S
H763 C739 0.949 . S
H764 C741 0.950 . S
H765 C743 0.950 . S
C766 C767 1.349 . S
C766 C768 1.327 . S
C766 H791 0.950 . S
C767 C766 1.349 . S
C767 C783 1.349 . S
C768 C766 1.327 . S
C768 C787 1.429 . S
C768 H792 0.950 . S
C769 C786 1.574 . S
C769 C788 1.368 . S
C769 H793 0.949 . S
H770 C774 0.949 . S
C771 C772 1.349 . S
C771 C773 1.327 . S
C771 H794 0.950 . S
C772 C771 1.349 . S
C772 C784 1.349 . S
C773 C771 1.327 . S
C773 C789 1.429 . S
C773 H795 0.950 . S
C774 H770 0.949 . S
C774 C782 1.574 . S
C774 C790 1.368 . S
H775 C783 0.950 . S
H776 C781 0.950 . S
H777 C782 0.949 . S
H778 C784 0.950 . S
H779 C785 0.950 . S
H780 C786 0.949 . S
C781 H776 0.950 . S
C781 C783 1.327 . S
C781 C787 1.429 . S
C782 C774 1.574 . S
C782 H777 0.949 . S
C782 C788 1.368 . S
C783 C767 1.349 . S
C783 H775 0.950 . S
C783 C781 1.327 . S
C784 C772 1.349 . S
C784 H778 0.950 . S
C784 C785 1.327 . S
C785 H779 0.950 . S
C785 C784 1.327 . S
C785 C789 1.429 . S
C786 C769 1.574 . S
C786 H780 0.949 . S
C786 C790 1.368 . S
C787 C768 1.429 . S
C787 C781 1.429 . S
C787 C788 1.523 . S
C788 C769 1.368 . S
C788 C782 1.368 . S
C788 C787 1.523 . S
C789 C773 1.429 . S
C789 C785 1.429 . S
C789 C790 1.523 . S
C790 C774 1.368 . S
C790 C786 1.368 . S
C790 C789 1.523 . S
H791 C766 0.950 . S
H792 C768 0.950 . S
H793 C769 0.949 . S
H794 C771 0.950 . S
H795 C773 0.950 . S
C796 C797 1.349 . S
C796 C798 1.327 . S
C796 H821 0.950 . S
C797 C796 1.349 . S
C797 C813 1.349 . S
C798 C796 1.327 . S
C798 C817 1.429 . S
C798 H822 0.950 . S
C799 C816 1.574 . S
C799 C818 1.368 . S
C799 H823 0.949 . S
H800 C804 0.949 . S
C801 C802 1.349 . S
C801 C803 1.327 . S
C801 H824 0.950 1_655 S
C802 C801 1.349 . S
C802 C814 1.349 . S
C803 C801 1.327 . S
C803 C819 1.429 . S
C803 H825 0.950 . S
C804 H800 0.949 . S
C804 C812 1.574 . S
C804 C820 1.368 . S
H805 C813 0.950 . S
H806 C811 0.950 . S
H807 C812 0.949 . S
H808 C814 0.950 . S
H809 C815 0.950 . S
H810 C816 0.949 . S
C811 H806 0.950 . S
C811 C813 1.327 . S
C811 C817 1.429 . S
C812 C804 1.574 . S
C812 H807 0.949 . S
C812 C818 1.368 . S
C813 C797 1.349 . S
C813 H805 0.950 . S
C813 C811 1.327 . S
C814 C802 1.349 . S
C814 H808 0.950 . S
C814 C815 1.327 . S
C815 H809 0.950 . S
C815 C814 1.327 . S
C815 C819 1.429 . S
C816 C799 1.574 . S
C816 H810 0.949 . S
C816 C820 1.368 . S
C817 C798 1.429 . S
C817 C811 1.429 . S
C817 C818 1.523 . S
C818 C799 1.368 . S
C818 C812 1.368 . S
C818 C817 1.523 . S
C819 C803 1.429 . S
C819 C815 1.429 . S
C819 C820 1.523 . S
C820 C804 1.368 . S
C820 C816 1.368 . S
C820 C819 1.523 . S
H821 C796 0.950 . S
H822 C798 0.950 . S
H823 C799 0.949 . S
H824 C801 0.950 1_455 S
H825 C803 0.950 . S
C826 C827 1.349 . S
C826 C828 1.327 . S
C826 H851 0.950 . S
C827 C826 1.349 . S
C827 C843 1.349 . S
C828 C826 1.327 . S
C828 C847 1.429 . S
C828 H852 0.950 . S
C829 C846 1.574 . S
C829 C848 1.368 . S
C829 H853 0.949 . S
H830 C834 0.949 . S
C831 C832 1.349 . S
C831 C833 1.327 . S
C831 H854 0.950 . S
C832 C831 1.349 . S
C832 C844 1.349 . S
C833 C831 1.327 . S
C833 C849 1.429 . S
C833 H855 0.950 . S
C834 H830 0.949 . S
C834 C842 1.574 . S
C834 C850 1.368 . S
H835 C843 0.950 . S
H836 C841 0.950 . S
H837 C842 0.949 . S
H838 C844 0.950 . S
H839 C845 0.950 . S
H840 C846 0.949 . S
C841 H836 0.950 . S
C841 C843 1.327 . S
C841 C847 1.429 . S
C842 C834 1.574 . S
C842 H837 0.949 . S
C842 C848 1.368 . S
C843 C827 1.349 . S
C843 H835 0.950 . S
C843 C841 1.327 . S
C844 C832 1.349 . S
C844 H838 0.950 . S
C844 C845 1.327 . S
C845 H839 0.950 . S
C845 C844 1.327 . S
C845 C849 1.429 . S
C846 C829 1.574 . S
C846 H840 0.949 . S
C846 C850 1.368 . S
C847 C828 1.429 . S
C847 C841 1.429 . S
C847 C848 1.523 . S
C848 C829 1.368 . S
C848 C842 1.368 . S
C848 C847 1.523 . S
C849 C833 1.429 . S
C849 C845 1.429 . S
C849 C850 1.523 . S
C850 C834 1.368 . S
C850 C846 1.368 . S
C850 C849 1.523 . S
H851 C826 0.950 . S
H852 C828 0.950 . S
H853 C829 0.949 . S
H854 C831 0.950 . S
H855 C833 0.950 . S
C856 C857 1.349 . S
C856 C858 1.327 . S
C856 H881 0.950 . S
C857 C856 1.349 . S
C857 C873 1.349 . S
C858 C856 1.327 . S
C858 C877 1.429 . S
C858 H882 0.950 . S
C859 C876 1.574 . S
C859 C878 1.368 . S
C859 H883 0.949 . S
H860 C864 0.949 . S
C861 C862 1.349 . S
C861 C863 1.327 . S
C861 H884 0.950 . S
C862 C861 1.349 . S
C862 C874 1.349 . S
C863 C861 1.327 . S
C863 C879 1.429 . S
C863 H885 0.950 . S
C864 H860 0.949 . S
C864 C872 1.574 . S
C864 C880 1.368 . S
H865 C873 0.950 . S
H866 C871 0.950 . S
H867 C872 0.949 . S
H868 C874 0.950 . S
H869 C875 0.950 . S
H870 C876 0.949 . S
C871 H866 0.950 . S
C871 C873 1.327 . S
C871 C877 1.429 . S
C872 C864 1.574 . S
C872 H867 0.949 . S
C872 C878 1.368 . S
C873 C857 1.349 . S
C873 H865 0.950 . S
C873 C871 1.327 . S
C874 C862 1.349 . S
C874 H868 0.950 . S
C874 C875 1.327 . S
C875 H869 0.950 . S
C875 C874 1.327 . S
C875 C879 1.429 . S
C876 C859 1.574 . S
C876 H870 0.949 . S
C876 C880 1.368 . S
C877 C858 1.429 . S
C877 C871 1.429 . S
C877 C878 1.523 . S
C878 C859 1.368 . S
C878 C872 1.368 . S
C878 C877 1.523 . S
C879 C863 1.429 . S
C879 C875 1.429 . S
C879 C880 1.523 . S
C880 C864 1.368 . S
C880 C876 1.368 . S
C880 C879 1.523 . S
H881 C856 0.950 . S
H882 C858 0.950 . S
H883 C859 0.949 . S
H884 C861 0.950 . S
H885 C863 0.950 . S
C886 C887 1.349 . S
C886 C888 1.327 . S
C886 H911 0.950 . S
C887 C886 1.349 . S
C887 C903 1.349 . S
C888 C886 1.327 . S
C888 C907 1.429 . S
C888 H912 0.950 . S
C889 C906 1.574 . S
C889 C908 1.368 . S
C889 H913 0.949 . S
H890 C894 0.949 . S
C891 C892 1.349 . S
C891 C893 1.327 . S
C891 H914 0.950 . S
C892 C891 1.349 . S
C892 C904 1.349 . S
C893 C891 1.327 . S
C893 C909 1.429 . S
C893 H915 0.950 . S
C894 H890 0.949 . S
C894 C902 1.574 . S
C894 C910 1.368 . S
H895 C903 0.950 . S
H896 C901 0.950 . S
H897 C902 0.949 . S
H898 C904 0.950 . S
H899 C905 0.950 . S
H900 C906 0.949 . S
C901 H896 0.950 . S
C901 C903 1.327 . S
C901 C907 1.429 . S
C902 C894 1.574 . S
C902 H897 0.949 . S
C902 C908 1.368 . S
C903 C887 1.349 . S
C903 H895 0.950 . S
C903 C901 1.327 . S
C904 C892 1.349 . S
C904 H898 0.950 . S
C904 C905 1.327 . S
C905 H899 0.950 . S
C905 C904 1.327 . S
C905 C909 1.429 . S
C906 C889 1.574 . S
C906 H900 0.949 . S
C906 C910 1.368 . S
C907 C888 1.429 . S
C907 C901 1.429 . S
C907 C908 1.523 . S
C908 C889 1.368 . S
C908 C902 1.368 . S
C908 C907 1.523 . S
C909 C893 1.429 . S
C909 C905 1.429 . S
C909 C910 1.523 . S
C910 C894 1.368 . S
C910 C906 1.368 . S
C910 C909 1.523 . S
H911 C886 0.950 . S
H912 C888 0.950 . S
H913 C889 0.949 . S
H914 C891 0.950 . S
H915 C893 0.950 . S
C916 C917 1.349 . S
C916 C918 1.327 . S
C916 H941 0.950 . S
C917 C916 1.349 . S
C917 C933 1.349 . S
C918 C916 1.327 . S
C918 C937 1.429 . S
C918 H942 0.950 . S
C919 C936 1.574 . S
C919 C938 1.368 . S
C919 H943 0.949 . S
H920 C924 0.949 . S
C921 C922 1.349 . S
C921 C923 1.327 . S
C921 H944 0.950 . S
C922 C921 1.349 . S
C922 C934 1.349 . S
C923 C921 1.327 . S
C923 C939 1.429 . S
C923 H945 0.950 . S
C924 H920 0.949 . S
C924 C932 1.574 . S
C924 C940 1.368 . S
H925 C933 0.950 . S
H926 C931 0.950 . S
H927 C932 0.949 . S
H928 C934 0.950 . S
H929 C935 0.950 . S
H930 C936 0.949 . S
C931 H926 0.950 . S
C931 C933 1.327 . S
C931 C937 1.429 . S
C932 C924 1.574 . S
C932 H927 0.949 . S
C932 C938 1.368 . S
C933 C917 1.349 . S
C933 H925 0.950 . S
C933 C931 1.327 . S
C934 C922 1.349 . S
C934 H928 0.950 . S
C934 C935 1.327 . S
C935 H929 0.950 . S
C935 C934 1.327 . S
C935 C939 1.429 . S
C936 C919 1.574 . S
C936 H930 0.949 . S
C936 C940 1.368 . S
C937 C918 1.429 . S
C937 C931 1.429 . S
C937 C938 1.523 . S
C938 C919 1.368 . S
C938 C932 1.368 . S
C938 C937 1.523 . S
C939 C923 1.429 . S
C939 C935 1.429 . S
C939 C940 1.523 . S
C940 C924 1.368 . S
C940 C936 1.368 . S
C940 C939 1.523 . S
H941 C916 0.950 . S
H942 C918 0.950 . S
H943 C919 0.949 . S
H944 C921 0.950 . S
H945 C923 0.950 . S
C946 C947 1.349 . S
C946 C948 1.327 . S
C946 H971 0.950 . S
C947 C946 1.349 . S
C947 C963 1.349 . S
C948 C946 1.327 . S
C948 C967 1.429 . S
C948 H972 0.950 . S
C949 C966 1.574 . S
C949 C968 1.368 . S
C949 H973 0.949 . S
H950 C954 0.949 . S
C951 C952 1.349 . S
C951 C953 1.327 . S
C951 H974 0.950 . S
C952 C951 1.349 . S
C952 C964 1.349 . S
C953 C951 1.327 . S
C953 C969 1.429 . S
C953 H975 0.950 . S
C954 H950 0.949 . S
C954 C962 1.574 . S
C954 C970 1.368 . S
H955 C963 0.950 . S
H956 C961 0.950 . S
H957 C962 0.949 . S
H958 C964 0.950 . S
H959 C965 0.950 . S
H960 C966 0.949 . S
C961 H956 0.950 . S
C961 C963 1.327 . S
C961 C967 1.429 . S
C962 C954 1.574 . S
C962 H957 0.949 . S
C962 C968 1.368 . S
C963 C947 1.349 . S
C963 H955 0.950 . S
C963 C961 1.327 . S
C964 C952 1.349 . S
C964 H958 0.950 . S
C964 C965 1.327 . S
C965 H959 0.950 . S
C965 C964 1.327 . S
C965 C969 1.429 . S
C966 C949 1.574 . S
C966 H960 0.949 . S
C966 C970 1.368 . S
C967 C948 1.429 . S
C967 C961 1.429 . S
C967 C968 1.523 . S
C968 C949 1.368 . S
C968 C962 1.368 . S
C968 C967 1.523 . S
C969 C953 1.429 . S
C969 C965 1.429 . S
C969 C970 1.523 . S
C970 C954 1.368 . S
C970 C966 1.368 . S
C970 C969 1.523 . S
H971 C946 0.950 . S
H972 C948 0.950 . S
H973 C949 0.949 . S
H974 C951 0.950 . S
H975 C953 0.950 . S
C976 C977 1.349 . S
C976 C978 1.327 . S
C976 H1001 0.950 . S
C977 C976 1.349 . S
C977 C993 1.349 . S
C978 C976 1.327 . S
C978 C997 1.429 . S
C978 H1002 0.950 . S
C979 C996 1.574 . S
C979 C998 1.368 . S
C979 H1003 0.949 . S
H980 C984 0.949 . S
C981 C982 1.349 . S
C981 C983 1.327 . S
C981 H1004 0.950 . S
C982 C981 1.349 . S
C982 C994 1.349 . S
C983 C981 1.327 . S
C983 C999 1.429 . S
C983 H1005 0.950 . S
C984 H980 0.949 . S
C984 C992 1.574 . S
C984 C1000 1.368 . S
H985 C993 0.950 . S
H986 C991 0.950 . S
H987 C992 0.949 . S
H988 C994 0.950 . S
H989 C995 0.950 . S
H990 C996 0.949 . S
C991 H986 0.950 . S
C991 C993 1.327 . S
C991 C997 1.429 . S
C992 C984 1.574 . S
C992 H987 0.949 . S
C992 C998 1.368 . S
C993 C977 1.349 . S
C993 H985 0.950 . S
C993 C991 1.327 . S
C994 C982 1.349 . S
C994 H988 0.950 . S
C994 C995 1.327 . S
C995 H989 0.950 . S
C995 C994 1.327 . S
C995 C999 1.429 . S
C996 C979 1.574 . S
C996 H990 0.949 . S
C996 C1000 1.368 . S
C997 C978 1.429 . S
C997 C991 1.429 . S
C997 C998 1.523 . S
C998 C979 1.368 . S
C998 C992 1.368 . S
C998 C997 1.523 . S
C999 C983 1.429 . S
C999 C995 1.429 . S
C999 C1000 1.523 . S
C1000 C984 1.368 . S
C1000 C996 1.368 . S
C1000 C999 1.523 . S
H1001 C976 0.950 . S
H1002 C978 0.950 . S
H1003 C979 0.949 . S
H1004 C981 0.950 . S
H1005 C983 0.950 . S
C1006 C1007 1.349 . S
C1006 C1008 1.327 . S
C1006 H1031 0.950 . S
C1007 C1006 1.349 . S
C1007 C1023 1.349 . S
C1008 C1006 1.327 . S
C1008 C1027 1.429 . S
C1008 H1032 0.950 . S
C1009 C1026 1.574 . S
C1009 C1028 1.368 . S
C1009 H1033 0.949 . S
H1010 C1014 0.949 . S
C1011 C1012 1.349 . S
C1011 C1013 1.327 . S
C1011 H1034 0.950 . S
C1012 C1011 1.349 . S
C1012 C1024 1.349 . S
C1013 C1011 1.327 . S
C1013 C1029 1.429 . S
C1013 H1035 0.950 . S
C1014 H1010 0.949 . S
C1014 C1022 1.574 . S
C1014 C1030 1.368 . S
H1015 C1023 0.950 . S
H1016 C1021 0.950 . S
H1017 C1022 0.949 . S
H1018 C1024 0.950 . S
H1019 C1025 0.950 . S
H1020 C1026 0.949 . S
C1021 H1016 0.950 . S
C1021 C1023 1.327 . S
C1021 C1027 1.429 . S
C1022 C1014 1.574 . S
C1022 H1017 0.949 . S
C1022 C1028 1.368 . S
C1023 C1007 1.349 . S
C1023 H1015 0.950 . S
C1023 C1021 1.327 . S
C1024 C1012 1.349 . S
C1024 H1018 0.950 . S
C1024 C1025 1.327 . S
C1025 H1019 0.950 . S
C1025 C1024 1.327 . S
C1025 C1029 1.429 . S
C1026 C1009 1.574 . S
C1026 H1020 0.949 . S
C1026 C1030 1.368 . S
C1027 C1008 1.429 . S
C1027 C1021 1.429 . S
C1027 C1028 1.523 . S
C1028 C1009 1.368 . S
C1028 C1022 1.368 . S
C1028 C1027 1.523 . S
C1029 C1013 1.429 . S
C1029 C1025 1.429 . S
C1029 C1030 1.523 . S
C1030 C1014 1.368 . S
C1030 C1026 1.368 . S
C1030 C1029 1.523 . S
H1031 C1006 0.950 . S
H1032 C1008 0.950 . S
H1033 C1009 0.949 . S
H1034 C1011 0.950 . S
H1035 C1013 0.950 . S
C1036 C1037 1.349 . S
C1036 C1038 1.327 . S
C1036 H1061 0.950 . S
C1037 C1036 1.349 . S
C1037 C1053 1.349 . S
C1038 C1036 1.327 . S
C1038 C1057 1.429 . S
C1038 H1062 0.950 . S
C1039 C1056 1.574 . S
C1039 C1058 1.368 . S
C1039 H1063 0.949 . S
H1040 C1044 0.949 . S
C1041 C1042 1.349 . S
C1041 C1043 1.327 . S
C1041 H1064 0.950 . S
C1042 C1041 1.349 . S
C1042 C1054 1.349 . S
C1043 C1041 1.327 . S
C1043 C1059 1.429 . S
C1043 H1065 0.950 . S
C1044 H1040 0.949 . S
C1044 C1052 1.574 . S
C1044 C1060 1.368 . S
H1045 C1053 0.950 . S
H1046 C1051 0.950 . S
H1047 C1052 0.949 . S
H1048 C1054 0.950 . S
H1049 C1055 0.950 1_556 S
H1050 C1056 0.949 1_554 S
C1051 H1046 0.950 . S
C1051 C1053 1.327 . S
C1051 C1057 1.429 . S
C1052 C1044 1.574 . S
C1052 H1047 0.949 . S
C1052 C1058 1.368 . S
C1053 C1037 1.349 . S
C1053 H1045 0.950 . S
C1053 C1051 1.327 . S
C1054 C1042 1.349 . S
C1054 H1048 0.950 . S
C1054 C1055 1.327 . S
C1055 H1049 0.950 1_554 S
C1055 C1054 1.327 . S
C1055 C1059 1.429 . S
C1056 C1039 1.574 . S
C1056 H1050 0.949 1_556 S
C1056 C1060 1.368 . S
C1057 C1038 1.429 . S
C1057 C1051 1.429 . S
C1057 C1058 1.523 . S
C1058 C1039 1.368 . S
C1058 C1052 1.368 . S
C1058 C1057 1.523 . S
C1059 C1043 1.429 . S
C1059 C1055 1.429 . S
C1059 C1060 1.523 1_554 S
C1060 C1044 1.368 . S
C1060 C1056 1.368 . S
C1060 C1059 1.523 1_556 S
H1061 C1036 0.950 . S
H1062 C1038 0.950 . S
H1063 C1039 0.949 . S
H1064 C1041 0.950 . S
H1065 C1043 0.950 . S
C1066 C1067 1.349 . S
C1066 C1068 1.327 . S
C1066 H1091 0.950 . S
C1067 C1066 1.349 . S
C1067 C1083 1.349 . S
C1068 C1066 1.327 . S
C1068 C1087 1.429 . S
C1068 H1092 0.950 . S
C1069 C1086 1.574 . S
C1069 C1088 1.368 . S
C1069 H1093 0.949 . S
H1070 C1074 0.949 . S
C1071 C1072 1.349 . S
C1071 C1073 1.327 . S
C1071 H1094 0.950 . S
C1072 C1071 1.349 . S
C1072 C1084 1.349 . S
C1073 C1071 1.327 . S
C1073 C1089 1.429 . S
C1073 H1095 0.950 . S
C1074 H1070 0.949 . S
C1074 C1082 1.574 . S
C1074 C1090 1.368 . S
H1075 C1083 0.950 . S
H1076 C1081 0.950 . S
H1077 C1082 0.949 . S
H1078 C1084 0.950 . S
H1079 C1085 0.950 . S
H1080 C1086 0.949 . S
C1081 H1076 0.950 . S
C1081 C1083 1.327 . S
C1081 C1087 1.429 . S
C1082 C1074 1.574 . S
C1082 H1077 0.949 . S
C1082 C1088 1.368 . S
C1083 C1067 1.349 . S
C1083 H1075 0.950 . S
C1083 C1081 1.327 . S
C1084 C1072 1.349 . S
C1084 H1078 0.950 . S
C1084 C1085 1.327 . S
C1085 H1079 0.950 . S
C1085 C1084 1.327 . S
C1085 C1089 1.429 . S
C1086 C1069 1.574 . S
C1086 H1080 0.949 . S
C1086 C1090 1.368 . S
C1087 C1068 1.429 . S
C1087 C1081 1.429 . S
C1087 C1088 1.523 . S
C1088 C1069 1.368 . S
C1088 C1082 1.368 . S
C1088 C1087 1.523 . S
C1089 C1073 1.429 . S
C1089 C1085 1.429 . S
C1089 C1090 1.523 . S
C1090 C1074 1.368 . S
C1090 C1086 1.368 . S
C1090 C1089 1.523 . S
H1091 C1066 0.950 . S
H1092 C1068 0.950 . S
H1093 C1069 0.949 . S
H1094 C1071 0.950 . S
H1095 C1073 0.950 . S
C1096 C1097 1.349 . S
C1096 C1098 1.327 . S
C1096 H1121 0.950 . S
C1097 C1096 1.349 . S
C1097 C1113 1.349 . S
C1098 C1096 1.327 . S
C1098 C1117 1.429 . S
C1098 H1122 0.950 . S
C1099 C1116 1.574 . S
C1099 C1118 1.368 . S
C1099 H1123 0.949 . S
H1100 C1104 0.949 . S
C1101 C1102 1.349 . S
C1101 C1103 1.327 . S
C1101 H1124 0.950 . S
C1102 C1101 1.349 . S
C1102 C1114 1.349 . S
C1103 C1101 1.327 . S
C1103 C1119 1.429 . S
C1103 H1125 0.950 . S
C1104 H1100 0.949 . S
C1104 C1112 1.574 . S
C1104 C1120 1.368 . S
H1105 C1113 0.950 . S
H1106 C1111 0.950 . S
H1107 C1112 0.949 . S
H1108 C1114 0.950 . S
H1109 C1115 0.950 . S
H1110 C1116 0.949 . S
C1111 H1106 0.950 . S
C1111 C1113 1.327 . S
C1111 C1117 1.429 . S
C1112 C1104 1.574 . S
C1112 H1107 0.949 . S
C1112 C1118 1.368 . S
C1113 C1097 1.349 . S
C1113 H1105 0.950 . S
C1113 C1111 1.327 . S
C1114 C1102 1.349 . S
C1114 H1108 0.950 . S
C1114 C1115 1.327 . S
C1115 H1109 0.950 . S
C1115 C1114 1.327 . S
C1115 C1119 1.429 . S
C1116 C1099 1.574 . S
C1116 H1110 0.949 . S
C1116 C1120 1.368 . S
C1117 C1098 1.429 . S
C1117 C1111 1.429 . S
C1117 C1118 1.523 . S
C1118 C1099 1.368 . S
C1118 C1112 1.368 . S
C1118 C1117 1.523 . S
C1119 C1103 1.429 . S
C1119 C1115 1.429 . S
C1119 C1120 1.523 . S
C1120 C1104 1.368 . S
C1120 C1116 1.368 . S
C1120 C1119 1.523 . S
H1121 C1096 0.950 . S
H1122 C1098 0.950 . S
H1123 C1099 0.949 . S
H1124 C1101 0.950 . S
H1125 C1103 0.950 . S
C412 C110 1.683 . S
C407 C10 1.689 . S
C442 C179 1.427 . S
C437 C15 1.405 . S
C472 C117 1.663 . S
C467 C26 1.676 . S
C502 C180 1.449 . S
C497 C37 1.444 . S
C532 C233 1.820 . S
C527 C4 1.821 . S
C562 C269 1.454 . S
C557 C16 1.427 . S
C587 C27 1.782 . S
C592 C329 1.775 . S
C622 C392 1.494 . S
C617 C43 1.493 . S
C652 C232 1.598 . S
C647 C21 1.582 . S
C677 C32 1.412 . S
C682 C276 1.410 . S
C712 C322 1.776 . S
C707 C38 1.767 . S
C742 C391 1.730 . S
C737 C5 1.727 . S
C767 C49 1.476 . S
C772 C170 1.495 . S
C802 C127 1.769 1_655 S
C797 C60 1.780 . S
C827 C76 1.501 . S
C832 C163 1.501 . S
C857 C81 1.744 . S
C862 C126 1.746 . S
C892 C338 1.497 . S
C887 C54 1.499 . S
C922 C382 1.733 . S
C917 C59 1.737 . S
C952 C216 1.589 . S
C947 C70 1.591 . S
C977 C87 1.652 . S
C982 C285 1.645 . S
C1012 C339 1.667 . S
C1007 C65 1.671 . S
C1042 C375 1.782 . S
C1037 C71 1.762 . S
C1072 C223 1.578 . S
C1067 C82 1.571 . S
C1097 C48 1.551 . S
C1102 C286 1.551 . S
