# Generated by pormake.
# Topology ptr, (4,4)-cn, num edge types: 1
# Building blocks:
#     Node 0, Type 0, BuildingBlock: UXUYUI_clean_sbu_0, # of connection points: 4
#     Node 1, Type 0, BuildingBlock: UXUYUI_clean_sbu_0, # of connection points: 4
#     Node 2, Type 0, BuildingBlock: UXUYUI_clean_sbu_0, # of connection points: 4
#     Node 3, Type 0, BuildingBlock: UXUYUI_clean_sbu_0, # of connection points: 4
#     Node 4, Type 0, BuildingBlock: UXUYUI_clean_sbu_0, # of connection points: 4
#     Node 5, Type 0, BuildingBlock: UXUYUI_clean_sbu_0, # of connection points: 4
#     Node 6, Type 0, BuildingBlock: UXUYUI_clean_sbu_0, # of connection points: 4
#     Node 7, Type 0, BuildingBlock: UXUYUI_clean_sbu_0, # of connection points: 4
#     Node 8, Type 0, BuildingBlock: UXUYUI_clean_sbu_0, # of connection points: 4
#     Node 9, Type 0, BuildingBlock: UXUYUI_clean_sbu_0, # of connection points: 4
#     Node 10, Type 0, BuildingBlock: UXUYUI_clean_sbu_0, # of connection points: 4
#     Node 11, Type 0, BuildingBlock: UXUYUI_clean_sbu_0, # of connection points: 4
#     Node 12, Type 0, BuildingBlock: UXUYUI_clean_sbu_0, # of connection points: 4
#     Node 13, Type 0, BuildingBlock: UXUYUI_clean_sbu_0, # of connection points: 4
#     Node 14, Type 0, BuildingBlock: UXUYUI_clean_sbu_0, # of connection points: 4
#     Node 15, Type 0, BuildingBlock: UXUYUI_clean_sbu_0, # of connection points: 4
#     Node 16, Type 0, BuildingBlock: UXUYUI_clean_sbu_0, # of connection points: 4
#     Node 17, Type 0, BuildingBlock: UXUYUI_clean_sbu_0, # of connection points: 4
#     Node 18, Type 1, BuildingBlock: AZAVOO_clean_linker_0, # of connection points: 4
#     Node 19, Type 1, BuildingBlock: AZAVOO_clean_linker_0, # of connection points: 4
#     Node 20, Type 1, BuildingBlock: AZAVOO_clean_linker_0, # of connection points: 4
#     Node 21, Type 1, BuildingBlock: AZAVOO_clean_linker_0, # of connection points: 4
#     Node 22, Type 1, BuildingBlock: AZAVOO_clean_linker_0, # of connection points: 4
#     Node 23, Type 1, BuildingBlock: AZAVOO_clean_linker_0, # of connection points: 4
#     Node 24, Type 1, BuildingBlock: AZAVOO_clean_linker_0, # of connection points: 4
#     Node 25, Type 1, BuildingBlock: AZAVOO_clean_linker_0, # of connection points: 4
#     Node 26, Type 1, BuildingBlock: AZAVOO_clean_linker_0, # of connection points: 4
#     Node 27, Type 1, BuildingBlock: AZAVOO_clean_linker_0, # of connection points: 4
#     Node 28, Type 1, BuildingBlock: AZAVOO_clean_linker_0, # of connection points: 4
#     Node 29, Type 1, BuildingBlock: AZAVOO_clean_linker_0, # of connection points: 4
#     Node 30, Type 1, BuildingBlock: AZAVOO_clean_linker_0, # of connection points: 4
#     Node 31, Type 1, BuildingBlock: AZAVOO_clean_linker_0, # of connection points: 4
#     Node 32, Type 1, BuildingBlock: AZAVOO_clean_linker_0, # of connection points: 4
#     Node 33, Type 1, BuildingBlock: AZAVOO_clean_linker_0, # of connection points: 4
#     Node 34, Type 1, BuildingBlock: AZAVOO_clean_linker_0, # of connection points: 4
#     Node 35, Type 1, BuildingBlock: AZAVOO_clean_linker_0, # of connection points: 4
#     Edge 36, Type (0, 1), BuildingBlock: XIVTED_clean_linker_0, # of connection points: 2
#     Edge 37, Type (0, 1), BuildingBlock: XIVTED_clean_linker_0, # of connection points: 2
#     Edge 38, Type (0, 1), BuildingBlock: XIVTED_clean_linker_0, # of connection points: 2
#     Edge 39, Type (0, 1), BuildingBlock: XIVTED_clean_linker_0, # of connection points: 2
#     Edge 40, Type (0, 1), BuildingBlock: XIVTED_clean_linker_0, # of connection points: 2
#     Edge 41, Type (0, 1), BuildingBlock: XIVTED_clean_linker_0, # of connection points: 2
#     Edge 42, Type (0, 1), BuildingBlock: XIVTED_clean_linker_0, # of connection points: 2
#     Edge 43, Type (0, 1), BuildingBlock: XIVTED_clean_linker_0, # of connection points: 2
#     Edge 44, Type (0, 1), BuildingBlock: XIVTED_clean_linker_0, # of connection points: 2
#     Edge 45, Type (0, 1), BuildingBlock: XIVTED_clean_linker_0, # of connection points: 2
#     Edge 46, Type (0, 1), BuildingBlock: XIVTED_clean_linker_0, # of connection points: 2
#     Edge 47, Type (0, 1), BuildingBlock: XIVTED_clean_linker_0, # of connection points: 2
#     Edge 48, Type (0, 1), BuildingBlock: XIVTED_clean_linker_0, # of connection points: 2
#     Edge 49, Type (0, 1), BuildingBlock: XIVTED_clean_linker_0, # of connection points: 2
#     Edge 50, Type (0, 1), BuildingBlock: XIVTED_clean_linker_0, # of connection points: 2
#     Edge 51, Type (0, 1), BuildingBlock: XIVTED_clean_linker_0, # of connection points: 2
#     Edge 52, Type (0, 1), BuildingBlock: XIVTED_clean_linker_0, # of connection points: 2
#     Edge 53, Type (0, 1), BuildingBlock: XIVTED_clean_linker_0, # of connection points: 2
#     Edge 54, Type (0, 1), BuildingBlock: XIVTED_clean_linker_0, # of connection points: 2
#     Edge 55, Type (0, 1), BuildingBlock: XIVTED_clean_linker_0, # of connection points: 2
#     Edge 56, Type (0, 1), BuildingBlock: XIVTED_clean_linker_0, # of connection points: 2
#     Edge 57, Type (0, 1), BuildingBlock: XIVTED_clean_linker_0, # of connection points: 2
#     Edge 58, Type (0, 1), BuildingBlock: XIVTED_clean_linker_0, # of connection points: 2
#     Edge 59, Type (0, 1), BuildingBlock: XIVTED_clean_linker_0, # of connection points: 2
#     Edge 60, Type (0, 1), BuildingBlock: XIVTED_clean_linker_0, # of connection points: 2
#     Edge 61, Type (0, 1), BuildingBlock: XIVTED_clean_linker_0, # of connection points: 2
#     Edge 62, Type (0, 1), BuildingBlock: XIVTED_clean_linker_0, # of connection points: 2
#     Edge 63, Type (0, 1), BuildingBlock: XIVTED_clean_linker_0, # of connection points: 2
#     Edge 64, Type (0, 1), BuildingBlock: XIVTED_clean_linker_0, # of connection points: 2
#     Edge 65, Type (0, 1), BuildingBlock: XIVTED_clean_linker_0, # of connection points: 2
#     Edge 66, Type (0, 1), BuildingBlock: XIVTED_clean_linker_0, # of connection points: 2
#     Edge 67, Type (0, 1), BuildingBlock: XIVTED_clean_linker_0, # of connection points: 2
#     Edge 68, Type (0, 1), BuildingBlock: XIVTED_clean_linker_0, # of connection points: 2
#     Edge 69, Type (0, 1), BuildingBlock: XIVTED_clean_linker_0, # of connection points: 2
#     Edge 70, Type (0, 1), BuildingBlock: XIVTED_clean_linker_0, # of connection points: 2
#     Edge 71, Type (0, 1), BuildingBlock: XIVTED_clean_linker_0, # of connection points: 2
#     Edge 72, Type (0, 1), BuildingBlock: XIVTED_clean_linker_0, # of connection points: 2
#     Edge 73, Type (0, 1), BuildingBlock: XIVTED_clean_linker_0, # of connection points: 2
#     Edge 74, Type (0, 1), BuildingBlock: XIVTED_clean_linker_0, # of connection points: 2
#     Edge 75, Type (0, 1), BuildingBlock: XIVTED_clean_linker_0, # of connection points: 2
#     Edge 76, Type (0, 1), BuildingBlock: XIVTED_clean_linker_0, # of connection points: 2
#     Edge 77, Type (0, 1), BuildingBlock: XIVTED_clean_linker_0, # of connection points: 2
#     Edge 78, Type (0, 1), BuildingBlock: XIVTED_clean_linker_0, # of connection points: 2
#     Edge 79, Type (0, 1), BuildingBlock: XIVTED_clean_linker_0, # of connection points: 2
#     Edge 80, Type (0, 1), BuildingBlock: XIVTED_clean_linker_0, # of connection points: 2
#     Edge 81, Type (0, 1), BuildingBlock: XIVTED_clean_linker_0, # of connection points: 2
#     Edge 82, Type (0, 1), BuildingBlock: XIVTED_clean_linker_0, # of connection points: 2
#     Edge 83, Type (0, 1), BuildingBlock: XIVTED_clean_linker_0, # of connection points: 2
#     Edge 84, Type (0, 1), BuildingBlock: XIVTED_clean_linker_0, # of connection points: 2
#     Edge 85, Type (0, 1), BuildingBlock: XIVTED_clean_linker_0, # of connection points: 2
#     Edge 86, Type (0, 1), BuildingBlock: XIVTED_clean_linker_0, # of connection points: 2
#     Edge 87, Type (0, 1), BuildingBlock: XIVTED_clean_linker_0, # of connection points: 2
#     Edge 88, Type (0, 1), BuildingBlock: XIVTED_clean_linker_0, # of connection points: 2
#     Edge 89, Type (0, 1), BuildingBlock: XIVTED_clean_linker_0, # of connection points: 2
#     Edge 90, Type (0, 1), BuildingBlock: XIVTED_clean_linker_0, # of connection points: 2
#     Edge 91, Type (0, 1), BuildingBlock: XIVTED_clean_linker_0, # of connection points: 2
#     Edge 92, Type (0, 1), BuildingBlock: XIVTED_clean_linker_0, # of connection points: 2
#     Edge 93, Type (0, 1), BuildingBlock: XIVTED_clean_linker_0, # of connection points: 2
#     Edge 94, Type (0, 1), BuildingBlock: XIVTED_clean_linker_0, # of connection points: 2
#     Edge 95, Type (0, 1), BuildingBlock: XIVTED_clean_linker_0, # of connection points: 2
#     Edge 96, Type (0, 1), BuildingBlock: XIVTED_clean_linker_0, # of connection points: 2
#     Edge 97, Type (0, 1), BuildingBlock: XIVTED_clean_linker_0, # of connection points: 2
#     Edge 98, Type (0, 1), BuildingBlock: XIVTED_clean_linker_0, # of connection points: 2
#     Edge 99, Type (0, 1), BuildingBlock: XIVTED_clean_linker_0, # of connection points: 2
#     Edge 100, Type (0, 1), BuildingBlock: XIVTED_clean_linker_0, # of connection points: 2
#     Edge 101, Type (0, 1), BuildingBlock: XIVTED_clean_linker_0, # of connection points: 2
#     Edge 102, Type (0, 1), BuildingBlock: XIVTED_clean_linker_0, # of connection points: 2
#     Edge 103, Type (0, 1), BuildingBlock: XIVTED_clean_linker_0, # of connection points: 2
#     Edge 104, Type (0, 1), BuildingBlock: XIVTED_clean_linker_0, # of connection points: 2
#     Edge 105, Type (0, 1), BuildingBlock: XIVTED_clean_linker_0, # of connection points: 2
#     Edge 106, Type (0, 1), BuildingBlock: XIVTED_clean_linker_0, # of connection points: 2
#     Edge 107, Type (0, 1), BuildingBlock: XIVTED_clean_linker_0, # of connection points: 2
# Relax obj value: 0.130
# Max RMSD: 0.319
# Mean RMSD: 0.191
data_MOF--net-ptr--node1-UXUYUI_clean_sbu_0--node2-AZAVOO_clean_linker_0--edge1-XIVTED_clean_linker_0
_symmetry_space_group_name_H-M    P1
_symmetry_Int_Tables_number       1
_symmetry_cell_setting            triclinic
loop_
_symmetry_equiv_pos_as_xyz
'x, y, z'
_cell_length_a     98.536604
_cell_length_b     97.646549
_cell_length_c     80.383456
_cell_angle_alpha  92.550564
_cell_angle_beta   92.29567
_cell_angle_gamma 120.28304
loop_
_atom_site_label
_atom_site_type_symbol
_atom_site_fract_x
_atom_site_fract_y
_atom_site_fract_z
_atom_type_partial_charge
Li0 Li 0.98922 0.3443 0.01148 0.0
Li1 Li 0.01488 0.35949 0.02736 0.0
Li2 Li 0.99435 0.36608 0.03125 0.0
Li3 Li 0.00712 0.37108 0.00606 0.0
C4 C 0.99305 0.33298 0.04219 0.0
N5 N 0.99194 0.30651 0.05456 0.0
C6 C 0.99752 0.32383 0.03254 0.0
C7 C 0.98805 0.32868 0.05814 0.0
C8 C 0.99686 0.31049 0.03902 0.0
C9 C 0.98755 0.31525 0.06417 0.0
C10 C 0.02194 0.35855 0.99211 0.0
C11 C 0.0486 0.37705 0.98579 0.0
N12 N 0.04486 0.3713 0.96951 0.0
C13 C 0.01838 0.35282 0.97532 0.0
C14 C 0.03718 0.37077 0.99739 0.0
C15 C 0.03012 0.35943 0.9641 0.0
C16 C 0.97303 0.3211 0.98505 0.0
N17 N 0.97362 0.32385 0.00184 0.0
C18 C 0.95267 0.29726 0.00421 0.0
C19 C 0.96351 0.31241 0.01143 0.0
C20 C 0.95213 0.29391 0.98693 0.0
C21 C 0.96239 0.30613 0.97729 0.0
H22 H 0.98084 0.33057 0.97769 0.0
H23 H 0.96393 0.31497 0.02471 0.0
C24 C 0.03412 0.36182 0.05533 0.0
N25 N 0.03074 0.35723 0.03877 0.0
C26 C 0.0444 0.35866 0.0646 0.0
C27 C 0.0477 0.34639 0.03947 0.0
C28 C 0.03724 0.34963 0.03075 0.0
C29 C 0.05127 0.35078 0.05665 0.0
H30 H 0.0285 0.36757 0.06141 0.0
H31 H 0.03394 0.34563 0.01769 0.0
C32 C 0.9683 0.3549 0.00871 0.0
N33 N 0.93613 0.34203 0.00954 0.0
C34 C 0.95997 0.35805 0.99647 0.0
C35 C 0.96027 0.34521 0.02139 0.0
C36 C 0.94371 0.35143 0.99711 0.0
C37 C 0.94401 0.33882 0.02159 0.0
C38 C 0.02051 0.39619 0.03114 0.0
C39 C 0.01109 0.40113 0.02299 0.0
C40 C 0.03328 0.407 0.04201 0.0
C41 C 0.01463 0.41684 0.02586 0.0
C42 C 0.03644 0.42261 0.04455 0.0
N43 N 0.02712 0.42717 0.03649 0.0
C44 C 0.98914 0.37294 0.06383 0.0
C45 C 0.97857 0.38192 0.04281 0.0
C46 C 0.98483 0.38012 0.0763 0.0
N47 N 0.98612 0.37412 0.04749 0.0
C48 C 0.97415 0.38937 0.05485 0.0
C49 C 0.97749 0.38873 0.07185 0.0
H50 H 0.99534 0.36682 0.06715 0.0
H51 H 0.97641 0.38279 0.02972 0.0
C52 C 0.00328 0.38039 0.97499 0.0
N53 N 0.01386 0.38485 0.98836 0.0
C54 C 0.00654 0.39016 0.96183 0.0
C55 C 0.03178 0.40877 0.97622 0.0
C56 C 0.02802 0.3986 0.98913 0.0
C57 C 0.02086 0.40469 0.96243 0.0
H58 H 0.99215 0.36935 0.97474 0.0
H59 H 0.03627 0.4018 -0.00012 0.0
O60 O 0.99387 0.34629 0.0363 0.0
O61 O 0.01054 0.35256 0.00328 0.0
O62 O 0.98423 0.3613 0.0081 0.0
O63 O 0.01726 0.38083 0.0287 0.0
H64 H 0.00146 0.32699 0.02019 0.0
H65 H 0.98461 0.33568 0.06578 0.0
H66 H 0.00029 0.30331 0.03169 0.0
H67 H 0.9837 0.31178 0.07649 0.0
H68 H 0.06041 0.38656 0.9897 0.0
H69 H 0.00669 0.3434 0.97096 0.0
H70 H 0.0401 0.37556 0.01027 0.0
H71 H 0.02751 0.35512 0.95107 0.0
H72 H 0.94502 0.2882 0.01213 0.0
H73 H 0.96211 0.30417 0.96388 0.0
H74 H 0.04691 0.36227 0.07782 0.0
H75 H 0.05253 0.34005 0.03296 0.0
H76 H 0.96602 0.36554 0.98659 0.0
H77 H 0.96646 0.34267 0.03102 0.0
H78 H 0.93712 0.35377 0.98771 0.0
H79 H 0.93765 0.3313 0.03132 0.0
H80 H 0.00115 0.39294 0.01454 0.0
H81 H 0.04066 0.40333 0.04845 0.0
H82 H 0.00743 0.42081 0.01963 0.0
H83 H 0.04629 0.43111 0.05294 0.0
H84 H 0.98781 0.37952 0.08926 0.0
H85 H 0.96841 0.39578 0.05089 0.0
H86 H 0.99768 0.38661 0.95159 0.0
H87 H 0.04303 0.41976 0.97709 0.0
Li88 Li 0.64154 0.63139 0.05626 0.0
Li89 Li 0.6288 0.64438 0.07032 0.0
Li90 Li 0.62169 0.61636 0.07462 0.0
Li91 Li 0.61388 0.62271 0.04862 0.0
C92 C 0.65752 0.64288 0.08518 0.0
N93 N 0.68948 0.65638 0.09302 0.0
C94 C 0.66717 0.65941 0.08743 0.0
C95 C 0.66409 0.63322 0.08704 0.0
C96 C 0.68331 0.666 0.09138 0.0
C97 C 0.68029 0.64027 0.09096 0.0
C98 C 0.63171 0.64761 0.03058 0.0
C99 C 0.62099 0.6574 0.00985 0.0
N100 N 0.62849 0.65399 0.99794 0.0
C101 C 0.63937 0.64428 0.01812 0.0
C102 C 0.62251 0.6543 0.02641 0.0
C103 C 0.63758 0.64758 0.00171 0.0
C104 C 0.66402 0.62451 0.04297 0.0
N105 N 0.66108 0.63617 0.04801 0.0
C106 C 0.68595 0.6562 0.03965 0.0
C107 C 0.67171 0.65177 0.04661 0.0
C108 C 0.68925 0.64443 0.03403 0.0
C109 C 0.67815 0.6284 0.03594 0.0
H110 H 0.65528 0.6122 0.04411 0.0
H111 H 0.66891 0.66075 0.05052 0.0
C112 C 0.63171 0.66592 0.0969 0.0
N113 N 0.63288 0.6641 0.08026 0.0
C114 C 0.6364 0.68096 0.10447 0.0
C115 C 0.64302 0.69176 0.07752 0.0
C116 C 0.63833 0.67658 0.07053 0.0
C117 C 0.64227 0.69413 0.09474 0.0
H118 H 0.62751 0.65576 0.10434 0.0
H119 H 0.63946 0.67482 0.05741 0.0
C120 C 0.61803 0.59374 0.0528 0.0
N121 N 0.60611 0.56169 0.0561 0.0
C122 C 0.60284 0.58261 0.0461 0.0
C123 C 0.6272 0.58857 0.06107 0.0
C124 C 0.59702 0.56646 0.04792 0.0
C125 C 0.62094 0.57232 0.06265 0.0
C126 C 0.59477 0.62706 0.07211 0.0
C127 C 0.58127 0.61563 0.07914 0.0
C128 C 0.59519 0.64051 0.06624 0.0
C129 C 0.56833 0.61778 0.08001 0.0
C130 C 0.58201 0.64224 0.06735 0.0
N131 N 0.56896 0.63092 0.07414 0.0
C132 C 0.62407 0.60237 0.1041 0.0
C133 C 0.59954 0.58844 0.08813 0.0
C134 C 0.6184 0.59116 0.11605 0.0
N135 N 0.61459 0.60081 0.09052 0.0
C136 C 0.59344 0.5769 0.09964 0.0
C137 C 0.60286 0.57826 0.11391 0.0
H138 H 0.63593 0.61243 0.10579 0.0
H139 H 0.5922 0.58766 0.07734 0.0
C140 C 0.60372 0.61158 0.01566 0.0
N141 N 0.59861 0.61492 0.02989 0.0
C142 C 0.59414 0.60643 0.00084 0.0
C143 C 0.57364 0.60707 0.01578 0.0
C144 C 0.58379 0.61259 0.03027 0.0
C145 C 0.57893 0.60417 0.00082 0.0
H146 H 0.6153 0.61292 0.01583 0.0
H147 H 0.57974 0.61491 0.04171 0.0
O148 O 0.64176 0.6362 0.08093 0.0
O149 O 0.63315 0.64427 0.04672 0.0
O150 O 0.62386 0.60962 0.05136 0.0
O151 O 0.60756 0.62515 0.07127 0.0
H152 H 0.66231 0.66707 0.08598 0.0
H153 H 0.6568 0.62041 0.08526 0.0
H154 H 0.69094 0.67878 0.09307 0.0
H155 H 0.68555 0.63294 0.09232 0.0
H156 H 0.61384 0.6625 0.00646 0.0
H157 H 0.64637 0.63891 0.02096 0.0
H158 H 0.61653 0.65704 0.03581 0.0
H159 H 0.64335 0.64494 0.99195 0.0
H160 H 0.69402 0.66866 0.03816 0.0
H161 H 0.68028 0.61897 0.03192 0.0
H162 H 0.63558 0.6823 0.11778 0.0
H163 H 0.64772 0.70163 0.06963 0.0
H164 H 0.59556 0.58639 0.03972 0.0
H165 H 0.63894 0.59703 0.06641 0.0
H166 H 0.58526 0.55771 0.04287 0.0
H167 H 0.62786 0.56816 0.06913 0.0
H168 H 0.58079 0.6052 0.08387 0.0
H169 H 0.60554 0.64949 0.06088 0.0
H170 H 0.55778 0.60901 0.08538 0.0
H171 H 0.58217 0.65258 0.0628 0.0
H172 H 0.62603 0.59261 0.12688 0.0
H173 H 0.58131 0.56732 0.09767 0.0
H174 H 0.59847 0.60399 0.98957 0.0
H175 H 0.56188 0.60529 0.01618 0.0
Li176 Li 0.38179 0.99333 0.00356 0.0
Li177 Li 0.38784 0.00109 0.03238 0.0
Li178 Li 0.3602 0.97992 0.02157 0.0
Li179 Li 0.37164 0.0088 0.01665 0.0
C180 C 0.38239 0.96782 0.0143 0.0
N181 N 0.38706 0.94454 -0.00041 0.0
C182 C 0.39752 0.97136 0.01063 0.0
C183 C 0.36964 0.95242 0.01055 0.0
C184 C 0.39964 0.95944 0.00316 0.0
C185 C 0.37224 0.94082 0.0031 0.0
C186 C 0.40865 0.02667 0.01977 0.0
C187 C 0.42647 0.05129 0.03583 0.0
N188 N 0.43872 0.04914 0.03247 0.0
C189 C 0.42143 0.02476 0.01637 0.0
C190 C 0.41119 0.04009 0.02948 0.0
C191 C 0.43653 0.03623 0.02294 0.0
C192 C 0.4009 0.00497 0.97701 0.0
N193 N 0.39012 0.99108 0.98301 0.0
C194 C 0.39296 0.97621 0.9603 0.0
C195 C 0.38567 0.97685 0.97466 0.0
C196 C 0.40474 0.99038 0.95435 0.0
C197 C 0.40839 0.0049 0.9627 0.0
H198 H 0.40378 0.01617 0.9834 0.0
H199 H 0.37662 0.96595 0.97921 0.0
C200 C 0.40057 0.01186 0.06593 0.0
N201 N 0.40288 0.00661 0.05096 0.0
C202 C 0.4107 0.01457 0.07995 0.0
C203 C 0.42556 0.0067 0.06282 0.0
C204 C 0.41512 0.0041 0.04918 0.0
C205 C 0.42326 0.01175 0.07855 0.0
H206 H 0.39058 0.01345 0.06717 0.0
H207 H 0.41666 -0.00019 0.03722 0.0
C208 C 0.35697 0.98687 0.98404 0.0
N209 N 0.35208 0.98128 0.94975 0.0
C210 C 0.36203 -0.0004 0.97392 0.0
C211 C 0.34937 0.9713 0.97676 0.0
C212 C 0.35946 0.99653 0.9566 0.0
C213 C 0.34701 0.96872 0.95938 0.0
C214 C 0.36061 0.00533 0.04737 0.0
C215 C 0.34481 0.9963 0.0509 0.0
C216 C 0.36935 0.02141 0.05304 0.0
C217 C 0.33798 0.00355 0.05992 0.0
C218 C 0.36209 0.02822 0.062 0.0
N219 N 0.34669 0.01923 0.06522 0.0
C220 C 0.34074 0.95563 0.04146 0.0
C221 C 0.32775 0.95834 0.01743 0.0
C222 C 0.32629 0.94522 0.04765 0.0
N223 N 0.34114 0.96221 0.02682 0.0
C224 C 0.31307 0.94792 0.02309 0.0
C225 C 0.31219 0.94165 0.03869 0.0
H226 H 0.35161 0.95929 0.04882 0.0
H227 H 0.32846 0.96408 0.00604 0.0
C228 C 0.37481 0.03796 0.00723 0.0
N229 N 0.36505 0.02373 0.0133 0.0
C230 C 0.36926 0.04817 0.00339 0.0
C231 C 0.3439 0.02904 0.01258 0.0
C232 C 0.34982 0.01907 0.01582 0.0
C233 C 0.35354 0.04373 0.00596 0.0
H234 H 0.38673 0.04113 0.00483 0.0
H235 H 0.34216 0.00745 0.02009 0.0
O236 O 0.38006 0.97925 0.02181 0.0
O237 O 0.39375 0.01545 0.01364 0.0
O238 O 0.35975 0.98967 0.00098 0.0
O239 O 0.36746 0.99849 0.03837 0.0
H240 H 0.40749 0.98325 0.01319 0.0
H241 H 0.35785 0.94945 0.0133 0.0
H242 H 0.41126 0.96204 0.00014 0.0
H243 H 0.36248 0.92887 0.0001 0.0
H244 H 0.4286 0.06171 0.04343 0.0
H245 H 0.41967 0.0144 0.00895 0.0
H246 H 0.40148 0.04185 0.03209 0.0
H247 H 0.4465 0.03484 0.02051 0.0
H248 H 0.38968 0.96473 0.95423 0.0
H249 H 0.41701 0.01615 0.95827 0.0
H250 H 0.4083 0.0182 0.09187 0.0
H251 H 0.43519 0.00454 0.06111 0.0
H252 H 0.36802 0.01173 0.97939 0.0
H253 H 0.34554 0.96134 0.98444 0.0
H254 H 0.36338 0.00626 0.9486 0.0
H255 H 0.34122 0.95674 0.95355 0.0
H256 H 0.33782 0.98386 0.04664 0.0
H257 H 0.38157 0.02857 0.05045 0.0
H258 H 0.32575 0.99671 0.06267 0.0
H259 H 0.3687 0.04067 0.06637 0.0
H260 H 0.32623 0.94089 0.05983 0.0
H261 H 0.30252 0.94533 0.01567 0.0
H262 H 0.37708 0.05914 0.99792 0.0
H263 H 0.33181 0.0251 0.01505 0.0
Li264 Li 0.00765 0.65519 0.05771 0.0
Li265 Li 0.98792 0.62793 0.06245 0.0
Li266 Li 0.00187 0.63377 0.03606 0.0
Li267 Li 0.98164 0.6408 0.04086 0.0
C268 C 0.02612 0.64104 0.0637 0.0
N269 N 0.05708 0.64981 0.07206 0.0
C270 C 0.03044 0.63822 0.0794 0.0
C271 C 0.03751 0.64808 0.05217 0.0
C272 C 0.04616 0.64281 0.08342 0.0
C273 C 0.0531 0.65249 0.05665 0.0
C274 C 0.97982 0.6463 0.08015 0.0
C275 C 0.95737 0.63673 0.09677 0.0
N276 N 0.96724 0.64408 0.11069 0.0
C277 C 0.98973 0.6539 0.09459 0.0
C278 C 0.96351 0.63777 0.0812 0.0
C279 C 0.98315 0.65258 0.10993 0.0
C280 C 0.02144 0.68784 0.06188 0.0
N281 N 0.0226 0.6756 0.06772 0.0
C282 C 0.04307 0.69327 0.08811 0.0
C283 C 0.03311 0.67798 0.0806 0.0
C284 C 0.04211 0.70617 0.08237 0.0
C285 C 0.03115 0.70329 0.06901 0.0
H286 H 0.01275 0.68552 0.05183 0.0
H287 H 0.03355 0.66803 0.0853 0.0
C288 C 0.96899 0.59769 0.07468 0.0
N289 N 0.9803 0.61303 0.07904 0.0
C290 C 0.96487 0.58615 0.08618 0.0
C291 C 0.98375 0.60652 0.10659 0.0
C292 C 0.98756 0.61764 0.09467 0.0
C293 C 0.97251 0.59047 0.10229 0.0
H294 H 0.96362 0.59425 0.06208 0.0
H295 H 0.99681 0.62981 0.09768 0.0
C296 C 0.01233 0.66356 0.02154 0.0
N297 N 0.03111 0.68256 0.9978 0.0
C298 C 0.00558 0.66393 0.00606 0.0
C299 C 0.02861 0.67311 0.02505 0.0
C300 C 0.01528 0.67353 0.99418 0.0
C301 C 0.03791 0.68257 0.01287 0.0
C302 C 0.96487 0.60963 0.03081 0.0
C303 C 0.96395 0.60282 0.01483 0.0
C304 C 0.95106 0.60657 0.03808 0.0
C305 C 0.9492 0.59325 0.00628 0.0
C306 C 0.93654 0.59695 0.02912 0.0
N307 N 0.93591 0.59056 0.01353 0.0
C308 C 0.01573 0.61649 0.02327 0.0
C309 C 0.00601 0.62698 0.00306 0.0
C310 C 0.01884 0.60827 0.01073 0.0
N311 N 0.00928 0.62547 0.01922 0.0
C312 C 0.00886 0.61895 0.99017 0.0
C313 C 0.015 0.60914 0.99394 0.0
H314 H 0.0178 0.61513 0.03624 0.0
H315 H 0.00036 0.63369 0.0002 0.0
C316 C 0.96162 0.65337 0.03756 0.0
N317 N 0.96639 0.64412 0.0296 0.0
C318 C 0.95187 0.65766 0.029 0.0
C319 C 0.95182 0.64247 0.00438 0.0
C320 C 0.96171 0.63864 0.01335 0.0
C321 C 0.94699 0.65231 0.01214 0.0
H322 H 0.96576 0.6578 0.05042 0.0
H323 H 0.96611 0.63177 0.00715 0.0
O324 O 0.01077 0.63662 0.0596 0.0
O325 O 0.98606 0.64737 0.06504 0.0
O326 O 0.00294 0.65436 0.03338 0.0
O327 O 0.97922 0.61918 0.03931 0.0
H328 H 0.02176 0.63263 0.08842 0.0
H329 H 0.03432 0.64994 0.03983 0.0
H330 H 0.04968 0.64079 0.09556 0.0
H331 H 0.06203 0.65799 0.04785 0.0
H332 H 0.94477 0.63011 0.09778 0.0
H333 H 0.00238 0.6606 0.09399 0.0
H334 H 0.95566 0.63207 0.07012 0.0
H335 H 0.99068 0.6583 0.12122 0.0
H336 H 0.05142 0.69495 0.0983 0.0
H337 H 0.0298 0.71281 0.06436 0.0
H338 H 0.95608 0.57392 0.08238 0.0
H339 H 0.99015 0.61033 0.11875 0.0
H340 H 0.99299 0.6568 0.00318 0.0
H341 H 0.03402 0.6734 0.03712 0.0
H342 H 0.01022 0.67382 0.98211 0.0
H343 H 0.05052 0.68998 0.01542 0.0
H344 H 0.9745 0.60491 0.00908 0.0
H345 H 0.95157 0.61161 0.05049 0.0
H346 H 0.94831 0.58797 0.99387 0.0
H347 H 0.92576 0.59456 0.03457 0.0
H348 H 0.02338 0.60066 0.01416 0.0
H349 H 0.00578 0.61998 0.97738 0.0
H350 H 0.94833 0.66522 0.03543 0.0
H351 H 0.94851 0.63833 0.99132 0.0
Li352 Li 0.35624 0.37587 0.01042 0.0
Li353 Li 0.38268 0.38031 0.01792 0.0
Li354 Li 0.37629 0.38883 0.99122 0.0
Li355 Li 0.36643 0.36073 0.99444 0.0
C356 C 0.37237 0.40578 0.02391 0.0
N357 N 0.3638 0.42409 0.04294 0.0
C358 C 0.37779 0.41007 0.04072 0.0
C359 C 0.36276 0.41096 0.01672 0.0
C360 C 0.37329 0.4193 0.05015 0.0
C361 C 0.3585 0.42016 0.02657 0.0
C362 C 0.36045 0.3497 0.02935 0.0
C363 C 0.36451 0.32851 0.03767 0.0
N364 N 0.35673 0.32745 0.05159 0.0
C365 C 0.35232 0.34824 0.04364 0.0
C366 C 0.36645 0.33963 0.02625 0.0
C367 C 0.35064 0.337 0.05478 0.0
C368 C 0.32401 0.36516 0.00918 0.0
N369 N 0.33752 0.37299 0.01927 0.0
C370 C 0.32316 0.37265 0.04263 0.0
C371 C 0.33738 0.37687 0.03569 0.0
C372 C 0.30897 0.36408 0.03263 0.0
C373 C 0.3095 0.36053 0.01564 0.0
H374 H 0.32445 0.36195 0.99624 0.0
H375 H 0.34822 0.38259 0.04357 0.0
C376 C 0.41351 0.39399 0.03354 0.0
N377 N 0.39789 0.38568 0.03608 0.0
C378 C 0.42477 0.39876 0.04699 0.0
C379 C 0.40364 0.38632 0.06535 0.0
C380 C 0.39282 0.38185 0.05158 0.0
C381 C 0.41986 0.39499 0.06317 0.0
H382 H 0.41721 0.3971 0.02111 0.0
H383 H 0.38038 0.37577 0.05336 0.0
C384 C 0.35027 0.3732 0.97069 0.0
N385 N 0.34217 0.37867 0.93942 0.0
C386 C 0.3512 0.36502 0.95647 0.0
C387 C 0.34502 0.38399 0.96903 0.0
C388 C 0.3471 0.36799 0.94076 0.0
C389 C 0.34104 0.38664 0.95311 0.0
C390 C 0.39888 0.37288 0.99113 0.0
C391 C 0.40594 0.37607 0.97594 0.0
C392 C 0.40234 0.36445 0.00248 0.0
C393 C 0.41612 0.3705 0.97224 0.0
C394 C 0.41259 0.35908 0.99833 0.0
N395 N 0.41919 0.36217 0.98341 0.0
C396 C 0.38886 0.4199 0.98043 0.0
C397 C 0.38656 0.40044 0.96 0.0
C398 C 0.39573 0.43175 0.96928 0.0
N399 N 0.38452 0.40463 0.97563 0.0
C400 C 0.39327 0.41185 0.94842 0.0
C401 C 0.39812 0.42778 0.95308 0.0
H402 H 0.38727 0.42294 0.993 0.0
H403 H 0.38325 0.38826 0.95661 0.0
C404 C 0.34487 0.32903 0.98802 0.0
N405 N 0.35935 0.3403 0.98389 0.0
C406 C 0.33791 0.31349 0.98091 0.0
C407 C 0.36084 0.32147 0.9652 0.0
C408 C 0.36737 0.3369 0.97264 0.0
C409 C 0.34591 0.30953 0.96934 0.0
H410 H 0.33868 0.33218 0.99681 0.0
H411 H 0.37871 0.34611 0.9693 0.0
O412 O 0.37657 0.39667 0.01451 0.0
O413 O 0.36207 0.36057 0.01825 0.0
O414 O 0.35438 0.37058 0.98616 0.0
O415 O 0.38887 0.37826 0.99491 0.0
H416 H 0.38536 0.4063 0.04645 0.0
H417 H 0.35857 0.40785 0.00371 0.0
H418 H 0.37734 0.42265 0.0632 0.0
H419 H 0.35099 0.42417 0.0212 0.0
H420 H 0.36912 0.32067 0.03543 0.0
H421 H 0.34745 0.35581 0.04618 0.0
H422 H 0.37237 0.34021 0.01505 0.0
H423 H 0.34448 0.33584 0.06594 0.0
H424 H 0.32321 0.37536 0.05585 0.0
H425 H 0.29879 0.35396 0.00755 0.0
H426 H 0.43716 0.40539 0.04475 0.0
H427 H 0.39931 0.38352 0.07764 0.0
H428 H 0.3552 0.3566 0.95754 0.0
H429 H 0.34405 0.39026 0.97993 0.0
H430 H 0.34787 0.36184 0.92964 0.0
H431 H 0.33705 0.39503 0.95163 0.0
H432 H 0.40353 0.38272 0.96707 0.0
H433 H 0.39731 0.36221 0.01444 0.0
H434 H 0.42159 0.3728 0.96049 0.0
H435 H 0.41533 0.35251 0.007 0.0
H436 H 0.39926 0.44389 0.97334 0.0
H437 H 0.39515 0.40834 0.93616 0.0
H438 H 0.32627 0.30476 0.98424 0.0
H439 H 0.36745 0.31891 0.95641 0.0
Li440 Li 0.62737 0.99001 0.05009 0.0
Li441 Li 0.61908 0.00789 0.06053 0.0
Li442 Li 0.61508 0.9988 0.03069 0.0
Li443 Li 0.64171 0.01744 0.04241 0.0
C444 C 0.59636 0.97069 0.05345 0.0
N445 N 0.57799 0.93939 0.06083 0.0
C446 C 0.58979 0.96711 0.06889 0.0
C447 C 0.59348 0.95835 0.04173 0.0
C448 C 0.58055 0.95121 0.07238 0.0
C449 C 0.58421 0.94261 0.04571 0.0
C450 C 0.64406 0.00464 0.07903 0.0
C451 C 0.66293 0.00047 0.09467 0.0
N452 N 0.65218 0.99297 0.10603 0.0
C453 C 0.6332 0.99688 0.09088 0.0
C454 C 0.65907 0.00649 0.08096 0.0
C455 C 0.63753 0.9911 0.10445 0.0
C456 C 0.64423 0.97424 0.04849 0.0
N457 N 0.6319 0.9739 0.05587 0.0
C458 C 0.63181 0.95611 0.07535 0.0
C459 C 0.62537 0.96473 0.06879 0.0
C460 C 0.64515 0.95702 0.06864 0.0
C461 C 0.65104 0.96577 0.05465 0.0
H462 H 0.64947 0.98195 0.03852 0.0
H463 H 0.61595 0.96499 0.07486 0.0
C464 C 0.59394 0.0062 0.07634 0.0
N465 N 0.60987 0.0132 0.07802 0.0
C466 C 0.58576 0.00727 0.0896 0.0
C467 C 0.61065 0.02377 0.10565 0.0
C468 C 0.61837 0.02227 0.09208 0.0
C469 C 0.59411 0.01577 0.10464 0.0
H470 H 0.58754 0.99915 0.06495 0.0
H471 H 0.63106 0.0277 0.09303 0.0
C472 C 0.63379 0.99339 0.01185 0.0
N473 N 0.63213 0.98455 0.97837 0.0
C474 C 0.64074 0.00499 0.00044 0.0
C475 C 0.62621 0.97731 0.00629 0.0
C476 C 0.63971 0.00028 0.98355 0.0
C477 C 0.62544 0.97308 0.98929 0.0
C478 C 0.62753 0.03609 0.04585 0.0
C479 C 0.61999 0.04334 0.03832 0.0
C480 C 0.63919 0.04441 0.05882 0.0
C481 C 0.62425 0.05884 0.04391 0.0
C482 C 0.64311 0.05988 0.06405 0.0
N483 N 0.63562 0.06672 0.05655 0.0
C484 C 0.58726 0.98148 0.00839 0.0
C485 C 0.60744 0.00626 0.00033 0.0
C486 C 0.5776 0.97976 0.99428 0.0
N487 N 0.60185 0.99461 0.01111 0.0
C488 C 0.59828 0.00499 0.98606 0.0
C489 C 0.58302 0.99172 0.98298 0.0
H490 H 0.58296 0.97257 0.01737 0.0
H491 H 0.61898 0.0167 0.00299 0.0
C492 C 0.67358 0.03056 0.03871 0.0
N493 N 0.66161 0.03356 0.03648 0.0
C494 C 0.68778 0.0398 0.03153 0.0
C495 C 0.67716 0.05523 0.02009 0.0
C496 C 0.66318 0.04576 0.02762 0.0
C497 C 0.68951 0.05201 0.02166 0.0
H498 H 0.67171 0.02032 0.04509 0.0
H499 H 0.65328 0.04751 0.02549 0.0
O500 O 0.60537 0.98618 0.04976 0.0
O501 O 0.63988 0.01003 0.06542 0.0
O502 O 0.63453 0.99776 0.02841 0.0
O503 O 0.62338 0.02089 0.04052 0.0
H504 H 0.59192 0.97648 0.07815 0.0
H505 H 0.59837 0.96091 0.0297 0.0
H506 H 0.57546 0.94827 0.08431 0.0
H507 H 0.58193 0.93295 0.03677 0.0
H508 H 0.67448 0.00174 0.09625 0.0
H509 H 0.6214 0.99495 0.08942 0.0
H510 H 0.66765 0.01242 0.07196 0.0
H511 H 0.62919 0.98497 0.11364 0.0
H512 H 0.62686 0.94941 0.08609 0.0
H513 H 0.66142 0.96693 0.04923 0.0
H514 H 0.57301 0.00112 0.08828 0.0
H515 H 0.61748 0.03039 0.11708 0.0
H516 H 0.64671 0.01749 0.00453 0.0
H517 H 0.62105 0.9682 0.015 0.0
H518 H 0.64493 0.00912 0.97455 0.0
H519 H 0.61955 0.96067 0.9848 0.0
H520 H 0.61093 0.03704 0.02827 0.0
H521 H 0.64519 0.03903 0.06477 0.0
H522 H 0.61851 0.0646 0.0382 0.0
H523 H 0.65211 0.06646 0.07407 0.0
H524 H 0.56586 0.96945 0.99254 0.0
H525 H 0.60309 0.01438 0.97759 0.0
H526 H 0.69686 0.03668 0.03272 0.0
H527 H 0.67804 0.06452 0.01253 0.0
Li528 Li 0.65454 0.68528 0.343 0.0
Li529 Li 0.68033 0.69828 0.35993 0.0
Li530 Li 0.6604 0.70718 0.36238 0.0
Li531 Li 0.67478 0.71187 0.33826 0.0
C532 C 0.64878 0.67112 0.37084 0.0
N533 N 0.629 0.6394 0.37585 0.0
C534 C 0.65495 0.66114 0.37307 0.0
C535 C 0.63257 0.66498 0.37131 0.0
C536 C 0.64475 0.64514 0.37556 0.0
C537 C 0.62276 0.64891 0.3738 0.0
C538 C 0.68218 0.69336 0.32098 0.0
C539 C 0.70472 0.70242 0.30458 0.0
N540 N 0.69495 0.69718 0.29039 0.0
C541 C 0.67235 0.68802 0.30626 0.0
C542 C 0.69848 0.70059 0.32017 0.0
C543 C 0.67905 0.69008 0.29091 0.0
C544 C 0.62501 0.66184 0.32637 0.0
N545 N 0.63946 0.66513 0.33257 0.0
C546 C 0.63387 0.63906 0.32357 0.0
C547 C 0.64407 0.65418 0.3312 0.0
C548 C 0.61879 0.6352 0.31716 0.0
C549 C 0.6144 0.64683 0.31862 0.0
H550 H 0.62175 0.67085 0.32735 0.0
H551 H 0.65576 0.65727 0.33601 0.0
C552 C 0.69796 0.69824 0.38822 0.0
N553 N 0.69471 0.6941 0.37157 0.0
C554 C 0.70721 0.69378 0.39749 0.0
C555 C 0.7097 0.68109 0.3722 0.0
C556 C 0.70038 0.68576 0.36345 0.0
C557 C 0.71308 0.68493 0.3895 0.0
H558 H 0.69301 0.70464 0.39435 0.0
H559 H 0.69731 0.68236 0.35025 0.0
C560 C 0.64187 0.70926 0.34048 0.0
N561 N 0.62193 0.72113 0.34483 0.0
C562 C 0.6464 0.72469 0.33637 0.0
C563 C 0.62719 0.69988 0.3468 0.0
C564 C 0.63614 0.73046 0.33864 0.0
C565 C 0.61728 0.7061 0.34892 0.0
C566 C 0.69698 0.7346 0.36048 0.0
C567 C 0.69575 0.74764 0.35608 0.0
C568 C 0.71187 0.73644 0.36386 0.0
C569 C 0.70945 0.76231 0.35504 0.0
C570 C 0.72529 0.75132 0.36271 0.0
N571 N 0.72381 0.76383 0.35835 0.0
C572 C 0.64427 0.70694 0.39101 0.0
C573 C 0.65574 0.73103 0.37763 0.0
C574 C 0.63932 0.7135 0.4035 0.0
N575 N 0.6524 0.71578 0.37846 0.0
C576 C 0.65092 0.73801 0.38974 0.0
C577 C 0.64283 0.72933 0.40309 0.0
H578 H 0.64201 0.69494 0.39158 0.0
H579 H 0.66231 0.73788 0.36766 0.0
C580 C 0.67327 0.72434 0.30819 0.0
N581 N 0.68381 0.72546 0.32039 0.0
C582 C 0.67834 0.73394 0.29483 0.0
C583 C 0.70519 0.74513 0.30625 0.0
C584 C 0.69958 0.73521 0.31936 0.0
C585 C 0.69448 0.74471 0.29388 0.0
H586 H 0.66085 0.71605 0.3089 0.0
H587 H 0.70783 0.73533 0.32868 0.0
O588 O 0.65852 0.68673 0.36793 0.0
O589 O 0.67587 0.69186 0.33609 0.0
O590 O 0.65182 0.70343 0.33852 0.0
O591 O 0.68373 0.72016 0.36176 0.0
H592 H 0.66744 0.66563 0.37271 0.0
H593 H 0.62758 0.67251 0.3696 0.0
H594 H 0.64936 0.63727 0.37721 0.0
H595 H 0.61018 0.64398 0.37407 0.0
H596 H 0.71732 0.70808 0.30374 0.0
H597 H 0.65971 0.68252 0.30669 0.0
H598 H 0.70625 0.70497 0.33146 0.0
H599 H 0.6716 0.68608 0.27941 0.0
H600 H 0.63786 0.63058 0.32244 0.0
H601 H 0.60285 0.64433 0.31396 0.0
H602 H 0.70933 0.69682 0.41083 0.0
H603 H 0.71413 0.67446 0.3655 0.0
H604 H 0.65783 0.73227 0.33179 0.0
H605 H 0.62354 0.688 0.35023 0.0
H606 H 0.63954 0.7424 0.33559 0.0
H607 H 0.60593 0.69899 0.35388 0.0
H608 H 0.68437 0.74639 0.35314 0.0
H609 H 0.71306 0.7265 0.36729 0.0
H610 H 0.70867 0.77247 0.35152 0.0
H611 H 0.73688 0.75291 0.36526 0.0
H612 H 0.63334 0.70643 0.41368 0.0
H613 H 0.6537 0.75017 0.38875 0.0
H614 H 0.66965 0.73322 0.2856 0.0
H615 H 0.71776 0.75301 0.30577 0.0
Li616 Li 0.28023 0.9502 0.38568 0.0
Li617 Li 0.28689 0.94439 0.41207 0.0
Li618 Li 0.29684 0.97235 0.40525 0.0
Li619 Li 0.30636 0.95582 0.3917 0.0
C620 C 0.25944 0.95068 0.40678 0.0
N621 N 0.22778 0.94098 0.40444 0.0
C622 C 0.24816 0.93453 0.40403 0.0
C623 C 0.25466 0.9619 0.40844 0.0
C624 C 0.2322 0.92987 0.40284 0.0
C625 C 0.23858 0.95675 0.4072 0.0
C626 C 0.29103 0.92335 0.39216 0.0
C627 C 0.30665 0.91421 0.40646 0.0
N628 N 0.29909 0.90038 0.39661 0.0
C629 C 0.28343 0.90904 0.38218 0.0
C630 C 0.30274 0.92597 0.40441 0.0
C631 C 0.28767 0.89758 0.38462 0.0
C632 C 0.26776 0.93445 0.35504 0.0
N633 N 0.26508 0.94293 0.36696 0.0
C634 C 0.24526 0.94301 0.34881 0.0
C635 C 0.25397 0.94713 0.36424 0.0
C636 C 0.24826 0.93476 0.3361 0.0
C637 C 0.25945 0.9302 0.33948 0.0
H638 H 0.27687 0.93156 0.3574 0.0
H639 H 0.25237 0.95433 0.37364 0.0
C640 C 0.28571 0.9363 0.44537 0.0
N641 N 0.27971 0.9305 0.42945 0.0
C642 C 0.28035 0.92631 0.45844 0.0
C643 C 0.26281 0.90461 0.43841 0.0
C644 C 0.26853 0.915 0.42575 0.0
C645 C 0.26866 0.91024 0.45504 0.0
H646 H 0.29458 0.9487 0.4479 0.0
H647 H 0.26395 0.91074 0.41296 0.0
C648 C 0.2948 0.97575 0.36908 0.0
N649 N 0.28343 0.98646 0.34388 0.0
C650 C 0.29842 0.97467 0.35262 0.0
C651 C 0.28544 0.98234 0.37272 0.0
C652 C 0.29253 0.98011 0.34005 0.0
C653 C 0.27982 0.98771 0.35982 0.0
C654 C 0.32374 0.975 0.42094 0.0
C655 C 0.33248 0.98666 0.4101 0.0
C656 C 0.33023 0.97586 0.43699 0.0
C657 C 0.34759 0.99899 0.41553 0.0
C658 C 0.34539 0.98839 0.44196 0.0
N659 N 0.35368 -0.0004 0.43122 0.0
C660 C 0.29961 0.99568 0.42955 0.0
C661 C 0.31217 0.00553 0.40467 0.0
C662 C 0.30509 0.01116 0.43635 0.0
N663 N 0.30323 0.99322 0.41398 0.0
C664 C 0.31778 0.02113 0.4109 0.0
C665 C 0.31428 0.02411 0.42695 0.0
H666 H 0.29261 0.98563 0.43671 0.0
H667 H 0.31517 0.00325 0.39247 0.0
C668 C 0.32182 0.95343 0.36496 0.0
N669 N 0.32365 0.95606 0.38184 0.0
C670 C 0.33435 0.95526 0.35597 0.0
C671 C 0.35008 0.96125 0.38202 0.0
C672 C 0.33721 0.95931 0.39052 0.0
C673 C 0.34886 0.9597 0.36447 0.0
H674 H 0.31068 0.95024 0.35849 0.0
H675 H 0.33822 0.96084 0.40399 0.0
O676 O 0.27511 0.95552 0.40799 0.0
O677 O 0.28689 0.93461 0.38984 0.0
O678 O 0.30002 0.97003 0.38154 0.0
O679 O 0.3088 0.96292 0.41604 0.0
H680 H 0.2517 0.92574 0.40261 0.0
H681 H 0.26329 0.97444 0.41063 0.0
H682 H 0.22332 0.91742 0.40062 0.0
H683 H 0.23469 0.96529 0.40841 0.0
H684 H 0.31568 0.91608 0.41589 0.0
H685 H 0.27431 0.90682 0.37266 0.0
H686 H 0.30876 0.93691 0.4123 0.0
H687 H 0.28187 0.88645 0.37699 0.0
H688 H 0.23685 0.94689 0.34659 0.0
H689 H 0.262 0.92371 0.33006 0.0
H690 H 0.28531 0.93112 0.47104 0.0
H691 H 0.25362 0.8924 0.43522 0.0
H692 H 0.30567 0.96966 0.34952 0.0
H693 H 0.28228 0.98304 0.38534 0.0
H694 H 0.29518 0.97927 0.32725 0.0
H695 H 0.27249 0.99274 0.36246 0.0
H696 H 0.32773 0.98616 0.3976 0.0
H697 H 0.32363 0.96695 0.44554 0.0
H698 H 0.35449 0.00808 0.40727 0.0
H699 H 0.35056 0.9892 0.45435 0.0
H700 H 0.30209 0.01298 0.44875 0.0
H701 H 0.32506 0.03079 0.40337 0.0
H702 H 0.33277 0.9535 0.34247 0.0
H703 H 0.36105 0.9646 0.38906 0.0
Li704 Li 0.05533 0.32373 0.34145 0.0
Li705 Li 0.06182 0.33449 0.37003 0.0
Li706 Li 0.03429 0.31965 0.35802 0.0
Li707 Li 0.05172 0.34628 0.34992 0.0
C708 C 0.04989 0.29838 0.35868 0.0
N709 N 0.05186 0.27147 0.3518 0.0
C710 C 0.06149 0.29654 0.36714 0.0
C711 C 0.03915 0.28641 0.34694 0.0
C712 C 0.06233 0.28288 0.36343 0.0
C713 C 0.04038 0.27294 0.34357 0.0
C714 C 0.08652 0.34845 0.34755 0.0
C715 C 0.11117 0.36251 0.33466 0.0
N716 N 0.11619 0.35349 0.34217 0.0
C717 C 0.09195 0.33933 0.35513 0.0
C718 C 0.09621 0.36015 0.33722 0.0
C719 C 0.10696 0.34204 0.35227 0.0
C720 C 0.05705 0.31725 0.30764 0.0
N721 N 0.06186 0.31576 0.3232 0.0
C722 C 0.07796 0.30636 0.31175 0.0
C723 C 0.07197 0.31025 0.32546 0.0
C724 C 0.07345 0.30812 0.29557 0.0
C725 C 0.06261 0.31334 0.29357 0.0
H726 H 0.04928 0.32198 0.30615 0.0
H727 H 0.07582 0.30932 0.33789 0.0
C728 C 0.06947 0.32785 0.40129 0.0
N729 N 0.0748 0.33902 0.38996 0.0
C730 C 0.07847 0.3303 0.41614 0.0
C731 C 0.09811 0.3559 0.40756 0.0
C732 C 0.08875 0.35291 0.39281 0.0
C733 C 0.09303 0.34445 0.4194 0.0
H734 H 0.05822 0.31701 0.39874 0.0
H735 H 0.09265 0.36162 0.3836 0.0
C736 C 0.02275 0.31901 0.32771 0.0
N737 N 0.99223 0.30249 0.31336 0.0
C738 C 0.0132 0.32579 0.32829 0.0
C739 C 0.01685 0.30394 0.31957 0.0
C740 C 0.99778 0.31722 0.32105 0.0
C741 C 0.00138 0.29575 0.31245 0.0
C742 C 0.04993 0.35237 0.38398 0.0
C743 C 0.04095 0.35113 0.39745 0.0
C744 C 0.06413 0.36648 0.38248 0.0
C745 C 0.04635 0.36405 0.40926 0.0
C746 C 0.06913 0.37912 0.39456 0.0
N747 N 0.06021 0.37766 0.40759 0.0
C748 C 0.0057 0.29099 0.36452 0.0
C749 C 0.00585 0.31536 0.36675 0.0
C750 C 0.99032 0.28283 0.36956 0.0
N751 N 0.01311 0.30697 0.36333 0.0
C752 C 0.99052 0.30772 0.37173 0.0
C753 C 0.98262 0.29128 0.37347 0.0
H754 H 0.01183 0.28464 0.36196 0.0
H755 H 0.01209 0.32808 0.36577 0.0
C756 C 0.0621 0.37435 0.33289 0.0
N757 N 0.0518 0.36474 0.34366 0.0
C758 C 0.061 0.38706 0.32715 0.0
C759 C 0.03881 0.3798 0.34387 0.0
C760 C 0.04047 0.36737 0.34942 0.0
C761 C 0.049 0.38973 0.33236 0.0
H762 H 0.0709 0.37188 0.32843 0.0
H763 H 0.03234 0.35941 0.35787 0.0
O764 O 0.04889 0.31169 0.36212 0.0
O765 O 0.07184 0.346 0.3502 0.0
O766 O 0.03779 0.32711 0.33503 0.0
O767 O 0.04479 0.33978 0.37238 0.0
H768 H 0.0698 0.30557 0.37642 0.0
H769 H 0.02998 0.28752 0.34047 0.0
H770 H 0.0713 0.28135 0.36981 0.0
H771 H 0.0322 0.26364 0.33442 0.0
H772 H 0.11879 0.37154 0.3267 0.0
H773 H 0.0846 0.33016 0.36304 0.0
H774 H 0.09226 0.36734 0.33124 0.0
H775 H 0.11126 0.33502 0.35804 0.0
H776 H 0.08625 0.30231 0.3138 0.0
H777 H 0.05903 0.31509 0.2813 0.0
H778 H 0.07399 0.32129 0.42506 0.0
H779 H 0.10929 0.36692 0.40955 0.0
H780 H 0.01757 0.33746 0.33443 0.0
H781 H 0.02416 0.29865 0.31864 0.0
H782 H 0.99023 0.32227 0.32155 0.0
H783 H 0.99665 0.28405 0.30617 0.0
H784 H 0.02992 0.34027 0.39877 0.0
H785 H 0.07125 0.36766 0.37214 0.0
H786 H 0.03952 0.36325 0.41977 0.0
H787 H 0.08011 0.3901 0.39357 0.0
H788 H 0.98473 0.27018 0.37094 0.0
H789 H 0.98498 0.31467 0.37434 0.0
H790 H 0.06929 0.39453 0.3185 0.0
H791 H 0.02921 0.38114 0.34804 0.0
Li792 Li 0.67629 0.97807 0.387 0.0
Li793 Li 0.65739 0.95041 0.3917 0.0
Li794 Li 0.67463 0.95707 0.3687 0.0
Li795 Li 0.65272 0.96233 0.36824 0.0
C796 C 0.69184 0.95709 0.39492 0.0
N797 N 0.71402 0.94777 0.3975 0.0
C798 C 0.68815 0.94285 0.40189 0.0
C799 C 0.70684 0.96664 0.38937 0.0
C800 C 0.69952 0.93835 0.40307 0.0
C801 C 0.71788 0.9617 0.39074 0.0
C802 C 0.64624 0.96684 0.40611 0.0
C803 C 0.62258 0.95335 0.42075 0.0
N804 N 0.6308 0.96201 0.43511 0.0
C805 C 0.65444 0.97566 0.42099 0.0
C806 C 0.63017 0.95564 0.40595 0.0
C807 C 0.64642 0.97303 0.43552 0.0
C808 C 0.68396 0.0091 0.39665 0.0
N809 N 0.68941 0.99882 0.39737 0.0
C810 C 0.7131 0.01858 0.41264 0.0
C811 C 0.7036 0.00316 0.40524 0.0
C812 C 0.70789 0.02956 0.41187 0.0
C813 C 0.69309 0.02465 0.40376 0.0
H814 H 0.67249 0.0052 0.3905 0.0
H815 H 0.70756 0.99468 0.40577 0.0
C816 C 0.63682 0.92038 0.40319 0.0
N817 N 0.64816 0.93558 0.40809 0.0
C818 C 0.63111 0.90883 0.41474 0.0
C819 C 0.64855 0.92889 0.43626 0.0
C820 C 0.654 0.94003 0.42426 0.0
C821 C 0.63717 0.91298 0.43147 0.0
H822 H 0.63258 0.91711 0.3902 0.0
H823 H 0.66329 0.95212 0.42771 0.0
C824 C 0.68341 0.99168 0.35871 0.0
N825 N 0.70133 0.02355 0.3533 0.0
C826 C 0.67607 0.0003 0.3547 0.0
C827 C 0.69985 0.99923 0.35981 0.0
C828 C 0.68534 0.01641 0.35204 0.0
C829 C 0.7087 0.01537 0.35709 0.0
C830 C 0.64011 0.93246 0.3563 0.0
C831 C 0.64386 0.92891 0.34072 0.0
C832 C 0.62437 0.92704 0.35927 0.0
C833 C 0.63178 0.92007 0.32829 0.0
C834 C 0.61264 0.91826 0.3465 0.0
N835 N 0.61655 0.91499 0.33141 0.0
C836 C 0.68432 0.93563 0.35859 0.0
C837 C 0.6937 0.95813 0.34268 0.0
C838 C 0.69146 0.92935 0.34867 0.0
N839 N 0.68561 0.94978 0.35548 0.0
C840 C 0.7008 0.95215 0.33223 0.0
C841 C 0.69963 0.93747 0.33505 0.0
H842 H 0.67751 0.92909 0.36865 0.0
H843 H 0.69425 0.9692 0.34028 0.0
C844 C 0.62916 0.96984 0.36199 0.0
N845 N 0.63757 0.96406 0.35455 0.0
C846 C 0.61899 0.97286 0.35239 0.0
C847 C 0.62601 0.96354 0.32764 0.0
C848 C 0.63629 0.96097 0.33771 0.0
C849 C 0.6174 0.96978 0.33499 0.0
H850 H 0.63068 0.97253 0.37536 0.0
H851 H 0.64351 0.95687 0.33208 0.0
O852 O 0.68081 0.96163 0.39349 0.0
O853 O 0.65392 0.96904 0.39181 0.0
O854 O 0.67456 0.976 0.36177 0.0
O855 O 0.65177 0.9412 0.36859 0.0
H856 H 0.67659 0.93527 0.40619 0.0
H857 H 0.70987 0.97764 0.38387 0.0
H858 H 0.69681 0.92732 0.40836 0.0
H859 H 0.7295 0.96892 0.38638 0.0
H860 H 0.61017 0.94466 0.42083 0.0
H861 H 0.66689 0.98432 0.42135 0.0
H862 H 0.62367 0.94872 0.39453 0.0
H863 H 0.65262 0.97971 0.44715 0.0
H864 H 0.72449 0.02193 0.41866 0.0
H865 H 0.68854 0.03267 0.4031 0.0
H866 H 0.62227 0.89671 0.41057 0.0
H867 H 0.65372 0.93253 0.44897 0.0
H868 H 0.66337 0.99466 0.35384 0.0
H869 H 0.70571 0.99273 0.36291 0.0
H870 H 0.67983 0.02325 0.34903 0.0
H871 H 0.72144 0.02139 0.35802 0.0
H872 H 0.65597 0.93301 0.3382 0.0
H873 H 0.62128 0.92972 0.37125 0.0
H874 H 0.63451 0.91728 0.31615 0.0
H875 H 0.60042 0.91408 0.34859 0.0
H876 H 0.69039 0.91814 0.35155 0.0
H877 H 0.70664 0.95871 0.32171 0.0
H878 H 0.6125 0.97765 0.35848 0.0
H879 H 0.62522 0.96121 0.31423 0.0
Li880 Li 0.05412 0.72234 0.35449 0.0
Li881 Li 0.02627 0.71428 0.34803 0.0
Li882 Li 0.03845 0.70287 0.33187 0.0
Li883 Li 0.04577 0.72977 0.32912 0.0
C884 C 0.03533 0.68783 0.35913 0.0
N885 N 0.03571 0.6602 0.36407 0.0
C886 C 0.02143 0.67393 0.36205 0.0
C887 C 0.04944 0.6877 0.35879 0.0
C888 C 0.02186 0.66008 0.3645 0.0
C889 C 0.04938 0.6736 0.3613 0.0
C890 C 0.04546 0.74319 0.36799 0.0
C891 C 0.05235 0.76632 0.38634 0.0
N892 N 0.04712 0.75695 0.39936 0.0
C893 C 0.04016 0.73379 0.38155 0.0
C894 C 0.05163 0.75958 0.37039 0.0
C895 C 0.04109 0.74097 0.39731 0.0
C896 C 0.08482 0.74121 0.37057 0.0
N897 N 0.07006 0.72882 0.37208 0.0
C898 C 0.07715 0.72581 0.39985 0.0
C899 C 0.06608 0.72109 0.38631 0.0
C900 C 0.0925 0.73865 0.39879 0.0
C901 C 0.09631 0.74637 0.38387 0.0
H902 H 0.08761 0.74718 0.35911 0.0
H903 H 0.0542 0.7114 0.38725 0.0
C904 C 0.99545 0.69367 0.35492 0.0
N905 N 0.00682 0.70928 0.35688 0.0
C906 C 0.98111 0.68834 0.36204 0.0
C907 C 0.99014 0.71542 0.37238 0.0
C908 C 0.00426 0.72024 0.36492 0.0
C909 C 0.97847 0.69923 0.37125 0.0
H910 H 0.99766 0.68532 0.34801 0.0
H911 H 0.01324 0.73268 0.36578 0.0
C912 C 0.06709 0.72208 0.31699 0.0
N913 N 0.08115 0.72465 0.28733 0.0
C914 C 0.05783 0.71552 0.30197 0.0
C915 C 0.0835 0.72996 0.31693 0.0
C916 C 0.06516 0.71695 0.28711 0.0
C917 C 0.09039 0.73113 0.30181 0.0
C918 C 0.01449 0.71497 0.31689 0.0
C919 C 0.00306 0.70523 0.30422 0.0
C920 C 0.01539 0.7291 0.32286 0.0
C921 C 0.99271 0.70981 0.29769 0.0
C922 C 0.00483 0.73325 0.31601 0.0
N923 N 0.9938 0.7236 0.30367 0.0
C924 C 0.01875 0.67218 0.31716 0.0
C925 C 0.04589 0.68052 0.31714 0.0
C926 C 0.01463 0.65736 0.3095 0.0
N927 N 0.03415 0.68336 0.32078 0.0
C928 C 0.04232 0.66594 0.30929 0.0
C929 C 0.02649 0.65407 0.3054 0.0
H930 H 0.00968 0.67474 0.32046 0.0
H931 H 0.05804 0.68955 0.32041 0.0
C932 C 0.06501 0.76058 0.31869 0.0
N933 N 0.05279 0.74582 0.31373 0.0
C934 C 0.07213 0.77187 0.307 0.0
C935 C 0.05362 0.75264 0.28549 0.0
C936 C 0.04682 0.7418 0.29757 0.0
C937 C 0.0667 0.76776 0.29008 0.0
H938 H 0.06966 0.76334 0.33159 0.0
H939 H 0.03727 0.7299 0.29388 0.0
O940 O 0.03511 0.70142 0.3562 0.0
O941 O 0.04496 0.73653 0.35247 0.0
O942 O 0.06023 0.72114 0.33169 0.0
O943 O 0.02459 0.7105 0.3234 0.0
H944 H 0.01042 0.67381 0.36242 0.0
H945 H 0.06028 0.69829 0.35631 0.0
H946 H 0.01119 0.64922 0.36674 0.0
H947 H 0.06019 0.67331 0.36096 0.0
H948 H 0.0571 0.779 0.38838 0.0
H949 H 0.03529 0.72107 0.37994 0.0
H950 H 0.05584 0.76703 0.36002 0.0
H951 H 0.03701 0.73383 0.4079 0.0
H952 H 0.07357 0.71972 0.4112 0.0
H953 H 0.10802 0.75626 0.38248 0.0
H954 H 0.97243 0.67576 0.36086 0.0
H955 H 0.98841 0.72423 0.37907 0.0
H956 H 0.04512 0.70948 0.30175 0.0
H957 H 0.09083 0.73516 0.32846 0.0
H958 H 0.05814 0.71196 0.27539 0.0
H959 H 0.10307 0.7372 0.30157 0.0
H960 H 0.00219 0.69424 0.29949 0.0
H961 H 0.02413 0.73681 0.33265 0.0
H962 H 0.98381 0.70238 0.28787 0.0
H963 H 0.0054 0.74415 0.32051 0.0
H964 H 0.00227 0.64851 0.30709 0.0
H965 H 0.05189 0.66408 0.30621 0.0
H966 H 0.0823 0.78334 0.31101 0.0
H967 H 0.049 0.74907 0.27259 0.0
Li968 Li 0.28405 0.34462 0.39688 0.0
Li969 Li 0.29552 0.32967 0.38659 0.0
Li970 Li 0.30509 0.35548 0.37749 0.0
Li971 Li 0.27837 0.33275 0.36673 0.0
C972 C 0.31381 0.36243 0.41227 0.0
N973 N 0.32898 0.38784 0.43598 0.0
C974 C 0.32048 0.36084 0.42721 0.0
C975 C 0.31489 0.37693 0.40938 0.0
C976 C 0.32809 0.37383 0.43905 0.0
C977 C 0.3226 0.38964 0.42151 0.0
C978 C 0.26572 0.30673 0.3923 0.0
C979 C 0.24948 0.27848 0.38549 0.0
N980 N 0.25169 0.27588 0.4016 0.0
C981 C 0.26774 0.30381 0.40882 0.0
C982 C 0.25646 0.294 0.38054 0.0
C983 C 0.26059 0.28811 0.41326 0.0
C984 C 0.26518 0.35459 0.41352 0.0
N985 N 0.27515 0.34889 0.41539 0.0
C986 C 0.27198 0.34748 0.44466 0.0
C987 C 0.27868 0.34539 0.43055 0.0
C988 C 0.26147 0.35318 0.44315 0.0
C989 C 0.25822 0.35693 0.42736 0.0
H990 H 0.26242 0.35706 0.40126 0.0
H991 H 0.28658 0.34078 0.43163 0.0
C992 C 0.31898 0.325 0.3995 0.0
N993 N 0.30387 0.31654 0.39279 0.0
C994 C 0.32715 0.31734 0.40385 0.0
C995 C 0.30406 0.29225 0.39433 0.0
C996 C 0.29641 0.30046 0.38992 0.0
C997 C 0.31967 0.30071 0.40143 0.0
H998 H 0.32486 0.33783 0.40112 0.0
H999 H 0.28464 0.29398 0.38397 0.0
C1000 C 0.28453 0.36725 0.36849 0.0
N1001 N 0.28436 0.39211 0.3535 0.0
C1002 C 0.28241 0.3667 0.35112 0.0
C1003 C 0.28629 0.38035 0.37824 0.0
C1004 C 0.28244 0.37942 0.34378 0.0
C1005 C 0.28625 0.39283 0.37043 0.0
C1006 C 0.30542 0.32706 0.3577 0.0
C1007 C 0.32171 0.33333 0.35861 0.0
C1008 C 0.29532 0.31135 0.35137 0.0
C1009 C 0.32765 0.32369 0.35328 0.0
C1010 C 0.30173 0.3021 0.34615 0.0
N1011 N 0.31762 0.3084 0.34723 0.0
C1012 C 0.33764 0.3766 0.37912 0.0
C1013 C 0.32377 0.37882 0.35561 0.0
C1014 C 0.35202 0.38639 0.37252 0.0
N1015 N 0.32389 0.37284 0.37052 0.0
C1016 C 0.3379 0.38869 0.34854 0.0
C1017 C 0.35225 0.39216 0.35679 0.0
H1018 H 0.33746 0.37116 0.39058 0.0
H1019 H 0.31275 0.37506 0.34861 0.0
C1020 C 0.24831 0.31968 0.34898 0.0
N1021 N 0.26377 0.32439 0.34783 0.0
C1022 C 0.23819 0.31512 0.33452 0.0
C1023 C 0.26006 0.31998 0.31816 0.0
C1024 C 0.2697 0.32438 0.33287 0.0
C1025 C 0.24417 0.3156 0.31883 0.0
H1026 H 0.24398 0.31993 0.36109 0.0
H1027 H 0.28207 0.32835 0.33232 0.0
O1028 O 0.3061 0.34971 0.4007 0.0
O1029 O 0.27246 0.32197 0.38772 0.0
O1030 O 0.28423 0.35477 0.37593 0.0
O1031 O 0.29936 0.33616 0.36327 0.0
H1032 H 0.31969 0.34966 0.42966 0.0
H1033 H 0.30996 0.3784 0.39783 0.0
H1034 H 0.33326 0.37276 0.45068 0.0
H1035 H 0.32354 0.40094 0.41941 0.0
H1036 H 0.24234 0.2685 0.37652 0.0
H1037 H 0.27486 0.31354 0.41805 0.0
H1038 H 0.25475 0.29609 0.36772 0.0
H1039 H 0.26213 0.28566 0.42597 0.0
H1040 H 0.27496 0.34462 0.45663 0.0
H1041 H 0.25004 0.36117 0.42563 0.0
H1042 H 0.33929 0.32445 0.40881 0.0
H1043 H 0.29775 0.27941 0.39228 0.0
H1044 H 0.28097 0.35667 0.34336 0.0
H1045 H 0.28758 0.38086 0.39172 0.0
H1046 H 0.28095 0.37919 0.33034 0.0
H1047 H 0.28767 0.40305 0.37783 0.0
H1048 H 0.32967 0.34546 0.36353 0.0
H1049 H 0.28267 0.30627 0.35074 0.0
H1050 H 0.34023 0.32835 0.35401 0.0
H1051 H 0.29406 0.28988 0.34134 0.0
H1052 H 0.36282 0.38881 0.3793 0.0
H1053 H 0.33752 0.39261 0.33623 0.0
H1054 H 0.22603 0.31194 0.33555 0.0
H1055 H 0.26509 0.32034 0.30633 0.0
Li1056 Li 0.32037 0.01591 0.6745 0.0
Li1057 Li 0.34636 0.03151 0.68817 0.0
Li1058 Li 0.32592 0.03869 0.69258 0.0
Li1059 Li 0.33798 0.04285 0.66628 0.0
C1060 C 0.31658 0.00511 0.70446 0.0
N1061 N 0.29638 0.97537 0.71499 0.0
C1062 C 0.32017 0.993 0.70269 0.0
C1063 C 0.30287 0.00218 0.71189 0.0
C1064 C 0.30975 0.97802 0.70799 0.0
C1065 C 0.29277 0.98705 0.71706 0.0
C1066 C 0.35417 0.02811 0.65607 0.0
C1067 C 0.38174 0.04595 0.65265 0.0
N1068 N 0.3809 0.03641 0.63932 0.0
C1069 C 0.35358 0.01848 0.64234 0.0
C1070 C 0.36836 0.04196 0.66129 0.0
C1071 C 0.36722 0.02288 0.63404 0.0
C1072 C 0.28989 0.98817 0.66611 0.0
N1073 N 0.30575 0.99447 0.66656 0.0
C1074 C 0.30245 0.96952 0.65637 0.0
C1075 C 0.31214 0.98554 0.66175 0.0
C1076 C 0.28601 0.96263 0.65594 0.0
C1077 C 0.27975 0.97219 0.66084 0.0
H1078 H 0.28505 0.99545 0.66987 0.0
H1079 H 0.3248 0.99083 0.66238 0.0
C1080 C 0.37245 0.04096 0.71117 0.0
N1081 N 0.36295 0.02995 0.69874 0.0
C1082 C 0.38391 0.03921 0.71999 0.0
C1083 C 0.37553 0.01482 0.70301 0.0
C1084 C 0.36438 0.01715 0.69439 0.0
C1085 C 0.38536 0.02586 0.71609 0.0
H1086 H 0.37086 0.05089 0.71448 0.0
H1087 H 0.35662 0.0086 0.68443 0.0
C1088 C 0.30198 0.03379 0.66991 0.0
N1089 N 0.27551 0.03671 0.67075 0.0
C1090 C 0.30036 0.04429 0.65987 0.0
C1091 C 0.29015 0.02484 0.68041 0.0
C1092 C 0.28689 0.04558 0.66046 0.0
C1093 C 0.27686 0.02646 0.68065 0.0
C1094 C 0.35231 0.06856 0.69068 0.0
C1095 C 0.34267 0.07341 0.68287 0.0
C1096 C 0.36566 0.07963 0.70071 0.0
C1097 C 0.34653 0.08926 0.68525 0.0
C1098 C 0.36913 0.09538 0.70279 0.0
N1099 N 0.35957 0.09982 0.69508 0.0
C1100 C 0.32325 0.04617 0.72534 0.0
C1101 C 0.31193 0.05626 0.70648 0.0
C1102 C 0.32032 0.05345 0.73891 0.0
N1103 N 0.31909 0.04771 0.70951 0.0
C1104 C 0.30848 0.06348 0.71973 0.0
C1105 C 0.3129 0.06227 0.73614 0.0
H1106 H 0.32922 0.03958 0.72737 0.0
H1107 H 0.30928 0.05793 0.69384 0.0
C1108 C 0.33403 0.05156 0.63458 0.0
N1109 N 0.34451 0.05592 0.64803 0.0
C1110 C 0.33733 0.06157 0.62161 0.0
C1111 C 0.36261 0.07989 0.63609 0.0
C1112 C 0.35877 0.06956 0.64884 0.0
C1113 C 0.35164 0.07611 0.62246 0.0
H1114 H 0.32288 0.04052 0.6342 0.0
H1115 H 0.36696 0.07268 0.65963 0.0
O1116 O 0.32645 0.01975 0.69898 0.0
O1117 O 0.34086 0.02392 0.66425 0.0
O1118 O 0.31514 0.03243 0.66954 0.0
O1119 O 0.34871 0.05307 0.68863 0.0
H1120 H 0.33075 0.99507 0.69703 0.0
H1121 H 0.30008 0.0115 0.71369 0.0
H1122 H 0.31229 0.96849 0.70651 0.0
H1123 H 0.28208 0.9846 0.72275 0.0
H1124 H 0.39279 0.05664 0.65654 0.0
H1125 H 0.34268 0.00773 0.63814 0.0
H1126 H 0.36908 0.04958 0.67187 0.0
H1127 H 0.36694 0.01554 0.62339 0.0
H1128 H 0.30778 0.96255 0.6529 0.0
H1129 H 0.26715 0.96742 0.66045 0.0
H1130 H 0.39119 0.04789 0.73011 0.0
H1131 H 0.37641 0.00446 0.69955 0.0
H1132 H 0.30943 0.05147 0.65178 0.0
H1133 H 0.29133 0.01692 0.6885 0.0
H1134 H 0.2855 0.05367 0.65277 0.0
H1135 H 0.26766 0.01963 0.68878 0.0
H1136 H 0.33233 0.06504 0.67504 0.0
H1137 H 0.37328 0.0761 0.70683 0.0
H1138 H 0.33915 0.09315 0.67928 0.0
H1139 H 0.37943 0.10407 0.71052 0.0
H1140 H 0.32393 0.05232 0.75145 0.0
H1141 H 0.30298 0.07044 0.71716 0.0
H1142 H 0.32866 0.05811 0.61118 0.0
H1143 H 0.37374 0.09102 0.63725 0.0
Li1144 Li 0.97825 0.29039 0.71994 0.0
Li1145 Li 0.96111 0.29923 0.73135 0.0
Li1146 Li 0.95681 0.27283 0.73575 0.0
Li1147 Li 0.95106 0.27934 0.70835 0.0
C1148 C 0.98999 0.30089 0.7511 0.0
N1149 N 0.02066 0.31615 0.76496 0.0
C1150 C 0.9976 0.31702 0.75652 0.0
C1151 C 0.99795 0.29251 0.75282 0.0
C1152 C 0.01312 0.32452 0.76348 0.0
C1153 C 0.01347 0.30044 0.75982 0.0
C1154 C 0.96781 0.3058 0.69323 0.0
C1155 C 0.95445 0.31212 0.67179 0.0
N1156 N 0.96501 0.313 0.66088 0.0
C1157 C 0.97858 0.30683 0.68183 0.0
C1158 C 0.9557 0.30855 0.68822 0.0
C1159 C 0.97695 0.31047 0.66552 0.0
C1160 C 0.00239 0.28758 0.70526 0.0
N1161 N 0.99905 0.29763 0.71397 0.0
C1162 C 0.025 0.31949 0.7116 0.0
C1163 C 0.00992 0.31332 0.71715 0.0
C1164 C 0.02864 0.30948 0.70222 0.0
C1165 C 0.01722 0.29333 0.6991 0.0
H1166 H 0.99338 0.27524 0.7026 0.0
H1167 H 0.00673 0.32115 0.72353 0.0
C1168 C 0.96063 0.31858 0.75823 0.0
N1169 N 0.96163 0.31741 0.74146 0.0
C1170 C 0.96335 0.33282 0.76623 0.0
C1171 C 0.96769 0.34419 0.73947 0.0
C1172 C 0.96487 0.32975 0.73201 0.0
C1173 C 0.9673 0.34597 0.75685 0.0
H1174 H 0.95843 0.30868 0.76548 0.0
H1175 H 0.96588 0.3286 0.71877 0.0
C1176 C 0.95804 0.25243 0.71441 0.0
N1177 N 0.94839 0.22076 0.71708 0.0
C1178 C 0.94325 0.2406 0.70742 0.0
C1179 C 0.96798 0.24818 0.72263 0.0
C1180 C 0.93858 0.22464 0.70893 0.0
C1181 C 0.96287 0.23209 0.72389 0.0
C1182 C 0.93162 0.28282 0.73753 0.0
C1183 C 0.92904 0.27942 0.75421 0.0
C1184 C 0.92525 0.29109 0.72983 0.0
C1185 C 0.92018 0.28447 0.76296 0.0
C1186 C 0.91648 0.29595 0.73902 0.0
N1187 N 0.91415 0.29257 0.75525 0.0
C1188 C 0.95876 0.25901 0.7653 0.0
C1189 C 0.93497 0.24389 0.74827 0.0
C1190 C 0.95299 0.24807 0.77747 0.0
N1191 N 0.94968 0.2568 0.75113 0.0
C1192 C 0.92876 0.23261 0.76007 0.0
C1193 C 0.93771 0.23477 0.77504 0.0
H1194 H 0.97029 0.26951 0.7674 0.0
H1195 H 0.92788 0.24264 0.73705 0.0
C1196 C 0.94527 0.26966 0.67451 0.0
N1197 N 0.93821 0.27121 0.68804 0.0
C1198 C 0.93692 0.26421 0.65897 0.0
C1199 C 0.91386 0.26127 0.67169 0.0
C1200 C 0.9228 0.26709 0.68699 0.0
C1201 C 0.92093 0.25981 0.65735 0.0
H1202 H 0.95751 0.27286 0.6758 0.0
H1203 H 0.91743 0.26824 0.69803 0.0
O1204 O 0.97485 0.29337 0.74409 0.0
O1205 O 0.96904 0.30198 0.70918 0.0
O1206 O 0.96271 0.26812 0.71335 0.0
O1207 O 0.9405 0.27825 0.72884 0.0
H1208 H 0.99169 0.32374 0.7552 0.0
H1209 H 0.99227 0.28005 0.74862 0.0
H1210 H 0.01917 0.33702 0.76766 0.0
H1211 H 0.01979 0.29412 0.76113 0.0
H1212 H 0.94506 0.31416 0.66771 0.0
H1213 H 0.98801 0.30472 0.68546 0.0
H1214 H 0.94722 0.30772 0.69686 0.0
H1215 H 0.98515 0.31124 0.65654 0.0
H1216 H 0.03347 0.33207 0.71393 0.0
H1217 H 0.01967 0.28535 0.69177 0.0
H1218 H 0.96313 0.33374 0.77968 0.0
H1219 H 0.97051 0.35397 0.73176 0.0
H1220 H 0.93539 0.24369 0.70106 0.0
H1221 H 0.97948 0.2572 0.72806 0.0
H1222 H 0.92713 0.21535 0.70366 0.0
H1223 H 0.9704 0.22862 0.7303 0.0
H1224 H 0.93396 0.27312 0.76039 0.0
H1225 H 0.92718 0.29384 0.71695 0.0
H1226 H 0.91814 0.28199 0.77589 0.0
H1227 H 0.91155 0.30243 0.73325 0.0
H1228 H 0.96031 0.25014 0.78878 0.0
H1229 H 0.91682 0.22268 0.75782 0.0
H1230 H 0.94305 0.26365 0.64832 0.0
H1231 H 0.90153 0.25778 0.67119 0.0
Li1232 Li 0.71358 0.68165 0.68236 0.0
Li1233 Li 0.70297 0.65528 0.69295 0.0
Li1234 Li 0.73018 0.67434 0.69847 0.0
Li1235 Li 0.72096 0.66151 0.67089 0.0
C1236 C 0.71244 0.68481 0.71918 0.0
N1237 N 0.71256 0.70263 0.74695 0.0
C1238 C 0.70569 0.67741 0.73358 0.0
C1239 C 0.71905 0.70127 0.71886 0.0
C1240 C 0.70593 0.68663 0.7475 0.0
C1241 C 0.71905 0.71007 0.73304 0.0
C1242 C 0.68523 0.64861 0.66531 0.0
C1243 C 0.66658 0.62102 0.65724 0.0
N1244 N 0.65463 0.62419 0.65763 0.0
C1245 C 0.6728 0.65162 0.66557 0.0
C1246 C 0.68214 0.63322 0.66105 0.0
C1247 C 0.6574 0.6391 0.66167 0.0
C1248 C 0.71473 0.70696 0.66518 0.0
N1249 N 0.70775 0.69667 0.6771 0.0
C1250 C 0.68984 0.70602 0.68111 0.0
C1251 C 0.69557 0.69603 0.68507 0.0
C1252 C 0.69652 0.71658 0.66856 0.0
C1253 C 0.70925 0.71708 0.66066 0.0
H1254 H 0.72428 0.70703 0.65892 0.0
H1255 H 0.69016 0.68757 0.69439 0.0
C1256 C 0.67954 0.62477 0.70405 0.0
N1257 N 0.68407 0.64021 0.70194 0.0
C1258 C 0.66559 0.61512 0.71164 0.0
C1259 C 0.66121 0.63734 0.71415 0.0
C1260 C 0.67514 0.64649 0.70659 0.0
C1261 C 0.65639 0.62151 0.71704 0.0
H1262 H 0.6868 0.62003 0.70006 0.0
H1263 H 0.67896 0.65874 0.70452 0.0
C1264 C 0.75021 0.69554 0.68029 0.0
N1265 N 0.78186 0.71665 0.68817 0.0
C1266 C 0.76129 0.69101 0.67714 0.0
C1267 C 0.7552 0.71083 0.68732 0.0
C1268 C 0.77725 0.70185 0.68125 0.0
C1269 C 0.77126 0.72133 0.69125 0.0
C1270 C 0.72067 0.64245 0.70444 0.0
C1271 C 0.71909 0.64685 0.72071 0.0
C1272 C 0.72215 0.62907 0.70143 0.0
C1273 C 0.71901 0.6378 0.73371 0.0
C1274 C 0.72201 0.62031 0.71476 0.0
N1275 N 0.72046 0.62482 0.73049 0.0
C1276 C 0.75141 0.69456 0.726 0.0
C1277 C 0.75623 0.67464 0.71506 0.0
C1278 C 0.76288 0.69883 0.73905 0.0
N1279 N 0.74787 0.68226 0.7147 0.0
C1280 C 0.76789 0.67857 0.72786 0.0
C1281 C 0.77101 0.6905 0.7404 0.0
H1282 H 0.74512 0.70087 0.72519 0.0
H1283 H 0.75354 0.66518 0.70566 0.0
C1284 C 0.73167 0.66482 0.63909 0.0
N1285 N 0.72595 0.6544 0.65112 0.0
C1286 C 0.73593 0.66061 0.62423 0.0
C1287 C 0.72824 0.63492 0.63438 0.0
C1288 C 0.72412 0.63965 0.64909 0.0
C1289 C 0.73428 0.64549 0.62172 0.0
H1290 H 0.73305 0.6765 0.64114 0.0
H1291 H 0.71949 0.6316 0.6589 0.0
O1292 O 0.71195 0.67591 0.70526 0.0
O1293 O 0.70032 0.66057 0.66962 0.0
O1294 O 0.73452 0.68495 0.67681 0.0
O1295 O 0.7207 0.65106 0.69145 0.0
H1296 H 0.70024 0.66465 0.73399 0.0
H1297 H 0.72431 0.70722 0.70784 0.0
H1298 H 0.70079 0.68105 0.75873 0.0
H1299 H 0.72423 0.72282 0.73298 0.0
H1300 H 0.66399 0.60903 0.65402 0.0
H1301 H 0.67501 0.66347 0.6689 0.0
H1302 H 0.69164 0.63069 0.66093 0.0
H1303 H 0.64765 0.64123 0.6619 0.0
H1304 H 0.68021 0.70537 0.68774 0.0
H1305 H 0.71461 0.72482 0.65074 0.0
H1306 H 0.66228 0.60296 0.71365 0.0
H1307 H 0.6543 0.64264 0.71774 0.0
H1308 H 0.75756 0.67917 0.67175 0.0
H1309 H 0.74673 0.71449 0.68981 0.0
H1310 H 0.78596 0.69849 0.67898 0.0
H1311 H 0.77531 0.73318 0.69678 0.0
H1312 H 0.71806 0.6572 0.72329 0.0
H1313 H 0.72339 0.62549 0.68891 0.0
H1314 H 0.71783 0.64111 0.74636 0.0
H1315 H 0.72314 0.60992 0.71261 0.0
H1316 H 0.76479 0.70808 0.74839 0.0
H1317 H 0.77413 0.67209 0.72811 0.0
H1318 H 0.74079 0.66925 0.61497 0.0
H1319 H 0.72664 0.6231 0.63292 0.0
Li1320 Li 0.346 0.31308 0.72098 0.0
Li1321 Li 0.32603 0.2854 0.7238 0.0
Li1322 Li 0.34212 0.29261 0.69894 0.0
Li1323 Li 0.32114 0.29901 0.70202 0.0
C1324 C 0.36426 0.29902 0.72849 0.0
N1325 N 0.39469 0.30787 0.73954 0.0
C1326 C 0.36732 0.29524 0.74424 0.0
C1327 C 0.37663 0.30711 0.71828 0.0
C1328 C 0.3828 0.29988 0.74963 0.0
C1329 C 0.39195 0.31153 0.72411 0.0
C1330 C 0.316 0.30245 0.74057 0.0
C1331 C 0.29187 0.29045 0.75457 0.0
N1332 N 0.30023 0.29787 0.76931 0.0
C1333 C 0.32434 0.31009 0.75582 0.0
C1334 C 0.29963 0.29267 0.73989 0.0
C1335 C 0.31615 0.30757 0.77022 0.0
C1336 C 0.36002 0.34576 0.7259 0.0
N1337 N 0.36029 0.33318 0.7321 0.0
C1338 C 0.37973 0.35017 0.75369 0.0
C1339 C 0.36977 0.33504 0.74581 0.0
C1340 C 0.37982 0.36344 0.74745 0.0
C1341 C 0.36976 0.36106 0.73337 0.0
H1342 H 0.35211 0.34385 0.71518 0.0
H1343 H 0.36948 0.32482 0.75076 0.0
C1344 C 0.30607 0.25465 0.73451 0.0
N1345 N 0.31713 0.2699 0.73964 0.0
C1346 C 0.30057 0.24289 0.74587 0.0
C1347 C 0.31771 0.26284 0.76762 0.0
C1348 C 0.32296 0.27416 0.75582 0.0
C1349 C 0.30654 0.24692 0.76264 0.0
H1350 H 0.30183 0.25152 0.72151 0.0
H1351 H 0.33205 0.28629 0.75947 0.0
C1352 C 0.35262 0.32309 0.68525 0.0
N1353 N 0.3718 0.34351 0.66267 0.0
C1354 C 0.34618 0.32389 0.66976 0.0
C1355 C 0.36879 0.33289 0.68936 0.0
C1356 C 0.35608 0.33422 0.65848 0.0
C1357 C 0.37829 0.34309 0.67775 0.0
C1358 C 0.30608 0.26835 0.6895 0.0
C1359 C 0.30761 0.2634 0.67345 0.0
C1360 C 0.29111 0.26375 0.69472 0.0
C1361 C 0.29409 0.2541 0.66278 0.0
C1362 C 0.27789 0.25446 0.68368 0.0
N1363 N 0.27964 0.24988 0.66807 0.0
C1364 C 0.35739 0.27622 0.68834 0.0
C1365 C 0.35228 0.28957 0.66727 0.0
C1366 C 0.36369 0.27014 0.67691 0.0
N1367 N 0.35186 0.28574 0.68335 0.0
C1368 C 0.35852 0.28382 0.65544 0.0
C1369 C 0.36423 0.27387 0.66018 0.0
H1370 H 0.35667 0.27314 0.70117 0.0
H1371 H 0.34729 0.29665 0.66346 0.0
C1372 C 0.30207 0.31234 0.69824 0.0
N1373 N 0.30646 0.30283 0.69015 0.0
C1374 C 0.29263 0.31707 0.68984 0.0
C1375 C 0.29207 0.30181 0.66503 0.0
C1376 C 0.30173 0.29757 0.67384 0.0
C1377 C 0.2876 0.31186 0.67299 0.0
H1378 H 0.30625 0.31659 0.71113 0.0
H1379 H 0.30585 0.29053 0.6675 0.0
O1380 O 0.34916 0.2946 0.72307 0.0
O1381 O 0.32382 0.30464 0.72637 0.0
O1382 O 0.34304 0.31314 0.6965 0.0
O1383 O 0.31918 0.27751 0.70008 0.0
H1384 H 0.35786 0.28887 0.75226 0.0
H1385 H 0.37444 0.30979 0.70592 0.0
H1386 H 0.38536 0.29711 0.76183 0.0
H1387 H 0.40164 0.31781 0.71633 0.0
H1388 H 0.27921 0.28285 0.75424 0.0
H1389 H 0.33701 0.31775 0.75655 0.0
H1390 H 0.29299 0.28687 0.72814 0.0
H1391 H 0.32246 0.31331 0.78213 0.0
H1392 H 0.38735 0.35146 0.76446 0.0
H1393 H 0.36921 0.37088 0.72833 0.0
H1394 H 0.29192 0.23076 0.74155 0.0
H1395 H 0.32283 0.2664 0.78036 0.0
H1396 H 0.33369 0.3165 0.66642 0.0
H1397 H 0.37394 0.33281 0.70145 0.0
H1398 H 0.35127 0.33485 0.6464 0.0
H1399 H 0.39082 0.35071 0.68076 0.0
H1400 H 0.31909 0.26675 0.66925 0.0
H1401 H 0.28972 0.26735 0.70714 0.0
H1402 H 0.2951 0.25025 0.6503 0.0
H1403 H 0.26623 0.25089 0.68752 0.0
H1404 H 0.368 0.26253 0.68108 0.0
H1405 H 0.35834 0.28668 0.6426 0.0
H1406 H 0.28936 0.32479 0.69641 0.0
H1407 H 0.2886 0.29774 0.65197 0.0
Li1408 Li 0.6983 0.04416 0.67634 0.0
Li1409 Li 0.72441 0.0461 0.68227 0.0
Li1410 Li 0.71838 0.05557 0.65636 0.0
Li1411 Li 0.70555 0.02787 0.66038 0.0
C1412 C 0.71904 0.0774 0.68008 0.0
N1413 N 0.71786 0.10507 0.68033 0.0
C1414 C 0.73042 0.09101 0.68964 0.0
C1415 C 0.70707 0.07785 0.67064 0.0
C1416 C 0.72962 0.10489 0.68961 0.0
C1417 C 0.70668 0.09196 0.67093 0.0
C1418 C 0.69506 0.01239 0.68734 0.0
C1419 C 0.69484 0.98792 0.69117 0.0
N1420 N 0.67886 0.9801 0.69119 0.0
C1421 C 0.67865 0.00414 0.68757 0.0
C1422 C 0.70325 0.00426 0.68932 0.0
C1423 C 0.67067 0.98781 0.68947 0.0
C1424 C 0.66681 0.03564 0.67949 0.0
N1425 N 0.68169 0.04462 0.68669 0.0
C1426 C 0.67228 0.05171 0.71056 0.0
C1427 C 0.68468 0.05278 0.70179 0.0
C1428 C 0.65666 0.04195 0.70381 0.0
C1429 C 0.65404 0.03409 0.68789 0.0
H1430 H 0.66483 0.02913 0.66754 0.0
H1431 H 0.69667 0.05978 0.7072 0.0
C1432 C 0.75534 0.0612 0.69742 0.0
N1433 N 0.74 0.0505 0.69944 0.0
C1434 C 0.76676 0.0655 0.71059 0.0
C1435 C 0.74634 0.04745 0.72747 0.0
C1436 C 0.73535 0.04349 0.71398 0.0
C1437 C 0.76227 0.05878 0.72597 0.0
H1438 H 0.75864 0.06659 0.68567 0.0
H1439 H 0.72301 0.03514 0.71523 0.0
C1440 C 0.69168 0.03693 0.63512 0.0
N1441 N 0.68393 0.03138 0.60112 0.0
C1442 C 0.70099 0.03403 0.62453 0.0
C1443 C 0.6784 0.03699 0.62843 0.0
C1444 C 0.69689 0.03125 0.60738 0.0
C1445 C 0.67468 0.03417 0.6112 0.0
C1446 C 0.73777 0.03689 0.6541 0.0
C1447 C 0.74259 0.03861 0.63782 0.0
C1448 C 0.74287 0.02955 0.66526 0.0
C1449 C 0.75218 0.03266 0.63288 0.0
C1450 C 0.75246 0.02377 0.65984 0.0
N1451 N 0.75687 0.02541 0.64389 0.0
C1452 C 0.74366 0.07693 0.63961 0.0
C1453 C 0.71988 0.07605 0.63114 0.0
C1454 C 0.75163 0.0875 0.62764 0.0
N1455 N 0.72805 0.07123 0.64092 0.0
C1456 C 0.72743 0.08673 0.61903 0.0
C1457 C 0.74345 0.09235 0.617 0.0
H1458 H 0.74985 0.07298 0.64769 0.0
H1459 H 0.70746 0.07135 0.63248 0.0
C1460 C 0.68003 0.99932 0.64682 0.0
N1461 N 0.696 0.00695 0.64935 0.0
C1462 C 0.67164 0.9839 0.63923 0.0
C1463 C 0.6963 0.98457 0.63651 0.0
C1464 C 0.7042 -0.00011 0.64439 0.0
C1465 C 0.67981 0.97639 0.63393 0.0
H1466 H 0.6738 0.00522 0.65085 0.0
H1467 H 0.71681 0.00599 0.64656 0.0
O1468 O 0.71974 0.06376 0.67994 0.0
O1469 O 0.70305 0.0283 0.68504 0.0
O1470 O 0.69548 0.03978 0.65196 0.0
O1471 O 0.72853 0.04283 0.65921 0.0
H1472 H 0.73977 0.09084 0.697 0.0
H1473 H 0.69818 0.06744 0.66313 0.0
H1474 H 0.73834 0.11553 0.69695 0.0
H1475 H 0.69749 0.09248 0.66367 0.0
H1476 H 0.70102 0.98146 0.69259 0.0
H1477 H 0.67213 0.01024 0.6861 0.0
H1478 H 0.71594 0.01046 0.68933 0.0
H1479 H 0.65796 0.98125 0.68953 0.0
H1480 H 0.6749 0.05821 0.72264 0.0
H1481 H 0.64223 0.02627 0.68228 0.0
H1482 H 0.77892 0.07416 0.70883 0.0
H1483 H 0.74227 0.04217 0.73915 0.0
H1484 H 0.71124 0.03387 0.6295 0.0
H1485 H 0.67108 0.03925 0.63648 0.0
H1486 H 0.704 0.02899 0.59904 0.0
H1487 H 0.66445 0.0342 0.60585 0.0
H1488 H 0.73902 0.04451 0.62908 0.0
H1489 H 0.73944 0.02827 0.67794 0.0
H1490 H 0.75594 0.03385 0.6203 0.0
H1491 H 0.75642 0.01799 0.66832 0.0
H1492 H 0.76404 0.09176 0.62665 0.0
H1493 H 0.72071 0.09014 0.61101 0.0
H1494 H 0.65893 0.97799 0.63735 0.0
H1495 H 0.70299 0.97907 0.63274 0.0
Li1496 Li 0.94565 0.68091 0.72856 0.0
Li1497 Li 0.94869 0.65832 0.72007 0.0
Li1498 Li 0.96397 0.68354 0.70748 0.0
Li1499 Li 0.93614 0.66666 0.70052 0.0
C1500 C 0.98009 0.68414 0.73628 0.0
N1501 N 0.01124 0.69411 0.74551 0.0
C1502 C 0.98615 0.67416 0.73289 0.0
C1503 C 0.98993 0.6992 0.74445 0.0
C1504 C 0.00191 0.67941 0.73763 0.0
C1505 C 0.00563 0.70401 0.74898 0.0
C1506 C 0.92097 0.64553 0.73134 0.0
C1507 C 0.90627 0.61709 0.73295 0.0
N1508 N 0.90631 0.61928 0.74979 0.0
C1509 C 0.92084 0.6475 0.74866 0.0
C1510 C 0.91359 0.63022 0.7234 0.0
C1511 C 0.91337 0.63407 0.75776 0.0
C1512 C 0.92627 0.68902 0.74539 0.0
N1513 N 0.94072 0.69045 0.74649 0.0
C1514 C 0.94586 0.70232 0.77436 0.0
C1515 C 0.95057 0.69704 0.76052 0.0
C1516 C 0.93073 0.70046 0.77387 0.0
C1517 C 0.92099 0.69391 0.75899 0.0
H1518 H 0.91861 0.68347 0.73413 0.0
H1519 H 0.96188 0.69776 0.76114 0.0
C1520 C 0.94943 0.62954 0.71832 0.0
N1521 N 0.94982 0.64113 0.72869 0.0
C1522 C 0.9525 0.61826 0.72476 0.0
C1523 C 0.95605 0.63095 0.75241 0.0
C1524 C 0.95276 0.64188 0.74546 0.0
C1525 C 0.95624 0.61916 0.74196 0.0
H1526 H 0.9474 0.62945 0.70501 0.0
H1527 H 0.95321 0.65139 0.75334 0.0
C1528 C 0.95373 0.70607 0.70772 0.0
N1529 N 0.96544 0.73849 0.71063 0.0
C1530 C 0.94893 0.71312 0.69588 0.0
C1531 C 0.96438 0.71549 0.72109 0.0
C1532 C 0.95502 0.72954 0.69755 0.0
C1533 C 0.9702 0.73185 0.72234 0.0
C1534 C 0.94893 0.65579 0.68031 0.0
C1535 C 0.9568 0.66536 0.66749 0.0
C1536 C 0.93648 0.64027 0.67634 0.0
C1537 C 0.95203 0.65924 0.6509 0.0
C1538 C 0.93205 0.6346 0.6596 0.0
N1539 N 0.93985 0.64412 0.64733 0.0
C1540 C 0.99204 0.68876 0.69601 0.0
C1541 C 0.98919 0.71128 0.69347 0.0
C1542 C 0.00638 0.69623 0.68871 0.0
N1543 N 0.98383 0.69636 0.69843 0.0
C1544 C 0.00341 0.71913 0.68584 0.0
C1545 C 0.01215 0.71155 0.6834 0.0
H1546 H 0.98718 0.67663 0.69927 0.0
H1547 H 0.98235 0.71699 0.69496 0.0
C1548 C 0.90593 0.64803 0.68209 0.0
N1549 N 0.9207 0.66094 0.68259 0.0
C1550 C 0.89533 0.64448 0.66823 0.0
C1551 C 0.91538 0.66762 0.65589 0.0
C1552 C 0.92552 0.67071 0.66992 0.0
C1553 C 0.90003 0.65439 0.65492 0.0
H1554 H 0.90238 0.64052 0.69241 0.0
H1555 H 0.93737 0.68084 0.67066 0.0
O1556 O 0.96464 0.67922 0.73171 0.0
O1557 O 0.92852 0.65852 0.72225 0.0
O1558 O 0.94774 0.69 0.70634 0.0
O1559 O 0.95318 0.66169 0.69663 0.0
H1560 H 0.97894 0.66263 0.72628 0.0
H1561 H 0.98559 0.70715 0.7473 0.0
H1562 H 0.00673 0.67183 0.73494 0.0
H1563 H 0.01335 0.71564 0.75528 0.0
H1564 H 0.9006 0.60517 0.72699 0.0
H1565 H 0.92658 0.65925 0.75503 0.0
H1566 H 0.9137 0.62847 0.71004 0.0
H1567 H 0.91323 0.63542 0.77117 0.0
H1568 H 0.95389 0.70748 0.78542 0.0
H1569 H 0.90912 0.6919 0.75805 0.0
H1570 H 0.95271 0.60943 0.7163 0.0
H1571 H 0.95877 0.63194 0.76575 0.0
H1572 H 0.94058 0.70599 0.68552 0.0
H1573 H 0.96816 0.7102 0.73032 0.0
H1574 H 0.95145 0.73517 0.68845 0.0
H1575 H 0.97849 0.73928 0.73261 0.0
H1576 H 0.96633 0.67746 0.67027 0.0
H1577 H 0.93011 0.63277 0.68607 0.0
H1578 H 0.95796 0.66654 0.64086 0.0
H1579 H 0.92236 0.62265 0.65636 0.0
H1580 H 0.01259 0.68984 0.68665 0.0
H1581 H 0.00746 0.73092 0.68176 0.0
H1582 H 0.88357 0.63423 0.66804 0.0
H1583 H 0.91964 0.67541 0.6458 0.0
H1584 H 0.16668 0.34014 0.0431 0.0
H1585 H 0.23837 0.27763 0.1672 0.0
H1586 H 0.15855 0.3355 0.13326 0.0
H1587 H 0.1403 0.34313 0.12146 0.0
H1588 H 0.10253 0.29417 0.11954 0.0
H1589 H 0.12102 0.2866 0.13139 0.0
H1590 H 0.18222 0.3351 0.1127 0.0
H1591 H 0.17954 0.3417 0.08421 0.0
H1592 H 0.13897 0.29463 0.07331 0.0
H1593 H 0.1419 0.28813 0.1018 0.0
H1594 H 0.20592 0.3306 0.13696 0.0
H1595 H 0.22731 0.33987 0.11846 0.0
H1596 H 0.19789 0.29986 0.08303 0.0
H1597 H 0.1767 0.29019 0.1022 0.0
H1598 H 0.20359 0.32118 0.16963 0.0
H1599 H 0.22532 0.31733 0.17882 0.0
H1600 H 0.20417 0.27311 0.14793 0.0
H1601 H 0.18238 0.27701 0.13902 0.0
H1602 H 0.17624 0.32383 0.1841 0.0
H1603 H 0.18605 0.32488 0.2127 0.0
H1604 H 0.17625 0.27661 0.20444 0.0
H1605 H 0.16583 0.27546 0.17578 0.0
H1606 H 0.15255 0.32729 0.16839 0.0
H1607 H 0.13678 0.32704 0.1913 0.0
H1608 H 0.11594 0.27612 0.19158 0.0
H1609 H 0.13182 0.27647 0.16865 0.0
O1610 O 0.16757 0.33726 0.05429 0.0
O1611 O 0.14673 0.31294 0.04935 0.0
O1612 O 0.24026 0.30222 0.17951 0.0
O1613 O 0.22991 0.27944 0.16378 0.0
C1614 C 0.15285 0.30594 0.13801 0.0
C1615 C 0.16386 0.30711 0.12659 0.0
C1616 C 0.1766 0.30518 0.13188 0.0
C1617 C 0.17795 0.30142 0.1484 0.0
C1618 C 0.16694 0.30027 0.15984 0.0
C1619 C 0.15429 0.30238 0.15457 0.0
C1620 C 0.1411 0.31049 0.133 0.0
C1621 C 0.14629 0.32645 0.13047 0.0
C1622 C 0.13589 0.33077 0.12366 0.0
C1623 C 0.12006 0.31921 0.11939 0.0
C1624 C 0.11467 0.30332 0.12277 0.0
C1625 C 0.12517 0.29898 0.1295 0.0
C1626 C 0.16235 0.31109 0.10924 0.0
C1627 C 0.17285 0.3262 0.10409 0.0
C1628 C 0.17125 0.32995 0.08783 0.0
C1629 C 0.15906 0.31868 0.07646 0.0
C1630 C 0.14851 0.30357 0.08173 0.0
C1631 C 0.15015 0.29982 0.09798 0.0
C1632 C 0.18981 0.30965 0.121 0.0
C1633 C 0.20421 0.32363 0.12538 0.0
C1634 C 0.21633 0.32905 0.11465 0.0
C1635 C 0.21424 0.32074 0.09914 0.0
C1636 C 0.19991 0.30649 0.09492 0.0
C1637 C 0.18779 0.30096 0.10581 0.0
C1638 C 0.19131 0.29927 0.15382 0.0
C1639 C 0.20361 0.31061 0.16497 0.0
C1640 C 0.21604 0.30841 0.17014 0.0
C1641 C 0.21645 0.29488 0.16415 0.0
C1642 C 0.20419 0.28364 0.15283 0.0
C1643 C 0.19174 0.28584 0.1477 0.0
C1644 C 0.17025 0.29955 0.17787 0.0
C1645 C 0.17568 0.31328 0.1886 0.0
C1646 C 0.18148 0.31393 0.20487 0.0
C1647 C 0.18212 0.30091 0.21071 0.0
C1648 C 0.17582 0.2868 0.20029 0.0
C1649 C 0.16992 0.28613 0.18394 0.0
C1650 C 0.14325 0.30189 0.16684 0.0
C1651 C 0.14434 0.31605 0.17317 0.0
C1652 C 0.13545 0.3159 0.18631 0.0
C1653 C 0.12523 0.30157 0.19323 0.0
C1654 C 0.12365 0.2873 0.18638 0.0
C1655 C 0.1327 0.28748 0.17334 0.0
C1656 C 0.15736 0.32272 0.05921 0.0
C1657 C 0.22961 0.29247 0.16964 0.0
H1658 H 0.66898 0.84356 0.06567 0.0
H1659 H 0.75194 0.97161 0.20703 0.0
H1660 H 0.67897 0.83376 0.15277 0.0
H1661 H 0.66785 0.80627 0.14159 0.0
H1662 H 0.71415 0.81158 0.14605 0.0
H1663 H 0.72525 0.83928 0.1572 0.0
H1664 H 0.68069 0.86065 0.13759 0.0
H1665 H 0.67162 0.85335 0.10805 0.0
H1666 H 0.71489 0.85431 0.09804 0.0
H1667 H 0.7239 0.86179 0.12761 0.0
H1668 H 0.68967 0.88801 0.16591 0.0
H1669 H 0.68157 0.9037 0.15009 0.0
H1670 H 0.7178 0.91333 0.11619 0.0
H1671 H 0.72607 0.89764 0.1324 0.0
H1672 H 0.70214 0.89318 0.19911 0.0
H1673 H 0.7096 0.91947 0.21184 0.0
H1674 H 0.75088 0.9405 0.18347 0.0
H1675 H 0.74341 0.91409 0.17101 0.0
H1676 H 0.6978 0.86119 0.21 0.0
H1677 H 0.70036 0.87064 0.23906 0.0
H1678 H 0.74908 0.90607 0.23406 0.0
H1679 H 0.74631 0.89646 0.20469 0.0
H1680 H 0.68906 0.83232 0.1886 0.0
H1681 H 0.68872 0.81252 0.20638 0.0
H1682 H 0.73956 0.83976 0.21318 0.0
H1683 H 0.73977 0.85955 0.19524 0.0
O1684 O 0.67282 0.8465 0.07729 0.0
O1685 O 0.69523 0.84709 0.07282 0.0
O1686 O 0.7274 0.94964 0.2166 0.0
O1687 O 0.74871 0.96107 0.20217 0.0
C1688 C 0.70936 0.85517 0.16261 0.0
C1689 C 0.70857 0.86634 0.15263 0.0
C1690 C 0.71255 0.88147 0.15986 0.0
C1691 C 0.71806 0.88571 0.17685 0.0
C1692 C 0.71889 0.87455 0.18685 0.0
C1693 C 0.71453 0.85927 0.17972 0.0
C1694 C 0.70294 0.83857 0.15557 0.0
C1695 C 0.68675 0.82906 0.15113 0.0
C1696 C 0.68042 0.81336 0.14476 0.0
C1697 C 0.69014 0.80681 0.14285 0.0
C1698 C 0.70637 0.8163 0.14748 0.0
C1699 C 0.71273 0.8321 0.15376 0.0
C1700 C 0.70302 0.86192 0.13469 0.0
C1701 C 0.68825 0.85941 0.12897 0.0
C1702 C 0.68307 0.85517 0.1121 0.0
C1703 C 0.69255 0.85328 0.10067 0.0
C1704 C 0.70731 0.85571 0.1065 0.0
C1705 C 0.71249 0.85997 0.12337 0.0
C1706 C 0.70859 0.89188 0.15045 0.0
C1707 C 0.69609 0.89377 0.15527 0.0
C1708 C 0.69146 0.90272 0.14621 0.0
C1709 C 0.69914 0.90984 0.13199 0.0
C1710 C 0.71168 0.90794 0.1271 0.0
C1711 C 0.71644 0.89907 0.13634 0.0
C1712 C 0.72234 0.90172 0.1843 0.0
C1713 C 0.71284 0.90347 0.19575 0.0
C1714 C 0.7171 0.91851 0.20296 0.0
C1715 C 0.73088 0.93209 0.19871 0.0
C1716 C 0.74023 0.93029 0.18705 0.0
C1717 C 0.73599 0.91523 0.1799 0.0
C1718 C 0.72186 0.87812 0.20523 0.0
C1719 C 0.7092 0.8706 0.21531 0.0
C1720 C 0.7107 0.87606 0.23197 0.0
C1721 C 0.72491 0.8892 0.2389 0.0
C1722 C 0.73792 0.89605 0.22904 0.0
C1723 C 0.73641 0.89051 0.21233 0.0
C1724 C 0.71445 0.84725 0.19046 0.0
C1725 C 0.70013 0.8339 0.19376 0.0
C1726 C 0.69997 0.8226 0.20389 0.0
C1727 C 0.71413 0.82452 0.21107 0.0
C1728 C 0.72847 0.838 0.20787 0.0
C1729 C 0.72862 0.84927 0.19762 0.0
C1730 C 0.68701 0.84878 0.08276 0.0
C1731 C 0.73549 0.94809 0.2064 0.0
H1732 H 0.13729 0.84239 0.04705 0.0
H1733 H 0.27223 0.95178 0.17245 0.0
H1734 H 0.12982 0.85468 0.13352 0.0
H1735 H 0.10683 0.82867 0.12433 0.0
H1736 H 0.12777 0.80559 0.15094 0.0
H1737 H 0.15064 0.83148 0.15985 0.0
H1738 H 0.1593 0.87964 0.11147 0.0
H1739 H 0.14987 0.86784 0.08287 0.0
H1740 H 0.15211 0.82649 0.09594 0.0
H1741 H 0.16173 0.83853 0.12442 0.0
H1742 H 0.19539 0.90877 0.12587 0.0
H1743 H 0.21595 0.9178 0.10602 0.0
H1744 H 0.21356 0.87233 0.10572 0.0
H1745 H 0.19373 0.86381 0.1261 0.0
H1746 H 0.19388 0.91777 0.16623 0.0
H1747 H 0.21991 0.94149 0.17232 0.0
H1748 H 0.24166 0.91335 0.16204 0.0
H1749 H 0.21557 0.88971 0.15617 0.0
H1750 H 0.16742 0.89598 0.19216 0.0
H1751 H 0.1785 0.90719 0.22077 0.0
H1752 H 0.21189 0.89112 0.21611 0.0
H1753 H 0.20079 0.88 0.18775 0.0
H1754 H 0.13469 0.8649 0.17579 0.0
H1755 H 0.11795 0.84937 0.19763 0.0
H1756 H 0.15183 0.83544 0.21156 0.0
H1757 H 0.16841 0.85091 0.1898 0.0
O1758 O 0.14111 0.84687 0.0584 0.0
O1759 O 0.14238 0.82585 0.06579 0.0
O1760 O 0.25003 0.95651 0.17535 0.0
O1761 O 0.2618 0.94259 0.17013 0.0
C1762 C 0.15685 0.86031 0.1507 0.0
C1763 C 0.16658 0.86709 0.13743 0.0
C1764 C 0.18182 0.8805 0.14071 0.0
C1765 C 0.18698 0.88771 0.15713 0.0
C1766 C 0.17724 0.88096 0.1704 0.0
C1767 C 0.16225 0.86717 0.16721 0.0
C1768 C 0.14183 0.84495 0.14743 0.0
C1769 C 0.12924 0.84399 0.13763 0.0
C1770 C 0.1162 0.82916 0.13233 0.0
C1771 C 0.11553 0.8151 0.13689 0.0
C1772 C 0.12783 0.81619 0.14742 0.0
C1773 C 0.14089 0.83098 0.15256 0.0
C1774 C 0.16104 0.85987 0.12005 0.0
C1775 C 0.15777 0.86805 0.10811 0.0
C1776 C 0.15236 0.86127 0.0918 0.0
C1777 C 0.15017 0.84619 0.08713 0.0
C1778 C 0.15361 0.8381 0.09913 0.0
C1779 C 0.15905 0.84491 0.11542 0.0
C1780 C 0.19307 0.88564 0.12741 0.0
C1781 C 0.19928 0.90077 0.12141 0.0
C1782 C 0.21094 0.90585 0.11 0.0
C1783 C 0.21649 0.89582 0.10435 0.0
C1784 C 0.2098 0.88047 0.11001 0.0
C1785 C 0.1983 0.87549 0.1215 0.0
C1786 C 0.20285 0.90207 0.16062 0.0
C1787 C 0.20429 0.91677 0.16529 0.0
C1788 C 0.21916 0.93029 0.16876 0.0
C1789 C 0.23288 0.92933 0.16762 0.0
C1790 C 0.23136 0.91453 0.16298 0.0
C1791 C 0.21648 0.90102 0.15956 0.0
C1792 C 0.18347 0.8874 0.18784 0.0
C1793 C 0.1771 0.89488 0.1974 0.0
C1794 C 0.1834 0.90122 0.2137 0.0
C1795 C 0.19619 0.9002 0.22058 0.0
C1796 C 0.20227 0.89239 0.21103 0.0
C1797 C 0.19593 0.88601 0.19485 0.0
C1798 C 0.15275 0.85904 0.18128 0.0
C1799 C 0.13855 0.85865 0.18373 0.0
C1800 C 0.12906 0.84984 0.1962 0.0
C1801 C 0.13358 0.84116 0.20619 0.0
C1802 C 0.148 0.84191 0.20392 0.0
C1803 C 0.15752 0.85081 0.19161 0.0
C1804 C 0.14433 0.83897 0.06982 0.0
C1805 C 0.24871 0.94366 0.17128 0.0
H1806 H 0.28791 0.16484 0.00895 0.0
H1807 H 0.31652 0.05835 0.89161 0.0
H1808 H 0.27627 0.15974 0.92127 0.0
H1809 H 0.28109 0.18649 0.92912 0.0
H1810 H 0.32596 0.2069 0.90718 0.0
H1811 H 0.32113 0.18029 0.89956 0.0
H1812 H 0.27584 0.131 0.94323 0.0
H1813 H 0.27664 0.14141 0.97174 0.0
H1814 H 0.32243 0.18216 0.96541 0.0
H1815 H 0.32157 0.17151 0.93701 0.0
H1816 H 0.28108 0.10027 0.92836 0.0
H1817 H 0.2898 0.08738 0.94787 0.0
H1818 H 0.33314 0.13214 0.95995 0.0
H1819 H 0.32498 0.14436 0.93915 0.0
H1820 H 0.27478 0.09494 0.88818 0.0
H1821 H 0.27641 0.07093 0.88303 0.0
H1822 H 0.3251 0.09669 0.90265 0.0
H1823 H 0.32338 0.12065 0.90753 0.0
H1824 H 0.2734 0.11947 0.86196 0.0
H1825 H 0.275 0.10981 0.83382 0.0
H1826 H 0.32281 0.12152 0.84737 0.0
H1827 H 0.32135 0.13193 0.87485 0.0
H1828 H 0.27176 0.15097 0.88129 0.0
H1829 H 0.27056 0.16634 0.85854 0.0
H1830 H 0.31627 0.1757 0.84486 0.0
H1831 H 0.31752 0.16063 0.86778 0.0
O1832 O 0.28787 0.1609 0.99767 0.0
O1833 O 0.31135 0.18165 0.99375 0.0
O1834 O 0.29053 0.05501 0.88337 0.0
O1835 O 0.31557 0.06768 0.89346 0.0
C1836 C 0.29662 0.15216 0.90692 0.0
C1837 C 0.29787 0.14418 0.92065 0.0
C1838 C 0.29872 0.13025 0.9179 0.0
C1839 C 0.29784 0.12404 0.90138 0.0
C1840 C 0.2964 0.13191 0.88766 0.0
C1841 C 0.29569 0.14592 0.89042 0.0
C1842 C 0.29835 0.1681 0.90985 0.0
C1843 C 0.28702 0.17002 0.91797 0.0
C1844 C 0.28981 0.18527 0.92248 0.0
C1845 C 0.30391 0.19878 0.91877 0.0
C1846 C 0.31489 0.19675 0.90999 0.0
C1847 C 0.31216 0.18155 0.90564 0.0
C1848 C 0.29857 0.15056 0.93801 0.0
C1849 C 0.28604 0.14215 0.94805 0.0
C1850 C 0.28653 0.14814 0.96431 0.0
C1851 C 0.29958 0.16265 0.97084 0.0
C1852 C 0.31218 0.17098 0.96076 0.0
C1853 C 0.31169 0.16496 0.94452 0.0
C1854 C 0.30244 0.12322 0.93218 0.0
C1855 C 0.2924 0.10728 0.93534 0.0
C1856 C 0.29739 0.09998 0.94667 0.0
C1857 C 0.31235 0.10861 0.9554 0.0
C1858 C 0.32178 0.12493 0.95313 0.0
C1859 C 0.31699 0.13207 0.94146 0.0
C1860 C 0.29892 0.10949 0.89834 0.0
C1861 C 0.28579 0.09537 0.89134 0.0
C1862 C 0.28675 0.08168 0.88843 0.0
C1863 C 0.30088 0.08188 0.89248 0.0
C1864 C 0.31404 0.0961 0.89943 0.0
C1865 C 0.31307 0.10979 0.90228 0.0
C1866 C 0.29721 0.12626 0.87047 0.0
C1867 C 0.28423 0.12006 0.8587 0.0
C1868 C 0.28515 0.11445 0.8427 0.0
C1869 C 0.29904 0.11487 0.83827 0.0
C1870 C 0.31202 0.12126 0.85014 0.0
C1871 C 0.31115 0.12702 0.86598 0.0
C1872 C 0.29464 0.15454 0.87608 0.0
C1873 C 0.28147 0.15629 0.87332 0.0
C1874 C 0.28083 0.16509 0.86038 0.0
C1875 C 0.29329 0.17214 0.8499 0.0
C1876 C 0.30639 0.17019 0.85258 0.0
C1877 C 0.30711 0.16157 0.86564 0.0
C1878 C 0.30002 0.16902 0.98809 0.0
C1879 C 0.30195 0.06736 0.88947 0.0
H1880 H 0.82392 0.15879 0.00768 0.0
H1881 H 0.75381 0.02414 0.87276 0.0
H1882 H 0.83834 0.16307 0.91937 0.0
H1883 H 0.85786 0.18956 0.93156 0.0
H1884 H 0.89352 0.17617 0.93162 0.0
H1885 H 0.87379 0.14958 0.9192 0.0
H1886 H 0.81223 0.13901 0.93632 0.0
H1887 H 0.8135 0.14814 0.96548 0.0
H1888 H 0.85196 0.13994 0.97703 0.0
H1889 H 0.85043 0.13065 0.94784 0.0
H1890 H 0.78923 0.11156 0.91079 0.0
H1891 H 0.76729 0.10025 0.92863 0.0
H1892 H 0.79297 0.0855 0.96097 0.0
H1893 H 0.81511 0.09725 0.94307 0.0
H1894 H 0.79359 0.10347 0.87586 0.0
H1895 H 0.77138 0.078 0.86424 0.0
H1896 H 0.78754 0.05331 0.89538 0.0
H1897 H 0.80981 0.07887 0.90675 0.0
H1898 H 0.82332 0.13157 0.86271 0.0
H1899 H 0.81769 0.12196 0.83332 0.0
H1900 H 0.82526 0.08335 0.8447 0.0
H1901 H 0.83088 0.09312 0.87426 0.0
H1902 H 0.84682 0.16121 0.88501 0.0
H1903 H 0.86596 0.17822 0.86593 0.0
H1904 H 0.88241 0.14488 0.86052 0.0
H1905 H 0.86335 0.128 0.87997 0.0
O1906 O 0.82359 0.15509 0.99622 0.0
O1907 O 0.84339 0.15076 0.00148 0.0
O1908 O 0.75471 0.04764 0.86134 0.0
O1909 O 0.76248 0.03438 0.87714 0.0
C1910 C 0.84236 0.13815 0.91201 0.0
C1911 C 0.83039 0.12847 0.92232 0.0
C1912 C 0.81753 0.1138 0.91566 0.0
C1913 C 0.81698 0.10844 0.89891 0.0
C1914 C 0.8291 0.11801 0.88864 0.0
C1915 C 0.84176 0.13294 0.89517 0.0
C1916 C 0.85464 0.1544 0.91858 0.0
C1917 C 0.85037 0.16587 0.92202 0.0
C1918 C 0.86152 0.18096 0.92904 0.0
C1919 C 0.87719 0.18489 0.93273 0.0
C1920 C 0.88155 0.1735 0.92884 0.0
C1921 C 0.87033 0.15833 0.92181 0.0
C1922 C 0.83113 0.13402 0.94003 0.0
C1923 C 0.82083 0.13907 0.9452 0.0
C1924 C 0.82163 0.14434 0.96185 0.0
C1925 C 0.83281 0.14474 0.9736 0.0
C1926 C 0.84319 0.13976 0.96831 0.0
C1927 C 0.84235 0.13445 0.95166 0.0
C1928 C 0.80369 0.10513 0.9256 0.0
C1929 C 0.78999 0.10562 0.92156 0.0
C1930 C 0.77746 0.09913 0.93178 0.0
C1931 C 0.77835 0.09196 0.94625 0.0
C1932 C 0.79198 0.09112 0.95004 0.0
C1933 C 0.80457 0.09767 0.93978 0.0
C1934 C 0.80337 0.09299 0.89202 0.0
C1935 C 0.79236 0.09254 0.88007 0.0
C1936 C 0.77966 0.07798 0.8735 0.0
C1937 C 0.77771 0.06361 0.87886 0.0
C1938 C 0.78871 0.06414 0.89096 0.0
C1939 C 0.80142 0.07871 0.89749 0.0
C1940 C 0.82756 0.11308 0.8706 0.0
C1941 C 0.82413 0.12125 0.8588 0.0
C1942 C 0.82094 0.11575 0.842 0.0
C1943 C 0.82103 0.10188 0.83666 0.0
C1944 C 0.82497 0.09398 0.84845 0.0
C1945 C 0.82824 0.09957 0.86529 0.0
C1946 C 0.85384 0.14348 0.88406 0.0
C1947 C 0.85476 0.15772 0.87997 0.0
C1948 C 0.86567 0.1674 0.86906 0.0
C1949 C 0.87572 0.1629 0.86182 0.0
C1950 C 0.87476 0.14859 0.86588 0.0
C1951 C 0.86395 0.13899 0.87699 0.0
C1952 C 0.83363 0.15036 0.99128 0.0
C1953 C 0.76426 0.0481 0.87188 0.0
H1954 H 0.85211 0.69047 0.03152 0.0
H1955 H 0.7392 0.68682 0.89688 0.0
H1956 H 0.87159 0.7148 0.95016 0.0
H1957 H 0.89058 0.70822 0.96207 0.0
H1958 H 0.8712 0.66655 0.92734 0.0
H1959 H 0.85162 0.6727 0.91632 0.0
H1960 H 0.84236 0.71297 0.9684 0.0
H1961 H 0.84709 0.70774 0.99692 0.0
H1962 H 0.83959 0.66191 0.97873 0.0
H1963 H 0.83468 0.66721 0.95032 0.0
H1964 H 0.81232 0.71318 0.95109 0.0
H1965 H 0.79068 0.70496 0.96954 0.0
H1966 H 0.78227 0.65696 0.96528 0.0
H1967 H 0.80353 0.66517 0.94656 0.0
H1968 H 0.81735 0.72313 0.91112 0.0
H1969 H 0.79378 0.72441 0.90325 0.0
H1970 H 0.76485 0.67395 0.90856 0.0
H1971 H 0.78852 0.6728 0.91622 0.0
H1972 H 0.84457 0.72424 0.88728 0.0
H1973 H 0.83862 0.72449 0.85734 0.0
H1974 H 0.79962 0.67626 0.85717 0.0
H1975 H 0.80591 0.67597 0.88674 0.0
H1976 H 0.87389 0.7224 0.90929 0.0
H1977 H 0.89109 0.72564 0.88661 0.0
H1978 H 0.85431 0.68154 0.86156 0.0
H1979 H 0.83748 0.67801 0.88448 0.0
O1980 O 0.85011 0.69225 0.02016 0.0
O1981 O 0.84622 0.66884 0.01016 0.0
O1982 O 0.76411 0.71255 0.8973 0.0
O1983 O 0.74871 0.68665 0.89993 0.0
C1984 C 0.84649 0.69613 0.92793 0.0
C1985 C 0.83559 0.69386 0.93999 0.0
C1986 C 0.8218 0.69425 0.9355 0.0
C1987 C 0.81901 0.69725 0.91907 0.0
C1988 C 0.82972 0.69925 0.90694 0.0
C1989 C 0.84348 0.69867 0.91136 0.0
C1990 C 0.86015 0.69418 0.93246 0.0
C1991 C 0.87165 0.7044 0.94495 0.0
C1992 C 0.88256 0.70064 0.95168 0.0
C1993 C 0.8823 0.6867 0.94585 0.0
C1994 C 0.8715 0.67716 0.93243 0.0
C1995 C 0.86045 0.6808 0.92591 0.0
C1996 C 0.8383 0.69052 0.9573 0.0
C1997 C 0.84171 0.70179 0.97063 0.0
C1998 C 0.84443 0.69878 0.98689 0.0
C1999 C 0.84377 0.68442 0.9901 0.0
C2000 C 0.84023 0.6731 0.97669 0.0
C2001 C 0.83747 0.67611 0.96045 0.0
C2002 C 0.80946 0.68976 0.94753 0.0
C2003 C 0.80582 0.70093 0.95425 0.0
C2004 C 0.79354 0.69623 0.96483 0.0
C2005 C 0.78473 0.68029 0.96879 0.0
C2006 C 0.78868 0.66926 0.96228 0.0
C2007 C 0.8009 0.67395 0.95172 0.0
C2008 C 0.80462 0.69791 0.91438 0.0
C2009 C 0.8059 0.71237 0.91057 0.0
C2010 C 0.79243 0.71307 0.90609 0.0
C2011 C 0.77742 0.69928 0.90532 0.0
C2012 C 0.77621 0.68479 0.90908 0.0
C2013 C 0.7897 0.68411 0.91352 0.0
C2014 C 0.82561 0.70012 0.88918 0.0
C2015 C 0.8347 0.71379 0.88073 0.0
C2016 C 0.83128 0.71392 0.86369 0.0
C2017 C 0.81874 0.70034 0.85486 0.0
C2018 C 0.80953 0.6868 0.86351 0.0
C2019 C 0.81296 0.68669 0.88046 0.0
C2020 C 0.85436 0.7001 0.89839 0.0
C2021 C 0.86966 0.71335 0.89901 0.0
C2022 C 0.87942 0.7152 0.88609 0.0
C2023 C 0.87387 0.70394 0.8723 0.0
C2024 C 0.85872 0.69049 0.87195 0.0
C2025 C 0.84913 0.68848 0.885 0.0
C2026 C 0.84676 0.68131 0.00738 0.0
C2027 C 0.76306 0.69996 0.9006 0.0
H2028 H 0.83196 0.66964 0.37103 0.0
H2029 H 0.9095 0.62721 0.50864 0.0
H2030 H 0.82011 0.66871 0.46068 0.0
H2031 H 0.80052 0.6746 0.44918 0.0
H2032 H 0.76457 0.6251 0.45002 0.0
H2033 H 0.78454 0.61924 0.46123 0.0
H2034 H 0.84538 0.66987 0.44261 0.0
H2035 H 0.84331 0.67441 0.41317 0.0
H2036 H 0.80566 0.62557 0.40354 0.0
H2037 H 0.80799 0.62114 0.433 0.0
H2038 H 0.86885 0.67008 0.46793 0.0
H2039 H 0.89164 0.67898 0.45141 0.0
H2040 H 0.86788 0.63382 0.42205 0.0
H2041 H 0.84484 0.62518 0.43854 0.0
H2042 H 0.86577 0.66159 0.50347 0.0
H2043 H 0.88911 0.66165 0.5152 0.0
H2044 H 0.87459 0.61737 0.4864 0.0
H2045 H 0.85121 0.61737 0.47492 0.0
H2046 H 0.83374 0.65862 0.5163 0.0
H2047 H 0.84063 0.6596 0.54587 0.0
H2048 H 0.84074 0.61556 0.53767 0.0
H2049 H 0.8325 0.61405 0.5082 0.0
H2050 H 0.80976 0.65975 0.49518 0.0
H2051 H 0.79149 0.65765 0.51591 0.0
H2052 H 0.77861 0.60879 0.52126 0.0
H2053 H 0.79692 0.61099 0.50035 0.0
O2054 O 0.83262 0.66756 0.38261 0.0
O2055 O 0.81326 0.64238 0.37834 0.0
O2056 O 0.90728 0.65021 0.5188 0.0
O2057 O 0.90036 0.62748 0.50421 0.0
C2058 C 0.81611 0.64034 0.46811 0.0
C2059 C 0.82815 0.64234 0.45776 0.0
C2060 C 0.84146 0.64211 0.46451 0.0
C2061 C 0.84249 0.63927 0.48145 0.0
C2062 C 0.83031 0.63694 0.49177 0.0
C2063 C 0.81703 0.63736 0.48505 0.0
C2064 C 0.80375 0.64355 0.46167 0.0
C2065 C 0.808 0.65913 0.45836 0.0
C2066 C 0.79676 0.66249 0.45195 0.0
C2067 C 0.78096 0.65033 0.44877 0.0
C2068 C 0.77667 0.63469 0.45223 0.0
C2069 C 0.788 0.63133 0.45869 0.0
C2070 C 0.82696 0.64513 0.43988 0.0
C2071 C 0.83679 0.66013 0.43409 0.0
C2072 C 0.83553 0.66271 0.41728 0.0
C2073 C 0.82434 0.65034 0.40599 0.0
C2074 C 0.81443 0.63534 0.4119 0.0
C2075 C 0.81573 0.63278 0.4287 0.0
C2076 C 0.85529 0.64697 0.45449 0.0
C2077 C 0.86862 0.66208 0.45799 0.0
C2078 C 0.88166 0.6671 0.44857 0.0
C2079 C 0.88166 0.65707 0.43547 0.0
C2080 C 0.86821 0.64189 0.43195 0.0
C2081 C 0.8551 0.63689 0.4414 0.0
C2082 C 0.85675 0.6394 0.48847 0.0
C2083 C 0.86762 0.65187 0.49979 0.0
C2084 C 0.88096 0.6519 0.50643 0.0
C2085 C 0.8837 0.63949 0.50176 0.0
C2086 C 0.87283 0.62709 0.49029 0.0
C2087 C 0.85947 0.62706 0.48369 0.0
C2088 C 0.83257 0.63625 0.51006 0.0
C2089 C 0.83472 0.6489 0.52097 0.0
C2090 C 0.83895 0.64957 0.53786 0.0
C2091 C 0.84158 0.63783 0.54416 0.0
C2092 C 0.83872 0.62476 0.53333 0.0
C2093 C 0.83413 0.62393 0.51644 0.0
C2094 C 0.80456 0.63548 0.49612 0.0
C2095 C 0.80268 0.64846 0.50046 0.0
C2096 C 0.79225 0.64724 0.51235 0.0
C2097 C 0.78362 0.63305 0.52024 0.0
C2098 C 0.78521 0.61992 0.51551 0.0
C2099 C 0.79557 0.62112 0.50352 0.0
C2100 C 0.82302 0.65312 0.38814 0.0
C2101 C 0.89784 0.63945 0.5088 0.0
H2102 H 0.35081 0.17068 0.38377 0.0
H2103 H 0.40411 0.30136 0.52412 0.0
H2104 H 0.3439 0.1638 0.47342 0.0
H2105 H 0.33467 0.13639 0.46321 0.0
H2106 H 0.3805 0.14294 0.47713 0.0
H2107 H 0.38977 0.17063 0.48716 0.0
H2108 H 0.34722 0.18602 0.45401 0.0
H2109 H 0.34416 0.17858 0.42407 0.0
H2110 H 0.39251 0.18933 0.42571 0.0
H2111 H 0.39544 0.1969 0.45566 0.0
H2112 H 0.34797 0.20849 0.47305 0.0
H2113 H 0.34175 0.22431 0.4549 0.0
H2114 H 0.39091 0.25274 0.44551 0.0
H2115 H 0.39701 0.23638 0.46342 0.0
H2116 H 0.35829 0.22242 0.5128 0.0
H2117 H 0.36206 0.24819 0.52303 0.0
H2118 H 0.40938 0.27148 0.50663 0.0
H2119 H 0.40547 0.2456 0.49661 0.0
H2120 H 0.35666 0.19461 0.5318 0.0
H2121 H 0.35846 0.20529 0.56036 0.0
H2122 H 0.4078 0.23928 0.55649 0.0
H2123 H 0.40584 0.22846 0.52781 0.0
H2124 H 0.3485 0.16413 0.51045 0.0
H2125 H 0.34488 0.14459 0.53031 0.0
H2126 H 0.39464 0.17175 0.54569 0.0
H2127 H 0.39823 0.1909 0.52512 0.0
O2128 O 0.3523 0.17376 0.39561 0.0
O2129 O 0.37721 0.17943 0.39713 0.0
O2130 O 0.37792 0.27846 0.52846 0.0
O2131 O 0.40229 0.29102 0.52017 0.0
C2132 C 0.37288 0.18591 0.48669 0.0
C2133 C 0.37356 0.19667 0.47513 0.0
C2134 C 0.37619 0.21171 0.48087 0.0
C2135 C 0.37936 0.21652 0.49806 0.0
C2136 C 0.37924 0.206 0.50965 0.0
C2137 C 0.37565 0.19054 0.50399 0.0
C2138 C 0.36758 0.16927 0.48071 0.0
C2139 C 0.35202 0.1594 0.47405 0.0
C2140 C 0.34676 0.14375 0.46827 0.0
C2141 C 0.35692 0.1376 0.46923 0.0
C2142 C 0.37243 0.14739 0.47628 0.0
C2143 C 0.37775 0.16317 0.48193 0.0
C2144 C 0.37161 0.1922 0.45694 0.0
C2145 C 0.35719 0.18694 0.44785 0.0
C2146 C 0.35545 0.1826 0.43076 0.0
C2147 C 0.3681 0.1834 0.42248 0.0
C2148 C 0.38253 0.18861 0.43169 0.0
C2149 C 0.38425 0.19295 0.44878 0.0
C2150 C 0.37288 0.22123 0.46935 0.0
C2151 C 0.35736 0.21797 0.46685 0.0
C2152 C 0.35383 0.22695 0.45647 0.0
C2153 C 0.36584 0.2396 0.44872 0.0
C2154 C 0.38146 0.24297 0.45132 0.0
C2155 C 0.38495 0.2337 0.46148 0.0
C2156 C 0.38162 0.23219 0.50401 0.0
C2157 C 0.36946 0.23311 0.51146 0.0
C2158 C 0.37164 0.24784 0.51727 0.0
C2159 C 0.38604 0.26191 0.51565 0.0
C2160 C 0.39816 0.2609 0.50808 0.0
C2161 C 0.39596 0.24615 0.50231 0.0
C2162 C 0.38113 0.21073 0.52777 0.0
C2163 C 0.36796 0.20405 0.53729 0.0
C2164 C 0.36903 0.21018 0.55361 0.0
C2165 C 0.38327 0.22319 0.56067 0.0
C2166 C 0.39663 0.22937 0.55133 0.0
C2167 C 0.39557 0.22316 0.53502 0.0
C2168 C 0.37365 0.17883 0.51623 0.0
C2169 C 0.35864 0.16576 0.51798 0.0
C2170 C 0.35658 0.15471 0.52948 0.0
C2171 C 0.36946 0.15663 0.53966 0.0
C2172 C 0.38451 0.1698 0.5379 0.0
C2173 C 0.38657 0.18081 0.52626 0.0
C2174 C 0.36621 0.17876 0.40432 0.0
C2175 C 0.38844 0.27758 0.52183 0.0
H2176 H 0.80006 0.17539 0.36952 0.0
H2177 H 0.93654 0.28233 0.49372 0.0
H2178 H 0.79445 0.17956 0.45836 0.0
H2179 H 0.77199 0.15284 0.45041 0.0
H2180 H 0.79855 0.13232 0.47046 0.0
H2181 H 0.82073 0.15891 0.47837 0.0
H2182 H 0.82139 0.20812 0.43628 0.0
H2183 H 0.81163 0.19799 0.40729 0.0
H2184 H 0.81999 0.15911 0.41418 0.0
H2185 H 0.82988 0.16946 0.44309 0.0
H2186 H 0.85549 0.23888 0.45119 0.0
H2187 H 0.87563 0.25283 0.4315 0.0
H2188 H 0.88144 0.21193 0.42497 0.0
H2189 H 0.86132 0.19814 0.44448 0.0
H2190 H 0.85799 0.24504 0.49095 0.0
H2191 H 0.88359 0.26934 0.49703 0.0
H2192 H 0.90692 0.24361 0.48265 0.0
H2193 H 0.88124 0.21937 0.47679 0.0
H2194 H 0.8378 0.22494 0.51598 0.0
H2195 H 0.85036 0.23456 0.5443 0.0
H2196 H 0.8765 0.2103 0.5369 0.0
H2197 H 0.86468 0.20178 0.50844 0.0
H2198 H 0.80108 0.18863 0.49955 0.0
H2199 H 0.78551 0.17173 0.52117 0.0
H2200 H 0.8216 0.15988 0.53175 0.0
H2201 H 0.83663 0.17616 0.5097 0.0
O2202 O 0.80402 0.17921 0.381 0.0
O2203 O 0.80848 0.15942 0.38522 0.0
O2204 O 0.91371 0.28554 0.49888 0.0
O2205 O 0.92627 0.27289 0.49149 0.0
C2206 C 0.82329 0.18714 0.47266 0.0
C2207 C 0.83203 0.19565 0.4594 0.0
C2208 C 0.84661 0.20988 0.46289 0.0
C2209 C 0.85223 0.21584 0.47961 0.0
C2210 C 0.84344 0.20741 0.49283 0.0
C2211 C 0.82896 0.19308 0.48938 0.0
C2212 C 0.80914 0.17113 0.46904 0.0
C2213 C 0.79528 0.16925 0.46119 0.0
C2214 C 0.78253 0.15401 0.4566 0.0
C2215 C 0.78348 0.14046 0.45984 0.0
C2216 C 0.79731 0.14247 0.46805 0.0
C2217 C 0.81001 0.15766 0.47257 0.0
C2218 C 0.8262 0.18945 0.4418 0.0
C2219 C 0.82111 0.19742 0.43149 0.0
C2220 C 0.81553 0.1916 0.41494 0.0
C2221 C 0.81498 0.1777 0.40843 0.0
C2222 C 0.8202 0.16981 0.41881 0.0
C2223 C 0.82581 0.17566 0.43534 0.0
C2224 C 0.85696 0.21752 0.44922 0.0
C2225 C 0.86093 0.23287 0.44523 0.0
C2226 C 0.87247 0.24082 0.43407 0.0
C2227 C 0.88019 0.23351 0.42674 0.0
C2228 C 0.87559 0.21782 0.4302 0.0
C2229 C 0.86411 0.20993 0.44136 0.0
C2230 C 0.8678 0.23051 0.48337 0.0
C2231 C 0.86866 0.24469 0.48917 0.0
C2232 C 0.88329 0.25854 0.4926 0.0
C2233 C 0.89731 0.25843 0.49028 0.0
C2234 C 0.89636 0.24413 0.48454 0.0
C2235 C 0.88172 0.23028 0.48116 0.0
C2236 C 0.85036 0.21269 0.51025 0.0
C2237 C 0.84628 0.22179 0.52057 0.0
C2238 C 0.8534 0.22717 0.53678 0.0
C2239 C 0.86457 0.22332 0.54297 0.0
C2240 C 0.86831 0.2139 0.53254 0.0
C2241 C 0.86143 0.20883 0.5163 0.0
C2242 C 0.82006 0.18377 0.50324 0.0
C2243 C 0.80562 0.18244 0.50665 0.0
C2244 C 0.7968 0.17285 0.51904 0.0
C2245 C 0.8023 0.16442 0.52817 0.0
C2246 C 0.81691 0.16602 0.52481 0.0
C2247 C 0.82564 0.17551 0.51239 0.0
C2248 C 0.80898 0.17152 0.39087 0.0
C2249 C 0.91288 0.27313 0.49383 0.0
H2250 H 0.01355 0.52359 0.34038 0.0
H2251 H 0.00389 0.40486 0.20389 0.0
H2252 H 0.97409 0.50847 0.25595 0.0
H2253 H 0.97913 0.53494 0.26564 0.0
H2254 H 0.0209 0.55653 0.23816 0.0
H2255 H 0.01573 0.53006 0.22845 0.0
H2256 H 0.98199 0.48523 0.27793 0.0
H2257 H 0.99126 0.49804 0.30621 0.0
H2258 H 0.0347 0.53394 0.28756 0.0
H2259 H 0.02534 0.52091 0.25938 0.0
H2260 H 0.98039 0.4548 0.26396 0.0
H2261 H 0.99124 0.44226 0.28172 0.0
H2262 H 0.03832 0.47775 0.27088 0.0
H2263 H 0.02738 0.4902 0.25323 0.0
H2264 H 0.96611 0.4426 0.22673 0.0
H2265 H 0.96553 0.41777 0.21886 0.0
H2266 H 0.01572 0.44439 0.21344 0.0
H2267 H 0.01608 0.46911 0.2212 0.0
H2268 H 0.95774 0.45837 0.20249 0.0
H2269 H 0.95159 0.44309 0.17533 0.0
H2270 H 0.00088 0.46926 0.16578 0.0
H2271 H 0.0069 0.48419 0.1929 0.0
H2272 H 0.96195 0.49798 0.21876 0.0
H2273 H 0.95577 0.51226 0.19819 0.0
H2274 H 0.99805 0.52302 0.17398 0.0
H2275 H 0.00427 0.50905 0.19471 0.0
O2276 O 0.01013 0.51869 0.32912 0.0
O2277 O 0.03223 0.53689 0.31889 0.0
O2278 O 0.97799 0.40136 0.20998 0.0
O2279 O 0.00378 0.41448 0.20706 0.0
C2280 C 0.99269 0.50162 0.23733 0.0
C2281 C 0.99722 0.49443 0.24952 0.0
C2282 C 0.99669 0.48 0.24531 0.0
C2283 C 0.99137 0.4726 0.22904 0.0
C2284 C 0.98692 0.47981 0.21682 0.0
C2285 C 0.98758 0.49435 0.22094 0.0
C2286 C 0.99454 0.51742 0.24151 0.0
C2287 C 0.98415 0.51894 0.2518 0.0
C2288 C 0.98702 0.53401 0.25728 0.0
C2289 C 0.00045 0.54773 0.2527 0.0
C2290 C 0.01055 0.54613 0.24197 0.0
C2291 C 0.00756 0.53108 0.23634 0.0
C2292 C 0.00296 0.50221 0.26664 0.0
C2293 C 0.99351 0.49585 0.28001 0.0
C2294 C 0.99883 0.5032 0.29613 0.0
C2295 C 0.01371 0.51704 0.29914 0.0
C2296 C 0.02317 0.52332 0.28567 0.0
C2297 C 0.01785 0.51594 0.26957 0.0
C2298 C 0.00313 0.47337 0.25739 0.0
C2299 C 0.99304 0.45997 0.26568 0.0
C2300 C -0.00075 0.45289 0.27582 0.0
C2301 C 0.01561 0.45904 0.2776 0.0
C2302 C 0.02567 0.47272 0.26961 0.0
C2303 C 0.01947 0.47987 0.25963 0.0
C2304 C 0.99113 0.45758 0.22454 0.0
C2305 C 0.97695 0.443 0.22384 0.0
C2306 C 0.97666 0.42887 0.21935 0.0
C2307 C 0.99059 0.42909 0.21552 0.0
C2308 C 0.00479 0.44378 0.21631 0.0
C2309 C 0.00504 0.4579 0.22077 0.0
C2310 C 0.98272 0.4725 0.19949 0.0
C2311 C 0.96711 0.46101 0.19431 0.0
C2312 C 0.96365 0.45225 0.17891 0.0
C2313 C 0.97576 0.45505 0.16845 0.0
C2314 C 0.99129 0.46703 0.17345 0.0
C2315 C 0.99475 0.47558 0.1889 0.0
C2316 C 0.98341 0.50226 0.20804 0.0
C2317 C 0.96979 0.50335 0.20893 0.0
C2318 C 0.96632 0.51154 0.19725 0.0
C2319 C 0.97637 0.51863 0.18443 0.0
C2320 C 0.98994 0.51741 0.18354 0.0
C2321 C 0.99349 0.5094 0.19533 0.0
C2322 C 0.0193 0.52485 0.31627 0.0
C2323 C 0.99034 0.41412 0.2107 0.0
H2324 H 0.48956 0.50415 0.34166 0.0
H2325 H 0.41586 0.36443 0.21238 0.0
H2326 H 0.5029 0.50516 0.25333 0.0
H2327 H 0.5236 0.53177 0.26401 0.0
H2328 H 0.55765 0.51626 0.26357 0.0
H2329 H 0.53669 0.48946 0.25307 0.0
H2330 H 0.47604 0.48137 0.27107 0.0
H2331 H 0.47807 0.49176 0.29989 0.0
H2332 H 0.51669 0.48384 0.31159 0.0
H2333 H 0.51439 0.4733 0.28276 0.0
H2334 H 0.45164 0.45167 0.24659 0.0
H2335 H 0.43032 0.44093 0.26532 0.0
H2336 H 0.4587 0.43085 0.29943 0.0
H2337 H 0.47976 0.44105 0.28017 0.0
H2338 H 0.45568 0.44356 0.21196 0.0
H2339 H 0.43326 0.41777 0.20146 0.0
H2340 H 0.45001 0.3943 0.23375 0.0
H2341 H 0.47249 0.42017 0.24398 0.0
H2342 H 0.48519 0.47118 0.19752 0.0
H2343 H 0.47821 0.46021 0.16856 0.0
H2344 H 0.48538 0.42166 0.18131 0.0
H2345 H 0.49237 0.4328 0.21041 0.0
H2346 H 0.5092 0.50134 0.21887 0.0
H2347 H 0.52892 0.51846 0.20033 0.0
H2348 H 0.54513 0.48489 0.19556 0.0
H2349 H 0.5255 0.46791 0.21453 0.0
O2350 O 0.48893 0.49996 0.33034 0.0
O2351 O 0.50879 0.49574 0.33569 0.0
O2352 O 0.41655 0.38742 0.19989 0.0
O2353 O 0.42461 0.37478 0.21632 0.0
C2354 C 0.50547 0.47921 0.24658 0.0
C2355 C 0.49373 0.47013 0.25738 0.0
C2356 C 0.48063 0.45533 0.25139 0.0
C2357 C 0.47956 0.44934 0.23477 0.0
C2358 C 0.49137 0.45841 0.22396 0.0
C2359 C 0.50427 0.47342 0.22984 0.0
C2360 C 0.51831 0.49541 0.25254 0.0
C2361 C 0.51484 0.50753 0.25554 0.0
C2362 C 0.52669 0.52273 0.2615 0.0
C2363 C 0.54225 0.5261 0.26459 0.0
C2364 C 0.54574 0.51395 0.26143 0.0
C2365 C 0.53384 0.49871 0.25538 0.0
C2366 C 0.49498 0.47647 0.27489 0.0
C2367 C 0.48485 0.4818 0.27991 0.0
C2368 C 0.48608 0.48777 0.29637 0.0
C2369 C 0.49753 0.48861 0.30806 0.0
C2370 C 0.50773 0.48334 0.30292 0.0
C2371 C 0.50645 0.47733 0.28647 0.0
C2372 C 0.4672 0.44707 0.26199 0.0
C2373 C 0.4531 0.44681 0.25793 0.0
C2374 C 0.44104 0.44089 0.26878 0.0
C2375 C 0.44289 0.43523 0.28399 0.0
C2376 C 0.45686 0.43503 0.28777 0.0
C2377 C 0.46891 0.44087 0.27683 0.0
C2378 C 0.46578 0.43371 0.22861 0.0
C2379 C 0.45453 0.43282 0.21667 0.0
C2380 C 0.44171 0.41808 0.21074 0.0
C2381 C 0.43986 0.40396 0.21674 0.0
C2382 C 0.45109 0.40493 0.22884 0.0
C2383 C 0.46393 0.41968 0.23473 0.0
C2384 C 0.48931 0.4528 0.20606 0.0
C2385 C 0.48564 0.46059 0.19398 0.0
C2386 C 0.48168 0.4543 0.17742 0.0
C2387 C 0.48121 0.44003 0.17263 0.0
C2388 C 0.48549 0.43258 0.18465 0.0
C2389 C 0.48955 0.43895 0.20123 0.0
C2390 C 0.51608 0.48351 0.21825 0.0
C2391 C 0.51713 0.49777 0.214 0.0
C2392 C 0.52839 0.50752 0.20343 0.0
C2393 C 0.53864 0.50306 0.19666 0.0
C2394 C 0.53736 0.48859 0.20062 0.0
C2395 C 0.5262 0.47892 0.21142 0.0
C2396 C 0.49881 0.49497 0.32553 0.0
C2397 C 0.42629 0.38826 0.21044 0.0
H2398 H 0.50946 0.99098 0.3607 0.0
H2399 H 0.39619 0.9908 0.22943 0.0
H2400 H 0.52864 0.01887 0.27989 0.0
H2401 H 0.5496 0.0143 0.28985 0.0
H2402 H 0.53168 0.97345 0.25415 0.0
H2403 H 0.5101 0.97753 0.24515 0.0
H2404 H 0.50005 0.01577 0.29908 0.0
H2405 H 0.50473 0.00956 0.32714 0.0
H2406 H 0.49694 0.96416 0.30695 0.0
H2407 H 0.49211 0.97045 0.27898 0.0
H2408 H 0.47219 0.01905 0.28114 0.0
H2409 H 0.45136 0.0131 0.30011 0.0
H2410 H 0.43944 0.96392 0.29775 0.0
H2411 H 0.46028 0.97 0.27881 0.0
H2412 H 0.47444 0.02749 0.24286 0.0
H2413 H 0.4507 0.02869 0.23568 0.0
H2414 H 0.42216 0.978 0.23993 0.0
H2415 H 0.446 0.97695 0.2469 0.0
H2416 H 0.50106 0.03082 0.22078 0.0
H2417 H 0.49377 0.03443 0.19239 0.0
H2418 H 0.45676 0.98506 0.18715 0.0
H2419 H 0.4642 0.98157 0.21532 0.0
H2420 H 0.5309 0.02722 0.23941 0.0
H2421 H 0.5487 0.03031 0.21757 0.0
H2422 H 0.51211 0.98637 0.19179 0.0
H2423 H 0.49481 0.98306 0.214 0.0
O2424 O 0.50752 0.99318 0.34951 0.0
O2425 O 0.50349 0.97001 0.33849 0.0
O2426 O 0.42097 0.01668 0.23009 0.0
O2427 O 0.40577 0.99067 0.2322 0.0
C2428 C 0.50374 -9e-05 0.25769 0.0
C2429 C 0.49299 0.99742 0.26999 0.0
C2430 C 0.47934 0.99824 0.266 0.0
C2431 C 0.47638 0.00149 0.24974 0.0
C2432 C 0.48698 0.00375 0.2374 0.0
C2433 C 0.5007 0.00303 0.24137 0.0
C2434 C 0.5178 0.9985 0.26187 0.0
C2435 C 0.52934 0.00901 0.27415 0.0
C2436 C 0.54141 0.00643 0.27972 0.0
C2437 C 0.54235 0.99342 0.27289 0.0
C2438 C 0.53118 0.98339 0.25995 0.0
C2439 C 0.51895 0.98583 0.2546 0.0
C2440 C 0.49579 0.99359 0.28701 0.0
C2441 C 0.49932 0.00448 0.30077 0.0
C2442 C 0.50201 0.00091 0.31677 0.0
C2443 C 0.50123 0.98637 0.31929 0.0
C2444 C 0.49766 0.97547 0.30545 0.0
C2445 C 0.49493 0.97904 0.28946 0.0
C2446 C 0.46769 0.99495 0.27861 0.0
C2447 C 0.46515 0.00704 0.28486 0.0
C2448 C 0.45324 0.0036 0.29561 0.0
C2449 C 0.44373 0.98803 0.30035 0.0
C2450 C 0.44668 0.97606 0.29448 0.0
C2451 C 0.45854 0.9795 0.28364 0.0
C2452 C 0.46192 0.00215 0.24545 0.0
C2453 C 0.46304 0.01666 0.2422 0.0
C2454 C 0.44947 0.01731 0.23813 0.0
C2455 C 0.43452 0.00343 0.23726 0.0
C2456 C 0.43347 0.98891 0.24051 0.0
C2457 C 0.44706 0.98828 0.24454 0.0
C2458 C 0.48313 0.00595 0.22006 0.0
C2459 C 0.49146 0.0208 0.2134 0.0
C2460 C 0.48724 0.02285 0.19727 0.0
C2461 C 0.47472 0.01001 0.18754 0.0
C2462 C 0.46659 0.99511 0.19423 0.0
C2463 C 0.47074 0.99312 0.21035 0.0
C2464 C 0.51155 0.00496 0.22822 0.0
C2465 C 0.52682 0.01824 0.22906 0.0
C2466 C 0.53691 0.02004 0.21652 0.0
C2467 C 0.53185 0.00859 0.20291 0.0
C2468 C 0.51651 0.99529 0.2022 0.0
C2469 C 0.50652 0.99346 0.21478 0.0
C2470 C 0.50414 0.98264 0.3363 0.0
C2471 C 0.42006 0.00406 0.23296 0.0
H2472 H 0.51654 0.04068 0.7125 0.0
H2473 H 0.58956 0.98126 0.83822 0.0
H2474 H 0.50007 0.02943 0.80268 0.0
H2475 H 0.47999 0.03395 0.78965 0.0
H2476 H 0.44954 0.98316 0.77905 0.0
H2477 H 0.4695 0.97884 0.79291 0.0
H2478 H 0.52848 0.0332 0.78243 0.0
H2479 H 0.52699 0.04095 0.75418 0.0
H2480 H 0.49012 0.99273 0.73922 0.0
H2481 H 0.49185 0.98513 0.76749 0.0
H2482 H 0.55348 0.02868 0.80472 0.0
H2483 H 0.57582 0.03594 0.78768 0.0
H2484 H 0.54695 0.99409 0.7543 0.0
H2485 H 0.52463 0.98684 0.77156 0.0
H2486 H 0.54845 0.01856 0.83982 0.0
H2487 H 0.57108 0.01664 0.85018 0.0
H2488 H 0.55531 0.97457 0.81687 0.0
H2489 H 0.53261 0.97652 0.80679 0.0
H2490 H 0.51753 0.0154 0.85474 0.0
H2491 H 0.52463 0.01282 0.88331 0.0
H2492 H 0.52136 0.96822 0.86765 0.0
H2493 H 0.51302 0.97034 0.83934 0.0
H2494 H 0.49557 0.02088 0.83435 0.0
H2495 H 0.47775 0.01902 0.85555 0.0
H2496 H 0.46037 0.96865 0.85636 0.0
H2497 H 0.47807 0.97057 0.83477 0.0
O2498 O 0.51698 0.03735 0.72357 0.0
O2499 O 0.49803 0.0124 0.71653 0.0
O2500 O 0.58826 0.00392 0.85131 0.0
O2501 O 0.58071 0.9823 0.83436 0.0
C2502 C 0.49912 0.00141 0.80484 0.0
C2503 C 0.51111 0.00399 0.79416 0.0
C2504 C 0.52414 0.00284 0.80006 0.0
C2505 C 0.52499 0.99867 0.8165 0.0
C2506 C 0.51295 0.99599 0.8272 0.0
C2507 C 0.50003 0.99746 0.82137 0.0
C2508 C 0.48616 0.00382 0.79877 0.0
C2509 C 0.48891 0.0193 0.79784 0.0
C2510 C 0.47749 0.02184 0.7902 0.0
C2511 C 0.46319 0.00894 0.78308 0.0
C2512 C 0.46031 0.99338 0.78455 0.0
C2513 C 0.47169 0.99086 0.79242 0.0
C2514 C 0.5103 0.00861 0.77696 0.0
C2515 C 0.52015 0.02433 0.773 0.0
C2516 C 0.51924 0.02872 0.75687 0.0
C2517 C 0.50843 0.01746 0.74443 0.0
C2518 C 0.49857 0.0017 0.74849 0.0
C2519 C 0.49952 0.99732 0.76462 0.0
C2520 C 0.5375 0.00717 0.78944 0.0
C2521 C 0.55202 0.02104 0.79377 0.0
C2522 C 0.56474 0.02515 0.78405 0.0
C2523 C 0.56313 0.01554 0.7697 0.0
C2524 C 0.54848 0.00178 0.76522 0.0
C2525 C 0.53577 0.99759 0.77506 0.0
C2526 C 0.53884 0.99761 0.82265 0.0
C2527 C 0.54987 0.0089 0.83485 0.0
C2528 C 0.5628 0.0078 0.84071 0.0
C2529 C 0.56499 0.99543 0.83437 0.0
C2530 C 0.55397 0.98422 0.82204 0.0
C2531 C 0.54101 0.98531 0.81623 0.0
C2532 C 0.51475 0.99306 0.84493 0.0
C2533 C 0.51778 0.00479 0.8576 0.0
C2534 C 0.52212 0.00342 0.87389 0.0
C2535 C 0.52393 0.99048 0.87778 0.0
C2536 C 0.52001 0.9783 0.86522 0.0
C2537 C 0.51534 0.97953 0.84897 0.0
C2538 C 0.48802 0.99584 0.83294 0.0
C2539 C 0.48765 0.00937 0.83881 0.0
C2540 C 0.47761 0.00832 0.85107 0.0
C2541 C 0.46775 0.99371 0.85771 0.0
C2542 C 0.46774 0.98004 0.85138 0.0
C2543 C 0.47785 0.98112 0.83912 0.0
C2544 C 0.50745 0.02218 0.72733 0.0
C2545 C 0.5787 0.9942 0.84056 0.0
H2546 H 0.96708 0.47489 0.73017 0.0
H2547 H 0.02497 0.61083 0.86355 0.0
H2548 H 0.97827 0.47326 0.82056 0.0
H2549 H 0.97239 0.44676 0.81036 0.0
H2550 H 0.02217 0.46284 0.81383 0.0
H2551 H 0.02796 0.48952 0.82378 0.0
H2552 H 0.97464 0.49586 0.80095 0.0
H2553 H 0.96691 0.48597 0.77162 0.0
H2554 H 0.01461 0.49725 0.76432 0.0
H2555 H 0.02222 0.50727 0.79366 0.0
H2556 H 0.97681 0.52132 0.82147 0.0
H2557 H 0.96851 0.5363 0.80438 0.0
H2558 H 0.01344 0.55825 0.78249 0.0
H2559 H 0.02161 0.54305 0.79962 0.0
H2560 H 0.98932 0.5316 0.85931 0.0
H2561 H 0.99054 0.55616 0.86974 0.0
H2562 H 0.03261 0.58349 0.84374 0.0
H2563 H 0.03138 0.55884 0.83361 0.0
H2564 H 0.99462 0.5064 0.87629 0.0
H2565 H 0.99711 0.51882 0.90418 0.0
H2566 H 0.04178 0.55892 0.89343 0.0
H2567 H 0.0394 0.54614 0.86571 0.0
H2568 H 0.99023 0.47674 0.85621 0.0
H2569 H 0.99502 0.46048 0.87515 0.0
H2570 H 0.0445 0.49621 0.88063 0.0
H2571 H 0.03962 0.51236 0.86141 0.0
O2572 O 0.97041 0.47893 0.74171 0.0
O2573 O 0.9951 0.48492 0.73863 0.0
O2574 O 0.00264 0.58634 0.87288 0.0
O2575 O 0.02421 0.60094 0.85961 0.0
C2576 C 0.0068 0.49938 0.82846 0.0
C2577 C 0.00371 0.50832 0.81718 0.0
C2578 C 0.0049 0.52275 0.82292 0.0
C2579 C 0.00971 0.52856 0.83976 0.0
C2580 C 0.01325 0.51985 0.85099 0.0
C2581 C 0.0117 0.50519 0.84536 0.0
C2582 C 0.00353 0.48329 0.82278 0.0
C2583 C 0.9879 0.47104 0.81911 0.0
C2584 C 0.98456 0.4559 0.81344 0.0
C2585 C 0.99682 0.45271 0.81134 0.0
C2586 C 0.0125 0.46499 0.8152 0.0
C2587 C 0.01583 0.48018 0.82093 0.0
C2588 C 0.99902 0.50242 0.79936 0.0
C2589 C 0.98343 0.49632 0.79295 0.0
C2590 C 0.97903 0.49061 0.77621 0.0
C2591 C 0.99015 0.49085 0.76561 0.0
C2592 C 0.00577 0.49692 0.77213 0.0
C2593 C 0.01014 0.50265 0.78887 0.0
C2594 C -0.00023 0.53115 0.81172 0.0
C2595 C 0.98477 0.52923 0.81282 0.0
C2596 C 0.98004 0.53771 0.80302 0.0
C2597 C 0.99033 0.54839 0.79211 0.0
C2598 C 0.00532 0.55013 0.79086 0.0
C2599 C 0.00997 0.54147 0.80055 0.0
C2600 C 0.01031 0.54348 0.84579 0.0
C2601 C 0.99882 0.54292 0.85594 0.0
C2602 C -0.00048 0.55695 0.86184 0.0
C2603 C 0.01169 0.5718 0.85758 0.0
C2604 C 0.0231 0.57227 0.84727 0.0
C2605 C 0.02241 0.55822 0.84144 0.0
C2606 C 0.01679 0.52542 0.86896 0.0
C2607 C 0.00523 0.51757 0.8802 0.0
C2608 C 0.00659 0.52477 0.89604 0.0
C2609 C 0.0195 0.53997 0.90087 0.0
C2610 C 0.03173 0.54718 0.89011 0.0
C2611 C 0.03038 0.53992 0.87426 0.0
C2612 C 0.01461 0.49562 0.85728 0.0
C2613 C 0.00212 0.48099 0.86138 0.0
C2614 C 0.00488 0.47172 0.87217 0.0
C2615 C 0.02016 0.47703 0.87923 0.0
C2616 C 0.03261 0.49186 0.87539 0.0
C2617 C 0.02985 0.50107 0.86443 0.0
C2618 C 0.98544 0.48474 0.74784 0.0
C2619 C 0.01252 0.58675 0.86384 0.0
H2620 H 0.48736 0.50228 0.71245 0.0
H2621 H 0.60572 0.61342 0.85087 0.0
H2622 H 0.4692 0.51266 0.79571 0.0
H2623 H 0.44706 0.48658 0.78528 0.0
H2624 H 0.46592 0.46381 0.81578 0.0
H2625 H 0.48791 0.48987 0.82611 0.0
H2626 H 0.49968 0.5382 0.77692 0.0
H2627 H 0.49413 0.52677 0.74803 0.0
H2628 H 0.4988 0.48755 0.76409 0.0
H2629 H 0.50451 0.49922 0.79289 0.0
H2630 H 0.53031 0.56892 0.79557 0.0
H2631 H 0.55247 0.5821 0.77797 0.0
H2632 H 0.55938 0.54179 0.77899 0.0
H2633 H 0.53719 0.52872 0.7965 0.0
H2634 H 0.52794 0.57693 0.83328 0.0
H2635 H 0.55293 0.60121 0.84188 0.0
H2636 H 0.57704 0.57455 0.83876 0.0
H2637 H 0.55193 0.55034 0.83034 0.0
H2638 H 0.50295 0.55852 0.85415 0.0
H2639 H 0.51069 0.57015 0.8832 0.0
H2640 H 0.53711 0.54625 0.88997 0.0
H2641 H 0.52983 0.53518 0.86088 0.0
H2642 H 0.46847 0.52142 0.83589 0.0
H2643 H 0.44973 0.50704 0.85677 0.0
H2644 H 0.483 0.4957 0.87946 0.0
H2645 H 0.50142 0.50971 0.85843 0.0
O2646 O 0.48967 0.50663 0.72394 0.0
O2647 O 0.49213 0.4867 0.73285 0.0
O2648 O 0.5827 0.61714 0.84908 0.0
O2649 O 0.59567 0.60399 0.84755 0.0
C2650 C 0.4945 0.51871 0.81645 0.0
C2651 C 0.50559 0.52642 0.80451 0.0
C2652 C 0.51988 0.5406 0.80932 0.0
C2653 C 0.52297 0.54724 0.82597 0.0
C2654 C 0.51189 0.53957 0.83786 0.0
C2655 C 0.49767 0.52527 0.83314 0.0
C2656 C 0.48012 0.50313 0.81166 0.0
C2657 C 0.46839 0.50202 0.80029 0.0
C2658 C 0.45583 0.48714 0.7943 0.0
C2659 C 0.45479 0.47314 0.79966 0.0
C2660 C 0.46626 0.47436 0.81157 0.0
C2661 C 0.47884 0.48923 0.81748 0.0
C2662 C 0.5024 0.51949 0.78698 0.0
C2663 C 0.49954 0.52717 0.77415 0.0
C2664 C 0.49635 0.52059 0.75767 0.0
C2665 C 0.49598 0.50622 0.75375 0.0
C2666 C 0.49895 0.49861 0.76668 0.0
C2667 C 0.50218 0.50523 0.78314 0.0
C2668 C 0.53219 0.5479 0.7973 0.0
C2669 C 0.53652 0.5629 0.79181 0.0
C2670 C 0.54921 0.57041 0.78185 0.0
C2671 C 0.55772 0.56301 0.77718 0.0
C2672 C 0.55296 0.54772 0.78222 0.0
C2673 C 0.54032 0.54025 0.79223 0.0
C2674 C 0.53816 0.56193 0.83118 0.0
C2675 C 0.53863 0.57637 0.83452 0.0
C2676 C 0.55292 0.59021 0.8394 0.0
C2677 C 0.567 0.58982 0.84099 0.0
C2678 C 0.56644 0.57527 0.83764 0.0
C2679 C 0.55213 0.56144 0.83281 0.0
C2680 C 0.51578 0.54597 0.85553 0.0
C2681 C 0.51034 0.55577 0.86197 0.0
C2682 C 0.51476 0.56238 0.87846 0.0
C2683 C 0.52435 0.55893 0.88875 0.0
C2684 C 0.52954 0.5489 0.88231 0.0
C2685 C 0.52544 0.54263 0.86576 0.0
C2686 C 0.48639 0.51683 0.84585 0.0
C2687 C 0.47168 0.51585 0.84542 0.0
C2688 C 0.46102 0.50763 0.85728 0.0
C2689 C 0.46501 0.50043 0.86982 0.0
C2690 C 0.47975 0.50142 0.87015 0.0
C2691 C 0.49028 0.50943 0.85818 0.0
C2692 C 0.49249 0.49922 0.73625 0.0
C2693 C 0.58222 0.6045 0.84612 0.0
H2694 H 0.62347 0.832 0.67811 0.0
H2695 H 0.64992 0.72609 0.55739 0.0
H2696 H 0.60756 0.82593 0.58945 0.0
H2697 H 0.61219 0.85278 0.59629 0.0
H2698 H 0.65731 0.8727 0.57485 0.0
H2699 H 0.65245 0.84601 0.56791 0.0
H2700 H 0.60867 0.79752 0.61239 0.0
H2701 H 0.61066 0.80824 0.64107 0.0
H2702 H 0.65598 0.84882 0.63284 0.0
H2703 H 0.65393 0.83788 0.60428 0.0
H2704 H 0.61437 0.76709 0.59791 0.0
H2705 H 0.62506 0.75506 0.61638 0.0
H2706 H 0.6688 0.80008 0.62399 0.0
H2707 H 0.65843 0.81156 0.60457 0.0
H2708 H 0.60592 0.76032 0.55806 0.0
H2709 H 0.60814 0.73668 0.5526 0.0
H2710 H 0.6579 0.76432 0.56787 0.0
H2711 H 0.65555 0.78789 0.57308 0.0
H2712 H 0.60219 0.782 0.53209 0.0
H2713 H 0.60276 0.77164 0.50381 0.0
H2714 H 0.65266 0.78965 0.51291 0.0
H2715 H 0.65199 0.8 0.54087 0.0
H2716 H 0.60211 0.81656 0.54994 0.0
H2717 H 0.60073 0.83206 0.52738 0.0
H2718 H 0.64633 0.84154 0.51317 0.0
H2719 H 0.6478 0.82644 0.53591 0.0
O2720 O 0.62295 0.82796 0.66675 0.0
O2721 O 0.64617 0.84861 0.66185 0.0
O2722 O 0.62311 0.7216 0.55153 0.0
O2723 O 0.64871 0.73526 0.55939 0.0
C2724 C 0.62776 0.81808 0.57517 0.0
C2725 C 0.62967 0.81038 0.58881 0.0
C2726 C 0.63068 0.79656 0.58588 0.0
C2727 C 0.6291 0.79006 0.56934 0.0
C2728 C 0.62687 0.79758 0.55576 0.0
C2729 C 0.62623 0.8116 0.55865 0.0
C2730 C 0.62963 0.83406 0.57811 0.0
C2731 C 0.61831 0.83614 0.58605 0.0
C2732 C 0.62102 0.85146 0.59001 0.0
C2733 C 0.63511 0.8649 0.58608 0.0
C2734 C 0.6462 0.86266 0.57776 0.0
C2735 C 0.64348 0.84741 0.57383 0.0
C2736 C 0.63106 0.817 0.60621 0.0
C2737 C 0.61901 0.80872 0.61682 0.0
C2738 C 0.62018 0.81488 0.63318 0.0
C2739 C 0.63346 0.82942 0.63923 0.0
C2740 C 0.64557 0.83763 0.62857 0.0
C2741 C 0.6444 0.83144 0.61222 0.0
C2742 C 0.63564 0.79017 0.59981 0.0
C2743 C 0.62617 0.77438 0.6038 0.0
C2744 C 0.63229 0.76756 0.61444 0.0
C2745 C 0.64792 0.77653 0.62149 0.0
C2746 C 0.65688 0.7927 0.61846 0.0
C2747 C 0.65087 0.79939 0.60758 0.0
C2748 C 0.63054 0.77576 0.56608 0.0
C2749 C 0.61728 0.76123 0.5602 0.0
C2750 C 0.61859 0.74776 0.55711 0.0
C2751 C 0.6332 0.7486 0.55985 0.0
C2752 C 0.64647 0.76324 0.56567 0.0
C2753 C 0.64516 0.77671 0.5687 0.0
C2754 C 0.62704 0.79169 0.53848 0.0
C2755 C 0.61322 0.78374 0.52787 0.0
C2756 C 0.61356 0.7778 0.51181 0.0
C2757 C 0.62777 0.7799 0.50614 0.0
C2758 C 0.64159 0.78804 0.51681 0.0
C2759 C 0.64121 0.79386 0.53282 0.0
C2760 C 0.62493 0.82015 0.54438 0.0
C2761 C 0.61174 0.82191 0.54186 0.0
C2762 C 0.61099 0.83079 0.52905 0.0
C2763 C 0.62338 0.83789 0.51847 0.0
C2764 C 0.6365 0.83596 0.52095 0.0
C2765 C 0.63733 0.82729 0.53388 0.0
C2766 C 0.63463 0.83596 0.6566 0.0
C2767 C 0.63464 0.73431 0.55665 0.0
H2768 H 0.15409 0.81489 0.68693 0.0
H2769 H 0.08389 0.69713 0.53589 0.0
H2770 H 0.17066 0.82975 0.60072 0.0
H2771 H 0.19108 0.85543 0.61381 0.0
H2772 H 0.22594 0.84163 0.60688 0.0
H2773 H 0.20526 0.81577 0.59377 0.0
H2774 H 0.14378 0.80451 0.6142 0.0
H2775 H 0.14461 0.80996 0.64433 0.0
H2776 H 0.1814 0.79853 0.6517 0.0
H2777 H 0.18031 0.79293 0.62153 0.0
H2778 H 0.12159 0.78218 0.5854 0.0
H2779 H 0.09828 0.7691 0.60111 0.0
H2780 H 0.11921 0.74634 0.62848 0.0
H2781 H 0.14286 0.76007 0.61291 0.0
H2782 H 0.1255 0.77614 0.54994 0.0
H2783 H 0.10311 0.75233 0.53559 0.0
H2784 H 0.11747 0.72303 0.56093 0.0
H2785 H 0.13993 0.74697 0.57504 0.0
H2786 H 0.15511 0.80436 0.5395 0.0
H2787 H 0.14912 0.79735 0.50955 0.0
H2788 H 0.15755 0.75829 0.51466 0.0
H2789 H 0.16323 0.7653 0.54479 0.0
H2790 H 0.17836 0.8312 0.56397 0.0
H2791 H 0.19792 0.8503 0.54662 0.0
H2792 H 0.21597 0.81859 0.53792 0.0
H2793 H 0.19614 0.79942 0.55522 0.0
O2794 O 0.15391 0.81262 0.67505 0.0
O2795 O 0.17285 0.80669 0.67816 0.0
O2796 O 0.08581 0.72234 0.52862 0.0
O2797 O 0.09265 0.70674 0.54139 0.0
C2798 C 0.17387 0.80546 0.58822 0.0
C2799 C 0.16137 0.79481 0.59743 0.0
C2800 C 0.1483 0.78121 0.58915 0.0
C2801 C 0.14815 0.77772 0.5719 0.0
C2802 C 0.16075 0.78823 0.56271 0.0
C2803 C 0.17352 0.80221 0.57084 0.0
C2804 C 0.18646 0.82084 0.59649 0.0
C2805 C 0.18267 0.83218 0.60224 0.0
C2806 C 0.19434 0.84683 0.60972 0.0
C2807 C 0.21009 0.8505 0.61149 0.0
C2808 C 0.21391 0.83915 0.60562 0.0
C2809 C 0.20215 0.82439 0.5982 0.0
C2810 C 0.16186 0.79815 0.61572 0.0
C2811 C 0.1519 0.80305 0.62236 0.0
C2812 C 0.15246 0.80622 0.63957 0.0
C2813 C 0.16305 0.80464 0.65044 0.0
C2814 C 0.17308 0.79983 0.64369 0.0
C2815 C 0.17249 0.79663 0.62648 0.0
C2816 C 0.13383 0.77198 0.59798 0.0
C2817 C 0.12104 0.77421 0.59466 0.0
C2818 C 0.1077 0.76666 0.60362 0.0
C2819 C 0.1068 0.75658 0.61604 0.0
C2820 C 0.11958 0.75416 0.61915 0.0
C2821 C 0.13303 0.76186 0.6102 0.0
C2822 C 0.13441 0.76326 0.56338 0.0
C2823 C 0.12384 0.76457 0.55228 0.0
C2824 C 0.11104 0.75095 0.54415 0.0
C2825 C 0.10853 0.73577 0.54708 0.0
C2826 C 0.11908 0.73453 0.55836 0.0
C2827 C 0.1319 0.74817 0.56645 0.0
C2828 C 0.15962 0.78535 0.54429 0.0
C2829 C 0.15604 0.79453 0.53408 0.0
C2830 C 0.15265 0.79051 0.51694 0.0
C2831 C 0.15277 0.77719 0.50968 0.0
C2832 C 0.15711 0.76847 0.51988 0.0
C2833 C 0.16048 0.77251 0.53706 0.0
C2834 C 0.18592 0.814 0.56091 0.0
C2835 C 0.18667 0.82848 0.55848 0.0
C2836 C 0.1979 0.83939 0.54861 0.0
C2837 C 0.20855 0.83599 0.54094 0.0
C2838 C 0.20784 0.82149 0.54354 0.0
C2839 C 0.19659 0.81057 0.55345 0.0
C2840 C 0.16362 0.80803 0.66872 0.0
C2841 C 0.09496 0.72126 0.53845 0.0
H2842 H 0.20674 0.37184 0.70495 0.0
H2843 H 0.07678 0.34968 0.58202 0.0
H2844 H 0.21441 0.38018 0.61929 0.0
H2845 H 0.23356 0.37285 0.62891 0.0
H2846 H 0.20726 0.32803 0.59914 0.0
H2847 H 0.18759 0.33494 0.5908 0.0
H2848 H 0.18845 0.38454 0.63988 0.0
H2849 H 0.19711 0.38371 0.66859 0.0
H2850 H 0.18666 0.33551 0.65715 0.0
H2851 H 0.17785 0.33643 0.62855 0.0
H2852 H 0.15477 0.38273 0.62327 0.0
H2853 H 0.13408 0.37734 0.64242 0.0
H2854 H 0.12878 0.33144 0.6498 0.0
H2855 H 0.14867 0.3364 0.62998 0.0
H2856 H 0.15528 0.38657 0.58392 0.0
H2857 H 0.13083 0.38686 0.57823 0.0
H2858 H 0.10406 0.33851 0.59243 0.0
H2859 H 0.12857 0.33832 0.59784 0.0
H2860 H 0.17948 0.38531 0.55936 0.0
H2861 H 0.1693 0.38362 0.53049 0.0
H2862 H 0.1315 0.33577 0.53626 0.0
H2863 H 0.14197 0.33746 0.5648 0.0
H2864 H 0.21013 0.38459 0.57638 0.0
H2865 H 0.22453 0.38353 0.55259 0.0
H2866 H 0.1864 0.33597 0.53757 0.0
H2867 H 0.17226 0.33707 0.56143 0.0
O2868 O 0.2032 0.37189 0.69356 0.0
O2869 O 0.19768 0.34715 0.68702 0.0
O2870 O 0.10091 0.37464 0.57671 0.0
O2871 O 0.08662 0.34986 0.58408 0.0
C2872 C 0.18628 0.36098 0.60124 0.0
C2873 C 0.17751 0.36127 0.61467 0.0
C2874 C 0.16358 0.36181 0.61149 0.0
C2875 C 0.15859 0.36241 0.59493 0.0
C2876 C 0.16745 0.36236 0.58158 0.0
C2877 C 0.18129 0.36166 0.58472 0.0
C2878 C 0.19956 0.35808 0.6044 0.0
C2879 C 0.21293 0.36887 0.61471 0.0
C2880 C 0.22392 0.36467 0.62011 0.0
C2881 C 0.22187 0.34971 0.61502 0.0
C2882 C 0.20903 0.33946 0.60371 0.0
C2883 C 0.19789 0.34351 0.59864 0.0
C2884 C 0.18265 0.3606 0.63211 0.0
C2885 C 0.18802 0.37381 0.64362 0.0
C2886 C 0.19298 0.3733 0.66 0.0
C2887 C 0.19263 0.35956 0.66516 0.0
C2888 C 0.18713 0.3463 0.65358 0.0
C2889 C 0.18214 0.34681 0.63723 0.0
C2890 C 0.15324 0.35996 0.62522 0.0
C2891 C 0.14929 0.37161 0.62921 0.0
C2892 C 0.13755 0.36856 0.64012 0.0
C2893 C 0.12999 0.35403 0.64755 0.0
C2894 C 0.13463 0.34281 0.64435 0.0
C2895 C 0.14602 0.34566 0.63311 0.0
C2896 C 0.14369 0.36247 0.59139 0.0
C2897 C 0.14411 0.37605 0.58575 0.0
C2898 C 0.13014 0.37618 0.58254 0.0
C2899 C 0.11549 0.36271 0.58492 0.0
C2900 C 0.11513 0.34909 0.59049 0.0
C2901 C 0.12911 0.34896 0.59364 0.0
C2902 C 0.1614 0.36153 0.56414 0.0
C2903 C 0.16903 0.37448 0.55431 0.0
C2904 C 0.16316 0.37351 0.53789 0.0
C2905 C 0.14962 0.35954 0.53108 0.0
C2906 C 0.14208 0.3466 0.54103 0.0
C2907 C 0.14794 0.34759 0.55738 0.0
C2908 C 0.19016 0.36093 0.57056 0.0
C2909 C 0.20496 0.37395 0.56795 0.0
C2910 C 0.21309 0.37336 0.55433 0.0
C2911 C 0.20658 0.35967 0.54323 0.0
C2912 C 0.19179 0.34661 0.546 0.0
C2913 C 0.18365 0.34725 0.55954 0.0
C2914 C 0.19797 0.35909 0.68254 0.0
C2915 C 0.10061 0.36283 0.58163 0.0
H2916 H 0.98295 0.41906 0.07124 0.0
H2917 H 0.95857 0.42259 0.16443 0.0
H2918 H 0.9651 0.37929 0.10205 0.0
H2919 H 0.98614 0.46406 0.13754 0.0
H2920 H 0.95639 0.4057 0.13982 0.0
H2921 H 0.97975 0.43475 0.09361 0.0
C2922 C 0.97814 0.41355 0.08263 0.0
C2923 C 0.97435 0.39786 0.08482 0.0
C2924 C 0.96277 0.41849 0.13925 0.0
C2925 C 0.97081 0.41582 0.11054 0.0
C2926 C 0.96391 0.42812 0.15323 0.0
C2927 C 0.97261 0.44474 0.15301 0.0
C2928 C 0.97032 0.42554 0.12494 0.0
C2929 C 0.97947 0.4513 0.13826 0.0
C2930 C 0.97642 0.42255 0.09543 0.0
C2931 C 0.96836 0.39141 0.09993 0.0
N2932 N 0.97824 0.44169 0.12484 0.0
N2933 N 0.96682 0.40044 0.11225 0.0
H2934 H 0.6059 0.58463 0.14777 0.0
H2935 H 0.54531 0.49462 0.16645 0.0
H2936 H 0.58425 0.5458 0.10961 0.0
H2937 H 0.55866 0.53515 0.20106 0.0
H2938 H 0.56323 0.51251 0.14683 0.0
H2939 H 0.59245 0.56586 0.16878 0.0
C2940 C 0.59851 0.57212 0.14384 0.0
C2941 C 0.59609 0.56678 0.1269 0.0
C2942 C 0.56231 0.51746 0.15877 0.0
C2943 C 0.58054 0.54527 0.15085 0.0
C2944 C 0.55217 0.50727 0.16999 0.0
C2945 C 0.55042 0.51347 0.1853 0.0
C2946 C 0.57083 0.53394 0.16299 0.0
C2947 C 0.55951 0.52994 0.18925 0.0
C2948 C 0.59074 0.56143 0.15583 0.0
C2949 C 0.58625 0.55044 0.12251 0.0
N2950 N 0.56928 0.53961 0.17815 0.0
N2951 N 0.57876 0.54027 0.1344 0.0
H2952 H 0.43421 0.99187 0.08635 0.0
H2953 H 0.47096 0.03444 0.17747 0.0
H2954 H 0.4348 0.03428 0.10518 0.0
H2955 H 0.46703 0.99027 0.1592 0.0
H2956 H 0.46048 0.03635 0.15007 0.0
H2957 H 0.44897 0.99291 0.11187 0.0
C2958 C 0.43763 0.00155 0.09575 0.0
C2959 C 0.43321 0.01299 0.09359 0.0
C2960 C 0.46202 0.0263 0.15203 0.0
C2961 C 0.44992 0.01408 0.1231 0.0
C2962 C 0.46809 0.02526 0.16762 0.0
C2963 C 0.46974 0.01211 0.17064 0.0
C2964 C 0.45763 0.01413 0.13937 0.0
C2965 C 0.4657 0.00048 0.15749 0.0
C2966 C 0.44597 0.00206 0.11041 0.0
C2967 C 0.43776 0.02508 0.10639 0.0
N2968 N 0.45977 0.00173 0.14247 0.0
N2969 N 0.44581 0.02527 0.12063 0.0
H2970 H 0.39355 0.97071 0.9253 0.0
H2971 H 0.47699 0.01439 0.88537 0.0
H2972 H 0.43617 0.00946 0.95042 0.0
H2973 H 0.43701 0.97134 0.86241 0.0
H2974 H 0.46151 0.0133 0.90866 0.0
H2975 H 0.40865 0.97101 0.90167 0.0
C2976 C 0.40607 0.97923 0.9259 0.0
C2977 C 0.41356 0.99016 0.93985 0.0
C2978 C 0.45607 0.00407 0.89855 0.0
C2979 C 0.43084 0.99065 0.91281 0.0
C2980 C 0.46489 0.00476 0.88517 0.0
C2981 C 0.45825 0.993 0.87186 0.0
C2982 C 0.44043 0.99155 0.89867 0.0
C2983 C 0.4426 0.98061 0.87246 0.0
C2984 C 0.41466 0.97943 0.91238 0.0
C2985 C 0.42979 0.00102 0.93983 0.0
N2986 N 0.43418 0.98023 0.88563 0.0
N2987 N 0.43784 0.00101 0.92653 0.0
H2988 H 0.01392 0.39758 0.92865 0.0
H2989 H 0.03761 0.48635 0.90928 0.0
H2990 H 0.03447 0.43715 0.96602 0.0
H2991 H 0.00903 0.4451 0.87522 0.0
H2992 H 0.04047 0.46927 0.92884 0.0
H2993 H 0.01594 0.41566 0.90758 0.0
C2994 C 0.01893 0.41009 0.93242 0.0
C2995 C 0.02385 0.41581 0.94918 0.0
C2996 C 0.03366 0.46398 0.91704 0.0
C2997 C 0.02629 0.43659 0.92508 0.0
C2998 C 0.03209 0.47373 0.90585 0.0
C2999 C 0.02295 0.46709 0.8907 0.0
C3000 C 0.0261 0.44751 0.91297 0.0
C3001 C 0.01596 0.45065 0.8869 0.0
C3002 C 0.02012 0.42041 0.92037 0.0
C3003 C 0.03059 0.4322 0.95325 0.0
N3004 N 0.01764 0.44142 0.89799 0.0
N3005 N 0.03149 0.442 0.94131 0.0
H3006 H 0.54972 0.57774 0.99523 0.0
H3007 H 0.54014 0.59049 0.89887 0.0
H3008 H 0.58498 0.61766 0.97109 0.0
H3009 H 0.52086 0.54401 0.91747 0.0
H3010 H 0.55169 0.60253 0.92712 0.0
H3011 H 0.53408 0.56714 0.96832 0.0
C3012 C 0.55401 0.58436 0.98429 0.0
C3013 C 0.56863 0.5985 0.98523 0.0
C3014 C 0.54476 0.58971 0.92502 0.0
C3015 C 0.55089 0.58663 0.95471 0.0
C3016 C 0.53812 0.58287 0.909 0.0
C3017 C 0.52965 0.56629 0.90595 0.0
C3018 C 0.54265 0.57986 0.93806 0.0
C3019 C 0.52743 0.55686 0.91939 0.0
C3020 C 0.54516 0.5783 0.969 0.0
C3021 C 0.57379 0.60664 0.97076 0.0
N3022 N 0.53392 0.56378 0.9349 0.0
N3023 N 0.56492 0.60059 0.95606 0.0
H3024 H 0.99298 0.59148 0.96855 0.0
H3025 H 0.04372 0.55916 0.92445 0.0
H3026 H 0.03896 0.60293 0.98906 0.0
H3027 H 0.99461 0.54205 0.91119 0.0
H3028 H 0.04296 0.57588 0.94773 0.0
H3029 H 0.99419 0.57416 0.94671 0.0
C3030 C 0.00342 0.59045 0.96836 0.0
C3031 C 0.01596 0.59879 0.98055 0.0
C3032 C 0.03234 0.56833 0.9398 0.0
C3033 C 0.01735 0.57872 0.95562 0.0
C3034 C 0.03277 0.55883 0.92652 0.0
C3035 C 0.01918 0.5491 0.91595 0.0
C3036 C 0.01826 0.56824 0.94234 0.0
C3037 C 0.00529 0.54911 0.91919 0.0
C3038 C 0.00405 0.58043 0.95596 0.0
C3039 C 0.02903 0.59669 0.9799 0.0
N3040 N 0.00523 0.55858 0.932 0.0
N3041 N 0.02943 0.58691 0.96757 0.0
H3042 H 0.42452 0.45701 0.95998 0.0
H3043 H 0.43357 0.47838 0.86455 0.0
H3044 H 0.39095 0.42688 0.91957 0.0
H3045 H 0.471 0.50217 0.90355 0.0
H3046 H 0.41588 0.4621 0.88525 0.0
H3047 H 0.43966 0.47638 0.94012 0.0
C3048 C 0.4202 0.45458 0.94696 0.0
C3049 C 0.40651 0.44026 0.94139 0.0
C3050 C 0.42793 0.47096 0.88928 0.0
C3051 C 0.42388 0.4623 0.91857 0.0
C3052 C 0.43799 0.48031 0.87751 0.0
C3053 C 0.45379 0.49152 0.88236 0.0
C3054 C 0.43371 0.47295 0.90601 0.0
C3055 C 0.45896 0.49348 0.89927 0.0
C3056 C 0.42891 0.46559 0.93561 0.0
C3057 C 0.40158 0.43766 0.92434 0.0
N3058 N 0.44896 0.48425 0.91048 0.0
N3059 N 0.4103 0.44854 0.91351 0.0
H3060 H 0.5621 0.96534 0.96243 0.0
H3061 H 0.54744 0.01598 0.89696 0.0
H3062 H 0.58043 0.01588 0.97017 0.0
H3063 H 0.51747 0.96495 0.89635 0.0
H3064 H 0.56033 0.01588 0.92326 0.0
H3065 H 0.54626 0.96455 0.93771 0.0
C3066 C 0.56273 0.97624 0.95904 0.0
C3067 C 0.5728 0.99074 0.96831 0.0
C3068 C 0.55084 0.0047 0.91747 0.0
C3069 C 0.55488 0.98993 0.93996 0.0
C3070 C 0.54334 0.00475 0.90246 0.0
C3071 C 0.53119 0.99045 0.89438 0.0
C3072 C 0.54641 0.99025 0.92446 0.0
C3073 C 0.52687 0.97625 0.90198 0.0
C3074 C 0.55371 0.97578 0.9449 0.0
C3075 C 0.57319 0.0045 0.96321 0.0
N3076 N 0.53454 0.97649 0.91656 0.0
N3077 N 0.56447 0.00376 0.94935 0.0
H3078 H 0.56976 0.98955 0.11626 0.0
H3079 H 0.55275 0.03595 0.18874 0.0
H3080 H 0.59901 0.04028 0.12699 0.0
H3081 H 0.53504 0.98539 0.18624 0.0
H3082 H 0.56885 0.03822 0.16542 0.0
H3083 H 0.55548 0.98816 0.14078 0.0
C3084 C 0.5731 0.00043 0.12375 0.0
C3085 C 0.58548 0.01507 0.11953 0.0
C3086 C 0.56148 0.02666 0.17007 0.0
C3087 C 0.56926 0.01356 0.14774 0.0
C3088 C 0.55234 0.02536 0.18343 0.0
C3089 C 0.54239 0.01042 0.1894 0.0
C3090 C 0.56055 0.01293 0.16256 0.0
C3091 C 0.54223 0.99709 0.18185 0.0
C3092 C 0.56503 -0.00039 0.13783 0.0
C3093 C 0.58952 0.02876 0.12985 0.0
N3094 N 0.55107 0.99865 0.16878 0.0
N3095 N 0.58134 0.02769 0.14346 0.0
H3096 H 0.96984 0.56154 0.09517 0.0
H3097 H 0.96752 0.54074 0.1906 0.0
H3098 H 0.96962 0.59155 0.13612 0.0
H3099 H 0.97775 0.51718 0.15055 0.0
H3100 H 0.96398 0.55694 0.17038 0.0
H3101 H 0.96826 0.54259 0.1149 0.0
C3102 C 0.96919 0.56403 0.10829 0.0
C3103 C 0.96991 0.57819 0.11401 0.0
C3104 C 0.9669 0.54815 0.16601 0.0
C3105 C 0.96835 0.55663 0.13671 0.0
C3106 C 0.96883 0.53885 0.17752 0.0
C3107 C 0.97304 0.52769 0.17223 0.0
C3108 C 0.96907 0.54617 0.1491 0.0
C3109 C 0.97473 0.52581 0.15517 0.0
C3110 C 0.96843 0.55326 0.11957 0.0
C3111 C 0.96929 0.58087 0.1312 0.0
N3112 N 0.97277 0.53498 0.14423 0.0
N3113 N 0.9686 0.57022 0.14196 0.0
H3114 H 0.44663 0.4242 0.06941 0.0
H3115 H 0.46082 0.40852 0.16345 0.0
H3116 H 0.41943 0.37906 0.09059 0.0
H3117 H 0.48713 0.45411 0.14289 0.0
H3118 H 0.44811 0.39664 0.13575 0.0
H3119 H 0.46398 0.4344 0.095 0.0
C3120 C 0.44445 0.41634 0.07933 0.0
C3121 C 0.43145 0.40078 0.0779 0.0
C3122 C 0.45678 0.40921 0.13724 0.0
C3123 C 0.45116 0.41248 0.10735 0.0
C3124 C 0.46415 0.41599 0.15305 0.0
C3125 C 0.47498 0.43237 0.15553 0.0
C3126 C 0.46021 0.41888 0.12379 0.0
C3127 C 0.47865 0.44148 0.1416 0.0
C3128 C 0.45431 0.42221 0.09399 0.0
C3129 C 0.42912 0.39122 0.09127 0.0
N3130 N 0.47118 0.43464 0.12637 0.0
N3131 N 0.4388 0.39725 0.10547 0.0
H3132 H 0.61627 0.71657 0.42081 0.0
H3133 H 0.64971 0.79447 0.48351 0.0
H3134 H 0.66076 0.75976 0.41725 0.0
H3135 H 0.6072 0.75043 0.49065 0.0
H3136 H 0.6522 0.78265 0.45729 0.0
H3137 H 0.61119 0.72935 0.44473 0.0
C3138 C 0.62495 0.72873 0.42501 0.0
C3139 C 0.63898 0.73708 0.41698 0.0
C3140 C 0.64226 0.77557 0.46451 0.0
C3141 C 0.63317 0.7518 0.44423 0.0
C3142 C 0.64086 0.78231 0.4795 0.0
C3143 C 0.62834 0.77336 0.48936 0.0
C3144 C 0.63109 0.7597 0.4593 0.0
C3145 C 0.61702 0.75776 0.4834 0.0
C3146 C 0.622 0.73604 0.43861 0.0
C3147 C 0.64968 0.7529 0.42284 0.0
N3148 N 0.61874 0.75136 0.46882 0.0
N3149 N 0.64658 0.75969 0.43612 0.0
H3150 H 0.26027 0.87882 0.45528 0.0
H3151 H 0.22581 0.86855 0.54526 0.0
H3152 H 0.26209 0.91717 0.48609 0.0
H3153 H 0.21697 0.82917 0.51095 0.0
H3154 H 0.24236 0.88696 0.52533 0.0
H3155 H 0.24754 0.8609 0.47716 0.0
C3156 C 0.25802 0.88349 0.46664 0.0
C3157 C 0.26214 0.89952 0.46876 0.0
C3158 C 0.23688 0.87429 0.52221 0.0
C3159 C 0.24772 0.87908 0.49394 0.0
C3160 C 0.22738 0.86377 0.53355 0.0
C3161 C 0.21985 0.84729 0.5297 0.0
C3162 C 0.2389 0.8683 0.50689 0.0
C3163 C 0.22261 0.84178 0.5145 0.0
C3164 C 0.25082 0.87326 0.47916 0.0
C3165 C 0.25925 0.90496 0.48393 0.0
N3166 N 0.23182 0.85226 0.5036 0.0
N3167 N 0.25214 0.89474 0.49588 0.0
H3168 H 0.09903 0.3233 0.43442 0.0
H3169 H 0.14643 0.38212 0.51504 0.0
H3170 H 0.10926 0.37181 0.44005 0.0
H3171 H 0.13799 0.33431 0.50767 0.0
H3172 H 0.13407 0.37918 0.48709 0.0
H3173 H 0.11415 0.32756 0.46086 0.0
C3174 C 0.10444 0.33485 0.44125 0.0
C3175 C 0.10278 0.34718 0.43508 0.0
C3176 C 0.135 0.36937 0.49156 0.0
C3177 C 0.12022 0.35221 0.46535 0.0
C3178 C 0.14214 0.37107 0.50748 0.0
C3179 C 0.14313 0.35839 0.51376 0.0
C3180 C 0.12881 0.35488 0.48186 0.0
C3181 C 0.13721 0.34429 0.50347 0.0
C3182 C 0.11316 0.33731 0.4563 0.0
C3183 C 0.11031 0.362 0.4443 0.0
N3184 N 0.13024 0.3429 0.48808 0.0
N3185 N 0.11863 0.36408 0.45903 0.0
H3186 H 0.10462 0.31872 0.29268 0.0
H3187 H 0.09409 0.28224 0.19887 0.0
H3188 H 0.05924 0.29231 0.26514 0.0
H3189 H 0.13791 0.32098 0.22174 0.0
H3190 H 0.0811 0.28269 0.22418 0.0
H3191 H 0.11705 0.31627 0.26792 0.0
C3192 C 0.09726 0.31223 0.28147 0.0
C3193 C 0.08088 0.3057 0.28094 0.0
C3194 C 0.09355 0.2911 0.22361 0.0
C3195 C 0.09504 0.30299 0.25252 0.0
C3196 C 0.10095 0.29081 0.20924 0.0
C3197 C 0.11704 0.30168 0.20822 0.0
C3198 C 0.10239 0.30216 0.23711 0.0
C3199 C 0.12542 0.31256 0.22195 0.0
C3200 C 0.10437 0.31096 0.2673 0.0
C3201 C 0.07192 0.29762 0.266 0.0
N3202 N 0.11802 0.31249 0.23584 0.0
N3203 N 0.07912 0.29647 0.25236 0.0
H3204 H 0.68428 0.73841 0.26072 0.0
H3205 H 0.7311 0.82996 0.24095 0.0
H3206 H 0.71687 0.77641 0.29645 0.0
H3207 H 0.69629 0.79207 0.20657 0.0
H3208 H 0.72864 0.81021 0.26016 0.0
H3209 H 0.69105 0.75757 0.23954 0.0
C3210 C 0.69293 0.75078 0.26408 0.0
C3211 C 0.69988 0.75584 0.28043 0.0
C3212 C 0.72163 0.80621 0.24836 0.0
C3213 C 0.70773 0.77787 0.25623 0.0
C3214 C 0.72309 0.81747 0.23735 0.0
C3215 C 0.71377 0.81265 0.22221 0.0
C3216 C 0.71078 0.79002 0.24419 0.0
C3217 C 0.70349 0.79633 0.21825 0.0
C3218 C 0.69683 0.76171 0.25197 0.0
C3219 C 0.71126 0.77197 0.28399 0.0
N3220 N 0.7022 0.78561 0.22921 0.0
N3221 N 0.71471 0.78244 0.27203 0.0
H3222 H 0.26215 0.93975 0.30668 0.0
H3223 H 0.18137 0.89884 0.24927 0.0
H3224 H 0.21691 0.92287 0.3268 0.0
H3225 H 0.22745 0.91781 0.23058 0.0
H3226 H 0.19386 0.90906 0.27758 0.0
H3227 H 0.2494 0.93315 0.27857 0.0
C3228 C 0.24949 0.9346 0.30515 0.0
C3229 C 0.24053 0.93161 0.31907 0.0
C3230 C 0.20122 0.91106 0.26725 0.0
C3231 C 0.22579 0.92408 0.28684 0.0
C3232 C 0.1941 0.9053 0.2511 0.0
C3233 C 0.20339 0.90731 0.2376 0.0
C3234 C 0.21771 0.9189 0.26985 0.0
C3235 C 0.21983 0.91569 0.24067 0.0
C3236 C 0.24221 0.93091 0.28908 0.0
C3237 C 0.22422 0.92531 0.31637 0.0
N3238 N 0.22644 0.92108 0.25645 0.0
N3239 N 0.21733 0.92159 0.30054 0.0
H3240 H 0.68722 0.90583 0.32527 0.0
H3241 H 0.73907 0.921 0.24859 0.0
H3242 H 0.72636 0.9524 0.31763 0.0
H3243 H 0.7114 0.87459 0.26708 0.0
H3244 H 0.73563 0.93294 0.27421 0.0
H3245 H 0.69652 0.89427 0.3045 0.0
C3246 C 0.69793 0.91366 0.31948 0.0
C3247 C 0.70595 0.9302 0.32327 0.0
C3248 C 0.73054 0.92017 0.27278 0.0
C3249 C 0.71642 0.91693 0.29896 0.0
C3250 C 0.7326 0.91333 0.25819 0.0
C3251 C 0.72537 0.89672 0.25556 0.0
C3252 C 0.72101 0.91033 0.28473 0.0
C3253 C 0.71689 0.88741 0.26839 0.0
C3254 C 0.70319 0.907 0.30751 0.0
C3255 C 0.71956 0.93965 0.31492 0.0
N3256 N 0.71475 0.89432 0.28228 0.0
N3257 N 0.72426 0.9329 0.30303 0.0
H3258 H 0.07491 0.76006 0.26067 0.0
H3259 H 0.11804 0.84804 0.22978 0.0
H3260 H 0.07864 0.80004 0.29007 0.0
H3261 H 0.12496 0.81034 0.21012 0.0
H3262 H 0.10082 0.8302 0.25 0.0
H3263 H 0.09032 0.77792 0.23985 0.0
C3264 C 0.07882 0.7726 0.26265 0.0
C3265 C 0.07543 0.77858 0.27709 0.0
C3266 C 0.10614 0.82588 0.24125 0.0
C3267 C 0.09328 0.79915 0.25336 0.0
C3268 C 0.11588 0.836 0.2297 0.0
C3269 C 0.123 0.83066 0.21838 0.0
C3270 C 0.10335 0.81028 0.24126 0.0
C3271 C 0.11988 0.81499 0.2188 0.0
C3272 C 0.08774 0.78281 0.25082 0.0
C3273 C 0.08107 0.79498 0.27914 0.0
N3274 N 0.11026 0.80536 0.23001 0.0
N3275 N 0.08972 0.80472 0.26737 0.0
H3276 H 0.21345 0.29188 0.3105 0.0
H3277 H 0.21054 0.32585 0.22249 0.0
H3278 H 0.25246 0.33295 0.29161 0.0
H3279 H 0.17367 0.28012 0.23563 0.0
H3280 H 0.22509 0.32916 0.24893 0.0
H3281 H 0.19773 0.28782 0.28427 0.0
C3282 C 0.21868 0.30003 0.30086 0.0
C3283 C 0.23432 0.31269 0.30317 0.0
C3284 C 0.21381 0.31838 0.24611 0.0
C3285 C 0.21648 0.30816 0.27331 0.0
C3286 C 0.20543 0.31654 0.23105 0.0
C3287 C 0.19079 0.30276 0.22694 0.0
C3288 C 0.20757 0.30637 0.25727 0.0
C3289 C 0.18493 0.29092 0.23834 0.0
C3290 C 0.20975 0.29766 0.2859 0.0
C3291 C 0.24055 0.32287 0.29027 0.0
N3292 N 0.19333 0.29302 0.25306 0.0
N3293 N 0.23162 0.3204 0.27596 0.0
H3294 H 0.25614 0.37736 0.45261 0.0
H3295 H 0.2104 0.33504 0.53214 0.0
H3296 H 0.24876 0.33223 0.46724 0.0
H3297 H 0.22217 0.38255 0.52142 0.0
H3298 H 0.2238 0.33361 0.50782 0.0
H3299 H 0.24302 0.37927 0.47712 0.0
C3300 C 0.25172 0.36784 0.46095 0.0
C3301 C 0.2536 0.35464 0.45791 0.0
C3302 C 0.2235 0.34437 0.51078 0.0
C3303 C 0.23865 0.35678 0.48597 0.0
C3304 C 0.21578 0.34516 0.52462 0.0
C3305 C 0.21513 0.35892 0.52877 0.0
C3306 C 0.23058 0.3574 0.50092 0.0
C3307 C 0.22251 0.37177 0.51874 0.0
C3308 C 0.24432 0.36898 0.47498 0.0
C3309 C 0.24778 0.34273 0.46921 0.0
N3310 N 0.22988 0.37068 0.50522 0.0
N3311 N 0.24055 0.34407 0.4827 0.0
H3312 H 0.63378 0.88353 0.42646 0.0
H3313 H 0.61564 0.86114 0.52077 0.0
H3314 H 0.63039 0.91438 0.4641 0.0
H3315 H 0.63027 0.837 0.486 0.0
H3316 H 0.61685 0.87849 0.49904 0.0
H3317 H 0.62824 0.86406 0.44705 0.0
C3318 C 0.63165 0.88612 0.43901 0.0
C3319 C 0.63258 0.90062 0.44359 0.0
C3320 C 0.61971 0.86934 0.49616 0.0
C3321 C 0.62642 0.87845 0.46728 0.0
C3322 C 0.61892 0.85939 0.5085 0.0
C3323 C 0.62294 0.8477 0.50517 0.0
C3324 C 0.62441 0.86747 0.48036 0.0
C3325 C 0.62726 0.846 0.48913 0.0
C3326 C 0.62861 0.87505 0.45079 0.0
C3327 C 0.62995 0.90342 0.4601 0.0
N3328 N 0.62791 0.8558 0.47733 0.0
N3329 N 0.62702 0.89244 0.47138 0.0
H3330 H 0.09756 0.72063 0.42064 0.0
H3331 H 0.15792 0.79524 0.48272 0.0
H3332 H 0.11393 0.76939 0.4105 0.0
H3333 H 0.13425 0.74658 0.49608 0.0
H3334 H 0.14546 0.78594 0.45439 0.0
H3335 H 0.11458 0.72998 0.44645 0.0
C3336 C 0.10478 0.73331 0.4238 0.0
C3337 C 0.10413 0.74423 0.41348 0.0
C3338 C 0.14314 0.7773 0.4635 0.0
C3339 C 0.12377 0.75502 0.44299 0.0
C3340 C 0.1502 0.7826 0.47969 0.0
C3341 C 0.14704 0.7717 0.49189 0.0
C3342 C 0.13286 0.76098 0.45944 0.0
C3343 C 0.13718 0.75543 0.48711 0.0
C3344 C 0.11454 0.73864 0.43851 0.0
C3345 C 0.11406 0.76053 0.41803 0.0
N3346 N 0.13036 0.75059 0.47132 0.0
N3347 N 0.12336 0.76543 0.43252 0.0
H3348 H 0.33506 0.08318 0.75977 0.0
H3349 H 0.27589 0.08852 0.81933 0.0
H3350 H 0.28559 0.06087 0.7445 0.0
H3351 H 0.32445 0.12612 0.81908 0.0
H3352 H 0.27874 0.07659 0.79324 0.0
H3353 H 0.33119 0.09714 0.7835 0.0
C3354 C 0.32337 0.08123 0.76148 0.0
C3355 C 0.3106 0.07087 0.75029 0.0
C3356 C 0.28869 0.08753 0.79888 0.0
C3357 C 0.30606 0.08665 0.77735 0.0
C3358 C 0.28708 0.09441 0.81373 0.0
C3359 C 0.30001 0.10827 0.82161 0.0
C3360 C 0.30339 0.09441 0.79203 0.0
C3361 C 0.31426 0.11521 0.81379 0.0
C3362 C 0.32119 0.08925 0.77492 0.0
C3363 C 0.29571 0.06882 0.7529 0.0
N3364 N 0.31562 0.1081 0.79957 0.0
N3365 N 0.29379 0.07652 0.76631 0.0
H3366 H 0.93988 0.24263 0.8085 0.0
H3367 H 0.88133 0.15351 0.8315 0.0
H3368 H 0.91937 0.20217 0.77226 0.0
H3369 H 0.89522 0.19517 0.86456 0.0
H3370 H 0.89821 0.17066 0.81079 0.0
H3371 H 0.92667 0.22486 0.83029 0.0
C3372 C 0.93278 0.22997 0.80515 0.0
C3373 C 0.9307 0.22388 0.78851 0.0
C3374 C 0.89763 0.17603 0.82262 0.0
C3375 C 0.91533 0.20347 0.8134 0.0
C3376 C 0.88809 0.16626 0.83447 0.0
C3377 C 0.88681 0.17296 0.84971 0.0
C3378 C 0.90603 0.19261 0.8261 0.0
C3379 C 0.8957 0.18954 0.85287 0.0
C3380 C 0.92513 0.21984 0.81759 0.0
C3381 C 0.92114 0.20739 0.78489 0.0
N3382 N 0.90489 0.19879 0.84115 0.0
N3383 N 0.91376 0.19775 0.79723 0.0
H3384 H 0.7913 0.71884 0.75856 0.0
H3385 H 0.81085 0.67634 0.83081 0.0
H3386 H 0.77463 0.6685 0.75701 0.0
H3387 H 0.81835 0.72382 0.83757 0.0
H3388 H 0.80205 0.67491 0.80166 0.0
H3389 H 0.80562 0.72235 0.78546 0.0
C3390 C 0.79072 0.70854 0.76378 0.0
C3391 C 0.78157 0.69331 0.75552 0.0
C3392 C 0.80572 0.68569 0.80947 0.0
C3393 C 0.79811 0.69732 0.78621 0.0
C3394 C 0.81067 0.68649 0.82614 0.0
C3395 C 0.81507 0.70011 0.83673 0.0
C3396 C 0.80514 0.69861 0.80327 0.0
C3397 C 0.81504 0.71308 0.82986 0.0
C3398 C 0.79895 0.71058 0.77911 0.0
C3399 C 0.7816 0.68049 0.76275 0.0
N3400 N 0.80999 0.71195 0.81359 0.0
N3401 N 0.78962 0.68277 0.77771 0.0
H3402 H 0.74989 0.62897 0.61834 0.0
H3403 H 0.76359 0.6448 0.52204 0.0
H3404 H 0.73023 0.65202 0.58965 0.0
H3405 H 0.78163 0.62001 0.55014 0.0
H3406 H 0.74969 0.64586 0.54613 0.0
H3407 H 0.7598 0.62365 0.59295 0.0
C3408 C 0.74748 0.63274 0.60667 0.0
C3409 C 0.73932 0.64108 0.60618 0.0
C3410 C 0.75657 0.64006 0.54699 0.0
C3411 C 0.75085 0.63522 0.57707 0.0
C3412 C 0.76455 0.63951 0.53326 0.0
C3413 C 0.77385 0.63239 0.53411 0.0
C3414 C 0.75797 0.63355 0.56175 0.0
C3415 C 0.77449 0.62551 0.54888 0.0
C3416 C 0.75322 0.62978 0.59218 0.0
C3417 C 0.73672 0.64583 0.5907 0.0
N3418 N 0.76678 0.62638 0.56216 0.0
N3419 N 0.74255 0.64293 0.57681 0.0
H3420 H 0.37895 0.09426 0.6071 0.0
H3421 H 0.34487 0.14196 0.55957 0.0
H3422 H 0.33121 0.08453 0.60918 0.0
H3423 H 0.38865 0.14475 0.54832 0.0
H3424 H 0.34061 0.12219 0.5793 0.0
H3425 H 0.38369 0.11413 0.587 0.0
C3426 C 0.36948 0.0963 0.60331 0.0
C3427 C 0.35464 0.08769 0.60975 0.0
C3428 C 0.35114 0.12709 0.5725 0.0
C3429 C 0.35998 0.11037 0.58689 0.0
C3430 C 0.35355 0.13835 0.56115 0.0
C3431 C 0.36708 0.14496 0.55213 0.0
C3432 C 0.36238 0.12244 0.575 0.0
C3433 C 0.37812 0.14009 0.55509 0.0
C3434 C 0.37216 0.10757 0.59181 0.0
C3435 C 0.34275 0.09071 0.60435 0.0
N3436 N 0.37552 0.12911 0.56627 0.0
N3437 N 0.3457 0.10184 0.5933 0.0
H3438 H 0.92403 0.24171 0.63225 0.0
H3439 H 0.85238 0.22807 0.57163 0.0
H3440 H 0.89682 0.26384 0.64451 0.0
H3441 H 0.89491 0.23207 0.55363 0.0
H3442 H 0.86564 0.23704 0.5997 0.0
H3443 H 0.91027 0.23335 0.60461 0.0
C3444 C 0.91526 0.24494 0.62918 0.0
C3445 C 0.91183 0.25377 0.64079 0.0
C3446 C 0.87199 0.23593 0.58953 0.0
C3447 C 0.89563 0.24368 0.60918 0.0
C3448 C 0.86449 0.2309 0.57347 0.0
C3449 C 0.87244 0.22914 0.56012 0.0
C3450 C 0.88742 0.23893 0.59233 0.0
C3451 C 0.88807 0.23277 0.56348 0.0
C3452 C 0.90734 0.24005 0.61339 0.0
C3453 C 0.89984 0.25698 0.63611 0.0
N3454 N 0.89497 0.23734 0.57924 0.0
N3455 N 0.89215 0.2519 0.62066 0.0
H3456 H 0.35824 0.24322 0.6566 0.0
H3457 H 0.39752 0.25509 0.56934 0.0
H3458 H 0.38289 0.28829 0.63468 0.0
H3459 H 0.36972 0.20935 0.58914 0.0
H3460 H 0.39554 0.2679 0.59514 0.0
H3461 H 0.36552 0.23116 0.63399 0.0
C3462 C 0.36539 0.25064 0.64717 0.0
C3463 C 0.36986 0.26677 0.64746 0.0
C3464 C 0.39 0.25507 0.59393 0.0
C3465 C 0.37806 0.25299 0.62141 0.0
C3466 C 0.39124 0.24774 0.57924 0.0
C3467 C 0.38371 0.2311 0.57704 0.0
C3468 C 0.38113 0.24571 0.60652 0.0
C3469 C 0.37551 0.2222 0.59021 0.0
C3470 C 0.36945 0.24372 0.6342 0.0
C3471 C 0.37896 0.27575 0.63479 0.0
N3472 N 0.37435 0.2296 0.60434 0.0
N3473 N 0.38268 0.26872 0.62223 0.0
H3474 H 0.76303 0.08978 0.59572 0.0
H3475 H 0.78474 0.16914 0.55108 0.0
H3476 H 0.74216 0.11837 0.60741 0.0
H3477 H 0.79793 0.13515 0.53417 0.0
H3478 H 0.7696 0.15135 0.57228 0.0
H3479 H 0.77677 0.1071 0.57382 0.0
C3480 C 0.76141 0.09977 0.59371 0.0
C3481 C 0.75154 0.10272 0.60347 0.0
C3482 C 0.77579 0.1478 0.56389 0.0
C3483 C 0.76715 0.12257 0.57829 0.0
C3484 C 0.78438 0.15791 0.55174 0.0
C3485 C 0.79274 0.1537 0.54089 0.0
C3486 C 0.77561 0.13341 0.56522 0.0
C3487 C 0.79197 0.13907 0.54246 0.0
C3488 C 0.76917 0.1096 0.58112 0.0
C3489 C 0.74962 0.11565 0.60011 0.0
N3490 N 0.78363 0.12951 0.55442 0.0
N3491 N 0.75744 0.12518 0.58785 0.0
H3492 H 0.8792 0.62552 0.63813 0.0
H3493 H 0.86365 0.6656 0.56141 0.0
H3494 H 0.89613 0.67578 0.63762 0.0
H3495 H 0.83588 0.61504 0.56647 0.0
H3496 H 0.87585 0.66917 0.58927 0.0
H3497 H 0.86324 0.62095 0.61203 0.0
C3498 C 0.87942 0.63556 0.63266 0.0
C3499 C 0.88919 0.65109 0.63996 0.0
C3500 C 0.86698 0.65729 0.58439 0.0
C3501 C 0.87118 0.64596 0.61007 0.0
C3502 C 0.85988 0.65523 0.56846 0.0
C3503 C 0.84855 0.63999 0.56153 0.0
C3504 C 0.86298 0.64402 0.59352 0.0
C3505 C 0.84465 0.627 0.57119 0.0
C3506 C 0.87037 0.63295 0.61774 0.0
C3507 C 0.88909 0.66366 0.63225 0.0
N3508 N 0.85193 0.6293 0.58667 0.0
N3509 N 0.88035 0.66083 0.61769 0.0
H3510 H 0.93684 0.69706 0.80667 0.0
H3511 H 0.86585 0.70356 0.83946 0.0
H3512 H 0.91053 0.71216 0.77588 0.0
H3513 H 0.90396 0.70934 0.87294 0.0
H3514 H 0.8814 0.70546 0.81574 0.0
H3515 H 0.92472 0.7007 0.83103 0.0
C3516 C 0.92875 0.70141 0.805 0.0
C3517 C 0.92465 0.70418 0.78905 0.0
C3518 C 0.88644 0.70648 0.82828 0.0
C3519 C 0.91039 0.7079 0.81696 0.0
C3520 C 0.87755 0.70531 0.84177 0.0
C3521 C 0.88366 0.70621 0.85809 0.0
C3522 C 0.90141 0.70825 0.83113 0.0
C3523 C 0.8989 0.70861 0.8605 0.0
C3524 C 0.92176 0.70339 0.81895 0.0
C3525 C 0.9138 0.70949 0.78779 0.0
N3526 N 0.9072 0.70934 0.84713 0.0
N3527 N 0.9069 0.71097 0.80151 0.0
H3528 H 0.30375 0.2177 0.75762 0.0
H3529 H 0.28515 0.19511 0.85183 0.0
H3530 H 0.29928 0.24796 0.79509 0.0
H3531 H 0.30073 0.17148 0.81756 0.0
H3532 H 0.28621 0.21225 0.82997 0.0
H3533 H 0.29846 0.19827 0.77825 0.0
C3534 C 0.30143 0.22015 0.77013 0.0
C3535 C 0.30201 0.23449 0.77467 0.0
C3536 C 0.28932 0.20326 0.82722 0.0
C3537 C 0.29612 0.21239 0.79838 0.0
C3538 C 0.28863 0.19342 0.83964 0.0
C3539 C 0.29294 0.18192 0.8365 0.0
C3540 C 0.29424 0.20149 0.81151 0.0
C3541 C 0.2975 0.18034 0.82055 0.0
C3542 C 0.29854 0.20912 0.78193 0.0
C3543 C 0.29913 0.23714 0.79113 0.0
N3544 N 0.29805 0.19003 0.80865 0.0
N3545 N 0.29634 0.2262 0.80241 0.0
H3546 H 0.76471 0.04108 0.75033 0.0
H3547 H 0.82814 0.11768 0.80801 0.0
H3548 H 0.78604 0.08917 0.73546 0.0
H3549 H 0.80172 0.07065 0.82539 0.0
H3550 H 0.8163 0.1067 0.77977 0.0
H3551 H 0.78158 0.05104 0.77628 0.0
C3552 C 0.773 0.05372 0.75246 0.0
C3553 C 0.7738 0.06432 0.74075 0.0
C3554 C 0.81322 0.09876 0.78973 0.0
C3555 C 0.79324 0.07578 0.7704 0.0
C3556 C 0.81995 0.10502 0.80586 0.0
C3557 C 0.81578 0.0951 0.81913 0.0
C3558 C 0.8022 0.08245 0.78683 0.0
C3559 C 0.80534 0.07874 0.81555 0.0
C3560 C 0.78268 0.05938 0.76725 0.0
C3561 C 0.78504 0.08053 0.74404 0.0
N3562 N 0.79879 0.07295 0.79978 0.0
N3563 N 0.7942 0.08577 0.75862 0.0
H3564 H 0.07938 0.35439 0.04811 0.0
H3565 H 0.08972 0.31092 0.12553 0.0
H3566 H 0.04684 0.33774 0.08685 0.0
H3567 H 0.12654 0.33755 0.093 0.0
H3568 H 0.07285 0.31882 0.11052 0.0
H3569 H 0.096 0.34659 0.06349 0.0
C3570 C 0.07575 0.34909 0.05987 0.0
C3571 C 0.06174 0.34671 0.06623 0.0
C3572 C 0.08465 0.32296 0.10673 0.0
C3573 C 0.08066 0.33772 0.0839 0.0
C3574 C 0.09422 0.3184 0.11522 0.0
C3575 C 0.10956 0.32369 0.11056 0.0
C3576 C 0.09042 0.33271 0.09337 0.0
C3577 C 0.11486 0.3334 0.09715 0.0
C3578 C 0.08526 0.34469 0.06868 0.0
C3579 C 0.05765 0.33992 0.0816 0.0
N3580 N 0.1053 0.33756 0.08901 0.0
N3581 N 0.06702 0.33557 0.08988 0.0
H3582 H 0.63745 0.71739 0.08324 0.0
H3583 H 0.69596 0.78397 0.15398 0.0
H3584 H 0.66096 0.70796 0.12371 0.0
H3585 H 0.6686 0.79164 0.11622 0.0
H3586 H 0.68383 0.75625 0.14279 0.0
H3587 H 0.64904 0.74477 0.09507 0.0
C3588 C 0.64503 0.72109 0.09465 0.0
C3589 C 0.64828 0.71041 0.10249 0.0
C3590 C 0.68047 0.764 0.13698 0.0
C3591 C 0.66162 0.74174 0.11611 0.0
C3592 C 0.68747 0.77984 0.14327 0.0
C3593 C 0.68326 0.7901 0.13603 0.0
C3594 C 0.66925 0.75843 0.12327 0.0
C3595 C 0.67205 0.78408 0.12231 0.0
C3596 C 0.65162 0.73671 0.10142 0.0
C3597 C 0.65804 0.71577 0.11735 0.0
N3598 N 0.66547 0.76866 0.11637 0.0
N3599 N 0.66444 0.7311 0.12364 0.0
H3600 H 0.30178 0.916 0.05784 0.0
H3601 H 0.22207 0.91449 0.0779 0.0
H3602 H 0.28775 0.9475 0.03732 0.0
H3603 H 0.24108 0.89019 0.10543 0.0
H3604 H 0.24442 0.92431 0.06041 0.0
H3605 H 0.27771 0.90376 0.0727 0.0
C3606 C 0.29362 0.92029 0.05638 0.0
C3607 C 0.29687 0.93286 0.04634 0.0
C3608 C 0.24364 0.91676 0.07024 0.0
C3609 C 0.26925 0.91884 0.06327 0.0
C3610 C 0.23093 0.91122 0.08029 0.0
C3611 C 0.22966 0.90149 0.09318 0.0
C3612 C 0.25516 0.91253 0.07307 0.0
C3613 C 0.24139 0.89745 0.09549 0.0
C3614 C 0.27987 0.91328 0.06484 0.0
C3615 C 0.2857 0.93773 0.04472 0.0
N3616 N 0.25364 0.903 0.08557 0.0
N3617 N 0.27245 0.93077 0.05316 0.0
H3618 H 0.32329 0.03426 0.99378 0.0
H3619 H 0.34304 0.11545 0.95989 0.0
H3620 H 0.36872 0.07648 0.00632 0.0
H3621 H 0.29616 0.08272 0.97409 0.0
H3622 H 0.35288 0.10073 0.97478 0.0
H3623 H 0.31314 0.05094 0.9844 0.0
C3624 C 0.33113 0.04702 0.99486 0.0
C3625 C 0.34698 0.05389 0.00092 0.0
C3626 C 0.34047 0.09692 0.97478 0.0
C3627 C 0.33539 0.07299 0.98956 0.0
C3628 C 0.33479 0.10538 0.96636 0.0
C3629 C 0.31865 0.10041 0.96565 0.0
C3630 C 0.32994 0.08312 0.98221 0.0
C3631 C 0.30862 0.08688 0.97393 0.0
C3632 C 0.32528 0.05652 0.98938 0.0
C3633 C 0.35654 0.07054 0.00145 0.0
N3634 N 0.31439 0.07859 0.98168 0.0
N3635 N 0.35065 0.0795 0.99564 0.0
H3636 H 0.92144 0.27384 0.99354 0.0
H3637 H 0.90798 0.20457 0.92588 0.0
H3638 H 0.95752 0.27714 0.96239 0.0
H3639 H 0.87273 0.20129 0.95828 0.0
H3640 H 0.92649 0.23103 0.93921 0.0
H3641 H 0.90351 0.24713 0.98075 0.0
C3642 C 0.92562 0.26892 0.98406 0.0
C3643 C 0.94102 0.27775 0.97905 0.0
C3644 C 0.9147 0.22451 0.9434 0.0
C3645 C 0.92048 0.24718 0.96421 0.0
C3646 C 0.90417 0.20937 0.93586 0.0
C3647 C 0.88876 0.20075 0.94091 0.0
C3648 C 0.90979 0.23104 0.9561 0.0
C3649 C 0.88441 0.20762 0.95379 0.0
C3650 C 0.91535 0.25368 0.9767 0.0
C3651 C 0.94569 0.27085 0.9665 0.0
N3652 N 0.89485 0.22235 0.96091 0.0
N3653 N 0.93546 0.25596 0.95953 0.0
H3654 H 0.69246 0.62914 0.00641 0.0
H3655 H 0.78248 0.69528 0.99739 0.0
H3656 H 0.71908 0.66993 0.04167 0.0
H3657 H 0.7559 0.6532 0.96379 0.0
H3658 H 0.75961 0.68617 0.01409 0.0
H3659 H 0.71598 0.63744 0.99124 0.0
C3660 C 0.70331 0.63974 0.0111 0.0
C3661 C 0.70377 0.64885 0.02535 0.0
C3662 C 0.75882 0.67891 0.00309 0.0
C3663 C 0.73074 0.65862 0.0078 0.0
C3664 C 0.77183 0.68415 0.99351 0.0
C3665 C 0.7711 0.67497 0.9792 0.0
C3666 C 0.74497 0.66443 0.99827 0.0
C3667 C 0.75707 0.66056 0.97486 0.0
C3668 C 0.71672 0.64455 0.00234 0.0
C3669 C 0.71812 0.66266 0.03062 0.0
N3670 N 0.74456 0.65576 0.98432 0.0
N3671 N 0.73102 0.66716 0.02181 0.0
H3672 H 0.95165 0.68234 0.01143 0.0
H3673 H 0.87459 0.65632 0.9521 0.0
H3674 H 0.92095 0.63416 0.99068 0.0
H3675 H 0.91271 0.70505 0.95996 0.0
H3676 H 0.89047 0.64794 0.96775 0.0
H3677 H 0.9363 0.69086 0.99469 0.0
C3678 C 0.9416 0.67355 0.00344 0.0
C3679 C 0.93751 0.65752 0.00246 0.0
C3680 C 0.8954 0.66046 0.96595 0.0
C3681 C 0.92 0.66717 0.98324 0.0
C3682 C 0.88638 0.66527 0.95688 0.0
C3683 C 0.89231 0.68145 0.95458 0.0
C3684 C 0.91041 0.67189 0.97301 0.0
C3685 C 0.90754 0.69248 0.96156 0.0
C3686 C 0.93294 0.67843 0.99379 0.0
C3687 C 0.92454 0.64665 0.99172 0.0
N3688 N 0.91603 0.6875 0.97053 0.0
N3689 N 0.91619 0.65166 0.98258 0.0
H3690 H 0.32917 0.28166 0.98432 0.0
H3691 H 0.31736 0.22615 0.90238 0.0
H3692 H 0.34601 0.29981 0.93679 0.0
H3693 H 0.29977 0.20824 0.94974 0.0
H3694 H 0.32663 0.25316 0.91426 0.0
H3695 H 0.31713 0.25463 0.97144 0.0
C3696 C 0.33025 0.27996 0.97114 0.0
C3697 C 0.33864 0.29304 0.96163 0.0
C3698 C 0.32063 0.24331 0.92202 0.0
C3699 C 0.32499 0.26206 0.94681 0.0
C3700 C 0.31535 0.22791 0.91525 0.0
C3701 C 0.30785 0.21494 0.92511 0.0
C3702 C 0.31845 0.24579 0.93881 0.0
C3703 C 0.30537 0.21786 0.94164 0.0
C3704 C 0.32342 0.26451 0.9638 0.0
C3705 C 0.33985 0.29009 0.94466 0.0
N3706 N 0.31077 0.23299 0.94801 0.0
N3707 N 0.33313 0.27492 0.9378 0.0
H3708 H 0.72072 0.06368 0.03119 0.0
H3709 H 0.74659 0.07619 0.93771 0.0
H3710 H 0.68946 0.05761 0.98874 0.0
H3711 H 0.78029 0.09401 0.98058 0.0
H3712 H 0.72535 0.0678 0.95639 0.0
H3713 H 0.74269 0.0737 0.01305 0.0
C3714 C 0.71853 0.0646 0.01809 0.0
C3715 C 0.70327 0.05986 0.01146 0.0
C3716 C 0.73739 0.07357 0.96172 0.0
C3717 C 0.72822 0.07108 0.99066 0.0
C3718 C 0.74954 0.0784 0.95105 0.0
C3719 C 0.76528 0.08591 0.95756 0.0
C3720 C 0.74094 0.07613 0.97906 0.0
C3721 C 0.76833 0.0881 0.97499 0.0
C3722 C 0.73105 0.07032 0.00776 0.0
C3723 C 0.70107 0.06134 0.99442 0.0
N3724 N 0.75626 0.08323 0.98515 0.0
N3725 N 0.71337 0.06669 0.98459 0.0
H3726 H 0.65823 0.94042 0.05486 0.0
H3727 H 0.69164 0.93163 0.14376 0.0
H3728 H 0.65226 0.9589 0.10204 0.0
H3729 H 0.69377 0.9082 0.09798 0.0
H3730 H 0.67945 0.94384 0.12795 0.0
H3731 H 0.6732 0.93029 0.06977 0.0
C3732 C 0.66005 0.94232 0.06834 0.0
C3733 C 0.65382 0.95031 0.07725 0.0
C3734 C 0.68263 0.93609 0.1213 0.0
C3735 C 0.67098 0.93893 0.09431 0.0
C3736 C 0.68959 0.92912 0.13033 0.0
C3737 C 0.69356 0.91876 0.12218 0.0
C3738 C 0.67955 0.93268 0.10395 0.0
C3739 C 0.69092 0.91616 0.10473 0.0
C3740 C 0.66858 0.93654 0.07683 0.0
C3741 C 0.65654 0.95248 0.09469 0.0
N3742 N 0.68395 0.92297 0.09618 0.0
N3743 N 0.6649 0.94683 0.10262 0.0
H3744 H 0.05678 0.73432 0.06739 0.0
H3745 H 0.09922 0.78753 0.15258 0.0
H3746 H 0.05043 0.71522 0.11575 0.0
H3747 H 0.10329 0.80672 0.1045 0.0
H3748 H 0.08052 0.76105 0.13952 0.0
H3749 H 0.07314 0.76104 0.08092 0.0
C3750 C 0.05875 0.73574 0.08087 0.0
C3751 C 0.05223 0.72247 0.09043 0.0
C3752 C 0.0854 0.77107 0.13185 0.0
C3753 C 0.07111 0.75307 0.10602 0.0
C3754 C 0.09609 0.78617 0.13929 0.0
C3755 C 0.10284 0.79933 0.1296 0.0
C3756 C 0.08152 0.76909 0.11456 0.0
C3757 C 0.09824 0.79694 0.11247 0.0
C3758 C 0.06814 0.75101 0.08859 0.0
C3759 C 0.0554 0.72506 0.10784 0.0
N3760 N 0.08796 0.78209 0.10548 0.0
N3761 N 0.06463 0.74004 0.11506 0.0
H3762 H 0.28337 0.33403 0.02839 0.0
H3763 H 0.23337 0.35184 0.09261 0.0
H3764 H 0.30001 0.37993 0.05435 0.0
H3765 H 0.22401 0.30446 0.07875 0.0
H3766 H 0.25545 0.36257 0.0749 0.0
H3767 H 0.25907 0.32337 0.0429 0.0
C3768 C 0.2818 0.34191 0.03697 0.0
C3769 C 0.29371 0.35788 0.04023 0.0
C3770 C 0.24854 0.34983 0.07571 0.0
C3771 C 0.26605 0.34576 0.05689 0.0
C3772 C 0.23598 0.34367 0.08589 0.0
C3773 C 0.22696 0.32721 0.08742 0.0
C3774 C 0.25208 0.33947 0.06682 0.0
C3775 C 0.23061 0.31721 0.07795 0.0
C3776 C 0.268 0.33579 0.04532 0.0
C3777 C 0.29117 0.36752 0.05161 0.0
N3778 N 0.24295 0.32351 0.06811 0.0
N3779 N 0.27762 0.3613 0.05955 0.0
H3780 H 0.73554 0.7011 0.4154 0.0
H3781 H 0.75758 0.63319 0.42396 0.0
H3782 H 0.71173 0.65618 0.38581 0.0
H3783 H 0.77778 0.67608 0.45672 0.0
H3784 H 0.74004 0.64091 0.41038 0.0
H3785 H 0.75071 0.69183 0.43106 0.0
C3786 C 0.73342 0.68924 0.41225 0.0
C3787 C 0.72237 0.67944 0.3992 0.0
C3788 C 0.74825 0.64858 0.42061 0.0
C3789 C 0.73985 0.66879 0.417 0.0
C3790 C 0.75819 0.64412 0.42844 0.0
C3791 C 0.76926 0.65407 0.44141 0.0
C3792 C 0.74941 0.6631 0.42575 0.0
C3793 C 0.76964 0.66819 0.44656 0.0
C3794 C 0.74214 0.68397 0.42117 0.0
C3795 C 0.72031 0.66427 0.39556 0.0
N3796 N 0.75994 0.67233 0.43866 0.0
N3797 N 0.72899 0.65943 0.40437 0.0
H3798 H 0.32786 0.03756 0.45829 0.0
H3799 H 0.34021 0.12278 0.43969 0.0
H3800 H 0.31458 0.04835 0.41101 0.0
H3801 H 0.36057 0.11477 0.48405 0.0
H3802 H 0.32966 0.09509 0.42962 0.0
H3803 H 0.33863 0.06532 0.46876 0.0
C3804 C 0.32712 0.04575 0.45016 0.0
C3805 C 0.32035 0.04068 0.43375 0.0
C3806 C 0.33647 0.09937 0.44154 0.0
C3807 C 0.33271 0.07239 0.44557 0.0
C3808 C 0.34244 0.11515 0.44732 0.0
C3809 C 0.35121 0.12103 0.46275 0.0
C3810 C 0.3392 0.08931 0.45131 0.0
C3811 C 0.35395 0.11071 0.47203 0.0
C3812 C 0.33337 0.0616 0.4561 0.0
C3813 C 0.31985 0.05181 0.42368 0.0
N3814 N 0.34788 0.0953 0.4662 0.0
N3815 N 0.32593 0.06712 0.42976 0.0
H3816 H 0.97212 0.30251 0.3986 0.0
H3817 H 0.88787 0.22329 0.3981 0.0
H3818 H 0.95711 0.26171 0.36375 0.0
H3819 H 0.90405 0.26432 0.43294 0.0
H3820 H 0.91224 0.23767 0.38394 0.0
H3821 H 0.94636 0.28923 0.40987 0.0
C3822 C 0.96334 0.29081 0.39317 0.0
C3823 C 0.96679 0.28325 0.38014 0.0
C3824 C 0.91038 0.24356 0.39459 0.0
C3825 C 0.93723 0.26779 0.39326 0.0
C3826 C 0.8965 0.23536 0.4027 0.0
C3827 C 0.89393 0.24259 0.41677 0.0
C3828 C 0.9218 0.25909 0.40064 0.0
C3829 C 0.90541 0.25832 0.42204 0.0
C3830 C 0.94863 0.28318 0.3997 0.0
C3831 C 0.95502 0.26792 0.3739 0.0
N3832 N 0.91887 0.26598 0.41405 0.0
N3833 N 0.94076 0.26068 0.38055 0.0
H3834 H 0.05287 0.39883 0.30025 0.0
H3835 H 0.00869 0.44758 0.30853 0.0
H3836 H 0.03888 0.40852 0.34756 0.0
H3837 H 0.03706 0.45116 0.2676 0.0
H3838 H 0.01854 0.43227 0.32279 0.0
H3839 H 0.04648 0.41734 0.28782 0.0
C3840 C 0.04871 0.40502 0.30813 0.0
C3841 C 0.04639 0.40201 0.32502 0.0
C3842 C 0.02271 0.43655 0.31076 0.0
C3843 C 0.0386 0.42295 0.31064 0.0
C3844 C 0.01704 0.44519 0.3026 0.0
C3845 C 0.02209 0.45062 0.2869 0.0
C3846 C 0.03329 0.43311 0.303 0.0
C3847 C 0.03299 0.44731 0.27978 0.0
C3848 C 0.04495 0.41552 0.30096 0.0
C3849 C 0.04058 0.41018 0.33443 0.0
N3850 N 0.03812 0.43864 0.28781 0.0
N3851 N 0.03674 0.42016 0.32707 0.0
H3852 H 0.59896 0.62759 0.289 0.0
H3853 H 0.56513 0.53388 0.2897 0.0
H3854 H 0.61366 0.60632 0.3263 0.0
H3855 H 0.54747 0.55488 0.25524 0.0
H3856 H 0.58438 0.56049 0.30203 0.0
H3857 H 0.581 0.60114 0.27555 0.0
C3858 C 0.59835 0.61736 0.29443 0.0
C3859 C 0.60781 0.6192 0.30884 0.0
C3860 C 0.57632 0.55928 0.29173 0.0
C3861 C 0.58742 0.58887 0.29335 0.0
C3862 C 0.56542 0.54411 0.28462 0.0
C3863 C 0.55464 0.54217 0.27148 0.0
C3864 C 0.57649 0.57262 0.28564 0.0
C3865 C 0.55541 0.55583 0.26552 0.0
C3866 C 0.58817 0.60226 0.28667 0.0
C3867 C 0.60673 0.6055 0.31511 0.0
N3868 N 0.56612 0.57046 0.27266 0.0
N3869 N 0.59671 0.59093 0.30734 0.0
H3870 H 0.35793 0.97674 0.337 0.0
H3871 H 0.43426 0.96902 0.32664 0.0
H3872 H 0.37174 0.9519 0.37057 0.0
H3873 H 0.42236 0.99787 0.29717 0.0
H3874 H 0.41116 0.96187 0.3425 0.0
H3875 H 0.38111 0.98367 0.32171 0.0
C3876 C 0.36578 0.97261 0.34107 0.0
C3877 C 0.36283 0.96362 0.35502 0.0
C3878 C 0.41366 0.96982 0.33261 0.0
C3879 C 0.3896 0.97175 0.33767 0.0
C3880 C 0.42679 0.97385 0.32353 0.0
C3881 C 0.43025 0.98409 0.31061 0.0
C3882 C 0.40386 0.97598 0.32864 0.0
C3883 C 0.42027 0.99012 0.30718 0.0
C3884 C 0.3791 0.97669 0.33241 0.0
C3885 C 0.37362 0.95892 0.35994 0.0
N3886 N 0.40751 0.98593 0.3161 0.0
N3887 N 0.38652 0.963 0.35123 0.0
H3888 H 0.61718 0.99758 0.33588 0.0
H3889 H 0.53912 0.96413 0.27705 0.0
H3890 H 0.5946 0.95071 0.3105 0.0
H3891 H 0.57289 0.01442 0.28518 0.0
H3892 H 0.5582 0.95851 0.29054 0.0
H3893 H 0.59976 0.00358 0.31917 0.0
C3894 C 0.60852 0.98856 0.32678 0.0
C3895 C 0.60722 0.97361 0.32458 0.0
C3896 C 0.56145 0.97076 0.28923 0.0
C3897 C 0.58728 0.98034 0.30552 0.0
C3898 C 0.5506 0.97401 0.28141 0.0
C3899 C 0.55431 0.98982 0.27997 0.0
C3900 C 0.57604 0.98336 0.29592 0.0
C3901 C 0.56931 0.00207 0.28628 0.0
C3902 C 0.59868 0.99202 0.31718 0.0
C3903 C 0.59596 0.96239 0.31251 0.0
N3904 N 0.57955 0.99858 0.29413 0.0
N3905 N 0.58628 0.96592 0.30352 0.0
H3906 H 0.00211 0.63505 0.28201 0.0
H3907 H 0.02865 0.57097 0.26742 0.0
H3908 H 0.04146 0.63707 0.31016 0.0
H3909 H 0.98128 0.56047 0.25453 0.0
H3910 H 0.03504 0.59699 0.28002 0.0
H3911 H 0.99556 0.60914 0.26903 0.0
C3912 C 0.00933 0.63005 0.28557 0.0
C3913 C 0.02238 0.63834 0.29725 0.0
C3914 C 0.02325 0.589 0.27442 0.0
C3915 C 0.0151 0.60883 0.2821 0.0
C3916 C 0.01964 0.57423 0.26713 0.0
C3917 C 0.00444 0.56363 0.2599 0.0
C3918 C 0.01162 0.59328 0.27431 0.0
C3919 C 0.99312 0.56831 0.26006 0.0
C3920 C 0.00561 0.61529 0.27807 0.0
C3921 C 0.03147 0.63133 0.30103 0.0
N3922 N 0.99696 0.58285 0.26709 0.0
N3923 N 0.02769 0.61703 0.29343 0.0
H3924 H 0.37501 0.38407 0.35561 0.0
H3925 H 0.42529 0.44878 0.29203 0.0
H3926 H 0.36299 0.418 0.33796 0.0
H3927 H 0.43221 0.40985 0.30347 0.0
H3928 H 0.40423 0.43951 0.31109 0.0
H3929 H 0.39808 0.39557 0.3393 0.0
C3930 C 0.37737 0.39413 0.34852 0.0
C3931 C 0.36706 0.40011 0.34817 0.0
C3932 C 0.41037 0.43301 0.30945 0.0
C3933 C 0.39333 0.41312 0.32918 0.0
C3934 C 0.42233 0.43823 0.29848 0.0
C3935 C 0.43043 0.42998 0.29598 0.0
C3936 C 0.4065 0.41947 0.31808 0.0
C3937 C 0.42636 0.41664 0.30505 0.0
C3938 C 0.39047 0.40058 0.33907 0.0
C3939 C 0.37055 0.41294 0.33847 0.0
N3940 N 0.41464 0.41177 0.31565 0.0
N3941 N 0.38338 0.41899 0.32931 0.0
H3942 H 0.31768 0.2739 0.38604 0.0
H3943 H 0.37938 0.27186 0.4521 0.0
H3944 H 0.34103 0.30835 0.42826 0.0
H3945 H 0.34313 0.23006 0.42323 0.0
H3946 H 0.36984 0.28779 0.43862 0.0
H3947 H 0.33091 0.2598 0.39536 0.0
C3948 C 0.32554 0.27851 0.39726 0.0
C3949 C 0.32811 0.29231 0.40643 0.0
C3950 C 0.36411 0.27516 0.4351 0.0
C3951 C 0.3436 0.27644 0.41683 0.0
C3952 C 0.36963 0.26613 0.44266 0.0
C3953 C 0.36193 0.24967 0.4388 0.0
C3954 C 0.35094 0.26766 0.4235 0.0
C3955 C 0.34925 0.24273 0.42662 0.0
C3956 C 0.33318 0.27052 0.40247 0.0
C3957 C 0.33879 0.29791 0.42063 0.0
N3958 N 0.34409 0.25175 0.41944 0.0
N3959 N 0.34611 0.28995 0.4254 0.0
H3960 H 0.71345 0.05721 0.39879 0.0
H3961 H 0.77186 0.11312 0.47622 0.0
H3962 H 0.72498 0.03947 0.44212 0.0
H3963 H 0.76571 0.13084 0.42996 0.0
H3964 H 0.75244 0.08615 0.46514 0.0
H3965 H 0.73032 0.08436 0.41124 0.0
C3966 C 0.71944 0.05903 0.41098 0.0
C3967 C 0.71785 0.04607 0.41941 0.0
C3968 C 0.75528 0.09595 0.45744 0.0
C3969 C 0.73724 0.07709 0.43369 0.0
C3970 C 0.76639 0.11135 0.46375 0.0
C3971 C 0.77052 0.12426 0.45396 0.0
C3972 C 0.74821 0.0934 0.44122 0.0
C3973 C 0.76281 0.12128 0.43801 0.0
C3974 C 0.72912 0.07453 0.41804 0.0
C3975 C 0.72604 0.04913 0.43509 0.0
N3976 N 0.7521 0.10615 0.4321 0.0
N3977 N 0.73538 0.06432 0.44171 0.0
H3978 H 0.9761 0.70818 0.40315 0.0
H3979 H 0.88254 0.65226 0.40162 0.0
H3980 H 0.94796 0.67726 0.36013 0.0
H3981 H 0.91281 0.67453 0.4467 0.0
H3982 H 0.90591 0.66254 0.38559 0.0
H3983 H 0.95245 0.69779 0.41857 0.0
C3984 C 0.9649 0.69932 0.39689 0.0
C3985 C 0.96399 0.69359 0.38033 0.0
C3986 C 0.9074 0.66514 0.399 0.0
C3987 C 0.93687 0.68148 0.39798 0.0
C3988 C 0.89407 0.65919 0.40818 0.0
C3989 C 0.89568 0.6626 0.42555 0.0
C3990 C 0.92243 0.67463 0.40724 0.0
C3991 C 0.91095 0.67185 0.43331 0.0
C3992 C 0.95142 0.69328 0.40575 0.0
C3993 C 0.9492 0.6819 0.37293 0.0
N3994 N 0.92369 0.67758 0.4241 0.0
N3995 N 0.9362 0.67624 0.3818 0.0
H3996 H 0.3801 0.99846 0.72936 0.0
H3997 H 0.46941 0.03293 0.76265 0.0
H3998 H 0.41636 0.04722 0.72537 0.0
H3999 H 0.43074 0.9913 0.78132 0.0
H4000 H 0.45051 0.03725 0.74672 0.0
H4001 H 0.39895 0.99434 0.74595 0.0
C4002 C 0.39206 0.00827 0.73191 0.0
C4003 C 0.39672 0.0232 0.72597 0.0
C4004 C 0.44617 0.02722 0.75437 0.0
C4005 C 0.41828 0.01858 0.74492 0.0
C4006 C 0.45696 0.02478 0.76359 0.0
C4007 C 0.45171 0.01177 0.7735 0.0
C4008 C 0.42999 0.01647 0.75483 0.0
C4009 C 0.43538 0.00138 0.77374 0.0
C4010 C 0.40276 0.00594 0.74147 0.0
C4011 C 0.41229 0.03556 0.72981 0.0
N4012 N 0.42511 0.00392 0.76449 0.0
N4013 N 0.42255 0.03295 0.73897 0.0
H4014 H 0.99165 0.37502 0.75018 0.0
H4015 H 0.97335 0.42366 0.81957 0.0
H4016 H 0.95375 0.35277 0.78276 0.0
H4017 H 0.01184 0.44542 0.78764 0.0
H4018 H 0.96632 0.39752 0.80679 0.0
H4019 H -0.00061 0.40087 0.76409 0.0
C4020 C 0.98486 0.37559 0.76018 0.0
C4021 C 0.97194 0.36172 0.76521 0.0
C4022 C 0.97635 0.40801 0.80263 0.0
C4023 C 0.98091 0.39131 0.78141 0.0
C4024 C 0.98033 0.42292 0.80988 0.0
C4025 C 0.99316 0.43674 0.8046 0.0
C4026 C 0.98522 0.40688 0.78995 0.0
C4027 C 0.00195 0.43508 0.79219 0.0
C4028 C 0.98937 0.39035 0.76822 0.0
C4029 C 0.96383 0.36315 0.77852 0.0
N4030 N 0.99776 0.42044 0.78523 0.0
N4031 N 0.96842 0.3777 0.78613 0.0
H4032 H 0.63304 0.59023 0.71028 0.0
H4033 H 0.58104 0.5941 0.78243 0.0
H4034 H 0.64712 0.63131 0.74438 0.0
H4035 H 0.56727 0.55138 0.75119 0.0
H4036 H 0.60506 0.60795 0.7679 0.0
H4037 H 0.60886 0.57557 0.7248 0.0
C4038 C 0.6311 0.59612 0.72087 0.0
C4039 C 0.64203 0.61206 0.72602 0.0
C4040 C 0.5968 0.59555 0.76417 0.0
C4041 C 0.61442 0.59547 0.74255 0.0
C4042 C 0.583 0.58767 0.77238 0.0
C4043 C 0.57209 0.57158 0.76795 0.0
C4044 C 0.59977 0.58732 0.75139 0.0
C4045 C 0.57543 0.56377 0.75507 0.0
C4046 C 0.61727 0.58779 0.72909 0.0
C4047 C 0.63887 0.61914 0.73975 0.0
N4048 N 0.58898 0.57172 0.74721 0.0
N4049 N 0.62537 0.61083 0.74748 0.0
H4050 H 0.71222 0.74716 0.65882 0.0
H4051 H 0.63453 0.75265 0.64302 0.0
H4052 H 0.66547 0.70865 0.66628 0.0
H4053 H 0.67818 0.78246 0.62062 0.0
H4054 H 0.64658 0.73873 0.65592 0.0
H4055 H 0.7007 0.76264 0.64896 0.0
C4056 C 0.69955 0.74193 0.65838 0.0
C4057 C 0.68983 0.72651 0.66333 0.0
C4058 C 0.65351 0.74841 0.64827 0.0
C4059 C 0.67661 0.74432 0.65234 0.0
C4060 C 0.64663 0.75632 0.64084 0.0
C4061 C 0.65531 0.76877 0.63067 0.0
C4062 C 0.6692 0.75303 0.6456 0.0
C4063 C 0.67106 0.77316 0.62858 0.0
C4064 C 0.693 0.75082 0.65284 0.0
C4065 C 0.6735 0.72054 0.66283 0.0
N4066 N 0.67747 0.76529 0.63594 0.0
N4067 N 0.66741 0.72944 0.6574 0.0
H4068 H 0.25891 0.941 0.66936 0.0
H4069 H 0.23949 0.87017 0.60098 0.0
H4070 H 0.28906 0.94538 0.62996 0.0
H4071 H 0.20873 0.86681 0.63931 0.0
H4072 H 0.25882 0.89704 0.61267 0.0
H4073 H 0.2412 0.91322 0.65952 0.0
C4074 C 0.26178 0.93613 0.65859 0.0
C4075 C 0.27544 0.94558 0.6504 0.0
C4076 C 0.24787 0.89039 0.61857 0.0
C4077 C 0.25528 0.91369 0.63915 0.0
C4078 C 0.23689 0.87502 0.61197 0.0
C4079 C 0.22244 0.86629 0.61912 0.0
C4080 C 0.24439 0.89706 0.63243 0.0
C4081 C 0.21961 0.87322 0.63324 0.0
C4082 C 0.25171 0.92023 0.65304 0.0
C4083 C 0.27873 0.93852 0.63673 0.0
N4084 N 0.23045 0.8882 0.63938 0.0
N4085 N 0.26868 0.92302 0.63149 0.0
H4086 H 0.03342 0.30842 0.66931 0.0
H4087 H 0.12543 0.34492 0.67948 0.0
H4088 H 0.05823 0.32598 0.7179 0.0
H4089 H 0.10287 0.35261 0.63679 0.0
H4090 H 0.10079 0.33466 0.69363 0.0
H4091 H 0.05875 0.32078 0.65655 0.0
C4092 C 0.04425 0.31477 0.67726 0.0
C4093 C 0.04386 0.31619 0.69462 0.0
C4094 C 0.10135 0.33879 0.68126 0.0
C4095 C 0.07268 0.33022 0.68023 0.0
C4096 C 0.11533 0.34462 0.67323 0.0
C4097 C 0.11609 0.34968 0.65708 0.0
C4098 C 0.08803 0.33763 0.6728 0.0
C4099 C 0.10273 0.34897 0.64935 0.0
C4100 C 0.05863 0.32191 0.67 0.0
C4101 C 0.05814 0.32467 0.70444 0.0
N4102 N 0.08914 0.34283 0.6572 0.0
N4103 N 0.07205 0.33128 0.69711 0.0
H4104 H 0.26063 0.29384 0.65284 0.0
H4105 H 0.25379 0.36743 0.62405 0.0
H4106 H 0.29322 0.34219 0.67182 0.0
H4107 H 0.21386 0.31966 0.62312 0.0
H4108 H 0.27016 0.35832 0.63768 0.0
H4109 H 0.24507 0.3031 0.63763 0.0
C4110 C 0.26452 0.3064 0.65373 0.0
C4111 C 0.27814 0.31727 0.66365 0.0
C4112 C 0.25782 0.34987 0.63439 0.0
C4113 C 0.26054 0.32793 0.64626 0.0
C4114 C 0.24843 0.35505 0.62666 0.0
C4115 C 0.23236 0.34433 0.62236 0.0
C4116 C 0.25114 0.33381 0.63766 0.0
C4117 C 0.22622 0.32834 0.62583 0.0
C4118 C 0.25563 0.31166 0.64513 0.0
C4119 C 0.28266 0.33342 0.66446 0.0
N4120 N 0.23561 0.32359 0.63324 0.0
N4121 N 0.27391 0.33829 0.65582 0.0
H4122 H 0.65384 0.9504 0.64422 0.0
H4123 H 0.64981 0.89179 0.56896 0.0
H4124 H 0.6863 0.96526 0.60538 0.0
H4125 H 0.62907 0.87537 0.61561 0.0
H4126 H 0.6591 0.9191 0.57966 0.0
H4127 H 0.64061 0.92309 0.63135 0.0
C4128 C 0.65807 0.94792 0.63289 0.0
C4129 C 0.67122 0.96003 0.62588 0.0
C4130 C 0.65241 0.9095 0.58749 0.0
C4131 C 0.65618 0.92898 0.61113 0.0
C4132 C 0.64713 0.8939 0.58142 0.0
C4133 C 0.63884 0.88125 0.59149 0.0
C4134 C 0.64929 0.9125 0.6037 0.0
C4135 C 0.63535 0.88471 0.60737 0.0
C4136 C 0.65057 0.93236 0.62562 0.0
C4137 C 0.67631 0.9562 0.61127 0.0
N4138 N 0.6407 0.90003 0.61303 0.0
N4139 N 0.66877 0.94101 0.60437 0.0
H4140 H 0.04056 0.71431 0.6923 0.0
H4141 H 0.07584 0.74455 0.60518 0.0
H4142 H 0.01656 0.72539 0.65385 0.0
H4143 H 0.10556 0.75154 0.6495 0.0
H4144 H 0.05313 0.73424 0.62199 0.0
H4145 H 0.06386 0.72501 0.676 0.0
C4146 C 0.04025 0.71907 0.68046 0.0
C4147 C 0.02668 0.71904 0.67439 0.0
C4148 C 0.06463 0.73805 0.62802 0.0
C4149 C 0.05306 0.73101 0.65568 0.0
C4150 C 0.07763 0.74397 0.61845 0.0
C4151 C 0.09272 0.7491 0.62594 0.0
C4152 C 0.06664 0.737 0.6452 0.0
C4153 C 0.09417 0.74761 0.64313 0.0
C4154 C 0.05352 0.72519 0.67121 0.0
C4155 C 0.02686 0.72537 0.65903 0.0
N4156 N 0.08128 0.74169 0.65219 0.0
N4157 N 0.0398 0.73098 0.65012 0.0
H4158 H 0.98177 0.62757 0.76339 0.0
H4159 H 0.96247 0.53894 0.77412 0.0
H4160 H 0.94268 0.58687 0.73588 0.0
H4161 H 0.00755 0.5804 0.78937 0.0
H4162 H 0.95424 0.55603 0.76103 0.0
H4163 H 0.99054 0.6102 0.77443 0.0
C4164 C 0.97498 0.61493 0.75978 0.0
C4165 C 0.96142 0.6086 0.74882 0.0
C4166 C 0.96597 0.56136 0.76711 0.0
C4167 C 0.97145 0.58868 0.76128 0.0
C4168 C 0.97065 0.55164 0.77461 0.0
C4169 C 0.98569 0.5583 0.78283 0.0
C4170 C 0.97635 0.57787 0.76807 0.0
C4171 C 0.9959 0.57478 0.78302 0.0
C4172 C 0.98007 0.60506 0.76595 0.0
C4173 C 0.95322 0.5922 0.74428 0.0
N4174 N 0.99099 0.58403 0.77588 0.0
N4175 N 0.95831 0.58277 0.75063 0.0
H4176 H 0.38688 0.37258 0.78096 0.0
H4177 H 0.44426 0.46452 0.76677 0.0
H4178 H 0.39658 0.39131 0.73243 0.0
H4179 H 0.43738 0.44568 0.81526 0.0
H4180 H 0.42528 0.43802 0.7542 0.0
H4181 H 0.40425 0.39941 0.79393 0.0
C4182 C 0.39272 0.38231 0.77302 0.0
C4183 C 0.39028 0.37966 0.75556 0.0
C4184 C 0.42785 0.43967 0.7676 0.0
C4185 C 0.41002 0.41045 0.77035 0.0
C4186 C 0.43859 0.45484 0.77481 0.0
C4187 C 0.44242 0.45732 0.7921 0.0
C4188 C 0.42086 0.42685 0.77774 0.0
C4189 C 0.43491 0.44426 0.80185 0.0
C4190 C 0.40255 0.39765 0.78044 0.0
C4191 C 0.39794 0.39279 0.74593 0.0
N4192 N 0.42452 0.42958 0.79453 0.0
N4193 N 0.40747 0.40759 0.75345 0.0
H4194 H 0.65436 0.03896 0.73747 0.0
H4195 H 0.56395 0.01524 0.73563 0.0
H4196 H 0.62807 0.03824 0.6928 0.0
H4197 H 0.59342 0.02545 0.78097 0.0
H4198 H 0.58685 0.02234 0.71943 0.0
H4199 H 0.63183 0.03319 0.75342 0.0
C4200 C 0.64394 0.03781 0.73102 0.0
C4201 C 0.64319 0.03917 0.71373 0.0
C4202 C 0.5883 0.02308 0.73293 0.0
C4203 C 0.61711 0.03214 0.73195 0.0
C4204 C 0.57523 0.01893 0.74216 0.0
C4205 C 0.57681 0.01978 0.75966 0.0
C4206 C 0.60301 0.02796 0.74127 0.0
C4207 C 0.59172 0.0248 0.76751 0.0
C4208 C 0.63101 0.03438 0.74014 0.0
C4209 C 0.62915 0.03711 0.70605 0.0
N4210 N 0.60422 0.02864 0.75826 0.0
N4211 N 0.61664 0.03365 0.7152 0.0
loop_
_geom_bond_atom_site_label_1
_geom_bond_atom_site_label_2
_geom_bond_distance
_geom_bond_site_symmetry_2
_ccdc_geom_bond_type
Li0 N17 1.990 . S
Li0 O60 1.952 1_655 S
Li0 O61 1.970 1_655 S
Li0 O62 1.961 . S
Li1 N25 1.990 . S
Li1 O60 1.980 . S
Li1 O61 1.956 . S
Li1 O63 1.961 . S
Li2 N47 2.022 . S
Li2 O60 1.927 1_655 S
Li2 O62 1.975 . S
Li2 O63 1.928 1_655 S
Li3 N53 1.990 1_554 S
Li3 O61 1.961 . S
Li3 O62 1.970 1_455 S
Li3 O63 1.956 . S
C4 C6 1.348 1_655 S
C4 C7 1.356 . S
C4 O60 1.325 1_655 S
N5 C8 1.314 . S
N5 C9 1.279 . S
C6 C4 1.348 1_455 S
C6 C8 1.353 1_455 S
C6 H64 0.929 . S
C7 C4 1.356 . S
C7 C9 1.358 . S
C7 H65 0.930 . S
C8 N5 1.314 . S
C8 C6 1.353 1_655 S
C8 H66 0.930 1_655 S
C9 N5 1.279 . S
C9 C7 1.358 . S
C9 H67 0.930 . S
C10 C13 1.348 . S
C10 C14 1.356 . S
C10 O61 1.325 1_556 S
C11 N12 1.279 . S
C11 C14 1.358 . S
C11 H68 0.930 . S
N12 C11 1.279 . S
N12 C15 1.314 . S
C13 C10 1.348 . S
C13 C15 1.353 . S
C13 H69 0.929 1_455 S
C14 C10 1.356 . S
C14 C11 1.358 . S
C14 H70 0.930 . S
C15 N12 1.314 . S
C15 C13 1.353 . S
C15 H71 0.930 . S
C16 N17 1.314 1_556 S
C16 C21 1.353 . S
C16 H22 0.930 . S
N17 Li0 1.990 . S
N17 C16 1.314 1_554 S
N17 C19 1.279 . S
C18 C19 1.358 . S
C18 C20 1.356 1_554 S
C18 H72 0.930 . S
C19 N17 1.279 . S
C19 C18 1.358 . S
C19 H23 0.930 . S
C20 C18 1.356 1_556 S
C20 C21 1.348 . S
C21 C16 1.353 . S
C21 C20 1.348 . S
C21 H73 0.929 . S
H22 C16 0.930 . S
H23 C19 0.930 . S
C24 N25 1.314 . S
C24 C26 1.353 . S
C24 H30 0.930 . S
N25 Li1 1.990 . S
N25 C24 1.314 . S
N25 C28 1.279 . S
C26 C24 1.353 . S
C26 C29 1.348 . S
C26 H74 0.929 . S
C27 C28 1.358 . S
C27 C29 1.356 . S
C27 H75 0.930 . S
C28 N25 1.279 . S
C28 C27 1.358 . S
C28 H31 0.930 . S
C29 C26 1.348 . S
C29 C27 1.356 . S
H30 C24 0.930 . S
H31 C28 0.930 . S
C32 C34 1.348 . S
C32 C35 1.356 . S
C32 O62 1.325 . S
N33 C36 1.314 1_554 S
N33 C37 1.279 . S
C34 C32 1.348 . S
C34 C36 1.353 1_554 S
C34 H76 0.930 1_554 S
C35 C32 1.356 . S
C35 C37 1.358 . S
C35 H77 0.930 . S
C36 N33 1.314 1_556 S
C36 C34 1.353 1_556 S
C36 H78 0.930 . S
C37 N33 1.279 . S
C37 C35 1.358 . S
C37 H79 0.930 . S
C38 C39 1.348 . S
C38 C40 1.356 . S
C38 O63 1.325 . S
C39 C38 1.348 . S
C39 C41 1.353 . S
C39 H80 0.929 . S
C40 C38 1.356 . S
C40 C42 1.358 . S
C40 H81 0.930 . S
C41 C39 1.353 . S
C41 N43 1.314 . S
C41 H82 0.930 . S
C42 C40 1.358 . S
C42 N43 1.279 . S
C42 H83 0.930 . S
N43 C41 1.314 . S
N43 C42 1.279 . S
C44 C46 1.353 . S
C44 N47 1.314 . S
C44 H50 0.930 1_655 S
C45 N47 1.279 . S
C45 C48 1.358 . S
C45 H51 0.930 . S
C46 C44 1.353 . S
C46 C49 1.348 . S
C46 H84 0.929 . S
N47 Li2 2.022 . S
N47 C44 1.314 . S
N47 C45 1.279 . S
C48 C45 1.358 . S
C48 C49 1.356 . S
C48 H85 0.930 . S
C49 C46 1.348 . S
C49 C48 1.356 . S
H50 C44 0.930 1_455 S
H51 C45 0.930 . S
C52 N53 1.314 . S
C52 C54 1.353 . S
C52 H58 0.930 . S
N53 Li3 1.990 1_556 S
N53 C52 1.314 . S
N53 C56 1.279 . S
C54 C52 1.353 . S
C54 C57 1.348 . S
C54 H86 0.929 . S
C55 C56 1.358 . S
C55 C57 1.356 . S
C55 H87 0.930 . S
C56 N53 1.279 . S
C56 C55 1.358 . S
C56 H59 0.930 1_556 S
C57 C54 1.348 . S
C57 C55 1.356 . S
H58 C52 0.930 . S
H59 C56 0.930 1_554 S
O60 Li0 1.952 1_455 S
O60 Li1 1.980 . S
O60 Li2 1.927 1_455 S
O60 C4 1.325 1_455 S
O61 Li0 1.970 1_455 S
O61 Li1 1.956 . S
O61 Li3 1.961 . S
O61 C10 1.325 1_554 S
O62 Li0 1.961 . S
O62 Li2 1.975 . S
O62 Li3 1.970 1_655 S
O62 C32 1.325 . S
O63 Li1 1.961 . S
O63 Li2 1.928 1_455 S
O63 Li3 1.956 . S
O63 C38 1.325 . S
H64 C6 0.929 . S
H65 C7 0.930 . S
H66 C8 0.930 1_455 S
H67 C9 0.930 . S
H68 C11 0.930 . S
H69 C13 0.929 1_655 S
H70 C14 0.930 . S
H71 C15 0.930 . S
H72 C18 0.930 . S
H73 C21 0.929 . S
H74 C26 0.929 . S
H75 C27 0.930 . S
H76 C34 0.930 1_556 S
H77 C35 0.930 . S
H78 C36 0.930 . S
H79 C37 0.930 . S
H80 C39 0.929 . S
H81 C40 0.930 . S
H82 C41 0.930 . S
H83 C42 0.930 . S
H84 C46 0.929 . S
H85 C48 0.930 . S
H86 C54 0.929 . S
H87 C55 0.930 . S
Li88 N105 1.990 . S
Li88 O148 1.956 . S
Li88 O149 1.970 . S
Li88 O150 1.961 . S
Li89 N113 1.990 . S
Li89 O148 1.970 . S
Li89 O149 1.956 . S
Li89 O151 1.961 . S
Li90 N135 1.990 . S
Li90 O148 1.961 . S
Li90 O150 1.956 . S
Li90 O151 1.970 . S
Li91 N141 1.990 . S
Li91 O149 1.961 . S
Li91 O150 1.970 . S
Li91 O151 1.956 . S
C92 C94 1.348 . S
C92 C95 1.356 . S
C92 O148 1.325 . S
N93 C96 1.314 . S
N93 C97 1.279 . S
C94 C92 1.348 . S
C94 C96 1.353 . S
C94 H152 0.929 . S
C95 C92 1.356 . S
C95 C97 1.358 . S
C95 H153 0.930 . S
C96 N93 1.314 . S
C96 C94 1.353 . S
C96 H154 0.930 . S
C97 N93 1.279 . S
C97 C95 1.358 . S
C97 H155 0.930 . S
C98 C101 1.348 . S
C98 C102 1.356 . S
C98 O149 1.325 . S
C99 N100 1.279 . S
C99 C102 1.358 . S
C99 H156 0.930 . S
N100 C99 1.279 . S
N100 C103 1.314 . S
C101 C98 1.348 . S
C101 C103 1.353 . S
C101 H157 0.929 . S
C102 C98 1.356 . S
C102 C99 1.358 . S
C102 H158 0.930 . S
C103 N100 1.314 . S
C103 C101 1.353 . S
C103 H159 0.930 . S
C104 N105 1.314 . S
C104 C109 1.353 . S
C104 H110 0.930 . S
N105 Li88 1.990 . S
N105 C104 1.314 . S
N105 C107 1.279 . S
C106 C107 1.358 . S
C106 C108 1.356 . S
C106 H160 0.930 . S
C107 N105 1.279 . S
C107 C106 1.358 . S
C107 H111 0.930 . S
C108 C106 1.356 . S
C108 C109 1.348 . S
C109 C104 1.353 . S
C109 C108 1.348 . S
C109 H161 0.929 . S
H110 C104 0.930 . S
H111 C107 0.930 . S
C112 N113 1.314 . S
C112 C114 1.353 . S
C112 H118 0.930 . S
N113 Li89 1.990 . S
N113 C112 1.314 . S
N113 C116 1.279 . S
C114 C112 1.353 . S
C114 C117 1.348 . S
C114 H162 0.929 . S
C115 C116 1.358 . S
C115 C117 1.356 . S
C115 H163 0.930 . S
C116 N113 1.279 . S
C116 C115 1.358 . S
C116 H119 0.930 . S
C117 C114 1.348 . S
C117 C115 1.356 . S
H118 C112 0.930 . S
H119 C116 0.930 . S
C120 C122 1.348 . S
C120 C123 1.356 . S
C120 O150 1.325 . S
N121 C124 1.314 . S
N121 C125 1.279 . S
C122 C120 1.348 . S
C122 C124 1.353 . S
C122 H164 0.929 . S
C123 C120 1.356 . S
C123 C125 1.358 . S
C123 H165 0.930 . S
C124 N121 1.314 . S
C124 C122 1.353 . S
C124 H166 0.930 . S
C125 N121 1.279 . S
C125 C123 1.358 . S
C125 H167 0.930 . S
C126 C127 1.348 . S
C126 C128 1.356 . S
C126 O151 1.325 . S
C127 C126 1.348 . S
C127 C129 1.353 . S
C127 H168 0.929 . S
C128 C126 1.356 . S
C128 C130 1.358 . S
C128 H169 0.930 . S
C129 C127 1.353 . S
C129 N131 1.314 . S
C129 H170 0.930 . S
C130 C128 1.358 . S
C130 N131 1.279 . S
C130 H171 0.930 . S
N131 C129 1.314 . S
N131 C130 1.279 . S
C132 C134 1.353 . S
C132 N135 1.314 . S
C132 H138 0.930 . S
C133 N135 1.279 . S
C133 C136 1.358 . S
C133 H139 0.930 . S
C134 C132 1.353 . S
C134 C137 1.348 . S
C134 H172 0.929 . S
N135 Li90 1.990 . S
N135 C132 1.314 . S
N135 C133 1.279 . S
C136 C133 1.358 . S
C136 C137 1.356 . S
C136 H173 0.930 . S
C137 C134 1.348 . S
C137 C136 1.356 . S
H138 C132 0.930 . S
H139 C133 0.930 . S
C140 N141 1.314 . S
C140 C142 1.353 1_554 S
C140 H146 0.930 . S
N141 Li91 1.990 . S
N141 C140 1.314 . S
N141 C144 1.279 . S
C142 C140 1.353 1_556 S
C142 C145 1.348 . S
C142 H174 0.929 . S
C143 C144 1.358 . S
C143 C145 1.356 1_554 S
C143 H175 0.930 . S
C144 N141 1.279 . S
C144 C143 1.358 . S
C144 H147 0.930 . S
C145 C142 1.348 . S
C145 C143 1.356 1_556 S
H146 C140 0.930 . S
H147 C144 0.930 . S
O148 Li88 1.956 . S
O148 Li89 1.970 . S
O148 Li90 1.961 . S
O148 C92 1.325 . S
O149 Li88 1.970 . S
O149 Li89 1.956 . S
O149 Li91 1.961 . S
O149 C98 1.325 . S
O150 Li88 1.961 . S
O150 Li90 1.956 . S
O150 Li91 1.970 . S
O150 C120 1.325 . S
O151 Li89 1.961 . S
O151 Li90 1.970 . S
O151 Li91 1.956 . S
O151 C126 1.325 . S
H152 C94 0.929 . S
H153 C95 0.930 . S
H154 C96 0.930 . S
H155 C97 0.930 . S
H156 C99 0.930 . S
H157 C101 0.929 . S
H158 C102 0.930 . S
H159 C103 0.930 . S
H160 C106 0.930 . S
H161 C109 0.929 . S
H162 C114 0.929 . S
H163 C115 0.930 . S
H164 C122 0.929 . S
H165 C123 0.930 . S
H166 C124 0.930 . S
H167 C125 0.930 . S
H168 C127 0.929 . S
H169 C128 0.930 . S
H170 C129 0.930 . S
H171 C130 0.930 . S
H172 C134 0.929 . S
H173 C136 0.930 . S
H174 C142 0.929 . S
H175 C143 0.930 . S
Li176 N193 1.990 1_554 S
Li176 O236 1.956 . S
Li176 O237 1.970 1_565 S
Li176 O238 1.961 . S
Li177 N201 1.990 . S
Li177 O236 1.970 1_545 S
Li177 O237 1.956 . S
Li177 O239 1.961 . S
Li178 N223 1.990 . S
Li178 O236 1.961 . S
Li178 O238 1.956 . S
Li178 O239 1.970 1_565 S
Li179 N229 1.990 . S
Li179 O237 1.961 . S
Li179 O238 1.970 1_545 S
Li179 O239 1.956 . S
C180 C182 1.348 . S
C180 C183 1.356 . S
C180 O236 1.325 . S
N181 C184 1.314 . S
N181 C185 1.279 . S
C182 C180 1.348 . S
C182 C184 1.353 . S
C182 H240 0.929 . S
C183 C180 1.356 . S
C183 C185 1.358 . S
C183 H241 0.930 . S
C184 N181 1.314 . S
C184 C182 1.353 . S
C184 H242 0.930 . S
C185 N181 1.279 . S
C185 C183 1.358 . S
C185 H243 0.930 . S
C186 C189 1.348 . S
C186 C190 1.356 . S
C186 O237 1.325 . S
C187 N188 1.279 . S
C187 C190 1.358 . S
C187 H244 0.930 . S
N188 C187 1.279 . S
N188 C191 1.314 . S
C189 C186 1.348 . S
C189 C191 1.353 . S
C189 H245 0.929 . S
C190 C186 1.356 . S
C190 C187 1.358 . S
C190 H246 0.930 . S
C191 N188 1.314 . S
C191 C189 1.353 . S
C191 H247 0.930 1_554 S
C192 N193 1.314 . S
C192 C197 1.353 . S
C192 H198 0.930 . S
N193 Li176 1.990 1_556 S
N193 C192 1.314 . S
N193 C195 1.279 . S
C194 C195 1.358 . S
C194 C196 1.356 . S
C194 H248 0.930 . S
C195 N193 1.279 . S
C195 C194 1.358 . S
C195 H199 0.930 1_556 S
C196 C194 1.356 . S
C196 C197 1.348 . S
C197 C192 1.353 . S
C197 C196 1.348 . S
C197 H249 0.929 . S
H198 C192 0.930 . S
H199 C195 0.930 1_554 S
C200 N201 1.314 . S
C200 C202 1.353 . S
C200 H206 0.930 . S
N201 Li177 1.990 . S
N201 C200 1.314 . S
N201 C204 1.279 . S
C202 C200 1.353 . S
C202 C205 1.348 . S
C202 H250 0.929 . S
C203 C204 1.358 . S
C203 C205 1.356 . S
C203 H251 0.930 . S
C204 N201 1.279 . S
C204 C203 1.358 . S
C204 H207 0.930 . S
C205 C202 1.348 . S
C205 C203 1.356 . S
H206 C200 0.930 . S
H207 C204 0.930 . S
C208 C210 1.348 . S
C208 C211 1.356 . S
C208 O238 1.325 1_556 S
N209 C212 1.314 . S
N209 C213 1.279 . S
C210 C208 1.348 . S
C210 C212 1.353 . S
C210 H252 0.929 1_565 S
C211 C208 1.356 . S
C211 C213 1.358 . S
C211 H253 0.930 . S
C212 N209 1.314 . S
C212 C210 1.353 . S
C212 H254 0.930 . S
C213 N209 1.279 . S
C213 C211 1.358 . S
C213 H255 0.930 . S
C214 C215 1.348 . S
C214 C216 1.356 . S
C214 O239 1.325 . S
C215 C214 1.348 . S
C215 C217 1.353 . S
C215 H256 0.929 1_545 S
C216 C214 1.356 . S
C216 C218 1.358 . S
C216 H257 0.930 . S
C217 C215 1.353 . S
C217 N219 1.314 . S
C217 H258 0.930 . S
C218 C216 1.358 . S
C218 N219 1.279 . S
C218 H259 0.930 . S
N219 C217 1.314 . S
N219 C218 1.279 . S
C220 C222 1.353 . S
C220 N223 1.314 . S
C220 H226 0.930 . S
C221 N223 1.279 . S
C221 C224 1.358 . S
C221 H227 0.930 . S
C222 C220 1.353 . S
C222 C225 1.348 . S
C222 H260 0.929 . S
N223 Li178 1.990 . S
N223 C220 1.314 . S
N223 C221 1.279 . S
C224 C221 1.358 . S
C224 C225 1.356 . S
C224 H261 0.930 . S
C225 C222 1.348 . S
C225 C224 1.356 . S
H226 C220 0.930 . S
H227 C221 0.930 . S
C228 N229 1.258 1_556 S
C228 C230 1.380 . S
C228 H234 0.966 . S
N229 Li179 1.990 . S
N229 C228 1.258 1_554 S
N229 C232 1.279 . S
C230 C228 1.380 . S
C230 C233 1.328 1_556 S
C230 H262 0.929 . S
C231 C232 1.358 . S
C231 C233 1.395 . S
C231 H263 0.930 . S
C232 N229 1.279 . S
C232 C231 1.358 . S
C232 H235 0.930 . S
C233 C230 1.328 1_554 S
C233 C231 1.395 . S
H234 C228 0.966 . S
H235 C232 0.930 . S
O236 Li176 1.956 . S
O236 Li177 1.970 1_565 S
O236 Li178 1.961 . S
O236 C180 1.325 . S
O237 Li176 1.970 1_545 S
O237 Li177 1.956 . S
O237 Li179 1.961 . S
O237 C186 1.325 . S
O238 Li176 1.961 . S
O238 Li178 1.956 . S
O238 Li179 1.970 1_565 S
O238 C208 1.325 1_554 S
O239 Li177 1.961 . S
O239 Li178 1.970 1_545 S
O239 Li179 1.956 . S
O239 C214 1.325 . S
H240 C182 0.929 . S
H241 C183 0.930 . S
H242 C184 0.930 . S
H243 C185 0.930 . S
H244 C187 0.930 . S
H245 C189 0.929 . S
H246 C190 0.930 . S
H247 C191 0.930 1_556 S
H248 C194 0.930 . S
H249 C197 0.929 . S
H250 C202 0.929 . S
H251 C203 0.930 . S
H252 C210 0.929 1_545 S
H253 C211 0.930 . S
H254 C212 0.930 . S
H255 C213 0.930 . S
H256 C215 0.929 1_565 S
H257 C216 0.930 . S
H258 C217 0.930 . S
H259 C218 0.930 . S
H260 C222 0.929 . S
H261 C224 0.930 . S
H262 C230 0.929 . S
H263 C231 0.930 . S
Li264 N281 1.990 . S
Li264 O324 1.956 . S
Li264 O325 1.970 1_455 S
Li264 O326 1.961 . S
Li265 N289 1.990 . S
Li265 O324 1.970 1_655 S
Li265 O325 1.956 . S
Li265 O327 1.961 . S
Li266 N311 1.990 . S
Li266 O324 1.961 . S
Li266 O326 1.956 . S
Li266 O327 1.970 1_455 S
Li267 N317 1.990 . S
Li267 O325 1.961 . S
Li267 O326 1.970 1_655 S
Li267 O327 1.956 . S
C268 C270 1.348 . S
C268 C271 1.356 . S
C268 O324 1.325 . S
N269 C272 1.314 . S
N269 C273 1.279 . S
C270 C268 1.348 . S
C270 C272 1.353 . S
C270 H328 0.929 . S
C271 C268 1.356 . S
C271 C273 1.358 . S
C271 H329 0.930 . S
C272 N269 1.314 . S
C272 C270 1.353 . S
C272 H330 0.930 . S
C273 N269 1.279 . S
C273 C271 1.358 . S
C273 H331 0.930 . S
C274 C277 1.348 1_655 S
C274 C278 1.356 . S
C274 O325 1.325 . S
C275 N276 1.279 . S
C275 C278 1.358 . S
C275 H332 0.930 . S
N276 C275 1.279 . S
N276 C279 1.314 . S
C277 C274 1.348 1_455 S
C277 C279 1.353 1_455 S
C277 H333 0.929 . S
C278 C274 1.356 . S
C278 C275 1.358 . S
C278 H334 0.930 . S
C279 N276 1.314 . S
C279 C277 1.353 1_655 S
C279 H335 0.930 1_655 S
C280 N281 1.314 . S
C280 C285 1.353 . S
C280 H286 0.930 . S
N281 Li264 1.990 . S
N281 C280 1.314 . S
N281 C283 1.279 . S
C282 C283 1.358 . S
C282 C284 1.356 . S
C282 H336 0.930 . S
C283 N281 1.279 . S
C283 C282 1.358 . S
C283 H287 0.930 . S
C284 C282 1.356 . S
C284 C285 1.348 . S
C285 C280 1.353 . S
C285 C284 1.348 . S
C285 H337 0.929 . S
H286 C280 0.930 . S
H287 C283 0.930 . S
C288 N289 1.314 . S
C288 C290 1.353 . S
C288 H294 0.930 . S
N289 Li265 1.990 . S
N289 C288 1.314 . S
N289 C292 1.279 . S
C290 C288 1.353 . S
C290 C293 1.348 . S
C290 H338 0.929 . S
C291 C292 1.358 . S
C291 C293 1.356 . S
C291 H339 0.930 . S
C292 N289 1.279 . S
C292 C291 1.358 . S
C292 H295 0.930 . S
C293 C290 1.348 . S
C293 C291 1.356 . S
H294 C288 0.930 . S
H295 C292 0.930 . S
C296 C298 1.309 1_455 S
C296 C299 1.356 . S
C296 O326 1.325 . S
N297 C300 1.314 . S
N297 C301 1.279 . S
C298 C296 1.309 1_655 S
C298 C300 1.351 1_654 S
C298 H340 0.971 . S
C299 C296 1.356 . S
C299 C301 1.358 1_554 S
C299 H341 0.930 . S
C300 N297 1.314 . S
C300 C298 1.351 1_456 S
C300 H342 0.930 1_455 S
C301 N297 1.279 . S
C301 C299 1.358 1_556 S
C301 H343 0.930 . S
C302 C303 1.348 . S
C302 C304 1.356 . S
C302 O327 1.325 . S
C303 C302 1.348 . S
C303 C305 1.353 . S
C303 H344 0.929 . S
C304 C302 1.356 . S
C304 C306 1.358 . S
C304 H345 0.930 . S
C305 C303 1.353 . S
C305 N307 1.314 . S
C305 H346 0.883 1_554 S
C306 C304 1.358 . S
C306 N307 1.279 . S
C306 H347 0.930 . S
N307 C305 1.314 . S
N307 C306 1.279 . S
C308 C310 1.353 1_554 S
C308 N311 1.314 . S
C308 H314 0.930 . S
C309 N311 1.279 1_556 S
C309 C312 1.358 . S
C309 H315 0.930 . S
C310 C308 1.353 1_556 S
C310 C313 1.348 . S
C310 H348 0.929 . S
N311 Li266 1.990 . S
N311 C308 1.314 . S
N311 C309 1.279 1_554 S
C312 C309 1.358 . S
C312 C313 1.356 . S
C312 H349 0.930 . S
C313 C310 1.348 . S
C313 C312 1.356 . S
H314 C308 0.930 . S
H315 C309 0.930 . S
C316 N317 1.314 . S
C316 C318 1.353 . S
C316 H322 0.930 . S
N317 Li267 1.990 . S
N317 C316 1.314 . S
N317 C320 1.279 . S
C318 C316 1.353 . S
C318 C321 1.348 . S
C318 H350 0.929 . S
C319 C320 1.358 . S
C319 C321 1.356 . S
C319 H351 0.930 . S
C320 N317 1.279 . S
C320 C319 1.358 . S
C320 H323 0.930 . S
C321 C318 1.348 . S
C321 C319 1.356 . S
H322 C316 0.930 . S
H323 C320 0.930 . S
O324 Li264 1.956 . S
O324 Li265 1.970 1_455 S
O324 Li266 1.961 . S
O324 C268 1.325 . S
O325 Li264 1.970 1_655 S
O325 Li265 1.956 . S
O325 Li267 1.961 . S
O325 C274 1.325 . S
O326 Li264 1.961 . S
O326 Li266 1.956 . S
O326 Li267 1.970 1_455 S
O326 C296 1.325 . S
O327 Li265 1.961 . S
O327 Li266 1.970 1_655 S
O327 Li267 1.956 . S
O327 C302 1.325 . S
H328 C270 0.929 . S
H329 C271 0.930 . S
H330 C272 0.930 . S
H331 C273 0.930 . S
H332 C275 0.930 . S
H333 C277 0.929 . S
H334 C278 0.930 . S
H335 C279 0.930 1_455 S
H336 C282 0.930 . S
H337 C285 0.929 . S
H338 C290 0.929 . S
H339 C291 0.930 . S
H340 C298 0.971 . S
H341 C299 0.930 . S
H342 C300 0.930 1_655 S
H343 C301 0.930 . S
H344 C303 0.929 . S
H345 C304 0.930 . S
H346 C305 0.883 1_556 S
H347 C306 0.930 . S
H348 C310 0.929 . S
H349 C312 0.930 . S
H350 C318 0.929 . S
H351 C319 0.930 . S
Li352 N369 1.990 . S
Li352 O412 1.956 . S
Li352 O413 1.970 . S
Li352 O414 1.961 1_554 S
Li353 N377 1.990 . S
Li353 O412 1.970 . S
Li353 O413 1.956 . S
Li353 O415 1.965 1_554 S
Li354 N399 1.990 . S
Li354 O412 1.961 1_556 S
Li354 O414 1.956 . S
Li354 O415 1.969 . S
Li355 N405 1.990 . S
Li355 O413 1.961 1_556 S
Li355 O414 1.970 . S
Li355 O415 1.956 . S
C356 C358 1.348 . S
C356 C359 1.356 . S
C356 O412 1.325 . S
N357 C360 1.314 . S
N357 C361 1.279 . S
C358 C356 1.348 . S
C358 C360 1.353 . S
C358 H416 0.929 . S
C359 C356 1.356 . S
C359 C361 1.358 . S
C359 H417 0.930 . S
C360 N357 1.314 . S
C360 C358 1.353 . S
C360 H418 0.930 . S
C361 N357 1.279 . S
C361 C359 1.358 . S
C361 H419 0.930 . S
C362 C365 1.348 . S
C362 C366 1.356 . S
C362 O413 1.325 . S
C363 N364 1.279 . S
C363 C366 1.358 . S
C363 H420 0.930 . S
N364 C363 1.279 . S
N364 C367 1.314 . S
C365 C362 1.348 . S
C365 C367 1.353 . S
C365 H421 0.929 . S
C366 C362 1.356 . S
C366 C363 1.358 . S
C366 H422 0.930 . S
C367 N364 1.314 . S
C367 C365 1.353 . S
C367 H423 0.930 . S
C368 N369 1.314 . S
C368 C373 1.353 . S
C368 H374 0.930 . S
N369 Li352 1.990 . S
N369 C368 1.314 . S
N369 C371 1.279 . S
C370 C371 1.358 . S
C370 C372 1.356 . S
C370 H424 0.930 . S
C371 N369 1.279 . S
C371 C370 1.358 . S
C371 H375 0.930 . S
C372 C370 1.356 . S
C372 C373 1.348 . S
C373 C368 1.353 . S
C373 C372 1.348 . S
C373 H425 0.929 . S
H374 C368 0.930 . S
H375 C371 0.930 . S
C376 N377 1.314 . S
C376 C378 1.353 . S
C376 H382 0.930 . S
N377 Li353 1.990 . S
N377 C376 1.314 . S
N377 C380 1.279 . S
C378 C376 1.353 . S
C378 C381 1.348 . S
C378 H426 0.929 . S
C379 C380 1.358 . S
C379 C381 1.356 . S
C379 H427 0.930 . S
C380 N377 1.279 . S
C380 C379 1.358 . S
C380 H383 0.930 . S
C381 C378 1.348 . S
C381 C379 1.356 . S
H382 C376 0.930 . S
H383 C380 0.930 . S
C384 C386 1.348 . S
C384 C387 1.356 . S
C384 O414 1.325 . S
N385 C388 1.314 . S
N385 C389 1.279 . S
C386 C384 1.348 . S
C386 C388 1.353 . S
C386 H428 0.929 . S
C387 C384 1.356 . S
C387 C389 1.358 . S
C387 H429 0.930 . S
C388 N385 1.314 . S
C388 C386 1.353 . S
C388 H430 0.930 . S
C389 N385 1.279 . S
C389 C387 1.358 . S
C389 H431 0.930 . S
C390 C391 1.348 . S
C390 C392 1.356 1_556 S
C390 O415 1.323 . S
C391 C390 1.348 . S
C391 C393 1.353 . S
C391 H432 0.929 . S
C392 C390 1.356 1_554 S
C392 C394 1.358 1_554 S
C392 H433 0.930 . S
C393 C391 1.353 . S
C393 N395 1.314 . S
C393 H434 0.930 . S
C394 C392 1.358 1_556 S
C394 N395 1.279 . S
C394 H435 0.930 1_556 S
N395 C393 1.314 . S
N395 C394 1.279 . S
C396 C398 1.353 . S
C396 N399 1.314 . S
C396 H402 0.930 . S
C397 N399 1.279 . S
C397 C400 1.358 . S
C397 H403 0.930 . S
C398 C396 1.353 . S
C398 C401 1.348 . S
C398 H436 0.929 . S
N399 Li354 1.990 . S
N399 C396 1.314 . S
N399 C397 1.279 . S
C400 C397 1.358 . S
C400 C401 1.356 . S
C400 H437 0.930 . S
C401 C398 1.348 . S
C401 C400 1.356 . S
H402 C396 0.930 . S
H403 C397 0.930 . S
C404 N405 1.314 . S
C404 C406 1.353 . S
C404 H410 0.930 . S
N405 Li355 1.990 . S
N405 C404 1.314 . S
N405 C408 1.279 . S
C406 C404 1.353 . S
C406 C409 1.348 . S
C406 H438 0.929 . S
C407 C408 1.358 . S
C407 C409 1.356 . S
C407 H439 0.930 . S
C408 N405 1.279 . S
C408 C407 1.358 . S
C408 H411 0.930 . S
C409 C406 1.348 . S
C409 C407 1.356 . S
H410 C404 0.930 . S
H411 C408 0.930 . S
O412 Li352 1.956 . S
O412 Li353 1.970 . S
O412 Li354 1.961 1_554 S
O412 C356 1.325 . S
O413 Li352 1.970 . S
O413 Li353 1.956 . S
O413 Li355 1.961 1_554 S
O413 C362 1.325 . S
O414 Li352 1.961 1_556 S
O414 Li354 1.956 . S
O414 Li355 1.970 . S
O414 C384 1.325 . S
O415 Li353 1.965 1_556 S
O415 Li354 1.969 . S
O415 Li355 1.956 . S
O415 C390 1.323 . S
H416 C358 0.929 . S
H417 C359 0.930 . S
H418 C360 0.930 . S
H419 C361 0.930 . S
H420 C363 0.930 . S
H421 C365 0.929 . S
H422 C366 0.930 . S
H423 C367 0.930 . S
H424 C370 0.930 . S
H425 C373 0.929 . S
H426 C378 0.929 . S
H427 C379 0.930 . S
H428 C386 0.929 . S
H429 C387 0.930 . S
H430 C388 0.930 . S
H431 C389 0.930 . S
H432 C391 0.929 . S
H433 C392 0.930 . S
H434 C393 0.930 . S
H435 C394 0.930 1_554 S
H436 C398 0.929 . S
H437 C400 0.930 . S
H438 C406 0.929 . S
H439 C407 0.930 . S
Li440 N457 1.990 . S
Li440 O500 1.956 . S
Li440 O501 1.970 1_565 S
Li440 O502 1.961 . S
Li441 N465 1.990 . S
Li441 O500 1.970 1_545 S
Li441 O501 1.956 . S
Li441 O503 1.961 . S
Li442 N487 1.990 . S
Li442 O500 1.961 . S
Li442 O502 1.956 . S
Li442 O503 1.970 1_565 S
Li443 N493 1.990 . S
Li443 O501 1.961 . S
Li443 O502 1.970 1_545 S
Li443 O503 1.956 . S
C444 C446 1.348 . S
C444 C447 1.356 . S
C444 O500 1.325 . S
N445 C448 1.314 . S
N445 C449 1.279 . S
C446 C444 1.348 . S
C446 C448 1.353 . S
C446 H504 0.929 . S
C447 C444 1.356 . S
C447 C449 1.358 . S
C447 H505 0.930 . S
C448 N445 1.314 . S
C448 C446 1.353 . S
C448 H506 0.930 . S
C449 N445 1.279 . S
C449 C447 1.358 . S
C449 H507 0.930 . S
C450 C453 1.348 . S
C450 C454 1.356 . S
C450 O501 1.325 . S
C451 N452 1.279 . S
C451 C454 1.358 . S
C451 H508 0.930 . S
N452 C451 1.279 . S
N452 C455 1.314 . S
C453 C450 1.348 . S
C453 C455 1.353 . S
C453 H509 0.929 1_545 S
C454 C450 1.356 . S
C454 C451 1.358 . S
C454 H510 0.930 . S
C455 N452 1.314 . S
C455 C453 1.353 . S
C455 H511 0.930 . S
C456 N457 1.314 . S
C456 C461 1.353 . S
C456 H462 0.930 . S
N457 Li440 1.990 . S
N457 C456 1.314 . S
N457 C459 1.279 . S
C458 C459 1.358 . S
C458 C460 1.356 . S
C458 H512 0.930 . S
C459 N457 1.279 . S
C459 C458 1.358 . S
C459 H463 0.930 . S
C460 C458 1.356 . S
C460 C461 1.348 . S
C461 C456 1.353 . S
C461 C460 1.348 . S
C461 H513 0.929 . S
H462 C456 0.930 . S
H463 C459 0.930 . S
C464 N465 1.314 . S
C464 C466 1.353 . S
C464 H470 0.930 . S
N465 Li441 1.990 . S
N465 C464 1.314 . S
N465 C468 1.279 . S
C466 C464 1.353 . S
C466 C469 1.348 . S
C466 H514 0.929 . S
C467 C468 1.358 . S
C467 C469 1.356 . S
C467 H515 0.930 . S
C468 N465 1.279 . S
C468 C467 1.358 . S
C468 H471 0.930 . S
C469 C466 1.348 . S
C469 C467 1.356 . S
H470 C464 0.930 . S
H471 C468 0.930 . S
C472 C474 1.348 1_565 S
C472 C475 1.356 . S
C472 O502 1.325 . S
N473 C476 1.314 . S
N473 C477 1.279 . S
C474 C472 1.348 1_545 S
C474 C476 1.353 1_544 S
C474 H516 0.929 . S
C475 C472 1.356 . S
C475 C477 1.358 1_554 S
C475 H517 0.930 . S
C476 N473 1.314 . S
C476 C474 1.353 1_566 S
C476 H518 0.930 1_565 S
C477 N473 1.279 . S
C477 C475 1.358 1_556 S
C477 H519 0.930 . S
C478 C479 1.348 . S
C478 C480 1.356 . S
C478 O503 1.325 . S
C479 C478 1.348 . S
C479 C481 1.353 . S
C479 H520 0.929 . S
C480 C478 1.356 . S
C480 C482 1.358 . S
C480 H521 0.930 . S
C481 C479 1.353 . S
C481 N483 1.314 . S
C481 H522 0.930 . S
C482 C480 1.358 . S
C482 N483 1.279 . S
C482 H523 0.930 . S
N483 C481 1.314 . S
N483 C482 1.279 . S
C484 C486 1.353 1_554 S
C484 N487 1.314 . S
C484 H490 0.930 . S
C485 N487 1.279 1_556 S
C485 C488 1.358 . S
C485 H491 0.930 . S
C486 C484 1.353 1_556 S
C486 C489 1.348 . S
C486 H524 0.929 . S
N487 Li442 1.990 . S
N487 C484 1.314 . S
N487 C485 1.279 1_554 S
C488 C485 1.358 . S
C488 C489 1.356 . S
C488 H525 0.930 . S
C489 C486 1.348 . S
C489 C488 1.356 . S
H490 C484 0.930 . S
H491 C485 0.930 . S
C492 N493 1.314 . S
C492 C494 1.353 . S
C492 H498 0.930 . S
N493 Li443 1.990 . S
N493 C492 1.314 . S
N493 C496 1.279 . S
C494 C492 1.353 . S
C494 C497 1.348 . S
C494 H526 0.929 . S
C495 C496 1.358 . S
C495 C497 1.356 . S
C495 H527 0.930 . S
C496 N493 1.279 . S
C496 C495 1.358 . S
C496 H499 0.930 . S
C497 C494 1.348 . S
C497 C495 1.356 . S
H498 C492 0.930 . S
H499 C496 0.930 . S
O500 Li440 1.956 . S
O500 Li441 1.970 1_565 S
O500 Li442 1.961 . S
O500 C444 1.325 . S
O501 Li440 1.970 1_545 S
O501 Li441 1.956 . S
O501 Li443 1.961 . S
O501 C450 1.325 . S
O502 Li440 1.961 . S
O502 Li442 1.956 . S
O502 Li443 1.970 1_565 S
O502 C472 1.325 . S
O503 Li441 1.961 . S
O503 Li442 1.970 1_545 S
O503 Li443 1.956 . S
O503 C478 1.325 . S
H504 C446 0.929 . S
H505 C447 0.930 . S
H506 C448 0.930 . S
H507 C449 0.930 . S
H508 C451 0.930 . S
H509 C453 0.929 1_565 S
H510 C454 0.930 . S
H511 C455 0.930 . S
H512 C458 0.930 . S
H513 C461 0.929 . S
H514 C466 0.929 . S
H515 C467 0.930 . S
H516 C474 0.929 . S
H517 C475 0.930 . S
H518 C476 0.930 1_545 S
H519 C477 0.930 . S
H520 C479 0.929 . S
H521 C480 0.930 . S
H522 C481 0.930 . S
H523 C482 0.930 . S
H524 C486 0.929 . S
H525 C488 0.930 . S
H526 C494 0.929 . S
H527 C495 0.930 . S
Li528 N545 1.990 . S
Li528 O588 1.956 . S
Li528 O589 1.970 . S
Li528 O590 1.961 . S
Li529 N553 1.990 . S
Li529 O588 1.970 . S
Li529 O589 1.956 . S
Li529 O591 1.961 . S
Li530 N575 1.990 . S
Li530 O588 1.961 . S
Li530 O590 1.956 . S
Li530 O591 1.970 . S
Li531 N581 1.990 . S
Li531 O589 1.961 . S
Li531 O590 1.970 . S
Li531 O591 1.956 . S
C532 C534 1.348 . S
C532 C535 1.356 . S
C532 O588 1.325 . S
N533 C536 1.314 . S
N533 C537 1.279 . S
C534 C532 1.348 . S
C534 C536 1.353 . S
C534 H592 0.929 . S
C535 C532 1.356 . S
C535 C537 1.358 . S
C535 H593 0.930 . S
C536 N533 1.314 . S
C536 C534 1.353 . S
C536 H594 0.930 . S
C537 N533 1.279 . S
C537 C535 1.358 . S
C537 H595 0.930 . S
C538 C541 1.348 . S
C538 C542 1.356 . S
C538 O589 1.325 . S
C539 N540 1.279 . S
C539 C542 1.358 . S
C539 H596 0.930 . S
N540 C539 1.279 . S
N540 C543 1.314 . S
C541 C538 1.348 . S
C541 C543 1.353 . S
C541 H597 0.929 . S
C542 C538 1.356 . S
C542 C539 1.358 . S
C542 H598 0.930 . S
C543 N540 1.314 . S
C543 C541 1.353 . S
C543 H599 0.930 . S
C544 N545 1.314 . S
C544 C549 1.353 . S
C544 H550 0.930 . S
N545 Li528 1.990 . S
N545 C544 1.314 . S
N545 C547 1.279 . S
C546 C547 1.358 . S
C546 C548 1.356 . S
C546 H600 0.930 . S
C547 N545 1.279 . S
C547 C546 1.358 . S
C547 H551 0.930 . S
C548 C546 1.356 . S
C548 C549 1.348 . S
C549 C544 1.353 . S
C549 C548 1.348 . S
C549 H601 0.929 . S
H550 C544 0.930 . S
H551 C547 0.930 . S
C552 N553 1.314 . S
C552 C554 1.353 . S
C552 H558 0.930 . S
N553 Li529 1.990 . S
N553 C552 1.314 . S
N553 C556 1.279 . S
C554 C552 1.353 . S
C554 C557 1.348 . S
C554 H602 0.929 . S
C555 C556 1.358 . S
C555 C557 1.356 . S
C555 H603 0.930 . S
C556 N553 1.279 . S
C556 C555 1.358 . S
C556 H559 0.930 . S
C557 C554 1.348 . S
C557 C555 1.356 . S
H558 C552 0.930 . S
H559 C556 0.930 . S
C560 C562 1.348 . S
C560 C563 1.356 . S
C560 O590 1.325 . S
N561 C564 1.314 . S
N561 C565 1.279 . S
C562 C560 1.348 . S
C562 C564 1.353 . S
C562 H604 0.929 . S
C563 C560 1.356 . S
C563 C565 1.358 . S
C563 H605 0.930 . S
C564 N561 1.314 . S
C564 C562 1.353 . S
C564 H606 0.930 . S
C565 N561 1.279 . S
C565 C563 1.358 . S
C565 H607 0.930 . S
C566 C567 1.348 . S
C566 C568 1.356 . S
C566 O591 1.325 . S
C567 C566 1.348 . S
C567 C569 1.353 . S
C567 H608 0.929 . S
C568 C566 1.356 . S
C568 C570 1.358 . S
C568 H609 0.930 . S
C569 C567 1.353 . S
C569 N571 1.314 . S
C569 H610 0.930 . S
C570 C568 1.358 . S
C570 N571 1.279 . S
C570 H611 0.930 . S
N571 C569 1.314 . S
N571 C570 1.279 . S
C572 C574 1.353 . S
C572 N575 1.314 . S
C572 H578 0.930 . S
C573 N575 1.279 . S
C573 C576 1.358 . S
C573 H579 0.930 . S
C574 C572 1.353 . S
C574 C577 1.348 . S
C574 H612 0.929 . S
N575 Li530 1.990 . S
N575 C572 1.314 . S
N575 C573 1.279 . S
C576 C573 1.358 . S
C576 C577 1.356 . S
C576 H613 0.930 . S
C577 C574 1.348 . S
C577 C576 1.356 . S
H578 C572 0.930 . S
H579 C573 0.930 . S
C580 N581 1.314 . S
C580 C582 1.353 . S
C580 H586 0.930 . S
N581 Li531 1.990 . S
N581 C580 1.314 . S
N581 C584 1.279 . S
C582 C580 1.353 . S
C582 C585 1.348 . S
C582 H614 0.929 . S
C583 C584 1.358 . S
C583 C585 1.356 . S
C583 H615 0.930 . S
C584 N581 1.279 . S
C584 C583 1.358 . S
C584 H587 0.930 . S
C585 C582 1.348 . S
C585 C583 1.356 . S
H586 C580 0.930 . S
H587 C584 0.930 . S
O588 Li528 1.956 . S
O588 Li529 1.970 . S
O588 Li530 1.961 . S
O588 C532 1.325 . S
O589 Li528 1.970 . S
O589 Li529 1.956 . S
O589 Li531 1.961 . S
O589 C538 1.325 . S
O590 Li528 1.961 . S
O590 Li530 1.956 . S
O590 Li531 1.970 . S
O590 C560 1.325 . S
O591 Li529 1.961 . S
O591 Li530 1.970 . S
O591 Li531 1.956 . S
O591 C566 1.325 . S
H592 C534 0.929 . S
H593 C535 0.930 . S
H594 C536 0.930 . S
H595 C537 0.930 . S
H596 C539 0.930 . S
H597 C541 0.929 . S
H598 C542 0.930 . S
H599 C543 0.930 . S
H600 C546 0.930 . S
H601 C549 0.929 . S
H602 C554 0.929 . S
H603 C555 0.930 . S
H604 C562 0.929 . S
H605 C563 0.930 . S
H606 C564 0.930 . S
H607 C565 0.930 . S
H608 C567 0.929 . S
H609 C568 0.930 . S
H610 C569 0.930 . S
H611 C570 0.930 . S
H612 C574 0.929 . S
H613 C576 0.930 . S
H614 C582 0.929 . S
H615 C583 0.930 . S
Li616 N633 1.990 . S
Li616 O676 1.956 . S
Li616 O677 1.970 . S
Li616 O678 1.961 . S
Li617 N641 1.990 . S
Li617 O676 1.970 . S
Li617 O677 1.956 . S
Li617 O679 1.961 . S
Li618 N663 1.990 1_565 S
Li618 O676 1.961 . S
Li618 O678 1.956 . S
Li618 O679 1.970 . S
Li619 N669 1.990 . S
Li619 O677 1.961 . S
Li619 O678 1.970 . S
Li619 O679 1.956 . S
C620 C622 1.348 . S
C620 C623 1.356 . S
C620 O676 1.325 . S
N621 C624 1.314 . S
N621 C625 1.279 . S
C622 C620 1.348 . S
C622 C624 1.353 . S
C622 H680 0.929 . S
C623 C620 1.356 . S
C623 C625 1.358 . S
C623 H681 0.930 . S
C624 N621 1.314 . S
C624 C622 1.353 . S
C624 H682 0.930 . S
C625 N621 1.279 . S
C625 C623 1.358 . S
C625 H683 0.930 . S
C626 C629 1.348 . S
C626 C630 1.356 . S
C626 O677 1.325 . S
C627 N628 1.279 . S
C627 C630 1.358 . S
C627 H684 0.930 . S
N628 C627 1.279 . S
N628 C631 1.314 . S
C629 C626 1.348 . S
C629 C631 1.353 . S
C629 H685 0.929 . S
C630 C626 1.356 . S
C630 C627 1.358 . S
C630 H686 0.930 . S
C631 N628 1.314 . S
C631 C629 1.353 . S
C631 H687 0.930 . S
C632 N633 1.314 . S
C632 C637 1.353 . S
C632 H638 0.930 . S
N633 Li616 1.990 . S
N633 C632 1.314 . S
N633 C635 1.279 . S
C634 C635 1.358 . S
C634 C636 1.356 . S
C634 H688 0.930 . S
C635 N633 1.279 . S
C635 C634 1.358 . S
C635 H639 0.930 . S
C636 C634 1.356 . S
C636 C637 1.348 . S
C637 C632 1.353 . S
C637 C636 1.348 . S
C637 H689 0.929 . S
H638 C632 0.930 . S
H639 C635 0.930 . S
C640 N641 1.314 . S
C640 C642 1.353 . S
C640 H646 0.930 . S
N641 Li617 1.990 . S
N641 C640 1.314 . S
N641 C644 1.279 . S
C642 C640 1.353 . S
C642 C645 1.348 . S
C642 H690 0.929 . S
C643 C644 1.358 . S
C643 C645 1.356 . S
C643 H691 0.930 . S
C644 N641 1.279 . S
C644 C643 1.358 . S
C644 H647 0.930 . S
C645 C642 1.348 . S
C645 C643 1.356 . S
H646 C640 0.930 . S
H647 C644 0.930 . S
C648 C650 1.348 . S
C648 C651 1.356 . S
C648 O678 1.325 . S
N649 C652 1.314 . S
N649 C653 1.279 . S
C650 C648 1.348 . S
C650 C652 1.353 1_565 S
C650 H692 0.929 . S
C651 C648 1.356 . S
C651 C653 1.358 1_565 S
C651 H693 0.930 . S
C652 N649 1.314 . S
C652 C650 1.353 1_545 S
C652 H694 0.930 . S
C653 N649 1.279 . S
C653 C651 1.358 1_545 S
C653 H695 0.930 . S
C654 C655 1.348 . S
C654 C656 1.356 . S
C654 O679 1.325 . S
C655 C654 1.348 . S
C655 C657 1.353 . S
C655 H696 0.929 . S
C656 C654 1.356 . S
C656 C658 1.358 . S
C656 H697 0.930 . S
C657 C655 1.353 . S
C657 N659 1.314 . S
C657 H698 0.930 1_565 S
C658 C656 1.358 . S
C658 N659 1.279 . S
C658 H699 0.930 . S
N659 C657 1.314 . S
N659 C658 1.279 . S
C660 C662 1.353 . S
C660 N663 1.314 . S
C660 H666 0.930 1_545 S
C661 N663 1.279 . S
C661 C664 1.358 . S
C661 H667 0.930 . S
C662 C660 1.353 . S
C662 C665 1.348 . S
C662 H700 0.929 . S
N663 Li618 1.990 1_545 S
N663 C660 1.314 . S
N663 C661 1.279 . S
C664 C661 1.358 . S
C664 C665 1.356 . S
C664 H701 0.930 . S
C665 C662 1.348 . S
C665 C664 1.356 . S
H666 C660 0.930 1_565 S
H667 C661 0.930 . S
C668 N669 1.314 . S
C668 C670 1.353 . S
C668 H674 0.930 . S
N669 Li619 1.990 . S
N669 C668 1.314 . S
N669 C672 1.279 . S
C670 C668 1.353 . S
C670 C673 1.348 . S
C670 H702 0.929 . S
C671 C672 1.358 . S
C671 C673 1.356 . S
C671 H703 0.930 . S
C672 N669 1.279 . S
C672 C671 1.358 . S
C672 H675 0.930 . S
C673 C670 1.348 . S
C673 C671 1.356 . S
H674 C668 0.930 . S
H675 C672 0.930 . S
O676 Li616 1.956 . S
O676 Li617 1.970 . S
O676 Li618 1.961 . S
O676 C620 1.325 . S
O677 Li616 1.970 . S
O677 Li617 1.956 . S
O677 Li619 1.961 . S
O677 C626 1.325 . S
O678 Li616 1.961 . S
O678 Li618 1.956 . S
O678 Li619 1.970 . S
O678 C648 1.325 . S
O679 Li617 1.961 . S
O679 Li618 1.970 . S
O679 Li619 1.956 . S
O679 C654 1.325 . S
H680 C622 0.929 . S
H681 C623 0.930 . S
H682 C624 0.930 . S
H683 C625 0.930 . S
H684 C627 0.930 . S
H685 C629 0.929 . S
H686 C630 0.930 . S
H687 C631 0.930 . S
H688 C634 0.930 . S
H689 C637 0.929 . S
H690 C642 0.929 . S
H691 C643 0.930 . S
H692 C650 0.929 . S
H693 C651 0.930 . S
H694 C652 0.930 . S
H695 C653 0.930 . S
H696 C655 0.929 . S
H697 C656 0.930 . S
H698 C657 0.930 1_545 S
H699 C658 0.930 . S
H700 C662 0.929 . S
H701 C664 0.930 . S
H702 C670 0.929 . S
H703 C671 0.930 . S
Li704 N721 1.990 . S
Li704 O764 1.956 . S
Li704 O765 1.970 . S
Li704 O766 1.961 . S
Li705 N729 1.990 . S
Li705 O764 1.970 . S
Li705 O765 1.956 . S
Li705 O767 1.961 . S
Li706 N751 1.990 . S
Li706 O764 1.961 . S
Li706 O766 1.956 . S
Li706 O767 1.970 . S
Li707 N757 1.990 . S
Li707 O765 1.961 . S
Li707 O766 1.970 . S
Li707 O767 1.956 . S
C708 C710 1.348 . S
C708 C711 1.356 . S
C708 O764 1.325 . S
N709 C712 1.314 . S
N709 C713 1.279 . S
C710 C708 1.348 . S
C710 C712 1.353 . S
C710 H768 0.929 . S
C711 C708 1.356 . S
C711 C713 1.358 . S
C711 H769 0.930 . S
C712 N709 1.314 . S
C712 C710 1.353 . S
C712 H770 0.930 . S
C713 N709 1.279 . S
C713 C711 1.358 . S
C713 H771 0.930 . S
C714 C717 1.348 . S
C714 C718 1.356 . S
C714 O765 1.325 . S
C715 N716 1.279 . S
C715 C718 1.358 . S
C715 H772 0.930 . S
N716 C715 1.279 . S
N716 C719 1.314 . S
C717 C714 1.348 . S
C717 C719 1.353 . S
C717 H773 0.929 . S
C718 C714 1.356 . S
C718 C715 1.358 . S
C718 H774 0.930 . S
C719 N716 1.314 . S
C719 C717 1.353 . S
C719 H775 0.930 . S
C720 N721 1.314 . S
C720 C725 1.353 . S
C720 H726 0.930 . S
N721 Li704 1.990 . S
N721 C720 1.314 . S
N721 C723 1.279 . S
C722 C723 1.358 . S
C722 C724 1.356 . S
C722 H776 0.930 . S
C723 N721 1.279 . S
C723 C722 1.358 . S
C723 H727 0.930 . S
C724 C722 1.356 . S
C724 C725 1.348 . S
C725 C720 1.353 . S
C725 C724 1.348 . S
C725 H777 0.929 . S
H726 C720 0.930 . S
H727 C723 0.930 . S
C728 N729 1.314 . S
C728 C730 1.353 . S
C728 H734 0.930 . S
N729 Li705 1.990 . S
N729 C728 1.314 . S
N729 C732 1.279 . S
C730 C728 1.353 . S
C730 C733 1.348 . S
C730 H778 0.929 . S
C731 C732 1.358 . S
C731 C733 1.356 . S
C731 H779 0.930 . S
C732 N729 1.279 . S
C732 C731 1.358 . S
C732 H735 0.930 . S
C733 C730 1.348 . S
C733 C731 1.356 . S
H734 C728 0.930 . S
H735 C732 0.930 . S
C736 C738 1.348 . S
C736 C739 1.356 . S
C736 O766 1.325 . S
N737 C740 1.314 1_655 S
N737 C741 1.279 1_655 S
C738 C736 1.348 . S
C738 C740 1.353 . S
C738 H780 0.929 . S
C739 C736 1.356 . S
C739 C741 1.358 . S
C739 H781 0.930 . S
C740 N737 1.314 1_455 S
C740 C738 1.353 . S
C740 H782 0.930 1_455 S
C741 N737 1.279 1_455 S
C741 C739 1.358 . S
C741 H783 0.930 . S
C742 C743 1.348 . S
C742 C744 1.356 . S
C742 O767 1.325 . S
C743 C742 1.348 . S
C743 C745 1.353 . S
C743 H784 0.929 . S
C744 C742 1.356 . S
C744 C746 1.358 . S
C744 H785 0.930 . S
C745 C743 1.353 . S
C745 N747 1.314 . S
C745 H786 0.930 . S
C746 C744 1.358 . S
C746 N747 1.279 . S
C746 H787 0.930 . S
N747 C745 1.314 . S
N747 C746 1.279 . S
C748 C750 1.353 1_455 S
C748 N751 1.314 . S
C748 H754 0.930 . S
C749 N751 1.279 1_655 S
C749 C752 1.358 . S
C749 H755 0.930 . S
C750 C748 1.353 1_655 S
C750 C753 1.348 . S
C750 H788 0.929 . S
N751 Li706 1.990 . S
N751 C748 1.314 . S
N751 C749 1.279 1_455 S
C752 C749 1.358 . S
C752 C753 1.356 . S
C752 H789 0.930 . S
C753 C750 1.348 . S
C753 C752 1.356 . S
H754 C748 0.930 . S
H755 C749 0.930 . S
C756 N757 1.314 . S
C756 C758 1.353 . S
C756 H762 0.930 . S
N757 Li707 1.990 . S
N757 C756 1.314 . S
N757 C760 1.279 . S
C758 C756 1.353 . S
C758 C761 1.348 . S
C758 H790 0.929 . S
C759 C760 1.358 . S
C759 C761 1.356 . S
C759 H791 0.930 . S
C760 N757 1.279 . S
C760 C759 1.358 . S
C760 H763 0.930 . S
C761 C758 1.348 . S
C761 C759 1.356 . S
H762 C756 0.930 . S
H763 C760 0.930 . S
O764 Li704 1.956 . S
O764 Li705 1.970 . S
O764 Li706 1.961 . S
O764 C708 1.325 . S
O765 Li704 1.970 . S
O765 Li705 1.956 . S
O765 Li707 1.961 . S
O765 C714 1.325 . S
O766 Li704 1.961 . S
O766 Li706 1.956 . S
O766 Li707 1.970 . S
O766 C736 1.325 . S
O767 Li705 1.961 . S
O767 Li706 1.970 . S
O767 Li707 1.956 . S
O767 C742 1.325 . S
H768 C710 0.929 . S
H769 C711 0.930 . S
H770 C712 0.930 . S
H771 C713 0.930 . S
H772 C715 0.930 . S
H773 C717 0.929 . S
H774 C718 0.930 . S
H775 C719 0.930 . S
H776 C722 0.930 . S
H777 C725 0.929 . S
H778 C730 0.929 . S
H779 C731 0.930 . S
H780 C738 0.929 . S
H781 C739 0.930 . S
H782 C740 0.930 1_655 S
H783 C741 0.930 . S
H784 C743 0.929 . S
H785 C744 0.930 . S
H786 C745 0.930 . S
H787 C746 0.930 . S
H788 C750 0.929 . S
H789 C752 0.930 . S
H790 C758 0.929 . S
H791 C759 0.930 . S
Li792 N809 1.990 1_565 S
Li792 O852 1.956 . S
Li792 O853 1.970 . S
Li792 O854 1.961 . S
Li793 N817 1.990 . S
Li793 O852 1.970 . S
Li793 O853 1.956 . S
Li793 O855 1.961 . S
Li794 N839 1.990 . S
Li794 O852 1.961 . S
Li794 O854 1.956 . S
Li794 O855 1.970 . S
Li795 N845 1.990 . S
Li795 O853 1.961 . S
Li795 O854 1.970 . S
Li795 O855 1.956 . S
C796 C798 1.348 . S
C796 C799 1.356 . S
C796 O852 1.325 . S
N797 C800 1.314 . S
N797 C801 1.279 . S
C798 C796 1.348 . S
C798 C800 1.353 . S
C798 H856 0.929 . S
C799 C796 1.356 . S
C799 C801 1.358 . S
C799 H857 0.930 . S
C800 N797 1.314 . S
C800 C798 1.353 . S
C800 H858 0.930 . S
C801 N797 1.279 . S
C801 C799 1.358 . S
C801 H859 0.930 . S
C802 C805 1.348 . S
C802 C806 1.356 . S
C802 O853 1.325 . S
C803 N804 1.279 . S
C803 C806 1.358 . S
C803 H860 0.930 . S
N804 C803 1.279 . S
N804 C807 1.314 . S
C805 C802 1.348 . S
C805 C807 1.353 . S
C805 H861 0.929 . S
C806 C802 1.356 . S
C806 C803 1.358 . S
C806 H862 0.930 . S
C807 N804 1.314 . S
C807 C805 1.353 . S
C807 H863 0.930 . S
C808 N809 1.314 . S
C808 C813 1.353 . S
C808 H814 0.930 . S
N809 Li792 1.990 1_545 S
N809 C808 1.314 . S
N809 C811 1.279 . S
C810 C811 1.358 . S
C810 C812 1.356 . S
C810 H864 0.930 . S
C811 N809 1.279 . S
C811 C810 1.358 . S
C811 H815 0.930 1_545 S
C812 C810 1.356 . S
C812 C813 1.348 . S
C813 C808 1.353 . S
C813 C812 1.348 . S
C813 H865 0.929 . S
H814 C808 0.930 . S
H815 C811 0.930 1_565 S
C816 N817 1.314 . S
C816 C818 1.353 . S
C816 H822 0.930 . S
N817 Li793 1.990 . S
N817 C816 1.314 . S
N817 C820 1.279 . S
C818 C816 1.353 . S
C818 C821 1.348 . S
C818 H866 0.929 . S
C819 C820 1.358 . S
C819 C821 1.356 . S
C819 H867 0.930 . S
C820 N817 1.279 . S
C820 C819 1.358 . S
C820 H823 0.930 . S
C821 C818 1.348 . S
C821 C819 1.356 . S
H822 C816 0.930 . S
H823 C820 0.930 . S
C824 C826 1.348 . S
C824 C827 1.356 . S
C824 O854 1.325 . S
N825 C828 1.314 1_545 S
N825 C829 1.279 . S
C826 C824 1.348 . S
C826 C828 1.353 . S
C826 H868 0.929 . S
C827 C824 1.356 . S
C827 C829 1.358 1_565 S
C827 H869 0.930 . S
C828 N825 1.314 1_565 S
C828 C826 1.353 . S
C828 H870 0.930 . S
C829 N825 1.279 . S
C829 C827 1.358 1_545 S
C829 H871 0.930 . S
C830 C831 1.348 . S
C830 C832 1.356 . S
C830 O855 1.325 . S
C831 C830 1.348 . S
C831 C833 1.353 . S
C831 H872 0.929 . S
C832 C830 1.356 . S
C832 C834 1.358 . S
C832 H873 0.930 . S
C833 C831 1.353 . S
C833 N835 1.314 . S
C833 H874 0.930 . S
C834 C832 1.358 . S
C834 N835 1.279 . S
C834 H875 0.930 . S
N835 C833 1.314 . S
N835 C834 1.279 . S
C836 C838 1.353 . S
C836 N839 1.314 . S
C836 H842 0.930 . S
C837 N839 1.279 . S
C837 C840 1.358 . S
C837 H843 0.930 . S
C838 C836 1.353 . S
C838 C841 1.348 . S
C838 H876 0.929 . S
N839 Li794 1.990 . S
N839 C836 1.314 . S
N839 C837 1.279 . S
C840 C837 1.358 . S
C840 C841 1.356 . S
C840 H877 0.930 . S
C841 C838 1.348 . S
C841 C840 1.356 . S
H842 C836 0.930 . S
H843 C837 0.930 . S
C844 N845 1.314 . S
C844 C846 1.353 . S
C844 H850 0.930 . S
N845 Li795 1.990 . S
N845 C844 1.314 . S
N845 C848 1.279 . S
C846 C844 1.353 . S
C846 C849 1.348 . S
C846 H878 0.929 . S
C847 C848 1.358 . S
C847 C849 1.356 . S
C847 H879 0.930 . S
C848 N845 1.279 . S
C848 C847 1.358 . S
C848 H851 0.930 . S
C849 C846 1.348 . S
C849 C847 1.356 . S
H850 C844 0.930 . S
H851 C848 0.930 . S
O852 Li792 1.956 . S
O852 Li793 1.970 . S
O852 Li794 1.961 . S
O852 C796 1.325 . S
O853 Li792 1.970 . S
O853 Li793 1.956 . S
O853 Li795 1.961 . S
O853 C802 1.325 . S
O854 Li792 1.961 . S
O854 Li794 1.956 . S
O854 Li795 1.970 . S
O854 C824 1.325 . S
O855 Li793 1.961 . S
O855 Li794 1.970 . S
O855 Li795 1.956 . S
O855 C830 1.325 . S
H856 C798 0.929 . S
H857 C799 0.930 . S
H858 C800 0.930 . S
H859 C801 0.930 . S
H860 C803 0.930 . S
H861 C805 0.929 . S
H862 C806 0.930 . S
H863 C807 0.930 . S
H864 C810 0.930 . S
H865 C813 0.929 . S
H866 C818 0.929 . S
H867 C819 0.930 . S
H868 C826 0.929 . S
H869 C827 0.930 . S
H870 C828 0.930 . S
H871 C829 0.930 . S
H872 C831 0.929 . S
H873 C832 0.930 . S
H874 C833 0.930 . S
H875 C834 0.930 . S
H876 C838 0.929 . S
H877 C840 0.930 . S
H878 C846 0.929 . S
H879 C847 0.930 . S
Li880 N897 1.990 . S
Li880 O940 1.956 . S
Li880 O941 1.970 . S
Li880 O942 1.961 . S
Li881 N905 1.990 . S
Li881 O940 1.970 . S
Li881 O941 1.956 . S
Li881 O943 1.961 . S
Li882 N927 1.990 . S
Li882 O940 1.961 . S
Li882 O942 1.956 . S
Li882 O943 1.970 . S
Li883 N933 1.990 . S
Li883 O941 1.961 . S
Li883 O942 1.970 . S
Li883 O943 1.956 . S
C884 C886 1.348 . S
C884 C887 1.356 . S
C884 O940 1.325 . S
N885 C888 1.314 . S
N885 C889 1.279 . S
C886 C884 1.348 . S
C886 C888 1.353 . S
C886 H944 0.929 . S
C887 C884 1.356 . S
C887 C889 1.358 . S
C887 H945 0.930 . S
C888 N885 1.314 . S
C888 C886 1.353 . S
C888 H946 0.930 . S
C889 N885 1.279 . S
C889 C887 1.358 . S
C889 H947 0.930 . S
C890 C893 1.348 . S
C890 C894 1.356 . S
C890 O941 1.325 . S
C891 N892 1.279 . S
C891 C894 1.358 . S
C891 H948 0.930 . S
N892 C891 1.279 . S
N892 C895 1.314 . S
C893 C890 1.348 . S
C893 C895 1.353 . S
C893 H949 0.929 . S
C894 C890 1.356 . S
C894 C891 1.358 . S
C894 H950 0.930 . S
C895 N892 1.314 . S
C895 C893 1.353 . S
C895 H951 0.930 . S
C896 N897 1.314 . S
C896 C901 1.353 . S
C896 H902 0.930 . S
N897 Li880 1.990 . S
N897 C896 1.314 . S
N897 C899 1.279 . S
C898 C899 1.358 . S
C898 C900 1.356 . S
C898 H952 0.930 . S
C899 N897 1.279 . S
C899 C898 1.358 . S
C899 H903 0.930 . S
C900 C898 1.356 . S
C900 C901 1.348 . S
C901 C896 1.353 . S
C901 C900 1.348 . S
C901 H953 0.929 . S
H902 C896 0.930 . S
H903 C899 0.930 . S
C904 N905 1.314 1_655 S
C904 C906 1.353 . S
C904 H910 0.930 . S
N905 Li881 1.990 . S
N905 C904 1.314 1_455 S
N905 C908 1.305 . S
C906 C904 1.353 . S
C906 C909 1.348 . S
C906 H954 0.929 . S
C907 C908 1.316 1_655 S
C907 C909 1.356 . S
C907 H955 0.930 . S
C908 N905 1.305 . S
C908 C907 1.316 1_455 S
C908 H911 0.951 . S
C909 C906 1.348 . S
C909 C907 1.356 . S
H910 C904 0.930 . S
H911 C908 0.951 . S
C912 C914 1.348 . S
C912 C915 1.356 . S
C912 O942 1.325 . S
N913 C916 1.314 . S
N913 C917 1.279 . S
C914 C912 1.348 . S
C914 C916 1.353 . S
C914 H956 0.929 . S
C915 C912 1.356 . S
C915 C917 1.358 . S
C915 H957 0.930 . S
C916 N913 1.314 . S
C916 C914 1.353 . S
C916 H958 0.930 . S
C917 N913 1.279 . S
C917 C915 1.358 . S
C917 H959 0.930 . S
C918 C919 1.348 . S
C918 C920 1.356 . S
C918 O943 1.325 . S
C919 C918 1.348 . S
C919 C921 1.353 . S
C919 H960 0.929 . S
C920 C918 1.356 . S
C920 C922 1.358 1_455 S
C920 H961 0.930 . S
C921 C919 1.353 . S
C921 N923 1.314 1_455 S
C921 H962 0.930 . S
C922 C920 1.358 1_655 S
C922 N923 1.279 . S
C922 H963 0.930 . S
N923 C921 1.314 1_655 S
N923 C922 1.279 . S
C924 C926 1.353 . S
C924 N927 1.314 . S
C924 H930 0.930 . S
C925 N927 1.279 . S
C925 C928 1.358 . S
C925 H931 0.930 . S
C926 C924 1.353 . S
C926 C929 1.348 . S
C926 H964 0.929 . S
N927 Li882 1.990 . S
N927 C924 1.314 . S
N927 C925 1.279 . S
C928 C925 1.358 . S
C928 C929 1.356 . S
C928 H965 0.930 . S
C929 C926 1.348 . S
C929 C928 1.356 . S
H930 C924 0.930 . S
H931 C925 0.930 . S
C932 N933 1.314 . S
C932 C934 1.353 . S
C932 H938 0.930 . S
N933 Li883 1.990 . S
N933 C932 1.314 . S
N933 C936 1.279 . S
C934 C932 1.353 . S
C934 C937 1.348 . S
C934 H966 0.929 . S
C935 C936 1.358 . S
C935 C937 1.356 . S
C935 H967 0.930 . S
C936 N933 1.279 . S
C936 C935 1.358 . S
C936 H939 0.930 . S
C937 C934 1.348 . S
C937 C935 1.356 . S
H938 C932 0.930 . S
H939 C936 0.930 . S
O940 Li880 1.956 . S
O940 Li881 1.970 . S
O940 Li882 1.961 . S
O940 C884 1.325 . S
O941 Li880 1.970 . S
O941 Li881 1.956 . S
O941 Li883 1.961 . S
O941 C890 1.325 . S
O942 Li880 1.961 . S
O942 Li882 1.956 . S
O942 Li883 1.970 . S
O942 C912 1.325 . S
O943 Li881 1.961 . S
O943 Li882 1.970 . S
O943 Li883 1.956 . S
O943 C918 1.325 . S
H944 C886 0.929 . S
H945 C887 0.930 . S
H946 C888 0.930 . S
H947 C889 0.930 . S
H948 C891 0.930 . S
H949 C893 0.929 . S
H950 C894 0.930 . S
H951 C895 0.930 . S
H952 C898 0.930 . S
H953 C901 0.929 . S
H954 C906 0.929 . S
H955 C907 0.930 . S
H956 C914 0.929 . S
H957 C915 0.930 . S
H958 C916 0.930 . S
H959 C917 0.930 . S
H960 C919 0.929 . S
H961 C920 0.930 . S
H962 C921 0.930 . S
H963 C922 0.930 . S
H964 C926 0.929 . S
H965 C928 0.930 . S
H966 C934 0.929 . S
H967 C935 0.930 . S
Li968 N985 1.990 . S
Li968 O1028 1.956 . S
Li968 O1029 1.970 . S
Li968 O1030 1.961 . S
Li969 N993 1.990 . S
Li969 O1028 1.970 . S
Li969 O1029 1.956 . S
Li969 O1031 1.961 . S
Li970 N1015 1.990 . S
Li970 O1028 1.961 . S
Li970 O1030 1.956 . S
Li970 O1031 1.970 . S
Li971 N1021 1.990 . S
Li971 O1029 1.961 . S
Li971 O1030 1.970 . S
Li971 O1031 1.956 . S
C972 C974 1.348 . S
C972 C975 1.356 . S
C972 O1028 1.325 . S
N973 C976 1.314 . S
N973 C977 1.279 . S
C974 C972 1.348 . S
C974 C976 1.353 . S
C974 H1032 0.929 . S
C975 C972 1.356 . S
C975 C977 1.358 . S
C975 H1033 0.930 . S
C976 N973 1.314 . S
C976 C974 1.353 . S
C976 H1034 0.930 . S
C977 N973 1.279 . S
C977 C975 1.358 . S
C977 H1035 0.930 . S
C978 C981 1.348 . S
C978 C982 1.356 . S
C978 O1029 1.325 . S
C979 N980 1.279 . S
C979 C982 1.358 . S
C979 H1036 0.930 . S
N980 C979 1.279 . S
N980 C983 1.314 . S
C981 C978 1.348 . S
C981 C983 1.353 . S
C981 H1037 0.929 . S
C982 C978 1.356 . S
C982 C979 1.358 . S
C982 H1038 0.930 . S
C983 N980 1.314 . S
C983 C981 1.353 . S
C983 H1039 0.930 . S
C984 N985 1.314 . S
C984 C989 1.353 . S
C984 H990 0.930 . S
N985 Li968 1.990 . S
N985 C984 1.314 . S
N985 C987 1.279 . S
C986 C987 1.358 . S
C986 C988 1.356 . S
C986 H1040 0.930 . S
C987 N985 1.279 . S
C987 C986 1.358 . S
C987 H991 0.930 . S
C988 C986 1.356 . S
C988 C989 1.348 . S
C989 C984 1.353 . S
C989 C988 1.348 . S
C989 H1041 0.929 . S
H990 C984 0.930 . S
H991 C987 0.930 . S
C992 N993 1.314 . S
C992 C994 1.353 . S
C992 H998 0.930 . S
N993 Li969 1.990 . S
N993 C992 1.314 . S
N993 C996 1.279 . S
C994 C992 1.353 . S
C994 C997 1.348 . S
C994 H1042 0.929 . S
C995 C996 1.358 . S
C995 C997 1.356 . S
C995 H1043 0.930 . S
C996 N993 1.279 . S
C996 C995 1.358 . S
C996 H999 0.930 . S
C997 C994 1.348 . S
C997 C995 1.356 . S
H998 C992 0.930 . S
H999 C996 0.930 . S
C1000 C1002 1.348 . S
C1000 C1003 1.356 . S
C1000 O1030 1.325 . S
N1001 C1004 1.314 . S
N1001 C1005 1.279 . S
C1002 C1000 1.348 . S
C1002 C1004 1.353 . S
C1002 H1044 0.929 . S
C1003 C1000 1.356 . S
C1003 C1005 1.358 . S
C1003 H1045 0.930 . S
C1004 N1001 1.314 . S
C1004 C1002 1.353 . S
C1004 H1046 0.930 . S
C1005 N1001 1.279 . S
C1005 C1003 1.358 . S
C1005 H1047 0.930 . S
C1006 C1007 1.348 . S
C1006 C1008 1.356 . S
C1006 O1031 1.325 . S
C1007 C1006 1.348 . S
C1007 C1009 1.353 . S
C1007 H1048 0.929 . S
C1008 C1006 1.356 . S
C1008 C1010 1.358 . S
C1008 H1049 0.930 . S
C1009 C1007 1.353 . S
C1009 N1011 1.314 . S
C1009 H1050 0.930 . S
C1010 C1008 1.358 . S
C1010 N1011 1.279 . S
C1010 H1051 0.930 . S
N1011 C1009 1.314 . S
N1011 C1010 1.279 . S
C1012 C1014 1.353 . S
C1012 N1015 1.314 . S
C1012 H1018 0.930 . S
C1013 N1015 1.279 . S
C1013 C1016 1.358 . S
C1013 H1019 0.930 . S
C1014 C1012 1.353 . S
C1014 C1017 1.348 . S
C1014 H1052 0.929 . S
N1015 Li970 1.990 . S
N1015 C1012 1.314 . S
N1015 C1013 1.279 . S
C1016 C1013 1.358 . S
C1016 C1017 1.356 . S
C1016 H1053 0.930 . S
C1017 C1014 1.348 . S
C1017 C1016 1.356 . S
H1018 C1012 0.930 . S
H1019 C1013 0.930 . S
C1020 N1021 1.314 . S
C1020 C1022 1.353 . S
C1020 H1026 0.930 . S
N1021 Li971 1.990 . S
N1021 C1020 1.314 . S
N1021 C1024 1.279 . S
C1022 C1020 1.353 . S
C1022 C1025 1.348 . S
C1022 H1054 0.929 . S
C1023 C1024 1.358 . S
C1023 C1025 1.356 . S
C1023 H1055 0.930 . S
C1024 N1021 1.279 . S
C1024 C1023 1.358 . S
C1024 H1027 0.930 . S
C1025 C1022 1.348 . S
C1025 C1023 1.356 . S
H1026 C1020 0.930 . S
H1027 C1024 0.930 . S
O1028 Li968 1.956 . S
O1028 Li969 1.970 . S
O1028 Li970 1.961 . S
O1028 C972 1.325 . S
O1029 Li968 1.970 . S
O1029 Li969 1.956 . S
O1029 Li971 1.961 . S
O1029 C978 1.325 . S
O1030 Li968 1.961 . S
O1030 Li970 1.956 . S
O1030 Li971 1.970 . S
O1030 C1000 1.325 . S
O1031 Li969 1.961 . S
O1031 Li970 1.970 . S
O1031 Li971 1.956 . S
O1031 C1006 1.325 . S
H1032 C974 0.929 . S
H1033 C975 0.930 . S
H1034 C976 0.930 . S
H1035 C977 0.930 . S
H1036 C979 0.930 . S
H1037 C981 0.929 . S
H1038 C982 0.930 . S
H1039 C983 0.930 . S
H1040 C986 0.930 . S
H1041 C989 0.929 . S
H1042 C994 0.929 . S
H1043 C995 0.930 . S
H1044 C1002 0.929 . S
H1045 C1003 0.930 . S
H1046 C1004 0.930 . S
H1047 C1005 0.930 . S
H1048 C1007 0.929 . S
H1049 C1008 0.930 . S
H1050 C1009 0.930 . S
H1051 C1010 0.930 . S
H1052 C1014 0.929 . S
H1053 C1016 0.930 . S
H1054 C1022 0.929 . S
H1055 C1023 0.930 . S
Li1056 N1073 1.963 1_545 S
Li1056 O1116 1.956 . S
Li1056 O1117 1.970 . S
Li1056 O1118 1.961 . S
Li1057 N1081 1.990 . S
Li1057 O1116 1.970 . S
Li1057 O1117 1.956 . S
Li1057 O1119 1.961 . S
Li1058 N1103 1.990 . S
Li1058 O1116 1.961 . S
Li1058 O1118 1.956 . S
Li1058 O1119 1.970 . S
Li1059 N1109 1.990 . S
Li1059 O1117 1.961 . S
Li1059 O1118 1.970 . S
Li1059 O1119 1.956 . S
C1060 C1062 1.348 . S
C1060 C1063 1.356 . S
C1060 O1116 1.325 . S
N1061 C1064 1.314 . S
N1061 C1065 1.279 . S
C1062 C1060 1.348 . S
C1062 C1064 1.353 1_545 S
C1062 H1120 0.929 . S
C1063 C1060 1.356 . S
C1063 C1065 1.358 1_545 S
C1063 H1121 0.930 . S
C1064 N1061 1.314 . S
C1064 C1062 1.353 1_565 S
C1064 H1122 0.930 . S
C1065 N1061 1.279 . S
C1065 C1063 1.358 1_565 S
C1065 H1123 0.930 . S
C1066 C1069 1.348 . S
C1066 C1070 1.356 . S
C1066 O1117 1.325 . S
C1067 N1068 1.279 . S
C1067 C1070 1.358 . S
C1067 H1124 0.930 . S
N1068 C1067 1.279 . S
N1068 C1071 1.314 . S
C1069 C1066 1.348 . S
C1069 C1071 1.353 . S
C1069 H1125 0.929 . S
C1070 C1066 1.356 . S
C1070 C1067 1.358 . S
C1070 H1126 0.930 . S
C1071 N1068 1.314 . S
C1071 C1069 1.353 . S
C1071 H1127 0.930 1_545 S
C1072 N1073 1.308 . S
C1072 C1077 1.353 . S
C1072 H1078 0.930 1_565 S
N1073 Li1056 1.963 1_565 S
N1073 C1072 1.308 . S
N1073 C1075 1.319 . S
C1074 C1075 1.358 . S
C1074 C1076 1.356 . S
C1074 H1128 0.930 . S
C1075 N1073 1.319 . S
C1075 C1074 1.358 . S
C1075 H1079 0.930 . S
C1076 C1074 1.356 . S
C1076 C1077 1.348 . S
C1077 C1072 1.353 . S
C1077 C1076 1.348 . S
C1077 H1129 0.929 . S
H1078 C1072 0.930 1_545 S
H1079 C1075 0.930 . S
C1080 N1081 1.314 . S
C1080 C1082 1.353 . S
C1080 H1086 0.930 . S
N1081 Li1057 1.990 . S
N1081 C1080 1.314 . S
N1081 C1084 1.279 . S
C1082 C1080 1.353 . S
C1082 C1085 1.348 . S
C1082 H1130 0.929 . S
C1083 C1084 1.358 . S
C1083 C1085 1.356 . S
C1083 H1131 0.930 . S
C1084 N1081 1.279 . S
C1084 C1083 1.358 . S
C1084 H1087 0.930 . S
C1085 C1082 1.348 . S
C1085 C1083 1.356 . S
H1086 C1080 0.930 . S
H1087 C1084 0.930 . S
C1088 C1090 1.348 . S
C1088 C1091 1.356 . S
C1088 O1118 1.325 . S
N1089 C1092 1.314 . S
N1089 C1093 1.279 . S
C1090 C1088 1.348 . S
C1090 C1092 1.353 . S
C1090 H1132 0.929 . S
C1091 C1088 1.356 . S
C1091 C1093 1.358 . S
C1091 H1133 0.930 . S
C1092 N1089 1.314 . S
C1092 C1090 1.353 . S
C1092 H1134 0.930 . S
C1093 N1089 1.279 . S
C1093 C1091 1.358 . S
C1093 H1135 0.930 . S
C1094 C1095 1.348 . S
C1094 C1096 1.356 . S
C1094 O1119 1.325 . S
C1095 C1094 1.348 . S
C1095 C1097 1.353 . S
C1095 H1136 0.929 . S
C1096 C1094 1.356 . S
C1096 C1098 1.358 . S
C1096 H1137 0.930 . S
C1097 C1095 1.353 . S
C1097 N1099 1.314 . S
C1097 H1138 0.930 . S
C1098 C1096 1.358 . S
C1098 N1099 1.279 . S
C1098 H1139 0.930 . S
N1099 C1097 1.314 . S
N1099 C1098 1.279 . S
C1100 C1102 1.353 . S
C1100 N1103 1.314 . S
C1100 H1106 0.930 . S
C1101 N1103 1.279 . S
C1101 C1104 1.358 . S
C1101 H1107 0.930 . S
C1102 C1100 1.353 . S
C1102 C1105 1.348 . S
C1102 H1140 0.929 . S
N1103 Li1058 1.990 . S
N1103 C1100 1.314 . S
N1103 C1101 1.279 . S
C1104 C1101 1.358 . S
C1104 C1105 1.356 . S
C1104 H1141 0.930 . S
C1105 C1102 1.348 . S
C1105 C1104 1.356 . S
H1106 C1100 0.930 . S
H1107 C1101 0.930 . S
C1108 N1109 1.314 . S
C1108 C1110 1.353 . S
C1108 H1114 0.930 . S
N1109 Li1059 1.990 . S
N1109 C1108 1.314 . S
N1109 C1112 1.279 . S
C1110 C1108 1.353 . S
C1110 C1113 1.348 . S
C1110 H1142 0.929 . S
C1111 C1112 1.358 . S
C1111 C1113 1.356 . S
C1111 H1143 0.930 . S
C1112 N1109 1.279 . S
C1112 C1111 1.358 . S
C1112 H1115 0.930 . S
C1113 C1110 1.348 . S
C1113 C1111 1.356 . S
H1114 C1108 0.930 . S
H1115 C1112 0.930 . S
O1116 Li1056 1.956 . S
O1116 Li1057 1.970 . S
O1116 Li1058 1.961 . S
O1116 C1060 1.325 . S
O1117 Li1056 1.970 . S
O1117 Li1057 1.956 . S
O1117 Li1059 1.961 . S
O1117 C1066 1.325 . S
O1118 Li1056 1.961 . S
O1118 Li1058 1.956 . S
O1118 Li1059 1.970 . S
O1118 C1088 1.325 . S
O1119 Li1057 1.961 . S
O1119 Li1058 1.970 . S
O1119 Li1059 1.956 . S
O1119 C1094 1.325 . S
H1120 C1062 0.929 . S
H1121 C1063 0.930 . S
H1122 C1064 0.930 . S
H1123 C1065 0.930 . S
H1124 C1067 0.930 . S
H1125 C1069 0.929 . S
H1126 C1070 0.930 . S
H1127 C1071 0.930 1_565 S
H1128 C1074 0.930 . S
H1129 C1077 0.929 . S
H1130 C1082 0.929 . S
H1131 C1083 0.930 . S
H1132 C1090 0.929 . S
H1133 C1091 0.930 . S
H1134 C1092 0.930 . S
H1135 C1093 0.930 . S
H1136 C1095 0.929 . S
H1137 C1096 0.930 . S
H1138 C1097 0.930 . S
H1139 C1098 0.930 . S
H1140 C1102 0.929 . S
H1141 C1104 0.930 . S
H1142 C1110 0.929 . S
H1143 C1111 0.930 . S
Li1144 N1161 1.925 1_655 S
Li1144 O1204 1.956 . S
Li1144 O1205 1.970 . S
Li1144 O1206 1.961 . S
Li1145 N1169 1.990 . S
Li1145 O1204 1.970 . S
Li1145 O1205 1.956 . S
Li1145 O1207 1.961 . S
Li1146 N1191 1.990 . S
Li1146 O1204 1.961 . S
Li1146 O1206 1.956 . S
Li1146 O1207 1.970 . S
Li1147 N1197 1.990 . S
Li1147 O1205 1.961 . S
Li1147 O1206 1.970 . S
Li1147 O1207 1.956 . S
C1148 C1150 1.348 . S
C1148 C1151 1.356 . S
C1148 O1204 1.325 . S
N1149 C1152 1.314 . S
N1149 C1153 1.279 . S
C1150 C1148 1.348 . S
C1150 C1152 1.353 1_655 S
C1150 H1208 0.929 . S
C1151 C1148 1.356 . S
C1151 C1153 1.358 1_655 S
C1151 H1209 0.930 . S
C1152 N1149 1.314 . S
C1152 C1150 1.353 1_455 S
C1152 H1210 0.930 . S
C1153 N1149 1.279 . S
C1153 C1151 1.358 1_455 S
C1153 H1211 0.930 . S
C1154 C1157 1.348 . S
C1154 C1158 1.356 . S
C1154 O1205 1.325 . S
C1155 N1156 1.279 . S
C1155 C1158 1.358 . S
C1155 H1212 0.930 . S
N1156 C1155 1.279 . S
N1156 C1159 1.314 . S
C1157 C1154 1.348 . S
C1157 C1159 1.353 . S
C1157 H1213 0.929 . S
C1158 C1154 1.356 . S
C1158 C1155 1.358 . S
C1158 H1214 0.930 . S
C1159 N1156 1.314 . S
C1159 C1157 1.353 . S
C1159 H1215 0.930 1_655 S
C1160 N1161 1.341 . S
C1160 C1165 1.353 . S
C1160 H1166 0.930 1_455 S
N1161 Li1144 1.925 1_455 S
N1161 C1160 1.341 . S
N1161 C1163 1.327 . S
C1162 C1163 1.358 . S
C1162 C1164 1.356 . S
C1162 H1216 0.930 . S
C1163 N1161 1.327 . S
C1163 C1162 1.358 . S
C1163 H1167 0.930 . S
C1164 C1162 1.356 . S
C1164 C1165 1.348 . S
C1165 C1160 1.353 . S
C1165 C1164 1.348 . S
C1165 H1217 0.929 . S
H1166 C1160 0.930 1_655 S
H1167 C1163 0.930 . S
C1168 N1169 1.314 . S
C1168 C1170 1.353 . S
C1168 H1174 0.930 . S
N1169 Li1145 1.990 . S
N1169 C1168 1.314 . S
N1169 C1172 1.279 . S
C1170 C1168 1.353 . S
C1170 C1173 1.348 . S
C1170 H1218 0.929 . S
C1171 C1172 1.358 . S
C1171 C1173 1.356 . S
C1171 H1219 0.930 . S
C1172 N1169 1.279 . S
C1172 C1171 1.358 . S
C1172 H1175 0.930 . S
C1173 C1170 1.348 . S
C1173 C1171 1.356 . S
H1174 C1168 0.930 . S
H1175 C1172 0.930 . S
C1176 C1178 1.348 . S
C1176 C1179 1.356 . S
C1176 O1206 1.325 . S
N1177 C1180 1.314 . S
N1177 C1181 1.279 . S
C1178 C1176 1.348 . S
C1178 C1180 1.353 . S
C1178 H1220 0.929 . S
C1179 C1176 1.356 . S
C1179 C1181 1.358 . S
C1179 H1221 0.930 . S
C1180 N1177 1.314 . S
C1180 C1178 1.353 . S
C1180 H1222 0.930 . S
C1181 N1177 1.279 . S
C1181 C1179 1.358 . S
C1181 H1223 0.930 . S
C1182 C1183 1.348 . S
C1182 C1184 1.356 . S
C1182 O1207 1.325 . S
C1183 C1182 1.348 . S
C1183 C1185 1.353 . S
C1183 H1224 0.929 . S
C1184 C1182 1.356 . S
C1184 C1186 1.358 . S
C1184 H1225 0.930 . S
C1185 C1183 1.353 . S
C1185 N1187 1.314 . S
C1185 H1226 0.930 . S
C1186 C1184 1.358 . S
C1186 N1187 1.279 . S
C1186 H1227 0.930 . S
N1187 C1185 1.314 . S
N1187 C1186 1.279 . S
C1188 C1190 1.353 . S
C1188 N1191 1.314 . S
C1188 H1194 0.930 . S
C1189 N1191 1.279 . S
C1189 C1192 1.358 . S
C1189 H1195 0.930 . S
C1190 C1188 1.353 . S
C1190 C1193 1.348 . S
C1190 H1228 0.929 . S
N1191 Li1146 1.990 . S
N1191 C1188 1.314 . S
N1191 C1189 1.279 . S
C1192 C1189 1.358 . S
C1192 C1193 1.356 . S
C1192 H1229 0.930 . S
C1193 C1190 1.348 . S
C1193 C1192 1.356 . S
H1194 C1188 0.930 . S
H1195 C1189 0.930 . S
C1196 N1197 1.314 . S
C1196 C1198 1.353 . S
C1196 H1202 0.930 . S
N1197 Li1147 1.990 . S
N1197 C1196 1.314 . S
N1197 C1200 1.279 . S
C1198 C1196 1.353 . S
C1198 C1201 1.348 . S
C1198 H1230 0.929 . S
C1199 C1200 1.358 . S
C1199 C1201 1.356 . S
C1199 H1231 0.930 . S
C1200 N1197 1.279 . S
C1200 C1199 1.358 . S
C1200 H1203 0.930 . S
C1201 C1198 1.348 . S
C1201 C1199 1.356 . S
H1202 C1196 0.930 . S
H1203 C1200 0.930 . S
O1204 Li1144 1.956 . S
O1204 Li1145 1.970 . S
O1204 Li1146 1.961 . S
O1204 C1148 1.325 . S
O1205 Li1144 1.970 . S
O1205 Li1145 1.956 . S
O1205 Li1147 1.961 . S
O1205 C1154 1.325 . S
O1206 Li1144 1.961 . S
O1206 Li1146 1.956 . S
O1206 Li1147 1.970 . S
O1206 C1176 1.325 . S
O1207 Li1145 1.961 . S
O1207 Li1146 1.970 . S
O1207 Li1147 1.956 . S
O1207 C1182 1.325 . S
H1208 C1150 0.929 . S
H1209 C1151 0.930 . S
H1210 C1152 0.930 . S
H1211 C1153 0.930 . S
H1212 C1155 0.930 . S
H1213 C1157 0.929 . S
H1214 C1158 0.930 . S
H1215 C1159 0.930 1_455 S
H1216 C1162 0.930 . S
H1217 C1165 0.929 . S
H1218 C1170 0.929 . S
H1219 C1171 0.930 . S
H1220 C1178 0.929 . S
H1221 C1179 0.930 . S
H1222 C1180 0.930 . S
H1223 C1181 0.930 . S
H1224 C1183 0.929 . S
H1225 C1184 0.930 . S
H1226 C1185 0.930 . S
H1227 C1186 0.930 . S
H1228 C1190 0.929 . S
H1229 C1192 0.930 . S
H1230 C1198 0.929 . S
H1231 C1199 0.930 . S
Li1232 N1249 1.990 . S
Li1232 O1292 1.956 . S
Li1232 O1293 1.970 . S
Li1232 O1294 1.961 . S
Li1233 N1257 1.990 . S
Li1233 O1292 1.970 . S
Li1233 O1293 1.956 . S
Li1233 O1295 1.961 . S
Li1234 N1279 1.990 . S
Li1234 O1292 1.961 . S
Li1234 O1294 1.956 . S
Li1234 O1295 1.970 . S
Li1235 N1285 1.990 . S
Li1235 O1293 1.961 . S
Li1235 O1294 1.970 . S
Li1235 O1295 1.956 . S
C1236 C1238 1.348 . S
C1236 C1239 1.356 . S
C1236 O1292 1.325 . S
N1237 C1240 1.314 . S
N1237 C1241 1.279 . S
C1238 C1236 1.348 . S
C1238 C1240 1.353 . S
C1238 H1296 0.929 . S
C1239 C1236 1.356 . S
C1239 C1241 1.358 . S
C1239 H1297 0.930 . S
C1240 N1237 1.314 . S
C1240 C1238 1.353 . S
C1240 H1298 0.930 . S
C1241 N1237 1.279 . S
C1241 C1239 1.358 . S
C1241 H1299 0.930 . S
C1242 C1245 1.348 . S
C1242 C1246 1.356 . S
C1242 O1293 1.325 . S
C1243 N1244 1.279 . S
C1243 C1246 1.358 . S
C1243 H1300 0.930 . S
N1244 C1243 1.279 . S
N1244 C1247 1.314 . S
C1245 C1242 1.348 . S
C1245 C1247 1.353 . S
C1245 H1301 0.929 . S
C1246 C1242 1.356 . S
C1246 C1243 1.358 . S
C1246 H1302 0.930 . S
C1247 N1244 1.314 . S
C1247 C1245 1.353 . S
C1247 H1303 0.930 . S
C1248 N1249 1.314 . S
C1248 C1253 1.353 . S
C1248 H1254 0.930 . S
N1249 Li1232 1.990 . S
N1249 C1248 1.314 . S
N1249 C1251 1.279 . S
C1250 C1251 1.358 . S
C1250 C1252 1.356 . S
C1250 H1304 0.930 . S
C1251 N1249 1.279 . S
C1251 C1250 1.358 . S
C1251 H1255 0.930 . S
C1252 C1250 1.356 . S
C1252 C1253 1.348 . S
C1253 C1248 1.353 . S
C1253 C1252 1.348 . S
C1253 H1305 0.929 . S
H1254 C1248 0.930 . S
H1255 C1251 0.930 . S
C1256 N1257 1.314 . S
C1256 C1258 1.353 . S
C1256 H1262 0.930 . S
N1257 Li1233 1.990 . S
N1257 C1256 1.314 . S
N1257 C1260 1.279 . S
C1258 C1256 1.353 . S
C1258 C1261 1.348 . S
C1258 H1306 0.929 . S
C1259 C1260 1.358 . S
C1259 C1261 1.356 . S
C1259 H1307 0.930 . S
C1260 N1257 1.279 . S
C1260 C1259 1.358 . S
C1260 H1263 0.930 . S
C1261 C1258 1.348 . S
C1261 C1259 1.356 . S
H1262 C1256 0.930 . S
H1263 C1260 0.930 . S
C1264 C1266 1.348 . S
C1264 C1267 1.356 . S
C1264 O1294 1.325 . S
N1265 C1268 1.314 . S
N1265 C1269 1.279 . S
C1266 C1264 1.348 . S
C1266 C1268 1.353 . S
C1266 H1308 0.929 . S
C1267 C1264 1.356 . S
C1267 C1269 1.358 . S
C1267 H1309 0.930 . S
C1268 N1265 1.314 . S
C1268 C1266 1.353 . S
C1268 H1310 0.930 . S
C1269 N1265 1.279 . S
C1269 C1267 1.358 . S
C1269 H1311 0.930 . S
C1270 C1271 1.348 . S
C1270 C1272 1.356 . S
C1270 O1295 1.325 . S
C1271 C1270 1.348 . S
C1271 C1273 1.353 . S
C1271 H1312 0.929 . S
C1272 C1270 1.356 . S
C1272 C1274 1.358 . S
C1272 H1313 0.930 . S
C1273 C1271 1.353 . S
C1273 N1275 1.314 . S
C1273 H1314 0.930 . S
C1274 C1272 1.358 . S
C1274 N1275 1.279 . S
C1274 H1315 0.930 . S
N1275 C1273 1.314 . S
N1275 C1274 1.279 . S
C1276 C1278 1.353 . S
C1276 N1279 1.314 . S
C1276 H1282 0.930 . S
C1277 N1279 1.279 . S
C1277 C1280 1.358 . S
C1277 H1283 0.930 . S
C1278 C1276 1.353 . S
C1278 C1281 1.348 . S
C1278 H1316 0.929 . S
N1279 Li1234 1.990 . S
N1279 C1276 1.314 . S
N1279 C1277 1.279 . S
C1280 C1277 1.358 . S
C1280 C1281 1.356 . S
C1280 H1317 0.930 . S
C1281 C1278 1.348 . S
C1281 C1280 1.356 . S
H1282 C1276 0.930 . S
H1283 C1277 0.930 . S
C1284 N1285 1.314 . S
C1284 C1286 1.353 . S
C1284 H1290 0.930 . S
N1285 Li1235 1.990 . S
N1285 C1284 1.314 . S
N1285 C1288 1.279 . S
C1286 C1284 1.353 . S
C1286 C1289 1.348 . S
C1286 H1318 0.929 . S
C1287 C1288 1.358 . S
C1287 C1289 1.356 . S
C1287 H1319 0.930 . S
C1288 N1285 1.279 . S
C1288 C1287 1.358 . S
C1288 H1291 0.930 . S
C1289 C1286 1.348 . S
C1289 C1287 1.356 . S
H1290 C1284 0.930 . S
H1291 C1288 0.930 . S
O1292 Li1232 1.956 . S
O1292 Li1233 1.970 . S
O1292 Li1234 1.961 . S
O1292 C1236 1.325 . S
O1293 Li1232 1.970 . S
O1293 Li1233 1.956 . S
O1293 Li1235 1.961 . S
O1293 C1242 1.325 . S
O1294 Li1232 1.961 . S
O1294 Li1234 1.956 . S
O1294 Li1235 1.970 . S
O1294 C1264 1.325 . S
O1295 Li1233 1.961 . S
O1295 Li1234 1.970 . S
O1295 Li1235 1.956 . S
O1295 C1270 1.325 . S
H1296 C1238 0.929 . S
H1297 C1239 0.930 . S
H1298 C1240 0.930 . S
H1299 C1241 0.930 . S
H1300 C1243 0.930 . S
H1301 C1245 0.929 . S
H1302 C1246 0.930 . S
H1303 C1247 0.930 . S
H1304 C1250 0.930 . S
H1305 C1253 0.929 . S
H1306 C1258 0.929 . S
H1307 C1259 0.930 . S
H1308 C1266 0.929 . S
H1309 C1267 0.930 . S
H1310 C1268 0.930 . S
H1311 C1269 0.930 . S
H1312 C1271 0.929 . S
H1313 C1272 0.930 . S
H1314 C1273 0.930 . S
H1315 C1274 0.930 . S
H1316 C1278 0.929 . S
H1317 C1280 0.930 . S
H1318 C1286 0.929 . S
H1319 C1287 0.930 . S
Li1320 N1337 1.990 . S
Li1320 O1380 1.956 . S
Li1320 O1381 1.970 . S
Li1320 O1382 1.961 . S
Li1321 N1345 1.990 . S
Li1321 O1380 1.970 . S
Li1321 O1381 1.956 . S
Li1321 O1383 1.961 . S
Li1322 N1367 1.990 . S
Li1322 O1380 1.961 . S
Li1322 O1382 1.956 . S
Li1322 O1383 1.970 . S
Li1323 N1373 1.990 . S
Li1323 O1381 1.961 . S
Li1323 O1382 1.970 . S
Li1323 O1383 1.956 . S
C1324 C1326 1.348 . S
C1324 C1327 1.356 . S
C1324 O1380 1.325 . S
N1325 C1328 1.314 . S
N1325 C1329 1.279 . S
C1326 C1324 1.348 . S
C1326 C1328 1.353 . S
C1326 H1384 0.929 . S
C1327 C1324 1.356 . S
C1327 C1329 1.358 . S
C1327 H1385 0.930 . S
C1328 N1325 1.314 . S
C1328 C1326 1.353 . S
C1328 H1386 0.930 . S
C1329 N1325 1.279 . S
C1329 C1327 1.358 . S
C1329 H1387 0.930 . S
C1330 C1333 1.348 . S
C1330 C1334 1.356 . S
C1330 O1381 1.325 . S
C1331 N1332 1.279 . S
C1331 C1334 1.358 . S
C1331 H1388 0.930 . S
N1332 C1331 1.279 . S
N1332 C1335 1.314 . S
C1333 C1330 1.348 . S
C1333 C1335 1.353 . S
C1333 H1389 0.929 . S
C1334 C1330 1.356 . S
C1334 C1331 1.358 . S
C1334 H1390 0.930 . S
C1335 N1332 1.314 . S
C1335 C1333 1.353 . S
C1335 H1391 0.930 . S
C1336 N1337 1.314 . S
C1336 C1341 1.353 . S
C1336 H1342 0.930 . S
N1337 Li1320 1.990 . S
N1337 C1336 1.314 . S
N1337 C1339 1.279 . S
C1338 C1339 1.358 . S
C1338 C1340 1.356 . S
C1338 H1392 0.930 . S
C1339 N1337 1.279 . S
C1339 C1338 1.358 . S
C1339 H1343 0.930 . S
C1340 C1338 1.356 . S
C1340 C1341 1.348 . S
C1341 C1336 1.353 . S
C1341 C1340 1.348 . S
C1341 H1393 0.929 . S
H1342 C1336 0.930 . S
H1343 C1339 0.930 . S
C1344 N1345 1.314 . S
C1344 C1346 1.353 . S
C1344 H1350 0.930 . S
N1345 Li1321 1.990 . S
N1345 C1344 1.314 . S
N1345 C1348 1.279 . S
C1346 C1344 1.353 . S
C1346 C1349 1.348 . S
C1346 H1394 0.929 . S
C1347 C1348 1.358 . S
C1347 C1349 1.356 . S
C1347 H1395 0.930 . S
C1348 N1345 1.279 . S
C1348 C1347 1.358 . S
C1348 H1351 0.930 . S
C1349 C1346 1.348 . S
C1349 C1347 1.356 . S
H1350 C1344 0.930 . S
H1351 C1348 0.930 . S
C1352 C1354 1.348 . S
C1352 C1355 1.356 . S
C1352 O1382 1.325 . S
N1353 C1356 1.314 . S
N1353 C1357 1.279 . S
C1354 C1352 1.348 . S
C1354 C1356 1.353 . S
C1354 H1396 0.929 . S
C1355 C1352 1.356 . S
C1355 C1357 1.358 . S
C1355 H1397 0.930 . S
C1356 N1353 1.314 . S
C1356 C1354 1.353 . S
C1356 H1398 0.930 . S
C1357 N1353 1.279 . S
C1357 C1355 1.358 . S
C1357 H1399 0.930 . S
C1358 C1359 1.348 . S
C1358 C1360 1.356 . S
C1358 O1383 1.325 . S
C1359 C1358 1.348 . S
C1359 C1361 1.353 . S
C1359 H1400 0.929 . S
C1360 C1358 1.356 . S
C1360 C1362 1.358 . S
C1360 H1401 0.930 . S
C1361 C1359 1.353 . S
C1361 N1363 1.314 . S
C1361 H1402 0.930 . S
C1362 C1360 1.358 . S
C1362 N1363 1.279 . S
C1362 H1403 0.930 . S
N1363 C1361 1.314 . S
N1363 C1362 1.279 . S
C1364 C1366 1.353 . S
C1364 N1367 1.314 . S
C1364 H1370 0.930 . S
C1365 N1367 1.279 . S
C1365 C1368 1.358 . S
C1365 H1371 0.930 . S
C1366 C1364 1.353 . S
C1366 C1369 1.348 . S
C1366 H1404 0.929 . S
N1367 Li1322 1.990 . S
N1367 C1364 1.314 . S
N1367 C1365 1.279 . S
C1368 C1365 1.358 . S
C1368 C1369 1.356 . S
C1368 H1405 0.930 . S
C1369 C1366 1.348 . S
C1369 C1368 1.356 . S
H1370 C1364 0.930 . S
H1371 C1365 0.930 . S
C1372 N1373 1.314 . S
C1372 C1374 1.353 . S
C1372 H1378 0.930 . S
N1373 Li1323 1.990 . S
N1373 C1372 1.314 . S
N1373 C1376 1.279 . S
C1374 C1372 1.353 . S
C1374 C1377 1.348 . S
C1374 H1406 0.929 . S
C1375 C1376 1.358 . S
C1375 C1377 1.356 . S
C1375 H1407 0.930 . S
C1376 N1373 1.279 . S
C1376 C1375 1.358 . S
C1376 H1379 0.930 . S
C1377 C1374 1.348 . S
C1377 C1375 1.356 . S
H1378 C1372 0.930 . S
H1379 C1376 0.930 . S
O1380 Li1320 1.956 . S
O1380 Li1321 1.970 . S
O1380 Li1322 1.961 . S
O1380 C1324 1.325 . S
O1381 Li1320 1.970 . S
O1381 Li1321 1.956 . S
O1381 Li1323 1.961 . S
O1381 C1330 1.325 . S
O1382 Li1320 1.961 . S
O1382 Li1322 1.956 . S
O1382 Li1323 1.970 . S
O1382 C1352 1.325 . S
O1383 Li1321 1.961 . S
O1383 Li1322 1.970 . S
O1383 Li1323 1.956 . S
O1383 C1358 1.325 . S
H1384 C1326 0.929 . S
H1385 C1327 0.930 . S
H1386 C1328 0.930 . S
H1387 C1329 0.930 . S
H1388 C1331 0.930 . S
H1389 C1333 0.929 . S
H1390 C1334 0.930 . S
H1391 C1335 0.930 . S
H1392 C1338 0.930 . S
H1393 C1341 0.929 . S
H1394 C1346 0.929 . S
H1395 C1347 0.930 . S
H1396 C1354 0.929 . S
H1397 C1355 0.930 . S
H1398 C1356 0.930 . S
H1399 C1357 0.930 . S
H1400 C1359 0.929 . S
H1401 C1360 0.930 . S
H1402 C1361 0.930 . S
H1403 C1362 0.930 . S
H1404 C1366 0.929 . S
H1405 C1368 0.930 . S
H1406 C1374 0.929 . S
H1407 C1375 0.930 . S
Li1408 N1425 1.990 . S
Li1408 O1468 1.956 . S
Li1408 O1469 1.970 . S
Li1408 O1470 1.961 . S
Li1409 N1433 1.990 . S
Li1409 O1468 1.970 . S
Li1409 O1469 1.956 . S
Li1409 O1471 1.961 . S
Li1410 N1455 1.990 . S
Li1410 O1468 1.961 . S
Li1410 O1470 1.956 . S
Li1410 O1471 1.970 . S
Li1411 N1461 1.990 . S
Li1411 O1469 1.961 . S
Li1411 O1470 1.970 . S
Li1411 O1471 1.956 . S
C1412 C1414 1.348 . S
C1412 C1415 1.356 . S
C1412 O1468 1.325 . S
N1413 C1416 1.314 . S
N1413 C1417 1.279 . S
C1414 C1412 1.348 . S
C1414 C1416 1.353 . S
C1414 H1472 0.929 . S
C1415 C1412 1.356 . S
C1415 C1417 1.358 . S
C1415 H1473 0.930 . S
C1416 N1413 1.314 . S
C1416 C1414 1.353 . S
C1416 H1474 0.930 . S
C1417 N1413 1.279 . S
C1417 C1415 1.358 . S
C1417 H1475 0.930 . S
C1418 C1421 1.348 . S
C1418 C1422 1.356 . S
C1418 O1469 1.325 . S
C1419 N1420 1.279 . S
C1419 C1422 1.358 1_565 S
C1419 H1476 0.930 . S
N1420 C1419 1.279 . S
N1420 C1423 1.314 1_565 S
C1421 C1418 1.348 . S
C1421 C1423 1.353 . S
C1421 H1477 0.929 . S
C1422 C1418 1.356 . S
C1422 C1419 1.358 1_545 S
C1422 H1478 0.930 . S
C1423 N1420 1.314 1_545 S
C1423 C1421 1.353 . S
C1423 H1479 0.930 . S
C1424 N1425 1.314 . S
C1424 C1429 1.353 . S
C1424 H1430 0.930 . S
N1425 Li1408 1.990 . S
N1425 C1424 1.314 . S
N1425 C1427 1.279 . S
C1426 C1427 1.358 . S
C1426 C1428 1.356 . S
C1426 H1480 0.930 . S
C1427 N1425 1.279 . S
C1427 C1426 1.358 . S
C1427 H1431 0.930 . S
C1428 C1426 1.356 . S
C1428 C1429 1.348 . S
C1429 C1424 1.353 . S
C1429 C1428 1.348 . S
C1429 H1481 0.929 . S
H1430 C1424 0.930 . S
H1431 C1427 0.930 . S
C1432 N1433 1.314 . S
C1432 C1434 1.353 . S
C1432 H1438 0.930 . S
N1433 Li1409 1.990 . S
N1433 C1432 1.314 . S
N1433 C1436 1.279 . S
C1434 C1432 1.353 . S
C1434 C1437 1.348 . S
C1434 H1482 0.929 . S
C1435 C1436 1.358 . S
C1435 C1437 1.356 . S
C1435 H1483 0.930 . S
C1436 N1433 1.279 . S
C1436 C1435 1.358 . S
C1436 H1439 0.930 . S
C1437 C1434 1.348 . S
C1437 C1435 1.356 . S
H1438 C1432 0.930 . S
H1439 C1436 0.930 . S
C1440 C1442 1.348 . S
C1440 C1443 1.356 . S
C1440 O1470 1.325 . S
N1441 C1444 1.314 . S
N1441 C1445 1.279 . S
C1442 C1440 1.348 . S
C1442 C1444 1.353 . S
C1442 H1484 0.929 . S
C1443 C1440 1.356 . S
C1443 C1445 1.358 . S
C1443 H1485 0.930 . S
C1444 N1441 1.314 . S
C1444 C1442 1.353 . S
C1444 H1486 0.930 . S
C1445 N1441 1.279 . S
C1445 C1443 1.358 . S
C1445 H1487 0.930 . S
C1446 C1447 1.348 . S
C1446 C1448 1.356 . S
C1446 O1471 1.325 . S
C1447 C1446 1.348 . S
C1447 C1449 1.353 . S
C1447 H1488 0.929 . S
C1448 C1446 1.356 . S
C1448 C1450 1.358 . S
C1448 H1489 0.930 . S
C1449 C1447 1.353 . S
C1449 N1451 1.314 . S
C1449 H1490 0.930 . S
C1450 C1448 1.358 . S
C1450 N1451 1.279 . S
C1450 H1491 0.930 . S
N1451 C1449 1.314 . S
N1451 C1450 1.279 . S
C1452 C1454 1.353 . S
C1452 N1455 1.314 . S
C1452 H1458 0.930 . S
C1453 N1455 1.279 . S
C1453 C1456 1.358 . S
C1453 H1459 0.930 . S
C1454 C1452 1.353 . S
C1454 C1457 1.348 . S
C1454 H1492 0.929 . S
N1455 Li1410 1.990 . S
N1455 C1452 1.314 . S
N1455 C1453 1.279 . S
C1456 C1453 1.358 . S
C1456 C1457 1.356 . S
C1456 H1493 0.930 . S
C1457 C1454 1.348 . S
C1457 C1456 1.356 . S
H1458 C1452 0.930 . S
H1459 C1453 0.930 . S
C1460 N1461 1.314 1_565 S
C1460 C1462 1.353 . S
C1460 H1466 0.930 . S
N1461 Li1411 1.990 . S
N1461 C1460 1.314 1_545 S
N1461 C1464 1.279 1_545 S
C1462 C1460 1.353 . S
C1462 C1465 1.348 . S
C1462 H1494 0.929 . S
C1463 C1464 1.358 . S
C1463 C1465 1.356 . S
C1463 H1495 0.930 . S
C1464 N1461 1.279 1_565 S
C1464 C1463 1.358 . S
C1464 H1467 0.930 1_565 S
C1465 C1462 1.348 . S
C1465 C1463 1.356 . S
H1466 C1460 0.930 . S
H1467 C1464 0.930 1_545 S
O1468 Li1408 1.956 . S
O1468 Li1409 1.970 . S
O1468 Li1410 1.961 . S
O1468 C1412 1.325 . S
O1469 Li1408 1.970 . S
O1469 Li1409 1.956 . S
O1469 Li1411 1.961 . S
O1469 C1418 1.325 . S
O1470 Li1408 1.961 . S
O1470 Li1410 1.956 . S
O1470 Li1411 1.970 . S
O1470 C1440 1.325 . S
O1471 Li1409 1.961 . S
O1471 Li1410 1.970 . S
O1471 Li1411 1.956 . S
O1471 C1446 1.325 . S
H1472 C1414 0.929 . S
H1473 C1415 0.930 . S
H1474 C1416 0.930 . S
H1475 C1417 0.930 . S
H1476 C1419 0.930 . S
H1477 C1421 0.929 . S
H1478 C1422 0.930 . S
H1479 C1423 0.930 . S
H1480 C1426 0.930 . S
H1481 C1429 0.929 . S
H1482 C1434 0.929 . S
H1483 C1435 0.930 . S
H1484 C1442 0.929 . S
H1485 C1443 0.930 . S
H1486 C1444 0.930 . S
H1487 C1445 0.930 . S
H1488 C1447 0.929 . S
H1489 C1448 0.930 . S
H1490 C1449 0.930 . S
H1491 C1450 0.930 . S
H1492 C1454 0.929 . S
H1493 C1456 0.930 . S
H1494 C1462 0.929 . S
H1495 C1463 0.930 . S
Li1496 N1513 1.990 . S
Li1496 O1556 1.956 . S
Li1496 O1557 1.970 . S
Li1496 O1558 1.961 . S
Li1497 N1521 1.990 . S
Li1497 O1556 1.970 . S
Li1497 O1557 1.956 . S
Li1497 O1559 1.961 . S
Li1498 N1543 1.990 . S
Li1498 O1556 1.961 . S
Li1498 O1558 1.956 . S
Li1498 O1559 1.970 . S
Li1499 N1549 1.990 . S
Li1499 O1557 1.961 . S
Li1499 O1558 1.970 . S
Li1499 O1559 1.956 . S
C1500 C1502 1.348 . S
C1500 C1503 1.356 . S
C1500 O1556 1.325 . S
N1501 C1504 1.314 1_455 S
N1501 C1505 1.279 . S
C1502 C1500 1.348 . S
C1502 C1504 1.353 . S
C1502 H1560 0.929 . S
C1503 C1500 1.356 . S
C1503 C1505 1.358 1_655 S
C1503 H1561 0.930 . S
C1504 N1501 1.314 1_655 S
C1504 C1502 1.353 . S
C1504 H1562 0.930 . S
C1505 N1501 1.279 . S
C1505 C1503 1.358 1_455 S
C1505 H1563 0.930 . S
C1506 C1509 1.348 . S
C1506 C1510 1.356 . S
C1506 O1557 1.325 . S
C1507 N1508 1.279 . S
C1507 C1510 1.358 . S
C1507 H1564 0.930 . S
N1508 C1507 1.279 . S
N1508 C1511 1.314 . S
C1509 C1506 1.348 . S
C1509 C1511 1.353 . S
C1509 H1565 0.929 . S
C1510 C1506 1.356 . S
C1510 C1507 1.358 . S
C1510 H1566 0.930 . S
C1511 N1508 1.314 . S
C1511 C1509 1.353 . S
C1511 H1567 0.930 . S
C1512 N1513 1.314 . S
C1512 C1517 1.353 . S
C1512 H1518 0.930 . S
N1513 Li1496 1.990 . S
N1513 C1512 1.314 . S
N1513 C1515 1.279 . S
C1514 C1515 1.358 . S
C1514 C1516 1.356 . S
C1514 H1568 0.930 . S
C1515 N1513 1.279 . S
C1515 C1514 1.358 . S
C1515 H1519 0.930 . S
C1516 C1514 1.356 . S
C1516 C1517 1.348 . S
C1517 C1512 1.353 . S
C1517 C1516 1.348 . S
C1517 H1569 0.929 . S
H1518 C1512 0.930 . S
H1519 C1515 0.930 . S
C1520 N1521 1.314 . S
C1520 C1522 1.353 . S
C1520 H1526 0.930 . S
N1521 Li1497 1.990 . S
N1521 C1520 1.314 . S
N1521 C1524 1.279 . S
C1522 C1520 1.353 . S
C1522 C1525 1.348 . S
C1522 H1570 0.929 . S
C1523 C1524 1.358 . S
C1523 C1525 1.356 . S
C1523 H1571 0.930 . S
C1524 N1521 1.279 . S
C1524 C1523 1.358 . S
C1524 H1527 0.930 . S
C1525 C1522 1.348 . S
C1525 C1523 1.356 . S
H1526 C1520 0.930 . S
H1527 C1524 0.930 . S
C1528 C1530 1.348 . S
C1528 C1531 1.356 . S
C1528 O1558 1.325 . S
N1529 C1532 1.314 . S
N1529 C1533 1.279 . S
C1530 C1528 1.348 . S
C1530 C1532 1.353 . S
C1530 H1572 0.929 . S
C1531 C1528 1.356 . S
C1531 C1533 1.358 . S
C1531 H1573 0.930 . S
C1532 N1529 1.314 . S
C1532 C1530 1.353 . S
C1532 H1574 0.930 . S
C1533 N1529 1.279 . S
C1533 C1531 1.358 . S
C1533 H1575 0.930 . S
C1534 C1535 1.348 . S
C1534 C1536 1.356 . S
C1534 O1559 1.325 . S
C1535 C1534 1.348 . S
C1535 C1537 1.353 . S
C1535 H1576 0.929 . S
C1536 C1534 1.356 . S
C1536 C1538 1.358 . S
C1536 H1577 0.930 . S
C1537 C1535 1.353 . S
C1537 N1539 1.314 . S
C1537 H1578 0.930 . S
C1538 C1536 1.358 . S
C1538 N1539 1.279 . S
C1538 H1579 0.930 . S
N1539 C1537 1.314 . S
N1539 C1538 1.279 . S
C1540 C1542 1.353 . S
C1540 N1543 1.314 1_455 S
C1540 H1546 0.930 . S
C1541 N1543 1.279 . S
C1541 C1544 1.358 1_655 S
C1541 H1547 0.930 . S
C1542 C1540 1.353 . S
C1542 C1545 1.348 . S
C1542 H1580 0.929 . S
N1543 Li1498 1.990 . S
N1543 C1540 1.314 1_655 S
N1543 C1541 1.279 . S
C1544 C1541 1.358 1_455 S
C1544 C1545 1.356 . S
C1544 H1581 0.930 . S
C1545 C1542 1.348 . S
C1545 C1544 1.356 . S
H1546 C1540 0.930 . S
H1547 C1541 0.930 . S
C1548 N1549 1.314 . S
C1548 C1550 1.353 . S
C1548 H1554 0.930 . S
N1549 Li1499 1.990 . S
N1549 C1548 1.314 . S
N1549 C1552 1.279 . S
C1550 C1548 1.353 . S
C1550 C1553 1.348 . S
C1550 H1582 0.929 . S
C1551 C1552 1.358 . S
C1551 C1553 1.356 . S
C1551 H1583 0.930 . S
C1552 N1549 1.279 . S
C1552 C1551 1.358 . S
C1552 H1555 0.930 . S
C1553 C1550 1.348 . S
C1553 C1551 1.356 . S
H1554 C1548 0.930 . S
H1555 C1552 0.930 . S
O1556 Li1496 1.956 . S
O1556 Li1497 1.970 . S
O1556 Li1498 1.961 . S
O1556 C1500 1.325 . S
O1557 Li1496 1.970 . S
O1557 Li1497 1.956 . S
O1557 Li1499 1.961 . S
O1557 C1506 1.325 . S
O1558 Li1496 1.961 . S
O1558 Li1498 1.956 . S
O1558 Li1499 1.970 . S
O1558 C1528 1.325 . S
O1559 Li1497 1.961 . S
O1559 Li1498 1.970 . S
O1559 Li1499 1.956 . S
O1559 C1534 1.325 . S
H1560 C1502 0.929 . S
H1561 C1503 0.930 . S
H1562 C1504 0.930 . S
H1563 C1505 0.930 . S
H1564 C1507 0.930 . S
H1565 C1509 0.929 . S
H1566 C1510 0.930 . S
H1567 C1511 0.930 . S
H1568 C1514 0.930 . S
H1569 C1517 0.929 . S
H1570 C1522 0.929 . S
H1571 C1523 0.930 . S
H1572 C1530 0.929 . S
H1573 C1531 0.930 . S
H1574 C1532 0.930 . S
H1575 C1533 0.930 . S
H1576 C1535 0.929 . S
H1577 C1536 0.930 . S
H1578 C1537 0.930 . S
H1579 C1538 0.930 . S
H1580 C1542 0.929 . S
H1581 C1544 0.930 . S
H1582 C1550 0.929 . S
H1583 C1551 0.930 . S
H1584 O1610 0.856 . S
H1585 O1613 0.854 . S
H1586 C1621 0.930 . S
H1587 C1622 0.930 . S
H1588 C1624 0.930 . S
H1589 C1625 0.930 . S
H1590 C1627 0.931 . S
H1591 C1628 0.930 . S
H1592 C1630 0.930 . S
H1593 C1631 0.929 . S
H1594 C1633 0.930 . S
H1595 C1634 0.931 . S
H1596 C1636 0.930 . S
H1597 C1637 0.929 . S
H1598 C1639 0.931 . S
H1599 C1640 0.930 . S
H1600 C1642 0.930 . S
H1601 C1643 0.932 . S
H1602 C1645 0.930 . S
H1603 C1646 0.929 . S
H1604 C1648 0.931 . S
H1605 C1649 0.930 . S
H1606 C1651 0.929 . S
H1607 C1652 0.931 . S
H1608 C1654 0.930 . S
H1609 C1655 0.929 . S
O1610 H1584 0.856 . S
O1610 C1656 1.300 . S
O1611 C1656 1.209 . S
O1612 C1657 1.199 . S
O1613 H1585 0.854 . S
O1613 C1657 1.297 . S
C1614 C1615 1.404 . S
C1614 C1619 1.397 . S
C1614 C1620 1.492 . S
C1615 C1614 1.404 . S
C1615 C1616 1.396 . S
C1615 C1626 1.492 . S
C1616 C1615 1.396 . S
C1616 C1617 1.397 . S
C1616 C1632 1.509 . S
C1617 C1616 1.397 . S
C1617 C1618 1.412 . S
C1617 C1638 1.485 . S
C1618 C1617 1.412 . S
C1618 C1619 1.388 . S
C1618 C1644 1.490 . S
C1619 C1614 1.397 . S
C1619 C1618 1.388 . S
C1619 C1650 1.519 . S
C1620 C1614 1.492 . S
C1620 C1621 1.363 . S
C1620 C1625 1.390 . S
C1621 H1586 0.930 . S
C1621 C1620 1.363 . S
C1621 C1622 1.372 . S
C1622 H1587 0.930 . S
C1622 C1621 1.372 . S
C1622 C1623 1.383 . S
C1623 C1622 1.383 . S
C1623 C1624 1.395 . S
C1624 H1588 0.930 . S
C1624 C1623 1.395 . S
C1624 C1625 1.362 . S
C1625 H1589 0.930 . S
C1625 C1620 1.390 . S
C1625 C1624 1.362 . S
C1626 C1615 1.492 . S
C1626 C1627 1.377 . S
C1626 C1631 1.397 . S
C1627 H1590 0.931 . S
C1627 C1626 1.377 . S
C1627 C1628 1.376 . S
C1628 H1591 0.930 . S
C1628 C1627 1.376 . S
C1628 C1629 1.376 . S
C1629 C1628 1.376 . S
C1629 C1630 1.378 . S
C1629 C1656 1.486 . S
C1630 H1592 0.930 . S
C1630 C1629 1.378 . S
C1630 C1631 1.376 . S
C1631 H1593 0.929 . S
C1631 C1626 1.397 . S
C1631 C1630 1.376 . S
C1632 C1616 1.509 . S
C1632 C1633 1.391 . S
C1632 C1637 1.386 . S
C1633 H1594 0.930 . S
C1633 C1632 1.391 . S
C1633 C1634 1.375 . S
C1634 H1595 0.931 . S
C1634 C1633 1.375 . S
C1634 C1635 1.375 . S
C1635 C1634 1.375 . S
C1635 C1636 1.361 . S
C1636 H1596 0.930 . S
C1636 C1635 1.361 . S
C1636 C1637 1.399 . S
C1637 H1597 0.929 . S
C1637 C1632 1.386 . S
C1637 C1636 1.399 . S
C1638 C1617 1.485 . S
C1638 C1639 1.394 . S
C1638 C1643 1.360 . S
C1639 H1598 0.931 . S
C1639 C1638 1.394 . S
C1639 C1640 1.372 . S
C1640 H1599 0.930 . S
C1640 C1639 1.372 . S
C1640 C1641 1.397 . S
C1641 C1640 1.397 . S
C1641 C1642 1.390 . S
C1641 C1657 1.476 . S
C1642 H1600 0.930 . S
C1642 C1641 1.390 . S
C1642 C1643 1.366 . S
C1643 H1601 0.932 . S
C1643 C1638 1.360 . S
C1643 C1642 1.366 . S
C1644 C1618 1.490 . S
C1644 C1645 1.380 . S
C1644 C1649 1.386 . S
C1645 H1602 0.930 . S
C1645 C1644 1.380 . S
C1645 C1646 1.381 . S
C1646 H1603 0.929 . S
C1646 C1645 1.381 . S
C1646 C1647 1.371 . S
C1647 C1646 1.371 . S
C1647 C1648 1.380 . S
C1648 H1604 0.931 . S
C1648 C1647 1.380 . S
C1648 C1649 1.387 . S
C1649 H1605 0.930 . S
C1649 C1644 1.386 . S
C1649 C1648 1.387 . S
C1650 C1619 1.519 . S
C1650 C1651 1.377 . S
C1650 C1655 1.361 . S
C1651 H1606 0.929 . S
C1651 C1650 1.377 . S
C1651 C1652 1.386 . S
C1652 H1607 0.931 . S
C1652 C1651 1.386 . S
C1652 C1653 1.363 . S
C1653 C1652 1.363 . S
C1653 C1654 1.385 . S
C1654 H1608 0.930 . S
C1654 C1653 1.385 . S
C1654 C1655 1.396 . S
C1655 H1609 0.929 . S
C1655 C1650 1.361 . S
C1655 C1654 1.396 . S
C1656 O1610 1.300 . S
C1656 O1611 1.209 . S
C1656 C1629 1.486 . S
C1657 O1612 1.199 . S
C1657 O1613 1.297 . S
C1657 C1641 1.476 . S
H1658 O1684 0.856 . S
H1659 O1687 0.854 . S
H1660 C1695 0.930 . S
H1661 C1696 0.930 . S
H1662 C1698 0.930 . S
H1663 C1699 0.930 . S
H1664 C1701 0.931 . S
H1665 C1702 0.930 . S
H1666 C1704 0.930 . S
H1667 C1705 0.929 . S
H1668 C1707 0.930 . S
H1669 C1708 0.931 . S
H1670 C1710 0.930 . S
H1671 C1711 0.929 . S
H1672 C1713 0.931 . S
H1673 C1714 0.930 . S
H1674 C1716 0.930 . S
H1675 C1717 0.932 . S
H1676 C1719 0.930 . S
H1677 C1720 0.929 . S
H1678 C1722 0.931 . S
H1679 C1723 0.930 . S
H1680 C1725 0.929 . S
H1681 C1726 0.931 . S
H1682 C1728 0.930 . S
H1683 C1729 0.929 . S
O1684 H1658 0.856 . S
O1684 C1730 1.300 . S
O1685 C1730 1.209 . S
O1686 C1731 1.199 . S
O1687 H1659 0.854 . S
O1687 C1731 1.297 . S
C1688 C1689 1.404 . S
C1688 C1693 1.397 . S
C1688 C1694 1.492 . S
C1689 C1688 1.404 . S
C1689 C1690 1.396 . S
C1689 C1700 1.492 . S
C1690 C1689 1.396 . S
C1690 C1691 1.397 . S
C1690 C1706 1.509 . S
C1691 C1690 1.397 . S
C1691 C1692 1.412 . S
C1691 C1712 1.485 . S
C1692 C1691 1.412 . S
C1692 C1693 1.388 . S
C1692 C1718 1.490 . S
C1693 C1688 1.397 . S
C1693 C1692 1.388 . S
C1693 C1724 1.519 . S
C1694 C1688 1.492 . S
C1694 C1695 1.363 . S
C1694 C1699 1.390 . S
C1695 H1660 0.930 . S
C1695 C1694 1.363 . S
C1695 C1696 1.372 . S
C1696 H1661 0.930 . S
C1696 C1695 1.372 . S
C1696 C1697 1.383 . S
C1697 C1696 1.383 . S
C1697 C1698 1.395 . S
C1698 H1662 0.930 . S
C1698 C1697 1.395 . S
C1698 C1699 1.362 . S
C1699 H1663 0.930 . S
C1699 C1694 1.390 . S
C1699 C1698 1.362 . S
C1700 C1689 1.492 . S
C1700 C1701 1.377 . S
C1700 C1705 1.397 . S
C1701 H1664 0.931 . S
C1701 C1700 1.377 . S
C1701 C1702 1.376 . S
C1702 H1665 0.930 . S
C1702 C1701 1.376 . S
C1702 C1703 1.376 . S
C1703 C1702 1.376 . S
C1703 C1704 1.378 . S
C1703 C1730 1.486 . S
C1704 H1666 0.930 . S
C1704 C1703 1.378 . S
C1704 C1705 1.376 . S
C1705 H1667 0.929 . S
C1705 C1700 1.397 . S
C1705 C1704 1.376 . S
C1706 C1690 1.509 . S
C1706 C1707 1.391 . S
C1706 C1711 1.386 . S
C1707 H1668 0.930 . S
C1707 C1706 1.391 . S
C1707 C1708 1.375 . S
C1708 H1669 0.931 . S
C1708 C1707 1.375 . S
C1708 C1709 1.375 . S
C1709 C1708 1.375 . S
C1709 C1710 1.361 . S
C1710 H1670 0.930 . S
C1710 C1709 1.361 . S
C1710 C1711 1.399 . S
C1711 H1671 0.929 . S
C1711 C1706 1.386 . S
C1711 C1710 1.399 . S
C1712 C1691 1.485 . S
C1712 C1713 1.394 . S
C1712 C1717 1.360 . S
C1713 H1672 0.931 . S
C1713 C1712 1.394 . S
C1713 C1714 1.372 . S
C1714 H1673 0.930 . S
C1714 C1713 1.372 . S
C1714 C1715 1.397 . S
C1715 C1714 1.397 . S
C1715 C1716 1.390 . S
C1715 C1731 1.476 . S
C1716 H1674 0.930 . S
C1716 C1715 1.390 . S
C1716 C1717 1.366 . S
C1717 H1675 0.932 . S
C1717 C1712 1.360 . S
C1717 C1716 1.366 . S
C1718 C1692 1.490 . S
C1718 C1719 1.380 . S
C1718 C1723 1.386 . S
C1719 H1676 0.930 . S
C1719 C1718 1.380 . S
C1719 C1720 1.381 . S
C1720 H1677 0.929 . S
C1720 C1719 1.381 . S
C1720 C1721 1.371 . S
C1721 C1720 1.371 . S
C1721 C1722 1.380 . S
C1722 H1678 0.931 . S
C1722 C1721 1.380 . S
C1722 C1723 1.387 . S
C1723 H1679 0.930 . S
C1723 C1718 1.386 . S
C1723 C1722 1.387 . S
C1724 C1693 1.519 . S
C1724 C1725 1.377 . S
C1724 C1729 1.361 . S
C1725 H1680 0.929 . S
C1725 C1724 1.377 . S
C1725 C1726 1.386 . S
C1726 H1681 0.931 . S
C1726 C1725 1.386 . S
C1726 C1727 1.363 . S
C1727 C1726 1.363 . S
C1727 C1728 1.385 . S
C1728 H1682 0.930 . S
C1728 C1727 1.385 . S
C1728 C1729 1.396 . S
C1729 H1683 0.929 . S
C1729 C1724 1.361 . S
C1729 C1728 1.396 . S
C1730 O1684 1.300 . S
C1730 O1685 1.209 . S
C1730 C1703 1.486 . S
C1731 O1686 1.199 . S
C1731 O1687 1.297 . S
C1731 C1715 1.476 . S
H1732 O1758 0.856 . S
H1733 O1761 0.854 . S
H1734 C1769 0.930 . S
H1735 C1770 0.930 . S
H1736 C1772 0.930 . S
H1737 C1773 0.930 . S
H1738 C1775 0.931 . S
H1739 C1776 0.930 . S
H1740 C1778 0.930 . S
H1741 C1779 0.929 . S
H1742 C1781 0.930 . S
H1743 C1782 0.931 . S
H1744 C1784 0.930 . S
H1745 C1785 0.929 . S
H1746 C1787 0.931 . S
H1747 C1788 0.930 . S
H1748 C1790 0.930 . S
H1749 C1791 0.932 . S
H1750 C1793 0.930 . S
H1751 C1794 0.929 . S
H1752 C1796 0.931 . S
H1753 C1797 0.930 . S
H1754 C1799 0.929 . S
H1755 C1800 0.931 . S
H1756 C1802 0.930 . S
H1757 C1803 0.929 . S
O1758 H1732 0.856 . S
O1758 C1804 1.300 . S
O1759 C1804 1.209 . S
O1760 C1805 1.199 . S
O1761 H1733 0.854 . S
O1761 C1805 1.297 . S
C1762 C1763 1.404 . S
C1762 C1767 1.397 . S
C1762 C1768 1.492 . S
C1763 C1762 1.404 . S
C1763 C1764 1.396 . S
C1763 C1774 1.492 . S
C1764 C1763 1.396 . S
C1764 C1765 1.397 . S
C1764 C1780 1.509 . S
C1765 C1764 1.397 . S
C1765 C1766 1.412 . S
C1765 C1786 1.485 . S
C1766 C1765 1.412 . S
C1766 C1767 1.388 . S
C1766 C1792 1.490 . S
C1767 C1762 1.397 . S
C1767 C1766 1.388 . S
C1767 C1798 1.519 . S
C1768 C1762 1.492 . S
C1768 C1769 1.363 . S
C1768 C1773 1.390 . S
C1769 H1734 0.930 . S
C1769 C1768 1.363 . S
C1769 C1770 1.372 . S
C1770 H1735 0.930 . S
C1770 C1769 1.372 . S
C1770 C1771 1.383 . S
C1771 C1770 1.383 . S
C1771 C1772 1.395 . S
C1772 H1736 0.930 . S
C1772 C1771 1.395 . S
C1772 C1773 1.362 . S
C1773 H1737 0.930 . S
C1773 C1768 1.390 . S
C1773 C1772 1.362 . S
C1774 C1763 1.492 . S
C1774 C1775 1.377 . S
C1774 C1779 1.397 . S
C1775 H1738 0.931 . S
C1775 C1774 1.377 . S
C1775 C1776 1.376 . S
C1776 H1739 0.930 . S
C1776 C1775 1.376 . S
C1776 C1777 1.376 . S
C1777 C1776 1.376 . S
C1777 C1778 1.378 . S
C1777 C1804 1.486 . S
C1778 H1740 0.930 . S
C1778 C1777 1.378 . S
C1778 C1779 1.376 . S
C1779 H1741 0.929 . S
C1779 C1774 1.397 . S
C1779 C1778 1.376 . S
C1780 C1764 1.509 . S
C1780 C1781 1.391 . S
C1780 C1785 1.386 . S
C1781 H1742 0.930 . S
C1781 C1780 1.391 . S
C1781 C1782 1.375 . S
C1782 H1743 0.931 . S
C1782 C1781 1.375 . S
C1782 C1783 1.375 . S
C1783 C1782 1.375 . S
C1783 C1784 1.361 . S
C1784 H1744 0.930 . S
C1784 C1783 1.361 . S
C1784 C1785 1.399 . S
C1785 H1745 0.929 . S
C1785 C1780 1.386 . S
C1785 C1784 1.399 . S
C1786 C1765 1.485 . S
C1786 C1787 1.394 . S
C1786 C1791 1.360 . S
C1787 H1746 0.931 . S
C1787 C1786 1.394 . S
C1787 C1788 1.372 . S
C1788 H1747 0.930 . S
C1788 C1787 1.372 . S
C1788 C1789 1.397 . S
C1789 C1788 1.397 . S
C1789 C1790 1.390 . S
C1789 C1805 1.476 . S
C1790 H1748 0.930 . S
C1790 C1789 1.390 . S
C1790 C1791 1.366 . S
C1791 H1749 0.932 . S
C1791 C1786 1.360 . S
C1791 C1790 1.366 . S
C1792 C1766 1.490 . S
C1792 C1793 1.380 . S
C1792 C1797 1.386 . S
C1793 H1750 0.930 . S
C1793 C1792 1.380 . S
C1793 C1794 1.381 . S
C1794 H1751 0.929 . S
C1794 C1793 1.381 . S
C1794 C1795 1.371 . S
C1795 C1794 1.371 . S
C1795 C1796 1.380 . S
C1796 H1752 0.931 . S
C1796 C1795 1.380 . S
C1796 C1797 1.387 . S
C1797 H1753 0.930 . S
C1797 C1792 1.386 . S
C1797 C1796 1.387 . S
C1798 C1767 1.519 . S
C1798 C1799 1.377 . S
C1798 C1803 1.361 . S
C1799 H1754 0.929 . S
C1799 C1798 1.377 . S
C1799 C1800 1.386 . S
C1800 H1755 0.931 . S
C1800 C1799 1.386 . S
C1800 C1801 1.363 . S
C1801 C1800 1.363 . S
C1801 C1802 1.385 . S
C1802 H1756 0.930 . S
C1802 C1801 1.385 . S
C1802 C1803 1.396 . S
C1803 H1757 0.929 . S
C1803 C1798 1.361 . S
C1803 C1802 1.396 . S
C1804 O1758 1.300 . S
C1804 O1759 1.209 . S
C1804 C1777 1.486 . S
C1805 O1760 1.199 . S
C1805 O1761 1.297 . S
C1805 C1789 1.476 . S
H1806 O1832 0.856 1_554 S
H1807 O1835 0.854 . S
H1808 C1843 0.930 . S
H1809 C1844 0.930 . S
H1810 C1846 0.930 . S
H1811 C1847 0.930 . S
H1812 C1849 0.931 . S
H1813 C1850 0.930 . S
H1814 C1852 0.930 . S
H1815 C1853 0.929 . S
H1816 C1855 0.930 . S
H1817 C1856 0.931 . S
H1818 C1858 0.930 . S
H1819 C1859 0.929 . S
H1820 C1861 0.931 . S
H1821 C1862 0.930 . S
H1822 C1864 0.930 . S
H1823 C1865 0.932 . S
H1824 C1867 0.930 . S
H1825 C1868 0.929 . S
H1826 C1870 0.931 . S
H1827 C1871 0.930 . S
H1828 C1873 0.929 . S
H1829 C1874 0.931 . S
H1830 C1876 0.930 . S
H1831 C1877 0.929 . S
O1832 H1806 0.856 1_556 S
O1832 C1878 1.300 . S
O1833 C1878 1.209 . S
O1834 C1879 1.199 . S
O1835 H1807 0.854 . S
O1835 C1879 1.297 . S
C1836 C1837 1.404 . S
C1836 C1841 1.397 . S
C1836 C1842 1.492 . S
C1837 C1836 1.404 . S
C1837 C1838 1.396 . S
C1837 C1848 1.492 . S
C1838 C1837 1.396 . S
C1838 C1839 1.397 . S
C1838 C1854 1.509 . S
C1839 C1838 1.397 . S
C1839 C1840 1.412 . S
C1839 C1860 1.485 . S
C1840 C1839 1.412 . S
C1840 C1841 1.388 . S
C1840 C1866 1.490 . S
C1841 C1836 1.397 . S
C1841 C1840 1.388 . S
C1841 C1872 1.519 . S
C1842 C1836 1.492 . S
C1842 C1843 1.363 . S
C1842 C1847 1.390 . S
C1843 H1808 0.930 . S
C1843 C1842 1.363 . S
C1843 C1844 1.372 . S
C1844 H1809 0.930 . S
C1844 C1843 1.372 . S
C1844 C1845 1.383 . S
C1845 C1844 1.383 . S
C1845 C1846 1.395 . S
C1846 H1810 0.930 . S
C1846 C1845 1.395 . S
C1846 C1847 1.362 . S
C1847 H1811 0.930 . S
C1847 C1842 1.390 . S
C1847 C1846 1.362 . S
C1848 C1837 1.492 . S
C1848 C1849 1.377 . S
C1848 C1853 1.397 . S
C1849 H1812 0.931 . S
C1849 C1848 1.377 . S
C1849 C1850 1.376 . S
C1850 H1813 0.930 . S
C1850 C1849 1.376 . S
C1850 C1851 1.376 . S
C1851 C1850 1.376 . S
C1851 C1852 1.378 . S
C1851 C1878 1.486 . S
C1852 H1814 0.930 . S
C1852 C1851 1.378 . S
C1852 C1853 1.376 . S
C1853 H1815 0.929 . S
C1853 C1848 1.397 . S
C1853 C1852 1.376 . S
C1854 C1838 1.509 . S
C1854 C1855 1.391 . S
C1854 C1859 1.386 . S
C1855 H1816 0.930 . S
C1855 C1854 1.391 . S
C1855 C1856 1.375 . S
C1856 H1817 0.931 . S
C1856 C1855 1.375 . S
C1856 C1857 1.375 . S
C1857 C1856 1.375 . S
C1857 C1858 1.361 . S
C1858 H1818 0.930 . S
C1858 C1857 1.361 . S
C1858 C1859 1.399 . S
C1859 H1819 0.929 . S
C1859 C1854 1.386 . S
C1859 C1858 1.399 . S
C1860 C1839 1.485 . S
C1860 C1861 1.394 . S
C1860 C1865 1.360 . S
C1861 H1820 0.931 . S
C1861 C1860 1.394 . S
C1861 C1862 1.372 . S
C1862 H1821 0.930 . S
C1862 C1861 1.372 . S
C1862 C1863 1.397 . S
C1863 C1862 1.397 . S
C1863 C1864 1.390 . S
C1863 C1879 1.476 . S
C1864 H1822 0.930 . S
C1864 C1863 1.390 . S
C1864 C1865 1.366 . S
C1865 H1823 0.932 . S
C1865 C1860 1.360 . S
C1865 C1864 1.366 . S
C1866 C1840 1.490 . S
C1866 C1867 1.380 . S
C1866 C1871 1.386 . S
C1867 H1824 0.930 . S
C1867 C1866 1.380 . S
C1867 C1868 1.381 . S
C1868 H1825 0.929 . S
C1868 C1867 1.381 . S
C1868 C1869 1.371 . S
C1869 C1868 1.371 . S
C1869 C1870 1.380 . S
C1870 H1826 0.931 . S
C1870 C1869 1.380 . S
C1870 C1871 1.387 . S
C1871 H1827 0.930 . S
C1871 C1866 1.386 . S
C1871 C1870 1.387 . S
C1872 C1841 1.519 . S
C1872 C1873 1.377 . S
C1872 C1877 1.361 . S
C1873 H1828 0.929 . S
C1873 C1872 1.377 . S
C1873 C1874 1.386 . S
C1874 H1829 0.931 . S
C1874 C1873 1.386 . S
C1874 C1875 1.363 . S
C1875 C1874 1.363 . S
C1875 C1876 1.385 . S
C1876 H1830 0.930 . S
C1876 C1875 1.385 . S
C1876 C1877 1.396 . S
C1877 H1831 0.929 . S
C1877 C1872 1.361 . S
C1877 C1876 1.396 . S
C1878 O1832 1.300 . S
C1878 O1833 1.209 . S
C1878 C1851 1.486 . S
C1879 O1834 1.199 . S
C1879 O1835 1.297 . S
C1879 C1863 1.476 . S
H1880 O1906 0.856 . S
H1881 O1909 0.854 . S
H1882 C1917 0.930 . S
H1883 C1918 0.930 . S
H1884 C1920 0.930 . S
H1885 C1921 0.930 . S
H1886 C1923 0.931 . S
H1887 C1924 0.930 . S
H1888 C1926 0.930 . S
H1889 C1927 0.929 . S
H1890 C1929 0.930 . S
H1891 C1930 0.931 . S
H1892 C1932 0.930 . S
H1893 C1933 0.929 . S
H1894 C1935 0.931 . S
H1895 C1936 0.930 . S
H1896 C1938 0.930 . S
H1897 C1939 0.932 . S
H1898 C1941 0.930 . S
H1899 C1942 0.929 . S
H1900 C1944 0.931 . S
H1901 C1945 0.930 . S
H1902 C1947 0.929 . S
H1903 C1948 0.931 . S
H1904 C1950 0.930 . S
H1905 C1951 0.929 . S
O1906 H1880 0.856 . S
O1906 C1952 1.300 1_554 S
O1907 C1952 1.209 1_554 S
O1908 C1953 1.199 . S
O1909 H1881 0.854 . S
O1909 C1953 1.297 . S
C1910 C1911 1.404 . S
C1910 C1915 1.397 . S
C1910 C1916 1.492 . S
C1911 C1910 1.404 . S
C1911 C1912 1.396 . S
C1911 C1922 1.492 . S
C1912 C1911 1.396 . S
C1912 C1913 1.397 . S
C1912 C1928 1.509 . S
C1913 C1912 1.397 . S
C1913 C1914 1.412 . S
C1913 C1934 1.485 . S
C1914 C1913 1.412 . S
C1914 C1915 1.388 . S
C1914 C1940 1.490 . S
C1915 C1910 1.397 . S
C1915 C1914 1.388 . S
C1915 C1946 1.519 . S
C1916 C1910 1.492 . S
C1916 C1917 1.363 . S
C1916 C1921 1.390 . S
C1917 H1882 0.930 . S
C1917 C1916 1.363 . S
C1917 C1918 1.372 . S
C1918 H1883 0.930 . S
C1918 C1917 1.372 . S
C1918 C1919 1.383 . S
C1919 C1918 1.383 . S
C1919 C1920 1.395 . S
C1920 H1884 0.930 . S
C1920 C1919 1.395 . S
C1920 C1921 1.362 . S
C1921 H1885 0.930 . S
C1921 C1916 1.390 . S
C1921 C1920 1.362 . S
C1922 C1911 1.492 . S
C1922 C1923 1.377 . S
C1922 C1927 1.397 . S
C1923 H1886 0.931 . S
C1923 C1922 1.377 . S
C1923 C1924 1.376 . S
C1924 H1887 0.930 . S
C1924 C1923 1.376 . S
C1924 C1925 1.376 . S
C1925 C1924 1.376 . S
C1925 C1926 1.378 . S
C1925 C1952 1.486 . S
C1926 H1888 0.930 . S
C1926 C1925 1.378 . S
C1926 C1927 1.376 . S
C1927 H1889 0.929 . S
C1927 C1922 1.397 . S
C1927 C1926 1.376 . S
C1928 C1912 1.509 . S
C1928 C1929 1.391 . S
C1928 C1933 1.386 . S
C1929 H1890 0.930 . S
C1929 C1928 1.391 . S
C1929 C1930 1.375 . S
C1930 H1891 0.931 . S
C1930 C1929 1.375 . S
C1930 C1931 1.375 . S
C1931 C1930 1.375 . S
C1931 C1932 1.361 . S
C1932 H1892 0.930 . S
C1932 C1931 1.361 . S
C1932 C1933 1.399 . S
C1933 H1893 0.929 . S
C1933 C1928 1.386 . S
C1933 C1932 1.399 . S
C1934 C1913 1.485 . S
C1934 C1935 1.394 . S
C1934 C1939 1.360 . S
C1935 H1894 0.931 . S
C1935 C1934 1.394 . S
C1935 C1936 1.372 . S
C1936 H1895 0.930 . S
C1936 C1935 1.372 . S
C1936 C1937 1.397 . S
C1937 C1936 1.397 . S
C1937 C1938 1.390 . S
C1937 C1953 1.476 . S
C1938 H1896 0.930 . S
C1938 C1937 1.390 . S
C1938 C1939 1.366 . S
C1939 H1897 0.932 . S
C1939 C1934 1.360 . S
C1939 C1938 1.366 . S
C1940 C1914 1.490 . S
C1940 C1941 1.380 . S
C1940 C1945 1.386 . S
C1941 H1898 0.930 . S
C1941 C1940 1.380 . S
C1941 C1942 1.381 . S
C1942 H1899 0.929 . S
C1942 C1941 1.381 . S
C1942 C1943 1.371 . S
C1943 C1942 1.371 . S
C1943 C1944 1.380 . S
C1944 H1900 0.931 . S
C1944 C1943 1.380 . S
C1944 C1945 1.387 . S
C1945 H1901 0.930 . S
C1945 C1940 1.386 . S
C1945 C1944 1.387 . S
C1946 C1915 1.519 . S
C1946 C1947 1.377 . S
C1946 C1951 1.361 . S
C1947 H1902 0.929 . S
C1947 C1946 1.377 . S
C1947 C1948 1.386 . S
C1948 H1903 0.931 . S
C1948 C1947 1.386 . S
C1948 C1949 1.363 . S
C1949 C1948 1.363 . S
C1949 C1950 1.385 . S
C1950 H1904 0.930 . S
C1950 C1949 1.385 . S
C1950 C1951 1.396 . S
C1951 H1905 0.929 . S
C1951 C1946 1.361 . S
C1951 C1950 1.396 . S
C1952 O1906 1.300 1_556 S
C1952 O1907 1.209 1_556 S
C1952 C1925 1.486 . S
C1953 O1908 1.199 . S
C1953 O1909 1.297 . S
C1953 C1937 1.476 . S
H1954 O1980 0.856 . S
H1955 O1983 0.854 . S
H1956 C1991 0.930 . S
H1957 C1992 0.930 . S
H1958 C1994 0.930 . S
H1959 C1995 0.930 . S
H1960 C1997 0.931 . S
H1961 C1998 0.930 . S
H1962 C2000 0.930 . S
H1963 C2001 0.929 . S
H1964 C2003 0.930 . S
H1965 C2004 0.931 . S
H1966 C2006 0.930 . S
H1967 C2007 0.929 . S
H1968 C2009 0.931 . S
H1969 C2010 0.930 . S
H1970 C2012 0.930 . S
H1971 C2013 0.932 . S
H1972 C2015 0.930 . S
H1973 C2016 0.929 . S
H1974 C2018 0.931 . S
H1975 C2019 0.930 . S
H1976 C2021 0.929 . S
H1977 C2022 0.931 . S
H1978 C2024 0.930 . S
H1979 C2025 0.929 . S
O1980 H1954 0.856 . S
O1980 C2026 1.300 . S
O1981 C2026 1.209 . S
O1982 C2027 1.199 . S
O1983 H1955 0.854 . S
O1983 C2027 1.297 . S
C1984 C1985 1.404 . S
C1984 C1989 1.397 . S
C1984 C1990 1.492 . S
C1985 C1984 1.404 . S
C1985 C1986 1.396 . S
C1985 C1996 1.492 . S
C1986 C1985 1.396 . S
C1986 C1987 1.397 . S
C1986 C2002 1.509 . S
C1987 C1986 1.397 . S
C1987 C1988 1.412 . S
C1987 C2008 1.485 . S
C1988 C1987 1.412 . S
C1988 C1989 1.388 . S
C1988 C2014 1.490 . S
C1989 C1984 1.397 . S
C1989 C1988 1.388 . S
C1989 C2020 1.519 . S
C1990 C1984 1.492 . S
C1990 C1991 1.363 . S
C1990 C1995 1.390 . S
C1991 H1956 0.930 . S
C1991 C1990 1.363 . S
C1991 C1992 1.372 . S
C1992 H1957 0.930 . S
C1992 C1991 1.372 . S
C1992 C1993 1.383 . S
C1993 C1992 1.383 . S
C1993 C1994 1.395 . S
C1994 H1958 0.930 . S
C1994 C1993 1.395 . S
C1994 C1995 1.362 . S
C1995 H1959 0.930 . S
C1995 C1990 1.390 . S
C1995 C1994 1.362 . S
C1996 C1985 1.492 . S
C1996 C1997 1.377 . S
C1996 C2001 1.397 . S
C1997 H1960 0.931 . S
C1997 C1996 1.377 . S
C1997 C1998 1.376 . S
C1998 H1961 0.930 . S
C1998 C1997 1.376 . S
C1998 C1999 1.376 . S
C1999 C1998 1.376 . S
C1999 C2000 1.378 . S
C1999 C2026 1.486 1_556 S
C2000 H1962 0.930 . S
C2000 C1999 1.378 . S
C2000 C2001 1.376 . S
C2001 H1963 0.929 . S
C2001 C1996 1.397 . S
C2001 C2000 1.376 . S
C2002 C1986 1.509 . S
C2002 C2003 1.391 . S
C2002 C2007 1.386 . S
C2003 H1964 0.930 . S
C2003 C2002 1.391 . S
C2003 C2004 1.375 . S
C2004 H1965 0.931 . S
C2004 C2003 1.375 . S
C2004 C2005 1.375 . S
C2005 C2004 1.375 . S
C2005 C2006 1.361 . S
C2006 H1966 0.930 . S
C2006 C2005 1.361 . S
C2006 C2007 1.399 . S
C2007 H1967 0.929 . S
C2007 C2002 1.386 . S
C2007 C2006 1.399 . S
C2008 C1987 1.485 . S
C2008 C2009 1.394 . S
C2008 C2013 1.360 . S
C2009 H1968 0.931 . S
C2009 C2008 1.394 . S
C2009 C2010 1.372 . S
C2010 H1969 0.930 . S
C2010 C2009 1.372 . S
C2010 C2011 1.397 . S
C2011 C2010 1.397 . S
C2011 C2012 1.390 . S
C2011 C2027 1.476 . S
C2012 H1970 0.930 . S
C2012 C2011 1.390 . S
C2012 C2013 1.366 . S
C2013 H1971 0.932 . S
C2013 C2008 1.360 . S
C2013 C2012 1.366 . S
C2014 C1988 1.490 . S
C2014 C2015 1.380 . S
C2014 C2019 1.386 . S
C2015 H1972 0.930 . S
C2015 C2014 1.380 . S
C2015 C2016 1.381 . S
C2016 H1973 0.929 . S
C2016 C2015 1.381 . S
C2016 C2017 1.371 . S
C2017 C2016 1.371 . S
C2017 C2018 1.380 . S
C2018 H1974 0.931 . S
C2018 C2017 1.380 . S
C2018 C2019 1.387 . S
C2019 H1975 0.930 . S
C2019 C2014 1.386 . S
C2019 C2018 1.387 . S
C2020 C1989 1.519 . S
C2020 C2021 1.377 . S
C2020 C2025 1.361 . S
C2021 H1976 0.929 . S
C2021 C2020 1.377 . S
C2021 C2022 1.386 . S
C2022 H1977 0.931 . S
C2022 C2021 1.386 . S
C2022 C2023 1.363 . S
C2023 C2022 1.363 . S
C2023 C2024 1.385 . S
C2024 H1978 0.930 . S
C2024 C2023 1.385 . S
C2024 C2025 1.396 . S
C2025 H1979 0.929 . S
C2025 C2020 1.361 . S
C2025 C2024 1.396 . S
C2026 O1980 1.300 . S
C2026 O1981 1.209 . S
C2026 C1999 1.486 1_554 S
C2027 O1982 1.199 . S
C2027 O1983 1.297 . S
C2027 C2011 1.476 . S
H2028 O2054 0.856 . S
H2029 O2057 0.854 . S
H2030 C2065 0.930 . S
H2031 C2066 0.930 . S
H2032 C2068 0.930 . S
H2033 C2069 0.930 . S
H2034 C2071 0.931 . S
H2035 C2072 0.930 . S
H2036 C2074 0.930 . S
H2037 C2075 0.929 . S
H2038 C2077 0.930 . S
H2039 C2078 0.931 . S
H2040 C2080 0.930 . S
H2041 C2081 0.929 . S
H2042 C2083 0.931 . S
H2043 C2084 0.930 . S
H2044 C2086 0.930 . S
H2045 C2087 0.932 . S
H2046 C2089 0.930 . S
H2047 C2090 0.929 . S
H2048 C2092 0.931 . S
H2049 C2093 0.930 . S
H2050 C2095 0.929 . S
H2051 C2096 0.931 . S
H2052 C2098 0.930 . S
H2053 C2099 0.929 . S
O2054 H2028 0.856 . S
O2054 C2100 1.300 . S
O2055 C2100 1.209 . S
O2056 C2101 1.199 . S
O2057 H2029 0.854 . S
O2057 C2101 1.297 . S
C2058 C2059 1.404 . S
C2058 C2063 1.397 . S
C2058 C2064 1.492 . S
C2059 C2058 1.404 . S
C2059 C2060 1.396 . S
C2059 C2070 1.492 . S
C2060 C2059 1.396 . S
C2060 C2061 1.397 . S
C2060 C2076 1.509 . S
C2061 C2060 1.397 . S
C2061 C2062 1.412 . S
C2061 C2082 1.485 . S
C2062 C2061 1.412 . S
C2062 C2063 1.388 . S
C2062 C2088 1.490 . S
C2063 C2058 1.397 . S
C2063 C2062 1.388 . S
C2063 C2094 1.519 . S
C2064 C2058 1.492 . S
C2064 C2065 1.363 . S
C2064 C2069 1.390 . S
C2065 H2030 0.930 . S
C2065 C2064 1.363 . S
C2065 C2066 1.372 . S
C2066 H2031 0.930 . S
C2066 C2065 1.372 . S
C2066 C2067 1.383 . S
C2067 C2066 1.383 . S
C2067 C2068 1.395 . S
C2068 H2032 0.930 . S
C2068 C2067 1.395 . S
C2068 C2069 1.362 . S
C2069 H2033 0.930 . S
C2069 C2064 1.390 . S
C2069 C2068 1.362 . S
C2070 C2059 1.492 . S
C2070 C2071 1.377 . S
C2070 C2075 1.397 . S
C2071 H2034 0.931 . S
C2071 C2070 1.377 . S
C2071 C2072 1.376 . S
C2072 H2035 0.930 . S
C2072 C2071 1.376 . S
C2072 C2073 1.376 . S
C2073 C2072 1.376 . S
C2073 C2074 1.378 . S
C2073 C2100 1.486 . S
C2074 H2036 0.930 . S
C2074 C2073 1.378 . S
C2074 C2075 1.376 . S
C2075 H2037 0.929 . S
C2075 C2070 1.397 . S
C2075 C2074 1.376 . S
C2076 C2060 1.509 . S
C2076 C2077 1.391 . S
C2076 C2081 1.386 . S
C2077 H2038 0.930 . S
C2077 C2076 1.391 . S
C2077 C2078 1.375 . S
C2078 H2039 0.931 . S
C2078 C2077 1.375 . S
C2078 C2079 1.375 . S
C2079 C2078 1.375 . S
C2079 C2080 1.361 . S
C2080 H2040 0.930 . S
C2080 C2079 1.361 . S
C2080 C2081 1.399 . S
C2081 H2041 0.929 . S
C2081 C2076 1.386 . S
C2081 C2080 1.399 . S
C2082 C2061 1.485 . S
C2082 C2083 1.394 . S
C2082 C2087 1.360 . S
C2083 H2042 0.931 . S
C2083 C2082 1.394 . S
C2083 C2084 1.372 . S
C2084 H2043 0.930 . S
C2084 C2083 1.372 . S
C2084 C2085 1.397 . S
C2085 C2084 1.397 . S
C2085 C2086 1.390 . S
C2085 C2101 1.476 . S
C2086 H2044 0.930 . S
C2086 C2085 1.390 . S
C2086 C2087 1.366 . S
C2087 H2045 0.932 . S
C2087 C2082 1.360 . S
C2087 C2086 1.366 . S
C2088 C2062 1.490 . S
C2088 C2089 1.380 . S
C2088 C2093 1.386 . S
C2089 H2046 0.930 . S
C2089 C2088 1.380 . S
C2089 C2090 1.381 . S
C2090 H2047 0.929 . S
C2090 C2089 1.381 . S
C2090 C2091 1.371 . S
C2091 C2090 1.371 . S
C2091 C2092 1.380 . S
C2092 H2048 0.931 . S
C2092 C2091 1.380 . S
C2092 C2093 1.387 . S
C2093 H2049 0.930 . S
C2093 C2088 1.386 . S
C2093 C2092 1.387 . S
C2094 C2063 1.519 . S
C2094 C2095 1.377 . S
C2094 C2099 1.361 . S
C2095 H2050 0.929 . S
C2095 C2094 1.377 . S
C2095 C2096 1.386 . S
C2096 H2051 0.931 . S
C2096 C2095 1.386 . S
C2096 C2097 1.363 . S
C2097 C2096 1.363 . S
C2097 C2098 1.385 . S
C2098 H2052 0.930 . S
C2098 C2097 1.385 . S
C2098 C2099 1.396 . S
C2099 H2053 0.929 . S
C2099 C2094 1.361 . S
C2099 C2098 1.396 . S
C2100 O2054 1.300 . S
C2100 O2055 1.209 . S
C2100 C2073 1.486 . S
C2101 O2056 1.199 . S
C2101 O2057 1.297 . S
C2101 C2085 1.476 . S
H2102 O2128 0.856 . S
H2103 O2131 0.854 . S
H2104 C2139 0.930 . S
H2105 C2140 0.930 . S
H2106 C2142 0.930 . S
H2107 C2143 0.930 . S
H2108 C2145 0.931 . S
H2109 C2146 0.930 . S
H2110 C2148 0.930 . S
H2111 C2149 0.929 . S
H2112 C2151 0.930 . S
H2113 C2152 0.931 . S
H2114 C2154 0.930 . S
H2115 C2155 0.929 . S
H2116 C2157 0.931 . S
H2117 C2158 0.930 . S
H2118 C2160 0.930 . S
H2119 C2161 0.932 . S
H2120 C2163 0.930 . S
H2121 C2164 0.929 . S
H2122 C2166 0.931 . S
H2123 C2167 0.930 . S
H2124 C2169 0.929 . S
H2125 C2170 0.931 . S
H2126 C2172 0.930 . S
H2127 C2173 0.929 . S
O2128 H2102 0.856 . S
O2128 C2174 1.300 . S
O2129 C2174 1.209 . S
O2130 C2175 1.199 . S
O2131 H2103 0.854 . S
O2131 C2175 1.297 . S
C2132 C2133 1.404 . S
C2132 C2137 1.397 . S
C2132 C2138 1.492 . S
C2133 C2132 1.404 . S
C2133 C2134 1.396 . S
C2133 C2144 1.492 . S
C2134 C2133 1.396 . S
C2134 C2135 1.397 . S
C2134 C2150 1.509 . S
C2135 C2134 1.397 . S
C2135 C2136 1.412 . S
C2135 C2156 1.485 . S
C2136 C2135 1.412 . S
C2136 C2137 1.388 . S
C2136 C2162 1.490 . S
C2137 C2132 1.397 . S
C2137 C2136 1.388 . S
C2137 C2168 1.519 . S
C2138 C2132 1.492 . S
C2138 C2139 1.363 . S
C2138 C2143 1.390 . S
C2139 H2104 0.930 . S
C2139 C2138 1.363 . S
C2139 C2140 1.372 . S
C2140 H2105 0.930 . S
C2140 C2139 1.372 . S
C2140 C2141 1.383 . S
C2141 C2140 1.383 . S
C2141 C2142 1.395 . S
C2142 H2106 0.930 . S
C2142 C2141 1.395 . S
C2142 C2143 1.362 . S
C2143 H2107 0.930 . S
C2143 C2138 1.390 . S
C2143 C2142 1.362 . S
C2144 C2133 1.492 . S
C2144 C2145 1.377 . S
C2144 C2149 1.397 . S
C2145 H2108 0.931 . S
C2145 C2144 1.377 . S
C2145 C2146 1.376 . S
C2146 H2109 0.930 . S
C2146 C2145 1.376 . S
C2146 C2147 1.376 . S
C2147 C2146 1.376 . S
C2147 C2148 1.378 . S
C2147 C2174 1.486 . S
C2148 H2110 0.930 . S
C2148 C2147 1.378 . S
C2148 C2149 1.376 . S
C2149 H2111 0.929 . S
C2149 C2144 1.397 . S
C2149 C2148 1.376 . S
C2150 C2134 1.509 . S
C2150 C2151 1.391 . S
C2150 C2155 1.386 . S
C2151 H2112 0.930 . S
C2151 C2150 1.391 . S
C2151 C2152 1.375 . S
C2152 H2113 0.931 . S
C2152 C2151 1.375 . S
C2152 C2153 1.375 . S
C2153 C2152 1.375 . S
C2153 C2154 1.361 . S
C2154 H2114 0.930 . S
C2154 C2153 1.361 . S
C2154 C2155 1.399 . S
C2155 H2115 0.929 . S
C2155 C2150 1.386 . S
C2155 C2154 1.399 . S
C2156 C2135 1.485 . S
C2156 C2157 1.394 . S
C2156 C2161 1.360 . S
C2157 H2116 0.931 . S
C2157 C2156 1.394 . S
C2157 C2158 1.372 . S
C2158 H2117 0.930 . S
C2158 C2157 1.372 . S
C2158 C2159 1.397 . S
C2159 C2158 1.397 . S
C2159 C2160 1.390 . S
C2159 C2175 1.476 . S
C2160 H2118 0.930 . S
C2160 C2159 1.390 . S
C2160 C2161 1.366 . S
C2161 H2119 0.932 . S
C2161 C2156 1.360 . S
C2161 C2160 1.366 . S
C2162 C2136 1.490 . S
C2162 C2163 1.380 . S
C2162 C2167 1.386 . S
C2163 H2120 0.930 . S
C2163 C2162 1.380 . S
C2163 C2164 1.381 . S
C2164 H2121 0.929 . S
C2164 C2163 1.381 . S
C2164 C2165 1.371 . S
C2165 C2164 1.371 . S
C2165 C2166 1.380 . S
C2166 H2122 0.931 . S
C2166 C2165 1.380 . S
C2166 C2167 1.387 . S
C2167 H2123 0.930 . S
C2167 C2162 1.386 . S
C2167 C2166 1.387 . S
C2168 C2137 1.519 . S
C2168 C2169 1.377 . S
C2168 C2173 1.361 . S
C2169 H2124 0.929 . S
C2169 C2168 1.377 . S
C2169 C2170 1.386 . S
C2170 H2125 0.931 . S
C2170 C2169 1.386 . S
C2170 C2171 1.363 . S
C2171 C2170 1.363 . S
C2171 C2172 1.385 . S
C2172 H2126 0.930 . S
C2172 C2171 1.385 . S
C2172 C2173 1.396 . S
C2173 H2127 0.929 . S
C2173 C2168 1.361 . S
C2173 C2172 1.396 . S
C2174 O2128 1.300 . S
C2174 O2129 1.209 . S
C2174 C2147 1.486 . S
C2175 O2130 1.199 . S
C2175 O2131 1.297 . S
C2175 C2159 1.476 . S
H2176 O2202 0.856 . S
H2177 O2205 0.854 . S
H2178 C2213 0.930 . S
H2179 C2214 0.930 . S
H2180 C2216 0.930 . S
H2181 C2217 0.930 . S
H2182 C2219 0.931 . S
H2183 C2220 0.930 . S
H2184 C2222 0.930 . S
H2185 C2223 0.929 . S
H2186 C2225 0.930 . S
H2187 C2226 0.931 . S
H2188 C2228 0.930 . S
H2189 C2229 0.929 . S
H2190 C2231 0.931 . S
H2191 C2232 0.930 . S
H2192 C2234 0.930 . S
H2193 C2235 0.932 . S
H2194 C2237 0.930 . S
H2195 C2238 0.929 . S
H2196 C2240 0.931 . S
H2197 C2241 0.930 . S
H2198 C2243 0.929 . S
H2199 C2244 0.931 . S
H2200 C2246 0.930 . S
H2201 C2247 0.929 . S
O2202 H2176 0.856 . S
O2202 C2248 1.300 . S
O2203 C2248 1.209 . S
O2204 C2249 1.199 . S
O2205 H2177 0.854 . S
O2205 C2249 1.297 . S
C2206 C2207 1.404 . S
C2206 C2211 1.397 . S
C2206 C2212 1.492 . S
C2207 C2206 1.404 . S
C2207 C2208 1.396 . S
C2207 C2218 1.492 . S
C2208 C2207 1.396 . S
C2208 C2209 1.397 . S
C2208 C2224 1.509 . S
C2209 C2208 1.397 . S
C2209 C2210 1.412 . S
C2209 C2230 1.485 . S
C2210 C2209 1.412 . S
C2210 C2211 1.388 . S
C2210 C2236 1.490 . S
C2211 C2206 1.397 . S
C2211 C2210 1.388 . S
C2211 C2242 1.519 . S
C2212 C2206 1.492 . S
C2212 C2213 1.363 . S
C2212 C2217 1.390 . S
C2213 H2178 0.930 . S
C2213 C2212 1.363 . S
C2213 C2214 1.372 . S
C2214 H2179 0.930 . S
C2214 C2213 1.372 . S
C2214 C2215 1.383 . S
C2215 C2214 1.383 . S
C2215 C2216 1.395 . S
C2216 H2180 0.930 . S
C2216 C2215 1.395 . S
C2216 C2217 1.362 . S
C2217 H2181 0.930 . S
C2217 C2212 1.390 . S
C2217 C2216 1.362 . S
C2218 C2207 1.492 . S
C2218 C2219 1.377 . S
C2218 C2223 1.397 . S
C2219 H2182 0.931 . S
C2219 C2218 1.377 . S
C2219 C2220 1.376 . S
C2220 H2183 0.930 . S
C2220 C2219 1.376 . S
C2220 C2221 1.376 . S
C2221 C2220 1.376 . S
C2221 C2222 1.378 . S
C2221 C2248 1.486 . S
C2222 H2184 0.930 . S
C2222 C2221 1.378 . S
C2222 C2223 1.376 . S
C2223 H2185 0.929 . S
C2223 C2218 1.397 . S
C2223 C2222 1.376 . S
C2224 C2208 1.509 . S
C2224 C2225 1.391 . S
C2224 C2229 1.386 . S
C2225 H2186 0.930 . S
C2225 C2224 1.391 . S
C2225 C2226 1.375 . S
C2226 H2187 0.931 . S
C2226 C2225 1.375 . S
C2226 C2227 1.375 . S
C2227 C2226 1.375 . S
C2227 C2228 1.361 . S
C2228 H2188 0.930 . S
C2228 C2227 1.361 . S
C2228 C2229 1.399 . S
C2229 H2189 0.929 . S
C2229 C2224 1.386 . S
C2229 C2228 1.399 . S
C2230 C2209 1.485 . S
C2230 C2231 1.394 . S
C2230 C2235 1.360 . S
C2231 H2190 0.931 . S
C2231 C2230 1.394 . S
C2231 C2232 1.372 . S
C2232 H2191 0.930 . S
C2232 C2231 1.372 . S
C2232 C2233 1.397 . S
C2233 C2232 1.397 . S
C2233 C2234 1.390 . S
C2233 C2249 1.476 . S
C2234 H2192 0.930 . S
C2234 C2233 1.390 . S
C2234 C2235 1.366 . S
C2235 H2193 0.932 . S
C2235 C2230 1.360 . S
C2235 C2234 1.366 . S
C2236 C2210 1.490 . S
C2236 C2237 1.380 . S
C2236 C2241 1.386 . S
C2237 H2194 0.930 . S
C2237 C2236 1.380 . S
C2237 C2238 1.381 . S
C2238 H2195 0.929 . S
C2238 C2237 1.381 . S
C2238 C2239 1.371 . S
C2239 C2238 1.371 . S
C2239 C2240 1.380 . S
C2240 H2196 0.931 . S
C2240 C2239 1.380 . S
C2240 C2241 1.387 . S
C2241 H2197 0.930 . S
C2241 C2236 1.386 . S
C2241 C2240 1.387 . S
C2242 C2211 1.519 . S
C2242 C2243 1.377 . S
C2242 C2247 1.361 . S
C2243 H2198 0.929 . S
C2243 C2242 1.377 . S
C2243 C2244 1.386 . S
C2244 H2199 0.931 . S
C2244 C2243 1.386 . S
C2244 C2245 1.363 . S
C2245 C2244 1.363 . S
C2245 C2246 1.385 . S
C2246 H2200 0.930 . S
C2246 C2245 1.385 . S
C2246 C2247 1.396 . S
C2247 H2201 0.929 . S
C2247 C2242 1.361 . S
C2247 C2246 1.396 . S
C2248 O2202 1.300 . S
C2248 O2203 1.209 . S
C2248 C2221 1.486 . S
C2249 O2204 1.199 . S
C2249 O2205 1.297 . S
C2249 C2233 1.476 . S
H2250 O2276 0.856 . S
H2251 O2279 0.854 . S
H2252 C2287 0.930 . S
H2253 C2288 0.930 . S
H2254 C2290 0.930 . S
H2255 C2291 0.930 . S
H2256 C2293 0.931 . S
H2257 C2294 0.930 1_655 S
H2258 C2296 0.930 . S
H2259 C2297 0.929 . S
H2260 C2299 0.930 . S
H2261 C2300 0.910 1_655 S
H2262 C2302 0.930 . S
H2263 C2303 0.929 . S
H2264 C2305 0.931 . S
H2265 C2306 0.930 . S
H2266 C2308 0.930 . S
H2267 C2309 0.932 . S
H2268 C2311 0.930 . S
H2269 C2312 0.929 . S
H2270 C2314 0.931 . S
H2271 C2315 0.930 . S
H2272 C2317 0.929 . S
H2273 C2318 0.931 . S
H2274 C2320 0.930 . S
H2275 C2321 0.929 . S
O2276 H2250 0.856 . S
O2276 C2322 1.300 . S
O2277 C2322 1.209 . S
O2278 C2323 1.199 1_655 S
O2279 H2251 0.854 . S
O2279 C2323 1.297 . S
C2280 C2281 1.404 . S
C2280 C2285 1.395 . S
C2280 C2286 1.492 . S
C2281 C2280 1.404 . S
C2281 C2282 1.396 . S
C2281 C2292 1.492 . S
C2282 C2281 1.396 . S
C2282 C2283 1.397 . S
C2282 C2298 1.509 . S
C2283 C2282 1.397 . S
C2283 C2284 1.423 . S
C2283 C2304 1.485 . S
C2284 C2283 1.423 . S
C2284 C2285 1.405 . S
C2284 C2310 1.490 1_455 S
C2285 C2280 1.395 . S
C2285 C2284 1.405 . S
C2285 C2316 1.488 1_455 S
C2286 C2280 1.492 . S
C2286 C2287 1.363 1_455 S
C2286 C2291 1.390 . S
C2287 H2252 0.930 . S
C2287 C2286 1.363 1_655 S
C2287 C2288 1.372 . S
C2288 H2253 0.930 . S
C2288 C2287 1.372 . S
C2288 C2289 1.383 . S
C2289 C2288 1.383 . S
C2289 C2290 1.395 1_655 S
C2290 H2254 0.930 . S
C2290 C2289 1.395 1_455 S
C2290 C2291 1.362 . S
C2291 H2255 0.930 . S
C2291 C2286 1.390 . S
C2291 C2290 1.362 . S
C2292 C2281 1.492 . S
C2292 C2293 1.377 1_455 S
C2292 C2297 1.397 . S
C2293 H2256 0.931 . S
C2293 C2292 1.377 1_655 S
C2293 C2294 1.376 1_655 S
C2294 H2257 0.930 1_455 S
C2294 C2293 1.376 1_455 S
C2294 C2295 1.376 . S
C2295 C2294 1.376 . S
C2295 C2296 1.378 . S
C2295 C2322 1.486 . S
C2296 H2258 0.930 . S
C2296 C2295 1.378 . S
C2296 C2297 1.376 . S
C2297 H2259 0.929 . S
C2297 C2292 1.397 . S
C2297 C2296 1.376 . S
C2298 C2282 1.509 . S
C2298 C2299 1.391 1_455 S
C2298 C2303 1.386 . S
C2299 H2260 0.930 . S
C2299 C2298 1.391 1_655 S
C2299 C2300 1.345 1_655 S
C2300 H2261 0.910 1_455 S
C2300 C2299 1.345 1_455 S
C2300 C2301 1.428 . S
C2301 C2300 1.428 . S
C2301 C2302 1.361 . S
C2302 H2262 0.930 . S
C2302 C2301 1.361 . S
C2302 C2303 1.399 . S
C2303 H2263 0.929 . S
C2303 C2298 1.386 . S
C2303 C2302 1.399 . S
C2304 C2283 1.485 . S
C2304 C2305 1.394 1_455 S
C2304 C2309 1.360 . S
C2305 H2264 0.931 . S
C2305 C2304 1.394 1_655 S
C2305 C2306 1.372 . S
C2306 H2265 0.930 . S
C2306 C2305 1.372 . S
C2306 C2307 1.397 1_655 S
C2307 C2306 1.397 1_455 S
C2307 C2308 1.390 . S
C2307 C2323 1.476 . S
C2308 H2266 0.930 . S
C2308 C2307 1.390 . S
C2308 C2309 1.366 . S
C2309 H2267 0.932 . S
C2309 C2304 1.360 . S
C2309 C2308 1.366 . S
C2310 C2284 1.490 1_655 S
C2310 C2311 1.380 . S
C2310 C2315 1.386 1_655 S
C2311 H2268 0.930 . S
C2311 C2310 1.380 . S
C2311 C2312 1.381 . S
C2312 H2269 0.929 . S
C2312 C2311 1.381 . S
C2312 C2313 1.371 . S
C2313 C2312 1.371 . S
C2313 C2314 1.380 1_655 S
C2314 H2270 0.931 . S
C2314 C2313 1.380 1_455 S
C2314 C2315 1.387 . S
C2315 H2271 0.930 . S
C2315 C2310 1.386 1_455 S
C2315 C2314 1.387 . S
C2316 C2285 1.488 1_655 S
C2316 C2317 1.407 . S
C2316 C2321 1.341 1_655 S
C2317 H2272 0.929 . S
C2317 C2316 1.407 . S
C2317 C2318 1.386 . S
C2318 H2273 0.931 . S
C2318 C2317 1.386 . S
C2318 C2319 1.381 . S
C2319 C2318 1.381 . S
C2319 C2320 1.358 1_655 S
C2320 H2274 0.930 . S
C2320 C2319 1.358 1_455 S
C2320 C2321 1.396 . S
C2321 H2275 0.929 . S
C2321 C2316 1.341 1_455 S
C2321 C2320 1.396 . S
C2322 O2276 1.300 . S
C2322 O2277 1.209 . S
C2322 C2295 1.486 . S
C2323 O2278 1.199 1_455 S
C2323 O2279 1.297 . S
C2323 C2307 1.476 . S
H2324 O2350 0.856 . S
H2325 O2353 0.854 . S
H2326 C2361 0.930 . S
H2327 C2362 0.930 . S
H2328 C2364 0.930 . S
H2329 C2365 0.930 . S
H2330 C2367 0.931 . S
H2331 C2368 0.930 . S
H2332 C2370 0.930 . S
H2333 C2371 0.929 . S
H2334 C2373 0.930 . S
H2335 C2374 0.931 . S
H2336 C2376 0.930 . S
H2337 C2377 0.929 . S
H2338 C2379 0.931 . S
H2339 C2380 0.930 . S
H2340 C2382 0.930 . S
H2341 C2383 0.932 . S
H2342 C2385 0.930 . S
H2343 C2386 0.929 . S
H2344 C2388 0.931 . S
H2345 C2389 0.930 . S
H2346 C2391 0.929 . S
H2347 C2392 0.931 . S
H2348 C2394 0.930 . S
H2349 C2395 0.929 . S
O2350 H2324 0.856 . S
O2350 C2396 1.300 . S
O2351 C2396 1.209 . S
O2352 C2397 1.199 . S
O2353 H2325 0.854 . S
O2353 C2397 1.297 . S
C2354 C2355 1.404 . S
C2354 C2359 1.397 . S
C2354 C2360 1.492 . S
C2355 C2354 1.404 . S
C2355 C2356 1.396 . S
C2355 C2366 1.492 . S
C2356 C2355 1.396 . S
C2356 C2357 1.397 . S
C2356 C2372 1.509 . S
C2357 C2356 1.397 . S
C2357 C2358 1.412 . S
C2357 C2378 1.485 . S
C2358 C2357 1.412 . S
C2358 C2359 1.388 . S
C2358 C2384 1.490 . S
C2359 C2354 1.397 . S
C2359 C2358 1.388 . S
C2359 C2390 1.519 . S
C2360 C2354 1.492 . S
C2360 C2361 1.363 . S
C2360 C2365 1.390 . S
C2361 H2326 0.930 . S
C2361 C2360 1.363 . S
C2361 C2362 1.372 . S
C2362 H2327 0.930 . S
C2362 C2361 1.372 . S
C2362 C2363 1.383 . S
C2363 C2362 1.383 . S
C2363 C2364 1.395 . S
C2364 H2328 0.930 . S
C2364 C2363 1.395 . S
C2364 C2365 1.362 . S
C2365 H2329 0.930 . S
C2365 C2360 1.390 . S
C2365 C2364 1.362 . S
C2366 C2355 1.492 . S
C2366 C2367 1.377 . S
C2366 C2371 1.397 . S
C2367 H2330 0.931 . S
C2367 C2366 1.377 . S
C2367 C2368 1.376 . S
C2368 H2331 0.930 . S
C2368 C2367 1.376 . S
C2368 C2369 1.376 . S
C2369 C2368 1.376 . S
C2369 C2370 1.378 . S
C2369 C2396 1.486 . S
C2370 H2332 0.930 . S
C2370 C2369 1.378 . S
C2370 C2371 1.376 . S
C2371 H2333 0.929 . S
C2371 C2366 1.397 . S
C2371 C2370 1.376 . S
C2372 C2356 1.509 . S
C2372 C2373 1.391 . S
C2372 C2377 1.386 . S
C2373 H2334 0.930 . S
C2373 C2372 1.391 . S
C2373 C2374 1.375 . S
C2374 H2335 0.931 . S
C2374 C2373 1.375 . S
C2374 C2375 1.375 . S
C2375 C2374 1.375 . S
C2375 C2376 1.361 . S
C2376 H2336 0.930 . S
C2376 C2375 1.361 . S
C2376 C2377 1.399 . S
C2377 H2337 0.929 . S
C2377 C2372 1.386 . S
C2377 C2376 1.399 . S
C2378 C2357 1.485 . S
C2378 C2379 1.394 . S
C2378 C2383 1.360 . S
C2379 H2338 0.931 . S
C2379 C2378 1.394 . S
C2379 C2380 1.372 . S
C2380 H2339 0.930 . S
C2380 C2379 1.372 . S
C2380 C2381 1.397 . S
C2381 C2380 1.397 . S
C2381 C2382 1.390 . S
C2381 C2397 1.476 . S
C2382 H2340 0.930 . S
C2382 C2381 1.390 . S
C2382 C2383 1.366 . S
C2383 H2341 0.932 . S
C2383 C2378 1.360 . S
C2383 C2382 1.366 . S
C2384 C2358 1.490 . S
C2384 C2385 1.380 . S
C2384 C2389 1.386 . S
C2385 H2342 0.930 . S
C2385 C2384 1.380 . S
C2385 C2386 1.381 . S
C2386 H2343 0.929 . S
C2386 C2385 1.381 . S
C2386 C2387 1.371 . S
C2387 C2386 1.371 . S
C2387 C2388 1.380 . S
C2388 H2344 0.931 . S
C2388 C2387 1.380 . S
C2388 C2389 1.387 . S
C2389 H2345 0.930 . S
C2389 C2384 1.386 . S
C2389 C2388 1.387 . S
C2390 C2359 1.519 . S
C2390 C2391 1.377 . S
C2390 C2395 1.361 . S
C2391 H2346 0.929 . S
C2391 C2390 1.377 . S
C2391 C2392 1.386 . S
C2392 H2347 0.931 . S
C2392 C2391 1.386 . S
C2392 C2393 1.363 . S
C2393 C2392 1.363 . S
C2393 C2394 1.385 . S
C2394 H2348 0.930 . S
C2394 C2393 1.385 . S
C2394 C2395 1.396 . S
C2395 H2349 0.929 . S
C2395 C2390 1.361 . S
C2395 C2394 1.396 . S
C2396 O2350 1.300 . S
C2396 O2351 1.209 . S
C2396 C2369 1.486 . S
C2397 O2352 1.199 . S
C2397 O2353 1.297 . S
C2397 C2381 1.476 . S
H2398 O2424 0.856 . S
H2399 O2427 0.854 . S
H2400 C2435 0.930 . S
H2401 C2436 0.930 . S
H2402 C2438 0.930 . S
H2403 C2439 0.930 . S
H2404 C2441 0.931 . S
H2405 C2442 0.932 . S
H2406 C2444 0.930 . S
H2407 C2445 0.929 . S
H2408 C2447 0.930 . S
H2409 C2448 1.000 . S
H2410 C2450 0.930 . S
H2411 C2451 0.929 . S
H2412 C2453 0.931 . S
H2413 C2454 0.930 . S
H2414 C2456 0.930 . S
H2415 C2457 0.932 . S
H2416 C2459 0.930 . S
H2417 C2460 0.929 . S
H2418 C2462 0.931 . S
H2419 C2463 0.930 . S
H2420 C2465 0.929 . S
H2421 C2466 0.931 . S
H2422 C2468 0.930 . S
H2423 C2469 0.929 . S
O2424 H2398 0.856 . S
O2424 C2470 1.300 . S
O2425 C2470 1.209 . S
O2426 C2471 1.199 1_545 S
O2427 H2399 0.854 . S
O2427 C2471 1.297 . S
C2428 C2429 1.404 . S
C2428 C2433 1.413 . S
C2428 C2434 1.492 . S
C2429 C2428 1.404 . S
C2429 C2430 1.396 . S
C2429 C2440 1.492 . S
C2430 C2429 1.396 . S
C2430 C2431 1.397 . S
C2430 C2446 1.509 . S
C2431 C2430 1.397 . S
C2431 C2432 1.410 . S
C2431 C2452 1.485 . S
C2432 C2431 1.410 . S
C2432 C2433 1.368 . S
C2432 C2458 1.487 1_565 S
C2433 C2428 1.413 . S
C2433 C2432 1.368 . S
C2433 C2464 1.534 1_565 S
C2434 C2428 1.492 . S
C2434 C2435 1.363 1_565 S
C2434 C2439 1.390 . S
C2435 H2400 0.930 . S
C2435 C2434 1.363 1_545 S
C2435 C2436 1.372 . S
C2436 H2401 0.930 . S
C2436 C2435 1.372 . S
C2436 C2437 1.383 . S
C2437 C2436 1.383 . S
C2437 C2438 1.395 1_545 S
C2438 H2402 0.930 . S
C2438 C2437 1.395 1_565 S
C2438 C2439 1.362 . S
C2439 H2403 0.930 . S
C2439 C2434 1.390 . S
C2439 C2438 1.362 . S
C2440 C2429 1.492 . S
C2440 C2441 1.377 1_565 S
C2440 C2445 1.397 . S
C2441 H2404 0.931 . S
C2441 C2440 1.377 1_545 S
C2441 C2442 1.377 . S
C2442 H2405 0.932 . S
C2442 C2441 1.377 . S
C2442 C2443 1.373 1_545 S
C2443 C2442 1.373 1_565 S
C2443 C2444 1.378 . S
C2443 C2470 1.486 . S
C2444 H2406 0.930 . S
C2444 C2443 1.378 . S
C2444 C2445 1.376 . S
C2445 H2407 0.929 . S
C2445 C2440 1.397 . S
C2445 C2444 1.376 . S
C2446 C2430 1.509 . S
C2446 C2447 1.391 1_565 S
C2446 C2451 1.386 . S
C2447 H2408 0.930 . S
C2447 C2446 1.391 1_545 S
C2447 C2448 1.365 . S
C2448 H2409 1.000 . S
C2448 C2447 1.365 . S
C2448 C2449 1.321 1_545 S
C2449 C2448 1.321 1_565 S
C2449 C2450 1.361 . S
C2450 H2410 0.930 . S
C2450 C2449 1.361 . S
C2450 C2451 1.399 . S
C2451 H2411 0.929 . S
C2451 C2446 1.386 . S
C2451 C2450 1.399 . S
C2452 C2431 1.485 . S
C2452 C2453 1.394 1_565 S
C2452 C2457 1.360 . S
C2453 H2412 0.931 . S
C2453 C2452 1.394 1_545 S
C2453 C2454 1.372 . S
C2454 H2413 0.930 . S
C2454 C2453 1.372 . S
C2454 C2455 1.397 1_545 S
C2455 C2454 1.397 1_565 S
C2455 C2456 1.390 . S
C2455 C2471 1.476 . S
C2456 H2414 0.930 . S
C2456 C2455 1.390 . S
C2456 C2457 1.366 . S
C2457 H2415 0.932 . S
C2457 C2452 1.360 . S
C2457 C2456 1.366 . S
C2458 C2432 1.487 1_545 S
C2458 C2459 1.380 . S
C2458 C2463 1.386 1_545 S
C2459 H2416 0.930 . S
C2459 C2458 1.380 . S
C2459 C2460 1.381 . S
C2460 H2417 0.929 . S
C2460 C2459 1.381 . S
C2460 C2461 1.371 . S
C2461 C2460 1.371 . S
C2461 C2462 1.380 1_545 S
C2462 H2418 0.931 . S
C2462 C2461 1.380 1_565 S
C2462 C2463 1.387 . S
C2463 H2419 0.930 . S
C2463 C2458 1.386 1_565 S
C2463 C2462 1.387 . S
C2464 C2433 1.534 1_545 S
C2464 C2465 1.377 . S
C2464 C2469 1.361 1_545 S
C2465 H2420 0.929 . S
C2465 C2464 1.377 . S
C2465 C2466 1.386 . S
C2466 H2421 0.931 . S
C2466 C2465 1.386 . S
C2466 C2467 1.329 1_545 S
C2467 C2466 1.329 1_565 S
C2467 C2468 1.403 . S
C2468 H2422 0.930 . S
C2468 C2467 1.403 . S
C2468 C2469 1.396 . S
C2469 H2423 0.929 . S
C2469 C2464 1.361 1_565 S
C2469 C2468 1.396 . S
C2470 O2424 1.300 . S
C2470 O2425 1.209 . S
C2470 C2443 1.486 . S
C2471 O2426 1.199 1_565 S
C2471 O2427 1.297 . S
C2471 C2455 1.476 . S
H2472 O2498 0.856 . S
H2473 O2501 0.854 . S
H2474 C2509 0.930 . S
H2475 C2510 0.930 . S
H2476 C2512 0.930 . S
H2477 C2513 0.930 . S
H2478 C2515 0.931 . S
H2479 C2516 0.930 . S
H2480 C2518 0.930 . S
H2481 C2519 0.929 . S
H2482 C2521 0.930 . S
H2483 C2522 0.931 . S
H2484 C2524 0.930 . S
H2485 C2525 0.929 . S
H2486 C2527 0.931 . S
H2487 C2528 0.930 . S
H2488 C2530 0.930 . S
H2489 C2531 0.932 . S
H2490 C2533 0.930 . S
H2491 C2534 0.929 . S
H2492 C2536 0.931 . S
H2493 C2537 0.930 . S
H2494 C2539 0.929 . S
H2495 C2540 0.931 . S
H2496 C2542 0.930 . S
H2497 C2543 0.929 . S
O2498 H2472 0.856 . S
O2498 C2544 1.300 . S
O2499 C2544 1.209 1_565 S
O2500 C2545 1.199 1_545 S
O2501 H2473 0.854 . S
O2501 C2545 1.297 . S
C2502 C2503 1.404 . S
C2502 C2507 1.398 1_545 S
C2502 C2508 1.492 . S
C2503 C2502 1.404 . S
C2503 C2504 1.432 . S
C2503 C2514 1.492 . S
C2504 C2503 1.432 . S
C2504 C2505 1.379 1_545 S
C2504 C2520 1.505 . S
C2505 C2504 1.379 1_565 S
C2505 C2506 1.417 . S
C2505 C2526 1.496 . S
C2506 C2505 1.417 . S
C2506 C2507 1.367 . S
C2506 C2532 1.488 . S
C2507 C2502 1.398 1_565 S
C2507 C2506 1.367 . S
C2507 C2538 1.520 . S
C2508 C2502 1.492 . S
C2508 C2509 1.363 . S
C2508 C2513 1.390 1_545 S
C2509 H2474 0.930 . S
C2509 C2508 1.363 . S
C2509 C2510 1.372 . S
C2510 H2475 0.930 . S
C2510 C2509 1.372 . S
C2510 C2511 1.383 . S
C2511 C2510 1.383 . S
C2511 C2512 1.395 1_545 S
C2512 H2476 0.930 . S
C2512 C2511 1.395 1_565 S
C2512 C2513 1.362 . S
C2513 H2477 0.930 . S
C2513 C2508 1.390 1_565 S
C2513 C2512 1.362 . S
C2514 C2503 1.492 . S
C2514 C2515 1.377 . S
C2514 C2519 1.397 1_545 S
C2515 H2478 0.931 . S
C2515 C2514 1.377 . S
C2515 C2516 1.376 . S
C2516 H2479 0.930 . S
C2516 C2515 1.376 . S
C2516 C2517 1.376 . S
C2517 C2516 1.376 . S
C2517 C2518 1.378 1_545 S
C2517 C2544 1.486 . S
C2518 H2480 0.930 . S
C2518 C2517 1.378 1_565 S
C2518 C2519 1.376 . S
C2519 H2481 0.929 . S
C2519 C2514 1.397 1_565 S
C2519 C2518 1.376 . S
C2520 C2504 1.505 . S
C2520 C2521 1.414 . S
C2520 C2525 1.348 1_545 S
C2521 H2482 0.930 . S
C2521 C2520 1.414 . S
C2521 C2522 1.375 . S
C2522 H2483 0.931 . S
C2522 C2521 1.375 . S
C2522 C2523 1.393 . S
C2523 C2522 1.393 . S
C2523 C2524 1.351 1_545 S
C2524 H2484 0.930 . S
C2524 C2523 1.351 1_565 S
C2524 C2525 1.399 . S
C2525 H2485 0.929 . S
C2525 C2520 1.348 1_565 S
C2525 C2524 1.399 . S
C2526 C2505 1.496 . S
C2526 C2527 1.394 1_565 S
C2526 C2531 1.360 . S
C2527 H2486 0.931 . S
C2527 C2526 1.394 1_545 S
C2527 C2528 1.372 . S
C2528 H2487 0.930 . S
C2528 C2527 1.372 . S
C2528 C2529 1.397 1_545 S
C2529 C2528 1.397 1_565 S
C2529 C2530 1.390 . S
C2529 C2545 1.476 . S
C2530 H2488 0.930 . S
C2530 C2529 1.390 . S
C2530 C2531 1.366 . S
C2531 H2489 0.932 . S
C2531 C2526 1.360 . S
C2531 C2530 1.366 . S
C2532 C2506 1.488 . S
C2532 C2533 1.342 1_565 S
C2532 C2537 1.433 . S
C2533 H2490 0.930 . S
C2533 C2532 1.342 1_545 S
C2533 C2534 1.381 . S
C2534 H2491 0.929 . S
C2534 C2533 1.381 . S
C2534 C2535 1.380 . S
C2535 C2534 1.380 . S
C2535 C2536 1.372 1_545 S
C2536 H2492 0.931 . S
C2536 C2535 1.372 1_565 S
C2536 C2537 1.387 . S
C2537 H2493 0.930 . S
C2537 C2532 1.433 . S
C2537 C2536 1.387 . S
C2538 C2507 1.520 . S
C2538 C2539 1.377 1_565 S
C2538 C2543 1.361 . S
C2539 H2494 0.929 . S
C2539 C2538 1.377 1_545 S
C2539 C2540 1.386 . S
C2540 H2495 0.931 . S
C2540 C2539 1.386 . S
C2540 C2541 1.363 1_545 S
C2541 C2540 1.363 1_565 S
C2541 C2542 1.385 . S
C2542 H2496 0.930 . S
C2542 C2541 1.385 . S
C2542 C2543 1.396 . S
C2543 H2497 0.929 . S
C2543 C2538 1.361 . S
C2543 C2542 1.396 . S
C2544 O2498 1.300 . S
C2544 O2499 1.209 1_545 S
C2544 C2517 1.486 . S
C2545 O2500 1.199 1_565 S
C2545 O2501 1.297 . S
C2545 C2529 1.476 . S
H2546 O2572 0.856 . S
H2547 O2575 0.854 . S
H2548 C2583 0.930 . S
H2549 C2584 0.930 . S
H2550 C2586 0.930 . S
H2551 C2587 0.930 . S
H2552 C2589 0.931 . S
H2553 C2590 0.930 . S
H2554 C2592 0.930 . S
H2555 C2593 0.929 . S
H2556 C2595 0.930 . S
H2557 C2596 0.931 . S
H2558 C2598 0.930 . S
H2559 C2599 0.929 . S
H2560 C2601 0.931 . S
H2561 C2602 0.930 . S
H2562 C2604 0.930 . S
H2563 C2605 0.932 . S
H2564 C2607 0.930 . S
H2565 C2608 0.929 . S
H2566 C2610 0.931 . S
H2567 C2611 0.930 . S
H2568 C2613 0.929 . S
H2569 C2614 0.931 . S
H2570 C2616 0.930 . S
H2571 C2617 0.929 . S
O2572 H2546 0.856 . S
O2572 C2618 1.300 . S
O2573 C2618 1.209 1_455 S
O2574 C2619 1.199 1_655 S
O2575 H2547 0.854 . S
O2575 C2619 1.297 . S
C2576 C2577 1.404 . S
C2576 C2581 1.398 . S
C2576 C2582 1.492 . S
C2577 C2576 1.404 . S
C2577 C2578 1.396 . S
C2577 C2588 1.492 . S
C2578 C2577 1.396 . S
C2578 C2579 1.397 . S
C2578 C2594 1.509 . S
C2579 C2578 1.397 . S
C2579 C2580 1.397 1_655 S
C2579 C2600 1.524 1_655 S
C2580 C2579 1.397 1_455 S
C2580 C2581 1.404 1_455 S
C2580 C2606 1.486 . S
C2581 C2576 1.398 . S
C2581 C2580 1.404 1_655 S
C2581 C2612 1.522 1_655 S
C2582 C2576 1.492 . S
C2582 C2583 1.363 . S
C2582 C2587 1.390 1_655 S
C2583 H2548 0.930 . S
C2583 C2582 1.363 . S
C2583 C2584 1.372 . S
C2584 H2549 0.930 . S
C2584 C2583 1.372 . S
C2584 C2585 1.383 . S
C2585 C2584 1.383 . S
C2585 C2586 1.395 1_655 S
C2586 H2550 0.930 . S
C2586 C2585 1.395 1_455 S
C2586 C2587 1.362 . S
C2587 H2551 0.930 . S
C2587 C2582 1.390 1_455 S
C2587 C2586 1.362 . S
C2588 C2577 1.492 . S
C2588 C2589 1.377 . S
C2588 C2593 1.397 1_655 S
C2589 H2552 0.931 . S
C2589 C2588 1.377 . S
C2589 C2590 1.376 . S
C2590 H2553 0.930 . S
C2590 C2589 1.376 . S
C2590 C2591 1.376 . S
C2591 C2590 1.376 . S
C2591 C2592 1.378 1_655 S
C2591 C2618 1.486 . S
C2592 H2554 0.930 . S
C2592 C2591 1.378 1_455 S
C2592 C2593 1.376 . S
C2593 H2555 0.929 . S
C2593 C2588 1.397 1_455 S
C2593 C2592 1.376 . S
C2594 C2578 1.509 . S
C2594 C2595 1.391 . S
C2594 C2599 1.386 1_655 S
C2595 H2556 0.930 . S
C2595 C2594 1.391 . S
C2595 C2596 1.375 . S
C2596 H2557 0.931 . S
C2596 C2595 1.375 . S
C2596 C2597 1.375 . S
C2597 C2596 1.375 . S
C2597 C2598 1.361 1_655 S
C2598 H2558 0.930 . S
C2598 C2597 1.361 1_455 S
C2598 C2599 1.399 . S
C2599 H2559 0.929 . S
C2599 C2594 1.386 1_455 S
C2599 C2598 1.399 . S
C2600 C2579 1.524 1_455 S
C2600 C2601 1.328 1_455 S
C2600 C2605 1.392 . S
C2601 H2560 0.931 . S
C2601 C2600 1.328 1_655 S
C2601 C2602 1.372 . S
C2602 H2561 0.930 . S
C2602 C2601 1.372 . S
C2602 C2603 1.397 1_655 S
C2603 C2602 1.397 1_455 S
C2603 C2604 1.390 . S
C2603 C2619 1.476 . S
C2604 H2562 0.930 . S
C2604 C2603 1.390 . S
C2604 C2605 1.366 . S
C2605 H2563 0.932 . S
C2605 C2600 1.392 . S
C2605 C2604 1.366 . S
C2606 C2580 1.486 . S
C2606 C2607 1.380 1_455 S
C2606 C2611 1.386 . S
C2607 H2564 0.930 . S
C2607 C2606 1.380 1_655 S
C2607 C2608 1.381 . S
C2608 H2565 0.929 . S
C2608 C2607 1.381 . S
C2608 C2609 1.371 1_655 S
C2609 C2608 1.371 1_455 S
C2609 C2610 1.380 . S
C2610 H2566 0.931 . S
C2610 C2609 1.380 . S
C2610 C2611 1.387 . S
C2611 H2567 0.930 . S
C2611 C2606 1.386 . S
C2611 C2610 1.387 . S
C2612 C2581 1.522 1_455 S
C2612 C2613 1.377 1_455 S
C2612 C2617 1.361 . S
C2613 H2568 0.929 . S
C2613 C2612 1.377 1_655 S
C2613 C2614 1.386 . S
C2614 H2569 0.931 . S
C2614 C2613 1.386 . S
C2614 C2615 1.363 1_655 S
C2615 C2614 1.363 1_455 S
C2615 C2616 1.385 . S
C2616 H2570 0.930 . S
C2616 C2615 1.385 . S
C2616 C2617 1.396 . S
C2617 H2571 0.929 . S
C2617 C2612 1.361 . S
C2617 C2616 1.396 . S
C2618 O2572 1.300 . S
C2618 O2573 1.209 1_655 S
C2618 C2591 1.486 . S
C2619 O2574 1.199 1_455 S
C2619 O2575 1.297 . S
C2619 C2603 1.476 . S
H2620 O2646 0.856 . S
H2621 O2649 0.854 . S
H2622 C2657 0.930 . S
H2623 C2658 0.930 . S
H2624 C2660 0.930 . S
H2625 C2661 0.930 . S
H2626 C2663 0.931 . S
H2627 C2664 0.930 . S
H2628 C2666 0.930 . S
H2629 C2667 0.929 . S
H2630 C2669 0.930 . S
H2631 C2670 0.931 . S
H2632 C2672 0.930 . S
H2633 C2673 0.929 . S
H2634 C2675 0.931 . S
H2635 C2676 0.930 . S
H2636 C2678 0.930 . S
H2637 C2679 0.932 . S
H2638 C2681 0.930 . S
H2639 C2682 0.929 . S
H2640 C2684 0.931 . S
H2641 C2685 0.930 . S
H2642 C2687 0.929 . S
H2643 C2688 0.931 . S
H2644 C2690 0.930 . S
H2645 C2691 0.929 . S
O2646 H2620 0.856 . S
O2646 C2692 1.300 . S
O2647 C2692 1.209 . S
O2648 C2693 1.199 . S
O2649 H2621 0.854 . S
O2649 C2693 1.297 . S
C2650 C2651 1.404 . S
C2650 C2655 1.397 . S
C2650 C2656 1.492 . S
C2651 C2650 1.404 . S
C2651 C2652 1.396 . S
C2651 C2662 1.492 . S
C2652 C2651 1.396 . S
C2652 C2653 1.397 . S
C2652 C2668 1.509 . S
C2653 C2652 1.397 . S
C2653 C2654 1.412 . S
C2653 C2674 1.485 . S
C2654 C2653 1.412 . S
C2654 C2655 1.388 . S
C2654 C2680 1.490 . S
C2655 C2650 1.397 . S
C2655 C2654 1.388 . S
C2655 C2686 1.519 . S
C2656 C2650 1.492 . S
C2656 C2657 1.363 . S
C2656 C2661 1.390 . S
C2657 H2622 0.930 . S
C2657 C2656 1.363 . S
C2657 C2658 1.372 . S
C2658 H2623 0.930 . S
C2658 C2657 1.372 . S
C2658 C2659 1.383 . S
C2659 C2658 1.383 . S
C2659 C2660 1.395 . S
C2660 H2624 0.930 . S
C2660 C2659 1.395 . S
C2660 C2661 1.362 . S
C2661 H2625 0.930 . S
C2661 C2656 1.390 . S
C2661 C2660 1.362 . S
C2662 C2651 1.492 . S
C2662 C2663 1.377 . S
C2662 C2667 1.397 . S
C2663 H2626 0.931 . S
C2663 C2662 1.377 . S
C2663 C2664 1.376 . S
C2664 H2627 0.930 . S
C2664 C2663 1.376 . S
C2664 C2665 1.376 . S
C2665 C2664 1.376 . S
C2665 C2666 1.378 . S
C2665 C2692 1.486 . S
C2666 H2628 0.930 . S
C2666 C2665 1.378 . S
C2666 C2667 1.376 . S
C2667 H2629 0.929 . S
C2667 C2662 1.397 . S
C2667 C2666 1.376 . S
C2668 C2652 1.509 . S
C2668 C2669 1.391 . S
C2668 C2673 1.386 . S
C2669 H2630 0.930 . S
C2669 C2668 1.391 . S
C2669 C2670 1.375 . S
C2670 H2631 0.931 . S
C2670 C2669 1.375 . S
C2670 C2671 1.375 . S
C2671 C2670 1.375 . S
C2671 C2672 1.361 . S
C2672 H2632 0.930 . S
C2672 C2671 1.361 . S
C2672 C2673 1.399 . S
C2673 H2633 0.929 . S
C2673 C2668 1.386 . S
C2673 C2672 1.399 . S
C2674 C2653 1.485 . S
C2674 C2675 1.394 . S
C2674 C2679 1.360 . S
C2675 H2634 0.931 . S
C2675 C2674 1.394 . S
C2675 C2676 1.372 . S
C2676 H2635 0.930 . S
C2676 C2675 1.372 . S
C2676 C2677 1.397 . S
C2677 C2676 1.397 . S
C2677 C2678 1.390 . S
C2677 C2693 1.476 . S
C2678 H2636 0.930 . S
C2678 C2677 1.390 . S
C2678 C2679 1.366 . S
C2679 H2637 0.932 . S
C2679 C2674 1.360 . S
C2679 C2678 1.366 . S
C2680 C2654 1.490 . S
C2680 C2681 1.380 . S
C2680 C2685 1.386 . S
C2681 H2638 0.930 . S
C2681 C2680 1.380 . S
C2681 C2682 1.381 . S
C2682 H2639 0.929 . S
C2682 C2681 1.381 . S
C2682 C2683 1.371 . S
C2683 C2682 1.371 . S
C2683 C2684 1.380 . S
C2684 H2640 0.931 . S
C2684 C2683 1.380 . S
C2684 C2685 1.387 . S
C2685 H2641 0.930 . S
C2685 C2680 1.386 . S
C2685 C2684 1.387 . S
C2686 C2655 1.519 . S
C2686 C2687 1.377 . S
C2686 C2691 1.361 . S
C2687 H2642 0.929 . S
C2687 C2686 1.377 . S
C2687 C2688 1.386 . S
C2688 H2643 0.931 . S
C2688 C2687 1.386 . S
C2688 C2689 1.363 . S
C2689 C2688 1.363 . S
C2689 C2690 1.385 . S
C2690 H2644 0.930 . S
C2690 C2689 1.385 . S
C2690 C2691 1.396 . S
C2691 H2645 0.929 . S
C2691 C2686 1.361 . S
C2691 C2690 1.396 . S
C2692 O2646 1.300 . S
C2692 O2647 1.209 . S
C2692 C2665 1.486 . S
C2693 O2648 1.199 . S
C2693 O2649 1.297 . S
C2693 C2677 1.476 . S
H2694 O2720 0.856 . S
H2695 O2723 0.854 . S
H2696 C2731 0.930 . S
H2697 C2732 0.930 . S
H2698 C2734 0.930 . S
H2699 C2735 0.930 . S
H2700 C2737 0.931 . S
H2701 C2738 0.930 . S
H2702 C2740 0.930 . S
H2703 C2741 0.929 . S
H2704 C2743 0.930 . S
H2705 C2744 0.931 . S
H2706 C2746 0.930 . S
H2707 C2747 0.929 . S
H2708 C2749 0.931 . S
H2709 C2750 0.930 . S
H2710 C2752 0.930 . S
H2711 C2753 0.932 . S
H2712 C2755 0.930 . S
H2713 C2756 0.929 . S
H2714 C2758 0.931 . S
H2715 C2759 0.930 . S
H2716 C2761 0.929 . S
H2717 C2762 0.931 . S
H2718 C2764 0.930 . S
H2719 C2765 0.929 . S
O2720 H2694 0.856 . S
O2720 C2766 1.300 . S
O2721 C2766 1.209 . S
O2722 C2767 1.199 . S
O2723 H2695 0.854 . S
O2723 C2767 1.297 . S
C2724 C2725 1.404 . S
C2724 C2729 1.397 . S
C2724 C2730 1.492 . S
C2725 C2724 1.404 . S
C2725 C2726 1.396 . S
C2725 C2736 1.492 . S
C2726 C2725 1.396 . S
C2726 C2727 1.397 . S
C2726 C2742 1.509 . S
C2727 C2726 1.397 . S
C2727 C2728 1.412 . S
C2727 C2748 1.485 . S
C2728 C2727 1.412 . S
C2728 C2729 1.388 . S
C2728 C2754 1.490 . S
C2729 C2724 1.397 . S
C2729 C2728 1.388 . S
C2729 C2760 1.519 . S
C2730 C2724 1.492 . S
C2730 C2731 1.363 . S
C2730 C2735 1.390 . S
C2731 H2696 0.930 . S
C2731 C2730 1.363 . S
C2731 C2732 1.372 . S
C2732 H2697 0.930 . S
C2732 C2731 1.372 . S
C2732 C2733 1.383 . S
C2733 C2732 1.383 . S
C2733 C2734 1.395 . S
C2734 H2698 0.930 . S
C2734 C2733 1.395 . S
C2734 C2735 1.362 . S
C2735 H2699 0.930 . S
C2735 C2730 1.390 . S
C2735 C2734 1.362 . S
C2736 C2725 1.492 . S
C2736 C2737 1.377 . S
C2736 C2741 1.397 . S
C2737 H2700 0.931 . S
C2737 C2736 1.377 . S
C2737 C2738 1.376 . S
C2738 H2701 0.930 . S
C2738 C2737 1.376 . S
C2738 C2739 1.376 . S
C2739 C2738 1.376 . S
C2739 C2740 1.378 . S
C2739 C2766 1.486 . S
C2740 H2702 0.930 . S
C2740 C2739 1.378 . S
C2740 C2741 1.376 . S
C2741 H2703 0.929 . S
C2741 C2736 1.397 . S
C2741 C2740 1.376 . S
C2742 C2726 1.509 . S
C2742 C2743 1.391 . S
C2742 C2747 1.386 . S
C2743 H2704 0.930 . S
C2743 C2742 1.391 . S
C2743 C2744 1.375 . S
C2744 H2705 0.931 . S
C2744 C2743 1.375 . S
C2744 C2745 1.375 . S
C2745 C2744 1.375 . S
C2745 C2746 1.361 . S
C2746 H2706 0.930 . S
C2746 C2745 1.361 . S
C2746 C2747 1.399 . S
C2747 H2707 0.929 . S
C2747 C2742 1.386 . S
C2747 C2746 1.399 . S
C2748 C2727 1.485 . S
C2748 C2749 1.394 . S
C2748 C2753 1.360 . S
C2749 H2708 0.931 . S
C2749 C2748 1.394 . S
C2749 C2750 1.372 . S
C2750 H2709 0.930 . S
C2750 C2749 1.372 . S
C2750 C2751 1.397 . S
C2751 C2750 1.397 . S
C2751 C2752 1.390 . S
C2751 C2767 1.476 . S
C2752 H2710 0.930 . S
C2752 C2751 1.390 . S
C2752 C2753 1.366 . S
C2753 H2711 0.932 . S
C2753 C2748 1.360 . S
C2753 C2752 1.366 . S
C2754 C2728 1.490 . S
C2754 C2755 1.380 . S
C2754 C2759 1.386 . S
C2755 H2712 0.930 . S
C2755 C2754 1.380 . S
C2755 C2756 1.381 . S
C2756 H2713 0.929 . S
C2756 C2755 1.381 . S
C2756 C2757 1.371 . S
C2757 C2756 1.371 . S
C2757 C2758 1.380 . S
C2758 H2714 0.931 . S
C2758 C2757 1.380 . S
C2758 C2759 1.387 . S
C2759 H2715 0.930 . S
C2759 C2754 1.386 . S
C2759 C2758 1.387 . S
C2760 C2729 1.519 . S
C2760 C2761 1.377 . S
C2760 C2765 1.361 . S
C2761 H2716 0.929 . S
C2761 C2760 1.377 . S
C2761 C2762 1.386 . S
C2762 H2717 0.931 . S
C2762 C2761 1.386 . S
C2762 C2763 1.363 . S
C2763 C2762 1.363 . S
C2763 C2764 1.385 . S
C2764 H2718 0.930 . S
C2764 C2763 1.385 . S
C2764 C2765 1.396 . S
C2765 H2719 0.929 . S
C2765 C2760 1.361 . S
C2765 C2764 1.396 . S
C2766 O2720 1.300 . S
C2766 O2721 1.209 . S
C2766 C2739 1.486 . S
C2767 O2722 1.199 . S
C2767 O2723 1.297 . S
C2767 C2751 1.476 . S
H2768 O2794 0.856 . S
H2769 O2797 0.854 . S
H2770 C2805 0.930 . S
H2771 C2806 0.930 . S
H2772 C2808 0.930 . S
H2773 C2809 0.930 . S
H2774 C2811 0.931 . S
H2775 C2812 0.930 . S
H2776 C2814 0.930 . S
H2777 C2815 0.929 . S
H2778 C2817 0.930 . S
H2779 C2818 0.931 . S
H2780 C2820 0.930 . S
H2781 C2821 0.929 . S
H2782 C2823 0.931 . S
H2783 C2824 0.930 . S
H2784 C2826 0.930 . S
H2785 C2827 0.932 . S
H2786 C2829 0.930 . S
H2787 C2830 0.929 . S
H2788 C2832 0.931 . S
H2789 C2833 0.930 . S
H2790 C2835 0.929 . S
H2791 C2836 0.931 . S
H2792 C2838 0.930 . S
H2793 C2839 0.929 . S
O2794 H2768 0.856 . S
O2794 C2840 1.300 . S
O2795 C2840 1.209 . S
O2796 C2841 1.199 . S
O2797 H2769 0.854 . S
O2797 C2841 1.297 . S
C2798 C2799 1.404 . S
C2798 C2803 1.397 . S
C2798 C2804 1.492 . S
C2799 C2798 1.404 . S
C2799 C2800 1.396 . S
C2799 C2810 1.492 . S
C2800 C2799 1.396 . S
C2800 C2801 1.397 . S
C2800 C2816 1.509 . S
C2801 C2800 1.397 . S
C2801 C2802 1.412 . S
C2801 C2822 1.485 . S
C2802 C2801 1.412 . S
C2802 C2803 1.388 . S
C2802 C2828 1.490 . S
C2803 C2798 1.397 . S
C2803 C2802 1.388 . S
C2803 C2834 1.519 . S
C2804 C2798 1.492 . S
C2804 C2805 1.363 . S
C2804 C2809 1.390 . S
C2805 H2770 0.930 . S
C2805 C2804 1.363 . S
C2805 C2806 1.372 . S
C2806 H2771 0.930 . S
C2806 C2805 1.372 . S
C2806 C2807 1.383 . S
C2807 C2806 1.383 . S
C2807 C2808 1.395 . S
C2808 H2772 0.930 . S
C2808 C2807 1.395 . S
C2808 C2809 1.362 . S
C2809 H2773 0.930 . S
C2809 C2804 1.390 . S
C2809 C2808 1.362 . S
C2810 C2799 1.492 . S
C2810 C2811 1.377 . S
C2810 C2815 1.397 . S
C2811 H2774 0.931 . S
C2811 C2810 1.377 . S
C2811 C2812 1.376 . S
C2812 H2775 0.930 . S
C2812 C2811 1.376 . S
C2812 C2813 1.376 . S
C2813 C2812 1.376 . S
C2813 C2814 1.378 . S
C2813 C2840 1.486 . S
C2814 H2776 0.930 . S
C2814 C2813 1.378 . S
C2814 C2815 1.376 . S
C2815 H2777 0.929 . S
C2815 C2810 1.397 . S
C2815 C2814 1.376 . S
C2816 C2800 1.509 . S
C2816 C2817 1.391 . S
C2816 C2821 1.386 . S
C2817 H2778 0.930 . S
C2817 C2816 1.391 . S
C2817 C2818 1.375 . S
C2818 H2779 0.931 . S
C2818 C2817 1.375 . S
C2818 C2819 1.375 . S
C2819 C2818 1.375 . S
C2819 C2820 1.361 . S
C2820 H2780 0.930 . S
C2820 C2819 1.361 . S
C2820 C2821 1.399 . S
C2821 H2781 0.929 . S
C2821 C2816 1.386 . S
C2821 C2820 1.399 . S
C2822 C2801 1.485 . S
C2822 C2823 1.394 . S
C2822 C2827 1.360 . S
C2823 H2782 0.931 . S
C2823 C2822 1.394 . S
C2823 C2824 1.372 . S
C2824 H2783 0.930 . S
C2824 C2823 1.372 . S
C2824 C2825 1.397 . S
C2825 C2824 1.397 . S
C2825 C2826 1.390 . S
C2825 C2841 1.476 . S
C2826 H2784 0.930 . S
C2826 C2825 1.390 . S
C2826 C2827 1.366 . S
C2827 H2785 0.932 . S
C2827 C2822 1.360 . S
C2827 C2826 1.366 . S
C2828 C2802 1.490 . S
C2828 C2829 1.380 . S
C2828 C2833 1.386 . S
C2829 H2786 0.930 . S
C2829 C2828 1.380 . S
C2829 C2830 1.381 . S
C2830 H2787 0.929 . S
C2830 C2829 1.381 . S
C2830 C2831 1.371 . S
C2831 C2830 1.371 . S
C2831 C2832 1.380 . S
C2832 H2788 0.931 . S
C2832 C2831 1.380 . S
C2832 C2833 1.387 . S
C2833 H2789 0.930 . S
C2833 C2828 1.386 . S
C2833 C2832 1.387 . S
C2834 C2803 1.519 . S
C2834 C2835 1.377 . S
C2834 C2839 1.361 . S
C2835 H2790 0.929 . S
C2835 C2834 1.377 . S
C2835 C2836 1.386 . S
C2836 H2791 0.931 . S
C2836 C2835 1.386 . S
C2836 C2837 1.363 . S
C2837 C2836 1.363 . S
C2837 C2838 1.385 . S
C2838 H2792 0.930 . S
C2838 C2837 1.385 . S
C2838 C2839 1.396 . S
C2839 H2793 0.929 . S
C2839 C2834 1.361 . S
C2839 C2838 1.396 . S
C2840 O2794 1.300 . S
C2840 O2795 1.209 . S
C2840 C2813 1.486 . S
C2841 O2796 1.199 . S
C2841 O2797 1.297 . S
C2841 C2825 1.476 . S
H2842 O2868 0.856 . S
H2843 O2871 0.854 . S
H2844 C2879 0.930 . S
H2845 C2880 0.930 . S
H2846 C2882 0.930 . S
H2847 C2883 0.930 . S
H2848 C2885 0.931 . S
H2849 C2886 0.930 . S
H2850 C2888 0.930 . S
H2851 C2889 0.929 . S
H2852 C2891 0.930 . S
H2853 C2892 0.931 . S
H2854 C2894 0.930 . S
H2855 C2895 0.929 . S
H2856 C2897 0.931 . S
H2857 C2898 0.930 . S
H2858 C2900 0.930 . S
H2859 C2901 0.932 . S
H2860 C2903 0.930 . S
H2861 C2904 0.929 . S
H2862 C2906 0.931 . S
H2863 C2907 0.930 . S
H2864 C2909 0.929 . S
H2865 C2910 0.931 . S
H2866 C2912 0.930 . S
H2867 C2913 0.929 . S
O2868 H2842 0.856 . S
O2868 C2914 1.300 . S
O2869 C2914 1.209 . S
O2870 C2915 1.199 . S
O2871 H2843 0.854 . S
O2871 C2915 1.297 . S
C2872 C2873 1.404 . S
C2872 C2877 1.397 . S
C2872 C2878 1.492 . S
C2873 C2872 1.404 . S
C2873 C2874 1.396 . S
C2873 C2884 1.492 . S
C2874 C2873 1.396 . S
C2874 C2875 1.397 . S
C2874 C2890 1.509 . S
C2875 C2874 1.397 . S
C2875 C2876 1.412 . S
C2875 C2896 1.485 . S
C2876 C2875 1.412 . S
C2876 C2877 1.388 . S
C2876 C2902 1.490 . S
C2877 C2872 1.397 . S
C2877 C2876 1.388 . S
C2877 C2908 1.519 . S
C2878 C2872 1.492 . S
C2878 C2879 1.363 . S
C2878 C2883 1.390 . S
C2879 H2844 0.930 . S
C2879 C2878 1.363 . S
C2879 C2880 1.372 . S
C2880 H2845 0.930 . S
C2880 C2879 1.372 . S
C2880 C2881 1.383 . S
C2881 C2880 1.383 . S
C2881 C2882 1.395 . S
C2882 H2846 0.930 . S
C2882 C2881 1.395 . S
C2882 C2883 1.362 . S
C2883 H2847 0.930 . S
C2883 C2878 1.390 . S
C2883 C2882 1.362 . S
C2884 C2873 1.492 . S
C2884 C2885 1.377 . S
C2884 C2889 1.397 . S
C2885 H2848 0.931 . S
C2885 C2884 1.377 . S
C2885 C2886 1.376 . S
C2886 H2849 0.930 . S
C2886 C2885 1.376 . S
C2886 C2887 1.376 . S
C2887 C2886 1.376 . S
C2887 C2888 1.378 . S
C2887 C2914 1.486 . S
C2888 H2850 0.930 . S
C2888 C2887 1.378 . S
C2888 C2889 1.376 . S
C2889 H2851 0.929 . S
C2889 C2884 1.397 . S
C2889 C2888 1.376 . S
C2890 C2874 1.509 . S
C2890 C2891 1.391 . S
C2890 C2895 1.386 . S
C2891 H2852 0.930 . S
C2891 C2890 1.391 . S
C2891 C2892 1.375 . S
C2892 H2853 0.931 . S
C2892 C2891 1.375 . S
C2892 C2893 1.375 . S
C2893 C2892 1.375 . S
C2893 C2894 1.361 . S
C2894 H2854 0.930 . S
C2894 C2893 1.361 . S
C2894 C2895 1.399 . S
C2895 H2855 0.929 . S
C2895 C2890 1.386 . S
C2895 C2894 1.399 . S
C2896 C2875 1.485 . S
C2896 C2897 1.394 . S
C2896 C2901 1.360 . S
C2897 H2856 0.931 . S
C2897 C2896 1.394 . S
C2897 C2898 1.372 . S
C2898 H2857 0.930 . S
C2898 C2897 1.372 . S
C2898 C2899 1.397 . S
C2899 C2898 1.397 . S
C2899 C2900 1.390 . S
C2899 C2915 1.476 . S
C2900 H2858 0.930 . S
C2900 C2899 1.390 . S
C2900 C2901 1.366 . S
C2901 H2859 0.932 . S
C2901 C2896 1.360 . S
C2901 C2900 1.366 . S
C2902 C2876 1.490 . S
C2902 C2903 1.380 . S
C2902 C2907 1.386 . S
C2903 H2860 0.930 . S
C2903 C2902 1.380 . S
C2903 C2904 1.381 . S
C2904 H2861 0.929 . S
C2904 C2903 1.381 . S
C2904 C2905 1.371 . S
C2905 C2904 1.371 . S
C2905 C2906 1.380 . S
C2906 H2862 0.931 . S
C2906 C2905 1.380 . S
C2906 C2907 1.387 . S
C2907 H2863 0.930 . S
C2907 C2902 1.386 . S
C2907 C2906 1.387 . S
C2908 C2877 1.519 . S
C2908 C2909 1.377 . S
C2908 C2913 1.361 . S
C2909 H2864 0.929 . S
C2909 C2908 1.377 . S
C2909 C2910 1.386 . S
C2910 H2865 0.931 . S
C2910 C2909 1.386 . S
C2910 C2911 1.363 . S
C2911 C2910 1.363 . S
C2911 C2912 1.385 . S
C2912 H2866 0.930 . S
C2912 C2911 1.385 . S
C2912 C2913 1.396 . S
C2913 H2867 0.929 . S
C2913 C2908 1.361 . S
C2913 C2912 1.396 . S
C2914 O2868 1.300 . S
C2914 O2869 1.209 . S
C2914 C2887 1.486 . S
C2915 O2870 1.199 . S
C2915 O2871 1.297 . S
C2915 C2899 1.476 . S
H2916 C2922 0.930 . S
H2917 C2926 0.930 . S
H2918 C2931 0.929 . S
H2919 C2929 0.929 . S
H2920 C2924 0.929 . S
H2921 C2930 0.929 . S
C2922 H2916 0.930 . S
C2922 C2923 1.367 . S
C2922 C2930 1.378 . S
C2923 C2922 1.367 . S
C2923 C2931 1.433 . S
C2924 H2920 0.929 . S
C2924 C2926 1.378 . S
C2924 C2928 1.350 . S
C2925 C2928 1.463 . S
C2925 C2930 1.350 . S
C2925 N2933 1.427 . S
C2926 H2917 0.930 . S
C2926 C2924 1.378 . S
C2926 C2927 1.367 . S
C2927 C2926 1.367 . S
C2927 C2929 1.433 . S
C2928 C2924 1.350 . S
C2928 C2925 1.463 . S
C2928 N2932 1.427 . S
C2929 H2919 0.929 . S
C2929 C2927 1.433 . S
C2929 N2932 1.384 . S
C2930 H2921 0.929 . S
C2930 C2922 1.378 . S
C2930 C2925 1.350 . S
C2931 H2918 0.929 . S
C2931 C2923 1.433 . S
C2931 N2933 1.384 . S
N2932 C2928 1.427 . S
N2932 C2929 1.384 . S
N2933 C2925 1.427 . S
N2933 C2931 1.384 . S
H2934 C2940 0.930 . S
H2935 C2944 0.930 . S
H2936 C2949 0.929 . S
H2937 C2947 0.929 . S
H2938 C2942 0.929 . S
H2939 C2948 0.929 . S
C2940 H2934 0.930 . S
C2940 C2941 1.367 . S
C2940 C2948 1.378 . S
C2941 C2940 1.367 . S
C2941 C2949 1.433 . S
C2942 H2938 0.929 . S
C2942 C2944 1.378 . S
C2942 C2946 1.350 . S
C2943 C2946 1.463 . S
C2943 C2948 1.350 . S
C2943 N2951 1.427 . S
C2944 H2935 0.930 . S
C2944 C2942 1.378 . S
C2944 C2945 1.367 . S
C2945 C2944 1.367 . S
C2945 C2947 1.433 . S
C2946 C2942 1.350 . S
C2946 C2943 1.463 . S
C2946 N2950 1.427 . S
C2947 H2937 0.929 . S
C2947 C2945 1.433 . S
C2947 N2950 1.384 . S
C2948 H2939 0.929 . S
C2948 C2940 1.378 . S
C2948 C2943 1.350 . S
C2949 H2936 0.929 . S
C2949 C2941 1.433 . S
C2949 N2951 1.384 . S
N2950 C2946 1.427 . S
N2950 C2947 1.384 . S
N2951 C2943 1.427 . S
N2951 C2949 1.384 . S
H2952 C2958 0.930 . S
H2953 C2962 0.930 . S
H2954 C2967 0.929 . S
H2955 C2965 0.929 1_565 S
H2956 C2960 0.929 . S
H2957 C2966 0.929 . S
C2958 H2952 0.930 . S
C2958 C2959 1.367 . S
C2958 C2966 1.378 . S
C2959 C2958 1.367 . S
C2959 C2967 1.433 . S
C2960 H2956 0.929 . S
C2960 C2962 1.378 . S
C2960 C2964 1.350 . S
C2961 C2964 1.463 . S
C2961 C2966 1.350 . S
C2961 N2969 1.427 . S
C2962 H2953 0.930 . S
C2962 C2960 1.378 . S
C2962 C2963 1.367 . S
C2963 C2962 1.367 . S
C2963 C2965 1.433 . S
C2964 C2960 1.350 . S
C2964 C2961 1.463 . S
C2964 N2968 1.427 . S
C2965 H2955 0.929 1_545 S
C2965 C2963 1.433 . S
C2965 N2968 1.384 . S
C2966 H2957 0.929 . S
C2966 C2958 1.378 . S
C2966 C2961 1.350 . S
C2967 H2954 0.929 . S
C2967 C2959 1.433 . S
C2967 N2969 1.384 . S
N2968 C2964 1.427 . S
N2968 C2965 1.384 . S
N2969 C2961 1.427 . S
N2969 C2967 1.384 . S
H2970 C2976 0.930 . S
H2971 C2980 0.956 . S
H2972 C2985 0.929 . S
H2973 C2983 0.929 . S
H2974 C2978 0.929 1_545 S
H2975 C2984 0.929 . S
C2976 H2970 0.930 . S
C2976 C2977 1.367 . S
C2976 C2984 1.378 . S
C2977 C2976 1.367 . S
C2977 C2985 1.433 . S
C2978 H2974 0.929 1_565 S
C2978 C2980 1.384 1_565 S
C2978 C2982 1.350 . S
C2979 C2982 1.463 . S
C2979 C2984 1.350 . S
C2979 N2987 1.427 . S
C2980 H2971 0.956 . S
C2980 C2978 1.384 1_545 S
C2980 C2981 1.336 1_545 S
C2981 C2980 1.336 1_565 S
C2981 C2983 1.433 . S
C2982 C2978 1.350 . S
C2982 C2979 1.463 . S
C2982 N2986 1.427 . S
C2983 H2973 0.929 . S
C2983 C2981 1.433 . S
C2983 N2986 1.384 . S
C2984 H2975 0.929 . S
C2984 C2976 1.378 . S
C2984 C2979 1.350 . S
C2985 H2972 0.929 . S
C2985 C2977 1.433 . S
C2985 N2987 1.384 . S
N2986 C2982 1.427 . S
N2986 C2983 1.384 . S
N2987 C2979 1.427 . S
N2987 C2985 1.384 . S
H2988 C2994 0.930 . S
H2989 C2998 0.930 . S
H2990 C3003 0.929 . S
H2991 C3001 0.929 . S
H2992 C2996 0.929 . S
H2993 C3002 0.929 . S
C2994 H2988 0.930 . S
C2994 C2995 1.367 . S
C2994 C3002 1.378 . S
C2995 C2994 1.367 . S
C2995 C3003 1.433 . S
C2996 H2992 0.929 . S
C2996 C2998 1.378 . S
C2996 C3000 1.350 . S
C2997 C3000 1.463 . S
C2997 C3002 1.350 . S
C2997 N3005 1.427 . S
C2998 H2989 0.930 . S
C2998 C2996 1.378 . S
C2998 C2999 1.367 . S
C2999 C2998 1.367 . S
C2999 C3001 1.433 . S
C3000 C2996 1.350 . S
C3000 C2997 1.463 . S
C3000 N3004 1.427 . S
C3001 H2991 0.929 . S
C3001 C2999 1.433 . S
C3001 N3004 1.384 . S
C3002 H2993 0.929 . S
C3002 C2994 1.378 . S
C3002 C2997 1.350 . S
C3003 H2990 0.929 . S
C3003 C2995 1.433 . S
C3003 N3005 1.384 . S
N3004 C3000 1.427 . S
N3004 C3001 1.384 . S
N3005 C2997 1.427 . S
N3005 C3003 1.384 . S
H3006 C3012 0.930 . S
H3007 C3016 0.930 . S
H3008 C3021 0.929 . S
H3009 C3019 0.929 . S
H3010 C3014 0.929 . S
H3011 C3020 0.929 . S
C3012 H3006 0.930 . S
C3012 C3013 1.367 . S
C3012 C3020 1.378 . S
C3013 C3012 1.367 . S
C3013 C3021 1.433 . S
C3014 H3010 0.929 . S
C3014 C3016 1.378 . S
C3014 C3018 1.350 . S
C3015 C3018 1.463 . S
C3015 C3020 1.350 . S
C3015 N3023 1.427 . S
C3016 H3007 0.930 . S
C3016 C3014 1.378 . S
C3016 C3017 1.367 . S
C3017 C3016 1.367 . S
C3017 C3019 1.433 . S
C3018 C3014 1.350 . S
C3018 C3015 1.463 . S
C3018 N3022 1.427 . S
C3019 H3009 0.929 . S
C3019 C3017 1.433 . S
C3019 N3022 1.384 . S
C3020 H3011 0.929 . S
C3020 C3012 1.378 . S
C3020 C3015 1.350 . S
C3021 H3008 0.929 . S
C3021 C3013 1.433 . S
C3021 N3023 1.384 . S
N3022 C3018 1.427 . S
N3022 C3019 1.384 . S
N3023 C3015 1.427 . S
N3023 C3021 1.384 . S
H3024 C3030 0.930 1_655 S
H3025 C3034 0.930 . S
H3026 C3039 0.929 . S
H3027 C3037 0.929 . S
H3028 C3032 0.929 . S
H3029 C3038 0.929 1_655 S
C3030 H3024 0.930 1_455 S
C3030 C3031 1.367 . S
C3030 C3038 1.378 . S
C3031 C3030 1.367 . S
C3031 C3039 1.433 . S
C3032 H3028 0.929 . S
C3032 C3034 1.378 . S
C3032 C3036 1.350 . S
C3033 C3036 1.463 . S
C3033 C3038 1.350 . S
C3033 N3041 1.427 . S
C3034 H3025 0.930 . S
C3034 C3032 1.378 . S
C3034 C3035 1.367 . S
C3035 C3034 1.367 . S
C3035 C3037 1.433 1_455 S
C3036 C3032 1.350 . S
C3036 C3033 1.463 . S
C3036 N3040 1.427 1_455 S
C3037 H3027 0.929 . S
C3037 C3035 1.433 1_655 S
C3037 N3040 1.384 . S
C3038 H3029 0.929 1_455 S
C3038 C3030 1.378 . S
C3038 C3033 1.350 . S
C3039 H3026 0.929 . S
C3039 C3031 1.433 . S
C3039 N3041 1.384 . S
N3040 C3036 1.427 1_655 S
N3040 C3037 1.384 . S
N3041 C3033 1.427 . S
N3041 C3039 1.384 . S
H3042 C3048 0.930 . S
H3043 C3052 0.930 . S
H3044 C3057 0.929 . S
H3045 C3055 0.929 . S
H3046 C3050 0.929 . S
H3047 C3056 0.929 . S
C3048 H3042 0.930 . S
C3048 C3049 1.367 . S
C3048 C3056 1.378 . S
C3049 C3048 1.367 . S
C3049 C3057 1.433 . S
C3050 H3046 0.929 . S
C3050 C3052 1.378 . S
C3050 C3054 1.350 . S
C3051 C3054 1.463 . S
C3051 C3056 1.350 . S
C3051 N3059 1.427 . S
C3052 H3043 0.930 . S
C3052 C3050 1.378 . S
C3052 C3053 1.367 . S
C3053 C3052 1.367 . S
C3053 C3055 1.433 . S
C3054 C3050 1.350 . S
C3054 C3051 1.463 . S
C3054 N3058 1.427 . S
C3055 H3045 0.929 . S
C3055 C3053 1.433 . S
C3055 N3058 1.384 . S
C3056 H3047 0.929 . S
C3056 C3048 1.378 . S
C3056 C3051 1.350 . S
C3057 H3044 0.929 . S
C3057 C3049 1.433 . S
C3057 N3059 1.384 . S
N3058 C3054 1.427 . S
N3058 C3055 1.384 . S
N3059 C3051 1.427 . S
N3059 C3057 1.384 . S
H3060 C3066 0.930 . S
H3061 C3070 0.930 . S
H3062 C3075 0.930 . S
H3063 C3073 0.929 . S
H3064 C3068 0.929 . S
H3065 C3074 0.929 . S
C3066 H3060 0.930 . S
C3066 C3067 1.367 . S
C3066 C3074 1.378 . S
C3067 C3066 1.367 . S
C3067 C3075 1.433 . S
C3068 H3064 0.929 . S
C3068 C3070 1.378 . S
C3068 C3072 1.350 1_545 S
C3069 C3072 1.463 . S
C3069 C3074 1.350 . S
C3069 N3077 1.427 . S
C3070 H3061 0.930 . S
C3070 C3068 1.378 . S
C3070 C3071 1.363 1_545 S
C3071 C3070 1.363 1_565 S
C3071 C3073 1.477 . S
C3072 C3068 1.350 1_565 S
C3072 C3069 1.463 . S
C3072 N3076 1.427 . S
C3073 H3063 0.929 . S
C3073 C3071 1.477 . S
C3073 N3076 1.384 . S
C3074 H3065 0.929 . S
C3074 C3066 1.378 . S
C3074 C3069 1.350 . S
C3075 H3062 0.930 . S
C3075 C3067 1.433 . S
C3075 N3077 1.384 . S
N3076 C3072 1.427 . S
N3076 C3073 1.384 . S
N3077 C3069 1.427 . S
N3077 C3075 1.384 . S
H3078 C3084 0.930 . S
H3079 C3088 0.930 . S
H3080 C3093 0.929 . S
H3081 C3091 0.929 . S
H3082 C3086 0.929 . S
H3083 C3092 0.929 1_565 S
C3084 H3078 0.930 . S
C3084 C3085 1.367 . S
C3084 C3092 1.378 . S
C3085 C3084 1.367 . S
C3085 C3093 1.433 . S
C3086 H3082 0.929 . S
C3086 C3088 1.378 . S
C3086 C3090 1.350 . S
C3087 C3090 1.463 . S
C3087 C3092 1.350 . S
C3087 N3095 1.427 . S
C3088 H3079 0.930 . S
C3088 C3086 1.378 . S
C3088 C3089 1.367 . S
C3089 C3088 1.367 . S
C3089 C3091 1.433 1_545 S
C3090 C3086 1.350 . S
C3090 C3087 1.463 . S
C3090 N3094 1.427 1_545 S
C3091 H3081 0.929 . S
C3091 C3089 1.433 1_565 S
C3091 N3094 1.384 . S
C3092 H3083 0.929 1_545 S
C3092 C3084 1.378 . S
C3092 C3087 1.350 . S
C3093 H3080 0.929 . S
C3093 C3085 1.433 . S
C3093 N3095 1.384 . S
N3094 C3090 1.427 1_565 S
N3094 C3091 1.384 . S
N3095 C3087 1.427 . S
N3095 C3093 1.384 . S
H3096 C3102 0.930 . S
H3097 C3106 0.930 . S
H3098 C3111 0.929 . S
H3099 C3109 0.900 1_455 S
H3100 C3104 0.929 . S
H3101 C3110 0.929 . S
C3102 H3096 0.930 . S
C3102 C3103 1.367 . S
C3102 C3110 1.378 . S
C3103 C3102 1.367 . S
C3103 C3111 1.433 . S
C3104 H3100 0.929 . S
C3104 C3106 1.378 . S
C3104 C3108 1.350 . S
C3105 C3108 1.463 . S
C3105 C3110 1.350 . S
C3105 N3113 1.427 . S
C3106 H3097 0.930 . S
C3106 C3104 1.378 . S
C3106 C3107 1.367 . S
C3107 C3106 1.367 . S
C3107 C3109 1.444 . S
C3108 C3104 1.350 . S
C3108 C3105 1.463 . S
C3108 N3112 1.427 . S
C3109 H3099 0.900 1_655 S
C3109 C3107 1.444 . S
C3109 N3112 1.404 . S
C3110 H3101 0.929 . S
C3110 C3102 1.378 . S
C3110 C3105 1.350 . S
C3111 H3098 0.929 . S
C3111 C3103 1.433 . S
C3111 N3113 1.384 . S
N3112 C3108 1.427 . S
N3112 C3109 1.404 . S
N3113 C3105 1.427 . S
N3113 C3111 1.384 . S
H3114 C3120 0.930 . S
H3115 C3124 0.930 . S
H3116 C3129 0.929 . S
H3117 C3127 0.929 . S
H3118 C3122 0.929 . S
H3119 C3128 0.929 . S
C3120 H3114 0.930 . S
C3120 C3121 1.367 . S
C3120 C3128 1.378 . S
C3121 C3120 1.367 . S
C3121 C3129 1.433 . S
C3122 H3118 0.929 . S
C3122 C3124 1.378 . S
C3122 C3126 1.350 . S
C3123 C3126 1.463 . S
C3123 C3128 1.350 . S
C3123 N3131 1.427 . S
C3124 H3115 0.930 . S
C3124 C3122 1.378 . S
C3124 C3125 1.367 . S
C3125 C3124 1.367 . S
C3125 C3127 1.433 . S
C3126 C3122 1.350 . S
C3126 C3123 1.463 . S
C3126 N3130 1.427 . S
C3127 H3117 0.929 . S
C3127 C3125 1.433 . S
C3127 N3130 1.384 . S
C3128 H3119 0.929 . S
C3128 C3120 1.378 . S
C3128 C3123 1.350 . S
C3129 H3116 0.929 . S
C3129 C3121 1.433 . S
C3129 N3131 1.384 . S
N3130 C3126 1.427 . S
N3130 C3127 1.384 . S
N3131 C3123 1.427 . S
N3131 C3129 1.384 . S
H3132 C3138 0.930 . S
H3133 C3142 0.930 . S
H3134 C3147 0.929 . S
H3135 C3145 0.929 . S
H3136 C3140 0.929 . S
H3137 C3146 0.929 . S
C3138 H3132 0.930 . S
C3138 C3139 1.367 . S
C3138 C3146 1.378 . S
C3139 C3138 1.367 . S
C3139 C3147 1.433 . S
C3140 H3136 0.929 . S
C3140 C3142 1.378 . S
C3140 C3144 1.350 . S
C3141 C3144 1.463 . S
C3141 C3146 1.350 . S
C3141 N3149 1.427 . S
C3142 H3133 0.930 . S
C3142 C3140 1.378 . S
C3142 C3143 1.367 . S
C3143 C3142 1.367 . S
C3143 C3145 1.433 . S
C3144 C3140 1.350 . S
C3144 C3141 1.463 . S
C3144 N3148 1.427 . S
C3145 H3135 0.929 . S
C3145 C3143 1.433 . S
C3145 N3148 1.384 . S
C3146 H3137 0.929 . S
C3146 C3138 1.378 . S
C3146 C3141 1.350 . S
C3147 H3134 0.929 . S
C3147 C3139 1.433 . S
C3147 N3149 1.384 . S
N3148 C3144 1.427 . S
N3148 C3145 1.384 . S
N3149 C3141 1.427 . S
N3149 C3147 1.384 . S
H3150 C3156 0.930 . S
H3151 C3160 0.930 . S
H3152 C3165 0.929 . S
H3153 C3163 0.929 . S
H3154 C3158 0.929 . S
H3155 C3164 0.929 . S
C3156 H3150 0.930 . S
C3156 C3157 1.367 . S
C3156 C3164 1.378 . S
C3157 C3156 1.367 . S
C3157 C3165 1.433 . S
C3158 H3154 0.929 . S
C3158 C3160 1.378 . S
C3158 C3162 1.350 . S
C3159 C3162 1.463 . S
C3159 C3164 1.350 . S
C3159 N3167 1.427 . S
C3160 H3151 0.930 . S
C3160 C3158 1.378 . S
C3160 C3161 1.367 . S
C3161 C3160 1.367 . S
C3161 C3163 1.433 . S
C3162 C3158 1.350 . S
C3162 C3159 1.463 . S
C3162 N3166 1.427 . S
C3163 H3153 0.929 . S
C3163 C3161 1.433 . S
C3163 N3166 1.384 . S
C3164 H3155 0.929 . S
C3164 C3156 1.378 . S
C3164 C3159 1.350 . S
C3165 H3152 0.929 . S
C3165 C3157 1.433 . S
C3165 N3167 1.384 . S
N3166 C3162 1.427 . S
N3166 C3163 1.384 . S
N3167 C3159 1.427 . S
N3167 C3165 1.384 . S
H3168 C3174 0.930 . S
H3169 C3178 0.930 . S
H3170 C3183 0.929 . S
H3171 C3181 0.929 . S
H3172 C3176 0.929 . S
H3173 C3182 0.929 . S
C3174 H3168 0.930 . S
C3174 C3175 1.367 . S
C3174 C3182 1.378 . S
C3175 C3174 1.367 . S
C3175 C3183 1.433 . S
C3176 H3172 0.929 . S
C3176 C3178 1.378 . S
C3176 C3180 1.350 . S
C3177 C3180 1.463 . S
C3177 C3182 1.350 . S
C3177 N3185 1.427 . S
C3178 H3169 0.930 . S
C3178 C3176 1.378 . S
C3178 C3179 1.367 . S
C3179 C3178 1.367 . S
C3179 C3181 1.433 . S
C3180 C3176 1.350 . S
C3180 C3177 1.463 . S
C3180 N3184 1.427 . S
C3181 H3171 0.929 . S
C3181 C3179 1.433 . S
C3181 N3184 1.384 . S
C3182 H3173 0.929 . S
C3182 C3174 1.378 . S
C3182 C3177 1.350 . S
C3183 H3170 0.929 . S
C3183 C3175 1.433 . S
C3183 N3185 1.384 . S
N3184 C3180 1.427 . S
N3184 C3181 1.384 . S
N3185 C3177 1.427 . S
N3185 C3183 1.384 . S
H3186 C3192 0.930 . S
H3187 C3196 0.930 . S
H3188 C3201 0.929 . S
H3189 C3199 0.929 . S
H3190 C3194 0.929 . S
H3191 C3200 0.929 . S
C3192 H3186 0.930 . S
C3192 C3193 1.367 . S
C3192 C3200 1.378 . S
C3193 C3192 1.367 . S
C3193 C3201 1.433 . S
C3194 H3190 0.929 . S
C3194 C3196 1.378 . S
C3194 C3198 1.350 . S
C3195 C3198 1.463 . S
C3195 C3200 1.350 . S
C3195 N3203 1.427 . S
C3196 H3187 0.930 . S
C3196 C3194 1.378 . S
C3196 C3197 1.367 . S
C3197 C3196 1.367 . S
C3197 C3199 1.433 . S
C3198 C3194 1.350 . S
C3198 C3195 1.463 . S
C3198 N3202 1.427 . S
C3199 H3189 0.929 . S
C3199 C3197 1.433 . S
C3199 N3202 1.384 . S
C3200 H3191 0.929 . S
C3200 C3192 1.378 . S
C3200 C3195 1.350 . S
C3201 H3188 0.929 . S
C3201 C3193 1.433 . S
C3201 N3203 1.384 . S
N3202 C3198 1.427 . S
N3202 C3199 1.384 . S
N3203 C3195 1.427 . S
N3203 C3201 1.384 . S
H3204 C3210 0.930 . S
H3205 C3214 0.930 . S
H3206 C3219 0.929 . S
H3207 C3217 0.929 . S
H3208 C3212 0.929 . S
H3209 C3218 0.929 . S
C3210 H3204 0.930 . S
C3210 C3211 1.367 . S
C3210 C3218 1.378 . S
C3211 C3210 1.367 . S
C3211 C3219 1.433 . S
C3212 H3208 0.929 . S
C3212 C3214 1.378 . S
C3212 C3216 1.350 . S
C3213 C3216 1.463 . S
C3213 C3218 1.350 . S
C3213 N3221 1.427 . S
C3214 H3205 0.930 . S
C3214 C3212 1.378 . S
C3214 C3215 1.367 . S
C3215 C3214 1.367 . S
C3215 C3217 1.433 . S
C3216 C3212 1.350 . S
C3216 C3213 1.463 . S
C3216 N3220 1.427 . S
C3217 H3207 0.929 . S
C3217 C3215 1.433 . S
C3217 N3220 1.384 . S
C3218 H3209 0.929 . S
C3218 C3210 1.378 . S
C3218 C3213 1.350 . S
C3219 H3206 0.929 . S
C3219 C3211 1.433 . S
C3219 N3221 1.384 . S
N3220 C3216 1.427 . S
N3220 C3217 1.384 . S
N3221 C3213 1.427 . S
N3221 C3219 1.384 . S
H3222 C3228 0.930 . S
H3223 C3232 0.930 . S
H3224 C3237 0.929 . S
H3225 C3235 0.929 . S
H3226 C3230 0.929 . S
H3227 C3236 0.929 . S
C3228 H3222 0.930 . S
C3228 C3229 1.367 . S
C3228 C3236 1.378 . S
C3229 C3228 1.367 . S
C3229 C3237 1.433 . S
C3230 H3226 0.929 . S
C3230 C3232 1.378 . S
C3230 C3234 1.350 . S
C3231 C3234 1.463 . S
C3231 C3236 1.350 . S
C3231 N3239 1.427 . S
C3232 H3223 0.930 . S
C3232 C3230 1.378 . S
C3232 C3233 1.367 . S
C3233 C3232 1.367 . S
C3233 C3235 1.433 . S
C3234 C3230 1.350 . S
C3234 C3231 1.463 . S
C3234 N3238 1.427 . S
C3235 H3225 0.929 . S
C3235 C3233 1.433 . S
C3235 N3238 1.384 . S
C3236 H3227 0.929 . S
C3236 C3228 1.378 . S
C3236 C3231 1.350 . S
C3237 H3224 0.929 . S
C3237 C3229 1.433 . S
C3237 N3239 1.384 . S
N3238 C3234 1.427 . S
N3238 C3235 1.384 . S
N3239 C3231 1.427 . S
N3239 C3237 1.384 . S
H3240 C3246 0.930 . S
H3241 C3250 0.930 . S
H3242 C3255 0.929 . S
H3243 C3253 0.929 . S
H3244 C3248 0.929 . S
H3245 C3254 0.929 . S
C3246 H3240 0.930 . S
C3246 C3247 1.367 . S
C3246 C3254 1.378 . S
C3247 C3246 1.367 . S
C3247 C3255 1.433 . S
C3248 H3244 0.929 . S
C3248 C3250 1.378 . S
C3248 C3252 1.350 . S
C3249 C3252 1.463 . S
C3249 C3254 1.350 . S
C3249 N3257 1.427 . S
C3250 H3241 0.930 . S
C3250 C3248 1.378 . S
C3250 C3251 1.367 . S
C3251 C3250 1.367 . S
C3251 C3253 1.433 . S
C3252 C3248 1.350 . S
C3252 C3249 1.463 . S
C3252 N3256 1.427 . S
C3253 H3243 0.929 . S
C3253 C3251 1.433 . S
C3253 N3256 1.384 . S
C3254 H3245 0.929 . S
C3254 C3246 1.378 . S
C3254 C3249 1.350 . S
C3255 H3242 0.929 . S
C3255 C3247 1.433 . S
C3255 N3257 1.384 . S
N3256 C3252 1.427 . S
N3256 C3253 1.384 . S
N3257 C3249 1.427 . S
N3257 C3255 1.384 . S
H3258 C3264 0.930 . S
H3259 C3268 0.930 . S
H3260 C3273 0.929 . S
H3261 C3271 0.929 . S
H3262 C3266 0.929 . S
H3263 C3272 0.929 . S
C3264 H3258 0.930 . S
C3264 C3265 1.367 . S
C3264 C3272 1.378 . S
C3265 C3264 1.367 . S
C3265 C3273 1.433 . S
C3266 H3262 0.929 . S
C3266 C3268 1.378 . S
C3266 C3270 1.350 . S
C3267 C3270 1.463 . S
C3267 C3272 1.350 . S
C3267 N3275 1.427 . S
C3268 H3259 0.930 . S
C3268 C3266 1.378 . S
C3268 C3269 1.367 . S
C3269 C3268 1.367 . S
C3269 C3271 1.433 . S
C3270 C3266 1.350 . S
C3270 C3267 1.463 . S
C3270 N3274 1.427 . S
C3271 H3261 0.929 . S
C3271 C3269 1.433 . S
C3271 N3274 1.384 . S
C3272 H3263 0.929 . S
C3272 C3264 1.378 . S
C3272 C3267 1.350 . S
C3273 H3260 0.929 . S
C3273 C3265 1.433 . S
C3273 N3275 1.384 . S
N3274 C3270 1.427 . S
N3274 C3271 1.384 . S
N3275 C3267 1.427 . S
N3275 C3273 1.384 . S
H3276 C3282 0.930 . S
H3277 C3286 0.930 . S
H3278 C3291 0.929 . S
H3279 C3289 0.929 . S
H3280 C3284 0.929 . S
H3281 C3290 0.929 . S
C3282 H3276 0.930 . S
C3282 C3283 1.367 . S
C3282 C3290 1.378 . S
C3283 C3282 1.367 . S
C3283 C3291 1.433 . S
C3284 H3280 0.929 . S
C3284 C3286 1.378 . S
C3284 C3288 1.350 . S
C3285 C3288 1.463 . S
C3285 C3290 1.350 . S
C3285 N3293 1.427 . S
C3286 H3277 0.930 . S
C3286 C3284 1.378 . S
C3286 C3287 1.367 . S
C3287 C3286 1.367 . S
C3287 C3289 1.433 . S
C3288 C3284 1.350 . S
C3288 C3285 1.463 . S
C3288 N3292 1.427 . S
C3289 H3279 0.929 . S
C3289 C3287 1.433 . S
C3289 N3292 1.384 . S
C3290 H3281 0.929 . S
C3290 C3282 1.378 . S
C3290 C3285 1.350 . S
C3291 H3278 0.929 . S
C3291 C3283 1.433 . S
C3291 N3293 1.384 . S
N3292 C3288 1.427 . S
N3292 C3289 1.384 . S
N3293 C3285 1.427 . S
N3293 C3291 1.384 . S
H3294 C3300 0.930 . S
H3295 C3304 0.930 . S
H3296 C3309 0.929 . S
H3297 C3307 0.929 . S
H3298 C3302 0.929 . S
H3299 C3308 0.929 . S
C3300 H3294 0.930 . S
C3300 C3301 1.367 . S
C3300 C3308 1.378 . S
C3301 C3300 1.367 . S
C3301 C3309 1.433 . S
C3302 H3298 0.929 . S
C3302 C3304 1.378 . S
C3302 C3306 1.350 . S
C3303 C3306 1.463 . S
C3303 C3308 1.350 . S
C3303 N3311 1.427 . S
C3304 H3295 0.930 . S
C3304 C3302 1.378 . S
C3304 C3305 1.367 . S
C3305 C3304 1.367 . S
C3305 C3307 1.433 . S
C3306 C3302 1.350 . S
C3306 C3303 1.463 . S
C3306 N3310 1.427 . S
C3307 H3297 0.929 . S
C3307 C3305 1.433 . S
C3307 N3310 1.384 . S
C3308 H3299 0.929 . S
C3308 C3300 1.378 . S
C3308 C3303 1.350 . S
C3309 H3296 0.929 . S
C3309 C3301 1.433 . S
C3309 N3311 1.384 . S
N3310 C3306 1.427 . S
N3310 C3307 1.384 . S
N3311 C3303 1.427 . S
N3311 C3309 1.384 . S
H3312 C3318 0.930 . S
H3313 C3322 0.930 . S
H3314 C3327 0.929 . S
H3315 C3325 0.929 . S
H3316 C3320 0.929 . S
H3317 C3326 0.929 . S
C3318 H3312 0.930 . S
C3318 C3319 1.367 . S
C3318 C3326 1.378 . S
C3319 C3318 1.367 . S
C3319 C3327 1.433 . S
C3320 H3316 0.929 . S
C3320 C3322 1.378 . S
C3320 C3324 1.350 . S
C3321 C3324 1.463 . S
C3321 C3326 1.350 . S
C3321 N3329 1.427 . S
C3322 H3313 0.930 . S
C3322 C3320 1.378 . S
C3322 C3323 1.367 . S
C3323 C3322 1.367 . S
C3323 C3325 1.433 . S
C3324 C3320 1.350 . S
C3324 C3321 1.463 . S
C3324 N3328 1.427 . S
C3325 H3315 0.929 . S
C3325 C3323 1.433 . S
C3325 N3328 1.384 . S
C3326 H3317 0.929 . S
C3326 C3318 1.378 . S
C3326 C3321 1.350 . S
C3327 H3314 0.929 . S
C3327 C3319 1.433 . S
C3327 N3329 1.384 . S
N3328 C3324 1.427 . S
N3328 C3325 1.384 . S
N3329 C3321 1.427 . S
N3329 C3327 1.384 . S
H3330 C3336 0.930 . S
H3331 C3340 0.930 . S
H3332 C3345 0.929 . S
H3333 C3343 0.929 . S
H3334 C3338 0.929 . S
H3335 C3344 0.929 . S
C3336 H3330 0.930 . S
C3336 C3337 1.367 . S
C3336 C3344 1.378 . S
C3337 C3336 1.367 . S
C3337 C3345 1.433 . S
C3338 H3334 0.929 . S
C3338 C3340 1.378 . S
C3338 C3342 1.350 . S
C3339 C3342 1.463 . S
C3339 C3344 1.350 . S
C3339 N3347 1.427 . S
C3340 H3331 0.930 . S
C3340 C3338 1.378 . S
C3340 C3341 1.367 . S
C3341 C3340 1.367 . S
C3341 C3343 1.433 . S
C3342 C3338 1.350 . S
C3342 C3339 1.463 . S
C3342 N3346 1.427 . S
C3343 H3333 0.929 . S
C3343 C3341 1.433 . S
C3343 N3346 1.384 . S
C3344 H3335 0.929 . S
C3344 C3336 1.378 . S
C3344 C3339 1.350 . S
C3345 H3332 0.929 . S
C3345 C3337 1.433 . S
C3345 N3347 1.384 . S
N3346 C3342 1.427 . S
N3346 C3343 1.384 . S
N3347 C3339 1.427 . S
N3347 C3345 1.384 . S
H3348 C3354 0.930 . S
H3349 C3358 0.930 . S
H3350 C3363 0.929 . S
H3351 C3361 0.929 . S
H3352 C3356 0.929 . S
H3353 C3362 0.929 . S
C3354 H3348 0.930 . S
C3354 C3355 1.367 . S
C3354 C3362 1.378 . S
C3355 C3354 1.367 . S
C3355 C3363 1.433 . S
C3356 H3352 0.929 . S
C3356 C3358 1.378 . S
C3356 C3360 1.350 . S
C3357 C3360 1.463 . S
C3357 C3362 1.350 . S
C3357 N3365 1.427 . S
C3358 H3349 0.930 . S
C3358 C3356 1.378 . S
C3358 C3359 1.367 . S
C3359 C3358 1.367 . S
C3359 C3361 1.433 . S
C3360 C3356 1.350 . S
C3360 C3357 1.463 . S
C3360 N3364 1.427 . S
C3361 H3351 0.929 . S
C3361 C3359 1.433 . S
C3361 N3364 1.384 . S
C3362 H3353 0.929 . S
C3362 C3354 1.378 . S
C3362 C3357 1.350 . S
C3363 H3350 0.929 . S
C3363 C3355 1.433 . S
C3363 N3365 1.384 . S
N3364 C3360 1.427 . S
N3364 C3361 1.384 . S
N3365 C3357 1.427 . S
N3365 C3363 1.384 . S
H3366 C3372 0.930 . S
H3367 C3376 0.930 . S
H3368 C3381 0.929 . S
H3369 C3379 0.929 . S
H3370 C3374 0.929 . S
H3371 C3380 0.929 . S
C3372 H3366 0.930 . S
C3372 C3373 1.367 . S
C3372 C3380 1.378 . S
C3373 C3372 1.367 . S
C3373 C3381 1.433 . S
C3374 H3370 0.929 . S
C3374 C3376 1.378 . S
C3374 C3378 1.350 . S
C3375 C3378 1.463 . S
C3375 C3380 1.350 . S
C3375 N3383 1.427 . S
C3376 H3367 0.930 . S
C3376 C3374 1.378 . S
C3376 C3377 1.367 . S
C3377 C3376 1.367 . S
C3377 C3379 1.433 . S
C3378 C3374 1.350 . S
C3378 C3375 1.463 . S
C3378 N3382 1.427 . S
C3379 H3369 0.929 . S
C3379 C3377 1.433 . S
C3379 N3382 1.384 . S
C3380 H3371 0.929 . S
C3380 C3372 1.378 . S
C3380 C3375 1.350 . S
C3381 H3368 0.929 . S
C3381 C3373 1.433 . S
C3381 N3383 1.384 . S
N3382 C3378 1.427 . S
N3382 C3379 1.384 . S
N3383 C3375 1.427 . S
N3383 C3381 1.384 . S
H3384 C3390 0.930 . S
H3385 C3394 0.930 . S
H3386 C3399 0.929 . S
H3387 C3397 0.929 . S
H3388 C3392 0.929 . S
H3389 C3398 0.929 . S
C3390 H3384 0.930 . S
C3390 C3391 1.367 . S
C3390 C3398 1.378 . S
C3391 C3390 1.367 . S
C3391 C3399 1.433 . S
C3392 H3388 0.929 . S
C3392 C3394 1.378 . S
C3392 C3396 1.350 . S
C3393 C3396 1.463 . S
C3393 C3398 1.350 . S
C3393 N3401 1.427 . S
C3394 H3385 0.930 . S
C3394 C3392 1.378 . S
C3394 C3395 1.367 . S
C3395 C3394 1.367 . S
C3395 C3397 1.433 . S
C3396 C3392 1.350 . S
C3396 C3393 1.463 . S
C3396 N3400 1.427 . S
C3397 H3387 0.929 . S
C3397 C3395 1.433 . S
C3397 N3400 1.384 . S
C3398 H3389 0.929 . S
C3398 C3390 1.378 . S
C3398 C3393 1.350 . S
C3399 H3386 0.929 . S
C3399 C3391 1.433 . S
C3399 N3401 1.384 . S
N3400 C3396 1.427 . S
N3400 C3397 1.384 . S
N3401 C3393 1.427 . S
N3401 C3399 1.384 . S
H3402 C3408 0.930 . S
H3403 C3412 0.930 . S
H3404 C3417 0.929 . S
H3405 C3415 0.929 . S
H3406 C3410 0.929 . S
H3407 C3416 0.929 . S
C3408 H3402 0.930 . S
C3408 C3409 1.367 . S
C3408 C3416 1.378 . S
C3409 C3408 1.367 . S
C3409 C3417 1.433 . S
C3410 H3406 0.929 . S
C3410 C3412 1.378 . S
C3410 C3414 1.350 . S
C3411 C3414 1.463 . S
C3411 C3416 1.350 . S
C3411 N3419 1.427 . S
C3412 H3403 0.930 . S
C3412 C3410 1.378 . S
C3412 C3413 1.367 . S
C3413 C3412 1.367 . S
C3413 C3415 1.433 . S
C3414 C3410 1.350 . S
C3414 C3411 1.463 . S
C3414 N3418 1.427 . S
C3415 H3405 0.929 . S
C3415 C3413 1.433 . S
C3415 N3418 1.384 . S
C3416 H3407 0.929 . S
C3416 C3408 1.378 . S
C3416 C3411 1.350 . S
C3417 H3404 0.929 . S
C3417 C3409 1.433 . S
C3417 N3419 1.384 . S
N3418 C3414 1.427 . S
N3418 C3415 1.384 . S
N3419 C3411 1.427 . S
N3419 C3417 1.384 . S
H3420 C3426 0.930 . S
H3421 C3430 0.930 . S
H3422 C3435 0.929 . S
H3423 C3433 0.929 . S
H3424 C3428 0.929 . S
H3425 C3434 0.929 . S
C3426 H3420 0.930 . S
C3426 C3427 1.367 . S
C3426 C3434 1.378 . S
C3427 C3426 1.367 . S
C3427 C3435 1.433 . S
C3428 H3424 0.929 . S
C3428 C3430 1.378 . S
C3428 C3432 1.350 . S
C3429 C3432 1.463 . S
C3429 C3434 1.350 . S
C3429 N3437 1.427 . S
C3430 H3421 0.930 . S
C3430 C3428 1.378 . S
C3430 C3431 1.367 . S
C3431 C3430 1.367 . S
C3431 C3433 1.433 . S
C3432 C3428 1.350 . S
C3432 C3429 1.463 . S
C3432 N3436 1.427 . S
C3433 H3423 0.929 . S
C3433 C3431 1.433 . S
C3433 N3436 1.384 . S
C3434 H3425 0.929 . S
C3434 C3426 1.378 . S
C3434 C3429 1.350 . S
C3435 H3422 0.929 . S
C3435 C3427 1.433 . S
C3435 N3437 1.384 . S
N3436 C3432 1.427 . S
N3436 C3433 1.384 . S
N3437 C3429 1.427 . S
N3437 C3435 1.384 . S
H3438 C3444 0.930 . S
H3439 C3448 0.930 . S
H3440 C3453 0.929 . S
H3441 C3451 0.929 . S
H3442 C3446 0.929 . S
H3443 C3452 0.929 . S
C3444 H3438 0.930 . S
C3444 C3445 1.367 . S
C3444 C3452 1.378 . S
C3445 C3444 1.367 . S
C3445 C3453 1.433 . S
C3446 H3442 0.929 . S
C3446 C3448 1.378 . S
C3446 C3450 1.350 . S
C3447 C3450 1.463 . S
C3447 C3452 1.350 . S
C3447 N3455 1.427 . S
C3448 H3439 0.930 . S
C3448 C3446 1.378 . S
C3448 C3449 1.367 . S
C3449 C3448 1.367 . S
C3449 C3451 1.433 . S
C3450 C3446 1.350 . S
C3450 C3447 1.463 . S
C3450 N3454 1.427 . S
C3451 H3441 0.929 . S
C3451 C3449 1.433 . S
C3451 N3454 1.384 . S
C3452 H3443 0.929 . S
C3452 C3444 1.378 . S
C3452 C3447 1.350 . S
C3453 H3440 0.929 . S
C3453 C3445 1.433 . S
C3453 N3455 1.384 . S
N3454 C3450 1.427 . S
N3454 C3451 1.384 . S
N3455 C3447 1.427 . S
N3455 C3453 1.384 . S
H3456 C3462 0.930 . S
H3457 C3466 0.930 . S
H3458 C3471 0.929 . S
H3459 C3469 0.929 . S
H3460 C3464 0.929 . S
H3461 C3470 0.929 . S
C3462 H3456 0.930 . S
C3462 C3463 1.367 . S
C3462 C3470 1.378 . S
C3463 C3462 1.367 . S
C3463 C3471 1.433 . S
C3464 H3460 0.929 . S
C3464 C3466 1.378 . S
C3464 C3468 1.350 . S
C3465 C3468 1.463 . S
C3465 C3470 1.350 . S
C3465 N3473 1.427 . S
C3466 H3457 0.930 . S
C3466 C3464 1.378 . S
C3466 C3467 1.367 . S
C3467 C3466 1.367 . S
C3467 C3469 1.433 . S
C3468 C3464 1.350 . S
C3468 C3465 1.463 . S
C3468 N3472 1.427 . S
C3469 H3459 0.929 . S
C3469 C3467 1.433 . S
C3469 N3472 1.384 . S
C3470 H3461 0.929 . S
C3470 C3462 1.378 . S
C3470 C3465 1.350 . S
C3471 H3458 0.929 . S
C3471 C3463 1.433 . S
C3471 N3473 1.384 . S
N3472 C3468 1.427 . S
N3472 C3469 1.384 . S
N3473 C3465 1.427 . S
N3473 C3471 1.384 . S
H3474 C3480 0.930 . S
H3475 C3484 0.930 . S
H3476 C3489 0.929 . S
H3477 C3487 0.929 . S
H3478 C3482 0.929 . S
H3479 C3488 0.929 . S
C3480 H3474 0.930 . S
C3480 C3481 1.367 . S
C3480 C3488 1.378 . S
C3481 C3480 1.367 . S
C3481 C3489 1.433 . S
C3482 H3478 0.929 . S
C3482 C3484 1.378 . S
C3482 C3486 1.350 . S
C3483 C3486 1.463 . S
C3483 C3488 1.350 . S
C3483 N3491 1.427 . S
C3484 H3475 0.930 . S
C3484 C3482 1.378 . S
C3484 C3485 1.367 . S
C3485 C3484 1.367 . S
C3485 C3487 1.433 . S
C3486 C3482 1.350 . S
C3486 C3483 1.463 . S
C3486 N3490 1.427 . S
C3487 H3477 0.929 . S
C3487 C3485 1.433 . S
C3487 N3490 1.384 . S
C3488 H3479 0.929 . S
C3488 C3480 1.378 . S
C3488 C3483 1.350 . S
C3489 H3476 0.929 . S
C3489 C3481 1.433 . S
C3489 N3491 1.384 . S
N3490 C3486 1.427 . S
N3490 C3487 1.384 . S
N3491 C3483 1.427 . S
N3491 C3489 1.384 . S
H3492 C3498 0.930 . S
H3493 C3502 0.930 . S
H3494 C3507 0.929 . S
H3495 C3505 0.929 . S
H3496 C3500 0.929 . S
H3497 C3506 0.929 . S
C3498 H3492 0.930 . S
C3498 C3499 1.367 . S
C3498 C3506 1.378 . S
C3499 C3498 1.367 . S
C3499 C3507 1.433 . S
C3500 H3496 0.929 . S
C3500 C3502 1.378 . S
C3500 C3504 1.350 . S
C3501 C3504 1.463 . S
C3501 C3506 1.350 . S
C3501 N3509 1.427 . S
C3502 H3493 0.930 . S
C3502 C3500 1.378 . S
C3502 C3503 1.367 . S
C3503 C3502 1.367 . S
C3503 C3505 1.433 . S
C3504 C3500 1.350 . S
C3504 C3501 1.463 . S
C3504 N3508 1.427 . S
C3505 H3495 0.929 . S
C3505 C3503 1.433 . S
C3505 N3508 1.384 . S
C3506 H3497 0.929 . S
C3506 C3498 1.378 . S
C3506 C3501 1.350 . S
C3507 H3494 0.929 . S
C3507 C3499 1.433 . S
C3507 N3509 1.384 . S
N3508 C3504 1.427 . S
N3508 C3505 1.384 . S
N3509 C3501 1.427 . S
N3509 C3507 1.384 . S
H3510 C3516 0.930 . S
H3511 C3520 0.930 . S
H3512 C3525 0.929 . S
H3513 C3523 0.929 . S
H3514 C3518 0.929 . S
H3515 C3524 0.929 . S
C3516 H3510 0.930 . S
C3516 C3517 1.367 . S
C3516 C3524 1.378 . S
C3517 C3516 1.367 . S
C3517 C3525 1.433 . S
C3518 H3514 0.929 . S
C3518 C3520 1.378 . S
C3518 C3522 1.350 . S
C3519 C3522 1.463 . S
C3519 C3524 1.350 . S
C3519 N3527 1.427 . S
C3520 H3511 0.930 . S
C3520 C3518 1.378 . S
C3520 C3521 1.367 . S
C3521 C3520 1.367 . S
C3521 C3523 1.433 . S
C3522 C3518 1.350 . S
C3522 C3519 1.463 . S
C3522 N3526 1.427 . S
C3523 H3513 0.929 . S
C3523 C3521 1.433 . S
C3523 N3526 1.384 . S
C3524 H3515 0.929 . S
C3524 C3516 1.378 . S
C3524 C3519 1.350 . S
C3525 H3512 0.929 . S
C3525 C3517 1.433 . S
C3525 N3527 1.384 . S
N3526 C3522 1.427 . S
N3526 C3523 1.384 . S
N3527 C3519 1.427 . S
N3527 C3525 1.384 . S
H3528 C3534 0.930 . S
H3529 C3538 0.930 . S
H3530 C3543 0.929 . S
H3531 C3541 0.929 . S
H3532 C3536 0.929 . S
H3533 C3542 0.929 . S
C3534 H3528 0.930 . S
C3534 C3535 1.367 . S
C3534 C3542 1.378 . S
C3535 C3534 1.367 . S
C3535 C3543 1.433 . S
C3536 H3532 0.929 . S
C3536 C3538 1.378 . S
C3536 C3540 1.350 . S
C3537 C3540 1.463 . S
C3537 C3542 1.350 . S
C3537 N3545 1.427 . S
C3538 H3529 0.930 . S
C3538 C3536 1.378 . S
C3538 C3539 1.367 . S
C3539 C3538 1.367 . S
C3539 C3541 1.433 . S
C3540 C3536 1.350 . S
C3540 C3537 1.463 . S
C3540 N3544 1.427 . S
C3541 H3531 0.929 . S
C3541 C3539 1.433 . S
C3541 N3544 1.384 . S
C3542 H3533 0.929 . S
C3542 C3534 1.378 . S
C3542 C3537 1.350 . S
C3543 H3530 0.929 . S
C3543 C3535 1.433 . S
C3543 N3545 1.384 . S
N3544 C3540 1.427 . S
N3544 C3541 1.384 . S
N3545 C3537 1.427 . S
N3545 C3543 1.384 . S
H3546 C3552 0.930 . S
H3547 C3556 0.930 . S
H3548 C3561 0.929 . S
H3549 C3559 0.929 . S
H3550 C3554 0.929 . S
H3551 C3560 0.929 . S
C3552 H3546 0.930 . S
C3552 C3553 1.367 . S
C3552 C3560 1.378 . S
C3553 C3552 1.367 . S
C3553 C3561 1.433 . S
C3554 H3550 0.929 . S
C3554 C3556 1.378 . S
C3554 C3558 1.350 . S
C3555 C3558 1.463 . S
C3555 C3560 1.350 . S
C3555 N3563 1.427 . S
C3556 H3547 0.930 . S
C3556 C3554 1.378 . S
C3556 C3557 1.367 . S
C3557 C3556 1.367 . S
C3557 C3559 1.433 . S
C3558 C3554 1.350 . S
C3558 C3555 1.463 . S
C3558 N3562 1.427 . S
C3559 H3549 0.929 . S
C3559 C3557 1.433 . S
C3559 N3562 1.384 . S
C3560 H3551 0.929 . S
C3560 C3552 1.378 . S
C3560 C3555 1.350 . S
C3561 H3548 0.929 . S
C3561 C3553 1.433 . S
C3561 N3563 1.384 . S
N3562 C3558 1.427 . S
N3562 C3559 1.384 . S
N3563 C3555 1.427 . S
N3563 C3561 1.384 . S
H3564 C3570 0.930 . S
H3565 C3574 0.930 . S
H3566 C3579 0.929 . S
H3567 C3577 0.929 . S
H3568 C3572 0.929 . S
H3569 C3578 0.929 . S
C3570 H3564 0.930 . S
C3570 C3571 1.367 . S
C3570 C3578 1.378 . S
C3571 C3570 1.367 . S
C3571 C3579 1.433 . S
C3572 H3568 0.929 . S
C3572 C3574 1.378 . S
C3572 C3576 1.350 . S
C3573 C3576 1.463 . S
C3573 C3578 1.350 . S
C3573 N3581 1.427 . S
C3574 H3565 0.930 . S
C3574 C3572 1.378 . S
C3574 C3575 1.367 . S
C3575 C3574 1.367 . S
C3575 C3577 1.433 . S
C3576 C3572 1.350 . S
C3576 C3573 1.463 . S
C3576 N3580 1.427 . S
C3577 H3567 0.929 . S
C3577 C3575 1.433 . S
C3577 N3580 1.384 . S
C3578 H3569 0.929 . S
C3578 C3570 1.378 . S
C3578 C3573 1.350 . S
C3579 H3566 0.929 . S
C3579 C3571 1.433 . S
C3579 N3581 1.384 . S
N3580 C3576 1.427 . S
N3580 C3577 1.384 . S
N3581 C3573 1.427 . S
N3581 C3579 1.384 . S
H3582 C3588 0.930 . S
H3583 C3592 0.930 . S
H3584 C3597 0.929 . S
H3585 C3595 0.929 . S
H3586 C3590 0.929 . S
H3587 C3596 0.929 . S
C3588 H3582 0.930 . S
C3588 C3589 1.367 . S
C3588 C3596 1.378 . S
C3589 C3588 1.367 . S
C3589 C3597 1.433 . S
C3590 H3586 0.929 . S
C3590 C3592 1.378 . S
C3590 C3594 1.350 . S
C3591 C3594 1.463 . S
C3591 C3596 1.350 . S
C3591 N3599 1.427 . S
C3592 H3583 0.930 . S
C3592 C3590 1.378 . S
C3592 C3593 1.367 . S
C3593 C3592 1.367 . S
C3593 C3595 1.433 . S
C3594 C3590 1.350 . S
C3594 C3591 1.463 . S
C3594 N3598 1.427 . S
C3595 H3585 0.929 . S
C3595 C3593 1.433 . S
C3595 N3598 1.384 . S
C3596 H3587 0.929 . S
C3596 C3588 1.378 . S
C3596 C3591 1.350 . S
C3597 H3584 0.929 . S
C3597 C3589 1.433 . S
C3597 N3599 1.384 . S
N3598 C3594 1.427 . S
N3598 C3595 1.384 . S
N3599 C3591 1.427 . S
N3599 C3597 1.384 . S
H3600 C3606 0.930 . S
H3601 C3610 0.930 . S
H3602 C3615 0.929 . S
H3603 C3613 0.929 . S
H3604 C3608 0.929 . S
H3605 C3614 0.929 . S
C3606 H3600 0.930 . S
C3606 C3607 1.367 . S
C3606 C3614 1.378 . S
C3607 C3606 1.367 . S
C3607 C3615 1.433 . S
C3608 H3604 0.929 . S
C3608 C3610 1.378 . S
C3608 C3612 1.350 . S
C3609 C3612 1.463 . S
C3609 C3614 1.350 . S
C3609 N3617 1.427 . S
C3610 H3601 0.930 . S
C3610 C3608 1.378 . S
C3610 C3611 1.367 . S
C3611 C3610 1.367 . S
C3611 C3613 1.433 . S
C3612 C3608 1.350 . S
C3612 C3609 1.463 . S
C3612 N3616 1.427 . S
C3613 H3603 0.929 . S
C3613 C3611 1.433 . S
C3613 N3616 1.384 . S
C3614 H3605 0.929 . S
C3614 C3606 1.378 . S
C3614 C3609 1.350 . S
C3615 H3602 0.929 . S
C3615 C3607 1.433 . S
C3615 N3617 1.384 . S
N3616 C3612 1.427 . S
N3616 C3613 1.384 . S
N3617 C3609 1.427 . S
N3617 C3615 1.384 . S
H3618 C3624 0.930 1_554 S
H3619 C3628 0.930 . S
H3620 C3633 0.929 . S
H3621 C3631 0.929 . S
H3622 C3626 0.929 . S
H3623 C3632 0.929 . S
C3624 H3618 0.930 1_556 S
C3624 C3625 1.367 . S
C3624 C3632 1.378 . S
C3625 C3624 1.367 . S
C3625 C3633 1.433 . S
C3626 H3622 0.929 . S
C3626 C3628 1.378 . S
C3626 C3630 1.350 . S
C3627 C3630 1.463 . S
C3627 C3632 1.350 . S
C3627 N3635 1.427 . S
C3628 H3619 0.930 . S
C3628 C3626 1.378 . S
C3628 C3629 1.367 . S
C3629 C3628 1.367 . S
C3629 C3631 1.433 . S
C3630 C3626 1.350 . S
C3630 C3627 1.463 . S
C3630 N3634 1.427 . S
C3631 H3621 0.929 . S
C3631 C3629 1.433 . S
C3631 N3634 1.384 . S
C3632 H3623 0.929 . S
C3632 C3624 1.378 . S
C3632 C3627 1.350 . S
C3633 H3620 0.929 . S
C3633 C3625 1.433 . S
C3633 N3635 1.384 . S
N3634 C3630 1.427 . S
N3634 C3631 1.384 . S
N3635 C3627 1.427 . S
N3635 C3633 1.384 . S
H3636 C3642 0.930 . S
H3637 C3646 0.930 . S
H3638 C3651 0.929 . S
H3639 C3649 0.929 . S
H3640 C3644 0.929 . S
H3641 C3650 0.929 . S
C3642 H3636 0.930 . S
C3642 C3643 1.367 . S
C3642 C3650 1.378 . S
C3643 C3642 1.367 . S
C3643 C3651 1.433 . S
C3644 H3640 0.929 . S
C3644 C3646 1.378 . S
C3644 C3648 1.350 . S
C3645 C3648 1.463 . S
C3645 C3650 1.350 . S
C3645 N3653 1.427 . S
C3646 H3637 0.930 . S
C3646 C3644 1.378 . S
C3646 C3647 1.367 . S
C3647 C3646 1.367 . S
C3647 C3649 1.433 . S
C3648 C3644 1.350 . S
C3648 C3645 1.463 . S
C3648 N3652 1.427 . S
C3649 H3639 0.929 . S
C3649 C3647 1.433 . S
C3649 N3652 1.384 . S
C3650 H3641 0.929 . S
C3650 C3642 1.378 . S
C3650 C3645 1.350 . S
C3651 H3638 0.929 . S
C3651 C3643 1.433 . S
C3651 N3653 1.384 . S
N3652 C3648 1.427 . S
N3652 C3649 1.384 . S
N3653 C3645 1.427 . S
N3653 C3651 1.384 . S
H3654 C3660 0.930 . S
H3655 C3664 0.905 1_554 S
H3656 C3669 0.929 . S
H3657 C3667 0.929 . S
H3658 C3662 0.929 . S
H3659 C3668 0.929 . S
C3660 H3654 0.930 . S
C3660 C3661 1.367 . S
C3660 C3668 1.378 1_554 S
C3661 C3660 1.367 . S
C3661 C3669 1.433 . S
C3662 H3658 0.929 . S
C3662 C3664 1.343 1_554 S
C3662 C3666 1.350 1_554 S
C3663 C3666 1.463 1_554 S
C3663 C3668 1.350 1_554 S
C3663 N3671 1.427 . S
C3664 H3655 0.905 1_556 S
C3664 C3662 1.343 1_556 S
C3664 C3665 1.430 . S
C3665 C3664 1.430 . S
C3665 C3667 1.433 . S
C3666 C3662 1.350 1_556 S
C3666 C3663 1.463 1_556 S
C3666 N3670 1.427 . S
C3667 H3657 0.929 . S
C3667 C3665 1.433 . S
C3667 N3670 1.384 . S
C3668 H3659 0.929 . S
C3668 C3660 1.378 1_556 S
C3668 C3663 1.350 1_556 S
C3669 H3656 0.929 . S
C3669 C3661 1.433 . S
C3669 N3671 1.384 . S
N3670 C3666 1.427 . S
N3670 C3667 1.384 . S
N3671 C3663 1.427 . S
N3671 C3669 1.384 . S
H3672 C3678 0.930 . S
H3673 C3682 0.930 . S
H3674 C3687 0.929 . S
H3675 C3685 0.929 . S
H3676 C3680 0.929 . S
H3677 C3686 0.926 1_554 S
C3678 H3672 0.930 . S
C3678 C3679 1.367 . S
C3678 C3686 1.378 1_554 S
C3679 C3678 1.367 . S
C3679 C3687 1.433 1_554 S
C3680 H3676 0.929 . S
C3680 C3682 1.378 . S
C3680 C3684 1.350 . S
C3681 C3684 1.463 . S
C3681 C3686 1.350 . S
C3681 N3689 1.427 . S
C3682 H3673 0.930 . S
C3682 C3680 1.378 . S
C3682 C3683 1.367 . S
C3683 C3682 1.367 . S
C3683 C3685 1.433 . S
C3684 C3680 1.350 . S
C3684 C3681 1.463 . S
C3684 N3688 1.427 . S
C3685 H3675 0.929 . S
C3685 C3683 1.433 . S
C3685 N3688 1.384 . S
C3686 H3677 0.926 1_556 S
C3686 C3678 1.378 1_556 S
C3686 C3681 1.350 . S
C3687 H3674 0.929 . S
C3687 C3679 1.433 1_556 S
C3687 N3689 1.384 . S
N3688 C3684 1.427 . S
N3688 C3685 1.384 . S
N3689 C3681 1.427 . S
N3689 C3687 1.384 . S
H3690 C3696 0.930 . S
H3691 C3700 0.930 . S
H3692 C3705 0.929 . S
H3693 C3703 0.929 . S
H3694 C3698 0.929 . S
H3695 C3704 0.929 . S
C3696 H3690 0.930 . S
C3696 C3697 1.367 . S
C3696 C3704 1.378 . S
C3697 C3696 1.367 . S
C3697 C3705 1.433 . S
C3698 H3694 0.929 . S
C3698 C3700 1.378 . S
C3698 C3702 1.350 . S
C3699 C3702 1.463 . S
C3699 C3704 1.350 . S
C3699 N3707 1.427 . S
C3700 H3691 0.930 . S
C3700 C3698 1.378 . S
C3700 C3701 1.367 . S
C3701 C3700 1.367 . S
C3701 C3703 1.433 . S
C3702 C3698 1.350 . S
C3702 C3699 1.463 . S
C3702 N3706 1.427 . S
C3703 H3693 0.929 . S
C3703 C3701 1.433 . S
C3703 N3706 1.384 . S
C3704 H3695 0.929 . S
C3704 C3696 1.378 . S
C3704 C3699 1.350 . S
C3705 H3692 0.929 . S
C3705 C3697 1.433 . S
C3705 N3707 1.384 . S
N3706 C3702 1.427 . S
N3706 C3703 1.384 . S
N3707 C3699 1.427 . S
N3707 C3705 1.384 . S
H3708 C3714 0.930 . S
H3709 C3718 0.930 . S
H3710 C3723 0.929 1_556 S
H3711 C3721 0.929 . S
H3712 C3716 0.929 . S
H3713 C3722 0.929 . S
C3714 H3708 0.930 . S
C3714 C3715 1.367 . S
C3714 C3722 1.378 . S
C3715 C3714 1.367 . S
C3715 C3723 1.433 . S
C3716 H3712 0.929 . S
C3716 C3718 1.378 . S
C3716 C3720 1.350 . S
C3717 C3720 1.463 . S
C3717 C3722 1.350 1_556 S
C3717 N3725 1.427 . S
C3718 H3709 0.930 . S
C3718 C3716 1.378 . S
C3718 C3719 1.367 . S
C3719 C3718 1.367 . S
C3719 C3721 1.433 . S
C3720 C3716 1.350 . S
C3720 C3717 1.463 . S
C3720 N3724 1.427 . S
C3721 H3711 0.929 . S
C3721 C3719 1.433 . S
C3721 N3724 1.384 . S
C3722 H3713 0.929 . S
C3722 C3714 1.378 . S
C3722 C3717 1.350 1_554 S
C3723 H3710 0.929 1_554 S
C3723 C3715 1.433 . S
C3723 N3725 1.384 1_554 S
N3724 C3720 1.427 . S
N3724 C3721 1.384 . S
N3725 C3717 1.427 . S
N3725 C3723 1.384 1_556 S
H3726 C3732 0.930 . S
H3727 C3736 0.930 . S
H3728 C3741 0.929 . S
H3729 C3739 0.929 . S
H3730 C3734 0.929 . S
H3731 C3740 0.929 . S
C3732 H3726 0.930 . S
C3732 C3733 1.367 . S
C3732 C3740 1.378 . S
C3733 C3732 1.367 . S
C3733 C3741 1.433 . S
C3734 H3730 0.929 . S
C3734 C3736 1.378 . S
C3734 C3738 1.350 . S
C3735 C3738 1.463 . S
C3735 C3740 1.350 . S
C3735 N3743 1.427 . S
C3736 H3727 0.930 . S
C3736 C3734 1.378 . S
C3736 C3737 1.367 . S
C3737 C3736 1.367 . S
C3737 C3739 1.433 . S
C3738 C3734 1.350 . S
C3738 C3735 1.463 . S
C3738 N3742 1.427 . S
C3739 H3729 0.929 . S
C3739 C3737 1.433 . S
C3739 N3742 1.384 . S
C3740 H3731 0.929 . S
C3740 C3732 1.378 . S
C3740 C3735 1.350 . S
C3741 H3728 0.929 . S
C3741 C3733 1.433 . S
C3741 N3743 1.384 . S
N3742 C3738 1.427 . S
N3742 C3739 1.384 . S
N3743 C3735 1.427 . S
N3743 C3741 1.384 . S
H3744 C3750 0.930 . S
H3745 C3754 0.930 . S
H3746 C3759 0.929 . S
H3747 C3757 0.929 . S
H3748 C3752 0.929 . S
H3749 C3758 0.929 . S
C3750 H3744 0.930 . S
C3750 C3751 1.367 . S
C3750 C3758 1.378 . S
C3751 C3750 1.367 . S
C3751 C3759 1.433 . S
C3752 H3748 0.929 . S
C3752 C3754 1.378 . S
C3752 C3756 1.350 . S
C3753 C3756 1.463 . S
C3753 C3758 1.350 . S
C3753 N3761 1.427 . S
C3754 H3745 0.930 . S
C3754 C3752 1.378 . S
C3754 C3755 1.367 . S
C3755 C3754 1.367 . S
C3755 C3757 1.433 . S
C3756 C3752 1.350 . S
C3756 C3753 1.463 . S
C3756 N3760 1.427 . S
C3757 H3747 0.929 . S
C3757 C3755 1.433 . S
C3757 N3760 1.384 . S
C3758 H3749 0.929 . S
C3758 C3750 1.378 . S
C3758 C3753 1.350 . S
C3759 H3746 0.929 . S
C3759 C3751 1.433 . S
C3759 N3761 1.384 . S
N3760 C3756 1.427 . S
N3760 C3757 1.384 . S
N3761 C3753 1.427 . S
N3761 C3759 1.384 . S
H3762 C3768 0.930 . S
H3763 C3772 0.930 . S
H3764 C3777 0.929 . S
H3765 C3775 0.929 . S
H3766 C3770 0.929 . S
H3767 C3776 0.929 . S
C3768 H3762 0.930 . S
C3768 C3769 1.367 . S
C3768 C3776 1.378 . S
C3769 C3768 1.367 . S
C3769 C3777 1.433 . S
C3770 H3766 0.929 . S
C3770 C3772 1.378 . S
C3770 C3774 1.350 . S
C3771 C3774 1.463 . S
C3771 C3776 1.350 . S
C3771 N3779 1.427 . S
C3772 H3763 0.930 . S
C3772 C3770 1.378 . S
C3772 C3773 1.367 . S
C3773 C3772 1.367 . S
C3773 C3775 1.433 . S
C3774 C3770 1.350 . S
C3774 C3771 1.463 . S
C3774 N3778 1.427 . S
C3775 H3765 0.929 . S
C3775 C3773 1.433 . S
C3775 N3778 1.384 . S
C3776 H3767 0.929 . S
C3776 C3768 1.378 . S
C3776 C3771 1.350 . S
C3777 H3764 0.929 . S
C3777 C3769 1.433 . S
C3777 N3779 1.384 . S
N3778 C3774 1.427 . S
N3778 C3775 1.384 . S
N3779 C3771 1.427 . S
N3779 C3777 1.384 . S
H3780 C3786 0.930 . S
H3781 C3790 0.930 . S
H3782 C3795 0.929 . S
H3783 C3793 0.929 . S
H3784 C3788 0.929 . S
H3785 C3794 0.929 . S
C3786 H3780 0.930 . S
C3786 C3787 1.367 . S
C3786 C3794 1.378 . S
C3787 C3786 1.367 . S
C3787 C3795 1.433 . S
C3788 H3784 0.929 . S
C3788 C3790 1.378 . S
C3788 C3792 1.350 . S
C3789 C3792 1.463 . S
C3789 C3794 1.350 . S
C3789 N3797 1.427 . S
C3790 H3781 0.930 . S
C3790 C3788 1.378 . S
C3790 C3791 1.367 . S
C3791 C3790 1.367 . S
C3791 C3793 1.433 . S
C3792 C3788 1.350 . S
C3792 C3789 1.463 . S
C3792 N3796 1.427 . S
C3793 H3783 0.929 . S
C3793 C3791 1.433 . S
C3793 N3796 1.384 . S
C3794 H3785 0.929 . S
C3794 C3786 1.378 . S
C3794 C3789 1.350 . S
C3795 H3782 0.929 . S
C3795 C3787 1.433 . S
C3795 N3797 1.384 . S
N3796 C3792 1.427 . S
N3796 C3793 1.384 . S
N3797 C3789 1.427 . S
N3797 C3795 1.384 . S
H3798 C3804 0.930 . S
H3799 C3808 0.930 . S
H3800 C3813 0.929 . S
H3801 C3811 0.929 . S
H3802 C3806 0.929 . S
H3803 C3812 0.929 . S
C3804 H3798 0.930 . S
C3804 C3805 1.367 . S
C3804 C3812 1.378 . S
C3805 C3804 1.367 . S
C3805 C3813 1.433 . S
C3806 H3802 0.929 . S
C3806 C3808 1.378 . S
C3806 C3810 1.350 . S
C3807 C3810 1.463 . S
C3807 C3812 1.350 . S
C3807 N3815 1.427 . S
C3808 H3799 0.930 . S
C3808 C3806 1.378 . S
C3808 C3809 1.367 . S
C3809 C3808 1.367 . S
C3809 C3811 1.433 . S
C3810 C3806 1.350 . S
C3810 C3807 1.463 . S
C3810 N3814 1.427 . S
C3811 H3801 0.929 . S
C3811 C3809 1.433 . S
C3811 N3814 1.384 . S
C3812 H3803 0.929 . S
C3812 C3804 1.378 . S
C3812 C3807 1.350 . S
C3813 H3800 0.929 . S
C3813 C3805 1.433 . S
C3813 N3815 1.384 . S
N3814 C3810 1.427 . S
N3814 C3811 1.384 . S
N3815 C3807 1.427 . S
N3815 C3813 1.384 . S
H3816 C3822 0.930 . S
H3817 C3826 0.930 . S
H3818 C3831 0.929 . S
H3819 C3829 0.929 . S
H3820 C3824 0.929 . S
H3821 C3830 0.929 . S
C3822 H3816 0.930 . S
C3822 C3823 1.367 . S
C3822 C3830 1.378 . S
C3823 C3822 1.367 . S
C3823 C3831 1.433 . S
C3824 H3820 0.929 . S
C3824 C3826 1.378 . S
C3824 C3828 1.350 . S
C3825 C3828 1.463 . S
C3825 C3830 1.350 . S
C3825 N3833 1.427 . S
C3826 H3817 0.930 . S
C3826 C3824 1.378 . S
C3826 C3827 1.367 . S
C3827 C3826 1.367 . S
C3827 C3829 1.433 . S
C3828 C3824 1.350 . S
C3828 C3825 1.463 . S
C3828 N3832 1.427 . S
C3829 H3819 0.929 . S
C3829 C3827 1.433 . S
C3829 N3832 1.384 . S
C3830 H3821 0.929 . S
C3830 C3822 1.378 . S
C3830 C3825 1.350 . S
C3831 H3818 0.929 . S
C3831 C3823 1.433 . S
C3831 N3833 1.384 . S
N3832 C3828 1.427 . S
N3832 C3829 1.384 . S
N3833 C3825 1.427 . S
N3833 C3831 1.384 . S
H3834 C3840 0.930 . S
H3835 C3844 0.930 . S
H3836 C3849 0.929 . S
H3837 C3847 0.929 . S
H3838 C3842 0.929 . S
H3839 C3848 0.929 . S
C3840 H3834 0.930 . S
C3840 C3841 1.367 . S
C3840 C3848 1.378 . S
C3841 C3840 1.367 . S
C3841 C3849 1.433 . S
C3842 H3838 0.929 . S
C3842 C3844 1.378 . S
C3842 C3846 1.350 . S
C3843 C3846 1.463 . S
C3843 C3848 1.350 . S
C3843 N3851 1.427 . S
C3844 H3835 0.930 . S
C3844 C3842 1.378 . S
C3844 C3845 1.367 . S
C3845 C3844 1.367 . S
C3845 C3847 1.433 . S
C3846 C3842 1.350 . S
C3846 C3843 1.463 . S
C3846 N3850 1.427 . S
C3847 H3837 0.929 . S
C3847 C3845 1.433 . S
C3847 N3850 1.384 . S
C3848 H3839 0.929 . S
C3848 C3840 1.378 . S
C3848 C3843 1.350 . S
C3849 H3836 0.929 . S
C3849 C3841 1.433 . S
C3849 N3851 1.384 . S
N3850 C3846 1.427 . S
N3850 C3847 1.384 . S
N3851 C3843 1.427 . S
N3851 C3849 1.384 . S
H3852 C3858 0.930 . S
H3853 C3862 0.930 . S
H3854 C3867 0.929 . S
H3855 C3865 0.929 . S
H3856 C3860 0.929 . S
H3857 C3866 0.929 . S
C3858 H3852 0.930 . S
C3858 C3859 1.367 . S
C3858 C3866 1.378 . S
C3859 C3858 1.367 . S
C3859 C3867 1.433 . S
C3860 H3856 0.929 . S
C3860 C3862 1.378 . S
C3860 C3864 1.350 . S
C3861 C3864 1.463 . S
C3861 C3866 1.350 . S
C3861 N3869 1.427 . S
C3862 H3853 0.930 . S
C3862 C3860 1.378 . S
C3862 C3863 1.367 . S
C3863 C3862 1.367 . S
C3863 C3865 1.433 . S
C3864 C3860 1.350 . S
C3864 C3861 1.463 . S
C3864 N3868 1.427 . S
C3865 H3855 0.929 . S
C3865 C3863 1.433 . S
C3865 N3868 1.384 . S
C3866 H3857 0.929 . S
C3866 C3858 1.378 . S
C3866 C3861 1.350 . S
C3867 H3854 0.929 . S
C3867 C3859 1.433 . S
C3867 N3869 1.384 . S
N3868 C3864 1.427 . S
N3868 C3865 1.384 . S
N3869 C3861 1.427 . S
N3869 C3867 1.384 . S
H3870 C3876 0.930 . S
H3871 C3880 0.930 . S
H3872 C3885 0.929 . S
H3873 C3883 0.929 . S
H3874 C3878 0.929 . S
H3875 C3884 0.929 . S
C3876 H3870 0.930 . S
C3876 C3877 1.367 . S
C3876 C3884 1.378 . S
C3877 C3876 1.367 . S
C3877 C3885 1.433 . S
C3878 H3874 0.929 . S
C3878 C3880 1.378 . S
C3878 C3882 1.350 . S
C3879 C3882 1.463 . S
C3879 C3884 1.350 . S
C3879 N3887 1.427 . S
C3880 H3871 0.930 . S
C3880 C3878 1.378 . S
C3880 C3881 1.367 . S
C3881 C3880 1.367 . S
C3881 C3883 1.433 . S
C3882 C3878 1.350 . S
C3882 C3879 1.463 . S
C3882 N3886 1.427 . S
C3883 H3873 0.929 . S
C3883 C3881 1.433 . S
C3883 N3886 1.384 . S
C3884 H3875 0.929 . S
C3884 C3876 1.378 . S
C3884 C3879 1.350 . S
C3885 H3872 0.929 . S
C3885 C3877 1.433 . S
C3885 N3887 1.384 . S
N3886 C3882 1.427 . S
N3886 C3883 1.384 . S
N3887 C3879 1.427 . S
N3887 C3885 1.384 . S
H3888 C3894 0.930 . S
H3889 C3898 0.930 . S
H3890 C3903 0.929 . S
H3891 C3901 0.929 . S
H3892 C3896 0.929 . S
H3893 C3902 0.929 1_545 S
C3894 H3888 0.930 . S
C3894 C3895 1.367 . S
C3894 C3902 1.378 . S
C3895 C3894 1.367 . S
C3895 C3903 1.433 . S
C3896 H3892 0.929 . S
C3896 C3898 1.378 . S
C3896 C3900 1.350 . S
C3897 C3900 1.463 . S
C3897 C3902 1.350 . S
C3897 N3905 1.427 . S
C3898 H3889 0.930 . S
C3898 C3896 1.378 . S
C3898 C3899 1.367 . S
C3899 C3898 1.367 . S
C3899 C3901 1.433 1_565 S
C3900 C3896 1.350 . S
C3900 C3897 1.463 . S
C3900 N3904 1.427 1_565 S
C3901 H3891 0.929 . S
C3901 C3899 1.433 1_545 S
C3901 N3904 1.384 . S
C3902 H3893 0.929 1_565 S
C3902 C3894 1.378 . S
C3902 C3897 1.350 . S
C3903 H3890 0.929 . S
C3903 C3895 1.433 . S
C3903 N3905 1.384 . S
N3904 C3900 1.427 1_545 S
N3904 C3901 1.384 . S
N3905 C3897 1.427 . S
N3905 C3903 1.384 . S
H3906 C3912 0.930 . S
H3907 C3916 0.930 . S
H3908 C3921 0.929 . S
H3909 C3919 0.929 . S
H3910 C3914 0.929 . S
H3911 C3920 0.929 1_655 S
C3912 H3906 0.930 . S
C3912 C3913 1.367 . S
C3912 C3920 1.378 . S
C3913 C3912 1.367 . S
C3913 C3921 1.433 . S
C3914 H3910 0.929 . S
C3914 C3916 1.378 . S
C3914 C3918 1.350 . S
C3915 C3918 1.463 . S
C3915 C3920 1.350 . S
C3915 N3923 1.427 . S
C3916 H3907 0.930 . S
C3916 C3914 1.378 . S
C3916 C3917 1.354 1_455 S
C3917 C3916 1.354 1_655 S
C3917 C3919 1.447 . S
C3918 C3914 1.350 . S
C3918 C3915 1.463 . S
C3918 N3922 1.427 1_455 S
C3919 H3909 0.929 . S
C3919 C3917 1.447 . S
C3919 N3922 1.384 . S
C3920 H3911 0.929 1_455 S
C3920 C3912 1.378 . S
C3920 C3915 1.350 . S
C3921 H3908 0.929 . S
C3921 C3913 1.433 . S
C3921 N3923 1.384 . S
N3922 C3918 1.427 1_655 S
N3922 C3919 1.384 . S
N3923 C3915 1.427 . S
N3923 C3921 1.384 . S
H3924 C3930 0.930 . S
H3925 C3934 0.930 . S
H3926 C3939 0.929 . S
H3927 C3937 0.929 . S
H3928 C3932 0.929 . S
H3929 C3938 0.929 . S
C3930 H3924 0.930 . S
C3930 C3931 1.367 . S
C3930 C3938 1.378 . S
C3931 C3930 1.367 . S
C3931 C3939 1.433 . S
C3932 H3928 0.929 . S
C3932 C3934 1.378 . S
C3932 C3936 1.350 . S
C3933 C3936 1.463 . S
C3933 C3938 1.350 . S
C3933 N3941 1.427 . S
C3934 H3925 0.930 . S
C3934 C3932 1.378 . S
C3934 C3935 1.367 . S
C3935 C3934 1.367 . S
C3935 C3937 1.433 . S
C3936 C3932 1.350 . S
C3936 C3933 1.463 . S
C3936 N3940 1.427 . S
C3937 H3927 0.929 . S
C3937 C3935 1.433 . S
C3937 N3940 1.384 . S
C3938 H3929 0.929 . S
C3938 C3930 1.378 . S
C3938 C3933 1.350 . S
C3939 H3926 0.929 . S
C3939 C3931 1.433 . S
C3939 N3941 1.384 . S
N3940 C3936 1.427 . S
N3940 C3937 1.384 . S
N3941 C3933 1.427 . S
N3941 C3939 1.384 . S
H3942 C3948 0.930 . S
H3943 C3952 0.930 . S
H3944 C3957 0.929 . S
H3945 C3955 0.929 . S
H3946 C3950 0.929 . S
H3947 C3956 0.929 . S
C3948 H3942 0.930 . S
C3948 C3949 1.367 . S
C3948 C3956 1.378 . S
C3949 C3948 1.367 . S
C3949 C3957 1.433 . S
C3950 H3946 0.929 . S
C3950 C3952 1.378 . S
C3950 C3954 1.350 . S
C3951 C3954 1.463 . S
C3951 C3956 1.350 . S
C3951 N3959 1.427 . S
C3952 H3943 0.930 . S
C3952 C3950 1.378 . S
C3952 C3953 1.367 . S
C3953 C3952 1.367 . S
C3953 C3955 1.433 . S
C3954 C3950 1.350 . S
C3954 C3951 1.463 . S
C3954 N3958 1.427 . S
C3955 H3945 0.929 . S
C3955 C3953 1.433 . S
C3955 N3958 1.384 . S
C3956 H3947 0.929 . S
C3956 C3948 1.378 . S
C3956 C3951 1.350 . S
C3957 H3944 0.929 . S
C3957 C3949 1.433 . S
C3957 N3959 1.384 . S
N3958 C3954 1.427 . S
N3958 C3955 1.384 . S
N3959 C3951 1.427 . S
N3959 C3957 1.384 . S
H3960 C3966 0.930 . S
H3961 C3970 0.930 . S
H3962 C3975 0.929 . S
H3963 C3973 0.929 . S
H3964 C3968 0.929 . S
H3965 C3974 0.929 . S
C3966 H3960 0.930 . S
C3966 C3967 1.367 . S
C3966 C3974 1.378 . S
C3967 C3966 1.367 . S
C3967 C3975 1.433 . S
C3968 H3964 0.929 . S
C3968 C3970 1.378 . S
C3968 C3972 1.350 . S
C3969 C3972 1.463 . S
C3969 C3974 1.350 . S
C3969 N3977 1.427 . S
C3970 H3961 0.930 . S
C3970 C3968 1.378 . S
C3970 C3971 1.367 . S
C3971 C3970 1.367 . S
C3971 C3973 1.433 . S
C3972 C3968 1.350 . S
C3972 C3969 1.463 . S
C3972 N3976 1.427 . S
C3973 H3963 0.929 . S
C3973 C3971 1.433 . S
C3973 N3976 1.384 . S
C3974 H3965 0.929 . S
C3974 C3966 1.378 . S
C3974 C3969 1.350 . S
C3975 H3962 0.929 . S
C3975 C3967 1.433 . S
C3975 N3977 1.384 . S
N3976 C3972 1.427 . S
N3976 C3973 1.384 . S
N3977 C3969 1.427 . S
N3977 C3975 1.384 . S
H3978 C3984 0.930 . S
H3979 C3988 0.930 . S
H3980 C3993 0.929 . S
H3981 C3991 0.929 . S
H3982 C3986 0.929 . S
H3983 C3992 0.929 . S
C3984 H3978 0.930 . S
C3984 C3985 1.367 . S
C3984 C3992 1.378 . S
C3985 C3984 1.367 . S
C3985 C3993 1.433 . S
C3986 H3982 0.929 . S
C3986 C3988 1.378 . S
C3986 C3990 1.350 . S
C3987 C3990 1.463 . S
C3987 C3992 1.350 . S
C3987 N3995 1.427 . S
C3988 H3979 0.930 . S
C3988 C3986 1.378 . S
C3988 C3989 1.367 . S
C3989 C3988 1.367 . S
C3989 C3991 1.433 . S
C3990 C3986 1.350 . S
C3990 C3987 1.463 . S
C3990 N3994 1.427 . S
C3991 H3981 0.929 . S
C3991 C3989 1.433 . S
C3991 N3994 1.384 . S
C3992 H3983 0.929 . S
C3992 C3984 1.378 . S
C3992 C3987 1.350 . S
C3993 H3980 0.929 . S
C3993 C3985 1.433 . S
C3993 N3995 1.384 . S
N3994 C3990 1.427 . S
N3994 C3991 1.384 . S
N3995 C3987 1.427 . S
N3995 C3993 1.384 . S
H3996 C4002 0.930 . S
H3997 C4006 0.930 . S
H3998 C4011 0.929 . S
H3999 C4009 0.898 1_565 S
H4000 C4004 0.929 . S
H4001 C4010 0.929 . S
C4002 H3996 0.930 . S
C4002 C4003 1.367 . S
C4002 C4010 1.378 . S
C4003 C4002 1.367 . S
C4003 C4011 1.433 . S
C4004 H4000 0.929 . S
C4004 C4006 1.378 . S
C4004 C4008 1.350 . S
C4005 C4008 1.463 . S
C4005 C4010 1.350 . S
C4005 N4013 1.427 . S
C4006 H3997 0.930 . S
C4006 C4004 1.378 . S
C4006 C4007 1.367 . S
C4007 C4006 1.367 . S
C4007 C4009 1.443 . S
C4008 C4004 1.350 . S
C4008 C4005 1.463 . S
C4008 N4012 1.427 . S
C4009 H3999 0.898 1_545 S
C4009 C4007 1.443 . S
C4009 N4012 1.408 . S
C4010 H4001 0.929 . S
C4010 C4002 1.378 . S
C4010 C4005 1.350 . S
C4011 H3998 0.929 . S
C4011 C4003 1.433 . S
C4011 N4013 1.384 . S
N4012 C4008 1.427 . S
N4012 C4009 1.408 . S
N4013 C4005 1.427 . S
N4013 C4011 1.384 . S
H4014 C4020 0.930 . S
H4015 C4024 0.930 . S
H4016 C4029 0.929 . S
H4017 C4027 0.953 . S
H4018 C4022 0.929 . S
H4019 C4028 0.929 . S
C4020 H4014 0.930 . S
C4020 C4021 1.367 . S
C4020 C4028 1.378 . S
C4021 C4020 1.367 . S
C4021 C4029 1.433 . S
C4022 H4018 0.929 . S
C4022 C4024 1.378 . S
C4022 C4026 1.350 . S
C4023 C4026 1.463 . S
C4023 C4028 1.350 . S
C4023 N4031 1.427 . S
C4024 H4015 0.930 . S
C4024 C4022 1.378 . S
C4024 C4025 1.367 . S
C4025 C4024 1.367 . S
C4025 C4027 1.400 1_655 S
C4026 C4022 1.350 . S
C4026 C4023 1.463 . S
C4026 N4030 1.427 . S
C4027 H4017 0.953 . S
C4027 C4025 1.400 1_455 S
C4027 N4030 1.394 1_455 S
C4028 H4019 0.929 . S
C4028 C4020 1.378 . S
C4028 C4023 1.350 . S
C4029 H4016 0.929 . S
C4029 C4021 1.433 . S
C4029 N4031 1.384 . S
N4030 C4026 1.427 . S
N4030 C4027 1.394 1_655 S
N4031 C4023 1.427 . S
N4031 C4029 1.384 . S
H4032 C4038 0.930 . S
H4033 C4042 0.930 . S
H4034 C4047 0.929 . S
H4035 C4045 0.929 . S
H4036 C4040 0.929 . S
H4037 C4046 0.929 . S
C4038 H4032 0.930 . S
C4038 C4039 1.367 . S
C4038 C4046 1.378 . S
C4039 C4038 1.367 . S
C4039 C4047 1.433 . S
C4040 H4036 0.929 . S
C4040 C4042 1.378 . S
C4040 C4044 1.350 . S
C4041 C4044 1.463 . S
C4041 C4046 1.350 . S
C4041 N4049 1.427 . S
C4042 H4033 0.930 . S
C4042 C4040 1.378 . S
C4042 C4043 1.367 . S
C4043 C4042 1.367 . S
C4043 C4045 1.433 . S
C4044 C4040 1.350 . S
C4044 C4041 1.463 . S
C4044 N4048 1.427 . S
C4045 H4035 0.929 . S
C4045 C4043 1.433 . S
C4045 N4048 1.384 . S
C4046 H4037 0.929 . S
C4046 C4038 1.378 . S
C4046 C4041 1.350 . S
C4047 H4034 0.929 . S
C4047 C4039 1.433 . S
C4047 N4049 1.384 . S
N4048 C4044 1.427 . S
N4048 C4045 1.384 . S
N4049 C4041 1.427 . S
N4049 C4047 1.384 . S
H4050 C4056 0.930 . S
H4051 C4060 0.930 . S
H4052 C4065 0.929 . S
H4053 C4063 0.929 . S
H4054 C4058 0.929 . S
H4055 C4064 0.929 . S
C4056 H4050 0.930 . S
C4056 C4057 1.367 . S
C4056 C4064 1.378 . S
C4057 C4056 1.367 . S
C4057 C4065 1.433 . S
C4058 H4054 0.929 . S
C4058 C4060 1.378 . S
C4058 C4062 1.350 . S
C4059 C4062 1.463 . S
C4059 C4064 1.350 . S
C4059 N4067 1.427 . S
C4060 H4051 0.930 . S
C4060 C4058 1.378 . S
C4060 C4061 1.367 . S
C4061 C4060 1.367 . S
C4061 C4063 1.433 . S
C4062 C4058 1.350 . S
C4062 C4059 1.463 . S
C4062 N4066 1.427 . S
C4063 H4053 0.929 . S
C4063 C4061 1.433 . S
C4063 N4066 1.384 . S
C4064 H4055 0.929 . S
C4064 C4056 1.378 . S
C4064 C4059 1.350 . S
C4065 H4052 0.929 . S
C4065 C4057 1.433 . S
C4065 N4067 1.384 . S
N4066 C4062 1.427 . S
N4066 C4063 1.384 . S
N4067 C4059 1.427 . S
N4067 C4065 1.384 . S
H4068 C4074 0.930 . S
H4069 C4078 0.930 . S
H4070 C4083 0.929 . S
H4071 C4081 0.929 . S
H4072 C4076 0.929 . S
H4073 C4082 0.929 . S
C4074 H4068 0.930 . S
C4074 C4075 1.367 . S
C4074 C4082 1.378 . S
C4075 C4074 1.367 . S
C4075 C4083 1.433 . S
C4076 H4072 0.929 . S
C4076 C4078 1.378 . S
C4076 C4080 1.350 . S
C4077 C4080 1.463 . S
C4077 C4082 1.350 . S
C4077 N4085 1.427 . S
C4078 H4069 0.930 . S
C4078 C4076 1.378 . S
C4078 C4079 1.367 . S
C4079 C4078 1.367 . S
C4079 C4081 1.433 . S
C4080 C4076 1.350 . S
C4080 C4077 1.463 . S
C4080 N4084 1.427 . S
C4081 H4071 0.929 . S
C4081 C4079 1.433 . S
C4081 N4084 1.384 . S
C4082 H4073 0.929 . S
C4082 C4074 1.378 . S
C4082 C4077 1.350 . S
C4083 H4070 0.929 . S
C4083 C4075 1.433 . S
C4083 N4085 1.384 . S
N4084 C4080 1.427 . S
N4084 C4081 1.384 . S
N4085 C4077 1.427 . S
N4085 C4083 1.384 . S
H4086 C4092 0.930 . S
H4087 C4096 0.930 . S
H4088 C4101 0.929 . S
H4089 C4099 0.929 . S
H4090 C4094 0.929 . S
H4091 C4100 0.929 . S
C4092 H4086 0.930 . S
C4092 C4093 1.367 . S
C4092 C4100 1.378 . S
C4093 C4092 1.367 . S
C4093 C4101 1.433 . S
C4094 H4090 0.929 . S
C4094 C4096 1.378 . S
C4094 C4098 1.350 . S
C4095 C4098 1.463 . S
C4095 C4100 1.350 . S
C4095 N4103 1.427 . S
C4096 H4087 0.930 . S
C4096 C4094 1.378 . S
C4096 C4097 1.367 . S
C4097 C4096 1.367 . S
C4097 C4099 1.433 . S
C4098 C4094 1.350 . S
C4098 C4095 1.463 . S
C4098 N4102 1.427 . S
C4099 H4089 0.929 . S
C4099 C4097 1.433 . S
C4099 N4102 1.384 . S
C4100 H4091 0.929 . S
C4100 C4092 1.378 . S
C4100 C4095 1.350 . S
C4101 H4088 0.929 . S
C4101 C4093 1.433 . S
C4101 N4103 1.384 . S
N4102 C4098 1.427 . S
N4102 C4099 1.384 . S
N4103 C4095 1.427 . S
N4103 C4101 1.384 . S
H4104 C4110 0.930 . S
H4105 C4114 0.930 . S
H4106 C4119 0.929 . S
H4107 C4117 0.929 . S
H4108 C4112 0.929 . S
H4109 C4118 0.929 . S
C4110 H4104 0.930 . S
C4110 C4111 1.367 . S
C4110 C4118 1.378 . S
C4111 C4110 1.367 . S
C4111 C4119 1.433 . S
C4112 H4108 0.929 . S
C4112 C4114 1.378 . S
C4112 C4116 1.350 . S
C4113 C4116 1.463 . S
C4113 C4118 1.350 . S
C4113 N4121 1.427 . S
C4114 H4105 0.930 . S
C4114 C4112 1.378 . S
C4114 C4115 1.367 . S
C4115 C4114 1.367 . S
C4115 C4117 1.433 . S
C4116 C4112 1.350 . S
C4116 C4113 1.463 . S
C4116 N4120 1.427 . S
C4117 H4107 0.929 . S
C4117 C4115 1.433 . S
C4117 N4120 1.384 . S
C4118 H4109 0.929 . S
C4118 C4110 1.378 . S
C4118 C4113 1.350 . S
C4119 H4106 0.929 . S
C4119 C4111 1.433 . S
C4119 N4121 1.384 . S
N4120 C4116 1.427 . S
N4120 C4117 1.384 . S
N4121 C4113 1.427 . S
N4121 C4119 1.384 . S
H4122 C4128 0.930 . S
H4123 C4132 0.930 . S
H4124 C4137 0.929 . S
H4125 C4135 0.929 . S
H4126 C4130 0.929 . S
H4127 C4136 0.929 . S
C4128 H4122 0.930 . S
C4128 C4129 1.367 . S
C4128 C4136 1.378 . S
C4129 C4128 1.367 . S
C4129 C4137 1.433 . S
C4130 H4126 0.929 . S
C4130 C4132 1.378 . S
C4130 C4134 1.350 . S
C4131 C4134 1.463 . S
C4131 C4136 1.350 . S
C4131 N4139 1.427 . S
C4132 H4123 0.930 . S
C4132 C4130 1.378 . S
C4132 C4133 1.367 . S
C4133 C4132 1.367 . S
C4133 C4135 1.433 . S
C4134 C4130 1.350 . S
C4134 C4131 1.463 . S
C4134 N4138 1.427 . S
C4135 H4125 0.929 . S
C4135 C4133 1.433 . S
C4135 N4138 1.384 . S
C4136 H4127 0.929 . S
C4136 C4128 1.378 . S
C4136 C4131 1.350 . S
C4137 H4124 0.929 . S
C4137 C4129 1.433 . S
C4137 N4139 1.384 . S
N4138 C4134 1.427 . S
N4138 C4135 1.384 . S
N4139 C4131 1.427 . S
N4139 C4137 1.384 . S
H4140 C4146 0.930 . S
H4141 C4150 0.930 . S
H4142 C4155 0.929 . S
H4143 C4153 0.929 . S
H4144 C4148 0.929 . S
H4145 C4154 0.929 . S
C4146 H4140 0.930 . S
C4146 C4147 1.367 . S
C4146 C4154 1.378 . S
C4147 C4146 1.367 . S
C4147 C4155 1.433 . S
C4148 H4144 0.929 . S
C4148 C4150 1.378 . S
C4148 C4152 1.350 . S
C4149 C4152 1.463 . S
C4149 C4154 1.350 . S
C4149 N4157 1.427 . S
C4150 H4141 0.930 . S
C4150 C4148 1.378 . S
C4150 C4151 1.367 . S
C4151 C4150 1.367 . S
C4151 C4153 1.433 . S
C4152 C4148 1.350 . S
C4152 C4149 1.463 . S
C4152 N4156 1.427 . S
C4153 H4143 0.929 . S
C4153 C4151 1.433 . S
C4153 N4156 1.384 . S
C4154 H4145 0.929 . S
C4154 C4146 1.378 . S
C4154 C4149 1.350 . S
C4155 H4142 0.929 . S
C4155 C4147 1.433 . S
C4155 N4157 1.384 . S
N4156 C4152 1.427 . S
N4156 C4153 1.384 . S
N4157 C4149 1.427 . S
N4157 C4155 1.384 . S
H4158 C4164 0.930 . S
H4159 C4168 0.930 . S
H4160 C4173 0.929 . S
H4161 C4171 0.929 1_455 S
H4162 C4166 0.929 . S
H4163 C4172 0.929 . S
C4164 H4158 0.930 . S
C4164 C4165 1.367 . S
C4164 C4172 1.378 . S
C4165 C4164 1.367 . S
C4165 C4173 1.433 . S
C4166 H4162 0.929 . S
C4166 C4168 1.378 . S
C4166 C4170 1.350 . S
C4167 C4170 1.463 . S
C4167 C4172 1.350 . S
C4167 N4175 1.427 . S
C4168 H4159 0.930 . S
C4168 C4166 1.378 . S
C4168 C4169 1.367 . S
C4169 C4168 1.367 . S
C4169 C4171 1.433 . S
C4170 C4166 1.350 . S
C4170 C4167 1.463 . S
C4170 N4174 1.427 . S
C4171 H4161 0.929 1_655 S
C4171 C4169 1.433 . S
C4171 N4174 1.384 . S
C4172 H4163 0.929 . S
C4172 C4164 1.378 . S
C4172 C4167 1.350 . S
C4173 H4160 0.929 . S
C4173 C4165 1.433 . S
C4173 N4175 1.384 . S
N4174 C4170 1.427 . S
N4174 C4171 1.384 . S
N4175 C4167 1.427 . S
N4175 C4173 1.384 . S
H4176 C4182 0.930 . S
H4177 C4186 0.930 . S
H4178 C4191 0.929 . S
H4179 C4189 0.929 . S
H4180 C4184 0.929 . S
H4181 C4190 0.929 . S
C4182 H4176 0.930 . S
C4182 C4183 1.367 . S
C4182 C4190 1.378 . S
C4183 C4182 1.367 . S
C4183 C4191 1.433 . S
C4184 H4180 0.929 . S
C4184 C4186 1.378 . S
C4184 C4188 1.350 . S
C4185 C4188 1.463 . S
C4185 C4190 1.350 . S
C4185 N4193 1.427 . S
C4186 H4177 0.930 . S
C4186 C4184 1.378 . S
C4186 C4187 1.367 . S
C4187 C4186 1.367 . S
C4187 C4189 1.433 . S
C4188 C4184 1.350 . S
C4188 C4185 1.463 . S
C4188 N4192 1.427 . S
C4189 H4179 0.929 . S
C4189 C4187 1.433 . S
C4189 N4192 1.384 . S
C4190 H4181 0.929 . S
C4190 C4182 1.378 . S
C4190 C4185 1.350 . S
C4191 H4178 0.929 . S
C4191 C4183 1.433 . S
C4191 N4193 1.384 . S
N4192 C4188 1.427 . S
N4192 C4189 1.384 . S
N4193 C4185 1.427 . S
N4193 C4191 1.384 . S
H4194 C4200 0.930 . S
H4195 C4204 0.930 . S
H4196 C4209 0.929 . S
H4197 C4207 0.929 . S
H4198 C4202 0.936 . S
H4199 C4208 0.929 . S
C4200 H4194 0.930 . S
C4200 C4201 1.367 . S
C4200 C4208 1.378 . S
C4201 C4200 1.367 . S
C4201 C4209 1.433 . S
C4202 H4198 0.936 . S
C4202 C4204 1.378 1_545 S
C4202 C4206 1.350 . S
C4203 C4206 1.463 . S
C4203 C4208 1.350 . S
C4203 N4211 1.427 . S
C4204 H4195 0.930 . S
C4204 C4202 1.378 1_565 S
C4204 C4205 1.367 1_565 S
C4205 C4204 1.367 1_545 S
C4205 C4207 1.433 . S
C4206 C4202 1.350 . S
C4206 C4203 1.463 . S
C4206 N4210 1.427 . S
C4207 H4197 0.929 . S
C4207 C4205 1.433 . S
C4207 N4210 1.384 . S
C4208 H4199 0.929 . S
C4208 C4200 1.378 . S
C4208 C4203 1.350 . S
C4209 H4196 0.929 . S
C4209 C4201 1.433 . S
C4209 N4211 1.384 . S
N4210 C4206 1.427 . S
N4210 C4207 1.384 . S
N4211 C4203 1.427 . S
N4211 C4209 1.384 . S
C2923 C49 1.171 . S
C2927 C2313 1.131 . S
C2941 C137 1.610 . S
C2945 C2393 1.589 . S
C2963 C2461 1.378 . S
C2959 C205 1.378 . S
C2977 C196 1.797 . S
C2981 C2541 1.827 . S
C2995 C57 1.587 . S
C2999 C2615 1.620 . S
C3013 C145 1.625 . S
C3017 C2683 1.560 . S
C3031 C313 1.176 . S
C3035 C2609 1.154 . S
C3053 C2689 1.508 . S
C3049 C401 1.489 . S
C3071 C2535 1.394 1_565 S
C3067 C489 1.424 . S
C3085 C469 1.841 . S
C3089 C2467 1.897 1_545 S
C3107 C2319 1.649 . S
C3103 C293 1.601 . S
C3121 C381 1.493 . S
C3125 C2387 1.484 . S
C3139 C577 1.410 . S
C3143 C2757 1.327 . S
C3157 C645 1.635 . S
C3161 C2837 1.580 . S
C3179 C2905 1.468 . S
C3175 C733 1.530 . S
C3193 C724 1.898 . S
C3197 C1653 1.873 . S
C3211 C585 1.746 . S
C3215 C1727 1.709 . S
C3229 C636 1.659 . S
C3233 C1795 1.602 . S
C3247 C841 1.103 . S
C3251 C1721 1.078 . S
C3265 C937 1.554 . S
C3269 C1801 1.566 . S
C3287 C1647 1.443 . S
C3283 C1025 1.456 . S
C3305 C2911 1.910 . S
C3301 C988 1.900 . S
C3323 C2763 1.544 . S
C3319 C821 1.538 . S
C3341 C2831 1.491 . S
C3337 C900 1.504 . S
C3355 C1105 1.290 . S
C3359 C1869 1.221 . S
C3373 C1193 1.686 . S
C3377 C1949 1.649 . S
C3391 C1281 1.600 . S
C3395 C2017 1.532 . S
C3409 C1289 1.999 . S
C3413 C2097 1.962 . S
C3431 C2171 1.637 . S
C3427 C1113 1.686 . S
C3449 C2239 1.598 . S
C3445 C1201 1.668 . S
C3467 C2165 1.202 . S
C3463 C1369 1.238 . S
C3485 C2245 1.494 . S
C3481 C1457 1.489 . S
C3499 C1553 1.350 . S
C3503 C2091 1.334 . S
C3521 C2023 1.799 . S
C3517 C1516 1.785 . S
C3535 C1349 1.626 . S
C3539 C1875 1.639 . S
C3557 C1943 1.513 . S
C3553 C1437 1.516 . S
C3575 C1623 2.095 . S
C3571 C29 2.101 . S
C3589 C117 1.433 . S
C3593 C1697 1.431 . S
C3611 C1783 1.684 . S
C3607 C225 1.649 . S
C3629 C1857 1.231 . S
C3625 C233 1.209 1_556 S
C3647 C1919 1.669 . S
C3643 C20 1.672 . S
C3665 C2005 1.608 . S
C3661 C108 1.590 . S
C3679 C321 2.319 . S
C3683 C1993 2.232 . S
C3697 C409 1.701 . S
C3701 C1845 1.613 . S
C3715 C497 1.969 . S
C3719 C1931 1.945 . S
C3733 C460 1.578 . S
C3737 C1709 1.512 . S
C3755 C1771 1.838 . S
C3751 C284 1.931 . S
C3769 C372 1.867 . S
C3773 C1635 1.826 . S
C3791 C2067 1.930 . S
C3787 C557 1.952 . S
C3805 C665 1.556 . S
C3809 C2141 1.541 . S
C3823 C753 1.606 . S
C3827 C2227 1.605 . S
C3845 C2301 0.829 . S
C3841 C761 0.821 . S
C3859 C548 1.476 . S
C3863 C2363 1.468 . S
C3877 C673 1.281 . S
C3881 C2449 1.302 . S
C3895 C849 1.750 . S
C3899 C2437 1.690 1_565 S
C3913 C929 1.214 . S
C3917 C2289 1.173 . S
C3935 C2375 1.719 . S
C3931 C1017 1.756 . S
C3949 C997 1.518 . S
C3953 C2153 1.438 . S
C3967 C812 1.857 . S
C3971 C2215 1.759 . S
C3989 C2079 1.899 . S
C3985 C909 1.940 . S
C4007 C2511 1.652 . S
C4003 C1085 1.667 . S
C4021 C1173 1.057 . S
C4025 C2585 1.058 . S
C4039 C1261 1.479 . S
C4043 C2671 1.488 . S
C4061 C2745 1.167 . S
C4057 C1252 1.181 . S
C4079 C2807 1.620 . S
C4075 C1076 1.632 . S
C4093 C1164 1.673 . S
C4097 C2893 1.683 . S
C4111 C1377 2.199 . S
C4115 C2881 2.098 . S
C4129 C1465 1.806 . S
C4133 C2733 1.708 . S
C4151 C2819 1.825 . S
C4147 C1545 1.886 . S
C4169 C2597 0.945 . S
C4165 C1525 0.950 . S
C4187 C2659 1.651 . S
C4183 C1340 1.733 . S
C4201 C1428 1.412 . S
C4205 C2523 1.414 . S
