# Generated by pormake.
# Topology pth, (4,4)-cn, num edge types: 1
# Building blocks:
#     Node 0, Type 0, BuildingBlock: KUFVIS_clean_sbu_0, # of connection points: 4
#     Node 1, Type 0, BuildingBlock: KUFVIS_clean_sbu_0, # of connection points: 4
#     Node 2, Type 0, BuildingBlock: KUFVIS_clean_sbu_0, # of connection points: 4
#     Node 3, Type 1, BuildingBlock: MIFKUJ_clean_linker_1, # of connection points: 4
#     Node 4, Type 1, BuildingBlock: MIFKUJ_clean_linker_1, # of connection points: 4
#     Node 5, Type 1, BuildingBlock: MIFKUJ_clean_linker_1, # of connection points: 4
#     Edge 6, Type (0, 1), BuildingBlock: MIFKUJ_clean_linker_0, # of connection points: 2
#     Edge 7, Type (0, 1), BuildingBlock: MIFKUJ_clean_linker_0, # of connection points: 2
#     Edge 8, Type (0, 1), BuildingBlock: MIFKUJ_clean_linker_0, # of connection points: 2
#     Edge 9, Type (0, 1), BuildingBlock: MIFKUJ_clean_linker_0, # of connection points: 2
#     Edge 10, Type (0, 1), BuildingBlock: MIFKUJ_clean_linker_0, # of connection points: 2
#     Edge 11, Type (0, 1), BuildingBlock: MIFKUJ_clean_linker_0, # of connection points: 2
#     Edge 12, Type (0, 1), BuildingBlock: MIFKUJ_clean_linker_0, # of connection points: 2
#     Edge 13, Type (0, 1), BuildingBlock: MIFKUJ_clean_linker_0, # of connection points: 2
#     Edge 14, Type (0, 1), BuildingBlock: MIFKUJ_clean_linker_0, # of connection points: 2
#     Edge 15, Type (0, 1), BuildingBlock: MIFKUJ_clean_linker_0, # of connection points: 2
#     Edge 16, Type (0, 1), BuildingBlock: MIFKUJ_clean_linker_0, # of connection points: 2
#     Edge 17, Type (0, 1), BuildingBlock: MIFKUJ_clean_linker_0, # of connection points: 2
# Relax obj value: 0.017
# Max RMSD: 0.085
# Mean RMSD: 0.064
data_MOF--net-pth--node1-KUFVIS_clean_sbu_0--node2-MIFKUJ_clean_linker_1--edge1-MIFKUJ_clean_linker_0
_symmetry_space_group_name_H-M    P1
_symmetry_Int_Tables_number       1
_symmetry_cell_setting            triclinic
loop_
_symmetry_equiv_pos_as_xyz
'x, y, z'
_cell_length_a     36.395265
_cell_length_b     36.470598
_cell_length_c     80.270091
_cell_angle_alpha  90.389772
_cell_angle_beta   91.695717
_cell_angle_gamma 120.21649
loop_
_atom_site_label
_atom_site_type_symbol
_atom_site_fract_x
_atom_site_fract_y
_atom_site_fract_z
_atom_type_partial_charge
Mn0 Mn 0.04146 0.05169 0.04417 0.0
Mn1 Mn 0.98029 0.08336 0.02383 0.0
C2 C 0.99587 0.01018 0.02247 0.0
C3 C 0.05136 0.01664 0.06653 0.0
C4 C 0.0751 0.12211 0.01899 0.0
O5 O 0.04475 0.09849 0.05943 0.0
O6 O 0.99516 0.10938 0.04663 0.0
C7 C 0.90333 0.04101 0.04386 0.0
N8 N 0.9219 0.04743 0.02886 0.0
C9 C 0.85467 0.99997 0.01487 0.0
C10 C 0.83476 0.99307 0.03015 0.0
C11 C 0.85923 0.01357 0.04471 0.0
C12 C 0.89873 0.02759 0.0148 0.0
H13 H 0.92206 0.05665 0.05508 0.0
C14 C 0.02147 0.11554 0.05878 0.0
O15 O 0.08345 0.04553 0.05866 0.0
O16 O 0.0138 0.00901 0.0617 0.0
N17 N 0.96337 0.06012 1.00162 0.0
C18 C 0.98766 0.06889 0.988 0.0
C19 C 0.96815 0.0502 0.97247 0.0
C20 C 0.92385 0.02306 0.97106 0.0
C21 C 0.89946 0.01495 0.98521 0.0
C22 C 0.92064 0.03458 1.00035 0.0
H23 H 0.02169 0.0899 0.98896 0.0
O24 O 0.02725 0.00512 0.0274 0.0
O25 O 0.99157 0.03851 0.03068 0.0
O26 O 0.08044 0.09601 0.02777 0.0
O27 O 0.03982 0.12172 0.01754 0.0
C28 C 0.855 0.98787 0.98491 0.0
C29 C 0.83264 0.98016 0.99975 0.0
H30 H 0.80077 0.97189 0.03087 0.0
H31 H 0.84413 0.00824 0.05657 0.0
H32 H 0.9872 0.05667 0.9616 0.0
H33 H 0.90894 0.0085 0.95908 0.0
H34 H 0.83777 0.97236 0.97337 0.0
H35 H 0.79854 0.9587 0.99939 0.0
Mn36 Mn 0.0121 0.04277 0.3753 0.0
Mn37 Mn 0.07025 0.1342 0.39761 0.0
C38 C 0.05496 0.04557 0.39761 0.0
C39 C 0.00529 0.9991 0.35267 0.0
C40 C 0.97523 0.07626 0.4011 0.0
O41 O 0.01107 0.08697 0.36024 0.0
O42 O 0.05443 0.14674 0.37529 0.0
C43 C 0.14714 0.17275 0.37748 0.0
N44 N 0.12878 0.15887 0.39241 0.0
C45 C 0.19628 0.1782 0.40589 0.0
C46 C 0.21597 0.19299 0.39068 0.0
C47 C 0.19128 0.19018 0.37641 0.0
C48 C 0.15222 0.16129 0.4062 0.0
H49 H 0.12821 0.17042 0.36647 0.0
C50 C 0.03113 0.12728 0.36228 0.0
O51 O 0.97205 0.99521 0.35988 0.0
O52 O 0.0422 0.02897 0.35832 0.0
N53 N 0.08776 0.12689 0.41946 0.0
C54 C 0.06367 0.10999 0.43304 0.0
C55 C 0.08346 0.10992 0.44831 0.0
C56 C 0.12779 0.12743 0.4495 0.0
C57 C 0.15197 0.14506 0.43541 0.0
C58 C 0.13054 0.14472 0.42057 0.0
H59 H 0.02959 0.09656 0.43222 0.0
O60 O 0.02383 0.00938 0.39206 0.0
O61 O 0.06047 0.07893 0.38976 0.0
O62 O 0.97063 0.04703 0.39092 0.0
O63 O 0.01075 0.11035 0.40406 0.0
C64 C 0.19641 0.16247 0.43544 0.0
C65 C 0.21853 0.17891 0.42068 0.0
H66 H 0.24997 0.20626 0.38978 0.0
H67 H 0.20622 0.20132 0.36461 0.0
H68 H 0.06457 0.09632 0.45914 0.0
H69 H 0.1429 0.12708 0.46128 0.0
H70 H 0.21381 0.1629 0.4467 0.0
H71 H 0.25262 0.19173 0.42081 0.0
Mn72 Mn 0.0345 0.04505 0.70888 0.0
Mn73 Mn 1.00329 0.10228 0.73145 0.0
C74 C 0.077 0.08725 0.73108 0.0
C75 C 0.0693 0.03904 0.68594 0.0
C76 C 0.96524 0.00695 0.73435 0.0
O77 O 0.98753 0.04448 0.69417 0.0
O78 O 0.97486 0.08964 0.70889 0.0
C79 C 0.04212 0.18165 0.7125 0.0
N80 N 0.03762 0.16136 0.72713 0.0
C81 C 0.08533 0.22713 0.74173 0.0
C82 C 0.09026 0.24878 0.72684 0.0
C83 C 0.06862 0.22591 0.71216 0.0
C84 C 0.05829 0.18303 0.74133 0.0
H85 H 0.02566 0.16414 0.70118 0.0
C86 C 0.96906 0.06612 0.69598 0.0
O87 O 0.04009 0.00566 0.69313 0.0
O88 O 0.07725 0.07566 0.69178 0.0
N89 N 0.0287 0.11688 0.7535 0.0
C90 C 0.02253 0.09095 0.76657 0.0
C91 C 0.04301 0.1087 0.78207 0.0
C92 C 0.0694 0.15289 0.78401 0.0
C93 C 0.07497 0.17895 0.77043 0.0
C94 C 0.05342 0.15949 0.75532 0.0
H95 H 1.00228 0.05698 0.76517 0.0
O96 O 0.08146 0.05637 0.72541 0.0
O97 O 0.04823 0.09277 0.72344 0.0
O98 O 0.9901 0.003 0.72457 0.0
O99 O 0.96657 0.04215 0.73714 0.0
C100 C 0.10172 0.22339 0.77121 0.0
C101 C 0.10693 0.24746 0.75686 0.0
H102 H 0.11089 0.28289 0.7265 0.0
H103 H 0.07245 0.24238 0.70061 0.0
H104 H 0.03855 0.08837 0.79249 0.0
H105 H 0.08544 0.16643 0.79595 0.0
H106 H 0.11898 0.2393 0.7827 0.0
H107 H 0.1281 0.28152 0.75755 0.0
H108 H 0.10313 0.53641 0.18273 0.0
H109 H 0.10433 0.48022 0.1663 0.0
H110 H 0.97853 0.39031 0.18236 0.0
H111 H 0.97706 0.44677 0.19834 0.0
H112 H 0.05212 0.56966 0.18031 0.0
H113 H 0.08553 0.49576 0.22067 0.0
H114 H 0.07949 0.43661 0.23692 0.0
H115 H 0.96181 0.41695 0.2564 0.0
H116 H 0.96688 0.47502 0.23961 0.0
H117 H 0.95981 0.58415 0.23292 0.0
H118 H 0.95218 0.63761 0.2485 0.0
H119 H 0.08512 0.7285 0.24181 0.0
H120 H 0.09176 0.67524 0.22568 0.0
H121 H 0.01865 0.55451 0.24022 0.0
H122 H 0.97842 0.61491 0.19321 0.0
H123 H 0.98441 0.67419 0.17718 0.0
H124 H 0.11973 0.72344 0.17382 0.0
H125 H 0.11266 0.66258 0.18909 0.0
C126 C 0.04014 0.49579 0.19186 0.0
C127 C 0.07579 0.5046 0.18267 0.0
C128 C 0.0766 0.47236 0.17342 0.0
C129 C 0.04158 0.43073 0.17307 0.0
C130 C 0.00589 0.42207 0.18226 0.0
C131 C 0.00513 0.45427 0.19151 0.0
C132 C 0.03923 0.52998 0.2017 0.0
C133 C 0.04541 0.56647 0.19347 0.0
C134 C 0.02996 0.52574 0.21886 0.0
C135 C 0.02633 0.4896 0.22867 0.0
C136 C 0.05793 0.47824 0.22815 0.0
C137 C 0.05458 0.44453 0.23748 0.0
C138 C 0.02013 0.42221 0.24785 0.0
C139 C 0.98878 0.4338 0.24854 0.0
C140 C 0.99173 0.46702 0.23898 0.0
C141 C 0.02626 0.62584 0.2281 0.0
C142 C 0.9872 0.61569 0.2348 0.0
C143 C 0.98302 0.64628 0.24379 0.0
C144 C 0.01805 0.68753 0.2465 0.0
C145 C 0.05721 0.69743 0.23976 0.0
C146 C 0.0612 0.66694 0.2306 0.0
C147 C 0.03066 0.59322 0.21872 0.0
C148 C 0.02538 0.55731 0.22707 0.0
C149 C 0.04102 0.59796 0.20176 0.0
C150 C 0.04507 0.6344 0.19226 0.0
C151 C 0.00931 0.63852 0.18895 0.0
C152 C 0.01295 0.67274 0.17991 0.0
C153 C 0.05263 0.70398 0.17416 0.0
C154 C 0.0885 0.69978 0.17771 0.0
C155 C 0.08464 0.66512 0.18653 0.0
H156 H 0.59633 0.10134 0.51222 0.0
H157 H 0.65183 0.1026 0.49539 0.0
H158 H 0.62778 0.98411 0.51643 0.0
H159 H 0.57145 0.98244 0.53288 0.0
H160 H 0.51299 0.0456 0.51153 0.0
H161 H 0.62637 0.09947 0.55337 0.0
H162 H 0.68474 0.10168 0.5702 0.0
H163 H 0.59855 0.97671 0.58814 0.0
H164 H 0.54022 0.97466 0.57125 0.0
H165 H 0.42535 0.97575 0.57288 0.0
H166 H 0.3683 0.97391 0.5888 0.0
H167 H 0.39034 0.08996 0.56596 0.0
H168 H 0.44877 0.09277 0.55081 0.0
H169 H 0.50809 0.02999 0.5729 0.0
H170 H 0.39293 0.97991 0.53149 0.0
H171 H 0.33646 0.98113 0.51466 0.0
H172 H 0.42841 0.1031 0.49579 0.0
H173 H 0.48472 0.10133 0.51247 0.0
C174 C 0.57995 0.042 0.52391 0.0
C175 C 0.60305 0.07566 0.51321 0.0
C176 C 0.63498 0.07649 0.5037 0.0
C177 C 0.64432 0.0435 0.5046 0.0
C178 C 0.62114 0.00982 0.51534 0.0
C179 C 0.58924 0.00905 0.52488 0.0
C180 C 0.54515 0.04063 0.5336 0.0
C181 C 0.51218 0.04274 0.52497 0.0
C182 C 0.5436 0.03595 0.55108 0.0
C183 C 0.57903 0.03681 0.56102 0.0
C184 C 0.62012 0.07245 0.56085 0.0
C185 C 0.65336 0.07376 0.57052 0.0
C186 C 0.64616 0.03933 0.58045 0.0
C187 C 0.60508 0.0035 0.58047 0.0
C188 C 0.57172 0.00241 0.57094 0.0
C189 C 0.44108 0.03409 0.56047 0.0
C190 C 0.41804 1.00093 0.57138 0.0
C191 C 0.38508 0.99969 0.58035 0.0
C192 C 0.3744 0.03163 0.57861 0.0
C193 C 0.39784 0.06502 0.56776 0.0
C194 C 0.431 0.0664 0.55891 0.0
C195 C 0.47582 0.03505 0.55082 0.0
C196 C 0.50876 0.03274 0.55945 0.0
C197 C 0.47748 0.03981 0.53332 0.0
C198 C 0.443 0.04064 0.5233 0.0
C199 C 0.40083 0.00701 0.5238 0.0
C200 C 0.36856 0.00784 0.51421 0.0
C201 C 0.37789 0.04223 0.50386 0.0
C202 C 0.42021 0.07585 0.50342 0.0
C203 C 0.45242 0.07497 0.51299 0.0
H204 H 0.50179 0.4478 0.85289 0.0
H205 H 0.44343 0.38881 0.83665 0.0
H206 H 0.36249 0.4411 0.84603 0.0
H207 H 0.4207 0.49958 0.86245 0.0
H208 H 0.53549 0.54068 0.84597 0.0
H209 H 0.48524 0.44107 0.8927 0.0
H210 H 0.4305 0.38852 0.91013 0.0
H211 H 0.38028 0.4726 0.91716 0.0
H212 H 0.43685 0.52579 0.90048 0.0
H213 H 0.56519 0.64708 0.90375 0.0
H214 H 0.62377 0.70483 0.9203 0.0
H215 H 0.70828 0.66134 0.90475 0.0
H216 H 0.64975 0.60399 0.88803 0.0
H217 H 0.5322 0.55925 0.90711 0.0
H218 H 0.59741 0.66604 0.86737 0.0
H219 H 0.65295 0.71982 0.85076 0.0
H220 H 0.66969 0.62286 0.82685 0.0
H221 H 0.61606 0.56958 0.84444 0.0
C222 C 0.4654 0.47786 0.85883 0.0
C223 C 0.47136 0.44631 0.85151 0.0
C224 C 0.43805 0.41264 0.84234 0.0
C225 C 0.39858 0.41056 0.8401 0.0
C226 C 0.3927 0.44216 0.84751 0.0
C227 C 0.42578 0.4754 0.8569 0.0
C228 C 0.50085 0.5141 0.86815 0.0
C229 C 0.53535 0.5446 0.85937 0.0
C230 C 0.49958 0.51963 0.88548 0.0
C231 C 0.46502 0.48721 0.89538 0.0
C232 C 0.46234 0.44802 0.89803 0.0
C233 C 0.43073 0.41787 0.90791 0.0
C234 C 0.40071 0.42609 0.91516 0.0
C235 C 0.40323 0.46532 0.91215 0.0
C236 C 0.43533 0.49572 0.9025 0.0
C237 C 0.60325 0.62144 0.89464 0.0
C238 C 0.5964 0.65016 0.90385 0.0
C239 C 0.62984 0.68318 0.9132 0.0
C240 C 0.67044 0.68744 0.91376 0.0
C241 C 0.67721 0.65859 0.90456 0.0
C242 C 0.64393 0.62601 0.89498 0.0
C243 C 0.5676 0.58597 0.885 0.0
C244 C 0.53281 0.55557 0.89371 0.0
C245 C 0.56871 0.58085 0.86754 0.0
C246 C 0.60295 0.61372 0.85743 0.0
C247 C 0.61368 0.65641 0.85884 0.0
C248 C 0.64506 0.68714 0.84908 0.0
C249 C 0.66589 0.67584 0.83736 0.0
C250 C 0.65492 0.63297 0.8359 0.0
C251 C 0.62387 0.60231 0.84585 0.0
H252 H 0.08734 0.15868 0.08193 0.0
H253 H 0.09469 0.21153 0.10285 0.0
H254 H 0.9706 0.19028 0.08768 0.0
H255 H 0.96358 0.13869 0.0666 0.0
H256 H 0.02475 0.27131 0.0893 0.0
H257 H 0.99148 0.15368 0.12519 0.0
H258 H 1.00198 0.09754 0.13735 0.0
H259 H 0.12646 0.19141 0.15615 0.0
H260 H 0.11692 0.2481 0.1439 0.0
H261 H 0.97664 0.37031 0.15321 0.0
H262 H 0.97726 0.31592 0.13553 0.0
H263 H 0.10742 0.36012 0.15142 0.0
H264 H 0.10677 0.41425 0.16952 0.0
H265 H 0.05789 0.27153 0.14971 0.0
H266 H 0.08902 0.38909 0.11482 0.0
H267 H 0.0778 0.4448 0.10269 0.0
H268 H 0.95611 0.34976 0.08194 0.0
H269 H 0.96632 0.29348 0.09416 0.0
C270 C 0.06148 0.165 0.08319 0.0
C271 C 0.02502 0.14468 0.07251 0.0
C272 C 0.06567 0.19514 0.09518 0.0
C273 C 0.03314 0.20488 0.09688 0.0
C274 C 0.99627 0.18361 0.08654 0.0
C275 C 0.99229 0.15401 0.07449 0.0
C276 C 0.03782 0.23858 0.10877 0.0
C277 C 0.03151 0.27097 0.10254 0.0
C278 C 0.04807 0.2391 0.12597 0.0
C279 C 0.05367 0.20509 0.13347 0.0
C280 C 0.02122 0.16233 0.13181 0.0
C281 C 0.02697 0.13041 0.13874 0.0
C282 C 0.06491 0.14089 0.14748 0.0
C283 C 0.09712 0.18333 0.14936 0.0
C284 C 0.09154 0.21537 0.14244 0.0
C285 C 0.00525 0.36816 0.15315 0.0
C286 C 0.04172 0.39675 0.16274 0.0
C287 C 0.00564 0.33721 0.14294 0.0
C288 C 0.04254 0.33427 0.14203 0.0
C289 C 0.07867 0.36194 0.15191 0.0
C290 C 0.07835 0.39307 0.16212 0.0
C291 C 0.04355 0.30326 0.13024 0.0
C292 C 0.05124 0.27174 0.13646 0.0
C293 C 0.0344 0.30331 0.11299 0.0
C294 C 0.0283 0.33709 0.10552 0.0
C295 C 0.05973 0.38008 0.10777 0.0
C296 C 0.05357 0.41176 0.10087 0.0
C297 C 0.01623 0.40083 0.09158 0.0
C298 C 0.98501 0.35818 0.08915 0.0
C299 C 0.99098 0.32638 0.09605 0.0
H300 H 0.01152 0.4254 0.08625 0.0
H301 H 0.06932 0.11613 0.15282 0.0
H302 H 0.96869 0.13586 0.41944 0.0
H303 H 0.91022 0.12576 0.43646 0.0
H304 H 0.83949 0.99335 0.42157 0.0
H305 H 0.89785 0.00333 0.40411 0.0
H306 H 0.78838 0.02744 0.42237 0.0
H307 H 0.89186 0.02357 0.45912 0.0
H308 H 0.9639 0.04943 0.47138 0.0
H309 H 0.96837 0.16284 0.48932 0.0
H310 H 0.89664 0.13804 0.47689 0.0
H311 H 0.64142 0.97709 0.48722 0.0
H312 H 0.69589 0.97852 0.46963 0.0
H313 H 0.77653 0.11252 0.48045 0.0
H314 H 0.72275 0.1111 0.49841 0.0
H315 H 0.82105 0.07143 0.48213 0.0
H316 H 0.7195 0.0769 0.44367 0.0
H317 H 0.64821 0.05167 0.43074 0.0
H318 H 0.6402 0.93433 0.41608 0.0
H319 H 0.71126 0.95866 0.42914 0.0
C320 C 0.94069 0.10455 0.41968 0.0
C321 C 0.9382 0.07029 0.4105 0.0
C322 C 0.9073 0.09882 0.42948 0.0
C323 C 0.87085 0.05862 0.43056 0.0
C324 C 0.86746 0.0246 0.42098 0.0
C325 C 0.90086 0.03037 0.41103 0.0
C326 C 0.83694 0.05228 0.44202 0.0
C327 C 0.79533 0.03636 0.43549 0.0
C328 C 0.84618 0.06448 0.45911 0.0
C329 C 0.88895 0.07906 0.46696 0.0
C330 C 0.90828 0.05413 0.4656 0.0
C331 C 0.94907 0.0686 0.47258 0.0
C332 C 0.97072 0.10778 0.4811 0.0
C333 C 0.95156 0.1325 0.48271 0.0
C334 C 0.91082 0.11824 0.47571 0.0
C335 C 0.67095 0.00677 0.486 0.0
C336 C 0.67769 0.04403 0.49418 0.0
C337 C 0.70188 0.0076 0.47582 0.0
C338 C 0.74008 0.04573 0.47357 0.0
C339 C 0.74722 0.08278 0.48196 0.0
C340 C 0.71631 0.08199 0.49211 0.0
C341 C 0.77263 0.04726 0.46242 0.0
C342 C 0.81401 0.06219 0.46903 0.0
C343 C 0.76312 0.034 0.44544 0.0
C344 C 0.72048 0.01941 0.43754 0.0
C345 C 0.70239 0.04558 0.43781 0.0
C346 C 0.66206 0.03147 0.43044 0.0
C347 C 0.63964 0.99138 0.42264 0.0
C348 C 0.65757 0.96535 0.42215 0.0
C349 C 0.69788 0.97929 0.42953 0.0
H350 H 0.60842 0.98051 0.41693 0.0
H351 H 1.00232 0.11895 0.48648 0.0
H352 H 0.89388 0.99597 0.749 0.0
H353 H 0.84513 0.93711 0.76583 0.0
H354 H 0.9174 0.8747 0.75787 0.0
H355 H 0.96587 0.93323 0.74048 0.0
H356 H 0.83482 0.81796 0.75692 0.0
H357 H 0.92939 0.93014 0.7942 0.0
H358 H 0.96883 0.00364 0.80545 0.0
H359 H 0.85114 0.99782 0.81616 0.0
H360 H 0.81093 0.92454 0.80466 0.0
H361 H 0.73966 0.68164 0.82646 0.0
H362 H 0.79195 0.73508 0.80841 0.0
H363 H 0.71882 0.79825 0.80606 0.0
H364 H 0.66555 0.74426 0.82348 0.0
H365 H 0.80701 0.85318 0.81328 0.0
H366 H 0.7137 0.74067 0.774 0.0
H367 H 0.67657 0.6671 0.76278 0.0
H368 H 0.79646 0.67326 0.75701 0.0
H369 H 0.83428 0.74671 0.76842 0.0
C370 C 0.89938 0.96966 0.75073 0.0
C371 C 0.93405 0.96952 0.74352 0.0
C372 C 0.87152 0.93605 0.76042 0.0
C373 C 0.87816 0.90192 0.76346 0.0
C374 C 0.9118 0.90083 0.75579 0.0
C375 C 0.93948 0.93431 0.74586 0.0
C376 C 0.85046 0.86815 0.77499 0.0
C377 C 0.82931 0.82562 0.76935 0.0
C378 C 0.84305 0.87808 0.7912 0.0
C379 C 0.86712 0.9219 0.79845 0.0
C380 C 0.91189 0.9446 0.79887 0.0
C381 C 0.9344 0.98624 0.80528 0.0
C382 C 0.9125 0.0054 0.81149 0.0
C383 C 0.86805 0.98293 0.81133 0.0
C384 C 0.84538 0.94133 0.80487 0.0
C385 C 0.73431 0.70653 0.82194 0.0
C386 C 0.69824 0.70851 0.8265 0.0
C387 C 0.7644 0.73719 0.8117 0.0
C388 C 0.75919 0.77056 0.8059 0.0
C389 C 0.72354 0.77287 0.81049 0.0
C390 C 0.69323 0.74204 0.82056 0.0
C391 C 0.79084 0.80329 0.79506 0.0
C392 C 0.81286 0.8456 0.8009 0.0
C393 C 0.7995 0.79306 0.77916 0.0
C394 C 0.77678 0.74899 0.77224 0.0
C395 C 0.73212 0.7262 0.77048 0.0
C396 C 0.71096 0.68455 0.76406 0.0
C397 C 0.73413 0.66547 0.75923 0.0
C398 C 0.77854 0.68805 0.76078 0.0
C399 C 0.79986 0.72969 0.76721 0.0
H400 H 0.71769 0.63323 0.75426 0.0
H401 H 0.92997 0.03765 0.81644 0.0
H402 H 0.99523 0.9702 0.09018 0.0
H403 H 1.00105 0.92265 0.11013 0.0
H404 H 0.12421 0.9565 0.09197 0.0
H405 H 0.1191 0.00496 0.07222 0.0
H406 H 0.05967 0.86477 0.09266 0.0
H407 H 0.12607 0.99191 0.12751 0.0
H408 H 0.12937 0.05432 0.14117 0.0
H409 H 0.01673 0.97291 0.16749 0.0
H410 H 0.01234 0.91 0.15378 0.0
H411 H 0.10545 0.7442 0.14835 0.0
H412 H 0.11053 0.80231 0.13196 0.0
H413 H 0.01137 0.80239 0.16008 0.0
H414 H 0.00853 0.74659 0.17749 0.0
H415 H 0.06603 0.87943 0.15433 0.0
H416 H 0.99356 0.75429 0.1198 0.0
H417 H 0.98174 0.68904 0.10544 0.0
H418 H 0.09441 0.76185 0.07782 0.0
H419 H 0.10722 0.82751 0.0922 0.0
C420 C 0.02382 0.96798 0.0906 0.0
C421 C 0.05673 0.99128 0.07965 0.0
C422 C 0.0271 0.94087 0.10201 0.0
C423 C 0.06304 0.93613 0.10249 0.0
C424 C 0.09626 0.95984 0.09177 0.0
C425 C 0.09337 0.98761 0.08058 0.0
C426 C 0.06472 0.90456 0.11352 0.0
C427 C 0.06184 0.86822 0.10615 0.0
C428 C 0.06576 0.90847 0.13108 0.0
C429 C 0.06865 0.94625 0.13949 0.0
C430 C 0.10178 0.98732 0.1361 0.0
C431 C 0.10389 0.02279 0.14387 0.0
C432 C 0.07321 0.0176 0.15515 0.0
C433 C 0.04044 0.97689 0.15873 0.0
C434 C 0.03815 0.94132 0.15098 0.0
C435 C 0.08525 0.75701 0.15134 0.0
C436 C 0.05634 0.7402 0.16427 0.0
C437 C 0.08775 0.78996 0.14173 0.0
C438 C 0.06064 0.80622 0.14447 0.0
C439 C 0.03245 0.79026 0.1576 0.0
C440 C 0.03046 0.75782 0.16742 0.0
C441 C 0.06119 0.83932 0.13351 0.0
C442 C 0.06421 0.87591 0.14086 0.0
C443 C 0.05915 0.83517 0.11587 0.0
C444 C 0.0516 0.79575 0.10721 0.0
C445 C 0.016 0.75634 0.11076 0.0
C446 C 0.00909 0.71929 0.10261 0.0
C447 C 0.03738 0.72128 0.09076 0.0
C448 C 0.07257 0.76035 0.08702 0.0
C449 C 0.07966 0.7975 0.09516 0.0
H450 H 0.03197 0.69256 0.08446 0.0
H451 H 0.07489 0.0451 0.16115 0.0
H452 H 0.13865 0.07859 0.39249 0.0
H453 H 0.19219 0.07707 0.41128 0.0
H454 H 0.09627 0.01022 0.44731 0.0
H455 H 0.04257 0.0117 0.42841 0.0
H456 H 0.17326 0.07796 0.4613 0.0
H457 H 0.12582 0.95584 0.42509 0.0
H458 H 0.10907 0.91794 0.39788 0.0
H459 H 0.23928 0.9948 0.38452 0.0
H460 H 0.25668 0.03363 0.41156 0.0
H461 H 0.29617 0.01732 0.51221 0.0
H462 H 0.24001 0.01714 0.49467 0.0
H463 H 0.32658 0.06941 0.45447 0.0
H464 H 0.38232 0.06805 0.47168 0.0
H465 H 0.25198 0.00732 0.44305 0.0
H466 H 0.29981 0.13122 0.47811 0.0
H467 H 0.3178 0.17202 0.50467 0.0
H468 H 0.18901 0.09509 0.51966 0.0
H469 H 0.17032 0.05351 0.49324 0.0
C470 C 0.12927 0.06408 0.40452 0.0
C471 C 0.08707 0.0464 0.40933 0.0
C472 C 0.15966 0.0629 0.41516 0.0
C473 C 0.14812 0.04354 0.43067 0.0
C474 C 0.10579 0.02553 0.43543 0.0
C475 C 0.07526 0.02632 0.42468 0.0
C476 C 0.18026 0.04152 0.44175 0.0
C477 C 0.19008 0.06202 0.45745 0.0
C478 C 0.20276 0.0215 0.4365 0.0
C479 C 0.19248 0.99789 0.4203 0.0
C480 C 0.15082 0.96488 0.4163 0.0
C481 C 0.14121 0.9432 0.40092 0.0
C482 C 0.17307 0.95401 0.38947 0.0
C483 C 0.21463 0.98648 0.3934 0.0
C484 C 0.22439 0.00831 0.40876 0.0
C485 C 0.30316 0.02845 0.49959 0.0
C486 C 0.34381 0.04279 0.49337 0.0
C487 C 0.27114 0.02875 0.48964 0.0
C488 C 0.27921 0.04373 0.47331 0.0
C489 C 0.31965 0.05784 0.46705 0.0
C490 C 0.35162 0.05742 0.47696 0.0
C491 C 0.24538 0.0441 0.46263 0.0
C492 C 0.23515 0.02322 0.44698 0.0
C493 C 0.22273 0.06405 0.46788 0.0
C494 C 0.2338 0.08897 0.48378 0.0
C495 C 0.2754 0.12278 0.48713 0.0
C496 C 0.2857 0.1461 0.50214 0.0
C497 C 0.25459 0.13609 0.51385 0.0
C498 C 0.21307 0.10277 0.51057 0.0
C499 C 0.2026 0.07936 0.49557 0.0
H500 H 0.26263 0.15427 0.52544 0.0
H501 H 0.16559 0.93719 0.37757 0.0
H502 H 0.12409 0.17163 0.72652 0.0
H503 H 0.17828 0.22547 0.74558 0.0
H504 H 0.16105 0.12767 0.77983 0.0
H505 H 0.105 0.07397 0.76099 0.0
H506 H 0.16742 0.19114 0.79675 0.0
H507 H 0.24948 0.17896 0.75395 0.0
H508 H 0.27049 0.17711 0.72516 0.0
H509 H 0.29786 0.30508 0.71859 0.0
H510 H 0.27647 0.30751 0.74728 0.0
H511 H 0.36663 0.3251 0.84208 0.0
H512 H 0.31054 0.2687 0.8241 0.0
H513 H 0.29781 0.3627 0.79628 0.0
H514 H 0.35328 0.41905 0.81436 0.0
H515 H 0.30769 0.30039 0.77673 0.0
H516 H 0.22456 0.31004 0.82052 0.0
H517 H 0.20549 0.31003 0.84974 0.0
H518 H 0.18332 0.18343 0.85489 0.0
H519 H 0.20292 0.18293 0.82576 0.0
C520 C 0.13154 0.16187 0.73826 0.0
C521 C 0.10952 0.11915 0.74268 0.0
C522 C 0.16298 0.19249 0.74902 0.0
C523 C 0.17415 0.1807 0.76413 0.0
C524 C 0.15286 0.13763 0.76831 0.0
C525 C 0.12102 0.10701 0.75758 0.0
C526 C 0.20761 0.2134 0.7756 0.0
C527 C 0.19831 0.21456 0.79239 0.0
C528 C 0.2478 0.2445 0.76993 0.0
C529 C 0.26106 0.24329 0.75272 0.0
C530 C 0.25974 0.20662 0.74633 0.0
C531 C 0.27174 0.20548 0.73004 0.0
C532 C 0.28542 0.24093 0.72005 0.0
C533 C 0.28723 0.27764 0.72634 0.0
C534 C 0.27523 0.27894 0.74263 0.0
C535 C 0.3517 0.33359 0.83215 0.0
C536 C 0.36411 0.37631 0.82959 0.0
C537 C 0.31967 0.30146 0.82196 0.0
C538 C 0.30009 0.31166 0.80893 0.0
C539 C 0.31256 0.35428 0.80631 0.0
C540 C 0.34402 0.38633 0.81666 0.0
C541 C 0.26729 0.27795 0.79772 0.0
C542 C 0.2768 0.27672 0.78101 0.0
C543 C 0.22766 0.24644 0.80353 0.0
C544 C 0.21572 0.24665 0.82102 0.0
C545 C 0.21605 0.28236 0.82794 0.0
C546 C 0.20504 0.28241 0.84447 0.0
C547 C 0.19334 0.24681 0.85419 0.0
C548 C 0.19248 0.21102 0.84736 0.0
C549 C 0.2035 0.21083 0.83084 0.0
H550 H 0.18483 0.24691 0.86699 0.0
H551 H 0.29468 0.23997 0.70743 0.0
H552 H 0.93147 0.00721 0.6703 0.0
H553 H 0.87797 1.00129 0.64957 0.0
H554 H 0.88494 0.11386 0.67067 0.0
H555 H 0.93739 0.11935 0.69163 0.0
H556 H 0.80575 0.05571 0.66582 0.0
H557 H 0.92948 0.11281 0.63271 0.0
H558 H 0.99226 0.11581 0.62046 0.0
H559 H 0.91221 0.99503 0.59578 0.0
H560 H 0.84897 0.99104 0.60807 0.0
H561 H 0.70205 0.10447 0.60118 0.0
H562 H 0.75809 0.10703 0.61965 0.0
H563 H 0.72526 0.98152 0.60247 0.0
H564 H 0.66893 0.97871 0.58393 0.0
H565 H 0.81556 0.04218 0.60479 0.0
H566 H 0.6915 0.98765 0.63783 0.0
H567 H 0.62978 0.98756 0.64974 0.0
H568 H 0.71288 0.10775 0.67431 0.0
H569 H 0.77509 0.10887 0.66233 0.0
C570 C 0.92185 0.03089 0.67045 0.0
C571 C 0.93865 0.06366 0.68268 0.0
C572 C 0.89134 0.02755 0.65854 0.0
C573 C 0.87756 0.0573 0.65847 0.0
C574 C 0.89487 0.0904 0.6705 0.0
C575 C 0.92497 0.09352 0.68248 0.0
C576 C 0.84401 0.05331 0.64631 0.0
C577 C 0.80827 0.05329 0.65247 0.0
C578 C 0.84661 0.04907 0.62888 0.0
C579 C 0.88455 0.05141 0.62146 0.0
C580 C 0.9253 0.08672 0.62478 0.0
C581 C 0.96096 0.08864 0.61781 0.0
C582 C 0.95624 0.05557 0.60739 0.0
C583 C 0.91582 0.02058 0.60388 0.0
C584 C 0.88006 0.01849 0.61084 0.0
C585 C 0.70705 0.07759 0.60122 0.0
C586 C 0.6811 0.04134 0.59116 0.0
C587 C 0.73891 0.07902 0.61181 0.0
C588 C 0.74562 0.04438 0.61247 0.0
C589 C 0.72052 0.00855 0.60213 0.0
C590 C 0.68825 0.00688 0.59166 0.0
C591 C 0.77798 0.04525 0.62437 0.0
C592 C 0.81324 0.04453 0.61816 0.0
C593 C 0.77524 0.04923 0.64175 0.0
C594 C 0.73791 0.04853 0.64905 0.0
C595 C 0.69659 0.01424 0.64566 0.0
C596 C 0.66152 0.01397 0.65244 0.0
C597 C 0.6674 0.04768 0.66274 0.0
C598 C 0.70838 0.08169 0.66632 0.0
C599 C 0.74355 0.08214 0.65954 0.0
H600 H 0.64021 0.04741 0.66799 0.0
H601 H 0.98388 0.05712 0.60201 0.0
H602 H 0.91338 0.95695 0.02885 0.0
H603 H 0.85887 0.90107 0.01045 0.0
H604 H 0.94976 0.93792 0.97158 0.0
H605 H 0.00488 0.99188 0.99051 0.0
H606 H 0.82006 0.89793 0.98421 0.0
H607 H 0.92845 0.85755 0.9455 0.0
H608 H 0.99531 0.85625 0.9493 0.0
H609 H 0.97747 0.84208 0.002 0.0
H610 H 0.91026 0.84274 0.99849 0.0
H611 H 0.69774 0.77218 0.91441 0.0
H612 H 0.75426 0.82756 0.9324 0.0
H613 H 0.77668 0.73347 0.95535 0.0
H614 H 0.72145 0.67851 0.93687 0.0
H615 H 0.8484 0.79941 0.95165 0.0
H616 H 0.71828 0.77562 0.97405 0.0
H617 H 0.64763 0.7695 0.97399 0.0
H618 H 0.70293 0.8997 0.96004 0.0
H619 H 0.77381 0.90639 0.95976 0.0
C620 C 0.92146 0.95296 0.01634 0.0
C621 C 0.96279 0.97895 0.01087 0.0
C622 C 0.89039 0.9211 0.00583 0.0
C623 C 0.90011 0.91475 0.98961 0.0
C624 C 0.94156 0.94128 0.98413 0.0
C625 C 0.97293 0.97239 0.99484 0.0
C626 C 0.86683 0.88047 0.97852 0.0
C627 C 0.82651 0.8767 0.97701 0.0
C628 C 0.87438 0.85149 0.96952 0.0
C629 C 0.91457 0.85065 0.97174 0.0
C630 C 0.93873 0.854 0.95789 0.0
C631 C 0.9767 0.85341 0.95999 0.0
C632 C 0.9907 0.84923 0.97588 0.0
C633 C 0.96668 0.84547 0.9897 0.0
C634 C 0.92867 0.846 0.98766 0.0
C635 C 0.71489 0.76349 0.92329 0.0
C636 C 0.70526 0.72116 0.92432 0.0
C637 C 0.74703 0.79506 0.93361 0.0
C638 C 0.76933 0.78467 0.94547 0.0
C639 C 0.76005 0.74239 0.94631 0.0
C640 C 0.72848 0.71098 0.93578 0.0
C641 C 0.8021 0.81767 0.95709 0.0
C642 C 0.84225 0.8211 0.95871 0.0
C643 C 0.79392 0.84538 0.96666 0.0
C644 C 0.75128 0.84137 0.96673 0.0
C645 C 0.71531 0.80284 0.97084 0.0
C646 C 0.67523 0.79928 0.97088 0.0
C647 C 0.67078 0.83415 0.96697 0.0
C648 C 0.70642 0.87269 0.96304 0.0
C649 C 0.74655 0.87639 0.96295 0.0
H650 H 0.63972 0.83134 0.96702 0.0
H651 H 0.02012 0.84881 0.97749 0.0
H652 H 0.94099 0.91758 0.34694 0.0
H653 H 0.94022 0.86498 0.32747 0.0
H654 H 0.06083 0.96009 0.30919 0.0
H655 H 0.06253 0.01249 0.32899 0.0
H656 H 0.98821 0.89858 0.28386 0.0
H657 H 0.07515 0.90812 0.33273 0.0
H658 H 0.08849 0.90837 0.36303 0.0
H659 H 0.97974 0.78313 0.3657 0.0
H660 H 0.96531 0.78251 0.33542 0.0
H661 H 0.05635 0.77349 0.24171 0.0
H662 H 0.05156 0.82641 0.25873 0.0
H663 H 0.96387 0.72795 0.29041 0.0
H664 H 0.97078 0.67517 0.27416 0.0
H665 H 0.0174 0.79134 0.30893 0.0
H666 H 0.9319 0.77798 0.26032 0.0
H667 H 0.91523 0.77667 0.23024 0.0
H668 H 0.0157 0.90617 0.22696 0.0
H669 H 0.03336 0.90808 0.25698 0.0
C670 C 0.96699 0.92741 0.33858 0.0
C671 C 1.00188 0.96903 0.33948 0.0
C672 C 0.96654 0.89737 0.32752 0.0
C673 C 1.00051 0.90878 0.31696 0.0
C674 C 0.03432 0.95082 0.31723 0.0
C675 C 0.03528 0.9806 0.32856 0.0
C676 C 1.00222 0.87615 0.30652 0.0
C677 C 0.99498 0.87531 0.28924 0.0
C678 C 0.01003 0.84535 0.31369 0.0
C679 C 0.01883 0.8455 0.33186 0.0
C680 C 0.05381 0.88083 0.33981 0.0
C681 C 0.06164 0.881 0.35697 0.0
C682 C 0.03492 0.84584 0.3663 0.0
C683 C 1.00037 0.81039 0.35846 0.0
C684 C 0.99235 0.81011 0.3413 0.0
C685 C 0.03639 0.76302 0.2524 0.0
C686 C 0.01393 0.71985 0.2565 0.0
C687 C 0.03318 0.79336 0.262 0.0
C688 C 0.00676 0.7812 0.27572 0.0
C689 C 0.98431 0.73818 0.27984 0.0
C690 C 0.98793 0.70789 0.27039 0.0
C691 C 0.00341 0.81341 0.28605 0.0
C692 C 0.01039 0.8143 0.3034 0.0
C693 C 0.9949 0.84398 0.27891 0.0
C694 C 0.98419 0.84304 0.26087 0.0
C695 C 0.95063 0.80608 0.25316 0.0
C696 C 0.94098 0.80525 0.23612 0.0
C697 C 0.96446 0.84128 0.22669 0.0
C698 C 0.99757 0.87827 0.23428 0.0
C699 C 0.00739 0.87926 0.25131 0.0
H700 H 0.95695 0.84056 0.2135 0.0
H701 H 0.04104 0.84602 0.37958 0.0
H702 H 0.06009 0.96711 0.67082 0.0
H703 H 0.10637 0.9625 0.6504 0.0
H704 H 0.18285 0.09915 0.65071 0.0
H705 H 0.13626 0.10398 0.67077 0.0
H706 H 0.17397 0.06863 0.61998 0.0
H707 H 0.21251 0.03796 0.67377 0.0
H708 H 0.19993 1.00006 0.7002 0.0
H709 H 0.15879 0.883 0.67311 0.0
H710 H 0.1706 0.92015 0.6465 0.0
H711 H 0.37139 0.0983 0.59322 0.0
H712 H 0.31399 0.09603 0.60901 0.0
H713 H 0.24091 0.96003 0.60198 0.0
H714 H 0.29771 0.96202 0.58577 0.0
H715 H 0.24388 0.9857 0.63461 0.0
H716 H 0.21232 0.02008 0.58052 0.0
H717 H 0.2277 0.0605 0.55463 0.0
H718 H 0.25913 0.17353 0.58292 0.0
H719 H 0.24451 0.13395 0.60901 0.0
C720 C 0.08649 0.99616 0.66639 0.0
C721 C 0.09466 0.03589 0.6725 0.0
C722 C 0.11305 0.99349 0.65478 0.0
C723 C 0.14856 0.03048 0.64922 0.0
C724 C 0.15574 0.07017 0.65483 0.0
C725 C 0.12909 0.07287 0.66634 0.0
C726 C 0.17927 0.02805 0.63809 0.0
C727 C 0.18949 0.05075 0.62325 0.0
C728 C 0.19902 0.00411 0.64217 0.0
C729 C 0.19197 0.98173 0.65815 0.0
C730 C 0.20046 0.00407 0.67345 0.0
C731 C 0.19353 0.98274 0.68846 0.0
C732 C 0.17844 0.93912 0.68833 0.0
C733 C 0.17038 0.91677 0.67319 0.0
C734 C 0.17721 0.93795 0.65814 0.0
C735 C 0.34288 0.06792 0.59477 0.0
C736 C 0.33926 0.03034 0.58816 0.0
C737 C 0.31011 0.06669 0.60386 0.0
C738 C 0.27302 0.0279 0.60655 0.0
C739 C 0.26929 0.99031 0.60005 0.0
C740 C 0.30194 0.99152 0.59087 0.0
C741 C 0.23878 0.02654 0.6166 0.0
C742 C 0.22801 0.0032 0.63126 0.0
C743 C 0.21887 0.05022 0.61242 0.0
C744 C 0.22765 0.0741 0.59674 0.0
C745 C 0.22284 0.05363 0.58124 0.0
C746 C 0.23136 0.07638 0.56652 0.0
C747 C 0.24446 0.11956 0.56714 0.0
C748 C 0.24901 0.14008 0.58247 0.0
C749 C 0.24056 0.1175 0.59722 0.0
H750 H 0.25101 0.13711 0.55575 0.0
H751 H 0.1731 0.92267 0.69997 0.0
H752 H 0.13119 0.11006 1.00146 0.0
H753 H 0.18714 0.16101 0.98391 0.0
H754 H 0.15701 0.25698 0.99829 0.0
H755 H 0.09897 0.20496 0.0148 0.0
H756 H 0.16912 0.26444 0.9681 0.0
H757 H 0.25084 0.25196 0.01319 0.0
H758 H 0.27415 0.21553 0.03294 0.0
H759 H 0.3107 0.16535 0.9922 0.0
H760 H 0.28711 0.20107 0.97218 0.0
H761 H 0.36688 0.44069 0.94293 0.0
H762 H 0.31199 0.38846 0.96041 0.0
H763 H 0.30575 0.28705 0.93034 0.0
H764 H 0.35882 0.33883 0.91212 0.0
H765 H 0.31391 0.28322 0.96808 0.0
H766 H 0.23061 0.29975 0.92347 0.0
H767 H 0.21099 0.3421 0.90539 0.0
H768 H 0.18219 0.39237 0.9484 0.0
H769 H 0.20224 0.35074 0.96676 0.0
C770 C 0.13687 0.14217 1.00094 0.0
C771 C 0.11105 0.15376 0.00951 0.0
C772 C 0.16904 0.17143 0.99099 0.0
C773 C 0.17713 0.21336 0.98995 0.0
C774 C 0.15156 0.22495 0.99879 0.0
C775 C 0.11852 0.19531 0.00829 0.0
C776 C 0.21098 0.24469 0.97919 0.0
C777 C 0.2009 0.26881 0.96836 0.0
C778 C 0.25251 0.2503 0.97918 0.0
C779 C 0.26683 0.22887 0.99118 0.0
C780 C 0.26358 0.23293 0.00844 0.0
C781 C 0.27689 0.21244 0.01968 0.0
C782 C 0.29379 0.18805 0.01382 0.0
C783 C 0.29754 0.18421 0.99671 0.0
C784 C 0.28426 0.2046 0.98542 0.0
C785 C 0.35344 0.40735 0.93978 0.0
C786 C 0.36743 0.39421 0.92598 0.0
C787 C 0.32233 0.37756 0.94992 0.0
C788 C 0.305 0.33402 0.94665 0.0
C789 C 0.31906 0.32059 0.9331 0.0
C790 C 0.34962 0.35034 0.92276 0.0
C791 C 0.27173 0.30255 0.9573 0.0
C792 C 0.28202 0.27857 0.968 0.0
C793 C 0.23078 0.29778 0.95753 0.0
C794 C 0.21833 0.32247 0.94649 0.0
C795 C 0.22045 0.32012 0.92908 0.0
C796 C 0.20917 0.34393 0.91878 0.0
C797 C 0.19546 0.37 0.92574 0.0
C798 C 0.19286 0.3722 0.94302 0.0
C799 C 0.20414 0.34848 0.95338 0.0
H800 H 0.18675 0.38842 0.91775 0.0
H801 H 0.30406 0.17221 0.02255 0.0
H802 H 0.04045 0.20581 0.36598 0.0
H803 H 0.03351 0.24928 0.34447 0.0
H804 H 0.00649 0.15223 0.30729 0.0
H805 H 0.01241 0.10779 0.32889 0.0
H806 H 0.07389 0.24404 0.30043 0.0
H807 H 0.92805 0.15535 0.31523 0.0
H808 H 0.87008 0.12137 0.33493 0.0
H809 H 0.89808 0.24383 0.35347 0.0
H810 H 0.95669 0.27856 0.33405 0.0
H811 H 0.02764 0.35439 0.23815 0.0
H812 H 0.02475 0.2983 0.25566 0.0
H813 H 0.00583 0.35755 0.29876 0.0
H814 H 0.00696 0.41251 0.28114 0.0
H815 H 0.95743 0.27732 0.3007 0.0
H816 H 0.10525 0.36693 0.28919 0.0
H817 H 0.16723 0.40474 0.27153 0.0
H818 H 0.1408 0.28631 0.24908 0.0
H819 H 0.07831 0.24783 0.26647 0.0
C820 C 0.03305 0.19363 0.35324 0.0
C821 C 0.02697 0.15335 0.34912 0.0
C822 C 0.02898 0.21847 0.34099 0.0
C823 C 0.01942 0.20384 0.32436 0.0
C824 C 0.01385 0.16393 0.3201 0.0
C825 C 0.01707 0.1386 0.33244 0.0
C826 C 0.01553 0.23077 0.31154 0.0
C827 C 0.04803 0.25076 0.3002 0.0
C828 C 0.98243 0.24032 0.31168 0.0
C829 C 0.94701 0.21954 0.32329 0.0
C830 C 0.9221 0.17504 0.32361 0.0
C831 C 0.88907 0.15564 0.33471 0.0
C832 C 0.88047 0.18042 0.34547 0.0
C833 C 0.90481 0.22467 0.34513 0.0
C834 C 0.93791 0.24423 0.33407 0.0
C835 C 0.02281 0.35527 0.25137 0.0
C836 C 0.01763 0.38777 0.25833 0.0
C837 C 0.02132 0.32335 0.26138 0.0
C838 C 0.01577 0.32397 0.27863 0.0
C839 C 0.01007 0.35622 0.28551 0.0
C840 C 0.01076 0.38766 0.27545 0.0
C841 C 0.01625 0.29143 0.2896 0.0
C842 C 0.98311 0.27037 0.30068 0.0
C843 C 0.04926 0.28151 0.28942 0.0
C844 C 0.08684 0.30456 0.27898 0.0
C845 C 0.11248 0.34899 0.28039 0.0
C846 C 0.14772 0.37053 0.27045 0.0
C847 C 0.15787 0.34795 0.25915 0.0
C848 C 0.13285 0.30376 0.25781 0.0
C849 C 0.09753 0.28207 0.26771 0.0
H850 H 0.18517 0.36469 0.25147 0.0
H851 H 0.85488 0.16534 0.35405 0.0
loop_
_geom_bond_atom_site_label_1
_geom_bond_atom_site_label_2
_geom_bond_distance
_geom_bond_site_symmetry_2
_ccdc_geom_bond_type
Mn0 O5 2.095 . S
Mn0 O15 2.162 . S
Mn0 O16 2.297 1_545 S
Mn0 O24 2.385 1_545 S
Mn0 O25 2.209 1_455 S
Mn0 O26 2.094 . S
Mn1 O6 2.121 . S
Mn1 N8 2.257 1_455 S
Mn1 N17 2.282 1_454 S
Mn1 O25 2.215 1_455 S
Mn1 O27 2.117 . S
C2 O24 1.234 1_655 S
C2 O25 1.283 1_565 S
C3 O15 1.281 1_565 S
C3 O16 1.236 . S
C4 O26 1.240 . S
C4 O27 1.264 . S
O5 Mn0 2.095 . S
O5 C14 1.250 . S
O6 Mn1 2.121 . S
O6 C14 1.258 . S
C7 N8 1.326 . S
C7 C11 1.460 . S
C7 H13 0.929 . S
N8 Mn1 2.257 1_655 S
N8 C7 1.326 . S
N8 C12 1.362 . S
C9 C10 1.263 . S
C9 C12 1.432 . S
C9 C29 1.441 1_554 S
C10 C9 1.263 . S
C10 C11 1.477 . S
C10 H30 0.931 . S
C11 C7 1.460 . S
C11 C10 1.477 . S
C11 H31 0.930 . S
C12 N8 1.362 . S
C12 C9 1.432 . S
C12 C22 1.476 1_554 S
H13 C7 0.929 . S
C14 O5 1.250 . S
C14 O6 1.258 . S
O15 Mn0 2.162 . S
O15 C3 1.281 1_545 S
O16 Mn0 2.297 1_565 S
O16 C3 1.236 . S
N17 Mn1 2.282 1_656 S
N17 C18 1.328 1_655 S
N17 C22 1.318 . S
C18 N17 1.328 1_455 S
C18 C19 1.457 1_455 S
C18 H23 0.929 . S
C19 C18 1.457 1_655 S
C19 C20 1.291 . S
C19 H32 0.931 1_655 S
C20 C19 1.291 . S
C20 C21 1.373 . S
C20 H33 0.929 . S
C21 C20 1.373 . S
C21 C22 1.396 . S
C21 C28 1.403 . S
C22 C12 1.476 1_556 S
C22 N17 1.318 . S
C22 C21 1.396 . S
H23 C18 0.929 . S
O24 Mn0 2.385 1_565 S
O24 C2 1.234 1_455 S
O25 Mn0 2.209 1_655 S
O25 Mn1 2.215 1_655 S
O25 C2 1.283 1_545 S
O26 Mn0 2.094 . S
O26 C4 1.240 . S
O27 Mn1 2.117 . S
O27 C4 1.264 . S
C28 C21 1.403 . S
C28 C29 1.399 . S
C28 H34 0.929 . S
C29 C9 1.441 1_556 S
C29 C28 1.399 . S
C29 H35 0.930 . S
H30 C10 0.931 . S
H31 C11 0.930 . S
H32 C19 0.931 1_455 S
H33 C20 0.929 . S
H34 C28 0.929 . S
H35 C29 0.930 . S
Mn36 O41 2.095 . S
Mn36 O51 2.162 1_545 S
Mn36 O52 2.297 1_655 S
Mn36 O60 2.385 1_655 S
Mn36 O61 2.209 1_655 S
Mn36 O62 2.094 . S
Mn37 O42 2.121 . S
Mn37 N44 2.257 . S
Mn37 N53 2.282 . S
Mn37 O61 2.215 . S
Mn37 O63 2.117 1_455 S
C38 O60 1.234 . S
C38 O61 1.283 . S
C39 O51 1.281 1_455 S
C39 O52 1.236 1_565 S
C40 O62 1.240 . S
C40 O63 1.264 . S
O41 Mn36 2.095 . S
O41 C50 1.250 1_655 S
O42 Mn37 2.121 . S
O42 C50 1.258 . S
C43 N44 1.326 . S
C43 C47 1.460 . S
C43 H49 0.929 . S
N44 Mn37 2.257 . S
N44 C43 1.326 . S
N44 C48 1.362 . S
C45 C46 1.258 . S
C45 C48 1.431 . S
C45 C65 1.449 . S
C46 C45 1.258 . S
C46 C47 1.477 . S
C46 H66 0.931 . S
C47 C43 1.460 . S
C47 C46 1.477 . S
C47 H67 0.930 . S
C48 N44 1.362 . S
C48 C45 1.431 . S
C48 C58 1.476 . S
H49 C43 0.929 . S
C50 O41 1.250 1_455 S
C50 O42 1.258 . S
O51 Mn36 2.162 1_565 S
O51 C39 1.281 1_655 S
O52 Mn36 2.297 1_455 S
O52 C39 1.236 1_545 S
N53 Mn37 2.282 . S
N53 C54 1.328 . S
N53 C58 1.318 . S
C54 N53 1.328 . S
C54 C55 1.457 . S
C54 H59 0.929 . S
C55 C54 1.457 . S
C55 C56 1.291 . S
C55 H68 0.931 . S
C56 C55 1.291 . S
C56 C57 1.373 . S
C56 H69 0.929 . S
C57 C56 1.373 . S
C57 C58 1.396 . S
C57 C64 1.403 . S
C58 C48 1.476 . S
C58 N53 1.318 . S
C58 C57 1.396 . S
H59 C54 0.929 . S
O60 Mn36 2.385 1_455 S
O60 C38 1.234 . S
O61 Mn36 2.209 1_455 S
O61 Mn37 2.215 . S
O61 C38 1.283 . S
O62 Mn36 2.094 . S
O62 C40 1.240 . S
O63 Mn37 2.117 1_655 S
O63 C40 1.264 . S
C64 C57 1.403 . S
C64 C65 1.399 . S
C64 H70 0.929 . S
C65 C45 1.449 . S
C65 C64 1.399 . S
C65 H71 0.930 . S
H66 C46 0.931 . S
H67 C47 0.930 . S
H68 C55 0.931 . S
H69 C56 0.929 . S
H70 C64 0.929 . S
H71 C65 0.930 . S
Mn72 O77 2.095 1_455 S
Mn72 O87 2.162 . S
Mn72 O88 2.297 . S
Mn72 O96 2.385 . S
Mn72 O97 2.209 . S
Mn72 O98 2.094 1_445 S
Mn73 O78 2.121 . S
Mn73 N80 2.257 . S
Mn73 N89 2.282 1_655 S
Mn73 O97 2.215 1_655 S
Mn73 O99 2.117 . S
C74 O96 1.234 . S
C74 O97 1.283 . S
C75 O87 1.281 . S
C75 O88 1.236 . S
C76 O98 1.240 . S
C76 O99 1.264 1_565 S
O77 Mn72 2.095 1_655 S
O77 C86 1.250 . S
O78 Mn73 2.121 . S
O78 C86 1.258 . S
C79 N80 1.326 . S
C79 C83 1.460 1_655 S
C79 H85 0.929 . S
N80 Mn73 2.257 . S
N80 C79 1.326 . S
N80 C84 1.362 1_655 S
C81 C82 1.258 . S
C81 C84 1.431 . S
C81 C101 1.449 . S
C82 C81 1.258 . S
C82 C83 1.477 . S
C82 H102 0.931 . S
C83 C79 1.460 1_455 S
C83 C82 1.477 . S
C83 H103 0.930 1_455 S
C84 N80 1.362 1_455 S
C84 C81 1.431 . S
C84 C94 1.476 . S
H85 C79 0.929 . S
C86 O77 1.250 . S
C86 O78 1.258 . S
O87 Mn72 2.162 . S
O87 C75 1.281 . S
O88 Mn72 2.297 . S
O88 C75 1.236 . S
N89 Mn73 2.282 1_455 S
N89 C90 1.328 . S
N89 C94 1.318 . S
C90 N89 1.328 . S
C90 C91 1.457 . S
C90 H95 0.930 1_455 S
C91 C90 1.457 . S
C91 C92 1.291 . S
C91 H104 0.931 . S
C92 C91 1.291 . S
C92 C93 1.373 . S
C92 H105 0.929 . S
C93 C92 1.373 . S
C93 C94 1.396 . S
C93 C100 1.403 . S
C94 C84 1.476 . S
C94 N89 1.318 . S
C94 C93 1.396 . S
H95 C90 0.930 1_655 S
O96 Mn72 2.385 . S
O96 C74 1.234 . S
O97 Mn72 2.209 . S
O97 Mn73 2.215 1_455 S
O97 C74 1.283 . S
O98 Mn72 2.094 1_665 S
O98 C76 1.240 . S
O99 Mn73 2.117 . S
O99 C76 1.264 1_545 S
C100 C93 1.403 . S
C100 C101 1.399 . S
C100 H106 0.929 . S
C101 C81 1.449 . S
C101 C100 1.399 . S
C101 H107 0.930 . S
H102 C82 0.931 . S
H103 C83 0.930 1_655 S
H104 C91 0.931 . S
H105 C92 0.929 . S
H106 C100 0.929 . S
H107 C101 0.930 . S
H108 C127 0.949 . S
H109 C128 0.950 . S
H110 C130 0.950 . S
H111 C131 0.950 . S
H112 C133 0.950 . S
H113 C136 0.950 . S
H114 C137 0.950 . S
H115 C139 0.951 . S
H116 C140 0.949 . S
H117 C142 0.949 . S
H118 C143 0.950 . S
H119 C145 0.950 . S
H120 C146 0.950 . S
H121 C148 0.950 . S
H122 C151 0.950 . S
H123 C152 0.950 1_655 S
H124 C154 0.951 . S
H125 C155 0.949 . S
C126 C127 1.376 . S
C126 C131 1.386 1_455 S
C126 C132 1.483 . S
C127 H108 0.949 . S
C127 C126 1.376 . S
C127 C128 1.397 . S
C128 H109 0.950 . S
C128 C127 1.397 . S
C128 C129 1.391 . S
C129 C128 1.391 . S
C129 C130 1.405 1_455 S
C130 H110 0.950 . S
C130 C129 1.405 1_655 S
C130 C131 1.367 . S
C131 H111 0.950 . S
C131 C126 1.386 1_655 S
C131 C130 1.367 . S
C132 C126 1.483 . S
C132 C133 1.382 . S
C132 C134 1.403 . S
C133 H112 0.950 . S
C133 C132 1.382 . S
C133 C149 1.411 . S
C134 C132 1.403 . S
C134 C135 1.489 . S
C134 C148 1.411 . S
C135 C134 1.489 . S
C135 C136 1.383 . S
C135 C140 1.382 1_455 S
C136 H113 0.950 . S
C136 C135 1.383 . S
C136 C137 1.395 . S
C137 H114 0.950 . S
C137 C136 1.395 . S
C137 C138 1.288 . S
C138 C137 1.288 . S
C138 C139 1.392 1_455 S
C139 H115 0.951 . S
C139 C138 1.392 1_655 S
C139 C140 1.392 . S
C140 H116 0.949 . S
C140 C135 1.382 1_655 S
C140 C139 1.392 . S
C141 C142 1.376 1_455 S
C141 C146 1.386 . S
C141 C147 1.483 . S
C142 H117 0.949 . S
C142 C141 1.376 1_655 S
C142 C143 1.397 . S
C143 H118 0.950 . S
C143 C142 1.397 . S
C143 C144 1.391 1_655 S
C144 C143 1.391 1_455 S
C144 C145 1.405 . S
C145 H119 0.950 . S
C145 C144 1.405 . S
C145 C146 1.367 . S
C146 H120 0.950 . S
C146 C141 1.386 . S
C146 C145 1.367 . S
C147 C141 1.483 . S
C147 C148 1.382 . S
C147 C149 1.403 . S
C148 H121 0.950 . S
C148 C134 1.411 . S
C148 C147 1.382 . S
C149 C133 1.411 . S
C149 C147 1.403 . S
C149 C150 1.489 . S
C150 C149 1.489 . S
C150 C151 1.383 1_455 S
C150 C155 1.382 . S
C151 H122 0.950 . S
C151 C150 1.383 1_655 S
C151 C152 1.395 1_655 S
C152 H123 0.950 1_455 S
C152 C151 1.395 1_455 S
C152 C153 1.288 . S
C153 C152 1.288 . S
C153 C154 1.392 . S
C154 H124 0.951 . S
C154 C153 1.392 . S
C154 C155 1.392 . S
C155 H125 0.949 . S
C155 C150 1.382 . S
C155 C154 1.392 . S
H156 C175 0.949 . S
H157 C176 0.950 . S
H158 C178 0.950 . S
H159 C179 0.950 . S
H160 C181 0.950 . S
H161 C184 0.950 . S
H162 C185 0.950 . S
H163 C187 0.951 . S
H164 C188 0.949 . S
H165 C190 0.949 . S
H166 C191 0.950 . S
H167 C193 0.950 . S
H168 C194 0.950 . S
H169 C196 0.950 . S
H170 C199 0.950 . S
H171 C200 0.950 . S
H172 C202 0.951 . S
H173 C203 0.949 . S
C174 C175 1.376 . S
C174 C179 1.386 . S
C174 C180 1.483 . S
C175 H156 0.949 . S
C175 C174 1.376 . S
C175 C176 1.397 . S
C176 H157 0.950 . S
C176 C175 1.397 . S
C176 C177 1.391 . S
C177 C176 1.391 . S
C177 C178 1.405 . S
C178 H158 0.950 . S
C178 C177 1.405 . S
C178 C179 1.367 . S
C179 H159 0.950 . S
C179 C174 1.386 . S
C179 C178 1.367 . S
C180 C174 1.483 . S
C180 C181 1.382 . S
C180 C182 1.403 . S
C181 H160 0.950 . S
C181 C180 1.382 . S
C181 C197 1.411 . S
C182 C180 1.403 . S
C182 C183 1.489 . S
C182 C196 1.411 . S
C183 C182 1.489 . S
C183 C184 1.383 . S
C183 C188 1.382 . S
C184 H161 0.950 . S
C184 C183 1.383 . S
C184 C185 1.395 . S
C185 H162 0.950 . S
C185 C184 1.395 . S
C185 C186 1.288 . S
C186 C185 1.288 . S
C186 C187 1.392 . S
C187 H163 0.951 . S
C187 C186 1.392 . S
C187 C188 1.392 . S
C188 H164 0.949 . S
C188 C183 1.382 . S
C188 C187 1.392 . S
C189 C190 1.376 . S
C189 C194 1.386 . S
C189 C195 1.483 . S
C190 H165 0.949 . S
C190 C189 1.376 . S
C190 C191 1.397 . S
C191 H166 0.950 . S
C191 C190 1.397 . S
C191 C192 1.391 . S
C192 C191 1.391 . S
C192 C193 1.405 . S
C193 H167 0.950 . S
C193 C192 1.405 . S
C193 C194 1.367 . S
C194 H168 0.950 . S
C194 C189 1.386 . S
C194 C193 1.367 . S
C195 C189 1.483 . S
C195 C196 1.382 . S
C195 C197 1.403 . S
C196 H169 0.950 . S
C196 C182 1.411 . S
C196 C195 1.382 . S
C197 C181 1.411 . S
C197 C195 1.403 . S
C197 C198 1.489 . S
C198 C197 1.489 . S
C198 C199 1.383 . S
C198 C203 1.382 . S
C199 H170 0.950 . S
C199 C198 1.383 . S
C199 C200 1.395 . S
C200 H171 0.950 . S
C200 C199 1.395 . S
C200 C201 1.288 . S
C201 C200 1.288 . S
C201 C202 1.392 . S
C202 H172 0.951 . S
C202 C201 1.392 . S
C202 C203 1.392 . S
C203 H173 0.949 . S
C203 C198 1.382 . S
C203 C202 1.392 . S
H204 C223 0.949 . S
H205 C224 0.950 . S
H206 C226 0.950 . S
H207 C227 0.950 . S
H208 C229 0.950 . S
H209 C232 0.950 . S
H210 C233 0.950 . S
H211 C235 0.951 . S
H212 C236 0.949 . S
H213 C238 0.949 . S
H214 C239 0.950 . S
H215 C241 0.950 . S
H216 C242 0.950 . S
H217 C244 0.950 . S
H218 C247 0.950 . S
H219 C248 0.950 . S
H220 C250 0.951 . S
H221 C251 0.949 . S
C222 C223 1.376 . S
C222 C227 1.386 . S
C222 C228 1.483 . S
C223 H204 0.949 . S
C223 C222 1.376 . S
C223 C224 1.397 . S
C224 H205 0.950 . S
C224 C223 1.397 . S
C224 C225 1.391 . S
C225 C224 1.391 . S
C225 C226 1.405 . S
C226 H206 0.950 . S
C226 C225 1.405 . S
C226 C227 1.367 . S
C227 H207 0.950 . S
C227 C222 1.386 . S
C227 C226 1.367 . S
C228 C222 1.483 . S
C228 C229 1.382 . S
C228 C230 1.403 . S
C229 H208 0.950 . S
C229 C228 1.382 . S
C229 C245 1.411 . S
C230 C228 1.403 . S
C230 C231 1.489 . S
C230 C244 1.411 . S
C231 C230 1.489 . S
C231 C232 1.383 . S
C231 C236 1.382 . S
C232 H209 0.950 . S
C232 C231 1.383 . S
C232 C233 1.395 . S
C233 H210 0.950 . S
C233 C232 1.395 . S
C233 C234 1.288 . S
C234 C233 1.288 . S
C234 C235 1.392 . S
C235 H211 0.951 . S
C235 C234 1.392 . S
C235 C236 1.392 . S
C236 H212 0.949 . S
C236 C231 1.382 . S
C236 C235 1.392 . S
C237 C238 1.376 . S
C237 C242 1.386 . S
C237 C243 1.483 . S
C238 H213 0.949 . S
C238 C237 1.376 . S
C238 C239 1.397 . S
C239 H214 0.950 . S
C239 C238 1.397 . S
C239 C240 1.391 . S
C240 C239 1.391 . S
C240 C241 1.405 . S
C241 H215 0.950 . S
C241 C240 1.405 . S
C241 C242 1.367 . S
C242 H216 0.950 . S
C242 C237 1.386 . S
C242 C241 1.367 . S
C243 C237 1.483 . S
C243 C244 1.382 . S
C243 C245 1.403 . S
C244 H217 0.950 . S
C244 C230 1.411 . S
C244 C243 1.382 . S
C245 C229 1.411 . S
C245 C243 1.403 . S
C245 C246 1.489 . S
C246 C245 1.489 . S
C246 C247 1.383 . S
C246 C251 1.382 . S
C247 H218 0.950 . S
C247 C246 1.383 . S
C247 C248 1.395 . S
C248 H219 0.950 . S
C248 C247 1.395 . S
C248 C249 1.288 . S
C249 C248 1.288 . S
C249 C250 1.392 . S
C250 H220 0.951 . S
C250 C249 1.392 . S
C250 C251 1.392 . S
C251 H221 0.949 . S
C251 C246 1.382 . S
C251 C250 1.392 . S
H252 C270 0.951 . S
H253 C272 0.951 . S
H254 C274 0.950 . S
H255 C275 0.950 . S
H256 C277 0.950 . S
H257 C280 0.950 . S
H258 C281 0.950 . S
H259 C283 0.950 . S
H260 C284 0.950 . S
H261 C285 0.951 . S
H262 C287 0.951 . S
H263 C289 0.950 . S
H264 C290 0.950 . S
H265 C292 0.950 . S
H266 C295 0.950 1_455 S
H267 C296 0.950 . S
H268 C298 0.950 . S
H269 C299 0.950 . S
C270 H252 0.951 . S
C270 C271 1.366 . S
C270 C272 1.388 . S
C271 C270 1.366 . S
C271 C275 1.385 1_455 S
C272 H253 0.951 . S
C272 C270 1.388 . S
C272 C273 1.366 . S
C273 C272 1.366 . S
C273 C274 1.414 1_455 S
C273 C276 1.499 . S
C274 H254 0.950 . S
C274 C273 1.414 1_655 S
C274 C275 1.374 . S
C275 H255 0.950 . S
C275 C271 1.385 1_655 S
C275 C274 1.374 . S
C276 C273 1.499 . S
C276 C277 1.373 1_455 S
C276 C278 1.389 . S
C277 H256 0.950 . S
C277 C276 1.373 1_655 S
C277 C293 1.377 . S
C278 C276 1.389 . S
C278 C279 1.524 . S
C278 C292 1.377 . S
C279 C278 1.524 . S
C279 C280 1.397 . S
C279 C284 1.363 . S
C280 H257 0.950 . S
C280 C279 1.397 . S
C280 C281 1.334 . S
C281 H258 0.950 . S
C281 C280 1.334 . S
C281 C282 1.287 . S
C282 C281 1.287 . S
C282 C283 1.524 . S
C282 H301 0.913 . S
C283 H259 0.950 . S
C283 C282 1.524 . S
C283 C284 1.415 . S
C284 H260 0.950 . S
C284 C279 1.363 . S
C284 C283 1.415 . S
C285 H261 0.951 . S
C285 C286 1.366 1_655 S
C285 C287 1.388 . S
C286 C285 1.366 1_455 S
C286 C290 1.385 . S
C287 H262 0.951 . S
C287 C285 1.388 . S
C287 C288 1.366 1_655 S
C288 C287 1.366 1_455 S
C288 C289 1.414 . S
C288 C291 1.499 . S
C289 H263 0.950 . S
C289 C288 1.414 . S
C289 C290 1.374 . S
C290 H264 0.950 . S
C290 C286 1.385 . S
C290 C289 1.374 . S
C291 C288 1.499 . S
C291 C292 1.373 . S
C291 C293 1.389 1_455 S
C292 H265 0.950 . S
C292 C278 1.377 . S
C292 C291 1.373 . S
C293 C277 1.377 . S
C293 C291 1.389 1_655 S
C293 C294 1.524 . S
C294 C293 1.524 . S
C294 C295 1.397 . S
C294 C299 1.363 . S
C295 H266 0.950 1_655 S
C295 C294 1.397 . S
C295 C296 1.334 . S
C296 H267 0.950 . S
C296 C295 1.334 . S
C296 C297 1.287 . S
C297 C296 1.287 . S
C297 C298 1.524 . S
C297 H300 0.999 . S
C298 H268 0.950 . S
C298 C297 1.524 . S
C298 C299 1.415 . S
C299 H269 0.950 . S
C299 C294 1.363 . S
C299 C298 1.415 . S
H300 C297 0.999 . S
H301 C282 0.913 . S
H302 C320 0.951 . S
H303 C322 0.951 . S
H304 C324 0.950 1_565 S
H305 C325 0.950 1_565 S
H306 C327 0.950 1_565 S
H307 C330 0.950 . S
H308 C331 0.950 . S
H309 C333 0.950 . S
H310 C334 0.950 . S
H311 C335 0.951 . S
H312 C337 0.942 1_565 S
H313 C339 0.950 . S
H314 C340 0.950 . S
H315 C342 0.950 . S
H316 C345 0.950 1_545 S
H317 C346 0.950 . S
H318 C348 0.950 . S
H319 C349 0.950 . S
C320 H302 0.951 . S
C320 C321 1.366 . S
C320 C322 1.388 . S
C321 C320 1.366 . S
C321 C325 1.385 . S
C322 H303 0.951 . S
C322 C320 1.388 . S
C322 C323 1.366 . S
C323 C322 1.366 . S
C323 C324 1.414 . S
C323 C326 1.499 . S
C324 H304 0.950 1_545 S
C324 C323 1.414 . S
C324 C325 1.374 . S
C325 H305 0.950 1_545 S
C325 C321 1.385 . S
C325 C324 1.374 . S
C326 C323 1.499 . S
C326 C327 1.373 . S
C326 C328 1.389 . S
C327 H306 0.950 1_545 S
C327 C326 1.373 . S
C327 C343 1.377 . S
C328 C326 1.389 . S
C328 C329 1.524 . S
C328 C342 1.377 . S
C329 C328 1.524 . S
C329 C330 1.397 . S
C329 C334 1.363 . S
C330 H307 0.950 . S
C330 C329 1.397 . S
C330 C331 1.334 . S
C331 H308 0.950 . S
C331 C330 1.334 . S
C331 C332 1.287 . S
C332 C331 1.287 . S
C332 C333 1.524 . S
C332 H351 0.913 . S
C333 H309 0.950 . S
C333 C332 1.524 . S
C333 C334 1.415 . S
C334 H310 0.950 . S
C334 C329 1.363 . S
C334 C333 1.415 . S
C335 H311 0.951 . S
C335 C336 1.366 . S
C335 C337 1.388 . S
C336 C335 1.366 . S
C336 C340 1.385 . S
C337 H312 0.942 1_545 S
C337 C335 1.388 . S
C337 C338 1.366 . S
C338 C337 1.366 . S
C338 C339 1.414 . S
C338 C341 1.499 . S
C339 H313 0.950 . S
C339 C338 1.414 . S
C339 C340 1.374 . S
C340 H314 0.950 . S
C340 C336 1.385 . S
C340 C339 1.374 . S
C341 C338 1.499 . S
C341 C342 1.373 . S
C341 C343 1.389 . S
C342 H315 0.950 . S
C342 C328 1.377 . S
C342 C341 1.373 . S
C343 C327 1.377 . S
C343 C341 1.389 . S
C343 C344 1.524 1_545 S
C344 C343 1.524 1_565 S
C344 C345 1.397 . S
C344 C349 1.363 . S
C345 H316 0.950 1_565 S
C345 C344 1.397 . S
C345 C346 1.334 . S
C346 H317 0.950 . S
C346 C345 1.334 . S
C346 C347 1.287 . S
C347 C346 1.287 . S
C347 C348 1.524 . S
C347 H350 0.999 . S
C348 H318 0.950 . S
C348 C347 1.524 . S
C348 C349 1.415 . S
C349 H319 0.950 . S
C349 C344 1.363 . S
C349 C348 1.415 . S
H350 C347 0.999 . S
H351 C332 0.913 . S
H352 C370 0.951 . S
H353 C372 0.951 . S
H354 C374 0.950 . S
H355 C375 0.950 . S
H356 C377 0.950 . S
H357 C380 0.950 . S
H358 C381 0.950 1_545 S
H359 C383 0.950 . S
H360 C384 0.950 . S
H361 C385 0.951 . S
H362 C387 0.951 . S
H363 C389 0.950 . S
H364 C390 0.950 . S
H365 C392 0.950 . S
H366 C395 0.950 . S
H367 C396 0.950 . S
H368 C398 0.950 . S
H369 C399 0.950 . S
C370 H352 0.951 . S
C370 C371 1.366 . S
C370 C372 1.388 . S
C371 C370 1.366 . S
C371 C375 1.385 . S
C372 H353 0.951 . S
C372 C370 1.388 . S
C372 C373 1.366 . S
C373 C372 1.366 . S
C373 C374 1.414 . S
C373 C376 1.499 . S
C374 H354 0.950 . S
C374 C373 1.414 . S
C374 C375 1.374 . S
C375 H355 0.950 . S
C375 C371 1.385 . S
C375 C374 1.374 . S
C376 C373 1.499 . S
C376 C377 1.373 . S
C376 C378 1.389 . S
C377 H356 0.950 . S
C377 C376 1.373 . S
C377 C393 1.377 . S
C378 C376 1.389 . S
C378 C379 1.524 . S
C378 C392 1.377 . S
C379 C378 1.524 . S
C379 C380 1.397 . S
C379 C384 1.363 . S
C380 H357 0.950 . S
C380 C379 1.397 . S
C380 C381 1.334 . S
C381 H358 0.950 1_565 S
C381 C380 1.334 . S
C381 C382 1.287 . S
C382 C381 1.287 . S
C382 C383 1.524 . S
C382 H401 0.913 1_565 S
C383 H359 0.950 . S
C383 C382 1.524 . S
C383 C384 1.415 . S
C384 H360 0.950 . S
C384 C379 1.363 . S
C384 C383 1.415 . S
C385 H361 0.951 . S
C385 C386 1.366 . S
C385 C387 1.388 . S
C386 C385 1.366 . S
C386 C390 1.385 . S
C387 H362 0.951 . S
C387 C385 1.388 . S
C387 C388 1.366 . S
C388 C387 1.366 . S
C388 C389 1.414 . S
C388 C391 1.499 . S
C389 H363 0.950 . S
C389 C388 1.414 . S
C389 C390 1.374 . S
C390 H364 0.950 . S
C390 C386 1.385 . S
C390 C389 1.374 . S
C391 C388 1.499 . S
C391 C392 1.373 . S
C391 C393 1.389 . S
C392 H365 0.950 . S
C392 C378 1.377 . S
C392 C391 1.373 . S
C393 C377 1.377 . S
C393 C391 1.389 . S
C393 C394 1.524 . S
C394 C393 1.524 . S
C394 C395 1.397 . S
C394 C399 1.363 . S
C395 H366 0.950 . S
C395 C394 1.397 . S
C395 C396 1.334 . S
C396 H367 0.950 . S
C396 C395 1.334 . S
C396 C397 1.287 . S
C397 C396 1.287 . S
C397 C398 1.524 . S
C397 H400 0.999 . S
C398 H368 0.950 . S
C398 C397 1.524 . S
C398 C399 1.415 . S
C399 H369 0.950 . S
C399 C394 1.363 . S
C399 C398 1.415 . S
H400 C397 0.999 . S
H401 C382 0.913 1_545 S
H402 C420 0.951 . S
H403 C422 0.951 . S
H404 C424 0.950 . S
H405 C425 0.950 . S
H406 C427 0.950 . S
H407 C430 0.950 . S
H408 C431 0.950 1_545 S
H409 C433 0.950 . S
H410 C434 0.950 . S
H411 C435 0.951 . S
H412 C437 0.951 . S
H413 C439 0.950 1_655 S
H414 C440 0.950 1_655 S
H415 C442 0.950 . S
H416 C445 0.950 . S
H417 C446 0.950 . S
H418 C448 0.950 . S
H419 C449 0.950 . S
C420 H402 0.951 . S
C420 C421 1.366 . S
C420 C422 1.388 . S
C421 C420 1.366 . S
C421 C425 1.385 . S
C422 H403 0.951 . S
C422 C420 1.388 . S
C422 C423 1.366 . S
C423 C422 1.366 . S
C423 C424 1.414 . S
C423 C426 1.499 . S
C424 H404 0.950 . S
C424 C423 1.414 . S
C424 C425 1.374 . S
C425 H405 0.950 . S
C425 C421 1.385 . S
C425 C424 1.374 . S
C426 C423 1.499 . S
C426 C427 1.373 . S
C426 C428 1.389 . S
C427 H406 0.950 . S
C427 C426 1.373 . S
C427 C443 1.377 . S
C428 C426 1.389 . S
C428 C429 1.524 . S
C428 C442 1.377 . S
C429 C428 1.524 . S
C429 C430 1.397 . S
C429 C434 1.363 . S
C430 H407 0.950 . S
C430 C429 1.397 . S
C430 C431 1.334 . S
C431 H408 0.950 1_565 S
C431 C430 1.334 . S
C431 C432 1.287 . S
C432 C431 1.287 . S
C432 C433 1.524 . S
C432 H451 0.913 1_565 S
C433 H409 0.950 . S
C433 C432 1.524 . S
C433 C434 1.415 . S
C434 H410 0.950 . S
C434 C429 1.363 . S
C434 C433 1.415 . S
C435 H411 0.951 . S
C435 C436 1.366 . S
C435 C437 1.388 . S
C436 C435 1.366 . S
C436 C440 1.385 . S
C437 H412 0.951 . S
C437 C435 1.388 . S
C437 C438 1.366 . S
C438 C437 1.366 . S
C438 C439 1.414 . S
C438 C441 1.499 . S
C439 H413 0.950 1_455 S
C439 C438 1.414 . S
C439 C440 1.374 . S
C440 H414 0.950 1_455 S
C440 C436 1.385 . S
C440 C439 1.374 . S
C441 C438 1.499 . S
C441 C442 1.373 . S
C441 C443 1.389 . S
C442 H415 0.950 . S
C442 C428 1.377 . S
C442 C441 1.373 . S
C443 C427 1.377 . S
C443 C441 1.389 . S
C443 C444 1.524 . S
C444 C443 1.524 . S
C444 C445 1.397 1_455 S
C444 C449 1.363 . S
C445 H416 0.950 . S
C445 C444 1.397 1_655 S
C445 C446 1.334 . S
C446 H417 0.950 . S
C446 C445 1.334 . S
C446 C447 1.287 . S
C447 C446 1.287 . S
C447 C448 1.524 1_655 S
C447 H450 0.999 . S
C448 H418 0.950 . S
C448 C447 1.524 1_455 S
C448 C449 1.415 . S
C449 H419 0.950 . S
C449 C444 1.363 . S
C449 C448 1.415 . S
H450 C447 0.999 . S
H451 C432 0.913 1_545 S
H452 C470 0.951 . S
H453 C472 0.951 . S
H454 C474 0.950 . S
H455 C475 0.950 . S
H456 C477 0.950 . S
H457 C480 0.950 . S
H458 C481 0.950 . S
H459 C483 0.950 . S
H460 C484 0.950 . S
H461 C485 0.951 . S
H462 C487 0.951 . S
H463 C489 0.950 . S
H464 C490 0.950 . S
H465 C492 0.950 . S
H466 C495 0.950 . S
H467 C496 0.950 . S
H468 C498 0.950 . S
H469 C499 0.950 . S
C470 H452 0.951 . S
C470 C471 1.366 . S
C470 C472 1.388 . S
C471 C470 1.366 . S
C471 C475 1.385 . S
C472 H453 0.951 . S
C472 C470 1.388 . S
C472 C473 1.366 . S
C473 C472 1.366 . S
C473 C474 1.414 . S
C473 C476 1.499 . S
C474 H454 0.950 . S
C474 C473 1.414 . S
C474 C475 1.374 . S
C475 H455 0.950 . S
C475 C471 1.385 . S
C475 C474 1.374 . S
C476 C473 1.499 . S
C476 C477 1.373 . S
C476 C478 1.389 . S
C477 H456 0.950 . S
C477 C476 1.373 . S
C477 C493 1.377 . S
C478 C476 1.389 . S
C478 C479 1.524 1_545 S
C478 C492 1.377 . S
C479 C478 1.524 1_565 S
C479 C480 1.397 . S
C479 C484 1.363 . S
C480 H457 0.950 . S
C480 C479 1.397 . S
C480 C481 1.334 . S
C481 H458 0.950 . S
C481 C480 1.334 . S
C481 C482 1.287 . S
C482 C481 1.287 . S
C482 C483 1.524 . S
C482 H501 0.913 . S
C483 H459 0.950 . S
C483 C482 1.524 . S
C483 C484 1.415 . S
C484 H460 0.950 . S
C484 C479 1.363 . S
C484 C483 1.415 . S
C485 H461 0.951 . S
C485 C486 1.366 . S
C485 C487 1.388 . S
C486 C485 1.366 . S
C486 C490 1.385 . S
C487 H462 0.951 . S
C487 C485 1.388 . S
C487 C488 1.366 . S
C488 C487 1.366 . S
C488 C489 1.414 . S
C488 C491 1.499 . S
C489 H463 0.950 . S
C489 C488 1.414 . S
C489 C490 1.374 . S
C490 H464 0.950 . S
C490 C486 1.385 . S
C490 C489 1.374 . S
C491 C488 1.499 . S
C491 C492 1.373 . S
C491 C493 1.389 . S
C492 H465 0.950 . S
C492 C478 1.377 . S
C492 C491 1.373 . S
C493 C477 1.377 . S
C493 C491 1.389 . S
C493 C494 1.524 . S
C494 C493 1.524 . S
C494 C495 1.397 . S
C494 C499 1.363 . S
C495 H466 0.950 . S
C495 C494 1.397 . S
C495 C496 1.334 . S
C496 H467 0.950 . S
C496 C495 1.334 . S
C496 C497 1.287 . S
C497 C496 1.287 . S
C497 C498 1.524 . S
C497 H500 0.999 . S
C498 H468 0.950 . S
C498 C497 1.524 . S
C498 C499 1.415 . S
C499 H469 0.950 . S
C499 C494 1.363 . S
C499 C498 1.415 . S
H500 C497 0.999 . S
H501 C482 0.913 . S
H502 C520 0.951 . S
H503 C522 0.951 . S
H504 C524 0.950 . S
H505 C525 0.950 . S
H506 C527 0.950 . S
H507 C530 0.950 . S
H508 C531 0.950 . S
H509 C533 0.950 . S
H510 C534 0.950 . S
H511 C535 0.951 . S
H512 C537 0.951 . S
H513 C539 0.950 . S
H514 C540 0.950 . S
H515 C542 0.950 . S
H516 C545 0.950 . S
H517 C546 0.950 . S
H518 C548 0.950 . S
H519 C549 0.950 . S
C520 H502 0.951 . S
C520 C521 1.366 . S
C520 C522 1.388 . S
C521 C520 1.366 . S
C521 C525 1.385 . S
C522 H503 0.951 . S
C522 C520 1.388 . S
C522 C523 1.366 . S
C523 C522 1.366 . S
C523 C524 1.414 . S
C523 C526 1.499 . S
C524 H504 0.950 . S
C524 C523 1.414 . S
C524 C525 1.374 . S
C525 H505 0.950 . S
C525 C521 1.385 . S
C525 C524 1.374 . S
C526 C523 1.499 . S
C526 C527 1.373 . S
C526 C528 1.389 . S
C527 H506 0.950 . S
C527 C526 1.373 . S
C527 C543 1.377 . S
C528 C526 1.389 . S
C528 C529 1.524 . S
C528 C542 1.377 . S
C529 C528 1.524 . S
C529 C530 1.397 . S
C529 C534 1.363 . S
C530 H507 0.950 . S
C530 C529 1.397 . S
C530 C531 1.334 . S
C531 H508 0.950 . S
C531 C530 1.334 . S
C531 C532 1.287 . S
C532 C531 1.287 . S
C532 C533 1.524 . S
C532 H551 0.913 . S
C533 H509 0.950 . S
C533 C532 1.524 . S
C533 C534 1.415 . S
C534 H510 0.950 . S
C534 C529 1.363 . S
C534 C533 1.415 . S
C535 H511 0.951 . S
C535 C536 1.366 . S
C535 C537 1.388 . S
C536 C535 1.366 . S
C536 C540 1.385 . S
C537 H512 0.951 . S
C537 C535 1.388 . S
C537 C538 1.366 . S
C538 C537 1.366 . S
C538 C539 1.414 . S
C538 C541 1.499 . S
C539 H513 0.950 . S
C539 C538 1.414 . S
C539 C540 1.374 . S
C540 H514 0.950 . S
C540 C536 1.385 . S
C540 C539 1.374 . S
C541 C538 1.499 . S
C541 C542 1.373 . S
C541 C543 1.389 . S
C542 H515 0.950 . S
C542 C528 1.377 . S
C542 C541 1.373 . S
C543 C527 1.377 . S
C543 C541 1.389 . S
C543 C544 1.524 . S
C544 C543 1.524 . S
C544 C545 1.397 . S
C544 C549 1.363 . S
C545 H516 0.950 . S
C545 C544 1.397 . S
C545 C546 1.334 . S
C546 H517 0.950 . S
C546 C545 1.334 . S
C546 C547 1.287 . S
C547 C546 1.287 . S
C547 C548 1.524 . S
C547 H550 0.999 . S
C548 H518 0.950 . S
C548 C547 1.524 . S
C548 C549 1.415 . S
C549 H519 0.950 . S
C549 C544 1.363 . S
C549 C548 1.415 . S
H550 C547 0.999 . S
H551 C532 0.913 . S
H552 C570 0.951 . S
H553 C572 0.951 . S
H554 C574 0.950 . S
H555 C575 0.950 . S
H556 C577 0.950 . S
H557 C580 0.950 . S
H558 C581 0.950 . S
H559 C583 0.950 . S
H560 C584 0.950 . S
H561 C585 0.951 . S
H562 C587 0.951 . S
H563 C589 0.950 . S
H564 C590 0.950 . S
H565 C592 0.950 . S
H566 C595 0.950 . S
H567 C596 0.950 . S
H568 C598 0.950 . S
H569 C599 0.950 . S
C570 H552 0.951 . S
C570 C571 1.366 . S
C570 C572 1.388 . S
C571 C570 1.366 . S
C571 C575 1.385 . S
C572 H553 0.951 . S
C572 C570 1.388 . S
C572 C573 1.366 . S
C573 C572 1.366 . S
C573 C574 1.414 . S
C573 C576 1.499 . S
C574 H554 0.950 . S
C574 C573 1.414 . S
C574 C575 1.374 . S
C575 H555 0.950 . S
C575 C571 1.385 . S
C575 C574 1.374 . S
C576 C573 1.499 . S
C576 C577 1.373 . S
C576 C578 1.389 . S
C577 H556 0.950 . S
C577 C576 1.373 . S
C577 C593 1.377 . S
C578 C576 1.389 . S
C578 C579 1.524 . S
C578 C592 1.377 . S
C579 C578 1.524 . S
C579 C580 1.397 . S
C579 C584 1.363 . S
C580 H557 0.950 . S
C580 C579 1.397 . S
C580 C581 1.334 . S
C581 H558 0.950 . S
C581 C580 1.334 . S
C581 C582 1.287 . S
C582 C581 1.287 . S
C582 C583 1.524 . S
C582 H601 0.939 . S
C583 H559 0.950 . S
C583 C582 1.524 . S
C583 C584 1.415 . S
C584 H560 0.950 . S
C584 C579 1.363 . S
C584 C583 1.415 . S
C585 H561 0.951 . S
C585 C586 1.366 . S
C585 C587 1.388 . S
C586 C585 1.366 . S
C586 C590 1.385 . S
C587 H562 0.951 . S
C587 C585 1.388 . S
C587 C588 1.366 . S
C588 C587 1.366 . S
C588 C589 1.414 . S
C588 C591 1.499 . S
C589 H563 0.950 . S
C589 C588 1.414 . S
C589 C590 1.374 . S
C590 H564 0.950 . S
C590 C586 1.385 . S
C590 C589 1.374 . S
C591 C588 1.499 . S
C591 C592 1.373 . S
C591 C593 1.389 . S
C592 H565 0.950 . S
C592 C578 1.377 . S
C592 C591 1.373 . S
C593 C577 1.377 . S
C593 C591 1.389 . S
C593 C594 1.524 . S
C594 C593 1.524 . S
C594 C595 1.397 1_545 S
C594 C599 1.363 . S
C595 H566 0.950 . S
C595 C594 1.397 1_565 S
C595 C596 1.334 . S
C596 H567 0.950 . S
C596 C595 1.334 . S
C596 C597 1.287 . S
C597 C596 1.287 . S
C597 C598 1.524 1_565 S
C597 H600 0.999 . S
C598 H568 0.950 . S
C598 C597 1.524 1_545 S
C598 C599 1.415 . S
C599 H569 0.950 . S
C599 C594 1.363 . S
C599 C598 1.415 . S
H600 C597 0.999 . S
H601 C582 0.939 . S
H602 C620 0.951 . S
H603 C622 0.951 . S
H604 C624 0.950 . S
H605 C625 0.950 1_545 S
H606 C627 0.950 . S
H607 C630 0.950 . S
H608 C631 0.950 . S
H609 C633 0.950 . S
H610 C634 0.950 . S
H611 C635 0.951 . S
H612 C637 0.951 . S
H613 C639 0.950 . S
H614 C640 0.950 . S
H615 C642 0.950 . S
H616 C645 0.950 . S
H617 C646 0.950 . S
H618 C648 0.950 . S
H619 C649 0.950 . S
C620 H602 0.951 . S
C620 C621 1.366 . S
C620 C622 1.388 . S
C621 C620 1.366 . S
C621 C625 1.385 1_554 S
C622 H603 0.951 . S
C622 C620 1.388 . S
C622 C623 1.366 1_554 S
C623 C622 1.366 1_556 S
C623 C624 1.414 . S
C623 C626 1.499 . S
C624 H604 0.950 . S
C624 C623 1.414 . S
C624 C625 1.374 . S
C625 H605 0.950 1_565 S
C625 C621 1.385 1_556 S
C625 C624 1.374 . S
C626 C623 1.499 . S
C626 C627 1.373 . S
C626 C628 1.389 . S
C627 H606 0.950 . S
C627 C626 1.373 . S
C627 C643 1.377 . S
C628 C626 1.389 . S
C628 C629 1.524 . S
C628 C642 1.377 . S
C629 C628 1.524 . S
C629 C630 1.397 . S
C629 C634 1.363 . S
C630 H607 0.950 . S
C630 C629 1.397 . S
C630 C631 1.334 . S
C631 H608 0.950 . S
C631 C630 1.334 . S
C631 C632 1.287 . S
C632 C631 1.287 . S
C632 C633 1.524 . S
C632 H651 0.913 . S
C633 H609 0.950 . S
C633 C632 1.524 . S
C633 C634 1.415 . S
C634 H610 0.950 . S
C634 C629 1.363 . S
C634 C633 1.415 . S
C635 H611 0.951 . S
C635 C636 1.366 . S
C635 C637 1.388 . S
C636 C635 1.366 . S
C636 C640 1.385 . S
C637 H612 0.951 . S
C637 C635 1.388 . S
C637 C638 1.366 . S
C638 C637 1.366 . S
C638 C639 1.414 . S
C638 C641 1.499 . S
C639 H613 0.950 . S
C639 C638 1.414 . S
C639 C640 1.374 . S
C640 H614 0.950 . S
C640 C636 1.385 . S
C640 C639 1.374 . S
C641 C638 1.499 . S
C641 C642 1.373 . S
C641 C643 1.389 . S
C642 H615 0.950 . S
C642 C628 1.377 . S
C642 C641 1.373 . S
C643 C627 1.377 . S
C643 C641 1.389 . S
C643 C644 1.524 . S
C644 C643 1.524 . S
C644 C645 1.397 . S
C644 C649 1.363 . S
C645 H616 0.950 . S
C645 C644 1.397 . S
C645 C646 1.334 . S
C646 H617 0.950 . S
C646 C645 1.334 . S
C646 C647 1.287 . S
C647 C646 1.287 . S
C647 C648 1.524 . S
C647 H650 0.999 . S
C648 H618 0.950 . S
C648 C647 1.524 . S
C648 C649 1.415 . S
C649 H619 0.950 . S
C649 C644 1.363 . S
C649 C648 1.415 . S
H650 C647 0.999 . S
H651 C632 0.913 . S
H652 C670 0.951 . S
H653 C672 0.951 . S
H654 C674 0.950 . S
H655 C675 0.950 . S
H656 C677 0.950 . S
H657 C680 0.950 . S
H658 C681 0.950 . S
H659 C683 0.950 1_655 S
H660 C684 0.950 . S
H661 C685 0.951 . S
H662 C687 0.951 . S
H663 C689 0.950 . S
H664 C690 0.950 . S
H665 C692 0.950 . S
H666 C695 0.950 . S
H667 C696 0.950 . S
H668 C698 0.950 . S
H669 C699 0.950 . S
C670 H652 0.951 . S
C670 C671 1.366 1_655 S
C670 C672 1.388 . S
C671 C670 1.366 1_455 S
C671 C675 1.385 . S
C672 H653 0.951 . S
C672 C670 1.388 . S
C672 C673 1.366 1_655 S
C673 C672 1.366 1_455 S
C673 C674 1.414 . S
C673 C676 1.499 . S
C674 H654 0.950 . S
C674 C673 1.414 . S
C674 C675 1.374 . S
C675 H655 0.950 . S
C675 C671 1.385 . S
C675 C674 1.374 . S
C676 C673 1.499 . S
C676 C677 1.373 . S
C676 C678 1.389 . S
C677 H656 0.950 . S
C677 C676 1.373 . S
C677 C693 1.377 . S
C678 C676 1.389 . S
C678 C679 1.524 . S
C678 C692 1.377 . S
C679 C678 1.524 . S
C679 C680 1.397 . S
C679 C684 1.363 1_455 S
C680 H657 0.950 . S
C680 C679 1.397 . S
C680 C681 1.334 . S
C681 H658 0.950 . S
C681 C680 1.334 . S
C681 C682 1.287 . S
C682 C681 1.287 . S
C682 C683 1.524 . S
C682 H701 0.913 . S
C683 H659 0.950 1_455 S
C683 C682 1.524 . S
C683 C684 1.415 1_455 S
C684 H660 0.950 . S
C684 C679 1.363 1_655 S
C684 C683 1.415 1_655 S
C685 H661 0.951 . S
C685 C686 1.366 . S
C685 C687 1.388 . S
C686 C685 1.366 . S
C686 C690 1.385 1_455 S
C687 H662 0.951 . S
C687 C685 1.388 . S
C687 C688 1.366 . S
C688 C687 1.366 . S
C688 C689 1.414 1_455 S
C688 C691 1.499 . S
C689 H663 0.950 . S
C689 C688 1.414 1_655 S
C689 C690 1.374 . S
C690 H664 0.950 . S
C690 C686 1.385 1_655 S
C690 C689 1.374 . S
C691 C688 1.499 . S
C691 C692 1.373 . S
C691 C693 1.389 . S
C692 H665 0.950 . S
C692 C678 1.377 . S
C692 C691 1.373 . S
C693 C677 1.377 . S
C693 C691 1.389 . S
C693 C694 1.526 . S
C694 C693 1.526 . S
C694 C695 1.394 1_455 S
C694 C699 1.364 . S
C695 H666 0.950 . S
C695 C694 1.394 1_655 S
C695 C696 1.334 . S
C696 H667 0.950 . S
C696 C695 1.334 . S
C696 C697 1.287 . S
C697 C696 1.287 . S
C697 C698 1.524 1_655 S
C697 H700 0.999 . S
C698 H668 0.950 . S
C698 C697 1.524 1_455 S
C698 C699 1.415 . S
C699 H669 0.950 . S
C699 C694 1.364 . S
C699 C698 1.415 . S
H700 C697 0.999 . S
H701 C682 0.913 . S
H702 C720 0.951 1_565 S
H703 C722 0.951 1_565 S
H704 C724 0.950 . S
H705 C725 0.950 . S
H706 C727 0.950 . S
H707 C730 0.950 1_545 S
H708 C731 0.950 . S
H709 C733 0.950 . S
H710 C734 0.950 . S
H711 C735 0.951 . S
H712 C737 0.951 . S
H713 C739 0.950 . S
H714 C740 0.950 . S
H715 C742 0.950 1_565 S
H716 C745 0.950 . S
H717 C746 0.950 . S
H718 C748 0.950 . S
H719 C749 0.950 . S
C720 H702 0.951 1_545 S
C720 C721 1.366 . S
C720 C722 1.388 . S
C721 C720 1.366 . S
C721 C725 1.385 . S
C722 H703 0.951 1_545 S
C722 C720 1.388 . S
C722 C723 1.366 . S
C723 C722 1.366 . S
C723 C724 1.414 . S
C723 C726 1.499 . S
C724 H704 0.950 . S
C724 C723 1.414 . S
C724 C725 1.374 . S
C725 H705 0.950 . S
C725 C721 1.385 . S
C725 C724 1.374 . S
C726 C723 1.499 . S
C726 C727 1.373 . S
C726 C728 1.389 . S
C727 H706 0.950 . S
C727 C726 1.373 . S
C727 C743 1.377 . S
C728 C726 1.389 . S
C728 C729 1.524 1_545 S
C728 C742 1.377 . S
C729 C728 1.524 1_565 S
C729 C730 1.397 . S
C729 C734 1.363 . S
C730 H707 0.950 1_565 S
C730 C729 1.397 . S
C730 C731 1.334 . S
C731 H708 0.950 . S
C731 C730 1.334 . S
C731 C732 1.287 . S
C732 C731 1.287 . S
C732 C733 1.524 . S
C732 H751 0.913 . S
C733 H709 0.950 . S
C733 C732 1.524 . S
C733 C734 1.415 . S
C734 H710 0.950 . S
C734 C729 1.363 . S
C734 C733 1.415 . S
C735 H711 0.951 . S
C735 C736 1.366 . S
C735 C737 1.388 . S
C736 C735 1.366 . S
C736 C740 1.385 . S
C737 H712 0.951 . S
C737 C735 1.388 . S
C737 C738 1.366 . S
C738 C737 1.366 . S
C738 C739 1.414 . S
C738 C741 1.499 . S
C739 H713 0.950 . S
C739 C738 1.414 . S
C739 C740 1.374 . S
C740 H714 0.950 . S
C740 C736 1.385 . S
C740 C739 1.374 . S
C741 C738 1.499 . S
C741 C742 1.373 . S
C741 C743 1.389 . S
C742 H715 0.950 1_545 S
C742 C728 1.377 . S
C742 C741 1.373 . S
C743 C727 1.377 . S
C743 C741 1.389 . S
C743 C744 1.524 . S
C744 C743 1.524 . S
C744 C745 1.397 . S
C744 C749 1.363 . S
C745 H716 0.950 . S
C745 C744 1.397 . S
C745 C746 1.334 . S
C746 H717 0.950 . S
C746 C745 1.334 . S
C746 C747 1.287 . S
C747 C746 1.287 . S
C747 C748 1.524 . S
C747 H750 0.999 . S
C748 H718 0.950 . S
C748 C747 1.524 . S
C748 C749 1.415 . S
C749 H719 0.950 . S
C749 C744 1.363 . S
C749 C748 1.415 . S
H750 C747 0.999 . S
H751 C732 0.913 . S
H752 C770 0.951 . S
H753 C772 0.951 . S
H754 C774 0.950 . S
H755 C775 0.950 . S
H756 C777 0.950 . S
H757 C780 0.950 . S
H758 C781 0.950 1_554 S
H759 C783 0.950 . S
H760 C784 0.950 . S
H761 C785 0.951 . S
H762 C787 0.951 . S
H763 C789 0.950 . S
H764 C790 0.950 . S
H765 C792 0.950 . S
H766 C795 0.950 . S
H767 C796 0.950 . S
H768 C798 0.950 . S
H769 C799 0.950 . S
C770 H752 0.951 . S
C770 C771 1.366 1_556 S
C770 C772 1.388 . S
C771 C770 1.366 1_554 S
C771 C775 1.385 . S
C772 H753 0.951 . S
C772 C770 1.388 . S
C772 C773 1.366 . S
C773 C772 1.366 . S
C773 C774 1.414 1_556 S
C773 C776 1.499 . S
C774 H754 0.950 . S
C774 C773 1.414 1_554 S
C774 C775 1.374 . S
C775 H755 0.950 . S
C775 C771 1.385 . S
C775 C774 1.374 . S
C776 C773 1.499 . S
C776 C777 1.373 . S
C776 C778 1.389 . S
C777 H756 0.950 . S
C777 C776 1.373 . S
C777 C793 1.377 . S
C778 C776 1.389 . S
C778 C779 1.524 . S
C778 C792 1.377 . S
C779 C778 1.524 . S
C779 C780 1.397 . S
C779 C784 1.363 . S
C780 H757 0.950 . S
C780 C779 1.397 . S
C780 C781 1.334 . S
C781 H758 0.950 1_556 S
C781 C780 1.334 . S
C781 C782 1.287 . S
C782 C781 1.287 . S
C782 C783 1.524 . S
C782 H801 0.913 . S
C783 H759 0.950 . S
C783 C782 1.524 . S
C783 C784 1.415 . S
C784 H760 0.950 . S
C784 C779 1.363 . S
C784 C783 1.415 . S
C785 H761 0.951 . S
C785 C786 1.366 . S
C785 C787 1.388 . S
C786 C785 1.366 . S
C786 C790 1.385 . S
C787 H762 0.951 . S
C787 C785 1.388 . S
C787 C788 1.366 . S
C788 C787 1.366 . S
C788 C789 1.414 . S
C788 C791 1.499 . S
C789 H763 0.950 . S
C789 C788 1.414 . S
C789 C790 1.374 . S
C790 H764 0.950 . S
C790 C786 1.385 . S
C790 C789 1.374 . S
C791 C788 1.499 . S
C791 C792 1.373 . S
C791 C793 1.389 . S
C792 H765 0.950 . S
C792 C778 1.377 . S
C792 C791 1.373 . S
C793 C777 1.377 . S
C793 C791 1.389 . S
C793 C794 1.524 . S
C794 C793 1.524 . S
C794 C795 1.397 . S
C794 C799 1.363 . S
C795 H766 0.950 . S
C795 C794 1.397 . S
C795 C796 1.334 . S
C796 H767 0.950 . S
C796 C795 1.334 . S
C796 C797 1.287 . S
C797 C796 1.287 . S
C797 C798 1.524 . S
C797 H800 0.999 . S
C798 H768 0.950 . S
C798 C797 1.524 . S
C798 C799 1.415 . S
C799 H769 0.950 . S
C799 C794 1.363 . S
C799 C798 1.415 . S
H800 C797 0.999 . S
H801 C782 0.913 . S
H802 C820 0.951 . S
H803 C822 0.951 . S
H804 C824 0.950 . S
H805 C825 0.950 . S
H806 C827 0.950 . S
H807 C830 0.950 . S
H808 C831 0.950 . S
H809 C833 0.950 . S
H810 C834 0.950 . S
H811 C835 0.951 . S
H812 C837 0.951 . S
H813 C839 0.950 . S
H814 C840 0.950 . S
H815 C842 0.950 . S
H816 C845 0.950 . S
H817 C846 0.950 . S
H818 C848 0.950 . S
H819 C849 0.950 . S
C820 H802 0.951 . S
C820 C821 1.366 . S
C820 C822 1.388 . S
C821 C820 1.366 . S
C821 C825 1.385 . S
C822 H803 0.951 . S
C822 C820 1.388 . S
C822 C823 1.366 . S
C823 C822 1.366 . S
C823 C824 1.414 . S
C823 C826 1.499 . S
C824 H804 0.950 . S
C824 C823 1.414 . S
C824 C825 1.374 . S
C825 H805 0.950 . S
C825 C821 1.385 . S
C825 C824 1.374 . S
C826 C823 1.499 . S
C826 C827 1.373 . S
C826 C828 1.389 1_455 S
C827 H806 0.950 . S
C827 C826 1.373 . S
C827 C843 1.377 . S
C828 C826 1.389 1_655 S
C828 C829 1.524 . S
C828 C842 1.377 . S
C829 C828 1.524 . S
C829 C830 1.397 . S
C829 C834 1.363 . S
C830 H807 0.950 . S
C830 C829 1.397 . S
C830 C831 1.334 . S
C831 H808 0.950 . S
C831 C830 1.334 . S
C831 C832 1.287 . S
C832 C831 1.287 . S
C832 C833 1.524 . S
C832 H851 0.913 . S
C833 H809 0.950 . S
C833 C832 1.524 . S
C833 C834 1.415 . S
C834 H810 0.950 . S
C834 C829 1.363 . S
C834 C833 1.415 . S
C835 H811 0.951 . S
C835 C836 1.366 . S
C835 C837 1.388 . S
C836 C835 1.366 . S
C836 C840 1.385 . S
C837 H812 0.951 . S
C837 C835 1.388 . S
C837 C838 1.366 . S
C838 C837 1.366 . S
C838 C839 1.414 . S
C838 C841 1.499 . S
C839 H813 0.950 . S
C839 C838 1.414 . S
C839 C840 1.374 . S
C840 H814 0.950 . S
C840 C836 1.385 . S
C840 C839 1.374 . S
C841 C838 1.499 . S
C841 C842 1.373 1_455 S
C841 C843 1.389 . S
C842 H815 0.950 . S
C842 C828 1.377 . S
C842 C841 1.373 1_655 S
C843 C827 1.377 . S
C843 C841 1.389 . S
C843 C844 1.524 . S
C844 C843 1.524 . S
C844 C845 1.397 . S
C844 C849 1.363 . S
C845 H816 0.950 . S
C845 C844 1.397 . S
C845 C846 1.334 . S
C846 H817 0.950 . S
C846 C845 1.334 . S
C846 C847 1.287 . S
C847 C846 1.287 . S
C847 C848 1.524 . S
C847 H850 0.999 . S
C848 H818 0.950 . S
C848 C847 1.524 . S
C848 C849 1.415 . S
C849 H819 0.950 . S
C849 C844 1.363 . S
C849 C848 1.415 . S
H850 C847 0.999 . S
H851 C832 0.913 . S
C286 C129 1.487 . S
C271 C14 1.435 . S
C321 C40 1.506 . S
C336 C177 1.520 . S
C371 C76 1.486 . S
C386 C249 1.490 . S
C421 C3 1.480 . S
C436 C153 1.472 . S
C486 C201 1.512 . S
C471 C38 1.501 . S
C521 C74 1.474 . S
C536 C225 1.488 . S
C586 C186 1.457 . S
C571 C86 1.414 . S
C621 C2 1.475 . S
C636 C240 1.490 . S
C686 C144 1.479 . S
C671 C39 1.480 . S
C736 C192 1.473 . S
C721 C75 1.476 . S
C786 C234 1.496 . S
C771 C4 1.486 . S
C821 C50 1.435 . S
C836 C138 1.482 . S
