# Generated by pormake.
# Topology pth, (4,4)-cn, num edge types: 1
# Building blocks:
#     Node 0, Type 0, BuildingBlock: QUQFOY_clean_sbu_3, # of connection points: 4
#     Node 1, Type 0, BuildingBlock: QUQFOY_clean_sbu_3, # of connection points: 4
#     Node 2, Type 0, BuildingBlock: QUQFOY_clean_sbu_3, # of connection points: 4
#     Node 3, Type 1, BuildingBlock: MIFKUJ_clean_linker_1, # of connection points: 4
#     Node 4, Type 1, BuildingBlock: MIFKUJ_clean_linker_1, # of connection points: 4
#     Node 5, Type 1, BuildingBlock: MIFKUJ_clean_linker_1, # of connection points: 4
#     Edge 6, Type (0, 1), BuildingBlock: OJICUG_clean_linker_0, # of connection points: 2
#     Edge 7, Type (0, 1), BuildingBlock: OJICUG_clean_linker_0, # of connection points: 2
#     Edge 8, Type (0, 1), BuildingBlock: OJICUG_clean_linker_0, # of connection points: 2
#     Edge 9, Type (0, 1), BuildingBlock: OJICUG_clean_linker_0, # of connection points: 2
#     Edge 10, Type (0, 1), BuildingBlock: OJICUG_clean_linker_0, # of connection points: 2
#     Edge 11, Type (0, 1), BuildingBlock: OJICUG_clean_linker_0, # of connection points: 2
#     Edge 12, Type (0, 1), BuildingBlock: OJICUG_clean_linker_0, # of connection points: 2
#     Edge 13, Type (0, 1), BuildingBlock: OJICUG_clean_linker_0, # of connection points: 2
#     Edge 14, Type (0, 1), BuildingBlock: OJICUG_clean_linker_0, # of connection points: 2
#     Edge 15, Type (0, 1), BuildingBlock: OJICUG_clean_linker_0, # of connection points: 2
#     Edge 16, Type (0, 1), BuildingBlock: OJICUG_clean_linker_0, # of connection points: 2
#     Edge 17, Type (0, 1), BuildingBlock: OJICUG_clean_linker_0, # of connection points: 2
# Relax obj value: 0.016
# Max RMSD: 0.073
# Mean RMSD: 0.058
data_MOF--net-pth--node1-QUQFOY_clean_sbu_3--node2-MIFKUJ_clean_linker_1--edge1-OJICUG_clean_linker_0
_symmetry_space_group_name_H-M    P1
_symmetry_Int_Tables_number       1
_symmetry_cell_setting            triclinic
loop_
_symmetry_equiv_pos_as_xyz
'x, y, z'
_cell_length_a     23.502394
_cell_length_b     23.312054
_cell_length_c     51.114131
_cell_angle_alpha  90.114116
_cell_angle_beta   90.515126
_cell_angle_gamma 120.52023
loop_
_atom_site_label
_atom_site_type_symbol
_atom_site_fract_x
_atom_site_fract_y
_atom_site_fract_z
_atom_type_partial_charge
C0 C 0.95889 0.16579 0.06087 0.0
O1 O 0.925 0.15984 0.04046 0.0
Cd2 Cd 0.91649 0.09181 0.00321 0.0
O3 O -0.01264 0.13195 0.06328 0.0
Cd4 Cd -0.00367 0.04518 0.03895 0.0
C5 C 0.08051 0.15168 0.99035 0.0
O6 O 0.88738 0.98341 0.01774 0.0
O7 O 0.96239 0.96316 0.00403 0.0
O8 O 0.96556 0.97599 0.07737 0.0
C9 C 0.90278 0.94926 0.00317 0.0
O10 O 0.02472 0.14283 0.98291 0.0
C11 C 0.01798 0.97318 0.07899 0.0
O12 O 0.08649 0.12639 0.01156 0.0
O13 O 0.06271 0.00651 0.06238 0.0
C14 C 0.15401 0.11307 0.40448 0.0
O15 O 0.18822 0.15878 0.38831 0.0
Cd16 Cd 0.14088 0.16382 0.34723 0.0
O17 O 0.09174 0.0766 0.40139 0.0
Cd18 Cd 0.00192 0.06999 0.37326 0.0
C19 C 0.05212 -0.00416 0.33062 0.0
O20 O 0.0512 0.18181 0.35485 0.0
O21 O 0.96391 0.10392 0.33521 0.0
O22 O 0.95584 0.09226 0.41131 0.0
C23 C 0.00761 0.16515 0.33695 0.0
O24 O 0.10199 0.054 0.32767 0.0
C25 C 0.89954 0.03964 0.40982 0.0
O26 O 0.00646 0.98545 0.34654 0.0
O27 O 0.89054 -0.00086 0.39132 0.0
C28 C 0.89827 0.0807 0.67306 0.0
O29 O 0.90896 0.12323 0.69084 0.0
Cd30 Cd 0.97151 0.13325 0.72959 0.0
O31 O 0.92798 0.04773 0.67362 0.0
Cd32 Cd 0.01593 0.04401 0.69984 0.0
C33 C 0.90048 0.96689 0.74569 0.0
O34 O 0.07986 0.15751 0.71814 0.0
O35 O 0.09335 0.08146 0.73626 0.0
O36 O 0.07605 0.06058 0.65941 0.0
C37 C 0.11048 0.14239 0.7348 0.0
O38 O 0.90808 0.02424 0.74999 0.0
C39 C 0.08571 0.01216 0.6625 0.0
O40 O 0.9325 0.95787 0.72774 0.0
O41 O 0.06086 0.97659 0.6827 0.0
H42 H 0.11459 0.51591 0.15947 0.0
H43 H 0.09836 0.42635 0.12946 0.0
H44 H 0.89676 0.30683 0.15507 0.0
H45 H 0.91362 0.3961 0.18539 0.0
H46 H 0.03091 0.57662 0.15727 0.0
H47 H 0.10917 0.47324 0.22002 0.0
H48 H 0.10607 0.3856 0.24756 0.0
H49 H 0.91659 0.34123 0.27726 0.0
H50 H 0.92018 0.4291 0.24986 0.0
H51 H 0.94751 0.61302 0.26002 0.0
H52 H 0.95389 0.70113 0.28775 0.0
H53 H 0.12477 0.8463 0.24504 0.0
H54 H 0.12141 0.75714 0.219 0.0
H55 H 0.02168 0.56465 0.2541 0.0
H56 H 0.951 0.67897 0.19812 0.0
H57 H 0.95362 0.7699 0.17395 0.0
H58 H 0.1149 0.78731 0.12767 0.0
H59 H 0.11596 0.70048 0.15371 0.0
C60 C 0.0154 0.46229 0.17467 0.0
C61 C 0.06725 0.47001 0.15885 0.0
C62 C 0.05798 0.41891 0.14182 0.0
C63 C -0.00374 0.35992 0.13996 0.0
C64 C 0.94466 0.352 0.15607 0.0
C65 C 0.95433 0.40264 0.17345 0.0
C66 C 0.02335 0.51835 0.19099 0.0
C67 C 0.03014 0.57493 0.17849 0.0
C68 C 0.01969 0.51451 0.21849 0.0
C69 C 0.01476 0.45727 0.23288 0.0
C70 C 0.06659 0.44392 0.23219 0.0
C71 C 0.06501 0.39434 0.24803 0.0
C72 C 0.01118 0.35692 0.26456 0.0
C73 C 0.95841 0.36904 0.26456 0.0
C74 C 0.96046 0.4192 0.24901 0.0
C75 C 0.03352 0.67835 0.23717 0.0
C76 C -0.01315 0.66379 0.25684 0.0
C77 C -0.00997 0.71452 0.27249 0.0
C78 C 0.03954 0.78127 0.26862 0.0
C79 C 0.08643 0.79559 0.24894 0.0
C80 C 0.08402 0.74463 0.23368 0.0
C81 C 0.02933 0.62394 0.22052 0.0
C82 C 0.02293 0.56728 0.2329 0.0
C83 C 0.03235 0.62758 0.19281 0.0
C84 C 0.03399 0.68337 0.17809 0.0
C85 C -0.01193 0.70346 0.18322 0.0
C86 C -0.01105 0.75497 0.169 0.0
C87 C 0.03425 0.78614 0.14862 0.0
C88 C 0.08005 0.76566 0.14347 0.0
C89 C 0.08013 0.71517 0.15814 0.0
H90 H 0.61116 0.09408 0.48994 0.0
H91 H 0.70185 0.10211 0.46405 0.0
H92 H 0.66054 0.91086 0.49289 0.0
H93 H 0.56955 0.90308 0.51896 0.0
H94 H 0.48205 0.0062 0.48757 0.0
H95 H 0.6481 0.09515 0.54987 0.0
H96 H 0.74208 0.11703 0.57775 0.0
H97 H 0.62689 0.92205 0.61187 0.0
H98 H 0.53249 0.90016 0.58371 0.0
H99 H 0.32427 0.88466 0.57633 0.0
H100 H 0.23721 0.88509 0.60207 0.0
H101 H 0.31894 0.0939 0.58477 0.0
H102 H 0.40408 0.09206 0.55837 0.0
H103 H 0.46897 0.97481 0.58371 0.0
H104 H 0.29087 0.93308 0.52104 0.0
H105 H 0.22074 0.96448 0.49706 0.0
H106 H 0.39493 0.13137 0.46391 0.0
H107 H 0.46409 0.1037 0.48986 0.0
C108 C 0.58374 -0.00194 0.50638 0.0
C109 C 0.62157 0.05385 0.49069 0.0
C110 C 0.67355 0.05855 0.47605 0.0
C111 C 0.6882 0.00714 0.47654 0.0
C112 C 0.65 0.95098 0.49209 0.0
C113 C 0.59841 0.9467 0.50706 0.0
C114 C 0.52838 -0.00652 0.52172 0.0
C115 C 0.47905 -0.00057 0.50862 0.0
C116 C 0.52557 0.9861 0.54917 0.0
C117 C 0.58355 -0.00426 0.56455 0.0
C118 C 0.64338 0.05657 0.563 0.0
C119 C 0.69685 0.06927 0.57907 0.0
C120 C 0.69165 0.0213 0.59698 0.0
C121 C 0.63233 0.95963 0.59805 0.0
C122 C 0.57841 0.94718 0.5821 0.0
C123 C 0.37009 -0.01187 0.5653 0.0
C124 C 0.3231 0.93037 0.57809 0.0
C125 C 0.27357 0.93085 0.59288 0.0
C126 C 0.27069 -0.01053 0.59547 0.0
C127 C 0.31857 0.04746 0.58279 0.0
C128 C 0.36766 0.04673 0.56783 0.0
C129 C 0.42214 0.9873 0.54952 0.0
C130 C 0.47091 0.97999 0.56259 0.0
C131 C 0.42731 -0.00078 0.52224 0.0
C132 C 0.38302 0.01636 0.50757 0.0
C133 C 0.31391 0.97739 0.50912 0.0
C134 C 0.27373 -0.00506 0.495 0.0
C135 C 0.30177 0.05081 0.47845 0.0
C136 C 0.37103 0.08914 0.47686 0.0
C137 C 0.41095 0.07257 0.49141 0.0
H138 H 0.47251 0.3971 0.82078 0.0
H139 H 0.38575 0.31499 0.79179 0.0
H140 H 0.2483 0.36824 0.82291 0.0
H141 H 0.33561 0.45061 0.85192 0.0
H142 H 0.51895 0.53375 0.82112 0.0
H143 H 0.40413 0.34498 0.8782 0.0
H144 H 0.3123 0.25962 0.9038 0.0
H145 H 0.30458 0.41319 0.948 0.0
H146 H 0.39318 0.49842 0.92153 0.0
H147 H 0.54624 0.65393 0.92296 0.0
H148 H 0.62757 0.74058 0.95159 0.0
H149 H 0.78382 0.73407 0.91002 0.0
H150 H 0.70134 0.64309 0.88282 0.0
H151 H 0.5122 0.53305 0.91795 0.0
H152 H 0.61066 0.71975 0.86111 0.0
H153 H 0.69467 0.81136 0.83583 0.0
H154 H 0.72239 0.67152 0.78982 0.0
H155 H 0.64282 0.58095 0.81694 0.0
C156 C 0.41021 0.42936 0.83861 0.0
C157 C 0.42358 0.39077 0.82145 0.0
C158 C 0.374 0.34383 0.80499 0.0
C159 C 0.31037 0.33531 0.80515 0.0
C160 C 0.29707 0.37417 0.8223 0.0
C161 C 0.34661 0.42072 0.83899 0.0
C162 C 0.46401 0.48109 0.85504 0.0
C163 C 0.5181 0.53336 0.84235 0.0
C164 C 0.4613 0.4812 0.88267 0.0
C165 C 0.40519 0.42838 0.89761 0.0
C166 C 0.38187 0.36044 0.89298 0.0
C167 C 0.33006 0.31173 0.90776 0.0
C168 C 0.30234 0.3304 0.92786 0.0
C169 C 0.32594 0.39799 0.93272 0.0
C170 C 0.37647 0.44651 0.91759 0.0
C171 C 0.61751 0.64205 0.90059 0.0
C172 C 0.59801 0.67073 0.92013 0.0
C173 C 0.64484 0.72116 0.9363 0.0
C174 C 0.71261 0.74502 0.9331 0.0
C175 C 0.73213 0.71652 0.91335 0.0
C176 C 0.68501 0.66502 0.89748 0.0
C177 C 0.56649 0.58712 0.88409 0.0
C178 C 0.51322 0.53373 0.89673 0.0
C179 C 0.56894 0.58704 0.8564 0.0
C180 C 0.62115 0.6434 0.84133 0.0
C181 C 0.63609 0.70896 0.84606 0.0
C182 C 0.68345 0.76135 0.83116 0.0
C183 C 0.71541 0.74921 0.81052 0.0
C184 C 0.69998 0.68332 0.80577 0.0
C185 C 0.65374 0.63116 0.8211 0.0
C186 C 0.01968 0.2369 0.09977 0.0
C187 C 0.96688 0.21356 0.08172 0.0
H188 H 0.07061 0.30204 0.13225 0.0
C189 C 0.92281 0.23739 0.08348 0.0
H190 H 0.05461 0.21966 0.09889 0.0
C191 C 0.93151 0.28375 0.10282 0.0
C192 C -0.0149 0.30806 0.12046 0.0
H193 H 0.88158 0.22023 0.06991 0.0
H194 H 0.89723 0.30184 0.1036 0.0
C195 C 0.02905 0.28418 0.1188 0.0
C196 C 0.85591 0.07973 0.44537 0.0
C197 C 0.84649 0.02851 0.42811 0.0
H198 H 0.81328 0.11282 0.47421 0.0
C199 C 0.78546 0.96849 0.42788 0.0
H200 H 0.90236 0.12655 0.4461 0.0
C201 C 0.73443 0.96054 0.44422 0.0
C202 C 0.74339 0.01279 0.46078 0.0
H203 H 0.77679 0.92811 0.41483 0.0
H204 H 0.68734 0.91442 0.44331 0.0
C205 C 0.80485 0.07207 0.46141 0.0
C206 C 0.79886 0.9112 0.77263 0.0
C207 C 0.85305 0.91044 0.76172 0.0
H208 H 0.71182 0.86029 0.79548 0.0
C209 C 0.86178 0.8562 0.76666 0.0
H210 H 0.79049 0.95208 0.76888 0.0
C211 C 0.81771 0.80424 0.7827 0.0
C212 C 0.76312 0.80473 0.79365 0.0
H213 H 0.90352 0.85471 0.75863 0.0
H214 H 0.82716 0.76426 0.78679 0.0
C215 C 0.75404 0.85869 0.78812 0.0
C216 C 0.96676 0.8778 0.10977 0.0
C217 C 0.02386 0.92902 0.09813 0.0
H218 H 0.92471 0.79163 0.13378 0.0
C219 C 0.08512 0.93495 0.10394 0.0
H220 H 0.91867 0.87147 0.10545 0.0
C221 C 0.08897 0.88991 0.12091 0.0
C222 C 0.03144 0.83721 0.13199 0.0
H223 H 0.12999 0.97422 0.09533 0.0
H224 H 0.13708 0.89638 0.12522 0.0
C225 C 0.97037 0.83213 0.12624 0.0
C226 C 0.24676 0.14924 0.43671 0.0
C227 C 0.18747 0.09846 0.42575 0.0
H228 H 0.32719 0.17483 0.46306 0.0
C229 C 0.16288 0.03256 0.43386 0.0
H230 H 0.26633 0.20059 0.431 0.0
C231 C 0.19892 0.01719 0.45148 0.0
C232 C 0.25969 0.06766 0.46188 0.0
H233 H 0.11741 -0.00764 0.42555 0.0
H234 H 0.1803 0.96534 0.45598 0.0
C235 C 0.28189 0.13418 0.45489 0.0
C236 C 0.20045 0.17513 0.768 0.0
C237 C 0.16145 0.19228 0.75266 0.0
H238 H 0.27781 0.20688 0.79665 0.0
C239 C 0.17121 0.25677 0.75488 0.0
H240 H 0.19407 0.1258 0.76675 0.0
C241 C 0.21898 0.30311 0.77221 0.0
C242 C 0.25831 0.28597 0.78735 0.0
H243 H 0.14174 0.27131 0.74336 0.0
H244 H 0.22592 0.35267 0.77347 0.0
C245 C 0.24856 0.22156 0.78506 0.0
C246 C 0.81984 0.00747 0.63776 0.0
C247 C 0.84837 0.06708 0.65239 0.0
H248 H 0.74727 0.9459 0.60887 0.0
C249 C 0.82624 0.1121 0.64803 0.0
H250 H 0.83559 0.97161 0.64076 0.0
C251 C 0.77627 0.09758 0.62968 0.0
C252 C 0.74668 0.03736 0.61552 0.0
H253 H 0.84717 0.15842 0.65896 0.0
H254 H 0.75957 0.13282 0.62704 0.0
C255 C 0.76905 -0.0075 0.61965 0.0
C256 C 0.79721 0.89781 0.97742 0.0
C257 C 0.85449 0.8976 0.98519 0.0
H258 H 0.70912 0.8519 0.95407 0.0
C259 C 0.86566 0.84787 0.97544 0.0
H260 H 0.7878 0.9361 0.98441 0.0
C261 C 0.8198 0.79849 0.95856 0.0
C262 C 0.76229 0.79847 0.95065 0.0
H263 H 0.90934 0.84639 0.98124 0.0
H264 H 0.82902 0.75969 0.95215 0.0
C265 C 0.75196 0.84922 0.96013 0.0
C266 C -0.01282 0.88353 0.30924 0.0
C267 C 0.04832 0.94007 0.31542 0.0
H268 H 0.93608 0.7904 0.28882 0.0
C269 C 0.10643 0.94367 0.30658 0.0
H270 H 0.94157 0.87971 0.31565 0.0
C271 C 0.10358 0.89183 0.29183 0.0
C272 C 0.04242 0.83563 0.28505 0.0
H273 H 0.15437 0.98635 0.31133 0.0
H274 H 0.14958 0.89579 0.28597 0.0
C275 C -0.01581 0.83217 0.29398 0.0
C276 C 0.15309 0.95997 0.65134 0.0
C277 C 0.12777 0.00096 0.64429 0.0
H278 H 0.21911 0.92537 0.64189 0.0
C279 C 0.14669 0.03498 0.6204 0.0
H280 H 0.1397 0.93341 0.66971 0.0
C281 C 0.19145 0.02966 0.60424 0.0
C282 C 0.21904 -0.00918 0.61172 0.0
H283 H 0.12762 0.06656 0.61432 0.0
H284 H 0.20482 0.05653 0.58595 0.0
C285 C 0.19848 0.9552 0.63531 0.0
C286 C 0.2019 0.23085 0.9856 0.0
C287 C 0.13882 0.1931 0.97414 0.0
H288 H 0.30357 0.30524 0.97969 0.0
C289 C 0.13109 0.19764 0.94704 0.0
H290 H 0.20912 0.22843 0.00645 0.0
C291 C 0.18514 0.24021 0.93177 0.0
C292 C 0.24743 0.27987 0.94344 0.0
H293 H 0.08304 0.16876 0.93769 0.0
H294 H 0.17789 0.24398 0.91102 0.0
C295 C 0.25571 0.27466 0.97039 0.0
C296 C 0.06518 0.27787 0.31634 0.0
C297 C 0.00896 0.21409 0.31828 0.0
H298 H 0.11007 0.37288 0.29755 0.0
C299 C 0.95397 0.19718 0.30205 0.0
H300 H 0.10837 0.29221 0.32853 0.0
C301 C 0.95482 0.24343 0.28448 0.0
C302 C 0.01102 0.30714 0.28254 0.0
H303 H 0.90994 0.14838 0.30309 0.0
H304 H 0.91164 0.22928 0.27231 0.0
C305 C 0.06636 0.32381 0.2985 0.0
loop_
_geom_bond_atom_site_label_1
_geom_bond_atom_site_label_2
_geom_bond_distance
_geom_bond_site_symmetry_2
_ccdc_geom_bond_type
C0 O1 1.306 1_455 S
C0 O3 1.160 . S
O1 C0 1.306 1_655 S
O1 Cd2 2.228 . S
Cd2 O1 2.228 . S
Cd2 O6 2.273 . S
Cd2 O10 2.277 1_655 S
O3 C0 1.160 . S
O3 Cd4 2.203 . S
Cd4 O3 2.203 . S
Cd4 O6 2.411 1_455 S
Cd4 O7 2.333 1_445 S
Cd4 O8 2.352 1_445 S
Cd4 O12 2.277 . S
Cd4 O13 2.356 1_545 S
C5 O10 1.209 . S
C5 O12 1.226 . S
O6 Cd2 2.273 . S
O6 Cd4 2.411 1_655 S
O6 C9 1.320 1_545 S
O7 Cd4 2.333 1_665 S
O7 C9 1.214 . S
O8 Cd4 2.352 1_665 S
O8 C11 1.258 1_655 S
C9 O6 1.320 1_565 S
C9 O7 1.214 . S
O10 Cd2 2.277 1_455 S
O10 C5 1.209 . S
C11 O8 1.258 1_455 S
C11 O13 1.282 . S
O12 Cd4 2.277 . S
O12 C5 1.226 . S
O13 Cd4 2.356 1_565 S
O13 C11 1.282 . S
C14 O15 1.306 . S
C14 O17 1.160 . S
O15 C14 1.306 . S
O15 Cd16 2.228 . S
Cd16 O15 2.228 . S
Cd16 O20 2.273 . S
Cd16 O24 2.277 . S
O17 C14 1.160 . S
O17 Cd18 2.203 1_455 S
Cd18 O17 2.203 1_655 S
Cd18 O20 2.411 1_655 S
Cd18 O21 2.333 . S
Cd18 O22 2.352 . S
Cd18 O26 2.277 1_545 S
Cd18 O27 2.356 1_545 S
C19 O24 1.209 1_565 S
C19 O26 1.226 1_455 S
O20 Cd16 2.273 . S
O20 Cd18 2.411 1_455 S
O20 C23 1.320 . S
O21 Cd18 2.333 . S
O21 C23 1.214 1_655 S
O22 Cd18 2.352 . S
O22 C25 1.258 . S
C23 O20 1.320 . S
C23 O21 1.214 1_455 S
O24 Cd16 2.277 . S
O24 C19 1.209 1_545 S
C25 O22 1.258 . S
C25 O27 1.282 1_545 S
O26 Cd18 2.277 1_565 S
O26 C19 1.226 1_655 S
O27 Cd18 2.356 1_565 S
O27 C25 1.282 1_565 S
C28 O29 1.306 . S
C28 O31 1.160 . S
O29 C28 1.306 . S
O29 Cd30 2.228 . S
Cd30 O29 2.228 . S
Cd30 O34 2.273 1_655 S
Cd30 O38 2.277 . S
O31 C28 1.160 . S
O31 Cd32 2.203 1_655 S
Cd32 O31 2.203 1_455 S
Cd32 O34 2.411 . S
Cd32 O35 2.333 . S
Cd32 O36 2.352 . S
Cd32 O40 2.277 1_445 S
Cd32 O41 2.349 1_545 S
C33 O38 1.209 1_565 S
C33 O40 1.226 . S
O34 Cd30 2.273 1_455 S
O34 Cd32 2.411 . S
O34 C37 1.320 . S
O35 Cd32 2.333 . S
O35 C37 1.214 . S
O36 Cd32 2.352 . S
O36 C39 1.258 . S
C37 O34 1.320 . S
C37 O35 1.214 . S
O38 Cd30 2.277 . S
O38 C33 1.209 1_545 S
C39 O36 1.258 . S
C39 O41 1.276 1_545 S
O40 Cd32 2.277 1_665 S
O40 C33 1.226 . S
O41 Cd32 2.349 1_565 S
O41 C39 1.276 1_565 S
H42 C61 0.949 . S
H43 C62 0.950 . S
H44 C64 0.950 . S
H45 C65 0.950 . S
H46 C67 0.950 . S
H47 C70 0.950 . S
H48 C71 0.950 . S
H49 C73 0.951 . S
H50 C74 0.949 . S
H51 C76 0.949 . S
H52 C77 0.950 . S
H53 C79 0.950 . S
H54 C80 0.950 . S
H55 C82 0.950 . S
H56 C85 0.947 1_655 S
H57 C86 0.950 1_655 S
H58 C88 0.951 . S
H59 C89 0.949 . S
C60 C61 1.376 . S
C60 C65 1.386 1_455 S
C60 C66 1.483 . S
C61 H42 0.949 . S
C61 C60 1.376 . S
C61 C62 1.397 . S
C62 H43 0.950 . S
C62 C61 1.397 . S
C62 C63 1.391 . S
C63 C62 1.391 . S
C63 C64 1.405 1_455 S
C64 H44 0.950 . S
C64 C63 1.405 1_655 S
C64 C65 1.367 . S
C65 H45 0.950 . S
C65 C60 1.386 1_655 S
C65 C64 1.367 . S
C66 C60 1.483 . S
C66 C67 1.382 . S
C66 C68 1.403 . S
C67 H46 0.950 . S
C67 C66 1.382 . S
C67 C83 1.411 . S
C68 C66 1.403 . S
C68 C69 1.489 . S
C68 C82 1.411 . S
C69 C68 1.489 . S
C69 C70 1.383 . S
C69 C74 1.382 1_455 S
C70 H47 0.950 . S
C70 C69 1.383 . S
C70 C71 1.395 . S
C71 H48 0.950 . S
C71 C70 1.395 . S
C71 C72 1.288 . S
C72 C71 1.288 . S
C72 C73 1.392 1_455 S
C73 H49 0.951 . S
C73 C72 1.392 1_655 S
C73 C74 1.392 . S
C74 H50 0.949 . S
C74 C69 1.382 1_655 S
C74 C73 1.392 . S
C75 C76 1.376 1_455 S
C75 C80 1.386 . S
C75 C81 1.483 . S
C76 H51 0.949 . S
C76 C75 1.376 1_655 S
C76 C77 1.397 . S
C77 H52 0.950 . S
C77 C76 1.397 . S
C77 C78 1.391 1_655 S
C78 C77 1.391 1_455 S
C78 C79 1.405 . S
C79 H53 0.950 . S
C79 C78 1.405 . S
C79 C80 1.367 . S
C80 H54 0.950 . S
C80 C75 1.386 . S
C80 C79 1.367 . S
C81 C75 1.483 . S
C81 C82 1.382 . S
C81 C83 1.403 . S
C82 H55 0.950 . S
C82 C68 1.411 . S
C82 C81 1.382 . S
C83 C67 1.411 . S
C83 C81 1.403 . S
C83 C84 1.489 . S
C84 C83 1.489 . S
C84 C85 1.387 . S
C84 C89 1.382 . S
C85 H56 0.947 1_455 S
C85 C84 1.387 . S
C85 C86 1.393 . S
C86 H57 0.950 1_455 S
C86 C85 1.393 . S
C86 C87 1.288 . S
C87 C86 1.288 . S
C87 C88 1.392 . S
C88 H58 0.951 . S
C88 C87 1.392 . S
C88 C89 1.392 . S
C89 H59 0.949 . S
C89 C84 1.382 . S
C89 C88 1.392 . S
H90 C109 0.949 . S
H91 C110 0.950 . S
H92 C112 0.960 . S
H93 C113 0.950 1_565 S
H94 C115 0.950 . S
H95 C118 0.950 . S
H96 C119 0.950 . S
H97 C121 0.951 . S
H98 C122 0.949 . S
H99 C124 0.949 . S
H100 C125 0.950 . S
H101 C127 0.950 . S
H102 C128 0.950 . S
H103 C130 0.950 . S
H104 C133 0.950 1_565 S
H105 C134 0.950 1_565 S
H106 C136 0.951 . S
H107 C137 0.949 . S
C108 C109 1.376 . S
C108 C113 1.386 . S
C108 C114 1.483 . S
C109 H90 0.949 . S
C109 C108 1.376 . S
C109 C110 1.397 . S
C110 H91 0.950 . S
C110 C109 1.397 . S
C110 C111 1.391 . S
C111 C110 1.391 . S
C111 C112 1.400 1_545 S
C112 H92 0.960 . S
C112 C111 1.400 1_565 S
C112 C113 1.363 1_565 S
C113 H93 0.950 1_545 S
C113 C108 1.386 . S
C113 C112 1.363 1_545 S
C114 C108 1.483 . S
C114 C115 1.382 . S
C114 C116 1.403 . S
C115 H94 0.950 . S
C115 C114 1.382 . S
C115 C131 1.411 . S
C116 C114 1.403 . S
C116 C117 1.489 . S
C116 C130 1.411 . S
C117 C116 1.489 . S
C117 C118 1.383 . S
C117 C122 1.382 1_545 S
C118 H95 0.950 . S
C118 C117 1.383 . S
C118 C119 1.395 . S
C119 H96 0.950 . S
C119 C118 1.395 . S
C119 C120 1.288 . S
C120 C119 1.288 . S
C120 C121 1.392 1_545 S
C121 H97 0.951 . S
C121 C120 1.392 1_565 S
C121 C122 1.392 . S
C122 H98 0.949 . S
C122 C117 1.382 1_565 S
C122 C121 1.392 . S
C123 C124 1.376 1_545 S
C123 C128 1.386 . S
C123 C129 1.483 . S
C124 H99 0.949 . S
C124 C123 1.376 1_565 S
C124 C125 1.397 . S
C125 H100 0.950 . S
C125 C124 1.397 . S
C125 C126 1.391 1_565 S
C126 C125 1.391 1_545 S
C126 C127 1.405 . S
C127 H101 0.950 . S
C127 C126 1.405 . S
C127 C128 1.367 . S
C128 H102 0.950 . S
C128 C123 1.386 . S
C128 C127 1.367 . S
C129 C123 1.483 . S
C129 C130 1.382 . S
C129 C131 1.403 . S
C130 H103 0.950 . S
C130 C116 1.411 . S
C130 C129 1.382 . S
C131 C115 1.411 . S
C131 C129 1.403 . S
C131 C132 1.489 . S
C132 C131 1.489 . S
C132 C133 1.383 . S
C132 C137 1.382 . S
C133 H104 0.950 1_545 S
C133 C132 1.383 . S
C133 C134 1.395 . S
C134 H105 0.950 1_545 S
C134 C133 1.395 . S
C134 C135 1.288 . S
C135 C134 1.288 . S
C135 C136 1.392 . S
C136 H106 0.951 . S
C136 C135 1.392 . S
C136 C137 1.392 . S
C137 H107 0.949 . S
C137 C132 1.382 . S
C137 C136 1.392 . S
H138 C157 0.949 . S
H139 C158 0.950 . S
H140 C160 0.950 . S
H141 C161 0.950 . S
H142 C163 0.950 . S
H143 C166 0.950 . S
H144 C167 0.950 . S
H145 C169 0.951 . S
H146 C170 0.949 . S
H147 C172 0.949 . S
H148 C173 0.950 . S
H149 C175 0.950 . S
H150 C176 0.950 . S
H151 C178 0.950 . S
H152 C181 0.950 . S
H153 C182 0.950 . S
H154 C184 0.951 . S
H155 C185 0.949 . S
C156 C157 1.376 . S
C156 C161 1.386 . S
C156 C162 1.483 . S
C157 H138 0.949 . S
C157 C156 1.376 . S
C157 C158 1.397 . S
C158 H139 0.950 . S
C158 C157 1.397 . S
C158 C159 1.391 . S
C159 C158 1.391 . S
C159 C160 1.405 . S
C160 H140 0.950 . S
C160 C159 1.405 . S
C160 C161 1.367 . S
C161 H141 0.950 . S
C161 C156 1.386 . S
C161 C160 1.367 . S
C162 C156 1.483 . S
C162 C163 1.382 . S
C162 C164 1.403 . S
C163 H142 0.950 . S
C163 C162 1.382 . S
C163 C179 1.411 . S
C164 C162 1.403 . S
C164 C165 1.489 . S
C164 C178 1.411 . S
C165 C164 1.489 . S
C165 C166 1.383 . S
C165 C170 1.382 . S
C166 H143 0.950 . S
C166 C165 1.383 . S
C166 C167 1.395 . S
C167 H144 0.950 . S
C167 C166 1.395 . S
C167 C168 1.288 . S
C168 C167 1.288 . S
C168 C169 1.392 . S
C169 H145 0.951 . S
C169 C168 1.392 . S
C169 C170 1.392 . S
C170 H146 0.949 . S
C170 C165 1.382 . S
C170 C169 1.392 . S
C171 C172 1.376 . S
C171 C176 1.386 . S
C171 C177 1.483 . S
C172 H147 0.949 . S
C172 C171 1.376 . S
C172 C173 1.397 . S
C173 H148 0.950 . S
C173 C172 1.397 . S
C173 C174 1.391 . S
C174 C173 1.391 . S
C174 C175 1.405 . S
C175 H149 0.950 . S
C175 C174 1.405 . S
C175 C176 1.367 . S
C176 H150 0.950 . S
C176 C171 1.386 . S
C176 C175 1.367 . S
C177 C171 1.483 . S
C177 C178 1.382 . S
C177 C179 1.403 . S
C178 H151 0.950 . S
C178 C164 1.411 . S
C178 C177 1.382 . S
C179 C163 1.411 . S
C179 C177 1.403 . S
C179 C180 1.489 . S
C180 C179 1.489 . S
C180 C181 1.383 . S
C180 C185 1.382 . S
C181 H152 0.950 . S
C181 C180 1.383 . S
C181 C182 1.395 . S
C182 H153 0.950 . S
C182 C181 1.395 . S
C182 C183 1.288 . S
C183 C182 1.288 . S
C183 C184 1.392 . S
C184 H154 0.951 . S
C184 C183 1.392 . S
C184 C185 1.392 . S
C185 H155 0.949 . S
C185 C180 1.382 . S
C185 C184 1.392 . S
C186 C187 1.387 . S
C186 H190 0.950 . S
C186 C195 1.390 . S
C187 C186 1.387 . S
C187 C189 1.387 1_455 S
H188 C195 0.950 . S
C189 C187 1.387 1_655 S
C189 C191 1.390 . S
C189 H193 0.950 . S
H190 C186 0.950 . S
C191 C189 1.390 . S
C191 C192 1.387 1_655 S
C191 H194 0.950 . S
C192 C191 1.387 1_455 S
C192 C195 1.387 . S
H193 C189 0.950 . S
H194 C191 0.950 . S
C195 C186 1.390 . S
C195 H188 0.950 . S
C195 C192 1.387 . S
C196 C197 1.387 . S
C196 H200 0.950 . S
C196 C205 1.390 . S
C197 C196 1.387 . S
C197 C199 1.387 1_545 S
H198 C205 0.950 . S
C199 C197 1.387 1_565 S
C199 C201 1.390 . S
C199 H203 0.950 . S
H200 C196 0.950 . S
C201 C199 1.390 . S
C201 C202 1.387 1_565 S
C201 H204 0.950 . S
C202 C201 1.387 1_545 S
C202 C205 1.387 . S
H203 C199 0.950 . S
H204 C201 0.950 . S
C205 C196 1.390 . S
C205 H198 0.950 . S
C205 C202 1.387 . S
C206 C207 1.387 . S
C206 H210 0.950 . S
C206 C215 1.390 . S
C207 C206 1.387 . S
C207 C209 1.387 . S
H208 C215 0.950 . S
C209 C207 1.387 . S
C209 C211 1.390 . S
C209 H213 0.950 . S
H210 C206 0.950 . S
C211 C209 1.390 . S
C211 C212 1.387 . S
C211 H214 0.950 . S
C212 C211 1.387 . S
C212 C215 1.387 . S
H213 C209 0.950 . S
H214 C211 0.950 . S
C215 C206 1.390 . S
C215 H208 0.950 . S
C215 C212 1.387 . S
C216 C217 1.387 1_655 S
C216 H220 0.950 . S
C216 C225 1.390 . S
C217 C216 1.387 1_455 S
C217 C219 1.387 . S
H218 C225 0.950 . S
C219 C217 1.387 . S
C219 C221 1.390 . S
C219 H223 0.950 . S
H220 C216 0.950 . S
C221 C219 1.390 . S
C221 C222 1.387 . S
C221 H224 0.950 . S
C222 C221 1.387 . S
C222 C225 1.387 1_455 S
H223 C219 0.950 . S
H224 C221 0.950 . S
C225 C216 1.390 . S
C225 H218 0.950 . S
C225 C222 1.387 1_655 S
C226 C227 1.387 . S
C226 H230 0.950 . S
C226 C235 1.390 . S
C227 C226 1.387 . S
C227 C229 1.387 1_545 S
H228 C235 0.950 . S
C229 C227 1.387 1_565 S
C229 C231 1.390 . S
C229 H233 0.950 . S
H230 C226 0.950 . S
C231 C229 1.390 . S
C231 C232 1.387 1_565 S
C231 H234 0.950 . S
C232 C231 1.387 1_545 S
C232 C235 1.387 . S
H233 C229 0.950 . S
H234 C231 0.950 . S
C235 C226 1.390 . S
C235 H228 0.950 . S
C235 C232 1.387 . S
C236 C237 1.387 . S
C236 H240 0.950 . S
C236 C245 1.390 . S
C237 C236 1.387 . S
C237 C239 1.387 . S
H238 C245 0.950 . S
C239 C237 1.387 . S
C239 C241 1.390 . S
C239 H243 0.950 . S
H240 C236 0.950 . S
C241 C239 1.390 . S
C241 C242 1.387 . S
C241 H244 0.950 . S
C242 C241 1.387 . S
C242 C245 1.387 . S
H243 C239 0.950 . S
H244 C241 0.950 . S
C245 C236 1.390 . S
C245 H238 0.950 . S
C245 C242 1.387 . S
C246 C247 1.389 . S
C246 H250 0.947 1_545 S
C246 C255 1.391 1_545 S
C247 C246 1.389 . S
C247 C249 1.387 . S
H248 C255 0.950 . S
C249 C247 1.387 . S
C249 C251 1.390 . S
C249 H253 0.950 . S
H250 C246 0.947 1_565 S
C251 C249 1.390 . S
C251 C252 1.387 . S
C251 H254 0.950 . S
C252 C251 1.387 . S
C252 C255 1.387 1_545 S
H253 C249 0.950 . S
H254 C251 0.950 . S
C255 C246 1.391 1_565 S
C255 H248 0.950 . S
C255 C252 1.387 1_565 S
C256 C257 1.387 . S
C256 H260 0.964 . S
C256 C265 1.390 . S
C257 C256 1.387 . S
C257 C259 1.387 . S
H258 C265 0.950 . S
C259 C257 1.387 . S
C259 C261 1.390 . S
C259 H263 0.938 1_556 S
H260 C256 0.964 . S
C261 C259 1.390 . S
C261 C262 1.387 . S
C261 H264 0.950 . S
C262 C261 1.387 . S
C262 C265 1.387 . S
H263 C259 0.938 1_554 S
H264 C261 0.950 . S
C265 C256 1.390 . S
C265 H258 0.950 . S
C265 C262 1.387 . S
C266 C267 1.387 1_655 S
C266 H270 0.950 . S
C266 C275 1.390 . S
C267 C266 1.387 1_455 S
C267 C269 1.387 . S
H268 C275 0.950 . S
C269 C267 1.387 . S
C269 C271 1.390 . S
C269 H273 0.950 . S
H270 C266 0.950 . S
C271 C269 1.390 . S
C271 C272 1.387 . S
C271 H274 0.950 . S
C272 C271 1.387 . S
C272 C275 1.387 1_455 S
H273 C269 0.950 . S
H274 C271 0.950 . S
C275 C266 1.390 . S
C275 H268 0.950 . S
C275 C272 1.387 1_655 S
C276 C277 1.387 . S
C276 H280 0.950 1_545 S
C276 C285 1.390 . S
C277 C276 1.387 . S
C277 C279 1.387 . S
H278 C285 0.950 1_565 S
C279 C277 1.387 . S
C279 C281 1.390 . S
C279 H283 0.950 . S
H280 C276 0.950 1_565 S
C281 C279 1.390 . S
C281 C282 1.387 . S
C281 H284 0.950 . S
C282 C281 1.387 . S
C282 C285 1.387 . S
H283 C279 0.950 . S
H284 C281 0.950 . S
C285 C276 1.390 . S
C285 H278 0.950 1_545 S
C285 C282 1.387 . S
C286 C287 1.387 . S
C286 H290 0.950 1_556 S
C286 C295 1.390 . S
C287 C286 1.387 . S
C287 C289 1.387 . S
H288 C295 0.950 . S
C289 C287 1.387 . S
C289 C291 1.390 . S
C289 H293 0.950 . S
H290 C286 0.950 1_554 S
C291 C289 1.390 . S
C291 C292 1.387 . S
C291 H294 0.950 . S
C292 C291 1.387 . S
C292 C295 1.387 . S
H293 C289 0.950 . S
H294 C291 0.950 . S
C295 C286 1.390 . S
C295 H288 0.950 . S
C295 C292 1.387 . S
C296 C297 1.387 1_655 S
C296 H300 0.950 . S
C296 C305 1.386 . S
C297 C296 1.387 1_455 S
C297 C299 1.387 . S
H298 C305 0.961 . S
C299 C297 1.387 . S
C299 C301 1.390 . S
C299 H303 0.950 . S
H300 C296 0.950 . S
C301 C299 1.390 . S
C301 C302 1.387 . S
C301 H304 0.950 . S
C302 C301 1.387 . S
C302 C305 1.381 1_455 S
H303 C299 0.950 . S
H304 C301 0.950 . S
C305 C296 1.386 . S
C305 H298 0.961 . S
C305 C302 1.381 1_655 S
C192 C63 1.478 . S
C187 C0 1.474 . S
C197 C25 1.508 . S
C202 C111 1.509 . S
C207 C33 1.531 . S
C212 C183 1.517 . S
C217 C11 1.469 . S
C222 C87 1.464 . S
C232 C135 1.494 . S
C227 C14 1.496 . S
C237 C37 1.529 . S
C242 C159 1.530 . S
C252 C120 1.496 . S
C247 C28 1.495 . S
C257 C9 1.529 1_556 S
C262 C174 1.533 . S
C272 C78 1.553 . S
C267 C19 1.552 . S
C282 C126 1.506 . S
C277 C39 1.506 . S
C292 C168 1.533 . S
C287 C5 1.529 1_556 S
C297 C23 1.558 . S
C302 C72 1.558 . S
