# Generated by pormake.
# Topology csq, (4,8)-cn, num edge types: 1
# Building blocks:
#     Node 0, Type 0, BuildingBlock: MUDLON_clean_linker_0, # of connection points: 4
#     Node 1, Type 0, BuildingBlock: MUDLON_clean_linker_0, # of connection points: 4
#     Node 2, Type 0, BuildingBlock: MUDLON_clean_linker_0, # of connection points: 4
#     Node 3, Type 0, BuildingBlock: MUDLON_clean_linker_0, # of connection points: 4
#     Node 4, Type 0, BuildingBlock: MUDLON_clean_linker_0, # of connection points: 4
#     Node 5, Type 0, BuildingBlock: MUDLON_clean_linker_0, # of connection points: 4
#     Node 6, Type 1, BuildingBlock: TAGTUT_clean_sbu_3, # of connection points: 8
#     Node 7, Type 1, BuildingBlock: TAGTUT_clean_sbu_3, # of connection points: 8
#     Node 8, Type 1, BuildingBlock: TAGTUT_clean_sbu_3, # of connection points: 8
#     Edge 9, Type (0, 1), BuildingBlock: ZUJKAS_clean_linker_0, # of connection points: 2
#     Edge 10, Type (0, 1), BuildingBlock: ZUJKAS_clean_linker_0, # of connection points: 2
#     Edge 11, Type (0, 1), BuildingBlock: ZUJKAS_clean_linker_0, # of connection points: 2
#     Edge 12, Type (0, 1), BuildingBlock: ZUJKAS_clean_linker_0, # of connection points: 2
#     Edge 13, Type (0, 1), BuildingBlock: ZUJKAS_clean_linker_0, # of connection points: 2
#     Edge 14, Type (0, 1), BuildingBlock: ZUJKAS_clean_linker_0, # of connection points: 2
#     Edge 15, Type (0, 1), BuildingBlock: ZUJKAS_clean_linker_0, # of connection points: 2
#     Edge 16, Type (0, 1), BuildingBlock: ZUJKAS_clean_linker_0, # of connection points: 2
#     Edge 17, Type (0, 1), BuildingBlock: ZUJKAS_clean_linker_0, # of connection points: 2
#     Edge 18, Type (0, 1), BuildingBlock: ZUJKAS_clean_linker_0, # of connection points: 2
#     Edge 19, Type (0, 1), BuildingBlock: ZUJKAS_clean_linker_0, # of connection points: 2
#     Edge 20, Type (0, 1), BuildingBlock: ZUJKAS_clean_linker_0, # of connection points: 2
#     Edge 21, Type (0, 1), BuildingBlock: ZUJKAS_clean_linker_0, # of connection points: 2
#     Edge 22, Type (0, 1), BuildingBlock: ZUJKAS_clean_linker_0, # of connection points: 2
#     Edge 23, Type (0, 1), BuildingBlock: ZUJKAS_clean_linker_0, # of connection points: 2
#     Edge 24, Type (0, 1), BuildingBlock: ZUJKAS_clean_linker_0, # of connection points: 2
#     Edge 25, Type (0, 1), BuildingBlock: ZUJKAS_clean_linker_0, # of connection points: 2
#     Edge 26, Type (0, 1), BuildingBlock: ZUJKAS_clean_linker_0, # of connection points: 2
#     Edge 27, Type (0, 1), BuildingBlock: ZUJKAS_clean_linker_0, # of connection points: 2
#     Edge 28, Type (0, 1), BuildingBlock: ZUJKAS_clean_linker_0, # of connection points: 2
#     Edge 29, Type (0, 1), BuildingBlock: ZUJKAS_clean_linker_0, # of connection points: 2
#     Edge 30, Type (0, 1), BuildingBlock: ZUJKAS_clean_linker_0, # of connection points: 2
#     Edge 31, Type (0, 1), BuildingBlock: ZUJKAS_clean_linker_0, # of connection points: 2
#     Edge 32, Type (0, 1), BuildingBlock: ZUJKAS_clean_linker_0, # of connection points: 2
# Relax obj value: 0.038
# Max RMSD: 0.119
# Mean RMSD: 0.079
data_MOF--net-csq--node1-TAGTUT_clean_sbu_3--node2-MUDLON_clean_linker_0--edge1-ZUJKAS_clean_linker_0
_symmetry_space_group_name_H-M    P1
_symmetry_Int_Tables_number       1
_symmetry_cell_setting            triclinic
loop_
_symmetry_equiv_pos_as_xyz
'x, y, z'
_cell_length_a     85.631872
_cell_length_b     84.797261
_cell_length_c     27.896777
_cell_angle_alpha  92.363776
_cell_angle_beta   92.393669
_cell_angle_gamma 119.96073
loop_
_atom_site_label
_atom_site_type_symbol
_atom_site_fract_x
_atom_site_fract_y
_atom_site_fract_z
_atom_type_partial_charge
H0 H 0.31418 0.48179 0.14013 0.0
N1 N 0.28777 0.44666 0.11288 0.0
H2 H 0.33857 0.49098 0.20173 0.0
H3 H 0.2895 0.42629 0.18044 0.0
H4 H 0.31359 0.43555 0.2442 0.0
H5 H 0.29553 0.42384 0.06679 0.0
H6 H 0.31668 0.43096 0.00407 0.0
H7 H 0.30029 0.47671 0.06053 0.0
H8 H 0.32183 0.48418 0.99804 0.0
H9 H 0.28373 0.47499 0.14985 0.0
H10 H 0.25526 0.42115 0.07745 0.0
H11 H 0.25521 0.47417 0.15918 0.0
H12 H 0.2267 0.42065 0.08361 0.0
H13 H 0.17166 0.47377 0.13613 0.0
H14 H 0.16114 0.48848 0.19287 0.0
H15 H 0.15044 0.44661 0.29105 0.0
H16 H 0.16001 0.43146 0.23262 0.0
H17 H 0.13507 0.41408 0.12084 0.0
H18 H 0.11636 0.40982 0.0473 0.0
H19 H 0.16202 0.45527 0.98984 0.0
H20 H 0.1802 0.4599 0.06378 0.0
H21 H 0.20075 0.47205 0.1346 0.0
H22 H 0.23012 0.47469 0.12348 0.0
H23 H 0.20679 0.41699 0.14212 0.0
N24 N 0.16893 0.44033 0.14381 0.0
H25 H 0.17736 0.41443 0.14998 0.0
C26 C 0.30007 0.45322 0.15531 0.0
C27 C 0.31372 0.47163 0.1631 0.0
C28 C 0.32768 0.47692 0.19874 0.0
C29 C 0.32821 0.46396 0.22752 0.0
C30 C 0.31381 0.44581 0.22194 0.0
C31 C 0.29992 0.44051 0.18598 0.0
C32 C 0.29652 0.44976 0.06851 0.0
C33 C 0.30074 0.43678 0.05067 0.0
C34 C 0.31285 0.44091 0.01492 0.0
C35 C 0.32108 0.45823 0.99656 0.0
C36 C 0.31586 0.47082 0.01205 0.0
C37 C 0.30352 0.46655 0.0475 0.0
C38 C 0.27159 0.44787 0.11376 0.0
C39 C 0.27139 0.46306 0.13534 0.0
C40 C 0.25499 0.46263 0.14033 0.0
C41 C 0.23851 0.44719 0.12302 0.0
C42 C 0.23899 0.43253 0.09889 0.0
C43 C 0.25531 0.43285 0.09472 0.0
C44 C 0.16623 0.45124 0.17984 0.0
C45 C 0.16722 0.46785 0.17004 0.0
C46 C 0.16129 0.47634 0.2028 0.0
C47 C 0.15454 0.46854 0.24624 0.0
C48 C 0.155 0.45272 0.25737 0.0
C49 C 0.16067 0.44414 0.22435 0.0
C50 C 0.15901 0.4372 0.098 0.0
C51 C 0.14103 0.42296 0.09204 0.0
C52 C 0.13042 0.42049 0.04987 0.0
C53 C 0.13768 0.43225 0.01266 0.0
C54 C 0.15592 0.44614 0.01805 0.0
C55 C 0.16644 0.44869 0.06037 0.0
C56 C 0.18684 0.44292 0.14243 0.0
C57 C 0.20201 0.46 0.13616 0.0
C58 C 0.21884 0.46149 0.13012 0.0
C59 C 0.22086 0.446 0.13108 0.0
C60 C 0.20572 0.42913 0.13958 0.0
C61 C 0.18892 0.42764 0.14475 0.0
H62 H 0.72989 0.13704 0.12085 0.0
N63 N 0.73772 0.16863 0.08653 0.0
H64 H 0.71 0.12218 0.18485 0.0
H65 H 0.72656 0.18545 0.1511 0.0
H66 H 0.70638 0.17059 0.21503 0.0
H67 H 0.71116 0.1774 0.07228 0.0
H68 H 0.68532 0.16209 0.0138 0.0
H69 H 0.73419 0.14687 0.0105 0.0
H70 H 0.70861 0.13194 0.94997 0.0
H71 H 0.76962 0.17831 0.12993 0.0
H72 H 0.74143 0.20012 0.04954 0.0
H73 H 0.79732 0.20784 0.13291 0.0
H74 H 0.76919 0.22918 0.04963 0.0
H75 H 0.88589 0.29606 0.12391 0.0
H76 H 0.90187 0.31347 0.19968 0.0
H77 H 0.85532 0.31794 0.23293 0.0
H78 H 0.83942 0.30024 0.15827 0.0
H79 H 0.84581 0.31588 0.08443 0.0
H80 H 0.85528 0.33828 0.02415 0.0
H81 H 0.87596 0.30874 0.94406 0.0
H82 H 0.86726 0.28693 0.0062 0.0
H83 H 0.84812 0.25453 0.08301 0.0
H84 H 0.81959 0.22583 0.08286 0.0
H85 H 0.79113 0.25589 0.09362 0.0
N86 N 0.85331 0.28801 0.08846 0.0
H87 H 0.81969 0.2844 0.09039 0.0
C88 C 0.72953 0.16219 0.131 0.0
C89 C 0.72526 0.14462 0.14237 0.0
C90 C 0.7139 0.13618 0.1789 0.0
C91 C 0.70647 0.14516 0.20457 0.0
C92 C 0.71173 0.16328 0.19536 0.0
C93 C 0.7233 0.1718 0.15906 0.0
C94 C 0.72458 0.16311 0.04607 0.0
C95 C 0.71091 0.16773 0.04531 0.0
C96 C 0.69613 0.15902 0.01148 0.0
C97 C 0.69473 0.14556 0.97758 0.0
C98 C 0.70908 0.14196 0.97625 0.0
C99 C 0.72381 0.15061 0.01035 0.0
C100 C 0.75339 0.18674 0.08936 0.0
C101 C 0.76941 0.18945 0.11285 0.0
C102 C 0.78529 0.20632 0.11399 0.0
C103 C 0.78566 0.22091 0.09077 0.0
C104 C 0.76946 0.21836 0.06826 0.0
C105 C 0.75346 0.20153 0.06788 0.0
C106 C 0.86155 0.29689 0.13521 0.0
C107 C 0.8791 0.30059 0.14803 0.0
C108 C 0.88821 0.3106 0.19114 0.0
C109 C 0.87991 0.31718 0.22227 0.0
C110 C 0.86204 0.31288 0.21015 0.0
C111 C 0.85293 0.30283 0.16708 0.0
C112 C 0.85618 0.29989 0.05023 0.0
C113 C 0.85227 0.31413 0.05383 0.0
C114 C 0.85758 0.3269 0.01894 0.0
C115 C 0.86667 0.32553 0.97947 0.0
C116 C 0.86944 0.31053 0.97455 0.0
C117 C 0.86433 0.29794 0.00972 0.0
C118 C 0.83606 0.27152 0.08726 0.0
C119 C 0.83566 0.25483 0.08505 0.0
C120 C 0.81934 0.23847 0.08554 0.0
C121 C 0.80297 0.23846 0.08904 0.0
C122 C 0.80339 0.2553 0.0906 0.0
C123 C 0.81977 0.27168 0.0893 0.0
H124 H 0.59364 0.87179 0.01302 0.0
N125 N 0.57203 0.84176 0.05506 0.0
H126 H 0.58625 0.88391 0.94311 0.0
H127 H 0.54025 0.82452 0.99866 0.0
H128 H 0.53267 0.83643 0.92816 0.0
H129 H 0.53896 0.83577 0.07992 0.0
H130 H 0.53249 0.84638 0.15532 0.0
H131 H 0.59546 0.8624 0.12776 0.0
H132 H 0.5891 0.87359 0.20298 0.0
H133 H 0.59488 0.83207 0.02236 0.0
H134 H 0.54337 0.81021 0.08403 0.0
H135 H 0.59302 0.80247 0.02475 0.0
H136 H 0.54211 0.78125 0.09073 0.0
H137 H 0.59251 0.71546 0.03651 0.0
H138 H 0.59048 0.69939 0.95933 0.0
H139 H 0.53805 0.69337 0.92443 0.0
H140 H 0.54003 0.70901 0.00139 0.0
H141 H 0.53269 0.69436 0.07531 0.0
H142 H 0.52142 0.67157 0.13469 0.0
H143 H 0.57349 0.70036 0.21504 0.0
H144 H 0.58487 0.72252 0.1538 0.0
H145 H 0.5961 0.75536 0.08162 0.0
H146 H 0.59644 0.78417 0.07726 0.0
H147 H 0.53805 0.75448 0.05555 0.0
N148 N 0.5678 0.72198 0.0718 0.0
H149 H 0.53797 0.72599 0.06464 0.0
C150 C 0.56753 0.84738 0.01106 0.0
C151 C 0.5804 0.86391 0.99414 0.0
C152 C 0.57617 0.87074 0.95403 0.0
C153 C 0.55886 0.86114 0.92995 0.0
C154 C 0.54607 0.84424 0.94617 0.0
C155 C 0.55038 0.83738 0.98635 0.0
C156 C 0.56775 0.84817 0.09848 0.0
C157 C 0.54998 0.84388 0.1066 0.0
C158 C 0.54627 0.84989 0.14973 0.0
C159 C 0.56029 0.86066 0.18489 0.0
C160 C 0.57807 0.86526 0.17635 0.0
C161 C 0.58171 0.85892 0.13362 0.0
C162 C 0.56956 0.82362 0.05381 0.0
C163 C 0.58323 0.8209 0.03668 0.0
C164 C 0.58221 0.80399 0.03878 0.0
C165 C 0.56761 0.78941 0.0591 0.0
C166 C 0.55355 0.79199 0.07464 0.0
C167 C 0.55438 0.8088 0.07136 0.0
C168 C 0.56647 0.71339 0.02498 0.0
C169 C 0.58067 0.71077 0.01192 0.0
C170 C 0.57954 0.70174 0.96773 0.0
C171 C 0.56409 0.69511 0.93581 0.0
C172 C 0.55005 0.69816 0.94847 0.0
C173 C 0.55121 0.70719 0.9926 0.0
C174 C 0.5598 0.70999 0.10972 0.0
C175 C 0.54166 0.69585 0.10579 0.0
C176 C 0.53516 0.68285 0.14015 0.0
C177 C 0.54661 0.68388 0.17941 0.0
C178 C 0.5644 0.69879 0.18467 0.0
C179 C 0.57091 0.7116 0.15004 0.0
C180 C 0.56711 0.73859 0.07272 0.0
C181 C 0.58341 0.75519 0.0766 0.0
C182 C 0.58353 0.77163 0.07328 0.0
C183 C 0.56729 0.77181 0.06487 0.0
C184 C 0.55086 0.75504 0.06223 0.0
C185 C 0.55077 0.73862 0.06681 0.0
H186 H 0.8892 0.59826 0.03853 0.0
N187 N 0.85406 0.57742 0.01524 0.0
H188 H 0.90719 0.59356 0.10049 0.0
H189 H 0.84052 0.55361 0.08589 0.0
H190 H 0.85833 0.549 0.14876 0.0
H191 H 0.83931 0.54024 0.00459 0.0
H192 H 0.84788 0.52406 0.94705 0.0
H193 H 0.8709 0.5902 0.93613 0.0
H194 H 0.8801 0.57426 0.87926 0.0
H195 H 0.85212 0.60453 0.05932 0.0
H196 H 0.81842 0.55037 0.99097 0.0
H197 H 0.82524 0.60567 0.07912 0.0
H198 H 0.79165 0.55178 0.0085 0.0
H199 H 0.73528 0.60793 0.11588 0.0
H200 H 0.72115 0.608 0.18997 0.0
H201 H 0.72551 0.56182 0.23246 0.0
H202 H 0.73912 0.56156 0.15772 0.0
H203 H 0.71632 0.54714 0.08603 0.0
H204 H 0.68863 0.53085 0.03334 0.0
H205 H 0.70681 0.57812 0.95038 0.0
H206 H 0.73436 0.59444 0.00399 0.0
H207 H 0.77451 0.60997 0.06256 0.0
H208 H 0.80146 0.60853 0.04474 0.0
H209 H 0.77351 0.55117 0.07063 0.0
N210 N 0.7427 0.58293 0.08264 0.0
H211 H 0.74642 0.55262 0.08561 0.0
C212 C 0.86362 0.57634 0.05759 0.0
C213 C 0.8824 0.58778 0.06328 0.0
C214 C 0.89262 0.58506 0.09872 0.0
C215 C 0.8842 0.5708 0.12931 0.0
C216 C 0.86524 0.55991 0.12522 0.0
C217 C 0.85502 0.56263 0.08963 0.0
C218 C 0.85442 0.56654 0.97455 0.0
C219 C 0.84759 0.54764 0.97615 0.0
C220 C 0.85272 0.53841 0.94354 0.0
C221 C 0.86496 0.5479 0.90906 0.0
C222 C 0.87055 0.56644 0.90502 0.0
C223 C 0.86528 0.57562 0.93746 0.0
C224 C 0.83754 0.57748 0.02369 0.0
C225 C 0.83894 0.59296 0.04813 0.0
C226 C 0.82352 0.59362 0.05916 0.0
C227 C 0.80619 0.57883 0.04534 0.0
C228 C 0.80475 0.56331 0.02049 0.0
C229 C 0.82022 0.56256 0.01002 0.0
C230 C 0.73822 0.58478 0.13098 0.0
C231 C 0.73362 0.59815 0.14187 0.0
C232 C 0.72559 0.59818 0.18436 0.0
C233 C 0.72201 0.58478 0.21706 0.0
C234 C 0.72778 0.57213 0.20766 0.0
C235 C 0.73575 0.57207 0.16494 0.0
C236 C 0.72738 0.5721 0.04892 0.0
C237 C 0.71451 0.55391 0.0561 0.0
C238 C 0.69866 0.54458 0.02587 0.0
C239 C 0.69543 0.55327 0.98807 0.0
C240 C 0.70874 0.57117 0.97977 0.0
C241 C 0.72454 0.58046 0.00998 0.0
C242 C 0.75857 0.58156 0.076 0.0
C243 C 0.77432 0.59715 0.06467 0.0
C244 C 0.78972 0.59628 0.05473 0.0
C245 C 0.78976 0.57973 0.0564 0.0
C246 C 0.77395 0.5641 0.06834 0.0
C247 C 0.75845 0.56496 0.07767 0.0
H248 H 0.17586 0.71074 0.13881 0.0
N249 N 0.16697 0.73645 0.11389 0.0
H250 H 0.16692 0.69307 0.20934 0.0
H251 H 0.15078 0.74108 0.18778 0.0
H252 H 0.14225 0.72383 0.25971 0.0
H253 H 0.13485 0.72487 0.06857 0.0
H254 H 0.1216 0.7042 0.9958 0.0
H255 H 0.18354 0.72203 0.06016 0.0
H256 H 0.17044 0.70141 0.98755 0.0
H257 H 0.20109 0.74221 0.1359 0.0
H258 H 0.17139 0.76775 0.08588 0.0
H259 H 0.22951 0.77059 0.12973 0.0
H260 H 0.19973 0.79602 0.07777 0.0
H261 H 0.30739 0.84157 0.08079 0.0
H262 H 0.33517 0.8531 0.13254 0.0
H263 H 0.32048 0.88711 0.2163 0.0
H264 H 0.29283 0.87567 0.16377 0.0
H265 H 0.28466 0.88378 0.05989 0.0
H266 H 0.29679 0.89951 0.98708 0.0
H267 H 0.3034 0.85468 0.93465 0.0
H268 H 0.29092 0.83897 0.00675 0.0
H269 H 0.27698 0.81865 0.06513 0.0
H270 H 0.24887 0.7901 0.07225 0.0
H271 H 0.22418 0.82057 0.12485 0.0
N272 N 0.28279 0.85318 0.08549 0.0
H273 H 0.2522 0.84906 0.11558 0.0
C274 C 0.16377 0.72715 0.15769 0.0
C275 C 0.16866 0.71383 0.16507 0.0
C276 C 0.16365 0.70379 0.20582 0.0
C277 C 0.15372 0.7069 0.24014 0.0
C278 C 0.1496 0.72083 0.23363 0.0
C279 C 0.15455 0.73079 0.19278 0.0
C280 C 0.16005 0.72488 0.06993 0.0
C281 C 0.14269 0.71987 0.05075 0.0
C282 C 0.13523 0.70819 0.00909 0.0
C283 C 0.14499 0.70119 0.98597 0.0
C284 C 0.16254 0.70646 0.00484 0.0
C285 C 0.17004 0.71826 0.04634 0.0
C286 C 0.18407 0.75298 0.11192 0.0
C287 C 0.20066 0.75393 0.12369 0.0
C288 C 0.21694 0.77015 0.11965 0.0
C289 C 0.21695 0.78566 0.10339 0.0
C290 C 0.20028 0.78452 0.09132 0.0
C291 C 0.18406 0.76837 0.09569 0.0
C292 C 0.29804 0.85783 0.11854 0.0
C293 C 0.30997 0.85127 0.11068 0.0
C294 C 0.32588 0.85787 0.14035 0.0
C295 C 0.33013 0.87118 0.17815 0.0
C296 C 0.31776 0.87712 0.18694 0.0
C297 C 0.30191 0.8705 0.15736 0.0
C298 C 0.28697 0.86031 0.03893 0.0
C299 C 0.28831 0.87719 0.03202 0.0
C300 C 0.29535 0.88619 0.99064 0.0
C301 C 0.30124 0.87844 0.95533 0.0
C302 C 0.29884 0.86096 0.96095 0.0
C303 C 0.29178 0.85197 0.00243 0.0
C304 C 0.26656 0.83602 0.08928 0.0
C305 C 0.2655 0.81921 0.07768 0.0
C306 C 0.24942 0.80284 0.08232 0.0
C307 C 0.23419 0.80299 0.09898 0.0
C308 C 0.23548 0.8199 0.11104 0.0
C309 C 0.25148 0.8362 0.10605 0.0
H310 H 0.48497 0.30773 0.08395 0.0
N311 N 0.45124 0.27977 0.09954 0.0
H312 H 0.49302 0.32632 0.01465 0.0
H313 H 0.43097 0.27363 0.0189 0.0
H314 H 0.439 0.29173 0.94856 0.0
H315 H 0.42623 0.2869 0.12953 0.0
H316 H 0.4284 0.30593 0.20111 0.0
H317 H 0.48018 0.29749 0.16642 0.0
H318 H 0.48234 0.31621 0.23769 0.0
H319 H 0.48287 0.27901 0.10856 0.0
H320 H 0.42491 0.24564 0.10253 0.0
H321 H 0.48585 0.25284 0.128 0.0
H322 H 0.42754 0.21892 0.11735 0.0
H323 H 0.49247 0.17307 0.15323 0.0
H324 H 0.50316 0.16052 0.09126 0.0
H325 H 0.45121 0.13714 0.01112 0.0
H326 H 0.44031 0.14891 0.07518 0.0
H327 H 0.43518 0.13731 0.19586 0.0
H328 H 0.43997 0.12585 0.2708 0.0
H329 H 0.49162 0.17525 0.29953 0.0
H330 H 0.48654 0.18667 0.22431 0.0
H331 H 0.48469 0.19829 0.11846 0.0
H332 H 0.48342 0.22556 0.10263 0.0
H333 H 0.43415 0.20483 0.17637 0.0
N334 N 0.45818 0.16763 0.15704 0.0
H335 H 0.43472 0.17682 0.18802 0.0
C336 C 0.45726 0.28939 0.05669 0.0
C337 C 0.47495 0.30402 0.05431 0.0
C338 C 0.47956 0.31459 0.01444 0.0
C339 C 0.46659 0.31067 0.97619 0.0
C340 C 0.44922 0.29538 0.97774 0.0
C341 C 0.44463 0.28492 0.01765 0.0
C342 C 0.4529 0.29062 0.14265 0.0
C343 C 0.43845 0.2932 0.15323 0.0
C344 C 0.43973 0.30407 0.19395 0.0
C345 C 0.4555 0.31244 0.22507 0.0
C346 C 0.46991 0.30968 0.21476 0.0
C347 C 0.46869 0.29898 0.17377 0.0
C348 C 0.4536 0.2643 0.10527 0.0
C349 C 0.47076 0.26599 0.11112 0.0
C350 C 0.47242 0.25086 0.12166 0.0
C351 C 0.45694 0.23364 0.12519 0.0
C352 C 0.43982 0.23197 0.11681 0.0
C353 C 0.43822 0.24716 0.10754 0.0
C354 C 0.46537 0.16153 0.11932 0.0
C355 C 0.48331 0.16511 0.12263 0.0
C356 C 0.48951 0.15812 0.08663 0.0
C357 C 0.47802 0.14764 0.0462 0.0
C358 C 0.46032 0.14476 0.04221 0.0
C359 C 0.45407 0.15156 0.07854 0.0
C360 C 0.46052 0.16268 0.20446 0.0
C361 C 0.44734 0.1458 0.21893 0.0
C362 C 0.45008 0.13934 0.26183 0.0
C363 C 0.46621 0.14963 0.29104 0.0
C364 C 0.47913 0.16697 0.27755 0.0
C365 C 0.47625 0.17352 0.23473 0.0
C366 C 0.4595 0.1852 0.15362 0.0
C367 C 0.47357 0.19952 0.13114 0.0
C368 C 0.47291 0.21532 0.12246 0.0
C369 C 0.45847 0.21742 0.13725 0.0
C370 C 0.44514 0.20355 0.16268 0.0
C371 C 0.44556 0.18759 0.17015 0.0
C372 C 0.03735 0.49521 0.53687 0.0
C373 C 0.02719 0.46624 0.70624 0.0
C374 C 0.97745 0.46702 0.69391 0.0
Mg375 Mg 0.0212 0.51948 0.49201 0.0
Mg376 Mg 0.01266 0.54591 0.56315 0.0
O377 O 0.00843 0.52235 0.54754 0.0
Mg378 Mg 0.01453 0.5095 0.59657 0.0
O379 O 0.02053 0.49521 0.64162 0.0
Mg380 Mg 0.00569 0.47014 0.60772 0.0
Mg381 Mg 0.01689 0.49675 0.70689 0.0
C382 C 0.99137 0.52529 0.65243 0.0
O383 O 0.0358 0.53585 0.6417 0.0
O384 O 0.00579 0.53065 0.44609 0.0
O385 O 0.03225 0.52634 0.71703 0.0
O386 O 0.0455 0.54881 0.50494 0.0
O387 O 0.99948 0.54743 0.498 0.0
O388 O 0.04094 0.56535 0.56073 0.0
O389 O 0.9935 0.48253 0.55709 0.0
O390 O 0.99727 0.49024 0.48125 0.0
C391 C 0.9894 0.47836 0.51191 0.0
C392 C 0.99859 0.54052 0.45552 0.0
O393 O 0.9941 0.51184 0.64389 0.0
O394 O 0.01997 0.46076 0.66303 0.0
O395 O 0.99861 0.53979 0.62915 0.0
O396 O 0.98203 0.46107 0.65738 0.0
O397 O 0.02765 0.47987 0.72941 0.0
O398 O 0.98847 0.48225 0.71664 0.0
O399 O 0.03441 0.50845 0.54581 0.0
O400 O 0.02893 0.48024 0.55768 0.0
C401 C 0.05101 0.56365 0.53094 0.0
C402 C 0.03911 0.53903 0.68768 0.0
C403 C 0.5048 0.02808 0.52231 0.0
C404 C 0.55879 0.02044 0.46583 0.0
C405 C 0.52671 0.96559 0.51045 0.0
Mg406 Mg 0.47803 0.00858 0.60649 0.0
Mg407 Mg 0.49135 0.99473 0.69929 0.0
O408 O 0.48748 0.99285 0.63237 0.0
Mg409 Mg 0.50873 0.00036 0.59282 0.0
O410 O 0.5288 0.00815 0.54928 0.0
Mg411 Mg 0.51447 0.99703 0.48603 0.0
Mg412 Mg 0.54732 0.00307 0.56396 0.0
C413 C 0.51079 0.97246 0.6698 0.0
O414 O 0.53022 0.01935 0.65259 0.0
O415 O 0.45311 0.99229 0.65188 0.0
O416 O 0.55369 0.01514 0.63764 0.0
O417 O 0.4917 0.03083 0.66943 0.0
O418 O 0.46353 0.98331 0.7143 0.0
O419 O 0.50553 0.02296 0.72478 0.0
O420 O 0.48906 0.98204 0.5299 0.0
O421 O 0.46612 0.98684 0.54335 0.0
C422 C 0.47313 0.97919 0.51845 0.0
C423 C 0.45069 0.98396 0.69083 0.0
O424 O 0.51268 0.97762 0.62649 0.0
O425 O 0.54206 0.01389 0.45144 0.0
O426 O 0.50431 0.97842 0.70195 0.0
O427 O 0.51869 0.97224 0.486 0.0
O428 O 0.5637 0.01791 0.50752 0.0
O429 O 0.53755 0.97459 0.54683 0.0
O430 O 0.50373 0.02256 0.56478 0.0
O431 O 0.5096 0.02122 0.48814 0.0
C432 C 0.50176 0.03454 0.70822 0.0
C433 C 0.54601 0.02172 0.66395 0.0
C434 C 0.52305 0.53802 0.66935 0.0
C435 C 0.46812 0.4785 0.72994 0.0
C436 C 0.49634 0.45214 0.67383 0.0
Mg437 Mg 0.54649 0.54177 0.5784 0.0
Mg438 Mg 0.52891 0.51246 0.48392 0.0
O439 O 0.53471 0.51577 0.55049 0.0
Mg440 Mg 0.51471 0.50396 0.5945 0.0
O441 O 0.4959 0.49345 0.64181 0.0
Mg442 Mg 0.51152 0.49723 0.70174 0.0
Mg443 Mg 0.47653 0.4696 0.62769 0.0
C444 C 0.50671 0.47126 0.51314 0.0
O445 O 0.4924 0.50136 0.54025 0.0
O446 O 0.56933 0.54774 0.52701 0.0
O447 O 0.46883 0.47413 0.55636 0.0
O448 O 0.53266 0.55063 0.52093 0.0
O449 O 0.55652 0.52667 0.46434 0.0
O450 O 0.51673 0.52837 0.46398 0.0
O451 O 0.53523 0.50536 0.65204 0.0
O452 O 0.5589 0.53208 0.63634 0.0
C453 C 0.55176 0.51797 0.66095 0.0
C454 C 0.57032 0.54043 0.48671 0.0
O455 O 0.50791 0.47605 0.55815 0.0
O456 O 0.48516 0.48857 0.74207 0.0
O457 O 0.51254 0.48279 0.48054 0.0
O458 O 0.50551 0.46745 0.69833 0.0
O459 O 0.46208 0.4701 0.68818 0.0
O460 O 0.48498 0.44992 0.63945 0.0
O461 O 0.52237 0.53232 0.62569 0.0
O462 O 0.51841 0.52706 0.70311 0.0
C463 C 0.52192 0.54431 0.48295 0.0
C464 C 0.47623 0.48792 0.53053 0.0
H465 H 0.16415 0.5045 0.26806 0.0
H466 H 0.14835 0.5159 0.3177 0.0
H467 H 0.10935 0.46075 0.34579 0.0
H468 H 0.12445 0.44919 0.29532 0.0
H469 H 0.1074 0.50294 0.30484 0.0
H470 H 0.13114 0.49154 0.48124 0.0
H471 H 0.14337 0.49469 0.42785 0.0
H472 H 0.12373 0.47306 0.43591 0.0
C473 C 0.15216 0.49479 0.28461 0.0
C474 C 0.14572 0.4759 0.27799 0.0
C475 C 0.14321 0.50135 0.31306 0.0
C476 C 0.12782 0.48915 0.33568 0.0
C477 C 0.12137 0.47038 0.32913 0.0
H478 H 0.04267 0.46819 0.50051 0.0
H479 H 0.06647 0.47087 0.45114 0.0
C480 C 0.13015 0.46382 0.30054 0.0
C481 C 0.11805 0.49562 0.3658 0.0
H482 H 0.10455 0.49408 0.47959 0.0
C483 C 0.10706 0.50149 0.34328 0.0
C484 C 0.11772 0.49372 0.41584 0.0
C485 C 0.12973 0.48806 0.44187 0.0
C486 C 0.09472 0.50418 0.36913 0.0
C487 C 0.09356 0.50107 0.41859 0.0
C488 C 0.10543 0.4964 0.44159 0.0
C489 C 0.07858 0.49997 0.44572 0.0
C490 C 0.08215 0.50909 0.34291 0.0
C491 C 0.0773 0.51547 0.45844 0.0
C492 C 0.06354 0.51399 0.48688 0.0
C493 C 0.05099 0.497 0.50316 0.0
C494 C 0.05215 0.48152 0.48905 0.0
C495 C 0.06577 0.48301 0.46078 0.0
H496 H 0.08376 0.50952 0.3036 0.0
H497 H 0.06789 0.49905 0.34891 0.0
H498 H 0.08489 0.52269 0.35735 0.0
H499 H 0.08716 0.52872 0.44744 0.0
H500 H 0.06305 0.52618 0.49723 0.0
H501 H 0.70544 0.12236 0.27262 0.0
H502 H 0.6795 0.10222 0.31727 0.0
H503 H 0.6485 0.12421 0.25284 0.0
H504 H 0.67429 0.1443 0.20787 0.0
H505 H 0.65692 0.11263 0.38115 0.0
H506 H 0.62034 0.06628 0.21779 0.0
H507 H 0.64457 0.0812 0.22259 0.0
H508 H 0.63 0.09047 0.21317 0.0
C509 C 0.69315 0.12303 0.2684 0.0
C510 C 0.69187 0.13488 0.23676 0.0
C511 C 0.6784 0.11156 0.29391 0.0
C512 C 0.66211 0.11165 0.28779 0.0
C513 C 0.66097 0.12392 0.25768 0.0
H514 H 0.55586 0.03797 0.38828 0.0
H515 H 0.58057 0.06052 0.34422 0.0
C516 C 0.67575 0.13548 0.23243 0.0
C517 C 0.6461 0.09839 0.31156 0.0
H518 H 0.60585 0.05865 0.29009 0.0
C519 C 0.64571 0.10084 0.36136 0.0
C520 C 0.63151 0.08317 0.28535 0.0
C521 C 0.63152 0.07994 0.23177 0.0
C522 C 0.63104 0.08837 0.38585 0.0
C523 C 0.61666 0.07278 0.35992 0.0
C524 C 0.61692 0.07055 0.30989 0.0
C525 C 0.60154 0.05839 0.38441 0.0
C526 C 0.63099 0.09214 0.43918 0.0
C527 C 0.60507 0.04925 0.42027 0.0
C528 C 0.59106 0.03648 0.44554 0.0
C529 C 0.57315 0.03237 0.43499 0.0
C530 C 0.56949 0.04083 0.39728 0.0
C531 C 0.5836 0.05376 0.37221 0.0
H532 H 0.63977 0.10689 0.45035 0.0
H533 H 0.61711 0.08768 0.44983 0.0
H534 H 0.63629 0.08455 0.45914 0.0
H535 H 0.61873 0.0522 0.42924 0.0
H536 H 0.59433 0.03004 0.4739 0.0
H537 H 0.51293 0.66349 0.2141 0.0
H538 H 0.50296 0.63783 0.26523 0.0
H539 H 0.55657 0.64505 0.27253 0.0
H540 H 0.56635 0.66988 0.21964 0.0
H541 H 0.53119 0.60991 0.25287 0.0
H542 H 0.51292 0.63873 0.40894 0.0
H543 H 0.50154 0.63757 0.35221 0.0
H544 H 0.52557 0.65243 0.3616 0.0
C545 C 0.52259 0.65958 0.22644 0.0
C546 C 0.54052 0.66892 0.21287 0.0
C547 C 0.51691 0.64503 0.2562 0.0
C548 C 0.52908 0.63966 0.27335 0.0
C549 C 0.54695 0.649 0.26 0.0
H550 H 0.53591 0.58089 0.50303 0.0
H551 H 0.53381 0.60232 0.45144 0.0
C552 C 0.55258 0.66338 0.2301 0.0
C553 C 0.52333 0.62395 0.3038 0.0
H554 H 0.50832 0.60902 0.41372 0.0
C555 C 0.52604 0.60963 0.2879 0.0
C556 C 0.51669 0.62365 0.34957 0.0
C557 C 0.51413 0.63897 0.36944 0.0
C558 C 0.52297 0.59539 0.31706 0.0
C559 C 0.51643 0.59512 0.36302 0.0
C560 C 0.51314 0.60913 0.37833 0.0
C561 C 0.515 0.58164 0.39761 0.0
C562 C 0.52776 0.58138 0.29931 0.0
C563 C 0.5044 0.56276 0.38584 0.0
C564 C 0.50576 0.55039 0.41509 0.0
C565 C 0.51753 0.55671 0.45702 0.0
C566 C 0.52683 0.57551 0.47082 0.0
C567 C 0.52563 0.58784 0.44132 0.0
H568 H 0.53632 0.58587 0.26825 0.0
H569 H 0.53508 0.57852 0.32835 0.0
H570 H 0.51519 0.56846 0.28747 0.0
H571 H 0.49567 0.55762 0.35301 0.0
H572 H 0.49817 0.53598 0.40378 0.0
H573 H 0.91472 0.5948 0.18548 0.0
H574 H 0.93423 0.58772 0.23561 0.0
H575 H 0.89839 0.53025 0.19931 0.0
H576 H 0.87894 0.53717 0.14841 0.0
H577 H 0.9092 0.53993 0.29894 0.0
H578 H 0.96756 0.56915 0.18507 0.0
H579 H 0.9593 0.58432 0.20055 0.0
H580 H 0.94512 0.56371 0.1634 0.0
C581 C 0.91103 0.58065 0.18794 0.0
C582 C 0.8953 0.56655 0.16282 0.0
C583 C 0.92221 0.57665 0.21649 0.0
C584 C 0.91789 0.55849 0.22034 0.0
C585 C 0.90198 0.54435 0.19647 0.0
H586 H 0.98957 0.52538 0.3622 0.0
H587 H 0.96973 0.52844 0.3018 0.0
C588 C 0.89081 0.54834 0.16778 0.0
C589 C 0.92981 0.55428 0.25021 0.0
H590 H 0.97289 0.56186 0.26363 0.0
C591 C 0.92307 0.54456 0.29101 0.0
C592 C 0.94779 0.56009 0.23924 0.0
C593 C 0.95537 0.56975 0.19444 0.0
C594 C 0.93411 0.5412 0.3224 0.0
C595 C 0.95237 0.54789 0.31284 0.0
C596 C 0.95891 0.5569 0.27094 0.0
C597 C 0.96511 0.54667 0.34774 0.0
C598 C 0.92625 0.53072 0.36594 0.0
C599 C 0.96941 0.55633 0.39275 0.0
C600 C 0.9807 0.5547 0.42706 0.0
C601 C 0.98798 0.54336 0.41704 0.0
C602 C 0.98416 0.53418 0.37113 0.0
C603 C 0.97282 0.53588 0.33664 0.0
H604 H 0.91125 0.5226 0.36159 0.0
H605 H 0.93155 0.5214 0.37295 0.0
H606 H 0.93013 0.54048 0.39793 0.0
H607 H 0.96383 0.565 0.40157 0.0
H608 H 0.98346 0.56212 0.46179 0.0
H609 H 0.34764 0.85419 0.21558 0.0
H610 H 0.37622 0.86837 0.26579 0.0
H611 H 0.38069 0.92108 0.25613 0.0
H612 H 0.35256 0.90718 0.20525 0.0
H613 H 0.41377 0.92097 0.24548 0.0
H614 H 0.37901 0.88709 0.40721 0.0
H615 H 0.37574 0.87277 0.35397 0.0
H616 H 0.3667 0.88784 0.3541 0.0
C617 C 0.35484 0.86883 0.22376 0.0
C618 C 0.34771 0.87954 0.20706 0.0
C619 C 0.3711 0.87688 0.25258 0.0
C620 C 0.38045 0.89574 0.265 0.0
C621 C 0.37366 0.90649 0.24701 0.0
H622 H 0.44086 0.97342 0.48015 0.0
H623 H 0.42116 0.95112 0.41612 0.0
C624 C 0.35747 0.8985 0.2184 0.0
C625 C 0.39673 0.90443 0.29902 0.0
H626 H 0.40928 0.9102 0.41904 0.0
C627 C 0.41298 0.91832 0.28327 0.0
C628 C 0.39558 0.90096 0.34828 0.0
C629 C 0.37834 0.88644 0.36727 0.0
C630 C 0.42777 0.92955 0.31603 0.0
C631 C 0.42619 0.92676 0.36551 0.0
C632 C 0.4104 0.91215 0.38088 0.0
C633 C 0.43913 0.94072 0.40237 0.0
C634 C 0.44452 0.94517 0.29825 0.0
C635 C 0.45594 0.94241 0.41532 0.0
C636 C 0.46739 0.95527 0.45231 0.0
C637 C 0.46208 0.96651 0.47674 0.0
C638 C 0.44539 0.96495 0.4625 0.0
C639 C 0.43406 0.9522 0.42585 0.0
H640 H 0.44383 0.94522 0.2584 0.0
H641 H 0.44639 0.95831 0.31386 0.0
H642 H 0.45657 0.94432 0.31042 0.0
H643 H 0.46002 0.93359 0.39748 0.0
H644 H 0.48015 0.95611 0.46246 0.0
H645 H 0.44719 0.33953 0.22648 0.0
H646 H 0.45281 0.36181 0.29294 0.0
H647 H 0.47334 0.33548 0.38452 0.0
H648 H 0.46812 0.31335 0.31755 0.0
H649 H 0.44118 0.35948 0.38325 0.0
H650 H 0.51555 0.38701 0.39218 0.0
H651 H 0.50059 0.37121 0.34381 0.0
H652 H 0.50199 0.3632 0.40161 0.0
C653 C 0.45269 0.33835 0.26094 0.0
C654 C 0.45737 0.32482 0.26677 0.0
C655 C 0.45592 0.35109 0.29889 0.0
C656 C 0.46379 0.35051 0.34346 0.0
C657 C 0.46768 0.33647 0.35011 0.0
H658 H 0.50449 0.44317 0.56391 0.0
H659 H 0.492 0.41117 0.53339 0.0
C660 C 0.46465 0.32382 0.31192 0.0
C661 C 0.46867 0.36524 0.38162 0.0
H662 H 0.50499 0.40218 0.4414 0.0
C663 C 0.4551 0.36864 0.39659 0.0
C664 C 0.48685 0.37715 0.39918 0.0
C665 C 0.50214 0.37462 0.38321 0.0
C666 C 0.45934 0.38415 0.42656 0.0
C667 C 0.47758 0.39651 0.44188 0.0
C668 C 0.491 0.39253 0.42969 0.0
C669 C 0.48334 0.41502 0.46303 0.0
C670 C 0.44444 0.3877 0.43992 0.0
C671 C 0.48254 0.4276 0.43351 0.0
C672 C 0.48985 0.44575 0.45039 0.0
C673 C 0.49801 0.45169 0.49732 0.0
C674 C 0.49825 0.43894 0.52761 0.0
C675 C 0.49114 0.42072 0.51031 0.0
H676 H 0.43104 0.37499 0.43622 0.0
H677 H 0.44699 0.3938 0.47743 0.0
H678 H 0.44394 0.39751 0.41565 0.0
H679 H 0.47676 0.42347 0.39674 0.0
H680 H 0.48928 0.45521 0.42639 0.0
H681 H 0.57922 0.87986 0.85657 0.0
H682 H 0.57263 0.89739 0.7995 0.0
H683 H 0.52091 0.87906 0.85732 0.0
H684 H 0.52743 0.86179 0.91496 0.0
H685 H 0.53344 0.88367 0.73183 0.0
H686 H 0.55894 0.93996 0.87631 0.0
H687 H 0.56734 0.92422 0.87263 0.0
H688 H 0.54527 0.91683 0.89265 0.0
C689 C 0.56635 0.87939 0.85678 0.0
C690 C 0.5539 0.86951 0.89059 0.0
C691 C 0.56257 0.88929 0.82391 0.0
C692 C 0.5463 0.88945 0.82432 0.0
C693 C 0.53349 0.87896 0.85634 0.0
H694 H 0.49747 0.94964 0.7414 0.0
H695 H 0.50742 0.9294 0.77194 0.0
C696 C 0.53723 0.86905 0.88914 0.0
C697 C 0.5434 0.9021 0.7954 0.0
H698 H 0.54442 0.94281 0.80639 0.0
C699 C 0.53605 0.89672 0.74767 0.0
C700 C 0.54693 0.91911 0.81634 0.0
C701 C 0.55514 0.92554 0.86724 0.0
C702 C 0.53136 0.90769 0.72099 0.0
C703 C 0.53421 0.92436 0.74278 0.0
C704 C 0.54224 0.93 0.78983 0.0
C705 C 0.52731 0.93535 0.71985 0.0
C706 C 0.52264 0.90107 0.67066 0.0
C707 C 0.53504 0.94526 0.67984 0.0
C708 C 0.52936 0.95698 0.66215 0.0
C709 C 0.51595 0.95898 0.68442 0.0
C710 C 0.50795 0.94858 0.72359 0.0
C711 C 0.51357 0.93694 0.74106 0.0
H712 H 0.51965 0.88695 0.6608 0.0
H713 H 0.50988 0.90146 0.66706 0.0
H714 H 0.53181 0.91026 0.64469 0.0
H715 H 0.54586 0.94441 0.66339 0.0
H716 H 0.53597 0.96502 0.63257 0.0
H717 H 0.67577 0.51764 0.95071 0.0
H718 H 0.64693 0.50322 0.90157 0.0
H719 H 0.64681 0.55405 0.91077 0.0
H720 H 0.67518 0.56834 0.96065 0.0
H721 H 0.61271 0.52247 0.92458 0.0
H722 H 0.64383 0.51495 0.7598 0.0
H723 H 0.64674 0.50519 0.81314 0.0
H724 H 0.65736 0.52951 0.81182 0.0
C725 C 0.66948 0.52566 0.94257 0.0
C726 C 0.67787 0.5442 0.95897 0.0
C727 C 0.65308 0.51744 0.91437 0.0
C728 C 0.64486 0.52764 0.90228 0.0
C729 C 0.65296 0.54596 0.91969 0.0
H730 H 0.58663 0.54288 0.68986 0.0
H731 H 0.60633 0.54031 0.75027 0.0
C732 C 0.66929 0.55416 0.9477 0.0
C733 C 0.6283 0.51983 0.86953 0.0
H734 H 0.61433 0.50976 0.75031 0.0
C735 C 0.61283 0.51921 0.88664 0.0
C736 C 0.6286 0.51565 0.8201 0.0
C737 C 0.645 0.5164 0.79976 0.0
C738 C 0.59807 0.51567 0.85503 0.0
C739 C 0.59888 0.51264 0.8053 0.0
C740 C 0.6138 0.51201 0.78862 0.0
C741 C 0.58622 0.51356 0.76947 0.0
C742 C 0.58231 0.51656 0.87432 0.0
C743 C 0.56828 0.49934 0.76058 0.0
C744 C 0.55682 0.50075 0.72574 0.0
C745 C 0.56323 0.51639 0.69947 0.0
C746 C 0.58119 0.53061 0.70918 0.0
C747 C 0.59253 0.52917 0.74368 0.0
H748 H 0.58396 0.51949 0.91397 0.0
H749 H 0.58076 0.52733 0.85716 0.0
H750 H 0.56967 0.50337 0.8652 0.0
H751 H 0.56322 0.48715 0.78015 0.0
H752 H 0.54309 0.48954 0.71902 0.0
H753 H 0.12526 0.70234 0.90767 0.0
H754 H 0.10893 0.67857 0.84233 0.0
H755 H 0.12889 0.64572 0.90465 0.0
H756 H 0.14538 0.66946 0.96952 0.0
H757 H 0.12886 0.64456 0.80525 0.0
H758 H 0.06269 0.63194 0.86569 0.0
H759 H 0.0778 0.65476 0.85006 0.0
H760 H 0.08365 0.64608 0.90129 0.0
C761 C 0.12622 0.69008 0.90722 0.0
C762 C 0.13647 0.68769 0.94392 0.0
C763 C 0.11689 0.67652 0.86992 0.0
C764 C 0.11745 0.66025 0.8691 0.0
C765 C 0.12828 0.65818 0.90458 0.0
H766 H 0.0447 0.55106 0.78221 0.0
H767 H 0.06401 0.58188 0.81795 0.0
C768 C 0.13771 0.67177 0.9416 0.0
C769 C 0.10595 0.64481 0.8334 0.0
H770 H 0.06197 0.61284 0.80152 0.0
C771 C 0.11423 0.63773 0.80387 0.0
C772 C 0.08686 0.63591 0.83195 0.0
C773 C 0.07716 0.64242 0.86413 0.0
C774 C 0.10392 0.62155 0.77437 0.0
C775 C 0.08486 0.61241 0.77398 0.0
C776 C 0.0766 0.61996 0.8018 0.0
C777 C 0.07329 0.59383 0.75048 0.0
C778 C 0.1135 0.61382 0.74601 0.0
C779 C 0.07207 0.59027 0.70043 0.0
C780 C 0.06104 0.57246 0.67964 0.0
C781 C 0.05098 0.558 0.70859 0.0
C782 C 0.05225 0.56177 0.75865 0.0
C783 C 0.06325 0.57944 0.77925 0.0
H784 H 0.12825 0.62107 0.7561 0.0
H785 H 0.10779 0.59911 0.75158 0.0
H786 H 0.1115 0.6151 0.70711 0.0
H787 H 0.07956 0.60123 0.67749 0.0
H788 H 0.06051 0.57002 0.64111 0.0
H789 H 0.51182 0.16171 0.01172 0.0
H790 H 0.52207 0.14658 0.95518 0.0
H791 H 0.4684 0.09954 0.93947 0.0
H792 H 0.45833 0.11398 0.99801 0.0
H793 H 0.49337 0.08991 0.95369 0.0
H794 H 0.51347 0.1388 0.81069 0.0
H795 H 0.52458 0.14863 0.86912 0.0
H796 H 0.50061 0.13947 0.85957 0.0
C797 C 0.5022 0.1481 0.99647 0.0
C798 C 0.4842 0.13911 0.00946 0.0
C799 C 0.50805 0.13958 0.96359 0.0
C800 C 0.49595 0.12204 0.94253 0.0
C801 C 0.47797 0.11313 0.95509 0.0
H802 H 0.4897 0.05848 0.69517 0.0
H803 H 0.49261 0.0822 0.75309 0.0
C804 C 0.47217 0.12152 0.98825 0.0
C805 C 0.50191 0.11243 0.9088 0.0
H806 H 0.51809 0.11379 0.79827 0.0
C807 C 0.4989 0.09518 0.91983 0.0
C808 C 0.50911 0.11935 0.86465 0.0
C809 C 0.51201 0.1375 0.84994 0.0
C810 C 0.50209 0.08427 0.88716 0.0
C811 C 0.50917 0.0911 0.84277 0.0
C812 C 0.51287 0.10867 0.8325 0.0
C813 C 0.51053 0.0793 0.80435 0.0
C814 C 0.49678 0.06512 0.89946 0.0
C815 C 0.52045 0.07044 0.81264 0.0
C816 C 0.51853 0.05653 0.77988 0.0
C817 C 0.50697 0.05158 0.7378 0.0
C818 C 0.49856 0.06179 0.72741 0.0
C819 C 0.50025 0.07543 0.76051 0.0
H820 H 0.48791 0.06073 0.9299 0.0
H821 H 0.48959 0.0552 0.86802 0.0
H822 H 0.50912 0.06457 0.91011 0.0
H823 H 0.52894 0.07362 0.84555 0.0
H824 H 0.52542 0.04913 0.78862 0.0
H825 H 0.32315 0.43855 0.91934 0.0
H826 H 0.34999 0.44552 0.87633 0.0
H827 H 0.38047 0.4967 0.96126 0.0
H828 H 0.35375 0.48976 0.00485 0.0
H829 H 0.37352 0.47802 0.82434 0.0
H830 H 0.40829 0.46805 0.98366 0.0
H831 H 0.38421 0.45934 0.97872 0.0
H832 H 0.39954 0.48328 0.99212 0.0
C833 C 0.33553 0.45137 0.9285 0.0
C834 C 0.33637 0.46358 0.96554 0.0
C835 C 0.35081 0.45533 0.90391 0.0
C836 C 0.36723 0.47148 0.91621 0.0
C837 C 0.36795 0.48407 0.95171 0.0
H838 H 0.4732 0.50145 0.80917 0.0
H839 H 0.44964 0.50136 0.85674 0.0
C840 C 0.35263 0.48017 0.97615 0.0
C841 C 0.38367 0.47474 0.8928 0.0
H842 H 0.42337 0.47482 0.91221 0.0
C843 C 0.38449 0.47746 0.84356 0.0
C844 C 0.39799 0.47413 0.91819 0.0
C845 C 0.39755 0.47094 0.97105 0.0
C846 C 0.39915 0.47929 0.81873 0.0
C847 C 0.41312 0.47789 0.84362 0.0
C848 C 0.41261 0.47581 0.89325 0.0
C849 C 0.42765 0.47735 0.81788 0.0
C850 C 0.39952 0.48264 0.76597 0.0
C851 C 0.42315 0.46347 0.78181 0.0
C852 C 0.43647 0.46349 0.75474 0.0
C853 C 0.45466 0.4773 0.76347 0.0
C854 C 0.45932 0.49064 0.80154 0.0
C855 C 0.44588 0.49065 0.82858 0.0
H856 H 0.39117 0.48886 0.75618 0.0
H857 H 0.41353 0.49174 0.75603 0.0
H858 H 0.39389 0.46944 0.74434 0.0
H859 H 0.40923 0.45278 0.77391 0.0
H860 H 0.43242 0.45285 0.72619 0.0
H861 H 0.85229 0.34591 0.94435 0.0
H862 H 0.86661 0.37178 0.89395 0.0
H863 H 0.91269 0.36424 0.8869 0.0
H864 H 0.89905 0.33918 0.93898 0.0
H865 H 0.9224 0.39936 0.91043 0.0
H866 H 0.87325 0.37243 0.75013 0.0
H867 H 0.86397 0.37267 0.80657 0.0
H868 H 0.87323 0.35805 0.79609 0.0
C869 C 0.86548 0.34977 0.93211 0.0
C870 C 0.87445 0.34034 0.94567 0.0
C871 C 0.87355 0.36443 0.90279 0.0
C872 C 0.89063 0.36981 0.88615 0.0
C873 C 0.89946 0.36028 0.8991 0.0
H874 H 0.95412 0.43098 0.66761 0.0
H875 H 0.93034 0.40908 0.71418 0.0
C876 C 0.89151 0.34577 0.92855 0.0
C877 C 0.89996 0.3859 0.85726 0.0
H878 H 0.89829 0.40211 0.74817 0.0
C879 C 0.91707 0.40006 0.87512 0.0
C880 C 0.89297 0.38672 0.81117 0.0
C881 C 0.87492 0.37162 0.78951 0.0
C882 C 0.92773 0.41464 0.8475 0.0
C883 C 0.92084 0.41543 0.80114 0.0
C884 C 0.90345 0.40159 0.78389 0.0
C885 C 0.93242 0.42924 0.76816 0.0
C886 C 0.94668 0.42846 0.86727 0.0
C887 C 0.94078 0.44802 0.78138 0.0
C888 C 0.95466 0.46063 0.75514 0.0
C889 C 0.96016 0.45467 0.71476 0.0
C890 C 0.9504 0.43606 0.69878 0.0
C891 C 0.93672 0.42348 0.72538 0.0
H892 H 0.95113 0.42366 0.89867 0.0
H893 H 0.95647 0.43151 0.8393 0.0
H894 H 0.94714 0.44133 0.87924 0.0
H895 H 0.93729 0.45282 0.8135 0.0
H896 H 0.96169 0.47489 0.76801 0.0
H897 H 0.87421 0.55171 0.81527 0.0
H898 H 0.8931 0.54164 0.77635 0.0
H899 H 0.89453 0.51458 0.90261 0.0
H900 H 0.87633 0.52519 0.94248 0.0
H901 H 0.9279 0.53729 0.87566 0.0
H902 H 0.88477 0.49332 0.71726 0.0
H903 H 0.88597 0.51507 0.72093 0.0
H904 H 0.87574 0.4996 0.76721 0.0
C905 C 0.87835 0.54342 0.83453 0.0
C906 C 0.87373 0.53929 0.88203 0.0
C907 C 0.88898 0.53748 0.81201 0.0
C908 C 0.89505 0.52716 0.83637 0.0
C909 C 0.88987 0.5224 0.88301 0.0
H910 H 0.96384 0.49421 0.68557 0.0
H911 H 0.94035 0.49208 0.73686 0.0
C912 C 0.87931 0.52837 0.90559 0.0
C913 C 0.90843 0.52315 0.81535 0.0
H914 H 0.91691 0.50576 0.71363 0.0
C915 C 0.92537 0.5301 0.84059 0.0
C916 C 0.90508 0.51355 0.76995 0.0
C917 C 0.88683 0.50479 0.74249 0.0
C918 C 0.93936 0.52864 0.82043 0.0
C919 C 0.93642 0.52025 0.77355 0.0
C920 C 0.91918 0.51233 0.74945 0.0
C921 C 0.95148 0.52128 0.74702 0.0
C922 C 0.95732 0.53647 0.84904 0.0
C923 C 0.96556 0.53837 0.73627 0.0
C924 C 0.97893 0.53963 0.7072 0.0
C925 C 0.97849 0.52379 0.68814 0.0
C926 C 0.96469 0.50665 0.70021 0.0
C927 C 0.9512 0.50541 0.72919 0.0
H928 H 0.95577 0.53707 0.88831 0.0
H929 H 0.9639 0.52829 0.84143 0.0
H930 H 0.96638 0.5506 0.83907 0.0
H931 H 0.96586 0.55078 0.74899 0.0
H932 H 0.98937 0.55303 0.69864 0.0
H933 H 0.29898 0.86724 0.86005 0.0
H934 H 0.3193 0.88449 0.79856 0.0
H935 H 0.34774 0.93121 0.90072 0.0
H936 H 0.32756 0.91424 0.96183 0.0
H937 H 0.34392 0.94087 0.80878 0.0
H938 H 0.37053 0.89284 0.8073 0.0
H939 H 0.34676 0.88291 0.7916 0.0
H940 H 0.35575 0.89267 0.85168 0.0
C941 C 0.30945 0.88126 0.86914 0.0
C942 C 0.31172 0.88933 0.91589 0.0
C943 C 0.32103 0.89108 0.83402 0.0
C944 C 0.3352 0.90904 0.84533 0.0
C945 C 0.33687 0.9174 0.89116 0.0
H946 H 0.44222 0.97086 0.7791 0.0
H947 H 0.41241 0.95264 0.80824 0.0
C948 C 0.32527 0.90766 0.92608 0.0
C949 C 0.34939 0.91873 0.81162 0.0
H950 H 0.38534 0.91863 0.76358 0.0
C951 C 0.35282 0.9359 0.79809 0.0
C952 C 0.36104 0.91224 0.79813 0.0
C953 C 0.3585 0.89424 0.8131 0.0
C954 C 0.36807 0.94711 0.77333 0.0
C955 C 0.38002 0.94085 0.76144 0.0
C956 C 0.37607 0.92332 0.77272 0.0
C957 C 0.3979 0.953 0.74332 0.0
C958 C 0.37191 0.96596 0.76262 0.0
C959 C 0.39965 0.95951 0.69724 0.0
C960 C 0.41684 0.9701 0.68032 0.0
C961 C 0.43246 0.97416 0.70918 0.0
C962 C 0.43053 0.96791 0.75568 0.0
C963 C 0.41347 0.95746 0.77247 0.0
H964 H 0.36245 0.96955 0.77942 0.0
H965 H 0.38596 0.9763 0.77571 0.0
H966 H 0.3706 0.96666 0.72314 0.0
H967 H 0.38776 0.95604 0.67401 0.0
H968 H 0.41786 0.97464 0.64427 0.0
H969 H 0.44459 0.32173 0.93442 0.0
H970 H 0.4516 0.34366 0.8735 0.0
H971 H 0.50507 0.35096 0.86928 0.0
H972 H 0.49796 0.32846 0.92945 0.0
H973 H 0.47904 0.37981 0.88634 0.0
H974 H 0.48798 0.345 0.72543 0.0
H975 H 0.47653 0.33293 0.7764 0.0
H976 H 0.50075 0.34622 0.77969 0.0
C977 C 0.4577 0.32761 0.91977 0.0
C978 C 0.47067 0.32322 0.93674 0.0
C979 C 0.46172 0.34026 0.88512 0.0
C980 C 0.47878 0.34881 0.86645 0.0
C981 C 0.49171 0.3443 0.88259 0.0
H982 H 0.52154 0.45248 0.7379 0.0
H983 H 0.51903 0.42677 0.78018 0.0
C984 C 0.48769 0.33159 0.91739 0.0
C985 C 0.48332 0.36349 0.83319 0.0
H986 H 0.49491 0.37564 0.71902 0.0
C987 C 0.48254 0.3789 0.84979 0.0
C988 C 0.48775 0.3622 0.78542 0.0
C989 C 0.48819 0.34565 0.76533 0.0
C990 C 0.48605 0.39306 0.82004 0.0
C991 C 0.49076 0.39195 0.77251 0.0
C992 C 0.49148 0.37651 0.75564 0.0
C993 C 0.49439 0.40661 0.73996 0.0
C994 C 0.48431 0.40897 0.83945 0.0
C995 C 0.48196 0.4036 0.70133 0.0
C996 C 0.48338 0.41829 0.67677 0.0
C997 C 0.49723 0.43623 0.69074 0.0
C998 C 0.51055 0.4389 0.72664 0.0
C999 C 0.50915 0.42422 0.75093 0.0
H1000 H 0.47693 0.40592 0.87275 0.0
H1001 H 0.498 0.42095 0.84812 0.0
H1002 H 0.47714 0.41275 0.81227 0.0
H1003 H 0.47051 0.39006 0.69219 0.0
H1004 H 0.47295 0.41573 0.64915 0.0
H1005 H 0.11061 0.40131 0.96225 0.0
H1006 H 0.08983 0.39964 0.89639 0.0
H1007 H 0.1174 0.45841 0.90144 0.0
H1008 H 0.13784 0.46024 0.96743 0.0
H1009 H 0.06691 0.41404 0.90239 0.0
H1010 H 0.11283 0.44424 0.75736 0.0
H1011 H 0.11858 0.43533 0.80874 0.0
H1012 H 0.12177 0.45802 0.813 0.0
C1013 C 0.1123 0.41387 0.94911 0.0
C1014 C 0.12597 0.43092 0.97002 0.0
C1015 C 0.1005 0.41287 0.9113 0.0
C1016 C 0.10232 0.42889 0.89346 0.0
C1017 C 0.1161 0.44587 0.91372 0.0
H1018 H 0.03793 0.46965 0.80125 0.0
H1019 H 0.05353 0.4558 0.84057 0.0
C1020 C 0.1278 0.44689 0.95152 0.0
C1021 C 0.08888 0.42822 0.85713 0.0
H1022 H 0.08599 0.44717 0.75407 0.0
C1023 C 0.07094 0.42086 0.8693 0.0
C1024 C 0.09407 0.43682 0.81359 0.0
C1025 C 0.11283 0.44387 0.79713 0.0
C1026 C 0.05848 0.42334 0.84117 0.0
C1027 C 0.06423 0.4336 0.80033 0.0
C1028 C 0.08168 0.43951 0.7858 0.0
C1029 C 0.05332 0.44048 0.77632 0.0
C1030 C 0.03949 0.41562 0.85655 0.0
C1031 C 0.04823 0.43664 0.72688 0.0
C1032 C 0.03929 0.44462 0.70406 0.0
C1033 C 0.0356 0.45679 0.73028 0.0
C1034 C 0.04058 0.46039 0.7799 0.0
C1035 C 0.04935 0.45234 0.8026 0.0
H1036 H 0.03552 0.40342 0.87724 0.0
H1037 H 0.03879 0.42606 0.88025 0.0
H1038 H 0.02962 0.41183 0.82506 0.0
H1039 H 0.05137 0.42767 0.70593 0.0
H1040 H 0.03569 0.44161 0.66576 0.0
H1041 H 0.67281 0.15634 0.93222 0.0
H1042 H 0.64344 0.13681 0.88796 0.0
H1043 H 0.64903 0.0897 0.90859 0.0
H1044 H 0.67781 0.10885 0.95457 0.0
H1045 H 0.63484 0.11508 0.80595 0.0
H1046 H 0.59927 0.07274 0.95374 0.0
H1047 H 0.62063 0.09375 0.96396 0.0
H1048 H 0.61993 0.07281 0.94516 0.0
C1049 C 0.66769 0.1418 0.92769 0.0
C1050 C 0.67767 0.13417 0.94708 0.0
C1051 C 0.65094 0.13067 0.90232 0.0
C1052 C 0.64385 0.11175 0.89609 0.0
C1053 C 0.654 0.1042 0.91416 0.0
H1054 H 0.573 0.02098 0.71671 0.0
H1055 H 0.59401 0.04381 0.77876 0.0
C1056 C 0.67066 0.11525 0.93967 0.0
C1057 C 0.62622 0.09984 0.86885 0.0
H1058 H 0.58653 0.05968 0.87295 0.0
C1059 C 0.62408 0.10321 0.82089 0.0
C1060 C 0.61213 0.08444 0.8886 0.0
C1061 C 0.61302 0.08084 0.94087 0.0
C1062 C 0.60878 0.09087 0.79118 0.0
C1063 C 0.59533 0.07485 0.81009 0.0
C1064 C 0.59695 0.07198 0.85867 0.0
C1065 C 0.58087 0.05994 0.77821 0.0
C1066 C 0.60753 0.09441 0.73898 0.0
C1067 C 0.56621 0.06122 0.75873 0.0
C1068 C 0.55409 0.04811 0.72335 0.0
C1069 C 0.55663 0.0337 0.70686 0.0
C1070 C 0.57079 0.03201 0.72845 0.0
C1071 C 0.58276 0.04498 0.76396 0.0
H1072 H 0.61954 0.10717 0.72941 0.0
H1073 H 0.60617 0.08281 0.71559 0.0
H1074 H 0.5953 0.0955 0.73122 0.0
H1075 H 0.56458 0.0727 0.76952 0.0
H1076 H 0.54337 0.04983 0.70707 0.0
H1077 H 0.58943 0.70101 0.87101 0.0
H1078 H 0.58659 0.68052 0.80228 0.0
H1079 H 0.53153 0.64322 0.83274 0.0
H1080 H 0.53422 0.66353 0.90068 0.0
H1081 H 0.58124 0.64735 0.80819 0.0
H1082 H 0.52554 0.64168 0.68935 0.0
H1083 H 0.53716 0.65987 0.73615 0.0
H1084 H 0.51859 0.63806 0.74949 0.0
C1085 C 0.57665 0.68855 0.86248 0.0
C1086 C 0.56203 0.6839 0.89118 0.0
C1087 C 0.57501 0.67694 0.82307 0.0
C1088 C 0.55872 0.66051 0.81165 0.0
C1089 C 0.54402 0.6561 0.83964 0.0
H1090 H 0.53091 0.55474 0.7594 0.0
H1091 H 0.54282 0.58683 0.78234 0.0
C1092 C 0.54561 0.66771 0.87876 0.0
C1093 C 0.55764 0.64667 0.77532 0.0
H1094 H 0.52817 0.61399 0.69032 0.0
C1095 C 0.56994 0.64042 0.78137 0.0
C1096 C 0.54319 0.63782 0.73942 0.0
C1097 C 0.53052 0.64489 0.72791 0.0
C1098 C 0.56705 0.62444 0.75622 0.0
C1099 C 0.55128 0.61431 0.72506 0.0
C1100 C 0.54006 0.62159 0.71503 0.0
C1101 C 0.54474 0.59502 0.70938 0.0
C1102 C 0.58037 0.61798 0.76528 0.0
C1103 C 0.54139 0.58886 0.66054 0.0
C1104 C 0.53443 0.57031 0.64709 0.0
C1105 C 0.53052 0.55769 0.6824 0.0
C1106 C 0.53378 0.56402 0.73118 0.0
C1107 C 0.54076 0.58243 0.74445 0.0
H1108 H 0.59418 0.62969 0.77493 0.0
H1109 H 0.57631 0.60915 0.79595 0.0
H1110 H 0.5808 0.61 0.73329 0.0
H1111 H 0.54415 0.59837 0.63297 0.0
H1112 H 0.53195 0.56585 0.60924 0.0
H1113 H 0.49744 0.1496 0.31433 0.0
H1114 H 0.50201 0.13118 0.37224 0.0
H1115 H 0.44846 0.11221 0.41871 0.0
H1116 H 0.4437 0.13049 0.36028 0.0
H1117 H 0.50009 0.12713 0.47162 0.0
H1118 H 0.44605 0.0655 0.36473 0.0
H1119 H 0.45544 0.08807 0.34366 0.0
H1120 H 0.43946 0.08107 0.38912 0.0
C1121 C 0.4868 0.1419 0.33774 0.0
C1122 C 0.47013 0.14132 0.33234 0.0
C1123 C 0.48942 0.13133 0.37077 0.0
C1124 C 0.47544 0.12004 0.3991 0.0
C1125 C 0.45928 0.12053 0.39647 0.0
H1126 H 0.49356 0.04646 0.5831 0.0
H1127 H 0.48501 0.06911 0.56156 0.0
C1128 C 0.4566 0.13098 0.36314 0.0
C1129 C 0.47724 0.10646 0.42713 0.0
H1130 H 0.46182 0.06075 0.42755 0.0
C1131 C 0.49155 0.11259 0.46266 0.0
C1132 C 0.46613 0.0875 0.41502 0.0
C1133 C 0.45099 0.08006 0.37584 0.0
C1134 C 0.49548 0.10029 0.48504 0.0
C1135 C 0.48473 0.08142 0.47168 0.0
C1136 C 0.46994 0.07525 0.43786 0.0
C1137 C 0.4901 0.06812 0.48648 0.0
C1138 C 0.51169 0.10756 0.52067 0.0
C1139 C 0.49564 0.06002 0.45142 0.0
C1140 C 0.50043 0.04715 0.46342 0.0
C1141 C 0.49975 0.04196 0.5109 0.0
C1142 C 0.49423 0.05013 0.54624 0.0
C1143 C 0.48942 0.06312 0.53407 0.0
H1144 H 0.51962 0.12271 0.52385 0.0
H1145 H 0.50714 0.10273 0.55661 0.0
H1146 H 0.52067 0.10229 0.50982 0.0
H1147 H 0.49626 0.06369 0.41451 0.0
H1148 H 0.50462 0.04123 0.43517 0.0
H1149 H 0.34459 0.44383 0.24221 0.0
H1150 H 0.3724 0.45264 0.29075 0.0
H1151 H 0.37757 0.50478 0.33108 0.0
H1152 H 0.34915 0.49571 0.2844 0.0
H1153 H 0.40644 0.48142 0.27981 0.0
H1154 H 0.38367 0.48729 0.46033 0.0
H1155 H 0.36806 0.47637 0.40813 0.0
H1156 H 0.38112 0.50083 0.41619 0.0
C1157 C 0.35135 0.457 0.26234 0.0
C1158 C 0.34451 0.46899 0.25976 0.0
C1159 C 0.36739 0.46211 0.28955 0.0
C1160 C 0.37698 0.47931 0.3147 0.0
C1161 C 0.37023 0.49134 0.31246 0.0
H1162 H 0.47953 0.51822 0.48975 0.0
H1163 H 0.45772 0.51923 0.43168 0.0
C1164 C 0.35408 0.48618 0.28544 0.0
C1165 C 0.39413 0.48452 0.34267 0.0
H1166 H 0.41363 0.49354 0.45715 0.0
C1167 C 0.40811 0.4843 0.31851 0.0
C1168 C 0.39625 0.48827 0.39316 0.0
C1169 C 0.38146 0.48809 0.42118 0.0
C1170 C 0.42389 0.48709 0.34381 0.0
C1171 C 0.42569 0.49024 0.39424 0.0
C1172 C 0.41214 0.49127 0.41825 0.0
C1173 C 0.44023 0.48992 0.42343 0.0
C1174 C 0.43826 0.48595 0.31704 0.0
C1175 C 0.43769 0.47311 0.43675 0.0
C1176 C 0.44996 0.47248 0.46987 0.0
C1177 C 0.46502 0.48868 0.49009 0.0
C1178 C 0.46809 0.50552 0.47458 0.0
C1179 C 0.45565 0.50614 0.44165 0.0
H1180 H 0.43589 0.4856 0.27746 0.0
H1181 H 0.45177 0.49779 0.3287 0.0
H1182 H 0.43845 0.47339 0.32578 0.0
H1183 H 0.42582 0.46049 0.42292 0.0
H1184 H 0.44734 0.45931 0.48079 0.0
H1185 H 0.86829 0.31804 0.31226 0.0
H1186 H 0.88452 0.34125 0.37896 0.0
H1187 H 0.93101 0.36785 0.29553 0.0
H1188 H 0.91495 0.34498 0.22883 0.0
H1189 H 0.93931 0.36593 0.3953 0.0
H1190 H 0.89276 0.39336 0.3666 0.0
H1191 H 0.88276 0.36961 0.3776 0.0
H1192 H 0.89368 0.37758 0.32303 0.0
C1193 C 0.88201 0.32878 0.30828 0.0
C1194 C 0.89027 0.32973 0.26506 0.0
C1195 C 0.89126 0.34198 0.34644 0.0
C1196 C 0.90887 0.35634 0.34188 0.0
C1197 C 0.91743 0.35682 0.29978 0.0
H1198 H 0.97579 0.46604 0.41956 0.0
H1199 H 0.95479 0.43486 0.3882 0.0
C1200 C 0.90824 0.34368 0.26172 0.0
C1201 C 0.91804 0.3718 0.37881 0.0
H1202 H 0.91824 0.41037 0.42006 0.0
C1203 C 0.93455 0.37547 0.40166 0.0
C1204 C 0.91178 0.38424 0.38664 0.0
C1205 C 0.89434 0.38117 0.36208 0.0
C1206 C 0.94541 0.39173 0.43034 0.0
C1207 C 0.93952 0.40452 0.43627 0.0
C1208 C 0.9226 0.40042 0.41553 0.0
C1209 C 0.95184 0.4233 0.45716 0.0
C1210 C 0.96362 0.39572 0.45156 0.0
C1211 C 0.957 0.42712 0.50656 0.0
C1212 C 0.96906 0.44506 0.52484 0.0
C1213 C 0.97617 0.45937 0.49385 0.0
C1214 C 0.9707 0.45539 0.4445 0.0
C1215 C 0.95865 0.43757 0.42645 0.0
H1216 H 0.96667 0.38483 0.44101 0.0
H1217 H 0.9744 0.40889 0.43977 0.0
H1218 H 0.96397 0.39704 0.49139 0.0
H1219 H 0.95174 0.41624 0.53083 0.0
H1220 H 0.97293 0.44766 0.563 0.0
H1221 H 0.57561 0.89584 0.22088 0.0
H1222 H 0.56784 0.9075 0.29203 0.0
H1223 H 0.52879 0.85243 0.32202 0.0
H1224 H 0.53594 0.84084 0.24907 0.0
H1225 H 0.5143 0.87196 0.33231 0.0
H1226 H 0.58107 0.91065 0.4304 0.0
H1227 H 0.58291 0.91849 0.37122 0.0
H1228 H 0.57694 0.89514 0.37892 0.0
C1229 C 0.56554 0.88625 0.24309 0.0
C1230 C 0.5564 0.86748 0.2298 0.0
C1231 C 0.56122 0.89288 0.28404 0.0
C1232 C 0.54807 0.88083 0.31335 0.0
C1233 C 0.53909 0.862 0.30031 0.0
H1234 H 0.5395 0.94527 0.55383 0.0
H1235 H 0.54153 0.91983 0.51597 0.0
C1236 C 0.54315 0.85539 0.25871 0.0
C1237 C 0.54268 0.88813 0.35494 0.0
H1238 H 0.56019 0.92185 0.44554 0.0
C1239 C 0.52432 0.88258 0.35778 0.0
C1240 C 0.55555 0.9015 0.38955 0.0
C1241 C 0.57517 0.90658 0.39265 0.0
C1242 C 0.51872 0.89115 0.39141 0.0
C1243 C 0.53189 0.90619 0.42164 0.0
C1244 C 0.55005 0.91062 0.42173 0.0
C1245 C 0.52763 0.91895 0.44835 0.0
C1246 C 0.49876 0.88418 0.39336 0.0
C1247 C 0.51871 0.92661 0.42361 0.0
C1248 C 0.51724 0.94086 0.44537 0.0
C1249 C 0.52515 0.9482 0.492 0.0
C1250 C 0.53335 0.94 0.51776 0.0
C1251 C 0.53454 0.92547 0.49612 0.0
H1252 H 0.4909 0.86912 0.38597 0.0
H1253 H 0.49547 0.88769 0.42889 0.0
H1254 H 0.49431 0.89018 0.36502 0.0
H1255 H 0.51376 0.92234 0.38632 0.0
H1256 H 0.51089 0.94685 0.4243 0.0
H1257 H 0.69511 0.55316 0.24859 0.0
H1258 H 0.6732 0.5498 0.30622 0.0
H1259 H 0.7 0.60824 0.33323 0.0
H1260 H 0.72234 0.6118 0.27608 0.0
H1261 H 0.67657 0.56297 0.40669 0.0
H1262 H 0.6474 0.59198 0.27917 0.0
H1263 H 0.66258 0.58424 0.26089 0.0
H1264 H 0.67122 0.60547 0.29618 0.0
C1265 C 0.69673 0.56532 0.26772 0.0
C1266 C 0.71047 0.58278 0.25742 0.0
C1267 C 0.68411 0.56336 0.30049 0.0
C1268 C 0.68487 0.57877 0.32343 0.0
C1269 C 0.69907 0.59619 0.31533 0.0
H1270 H 0.60384 0.56636 0.52713 0.0
H1271 H 0.633 0.57781 0.49172 0.0
C1272 C 0.71178 0.59818 0.2826 0.0
C1273 C 0.66992 0.57645 0.3526 0.0
H1274 H 0.63239 0.58087 0.34915 0.0
C1275 C 0.66704 0.56712 0.39466 0.0
C1276 C 0.65745 0.58174 0.33631 0.0
C1277 C 0.65964 0.59131 0.29053 0.0
C1278 C 0.65173 0.56252 0.42028 0.0
C1279 C 0.63908 0.56746 0.40335 0.0
C1280 C 0.64222 0.57723 0.36208 0.0
C1281 C 0.62162 0.56103 0.42506 0.0
C1282 C 0.6487 0.55168 0.46393 0.0
C1283 C 0.60562 0.54807 0.39891 0.0
C1284 C 0.589 0.54151 0.41889 0.0
C1285 C 0.58802 0.54789 0.4654 0.0
C1286 C 0.6041 0.56114 0.49127 0.0
C1287 C 0.62078 0.56764 0.47124 0.0
H1288 H 0.65862 0.54697 0.46876 0.0
H1289 H 0.64995 0.56029 0.49654 0.0
H1290 H 0.63485 0.53961 0.46103 0.0
H1291 H 0.60602 0.54285 0.36314 0.0
H1292 H 0.57694 0.53139 0.39778 0.0
H1293 H 0.12047 0.69326 0.27569 0.0
H1294 H 0.10766 0.67149 0.33708 0.0
H1295 H 0.15731 0.67034 0.35572 0.0
H1296 H 0.17055 0.69274 0.29534 0.0
H1297 H 0.10289 0.63686 0.32783 0.0
H1298 H 0.14506 0.67448 0.49522 0.0
H1299 H 0.14436 0.68584 0.44248 0.0
H1300 H 0.15736 0.67454 0.44448 0.0
C1301 C 0.12889 0.68881 0.29369 0.0
C1302 C 0.14659 0.69483 0.28055 0.0
C1303 C 0.12149 0.67625 0.3286 0.0
C1304 C 0.13157 0.66941 0.35131 0.0
C1305 C 0.14938 0.67566 0.33926 0.0
H1306 H 0.07742 0.56484 0.47679 0.0
H1307 H 0.10014 0.59138 0.43882 0.0
C1308 C 0.15685 0.6883 0.30429 0.0
C1309 C 0.12274 0.6545 0.38405 0.0
H1310 H 0.12387 0.64298 0.4997 0.0
C1311 C 0.10751 0.6382 0.36538 0.0
C1312 C 0.12875 0.65633 0.43308 0.0
C1313 C 0.14469 0.67378 0.4553 0.0
C1314 C 0.09803 0.6237 0.39431 0.0
C1315 C 0.10416 0.62537 0.44318 0.0
C1316 C 0.11938 0.64167 0.46207 0.0
C1317 C 0.09409 0.61052 0.47514 0.0
C1318 C 0.08123 0.60685 0.37256 0.0
C1319 C 0.08413 0.61276 0.51077 0.0
C1320 C 0.0712 0.59762 0.53292 0.0
C1321 C 0.06797 0.58 0.51941 0.0
C1322 C 0.07935 0.57816 0.48747 0.0
C1323 C 0.09234 0.59331 0.46564 0.0
H1324 H 0.07627 0.60929 0.33776 0.0
H1325 H 0.08429 0.59572 0.36587 0.0
H1326 H 0.07021 0.60212 0.39747 0.0
H1327 H 0.08539 0.62597 0.51882 0.0
H1328 H 0.06277 0.59956 0.55762 0.0
loop_
_geom_bond_atom_site_label_1
_geom_bond_atom_site_label_2
_geom_bond_distance
_geom_bond_site_symmetry_2
_ccdc_geom_bond_type
H0 C27 0.929 . S
N1 C26 1.433 . S
N1 C32 1.435 . S
N1 C38 1.423 . S
H2 C28 0.930 . S
H3 C31 0.931 . S
H4 C30 0.929 . S
H5 C33 0.930 . S
H6 C34 0.932 . S
H7 C37 0.929 . S
H8 C36 0.931 . S
H9 C39 0.929 . S
H10 C43 0.932 . S
H11 C40 0.931 . S
H12 C42 0.929 . S
H13 C45 0.929 . S
H14 C46 0.930 . S
H15 C48 0.929 . S
H16 C49 0.931 . S
H17 C51 0.930 . S
H18 C52 0.932 . S
H19 C54 0.931 . S
H20 C55 0.929 . S
H21 C57 0.929 . S
H22 C58 0.931 . S
H23 C60 0.929 . S
N24 C44 1.433 . S
N24 C50 1.435 . S
N24 C56 1.423 . S
H25 C61 0.932 . S
C26 N1 1.433 . S
C26 C27 1.363 . S
C26 C31 1.370 . S
C27 H0 0.929 . S
C27 C26 1.363 . S
C27 C28 1.385 . S
C28 H2 0.930 . S
C28 C27 1.385 . S
C28 C29 1.357 . S
C29 C28 1.357 . S
C29 C30 1.406 . S
C30 H4 0.929 . S
C30 C29 1.406 . S
C30 C31 1.391 . S
C31 H3 0.931 . S
C31 C26 1.370 . S
C31 C30 1.391 . S
C32 N1 1.435 . S
C32 C33 1.358 . S
C32 C37 1.371 . S
C33 H5 0.930 . S
C33 C32 1.358 . S
C33 C34 1.405 . S
C34 H6 0.932 . S
C34 C33 1.405 . S
C34 C35 1.383 . S
C35 C34 1.383 . S
C35 C36 1.393 . S
C36 H8 0.931 . S
C36 C35 1.393 . S
C36 C37 1.382 . S
C37 H7 0.929 . S
C37 C32 1.371 . S
C37 C36 1.382 . S
C38 N1 1.423 . S
C38 C39 1.362 . S
C38 C43 1.388 . S
C39 H9 0.929 . S
C39 C38 1.362 . S
C39 C40 1.376 . S
C40 H11 0.931 . S
C40 C39 1.376 . S
C40 C41 1.396 . S
C41 C40 1.396 . S
C41 C42 1.348 . S
C41 C59 1.472 . S
C42 H12 0.929 . S
C42 C41 1.348 . S
C42 C43 1.443 . S
C43 H10 0.932 . S
C43 C38 1.388 . S
C43 C42 1.443 . S
C44 N24 1.433 . S
C44 C45 1.363 . S
C44 C49 1.370 . S
C45 H13 0.929 . S
C45 C44 1.363 . S
C45 C46 1.385 . S
C46 H14 0.930 . S
C46 C45 1.385 . S
C46 C47 1.357 . S
C47 C46 1.357 . S
C47 C48 1.406 . S
C48 H15 0.929 . S
C48 C47 1.406 . S
C48 C49 1.391 . S
C49 H16 0.931 . S
C49 C44 1.370 . S
C49 C48 1.391 . S
C50 N24 1.435 . S
C50 C51 1.358 . S
C50 C55 1.371 . S
C51 H17 0.930 . S
C51 C50 1.358 . S
C51 C52 1.405 . S
C52 H18 0.932 . S
C52 C51 1.405 . S
C52 C53 1.383 . S
C53 C52 1.383 . S
C53 C54 1.393 . S
C54 H19 0.931 . S
C54 C53 1.393 . S
C54 C55 1.382 . S
C55 H20 0.929 . S
C55 C50 1.371 . S
C55 C54 1.382 . S
C56 N24 1.423 . S
C56 C57 1.362 . S
C56 C61 1.388 . S
C57 H21 0.929 . S
C57 C56 1.362 . S
C57 C58 1.376 . S
C58 H22 0.931 . S
C58 C57 1.376 . S
C58 C59 1.396 . S
C59 C41 1.472 . S
C59 C58 1.396 . S
C59 C60 1.348 . S
C60 H23 0.929 . S
C60 C59 1.348 . S
C60 C61 1.443 . S
C61 H25 0.932 . S
C61 C56 1.388 . S
C61 C60 1.443 . S
H62 C89 0.929 . S
N63 C88 1.433 . S
N63 C94 1.435 . S
N63 C100 1.423 . S
H64 C90 0.930 . S
H65 C93 0.931 . S
H66 C92 0.929 . S
H67 C95 0.930 . S
H68 C96 0.932 . S
H69 C99 0.929 . S
H70 C98 0.931 . S
H71 C101 0.929 . S
H72 C105 0.932 . S
H73 C102 0.931 . S
H74 C104 0.929 . S
H75 C107 0.929 . S
H76 C108 0.930 . S
H77 C110 0.929 . S
H78 C111 0.931 . S
H79 C113 0.930 . S
H80 C114 0.932 . S
H81 C116 0.931 . S
H82 C117 0.929 . S
H83 C119 0.929 . S
H84 C120 0.931 . S
H85 C122 0.929 . S
N86 C106 1.433 . S
N86 C112 1.435 . S
N86 C118 1.423 . S
H87 C123 0.932 . S
C88 N63 1.433 . S
C88 C89 1.363 . S
C88 C93 1.370 . S
C89 H62 0.929 . S
C89 C88 1.363 . S
C89 C90 1.385 . S
C90 H64 0.930 . S
C90 C89 1.385 . S
C90 C91 1.357 . S
C91 C90 1.357 . S
C91 C92 1.406 . S
C92 H66 0.929 . S
C92 C91 1.406 . S
C92 C93 1.391 . S
C93 H65 0.931 . S
C93 C88 1.370 . S
C93 C92 1.391 . S
C94 N63 1.435 . S
C94 C95 1.358 . S
C94 C99 1.371 1_554 S
C95 H67 0.930 . S
C95 C94 1.358 . S
C95 C96 1.405 . S
C96 H68 0.932 . S
C96 C95 1.405 . S
C96 C97 1.383 1_554 S
C97 C96 1.383 1_556 S
C97 C98 1.393 . S
C98 H70 0.931 . S
C98 C97 1.393 . S
C98 C99 1.382 . S
C99 H69 0.929 . S
C99 C94 1.371 1_556 S
C99 C98 1.382 . S
C100 N63 1.423 . S
C100 C101 1.362 . S
C100 C105 1.388 . S
C101 H71 0.929 . S
C101 C100 1.362 . S
C101 C102 1.376 . S
C102 H73 0.931 . S
C102 C101 1.376 . S
C102 C103 1.396 . S
C103 C102 1.396 . S
C103 C104 1.348 . S
C103 C121 1.472 . S
C104 H74 0.929 . S
C104 C103 1.348 . S
C104 C105 1.443 . S
C105 H72 0.932 . S
C105 C100 1.388 . S
C105 C104 1.443 . S
C106 N86 1.433 . S
C106 C107 1.363 . S
C106 C111 1.370 . S
C107 H75 0.929 . S
C107 C106 1.363 . S
C107 C108 1.385 . S
C108 H76 0.930 . S
C108 C107 1.385 . S
C108 C109 1.357 . S
C109 C108 1.357 . S
C109 C110 1.406 . S
C110 H77 0.929 . S
C110 C109 1.406 . S
C110 C111 1.391 . S
C111 H78 0.931 . S
C111 C106 1.370 . S
C111 C110 1.391 . S
C112 N86 1.435 . S
C112 C113 1.358 . S
C112 C117 1.371 . S
C113 H79 0.930 . S
C113 C112 1.358 . S
C113 C114 1.405 . S
C114 H80 0.932 . S
C114 C113 1.405 . S
C114 C115 1.383 1_554 S
C115 C114 1.383 1_556 S
C115 C116 1.393 . S
C116 H81 0.931 . S
C116 C115 1.393 . S
C116 C117 1.382 1_556 S
C117 H82 0.929 . S
C117 C112 1.371 . S
C117 C116 1.382 1_554 S
C118 N86 1.423 . S
C118 C119 1.362 . S
C118 C123 1.388 . S
C119 H83 0.929 . S
C119 C118 1.362 . S
C119 C120 1.376 . S
C120 H84 0.931 . S
C120 C119 1.376 . S
C120 C121 1.396 . S
C121 C103 1.472 . S
C121 C120 1.396 . S
C121 C122 1.348 . S
C122 H85 0.929 . S
C122 C121 1.348 . S
C122 C123 1.443 . S
C123 H87 0.932 . S
C123 C118 1.388 . S
C123 C122 1.443 . S
H124 C151 0.916 1_554 S
N125 C150 1.433 1_554 S
N125 C156 1.435 . S
N125 C162 1.423 . S
H126 C152 0.930 . S
H127 C155 0.931 . S
H128 C154 0.929 . S
H129 C157 0.930 . S
H130 C158 0.932 . S
H131 C161 0.929 . S
H132 C160 0.931 . S
H133 C163 0.929 1_556 S
H134 C167 0.932 . S
H135 C164 0.917 1_556 S
H136 C166 0.929 . S
H137 C169 0.929 . S
H138 C170 0.930 . S
H139 C172 0.929 . S
H140 C173 0.931 . S
H141 C175 0.930 . S
H142 C176 0.932 . S
H143 C178 0.931 . S
H144 C179 0.929 . S
H145 C181 0.929 1_556 S
H146 C182 0.931 1_556 S
H147 C184 0.929 . S
N148 C168 1.433 1_554 S
N148 C174 1.435 . S
N148 C180 1.423 . S
H149 C185 0.932 . S
C150 N125 1.433 1_556 S
C150 C151 1.363 . S
C150 C155 1.370 . S
C151 H124 0.916 1_556 S
C151 C150 1.363 . S
C151 C152 1.385 . S
C152 H126 0.930 . S
C152 C151 1.385 . S
C152 C153 1.357 . S
C153 C152 1.357 . S
C153 C154 1.406 . S
C154 H128 0.929 . S
C154 C153 1.406 . S
C154 C155 1.391 . S
C155 H127 0.931 . S
C155 C150 1.370 . S
C155 C154 1.391 . S
C156 N125 1.435 . S
C156 C157 1.358 . S
C156 C161 1.371 . S
C157 H129 0.930 . S
C157 C156 1.358 . S
C157 C158 1.405 . S
C158 H130 0.932 . S
C158 C157 1.405 . S
C158 C159 1.383 . S
C159 C158 1.383 . S
C159 C160 1.393 . S
C160 H132 0.931 . S
C160 C159 1.393 . S
C160 C161 1.382 . S
C161 H131 0.929 . S
C161 C156 1.371 . S
C161 C160 1.382 . S
C162 N125 1.423 . S
C162 C163 1.362 . S
C162 C167 1.388 . S
C163 H133 0.929 1_554 S
C163 C162 1.362 . S
C163 C164 1.376 . S
C164 H135 0.917 1_554 S
C164 C163 1.376 . S
C164 C165 1.396 . S
C165 C164 1.396 . S
C165 C166 1.348 . S
C165 C183 1.472 . S
C166 H136 0.929 . S
C166 C165 1.348 . S
C166 C167 1.443 . S
C167 H134 0.932 . S
C167 C162 1.388 . S
C167 C166 1.443 . S
C168 N148 1.433 1_556 S
C168 C169 1.363 . S
C168 C173 1.370 . S
C169 H137 0.929 . S
C169 C168 1.363 . S
C169 C170 1.385 . S
C170 H138 0.930 . S
C170 C169 1.385 . S
C170 C171 1.357 . S
C171 C170 1.357 . S
C171 C172 1.406 . S
C172 H139 0.929 . S
C172 C171 1.406 . S
C172 C173 1.391 . S
C173 H140 0.931 . S
C173 C168 1.370 . S
C173 C172 1.391 . S
C174 N148 1.435 . S
C174 C175 1.358 . S
C174 C179 1.371 . S
C175 H141 0.930 . S
C175 C174 1.358 . S
C175 C176 1.405 . S
C176 H142 0.932 . S
C176 C175 1.405 . S
C176 C177 1.383 . S
C177 C176 1.383 . S
C177 C178 1.393 . S
C178 H143 0.931 . S
C178 C177 1.393 . S
C178 C179 1.382 . S
C179 H144 0.929 . S
C179 C174 1.371 . S
C179 C178 1.382 . S
C180 N148 1.423 . S
C180 C181 1.362 . S
C180 C185 1.388 . S
C181 H145 0.929 1_554 S
C181 C180 1.362 . S
C181 C182 1.376 . S
C182 H146 0.931 1_554 S
C182 C181 1.376 . S
C182 C183 1.396 . S
C183 C165 1.472 . S
C183 C182 1.396 . S
C183 C184 1.348 . S
C184 H147 0.929 . S
C184 C183 1.348 . S
C184 C185 1.443 . S
C185 H149 0.932 . S
C185 C180 1.388 . S
C185 C184 1.443 . S
H186 C213 0.929 . S
N187 C212 1.433 . S
N187 C218 1.435 1_554 S
N187 C224 1.423 . S
H188 C214 0.930 . S
H189 C217 0.931 . S
H190 C216 0.929 . S
H191 C219 0.930 1_554 S
H192 C220 0.932 . S
H193 C223 0.929 . S
H194 C222 0.931 . S
H195 C225 0.929 . S
H196 C229 0.932 . S
H197 C226 0.931 . S
H198 C228 0.929 . S
H199 C231 0.929 . S
H200 C232 0.930 . S
H201 C234 0.929 . S
H202 C235 0.931 . S
H203 C237 0.930 . S
H204 C238 0.932 . S
H205 C240 0.931 . S
H206 C241 0.929 . S
H207 C243 0.929 . S
H208 C244 0.931 . S
H209 C246 0.929 . S
N210 C230 1.433 . S
N210 C236 1.435 1_554 S
N210 C242 1.423 . S
H211 C247 0.932 . S
C212 N187 1.433 . S
C212 C213 1.363 . S
C212 C217 1.370 . S
C213 H186 0.929 . S
C213 C212 1.363 . S
C213 C214 1.385 . S
C214 H188 0.930 . S
C214 C213 1.385 . S
C214 C215 1.357 . S
C215 C214 1.357 . S
C215 C216 1.406 . S
C216 H190 0.929 . S
C216 C215 1.406 . S
C216 C217 1.391 . S
C217 H189 0.931 . S
C217 C212 1.370 . S
C217 C216 1.391 . S
C218 N187 1.435 1_556 S
C218 C219 1.358 . S
C218 C223 1.371 . S
C219 H191 0.930 1_556 S
C219 C218 1.358 . S
C219 C220 1.405 . S
C220 H192 0.932 . S
C220 C219 1.405 . S
C220 C221 1.383 . S
C221 C220 1.383 . S
C221 C222 1.393 . S
C222 H194 0.931 . S
C222 C221 1.393 . S
C222 C223 1.382 . S
C223 H193 0.929 . S
C223 C218 1.371 . S
C223 C222 1.382 . S
C224 N187 1.423 . S
C224 C225 1.362 . S
C224 C229 1.388 1_554 S
C225 H195 0.929 . S
C225 C224 1.362 . S
C225 C226 1.376 . S
C226 H197 0.931 . S
C226 C225 1.376 . S
C226 C227 1.396 . S
C227 C226 1.396 . S
C227 C228 1.348 1_554 S
C227 C245 1.472 . S
C228 H198 0.929 . S
C228 C227 1.348 1_556 S
C228 C229 1.443 . S
C229 H196 0.932 . S
C229 C224 1.388 1_556 S
C229 C228 1.443 . S
C230 N210 1.433 . S
C230 C231 1.363 . S
C230 C235 1.370 . S
C231 H199 0.929 . S
C231 C230 1.363 . S
C231 C232 1.385 . S
C232 H200 0.930 . S
C232 C231 1.385 . S
C232 C233 1.357 . S
C233 C232 1.357 . S
C233 C234 1.406 . S
C234 H201 0.929 . S
C234 C233 1.406 . S
C234 C235 1.391 . S
C235 H202 0.931 . S
C235 C230 1.370 . S
C235 C234 1.391 . S
C236 N210 1.435 1_556 S
C236 C237 1.358 . S
C236 C241 1.371 . S
C237 H203 0.930 . S
C237 C236 1.358 . S
C237 C238 1.405 . S
C238 H204 0.932 . S
C238 C237 1.405 . S
C238 C239 1.383 . S
C239 C238 1.383 . S
C239 C240 1.393 . S
C240 H205 0.931 . S
C240 C239 1.393 . S
C240 C241 1.382 . S
C241 H206 0.929 . S
C241 C236 1.371 . S
C241 C240 1.382 . S
C242 N210 1.423 . S
C242 C243 1.362 . S
C242 C247 1.388 1_554 S
C243 H207 0.929 . S
C243 C242 1.362 . S
C243 C244 1.376 . S
C244 H208 0.931 . S
C244 C243 1.376 . S
C244 C245 1.396 . S
C245 C227 1.472 . S
C245 C244 1.396 . S
C245 C246 1.348 1_554 S
C246 H209 0.929 . S
C246 C245 1.348 1_556 S
C246 C247 1.443 . S
C247 H211 0.932 . S
C247 C242 1.388 1_556 S
C247 C246 1.443 . S
H248 C275 0.929 . S
N249 C274 1.433 . S
N249 C280 1.435 . S
N249 C286 1.423 . S
H250 C276 0.930 . S
H251 C279 0.931 . S
H252 C278 0.929 . S
H253 C281 0.930 . S
H254 C282 0.932 . S
H255 C285 0.929 . S
H256 C284 0.931 . S
H257 C287 0.929 . S
H258 C291 0.932 . S
H259 C288 0.931 . S
H260 C290 0.929 . S
H261 C293 0.929 . S
H262 C294 0.930 . S
H263 C296 0.929 . S
H264 C297 0.931 . S
H265 C299 0.930 . S
H266 C300 0.932 . S
H267 C302 0.931 . S
H268 C303 0.929 . S
H269 C305 0.929 . S
H270 C306 0.931 . S
H271 C308 0.929 . S
N272 C292 1.433 . S
N272 C298 1.435 . S
N272 C304 1.423 . S
H273 C309 0.932 . S
C274 N249 1.433 . S
C274 C275 1.363 . S
C274 C279 1.370 . S
C275 H248 0.929 . S
C275 C274 1.363 . S
C275 C276 1.385 . S
C276 H250 0.930 . S
C276 C275 1.385 . S
C276 C277 1.357 . S
C277 C276 1.357 . S
C277 C278 1.406 . S
C278 H252 0.929 . S
C278 C277 1.406 . S
C278 C279 1.391 . S
C279 H251 0.931 . S
C279 C274 1.370 . S
C279 C278 1.391 . S
C280 N249 1.435 . S
C280 C281 1.358 . S
C280 C285 1.371 . S
C281 H253 0.930 . S
C281 C280 1.358 . S
C281 C282 1.405 . S
C282 H254 0.932 . S
C282 C281 1.405 . S
C282 C283 1.383 1_554 S
C283 C282 1.383 1_556 S
C283 C284 1.393 . S
C284 H256 0.931 . S
C284 C283 1.393 . S
C284 C285 1.382 1_556 S
C285 H255 0.929 . S
C285 C280 1.371 . S
C285 C284 1.382 1_554 S
C286 N249 1.423 . S
C286 C287 1.362 . S
C286 C291 1.388 . S
C287 H257 0.929 . S
C287 C286 1.362 . S
C287 C288 1.376 . S
C288 H259 0.931 . S
C288 C287 1.376 . S
C288 C289 1.396 . S
C289 C288 1.396 . S
C289 C290 1.348 . S
C289 C307 1.472 . S
C290 H260 0.929 . S
C290 C289 1.348 . S
C290 C291 1.443 . S
C291 H258 0.932 . S
C291 C286 1.388 . S
C291 C290 1.443 . S
C292 N272 1.433 . S
C292 C293 1.363 . S
C292 C297 1.370 . S
C293 H261 0.929 . S
C293 C292 1.363 . S
C293 C294 1.385 . S
C294 H262 0.930 . S
C294 C293 1.385 . S
C294 C295 1.357 . S
C295 C294 1.357 . S
C295 C296 1.406 . S
C296 H263 0.929 . S
C296 C295 1.406 . S
C296 C297 1.391 . S
C297 H264 0.931 . S
C297 C292 1.370 . S
C297 C296 1.391 . S
C298 N272 1.435 . S
C298 C299 1.358 . S
C298 C303 1.371 . S
C299 H265 0.930 . S
C299 C298 1.358 . S
C299 C300 1.405 . S
C300 H266 0.932 . S
C300 C299 1.405 . S
C300 C301 1.383 1_554 S
C301 C300 1.383 1_556 S
C301 C302 1.393 . S
C302 H267 0.931 . S
C302 C301 1.393 . S
C302 C303 1.382 1_556 S
C303 H268 0.929 . S
C303 C298 1.371 . S
C303 C302 1.382 1_554 S
C304 N272 1.423 . S
C304 C305 1.362 . S
C304 C309 1.388 . S
C305 H269 0.929 . S
C305 C304 1.362 . S
C305 C306 1.376 . S
C306 H270 0.931 . S
C306 C305 1.376 . S
C306 C307 1.396 . S
C307 C289 1.472 . S
C307 C306 1.396 . S
C307 C308 1.348 . S
C308 H271 0.929 . S
C308 C307 1.348 . S
C308 C309 1.443 . S
C309 H273 0.932 . S
C309 C304 1.388 . S
C309 C308 1.443 . S
H310 C337 0.929 . S
N311 C336 1.433 . S
N311 C342 1.435 . S
N311 C348 1.423 . S
H312 C338 0.930 . S
H313 C341 0.931 . S
H314 C340 0.929 . S
H315 C343 0.930 . S
H316 C344 0.932 . S
H317 C347 0.929 . S
H318 C346 0.931 . S
H319 C349 0.929 . S
H320 C353 0.932 . S
H321 C350 0.931 . S
H322 C352 0.929 . S
H323 C355 0.929 . S
H324 C356 0.930 . S
H325 C358 0.929 . S
H326 C359 0.931 . S
H327 C361 0.930 . S
H328 C362 0.932 . S
H329 C364 0.931 . S
H330 C365 0.929 . S
H331 C367 0.929 . S
H332 C368 0.931 . S
H333 C370 0.929 . S
N334 C354 1.433 . S
N334 C360 1.435 . S
N334 C366 1.423 . S
H335 C371 0.932 . S
C336 N311 1.433 . S
C336 C337 1.363 . S
C336 C341 1.370 . S
C337 H310 0.929 . S
C337 C336 1.363 . S
C337 C338 1.385 . S
C338 H312 0.930 . S
C338 C337 1.385 . S
C338 C339 1.357 . S
C339 C338 1.357 . S
C339 C340 1.406 . S
C340 H314 0.929 . S
C340 C339 1.406 . S
C340 C341 1.391 . S
C341 H313 0.931 . S
C341 C336 1.370 . S
C341 C340 1.391 . S
C342 N311 1.435 . S
C342 C343 1.358 . S
C342 C347 1.371 . S
C343 H315 0.930 . S
C343 C342 1.358 . S
C343 C344 1.405 . S
C344 H316 0.932 . S
C344 C343 1.405 . S
C344 C345 1.383 . S
C345 C344 1.383 . S
C345 C346 1.393 . S
C346 H318 0.931 . S
C346 C345 1.393 . S
C346 C347 1.382 . S
C347 H317 0.929 . S
C347 C342 1.371 . S
C347 C346 1.382 . S
C348 N311 1.423 . S
C348 C349 1.362 . S
C348 C353 1.388 . S
C349 H319 0.929 . S
C349 C348 1.362 . S
C349 C350 1.376 . S
C350 H321 0.931 . S
C350 C349 1.376 . S
C350 C351 1.396 . S
C351 C350 1.396 . S
C351 C352 1.348 . S
C351 C369 1.472 . S
C352 H322 0.929 . S
C352 C351 1.348 . S
C352 C353 1.443 . S
C353 H320 0.932 . S
C353 C348 1.388 . S
C353 C352 1.443 . S
C354 N334 1.433 . S
C354 C355 1.363 . S
C354 C359 1.370 . S
C355 H323 0.929 . S
C355 C354 1.363 . S
C355 C356 1.385 . S
C356 H324 0.930 . S
C356 C355 1.385 . S
C356 C357 1.357 . S
C357 C356 1.357 . S
C357 C358 1.406 . S
C358 H325 0.929 . S
C358 C357 1.406 . S
C358 C359 1.391 . S
C359 H326 0.931 . S
C359 C354 1.370 . S
C359 C358 1.391 . S
C360 N334 1.435 . S
C360 C361 1.358 . S
C360 C365 1.371 . S
C361 H327 0.930 . S
C361 C360 1.358 . S
C361 C362 1.405 . S
C362 H328 0.932 . S
C362 C361 1.405 . S
C362 C363 1.383 . S
C363 C362 1.383 . S
C363 C364 1.393 . S
C364 H329 0.931 . S
C364 C363 1.393 . S
C364 C365 1.382 . S
C365 H330 0.929 . S
C365 C360 1.371 . S
C365 C364 1.382 . S
C366 N334 1.423 . S
C366 C367 1.362 . S
C366 C371 1.388 . S
C367 H331 0.929 . S
C367 C366 1.362 . S
C367 C368 1.376 . S
C368 H332 0.931 . S
C368 C367 1.376 . S
C368 C369 1.396 . S
C369 C351 1.472 . S
C369 C368 1.396 . S
C369 C370 1.348 . S
C370 H333 0.929 . S
C370 C369 1.348 . S
C370 C371 1.443 . S
C371 H335 0.932 . S
C371 C366 1.388 . S
C371 C370 1.443 . S
C372 O399 1.312 . S
C372 O400 1.208 . S
C373 O394 1.331 . S
C373 O397 1.244 . S
C374 O396 1.264 . S
C374 O398 1.273 . S
Mg375 O377 1.936 . S
Mg375 O384 2.081 1_455 S
Mg375 O386 2.023 . S
Mg375 O390 2.031 1_455 S
Mg375 O399 2.291 . S
Mg376 O377 1.963 . S
Mg376 O387 1.942 1_455 S
Mg376 O388 1.955 . S
Mg376 O395 1.986 1_455 S
O377 Mg375 1.936 . S
O377 Mg376 1.963 . S
O377 Mg378 1.915 . S
Mg378 O377 1.915 . S
Mg378 O379 1.915 . S
Mg378 O383 2.013 . S
Mg378 O389 2.114 1_455 S
Mg378 O393 2.013 1_455 S
Mg378 O399 2.114 . S
O379 Mg378 1.915 . S
O379 Mg380 1.936 . S
O379 Mg381 1.963 . S
Mg380 O379 1.936 . S
Mg380 O389 2.291 1_455 S
Mg380 O394 2.081 . S
Mg380 O396 2.023 1_455 S
Mg380 O400 2.031 . S
Mg381 O379 1.963 . S
Mg381 O385 1.986 . S
Mg381 O397 1.942 . S
Mg381 O398 1.955 1_455 S
C382 O393 1.191 . S
C382 O395 1.307 . S
O383 Mg378 2.013 . S
O383 C402 1.191 . S
O384 Mg375 2.081 1_655 S
O384 C392 1.331 . S
O385 Mg381 1.986 . S
O385 C402 1.307 . S
O386 Mg375 2.023 . S
O386 C401 1.264 . S
O387 Mg376 1.942 1_655 S
O387 C392 1.244 . S
O388 Mg376 1.955 . S
O388 C401 1.273 . S
O389 Mg378 2.114 1_655 S
O389 Mg380 2.291 1_655 S
O389 C391 1.312 . S
O390 Mg375 2.031 1_655 S
O390 C391 1.208 . S
C391 O389 1.312 . S
C391 O390 1.208 . S
C392 O384 1.331 . S
C392 O387 1.244 . S
O393 Mg378 2.013 1_655 S
O393 C382 1.191 . S
O394 C373 1.331 . S
O394 Mg380 2.081 . S
O395 Mg376 1.986 1_655 S
O395 C382 1.307 . S
O396 C374 1.264 . S
O396 Mg380 2.023 1_655 S
O397 C373 1.244 . S
O397 Mg381 1.942 . S
O398 C374 1.273 . S
O398 Mg381 1.955 1_655 S
O399 C372 1.312 . S
O399 Mg375 2.291 . S
O399 Mg378 2.114 . S
O400 C372 1.208 . S
O400 Mg380 2.031 . S
C401 O386 1.264 . S
C401 O388 1.273 . S
C402 O383 1.191 . S
C402 O385 1.307 . S
C403 O430 1.312 . S
C403 O431 1.208 . S
C404 O425 1.331 . S
C404 O428 1.244 . S
C405 O427 1.264 . S
C405 O429 1.273 . S
Mg406 O408 1.936 1_545 S
Mg406 O415 2.081 1_545 S
Mg406 O417 2.023 . S
Mg406 O421 2.031 1_545 S
Mg406 O430 2.291 . S
Mg407 O408 1.963 . S
Mg407 O418 1.942 . S
Mg407 O419 1.955 1_565 S
Mg407 O426 1.986 . S
O408 Mg406 1.936 1_565 S
O408 Mg407 1.963 . S
O408 Mg409 1.915 1_565 S
Mg409 O408 1.915 1_545 S
Mg409 O410 1.915 . S
Mg409 O414 2.013 . S
Mg409 O420 2.114 1_545 S
Mg409 O424 2.013 1_545 S
Mg409 O430 2.114 . S
O410 Mg409 1.915 . S
O410 Mg411 1.936 . S
O410 Mg412 1.963 . S
Mg411 O410 1.936 . S
Mg411 O420 2.291 1_545 S
Mg411 O425 2.081 . S
Mg411 O427 2.023 1_545 S
Mg411 O431 2.031 . S
Mg412 O410 1.963 . S
Mg412 O416 1.986 . S
Mg412 O428 1.942 . S
Mg412 O429 1.955 1_545 S
C413 O424 1.191 . S
C413 O426 1.307 . S
O414 Mg409 2.013 . S
O414 C433 1.191 . S
O415 Mg406 2.081 1_565 S
O415 C423 1.331 . S
O416 Mg412 1.986 . S
O416 C433 1.307 . S
O417 Mg406 2.023 . S
O417 C432 1.264 . S
O418 Mg407 1.942 . S
O418 C423 1.244 . S
O419 Mg407 1.955 1_545 S
O419 C432 1.273 . S
O420 Mg409 2.114 1_565 S
O420 Mg411 2.291 1_565 S
O420 C422 1.312 . S
O421 Mg406 2.031 1_565 S
O421 C422 1.208 . S
C422 O420 1.312 . S
C422 O421 1.208 . S
C423 O415 1.331 . S
C423 O418 1.244 . S
O424 Mg409 2.013 1_565 S
O424 C413 1.191 . S
O425 C404 1.331 . S
O425 Mg411 2.081 . S
O426 Mg407 1.986 . S
O426 C413 1.307 . S
O427 C405 1.264 . S
O427 Mg411 2.023 1_565 S
O428 C404 1.244 . S
O428 Mg412 1.942 . S
O429 C405 1.273 . S
O429 Mg412 1.955 1_565 S
O430 C403 1.312 . S
O430 Mg406 2.291 . S
O430 Mg409 2.114 . S
O431 C403 1.208 . S
O431 Mg411 2.031 . S
C432 O417 1.264 . S
C432 O419 1.273 . S
C433 O414 1.191 . S
C433 O416 1.307 . S
C434 O461 1.312 . S
C434 O462 1.208 . S
C435 O456 1.331 . S
C435 O459 1.244 . S
C436 O458 1.264 . S
C436 O460 1.273 . S
Mg437 O439 1.936 . S
Mg437 O446 2.081 . S
Mg437 O448 2.023 . S
Mg437 O452 2.031 . S
Mg437 O461 2.291 . S
Mg438 O439 1.963 . S
Mg438 O449 1.942 . S
Mg438 O450 1.955 . S
Mg438 O457 1.986 . S
O439 Mg437 1.936 . S
O439 Mg438 1.963 . S
O439 Mg440 1.915 . S
Mg440 O439 1.915 . S
Mg440 O441 1.915 . S
Mg440 O445 2.013 . S
Mg440 O451 2.114 . S
Mg440 O455 2.013 . S
Mg440 O461 2.114 . S
O441 Mg440 1.915 . S
O441 Mg442 1.936 . S
O441 Mg443 1.963 . S
Mg442 O441 1.936 . S
Mg442 O451 2.291 . S
Mg442 O456 2.081 . S
Mg442 O458 2.023 . S
Mg442 O462 2.031 . S
Mg443 O441 1.963 . S
Mg443 O447 1.986 . S
Mg443 O459 1.942 . S
Mg443 O460 1.955 . S
C444 O455 1.191 . S
C444 O457 1.307 . S
O445 Mg440 2.013 . S
O445 C464 1.191 . S
O446 Mg437 2.081 . S
O446 C454 1.331 . S
O447 Mg443 1.986 . S
O447 C464 1.307 . S
O448 Mg437 2.023 . S
O448 C463 1.264 . S
O449 Mg438 1.942 . S
O449 C454 1.244 . S
O450 Mg438 1.955 . S
O450 C463 1.273 . S
O451 Mg440 2.114 . S
O451 Mg442 2.291 . S
O451 C453 1.312 . S
O452 Mg437 2.031 . S
O452 C453 1.208 . S
C453 O451 1.312 . S
C453 O452 1.208 . S
C454 O446 1.331 . S
C454 O449 1.244 . S
O455 Mg440 2.013 . S
O455 C444 1.191 . S
O456 C435 1.331 . S
O456 Mg442 2.081 . S
O457 Mg438 1.986 . S
O457 C444 1.307 . S
O458 C436 1.264 . S
O458 Mg442 2.023 . S
O459 C435 1.244 . S
O459 Mg443 1.942 . S
O460 C436 1.273 . S
O460 Mg443 1.955 . S
O461 C434 1.312 . S
O461 Mg437 2.291 . S
O461 Mg440 2.114 . S
O462 C434 1.208 . S
O462 Mg442 2.031 . S
C463 O448 1.264 . S
C463 O450 1.273 . S
C464 O445 1.191 . S
C464 O447 1.307 . S
H465 C473 0.929 . S
H466 C475 0.930 . S
H467 C477 0.930 . S
H468 C480 0.929 . S
H469 C483 0.930 . S
H470 C485 0.960 . S
H471 C485 0.960 . S
H472 C485 0.960 . S
C473 H465 0.929 . S
C473 C474 1.377 . S
C473 C475 1.384 . S
C474 C473 1.377 . S
C474 C480 1.390 . S
C475 H466 0.930 . S
C475 C473 1.384 . S
C475 C476 1.372 . S
C476 C475 1.372 . S
C476 C477 1.400 . S
C476 C481 1.490 . S
C477 H467 0.930 . S
C477 C476 1.400 . S
C477 C480 1.386 . S
H478 C494 0.930 . S
H479 C495 0.931 . S
C480 H468 0.929 . S
C480 C474 1.390 . S
C480 C477 1.386 . S
C481 C476 1.490 . S
C481 C483 1.395 . S
C481 C484 1.403 . S
H482 C488 0.930 . S
C483 H469 0.930 . S
C483 C481 1.395 . S
C483 C486 1.403 . S
C484 C481 1.403 . S
C484 C485 1.524 . S
C484 C488 1.400 . S
C485 H470 0.960 . S
C485 H471 0.960 . S
C485 H472 0.960 . S
C485 C484 1.524 . S
C486 C483 1.403 . S
C486 C487 1.392 . S
C486 C490 1.495 . S
C487 C486 1.392 . S
C487 C488 1.385 . S
C487 C489 1.478 . S
C488 H482 0.930 . S
C488 C484 1.400 . S
C488 C487 1.385 . S
C489 C487 1.478 . S
C489 C491 1.381 . S
C489 C495 1.383 . S
C490 C486 1.495 . S
C490 H496 0.959 . S
C490 H497 0.961 . S
C490 H498 0.960 . S
C491 C489 1.381 . S
C491 C492 1.394 . S
C491 H499 0.930 . S
C492 C491 1.394 . S
C492 C493 1.383 . S
C492 H500 0.929 . S
C493 C492 1.383 . S
C493 C494 1.377 . S
C494 H478 0.930 . S
C494 C493 1.377 . S
C494 C495 1.379 . S
C495 H479 0.931 . S
C495 C489 1.383 . S
C495 C494 1.379 . S
H496 C490 0.959 . S
H497 C490 0.961 . S
H498 C490 0.960 . S
H499 C491 0.930 . S
H500 C492 0.929 . S
H501 C509 0.929 . S
H502 C511 0.930 . S
H503 C513 0.930 . S
H504 C516 0.929 . S
H505 C519 0.930 . S
H506 C521 0.960 . S
H507 C521 0.960 . S
H508 C521 0.960 . S
C509 H501 0.929 . S
C509 C510 1.377 . S
C509 C511 1.384 . S
C510 C509 1.377 . S
C510 C516 1.390 . S
C511 H502 0.930 . S
C511 C509 1.384 . S
C511 C512 1.372 . S
C512 C511 1.372 . S
C512 C513 1.400 . S
C512 C517 1.490 . S
C513 H503 0.930 . S
C513 C512 1.400 . S
C513 C516 1.386 . S
H514 C530 0.930 . S
H515 C531 0.931 . S
C516 H504 0.929 . S
C516 C510 1.390 . S
C516 C513 1.386 . S
C517 C512 1.490 . S
C517 C519 1.395 . S
C517 C520 1.403 . S
H518 C524 0.930 . S
C519 H505 0.930 . S
C519 C517 1.395 . S
C519 C522 1.403 . S
C520 C517 1.403 . S
C520 C521 1.524 . S
C520 C524 1.400 . S
C521 H506 0.960 . S
C521 H507 0.960 . S
C521 H508 0.960 . S
C521 C520 1.524 . S
C522 C519 1.403 . S
C522 C523 1.392 . S
C522 C526 1.495 . S
C523 C522 1.392 . S
C523 C524 1.385 . S
C523 C525 1.478 . S
C524 H518 0.930 . S
C524 C520 1.400 . S
C524 C523 1.385 . S
C525 C523 1.478 . S
C525 C527 1.381 . S
C525 C531 1.383 . S
C526 C522 1.495 . S
C526 H532 0.959 . S
C526 H533 0.961 . S
C526 H534 0.960 . S
C527 C525 1.381 . S
C527 C528 1.394 . S
C527 H535 0.930 . S
C528 C527 1.394 . S
C528 C529 1.383 . S
C528 H536 0.929 . S
C529 C528 1.383 . S
C529 C530 1.377 . S
C530 H514 0.930 . S
C530 C529 1.377 . S
C530 C531 1.379 . S
C531 H515 0.931 . S
C531 C525 1.383 . S
C531 C530 1.379 . S
H532 C526 0.959 . S
H533 C526 0.961 . S
H534 C526 0.960 . S
H535 C527 0.930 . S
H536 C528 0.929 . S
H537 C545 0.929 . S
H538 C547 0.930 . S
H539 C549 0.930 . S
H540 C552 0.929 . S
H541 C555 0.930 . S
H542 C557 0.960 . S
H543 C557 0.960 . S
H544 C557 0.960 . S
C545 H537 0.929 . S
C545 C546 1.377 . S
C545 C547 1.384 . S
C546 C545 1.377 . S
C546 C552 1.390 . S
C547 H538 0.930 . S
C547 C545 1.384 . S
C547 C548 1.372 . S
C548 C547 1.372 . S
C548 C549 1.400 . S
C548 C553 1.490 . S
C549 H539 0.930 . S
C549 C548 1.400 . S
C549 C552 1.386 . S
H550 C566 0.930 . S
H551 C567 0.931 . S
C552 H540 0.929 . S
C552 C546 1.390 . S
C552 C549 1.386 . S
C553 C548 1.490 . S
C553 C555 1.395 . S
C553 C556 1.403 . S
H554 C560 0.930 . S
C555 H541 0.930 . S
C555 C553 1.395 . S
C555 C558 1.403 . S
C556 C553 1.403 . S
C556 C557 1.524 . S
C556 C560 1.400 . S
C557 H542 0.960 . S
C557 H543 0.960 . S
C557 H544 0.960 . S
C557 C556 1.524 . S
C558 C555 1.403 . S
C558 C559 1.392 . S
C558 C562 1.495 . S
C559 C558 1.392 . S
C559 C560 1.385 . S
C559 C561 1.478 . S
C560 H554 0.930 . S
C560 C556 1.400 . S
C560 C559 1.385 . S
C561 C559 1.478 . S
C561 C563 1.381 . S
C561 C567 1.383 . S
C562 C558 1.495 . S
C562 H568 0.959 . S
C562 H569 0.961 . S
C562 H570 0.960 . S
C563 C561 1.381 . S
C563 C564 1.394 . S
C563 H571 0.930 . S
C564 C563 1.394 . S
C564 C565 1.383 . S
C564 H572 0.929 . S
C565 C564 1.383 . S
C565 C566 1.377 . S
C566 H550 0.930 . S
C566 C565 1.377 . S
C566 C567 1.379 . S
C567 H551 0.931 . S
C567 C561 1.383 . S
C567 C566 1.379 . S
H568 C562 0.959 . S
H569 C562 0.961 . S
H570 C562 0.960 . S
H571 C563 0.930 . S
H572 C564 0.929 . S
H573 C581 0.929 . S
H574 C583 0.930 . S
H575 C585 0.930 . S
H576 C588 0.929 . S
H577 C591 0.930 . S
H578 C593 0.960 . S
H579 C593 0.960 . S
H580 C593 0.960 . S
C581 H573 0.929 . S
C581 C582 1.377 . S
C581 C583 1.384 . S
C582 C581 1.377 . S
C582 C588 1.390 . S
C583 H574 0.930 . S
C583 C581 1.384 . S
C583 C584 1.372 . S
C584 C583 1.372 . S
C584 C585 1.400 . S
C584 C589 1.490 . S
C585 H575 0.930 . S
C585 C584 1.400 . S
C585 C588 1.386 . S
H586 C602 0.930 . S
H587 C603 0.931 . S
C588 H576 0.929 . S
C588 C582 1.390 . S
C588 C585 1.386 . S
C589 C584 1.490 . S
C589 C591 1.395 . S
C589 C592 1.403 . S
H590 C596 0.930 . S
C591 H577 0.930 . S
C591 C589 1.395 . S
C591 C594 1.403 . S
C592 C589 1.403 . S
C592 C593 1.524 . S
C592 C596 1.400 . S
C593 H578 0.960 . S
C593 H579 0.960 . S
C593 H580 0.960 . S
C593 C592 1.524 . S
C594 C591 1.403 . S
C594 C595 1.392 . S
C594 C598 1.495 . S
C595 C594 1.392 . S
C595 C596 1.385 . S
C595 C597 1.478 . S
C596 H590 0.930 . S
C596 C592 1.400 . S
C596 C595 1.385 . S
C597 C595 1.478 . S
C597 C599 1.381 . S
C597 C603 1.383 . S
C598 C594 1.495 . S
C598 H604 0.959 . S
C598 H605 0.961 . S
C598 H606 0.960 . S
C599 C597 1.381 . S
C599 C600 1.394 . S
C599 H607 0.930 . S
C600 C599 1.394 . S
C600 C601 1.383 . S
C600 H608 0.929 . S
C601 C600 1.383 . S
C601 C602 1.377 . S
C602 H586 0.930 . S
C602 C601 1.377 . S
C602 C603 1.379 . S
C603 H587 0.931 . S
C603 C597 1.383 . S
C603 C602 1.379 . S
H604 C598 0.959 . S
H605 C598 0.961 . S
H606 C598 0.960 . S
H607 C599 0.930 . S
H608 C600 0.929 . S
H609 C617 0.929 . S
H610 C619 0.930 . S
H611 C621 0.930 . S
H612 C624 0.929 . S
H613 C627 0.930 . S
H614 C629 0.960 . S
H615 C629 0.960 . S
H616 C629 0.960 . S
C617 H609 0.929 . S
C617 C618 1.377 . S
C617 C619 1.384 . S
C618 C617 1.377 . S
C618 C624 1.390 . S
C619 H610 0.930 . S
C619 C617 1.384 . S
C619 C620 1.372 . S
C620 C619 1.372 . S
C620 C621 1.400 . S
C620 C625 1.490 . S
C621 H611 0.930 . S
C621 C620 1.400 . S
C621 C624 1.386 . S
H622 C638 0.930 . S
H623 C639 0.931 . S
C624 H612 0.929 . S
C624 C618 1.390 . S
C624 C621 1.386 . S
C625 C620 1.490 . S
C625 C627 1.395 . S
C625 C628 1.403 . S
H626 C632 0.930 . S
C627 H613 0.930 . S
C627 C625 1.395 . S
C627 C630 1.403 . S
C628 C625 1.403 . S
C628 C629 1.524 . S
C628 C632 1.400 . S
C629 H614 0.960 . S
C629 H615 0.960 . S
C629 H616 0.960 . S
C629 C628 1.524 . S
C630 C627 1.403 . S
C630 C631 1.392 . S
C630 C634 1.495 . S
C631 C630 1.392 . S
C631 C632 1.385 . S
C631 C633 1.478 . S
C632 H626 0.930 . S
C632 C628 1.400 . S
C632 C631 1.385 . S
C633 C631 1.478 . S
C633 C635 1.381 . S
C633 C639 1.383 . S
C634 C630 1.495 . S
C634 H640 0.959 . S
C634 H641 0.961 . S
C634 H642 0.960 . S
C635 C633 1.381 . S
C635 C636 1.394 . S
C635 H643 0.930 . S
C636 C635 1.394 . S
C636 C637 1.383 . S
C636 H644 0.929 . S
C637 C636 1.383 . S
C637 C638 1.377 . S
C638 H622 0.930 . S
C638 C637 1.377 . S
C638 C639 1.379 . S
C639 H623 0.931 . S
C639 C633 1.383 . S
C639 C638 1.379 . S
H640 C634 0.959 . S
H641 C634 0.961 . S
H642 C634 0.960 . S
H643 C635 0.930 . S
H644 C636 0.929 . S
H645 C653 0.929 . S
H646 C655 0.930 . S
H647 C657 0.930 . S
H648 C660 0.929 . S
H649 C663 0.930 . S
H650 C665 0.960 . S
H651 C665 0.960 . S
H652 C665 0.960 . S
C653 H645 0.929 . S
C653 C654 1.377 . S
C653 C655 1.384 . S
C654 C653 1.377 . S
C654 C660 1.390 . S
C655 H646 0.930 . S
C655 C653 1.384 . S
C655 C656 1.372 . S
C656 C655 1.372 . S
C656 C657 1.400 . S
C656 C661 1.490 . S
C657 H647 0.930 . S
C657 C656 1.400 . S
C657 C660 1.386 . S
H658 C674 0.930 . S
H659 C675 0.931 . S
C660 H648 0.929 . S
C660 C654 1.390 . S
C660 C657 1.386 . S
C661 C656 1.490 . S
C661 C663 1.395 . S
C661 C664 1.403 . S
H662 C668 0.930 . S
C663 H649 0.930 . S
C663 C661 1.395 . S
C663 C666 1.403 . S
C664 C661 1.403 . S
C664 C665 1.524 . S
C664 C668 1.400 . S
C665 H650 0.960 . S
C665 H651 0.960 . S
C665 H652 0.960 . S
C665 C664 1.524 . S
C666 C663 1.403 . S
C666 C667 1.392 . S
C666 C670 1.495 . S
C667 C666 1.392 . S
C667 C668 1.385 . S
C667 C669 1.478 . S
C668 H662 0.930 . S
C668 C664 1.400 . S
C668 C667 1.385 . S
C669 C667 1.478 . S
C669 C671 1.381 . S
C669 C675 1.383 . S
C670 C666 1.495 . S
C670 H676 0.959 . S
C670 H677 0.961 . S
C670 H678 0.960 . S
C671 C669 1.381 . S
C671 C672 1.394 . S
C671 H679 0.930 . S
C672 C671 1.394 . S
C672 C673 1.383 . S
C672 H680 0.929 . S
C673 C672 1.383 . S
C673 C674 1.377 . S
C674 H658 0.930 . S
C674 C673 1.377 . S
C674 C675 1.379 . S
C675 H659 0.931 . S
C675 C669 1.383 . S
C675 C674 1.379 . S
H676 C670 0.959 . S
H677 C670 0.961 . S
H678 C670 0.960 . S
H679 C671 0.930 . S
H680 C672 0.929 . S
H681 C689 0.929 . S
H682 C691 0.930 . S
H683 C693 0.930 . S
H684 C696 0.929 . S
H685 C699 0.930 . S
H686 C701 0.960 . S
H687 C701 0.960 . S
H688 C701 0.960 . S
C689 H681 0.929 . S
C689 C690 1.377 . S
C689 C691 1.384 . S
C690 C689 1.377 . S
C690 C696 1.390 . S
C691 H682 0.930 . S
C691 C689 1.384 . S
C691 C692 1.372 . S
C692 C691 1.372 . S
C692 C693 1.400 . S
C692 C697 1.490 . S
C693 H683 0.930 . S
C693 C692 1.400 . S
C693 C696 1.386 . S
H694 C710 0.930 . S
H695 C711 0.931 . S
C696 H684 0.929 . S
C696 C690 1.390 . S
C696 C693 1.386 . S
C697 C692 1.490 . S
C697 C699 1.395 . S
C697 C700 1.403 . S
H698 C704 0.930 . S
C699 H685 0.930 . S
C699 C697 1.395 . S
C699 C702 1.403 . S
C700 C697 1.403 . S
C700 C701 1.524 . S
C700 C704 1.400 . S
C701 H686 0.960 . S
C701 H687 0.960 . S
C701 H688 0.960 . S
C701 C700 1.524 . S
C702 C699 1.403 . S
C702 C703 1.392 . S
C702 C706 1.495 . S
C703 C702 1.392 . S
C703 C704 1.385 . S
C703 C705 1.478 . S
C704 H698 0.930 . S
C704 C700 1.400 . S
C704 C703 1.385 . S
C705 C703 1.478 . S
C705 C707 1.381 . S
C705 C711 1.383 . S
C706 C702 1.495 . S
C706 H712 0.959 . S
C706 H713 0.961 . S
C706 H714 0.960 . S
C707 C705 1.381 . S
C707 C708 1.394 . S
C707 H715 0.930 . S
C708 C707 1.394 . S
C708 C709 1.383 . S
C708 H716 0.929 . S
C709 C708 1.383 . S
C709 C710 1.377 . S
C710 H694 0.930 . S
C710 C709 1.377 . S
C710 C711 1.379 . S
C711 H695 0.931 . S
C711 C705 1.383 . S
C711 C710 1.379 . S
H712 C706 0.959 . S
H713 C706 0.961 . S
H714 C706 0.960 . S
H715 C707 0.930 . S
H716 C708 0.929 . S
H717 C725 0.929 . S
H718 C727 0.930 . S
H719 C729 0.930 . S
H720 C732 0.929 . S
H721 C735 0.930 . S
H722 C737 0.960 . S
H723 C737 0.960 . S
H724 C737 0.960 . S
C725 H717 0.929 . S
C725 C726 1.377 . S
C725 C727 1.384 . S
C726 C725 1.377 . S
C726 C732 1.390 . S
C727 H718 0.930 . S
C727 C725 1.384 . S
C727 C728 1.372 . S
C728 C727 1.372 . S
C728 C729 1.400 . S
C728 C733 1.490 . S
C729 H719 0.930 . S
C729 C728 1.400 . S
C729 C732 1.386 . S
H730 C746 0.930 . S
H731 C747 0.931 . S
C732 H720 0.929 . S
C732 C726 1.390 . S
C732 C729 1.386 . S
C733 C728 1.490 . S
C733 C735 1.395 . S
C733 C736 1.403 . S
H734 C740 0.930 . S
C735 H721 0.930 . S
C735 C733 1.395 . S
C735 C738 1.403 . S
C736 C733 1.403 . S
C736 C737 1.524 . S
C736 C740 1.400 . S
C737 H722 0.960 . S
C737 H723 0.960 . S
C737 H724 0.960 . S
C737 C736 1.524 . S
C738 C735 1.403 . S
C738 C739 1.392 . S
C738 C742 1.495 . S
C739 C738 1.392 . S
C739 C740 1.385 . S
C739 C741 1.478 . S
C740 H734 0.930 . S
C740 C736 1.400 . S
C740 C739 1.385 . S
C741 C739 1.478 . S
C741 C743 1.381 . S
C741 C747 1.383 . S
C742 C738 1.495 . S
C742 H748 0.959 . S
C742 H749 0.961 . S
C742 H750 0.960 . S
C743 C741 1.381 . S
C743 C744 1.394 . S
C743 H751 0.930 . S
C744 C743 1.394 . S
C744 C745 1.383 . S
C744 H752 0.929 . S
C745 C744 1.383 . S
C745 C746 1.377 . S
C746 H730 0.930 . S
C746 C745 1.377 . S
C746 C747 1.379 . S
C747 H731 0.931 . S
C747 C741 1.383 . S
C747 C746 1.379 . S
H748 C742 0.959 . S
H749 C742 0.961 . S
H750 C742 0.960 . S
H751 C743 0.930 . S
H752 C744 0.929 . S
H753 C761 0.929 . S
H754 C763 0.930 . S
H755 C765 0.930 . S
H756 C768 0.929 . S
H757 C771 0.930 . S
H758 C773 0.960 . S
H759 C773 0.960 . S
H760 C773 0.960 . S
C761 H753 0.929 . S
C761 C762 1.377 . S
C761 C763 1.384 . S
C762 C761 1.377 . S
C762 C768 1.390 . S
C763 H754 0.930 . S
C763 C761 1.384 . S
C763 C764 1.372 . S
C764 C763 1.372 . S
C764 C765 1.400 . S
C764 C769 1.490 . S
C765 H755 0.930 . S
C765 C764 1.400 . S
C765 C768 1.386 . S
H766 C782 0.930 . S
H767 C783 0.931 . S
C768 H756 0.929 . S
C768 C762 1.390 . S
C768 C765 1.386 . S
C769 C764 1.490 . S
C769 C771 1.395 . S
C769 C772 1.403 . S
H770 C776 0.930 . S
C771 H757 0.930 . S
C771 C769 1.395 . S
C771 C774 1.403 . S
C772 C769 1.403 . S
C772 C773 1.524 . S
C772 C776 1.400 . S
C773 H758 0.960 . S
C773 H759 0.960 . S
C773 H760 0.960 . S
C773 C772 1.524 . S
C774 C771 1.403 . S
C774 C775 1.392 . S
C774 C778 1.495 . S
C775 C774 1.392 . S
C775 C776 1.385 . S
C775 C777 1.478 . S
C776 H770 0.930 . S
C776 C772 1.400 . S
C776 C775 1.385 . S
C777 C775 1.478 . S
C777 C779 1.381 . S
C777 C783 1.383 . S
C778 C774 1.495 . S
C778 H784 0.959 . S
C778 H785 0.961 . S
C778 H786 0.960 . S
C779 C777 1.381 . S
C779 C780 1.394 . S
C779 H787 0.930 . S
C780 C779 1.394 . S
C780 C781 1.383 . S
C780 H788 0.929 . S
C781 C780 1.383 . S
C781 C782 1.377 . S
C782 H766 0.930 . S
C782 C781 1.377 . S
C782 C783 1.379 . S
C783 H767 0.931 . S
C783 C777 1.383 . S
C783 C782 1.379 . S
H784 C778 0.959 . S
H785 C778 0.961 . S
H786 C778 0.960 . S
H787 C779 0.930 . S
H788 C780 0.929 . S
H789 C797 0.929 1_554 S
H790 C799 0.930 . S
H791 C801 0.930 . S
H792 C804 0.929 . S
H793 C807 0.930 . S
H794 C809 0.960 . S
H795 C809 0.960 . S
H796 C809 0.960 . S
C797 H789 0.929 1_556 S
C797 C798 1.377 . S
C797 C799 1.384 . S
C798 C797 1.377 . S
C798 C804 1.390 . S
C799 H790 0.930 . S
C799 C797 1.384 . S
C799 C800 1.372 . S
C800 C799 1.372 . S
C800 C801 1.400 . S
C800 C805 1.490 . S
C801 H791 0.930 . S
C801 C800 1.400 . S
C801 C804 1.386 . S
H802 C818 0.930 . S
H803 C819 0.931 . S
C804 H792 0.929 . S
C804 C798 1.390 . S
C804 C801 1.386 . S
C805 C800 1.490 . S
C805 C807 1.395 . S
C805 C808 1.403 . S
H806 C812 0.930 . S
C807 H793 0.930 . S
C807 C805 1.395 . S
C807 C810 1.403 . S
C808 C805 1.403 . S
C808 C809 1.524 . S
C808 C812 1.400 . S
C809 H794 0.960 . S
C809 H795 0.960 . S
C809 H796 0.960 . S
C809 C808 1.524 . S
C810 C807 1.403 . S
C810 C811 1.392 . S
C810 C814 1.495 . S
C811 C810 1.392 . S
C811 C812 1.385 . S
C811 C813 1.478 . S
C812 H806 0.930 . S
C812 C808 1.400 . S
C812 C811 1.385 . S
C813 C811 1.478 . S
C813 C815 1.381 . S
C813 C819 1.383 . S
C814 C810 1.495 . S
C814 H820 0.959 . S
C814 H821 0.961 . S
C814 H822 0.960 . S
C815 C813 1.381 . S
C815 C816 1.394 . S
C815 H823 0.930 . S
C816 C815 1.394 . S
C816 C817 1.383 . S
C816 H824 0.929 . S
C817 C816 1.383 . S
C817 C818 1.377 . S
C818 H802 0.930 . S
C818 C817 1.377 . S
C818 C819 1.379 . S
C819 H803 0.931 . S
C819 C813 1.383 . S
C819 C818 1.379 . S
H820 C814 0.959 . S
H821 C814 0.961 . S
H822 C814 0.960 . S
H823 C815 0.930 . S
H824 C816 0.929 . S
H825 C833 0.929 . S
H826 C835 0.930 . S
H827 C837 0.930 . S
H828 C840 0.929 . S
H829 C843 0.930 . S
H830 C845 0.960 . S
H831 C845 0.960 . S
H832 C845 0.960 . S
C833 H825 0.929 . S
C833 C834 1.377 1_556 S
C833 C835 1.384 . S
C834 C833 1.377 1_554 S
C834 C840 1.390 . S
C835 H826 0.930 . S
C835 C833 1.384 . S
C835 C836 1.372 . S
C836 C835 1.372 . S
C836 C837 1.400 . S
C836 C841 1.490 . S
C837 H827 0.930 . S
C837 C836 1.400 . S
C837 C840 1.386 1_556 S
H838 C854 0.930 . S
H839 C855 0.931 . S
C840 H828 0.929 . S
C840 C834 1.390 . S
C840 C837 1.386 1_554 S
C841 C836 1.490 . S
C841 C843 1.395 . S
C841 C844 1.403 . S
H842 C848 0.930 . S
C843 H829 0.930 . S
C843 C841 1.395 . S
C843 C846 1.403 . S
C844 C841 1.403 . S
C844 C845 1.524 . S
C844 C848 1.400 . S
C845 H830 0.960 . S
C845 H831 0.960 . S
C845 H832 0.960 . S
C845 C844 1.524 . S
C846 C843 1.403 . S
C846 C847 1.392 . S
C846 C850 1.495 . S
C847 C846 1.392 . S
C847 C848 1.385 . S
C847 C849 1.478 . S
C848 H842 0.930 . S
C848 C844 1.400 . S
C848 C847 1.385 . S
C849 C847 1.478 . S
C849 C851 1.381 . S
C849 C855 1.383 . S
C850 C846 1.495 . S
C850 H856 0.959 . S
C850 H857 0.961 . S
C850 H858 0.960 . S
C851 C849 1.381 . S
C851 C852 1.394 . S
C851 H859 0.930 . S
C852 C851 1.394 . S
C852 C853 1.383 . S
C852 H860 0.929 . S
C853 C852 1.383 . S
C853 C854 1.377 . S
C854 H838 0.930 . S
C854 C853 1.377 . S
C854 C855 1.379 . S
C855 H839 0.931 . S
C855 C849 1.383 . S
C855 C854 1.379 . S
H856 C850 0.959 . S
H857 C850 0.961 . S
H858 C850 0.960 . S
H859 C851 0.930 . S
H860 C852 0.929 . S
H861 C869 0.929 . S
H862 C871 0.930 . S
H863 C873 0.930 . S
H864 C876 0.929 . S
H865 C879 0.930 . S
H866 C881 0.960 . S
H867 C881 0.960 . S
H868 C881 0.960 . S
C869 H861 0.929 . S
C869 C870 1.377 . S
C869 C871 1.384 . S
C870 C869 1.377 . S
C870 C876 1.390 . S
C871 H862 0.930 . S
C871 C869 1.384 . S
C871 C872 1.372 . S
C872 C871 1.372 . S
C872 C873 1.400 . S
C872 C877 1.490 . S
C873 H863 0.930 . S
C873 C872 1.400 . S
C873 C876 1.386 . S
H874 C890 0.930 . S
H875 C891 0.931 . S
C876 H864 0.929 . S
C876 C870 1.390 . S
C876 C873 1.386 . S
C877 C872 1.490 . S
C877 C879 1.395 . S
C877 C880 1.403 . S
H878 C884 0.930 . S
C879 H865 0.930 . S
C879 C877 1.395 . S
C879 C882 1.403 . S
C880 C877 1.403 . S
C880 C881 1.524 . S
C880 C884 1.400 . S
C881 H866 0.960 . S
C881 H867 0.960 . S
C881 H868 0.960 . S
C881 C880 1.524 . S
C882 C879 1.403 . S
C882 C883 1.392 . S
C882 C886 1.495 . S
C883 C882 1.392 . S
C883 C884 1.385 . S
C883 C885 1.478 . S
C884 H878 0.930 . S
C884 C880 1.400 . S
C884 C883 1.385 . S
C885 C883 1.478 . S
C885 C887 1.381 . S
C885 C891 1.383 . S
C886 C882 1.495 . S
C886 H892 0.959 . S
C886 H893 0.961 . S
C886 H894 0.960 . S
C887 C885 1.381 . S
C887 C888 1.394 . S
C887 H895 0.930 . S
C888 C887 1.394 . S
C888 C889 1.383 . S
C888 H896 0.929 . S
C889 C888 1.383 . S
C889 C890 1.377 . S
C890 H874 0.930 . S
C890 C889 1.377 . S
C890 C891 1.379 . S
C891 H875 0.931 . S
C891 C885 1.383 . S
C891 C890 1.379 . S
H892 C886 0.959 . S
H893 C886 0.961 . S
H894 C886 0.960 . S
H895 C887 0.930 . S
H896 C888 0.929 . S
H897 C905 0.929 . S
H898 C907 0.930 . S
H899 C909 0.930 . S
H900 C912 0.929 . S
H901 C915 0.930 . S
H902 C917 0.960 . S
H903 C917 0.960 . S
H904 C917 0.960 . S
C905 H897 0.929 . S
C905 C906 1.377 . S
C905 C907 1.384 . S
C906 C905 1.377 . S
C906 C912 1.390 . S
C907 H898 0.930 . S
C907 C905 1.384 . S
C907 C908 1.372 . S
C908 C907 1.372 . S
C908 C909 1.400 . S
C908 C913 1.490 . S
C909 H899 0.930 . S
C909 C908 1.400 . S
C909 C912 1.386 . S
H910 C926 0.930 . S
H911 C927 0.931 . S
C912 H900 0.929 . S
C912 C906 1.390 . S
C912 C909 1.386 . S
C913 C908 1.490 . S
C913 C915 1.395 . S
C913 C916 1.403 . S
H914 C920 0.930 . S
C915 H901 0.930 . S
C915 C913 1.395 . S
C915 C918 1.403 . S
C916 C913 1.403 . S
C916 C917 1.524 . S
C916 C920 1.400 . S
C917 H902 0.960 . S
C917 H903 0.960 . S
C917 H904 0.960 . S
C917 C916 1.524 . S
C918 C915 1.403 . S
C918 C919 1.392 . S
C918 C922 1.495 . S
C919 C918 1.392 . S
C919 C920 1.385 . S
C919 C921 1.478 . S
C920 H914 0.930 . S
C920 C916 1.400 . S
C920 C919 1.385 . S
C921 C919 1.478 . S
C921 C923 1.381 . S
C921 C927 1.383 . S
C922 C918 1.495 . S
C922 H928 0.959 . S
C922 H929 0.961 . S
C922 H930 0.960 . S
C923 C921 1.381 . S
C923 C924 1.394 . S
C923 H931 0.930 . S
C924 C923 1.394 . S
C924 C925 1.383 . S
C924 H932 0.929 . S
C925 C924 1.383 . S
C925 C926 1.377 . S
C926 H910 0.930 . S
C926 C925 1.377 . S
C926 C927 1.379 . S
C927 H911 0.931 . S
C927 C921 1.383 . S
C927 C926 1.379 . S
H928 C922 0.959 . S
H929 C922 0.961 . S
H930 C922 0.960 . S
H931 C923 0.930 . S
H932 C924 0.929 . S
H933 C941 0.929 . S
H934 C943 0.930 . S
H935 C945 0.930 . S
H936 C948 0.921 1_554 S
H937 C951 0.930 . S
H938 C953 0.960 . S
H939 C953 0.960 . S
H940 C953 0.960 . S
C941 H933 0.929 . S
C941 C942 1.377 . S
C941 C943 1.384 . S
C942 C941 1.377 . S
C942 C948 1.390 . S
C943 H934 0.930 . S
C943 C941 1.384 . S
C943 C944 1.372 . S
C944 C943 1.372 . S
C944 C945 1.400 . S
C944 C949 1.490 . S
C945 H935 0.930 . S
C945 C944 1.400 . S
C945 C948 1.386 . S
H946 C962 0.930 . S
H947 C963 0.931 . S
C948 H936 0.921 1_556 S
C948 C942 1.390 . S
C948 C945 1.386 . S
C949 C944 1.490 . S
C949 C951 1.395 . S
C949 C952 1.403 . S
H950 C956 0.930 . S
C951 H937 0.930 . S
C951 C949 1.395 . S
C951 C954 1.403 . S
C952 C949 1.403 . S
C952 C953 1.524 . S
C952 C956 1.400 . S
C953 H938 0.960 . S
C953 H939 0.960 . S
C953 H940 0.960 . S
C953 C952 1.524 . S
C954 C951 1.403 . S
C954 C955 1.392 . S
C954 C958 1.495 . S
C955 C954 1.392 . S
C955 C956 1.385 . S
C955 C957 1.478 . S
C956 H950 0.930 . S
C956 C952 1.400 . S
C956 C955 1.385 . S
C957 C955 1.478 . S
C957 C959 1.381 . S
C957 C963 1.383 . S
C958 C954 1.495 . S
C958 H964 0.959 . S
C958 H965 0.961 . S
C958 H966 0.960 . S
C959 C957 1.381 . S
C959 C960 1.394 . S
C959 H967 0.930 . S
C960 C959 1.394 . S
C960 C961 1.383 . S
C960 H968 0.929 . S
C961 C960 1.383 . S
C961 C962 1.377 . S
C962 H946 0.930 . S
C962 C961 1.377 . S
C962 C963 1.379 . S
C963 H947 0.931 . S
C963 C957 1.383 . S
C963 C962 1.379 . S
H964 C958 0.959 . S
H965 C958 0.961 . S
H966 C958 0.960 . S
H967 C959 0.930 . S
H968 C960 0.929 . S
H969 C977 0.929 . S
H970 C979 0.930 . S
H971 C981 0.930 . S
H972 C984 0.929 1_554 S
H973 C987 0.930 . S
H974 C989 0.960 . S
H975 C989 0.960 . S
H976 C989 0.960 . S
C977 H969 0.929 . S
C977 C978 1.377 . S
C977 C979 1.384 . S
C978 C977 1.377 . S
C978 C984 1.390 . S
C979 H970 0.930 . S
C979 C977 1.384 . S
C979 C980 1.372 . S
C980 C979 1.372 . S
C980 C981 1.400 . S
C980 C985 1.490 . S
C981 H971 0.930 . S
C981 C980 1.400 . S
C981 C984 1.386 . S
H982 C998 0.930 . S
H983 C999 0.931 . S
C984 H972 0.929 1_556 S
C984 C978 1.390 . S
C984 C981 1.386 . S
C985 C980 1.490 . S
C985 C987 1.395 . S
C985 C988 1.403 . S
H986 C992 0.930 . S
C987 H973 0.930 . S
C987 C985 1.395 . S
C987 C990 1.403 . S
C988 C985 1.403 . S
C988 C989 1.524 . S
C988 C992 1.400 . S
C989 H974 0.960 . S
C989 H975 0.960 . S
C989 H976 0.960 . S
C989 C988 1.524 . S
C990 C987 1.403 . S
C990 C991 1.392 . S
C990 C994 1.495 . S
C991 C990 1.392 . S
C991 C992 1.385 . S
C991 C993 1.478 . S
C992 H986 0.930 . S
C992 C988 1.400 . S
C992 C991 1.385 . S
C993 C991 1.478 . S
C993 C995 1.381 . S
C993 C999 1.383 . S
C994 C990 1.495 . S
C994 H1000 0.959 . S
C994 H1001 0.961 . S
C994 H1002 0.960 . S
C995 C993 1.381 . S
C995 C996 1.394 . S
C995 H1003 0.930 . S
C996 C995 1.394 . S
C996 C997 1.383 . S
C996 H1004 0.929 . S
C997 C996 1.383 . S
C997 C998 1.377 . S
C998 H982 0.930 . S
C998 C997 1.377 . S
C998 C999 1.379 . S
C999 H983 0.931 . S
C999 C993 1.383 . S
C999 C998 1.379 . S
H1000 C994 0.959 . S
H1001 C994 0.961 . S
H1002 C994 0.960 . S
H1003 C995 0.930 . S
H1004 C996 0.929 . S
H1005 C1013 0.929 . S
H1006 C1015 0.930 . S
H1007 C1017 0.930 . S
H1008 C1020 0.929 1_554 S
H1009 C1023 0.930 . S
H1010 C1025 0.960 . S
H1011 C1025 0.960 . S
H1012 C1025 0.960 . S
C1013 H1005 0.929 . S
C1013 C1014 1.377 1_556 S
C1013 C1015 1.384 . S
C1014 C1013 1.377 1_554 S
C1014 C1020 1.390 1_554 S
C1015 H1006 0.930 . S
C1015 C1013 1.384 . S
C1015 C1016 1.372 . S
C1016 C1015 1.372 . S
C1016 C1017 1.400 . S
C1016 C1021 1.490 . S
C1017 H1007 0.930 . S
C1017 C1016 1.400 . S
C1017 C1020 1.386 . S
H1018 C1034 0.930 . S
H1019 C1035 0.931 . S
C1020 H1008 0.929 1_556 S
C1020 C1014 1.390 1_556 S
C1020 C1017 1.386 . S
C1021 C1016 1.490 . S
C1021 C1023 1.395 . S
C1021 C1024 1.403 . S
H1022 C1028 0.930 . S
C1023 H1009 0.930 . S
C1023 C1021 1.395 . S
C1023 C1026 1.403 . S
C1024 C1021 1.403 . S
C1024 C1025 1.524 . S
C1024 C1028 1.400 . S
C1025 H1010 0.960 . S
C1025 H1011 0.960 . S
C1025 H1012 0.960 . S
C1025 C1024 1.524 . S
C1026 C1023 1.403 . S
C1026 C1027 1.392 . S
C1026 C1030 1.495 . S
C1027 C1026 1.392 . S
C1027 C1028 1.385 . S
C1027 C1029 1.478 . S
C1028 H1022 0.930 . S
C1028 C1024 1.400 . S
C1028 C1027 1.385 . S
C1029 C1027 1.478 . S
C1029 C1031 1.381 . S
C1029 C1035 1.383 . S
C1030 C1026 1.495 . S
C1030 H1036 0.959 . S
C1030 H1037 0.961 . S
C1030 H1038 0.960 . S
C1031 C1029 1.381 . S
C1031 C1032 1.394 . S
C1031 H1039 0.930 . S
C1032 C1031 1.394 . S
C1032 C1033 1.383 . S
C1032 H1040 0.929 . S
C1033 C1032 1.383 . S
C1033 C1034 1.377 . S
C1034 H1018 0.930 . S
C1034 C1033 1.377 . S
C1034 C1035 1.379 . S
C1035 H1019 0.931 . S
C1035 C1029 1.383 . S
C1035 C1034 1.379 . S
H1036 C1030 0.959 . S
H1037 C1030 0.961 . S
H1038 C1030 0.960 . S
H1039 C1031 0.930 . S
H1040 C1032 0.929 . S
H1041 C1049 0.929 . S
H1042 C1051 0.930 . S
H1043 C1053 0.930 . S
H1044 C1056 0.929 . S
H1045 C1059 0.930 . S
H1046 C1061 0.960 . S
H1047 C1061 0.960 . S
H1048 C1061 0.960 . S
C1049 H1041 0.929 . S
C1049 C1050 1.377 . S
C1049 C1051 1.384 . S
C1050 C1049 1.377 . S
C1050 C1056 1.390 . S
C1051 H1042 0.930 . S
C1051 C1049 1.384 . S
C1051 C1052 1.372 . S
C1052 C1051 1.372 . S
C1052 C1053 1.400 . S
C1052 C1057 1.490 . S
C1053 H1043 0.930 . S
C1053 C1052 1.400 . S
C1053 C1056 1.386 . S
H1054 C1070 0.930 . S
H1055 C1071 0.931 . S
C1056 H1044 0.929 . S
C1056 C1050 1.390 . S
C1056 C1053 1.386 . S
C1057 C1052 1.490 . S
C1057 C1059 1.395 . S
C1057 C1060 1.403 . S
H1058 C1064 0.930 . S
C1059 H1045 0.930 . S
C1059 C1057 1.395 . S
C1059 C1062 1.403 . S
C1060 C1057 1.403 . S
C1060 C1061 1.524 . S
C1060 C1064 1.400 . S
C1061 H1046 0.960 . S
C1061 H1047 0.960 . S
C1061 H1048 0.960 . S
C1061 C1060 1.524 . S
C1062 C1059 1.403 . S
C1062 C1063 1.392 . S
C1062 C1066 1.495 . S
C1063 C1062 1.392 . S
C1063 C1064 1.385 . S
C1063 C1065 1.478 . S
C1064 H1058 0.930 . S
C1064 C1060 1.400 . S
C1064 C1063 1.385 . S
C1065 C1063 1.478 . S
C1065 C1067 1.381 . S
C1065 C1071 1.383 . S
C1066 C1062 1.495 . S
C1066 H1072 0.959 . S
C1066 H1073 0.961 . S
C1066 H1074 0.960 . S
C1067 C1065 1.381 . S
C1067 C1068 1.394 . S
C1067 H1075 0.930 . S
C1068 C1067 1.394 . S
C1068 C1069 1.383 . S
C1068 H1076 0.929 . S
C1069 C1068 1.383 . S
C1069 C1070 1.377 . S
C1070 H1054 0.930 . S
C1070 C1069 1.377 . S
C1070 C1071 1.379 . S
C1071 H1055 0.931 . S
C1071 C1065 1.383 . S
C1071 C1070 1.379 . S
H1072 C1066 0.959 . S
H1073 C1066 0.961 . S
H1074 C1066 0.960 . S
H1075 C1067 0.930 . S
H1076 C1068 0.929 . S
H1077 C1085 0.929 . S
H1078 C1087 0.930 . S
H1079 C1089 0.930 . S
H1080 C1092 0.929 . S
H1081 C1095 0.930 . S
H1082 C1097 0.960 . S
H1083 C1097 0.960 . S
H1084 C1097 0.960 . S
C1085 H1077 0.929 . S
C1085 C1086 1.377 . S
C1085 C1087 1.384 . S
C1086 C1085 1.377 . S
C1086 C1092 1.390 . S
C1087 H1078 0.930 . S
C1087 C1085 1.384 . S
C1087 C1088 1.372 . S
C1088 C1087 1.372 . S
C1088 C1089 1.400 . S
C1088 C1093 1.490 . S
C1089 H1079 0.930 . S
C1089 C1088 1.400 . S
C1089 C1092 1.386 . S
H1090 C1106 0.930 . S
H1091 C1107 0.931 . S
C1092 H1080 0.929 . S
C1092 C1086 1.390 . S
C1092 C1089 1.386 . S
C1093 C1088 1.490 . S
C1093 C1095 1.395 . S
C1093 C1096 1.403 . S
H1094 C1100 0.930 . S
C1095 H1081 0.930 . S
C1095 C1093 1.395 . S
C1095 C1098 1.403 . S
C1096 C1093 1.403 . S
C1096 C1097 1.524 . S
C1096 C1100 1.400 . S
C1097 H1082 0.960 . S
C1097 H1083 0.960 . S
C1097 H1084 0.960 . S
C1097 C1096 1.524 . S
C1098 C1095 1.403 . S
C1098 C1099 1.392 . S
C1098 C1102 1.495 . S
C1099 C1098 1.392 . S
C1099 C1100 1.385 . S
C1099 C1101 1.478 . S
C1100 H1094 0.930 . S
C1100 C1096 1.400 . S
C1100 C1099 1.385 . S
C1101 C1099 1.478 . S
C1101 C1103 1.381 . S
C1101 C1107 1.383 . S
C1102 C1098 1.495 . S
C1102 H1108 0.959 . S
C1102 H1109 0.961 . S
C1102 H1110 0.960 . S
C1103 C1101 1.381 . S
C1103 C1104 1.394 . S
C1103 H1111 0.930 . S
C1104 C1103 1.394 . S
C1104 C1105 1.383 . S
C1104 H1112 0.929 . S
C1105 C1104 1.383 . S
C1105 C1106 1.377 . S
C1106 H1090 0.930 . S
C1106 C1105 1.377 . S
C1106 C1107 1.379 . S
C1107 H1091 0.931 . S
C1107 C1101 1.383 . S
C1107 C1106 1.379 . S
H1108 C1102 0.959 . S
H1109 C1102 0.961 . S
H1110 C1102 0.960 . S
H1111 C1103 0.930 . S
H1112 C1104 0.929 . S
H1113 C1121 0.929 . S
H1114 C1123 0.930 . S
H1115 C1125 0.930 . S
H1116 C1128 0.929 . S
H1117 C1131 0.930 . S
H1118 C1133 0.960 . S
H1119 C1133 0.960 . S
H1120 C1133 0.960 . S
C1121 H1113 0.929 . S
C1121 C1122 1.377 . S
C1121 C1123 1.384 . S
C1122 C1121 1.377 . S
C1122 C1128 1.390 . S
C1123 H1114 0.930 . S
C1123 C1121 1.384 . S
C1123 C1124 1.372 . S
C1124 C1123 1.372 . S
C1124 C1125 1.400 . S
C1124 C1129 1.490 . S
C1125 H1115 0.930 . S
C1125 C1124 1.400 . S
C1125 C1128 1.386 . S
H1126 C1142 0.930 . S
H1127 C1143 0.931 . S
C1128 H1116 0.929 . S
C1128 C1122 1.390 . S
C1128 C1125 1.386 . S
C1129 C1124 1.490 . S
C1129 C1131 1.395 . S
C1129 C1132 1.403 . S
H1130 C1136 0.930 . S
C1131 H1117 0.930 . S
C1131 C1129 1.395 . S
C1131 C1134 1.403 . S
C1132 C1129 1.403 . S
C1132 C1133 1.524 . S
C1132 C1136 1.400 . S
C1133 H1118 0.960 . S
C1133 H1119 0.960 . S
C1133 H1120 0.960 . S
C1133 C1132 1.524 . S
C1134 C1131 1.403 . S
C1134 C1135 1.392 . S
C1134 C1138 1.495 . S
C1135 C1134 1.392 . S
C1135 C1136 1.385 . S
C1135 C1137 1.478 . S
C1136 H1130 0.930 . S
C1136 C1132 1.400 . S
C1136 C1135 1.385 . S
C1137 C1135 1.478 . S
C1137 C1139 1.381 . S
C1137 C1143 1.383 . S
C1138 C1134 1.495 . S
C1138 H1144 0.959 . S
C1138 H1145 0.961 . S
C1138 H1146 0.960 . S
C1139 C1137 1.381 . S
C1139 C1140 1.394 . S
C1139 H1147 0.930 . S
C1140 C1139 1.394 . S
C1140 C1141 1.383 . S
C1140 H1148 0.929 . S
C1141 C1140 1.383 . S
C1141 C1142 1.377 . S
C1142 H1126 0.930 . S
C1142 C1141 1.377 . S
C1142 C1143 1.379 . S
C1143 H1127 0.931 . S
C1143 C1137 1.383 . S
C1143 C1142 1.379 . S
H1144 C1138 0.959 . S
H1145 C1138 0.961 . S
H1146 C1138 0.960 . S
H1147 C1139 0.930 . S
H1148 C1140 0.929 . S
H1149 C1157 0.929 . S
H1150 C1159 0.930 . S
H1151 C1161 0.930 . S
H1152 C1164 0.929 . S
H1153 C1167 0.930 . S
H1154 C1169 0.960 . S
H1155 C1169 0.960 . S
H1156 C1169 0.960 . S
C1157 H1149 0.929 . S
C1157 C1158 1.377 . S
C1157 C1159 1.384 . S
C1158 C1157 1.377 . S
C1158 C1164 1.390 . S
C1159 H1150 0.930 . S
C1159 C1157 1.384 . S
C1159 C1160 1.372 . S
C1160 C1159 1.372 . S
C1160 C1161 1.400 . S
C1160 C1165 1.490 . S
C1161 H1151 0.930 . S
C1161 C1160 1.400 . S
C1161 C1164 1.386 . S
H1162 C1178 0.930 . S
H1163 C1179 0.931 . S
C1164 H1152 0.929 . S
C1164 C1158 1.390 . S
C1164 C1161 1.386 . S
C1165 C1160 1.490 . S
C1165 C1167 1.395 . S
C1165 C1168 1.403 . S
H1166 C1172 0.930 . S
C1167 H1153 0.930 . S
C1167 C1165 1.395 . S
C1167 C1170 1.403 . S
C1168 C1165 1.403 . S
C1168 C1169 1.524 . S
C1168 C1172 1.400 . S
C1169 H1154 0.960 . S
C1169 H1155 0.960 . S
C1169 H1156 0.960 . S
C1169 C1168 1.524 . S
C1170 C1167 1.403 . S
C1170 C1171 1.392 . S
C1170 C1174 1.495 . S
C1171 C1170 1.392 . S
C1171 C1172 1.385 . S
C1171 C1173 1.478 . S
C1172 H1166 0.930 . S
C1172 C1168 1.400 . S
C1172 C1171 1.385 . S
C1173 C1171 1.478 . S
C1173 C1175 1.381 . S
C1173 C1179 1.383 . S
C1174 C1170 1.495 . S
C1174 H1180 0.959 . S
C1174 H1181 0.961 . S
C1174 H1182 0.960 . S
C1175 C1173 1.381 . S
C1175 C1176 1.394 . S
C1175 H1183 0.930 . S
C1176 C1175 1.394 . S
C1176 C1177 1.383 . S
C1176 H1184 0.929 . S
C1177 C1176 1.383 . S
C1177 C1178 1.377 . S
C1178 H1162 0.930 . S
C1178 C1177 1.377 . S
C1178 C1179 1.379 . S
C1179 H1163 0.931 . S
C1179 C1173 1.383 . S
C1179 C1178 1.379 . S
H1180 C1174 0.959 . S
H1181 C1174 0.961 . S
H1182 C1174 0.960 . S
H1183 C1175 0.930 . S
H1184 C1176 0.929 . S
H1185 C1193 0.929 . S
H1186 C1195 0.930 . S
H1187 C1197 0.930 . S
H1188 C1200 0.929 . S
H1189 C1203 0.930 . S
H1190 C1205 0.960 . S
H1191 C1205 0.960 . S
H1192 C1205 0.960 . S
C1193 H1185 0.929 . S
C1193 C1194 1.377 . S
C1193 C1195 1.384 . S
C1194 C1193 1.377 . S
C1194 C1200 1.390 . S
C1195 H1186 0.930 . S
C1195 C1193 1.384 . S
C1195 C1196 1.372 . S
C1196 C1195 1.372 . S
C1196 C1197 1.400 . S
C1196 C1201 1.490 . S
C1197 H1187 0.930 . S
C1197 C1196 1.400 . S
C1197 C1200 1.386 . S
H1198 C1214 0.930 . S
H1199 C1215 0.931 . S
C1200 H1188 0.929 . S
C1200 C1194 1.390 . S
C1200 C1197 1.386 . S
C1201 C1196 1.490 . S
C1201 C1203 1.395 . S
C1201 C1204 1.403 . S
H1202 C1208 0.930 . S
C1203 H1189 0.930 . S
C1203 C1201 1.395 . S
C1203 C1206 1.403 . S
C1204 C1201 1.403 . S
C1204 C1205 1.524 . S
C1204 C1208 1.400 . S
C1205 H1190 0.960 . S
C1205 H1191 0.960 . S
C1205 H1192 0.960 . S
C1205 C1204 1.524 . S
C1206 C1203 1.403 . S
C1206 C1207 1.392 . S
C1206 C1210 1.495 . S
C1207 C1206 1.392 . S
C1207 C1208 1.385 . S
C1207 C1209 1.478 . S
C1208 H1202 0.930 . S
C1208 C1204 1.400 . S
C1208 C1207 1.385 . S
C1209 C1207 1.478 . S
C1209 C1211 1.381 . S
C1209 C1215 1.383 . S
C1210 C1206 1.495 . S
C1210 H1216 0.959 . S
C1210 H1217 0.961 . S
C1210 H1218 0.960 . S
C1211 C1209 1.381 . S
C1211 C1212 1.394 . S
C1211 H1219 0.930 . S
C1212 C1211 1.394 . S
C1212 C1213 1.383 . S
C1212 H1220 0.929 . S
C1213 C1212 1.383 . S
C1213 C1214 1.377 . S
C1214 H1198 0.930 . S
C1214 C1213 1.377 . S
C1214 C1215 1.379 . S
C1215 H1199 0.931 . S
C1215 C1209 1.383 . S
C1215 C1214 1.379 . S
H1216 C1210 0.959 . S
H1217 C1210 0.961 . S
H1218 C1210 0.960 . S
H1219 C1211 0.930 . S
H1220 C1212 0.929 . S
H1221 C1229 0.929 . S
H1222 C1231 0.930 . S
H1223 C1233 0.930 . S
H1224 C1236 0.929 . S
H1225 C1239 0.930 . S
H1226 C1241 0.960 . S
H1227 C1241 0.960 . S
H1228 C1241 0.960 . S
C1229 H1221 0.929 . S
C1229 C1230 1.377 . S
C1229 C1231 1.384 . S
C1230 C1229 1.377 . S
C1230 C1236 1.390 . S
C1231 H1222 0.930 . S
C1231 C1229 1.384 . S
C1231 C1232 1.372 . S
C1232 C1231 1.372 . S
C1232 C1233 1.400 . S
C1232 C1237 1.490 . S
C1233 H1223 0.930 . S
C1233 C1232 1.400 . S
C1233 C1236 1.386 . S
H1234 C1250 0.930 . S
H1235 C1251 0.931 . S
C1236 H1224 0.929 . S
C1236 C1230 1.390 . S
C1236 C1233 1.386 . S
C1237 C1232 1.490 . S
C1237 C1239 1.395 . S
C1237 C1240 1.403 . S
H1238 C1244 0.930 . S
C1239 H1225 0.930 . S
C1239 C1237 1.395 . S
C1239 C1242 1.403 . S
C1240 C1237 1.403 . S
C1240 C1241 1.524 . S
C1240 C1244 1.400 . S
C1241 H1226 0.960 . S
C1241 H1227 0.960 . S
C1241 H1228 0.960 . S
C1241 C1240 1.524 . S
C1242 C1239 1.403 . S
C1242 C1243 1.392 . S
C1242 C1246 1.495 . S
C1243 C1242 1.392 . S
C1243 C1244 1.385 . S
C1243 C1245 1.478 . S
C1244 H1238 0.930 . S
C1244 C1240 1.400 . S
C1244 C1243 1.385 . S
C1245 C1243 1.478 . S
C1245 C1247 1.381 . S
C1245 C1251 1.383 . S
C1246 C1242 1.495 . S
C1246 H1252 0.959 . S
C1246 H1253 0.961 . S
C1246 H1254 0.960 . S
C1247 C1245 1.381 . S
C1247 C1248 1.394 . S
C1247 H1255 0.930 . S
C1248 C1247 1.394 . S
C1248 C1249 1.383 . S
C1248 H1256 0.929 . S
C1249 C1248 1.383 . S
C1249 C1250 1.377 . S
C1250 H1234 0.930 . S
C1250 C1249 1.377 . S
C1250 C1251 1.379 . S
C1251 H1235 0.931 . S
C1251 C1245 1.383 . S
C1251 C1250 1.379 . S
H1252 C1246 0.959 . S
H1253 C1246 0.961 . S
H1254 C1246 0.960 . S
H1255 C1247 0.930 . S
H1256 C1248 0.929 . S
H1257 C1265 0.929 . S
H1258 C1267 0.930 . S
H1259 C1269 0.930 . S
H1260 C1272 0.929 . S
H1261 C1275 0.930 . S
H1262 C1277 0.960 . S
H1263 C1277 0.960 . S
H1264 C1277 0.960 . S
C1265 H1257 0.929 . S
C1265 C1266 1.377 . S
C1265 C1267 1.384 . S
C1266 C1265 1.377 . S
C1266 C1272 1.390 . S
C1267 H1258 0.930 . S
C1267 C1265 1.384 . S
C1267 C1268 1.372 . S
C1268 C1267 1.372 . S
C1268 C1269 1.400 . S
C1268 C1273 1.490 . S
C1269 H1259 0.930 . S
C1269 C1268 1.400 . S
C1269 C1272 1.386 . S
H1270 C1286 0.930 . S
H1271 C1287 0.931 . S
C1272 H1260 0.929 . S
C1272 C1266 1.390 . S
C1272 C1269 1.386 . S
C1273 C1268 1.490 . S
C1273 C1275 1.395 . S
C1273 C1276 1.403 . S
H1274 C1280 0.930 . S
C1275 H1261 0.930 . S
C1275 C1273 1.395 . S
C1275 C1278 1.403 . S
C1276 C1273 1.403 . S
C1276 C1277 1.524 . S
C1276 C1280 1.400 . S
C1277 H1262 0.960 . S
C1277 H1263 0.960 . S
C1277 H1264 0.960 . S
C1277 C1276 1.524 . S
C1278 C1275 1.403 . S
C1278 C1279 1.392 . S
C1278 C1282 1.495 . S
C1279 C1278 1.392 . S
C1279 C1280 1.385 . S
C1279 C1281 1.478 . S
C1280 H1274 0.930 . S
C1280 C1276 1.400 . S
C1280 C1279 1.385 . S
C1281 C1279 1.478 . S
C1281 C1283 1.381 . S
C1281 C1287 1.383 . S
C1282 C1278 1.495 . S
C1282 H1288 0.959 . S
C1282 H1289 0.961 . S
C1282 H1290 0.960 . S
C1283 C1281 1.381 . S
C1283 C1284 1.394 . S
C1283 H1291 0.930 . S
C1284 C1283 1.394 . S
C1284 C1285 1.383 . S
C1284 H1292 0.929 . S
C1285 C1284 1.383 . S
C1285 C1286 1.377 . S
C1286 H1270 0.930 . S
C1286 C1285 1.377 . S
C1286 C1287 1.379 . S
C1287 H1271 0.931 . S
C1287 C1281 1.383 . S
C1287 C1286 1.379 . S
H1288 C1282 0.959 . S
H1289 C1282 0.961 . S
H1290 C1282 0.960 . S
H1291 C1283 0.930 . S
H1292 C1284 0.929 . S
H1293 C1301 0.929 . S
H1294 C1303 0.930 . S
H1295 C1305 0.930 . S
H1296 C1308 0.929 . S
H1297 C1311 0.930 . S
H1298 C1313 0.960 . S
H1299 C1313 0.960 . S
H1300 C1313 0.960 . S
C1301 H1293 0.929 . S
C1301 C1302 1.377 . S
C1301 C1303 1.384 . S
C1302 C1301 1.377 . S
C1302 C1308 1.390 . S
C1303 H1294 0.930 . S
C1303 C1301 1.384 . S
C1303 C1304 1.372 . S
C1304 C1303 1.372 . S
C1304 C1305 1.400 . S
C1304 C1309 1.490 . S
C1305 H1295 0.930 . S
C1305 C1304 1.400 . S
C1305 C1308 1.386 . S
H1306 C1322 0.930 . S
H1307 C1323 0.931 . S
C1308 H1296 0.929 . S
C1308 C1302 1.390 . S
C1308 C1305 1.386 . S
C1309 C1304 1.490 . S
C1309 C1311 1.395 . S
C1309 C1312 1.403 . S
H1310 C1316 0.930 . S
C1311 H1297 0.930 . S
C1311 C1309 1.395 . S
C1311 C1314 1.403 . S
C1312 C1309 1.403 . S
C1312 C1313 1.524 . S
C1312 C1316 1.400 . S
C1313 H1298 0.960 . S
C1313 H1299 0.960 . S
C1313 H1300 0.960 . S
C1313 C1312 1.524 . S
C1314 C1311 1.403 . S
C1314 C1315 1.392 . S
C1314 C1318 1.495 . S
C1315 C1314 1.392 . S
C1315 C1316 1.385 . S
C1315 C1317 1.478 . S
C1316 H1310 0.930 . S
C1316 C1312 1.400 . S
C1316 C1315 1.385 . S
C1317 C1315 1.478 . S
C1317 C1319 1.381 . S
C1317 C1323 1.383 . S
C1318 C1314 1.495 . S
C1318 H1324 0.959 . S
C1318 H1325 0.961 . S
C1318 H1326 0.960 . S
C1319 C1317 1.381 . S
C1319 C1320 1.394 . S
C1319 H1327 0.930 . S
C1320 C1319 1.394 . S
C1320 C1321 1.383 . S
C1320 H1328 0.929 . S
C1321 C1320 1.383 . S
C1321 C1322 1.377 . S
C1322 H1306 0.930 . S
C1322 C1321 1.377 . S
C1322 C1323 1.379 . S
C1323 H1307 0.931 . S
C1323 C1317 1.383 . S
C1323 C1322 1.379 . S
H1324 C1318 0.959 . S
H1325 C1318 0.961 . S
H1326 C1318 0.960 . S
H1327 C1319 0.930 . S
H1328 C1320 0.929 . S
C474 C47 1.885 . S
C493 C372 1.991 . S
C510 C91 1.834 . S
C529 C404 1.917 . S
C565 C463 1.969 . S
C546 C177 2.024 . S
C601 C392 1.754 . S
C582 C215 1.717 . S
C618 C295 1.763 . S
C637 C422 1.824 . S
C673 C444 0.994 . S
C654 C345 0.987 . S
C709 C413 1.961 . S
C690 C153 1.845 . S
C726 C239 1.081 . S
C745 C453 1.080 . S
C781 C402 1.463 . S
C762 C283 1.454 . S
C798 C357 1.755 1_556 S
C817 C432 1.818 . S
C834 C35 1.929 . S
C853 C435 1.907 . S
C889 C374 1.581 . S
C870 C115 1.610 . S
C925 C382 1.424 . S
C906 C221 1.486 . S
C961 C423 1.512 . S
C942 C301 1.528 . S
C997 C436 2.306 . S
C978 C339 2.251 1_556 S
C1033 C373 1.458 . S
C1014 C53 1.514 . S
C1069 C433 1.414 . S
C1050 C97 1.441 . S
C1086 C171 1.366 . S
C1105 C434 1.388 . S
C1141 C403 1.493 . S
C1122 C363 1.485 . S
C1177 C464 1.429 . S
C1158 C29 1.325 . S
C1213 C391 1.757 . S
C1194 C109 1.744 . S
C1249 C405 1.557 . S
C1230 C159 1.608 . S
C1266 C233 2.189 . S
C1285 C454 2.229 . S
C1302 C277 1.883 . S
C1321 C401 1.980 . S
