# Generated by pormake.
# Topology zzz, (3,6)-cn, num edge types: 1
# Building blocks:
#     Node 0, Type 0, BuildingBlock: BELTOD_clean_linker_0, # of connection points: 3
#     Node 1, Type 0, BuildingBlock: BELTOD_clean_linker_0, # of connection points: 3
#     Node 2, Type 0, BuildingBlock: BELTOD_clean_linker_0, # of connection points: 3
#     Node 3, Type 0, BuildingBlock: BELTOD_clean_linker_0, # of connection points: 3
#     Node 4, Type 0, BuildingBlock: BELTOD_clean_linker_0, # of connection points: 3
#     Node 5, Type 0, BuildingBlock: BELTOD_clean_linker_0, # of connection points: 3
#     Node 6, Type 0, BuildingBlock: BELTOD_clean_linker_0, # of connection points: 3
#     Node 7, Type 0, BuildingBlock: BELTOD_clean_linker_0, # of connection points: 3
#     Node 8, Type 1, BuildingBlock: GEDQOX_clean_sbu_0, # of connection points: 6
#     Node 9, Type 1, BuildingBlock: GEDQOX_clean_sbu_0, # of connection points: 6
#     Node 10, Type 1, BuildingBlock: GEDQOX_clean_sbu_0, # of connection points: 6
#     Node 11, Type 1, BuildingBlock: GEDQOX_clean_sbu_0, # of connection points: 6
#     Edge 12, Type (0, 1), BuildingBlock: TEMPAE_clean_linker_10, # of connection points: 2
#     Edge 13, Type (0, 1), BuildingBlock: TEMPAE_clean_linker_10, # of connection points: 2
#     Edge 14, Type (0, 1), BuildingBlock: TEMPAE_clean_linker_10, # of connection points: 2
#     Edge 15, Type (0, 1), BuildingBlock: TEMPAE_clean_linker_10, # of connection points: 2
#     Edge 16, Type (0, 1), BuildingBlock: TEMPAE_clean_linker_10, # of connection points: 2
#     Edge 17, Type (0, 1), BuildingBlock: TEMPAE_clean_linker_10, # of connection points: 2
#     Edge 18, Type (0, 1), BuildingBlock: TEMPAE_clean_linker_10, # of connection points: 2
#     Edge 19, Type (0, 1), BuildingBlock: TEMPAE_clean_linker_10, # of connection points: 2
#     Edge 20, Type (0, 1), BuildingBlock: TEMPAE_clean_linker_10, # of connection points: 2
#     Edge 21, Type (0, 1), BuildingBlock: TEMPAE_clean_linker_10, # of connection points: 2
#     Edge 22, Type (0, 1), BuildingBlock: TEMPAE_clean_linker_10, # of connection points: 2
#     Edge 23, Type (0, 1), BuildingBlock: TEMPAE_clean_linker_10, # of connection points: 2
#     Edge 24, Type (0, 1), BuildingBlock: TEMPAE_clean_linker_10, # of connection points: 2
#     Edge 25, Type (0, 1), BuildingBlock: TEMPAE_clean_linker_10, # of connection points: 2
#     Edge 26, Type (0, 1), BuildingBlock: TEMPAE_clean_linker_10, # of connection points: 2
#     Edge 27, Type (0, 1), BuildingBlock: TEMPAE_clean_linker_10, # of connection points: 2
#     Edge 28, Type (0, 1), BuildingBlock: TEMPAE_clean_linker_10, # of connection points: 2
#     Edge 29, Type (0, 1), BuildingBlock: TEMPAE_clean_linker_10, # of connection points: 2
#     Edge 30, Type (0, 1), BuildingBlock: TEMPAE_clean_linker_10, # of connection points: 2
#     Edge 31, Type (0, 1), BuildingBlock: TEMPAE_clean_linker_10, # of connection points: 2
#     Edge 32, Type (0, 1), BuildingBlock: TEMPAE_clean_linker_10, # of connection points: 2
#     Edge 33, Type (0, 1), BuildingBlock: TEMPAE_clean_linker_10, # of connection points: 2
#     Edge 34, Type (0, 1), BuildingBlock: TEMPAE_clean_linker_10, # of connection points: 2
#     Edge 35, Type (0, 1), BuildingBlock: TEMPAE_clean_linker_10, # of connection points: 2
# Relax obj value: 0.288
# Max RMSD: 0.263
# Mean RMSD: 0.185
data_MOF--net-zzz--node1-GEDQOX_clean_sbu_0--node2-BELTOD_clean_linker_0--edge1-TEMPAE_clean_linker_10
_symmetry_space_group_name_H-M    P1
_symmetry_Int_Tables_number       1
_symmetry_cell_setting            triclinic
loop_
_symmetry_equiv_pos_as_xyz
'x, y, z'
_cell_length_a     59.320041
_cell_length_b     55.156911
_cell_length_c     20.737062
_cell_angle_alpha  81.371339
_cell_angle_beta   90.852608
_cell_angle_gamma 102.73624
loop_
_atom_site_label
_atom_site_type_symbol
_atom_site_fract_x
_atom_site_fract_y
_atom_site_fract_z
_atom_type_partial_charge
P0 P 0.73948 0.41521 0.2125 0.0
H1 H 0.73657 0.41069 0.35488 0.0
H2 H 0.75936 0.43438 0.4336 0.0
H3 H 0.7984 0.48523 0.27465 0.0
H4 H 0.77526 0.46202 0.19683 0.0
H5 H 0.6945 0.38956 0.1715 0.0
H6 H 0.66089 0.40443 0.12675 0.0
H7 H 0.69735 0.48115 0.13227 0.0
H8 H 0.7306 0.46596 0.1794 0.0
H9 H 0.77055 0.38211 0.19685 0.0
H10 H 0.75357 0.44876 0.08924 0.0
O11 O 0.73034 0.38583 0.25067 0.0
H12 H 0.8027 0.38601 0.12047 0.0
H13 H 0.78602 0.45301 0.01384 0.0
C14 C 0.75454 0.43422 0.27001 0.0
C15 C 0.7499 0.42707 0.33707 0.0
C16 C 0.76299 0.44059 0.38201 0.0
C17 C 0.78087 0.46158 0.36051 0.0
C18 C 0.78467 0.46932 0.29304 0.0
C19 C 0.77157 0.45583 0.2483 0.0
C20 C 0.71485 0.42661 0.17994 0.0
C21 C 0.69518 0.40957 0.16359 0.0
C22 C 0.67605 0.41814 0.13729 0.0
C23 C 0.67636 0.44402 0.12587 0.0
C24 C 0.69634 0.46108 0.14145 0.0
C25 C 0.71541 0.45243 0.16825 0.0
C26 C 0.75952 0.415 0.14838 0.0
C27 C 0.77332 0.39717 0.15581 0.0
C28 C 0.79166 0.39938 0.1122 0.0
C29 C 0.79674 0.41979 0.06146 0.0
C30 C 0.78236 0.43708 0.05258 0.0
C31 C 0.76379 0.4346 0.09552 0.0
P32 P 0.04162 0.72999 0.30743 0.0
H33 H 0.03936 0.72597 0.44979 0.0
H34 H 0.02016 0.7479 0.51839 0.0
H35 H 0.98029 0.77106 0.35371 0.0
H36 H -0.00097 0.74845 0.28607 0.0
H37 H 0.06753 0.69353 0.28146 0.0
H38 H 0.05873 0.6576 0.22338 0.0
H39 H 0.98907 0.66822 0.1934 0.0
H40 H 0.99789 0.70396 0.25446 0.0
H41 H 0.06277 0.78206 0.31244 0.0
H42 H 0.03103 0.73801 0.16654 0.0
O43 O 0.06626 0.72967 0.34722 0.0
H44 H 0.06366 0.82062 0.23619 0.0
H45 H 0.03179 0.77654 0.09029 0.0
C46 C 0.02093 0.73593 0.36251 0.0
C47 C 0.02583 0.7349 0.42905 0.0
C48 C 0.015 0.74771 0.46812 0.0
C49 C -0.00082 0.76188 0.4411 0.0
C50 C 0.99239 0.76041 0.37623 0.0
C51 C 0.00312 0.74741 0.33735 0.0
C52 C 0.03329 0.70127 0.27301 0.0
C53 C 0.0502 0.68791 0.26365 0.0
C54 C 0.04522 0.6675 0.22949 0.0
C55 C 0.0233 0.66023 0.20266 0.0
C56 C 0.0061 0.67323 0.21369 0.0
C57 C 0.01109 0.69363 0.24862 0.0
C58 C 0.04699 0.75716 0.24518 0.0
C59 C 0.05653 0.78066 0.26347 0.0
C60 C 0.05681 0.80266 0.22016 0.0
C61 C 0.04758 0.80152 0.15764 0.0
C62 C 0.03911 0.77792 0.13812 0.0
C63 C 0.03867 0.75586 0.1818 0.0
P64 P 0.78818 0.07197 0.14701 0.0
H65 H 0.76778 0.09233 0.24749 0.0
H66 H 0.74376 0.07243 0.34393 0.0
H67 H 0.75255 0.99968 0.30979 0.0
H68 H 0.77676 0.0198 0.2134 0.0
H69 H 0.79968 0.05615 0.02433 0.0
H70 H 0.83125 0.03815 0.99312 0.0
H71 H 0.85754 0.0374 0.18849 0.0
H72 H 0.82552 0.05497 0.22009 0.0
H73 H 0.76546 0.11056 0.08016 0.0
H74 H 0.75938 0.03071 0.09077 0.0
O75 O 0.80102 0.10181 0.15113 0.0
H76 H 0.73104 0.108 0.01307 0.0
H77 H 0.72537 0.02806 0.02205 0.0
C78 C 0.77446 0.0576 0.22425 0.0
C79 C 0.76504 0.07217 0.2617 0.0
C80 C 0.75113 0.06075 0.31641 0.0
C81 C 0.74623 0.03448 0.33429 0.0
C82 C 0.75627 0.01997 0.29769 0.0
C83 C 0.77012 0.03145 0.24269 0.0
C84 C 0.80992 0.05632 0.12507 0.0
C85 C 0.81181 0.05151 0.06107 0.0
C86 C 0.82989 0.04124 0.04315 0.0
C87 C 0.84672 0.03625 0.08853 0.0
C88 C 0.84476 0.04104 0.15265 0.0
C89 C 0.82647 0.05098 0.17075 0.0
C90 C 0.76514 0.07087 0.0895 0.0
C91 C 0.75704 0.09257 0.06673 0.0
C92 C 0.73738 0.0911 0.02819 0.0
C93 C 0.72543 0.06782 0.01227 0.0
C94 C 0.73401 0.04623 0.03406 0.0
C95 C 0.75356 0.04773 0.07282 0.0
P96 P 0.49237 0.76927 0.4595 0.0
H97 H 0.49388 0.75679 0.60156 0.0
H98 H 0.51186 0.72634 0.66862 0.0
H99 H 0.55182 0.72066 0.5014 0.0
H100 H 0.53369 0.7511 0.43436 0.0
H101 H 0.49258 0.82264 0.4537 0.0
H102 H 0.50429 0.8585 0.36763 0.0
H103 H 0.53413 0.81256 0.25697 0.0
H104 H 0.52204 0.7766 0.34292 0.0
H105 H 0.48093 0.71426 0.48992 0.0
H106 H 0.47169 0.77051 0.3291 0.0
O107 O 0.47209 0.77632 0.5037 0.0
H108 H 0.46746 0.68142 0.42302 0.0
H109 H 0.45854 0.7376 0.26146 0.0
C110 C 0.5124 0.75625 0.51281 0.0
C111 C 0.50725 0.74991 0.57983 0.0
C112 C 0.51758 0.73244 0.61827 0.0
C113 C 0.53301 0.72086 0.59 0.0
C114 C 0.53983 0.72914 0.5243 0.0
C115 C 0.52963 0.74676 0.48604 0.0
C116 C 0.50619 0.79687 0.40443 0.0
C117 C 0.5021 0.82039 0.41167 0.0
C118 C 0.50891 0.84094 0.36246 0.0
C119 C 0.5199 0.83827 0.30512 0.0
C120 C 0.52542 0.81509 0.30019 0.0
C121 C 0.51872 0.79459 0.34964 0.0
C122 C 0.47846 0.745 0.41351 0.0
C123 C 0.47605 0.71963 0.44021 0.0
C124 C 0.46833 0.70081 0.40192 0.0
C125 C 0.46253 0.70699 0.3365 0.0
C126 C 0.46306 0.73227 0.31157 0.0
C127 C 0.47081 0.75113 0.35004 0.0
P128 P 0.24166 0.47375 0.62339 0.0
H129 H 0.24012 0.43466 0.54138 0.0
H130 H 0.21665 0.42332 0.44773 0.0
H131 H 0.18606 0.48742 0.45086 0.0
H132 H 0.21008 0.49914 0.54118 0.0
H133 H 0.27483 0.49881 0.70892 0.0
H134 H 0.31681 0.50837 0.71043 0.0
H135 H 0.31865 0.48309 0.52349 0.0
H136 H 0.27632 0.4732 0.52283 0.0
H137 H 0.20731 0.4651 0.72805 0.0
H138 H 0.24708 0.52863 0.60057 0.0
O139 O 0.23761 0.44633 0.67304 0.0
H140 H 0.18592 0.49242 0.77003 0.0
H141 H 0.22528 0.55634 0.64214 0.0
C142 C 0.22699 0.46777 0.54852 0.0
C143 C 0.22869 0.44653 0.52085 0.0
C144 C 0.21505 0.43991 0.46777 0.0
C145 C 0.19931 0.45435 0.44168 0.0
C146 C 0.19821 0.47603 0.46863 0.0
C147 C 0.21198 0.48273 0.52106 0.0
C148 C 0.27241 0.48566 0.61533 0.0
C149 C 0.28423 0.49597 0.6673 0.0
C150 C 0.30832 0.50149 0.66804 0.0
C151 C 0.32115 0.49656 0.61699 0.0
C152 C 0.30926 0.48696 0.56377 0.0
C153 C 0.28505 0.48145 0.5631 0.0
C154 C 0.22886 0.49486 0.66158 0.0
C155 C 0.21185 0.48507 0.71026 0.0
C156 C 0.19972 0.50079 0.73454 0.0
C157 C 0.20411 0.52661 0.70986 0.0
C158 C 0.22168 0.53657 0.66233 0.0
C159 C 0.23411 0.5208 0.63872 0.0
P160 P 0.11819 0.31494 0.42829 0.0
H161 H 0.15131 0.31404 0.32637 0.0
H162 H 0.14659 0.29162 0.23267 0.0
H163 H 0.07245 0.27848 0.25471 0.0
H164 H 0.07722 0.30115 0.34803 0.0
H165 H 0.12764 0.33997 0.54052 0.0
H166 H 0.10933 0.36849 0.58839 0.0
H167 H 0.06452 0.37241 0.42262 0.0
H168 H 0.08286 0.3432 0.3753 0.0
H169 H 0.13545 0.27293 0.49959 0.0
H170 H 0.06969 0.29307 0.46348 0.0
O171 O 0.14634 0.32069 0.44479 0.0
H172 H 0.11594 0.23238 0.55907 0.0
H173 H 0.04984 0.25188 0.51823 0.0
C174 C 0.11463 0.30916 0.34496 0.0
C175 C 0.13401 0.30726 0.30971 0.0
C176 C 0.13131 0.29423 0.2563 0.0
C177 C 0.10916 0.28281 0.23723 0.0
C178 C 0.08976 0.28707 0.26815 0.0
C179 C 0.09249 0.30012 0.32171 0.0
C180 C 0.10677 0.33962 0.45413 0.0
C181 C 0.11419 0.34734 0.5137 0.0
C182 C 0.1037 0.36374 0.54105 0.0
C183 C 0.08541 0.37276 0.50948 0.0
C184 C 0.07836 0.36552 0.44864 0.0
C185 C 0.08892 0.34895 0.42126 0.0
C186 C 0.10404 0.28605 0.47746 0.0
C187 C 0.11679 0.26863 0.50454 0.0
C188 C 0.10552 0.24525 0.53776 0.0
C189 C 0.0812 0.23857 0.54298 0.0
C190 C 0.06855 0.25634 0.51616 0.0
C191 C 0.07989 0.2799 0.48421 0.0
P192 P 0.30385 0.09416 0.55879 0.0
H193 H 0.32204 0.13514 0.45273 0.0
H194 H 0.33985 0.13495 0.3474 0.0
H195 H 0.32006 0.05376 0.37606 0.0
H196 H 0.30188 0.0542 0.48046 0.0
H197 H 0.27892 0.0929 0.67826 0.0
H198 H 0.2387 0.07624 0.71385 0.0
H199 H 0.22257 0.0528 0.52564 0.0
H200 H 0.26283 0.06994 0.48998 0.0
H201 H 0.35332 0.09978 0.56754 0.0
H202 H 0.29255 0.04448 0.64234 0.0
O203 O 0.31239 0.12304 0.57813 0.0
H204 H 0.37765 0.07166 0.61391 0.0
H205 H 0.31681 0.01667 0.6921 0.0
C206 C 0.31057 0.09467 0.47423 0.0
C207 C 0.32089 0.11735 0.43539 0.0
C208 C 0.33128 0.11721 0.37543 0.0
C209 C 0.33163 0.09433 0.35359 0.0
C210 C 0.31991 0.07173 0.3909 0.0
C211 C 0.30949 0.07193 0.4507 0.0
C212 C 0.27381 0.08278 0.58149 0.0
C213 C 0.26667 0.08432 0.64453 0.0
C214 C 0.24374 0.07457 0.665 0.0
C215 C 0.22748 0.06306 0.62268 0.0
C216 C 0.23467 0.06172 0.55918 0.0
C217 C 0.25771 0.07144 0.5388 0.0
C218 C 0.3212 0.07448 0.60252 0.0
C219 C 0.34527 0.08181 0.5955 0.0
C220 C 0.35916 0.06564 0.62222 0.0
C221 C 0.34925 0.04181 0.65714 0.0
C222 C 0.32504 0.03471 0.6649 0.0
C223 C 0.31113 0.05081 0.63725 0.0
P224 P 0.41667 0.21149 0.31902 0.0
H225 H 0.39636 0.22896 0.19564 0.0
H226 H 0.41286 0.26099 0.10457 0.0
H227 H 0.48124 0.26172 0.18019 0.0
H228 H 0.46447 0.23034 0.27259 0.0
H229 H 0.39535 0.17123 0.41976 0.0
H230 H 0.40818 0.13512 0.47588 0.0
H231 H 0.46264 0.14687 0.33009 0.0
H232 H 0.45071 0.18442 0.2779 0.0
H233 H 0.42192 0.2653 0.31605 0.0
H234 H 0.43858 0.2037 0.44823 0.0
O235 O 0.38811 0.20896 0.31812 0.0
H236 H 0.44221 0.29475 0.38515 0.0
H237 H 0.45739 0.2327 0.51954 0.0
C238 C 0.42917 0.22714 0.24088 0.0
C239 C 0.41496 0.23533 0.19152 0.0
C240 C 0.42447 0.2537 0.13921 0.0
C241 C 0.44838 0.26423 0.13549 0.0
C242 C 0.46273 0.25431 0.18211 0.0
C243 C 0.45319 0.23606 0.23451 0.0
C244 C 0.42225 0.18076 0.34527 0.0
C245 C 0.4098 0.16572 0.3992 0.0
C246 C 0.4172 0.14483 0.43125 0.0
C247 C 0.43694 0.13805 0.40889 0.0
C248 C 0.44803 0.15196 0.35086 0.0
C249 C 0.44103 0.17338 0.32013 0.0
C250 C 0.42879 0.23225 0.37628 0.0
C251 C 0.42952 0.25803 0.36059 0.0
C252 C 0.44101 0.27486 0.40058 0.0
C253 C 0.45161 0.26618 0.45804 0.0
C254 C 0.4499 0.24017 0.47505 0.0
C255 C 0.43879 0.22341 0.43434 0.0
Nd256 Nd 0.01415 1.00386 0.78622 0.0
Nd257 Nd 0.04089 0.02555 0.89752 0.0
C258 C 0.98475 0.98361 0.70217 0.0
C259 C 0.98199 0.96063 0.67106 0.0
C260 C 0.96264 0.94074 0.68662 0.0
C261 C 0.96066 0.91823 0.66124 0.0
C262 C 0.97793 0.91523 0.61927 0.0
C263 C 0.99702 0.93537 0.60261 0.0
C264 C -0.00094 0.95777 0.62822 0.0
C265 C 0.0611 0.00893 0.77496 0.0
C266 C 0.03366 0.96694 0.89909 0.0
C267 C 0.06786 0.05329 0.97422 0.0
C268 C 0.07159 0.07963 0.98587 0.0
C269 C 0.09406 0.09343 0.99379 0.0
C270 C 0.09767 0.11792 0.00866 0.0
C271 C 0.07881 0.1289 0.01648 0.0
C272 C 0.05638 0.11534 0.00646 0.0
C273 C 0.0528 0.09101 0.99082 0.0
C274 C 0.99428 0.00692 0.92233 0.0
C275 C 0.02406 0.06472 0.78219 0.0
O276 O 0.98035 0.98004 0.76509 0.0
O277 O 0.00295 1.00168 0.68458 0.0
O278 O 0.04615 0.99011 0.75809 0.0
O279 O 0.05107 0.02444 0.7943 0.0
O280 O 0.01552 0.96935 0.86288 0.0
O281 O 0.0493 0.98684 0.91004 0.0
O282 O 0.07492 0.04955 0.91787 0.0
O283 O 0.0478 0.03879 0.9928 0.0
O284 O 0.0102 1.00281 0.96348 0.0
O285 O 0.00324 0.02013 0.87041 0.0
O286 O 0.03361 0.06134 0.83965 0.0
O287 O 0.01494 0.0457 0.75115 0.0
H288 H 0.94919 0.94245 0.71935 0.0
H289 H 0.94565 0.90315 0.67454 0.0
H290 H 0.01078 0.93357 0.57113 0.0
H291 H 0.01428 0.97262 0.61535 0.0
H292 H 0.10879 0.08508 0.98978 0.0
H293 H 0.11513 0.12793 0.01646 0.0
H294 H 0.04157 0.12347 0.01152 0.0
H295 H 0.03529 0.08095 0.98388 0.0
Nd296 Nd 0.52927 0.98449 0.79631 0.0
Nd297 Nd 0.51199 0.02335 0.86214 0.0
C298 C 0.55261 0.95302 0.75889 0.0
C299 C 0.57596 0.95715 0.73042 0.0
C300 C 0.58596 0.93686 0.72358 0.0
C301 C 0.60754 0.94114 0.69198 0.0
C302 C 0.61946 0.96579 0.66788 0.0
C303 C 0.60951 0.98599 0.67616 0.0
C304 C 0.58789 0.98168 0.70641 0.0
C305 C 0.51127 0.0181 0.7118 0.0
C306 C 0.56729 0.03353 0.83103 0.0
C307 C 0.49813 0.06147 0.90006 0.0
C308 C 0.47918 0.0648 0.94008 0.0
C309 C 0.47609 0.08904 0.9434 0.0
C310 C 0.45845 0.09248 0.9827 0.0
C311 C 0.44366 0.07169 0.01946 0.0
C312 C 0.44663 0.04737 0.01508 0.0
C313 C 0.46422 0.04395 0.97555 0.0
C314 C 0.51303 0.97938 0.94304 0.0
C315 C 0.47507 0.97607 0.82059 0.0
O316 O 0.55135 0.95658 0.81956 0.0
O317 O 0.53817 0.96319 0.72184 0.0
O318 O 0.50901 0.99466 0.70577 0.0
O319 O 0.52395 0.02376 0.75942 0.0
O320 O 0.56295 0.01398 0.79957 0.0
O321 O 0.55079 0.04075 0.85995 0.0
O322 O 0.4922 0.05333 0.84476 0.0
O323 O 0.51348 0.05057 0.93121 0.0
O324 O 0.49699 0.99181 0.94596 0.0
O325 O 0.5282 0.99085 0.90077 0.0
O326 O 0.47931 1.00034 0.8241 0.0
O327 O 0.49173 0.96358 0.82125 0.0
H328 H 0.57689 0.91777 0.74128 0.0
H329 H 0.61482 0.92524 0.68584 0.0
H330 H 0.61802 0.00512 0.65677 0.0
H331 H 0.58018 0.99751 0.70911 0.0
H332 H 0.48749 0.10532 0.91615 0.0
H333 H 0.45674 0.11144 0.98556 0.0
H334 H 0.43533 0.03099 0.04219 0.0
H335 H 0.46627 0.02507 0.97303 0.0
Nd336 Nd 0.48793 0.49639 0.90482 0.0
Nd337 Nd 0.525 0.49029 0.81233 0.0
C338 C 0.45358 0.5097 0.96018 0.0
C339 C 0.45117 0.53182 0.98846 0.0
C340 C 0.42971 0.5332 0.01299 0.0
C341 C 0.42768 0.55366 0.04324 0.0
C342 C 0.44715 0.573 0.04948 0.0
C343 C 0.46854 0.57171 0.0233 0.0
C344 C 0.47051 0.55131 0.99296 0.0
C345 C 0.52943 0.49318 0.96173 0.0
C346 C 0.52215 0.5466 0.82082 0.0
C347 C 0.55755 0.47479 0.75563 0.0
C348 C 0.55637 0.45145 0.72731 0.0
C349 C 0.55588 0.42841 0.7676 0.0
C350 C 0.54981 0.4058 0.74226 0.0
C351 C 0.54402 0.40576 0.67624 0.0
C352 C 0.54627 0.42894 0.63516 0.0
C353 C 0.55256 0.45151 0.66031 0.0
C354 C 0.48312 0.49269 0.75622 0.0
C355 C 0.49081 0.43995 0.89574 0.0
O356 O 0.4572 0.5133 0.89705 0.0
O357 O 0.46683 0.49614 0.99207 0.0
O358 O 0.5096 0.48345 0.9908 0.0
O359 O 0.52693 0.50543 0.90684 0.0
O360 O 0.50172 0.53644 0.8492 0.0
O361 O 0.53684 0.53265 0.81088 0.0
O362 O 0.55505 0.47226 0.81912 0.0
O363 O 0.54602 0.49057 0.72487 0.0
O364 O 0.50277 0.50263 0.72635 0.0
O365 O 0.48607 0.48078 0.81111 0.0
O366 O 0.51125 0.44998 0.8674 0.0
O367 O 0.47631 0.45408 0.90581 0.0
H368 H 0.4146 0.51831 0.00955 0.0
H369 H 0.41093 0.55425 0.06217 0.0
H370 H 0.48395 0.58605 0.02808 0.0
H371 H 0.48724 0.55047 0.97422 0.0
H372 H 0.55905 0.42768 0.81936 0.0
H373 H 0.54883 0.38832 0.77493 0.0
H374 H 0.5418 0.42975 0.58419 0.0
H375 H 0.55303 0.46895 0.62787 0.0
Nd376 Nd 0.99516 0.5162 0.80573 0.0
Nd377 Nd 0.01237 0.47161 0.89874 0.0
C378 C 0.97169 0.5493 0.7539 0.0
C379 C 0.95116 0.54435 0.71323 0.0
C380 C 0.93605 0.56079 0.70335 0.0
C381 C 0.91625 0.55501 0.66574 0.0
C382 C 0.91154 0.53282 0.63738 0.0
C383 C 0.92664 0.51635 0.64829 0.0
C384 C 0.94617 0.522 0.686 0.0
C385 C 0.00721 0.48079 0.74228 0.0
C386 C 0.95698 0.46577 0.87607 0.0
C387 C 0.03055 0.43332 0.94769 0.0
C388 C 0.04635 0.4293 1.00178 0.0
C389 C 0.06035 0.41188 1.0015 0.0
C390 C 0.07617 0.40898 0.05146 0.0
C391 C 0.07821 0.42349 0.10252 0.0
C392 C 0.06395 0.44076 0.10262 0.0
C393 C 0.04822 0.44362 0.05286 0.0
C394 C 0.01104 0.51161 0.96508 0.0
C395 C 0.04907 0.52024 0.82081 0.0
O396 O 0.96871 0.53844 0.81473 0.0
O397 O 0.99083 0.54681 0.72759 0.0
O398 O 0.0085 0.50396 0.71608 0.0
O399 O 0.99727 0.47616 0.79781 0.0
O400 O 0.96123 0.48808 0.83918 0.0
O401 O 0.97345 0.45488 0.90192 0.0
O402 O 0.03959 0.44976 0.89736 0.0
O403 O 0.00994 0.43555 0.96433 0.0
O404 O 0.01731 0.49144 0.99195 0.0
O405 O 0.00611 0.50923 0.90734 0.0
O406 O 0.04377 0.49562 0.8397 0.0
O407 O 0.03344 0.53419 0.81793 0.0
H408 H 0.9395 0.57796 0.72473 0.0
H409 H 0.90482 0.56798 0.65811 0.0
H410 H 0.92321 0.49889 0.6282 0.0
H411 H 0.9574 0.5088 0.69415 0.0
H412 H 0.05922 0.40071 0.96232 0.0
H413 H 0.0868 0.39542 0.05009 0.0
H414 H 0.06535 0.45262 0.14031 0.0
H415 H 0.03773 0.45731 0.05391 0.0
C416 C 0.19804 0.03899 0.7076 0.0
C417 C 0.2031 0.05275 0.64494 0.0
C418 C 0.17513 0.03027 0.73067 0.0
C419 C 0.15685 0.03545 0.69013 0.0
C420 C 0.16181 0.04883 0.6263 0.0
C421 C 0.18488 0.0573 0.60444 0.0
C422 C 0.17052 0.01594 0.79888 0.0
C423 C 0.14276 0.05477 0.5817 0.0
C424 C 0.09537 0.99801 0.72752 0.0
C425 C 0.08592 0.01477 0.75741 0.0
C426 C 0.11859 1.00429 0.70631 0.0
C427 C 0.13259 0.02784 0.71535 0.0
C428 C 0.12324 0.04453 0.74705 0.0
C429 C 0.10001 0.03778 0.76771 0.0
C430 C 0.12799 0.98597 0.67297 0.0
C431 C 0.13762 0.06979 0.75782 0.0
H432 H 0.21204 0.03509 0.73873 0.0
H433 H 0.18869 0.06813 0.55623 0.0
H434 H 0.16217 0.02663 0.82899 0.0
H435 H 0.15839 0.99758 0.79761 0.0
H436 H 0.18659 0.01252 0.82314 0.0
H437 H 0.14943 0.06438 0.53254 0.0
H438 H 0.12997 0.03724 0.57615 0.0
H439 H 0.13345 0.06705 0.60344 0.0
H440 H 0.0845 0.98018 0.71965 0.0
H441 H 0.09274 0.05079 0.79078 0.0
H442 H 0.14369 0.98184 0.69796 0.0
H443 H 0.13317 0.99445 0.62194 0.0
H444 H 0.11516 0.96799 0.67231 0.0
H445 H 0.15341 0.06732 0.78498 0.0
H446 H 0.12797 0.08016 0.78539 0.0
H447 H 0.14331 0.08147 0.7101 0.0
C448 C 0.47109 0.12018 0.44941 0.0
C449 C 0.44704 0.11826 0.44913 0.0
C450 C 0.48108 0.10306 0.4908 0.0
C451 C 0.46691 0.08411 0.53542 0.0
C452 C 0.44265 0.08168 0.53494 0.0
C453 C 0.43302 0.09846 0.49114 0.0
C454 C 0.50692 0.10548 0.48726 0.0
C455 C 0.42669 0.06236 0.58266 0.0
C456 C 0.49036 0.02768 0.60974 0.0
C457 C 0.50022 0.03536 0.66728 0.0
C458 C 0.4795 0.04334 0.56643 0.0
C459 C 0.47768 0.06693 0.58217 0.0
C460 C 0.48691 0.07443 0.64135 0.0
C461 C 0.49867 0.05884 0.68237 0.0
C462 C 0.46996 0.03467 0.50382 0.0
C463 C 0.48406 0.09874 0.66172 0.0
H464 H 0.48238 0.13549 0.41865 0.0
H465 H 0.41441 0.09616 0.49093 0.0
H466 H 0.51484 0.11093 0.53322 0.0
H467 H 0.51083 0.08712 0.4817 0.0
H468 H 0.51523 0.11974 0.44597 0.0
H469 H 0.40931 0.05666 0.5618 0.0
H470 H 0.43348 0.04528 0.59814 0.0
H471 H 0.42462 0.07088 0.62678 0.0
H472 H 0.49141 0.00945 0.59797 0.0
H473 H 0.50637 0.06487 0.72653 0.0
H474 H 0.47741 0.04886 0.46146 0.0
H475 H 0.45095 0.03278 0.50337 0.0
H476 H 0.47373 0.0163 0.49744 0.0
H477 H 0.49339 0.11493 0.62674 0.0
H478 H 0.49068 0.10093 0.7114 0.0
H479 H 0.46549 0.09947 0.66091 0.0
C480 C 0.357 0.48017 0.60809 0.0
C481 C 0.34657 0.49919 0.62307 0.0
C482 C 0.38019 0.48036 0.62301 0.0
C483 C 0.39323 0.49996 0.654 0.0
C484 C 0.38321 0.51993 0.66594 0.0
C485 C 0.36003 0.51935 0.65013 0.0
C486 C 0.39032 0.45881 0.60906 0.0
C487 C 0.39656 0.54121 0.69873 0.0
C488 C 0.44026 0.48369 0.76734 0.0
C489 C 0.46029 0.49455 0.72943 0.0
C490 C 0.41838 0.48549 0.74337 0.0
C491 C 0.41648 0.49827 0.67965 0.0
C492 C 0.43666 0.50921 0.64101 0.0
C493 C 0.45839 0.50729 0.66652 0.0
C494 C 0.3973 0.47372 0.78636 0.0
C495 C 0.43529 0.52288 0.57282 0.0
H496 H 0.34672 0.46439 0.58783 0.0
H497 H 0.3522 0.53433 0.66083 0.0
H498 H 0.40742 0.46599 0.58411 0.0
H499 H 0.39304 0.44712 0.6557 0.0
H500 H 0.37887 0.44663 0.57829 0.0
H501 H 0.38707 0.55646 0.69891 0.0
H502 H 0.39993 0.53393 0.74997 0.0
H503 H 0.41358 0.5493 0.67395 0.0
H504 H 0.44168 0.47385 0.81606 0.0
H505 H 0.47389 0.51572 0.63717 0.0
H506 H 0.3855 0.45931 0.76241 0.0
H507 H 0.38765 0.48823 0.79356 0.0
H508 H 0.4018 0.46471 0.83496 0.0
H509 H 0.42457 0.51002 0.54231 0.0
H510 H 0.4526 0.53029 0.54906 0.0
H511 H 0.42675 0.53879 0.57408 0.0
C512 C 0.08553 0.4069 0.57721 0.0
C513 C 0.07312 0.38851 0.54224 0.0
C514 C 0.07412 0.42062 0.61241 0.0
C515 C 0.04969 0.4161 0.61207 0.0
C516 C 0.03705 0.3978 0.57632 0.0
C517 C 0.04891 0.38417 0.542 0.0
C518 C 0.08825 0.44009 0.64961 0.0
C519 C 0.011 0.3927 0.57407 0.0
C520 C 0.01928 0.43984 0.74266 0.0
C521 C 0.01657 0.46304 0.70949 0.0
C522 C 0.02991 0.42415 0.71153 0.0
C523 C 0.03753 0.43174 0.64556 0.0
C524 C 0.03417 0.45485 0.61159 0.0
C525 C 0.0239 0.47024 0.64408 0.0
C526 C 0.03348 0.39978 0.74954 0.0
C527 C 0.04181 0.46357 0.54112 0.0
H528 H 0.10425 0.41063 0.57697 0.0
H529 H 0.03916 0.36975 0.516 0.0
H530 H 0.08576 0.45905 0.62891 0.0
H531 H 0.08233 0.43642 0.70137 0.0
H532 H 0.10701 0.44034 0.64795 0.0
H533 H 0.0037 0.37752 0.54505 0.0
H534 H 0.00353 0.38728 0.62425 0.0
H535 H 0.00545 0.41005 0.55239 0.0
H536 H 0.01358 0.43424 0.79317 0.0
H537 H 0.02175 0.48815 0.61809 0.0
H538 H 0.05223 0.40003 0.75202 0.0
H539 H 0.02523 0.3838 0.72431 0.0
H540 H 0.02626 0.3964 0.80005 0.0
H541 H 0.06085 0.46633 0.53671 0.0
H542 H 0.03694 0.48149 0.52089 0.0
H543 H 0.034 0.44905 0.5108 0.0
C544 C 0.86451 0.00773 0.03199 0.0
C545 C 0.86714 0.02786 0.06755 0.0
C546 C 0.88389 1.00074 0.00856 0.0
C547 C 0.90633 0.01459 0.01983 0.0
C548 C 0.90902 0.03469 0.05655 0.0
C549 C 0.88939 0.04094 0.0804 0.0
C550 C 0.88037 0.97889 0.97077 0.0
C551 C 0.93262 0.0502 0.06878 0.0
C552 C 0.96159 0.9919 0.00336 0.0
C553 C 0.97022 0.00538 0.9428 0.0
C554 C 0.94002 0.99343 0.02747 0.0
C555 C 0.92707 0.00915 0.99054 0.0
C556 C 0.9352 0.02174 0.92784 0.0
C557 C 0.95658 0.01948 0.90444 0.0
C558 C 0.93165 0.97923 0.09382 0.0
C559 C 0.92206 0.0389 0.88717 0.0
H560 H 0.84728 0.99752 0.02241 0.0
H561 H 0.89141 0.0567 0.10722 0.0
H562 H 0.88632 0.98571 0.91947 0.0
H563 H 0.89088 0.96538 0.99168 0.0
H564 H 0.86196 0.9688 0.97088 0.0
H565 H 0.93173 0.06489 0.09932 0.0
H566 H 0.94363 0.0379 0.09346 0.0
H567 H 0.94126 0.0595 0.02159 0.0
H568 H 0.97203 0.9808 0.03283 0.0
H569 H 0.96316 0.02987 0.85744 0.0
H570 H 0.91326 0.96934 0.09212 0.0
H571 H 0.93277 0.99265 0.12919 0.0
H572 H 0.94206 0.96525 0.11217 0.0
H573 H 0.90381 0.02906 0.88238 0.0
H574 H 0.92982 0.04577 0.83755 0.0
H575 H 0.92192 0.0554 0.91178 0.0
C576 C 0.51647 0.85315 0.18613 0.0
C577 C 0.52325 0.85872 0.24834 0.0
C578 C 0.51656 0.87237 0.1334 0.0
C579 C 0.52366 0.89777 0.14306 0.0
C580 C 0.53158 0.90351 0.20495 0.0
C581 C 0.5312 0.8839 0.25695 0.0
C582 C 0.50789 0.86547 0.06827 0.0
C583 C 0.53953 0.93037 0.21698 0.0
C584 C 0.53612 0.94915 0.99548 0.0
C585 C 0.51557 0.95784 0.99198 0.0
C586 C 0.53904 0.92952 0.04427 0.0
C587 C 0.5209 0.91828 0.09014 0.0
C588 C 0.49997 0.92673 0.08589 0.0
C589 C 0.49759 0.94646 0.03695 0.0
C590 C 0.56162 0.92108 0.04737 0.0
C591 C 0.48013 0.91508 0.13346 0.0
H592 H 0.51 0.83375 0.1793 0.0
H593 H 0.53667 0.88829 0.30477 0.0
H594 H 0.49131 0.87132 0.05768 0.0
H595 H 0.52034 0.87556 0.02866 0.0
H596 H 0.50502 0.84494 0.06714 0.0
H597 H 0.54713 0.93163 0.26597 0.0
H598 H 0.55257 0.94106 0.17944 0.0
H599 H 0.52465 0.93964 0.21308 0.0
H600 H 0.55007 0.95799 0.96079 0.0
H601 H 0.48165 0.95309 0.03414 0.0
H602 H 0.55843 0.90066 0.0448 0.0
H603 H 0.56997 0.92404 0.09465 0.0
H604 H 0.57381 0.93138 0.00722 0.0
H605 H 0.47485 0.89456 0.13233 0.0
H606 H 0.46484 0.92346 0.12258 0.0
H607 H 0.48567 0.91761 0.18381 0.0
C608 C 0.64876 0.47278 0.1224 0.0
C609 C 0.6558 0.45304 0.09862 0.0
C610 C 0.62886 0.48076 0.09902 0.0
C611 C 0.61553 0.46856 0.05121 0.0
C612 C 0.62271 0.44892 0.0262 0.0
C613 C 0.64282 0.4415 0.04993 0.0
C614 C 0.62182 0.5019 0.12652 0.0
C615 C 0.60891 0.4354 0.97529 0.0
C616 C 0.55185 0.46983 0.04119 0.0
C617 C 0.55158 0.48782 0.98598 0.0
C618 C 0.57259 0.46348 0.06307 0.0
C619 C 0.59355 0.47562 0.02923 0.0
C620 C 0.59341 0.49411 0.97398 0.0
C621 C 0.57236 0.49991 0.95279 0.0
C622 C 0.572 0.44347 0.12175 0.0
C623 C 0.61543 0.50757 0.93694 0.0
H624 H 0.65848 0.48162 0.16054 0.0
H625 H 0.64834 0.42656 0.03035 0.0
H626 H 0.61943 0.51682 0.0864 0.0
H627 H 0.605 0.49477 0.15303 0.0
H628 H 0.63478 0.51042 0.16056 0.0
H629 H 0.61717 0.42097 0.95962 0.0
H630 H 0.59134 0.42605 0.995 0.0
H631 H 0.60679 0.44904 0.9318 0.0
H632 H 0.53577 0.46035 0.0667 0.0
H633 H 0.57215 0.51382 0.91001 0.0
H634 H 0.58346 0.45119 0.16 0.0
H635 H 0.57861 0.42763 0.10778 0.0
H636 H 0.55429 0.436 0.14293 0.0
H637 H 0.62814 0.51679 0.97045 0.0
H638 H 0.61245 0.52204 0.89631 0.0
H639 H 0.62331 0.49383 0.91652 0.0
C640 C 0.03618 0.63762 0.1187 0.0
C641 C 0.01893 0.63959 0.16205 0.0
C642 C 0.03336 0.61732 0.08373 0.0
C643 C 0.01261 0.5986 0.09139 0.0
C644 C 0.99467 0.60102 0.13267 0.0
C645 C 0.99807 0.62146 0.16773 0.0
C646 C 0.05296 0.61545 0.04036 0.0
C647 C 0.9722 0.58159 0.14151 0.0
C648 C 0.00248 0.55411 0.96482 0.0
C649 C 0.01034 0.53349 0.99752 0.0
C650 C 0.00236 0.57517 0.99546 0.0
C651 C 0.01057 0.57566 0.05989 0.0
C652 C 0.01823 0.55468 0.09324 0.0
C653 C 0.01792 0.53383 0.06172 0.0
C654 C 0.99386 0.59705 0.95853 0.0
C655 C 0.02735 0.55452 0.16168 0.0
H656 H 0.05212 0.65188 0.1126 0.0
H657 H 0.98467 0.62277 0.20115 0.0
H658 H 0.05959 0.59851 0.05949 0.0
H659 H 0.04672 0.61332 0.9904 0.0
H660 H 0.06751 0.63219 0.03729 0.0
H661 H 0.95917 0.58743 0.17012 0.0
H662 H 0.9649 0.57802 0.09337 0.0
H663 H 0.97539 0.56355 0.16724 0.0
H664 H 0.99661 0.55385 0.91516 0.0
H665 H 0.024 0.51789 0.08711 0.0
H666 H 0.00835 0.61381 0.94969 0.0
H667 H 0.9805 0.60198 0.98788 0.0
H668 H 0.98644 0.59297 0.91079 0.0
H669 H 0.04298 0.56986 0.16203 0.0
H670 H 0.03191 0.53641 0.18159 0.0
H671 H 0.01428 0.55806 0.19469 0.0
C672 C 0.07822 0.19204 0.56946 0.0
C673 C 0.06915 0.21309 0.57522 0.0
C674 C 0.06786 0.16812 0.60208 0.0
C675 C 0.04747 0.16492 0.63995 0.0
C676 C 0.03754 0.18576 0.64359 0.0
C677 C 0.04867 0.20966 0.61199 0.0
C678 C 0.07921 0.14641 0.59774 0.0
C679 C 0.01553 0.18296 0.68236 0.0
C680 C 0.01721 0.09641 0.68763 0.0
C681 C 0.02625 0.09097 0.74967 0.0
C682 C 0.02269 0.12093 0.65273 0.0
C683 C 0.03791 0.14019 0.68008 0.0
C684 C 0.04599 0.13508 0.74409 0.0
C685 C 0.03983 0.11066 0.77831 0.0
C686 C 0.01315 0.12592 0.58538 0.0
C687 C 0.0625 0.15495 0.77489 0.0
H688 H 0.0936 0.19422 0.53971 0.0
H689 H 0.04154 0.22572 0.61746 0.0
H690 H 0.08441 0.13892 0.64707 0.0
H691 H 0.06681 0.13091 0.57936 0.0
H692 H 0.09478 0.15195 0.56517 0.0
H693 H 0.00842 0.20016 0.67325 0.0
H694 H 0.00224 0.16681 0.67016 0.0
H695 H 0.01893 0.17905 0.73521 0.0
H696 H 0.00654 0.08139 0.66537 0.0
H697 H 0.04682 0.10681 0.82642 0.0
H698 H 0.02708 0.12834 0.54833 0.0
H699 H 0.00675 0.14357 0.57922 0.0
H700 H -0.00117 0.11026 0.57546 0.0
H701 H 0.07923 0.16022 0.74748 0.0
H702 H 0.06584 0.14839 0.82675 0.0
H703 H 0.05561 0.17217 0.7724 0.0
C704 C 0.38588 0.03407 0.70914 0.0
C705 C 0.36421 0.02444 0.68415 0.0
C706 C 0.40095 0.01842 0.7307 0.0
C707 C 0.39386 0.99219 0.72975 0.0
C708 C 0.37172 0.98211 0.70685 0.0
C709 C 0.35725 0.99841 0.68345 0.0
C710 C 0.42464 0.03011 0.7538 0.0
C711 C 0.36348 0.95424 0.70619 0.0
C712 C 0.44771 0.9673 0.7342 0.0
C713 C 0.4517 0.96526 0.80123 0.0
C714 C 0.42711 0.973 0.70916 0.0
C715 C 0.41008 0.97586 0.75288 0.0
C716 C 0.41242 0.96903 0.82084 0.0
C717 C 0.4335 0.96416 0.8444 0.0
C718 C 0.42557 0.98011 0.63634 0.0
C719 C 0.39428 0.9708 0.86906 0.0
H720 H 0.39119 0.054 0.71162 0.0
H721 H 0.34067 0.99075 0.66356 0.0
H722 H 0.42667 0.02245 0.80563 0.0
H723 H 0.43826 0.02542 0.72488 0.0
H724 H 0.42768 0.0509 0.7494 0.0
H725 H 0.34505 0.94915 0.69251 0.0
H726 H 0.37409 0.9481 0.67085 0.0
H727 H 0.36566 0.94363 0.75488 0.0
H728 H 0.46195 0.96839 0.70085 0.0
H729 H 0.43672 0.96272 0.89633 0.0
H730 H 0.43321 1.00048 0.62293 0.0
H731 H 0.40745 0.97648 0.61984 0.0
H732 H 0.43552 0.96972 0.60972 0.0
H733 H 0.39657 0.99064 0.87714 0.0
H734 H 0.39579 0.95915 0.91684 0.0
H735 H 0.37664 0.96475 0.85034 0.0
C736 C 0.45821 0.30646 0.50543 0.0
C737 C 0.46522 0.28429 0.49831 0.0
C738 C 0.47184 0.32463 0.53866 0.0
C739 C 0.49275 0.3203 0.56687 0.0
C740 C 0.49946 0.29754 0.56243 0.0
C741 C 0.48578 0.27995 0.52755 0.0
C742 C 0.46419 0.3488 0.54188 0.0
C743 C 0.5214 0.29206 0.59305 0.0
C744 C 0.53779 0.379 0.58696 0.0
C745 C 0.53347 0.38194 0.65136 0.0
C746 C 0.52513 0.35858 0.55947 0.0
C747 C 0.5081 0.34029 0.59778 0.0
C748 C 0.5047 0.3422 0.66407 0.0
C749 C 0.51725 0.36312 0.6899 0.0
C750 C 0.52917 0.35729 0.48843 0.0
C751 C 0.48706 0.32277 0.70691 0.0
H752 H 0.44214 0.30978 0.48442 0.0
H753 H 0.4916 0.26311 0.52172 0.0
H754 H 0.46273 0.35156 0.5934 0.0
H755 H 0.47732 0.36498 0.51731 0.0
H756 H 0.44729 0.34908 0.5183 0.0
H757 H 0.52298 0.2725 0.59082 0.0
H758 H 0.53661 0.30519 0.56747 0.0
H759 H 0.52203 0.29506 0.64483 0.0
H760 H 0.55063 0.39312 0.55725 0.0
H761 H 0.51353 0.36527 0.73948 0.0
H762 H 0.51335 0.35916 0.46065 0.0
H763 H 0.53273 0.3388 0.48283 0.0
H764 H 0.54383 0.37233 0.46628 0.0
H765 H 0.4694 0.32419 0.69096 0.0
H766 H 0.48858 0.32527 0.75911 0.0
H767 H 0.48899 0.30354 0.70233 0.0
C768 C 0.17668 0.55463 0.67864 0.0
C769 C 0.18799 0.5417 0.72775 0.0
C770 C 0.15577 0.56095 0.69232 0.0
C771 C 0.14601 0.55375 0.75603 0.0
C772 C 0.1594 0.54476 0.80745 0.0
C773 C 0.1803 0.53877 0.79261 0.0
C774 C 0.14258 0.57189 0.63683 0.0
C775 C 0.15007 0.53777 0.8766 0.0
C776 C 0.08455 0.55563 0.80372 0.0
C777 C 0.07299 0.53111 0.79695 0.0
C778 C 0.10829 0.5641 0.78755 0.0
C779 C 0.12044 0.54752 0.76457 0.0
C780 C 0.10831 0.5233 0.75415 0.0
C781 C 0.08484 0.51553 0.7702 0.0
C782 C 0.12036 0.59023 0.79809 0.0
C783 C 0.12027 0.50494 0.72877 0.0
H784 H 0.18274 0.55736 0.62844 0.0
H785 H 0.18944 0.52948 0.83097 0.0
H786 H 0.13023 0.55642 0.61805 0.0
H787 H 0.13252 0.58462 0.65344 0.0
H788 H 0.15438 0.58241 0.59602 0.0
H789 H 0.164 0.53578 0.91211 0.0
H790 H 0.14112 0.55208 0.88951 0.0
H791 H 0.13729 0.51953 0.88117 0.0
H792 H 0.07535 0.56777 0.82401 0.0
H793 H 0.07579 0.49678 0.76315 0.0
H794 H 0.13521 0.59817 0.76374 0.0
H795 H 0.12697 0.58953 0.84851 0.0
H796 H 0.10821 0.60309 0.79252 0.0
H797 H 0.12869 0.51331 0.68075 0.0
H798 H 0.10814 0.48697 0.72291 0.0
H799 H 0.13393 0.50059 0.76285 0.0
C800 C 0.05205 0.8293 0.04903 0.0
C801 C 0.04532 0.82491 0.11501 0.0
C802 C 0.05018 0.85167 0.00899 0.0
C803 C 0.04112 0.86981 0.03562 0.0
C804 C 0.03385 0.86516 0.10187 0.0
C805 C 0.03611 0.84281 0.14078 0.0
C806 C 0.05824 0.85609 0.93865 0.0
C807 C 0.02385 0.88391 0.13188 0.0
C808 C 0.05637 0.93874 0.9629 0.0
C809 C 0.03612 0.94168 0.92986 0.0
C810 C 0.05854 0.91521 0.99545 0.0
C811 C 0.03996 0.89414 0.99529 0.0
C812 C 0.01973 0.8968 0.96043 0.0
C813 C 0.01807 0.92056 0.92793 0.0
C814 C 0.08046 0.91308 0.03173 0.0
C815 C -0.00047 0.87475 0.95937 0.0
H816 H 0.0592 0.81546 0.02913 0.0
H817 H 0.03048 0.83921 0.19149 0.0
H818 H 0.04409 0.86003 0.90597 0.0
H819 H 0.07274 0.87285 0.93004 0.0
H820 H 0.06411 0.83974 0.92488 0.0
H821 H 0.01825 0.87701 0.18352 0.0
H822 H 0.03691 0.90184 0.12991 0.0
H823 H 0.00877 0.88812 0.1037 0.0
H824 H 0.0705 0.95491 0.96412 0.0
H825 H 0.00239 0.92265 0.90235 0.0
H826 H 0.08759 0.89775 0.01671 0.0
H827 H 0.07658 0.9082 0.08487 0.0
H828 H 0.09392 0.93082 0.02314 0.0
H829 H 0.00539 0.85871 0.94389 0.0
H830 H 0.98579 0.87952 0.92608 0.0
H831 H 0.99195 0.86836 0.00925 0.0
C832 C 0.70054 0.08393 0.92391 0.0
C833 C 0.7033 0.06574 0.97675 0.0
C834 C 0.67936 0.08231 0.89166 0.0
C835 C 0.66059 0.06203 0.91282 0.0
C836 C 0.66334 0.04356 0.96584 0.0
C837 C 0.68459 0.0457 0.99722 0.0
C838 C 0.67704 0.10227 0.83518 0.0
C839 C 0.64373 0.0216 0.98995 0.0
C840 C 0.59745 0.06232 0.88627 0.0
C841 C 0.59176 0.04566 0.84064 0.0
C842 C 0.62031 0.06951 0.90661 0.0
C843 C 0.63783 0.05984 0.88058 0.0
C844 C 0.63255 0.04492 0.83019 0.0
C845 C 0.60957 0.03803 0.81082 0.0
C846 C 0.6253 0.08574 0.95989 0.0
C847 C 0.65073 0.0344 0.80053 0.0
H848 H 0.71499 0.09936 0.90751 0.0
H849 H 0.68641 0.03185 0.0388 0.0
H850 H 0.67208 0.09353 0.79074 0.0
H851 H 0.66308 0.11163 0.84594 0.0
H852 H 0.69331 0.11679 0.82457 0.0
H853 H 0.64882 0.0087 0.03121 0.0
H854 H 0.62889 0.02855 0.00618 0.0
H855 H 0.63767 0.01072 0.94973 0.0
H856 H 0.58388 0.06854 0.90923 0.0
H857 H 0.60548 0.0255 0.77478 0.0
H858 H 0.64127 0.10055 0.94824 0.0
H859 H 0.62813 0.07396 0.00628 0.0
H860 H 0.61082 0.09484 0.96767 0.0
H861 H 0.66712 0.04874 0.7911 0.0
H862 H 0.64494 0.02746 0.7541 0.0
H863 H 0.65442 0.01843 0.83521 0.0
C864 C 0.47205 0.67019 0.2952 0.0
C865 C 0.45771 0.68736 0.29338 0.0
C866 C 0.46857 0.65202 0.25344 0.0
C867 C 0.45024 0.65094 0.20873 0.0
C868 C 0.43556 0.66809 0.20686 0.0
C869 C 0.43954 0.68621 0.24911 0.0
C870 C 0.48473 0.63421 0.2566 0.0
C871 C 0.41575 0.66732 0.16015 0.0
C872 C 0.45796 0.61834 0.06481 0.0
C873 C 0.44561 0.59373 0.08631 0.0
C874 C 0.45877 0.63749 0.10289 0.0
C875 C 0.44681 0.63191 0.16373 0.0
C876 C 0.43335 0.60744 0.18418 0.0
C877 C 0.43298 0.58861 0.14534 0.0
C878 C 0.47332 0.66337 0.07942 0.0
C879 C 0.42029 0.6008 0.24864 0.0
H880 H 0.48639 0.67131 0.32846 0.0
H881 H 0.42836 0.69939 0.24783 0.0
H882 H 0.47477 0.61447 0.26725 0.0
H883 H 0.49363 0.63644 0.20869 0.0
H884 H 0.49802 0.63743 0.29455 0.0
H885 H 0.40571 0.68171 0.16551 0.0
H886 H 0.42241 0.67046 0.10917 0.0
H887 H 0.40391 0.64847 0.16839 0.0
H888 H 0.46741 0.62254 0.01869 0.0
H889 H 0.42358 0.5696 0.16269 0.0
H890 H 0.48829 0.6674 0.11187 0.0
H891 H 0.46315 0.67788 0.08163 0.0
H892 H 0.47993 0.66519 0.02869 0.0
H893 H 0.43273 0.60123 0.28916 0.0
H894 H 0.40865 0.58181 0.25407 0.0
H895 H 0.40984 0.6148 0.25381 0.0
C896 C 0.82434 0.40627 0.99128 0.0
C897 C 0.81858 0.42476 0.02338 0.0
C898 C 0.84591 0.41045 0.95941 0.0
C899 C 0.86222 0.43332 0.96168 0.0
C900 C 0.85627 0.45212 0.99342 0.0
C901 C 0.83443 0.44769 0.02325 0.0
C902 C 0.85142 0.39029 0.92448 0.0
C903 C 0.87329 0.47657 0.99807 0.0
C904 C 0.92678 0.43809 0.95256 0.0
C905 C 0.9326 0.45349 0.89241 0.0
C906 C 0.90368 0.43018 0.97434 0.0
C907 C 0.886 0.43738 0.93423 0.0
C908 C 0.89166 0.45121 0.87121 0.0
C909 C 0.91495 0.4594 0.85136 0.0
C910 C 0.89842 0.41583 0.04233 0.0
C911 C 0.87327 0.45863 0.82623 0.0
H912 H 0.812 0.38855 0.9914 0.0
H913 H 0.83004 0.46183 0.04889 0.0
H914 H 0.85793 0.39844 0.87423 0.0
H915 H 0.86531 0.38238 0.95023 0.0
H916 H 0.83612 0.37472 0.92176 0.0
H917 H 0.86587 0.48927 0.02416 0.0
H918 H 0.88888 0.47269 0.02421 0.0
H919 H 0.87902 0.48655 0.94859 0.0
H920 H 0.94038 0.43358 0.98455 0.0
H921 H 0.91939 0.4711 0.80444 0.0
H922 H 0.88423 0.399 0.04165 0.0
H923 H 0.89254 0.42795 0.0737 0.0
H924 H 0.91375 0.40972 0.06488 0.0
H925 H 0.85848 0.44239 0.82505 0.0
H926 H 0.88004 0.46578 0.77566 0.0
H927 H 0.86657 0.47362 0.84458 0.0
C928 C 0.11906 0.24465 0.20447 0.0
C929 C 0.10631 0.26344 0.19319 0.0
C930 C 0.1148 0.22423 0.16971 0.0
C931 C 0.09749 0.22261 0.12183 0.0
C932 C 0.08522 0.24206 0.10813 0.0
C933 C 0.08961 0.26215 0.14447 0.0
C934 C 0.12804 0.20373 0.18667 0.0
C935 C 0.06693 0.24122 0.05665 0.0
C936 C 0.09904 0.17431 0.00966 0.0
C937 C 0.08239 0.15366 0.03946 0.0
C938 C 0.10339 0.19734 0.03397 0.0
C939 C 0.09116 0.19954 0.0902 0.0
C940 C 0.074 0.17885 0.11959 0.0
C941 C 0.0697 0.15626 0.09353 0.0
C942 C 0.12149 0.2191 1.00055 0.0
C943 C 0.06084 0.18021 0.18028 0.0
H944 H 0.13168 0.24525 0.24289 0.0
H945 H 0.07977 0.27667 0.13548 0.0
H946 H 0.11596 0.18594 0.20732 0.0
H947 H 0.13617 0.20021 0.14218 0.0
H948 H 0.14174 0.20845 0.22271 0.0
H949 H 0.06076 0.25901 0.04699 0.0
H950 H 0.07375 0.23754 0.01038 0.0
H951 H 0.05194 0.22557 0.07266 0.0
H952 H 0.10872 0.17238 0.9675 0.0
H953 H 0.05698 0.14023 0.11704 0.0
H954 H 0.13646 0.22314 0.03298 0.0
H955 H 0.11443 0.2363 0.99077 0.0
H956 H 0.12776 0.21519 0.95378 0.0
H957 H 0.07301 0.18311 0.22101 0.0
H958 H 0.04736 0.16286 0.19543 0.0
H959 H 0.05245 0.19647 0.17213 0.0
C960 C 0.36842 0.10919 0.28763 0.0
C961 C 0.34613 0.09375 0.29617 0.0
C962 C 0.38343 0.10695 0.23833 0.0
C963 C 0.37614 0.08854 0.19712 0.0
C964 C 0.35337 0.07358 0.20374 0.0
C965 C 0.33861 0.0764 0.25309 0.0
C966 C 0.40747 0.12347 0.2333 0.0
C967 C 0.3449 0.05391 0.16034 0.0
C968 C 0.41192 0.09271 0.04358 0.0
C969 C 0.42573 0.07544 0.0639 0.0
C970 C 0.39547 0.09696 0.08609 0.0
C971 C 0.39285 0.0837 0.15045 0.0
C972 C 0.40667 0.06618 0.17111 0.0
C973 C 0.42288 0.06221 0.12754 0.0
C974 C 0.38124 0.11602 0.06271 0.0
C975 C 0.40468 0.05201 0.23974 0.0
H976 H 0.3746 0.12235 0.32128 0.0
H977 H 0.32131 0.06464 0.25881 0.0
H978 H 0.41928 0.11349 0.26315 0.0
H979 H 0.41427 0.12805 0.18237 0.0
H980 H 0.40777 0.14133 0.25213 0.0
H981 H 0.32622 0.04513 0.1685 0.0
H982 H 0.34783 0.06234 0.10828 0.0
H983 H 0.35484 0.03893 0.16983 0.0
H984 H 0.41396 0.10287 0.99429 0.0
H985 H 0.43376 0.04915 0.14384 0.0
H986 H 0.38505 0.13154 0.09241 0.0
H987 H 0.36255 0.10721 0.06932 0.0
H988 H 0.38478 0.12412 0.01054 0.0
H989 H 0.40924 0.06549 0.27507 0.0
H990 H 0.41617 0.03846 0.24752 0.0
H991 H 0.38658 0.04157 0.25077 0.0
C992 C 0.44945 0.29121 0.02552 0.0
C993 C 0.45769 0.28765 0.0893 0.0
C994 C 0.4557 0.31467 0.98533 0.0
C995 C 0.47041 0.33505 0.0097 0.0
C996 C 0.47974 0.3312 0.07268 0.0
C997 C 0.47325 0.30762 0.11163 0.0
C998 C 0.44566 0.31795 0.91811 0.0
C999 C 0.4955 0.35241 0.10061 0.0
C1000 C 0.49873 0.39668 0.90493 0.0
C1001 C 0.48436 0.41247 0.91849 0.0
C1002 C 0.49381 0.37104 0.93146 0.0
C1003 C 0.47418 0.36104 0.97298 0.0
C1004 C 0.4591 0.37665 0.98445 0.0
C1005 C 0.46432 0.40211 0.95693 0.0
C1006 C 0.51011 0.35494 0.91719 0.0
C1007 C 0.43795 0.36675 0.02833 0.0
H1008 H 0.43763 0.27582 0.0076 0.0
H1009 H 0.47945 0.30527 0.1611 0.0
H1010 H 0.43278 0.32984 0.91739 0.0
H1011 H 0.45936 0.32773 0.88146 0.0
H1012 H 0.43699 0.29968 0.90326 0.0
H1013 H 0.50288 0.34582 0.14786 0.0
H1014 H 0.50992 0.36183 0.06589 0.0
H1015 H 0.48568 0.36671 0.10848 0.0
H1016 H 0.51414 0.40444 0.87472 0.0
H1017 H 0.45304 0.41409 0.96749 0.0
H1018 H 0.50034 0.33719 0.90196 0.0
H1019 H 0.51946 0.34978 0.96211 0.0
H1020 H 0.52304 0.36475 0.87834 0.0
H1021 H 0.4272 0.34958 0.01259 0.0
H1022 H 0.42713 0.38081 0.02859 0.0
H1023 H 0.44334 0.36144 0.07902 0.0
C1024 C 0.17298 0.42106 0.38771 0.0
C1025 C 0.18332 0.44653 0.38859 0.0
C1026 C 0.15638 0.41379 0.34108 0.0
C1027 C 0.14977 0.43243 0.29473 0.0
C1028 C 0.16057 0.45805 0.29431 0.0
C1029 C 0.17735 0.46473 0.34062 0.0
C1030 C 0.14575 0.38623 0.34188 0.0
C1031 C 0.15389 0.47857 0.24611 0.0
C1032 C 0.1184 0.4206 0.13769 0.0
C1033 C 0.09582 0.42177 0.15402 0.0
C1034 C 0.13592 0.42237 0.18426 0.0
C1035 C 0.13079 0.42563 0.24845 0.0
C1036 C 0.10773 0.42518 0.26629 0.0
C1037 C 0.09054 0.4232 0.21893 0.0
C1038 C 0.16016 0.42211 0.1638 0.0
C1039 C 0.10144 0.42824 0.33448 0.0
H1040 H 0.1773 0.40681 0.42467 0.0
H1041 H 0.18561 0.48437 0.33972 0.0
H1042 H 0.12663 0.38292 0.34181 0.0
H1043 H 0.15114 0.38011 0.29706 0.0
H1044 H 0.15103 0.3743 0.38491 0.0
H1045 H 0.16416 0.49756 0.25169 0.0
H1046 H 0.15635 0.47526 0.1955 0.0
H1047 H 0.13531 0.47832 0.25281 0.0
H1048 H 0.12269 0.41954 0.08772 0.0
H1049 H 0.07302 0.42347 0.23237 0.0
H1050 H 0.16774 0.40949 0.20035 0.0
H1051 H 0.17125 0.44129 0.16106 0.0
H1052 H 0.16068 0.4159 0.11541 0.0
H1053 H 0.1084 0.41514 0.37125 0.0
H1054 H 0.08245 0.42482 0.34238 0.0
H1055 H 0.10934 0.44764 0.34326 0.0
C1056 C 0.00959 0.79616 0.50986 0.0
C1057 C 0.99262 0.78097 0.47661 0.0
C1058 C 0.00493 0.81653 0.5363 0.0
C1059 C 0.98272 0.82199 0.5294 0.0
C1060 C 0.96519 0.80616 0.49834 0.0
C1061 C 0.97037 0.78587 0.47211 0.0
C1062 C 0.02416 0.83295 0.56886 0.0
C1063 C 0.94124 0.81122 0.49061 0.0
C1064 C 0.97056 0.86804 0.63675 0.0
C1065 C 0.97664 0.89097 0.59459 0.0
C1066 C 0.97146 0.84522 0.6155 0.0
C1067 C 0.9786 0.84535 0.55057 0.0
C1068 C 0.9838 0.86831 0.50708 0.0
C1069 C 0.98277 0.89081 0.52961 0.0
C1070 C 0.96578 0.82115 0.66336 0.0
C1071 C 0.99137 0.86928 0.43734 0.0
H1072 H 0.02697 0.79292 0.51255 0.0
H1073 H 0.95711 0.77413 0.44695 0.0
H1074 H 0.02875 0.85196 0.53953 0.0
H1075 H 0.0184 0.8352 0.61783 0.0
H1076 H 0.03995 0.82516 0.57432 0.0
H1077 H 0.92899 0.79584 0.47105 0.0
H1078 H 0.93438 0.81364 0.53815 0.0
H1079 H 0.94198 0.829 0.45679 0.0
H1080 H 0.96599 0.86802 0.68717 0.0
H1081 H 0.98711 0.90841 0.49648 0.0
H1082 H 0.98176 0.81415 0.67475 0.0
H1083 H 0.95352 0.80639 0.64177 0.0
H1084 H 0.95814 0.8238 0.7097 0.0
H1085 H 0.00825 0.86378 0.43656 0.0
H1086 H 0.99321 0.88832 0.40856 0.0
H1087 H 0.97875 0.8557 0.41306 0.0
C1088 C 0.73386 1.00288 0.43496 0.0
C1089 C 0.72937 0.02225 0.38797 0.0
C1090 C 0.71774 0.99121 0.4854 0.0
C1091 C 0.6966 0.99896 0.48829 0.0
C1092 C 0.69195 0.01837 0.4406 0.0
C1093 C 0.70839 0.0298 0.39122 0.0
C1094 C 0.72336 0.97074 0.53573 0.0
C1095 C 0.66952 0.02705 0.44151 0.0
C1096 C 0.64245 0.95846 0.57552 0.0
C1097 C 0.64127 0.9708 0.62931 0.0
C1098 C 0.66118 0.96644 0.53103 0.0
C1099 C 0.67917 0.98709 0.54104 0.0
C1100 C 0.67885 0.99836 0.59794 0.0
C1101 C 0.65983 0.99013 0.64126 0.0
C1102 C 0.66083 0.95398 0.47087 0.0
C1103 C 0.6978 0.0202 0.61091 0.0
H1104 H 0.75011 0.99708 0.43272 0.0
H1105 H 0.70466 0.04444 0.35432 0.0
H1106 H 0.72322 0.97621 0.58504 0.0
H1107 H 0.70997 0.95314 0.53614 0.0
H1108 H 0.74051 0.96682 0.52648 0.0
H1109 H 0.66849 0.04216 0.40037 0.0
H1110 H 0.65468 0.011 0.43887 0.0
H1111 H 0.66764 0.03419 0.48794 0.0
H1112 H 0.62803 0.94362 0.56594 0.0
H1113 H 0.65904 0.99948 0.6833 0.0
H1114 H 0.67787 0.9497 0.46251 0.0
H1115 H 0.65734 0.96702 0.4276 0.0
H1116 H 0.64732 0.9363 0.47438 0.0
H1117 H 0.71503 0.01614 0.60393 0.0
H1118 H 0.69653 0.02465 0.66107 0.0
H1119 H 0.69669 0.03712 0.57564 0.0
C1120 C 0.54449 0.69546 0.69118 0.0
C1121 C 0.5384 0.6974 0.62529 0.0
C1122 C 0.54565 0.67208 0.72738 0.0
C1123 C 0.54008 0.65015 0.69722 0.0
C1124 C 0.53507 0.65226 0.62991 0.0
C1125 C 0.53444 0.67586 0.59475 0.0
C1126 C 0.55161 0.67067 0.79864 0.0
C1127 C 0.52871 0.62936 0.59595 0.0
C1128 C 0.54999 0.58607 0.77131 0.0
C1129 C 0.52785 0.57394 0.79637 0.0
C1130 C 0.55469 0.61142 0.74211 0.0
C1131 C 0.53673 0.62474 0.73687 0.0
C1132 C 0.51463 0.61287 0.76447 0.0
C1133 C 0.51054 0.58773 0.79429 0.0
C1134 C 0.5786 0.62362 0.7146 0.0
C1135 C 0.49491 0.62629 0.75946 0.0
H1136 H 0.54767 0.7121 0.71485 0.0
H1137 H 0.52934 0.67716 0.54413 0.0
H1138 H 0.53578 0.6622 0.82891 0.0
H1139 H 0.56411 0.65847 0.811 0.0
H1140 H 0.55906 0.68954 0.81197 0.0
H1141 H 0.52703 0.6344 0.54245 0.0
H1142 H 0.54189 0.61783 0.60479 0.0
H1143 H 0.51199 0.61747 0.61611 0.0
H1144 H 0.56354 0.57564 0.77328 0.0
H1145 H 0.49339 0.57859 0.81365 0.0
H1146 H 0.5846 0.64239 0.72986 0.0
H1147 H 0.57816 0.62649 0.66054 0.0
H1148 H 0.59134 0.61199 0.73039 0.0
H1149 H 0.50006 0.64437 0.77879 0.0
H1150 H 0.47916 0.61487 0.78652 0.0
H1151 H 0.49049 0.63072 0.70746 0.0
C1152 C 0.80488 0.50051 0.39713 0.0
C1153 C 0.79666 0.47431 0.4077 0.0
C1154 C 0.82202 0.51232 0.43662 0.0
C1155 C 0.83112 0.49759 0.488 0.0
C1156 C 0.82204 0.47132 0.50106 0.0
C1157 C 0.80497 0.46 0.4607 0.0
C1158 C 0.83119 0.54038 0.42134 0.0
C1159 C 0.83125 0.45494 0.55547 0.0
C1160 C 0.89342 0.51807 0.53685 0.0
C1161 C 0.891 0.52642 0.59643 0.0
C1162 C 0.87409 0.50944 0.50018 0.0
C1163 C 0.85172 0.50906 0.52373 0.0
C1164 C 0.84918 0.51833 0.58272 0.0
C1165 C 0.86891 0.527 0.61838 0.0
C1166 C 0.8776 0.49993 0.43725 0.0
C1167 C 0.82561 0.51818 0.60937 0.0
H1168 H 0.79826 0.51175 0.35697 0.0
H1169 H 0.79895 0.43974 0.46887 0.0
H1170 H 0.83161 0.54914 0.46625 0.0
H1171 H 0.8492 0.54433 0.40218 0.0
H1172 H 0.82064 0.54946 0.38453 0.0
H1173 H 0.82081 0.43534 0.56338 0.0
H1174 H 0.84932 0.45449 0.5436 0.0
H1175 H 0.83151 0.46282 0.60173 0.0
H1176 H 0.91053 0.51793 0.51939 0.0
H1177 H 0.867 0.53329 0.66466 0.0
H1178 H 0.86898 0.50969 0.3967 0.0
H1179 H 0.86958 0.47956 0.44184 0.0
H1180 H 0.89618 0.50275 0.42407 0.0
H1181 H 0.8155 0.52724 0.57136 0.0
H1182 H 0.82668 0.52803 0.65265 0.0
H1183 H 0.81593 0.49848 0.62363 0.0
loop_
_geom_bond_atom_site_label_1
_geom_bond_atom_site_label_2
_geom_bond_distance
_geom_bond_site_symmetry_2
_ccdc_geom_bond_type
P0 O11 1.490 . S
P0 C14 1.812 . S
P0 C20 1.803 . S
P0 C26 1.819 . S
H1 C15 0.941 . S
H2 C16 0.939 . S
H3 C18 0.940 . S
H4 C19 0.940 . S
H5 C21 0.939 . S
H6 C22 0.942 1_556 S
H7 C24 0.940 . S
H8 C25 0.939 . S
H9 C27 0.941 . S
H10 C31 0.939 . S
O11 P0 1.490 . S
H12 C28 0.939 . S
H13 C30 0.940 . S
C14 P0 1.812 . S
C14 C15 1.389 . S
C14 C19 1.391 . S
C15 H1 0.941 . S
C15 C14 1.389 . S
C15 C16 1.397 . S
C16 H2 0.939 . S
C16 C15 1.397 . S
C16 C17 1.378 . S
C17 C16 1.378 . S
C17 C18 1.378 . S
C18 H3 0.940 . S
C18 C17 1.378 . S
C18 C19 1.396 . S
C19 H4 0.940 . S
C19 C14 1.391 . S
C19 C18 1.396 . S
C20 P0 1.803 . S
C20 C21 1.378 . S
C20 C25 1.400 . S
C21 H5 0.939 . S
C21 C20 1.378 . S
C21 C22 1.361 . S
C22 H6 0.942 1_554 S
C22 C21 1.361 . S
C22 C23 1.369 . S
C23 C22 1.369 . S
C23 C24 1.404 . S
C24 H7 0.940 . S
C24 C23 1.404 . S
C24 C25 1.389 . S
C25 H8 0.939 . S
C25 C20 1.400 . S
C25 C24 1.389 . S
C26 P0 1.819 . S
C26 C27 1.391 . S
C26 C31 1.391 1_554 S
C27 H9 0.941 . S
C27 C26 1.391 . S
C27 C28 1.396 1_554 S
C28 H12 0.939 . S
C28 C27 1.396 1_556 S
C28 C29 1.397 . S
C29 C28 1.397 . S
C29 C30 1.385 . S
C30 H13 0.940 . S
C30 C29 1.385 . S
C30 C31 1.388 . S
C31 H10 0.939 . S
C31 C26 1.391 1_556 S
C31 C30 1.388 . S
P32 O43 1.490 . S
P32 C46 1.812 . S
P32 C52 1.803 . S
P32 C58 1.819 . S
H33 C47 0.941 . S
H34 C48 0.939 . S
H35 C50 0.940 . S
H36 C51 0.940 . S
H37 C53 0.939 . S
H38 C54 0.942 . S
H39 C56 0.940 . S
H40 C57 0.939 . S
H41 C59 0.941 . S
H42 C63 0.939 . S
O43 P32 1.490 . S
H44 C60 0.939 . S
H45 C62 0.940 . S
C46 P32 1.812 . S
C46 C47 1.389 . S
C46 C51 1.391 . S
C47 H33 0.941 . S
C47 C46 1.389 . S
C47 C48 1.397 . S
C48 H34 0.939 . S
C48 C47 1.397 . S
C48 C49 1.378 . S
C49 C48 1.378 . S
C49 C50 1.378 . S
C50 H35 0.940 . S
C50 C49 1.378 . S
C50 C51 1.396 . S
C51 H36 0.940 . S
C51 C46 1.391 . S
C51 C50 1.396 . S
C52 P32 1.803 . S
C52 C53 1.378 . S
C52 C57 1.400 . S
C53 H37 0.939 . S
C53 C52 1.378 . S
C53 C54 1.361 . S
C54 H38 0.942 . S
C54 C53 1.361 . S
C54 C55 1.369 . S
C55 C54 1.369 . S
C55 C56 1.404 . S
C56 H39 0.940 . S
C56 C55 1.404 . S
C56 C57 1.389 . S
C57 H40 0.939 . S
C57 C52 1.400 . S
C57 C56 1.389 . S
C58 P32 1.819 . S
C58 C59 1.391 . S
C58 C63 1.391 1_554 S
C59 H41 0.941 . S
C59 C58 1.391 . S
C59 C60 1.396 1_554 S
C60 H44 0.939 . S
C60 C59 1.396 1_556 S
C60 C61 1.397 . S
C61 C60 1.397 . S
C61 C62 1.385 . S
C62 H45 0.940 . S
C62 C61 1.385 . S
C62 C63 1.388 . S
C63 H42 0.939 . S
C63 C58 1.391 1_556 S
C63 C62 1.388 . S
P64 O75 1.490 . S
P64 C78 1.812 1_556 S
P64 C84 1.803 . S
P64 C90 1.819 . S
H65 C79 0.941 . S
H66 C80 0.939 . S
H67 C82 0.940 . S
H68 C83 0.952 . S
H69 C85 0.939 . S
H70 C86 0.942 . S
H71 C88 0.940 1_554 S
H72 C89 0.952 . S
H73 C91 0.941 . S
H74 C95 0.923 1_565 S
O75 P64 1.490 . S
H76 C92 0.939 . S
H77 C94 0.940 . S
C78 P64 1.812 1_554 S
C78 C79 1.389 . S
C78 C83 1.377 1_545 S
C79 H65 0.941 . S
C79 C78 1.389 . S
C79 C80 1.397 . S
C80 H66 0.939 . S
C80 C79 1.397 . S
C80 C81 1.378 . S
C81 C80 1.378 . S
C81 C82 1.378 1_545 S
C82 H67 0.940 . S
C82 C81 1.378 1_565 S
C82 C83 1.399 . S
C83 H68 0.952 . S
C83 C78 1.377 1_565 S
C83 C82 1.399 . S
C84 P64 1.803 . S
C84 C85 1.378 . S
C84 C89 1.368 1_546 S
C85 H69 0.939 . S
C85 C84 1.378 . S
C85 C86 1.361 . S
C86 H70 0.942 . S
C86 C85 1.361 . S
C86 C87 1.369 . S
C87 C86 1.369 . S
C87 C88 1.404 1_545 S
C88 H71 0.940 1_556 S
C88 C87 1.404 1_565 S
C88 C89 1.410 1_556 S
C89 H72 0.952 . S
C89 C84 1.368 1_564 S
C89 C88 1.410 1_554 S
C90 P64 1.819 . S
C90 C91 1.391 . S
C90 C95 1.391 . S
C91 H73 0.941 . S
C91 C90 1.391 . S
C91 C92 1.396 . S
C92 H76 0.939 . S
C92 C91 1.396 . S
C92 C93 1.397 . S
C93 C92 1.397 . S
C93 C94 1.385 1_545 S
C94 H77 0.940 . S
C94 C93 1.385 1_565 S
C94 C95 1.388 1_565 S
C95 H74 0.923 1_545 S
C95 C90 1.391 . S
C95 C94 1.388 1_545 S
P96 O107 1.490 . S
P96 C110 1.812 . S
P96 C116 1.803 . S
P96 C122 1.819 . S
H97 C111 0.941 . S
H98 C112 0.939 . S
H99 C114 0.940 . S
H100 C115 0.940 . S
H101 C117 0.939 . S
H102 C118 0.942 . S
H103 C120 0.940 . S
H104 C121 0.939 . S
H105 C123 0.941 . S
H106 C127 0.939 . S
O107 P96 1.490 . S
H108 C124 0.939 . S
H109 C126 0.940 . S
C110 P96 1.812 . S
C110 C111 1.389 . S
C110 C115 1.391 . S
C111 H97 0.941 . S
C111 C110 1.389 . S
C111 C112 1.397 . S
C112 H98 0.939 . S
C112 C111 1.397 . S
C112 C113 1.378 . S
C113 C112 1.378 . S
C113 C114 1.378 . S
C114 H99 0.940 . S
C114 C113 1.378 . S
C114 C115 1.396 . S
C115 H100 0.940 . S
C115 C110 1.391 . S
C115 C114 1.396 . S
C116 P96 1.803 . S
C116 C117 1.378 . S
C116 C121 1.400 . S
C117 H101 0.939 . S
C117 C116 1.378 . S
C117 C118 1.361 . S
C118 H102 0.942 . S
C118 C117 1.361 . S
C118 C119 1.369 . S
C119 C118 1.369 . S
C119 C120 1.404 . S
C120 H103 0.940 . S
C120 C119 1.404 . S
C120 C121 1.389 . S
C121 H104 0.939 . S
C121 C116 1.400 . S
C121 C120 1.389 . S
C122 P96 1.819 . S
C122 C123 1.391 . S
C122 C127 1.391 . S
C123 H105 0.941 . S
C123 C122 1.391 . S
C123 C124 1.396 . S
C124 H108 0.939 . S
C124 C123 1.396 . S
C124 C125 1.397 . S
C125 C124 1.397 . S
C125 C126 1.385 . S
C126 H109 0.940 . S
C126 C125 1.385 . S
C126 C127 1.388 . S
C127 H106 0.939 . S
C127 C122 1.391 . S
C127 C126 1.388 . S
P128 O139 1.490 . S
P128 C142 1.812 . S
P128 C148 1.803 . S
P128 C154 1.819 . S
H129 C143 0.941 . S
H130 C144 0.939 . S
H131 C146 0.940 . S
H132 C147 0.940 . S
H133 C149 0.939 . S
H134 C150 0.942 . S
H135 C152 0.940 . S
H136 C153 0.939 . S
H137 C155 0.941 . S
H138 C159 0.939 . S
O139 P128 1.490 . S
H140 C156 0.939 . S
H141 C158 0.940 . S
C142 P128 1.812 . S
C142 C143 1.389 . S
C142 C147 1.391 . S
C143 H129 0.941 . S
C143 C142 1.389 . S
C143 C144 1.397 . S
C144 H130 0.939 . S
C144 C143 1.397 . S
C144 C145 1.378 . S
C145 C144 1.378 . S
C145 C146 1.378 . S
C146 H131 0.940 . S
C146 C145 1.378 . S
C146 C147 1.396 . S
C147 H132 0.940 . S
C147 C142 1.391 . S
C147 C146 1.396 . S
C148 P128 1.803 . S
C148 C149 1.378 . S
C148 C153 1.400 . S
C149 H133 0.939 . S
C149 C148 1.378 . S
C149 C150 1.361 . S
C150 H134 0.942 . S
C150 C149 1.361 . S
C150 C151 1.369 . S
C151 C150 1.369 . S
C151 C152 1.404 . S
C152 H135 0.940 . S
C152 C151 1.404 . S
C152 C153 1.389 . S
C153 H136 0.939 . S
C153 C148 1.400 . S
C153 C152 1.389 . S
C154 P128 1.819 . S
C154 C155 1.391 . S
C154 C159 1.391 . S
C155 H137 0.941 . S
C155 C154 1.391 . S
C155 C156 1.396 . S
C156 H140 0.939 . S
C156 C155 1.396 . S
C156 C157 1.397 . S
C157 C156 1.397 . S
C157 C158 1.385 . S
C158 H141 0.940 . S
C158 C157 1.385 . S
C158 C159 1.388 . S
C159 H138 0.939 . S
C159 C154 1.391 . S
C159 C158 1.388 . S
P160 O171 1.490 . S
P160 C174 1.812 . S
P160 C180 1.803 . S
P160 C186 1.819 . S
H161 C175 0.941 . S
H162 C176 0.939 . S
H163 C178 0.940 . S
H164 C179 0.940 . S
H165 C181 0.939 . S
H166 C182 0.942 . S
H167 C184 0.940 . S
H168 C185 0.939 . S
H169 C187 0.941 . S
H170 C191 0.939 . S
O171 P160 1.490 . S
H172 C188 0.939 . S
H173 C190 0.940 . S
C174 P160 1.812 . S
C174 C175 1.389 . S
C174 C179 1.391 . S
C175 H161 0.941 . S
C175 C174 1.389 . S
C175 C176 1.397 . S
C176 H162 0.939 . S
C176 C175 1.397 . S
C176 C177 1.378 . S
C177 C176 1.378 . S
C177 C178 1.378 . S
C178 H163 0.940 . S
C178 C177 1.378 . S
C178 C179 1.396 . S
C179 H164 0.940 . S
C179 C174 1.391 . S
C179 C178 1.396 . S
C180 P160 1.803 . S
C180 C181 1.378 . S
C180 C185 1.400 . S
C181 H165 0.939 . S
C181 C180 1.378 . S
C181 C182 1.361 . S
C182 H166 0.942 . S
C182 C181 1.361 . S
C182 C183 1.369 . S
C183 C182 1.369 . S
C183 C184 1.404 . S
C184 H167 0.940 . S
C184 C183 1.404 . S
C184 C185 1.389 . S
C185 H168 0.939 . S
C185 C180 1.400 . S
C185 C184 1.389 . S
C186 P160 1.819 . S
C186 C187 1.391 . S
C186 C191 1.391 . S
C187 H169 0.941 . S
C187 C186 1.391 . S
C187 C188 1.396 . S
C188 H172 0.939 . S
C188 C187 1.396 . S
C188 C189 1.397 . S
C189 C188 1.397 . S
C189 C190 1.385 . S
C190 H173 0.940 . S
C190 C189 1.385 . S
C190 C191 1.388 . S
C191 H170 0.939 . S
C191 C186 1.391 . S
C191 C190 1.388 . S
P192 O203 1.490 . S
P192 C206 1.812 . S
P192 C212 1.803 . S
P192 C218 1.819 . S
H193 C207 0.941 . S
H194 C208 0.939 . S
H195 C210 0.940 . S
H196 C211 0.943 . S
H197 C213 0.939 . S
H198 C214 0.942 . S
H199 C216 0.940 . S
H200 C217 0.958 . S
H201 C219 0.941 . S
H202 C223 0.937 1_565 S
O203 P192 1.490 . S
H204 C220 0.939 . S
H205 C222 0.940 . S
C206 P192 1.812 . S
C206 C207 1.389 . S
C206 C211 1.384 1_545 S
C207 H193 0.941 . S
C207 C206 1.389 . S
C207 C208 1.397 . S
C208 H194 0.939 . S
C208 C207 1.397 . S
C208 C209 1.378 . S
C209 C208 1.378 . S
C209 C210 1.378 1_545 S
C210 H195 0.940 . S
C210 C209 1.378 1_565 S
C210 C211 1.401 . S
C211 H196 0.943 . S
C211 C206 1.384 1_565 S
C211 C210 1.401 . S
C212 P192 1.803 . S
C212 C213 1.378 . S
C212 C217 1.379 1_545 S
C213 H197 0.939 . S
C213 C212 1.378 . S
C213 C214 1.361 . S
C214 H198 0.942 . S
C214 C213 1.361 . S
C214 C215 1.369 . S
C215 C214 1.369 . S
C215 C216 1.404 1_545 S
C216 H199 0.940 . S
C216 C215 1.404 1_565 S
C216 C217 1.392 . S
C217 H200 0.958 . S
C217 C212 1.379 1_565 S
C217 C216 1.392 . S
C218 P192 1.819 . S
C218 C219 1.391 . S
C218 C223 1.391 . S
C219 H201 0.941 . S
C219 C218 1.391 . S
C219 C220 1.396 . S
C220 H204 0.939 . S
C220 C219 1.396 . S
C220 C221 1.397 . S
C221 C220 1.397 . S
C221 C222 1.385 1_545 S
C222 H205 0.940 . S
C222 C221 1.385 1_565 S
C222 C223 1.388 1_565 S
C223 H202 0.937 1_545 S
C223 C218 1.391 . S
C223 C222 1.388 1_545 S
P224 O235 1.490 . S
P224 C238 1.812 . S
P224 C244 1.803 . S
P224 C250 1.819 . S
H225 C239 0.941 . S
H226 C240 0.939 . S
H227 C242 0.940 . S
H228 C243 0.940 . S
H229 C245 0.939 . S
H230 C246 0.942 . S
H231 C248 0.940 . S
H232 C249 0.939 . S
H233 C251 0.941 . S
H234 C255 0.939 . S
O235 P224 1.490 . S
H236 C252 0.939 . S
H237 C254 0.940 . S
C238 P224 1.812 . S
C238 C239 1.389 . S
C238 C243 1.391 . S
C239 H225 0.941 . S
C239 C238 1.389 . S
C239 C240 1.397 . S
C240 H226 0.939 . S
C240 C239 1.397 . S
C240 C241 1.378 . S
C241 C240 1.378 . S
C241 C242 1.378 . S
C242 H227 0.940 . S
C242 C241 1.378 . S
C242 C243 1.396 . S
C243 H228 0.940 . S
C243 C238 1.391 . S
C243 C242 1.396 . S
C244 P224 1.803 . S
C244 C245 1.378 . S
C244 C249 1.400 . S
C245 H229 0.939 . S
C245 C244 1.378 . S
C245 C246 1.361 . S
C246 H230 0.942 . S
C246 C245 1.361 . S
C246 C247 1.369 . S
C247 C246 1.369 . S
C247 C248 1.404 . S
C248 H231 0.940 . S
C248 C247 1.404 . S
C248 C249 1.389 . S
C249 H232 0.939 . S
C249 C244 1.400 . S
C249 C248 1.389 . S
C250 P224 1.819 . S
C250 C251 1.391 . S
C250 C255 1.391 . S
C251 H233 0.941 . S
C251 C250 1.391 . S
C251 C252 1.396 . S
C252 H236 0.939 . S
C252 C251 1.396 . S
C252 C253 1.397 . S
C253 C252 1.397 . S
C253 C254 1.385 . S
C254 H237 0.940 . S
C254 C253 1.385 . S
C254 C255 1.388 . S
C255 H234 0.939 . S
C255 C250 1.391 . S
C255 C254 1.388 . S
Nd256 C258 2.836 1_455 S
Nd256 O276 2.500 1_455 S
Nd256 O277 2.492 . S
Nd256 O278 2.487 . S
Nd256 O279 2.682 1_565 S
Nd256 O280 2.410 . S
Nd256 O285 2.414 1_455 S
Nd256 O287 2.424 1_565 S
Nd257 C267 2.836 1_556 S
Nd257 O279 2.414 . S
Nd257 O281 2.424 1_545 S
Nd257 O282 2.500 . S
Nd257 O283 2.492 1_556 S
Nd257 O284 2.487 1_455 S
Nd257 O285 2.682 1_445 S
Nd257 O286 2.410 . S
C258 Nd256 2.836 1_655 S
C258 C259 1.498 . S
C258 O276 1.258 . S
C258 O277 1.239 1_655 S
C259 C258 1.498 . S
C259 C260 1.366 . S
C259 C264 1.407 . S
C260 C259 1.366 . S
C260 C261 1.392 . S
C260 H288 0.930 . S
C261 C260 1.392 . S
C261 C262 1.398 . S
C261 H289 0.929 . S
C262 C261 1.398 . S
C262 C263 1.352 . S
C263 C262 1.352 . S
C263 C264 1.384 . S
C263 H290 0.930 . S
C264 C259 1.407 . S
C264 C263 1.384 . S
C264 H291 0.929 1_655 S
C265 O278 1.241 . S
C265 O279 1.273 1_565 S
C266 O280 1.251 . S
C266 O281 1.268 . S
C267 Nd257 2.836 1_554 S
C267 C268 1.498 . S
C267 O282 1.258 1_554 S
C267 O283 1.239 . S
C268 C267 1.498 . S
C268 C269 1.366 . S
C268 C273 1.407 . S
C269 C268 1.366 . S
C269 C270 1.392 . S
C269 H292 0.943 . S
C270 C269 1.392 . S
C270 C271 1.398 . S
C270 H293 0.929 . S
C271 C270 1.398 . S
C271 C272 1.352 . S
C272 C271 1.352 . S
C272 C273 1.384 . S
C272 H294 0.930 . S
C273 C268 1.407 . S
C273 C272 1.384 . S
C273 H295 0.929 . S
C274 O284 1.241 . S
C274 O285 1.273 1_545 S
C275 O286 1.251 . S
C275 O287 1.268 . S
O276 Nd256 2.500 1_655 S
O276 C258 1.258 . S
O277 Nd256 2.492 . S
O277 C258 1.239 1_455 S
O278 Nd256 2.487 . S
O278 C265 1.241 . S
O279 Nd256 2.682 1_545 S
O279 Nd257 2.414 . S
O279 C265 1.273 1_545 S
O280 Nd256 2.410 . S
O280 C266 1.251 . S
O281 Nd257 2.424 1_565 S
O281 C266 1.268 . S
O282 Nd257 2.500 . S
O282 C267 1.258 1_556 S
O283 Nd257 2.492 1_554 S
O283 C267 1.239 . S
O284 Nd257 2.487 1_655 S
O284 C274 1.241 . S
O285 Nd256 2.414 1_655 S
O285 Nd257 2.682 1_665 S
O285 C274 1.273 1_565 S
O286 Nd257 2.410 . S
O286 C275 1.251 . S
O287 Nd256 2.424 1_545 S
O287 C275 1.268 . S
H288 C260 0.930 . S
H289 C261 0.929 . S
H290 C263 0.930 . S
H291 C264 0.929 1_455 S
H292 C269 0.943 . S
H293 C270 0.929 . S
H294 C272 0.930 . S
H295 C273 0.929 . S
Nd296 C298 2.836 . S
Nd296 O316 2.500 . S
Nd296 O317 2.492 . S
Nd296 O318 2.487 1_565 S
Nd296 O319 2.682 1_565 S
Nd296 O320 2.410 1_565 S
Nd296 O325 2.414 . S
Nd296 O327 2.424 . S
Nd297 C307 2.836 1_556 S
Nd297 O319 2.414 . S
Nd297 O321 2.424 . S
Nd297 O322 2.500 . S
Nd297 O323 2.492 1_556 S
Nd297 O324 2.487 1_545 S
Nd297 O325 2.682 1_545 S
Nd297 O326 2.410 1_545 S
C298 Nd296 2.836 . S
C298 C299 1.498 . S
C298 O316 1.258 . S
C298 O317 1.239 . S
C299 C298 1.498 . S
C299 C300 1.366 . S
C299 C304 1.407 . S
C300 C299 1.366 . S
C300 C301 1.392 . S
C300 H328 0.930 . S
C301 C300 1.392 . S
C301 C302 1.398 . S
C301 H329 0.929 . S
C302 C301 1.398 . S
C302 C303 1.352 . S
C303 C302 1.352 . S
C303 C304 1.384 . S
C303 H330 0.930 . S
C304 C299 1.407 . S
C304 C303 1.384 . S
C304 H331 0.929 1_565 S
C305 O318 1.241 . S
C305 O319 1.273 . S
C306 O320 1.251 . S
C306 O321 1.268 . S
C307 Nd297 2.836 1_554 S
C307 C308 1.498 . S
C307 O322 1.258 1_554 S
C307 O323 1.239 . S
C308 C307 1.498 . S
C308 C309 1.366 . S
C308 C313 1.407 . S
C309 C308 1.366 . S
C309 C310 1.392 . S
C309 H332 0.930 1_554 S
C310 C309 1.392 . S
C310 C311 1.398 . S
C310 H333 0.929 . S
C311 C310 1.398 . S
C311 C312 1.352 . S
C312 C311 1.352 . S
C312 C313 1.384 . S
C312 H334 0.930 . S
C313 C308 1.407 . S
C313 C312 1.384 . S
C313 H335 0.929 1_545 S
C314 O324 1.241 . S
C314 O325 1.273 . S
C315 O326 1.251 . S
C315 O327 1.268 . S
O316 Nd296 2.500 . S
O316 C298 1.258 . S
O317 Nd296 2.492 . S
O317 C298 1.239 . S
O318 Nd296 2.487 1_545 S
O318 C305 1.241 . S
O319 Nd296 2.682 1_545 S
O319 Nd297 2.414 . S
O319 C305 1.273 . S
O320 Nd296 2.410 1_545 S
O320 C306 1.251 . S
O321 Nd297 2.424 . S
O321 C306 1.268 . S
O322 Nd297 2.500 . S
O322 C307 1.258 1_556 S
O323 Nd297 2.492 1_554 S
O323 C307 1.239 . S
O324 Nd297 2.487 1_565 S
O324 C314 1.241 . S
O325 Nd296 2.414 . S
O325 Nd297 2.682 1_565 S
O325 C314 1.273 . S
O326 Nd297 2.410 1_565 S
O326 C315 1.251 . S
O327 Nd296 2.424 . S
O327 C315 1.268 . S
H328 C300 0.930 . S
H329 C301 0.929 . S
H330 C303 0.930 . S
H331 C304 0.929 1_545 S
H332 C309 0.930 1_556 S
H333 C310 0.929 . S
H334 C312 0.930 . S
H335 C313 0.929 1_565 S
Nd336 C338 2.836 . S
Nd336 O356 2.500 . S
Nd336 O357 2.492 . S
Nd336 O358 2.487 . S
Nd336 O359 2.682 . S
Nd336 O360 2.410 . S
Nd336 O365 2.414 . S
Nd336 O367 2.424 . S
Nd337 C347 2.836 . S
Nd337 O359 2.414 . S
Nd337 O361 2.424 . S
Nd337 O362 2.500 . S
Nd337 O363 2.492 . S
Nd337 O364 2.487 . S
Nd337 O365 2.682 . S
Nd337 O366 2.410 . S
C338 Nd336 2.836 . S
C338 C339 1.498 . S
C338 O356 1.258 . S
C338 O357 1.239 . S
C339 C338 1.498 . S
C339 C340 1.366 . S
C339 C344 1.407 1_556 S
C340 C339 1.366 . S
C340 C341 1.392 . S
C340 H368 0.930 . S
C341 C340 1.392 . S
C341 C342 1.398 1_556 S
C341 H369 0.929 . S
C342 C341 1.398 1_554 S
C342 C343 1.352 . S
C343 C342 1.352 . S
C343 C344 1.384 . S
C343 H370 0.930 . S
C344 C339 1.407 1_554 S
C344 C343 1.384 . S
C344 H371 0.929 . S
C345 O358 1.241 . S
C345 O359 1.273 . S
C346 O360 1.251 . S
C346 O361 1.268 . S
C347 Nd337 2.836 . S
C347 C348 1.498 . S
C347 O362 1.258 . S
C347 O363 1.239 . S
C348 C347 1.498 . S
C348 C349 1.366 . S
C348 C353 1.407 . S
C349 C348 1.366 . S
C349 C350 1.392 . S
C349 H372 0.930 . S
C350 C349 1.392 . S
C350 C351 1.398 . S
C350 H373 0.929 . S
C351 C350 1.398 . S
C351 C352 1.352 . S
C352 C351 1.352 . S
C352 C353 1.384 . S
C352 H374 0.930 . S
C353 C348 1.407 . S
C353 C352 1.384 . S
C353 H375 0.929 . S
C354 O364 1.241 . S
C354 O365 1.273 . S
C355 O366 1.251 . S
C355 O367 1.268 . S
O356 Nd336 2.500 . S
O356 C338 1.258 . S
O357 Nd336 2.492 . S
O357 C338 1.239 . S
O358 Nd336 2.487 . S
O358 C345 1.241 . S
O359 Nd336 2.682 . S
O359 Nd337 2.414 . S
O359 C345 1.273 . S
O360 Nd336 2.410 . S
O360 C346 1.251 . S
O361 Nd337 2.424 . S
O361 C346 1.268 . S
O362 Nd337 2.500 . S
O362 C347 1.258 . S
O363 Nd337 2.492 . S
O363 C347 1.239 . S
O364 Nd337 2.487 . S
O364 C354 1.241 . S
O365 Nd336 2.414 . S
O365 Nd337 2.682 . S
O365 C354 1.273 . S
O366 Nd337 2.410 . S
O366 C355 1.251 . S
O367 Nd336 2.424 . S
O367 C355 1.268 . S
H368 C340 0.930 . S
H369 C341 0.929 . S
H370 C343 0.930 . S
H371 C344 0.929 . S
H372 C349 0.930 . S
H373 C350 0.929 . S
H374 C352 0.930 . S
H375 C353 0.929 . S
Nd376 C378 2.836 1_455 S
Nd376 O396 2.500 1_455 S
Nd376 O397 2.492 1_455 S
Nd376 O398 2.487 . S
Nd376 O399 2.682 . S
Nd376 O400 2.410 1_455 S
Nd376 O405 2.414 . S
Nd376 O407 2.424 . S
Nd377 C387 2.836 1_556 S
Nd377 O399 2.414 . S
Nd377 O401 2.424 1_455 S
Nd377 O402 2.500 . S
Nd377 O403 2.492 1_556 S
Nd377 O404 2.487 . S
Nd377 O405 2.682 . S
Nd377 O406 2.410 . S
C378 Nd376 2.836 1_655 S
C378 C379 1.498 . S
C378 O396 1.258 . S
C378 O397 1.239 . S
C379 C378 1.498 . S
C379 C380 1.366 . S
C379 C384 1.407 . S
C380 C379 1.366 . S
C380 C381 1.392 . S
C380 H408 0.930 . S
C381 C380 1.392 . S
C381 C382 1.398 . S
C381 H409 0.929 . S
C382 C381 1.398 . S
C382 C383 1.352 . S
C383 C382 1.352 . S
C383 C384 1.384 . S
C383 H410 0.930 . S
C384 C379 1.407 . S
C384 C383 1.384 . S
C384 H411 0.929 . S
C385 O398 1.241 . S
C385 O399 1.273 . S
C386 O400 1.251 . S
C386 O401 1.268 . S
C387 Nd377 2.836 1_554 S
C387 C388 1.498 . S
C387 O402 1.258 1_554 S
C387 O403 1.239 . S
C388 C387 1.498 . S
C388 C389 1.366 . S
C388 C393 1.407 . S
C389 C388 1.366 . S
C389 C390 1.392 . S
C389 H412 0.930 . S
C390 C389 1.392 . S
C390 C391 1.398 . S
C390 H413 0.929 . S
C391 C390 1.398 . S
C391 C392 1.352 . S
C392 C391 1.352 . S
C392 C393 1.384 . S
C392 H414 0.930 . S
C393 C388 1.407 . S
C393 C392 1.384 . S
C393 H415 0.929 . S
C394 O404 1.241 . S
C394 O405 1.273 . S
C395 O406 1.251 . S
C395 O407 1.268 . S
O396 Nd376 2.500 1_655 S
O396 C378 1.258 . S
O397 Nd376 2.492 1_655 S
O397 C378 1.239 . S
O398 Nd376 2.487 . S
O398 C385 1.241 . S
O399 Nd376 2.682 . S
O399 Nd377 2.414 . S
O399 C385 1.273 . S
O400 Nd376 2.410 1_655 S
O400 C386 1.251 . S
O401 Nd377 2.424 1_655 S
O401 C386 1.268 . S
O402 Nd377 2.500 . S
O402 C387 1.258 1_556 S
O403 Nd377 2.492 1_554 S
O403 C387 1.239 . S
O404 Nd377 2.487 . S
O404 C394 1.241 . S
O405 Nd376 2.414 . S
O405 Nd377 2.682 . S
O405 C394 1.273 . S
O406 Nd377 2.410 . S
O406 C395 1.251 . S
O407 Nd376 2.424 . S
O407 C395 1.268 . S
H408 C380 0.930 . S
H409 C381 0.929 . S
H410 C383 0.930 . S
H411 C384 0.929 . S
H412 C389 0.930 . S
H413 C390 0.929 . S
H414 C392 0.930 . S
H415 C393 0.929 . S
C416 C417 1.391 . S
C416 C418 1.394 . S
C416 H432 0.931 . S
C417 C416 1.391 . S
C417 C421 1.376 1_545 S
C418 C416 1.394 . S
C418 C419 1.369 . S
C418 C422 1.531 . S
C419 C418 1.369 . S
C419 C420 1.410 1_545 S
C419 C427 1.499 . S
C420 C419 1.410 1_565 S
C420 C421 1.392 . S
C420 C423 1.511 . S
C421 C417 1.376 1_565 S
C421 C420 1.392 . S
C421 H433 0.929 . S
C422 C418 1.531 . S
C422 H434 0.960 . S
C422 H435 0.962 . S
C422 H436 0.960 . S
C423 C420 1.511 . S
C423 H437 0.961 . S
C423 H438 0.961 . S
C423 H439 0.961 . S
C424 C425 1.370 . S
C424 C426 1.363 . S
C424 H440 0.931 . S
C425 C424 1.370 . S
C425 C429 1.408 1_565 S
C426 C424 1.363 . S
C426 C427 1.364 1_565 S
C426 C430 1.524 . S
C427 C419 1.499 . S
C427 C426 1.364 1_545 S
C427 C428 1.413 . S
C428 C427 1.413 . S
C428 C429 1.404 . S
C428 C431 1.539 . S
C429 C425 1.408 1_545 S
C429 C428 1.404 . S
C429 H441 0.930 . S
C430 C426 1.524 . S
C430 H442 0.956 . S
C430 H443 0.961 . S
C430 H444 0.961 . S
C431 C428 1.539 . S
C431 H445 0.958 . S
C431 H446 0.961 . S
C431 H447 0.960 . S
H432 C416 0.931 . S
H433 C421 0.929 . S
H434 C422 0.960 . S
H435 C422 0.962 . S
H436 C422 0.960 . S
H437 C423 0.961 . S
H438 C423 0.961 . S
H439 C423 0.961 . S
H440 C424 0.931 . S
H441 C429 0.930 . S
H442 C430 0.956 . S
H443 C430 0.961 . S
H444 C430 0.961 . S
H445 C431 0.958 . S
H446 C431 0.961 . S
H447 C431 0.960 . S
C448 C449 1.391 . S
C448 C450 1.394 . S
C448 H464 0.931 . S
C449 C448 1.391 . S
C449 C453 1.376 . S
C450 C448 1.394 . S
C450 C451 1.369 . S
C450 C454 1.531 . S
C451 C450 1.369 . S
C451 C452 1.410 . S
C451 C459 1.503 . S
C452 C451 1.410 . S
C452 C453 1.392 . S
C452 C455 1.511 . S
C453 C449 1.376 . S
C453 C452 1.392 . S
C453 H465 0.929 . S
C454 C450 1.531 . S
C454 H466 0.960 . S
C454 H467 0.962 . S
C454 H468 0.960 . S
C455 C452 1.511 . S
C455 H469 0.961 . S
C455 H470 0.961 . S
C455 H471 0.961 . S
C456 C457 1.370 . S
C456 C458 1.363 . S
C456 H472 0.931 . S
C457 C456 1.370 . S
C457 C461 1.408 . S
C458 C456 1.363 . S
C458 C459 1.370 . S
C458 C462 1.524 . S
C459 C451 1.503 . S
C459 C458 1.370 . S
C459 C460 1.403 . S
C460 C459 1.403 . S
C460 C461 1.404 . S
C460 C463 1.539 . S
C461 C457 1.408 . S
C461 C460 1.404 . S
C461 H473 0.930 . S
C462 C458 1.524 . S
C462 H474 0.956 . S
C462 H475 0.961 . S
C462 H476 0.961 . S
C463 C460 1.539 . S
C463 H477 0.958 . S
C463 H478 0.961 . S
C463 H479 0.960 . S
H464 C448 0.931 . S
H465 C453 0.929 . S
H466 C454 0.960 . S
H467 C454 0.962 . S
H468 C454 0.960 . S
H469 C455 0.961 . S
H470 C455 0.961 . S
H471 C455 0.961 . S
H472 C456 0.931 . S
H473 C461 0.930 . S
H474 C462 0.956 . S
H475 C462 0.961 . S
H476 C462 0.961 . S
H477 C463 0.958 . S
H478 C463 0.961 . S
H479 C463 0.960 . S
C480 C481 1.391 . S
C480 C482 1.394 . S
C480 H496 0.931 . S
C481 C480 1.391 . S
C481 C485 1.376 . S
C482 C480 1.394 . S
C482 C483 1.369 . S
C482 C486 1.531 . S
C483 C482 1.369 . S
C483 C484 1.410 . S
C483 C491 1.503 . S
C484 C483 1.410 . S
C484 C485 1.392 . S
C484 C487 1.511 . S
C485 C481 1.376 . S
C485 C484 1.392 . S
C485 H497 0.929 . S
C486 C482 1.531 . S
C486 H498 0.960 . S
C486 H499 0.962 . S
C486 H500 0.960 . S
C487 C484 1.511 . S
C487 H501 0.961 . S
C487 H502 0.961 . S
C487 H503 0.961 . S
C488 C489 1.370 . S
C488 C490 1.363 . S
C488 H504 0.931 . S
C489 C488 1.370 . S
C489 C493 1.408 . S
C490 C488 1.363 . S
C490 C491 1.370 . S
C490 C494 1.524 . S
C491 C483 1.503 . S
C491 C490 1.370 . S
C491 C492 1.403 . S
C492 C491 1.403 . S
C492 C493 1.404 . S
C492 C495 1.539 . S
C493 C489 1.408 . S
C493 C492 1.404 . S
C493 H505 0.930 . S
C494 C490 1.524 . S
C494 H506 0.956 . S
C494 H507 0.961 . S
C494 H508 0.961 . S
C495 C492 1.539 . S
C495 H509 0.958 . S
C495 H510 0.961 . S
C495 H511 0.960 . S
H496 C480 0.931 . S
H497 C485 0.929 . S
H498 C486 0.960 . S
H499 C486 0.962 . S
H500 C486 0.960 . S
H501 C487 0.961 . S
H502 C487 0.961 . S
H503 C487 0.961 . S
H504 C488 0.931 . S
H505 C493 0.930 . S
H506 C494 0.956 . S
H507 C494 0.961 . S
H508 C494 0.961 . S
H509 C495 0.958 . S
H510 C495 0.961 . S
H511 C495 0.960 . S
C512 C513 1.391 . S
C512 C514 1.394 . S
C512 H528 0.931 . S
C513 C512 1.391 . S
C513 C517 1.376 . S
C514 C512 1.394 . S
C514 C515 1.369 . S
C514 C518 1.531 . S
C515 C514 1.369 . S
C515 C516 1.410 . S
C515 C523 1.503 . S
C516 C515 1.410 . S
C516 C517 1.392 . S
C516 C519 1.511 . S
C517 C513 1.376 . S
C517 C516 1.392 . S
C517 H529 0.929 . S
C518 C514 1.531 . S
C518 H530 0.960 . S
C518 H531 0.962 . S
C518 H532 0.960 . S
C519 C516 1.511 . S
C519 H533 0.961 . S
C519 H534 0.961 . S
C519 H535 0.961 . S
C520 C521 1.370 . S
C520 C522 1.363 . S
C520 H536 0.931 . S
C521 C520 1.370 . S
C521 C525 1.408 . S
C522 C520 1.363 . S
C522 C523 1.370 . S
C522 C526 1.524 . S
C523 C515 1.503 . S
C523 C522 1.370 . S
C523 C524 1.403 . S
C524 C523 1.403 . S
C524 C525 1.404 . S
C524 C527 1.539 . S
C525 C521 1.408 . S
C525 C524 1.404 . S
C525 H537 0.930 . S
C526 C522 1.524 . S
C526 H538 0.956 . S
C526 H539 0.961 . S
C526 H540 0.961 . S
C527 C524 1.539 . S
C527 H541 0.958 . S
C527 H542 0.961 . S
C527 H543 0.960 . S
H528 C512 0.931 . S
H529 C517 0.929 . S
H530 C518 0.960 . S
H531 C518 0.962 . S
H532 C518 0.960 . S
H533 C519 0.961 . S
H534 C519 0.961 . S
H535 C519 0.961 . S
H536 C520 0.931 . S
H537 C525 0.930 . S
H538 C526 0.956 . S
H539 C526 0.961 . S
H540 C526 0.961 . S
H541 C527 0.958 . S
H542 C527 0.961 . S
H543 C527 0.960 . S
C544 C545 1.391 . S
C544 C546 1.394 . S
C544 H560 0.931 . S
C545 C544 1.391 . S
C545 C549 1.376 1_545 S
C546 C544 1.394 . S
C546 C547 1.369 . S
C546 C550 1.531 . S
C547 C546 1.369 . S
C547 C548 1.410 1_545 S
C547 C555 1.503 . S
C548 C547 1.410 1_565 S
C548 C549 1.392 . S
C548 C551 1.511 1_556 S
C549 C545 1.376 1_565 S
C549 C548 1.392 . S
C549 H561 0.929 1_556 S
C550 C546 1.531 . S
C550 H562 0.960 . S
C550 H563 0.962 . S
C550 H564 0.960 . S
C551 C548 1.511 1_554 S
C551 H565 0.961 . S
C551 H566 0.961 . S
C551 H567 0.961 1_565 S
C552 C553 1.370 1_565 S
C552 C554 1.363 . S
C552 H568 0.931 . S
C553 C552 1.370 1_545 S
C553 C557 1.408 . S
C554 C552 1.363 . S
C554 C555 1.370 1_565 S
C554 C558 1.524 . S
C555 C547 1.503 . S
C555 C554 1.370 1_545 S
C555 C556 1.403 . S
C556 C555 1.403 . S
C556 C557 1.404 . S
C556 C559 1.539 . S
C557 C553 1.408 . S
C557 C556 1.404 . S
C557 H569 0.930 . S
C558 C554 1.524 . S
C558 H570 0.956 . S
C558 H571 0.961 . S
C558 H572 0.961 . S
C559 C556 1.539 . S
C559 H573 0.958 . S
C559 H574 0.961 . S
C559 H575 0.960 . S
H560 C544 0.931 . S
H561 C549 0.929 1_554 S
H562 C550 0.960 . S
H563 C550 0.962 . S
H564 C550 0.960 . S
H565 C551 0.961 . S
H566 C551 0.961 . S
H567 C551 0.961 1_545 S
H568 C552 0.931 . S
H569 C557 0.930 . S
H570 C558 0.956 . S
H571 C558 0.961 . S
H572 C558 0.961 . S
H573 C559 0.958 . S
H574 C559 0.961 . S
H575 C559 0.960 . S
C576 C577 1.391 . S
C576 C578 1.394 . S
C576 H592 0.931 . S
C577 C576 1.391 . S
C577 C581 1.376 . S
C578 C576 1.394 . S
C578 C579 1.369 . S
C578 C582 1.531 . S
C579 C578 1.369 . S
C579 C580 1.410 . S
C579 C587 1.503 . S
C580 C579 1.410 . S
C580 C581 1.392 . S
C580 C583 1.511 . S
C581 C577 1.376 . S
C581 C580 1.392 . S
C581 H593 0.929 . S
C582 C578 1.531 . S
C582 H594 0.960 . S
C582 H595 0.962 . S
C582 H596 0.960 . S
C583 C580 1.511 . S
C583 H597 0.961 . S
C583 H598 0.961 . S
C583 H599 0.961 . S
C584 C585 1.370 1_554 S
C584 C586 1.363 . S
C584 H600 0.931 . S
C585 C584 1.370 1_556 S
C585 C589 1.408 . S
C586 C584 1.363 . S
C586 C587 1.370 . S
C586 C590 1.524 . S
C587 C579 1.503 . S
C587 C586 1.370 . S
C587 C588 1.403 . S
C588 C587 1.403 . S
C588 C589 1.404 1_554 S
C588 C591 1.539 . S
C589 C585 1.408 . S
C589 C588 1.404 1_556 S
C589 H601 0.930 . S
C590 C586 1.524 . S
C590 H602 0.956 . S
C590 H603 0.961 . S
C590 H604 0.961 . S
C591 C588 1.539 . S
C591 H605 0.958 . S
C591 H606 0.961 . S
C591 H607 0.960 . S
H592 C576 0.931 . S
H593 C581 0.929 . S
H594 C582 0.960 . S
H595 C582 0.962 . S
H596 C582 0.960 . S
H597 C583 0.961 . S
H598 C583 0.961 . S
H599 C583 0.961 . S
H600 C584 0.931 . S
H601 C589 0.930 . S
H602 C590 0.956 . S
H603 C590 0.961 . S
H604 C590 0.961 . S
H605 C591 0.958 . S
H606 C591 0.961 . S
H607 C591 0.960 . S
C608 C609 1.391 1_554 S
C608 C610 1.394 . S
C608 H624 0.931 . S
C609 C608 1.391 1_556 S
C609 C613 1.376 . S
C610 C608 1.394 . S
C610 C611 1.369 1_554 S
C610 C614 1.531 . S
C611 C610 1.369 1_556 S
C611 C612 1.410 . S
C611 C619 1.503 . S
C612 C611 1.410 . S
C612 C613 1.392 . S
C612 C615 1.511 . S
C613 C609 1.376 . S
C613 C612 1.392 . S
C613 H625 0.929 . S
C614 C610 1.531 . S
C614 H626 0.960 . S
C614 H627 0.962 . S
C614 H628 0.960 . S
C615 C612 1.511 . S
C615 H629 0.961 . S
C615 H630 0.961 . S
C615 H631 0.961 . S
C616 C617 1.370 . S
C616 C618 1.363 . S
C616 H632 0.931 . S
C617 C616 1.370 . S
C617 C621 1.408 . S
C618 C616 1.363 . S
C618 C619 1.370 . S
C618 C622 1.524 . S
C619 C611 1.503 . S
C619 C618 1.370 . S
C619 C620 1.403 . S
C620 C619 1.403 . S
C620 C621 1.404 . S
C620 C623 1.539 . S
C621 C617 1.408 . S
C621 C620 1.404 . S
C621 H633 0.930 . S
C622 C618 1.524 . S
C622 H634 0.956 1_556 S
C622 H635 0.961 . S
C622 H636 0.961 . S
C623 C620 1.539 . S
C623 H637 0.958 . S
C623 H638 0.961 . S
C623 H639 0.960 . S
H624 C608 0.931 . S
H625 C613 0.929 . S
H626 C614 0.960 . S
H627 C614 0.962 . S
H628 C614 0.960 . S
H629 C615 0.961 . S
H630 C615 0.961 . S
H631 C615 0.961 . S
H632 C616 0.931 . S
H633 C621 0.930 . S
H634 C622 0.956 1_554 S
H635 C622 0.961 . S
H636 C622 0.961 . S
H637 C623 0.958 . S
H638 C623 0.961 . S
H639 C623 0.960 . S
C640 C641 1.391 1_556 S
C640 C642 1.394 . S
C640 H656 0.931 . S
C641 C640 1.391 1_554 S
C641 C645 1.376 . S
C642 C640 1.394 . S
C642 C643 1.369 . S
C642 C646 1.531 . S
C643 C642 1.369 . S
C643 C644 1.410 1_556 S
C643 C651 1.503 . S
C644 C643 1.410 1_554 S
C644 C645 1.392 . S
C644 C647 1.511 . S
C645 C641 1.376 . S
C645 C644 1.392 . S
C645 H657 0.929 . S
C646 C642 1.531 . S
C646 H658 0.960 . S
C646 H659 0.962 . S
C646 H660 0.960 . S
C647 C644 1.511 . S
C647 H661 0.961 . S
C647 H662 0.961 1_554 S
C647 H663 0.961 . S
C648 C649 1.370 . S
C648 C650 1.363 . S
C648 H664 0.931 . S
C649 C648 1.370 . S
C649 C653 1.408 . S
C650 C648 1.363 . S
C650 C651 1.370 . S
C650 C654 1.524 . S
C651 C643 1.503 . S
C651 C650 1.370 . S
C651 C652 1.403 . S
C652 C651 1.403 . S
C652 C653 1.404 . S
C652 C655 1.539 1_556 S
C653 C649 1.408 . S
C653 C652 1.404 . S
C653 H665 0.947 . S
C654 C650 1.524 . S
C654 H666 0.956 . S
C654 H667 0.961 . S
C654 H668 0.961 . S
C655 C652 1.539 1_554 S
C655 H669 0.958 . S
C655 H670 0.961 . S
C655 H671 0.960 . S
H656 C640 0.931 . S
H657 C645 0.929 . S
H658 C646 0.960 . S
H659 C646 0.962 . S
H660 C646 0.960 . S
H661 C647 0.961 . S
H662 C647 0.961 1_556 S
H663 C647 0.961 . S
H664 C648 0.931 . S
H665 C653 0.947 . S
H666 C654 0.956 . S
H667 C654 0.961 . S
H668 C654 0.961 . S
H669 C655 0.958 . S
H670 C655 0.961 . S
H671 C655 0.960 . S
C672 C673 1.391 . S
C672 C674 1.394 . S
C672 H688 0.931 . S
C673 C672 1.391 . S
C673 C677 1.376 . S
C674 C672 1.394 . S
C674 C675 1.369 . S
C674 C678 1.531 . S
C675 C674 1.369 . S
C675 C676 1.410 . S
C675 C683 1.503 . S
C676 C675 1.410 . S
C676 C677 1.392 . S
C676 C679 1.511 . S
C677 C673 1.376 . S
C677 C676 1.392 . S
C677 H689 0.929 . S
C678 C674 1.531 . S
C678 H690 0.960 . S
C678 H691 0.962 . S
C678 H692 0.960 . S
C679 C676 1.511 . S
C679 H693 0.961 . S
C679 H694 0.961 . S
C679 H695 0.961 . S
C680 C681 1.370 . S
C680 C682 1.363 . S
C680 H696 0.931 . S
C681 C680 1.370 . S
C681 C685 1.408 . S
C682 C680 1.363 . S
C682 C683 1.370 . S
C682 C686 1.524 . S
C683 C675 1.503 . S
C683 C682 1.370 . S
C683 C684 1.403 . S
C684 C683 1.403 . S
C684 C685 1.404 . S
C684 C687 1.539 . S
C685 C681 1.408 . S
C685 C684 1.404 . S
C685 H697 0.930 . S
C686 C682 1.524 . S
C686 H698 0.956 . S
C686 H699 0.961 . S
C686 H700 0.961 . S
C687 C684 1.539 . S
C687 H701 0.958 . S
C687 H702 0.961 . S
C687 H703 0.960 . S
H688 C672 0.931 . S
H689 C677 0.929 . S
H690 C678 0.960 . S
H691 C678 0.962 . S
H692 C678 0.960 . S
H693 C679 0.961 . S
H694 C679 0.961 . S
H695 C679 0.961 . S
H696 C680 0.931 . S
H697 C685 0.930 . S
H698 C686 0.956 . S
H699 C686 0.961 . S
H700 C686 0.961 . S
H701 C687 0.958 . S
H702 C687 0.961 . S
H703 C687 0.960 . S
C704 C705 1.391 1_545 S
C704 C706 1.394 . S
C704 H720 0.931 . S
C705 C704 1.391 1_565 S
C705 C709 1.376 . S
C706 C704 1.394 . S
C706 C707 1.369 1_545 S
C706 C710 1.531 . S
C707 C706 1.369 1_565 S
C707 C708 1.410 . S
C707 C715 1.503 . S
C708 C707 1.410 . S
C708 C709 1.392 . S
C708 C711 1.511 . S
C709 C705 1.376 . S
C709 C708 1.392 . S
C709 H721 0.929 . S
C710 C706 1.531 . S
C710 H722 0.960 . S
C710 H723 0.962 . S
C710 H724 0.960 . S
C711 C708 1.511 . S
C711 H725 0.961 . S
C711 H726 0.961 . S
C711 H727 0.961 . S
C712 C713 1.370 . S
C712 C714 1.363 . S
C712 H728 0.930 . S
C713 C712 1.370 . S
C713 C717 1.408 . S
C714 C712 1.363 . S
C714 C715 1.370 . S
C714 C718 1.524 1_565 S
C715 C707 1.503 . S
C715 C714 1.370 . S
C715 C716 1.403 . S
C716 C715 1.403 . S
C716 C717 1.404 . S
C716 C719 1.539 . S
C717 C713 1.408 . S
C717 C716 1.404 . S
C717 H729 0.930 . S
C718 C714 1.524 1_545 S
C718 H730 0.956 . S
C718 H731 0.961 1_545 S
C718 H732 0.961 . S
C719 C716 1.539 . S
C719 H733 0.958 1_556 S
C719 H734 0.961 1_556 S
C719 H735 0.960 . S
H720 C704 0.931 . S
H721 C709 0.929 . S
H722 C710 0.960 . S
H723 C710 0.962 . S
H724 C710 0.960 . S
H725 C711 0.961 . S
H726 C711 0.961 . S
H727 C711 0.961 . S
H728 C712 0.930 . S
H729 C717 0.930 . S
H730 C718 0.956 . S
H731 C718 0.961 1_565 S
H732 C718 0.961 . S
H733 C719 0.958 1_554 S
H734 C719 0.961 1_554 S
H735 C719 0.960 . S
C736 C737 1.391 . S
C736 C738 1.394 . S
C736 H752 0.931 . S
C737 C736 1.391 . S
C737 C741 1.376 . S
C738 C736 1.394 . S
C738 C739 1.369 . S
C738 C742 1.531 . S
C739 C738 1.369 . S
C739 C740 1.410 . S
C739 C747 1.503 . S
C740 C739 1.410 . S
C740 C741 1.392 . S
C740 C743 1.511 . S
C741 C737 1.376 . S
C741 C740 1.392 . S
C741 H753 0.929 . S
C742 C738 1.531 . S
C742 H754 0.960 . S
C742 H755 0.962 . S
C742 H756 0.960 . S
C743 C740 1.511 . S
C743 H757 0.961 . S
C743 H758 0.961 . S
C743 H759 0.961 . S
C744 C745 1.370 . S
C744 C746 1.363 . S
C744 H760 0.931 . S
C745 C744 1.370 . S
C745 C749 1.408 . S
C746 C744 1.363 . S
C746 C747 1.370 . S
C746 C750 1.524 . S
C747 C739 1.503 . S
C747 C746 1.370 . S
C747 C748 1.403 . S
C748 C747 1.403 . S
C748 C749 1.404 . S
C748 C751 1.539 . S
C749 C745 1.408 . S
C749 C748 1.404 . S
C749 H761 0.930 . S
C750 C746 1.524 . S
C750 H762 0.956 . S
C750 H763 0.961 . S
C750 H764 0.961 . S
C751 C748 1.539 . S
C751 H765 0.958 . S
C751 H766 0.961 . S
C751 H767 0.960 . S
H752 C736 0.931 . S
H753 C741 0.929 . S
H754 C742 0.960 . S
H755 C742 0.962 . S
H756 C742 0.960 . S
H757 C743 0.961 . S
H758 C743 0.961 . S
H759 C743 0.961 . S
H760 C744 0.931 . S
H761 C749 0.930 . S
H762 C750 0.956 . S
H763 C750 0.961 . S
H764 C750 0.961 . S
H765 C751 0.958 . S
H766 C751 0.961 . S
H767 C751 0.960 . S
C768 C769 1.391 . S
C768 C770 1.394 . S
C768 H784 0.931 . S
C769 C768 1.391 . S
C769 C773 1.376 . S
C770 C768 1.394 . S
C770 C771 1.369 . S
C770 C774 1.531 . S
C771 C770 1.369 . S
C771 C772 1.410 . S
C771 C779 1.503 . S
C772 C771 1.410 . S
C772 C773 1.392 . S
C772 C775 1.511 . S
C773 C769 1.376 . S
C773 C772 1.392 . S
C773 H785 0.929 . S
C774 C770 1.531 . S
C774 H786 0.960 . S
C774 H787 0.962 . S
C774 H788 0.960 . S
C775 C772 1.511 . S
C775 H789 0.961 . S
C775 H790 0.961 . S
C775 H791 0.961 . S
C776 C777 1.370 . S
C776 C778 1.363 . S
C776 H792 0.931 . S
C777 C776 1.370 . S
C777 C781 1.408 . S
C778 C776 1.363 . S
C778 C779 1.370 . S
C778 C782 1.524 . S
C779 C771 1.503 . S
C779 C778 1.370 . S
C779 C780 1.403 . S
C780 C779 1.403 . S
C780 C781 1.404 . S
C780 C783 1.539 . S
C781 C777 1.408 . S
C781 C780 1.404 . S
C781 H793 0.930 . S
C782 C778 1.524 . S
C782 H794 0.956 . S
C782 H795 0.961 . S
C782 H796 0.961 . S
C783 C780 1.539 . S
C783 H797 0.958 . S
C783 H798 0.961 . S
C783 H799 0.960 . S
H784 C768 0.931 . S
H785 C773 0.929 . S
H786 C774 0.960 . S
H787 C774 0.962 . S
H788 C774 0.960 . S
H789 C775 0.961 . S
H790 C775 0.961 . S
H791 C775 0.961 . S
H792 C776 0.931 . S
H793 C781 0.930 . S
H794 C782 0.956 . S
H795 C782 0.961 . S
H796 C782 0.961 . S
H797 C783 0.958 . S
H798 C783 0.961 . S
H799 C783 0.960 . S
C800 C801 1.391 . S
C800 C802 1.394 . S
C800 H816 0.931 . S
C801 C800 1.391 . S
C801 C805 1.376 . S
C802 C800 1.394 . S
C802 C803 1.369 . S
C802 C806 1.531 . S
C803 C802 1.369 . S
C803 C804 1.410 . S
C803 C811 1.503 . S
C804 C803 1.410 . S
C804 C805 1.392 . S
C804 C807 1.511 . S
C805 C801 1.376 . S
C805 C804 1.392 . S
C805 H817 0.929 . S
C806 C802 1.531 . S
C806 H818 0.960 . S
C806 H819 0.962 . S
C806 H820 0.960 . S
C807 C804 1.511 . S
C807 H821 0.961 . S
C807 H822 0.961 . S
C807 H823 0.961 . S
C808 C809 1.370 . S
C808 C810 1.363 . S
C808 H824 0.931 . S
C809 C808 1.370 . S
C809 C813 1.408 . S
C810 C808 1.363 . S
C810 C811 1.370 . S
C810 C814 1.524 1_556 S
C811 C803 1.503 . S
C811 C810 1.370 . S
C811 C812 1.403 . S
C812 C811 1.403 . S
C812 C813 1.404 . S
C812 C815 1.539 . S
C813 C809 1.408 . S
C813 C812 1.404 . S
C813 H825 0.930 . S
C814 C810 1.524 1_554 S
C814 H826 0.956 1_554 S
C814 H827 0.961 . S
C814 H828 0.961 . S
C815 C812 1.539 . S
C815 H829 0.958 . S
C815 H830 0.961 . S
C815 H831 0.960 . S
H816 C800 0.931 . S
H817 C805 0.929 . S
H818 C806 0.960 . S
H819 C806 0.962 . S
H820 C806 0.960 . S
H821 C807 0.961 . S
H822 C807 0.961 . S
H823 C807 0.961 . S
H824 C808 0.931 . S
H825 C813 0.930 . S
H826 C814 0.956 1_556 S
H827 C814 0.961 . S
H828 C814 0.961 . S
H829 C815 0.958 . S
H830 C815 0.961 . S
H831 C815 0.960 . S
C832 C833 1.391 1_545 S
C832 C834 1.394 . S
C832 H848 0.931 . S
C833 C832 1.391 1_565 S
C833 C837 1.376 . S
C834 C832 1.394 . S
C834 C835 1.369 . S
C834 C838 1.531 . S
C835 C834 1.369 . S
C835 C836 1.410 1_545 S
C835 C843 1.503 . S
C836 C835 1.410 1_565 S
C836 C837 1.392 . S
C836 C839 1.511 . S
C837 C833 1.376 . S
C837 C836 1.392 . S
C837 H849 0.929 . S
C838 C834 1.531 . S
C838 H850 0.960 . S
C838 H851 0.962 . S
C838 H852 0.960 . S
C839 C836 1.511 . S
C839 H853 0.961 . S
C839 H854 0.961 . S
C839 H855 0.961 . S
C840 C841 1.370 . S
C840 C842 1.363 . S
C840 H856 0.931 . S
C841 C840 1.370 . S
C841 C845 1.408 1_545 S
C842 C840 1.363 . S
C842 C843 1.370 . S
C842 C846 1.524 . S
C843 C835 1.503 . S
C843 C842 1.370 . S
C843 C844 1.403 1_545 S
C844 C843 1.403 1_565 S
C844 C845 1.404 . S
C844 C847 1.539 . S
C845 C841 1.408 1_565 S
C845 C844 1.404 . S
C845 H857 0.930 . S
C846 C842 1.524 . S
C846 H858 0.956 . S
C846 H859 0.961 . S
C846 H860 0.961 . S
C847 C844 1.539 . S
C847 H861 0.958 . S
C847 H862 0.961 . S
C847 H863 0.960 . S
H848 C832 0.931 . S
H849 C837 0.929 . S
H850 C838 0.960 . S
H851 C838 0.962 . S
H852 C838 0.960 . S
H853 C839 0.961 . S
H854 C839 0.961 . S
H855 C839 0.961 . S
H856 C840 0.931 . S
H857 C845 0.930 . S
H858 C846 0.956 . S
H859 C846 0.961 . S
H860 C846 0.961 . S
H861 C847 0.958 . S
H862 C847 0.961 . S
H863 C847 0.960 . S
C864 C865 1.391 . S
C864 C866 1.394 . S
C864 H880 0.931 . S
C865 C864 1.391 . S
C865 C869 1.376 . S
C866 C864 1.394 . S
C866 C867 1.369 . S
C866 C870 1.531 . S
C867 C866 1.369 . S
C867 C868 1.410 . S
C867 C875 1.503 . S
C868 C867 1.410 . S
C868 C869 1.392 . S
C868 C871 1.511 . S
C869 C865 1.376 . S
C869 C868 1.392 . S
C869 H881 0.929 . S
C870 C866 1.531 . S
C870 H882 0.960 . S
C870 H883 0.962 . S
C870 H884 0.960 . S
C871 C868 1.511 . S
C871 H885 0.961 . S
C871 H886 0.961 . S
C871 H887 0.961 . S
C872 C873 1.370 . S
C872 C874 1.363 . S
C872 H888 0.931 1_554 S
C873 C872 1.370 . S
C873 C877 1.408 . S
C874 C872 1.363 . S
C874 C875 1.370 . S
C874 C878 1.524 . S
C875 C867 1.503 . S
C875 C874 1.370 . S
C875 C876 1.403 . S
C876 C875 1.403 . S
C876 C877 1.404 . S
C876 C879 1.539 . S
C877 C873 1.408 . S
C877 C876 1.404 . S
C877 H889 0.930 . S
C878 C874 1.524 . S
C878 H890 0.956 . S
C878 H891 0.961 . S
C878 H892 0.961 1_554 S
C879 C876 1.539 . S
C879 H893 0.958 . S
C879 H894 0.961 . S
C879 H895 0.960 . S
H880 C864 0.931 . S
H881 C869 0.929 . S
H882 C870 0.960 . S
H883 C870 0.962 . S
H884 C870 0.960 . S
H885 C871 0.961 . S
H886 C871 0.961 . S
H887 C871 0.961 . S
H888 C872 0.931 1_556 S
H889 C877 0.930 . S
H890 C878 0.956 . S
H891 C878 0.961 . S
H892 C878 0.961 1_556 S
H893 C879 0.958 . S
H894 C879 0.961 . S
H895 C879 0.960 . S
C896 C897 1.391 . S
C896 C898 1.394 . S
C896 H912 0.931 . S
C897 C896 1.391 . S
C897 C901 1.376 . S
C898 C896 1.394 . S
C898 C899 1.369 . S
C898 C902 1.531 . S
C899 C898 1.369 . S
C899 C900 1.410 . S
C899 C907 1.503 . S
C900 C899 1.410 . S
C900 C901 1.392 . S
C900 C903 1.511 . S
C901 C897 1.376 . S
C901 C900 1.392 . S
C901 H913 0.929 . S
C902 C898 1.531 . S
C902 H914 0.960 . S
C902 H915 0.962 . S
C902 H916 0.960 . S
C903 C900 1.511 . S
C903 H917 0.961 . S
C903 H918 0.961 . S
C903 H919 0.961 . S
C904 C905 1.370 . S
C904 C906 1.363 . S
C904 H920 0.931 . S
C905 C904 1.370 . S
C905 C909 1.408 . S
C906 C904 1.363 . S
C906 C907 1.370 . S
C906 C910 1.524 . S
C907 C899 1.503 . S
C907 C906 1.370 . S
C907 C908 1.403 . S
C908 C907 1.403 . S
C908 C909 1.404 . S
C908 C911 1.539 . S
C909 C905 1.408 . S
C909 C908 1.404 . S
C909 H921 0.930 . S
C910 C906 1.524 . S
C910 H922 0.956 . S
C910 H923 0.961 1_556 S
C910 H924 0.961 1_556 S
C911 C908 1.539 . S
C911 H925 0.958 . S
C911 H926 0.961 . S
C911 H927 0.960 . S
H912 C896 0.931 . S
H913 C901 0.929 . S
H914 C902 0.960 . S
H915 C902 0.962 . S
H916 C902 0.960 . S
H917 C903 0.961 . S
H918 C903 0.961 . S
H919 C903 0.961 . S
H920 C904 0.931 . S
H921 C909 0.930 . S
H922 C910 0.956 . S
H923 C910 0.961 1_554 S
H924 C910 0.961 1_554 S
H925 C911 0.958 . S
H926 C911 0.961 . S
H927 C911 0.960 . S
C928 C929 1.391 . S
C928 C930 1.394 . S
C928 H944 0.931 . S
C929 C928 1.391 . S
C929 C933 1.376 . S
C930 C928 1.394 . S
C930 C931 1.369 . S
C930 C934 1.531 . S
C931 C930 1.369 . S
C931 C932 1.410 . S
C931 C939 1.503 . S
C932 C931 1.410 . S
C932 C933 1.392 . S
C932 C935 1.511 . S
C933 C929 1.376 . S
C933 C932 1.392 . S
C933 H945 0.929 . S
C934 C930 1.531 . S
C934 H946 0.960 . S
C934 H947 0.962 . S
C934 H948 0.960 . S
C935 C932 1.511 . S
C935 H949 0.961 . S
C935 H950 0.961 . S
C935 H951 0.961 . S
C936 C937 1.370 . S
C936 C938 1.363 . S
C936 H952 0.931 . S
C937 C936 1.370 . S
C937 C941 1.408 . S
C938 C936 1.363 . S
C938 C939 1.370 . S
C938 C942 1.524 . S
C939 C931 1.503 . S
C939 C938 1.370 . S
C939 C940 1.403 . S
C940 C939 1.403 . S
C940 C941 1.404 . S
C940 C943 1.539 . S
C941 C937 1.408 . S
C941 C940 1.404 . S
C941 H953 0.930 . S
C942 C938 1.524 . S
C942 H954 0.956 . S
C942 H955 0.961 . S
C942 H956 0.961 . S
C943 C940 1.539 . S
C943 H957 0.958 . S
C943 H958 0.961 . S
C943 H959 0.960 . S
H944 C928 0.931 . S
H945 C933 0.929 . S
H946 C934 0.960 . S
H947 C934 0.962 . S
H948 C934 0.960 . S
H949 C935 0.961 . S
H950 C935 0.961 . S
H951 C935 0.961 . S
H952 C936 0.931 . S
H953 C941 0.930 . S
H954 C942 0.956 . S
H955 C942 0.961 . S
H956 C942 0.961 . S
H957 C943 0.958 . S
H958 C943 0.961 . S
H959 C943 0.960 . S
C960 C961 1.391 . S
C960 C962 1.394 . S
C960 H976 0.931 . S
C961 C960 1.391 . S
C961 C965 1.376 1_545 S
C962 C960 1.394 . S
C962 C963 1.369 . S
C962 C966 1.531 . S
C963 C962 1.369 . S
C963 C964 1.410 1_545 S
C963 C971 1.503 . S
C964 C963 1.410 1_565 S
C964 C965 1.392 . S
C964 C967 1.511 . S
C965 C961 1.376 1_565 S
C965 C964 1.392 . S
C965 H977 0.929 . S
C966 C962 1.531 . S
C966 H978 0.960 . S
C966 H979 0.962 . S
C966 H980 0.960 . S
C967 C964 1.511 . S
C967 H981 0.961 . S
C967 H982 0.961 . S
C967 H983 0.961 . S
C968 C969 1.370 . S
C968 C970 1.363 . S
C968 H984 0.931 . S
C969 C968 1.370 . S
C969 C973 1.408 . S
C970 C968 1.363 . S
C970 C971 1.370 . S
C970 C974 1.524 1_545 S
C971 C963 1.503 . S
C971 C970 1.370 . S
C971 C972 1.403 . S
C972 C971 1.403 . S
C972 C973 1.404 . S
C972 C975 1.539 . S
C973 C969 1.408 . S
C973 C972 1.404 . S
C973 H985 0.930 . S
C974 C970 1.524 1_565 S
C974 H986 0.956 1_565 S
C974 H987 0.961 . S
C974 H988 0.961 . S
C975 C972 1.539 . S
C975 H989 0.958 . S
C975 H990 0.961 . S
C975 H991 0.960 . S
H976 C960 0.931 . S
H977 C965 0.929 . S
H978 C966 0.960 . S
H979 C966 0.962 . S
H980 C966 0.960 . S
H981 C967 0.961 . S
H982 C967 0.961 . S
H983 C967 0.961 . S
H984 C968 0.931 . S
H985 C973 0.930 . S
H986 C974 0.956 1_545 S
H987 C974 0.961 . S
H988 C974 0.961 . S
H989 C975 0.958 . S
H990 C975 0.961 . S
H991 C975 0.960 . S
C992 C993 1.391 . S
C992 C994 1.394 1_554 S
C992 H1008 0.931 1_554 S
C993 C992 1.391 . S
C993 C997 1.376 . S
C994 C992 1.394 1_556 S
C994 C995 1.369 1_556 S
C994 C998 1.531 . S
C995 C994 1.369 1_554 S
C995 C996 1.410 . S
C995 C1003 1.503 . S
C996 C995 1.410 . S
C996 C997 1.392 . S
C996 C999 1.511 . S
C997 C993 1.376 . S
C997 C996 1.392 . S
C997 H1009 0.929 . S
C998 C994 1.531 . S
C998 H1010 0.960 . S
C998 H1011 0.962 . S
C998 H1012 0.960 . S
C999 C996 1.511 . S
C999 H1013 0.961 . S
C999 H1014 0.961 . S
C999 H1015 0.961 . S
C1000 C1001 1.370 . S
C1000 C1002 1.363 . S
C1000 H1016 0.931 . S
C1001 C1000 1.370 . S
C1001 C1005 1.408 . S
C1002 C1000 1.363 . S
C1002 C1003 1.370 1_556 S
C1002 C1006 1.524 . S
C1003 C995 1.503 . S
C1003 C1002 1.370 1_554 S
C1003 C1004 1.403 . S
C1004 C1003 1.403 . S
C1004 C1005 1.404 1_554 S
C1004 C1007 1.539 . S
C1005 C1001 1.408 . S
C1005 C1004 1.404 1_556 S
C1005 H1017 0.930 1_556 S
C1006 C1002 1.524 . S
C1006 H1018 0.956 . S
C1006 H1019 0.961 1_556 S
C1006 H1020 0.961 . S
C1007 C1004 1.539 . S
C1007 H1021 0.958 . S
C1007 H1022 0.961 . S
C1007 H1023 0.960 . S
H1008 C992 0.931 1_556 S
H1009 C997 0.929 . S
H1010 C998 0.960 . S
H1011 C998 0.962 . S
H1012 C998 0.960 . S
H1013 C999 0.961 . S
H1014 C999 0.961 . S
H1015 C999 0.961 . S
H1016 C1000 0.931 . S
H1017 C1005 0.930 1_554 S
H1018 C1006 0.956 . S
H1019 C1006 0.961 1_554 S
H1020 C1006 0.961 . S
H1021 C1007 0.958 . S
H1022 C1007 0.961 . S
H1023 C1007 0.960 . S
C1024 C1025 1.391 . S
C1024 C1026 1.394 . S
C1024 H1040 0.931 . S
C1025 C1024 1.391 . S
C1025 C1029 1.376 . S
C1026 C1024 1.394 . S
C1026 C1027 1.369 . S
C1026 C1030 1.531 . S
C1027 C1026 1.369 . S
C1027 C1028 1.410 . S
C1027 C1035 1.503 . S
C1028 C1027 1.410 . S
C1028 C1029 1.392 . S
C1028 C1031 1.511 . S
C1029 C1025 1.376 . S
C1029 C1028 1.392 . S
C1029 H1041 0.929 . S
C1030 C1026 1.531 . S
C1030 H1042 0.960 . S
C1030 H1043 0.962 . S
C1030 H1044 0.960 . S
C1031 C1028 1.511 . S
C1031 H1045 0.961 . S
C1031 H1046 0.961 . S
C1031 H1047 0.961 . S
C1032 C1033 1.370 . S
C1032 C1034 1.363 . S
C1032 H1048 0.931 . S
C1033 C1032 1.370 . S
C1033 C1037 1.408 . S
C1034 C1032 1.363 . S
C1034 C1035 1.370 . S
C1034 C1038 1.524 . S
C1035 C1027 1.503 . S
C1035 C1034 1.370 . S
C1035 C1036 1.403 . S
C1036 C1035 1.403 . S
C1036 C1037 1.404 . S
C1036 C1039 1.539 . S
C1037 C1033 1.408 . S
C1037 C1036 1.404 . S
C1037 H1049 0.930 . S
C1038 C1034 1.524 . S
C1038 H1050 0.956 . S
C1038 H1051 0.961 . S
C1038 H1052 0.961 . S
C1039 C1036 1.539 . S
C1039 H1053 0.958 . S
C1039 H1054 0.961 . S
C1039 H1055 0.960 . S
H1040 C1024 0.931 . S
H1041 C1029 0.929 . S
H1042 C1030 0.960 . S
H1043 C1030 0.962 . S
H1044 C1030 0.960 . S
H1045 C1031 0.961 . S
H1046 C1031 0.961 . S
H1047 C1031 0.961 . S
H1048 C1032 0.931 . S
H1049 C1037 0.930 . S
H1050 C1038 0.956 . S
H1051 C1038 0.961 . S
H1052 C1038 0.961 . S
H1053 C1039 0.958 . S
H1054 C1039 0.961 . S
H1055 C1039 0.960 . S
C1056 C1057 1.391 . S
C1056 C1058 1.394 . S
C1056 H1072 0.931 . S
C1057 C1056 1.391 . S
C1057 C1061 1.376 . S
C1058 C1056 1.394 . S
C1058 C1059 1.369 . S
C1058 C1062 1.531 . S
C1059 C1058 1.369 . S
C1059 C1060 1.410 . S
C1059 C1067 1.503 . S
C1060 C1059 1.410 . S
C1060 C1061 1.392 . S
C1060 C1063 1.511 . S
C1061 C1057 1.376 . S
C1061 C1060 1.392 . S
C1061 H1073 0.929 . S
C1062 C1058 1.531 . S
C1062 H1074 0.960 . S
C1062 H1075 0.962 . S
C1062 H1076 0.960 . S
C1063 C1060 1.511 . S
C1063 H1077 0.961 . S
C1063 H1078 0.961 . S
C1063 H1079 0.961 . S
C1064 C1065 1.370 . S
C1064 C1066 1.363 . S
C1064 H1080 0.931 . S
C1065 C1064 1.370 . S
C1065 C1069 1.408 . S
C1066 C1064 1.363 . S
C1066 C1067 1.370 . S
C1066 C1070 1.524 . S
C1067 C1059 1.503 . S
C1067 C1066 1.370 . S
C1067 C1068 1.403 . S
C1068 C1067 1.403 . S
C1068 C1069 1.404 . S
C1068 C1071 1.539 . S
C1069 C1065 1.408 . S
C1069 C1068 1.404 . S
C1069 H1081 0.930 . S
C1070 C1066 1.524 . S
C1070 H1082 0.956 . S
C1070 H1083 0.961 . S
C1070 H1084 0.961 . S
C1071 C1068 1.539 . S
C1071 H1085 0.958 . S
C1071 H1086 0.961 . S
C1071 H1087 0.960 . S
H1072 C1056 0.931 . S
H1073 C1061 0.929 . S
H1074 C1062 0.960 . S
H1075 C1062 0.962 . S
H1076 C1062 0.960 . S
H1077 C1063 0.961 . S
H1078 C1063 0.961 . S
H1079 C1063 0.961 . S
H1080 C1064 0.931 . S
H1081 C1069 0.930 . S
H1082 C1070 0.956 . S
H1083 C1070 0.961 . S
H1084 C1070 0.961 . S
H1085 C1071 0.958 . S
H1086 C1071 0.961 . S
H1087 C1071 0.960 . S
C1088 C1089 1.391 . S
C1088 C1090 1.394 . S
C1088 H1104 0.931 . S
C1089 C1088 1.391 . S
C1089 C1093 1.376 1_565 S
C1090 C1088 1.394 . S
C1090 C1091 1.369 . S
C1090 C1094 1.531 . S
C1091 C1090 1.369 . S
C1091 C1092 1.410 1_565 S
C1091 C1099 1.503 . S
C1092 C1091 1.410 1_545 S
C1092 C1093 1.392 . S
C1092 C1095 1.511 . S
C1093 C1089 1.376 1_545 S
C1093 C1092 1.392 . S
C1093 H1105 0.929 . S
C1094 C1090 1.531 . S
C1094 H1106 0.960 . S
C1094 H1107 0.962 . S
C1094 H1108 0.960 . S
C1095 C1092 1.511 . S
C1095 H1109 0.961 . S
C1095 H1110 0.961 . S
C1095 H1111 0.961 . S
C1096 C1097 1.370 . S
C1096 C1098 1.363 . S
C1096 H1112 0.931 . S
C1097 C1096 1.370 . S
C1097 C1101 1.408 . S
C1098 C1096 1.363 . S
C1098 C1099 1.370 . S
C1098 C1102 1.524 . S
C1099 C1091 1.503 . S
C1099 C1098 1.370 . S
C1099 C1100 1.403 . S
C1100 C1099 1.403 . S
C1100 C1101 1.404 . S
C1100 C1103 1.539 1_565 S
C1101 C1097 1.408 . S
C1101 C1100 1.404 . S
C1101 H1113 0.930 . S
C1102 C1098 1.524 . S
C1102 H1114 0.956 . S
C1102 H1115 0.961 . S
C1102 H1116 0.961 . S
C1103 C1100 1.539 1_545 S
C1103 H1117 0.958 1_545 S
C1103 H1118 0.961 . S
C1103 H1119 0.960 . S
H1104 C1088 0.931 . S
H1105 C1093 0.929 . S
H1106 C1094 0.960 . S
H1107 C1094 0.962 . S
H1108 C1094 0.960 . S
H1109 C1095 0.961 . S
H1110 C1095 0.961 . S
H1111 C1095 0.961 . S
H1112 C1096 0.931 . S
H1113 C1101 0.930 . S
H1114 C1102 0.956 . S
H1115 C1102 0.961 . S
H1116 C1102 0.961 . S
H1117 C1103 0.958 1_565 S
H1118 C1103 0.961 . S
H1119 C1103 0.960 . S
C1120 C1121 1.391 . S
C1120 C1122 1.394 . S
C1120 H1136 0.931 . S
C1121 C1120 1.391 . S
C1121 C1125 1.376 . S
C1122 C1120 1.394 . S
C1122 C1123 1.369 . S
C1122 C1126 1.531 . S
C1123 C1122 1.369 . S
C1123 C1124 1.410 . S
C1123 C1131 1.503 . S
C1124 C1123 1.410 . S
C1124 C1125 1.392 . S
C1124 C1127 1.511 . S
C1125 C1121 1.376 . S
C1125 C1124 1.392 . S
C1125 H1137 0.929 . S
C1126 C1122 1.531 . S
C1126 H1138 0.960 . S
C1126 H1139 0.962 . S
C1126 H1140 0.960 . S
C1127 C1124 1.511 . S
C1127 H1141 0.961 . S
C1127 H1142 0.961 . S
C1127 H1143 0.961 . S
C1128 C1129 1.370 . S
C1128 C1130 1.363 . S
C1128 H1144 0.931 . S
C1129 C1128 1.370 . S
C1129 C1133 1.408 . S
C1130 C1128 1.363 . S
C1130 C1131 1.370 . S
C1130 C1134 1.524 . S
C1131 C1123 1.503 . S
C1131 C1130 1.370 . S
C1131 C1132 1.403 . S
C1132 C1131 1.403 . S
C1132 C1133 1.404 . S
C1132 C1135 1.539 . S
C1133 C1129 1.408 . S
C1133 C1132 1.404 . S
C1133 H1145 0.930 . S
C1134 C1130 1.524 . S
C1134 H1146 0.956 . S
C1134 H1147 0.961 . S
C1134 H1148 0.961 . S
C1135 C1132 1.539 . S
C1135 H1149 0.958 . S
C1135 H1150 0.961 . S
C1135 H1151 0.960 . S
H1136 C1120 0.931 . S
H1137 C1125 0.929 . S
H1138 C1126 0.960 . S
H1139 C1126 0.962 . S
H1140 C1126 0.960 . S
H1141 C1127 0.961 . S
H1142 C1127 0.961 . S
H1143 C1127 0.961 . S
H1144 C1128 0.931 . S
H1145 C1133 0.930 . S
H1146 C1134 0.956 . S
H1147 C1134 0.961 . S
H1148 C1134 0.961 . S
H1149 C1135 0.958 . S
H1150 C1135 0.961 . S
H1151 C1135 0.960 . S
C1152 C1153 1.391 . S
C1152 C1154 1.394 . S
C1152 H1168 0.931 . S
C1153 C1152 1.391 . S
C1153 C1157 1.376 . S
C1154 C1152 1.394 . S
C1154 C1155 1.369 . S
C1154 C1158 1.531 . S
C1155 C1154 1.369 . S
C1155 C1156 1.410 . S
C1155 C1163 1.503 . S
C1156 C1155 1.410 . S
C1156 C1157 1.392 . S
C1156 C1159 1.511 . S
C1157 C1153 1.376 . S
C1157 C1156 1.392 . S
C1157 H1169 0.929 . S
C1158 C1154 1.531 . S
C1158 H1170 0.960 . S
C1158 H1171 0.962 . S
C1158 H1172 0.960 . S
C1159 C1156 1.511 . S
C1159 H1173 0.961 . S
C1159 H1174 0.961 . S
C1159 H1175 0.961 . S
C1160 C1161 1.370 . S
C1160 C1162 1.363 . S
C1160 H1176 0.931 . S
C1161 C1160 1.370 . S
C1161 C1165 1.408 . S
C1162 C1160 1.363 . S
C1162 C1163 1.370 . S
C1162 C1166 1.524 . S
C1163 C1155 1.503 . S
C1163 C1162 1.370 . S
C1163 C1164 1.403 . S
C1164 C1163 1.403 . S
C1164 C1165 1.404 . S
C1164 C1167 1.539 . S
C1165 C1161 1.408 . S
C1165 C1164 1.404 . S
C1165 H1177 0.930 . S
C1166 C1162 1.524 . S
C1166 H1178 0.956 . S
C1166 H1179 0.961 . S
C1166 H1180 0.961 . S
C1167 C1164 1.539 . S
C1167 H1181 0.958 . S
C1167 H1182 0.961 . S
C1167 H1183 0.960 . S
H1168 C1152 0.931 . S
H1169 C1157 0.929 . S
H1170 C1158 0.960 . S
H1171 C1158 0.962 . S
H1172 C1158 0.960 . S
H1173 C1159 0.961 . S
H1174 C1159 0.961 . S
H1175 C1159 0.961 . S
H1176 C1160 0.931 . S
H1177 C1165 0.930 . S
H1178 C1166 0.956 . S
H1179 C1166 0.961 . S
H1180 C1166 0.961 . S
H1181 C1167 0.958 . S
H1182 C1167 0.961 . S
H1183 C1167 0.960 . S
C417 C215 0.988 . S
C425 C265 0.975 . S
C457 C305 1.764 . S
C449 C247 1.853 . S
C489 C354 1.578 . S
C481 C151 1.472 . S
C521 C385 2.051 . S
C513 C183 2.161 . S
C553 C274 0.982 . S
C545 C87 0.969 . S
C577 C119 1.640 . S
C585 C314 1.774 . S
C609 C23 1.634 1_556 S
C617 C345 1.596 . S
C641 C55 1.931 . S
C649 C394 2.051 1_655 S
C681 C275 1.258 . S
C673 C189 1.235 . S
C713 C315 0.865 . S
C705 C221 0.911 1_565 S
C745 C351 0.653 . S
C737 C253 0.632 . S
C769 C157 1.140 . S
C777 C395 1.390 . S
C801 C61 1.084 . S
C809 C266 1.260 1_655 S
C841 C306 0.855 . S
C833 C93 0.905 1_565 S
C873 C342 0.642 . S
C865 C125 0.591 . S
C897 C29 1.348 . S
C905 C386 1.387 . S
C929 C177 1.951 . S
C937 C271 2.002 . S
C961 C209 1.556 . S
C969 C311 1.628 . S
C1001 C355 2.580 . S
C993 C241 2.393 . S
C1033 C391 1.646 . S
C1025 C145 1.495 . S
C1057 C49 1.824 . S
C1065 C262 2.010 . S
C1097 C302 1.630 . S
C1089 C81 1.640 1_565 S
C1129 C346 2.583 . S
C1121 C113 2.251 . S
C1153 C17 1.668 . S
C1161 C382 1.649 . S
