# Generated by pormake.
# Topology anh, (6,3)-cn, num edge types: 1
# Building blocks:
#     Node 0, Type 0, BuildingBlock: VOLQOD_clean_sbu_1, # of connection points: 6
#     Node 1, Type 0, BuildingBlock: VOLQOD_clean_sbu_1, # of connection points: 6
#     Node 2, Type 0, BuildingBlock: VOLQOD_clean_sbu_1, # of connection points: 6
#     Node 3, Type 1, BuildingBlock: BETDIP_clean_linker_0, # of connection points: 3
#     Node 4, Type 1, BuildingBlock: BETDIP_clean_linker_0, # of connection points: 3
#     Node 5, Type 1, BuildingBlock: BETDIP_clean_linker_0, # of connection points: 3
#     Node 6, Type 1, BuildingBlock: BETDIP_clean_linker_0, # of connection points: 3
#     Node 7, Type 1, BuildingBlock: BETDIP_clean_linker_0, # of connection points: 3
#     Node 8, Type 1, BuildingBlock: BETDIP_clean_linker_0, # of connection points: 3
#     Edge 9, Type (0, 1), BuildingBlock: XUDNAN_clean_linker_2, # of connection points: 2
#     Edge 10, Type (0, 1), BuildingBlock: XUDNAN_clean_linker_2, # of connection points: 2
#     Edge 11, Type (0, 1), BuildingBlock: XUDNAN_clean_linker_2, # of connection points: 2
#     Edge 12, Type (0, 1), BuildingBlock: XUDNAN_clean_linker_2, # of connection points: 2
#     Edge 13, Type (0, 1), BuildingBlock: XUDNAN_clean_linker_2, # of connection points: 2
#     Edge 14, Type (0, 1), BuildingBlock: XUDNAN_clean_linker_2, # of connection points: 2
#     Edge 15, Type (0, 1), BuildingBlock: XUDNAN_clean_linker_2, # of connection points: 2
#     Edge 16, Type (0, 1), BuildingBlock: XUDNAN_clean_linker_2, # of connection points: 2
#     Edge 17, Type (0, 1), BuildingBlock: XUDNAN_clean_linker_2, # of connection points: 2
#     Edge 18, Type (0, 1), BuildingBlock: XUDNAN_clean_linker_2, # of connection points: 2
#     Edge 19, Type (0, 1), BuildingBlock: XUDNAN_clean_linker_2, # of connection points: 2
#     Edge 20, Type (0, 1), BuildingBlock: XUDNAN_clean_linker_2, # of connection points: 2
#     Edge 21, Type (0, 1), BuildingBlock: XUDNAN_clean_linker_2, # of connection points: 2
#     Edge 22, Type (0, 1), BuildingBlock: XUDNAN_clean_linker_2, # of connection points: 2
#     Edge 23, Type (0, 1), BuildingBlock: XUDNAN_clean_linker_2, # of connection points: 2
#     Edge 24, Type (0, 1), BuildingBlock: XUDNAN_clean_linker_2, # of connection points: 2
#     Edge 25, Type (0, 1), BuildingBlock: XUDNAN_clean_linker_2, # of connection points: 2
#     Edge 26, Type (0, 1), BuildingBlock: XUDNAN_clean_linker_2, # of connection points: 2
# Relax obj value: 0.171
# Max RMSD: 0.216
# Mean RMSD: 0.152
data_MOF--net-anh--node1-VOLQOD_clean_sbu_1--node2-BETDIP_clean_linker_0--edge1-XUDNAN_clean_linker_2
_symmetry_space_group_name_H-M    P1
_symmetry_Int_Tables_number       1
_symmetry_cell_setting            triclinic
loop_
_symmetry_equiv_pos_as_xyz
'x, y, z'
_cell_length_a     29.511971
_cell_length_b     29.487746
_cell_length_c     56.841201
_cell_angle_alpha  93.949319
_cell_angle_beta   90.00626
_cell_angle_gamma 120.74436
loop_
_atom_site_label
_atom_site_type_symbol
_atom_site_fract_x
_atom_site_fract_y
_atom_site_fract_z
_atom_type_partial_charge
O0 O -0.0008 0.5815 0.21709 0.0
Zn1 Zn 0.00493 0.60935 0.18501 0.0
O2 O 0.01802 0.56601 0.16168 0.0
Zn3 Zn 0.95687 0.52295 0.14139 0.0
Zn4 Zn 0.03459 0.51807 0.1764 0.0
Zn5 Zn 0.07351 0.61213 0.14184 0.0
O6 O 0.97653 0.52185 0.10784 0.0
O7 O 0.05151 0.59883 0.10708 0.0
O8 O 0.93727 0.60789 0.17611 0.0
O9 O 0.91027 0.5529 0.14346 0.0
O10 O 0.91601 0.4481 0.15036 0.0
O11 O 0.9784 0.44102 0.16847 0.0
O12 O 0.10701 0.53148 0.16761 0.0
O13 O 0.06657 0.68548 0.18698 0.0
O14 O 0.13121 0.59683 0.14421 0.0
O15 O 0.10754 0.68846 0.15383 0.0
C16 C 0.01305 0.5507 0.22498 0.0
C17 C 0.01357 0.55697 0.0965 0.0
C18 C 0.93142 0.42024 0.1599 0.0
C19 C 0.90569 0.58461 0.15819 0.0
C20 C 0.14064 0.56546 0.15452 0.0
C21 C 0.10311 0.71111 0.17285 0.0
O22 O 0.0308 0.52744 0.21152 0.0
O23 O 0.53163 0.08897 0.43662 0.0
Zn24 Zn 0.50211 0.08419 0.46892 0.0
O25 O 0.5409 0.06848 0.49164 0.0
Zn26 Zn 0.56968 0.12183 0.51818 0.0
Zn27 Zn 0.59886 0.06702 0.47622 0.0
Zn28 Zn 0.4941 0.0003 0.50348 0.0
O29 O 0.54604 0.09051 0.5497 0.0
O30 O 0.4842 0.00811 0.53797 0.0
O31 O 0.5019 0.1512 0.47958 0.0
O32 O 0.54377 0.17142 0.51465 0.0
O33 O 0.64905 0.16785 0.51761 0.0
O34 O 0.66718 0.13385 0.48549 0.0
O35 O 0.60481 0.00583 0.486 0.0
O36 O 0.42714 0.02357 0.46424 0.0
O37 O 0.52639 0.95469 0.50078 0.0
O38 O 0.42276 0.96308 0.48692 0.0
C39 C 0.56317 0.07552 0.42781 0.0
C40 C 0.50902 0.04472 0.55431 0.0
C41 C 0.68173 0.16917 0.50263 0.0
C42 C 0.51945 0.18045 0.49886 0.0
C43 C 0.57154 0.96321 0.49485 0.0
C44 C 0.40171 0.97798 0.4721 0.0
O45 O 0.58932 0.06257 0.4408 0.0
O46 O 0.49547 0.48518 0.78726 0.0
Zn47 Zn 0.48537 0.47038 0.82112 0.0
O48 O 0.54328 0.52916 0.84001 0.0
Zn49 Zn 0.51661 0.56354 0.86163 0.0
Zn50 Zn 0.59598 0.57962 0.81962 0.0
Zn51 Zn 0.57569 0.50126 0.85867 0.0
O52 O 0.5194 0.54846 0.89602 0.0
O53 O 0.55462 0.49773 0.89196 0.0
O54 O 0.41518 0.46278 0.8286 0.0
O55 O 0.44068 0.53525 0.8526 0.0
O56 O 0.55224 0.6414 0.85726 0.0
O57 O 0.59729 0.64805 0.82502 0.0
O58 O 0.67002 0.59423 0.82745 0.0
O59 O 0.48434 0.40183 0.82318 0.0
O60 O 0.65345 0.54551 0.85795 0.0
O61 O 0.5549 0.42812 0.8466 0.0
C62 C 0.53196 0.51854 0.77507 0.0
C63 C 0.53384 0.51882 0.90468 0.0
C64 C 0.58013 0.66797 0.84065 0.0
C65 C 0.4051 0.4948 0.84027 0.0
C66 C 0.68586 0.57898 0.84444 0.0
C67 C 0.51688 0.39256 0.83335 0.0
O68 O 0.57501 0.55621 0.78483 0.0
H69 H 0.476 0.03114 0.1887 0.0
H70 H 0.59668 0.08637 0.24355 0.0
H71 H 0.43372 0.99467 0.26051 0.0
H72 H 0.6295 0.05414 0.20852 0.0
C73 C 0.62807 0.08384 0.19874 0.0
C74 C 0.48703 0.03378 0.20714 0.0
C75 C 0.44786 0.00978 0.22377 0.0
C76 C 0.54066 0.06027 0.21414 0.0
C77 C 0.55527 0.06432 0.23804 0.0
C78 C 0.51694 0.04156 0.25495 0.0
C79 C 0.46336 0.01422 0.24765 0.0
N80 N 0.57985 0.0836 0.19716 0.0
H81 H 0.53621 0.54649 0.53558 0.0
H82 H 0.54352 0.61849 0.60501 0.0
H83 H 0.50146 0.45538 0.5959 0.0
H84 H 0.62074 0.69064 0.58256 0.0
C85 C 0.59344 0.68614 0.5685 0.0
C86 C 0.5317 0.54327 0.55442 0.0
C87 C 0.51863 0.49581 0.56403 0.0
C88 C 0.54195 0.58779 0.56914 0.0
C89 C 0.5371 0.58446 0.59368 0.0
C90 C 0.52108 0.53617 0.60334 0.0
C91 C 0.51264 0.49241 0.58843 0.0
N92 N 0.55522 0.63494 0.55866 0.0
H93 H 0.01889 0.55976 0.85648 0.0
H94 H 0.0657 0.506 0.91471 0.0
H95 H 0.99459 0.60047 0.9279 0.0
H96 H 0.10528 0.57 0.84492 0.0
C97 C 0.09729 0.53118 0.84905 0.0
C98 C 0.0239 0.56013 0.87538 0.0
C99 C 0.00322 0.58347 0.89103 0.0
C100 C 0.04727 0.53309 0.88405 0.0
C101 C 0.04924 0.52855 0.90826 0.0
C102 C 0.03085 0.55331 0.92415 0.0
C103 C 0.00949 0.58209 0.91551 0.0
N104 N 0.06709 0.50793 0.86879 0.0
H105 H 0.08785 0.62415 0.4586 0.0
H106 H 0.97997 0.49416 0.4108 0.0
H107 H 0.06174 0.64973 0.38711 0.0
H108 H 0.01168 0.45369 0.4359 0.0
C109 C 0.00135 0.468 0.45195 0.0
C110 C 0.06839 0.61053 0.44131 0.0
C111 C 0.08118 0.64549 0.42331 0.0
C112 C 0.03178 0.55631 0.437 0.0
C113 C 0.00799 0.53607 0.41435 0.0
C114 C 0.02003 0.5697 0.39616 0.0
C115 C 0.05442 0.62429 0.40113 0.0
N116 N 0.01897 0.52276 0.45575 0.0
H117 H 0.49474 0.02848 0.79415 0.0
H118 H 0.48181 0.94552 0.7273 0.0
H119 H 0.48694 0.09433 0.72999 0.0
H120 H 0.52862 0.91764 0.74798 0.0
C121 C 0.51635 0.91581 0.76607 0.0
C122 C 0.4918 0.02647 0.77505 0.0
C123 C 0.49204 0.06732 0.76372 0.0
C124 C 0.48984 0.98362 0.76213 0.0
C125 C 0.48449 0.97932 0.73742 0.0
C126 C 0.48255 0.01882 0.7257 0.0
C127 C 0.48704 0.06312 0.73896 0.0
N128 N 0.49456 0.94645 0.7748 0.0
H129 H 0.43817 0.48779 0.14072 0.0
H130 H 0.51335 0.45133 0.08395 0.0
H131 H 0.40799 0.50685 0.06917 0.0
H132 H 0.52772 0.40636 0.11204 0.0
C133 C 0.54034 0.43795 0.126 0.0
C134 C 0.44385 0.48414 0.12199 0.0
C135 C 0.4193 0.49925 0.10577 0.0
C136 C 0.47777 0.46674 0.11435 0.0
C137 C 0.48617 0.46342 0.09005 0.0
C138 C 0.46123 0.47775 0.07349 0.0
C139 C 0.42789 0.49588 0.0816 0.0
N140 N 0.50606 0.45714 0.13162 0.0
H141 H 0.16817 0.4909 0.16174 0.0
H142 H 0.22764 0.64705 0.13704 0.0
H143 H 0.30862 0.64948 0.12492 0.0
H144 H 0.29927 0.51461 0.1828 0.0
H145 H 0.28259 0.44818 0.1731 0.0
H146 H 0.23169 0.46103 0.18267 0.0
H147 H 0.17994 0.41747 0.14279 0.0
H148 H 0.23081 0.40496 0.13301 0.0
H149 H 0.2119 0.44197 0.11563 0.0
H150 H 0.37684 0.63115 0.11064 0.0
H151 H 0.4326 0.59473 0.09758 0.0
H152 H 0.33213 0.45201 0.13235 0.0
C153 C 0.19883 0.52608 0.15434 0.0
C154 C 0.19146 0.56863 0.15026 0.0
C155 C 0.23218 0.61374 0.14019 0.0
C156 C 0.27851 0.61569 0.13333 0.0
C157 C 0.28386 0.57248 0.13683 0.0
C158 C 0.24562 0.52876 0.14736 0.0
C159 C 0.26014 0.48637 0.14763 0.0
C160 C 0.26896 0.47701 0.17307 0.0
C161 C 0.2182 0.43466 0.13394 0.0
C162 C 0.31145 0.51251 0.13489 0.0
C163 C 0.32443 0.56228 0.12894 0.0
C164 C 0.36779 0.59267 0.11557 0.0
C165 C 0.39891 0.57164 0.1081 0.0
C166 C 0.38654 0.52097 0.11415 0.0
C167 C 0.34262 0.49125 0.12788 0.0
H168 H 0.76104 0.18575 0.47308 0.0
H169 H 0.72464 0.25879 0.53327 0.0
H170 H 0.80968 0.34165 0.53005 0.0
H171 H 0.90721 0.25663 0.48514 0.0
H172 H 0.91951 0.26186 0.45409 0.0
H173 H 0.86042 0.20596 0.46381 0.0
H174 H 0.80385 0.2268 0.4367 0.0
H175 H 0.8625 0.28289 0.42709 0.0
H176 H 0.81124 0.29154 0.43985 0.0
H177 H 0.89174 0.42026 0.51634 0.0
H178 H 0.96505 0.48662 0.4941 0.0
H179 H 0.94763 0.36166 0.44324 0.0
C180 C 0.7715 0.21858 0.48606 0.0
C181 C 0.73611 0.21561 0.50347 0.0
C182 C 0.75117 0.25989 0.51986 0.0
C183 C 0.79946 0.30718 0.51818 0.0
C184 C 0.83249 0.30934 0.50021 0.0
C185 C 0.81939 0.26592 0.48462 0.0
C186 C 0.85907 0.27966 0.46553 0.0
C187 C 0.88829 0.24922 0.46726 0.0
C188 C 0.83257 0.26964 0.44085 0.0
C189 C 0.8954 0.33813 0.4722 0.0
C190 C 0.8799 0.35449 0.49242 0.0
C191 C 0.9049 0.4077 0.50079 0.0
C192 C 0.94636 0.44513 0.48801 0.0
C193 C 0.96206 0.429 0.46708 0.0
C194 C 0.93688 0.37481 0.45942 0.0
H195 H 0.61107 0.7214 0.80092 0.0
H196 H 0.55459 0.7274 0.87094 0.0
H197 H 0.54095 0.79955 0.86051 0.0
H198 H 0.67331 0.86623 0.7915 0.0
H199 H 0.65151 0.85097 0.76084 0.0
H200 H 0.66769 0.80848 0.77552 0.0
H201 H 0.57517 0.72842 0.7631 0.0
H202 H 0.55807 0.77057 0.74891 0.0
H203 H 0.51726 0.73046 0.77148 0.0
H204 H 0.51955 0.85943 0.84056 0.0
H205 H 0.49711 0.90721 0.81335 0.0
H206 H 0.56514 0.86015 0.75592 0.0
C207 C 0.59789 0.73926 0.81444 0.0
C208 C 0.58419 0.71894 0.83682 0.0
C209 C 0.56569 0.74256 0.85374 0.0
C210 C 0.55778 0.78354 0.84797 0.0
C211 C 0.56885 0.8005 0.82527 0.0
C212 C 0.58922 0.77963 0.80887 0.0
C213 C 0.59201 0.80019 0.7849 0.0
C214 C 0.64956 0.83346 0.77778 0.0
C215 C 0.55863 0.7547 0.76601 0.0
C216 C 0.5681 0.8343 0.79015 0.0
C217 C 0.55568 0.83454 0.8136 0.0
C218 C 0.53004 0.86042 0.82228 0.0
C219 C 0.51716 0.88716 0.80662 0.0
C220 C 0.52965 0.88742 0.78254 0.0
C221 C 0.55556 0.86081 0.77429 0.0
H222 H 0.82278 0.55514 0.18647 0.0
H223 H 0.88452 0.62103 0.12011 0.0
H224 H 0.79677 0.60328 0.10725 0.0
H225 H 0.71427 0.4501 0.16386 0.0
H226 H 0.6688 0.44547 0.18606 0.0
H227 H 0.73804 0.47772 0.19367 0.0
H228 H 0.73969 0.56333 0.2089 0.0
H229 H 0.66981 0.53092 0.202 0.0
H230 H 0.71455 0.59291 0.19005 0.0
H231 H 0.70218 0.55839 0.0975 0.0
H232 H 0.60588 0.49747 0.09311 0.0
H233 H 0.60231 0.46012 0.16571 0.0
C234 C 0.81819 0.5688 0.16993 0.0
C235 C 0.86018 0.59078 0.15447 0.0
C236 C 0.85277 0.60547 0.13232 0.0
C237 C 0.80309 0.59536 0.12488 0.0
C238 C 0.7614 0.57051 0.13986 0.0
C239 C 0.76844 0.55832 0.16216 0.0
C240 C 0.71583 0.52443 0.17318 0.0
C241 C 0.70887 0.47131 0.17954 0.0
C242 C 0.7096 0.55472 0.19482 0.0
C243 C 0.67833 0.51658 0.15301 0.0
C244 C 0.70553 0.54421 0.13412 0.0
C245 C 0.68025 0.53807 0.11242 0.0
C246 C 0.62573 0.50309 0.11 0.0
C247 C 0.59728 0.47506 0.12919 0.0
C248 C 0.62357 0.48224 0.15101 0.0
H249 H 0.31814 0.90025 0.49404 0.0
H250 H 0.36756 0.96761 0.42668 0.0
H251 H 0.28542 0.89395 0.4074 0.0
H252 H 0.26358 0.77013 0.47505 0.0
H253 H 0.20717 0.74387 0.49337 0.0
H254 H 0.2661 0.80524 0.50275 0.0
H255 H 0.21274 0.85281 0.50657 0.0
H256 H 0.15329 0.79126 0.49755 0.0
H257 H 0.17255 0.84902 0.48177 0.0
H258 H 0.21112 0.80498 0.39465 0.0
H259 H 0.14021 0.71377 0.38918 0.0
H260 H 0.12648 0.70908 0.46557 0.0
C261 C 0.31076 0.9001 0.47536 0.0
C262 C 0.34892 0.93934 0.46177 0.0
C263 C 0.33846 0.93808 0.43738 0.0
C264 C 0.29204 0.89638 0.42628 0.0
C265 C 0.2559 0.85735 0.44001 0.0
C266 C 0.26375 0.85961 0.46412 0.0
C267 C 0.21929 0.81136 0.47449 0.0
C268 C 0.24032 0.78087 0.48715 0.0
C269 C 0.18758 0.82706 0.49107 0.0
C270 C 0.18709 0.78022 0.4522 0.0
C271 C 0.20917 0.80752 0.4326 0.0
C272 C 0.19158 0.78414 0.40989 0.0
C273 C 0.15007 0.73162 0.40705 0.0
C274 C 0.12455 0.70273 0.42684 0.0
C275 C 0.14361 0.7285 0.44977 0.0
H276 H 0.45544 0.31332 0.79914 0.0
H277 H 0.57149 0.35594 0.85627 0.0
H278 H 0.57428 0.27524 0.84549 0.0
H279 H 0.38599 0.16849 0.80391 0.0
H280 H 0.37546 0.15393 0.77239 0.0
H281 H 0.37856 0.21256 0.78597 0.0
H282 H 0.45308 0.26984 0.75838 0.0
H283 H 0.45073 0.21155 0.74494 0.0
H284 H 0.51201 0.2658 0.75787 0.0
H285 H 0.57198 0.19638 0.8265 0.0
H286 H 0.55989 0.11889 0.80183 0.0
H287 H 0.44302 0.12436 0.75754 0.0
C288 C 0.48056 0.30509 0.8097 0.0
C289 C 0.51325 0.34096 0.82854 0.0
C290 C 0.54615 0.32912 0.84173 0.0
C291 C 0.54801 0.28336 0.83578 0.0
C292 C 0.51652 0.24969 0.8167 0.0
C293 C 0.48294 0.25947 0.80399 0.0
C294 C 0.45516 0.21784 0.78361 0.0
C295 C 0.39524 0.18633 0.78666 0.0
C296 C 0.46857 0.24277 0.7598 0.0
C297 C 0.4794 0.18395 0.78659 0.0
C298 C 0.51453 0.20308 0.80585 0.0
C299 C 0.54377 0.18025 0.81165 0.0
C300 C 0.53643 0.13612 0.79756 0.0
C301 C 0.49983 0.11495 0.77797 0.0
C302 C 0.4712 0.13953 0.77239 0.0
H303 H 0.50739 0.85793 0.50036 0.0
H304 H 0.67142 0.98449 0.50494 0.0
H305 H 0.69609 0.92571 0.52289 0.0
H306 H 0.50495 0.80894 0.55398 0.0
H307 H 0.46287 0.74001 0.54415 0.0
H308 H 0.4587 0.78976 0.5293 0.0
H309 H 0.47647 0.75481 0.48939 0.0
H310 H 0.4798 0.70423 0.50403 0.0
H311 H 0.534 0.74857 0.48693 0.0
H312 H 0.70031 0.85756 0.54589 0.0
H313 H 0.68557 0.78009 0.56667 0.0
H314 H 0.52008 0.69697 0.54447 0.0
C315 C 0.54867 0.87283 0.5046 0.0
C316 C 0.58752 0.92564 0.50128 0.0
C317 C 0.64111 0.94392 0.50713 0.0
C318 C 0.65545 0.91096 0.51746 0.0
C319 C 0.61584 0.85963 0.52131 0.0
C320 C 0.56373 0.84025 0.51451 0.0
C321 C 0.52847 0.78419 0.52118 0.0
C322 C 0.48629 0.78056 0.53816 0.0
C323 C 0.50321 0.74568 0.49906 0.0
C324 C 0.56861 0.77561 0.53345 0.0
C325 C 0.61876 0.81963 0.5335 0.0
C326 C 0.66148 0.82239 0.54547 0.0
C327 C 0.65276 0.77857 0.55733 0.0
C328 C 0.60202 0.73268 0.55676 0.0
C329 C 0.55954 0.73129 0.5447 0.0
H330 H 0.73142 0.57125 0.88406 0.0
H331 H 0.76792 0.62855 0.81426 0.0
H332 H 0.85977 0.64849 0.82062 0.0
H333 H 0.86213 0.66335 0.91355 0.0
H334 H 0.85757 0.61224 0.93082 0.0
H335 H 0.79861 0.6118 0.92211 0.0
H336 H 0.75897 0.51617 0.9027 0.0
H337 H 0.81755 0.51634 0.91134 0.0
H338 H 0.79546 0.50259 0.88073 0.0
H339 H 0.94457 0.65072 0.83333 0.0
H340 H 0.01148 0.63421 0.85046 0.0
H341 H 0.91355 0.57107 0.91052 0.0
C342 C 0.75885 0.58903 0.87021 0.0
C343 C 0.74252 0.59824 0.84864 0.0
C344 C 0.77974 0.62147 0.83101 0.0
C345 C 0.83194 0.63294 0.83449 0.0
C346 C 0.84611 0.62151 0.85578 0.0
C347 C 0.81044 0.60043 0.87337 0.0
C348 C 0.8327 0.58639 0.89364 0.0
C349 C 0.83808 0.6205 0.91637 0.0
C350 C 0.7992 0.52687 0.89728 0.0
C351 C 0.88596 0.60094 0.88444 0.0
C352 C 0.89375 0.62205 0.86282 0.0
C353 C 0.93903 0.63488 0.8504 0.0
C354 C 0.97665 0.62497 0.86019 0.0
C355 C 0.9683 0.60174 0.88202 0.0
C356 C 0.92256 0.59056 0.89428 0.0
H357 H 0.201 0.76537 0.15478 0.0
H358 H 0.1031 0.77973 0.20823 0.0
H359 H 0.17946 0.86531 0.22394 0.0
H360 H 0.3093 0.80737 0.19161 0.0
H361 H 0.35794 0.84216 0.17027 0.0
H362 H 0.29391 0.78772 0.16054 0.0
H363 H 0.28059 0.84798 0.13376 0.0
H364 H 0.34489 0.90273 0.14334 0.0
H365 H 0.28757 0.90912 0.14639 0.0
H366 H 0.26887 0.94358 0.23666 0.0
H367 H 0.36362 0.00641 0.24599 0.0
H368 H 0.40319 0.93804 0.18517 0.0
C369 C 0.19498 0.78727 0.16929 0.0
C370 C 0.14574 0.76608 0.18007 0.0
C371 C 0.14022 0.79536 0.19952 0.0
C372 C 0.18339 0.84406 0.20853 0.0
C373 C 0.23179 0.86293 0.19791 0.0
C374 C 0.2377 0.83544 0.17865 0.0
C375 C 0.29492 0.86084 0.1721 0.0
C376 C 0.31518 0.82223 0.17374 0.0
C377 C 0.30242 0.88139 0.14743 0.0
C378 C 0.32064 0.90608 0.19112 0.0
C379 C 0.2835 0.90718 0.2056 0.0
C380 C 0.29818 0.94342 0.22527 0.0
C381 C 0.35213 0.97873 0.23051 0.0
C382 C 0.39093 0.97725 0.2163 0.0
C383 C 0.37462 0.94103 0.19609 0.0
H384 H 0.56113 0.2544 0.53612 0.0
H385 H 0.46402 0.21198 0.47177 0.0
H386 H 0.4547 0.2904 0.48044 0.0
H387 H 0.48986 0.29694 0.57172 0.0
H388 H 0.54793 0.34997 0.58745 0.0
H389 H 0.54763 0.2917 0.57551 0.0
H390 H 0.63089 0.34995 0.55227 0.0
H391 H 0.63149 0.40847 0.56415 0.0
H392 H 0.63003 0.39504 0.53265 0.0
H393 H 0.45541 0.37399 0.49739 0.0
H394 H 0.46484 0.45255 0.52109 0.0
H395 H 0.56224 0.43705 0.57329 0.0
C396 C 0.53783 0.26128 0.52372 0.0
C397 C 0.51317 0.22691 0.50328 0.0
C398 C 0.48328 0.23782 0.48756 0.0
C399 C 0.47784 0.28224 0.49233 0.0
C400 C 0.50274 0.31519 0.51278 0.0
C401 C 0.53218 0.30504 0.52814 0.0
C402 C 0.55466 0.34549 0.54906 0.0
C403 C 0.53374 0.31946 0.5723 0.0
C404 C 0.61536 0.37658 0.54954 0.0
C405 C 0.53273 0.37989 0.54337 0.0
C406 C 0.50312 0.3623 0.52235 0.0
C407 C 0.47864 0.3881 0.51383 0.0
C408 C 0.48432 0.43266 0.52732 0.0
C409 C 0.51386 0.45039 0.54907 0.0
C410 C 0.53872 0.42386 0.55691 0.0
H411 H 0.38162 0.57247 0.8409 0.0
H412 H 0.30987 0.40176 0.8341 0.0
H413 H 0.22128 0.39179 0.83115 0.0
H414 H 0.28825 0.57949 0.87605 0.0
H415 H 0.29034 0.63335 0.8619 0.0
H416 H 0.34722 0.62609 0.86209 0.0
H417 H 0.34753 0.62457 0.81644 0.0
H418 H 0.29025 0.63141 0.81609 0.0
H419 H 0.28904 0.57677 0.79918 0.0
H420 H 0.14113 0.40145 0.8341 0.0
H421 H 0.07595 0.42982 0.84068 0.0
H422 H 0.20099 0.59392 0.84143 0.0
C423 C 0.34723 0.53296 0.83872 0.0
C424 C 0.35218 0.48779 0.83803 0.0
C425 C 0.30658 0.43677 0.83476 0.0
C426 C 0.25631 0.43081 0.83299 0.0
C427 C 0.2528 0.47633 0.83388 0.0
C428 C 0.29717 0.52641 0.83634 0.0
C429 C 0.28301 0.56903 0.83733 0.0
C430 C 0.30339 0.60401 0.86074 0.0
C431 C 0.30368 0.6024 0.81598 0.0
C432 C 0.22352 0.5352 0.83597 0.0
C433 C 0.20676 0.48179 0.83396 0.0
C434 C 0.15366 0.44305 0.83503 0.0
C435 C 0.117 0.45941 0.83875 0.0
C436 C 0.13372 0.51386 0.84098 0.0
C437 C 0.18729 0.55204 0.83894 0.0
H438 H 0.82358 0.36939 0.15511 0.0
H439 H 0.95188 0.34371 0.17189 0.0
H440 H 0.88708 0.25172 0.18007 0.0
H441 H 0.74399 0.30093 0.20064 0.0
H442 H 0.68223 0.27344 0.18408 0.0
H443 H 0.73822 0.33493 0.17668 0.0
H444 H 0.73063 0.29587 0.13364 0.0
H445 H 0.67436 0.23419 0.14086 0.0
H446 H 0.73065 0.23494 0.12813 0.0
H447 H 0.80897 0.16536 0.18951 0.0
H448 H 0.72307 0.09122 0.20036 0.0
H449 H 0.64556 0.17352 0.17814 0.0
C450 C 0.83813 0.34411 0.15998 0.0
C451 C 0.8929 0.36367 0.16266 0.0
C452 C 0.91018 0.32958 0.16962 0.0
C453 C 0.87366 0.27722 0.17424 0.0
C454 C 0.82001 0.25956 0.17185 0.0
C455 C 0.80225 0.29194 0.16486 0.0
C456 C 0.74264 0.26467 0.16541 0.0
C457 C 0.72581 0.29532 0.18274 0.0
C458 C 0.71813 0.25696 0.14053 0.0
C459 C 0.72968 0.21223 0.17429 0.0
C460 C 0.77486 0.2099 0.17761 0.0
C461 C 0.7733 0.16649 0.18671 0.0
C462 C 0.7244 0.12464 0.19283 0.0
C463 C 0.67781 0.12655 0.18994 0.0
C464 C 0.68045 0.17067 0.18028 0.0
H465 H 0.05638 0.62992 0.06325 0.0
H466 H 0.97043 0.46118 0.07167 0.0
H467 H 0.9704 0.44269 0.02872 0.0
H468 H 0.98557 0.62053 0.01016 0.0
H469 H 0.042 0.67285 0.99696 0.0
H470 H 0.03854 0.6733 0.0286 0.0
H471 H 0.12854 0.67807 0.03156 0.0
H472 H 0.13217 0.67745 -9e-05 0.0
H473 H 0.13703 0.62848 0.01523 0.0
H474 H 0.97949 0.44192 0.98533 0.0
H475 H 0.98993 0.45876 0.94316 0.0
H476 H 0.06548 0.62757 0.9621 0.0
C477 C 0.03793 0.58917 0.05601 0.0
C478 C 0.01361 0.54695 0.07073 0.0
C479 C 0.98911 0.49408 0.06066 0.0
C480 C 0.98915 0.48316 0.03632 0.0
C481 C 0.01332 0.52555 0.02227 0.0
C482 C 0.0367 0.57748 0.03163 0.0
C483 C 0.05703 0.6154 0.01232 0.0
C484 C 0.0291 0.64739 0.012 0.0
C485 C 0.11727 0.65201 0.01492 0.0
C486 C 0.04118 0.57657 0.99071 0.0
C487 C 0.01675 0.52502 0.99694 0.0
C488 C -0.0014 0.48209 0.98019 0.0
C489 C 0.00494 0.49202 0.95633 0.0
C490 C 0.02866 0.54439 0.9495 0.0
C491 C 0.04719 0.58718 0.96693 0.0
H492 H 0.50221 0.08481 0.39424 0.0
H493 H 0.63272 0.05785 0.40252 0.0
H494 H 0.63613 0.04773 0.35917 0.0
H495 H 0.43753 0.98987 0.34559 0.0
H496 H 0.41672 0.02897 0.33102 0.0
H497 H 0.42618 0.03672 0.36266 0.0
H498 H 0.49193 0.13721 0.36089 0.0
H499 H 0.48243 0.12985 0.32925 0.0
H500 H 0.54793 0.15907 0.34244 0.0
H501 H 0.62355 0.03801 0.3149 0.0
H502 H 0.59617 0.02981 0.27301 0.0
H503 H 0.47392 0.06305 0.29388 0.0
C504 C 0.53195 0.07735 0.387 0.0
C505 C 0.56735 0.07233 0.40184 0.0
C506 C 0.60522 0.06195 0.39155 0.0
C507 C 0.60748 0.05615 0.36694 0.0
C508 C 0.57157 0.06074 0.35288 0.0
C509 C 0.5346 0.0712 0.36253 0.0
C510 C 0.49959 0.07288 0.34355 0.0
C511 C 0.44158 0.02952 0.34585 0.0
C512 C 0.50587 0.12804 0.34407 0.0
C513 C 0.52247 0.06146 0.32169 0.0
C514 C 0.56408 0.05476 0.32743 0.0
C515 C 0.59123 0.04349 0.31019 0.0
C516 C 0.57553 0.03912 0.28645 0.0
C517 C 0.533 0.04592 0.28016 0.0
C518 C 0.50623 0.05716 0.29811 0.0
H519 H 0.59507 0.58607 0.74202 0.0
H520 H 0.44612 0.4403 0.74947 0.0
H521 H 0.42599 0.43307 0.70704 0.0
H522 H 0.54706 0.63639 0.69795 0.0
H523 H 0.60633 0.66331 0.68148 0.0
H524 H 0.60974 0.65848 0.7128 0.0
H525 H 0.65555 0.6039 0.70574 0.0
H526 H 0.65273 0.609 0.67445 0.0
H527 H 0.62447 0.54484 0.68583 0.0
H528 H 0.42102 0.44002 0.6644 0.0
H529 H 0.43444 0.45824 0.62254 0.0
H530 H 0.58644 0.59888 0.64138 0.0
C531 C 0.55833 0.55258 0.7347 0.0
C532 C 0.52219 0.51386 0.7492 0.0
C533 C 0.4745 0.47064 0.73887 0.0
C534 C 0.4625 0.46617 0.71474 0.0
C535 C 0.4985 0.50517 0.70106 0.0
C536 C 0.54559 0.54738 0.7105 0.0
C537 C 0.57765 0.58292 0.69147 0.0
C538 C 0.58565 0.63858 0.69622 0.0
C539 C 0.63074 0.58528 0.68924 0.0
C540 C 0.54133 0.55357 0.66992 0.0
C541 C 0.49574 0.50909 0.67602 0.0
C542 C 0.45651 0.4747 0.65935 0.0
C543 C 0.46452 0.48531 0.63564 0.0
C544 C 0.51148 0.52978 0.62879 0.0
C545 C 0.54996 0.56493 0.64621 0.0
H546 H 0.55462 0.11033 0.59501 0.0
H547 H 0.43163 0.95134 0.5697 0.0
H548 H 0.40976 0.92899 0.61065 0.0
H549 H 0.59878 0.07346 0.64436 0.0
H550 H 0.61088 0.12998 0.66366 0.0
H551 H 0.61557 0.13485 0.63225 0.0
H552 H 0.54728 0.16531 0.63255 0.0
H553 H 0.54243 0.16059 0.66399 0.0
H554 H 0.48391 0.12485 0.64493 0.0
H555 H 0.40353 0.92189 0.65403 0.0
H556 H 0.41254 0.93156 0.69756 0.0
H557 H 0.53892 0.09477 0.69506 0.0
C558 C 0.52281 0.07096 0.59805 0.0
C559 C 0.49492 0.03266 0.57906 0.0
C560 C 0.45368 0.98149 0.58388 0.0
C561 C 0.44083 0.96832 0.60711 0.0
C562 C 0.46935 0.00674 0.62538 0.0
C563 C 0.50932 0.05708 0.62119 0.0
C564 C 0.53458 0.09045 0.64413 0.0
C565 C 0.59344 0.10821 0.64621 0.0
C566 C 0.52655 0.13812 0.64653 0.0
C567 C 0.50298 0.05071 0.66179 0.0
C568 C 0.46549 0.00273 0.65057 0.0
C569 C 0.43254 0.95934 0.66306 0.0
C570 C 0.43814 0.9651 0.68773 0.0
C571 C 0.47634 0.01387 0.69962 0.0
C572 C 0.5089 0.05725 0.68643 0.0
H573 H 0.51265 0.57055 0.94171 0.0
H574 H 0.5323 0.43611 0.9238 0.0
H575 H 0.51416 0.41065 0.9645 0.0
H576 H 0.57602 0.60236 -7e-05 0.0
H577 H 0.53207 0.62133 0.01321 0.0
H578 H 0.54547 0.62889 0.98236 0.0
H579 H 0.44523 0.57222 0.97173 0.0
H580 H 0.43157 0.56427 0.00254 0.0
H581 H 0.40735 0.50682 0.98188 0.0
H582 H 0.49185 0.39767 0.00643 0.0
H583 H 0.47202 0.40131 0.04834 0.0
H584 H 0.47205 0.5469 0.04045 0.0
C585 C 0.51304 0.53576 0.94638 0.0
C586 C 0.52387 0.50536 0.92951 0.0
C587 C 0.52441 0.46029 0.93638 0.0
C588 C 0.51391 0.44526 0.95946 0.0
C589 C 0.50335 0.47589 0.97562 0.0
C590 C 0.50329 0.52045 0.96955 0.0
C591 C 0.4922 0.54704 0.99072 0.0
C592 C 0.53925 0.60323 0.99692 0.0
C593 C 0.44104 0.5476 0.98645 0.0
C594 C 0.48582 0.51019 0.00947 0.0
C595 C 0.49207 0.46927 0.00028 0.0
C596 C 0.48737 0.42981 0.01395 0.0
C597 C 0.47646 0.43246 0.03781 0.0
C598 C 0.47093 0.47463 0.04788 0.0
C599 C 0.47549 0.51382 0.03335 0.0
H600 H 0.99176 0.60325 0.2611 0.0
H601 H 0.02037 0.4738 0.24592 0.0
H602 H 0.01116 0.45609 0.28788 0.0
H603 H 0.06671 0.65198 0.31397 0.0
H604 H 0.02363 0.67009 0.32885 0.0
H605 H 0.02591 0.66839 0.29721 0.0
H606 H 0.92476 0.60327 0.29377 0.0
H607 H 0.9223 0.60448 0.32549 0.0
H608 H 0.89651 0.54231 0.30801 0.0
H609 H 0.0075 0.45752 0.33155 0.0
H610 H 0.01671 0.4826 0.37422 0.0
H611 H 0.98772 0.6093 0.36147 0.0
C612 C -0.00471 0.57067 0.26653 0.0
C613 C 0.00668 0.53988 0.25018 0.0
C614 C 0.01178 0.49808 0.25809 0.0
C615 C 0.00615 0.48736 0.28187 0.0
C616 C -0.0048 0.51859 0.29754 0.0
C617 C 0.98998 0.55951 0.29025 0.0
C618 C 0.98292 0.59006 0.31101 0.0
C619 C 0.02745 0.64857 0.31286 0.0
C620 C 0.92837 0.58468 0.30947 0.0
C621 C 0.98695 0.56109 0.33116 0.0
C622 C 0.99301 0.51938 0.32296 0.0
C623 C 0.0018 0.48945 0.33822 0.0
C624 C 0.00656 0.50378 0.3625 0.0
C625 C 0.00282 0.54788 0.37128 0.0
C626 C 0.99088 0.57548 0.35535 0.0
loop_
_geom_bond_atom_site_label_1
_geom_bond_atom_site_label_2
_geom_bond_distance
_geom_bond_site_symmetry_2
_ccdc_geom_bond_type
O0 Zn1 1.953 . S
O0 C16 1.225 . S
Zn1 O0 1.953 . S
Zn1 O2 1.949 . S
Zn1 O8 1.919 1_455 S
Zn1 O13 1.924 . S
O2 Zn1 1.949 . S
O2 Zn3 1.923 . S
O2 Zn4 1.950 . S
O2 Zn5 1.945 . S
Zn3 O2 1.923 . S
Zn3 O6 1.933 . S
Zn3 O9 1.941 1_455 S
Zn3 O10 1.965 1_455 S
Zn4 O2 1.950 . S
Zn4 O11 1.938 . S
Zn4 O12 1.906 . S
Zn4 O22 1.953 . S
Zn5 O2 1.945 . S
Zn5 O7 1.932 . S
Zn5 O14 1.977 . S
Zn5 O15 1.910 . S
O6 Zn3 1.933 . S
O6 C17 1.226 . S
O7 Zn5 1.932 . S
O7 C17 1.307 . S
O8 Zn1 1.919 1_655 S
O8 C19 1.253 . S
O9 Zn3 1.941 1_655 S
O9 C19 1.283 . S
O10 Zn3 1.965 1_655 S
O10 C18 1.303 . S
O11 Zn4 1.938 . S
O11 C18 1.247 1_455 S
O12 Zn4 1.906 . S
O12 C20 1.304 . S
O13 Zn1 1.924 . S
O13 C21 1.311 . S
O14 Zn5 1.977 . S
O14 C20 1.272 . S
O15 Zn5 1.910 . S
O15 C21 1.231 . S
C16 O0 1.225 . S
C16 O22 1.298 . S
C17 O6 1.226 . S
C17 O7 1.307 . S
C18 O10 1.303 . S
C18 O11 1.247 1_655 S
C19 O8 1.253 . S
C19 O9 1.283 . S
C20 O12 1.304 . S
C20 O14 1.272 . S
C21 O13 1.311 . S
C21 O15 1.231 . S
O22 Zn4 1.953 . S
O22 C16 1.298 . S
O23 Zn24 1.953 . S
O23 C39 1.225 . S
Zn24 O23 1.953 . S
Zn24 O25 1.949 . S
Zn24 O31 1.919 . S
Zn24 O36 1.924 1_545 S
O25 Zn24 1.949 . S
O25 Zn26 1.923 . S
O25 Zn27 1.950 . S
O25 Zn28 1.945 1_545 S
Zn26 O25 1.923 . S
Zn26 O29 1.933 . S
Zn26 O32 1.941 . S
Zn26 O33 1.965 . S
Zn27 O25 1.950 . S
Zn27 O34 1.938 . S
Zn27 O35 1.906 1_545 S
Zn27 O45 1.953 . S
Zn28 O25 1.945 1_565 S
Zn28 O30 1.932 1_565 S
Zn28 O37 1.977 . S
Zn28 O38 1.910 . S
O29 Zn26 1.933 . S
O29 C40 1.226 . S
O30 Zn28 1.932 1_545 S
O30 C40 1.307 . S
O31 Zn24 1.919 . S
O31 C42 1.253 . S
O32 Zn26 1.941 . S
O32 C42 1.283 . S
O33 Zn26 1.965 . S
O33 C41 1.303 . S
O34 Zn27 1.938 . S
O34 C41 1.247 . S
O35 Zn27 1.906 1_565 S
O35 C43 1.304 . S
O36 Zn24 1.924 1_565 S
O36 C44 1.311 . S
O37 Zn28 1.977 . S
O37 C43 1.272 . S
O38 Zn28 1.910 . S
O38 C44 1.231 . S
C39 O23 1.225 . S
C39 O45 1.298 . S
C40 O29 1.226 . S
C40 O30 1.307 . S
C41 O33 1.303 . S
C41 O34 1.247 . S
C42 O31 1.253 . S
C42 O32 1.283 . S
C43 O35 1.304 . S
C43 O37 1.272 . S
C44 O36 1.311 . S
C44 O38 1.231 . S
O45 Zn27 1.953 . S
O45 C39 1.298 . S
O46 Zn47 1.953 . S
O46 C62 1.225 . S
Zn47 O46 1.953 . S
Zn47 O48 1.949 . S
Zn47 O54 1.919 . S
Zn47 O59 1.924 . S
O48 Zn47 1.949 . S
O48 Zn49 1.923 . S
O48 Zn50 1.950 . S
O48 Zn51 1.945 . S
Zn49 O48 1.923 . S
Zn49 O52 1.933 . S
Zn49 O55 1.941 . S
Zn49 O56 1.965 . S
Zn50 O48 1.950 . S
Zn50 O57 1.938 . S
Zn50 O58 1.906 . S
Zn50 O68 1.953 . S
Zn51 O48 1.945 . S
Zn51 O53 1.932 . S
Zn51 O60 1.977 . S
Zn51 O61 1.910 . S
O52 Zn49 1.933 . S
O52 C63 1.226 . S
O53 Zn51 1.932 . S
O53 C63 1.307 . S
O54 Zn47 1.919 . S
O54 C65 1.253 . S
O55 Zn49 1.941 . S
O55 C65 1.283 . S
O56 Zn49 1.965 . S
O56 C64 1.303 . S
O57 Zn50 1.938 . S
O57 C64 1.247 . S
O58 Zn50 1.906 . S
O58 C66 1.304 . S
O59 Zn47 1.924 . S
O59 C67 1.311 . S
O60 Zn51 1.977 . S
O60 C66 1.272 . S
O61 Zn51 1.910 . S
O61 C67 1.231 . S
C62 O46 1.225 . S
C62 O68 1.298 . S
C63 O52 1.226 . S
C63 O53 1.307 . S
C64 O56 1.303 . S
C64 O57 1.247 . S
C65 O54 1.253 . S
C65 O55 1.283 . S
C66 O58 1.304 . S
C66 O60 1.272 . S
C67 O59 1.311 . S
C67 O61 1.231 . S
O68 Zn50 1.953 . S
O68 C62 1.298 . S
H69 C74 0.930 . S
H70 C77 0.930 . S
H71 C79 0.930 1_565 S
H72 C73 1.016 . S
C73 H72 1.016 . S
C73 N80 1.286 . S
C74 H69 0.930 . S
C74 C75 1.397 . S
C74 C76 1.361 . S
C75 C74 1.397 . S
C75 C79 1.390 . S
C76 C74 1.361 . S
C76 C77 1.393 . S
C76 N80 1.413 . S
C77 H70 0.930 . S
C77 C76 1.393 . S
C77 C78 1.399 . S
C78 C77 1.399 . S
C78 C79 1.381 . S
C79 H71 0.930 1_545 S
C79 C75 1.390 . S
C79 C78 1.381 . S
N80 C73 1.286 . S
N80 C76 1.413 . S
H81 C86 0.930 . S
H82 C89 0.930 . S
H83 C91 0.930 . S
H84 C85 1.016 . S
C85 H84 1.016 . S
C85 N92 1.286 . S
C86 H81 0.930 . S
C86 C87 1.397 . S
C86 C88 1.361 . S
C87 C86 1.397 . S
C87 C91 1.390 . S
C88 C86 1.361 . S
C88 C89 1.393 . S
C88 N92 1.413 . S
C89 H82 0.930 . S
C89 C88 1.393 . S
C89 C90 1.399 . S
C90 C89 1.399 . S
C90 C91 1.381 . S
C91 H83 0.930 . S
C91 C87 1.390 . S
C91 C90 1.381 . S
N92 C85 1.286 . S
N92 C88 1.413 . S
H93 C98 0.930 . S
H94 C101 0.930 . S
H95 C103 0.930 . S
H96 C97 1.016 . S
C97 H96 1.016 . S
C97 N104 1.286 . S
C98 H93 0.930 . S
C98 C99 1.397 1_455 S
C98 C100 1.361 . S
C99 C98 1.397 1_655 S
C99 C103 1.390 . S
C100 C98 1.361 . S
C100 C101 1.393 . S
C100 N104 1.413 . S
C101 H94 0.930 . S
C101 C100 1.393 . S
C101 C102 1.399 . S
C102 C101 1.399 . S
C102 C103 1.381 1_455 S
C103 H95 0.930 . S
C103 C99 1.390 . S
C103 C102 1.381 1_655 S
N104 C97 1.286 . S
N104 C100 1.413 . S
H105 C110 0.930 . S
H106 C113 0.930 . S
H107 C115 0.930 . S
H108 C109 1.016 . S
C109 H108 1.016 . S
C109 N116 1.286 . S
C110 H105 0.930 . S
C110 C111 1.397 . S
C110 C112 1.361 . S
C111 C110 1.397 . S
C111 C115 1.390 . S
C112 C110 1.361 . S
C112 C113 1.393 1_455 S
C112 N116 1.413 1_455 S
C113 H106 0.930 . S
C113 C112 1.393 1_655 S
C113 C114 1.399 1_655 S
C114 C113 1.399 1_455 S
C114 C115 1.381 . S
C115 H107 0.930 . S
C115 C111 1.390 . S
C115 C114 1.381 . S
N116 C109 1.286 . S
N116 C112 1.413 1_655 S
H117 C122 0.930 . S
H118 C125 0.930 1_565 S
H119 C127 0.930 . S
H120 C121 1.016 . S
C121 H120 1.016 . S
C121 N128 1.286 . S
C122 H117 0.930 . S
C122 C123 1.397 . S
C122 C124 1.361 . S
C123 C122 1.397 . S
C123 C127 1.390 . S
C124 C122 1.361 . S
C124 C125 1.393 . S
C124 N128 1.413 1_545 S
C125 H118 0.930 1_545 S
C125 C124 1.393 . S
C125 C126 1.399 . S
C126 C125 1.399 . S
C126 C127 1.381 . S
C127 H119 0.930 . S
C127 C123 1.390 . S
C127 C126 1.381 . S
N128 C121 1.286 . S
N128 C124 1.413 1_565 S
H129 C134 0.930 . S
H130 C137 0.930 . S
H131 C139 0.930 . S
H132 C133 1.016 . S
C133 H132 1.016 . S
C133 N140 1.286 . S
C134 H129 0.930 . S
C134 C135 1.397 . S
C134 C136 1.361 . S
C135 C134 1.397 . S
C135 C139 1.390 . S
C136 C134 1.361 . S
C136 C137 1.393 . S
C136 N140 1.413 . S
C137 H130 0.930 . S
C137 C136 1.393 . S
C137 C138 1.399 . S
C138 C137 1.399 . S
C138 C139 1.381 . S
C139 H131 0.930 . S
C139 C135 1.390 . S
C139 C138 1.381 . S
N140 C133 1.286 . S
N140 C136 1.413 . S
H141 C153 0.930 . S
H142 C155 0.930 . S
H143 C156 0.930 . S
H144 C160 0.959 . S
H145 C160 0.959 . S
H146 C160 0.961 . S
H147 C161 0.960 . S
H148 C161 0.961 . S
H149 C161 0.959 . S
H150 C164 0.929 . S
H151 C165 0.931 . S
H152 C167 0.930 . S
C153 H141 0.930 . S
C153 C154 1.399 . S
C153 C158 1.399 . S
C154 C153 1.399 . S
C154 C155 1.376 . S
C155 H142 0.930 . S
C155 C154 1.376 . S
C155 C156 1.388 . S
C156 H143 0.930 . S
C156 C155 1.388 . S
C156 C157 1.390 . S
C157 C156 1.390 . S
C157 C158 1.394 . S
C157 C163 1.465 . S
C158 C153 1.399 . S
C158 C157 1.394 . S
C158 C159 1.516 . S
C159 C158 1.516 . S
C159 C160 1.502 . S
C159 C161 1.561 . S
C159 C162 1.526 . S
C160 H144 0.959 . S
C160 H145 0.959 . S
C160 H146 0.961 . S
C160 C159 1.502 . S
C161 H147 0.960 . S
C161 H148 0.961 . S
C161 H149 0.959 . S
C161 C159 1.561 . S
C162 C159 1.526 . S
C162 C163 1.396 . S
C162 C167 1.390 . S
C163 C157 1.465 . S
C163 C162 1.396 . S
C163 C164 1.399 . S
C164 H150 0.929 . S
C164 C163 1.399 . S
C164 C165 1.385 . S
C165 H151 0.931 . S
C165 C164 1.385 . S
C165 C166 1.389 . S
C166 C165 1.389 . S
C166 C167 1.387 . S
C167 H152 0.930 . S
C167 C162 1.390 . S
C167 C166 1.387 . S
H168 C180 0.930 . S
H169 C182 0.930 . S
H170 C183 0.930 . S
H171 C187 0.959 . S
H172 C187 0.959 . S
H173 C187 0.961 . S
H174 C188 0.960 . S
H175 C188 0.961 . S
H176 C188 0.959 . S
H177 C191 0.929 . S
H178 C192 0.931 . S
H179 C194 0.930 . S
C180 H168 0.930 . S
C180 C181 1.399 . S
C180 C185 1.399 . S
C181 C180 1.399 . S
C181 C182 1.376 . S
C182 H169 0.930 . S
C182 C181 1.376 . S
C182 C183 1.388 . S
C183 H170 0.930 . S
C183 C182 1.388 . S
C183 C184 1.390 . S
C184 C183 1.390 . S
C184 C185 1.394 . S
C184 C190 1.465 . S
C185 C180 1.399 . S
C185 C184 1.394 . S
C185 C186 1.516 . S
C186 C185 1.516 . S
C186 C187 1.502 . S
C186 C188 1.561 . S
C186 C189 1.526 . S
C187 H171 0.959 . S
C187 H172 0.959 . S
C187 H173 0.961 . S
C187 C186 1.502 . S
C188 H174 0.960 . S
C188 H175 0.961 . S
C188 H176 0.959 . S
C188 C186 1.561 . S
C189 C186 1.526 . S
C189 C190 1.396 . S
C189 C194 1.390 . S
C190 C184 1.465 . S
C190 C189 1.396 . S
C190 C191 1.399 . S
C191 H177 0.929 . S
C191 C190 1.399 . S
C191 C192 1.385 . S
C192 H178 0.931 . S
C192 C191 1.385 . S
C192 C193 1.389 . S
C193 C192 1.389 . S
C193 C194 1.387 . S
C194 H179 0.930 . S
C194 C189 1.390 . S
C194 C193 1.387 . S
H195 C207 0.930 . S
H196 C209 0.930 . S
H197 C210 0.930 . S
H198 C214 0.959 . S
H199 C214 0.959 . S
H200 C214 0.961 . S
H201 C215 0.960 . S
H202 C215 0.961 . S
H203 C215 0.959 . S
H204 C218 0.929 . S
H205 C219 0.931 . S
H206 C221 0.930 . S
C207 H195 0.930 . S
C207 C208 1.399 . S
C207 C212 1.399 . S
C208 C207 1.399 . S
C208 C209 1.376 . S
C209 H196 0.930 . S
C209 C208 1.376 . S
C209 C210 1.388 . S
C210 H197 0.930 . S
C210 C209 1.388 . S
C210 C211 1.390 . S
C211 C210 1.390 . S
C211 C212 1.394 . S
C211 C217 1.465 . S
C212 C207 1.399 . S
C212 C211 1.394 . S
C212 C213 1.516 . S
C213 C212 1.516 . S
C213 C214 1.502 . S
C213 C215 1.561 . S
C213 C216 1.526 . S
C214 H198 0.959 . S
C214 H199 0.959 . S
C214 H200 0.961 . S
C214 C213 1.502 . S
C215 H201 0.960 . S
C215 H202 0.961 . S
C215 H203 0.959 . S
C215 C213 1.561 . S
C216 C213 1.526 . S
C216 C217 1.396 . S
C216 C221 1.390 . S
C217 C211 1.465 . S
C217 C216 1.396 . S
C217 C218 1.399 . S
C218 H204 0.929 . S
C218 C217 1.399 . S
C218 C219 1.385 . S
C219 H205 0.931 . S
C219 C218 1.385 . S
C219 C220 1.389 . S
C220 C219 1.389 . S
C220 C221 1.387 . S
C221 H206 0.930 . S
C221 C216 1.390 . S
C221 C220 1.387 . S
H222 C234 0.930 . S
H223 C236 0.930 . S
H224 C237 0.930 . S
H225 C241 0.959 . S
H226 C241 0.959 . S
H227 C241 0.961 . S
H228 C242 0.960 . S
H229 C242 0.961 . S
H230 C242 0.959 . S
H231 C245 0.929 . S
H232 C246 0.931 . S
H233 C248 0.930 . S
C234 H222 0.930 . S
C234 C235 1.399 . S
C234 C239 1.399 . S
C235 C234 1.399 . S
C235 C236 1.376 . S
C236 H223 0.930 . S
C236 C235 1.376 . S
C236 C237 1.388 . S
C237 H224 0.930 . S
C237 C236 1.388 . S
C237 C238 1.390 . S
C238 C237 1.390 . S
C238 C239 1.394 . S
C238 C244 1.465 . S
C239 C234 1.399 . S
C239 C238 1.394 . S
C239 C240 1.516 . S
C240 C239 1.516 . S
C240 C241 1.502 . S
C240 C242 1.561 . S
C240 C243 1.526 . S
C241 H225 0.959 . S
C241 H226 0.959 . S
C241 H227 0.961 . S
C241 C240 1.502 . S
C242 H228 0.960 . S
C242 H229 0.961 . S
C242 H230 0.959 . S
C242 C240 1.561 . S
C243 C240 1.526 . S
C243 C244 1.396 . S
C243 C248 1.390 . S
C244 C238 1.465 . S
C244 C243 1.396 . S
C244 C245 1.399 . S
C245 H231 0.929 . S
C245 C244 1.399 . S
C245 C246 1.385 . S
C246 H232 0.931 . S
C246 C245 1.385 . S
C246 C247 1.389 . S
C247 C246 1.389 . S
C247 C248 1.387 . S
C248 H233 0.930 . S
C248 C243 1.390 . S
C248 C247 1.387 . S
H249 C261 0.930 . S
H250 C263 0.930 . S
H251 C264 0.930 . S
H252 C268 0.959 . S
H253 C268 0.959 . S
H254 C268 0.961 . S
H255 C269 0.960 . S
H256 C269 0.961 . S
H257 C269 0.959 . S
H258 C272 0.929 . S
H259 C273 0.931 . S
H260 C275 0.930 . S
C261 H249 0.930 . S
C261 C262 1.399 . S
C261 C266 1.399 . S
C262 C261 1.399 . S
C262 C263 1.376 . S
C263 H250 0.930 . S
C263 C262 1.376 . S
C263 C264 1.388 . S
C264 H251 0.930 . S
C264 C263 1.388 . S
C264 C265 1.390 . S
C265 C264 1.390 . S
C265 C266 1.394 . S
C265 C271 1.465 . S
C266 C261 1.399 . S
C266 C265 1.394 . S
C266 C267 1.516 . S
C267 C266 1.516 . S
C267 C268 1.502 . S
C267 C269 1.561 . S
C267 C270 1.526 . S
C268 H252 0.959 . S
C268 H253 0.959 . S
C268 H254 0.961 . S
C268 C267 1.502 . S
C269 H255 0.960 . S
C269 H256 0.961 . S
C269 H257 0.959 . S
C269 C267 1.561 . S
C270 C267 1.526 . S
C270 C271 1.396 . S
C270 C275 1.390 . S
C271 C265 1.465 . S
C271 C270 1.396 . S
C271 C272 1.399 . S
C272 H258 0.929 . S
C272 C271 1.399 . S
C272 C273 1.385 . S
C273 H259 0.931 . S
C273 C272 1.385 . S
C273 C274 1.389 . S
C274 C273 1.389 . S
C274 C275 1.387 . S
C275 H260 0.930 . S
C275 C270 1.390 . S
C275 C274 1.387 . S
H276 C288 0.930 . S
H277 C290 0.930 . S
H278 C291 0.930 . S
H279 C295 0.959 . S
H280 C295 0.959 . S
H281 C295 0.961 . S
H282 C296 0.960 . S
H283 C296 0.961 . S
H284 C296 0.959 . S
H285 C299 0.929 . S
H286 C300 0.931 . S
H287 C302 0.930 . S
C288 H276 0.930 . S
C288 C289 1.399 . S
C288 C293 1.399 . S
C289 C288 1.399 . S
C289 C290 1.376 . S
C290 H277 0.930 . S
C290 C289 1.376 . S
C290 C291 1.388 . S
C291 H278 0.930 . S
C291 C290 1.388 . S
C291 C292 1.390 . S
C292 C291 1.390 . S
C292 C293 1.394 . S
C292 C298 1.465 . S
C293 C288 1.399 . S
C293 C292 1.394 . S
C293 C294 1.516 . S
C294 C293 1.516 . S
C294 C295 1.502 . S
C294 C296 1.561 . S
C294 C297 1.526 . S
C295 H279 0.959 . S
C295 H280 0.959 . S
C295 H281 0.961 . S
C295 C294 1.502 . S
C296 H282 0.960 . S
C296 H283 0.961 . S
C296 H284 0.959 . S
C296 C294 1.561 . S
C297 C294 1.526 . S
C297 C298 1.396 . S
C297 C302 1.390 . S
C298 C292 1.465 . S
C298 C297 1.396 . S
C298 C299 1.399 . S
C299 H285 0.929 . S
C299 C298 1.399 . S
C299 C300 1.385 . S
C300 H286 0.931 . S
C300 C299 1.385 . S
C300 C301 1.389 . S
C301 C300 1.389 . S
C301 C302 1.387 . S
C302 H287 0.930 . S
C302 C297 1.390 . S
C302 C301 1.387 . S
H303 C315 0.930 . S
H304 C317 0.930 . S
H305 C318 0.930 . S
H306 C322 0.959 . S
H307 C322 0.959 . S
H308 C322 0.961 . S
H309 C323 0.960 . S
H310 C323 0.961 . S
H311 C323 0.959 . S
H312 C326 0.929 . S
H313 C327 0.931 . S
H314 C329 0.930 . S
C315 H303 0.930 . S
C315 C316 1.399 . S
C315 C320 1.399 . S
C316 C315 1.399 . S
C316 C317 1.376 . S
C317 H304 0.930 . S
C317 C316 1.376 . S
C317 C318 1.388 . S
C318 H305 0.930 . S
C318 C317 1.388 . S
C318 C319 1.390 . S
C319 C318 1.390 . S
C319 C320 1.394 . S
C319 C325 1.465 . S
C320 C315 1.399 . S
C320 C319 1.394 . S
C320 C321 1.516 . S
C321 C320 1.516 . S
C321 C322 1.502 . S
C321 C323 1.561 . S
C321 C324 1.526 . S
C322 H306 0.959 . S
C322 H307 0.959 . S
C322 H308 0.961 . S
C322 C321 1.502 . S
C323 H309 0.960 . S
C323 H310 0.961 . S
C323 H311 0.959 . S
C323 C321 1.561 . S
C324 C321 1.526 . S
C324 C325 1.396 . S
C324 C329 1.390 . S
C325 C319 1.465 . S
C325 C324 1.396 . S
C325 C326 1.399 . S
C326 H312 0.929 . S
C326 C325 1.399 . S
C326 C327 1.385 . S
C327 H313 0.931 . S
C327 C326 1.385 . S
C327 C328 1.389 . S
C328 C327 1.389 . S
C328 C329 1.387 . S
C329 H314 0.930 . S
C329 C324 1.390 . S
C329 C328 1.387 . S
H330 C342 0.930 . S
H331 C344 0.930 . S
H332 C345 0.930 . S
H333 C349 0.959 . S
H334 C349 0.959 . S
H335 C349 0.961 . S
H336 C350 0.960 . S
H337 C350 0.961 . S
H338 C350 0.959 . S
H339 C353 0.929 . S
H340 C354 0.931 . S
H341 C356 0.930 . S
C342 H330 0.930 . S
C342 C343 1.399 . S
C342 C347 1.399 . S
C343 C342 1.399 . S
C343 C344 1.376 . S
C344 H331 0.930 . S
C344 C343 1.376 . S
C344 C345 1.388 . S
C345 H332 0.930 . S
C345 C344 1.388 . S
C345 C346 1.390 . S
C346 C345 1.390 . S
C346 C347 1.394 . S
C346 C352 1.465 . S
C347 C342 1.399 . S
C347 C346 1.394 . S
C347 C348 1.516 . S
C348 C347 1.516 . S
C348 C349 1.502 . S
C348 C350 1.561 . S
C348 C351 1.526 . S
C349 H333 0.959 . S
C349 H334 0.959 . S
C349 H335 0.961 . S
C349 C348 1.502 . S
C350 H336 0.960 . S
C350 H337 0.961 . S
C350 H338 0.959 . S
C350 C348 1.561 . S
C351 C348 1.526 . S
C351 C352 1.396 . S
C351 C356 1.390 . S
C352 C346 1.465 . S
C352 C351 1.396 . S
C352 C353 1.399 . S
C353 H339 0.929 . S
C353 C352 1.399 . S
C353 C354 1.385 . S
C354 H340 0.931 . S
C354 C353 1.385 . S
C354 C355 1.389 . S
C355 C354 1.389 . S
C355 C356 1.387 . S
C356 H341 0.930 . S
C356 C351 1.390 . S
C356 C355 1.387 . S
H357 C369 0.930 . S
H358 C371 0.930 . S
H359 C372 0.930 . S
H360 C376 0.959 . S
H361 C376 0.959 . S
H362 C376 0.961 . S
H363 C377 0.960 . S
H364 C377 0.961 . S
H365 C377 0.959 . S
H366 C380 0.929 . S
H367 C381 0.931 . S
H368 C383 0.930 . S
C369 H357 0.930 . S
C369 C370 1.399 . S
C369 C374 1.399 . S
C370 C369 1.399 . S
C370 C371 1.376 . S
C371 H358 0.930 . S
C371 C370 1.376 . S
C371 C372 1.388 . S
C372 H359 0.930 . S
C372 C371 1.388 . S
C372 C373 1.390 . S
C373 C372 1.390 . S
C373 C374 1.394 . S
C373 C379 1.465 . S
C374 C369 1.399 . S
C374 C373 1.394 . S
C374 C375 1.516 . S
C375 C374 1.516 . S
C375 C376 1.502 . S
C375 C377 1.561 . S
C375 C378 1.526 . S
C376 H360 0.959 . S
C376 H361 0.959 . S
C376 H362 0.961 . S
C376 C375 1.502 . S
C377 H363 0.960 . S
C377 H364 0.961 . S
C377 H365 0.959 . S
C377 C375 1.561 . S
C378 C375 1.526 . S
C378 C379 1.396 . S
C378 C383 1.390 . S
C379 C373 1.465 . S
C379 C378 1.396 . S
C379 C380 1.399 . S
C380 H366 0.929 . S
C380 C379 1.399 . S
C380 C381 1.385 . S
C381 H367 0.931 . S
C381 C380 1.385 . S
C381 C382 1.389 . S
C382 C381 1.389 . S
C382 C383 1.387 . S
C383 H368 0.930 . S
C383 C378 1.390 . S
C383 C382 1.387 . S
H384 C396 0.930 . S
H385 C398 0.930 . S
H386 C399 0.930 . S
H387 C403 0.959 . S
H388 C403 0.959 . S
H389 C403 0.961 . S
H390 C404 0.960 . S
H391 C404 0.961 . S
H392 C404 0.959 . S
H393 C407 0.929 . S
H394 C408 0.931 . S
H395 C410 0.930 . S
C396 H384 0.930 . S
C396 C397 1.399 . S
C396 C401 1.399 . S
C397 C396 1.399 . S
C397 C398 1.376 . S
C398 H385 0.930 . S
C398 C397 1.376 . S
C398 C399 1.388 . S
C399 H386 0.930 . S
C399 C398 1.388 . S
C399 C400 1.390 . S
C400 C399 1.390 . S
C400 C401 1.394 . S
C400 C406 1.465 . S
C401 C396 1.399 . S
C401 C400 1.394 . S
C401 C402 1.516 . S
C402 C401 1.516 . S
C402 C403 1.502 . S
C402 C404 1.561 . S
C402 C405 1.526 . S
C403 H387 0.959 . S
C403 H388 0.959 . S
C403 H389 0.961 . S
C403 C402 1.502 . S
C404 H390 0.960 . S
C404 H391 0.961 . S
C404 H392 0.959 . S
C404 C402 1.561 . S
C405 C402 1.526 . S
C405 C406 1.396 . S
C405 C410 1.390 . S
C406 C400 1.465 . S
C406 C405 1.396 . S
C406 C407 1.399 . S
C407 H393 0.929 . S
C407 C406 1.399 . S
C407 C408 1.385 . S
C408 H394 0.931 . S
C408 C407 1.385 . S
C408 C409 1.389 . S
C409 C408 1.389 . S
C409 C410 1.387 . S
C410 H395 0.930 . S
C410 C405 1.390 . S
C410 C409 1.387 . S
H411 C423 0.930 . S
H412 C425 0.930 . S
H413 C426 0.930 . S
H414 C430 0.959 . S
H415 C430 0.959 . S
H416 C430 0.961 . S
H417 C431 0.960 . S
H418 C431 0.961 . S
H419 C431 0.959 . S
H420 C434 0.929 . S
H421 C435 0.931 . S
H422 C437 0.930 . S
C423 H411 0.930 . S
C423 C424 1.399 . S
C423 C428 1.399 . S
C424 C423 1.399 . S
C424 C425 1.376 . S
C425 H412 0.930 . S
C425 C424 1.376 . S
C425 C426 1.388 . S
C426 H413 0.930 . S
C426 C425 1.388 . S
C426 C427 1.390 . S
C427 C426 1.390 . S
C427 C428 1.394 . S
C427 C433 1.465 . S
C428 C423 1.399 . S
C428 C427 1.394 . S
C428 C429 1.516 . S
C429 C428 1.516 . S
C429 C430 1.502 . S
C429 C431 1.561 . S
C429 C432 1.526 . S
C430 H414 0.959 . S
C430 H415 0.959 . S
C430 H416 0.961 . S
C430 C429 1.502 . S
C431 H417 0.960 . S
C431 H418 0.961 . S
C431 H419 0.959 . S
C431 C429 1.561 . S
C432 C429 1.526 . S
C432 C433 1.396 . S
C432 C437 1.390 . S
C433 C427 1.465 . S
C433 C432 1.396 . S
C433 C434 1.399 . S
C434 H420 0.929 . S
C434 C433 1.399 . S
C434 C435 1.385 . S
C435 H421 0.931 . S
C435 C434 1.385 . S
C435 C436 1.389 . S
C436 C435 1.389 . S
C436 C437 1.387 . S
C437 H422 0.930 . S
C437 C432 1.390 . S
C437 C436 1.387 . S
H438 C450 0.930 . S
H439 C452 0.930 . S
H440 C453 0.930 . S
H441 C457 0.959 . S
H442 C457 0.959 . S
H443 C457 0.961 . S
H444 C458 0.960 . S
H445 C458 0.961 . S
H446 C458 0.959 . S
H447 C461 0.929 . S
H448 C462 0.931 . S
H449 C464 0.930 . S
C450 H438 0.930 . S
C450 C451 1.399 . S
C450 C455 1.399 . S
C451 C450 1.399 . S
C451 C452 1.376 . S
C452 H439 0.930 . S
C452 C451 1.376 . S
C452 C453 1.388 . S
C453 H440 0.930 . S
C453 C452 1.388 . S
C453 C454 1.390 . S
C454 C453 1.390 . S
C454 C455 1.394 . S
C454 C460 1.465 . S
C455 C450 1.399 . S
C455 C454 1.394 . S
C455 C456 1.516 . S
C456 C455 1.516 . S
C456 C457 1.502 . S
C456 C458 1.561 . S
C456 C459 1.526 . S
C457 H441 0.959 . S
C457 H442 0.959 . S
C457 H443 0.961 . S
C457 C456 1.502 . S
C458 H444 0.960 . S
C458 H445 0.961 . S
C458 H446 0.959 . S
C458 C456 1.561 . S
C459 C456 1.526 . S
C459 C460 1.396 . S
C459 C464 1.390 . S
C460 C454 1.465 . S
C460 C459 1.396 . S
C460 C461 1.399 . S
C461 H447 0.929 . S
C461 C460 1.399 . S
C461 C462 1.385 . S
C462 H448 0.931 . S
C462 C461 1.385 . S
C462 C463 1.389 . S
C463 C462 1.389 . S
C463 C464 1.387 . S
C464 H449 0.930 . S
C464 C459 1.390 . S
C464 C463 1.387 . S
H465 C477 0.930 . S
H466 C479 0.930 . S
H467 C480 0.930 . S
H468 C484 0.959 1_655 S
H469 C484 0.959 . S
H470 C484 0.961 . S
H471 C485 0.960 . S
H472 C485 0.961 . S
H473 C485 0.959 . S
H474 C488 0.929 . S
H475 C489 0.931 . S
H476 C491 0.930 . S
C477 H465 0.930 . S
C477 C478 1.399 . S
C477 C482 1.399 . S
C478 C477 1.399 . S
C478 C479 1.376 . S
C479 H466 0.930 . S
C479 C478 1.376 . S
C479 C480 1.388 . S
C480 H467 0.930 . S
C480 C479 1.388 . S
C480 C481 1.390 . S
C481 C480 1.390 . S
C481 C482 1.394 . S
C481 C487 1.465 . S
C482 C477 1.399 . S
C482 C481 1.394 . S
C482 C483 1.516 . S
C483 C482 1.516 . S
C483 C484 1.502 . S
C483 C485 1.561 . S
C483 C486 1.526 1_554 S
C484 H468 0.959 1_455 S
C484 H469 0.959 . S
C484 H470 0.961 . S
C484 C483 1.502 . S
C485 H471 0.960 . S
C485 H472 0.961 . S
C485 H473 0.959 . S
C485 C483 1.561 . S
C486 C483 1.526 1_556 S
C486 C487 1.396 1_556 S
C486 C491 1.390 . S
C487 C481 1.465 . S
C487 C486 1.396 1_554 S
C487 C488 1.399 1_554 S
C488 H474 0.929 . S
C488 C487 1.399 1_556 S
C488 C489 1.385 . S
C489 H475 0.931 . S
C489 C488 1.385 . S
C489 C490 1.389 . S
C490 C489 1.389 . S
C490 C491 1.387 . S
C491 H476 0.930 . S
C491 C486 1.390 . S
C491 C490 1.387 . S
H492 C504 0.930 . S
H493 C506 0.930 . S
H494 C507 0.930 . S
H495 C511 0.959 . S
H496 C511 0.959 . S
H497 C511 0.961 . S
H498 C512 0.960 . S
H499 C512 0.961 . S
H500 C512 0.959 . S
H501 C515 0.929 . S
H502 C516 0.931 1_565 S
H503 C518 0.930 . S
C504 H492 0.930 . S
C504 C505 1.399 . S
C504 C509 1.399 . S
C505 C504 1.399 . S
C505 C506 1.376 1_545 S
C506 H493 0.930 . S
C506 C505 1.376 1_565 S
C506 C507 1.388 . S
C507 H494 0.930 . S
C507 C506 1.388 . S
C507 C508 1.390 1_565 S
C508 C507 1.390 1_545 S
C508 C509 1.394 . S
C508 C514 1.465 . S
C509 C504 1.399 . S
C509 C508 1.394 . S
C509 C510 1.516 . S
C510 C509 1.516 . S
C510 C511 1.502 . S
C510 C512 1.561 . S
C510 C513 1.526 . S
C511 H495 0.959 . S
C511 H496 0.959 . S
C511 H497 0.961 . S
C511 C510 1.502 . S
C512 H498 0.960 . S
C512 H499 0.961 . S
C512 H500 0.959 . S
C512 C510 1.561 . S
C513 C510 1.526 . S
C513 C514 1.396 . S
C513 C518 1.390 . S
C514 C508 1.465 . S
C514 C513 1.396 . S
C514 C515 1.399 1_545 S
C515 H501 0.929 . S
C515 C514 1.399 1_565 S
C515 C516 1.385 1_565 S
C516 H502 0.931 1_545 S
C516 C515 1.385 1_545 S
C516 C517 1.389 . S
C517 C516 1.389 . S
C517 C518 1.387 . S
C518 H503 0.930 . S
C518 C513 1.390 . S
C518 C517 1.387 . S
H519 C531 0.930 . S
H520 C533 0.930 . S
H521 C534 0.930 . S
H522 C538 0.959 . S
H523 C538 0.959 . S
H524 C538 0.961 . S
H525 C539 0.960 . S
H526 C539 0.961 . S
H527 C539 0.959 . S
H528 C542 0.929 . S
H529 C543 0.931 . S
H530 C545 0.930 . S
C531 H519 0.930 . S
C531 C532 1.399 . S
C531 C536 1.399 . S
C532 C531 1.399 . S
C532 C533 1.376 . S
C533 H520 0.930 . S
C533 C532 1.376 . S
C533 C534 1.388 . S
C534 H521 0.930 . S
C534 C533 1.388 . S
C534 C535 1.390 . S
C535 C534 1.390 . S
C535 C536 1.394 . S
C535 C541 1.465 . S
C536 C531 1.399 . S
C536 C535 1.394 . S
C536 C537 1.516 . S
C537 C536 1.516 . S
C537 C538 1.502 . S
C537 C539 1.561 . S
C537 C540 1.526 . S
C538 H522 0.959 . S
C538 H523 0.959 . S
C538 H524 0.961 . S
C538 C537 1.502 . S
C539 H525 0.960 . S
C539 H526 0.961 . S
C539 H527 0.959 . S
C539 C537 1.561 . S
C540 C537 1.526 . S
C540 C541 1.396 . S
C540 C545 1.390 . S
C541 C535 1.465 . S
C541 C540 1.396 . S
C541 C542 1.399 . S
C542 H528 0.929 . S
C542 C541 1.399 . S
C542 C543 1.385 . S
C543 H529 0.931 . S
C543 C542 1.385 . S
C543 C544 1.389 . S
C544 C543 1.389 . S
C544 C545 1.387 . S
C545 H530 0.930 . S
C545 C540 1.390 . S
C545 C544 1.387 . S
H546 C558 0.930 . S
H547 C560 0.930 . S
H548 C561 0.930 . S
H549 C565 0.959 . S
H550 C565 0.959 . S
H551 C565 0.961 . S
H552 C566 0.960 . S
H553 C566 0.961 . S
H554 C566 0.959 . S
H555 C569 0.929 . S
H556 C570 0.931 . S
H557 C572 0.930 . S
C558 H546 0.930 . S
C558 C559 1.399 . S
C558 C563 1.399 . S
C559 C558 1.399 . S
C559 C560 1.376 1_545 S
C560 H547 0.930 . S
C560 C559 1.376 1_565 S
C560 C561 1.388 . S
C561 H548 0.930 . S
C561 C560 1.388 . S
C561 C562 1.390 1_565 S
C562 C561 1.390 1_545 S
C562 C563 1.394 . S
C562 C568 1.465 . S
C563 C558 1.399 . S
C563 C562 1.394 . S
C563 C564 1.516 . S
C564 C563 1.516 . S
C564 C565 1.502 . S
C564 C566 1.561 . S
C564 C567 1.526 . S
C565 H549 0.959 . S
C565 H550 0.959 . S
C565 H551 0.961 . S
C565 C564 1.502 . S
C566 H552 0.960 . S
C566 H553 0.961 . S
C566 H554 0.959 . S
C566 C564 1.561 . S
C567 C564 1.526 . S
C567 C568 1.396 . S
C567 C572 1.390 . S
C568 C562 1.465 . S
C568 C567 1.396 . S
C568 C569 1.399 1_545 S
C569 H555 0.929 . S
C569 C568 1.399 1_565 S
C569 C570 1.385 . S
C570 H556 0.931 . S
C570 C569 1.385 . S
C570 C571 1.389 1_565 S
C571 C570 1.389 1_545 S
C571 C572 1.387 . S
C572 H557 0.930 . S
C572 C567 1.390 . S
C572 C571 1.387 . S
H573 C585 0.930 . S
H574 C587 0.930 . S
H575 C588 0.930 . S
H576 C592 0.959 . S
H577 C592 0.959 . S
H578 C592 0.961 . S
H579 C593 0.960 . S
H580 C593 0.961 . S
H581 C593 0.959 . S
H582 C596 0.929 . S
H583 C597 0.931 . S
H584 C599 0.930 . S
C585 H573 0.930 . S
C585 C586 1.399 . S
C585 C590 1.399 . S
C586 C585 1.399 . S
C586 C587 1.376 . S
C587 H574 0.930 . S
C587 C586 1.376 . S
C587 C588 1.388 . S
C588 H575 0.930 . S
C588 C587 1.388 . S
C588 C589 1.390 . S
C589 C588 1.390 . S
C589 C590 1.394 . S
C589 C595 1.465 . S
C590 C585 1.399 . S
C590 C589 1.394 . S
C590 C591 1.516 . S
C591 C590 1.516 . S
C591 C592 1.502 . S
C591 C593 1.561 . S
C591 C594 1.526 1_556 S
C592 H576 0.959 . S
C592 H577 0.959 . S
C592 H578 0.961 . S
C592 C591 1.502 . S
C593 H579 0.960 . S
C593 H580 0.961 . S
C593 H581 0.959 . S
C593 C591 1.561 . S
C594 C591 1.526 1_554 S
C594 C595 1.396 1_554 S
C594 C599 1.390 . S
C595 C589 1.465 . S
C595 C594 1.396 1_556 S
C595 C596 1.399 1_556 S
C596 H582 0.929 . S
C596 C595 1.399 1_554 S
C596 C597 1.385 . S
C597 H583 0.931 . S
C597 C596 1.385 . S
C597 C598 1.389 . S
C598 C597 1.389 . S
C598 C599 1.387 . S
C599 H584 0.930 . S
C599 C594 1.390 . S
C599 C598 1.387 . S
H600 C612 0.930 . S
H601 C614 0.930 . S
H602 C615 0.930 . S
H603 C619 0.959 . S
H604 C619 0.959 . S
H605 C619 0.961 . S
H606 C620 0.960 . S
H607 C620 0.961 1_655 S
H608 C620 0.959 . S
H609 C623 0.929 . S
H610 C624 0.931 . S
H611 C626 0.930 1_655 S
C612 H600 0.930 . S
C612 C613 1.399 . S
C612 C617 1.399 . S
C613 C612 1.399 . S
C613 C614 1.376 . S
C614 H601 0.930 . S
C614 C613 1.376 . S
C614 C615 1.388 . S
C615 H602 0.930 . S
C615 C614 1.388 . S
C615 C616 1.390 . S
C616 C615 1.390 . S
C616 C617 1.394 . S
C616 C622 1.465 . S
C617 C612 1.399 . S
C617 C616 1.394 . S
C617 C618 1.516 . S
C618 C617 1.516 . S
C618 C619 1.502 1_455 S
C618 C620 1.561 . S
C618 C621 1.526 . S
C619 H603 0.959 . S
C619 H604 0.959 . S
C619 H605 0.961 . S
C619 C618 1.502 1_655 S
C620 H606 0.960 . S
C620 H607 0.961 1_455 S
C620 H608 0.959 . S
C620 C618 1.561 . S
C621 C618 1.526 . S
C621 C622 1.396 . S
C621 C626 1.390 . S
C622 C616 1.465 . S
C622 C621 1.396 . S
C622 C623 1.399 . S
C623 H609 0.929 . S
C623 C622 1.399 . S
C623 C624 1.385 . S
C624 H610 0.931 . S
C624 C623 1.385 . S
C624 C625 1.389 . S
C625 C624 1.389 . S
C625 C626 1.387 . S
C626 H611 0.930 1_455 S
C626 C621 1.390 . S
C626 C625 1.387 . S
C154 C20 1.479 . S
C166 C135 1.527 . S
C181 C41 1.311 . S
C193 C109 1.318 . S
C208 C64 1.319 . S
C220 C121 1.333 . S
C235 C19 1.110 . S
C247 C133 1.030 . S
C274 C111 1.287 . S
C262 C44 1.279 . S
C301 C123 1.275 . S
C289 C67 1.217 . S
C316 C43 1.280 . S
C328 C85 1.251 . S
C343 C66 1.516 . S
C355 C99 1.538 . S
C370 C21 1.289 . S
C382 C75 1.249 1_565 S
C409 C87 1.287 . S
C397 C42 1.301 . S
C436 C97 1.059 . S
C424 C65 1.094 . S
C451 C18 1.319 . S
C463 C73 1.268 . S
C490 C102 1.515 . S
C478 C17 1.512 . S
C505 C39 1.528 . S
C517 C78 1.519 . S
C532 C62 1.538 . S
C544 C90 1.509 . S
C571 C126 1.520 . S
C559 C40 1.519 . S
C598 C138 1.520 . S
C586 C63 1.520 . S
C613 C16 1.519 . S
C625 C114 1.491 . S
