# Generated by pormake.
# Topology rtl, (3,6)-cn, num edge types: 1
# Building blocks:
#     Node 0, Type 0, BuildingBlock: BETDAH_clean_linker_0, # of connection points: 3
#     Node 1, Type 0, BuildingBlock: BETDAH_clean_linker_0, # of connection points: 3
#     Node 2, Type 0, BuildingBlock: BETDAH_clean_linker_0, # of connection points: 3
#     Node 3, Type 0, BuildingBlock: BETDAH_clean_linker_0, # of connection points: 3
#     Node 4, Type 1, BuildingBlock: FUNLAD_clean_sbu_0, # of connection points: 6
#     Node 5, Type 1, BuildingBlock: FUNLAD_clean_sbu_0, # of connection points: 6
#     Edge 6, Type (0, 1), BuildingBlock: ZUJKAS_clean_linker_0, # of connection points: 2
#     Edge 7, Type (0, 1), BuildingBlock: ZUJKAS_clean_linker_0, # of connection points: 2
#     Edge 8, Type (0, 1), BuildingBlock: ZUJKAS_clean_linker_0, # of connection points: 2
#     Edge 9, Type (0, 1), BuildingBlock: ZUJKAS_clean_linker_0, # of connection points: 2
#     Edge 10, Type (0, 1), BuildingBlock: ZUJKAS_clean_linker_0, # of connection points: 2
#     Edge 11, Type (0, 1), BuildingBlock: ZUJKAS_clean_linker_0, # of connection points: 2
#     Edge 12, Type (0, 1), BuildingBlock: ZUJKAS_clean_linker_0, # of connection points: 2
#     Edge 13, Type (0, 1), BuildingBlock: ZUJKAS_clean_linker_0, # of connection points: 2
#     Edge 14, Type (0, 1), BuildingBlock: ZUJKAS_clean_linker_0, # of connection points: 2
#     Edge 15, Type (0, 1), BuildingBlock: ZUJKAS_clean_linker_0, # of connection points: 2
#     Edge 16, Type (0, 1), BuildingBlock: ZUJKAS_clean_linker_0, # of connection points: 2
#     Edge 17, Type (0, 1), BuildingBlock: ZUJKAS_clean_linker_0, # of connection points: 2
# Relax obj value: 0.002
# Max RMSD: 0.051
# Mean RMSD: 0.035
data_MOF--net-rtl--node1-FUNLAD_clean_sbu_0--node2-BETDAH_clean_linker_0--edge1-ZUJKAS_clean_linker_0
_symmetry_space_group_name_H-M    P1
_symmetry_Int_Tables_number       1
_symmetry_cell_setting            triclinic
loop_
_symmetry_equiv_pos_as_xyz
'x, y, z'
_cell_length_a     50.824564
_cell_length_b     50.82768
_cell_length_c     27.532833
_cell_angle_alpha  91.035714
_cell_angle_beta   92.093429
_cell_angle_gamma 90.062586
loop_
_atom_site_label
_atom_site_type_symbol
_atom_site_fract_x
_atom_site_fract_y
_atom_site_fract_z
_atom_type_partial_charge
H0 H 0.14767 0.87353 0.00335 0.0
H1 H 0.19022 0.80704 0.0607 0.0
H2 H 0.17826 0.81493 0.90624 0.0
C3 C 0.1587 0.85557 0.99746 0.0
C4 C 0.16203 0.84621 0.94989 0.0
C5 C 0.16868 0.84158 0.03765 0.0
C6 C 0.18279 0.81814 0.02992 0.0
C7 C 0.18656 0.80881 0.98218 0.0
C8 C 0.17595 0.82275 0.94273 0.0
N9 N 0.1996 0.78479 0.97202 0.0
C10 C 0.21845 0.77295 0.00215 0.0
H11 H 0.64788 0.63731 0.55831 0.0
H12 H 0.68475 0.70481 0.49725 0.0
H13 H 0.67233 0.70252 0.65081 0.0
C14 C 0.65754 0.65627 0.56315 0.0
C15 C 0.65945 0.66803 0.60959 0.0
C16 C 0.66634 0.66947 0.52238 0.0
C17 C 0.6781 0.69443 0.52857 0.0
C18 C 0.6805 0.7062 0.57522 0.0
C19 C 0.67071 0.69315 0.61513 0.0
N20 N 0.69163 0.73156 0.58332 0.0
C21 C 0.71078 0.74251 0.5551 0.0
H22 H 0.85995 0.13491 0.99136 0.0
H23 H 0.82577 0.20457 0.05335 0.0
H24 H 0.84384 0.20217 0.90224 0.0
C25 C 0.85232 0.15464 0.9869 0.0
C26 C 0.85291 0.16654 0.94129 0.0
C27 C 0.84306 0.16833 0.02761 0.0
C28 C 0.83276 0.1938 0.02205 0.0
C29 C 0.83248 0.20565 0.97624 0.0
C30 C 0.84309 0.19224 0.93664 0.0
N31 N 0.82308 0.2316 0.9691 0.0
C32 C 0.80266 0.24293 0.99427 0.0
H33 H 0.3704 0.36362 0.52608 0.0
H34 H 0.30461 0.34543 0.61338 0.0
H35 H 0.29953 0.33062 0.45928 0.0
C36 C 0.35081 0.35551 0.52925 0.0
C37 C 0.33656 0.34693 0.48721 0.0
C38 C 0.33958 0.35499 0.57501 0.0
C39 C 0.31392 0.34522 0.57857 0.0
C40 C 0.29972 0.33585 0.5373 0.0
C41 C 0.31098 0.33676 0.49148 0.0
N42 N 0.27316 0.32831 0.54227 0.0
C43 C 0.26275 0.30461 0.52459 0.0
C44 C 0.03074 0.97434 0.40828 0.0
N45 N 0.04693 0.04752 0.47685 0.0
C46 C 0.07285 0.04088 0.47624 0.0
C47 C 0.09224 0.0604 0.47573 0.0
C48 C 0.08494 0.08708 0.47604 0.0
C49 C 0.058 0.0933 0.47684 0.0
C50 C 0.03929 0.07316 0.47711 0.0
Zn51 Zn 0.01877 0.01856 0.47698 0.0
C52 C 0.97485 0.02843 0.40548 0.0
N53 N 0.96011 0.95798 0.47712 0.0
C54 C 0.96691 0.93209 0.47742 0.0
C55 C 0.93441 0.96547 0.47631 0.0
C56 C 0.91437 0.94665 0.47569 0.0
C57 C 0.92074 0.91976 0.47587 0.0
C58 C 0.94747 0.91257 0.47684 0.0
Zn59 Zn 0.98855 0.98666 0.47735 0.0
O60 O 0.0391 0.99667 0.42372 0.0
C61 C 0.03199 0.97716 0.54973 0.0
O62 O 0.0094 0.96529 0.42408 0.0
H63 H 0.92939 0.98614 0.47622 0.0
H64 H 0.07853 0.02038 0.47598 0.0
H65 H 0.98746 0.92654 0.47796 0.0
O66 O 0.0403 0.99867 0.53292 0.0
O67 O 0.01048 0.96736 0.5327 0.0
H68 H 0.0186 0.07805 0.47765 0.0
O69 O 0.96855 0.00824 0.53142 0.0
O70 O 0.99802 0.03982 0.53029 0.0
O71 O 0.96688 0.00673 0.42193 0.0
O72 O 0.99662 0.03803 0.42167 0.0
C73 C 0.97711 0.03044 0.54712 0.0
H74 H 0.1127 0.05461 0.47454 0.0
H75 H 0.0514 0.11354 0.47794 0.0
H76 H 0.89409 0.95315 0.47578 0.0
H77 H 0.9533 0.89209 0.47655 0.0
C78 C 0.47915 0.4768 0.98381 0.0
N79 N 0.55061 0.45902 0.05789 0.0
C80 C 0.54378 0.43311 0.05702 0.0
C81 C 0.56319 0.41363 0.05773 0.0
C82 C 0.58993 0.42085 0.05943 0.0
C83 C 0.59634 0.44776 0.06007 0.0
C84 C 0.57633 0.46656 0.0593 0.0
Zn85 Zn 0.522 0.48747 0.05799 0.0
C86 C 0.53357 0.53088 0.98979 0.0
N87 N 0.46296 0.54758 0.05872 0.0
C88 C 0.43715 0.54037 0.05638 0.0
C89 C 0.47011 0.57337 0.06262 0.0
C90 C 0.45096 0.59304 0.06468 0.0
C91 C 0.42413 0.58618 0.06264 0.0
C92 C 0.41737 0.55939 0.05822 0.0
Zn93 Zn 0.49146 0.51902 0.05793 0.0
O94 O 0.5004 0.46719 0.00167 0.0
C95 C 0.47932 0.4754 0.12516 0.0
O96 O 0.47079 0.49862 0.00044 0.0
H97 H 0.49073 0.57871 0.06456 0.0
H98 H 0.52322 0.42752 0.05601 0.0
H99 H 0.43185 0.51977 0.05323 0.0
O100 O 0.50113 0.46655 0.11067 0.0
O101 O 0.47073 0.49719 0.10913 0.0
H102 H 0.58137 0.48724 0.05984 0.0
O103 O 0.51292 0.53903 0.11505 0.0
O104 O 0.54321 0.50834 0.11423 0.0
O105 O 0.51245 0.54017 0.00649 0.0
O106 O 0.54215 0.50886 0.00485 0.0
C107 C 0.53473 0.52996 0.13142 0.0
H108 H 0.55731 0.39315 0.05767 0.0
H109 H 0.61665 0.45427 0.06057 0.0
H110 H 0.45715 0.61338 0.06864 0.0
H111 H 0.39698 0.55315 0.05571 0.0
H112 H 0.24971 0.26933 0.59021 0.0
H113 H 0.22194 0.23022 0.57642 0.0
H114 H 0.21641 0.2463 0.42307 0.0
H115 H 0.24431 0.28564 0.43701 0.0
H116 H 0.16914 0.23349 0.53298 0.0
H117 H 0.23445 0.16547 0.4324 0.0
H118 H 0.24714 0.1924 0.47013 0.0
H119 H 0.23213 0.1988 0.41158 0.0
C120 C 0.24293 0.26417 0.55348 0.0
C121 C 0.24912 0.28012 0.51454 0.0
C122 C 0.22707 0.24194 0.54567 0.0
C123 C 0.2173 0.23529 0.49872 0.0
C124 C 0.22408 0.25092 0.45946 0.0
H125 H 0.08264 0.13388 0.42788 0.0
H126 H 0.11493 0.16964 0.43141 0.0
C127 C 0.23992 0.2733 0.46737 0.0
C128 C 0.19838 0.21322 0.4919 0.0
H129 H 0.19069 0.15132 0.44296 0.0
C130 C 0.1738 0.21555 0.51318 0.0
C131 C 0.20465 0.18983 0.46633 0.0
C132 C 0.23107 0.18621 0.44397 0.0
C133 C 0.15525 0.19509 0.5095 0.0
C134 C 0.1614 0.17176 0.48364 0.0
C135 C 0.18602 0.16934 0.46249 0.0
C136 C 0.14257 0.14952 0.4793 0.0
C137 C 0.12935 0.19834 0.53405 0.0
C138 C 0.14766 0.12624 0.50447 0.0
C139 C 0.12912 0.10585 0.50303 0.0
C140 C 0.10519 0.10831 0.47605 0.0
C141 C 0.10056 0.13148 0.44982 0.0
C142 C 0.11906 0.15189 0.45151 0.0
H143 H 0.12952 0.21551 0.55959 0.0
H144 H 0.11343 0.20129 0.50603 0.0
H145 H 0.12457 0.18037 0.55435 0.0
H146 H 0.1657 0.12411 0.52625 0.0
H147 H 0.13326 0.08846 0.52411 0.0
H148 H 0.26959 0.77767 0.98383 0.0
H149 H 0.30474 0.7468 0.00686 0.0
H150 H 0.25011 0.70304 0.09068 0.0
H151 H 0.21476 0.73372 0.06665 0.0
H152 H 0.32733 0.72913 0.09389 0.0
H153 H 0.27451 0.64845 0.99184 0.0
H154 H 0.26472 0.68243 0.98723 0.0
H155 H 0.25628 0.66377 0.03929 0.0
C156 C 0.26533 0.76177 0.00807 0.0
C157 C 0.23972 0.75793 0.02375 0.0
C158 C 0.28534 0.74414 0.02109 0.0
C159 C 0.27994 0.72234 0.04974 0.0
C160 C 0.25459 0.71943 0.06779 0.0
H161 H 0.37768 0.58443 0.1103 0.0
H162 H 0.34299 0.61773 0.11186 0.0
C163 C 0.23451 0.73705 0.05453 0.0
C164 C 0.30041 0.70187 0.05758 0.0
H165 H 0.31493 0.63773 0.03083 0.0
C166 C 0.32458 0.7091 0.08037 0.0
C167 C 0.29683 0.67576 0.03966 0.0
C168 C 0.2718 0.66709 0.01275 0.0
C169 C 0.34529 0.69095 0.0856 0.0
C170 C 0.34182 0.66501 0.06698 0.0
C171 C 0.31749 0.65762 0.04516 0.0
C172 C 0.36346 0.64543 0.06794 0.0
C173 C 0.37068 0.69965 0.11111 0.0
C174 C 0.38637 0.64985 0.04231 0.0
C175 C 0.40614 0.63076 0.04093 0.0
C176 C 0.40335 0.60677 0.06499 0.0
C177 C 0.38036 0.60249 0.09081 0.0
C178 C 0.36059 0.62158 0.09207 0.0
H179 H 0.36781 0.7174 0.13446 0.0
H180 H 0.37911 0.68371 0.1339 0.0
H181 H 0.38519 0.70462 0.08354 0.0
H182 H 0.38872 0.66785 0.02245 0.0
H183 H 0.42332 0.63456 0.01999 0.0
H184 H 0.70702 0.78115 0.48921 0.0
H185 H 0.74326 0.80897 0.46283 0.0
H186 H 0.7984 0.76342 0.54948 0.0
H187 H 0.76229 0.73545 0.57493 0.0
H188 H 0.77354 0.83941 0.52442 0.0
H189 H 0.83782 0.77066 0.42545 0.0
H190 H 0.80422 0.76267 0.43861 0.0
H191 H 0.83009 0.75908 0.48442 0.0
C192 C 0.72703 0.77673 0.50133 0.0
C193 C 0.73215 0.75614 0.53344 0.0
C194 C 0.74766 0.79262 0.48649 0.0
C195 C 0.77363 0.78807 0.50362 0.0
C196 C 0.7787 0.76691 0.53473 0.0
H197 H 0.91982 0.87402 0.52721 0.0
H198 H 0.88399 0.84191 0.5297 0.0
C199 C 0.75809 0.75102 0.54942 0.0
C200 C 0.79492 0.80702 0.49344 0.0
H201 H 0.85739 0.81163 0.45245 0.0
C202 C 0.79172 0.83341 0.50802 0.0
C203 C 0.81871 0.79914 0.47235 0.0
C204 C 0.82285 0.77139 0.45387 0.0
C205 C 0.81195 0.85193 0.50357 0.0
C206 C 0.83592 0.84393 0.48338 0.0
C207 C 0.83901 0.81767 0.46805 0.0
C208 C 0.85818 0.86251 0.47913 0.0
C209 C 0.80786 0.87971 0.52209 0.0
C210 C 0.85575 0.88442 0.44905 0.0
C211 C 0.87621 0.90274 0.44738 0.0
C212 C 0.89957 0.89948 0.47567 0.0
C213 C 0.90222 0.87705 0.50467 0.0
C214 C 0.88173 0.85872 0.50628 0.0
H215 H 0.79074 0.8812 0.54593 0.0
H216 H 0.82567 0.88702 0.54271 0.0
H217 H 0.80419 0.8928 0.49076 0.0
H218 H 0.83791 0.88744 0.42712 0.0
H219 H 0.87371 0.91948 0.42388 0.0
H220 H 0.75233 0.23801 0.9627 0.0
H221 H 0.71555 0.26673 0.98403 0.0
H222 H 0.76648 0.3087 0.0877 0.0
H223 H 0.80341 0.28016 0.06564 0.0
H224 H 0.69101 0.27955 0.07121 0.0
H225 H 0.7409 0.36619 0.9951 0.0
H226 H 0.75213 0.33295 0.985 0.0
H227 H 0.75949 0.3496 0.04203 0.0
C228 C 0.75544 0.25309 0.99066 0.0
C229 C 0.78044 0.25703 0.01273 0.0
C230 C 0.7345 0.26947 0.00276 0.0
C231 C 0.73839 0.29013 0.03684 0.0
C232 C 0.76317 0.29318 0.06068 0.0
H233 H 0.63661 0.42153 0.11258 0.0
H234 H 0.67208 0.38908 0.11104 0.0
C235 C 0.78415 0.2768 0.04845 0.0
C236 C 0.7169 0.30927 0.04508 0.0
H237 H 0.69998 0.37372 0.03032 0.0
C238 C 0.69297 0.30016 0.06247 0.0
C239 C 0.71949 0.33614 0.03341 0.0
C240 C 0.74427 0.34685 0.01245 0.0
C241 C 0.67158 0.31725 0.0687 0.0
C242 C 0.6741 0.34404 0.05649 0.0
C243 C 0.69814 0.35319 0.03978 0.0
C244 C 0.65187 0.36285 0.05937 0.0
C245 C 0.64656 0.30655 0.08867 0.0
C246 C 0.62878 0.35895 0.0306 0.0
C247 C 0.60851 0.37755 0.03112 0.0
C248 C 0.61103 0.40054 0.06021 0.0
C249 C 0.63414 0.40424 0.08927 0.0
C250 C 0.65438 0.38564 0.0887 0.0
H251 H 0.65013 0.28796 0.10846 0.0
H252 H 0.63754 0.32107 0.11365 0.0
H253 H 0.63224 0.30232 0.05814 0.0
H254 H 0.62668 0.34182 0.0068 0.0
H255 H 0.59119 0.37426 0.00771 0.0
H256 H 0.14524 0.8138 0.10818 0.0
H257 H 0.12502 0.83203 0.18116 0.0
H258 H 0.15575 0.90874 0.14994 0.0
H259 H 0.17596 0.89066 0.07716 0.0
H260 H 0.15639 0.89228 0.25576 0.0
H261 H 0.05998 0.88317 0.15365 0.0
H262 H 0.08057 0.85442 0.15704 0.0
H263 H 0.09094 0.88228 0.1235 0.0
C264 C 0.14838 0.83435 0.11784 0.0
C265 C 0.16202 0.85088 0.08702 0.0
C266 C 0.13667 0.84476 0.15923 0.0
C267 C 0.13866 0.87177 0.17044 0.0
C268 C 0.15397 0.88787 0.14178 0.0
H269 H 0.07446 0.98958 0.3609 0.0
H270 H 0.1009 0.96311 0.30616 0.0
C271 C 0.16547 0.87754 0.10029 0.0
C272 C 0.12262 0.88393 0.20861 0.0
H273 H 0.05985 0.90329 0.23091 0.0
C274 C 0.13525 0.89451 0.25068 0.0
C275 C 0.09508 0.88679 0.20168 0.0
C276 C 0.0807 0.87624 0.15648 0.0
C277 C 0.121 0.90804 0.28609 0.0
C278 C 0.09353 0.9117 0.27838 0.0
C279 C 0.08089 0.90055 0.23675 0.0
C280 C 0.07761 0.9277 0.31211 0.0
C281 C 0.13549 0.91807 0.33152 0.0
C282 C 0.05508 0.91696 0.33224 0.0
C283 C 0.03962 0.9322 0.3629 0.0
C284 C 0.04638 0.95853 0.37402 0.0
C285 C 0.06877 0.96933 0.35333 0.0
C286 C 0.0841 0.95413 0.32241 0.0
H287 H 0.15378 0.90666 0.33907 0.0
H288 H 0.14124 0.93889 0.32656 0.0
H289 H 0.12296 0.91708 0.36364 0.0
H290 H 0.04954 0.89669 0.32446 0.0
H291 H 0.02254 0.92325 0.3783 0.0
H292 H 0.62806 0.68861 0.67919 0.0
H293 H 0.60837 0.66546 0.7463 0.0
H294 H 0.64623 0.59358 0.70164 0.0
H295 H 0.66612 0.61661 0.63458 0.0
H296 H 0.57499 0.61683 0.73157 0.0
H297 H 0.66391 0.60384 0.85283 0.0
H298 H 0.66161 0.6293 0.80788 0.0
H299 H 0.66697 0.59578 0.78933 0.0
C300 C 0.6325 0.66797 0.68413 0.0
C301 C 0.64866 0.65441 0.65175 0.0
C302 C 0.62115 0.65477 0.72225 0.0
C303 C 0.62605 0.62792 0.729 0.0
C304 C 0.64245 0.61439 0.69722 0.0
H305 H 0.57506 0.51382 0.93701 0.0
H306 H 0.59721 0.53735 0.87331 0.0
C307 C 0.65363 0.62751 0.65884 0.0
C308 C 0.61302 0.61375 0.76791 0.0
H309 H 0.62469 0.58337 0.87607 0.0
C310 C 0.58577 0.60957 0.76331 0.0
C311 C 0.62728 0.60415 0.80883 0.0
C312 C 0.65656 0.60855 0.81549 0.0
C313 C 0.57236 0.5957 0.79843 0.0
C314 C 0.58653 0.58643 0.83993 0.0
C315 C 0.61385 0.59056 0.84435 0.0
C316 C 0.57334 0.57243 0.87913 0.0
C317 C 0.54328 0.59052 0.79004 0.0
C318 C 0.5529 0.58452 0.90416 0.0
C319 C 0.54007 0.57105 0.94024 0.0
C320 C 0.5477 0.54536 0.95252 0.0
C321 C 0.56867 0.53356 0.92833 0.0
C322 C 0.58136 0.54698 0.89195 0.0
H323 H 0.53724 0.59189 0.75097 0.0
H324 H 0.5378 0.57074 0.80291 0.0
H325 H 0.53199 0.60548 0.81041 0.0
H326 H 0.54686 0.6044 0.8958 0.0
H327 H 0.52418 0.58082 0.95853 0.0
H328 H 0.82757 0.11991 0.05673 0.0
H329 H 0.84363 0.09681 0.12923 0.0
H330 H 0.88616 0.1665 0.17799 0.0
H331 H 0.86945 0.1898 0.10632 0.0
H332 H 0.89411 0.08655 0.14439 0.0
H333 H 0.8598 0.14197 0.30479 0.0
H334 H 0.84572 0.14671 0.24444 0.0
H335 H 0.87603 0.16286 0.26346 0.0
C336 C 0.8396 0.13051 0.08388 0.0
C337 C 0.84722 0.15663 0.07615 0.0
C338 C 0.84885 0.1173 0.12515 0.0
C339 C 0.86603 0.12991 0.15929 0.0
C340 C 0.87245 0.1565 0.15292 0.0
H341 H 0.98296 0.0779 0.37127 0.0
H342 H 0.95521 0.102 0.31272 0.0
C343 C 0.86292 0.16982 0.11189 0.0
C344 C 0.87997 0.11433 0.19745 0.0
H345 H 0.89654 0.11288 0.31883 0.0
C346 C 0.89428 0.09212 0.18261 0.0
C347 C 0.8804 0.12167 0.24733 0.0
C348 C 0.86444 0.14445 0.26602 0.0
C349 C 0.90946 0.07748 0.21596 0.0
C350 C 0.91033 0.08517 0.26552 0.0
C351 C 0.89587 0.10715 0.28066 0.0
C352 C 0.92658 0.07075 0.30188 0.0
C353 C 0.92509 0.05429 0.19786 0.0
C354 C 0.91955 0.04526 0.31517 0.0
C355 C 0.93531 0.03143 0.34861 0.0
C356 C 0.95846 0.04284 0.36921 0.0
C357 C 0.96537 0.06846 0.35585 0.0
C358 C 0.94949 0.08233 0.32263 0.0
H359 H 0.92564 0.05348 0.15756 0.0
H360 H 0.94559 0.05512 0.21319 0.0
H361 H 0.916 0.03581 0.21013 0.0
H362 H 0.90183 0.03609 0.29967 0.0
H363 H 0.92935 0.01179 0.35828 0.0
H364 H 0.34461 0.33427 0.66599 0.0
H365 H 0.36828 0.35324 0.73753 0.0
H366 H 0.39045 0.42003 0.65354 0.0
H367 H 0.36705 0.40115 0.58204 0.0
H368 H 0.43183 0.40042 0.70777 0.0
H369 H 0.34483 0.41503 0.82146 0.0
H370 H 0.34905 0.38183 0.79972 0.0
H371 H 0.3419 0.40751 0.75718 0.0
C372 C 0.35441 0.35307 0.66296 0.0
C373 C 0.35401 0.36621 0.61843 0.0
C374 C 0.36785 0.36391 0.70383 0.0
C375 C 0.38082 0.38822 0.701 0.0
C376 C 0.38057 0.40125 0.65651 0.0
H377 H 0.43557 0.49381 0.93242 0.0
H378 H 0.41223 0.47141 0.86433 0.0
C379 C 0.36729 0.39039 0.61565 0.0
C380 C 0.39502 0.40004 0.74405 0.0
H381 H 0.38664 0.42372 0.8593 0.0
C382 C 0.42198 0.4055 0.74095 0.0
C383 C 0.38201 0.40693 0.78702 0.0
C384 C 0.35281 0.40278 0.79159 0.0
C385 C 0.43633 0.41766 0.77967 0.0
C386 C 0.42346 0.42401 0.82305 0.0
C387 C 0.39649 0.4186 0.82614 0.0
C388 C 0.43745 0.43713 0.86504 0.0
C389 C 0.46494 0.42425 0.77321 0.0
C390 C 0.45913 0.4251 0.8885 0.0
C391 C 0.47263 0.43793 0.92724 0.0
C392 C 0.46451 0.46291 0.94357 0.0
C393 C 0.44239 0.47462 0.92068 0.0
C394 C 0.429 0.46184 0.8818 0.0
H395 H 0.46987 0.42437 0.73423 0.0
H396 H 0.47001 0.44377 0.78977 0.0
H397 H 0.47743 0.4092 0.79143 0.0
H398 H 0.46562 0.40579 0.87685 0.0
H399 H 0.48944 0.42825 0.94435 0.0
H400 H 0.67878 0.62021 0.49037 0.0
H401 H 0.66158 0.59771 0.41652 0.0
H402 H 0.62217 0.66904 0.37247 0.0
H403 H 0.64004 0.69175 0.44563 0.0
H404 H 0.61056 0.58952 0.39973 0.0
H405 H 0.64881 0.64368 0.2444 0.0
H406 H 0.66258 0.64768 0.30546 0.0
H407 H 0.63303 0.66491 0.28713 0.0
C408 C 0.66712 0.63125 0.46409 0.0
C409 C 0.66077 0.6577 0.47349 0.0
C410 C 0.65723 0.61839 0.42203 0.0
C411 C 0.64067 0.63167 0.38872 0.0
C412 C 0.63538 0.6585 0.39693 0.0
H413 H 0.52573 0.57956 0.16747 0.0
H414 H 0.55236 0.6042 0.22881 0.0
C415 C 0.64556 0.67147 0.43879 0.0
C416 C 0.62643 0.61666 0.34908 0.0
H417 H 0.61203 0.61499 0.22679 0.0
C418 C 0.61118 0.59494 0.36187 0.0
C419 C 0.62703 0.62383 0.29967 0.0
C420 C 0.64395 0.64614 0.28324 0.0
C421 C 0.59623 0.58049 0.32686 0.0
C422 C 0.59657 0.58788 0.27772 0.0
C423 C 0.6118 0.60949 0.26466 0.0
C424 C 0.58105 0.57328 0.23956 0.0
C425 C 0.57973 0.5577 0.34267 0.0
C426 C 0.58852 0.54782 0.22531 0.0
C427 C 0.57342 0.53371 0.19028 0.0
C428 C 0.5505 0.54478 0.16905 0.0
C429 C 0.54316 0.57039 0.18334 0.0
C430 C 0.5584 0.58455 0.21815 0.0
H431 H 0.57839 0.55708 0.38282 0.0
H432 H 0.55953 0.55887 0.32608 0.0
H433 H 0.58863 0.53898 0.32998 0.0
H434 H 0.60603 0.53888 0.24137 0.0
H435 H 0.57969 0.51409 0.17997 0.0
H436 H 0.83758 0.16818 0.84439 0.0
H437 H 0.85807 0.14622 0.77594 0.0
H438 H 0.91446 0.10991 0.87451 0.0
H439 H 0.89565 0.13348 0.94253 0.0
H440 H 0.9384 0.12671 0.80033 0.0
H441 H 0.85024 0.07185 0.73113 0.0
H442 H 0.84485 0.10669 0.73244 0.0
H443 H 0.85104 0.08959 0.78845 0.0
C444 C 0.85452 0.15576 0.85157 0.0
C445 C 0.86475 0.15253 0.89931 0.0
C446 C 0.86594 0.14282 0.81234 0.0
C447 C 0.88742 0.12585 0.82007 0.0
C448 C 0.89774 0.12268 0.86757 0.0
H449 H 0.94306 0.0106 0.61151 0.0
H450 H 0.92176 0.03418 0.67751 0.0
C451 C 0.88668 0.13597 0.90664 0.0
C452 C 0.89986 0.11205 0.77875 0.0
H453 H 0.88711 0.07169 0.68017 0.0
C454 C 0.92718 0.11457 0.77421 0.0
C455 C 0.88533 0.09586 0.74502 0.0
C456 C 0.8563 0.09059 0.74975 0.0
C457 C 0.94037 0.10144 0.73704 0.0
C458 C 0.92567 0.08622 0.70201 0.0
C459 C 0.89835 0.08362 0.70661 0.0
C460 C 0.93831 0.07217 0.66121 0.0
C461 C 0.97001 0.1034 0.73685 0.0
C462 C 0.95437 0.08569 0.62949 0.0
C463 C 0.96702 0.07213 0.59241 0.0
C464 C 0.96322 0.04492 0.58545 0.0
C465 C 0.94636 0.03157 0.61601 0.0
C466 C 0.93416 0.04504 0.65371 0.0
H467 H 0.97854 0.10846 0.77358 0.0
H468 H 0.97894 0.08466 0.7243 0.0
H469 H 0.97563 0.11924 0.71201 0.0
H470 H 0.95719 0.10675 0.63342 0.0
H471 H 0.97961 0.08299 0.56895 0.0
H472 H 0.31327 0.37268 0.41119 0.0
H473 H 0.33513 0.39011 0.3406 0.0
H474 H 0.40705 0.35121 0.3857 0.0
H475 H 0.38532 0.33376 0.45631 0.0
H476 H 0.38207 0.42316 0.36035 0.0
H477 H 0.40062 0.33922 0.23392 0.0
H478 H 0.3744 0.33896 0.27659 0.0
H479 H 0.40783 0.33383 0.29745 0.0
C480 C 0.33345 0.36706 0.40503 0.0
C481 C 0.34763 0.35189 0.43915 0.0
C482 C 0.34594 0.37715 0.36491 0.0
C483 C 0.37265 0.37185 0.35791 0.0
C484 C 0.38634 0.35524 0.39012 0.0
H485 H 0.49435 0.43208 0.17705 0.0
H486 H 0.46791 0.40705 0.23285 0.0
C487 C 0.37395 0.34537 0.43047 0.0
C488 C 0.38714 0.38655 0.3214 0.0
H489 H 0.42233 0.37944 0.21874 0.0
C490 C 0.39067 0.41369 0.32907 0.0
C491 C 0.39866 0.374 0.28126 0.0
C492 C 0.39513 0.34491 0.27136 0.0
C493 C 0.40587 0.42862 0.29817 0.0
C494 C 0.41722 0.41618 0.25756 0.0
C495 C 0.41358 0.38898 0.24977 0.0
C496 C 0.43305 0.43108 0.22302 0.0
C497 C 0.41037 0.45739 0.31044 0.0
C498 C 0.42216 0.45269 0.19848 0.0
C499 C 0.43731 0.46724 0.1672 0.0
C500 C 0.46356 0.46017 0.15908 0.0
C501 C 0.47425 0.43812 0.18275 0.0
C502 C 0.45914 0.42374 0.2145 0.0
H503 H 0.40718 0.46183 0.34945 0.0
H504 H 0.43064 0.46358 0.30203 0.0
H505 H 0.39622 0.46938 0.28865 0.0
H506 H 0.40187 0.45831 0.20343 0.0
H507 H 0.42833 0.48386 0.14898 0.0
H508 H 0.11274 0.86749 0.94167 0.0
H509 H 0.09269 0.89021 0.87215 0.0
H510 H 0.1639 0.87962 0.7936 0.0
H511 H 0.18416 0.85686 0.86315 0.0
H512 H 0.10883 0.93557 0.82664 0.0
H513 H 0.10685 0.84946 0.69935 0.0
H514 H 0.11284 0.84633 0.76401 0.0
H515 H 0.13872 0.85717 0.72629 0.0
C516 C 0.12423 0.87017 0.90976 0.0
C517 C 0.15004 0.86035 0.90786 0.0
C518 C 0.1127 0.88306 0.87001 0.0
C519 C 0.12669 0.88629 0.82753 0.0
C520 C 0.15258 0.87685 0.82569 0.0
H521 H 0.07902 0.99212 0.59365 0.0
H522 H 0.10303 0.97042 0.66034 0.0
C523 C 0.16412 0.86388 0.86542 0.0
C524 C 0.11409 0.89969 0.78541 0.0
H525 H 0.09363 0.89037 0.66685 0.0
C526 C 0.10554 0.92574 0.79165 0.0
C527 C 0.10957 0.88667 0.74003 0.0
C528 C 0.11724 0.85829 0.73192 0.0
C529 C 0.09259 0.93917 0.75364 0.0
C530 C 0.0885 0.9263 0.708 0.0
C531 C 0.09702 0.90024 0.70178 0.0
C532 C 0.07447 0.93918 0.66677 0.0
C533 C 0.08277 0.96674 0.76308 0.0
C534 C 0.05084 0.9284 0.64743 0.0
C535 C 0.03717 0.94063 0.60915 0.0
C536 C 0.04693 0.96385 0.58936 0.0
C537 C 0.07087 0.97436 0.60828 0.0
C538 C 0.08456 0.96207 0.64655 0.0
H539 H 0.08187 0.97133 0.8026 0.0
H540 H 0.09638 0.98103 0.74715 0.0
H541 H 0.06289 0.96959 0.74592 0.0
H542 H 0.04278 0.91068 0.66242 0.0
H543 H 0.01883 0.93196 0.59538 0.0
loop_
_geom_bond_atom_site_label_1
_geom_bond_atom_site_label_2
_geom_bond_distance
_geom_bond_site_symmetry_2
_ccdc_geom_bond_type
H0 C3 0.929 . S
H1 C6 0.929 . S
H2 C8 0.930 . S
C3 H0 0.929 . S
C3 C4 1.398 1_554 S
C3 C5 1.396 . S
C4 C3 1.398 1_556 S
C4 C8 1.407 . S
C5 C3 1.396 . S
C5 C6 1.394 . S
C6 H1 0.929 . S
C6 C5 1.394 . S
C6 C7 1.382 . S
C7 C6 1.382 . S
C7 C8 1.392 1_554 S
C7 N9 1.420 . S
C8 H2 0.930 . S
C8 C4 1.407 . S
C8 C7 1.392 1_556 S
N9 C7 1.420 . S
N9 C10 1.244 . S
C10 N9 1.244 . S
H11 C14 0.929 . S
H12 C17 0.929 . S
H13 C19 0.930 . S
C14 H11 0.929 . S
C14 C15 1.398 . S
C14 C16 1.396 . S
C15 C14 1.398 . S
C15 C19 1.407 . S
C16 C14 1.396 . S
C16 C17 1.394 . S
C17 H12 0.929 . S
C17 C16 1.394 . S
C17 C18 1.382 . S
C18 C17 1.382 . S
C18 C19 1.392 . S
C18 N20 1.420 . S
C19 H13 0.930 . S
C19 C15 1.407 . S
C19 C18 1.392 . S
N20 C18 1.420 . S
N20 C21 1.244 . S
C21 N20 1.244 . S
H22 C25 0.929 . S
H23 C28 0.929 . S
H24 C30 0.930 . S
C25 H22 0.929 . S
C25 C26 1.398 1_554 S
C25 C27 1.396 . S
C26 C25 1.398 1_556 S
C26 C30 1.407 . S
C27 C25 1.396 . S
C27 C28 1.394 . S
C28 H23 0.929 . S
C28 C27 1.394 . S
C28 C29 1.363 1_554 S
C29 C28 1.363 1_556 S
C29 C30 1.409 . S
C29 N31 1.423 . S
C30 H24 0.930 . S
C30 C26 1.407 . S
C30 C29 1.409 . S
N31 C29 1.423 . S
N31 C32 1.244 1_556 S
C32 N31 1.244 1_554 S
H33 C36 0.929 . S
H34 C39 0.929 . S
H35 C41 0.930 . S
C36 H33 0.929 . S
C36 C37 1.398 . S
C36 C38 1.396 . S
C37 C36 1.398 . S
C37 C41 1.407 . S
C38 C36 1.396 . S
C38 C39 1.394 . S
C39 H34 0.929 . S
C39 C38 1.394 . S
C39 C40 1.382 . S
C40 C39 1.382 . S
C40 C41 1.392 . S
C40 N42 1.420 . S
C41 H35 0.930 . S
C41 C37 1.407 . S
C41 C40 1.392 . S
N42 C40 1.420 . S
N42 C43 1.244 . S
C43 N42 1.244 . S
C44 O60 1.262 . S
C44 O62 1.254 . S
N45 C46 1.333 . S
N45 C50 1.307 . S
N45 Zn51 2.020 . S
C46 N45 1.333 . S
C46 C47 1.379 . S
C46 H64 0.952 . S
C47 C46 1.379 . S
C47 C48 1.390 . S
C47 H74 0.949 . S
C48 C47 1.390 . S
C48 C49 1.357 . S
C49 C48 1.357 . S
C49 C50 1.370 . S
C49 H75 0.950 . S
C50 N45 1.307 . S
C50 C49 1.370 . S
C50 H68 0.948 . S
Zn51 N45 2.020 . S
Zn51 O60 2.032 1_545 S
Zn51 O66 2.034 1_545 S
Zn51 O70 2.025 1_455 S
Zn51 O72 2.024 1_455 S
C52 O71 1.246 . S
C52 O72 1.249 . S
N53 C54 1.307 . S
N53 C55 1.333 . S
N53 Zn59 2.020 . S
C54 N53 1.307 . S
C54 C58 1.370 . S
C54 H65 0.948 . S
C55 N53 1.333 . S
C55 C56 1.379 . S
C55 H63 0.952 . S
C56 C55 1.379 . S
C56 C57 1.390 . S
C56 H76 0.949 . S
C57 C56 1.390 . S
C57 C58 1.357 . S
C58 C54 1.370 . S
C58 C57 1.357 . S
C58 H77 0.950 . S
Zn59 N53 2.020 . S
Zn59 O62 2.025 1_655 S
Zn59 O67 2.024 1_655 S
Zn59 O69 2.039 1_565 S
Zn59 O71 2.034 1_565 S
O60 C44 1.262 . S
O60 Zn51 2.032 1_565 S
C61 O66 1.246 . S
C61 O67 1.249 . S
O62 C44 1.254 . S
O62 Zn59 2.025 1_455 S
H63 C55 0.952 . S
H64 C46 0.952 . S
H65 C54 0.948 . S
O66 Zn51 2.034 1_565 S
O66 C61 1.246 . S
O67 Zn59 2.024 1_455 S
O67 C61 1.249 . S
H68 C50 0.948 . S
O69 Zn59 2.039 1_545 S
O69 C73 1.251 . S
O70 Zn51 2.025 1_655 S
O70 C73 1.254 . S
O71 C52 1.246 . S
O71 Zn59 2.034 1_545 S
O72 Zn51 2.024 1_655 S
O72 C52 1.249 . S
C73 O69 1.251 . S
C73 O70 1.254 . S
H74 C47 0.949 . S
H75 C49 0.950 . S
H76 C56 0.949 . S
H77 C58 0.950 . S
C78 O94 1.251 . S
C78 O96 1.254 . S
N79 C80 1.333 . S
N79 C84 1.307 . S
N79 Zn85 2.020 . S
C80 N79 1.333 . S
C80 C81 1.379 . S
C80 H98 0.952 . S
C81 C80 1.379 . S
C81 C82 1.390 . S
C81 H108 0.951 . S
C82 C81 1.390 . S
C82 C83 1.357 . S
C83 C82 1.357 . S
C83 C84 1.370 . S
C83 H109 0.950 . S
C84 N79 1.307 . S
C84 C83 1.370 . S
C84 H102 0.948 . S
Zn85 N79 2.020 . S
Zn85 O94 2.039 1_554 S
Zn85 O100 2.034 . S
Zn85 O104 2.025 . S
Zn85 O106 2.024 1_554 S
C86 O105 1.246 . S
C86 O106 1.249 . S
N87 C88 1.307 . S
N87 C89 1.333 . S
N87 Zn93 2.020 . S
C88 N87 1.307 . S
C88 C92 1.370 . S
C88 H99 0.948 . S
C89 N87 1.333 . S
C89 C90 1.379 . S
C89 H97 0.952 . S
C90 C89 1.379 . S
C90 C91 1.390 . S
C90 H110 0.949 . S
C91 C90 1.390 . S
C91 C92 1.357 . S
C92 C88 1.370 . S
C92 C91 1.357 . S
C92 H111 0.950 . S
Zn93 N87 2.020 . S
Zn93 O96 2.025 1_554 S
Zn93 O101 2.024 . S
Zn93 O103 2.039 . S
Zn93 O105 2.034 1_554 S
O94 C78 1.251 . S
O94 Zn85 2.039 1_556 S
C95 O100 1.246 . S
C95 O101 1.249 . S
O96 C78 1.254 . S
O96 Zn93 2.025 1_556 S
H97 C89 0.952 . S
H98 C80 0.952 . S
H99 C88 0.948 . S
O100 Zn85 2.034 . S
O100 C95 1.246 . S
O101 Zn93 2.024 . S
O101 C95 1.249 . S
H102 C84 0.948 . S
O103 Zn93 2.039 . S
O103 C107 1.251 . S
O104 Zn85 2.025 . S
O104 C107 1.254 . S
O105 C86 1.246 . S
O105 Zn93 2.034 1_556 S
O106 Zn85 2.024 1_556 S
O106 C86 1.249 . S
C107 O103 1.251 . S
C107 O104 1.254 . S
H108 C81 0.951 . S
H109 C83 0.950 . S
H110 C90 0.949 . S
H111 C92 0.950 . S
H112 C120 0.929 . S
H113 C122 0.930 . S
H114 C124 0.930 . S
H115 C127 0.929 . S
H116 C130 0.930 . S
H117 C132 0.960 . S
H118 C132 0.960 . S
H119 C132 0.960 . S
C120 H112 0.929 . S
C120 C121 1.377 . S
C120 C122 1.384 . S
C121 C120 1.377 . S
C121 C127 1.390 . S
C122 H113 0.930 . S
C122 C120 1.384 . S
C122 C123 1.372 . S
C123 C122 1.372 . S
C123 C124 1.400 . S
C123 C128 1.490 . S
C124 H114 0.930 . S
C124 C123 1.400 . S
C124 C127 1.386 . S
H125 C141 0.930 . S
H126 C142 0.931 . S
C127 H115 0.929 . S
C127 C121 1.390 . S
C127 C124 1.386 . S
C128 C123 1.490 . S
C128 C130 1.395 . S
C128 C131 1.403 . S
H129 C135 0.930 . S
C130 H116 0.930 . S
C130 C128 1.395 . S
C130 C133 1.403 . S
C131 C128 1.403 . S
C131 C132 1.524 . S
C131 C135 1.400 . S
C132 H117 0.960 . S
C132 H118 0.960 . S
C132 H119 0.960 . S
C132 C131 1.524 . S
C133 C130 1.403 . S
C133 C134 1.392 . S
C133 C137 1.495 . S
C134 C133 1.392 . S
C134 C135 1.385 . S
C134 C136 1.478 . S
C135 H129 0.930 . S
C135 C131 1.400 . S
C135 C134 1.385 . S
C136 C134 1.478 . S
C136 C138 1.381 . S
C136 C142 1.383 . S
C137 C133 1.495 . S
C137 H143 0.959 . S
C137 H144 0.961 . S
C137 H145 0.960 . S
C138 C136 1.381 . S
C138 C139 1.394 . S
C138 H146 0.930 . S
C139 C138 1.394 . S
C139 C140 1.383 . S
C139 H147 0.929 . S
C140 C139 1.383 . S
C140 C141 1.377 . S
C141 H125 0.930 . S
C141 C140 1.377 . S
C141 C142 1.379 . S
C142 H126 0.931 . S
C142 C136 1.383 . S
C142 C141 1.379 . S
H143 C137 0.959 . S
H144 C137 0.961 . S
H145 C137 0.960 . S
H146 C138 0.930 . S
H147 C139 0.929 . S
H148 C156 0.929 . S
H149 C158 0.930 . S
H150 C160 0.930 . S
H151 C163 0.929 . S
H152 C166 0.930 . S
H153 C168 0.960 . S
H154 C168 0.960 . S
H155 C168 0.960 . S
C156 H148 0.929 . S
C156 C157 1.377 . S
C156 C158 1.384 . S
C157 C156 1.377 . S
C157 C163 1.390 . S
C158 H149 0.930 . S
C158 C156 1.384 . S
C158 C159 1.372 . S
C159 C158 1.372 . S
C159 C160 1.400 . S
C159 C164 1.490 . S
C160 H150 0.930 . S
C160 C159 1.400 . S
C160 C163 1.386 . S
H161 C177 0.930 . S
H162 C178 0.931 . S
C163 H151 0.929 . S
C163 C157 1.390 . S
C163 C160 1.386 . S
C164 C159 1.490 . S
C164 C166 1.395 . S
C164 C167 1.403 1_554 S
H165 C171 0.930 1_556 S
C166 H152 0.930 . S
C166 C164 1.395 . S
C166 C169 1.403 . S
C167 C164 1.403 1_556 S
C167 C168 1.524 . S
C167 C171 1.400 1_556 S
C168 H153 0.960 . S
C168 H154 0.960 . S
C168 H155 0.960 . S
C168 C167 1.524 . S
C169 C166 1.403 . S
C169 C170 1.392 . S
C169 C173 1.495 . S
C170 C169 1.392 . S
C170 C171 1.385 . S
C170 C172 1.478 . S
C171 H165 0.930 1_554 S
C171 C167 1.400 1_554 S
C171 C170 1.385 . S
C172 C170 1.478 . S
C172 C174 1.381 . S
C172 C178 1.383 . S
C173 C169 1.495 . S
C173 H179 0.959 . S
C173 H180 0.961 . S
C173 H181 0.960 . S
C174 C172 1.381 . S
C174 C175 1.394 . S
C174 H182 0.930 . S
C175 C174 1.394 . S
C175 C176 1.383 . S
C175 H183 0.929 . S
C176 C175 1.383 . S
C176 C177 1.377 . S
C177 H161 0.930 . S
C177 C176 1.377 . S
C177 C178 1.379 . S
C178 H162 0.931 . S
C178 C172 1.383 . S
C178 C177 1.379 . S
H179 C173 0.959 . S
H180 C173 0.961 . S
H181 C173 0.960 . S
H182 C174 0.930 . S
H183 C175 0.929 . S
H184 C192 0.929 . S
H185 C194 0.930 . S
H186 C196 0.930 . S
H187 C199 0.929 . S
H188 C202 0.930 . S
H189 C204 0.960 . S
H190 C204 0.960 . S
H191 C204 0.960 . S
C192 H184 0.929 . S
C192 C193 1.377 . S
C192 C194 1.384 . S
C193 C192 1.377 . S
C193 C199 1.390 . S
C194 H185 0.930 . S
C194 C192 1.384 . S
C194 C195 1.372 . S
C195 C194 1.372 . S
C195 C196 1.400 . S
C195 C200 1.490 . S
C196 H186 0.930 . S
C196 C195 1.400 . S
C196 C199 1.386 . S
H197 C213 0.930 . S
H198 C214 0.931 . S
C199 H187 0.929 . S
C199 C193 1.390 . S
C199 C196 1.386 . S
C200 C195 1.490 . S
C200 C202 1.395 . S
C200 C203 1.403 . S
H201 C207 0.930 . S
C202 H188 0.930 . S
C202 C200 1.395 . S
C202 C205 1.403 . S
C203 C200 1.403 . S
C203 C204 1.524 . S
C203 C207 1.400 . S
C204 H189 0.960 . S
C204 H190 0.960 . S
C204 H191 0.960 . S
C204 C203 1.524 . S
C205 C202 1.403 . S
C205 C206 1.392 . S
C205 C209 1.495 . S
C206 C205 1.392 . S
C206 C207 1.385 . S
C206 C208 1.478 . S
C207 H201 0.930 . S
C207 C203 1.400 . S
C207 C206 1.385 . S
C208 C206 1.478 . S
C208 C210 1.381 . S
C208 C214 1.383 . S
C209 C205 1.495 . S
C209 H215 0.959 . S
C209 H216 0.961 . S
C209 H217 0.960 . S
C210 C208 1.381 . S
C210 C211 1.394 . S
C210 H218 0.930 . S
C211 C210 1.394 . S
C211 C212 1.383 . S
C211 H219 0.929 . S
C212 C211 1.383 . S
C212 C213 1.377 . S
C213 H197 0.930 . S
C213 C212 1.377 . S
C213 C214 1.379 . S
C214 H198 0.931 . S
C214 C208 1.383 . S
C214 C213 1.379 . S
H215 C209 0.959 . S
H216 C209 0.961 . S
H217 C209 0.960 . S
H218 C210 0.930 . S
H219 C211 0.929 . S
H220 C228 0.929 . S
H221 C230 0.930 . S
H222 C232 0.930 . S
H223 C235 0.929 . S
H224 C238 0.930 . S
H225 C240 0.960 . S
H226 C240 0.960 . S
H227 C240 0.960 . S
C228 H220 0.929 . S
C228 C229 1.377 1_556 S
C228 C230 1.384 . S
C229 C228 1.377 1_554 S
C229 C235 1.390 . S
C230 H221 0.930 . S
C230 C228 1.384 . S
C230 C231 1.372 1_556 S
C231 C230 1.372 1_554 S
C231 C232 1.400 . S
C231 C236 1.490 . S
C232 H222 0.930 . S
C232 C231 1.400 . S
C232 C235 1.386 . S
H233 C249 0.930 . S
H234 C250 0.931 . S
C235 H223 0.929 . S
C235 C229 1.390 . S
C235 C232 1.386 . S
C236 C231 1.490 . S
C236 C238 1.395 . S
C236 C239 1.403 . S
H237 C243 0.930 . S
C238 H224 0.930 . S
C238 C236 1.395 . S
C238 C241 1.403 . S
C239 C236 1.403 . S
C239 C240 1.524 . S
C239 C243 1.400 . S
C240 H225 0.960 . S
C240 H226 0.960 . S
C240 H227 0.960 . S
C240 C239 1.524 . S
C241 C238 1.403 . S
C241 C242 1.392 . S
C241 C245 1.495 . S
C242 C241 1.392 . S
C242 C243 1.385 . S
C242 C244 1.478 . S
C243 H237 0.930 . S
C243 C239 1.400 . S
C243 C242 1.385 . S
C244 C242 1.478 . S
C244 C246 1.381 1_554 S
C244 C250 1.383 . S
C245 C241 1.495 . S
C245 H251 0.959 1_554 S
C245 H252 0.961 . S
C245 H253 0.960 1_554 S
C246 C244 1.381 1_556 S
C246 C247 1.394 . S
C246 H254 0.930 . S
C247 C246 1.394 . S
C247 C248 1.383 1_556 S
C247 H255 0.929 . S
C248 C247 1.383 1_554 S
C248 C249 1.377 . S
C249 H233 0.930 . S
C249 C248 1.377 . S
C249 C250 1.379 . S
C250 H234 0.931 . S
C250 C244 1.383 . S
C250 C249 1.379 . S
H251 C245 0.959 1_556 S
H252 C245 0.961 . S
H253 C245 0.960 1_556 S
H254 C246 0.930 . S
H255 C247 0.929 . S
H256 C264 0.929 . S
H257 C266 0.930 . S
H258 C268 0.930 . S
H259 C271 0.929 . S
H260 C274 0.930 . S
H261 C276 0.960 . S
H262 C276 0.960 . S
H263 C276 0.960 . S
C264 H256 0.929 . S
C264 C265 1.377 . S
C264 C266 1.384 . S
C265 C264 1.377 . S
C265 C271 1.390 . S
C266 H257 0.930 . S
C266 C264 1.384 . S
C266 C267 1.372 . S
C267 C266 1.372 . S
C267 C268 1.400 . S
C267 C272 1.490 . S
C268 H258 0.930 . S
C268 C267 1.400 . S
C268 C271 1.386 . S
H269 C285 0.930 . S
H270 C286 0.931 . S
C271 H259 0.929 . S
C271 C265 1.390 . S
C271 C268 1.386 . S
C272 C267 1.490 . S
C272 C274 1.395 . S
C272 C275 1.403 . S
H273 C279 0.930 . S
C274 H260 0.930 . S
C274 C272 1.395 . S
C274 C277 1.403 . S
C275 C272 1.403 . S
C275 C276 1.524 . S
C275 C279 1.400 . S
C276 H261 0.960 . S
C276 H262 0.960 . S
C276 H263 0.960 . S
C276 C275 1.524 . S
C277 C274 1.403 . S
C277 C278 1.392 . S
C277 C281 1.495 . S
C278 C277 1.392 . S
C278 C279 1.385 . S
C278 C280 1.478 . S
C279 H273 0.930 . S
C279 C275 1.400 . S
C279 C278 1.385 . S
C280 C278 1.478 . S
C280 C282 1.381 . S
C280 C286 1.383 . S
C281 C277 1.495 . S
C281 H287 0.959 . S
C281 H288 0.961 . S
C281 H289 0.960 . S
C282 C280 1.381 . S
C282 C283 1.394 . S
C282 H290 0.930 . S
C283 C282 1.394 . S
C283 C284 1.383 . S
C283 H291 0.929 . S
C284 C283 1.383 . S
C284 C285 1.377 . S
C285 H269 0.930 . S
C285 C284 1.377 . S
C285 C286 1.379 . S
C286 H270 0.931 . S
C286 C280 1.383 . S
C286 C285 1.379 . S
H287 C281 0.959 . S
H288 C281 0.961 . S
H289 C281 0.960 . S
H290 C282 0.930 . S
H291 C283 0.929 . S
H292 C300 0.929 . S
H293 C302 0.930 . S
H294 C304 0.930 . S
H295 C307 0.929 . S
H296 C310 0.930 . S
H297 C312 0.960 . S
H298 C312 0.960 . S
H299 C312 0.960 . S
C300 H292 0.929 . S
C300 C301 1.377 . S
C300 C302 1.384 . S
C301 C300 1.377 . S
C301 C307 1.390 . S
C302 H293 0.930 . S
C302 C300 1.384 . S
C302 C303 1.372 . S
C303 C302 1.372 . S
C303 C304 1.400 . S
C303 C308 1.490 . S
C304 H294 0.930 . S
C304 C303 1.400 . S
C304 C307 1.386 . S
H305 C321 0.930 . S
H306 C322 0.931 . S
C307 H295 0.929 . S
C307 C301 1.390 . S
C307 C304 1.386 . S
C308 C303 1.490 . S
C308 C310 1.395 . S
C308 C311 1.403 . S
H309 C315 0.930 . S
C310 H296 0.930 . S
C310 C308 1.395 . S
C310 C313 1.403 . S
C311 C308 1.403 . S
C311 C312 1.524 . S
C311 C315 1.400 . S
C312 H297 0.960 . S
C312 H298 0.960 . S
C312 H299 0.960 . S
C312 C311 1.524 . S
C313 C310 1.403 . S
C313 C314 1.392 . S
C313 C317 1.495 . S
C314 C313 1.392 . S
C314 C315 1.385 . S
C314 C316 1.478 . S
C315 H309 0.930 . S
C315 C311 1.400 . S
C315 C314 1.385 . S
C316 C314 1.478 . S
C316 C318 1.381 . S
C316 C322 1.383 . S
C317 C313 1.495 . S
C317 H323 0.959 . S
C317 H324 0.961 . S
C317 H325 0.960 . S
C318 C316 1.381 . S
C318 C319 1.394 . S
C318 H326 0.930 . S
C319 C318 1.394 . S
C319 C320 1.383 . S
C319 H327 0.929 . S
C320 C319 1.383 . S
C320 C321 1.377 . S
C321 H305 0.930 . S
C321 C320 1.377 . S
C321 C322 1.379 . S
C322 H306 0.931 . S
C322 C316 1.383 . S
C322 C321 1.379 . S
H323 C317 0.959 . S
H324 C317 0.961 . S
H325 C317 0.960 . S
H326 C318 0.930 . S
H327 C319 0.929 . S
H328 C336 0.929 . S
H329 C338 0.930 . S
H330 C340 0.930 . S
H331 C343 0.929 . S
H332 C346 0.930 . S
H333 C348 0.960 . S
H334 C348 0.960 . S
H335 C348 0.960 . S
C336 H328 0.929 . S
C336 C337 1.377 . S
C336 C338 1.384 . S
C337 C336 1.377 . S
C337 C343 1.390 . S
C338 H329 0.930 . S
C338 C336 1.384 . S
C338 C339 1.372 . S
C339 C338 1.372 . S
C339 C340 1.400 . S
C339 C344 1.490 . S
C340 H330 0.930 . S
C340 C339 1.400 . S
C340 C343 1.386 . S
H341 C357 0.930 . S
H342 C358 0.931 . S
C343 H331 0.929 . S
C343 C337 1.390 . S
C343 C340 1.386 . S
C344 C339 1.490 . S
C344 C346 1.395 . S
C344 C347 1.403 . S
H345 C351 0.930 . S
C346 H332 0.930 . S
C346 C344 1.395 . S
C346 C349 1.403 . S
C347 C344 1.403 . S
C347 C348 1.524 . S
C347 C351 1.400 . S
C348 H333 0.960 . S
C348 H334 0.960 . S
C348 H335 0.960 . S
C348 C347 1.524 . S
C349 C346 1.403 . S
C349 C350 1.392 . S
C349 C353 1.495 . S
C350 C349 1.392 . S
C350 C351 1.385 . S
C350 C352 1.478 . S
C351 H345 0.930 . S
C351 C347 1.400 . S
C351 C350 1.385 . S
C352 C350 1.478 . S
C352 C354 1.381 . S
C352 C358 1.383 . S
C353 C349 1.495 . S
C353 H359 0.959 . S
C353 H360 0.961 . S
C353 H361 0.960 . S
C354 C352 1.381 . S
C354 C355 1.394 . S
C354 H362 0.930 . S
C355 C354 1.394 . S
C355 C356 1.383 . S
C355 H363 0.929 . S
C356 C355 1.383 . S
C356 C357 1.377 . S
C357 H341 0.930 . S
C357 C356 1.377 . S
C357 C358 1.379 . S
C358 H342 0.931 . S
C358 C352 1.383 . S
C358 C357 1.379 . S
H359 C353 0.959 . S
H360 C353 0.961 . S
H361 C353 0.960 . S
H362 C354 0.930 . S
H363 C355 0.929 . S
H364 C372 0.929 . S
H365 C374 0.930 . S
H366 C376 0.930 . S
H367 C379 0.929 . S
H368 C382 0.930 . S
H369 C384 0.960 . S
H370 C384 0.960 . S
H371 C384 0.960 . S
C372 H364 0.929 . S
C372 C373 1.377 . S
C372 C374 1.384 . S
C373 C372 1.377 . S
C373 C379 1.390 . S
C374 H365 0.930 . S
C374 C372 1.384 . S
C374 C375 1.372 . S
C375 C374 1.372 . S
C375 C376 1.400 . S
C375 C380 1.490 . S
C376 H366 0.930 . S
C376 C375 1.400 . S
C376 C379 1.386 . S
H377 C393 0.930 . S
H378 C394 0.931 . S
C379 H367 0.929 . S
C379 C373 1.390 . S
C379 C376 1.386 . S
C380 C375 1.490 . S
C380 C382 1.395 . S
C380 C383 1.403 . S
H381 C387 0.930 . S
C382 H368 0.930 . S
C382 C380 1.395 . S
C382 C385 1.403 . S
C383 C380 1.403 . S
C383 C384 1.524 . S
C383 C387 1.400 . S
C384 H369 0.960 . S
C384 H370 0.960 . S
C384 H371 0.960 . S
C384 C383 1.524 . S
C385 C382 1.403 . S
C385 C386 1.392 . S
C385 C389 1.495 . S
C386 C385 1.392 . S
C386 C387 1.385 . S
C386 C388 1.478 . S
C387 H381 0.930 . S
C387 C383 1.400 . S
C387 C386 1.385 . S
C388 C386 1.478 . S
C388 C390 1.381 . S
C388 C394 1.383 . S
C389 C385 1.495 . S
C389 H395 0.959 . S
C389 H396 0.961 . S
C389 H397 0.960 . S
C390 C388 1.381 . S
C390 C391 1.394 . S
C390 H398 0.930 . S
C391 C390 1.394 . S
C391 C392 1.383 . S
C391 H399 0.929 . S
C392 C391 1.383 . S
C392 C393 1.377 . S
C393 H377 0.930 . S
C393 C392 1.377 . S
C393 C394 1.379 . S
C394 H378 0.931 . S
C394 C388 1.383 . S
C394 C393 1.379 . S
H395 C389 0.959 . S
H396 C389 0.961 . S
H397 C389 0.960 . S
H398 C390 0.930 . S
H399 C391 0.929 . S
H400 C408 0.929 . S
H401 C410 0.930 . S
H402 C412 0.930 . S
H403 C415 0.929 . S
H404 C418 0.930 . S
H405 C420 0.960 . S
H406 C420 0.960 . S
H407 C420 0.960 . S
C408 H400 0.929 . S
C408 C409 1.377 . S
C408 C410 1.384 . S
C409 C408 1.377 . S
C409 C415 1.390 . S
C410 H401 0.930 . S
C410 C408 1.384 . S
C410 C411 1.372 . S
C411 C410 1.372 . S
C411 C412 1.400 . S
C411 C416 1.490 . S
C412 H402 0.930 . S
C412 C411 1.400 . S
C412 C415 1.386 . S
H413 C429 0.930 . S
H414 C430 0.931 . S
C415 H403 0.929 . S
C415 C409 1.390 . S
C415 C412 1.386 . S
C416 C411 1.490 . S
C416 C418 1.395 . S
C416 C419 1.403 . S
H417 C423 0.930 . S
C418 H404 0.930 . S
C418 C416 1.395 . S
C418 C421 1.403 . S
C419 C416 1.403 . S
C419 C420 1.524 . S
C419 C423 1.400 . S
C420 H405 0.960 . S
C420 H406 0.960 . S
C420 H407 0.960 . S
C420 C419 1.524 . S
C421 C418 1.403 . S
C421 C422 1.392 . S
C421 C425 1.495 . S
C422 C421 1.392 . S
C422 C423 1.385 . S
C422 C424 1.478 . S
C423 H417 0.930 . S
C423 C419 1.400 . S
C423 C422 1.385 . S
C424 C422 1.478 . S
C424 C426 1.381 . S
C424 C430 1.383 . S
C425 C421 1.495 . S
C425 H431 0.959 . S
C425 H432 0.961 . S
C425 H433 0.960 . S
C426 C424 1.381 . S
C426 C427 1.394 . S
C426 H434 0.930 . S
C427 C426 1.394 . S
C427 C428 1.383 . S
C427 H435 0.929 . S
C428 C427 1.383 . S
C428 C429 1.377 . S
C429 H413 0.930 . S
C429 C428 1.377 . S
C429 C430 1.379 . S
C430 H414 0.931 . S
C430 C424 1.383 . S
C430 C429 1.379 . S
H431 C425 0.959 . S
H432 C425 0.961 . S
H433 C425 0.960 . S
H434 C426 0.930 . S
H435 C427 0.929 . S
H436 C444 0.929 . S
H437 C446 0.930 . S
H438 C448 0.930 . S
H439 C451 0.929 . S
H440 C454 0.930 . S
H441 C456 0.960 . S
H442 C456 0.960 . S
H443 C456 0.960 . S
C444 H436 0.929 . S
C444 C445 1.377 . S
C444 C446 1.384 . S
C445 C444 1.377 . S
C445 C451 1.390 . S
C446 H437 0.930 . S
C446 C444 1.384 . S
C446 C447 1.372 . S
C447 C446 1.372 . S
C447 C448 1.400 . S
C447 C452 1.490 . S
C448 H438 0.930 . S
C448 C447 1.400 . S
C448 C451 1.386 . S
H449 C465 0.930 . S
H450 C466 0.931 . S
C451 H439 0.929 . S
C451 C445 1.390 . S
C451 C448 1.386 . S
C452 C447 1.490 . S
C452 C454 1.395 . S
C452 C455 1.403 . S
H453 C459 0.930 . S
C454 H440 0.930 . S
C454 C452 1.395 . S
C454 C457 1.403 . S
C455 C452 1.403 . S
C455 C456 1.524 . S
C455 C459 1.400 . S
C456 H441 0.960 . S
C456 H442 0.960 . S
C456 H443 0.960 . S
C456 C455 1.524 . S
C457 C454 1.403 . S
C457 C458 1.392 . S
C457 C461 1.495 . S
C458 C457 1.392 . S
C458 C459 1.385 . S
C458 C460 1.478 . S
C459 H453 0.930 . S
C459 C455 1.400 . S
C459 C458 1.385 . S
C460 C458 1.478 . S
C460 C462 1.381 . S
C460 C466 1.383 . S
C461 C457 1.495 . S
C461 H467 0.959 . S
C461 H468 0.961 . S
C461 H469 0.960 . S
C462 C460 1.381 . S
C462 C463 1.394 . S
C462 H470 0.930 . S
C463 C462 1.394 . S
C463 C464 1.383 . S
C463 H471 0.929 . S
C464 C463 1.383 . S
C464 C465 1.377 . S
C465 H449 0.930 . S
C465 C464 1.377 . S
C465 C466 1.379 . S
C466 H450 0.931 . S
C466 C460 1.383 . S
C466 C465 1.379 . S
H467 C461 0.959 . S
H468 C461 0.961 . S
H469 C461 0.960 . S
H470 C462 0.930 . S
H471 C463 0.929 . S
H472 C480 0.929 . S
H473 C482 0.930 . S
H474 C484 0.930 . S
H475 C487 0.929 . S
H476 C490 0.930 . S
H477 C492 0.960 . S
H478 C492 0.960 . S
H479 C492 0.960 . S
C480 H472 0.929 . S
C480 C481 1.377 . S
C480 C482 1.384 . S
C481 C480 1.377 . S
C481 C487 1.390 . S
C482 H473 0.930 . S
C482 C480 1.384 . S
C482 C483 1.372 . S
C483 C482 1.372 . S
C483 C484 1.400 . S
C483 C488 1.490 . S
C484 H474 0.930 . S
C484 C483 1.400 . S
C484 C487 1.386 . S
H485 C501 0.930 . S
H486 C502 0.931 . S
C487 H475 0.929 . S
C487 C481 1.390 . S
C487 C484 1.386 . S
C488 C483 1.490 . S
C488 C490 1.395 . S
C488 C491 1.403 . S
H489 C495 0.930 . S
C490 H476 0.930 . S
C490 C488 1.395 . S
C490 C493 1.403 . S
C491 C488 1.403 . S
C491 C492 1.524 . S
C491 C495 1.400 . S
C492 H477 0.960 . S
C492 H478 0.960 . S
C492 H479 0.960 . S
C492 C491 1.524 . S
C493 C490 1.403 . S
C493 C494 1.392 . S
C493 C497 1.495 . S
C494 C493 1.392 . S
C494 C495 1.385 . S
C494 C496 1.478 . S
C495 H489 0.930 . S
C495 C491 1.400 . S
C495 C494 1.385 . S
C496 C494 1.478 . S
C496 C498 1.381 . S
C496 C502 1.383 . S
C497 C493 1.495 . S
C497 H503 0.959 . S
C497 H504 0.961 . S
C497 H505 0.960 . S
C498 C496 1.381 . S
C498 C499 1.394 . S
C498 H506 0.930 . S
C499 C498 1.394 . S
C499 C500 1.383 . S
C499 H507 0.929 . S
C500 C499 1.383 . S
C500 C501 1.377 . S
C501 H485 0.930 . S
C501 C500 1.377 . S
C501 C502 1.379 . S
C502 H486 0.931 . S
C502 C496 1.383 . S
C502 C501 1.379 . S
H503 C497 0.959 . S
H504 C497 0.961 . S
H505 C497 0.960 . S
H506 C498 0.930 . S
H507 C499 0.929 . S
H508 C516 0.929 . S
H509 C518 0.930 . S
H510 C520 0.930 . S
H511 C523 0.929 . S
H512 C526 0.930 . S
H513 C528 0.960 . S
H514 C528 0.960 . S
H515 C528 0.960 . S
C516 H508 0.929 . S
C516 C517 1.377 . S
C516 C518 1.384 . S
C517 C516 1.377 . S
C517 C523 1.390 . S
C518 H509 0.930 . S
C518 C516 1.384 . S
C518 C519 1.372 . S
C519 C518 1.372 . S
C519 C520 1.400 . S
C519 C524 1.490 . S
C520 H510 0.930 . S
C520 C519 1.400 . S
C520 C523 1.386 . S
H521 C537 0.930 . S
H522 C538 0.931 . S
C523 H511 0.929 . S
C523 C517 1.390 . S
C523 C520 1.386 . S
C524 C519 1.490 . S
C524 C526 1.395 . S
C524 C527 1.403 . S
H525 C531 0.930 . S
C526 H512 0.930 . S
C526 C524 1.395 . S
C526 C529 1.403 . S
C527 C524 1.403 . S
C527 C528 1.524 . S
C527 C531 1.400 . S
C528 H513 0.960 . S
C528 H514 0.960 . S
C528 H515 0.960 . S
C528 C527 1.524 . S
C529 C526 1.403 . S
C529 C530 1.392 . S
C529 C533 1.495 . S
C530 C529 1.392 . S
C530 C531 1.385 . S
C530 C532 1.478 . S
C531 H525 0.930 . S
C531 C527 1.400 . S
C531 C530 1.385 . S
C532 C530 1.478 . S
C532 C534 1.381 . S
C532 C538 1.383 . S
C533 C529 1.495 . S
C533 H539 0.959 . S
C533 H540 0.961 . S
C533 H541 0.960 . S
C534 C532 1.381 . S
C534 C535 1.394 . S
C534 H542 0.930 . S
C535 C534 1.394 . S
C535 C536 1.383 . S
C535 H543 0.929 . S
C536 C535 1.383 . S
C536 C537 1.377 . S
C537 H521 0.930 . S
C537 C536 1.377 . S
C537 C538 1.379 . S
C538 H522 0.931 . S
C538 C532 1.383 . S
C538 C537 1.379 . S
H539 C533 0.959 . S
H540 C533 0.961 . S
H541 C533 0.960 . S
H542 C534 0.930 . S
H543 C535 0.929 . S
C140 C48 1.501 . S
C121 C43 1.508 . S
C157 C10 1.513 . S
C176 C91 1.514 . S
C193 C21 1.506 . S
C212 C57 1.511 . S
C229 C32 1.510 . S
C248 C82 1.510 . S
C284 C44 1.560 . S
C265 C5 1.541 . S
C320 C86 1.549 . S
C301 C15 1.545 . S
C337 C27 1.547 . S
C356 C52 1.562 . S
C373 C38 1.530 . S
C392 C78 1.545 . S
C428 C107 1.470 . S
C409 C16 1.456 . S
C464 C73 1.454 . S
C445 C26 1.453 . S
C500 C95 1.466 . S
C481 C37 1.469 . S
C517 C4 1.452 . S
C536 C61 1.457 . S
