# Generated by pormake.
# Topology pth, (4,4)-cn, num edge types: 1
# Building blocks:
#     Node 0, Type 0, BuildingBlock: NAHDIM_clean_sbu_0, # of connection points: 4
#     Node 1, Type 0, BuildingBlock: NAHDIM_clean_sbu_0, # of connection points: 4
#     Node 2, Type 0, BuildingBlock: NAHDIM_clean_sbu_0, # of connection points: 4
#     Node 3, Type 1, BuildingBlock: NAHDIM_clean_linker_0, # of connection points: 4
#     Node 4, Type 1, BuildingBlock: NAHDIM_clean_linker_0, # of connection points: 4
#     Node 5, Type 1, BuildingBlock: NAHDIM_clean_linker_0, # of connection points: 4
#     Edge 6, Type (0, 1), BuildingBlock: UVAHIK_clean_linker_0, # of connection points: 2
#     Edge 7, Type (0, 1), BuildingBlock: UVAHIK_clean_linker_0, # of connection points: 2
#     Edge 8, Type (0, 1), BuildingBlock: UVAHIK_clean_linker_0, # of connection points: 2
#     Edge 9, Type (0, 1), BuildingBlock: UVAHIK_clean_linker_0, # of connection points: 2
#     Edge 10, Type (0, 1), BuildingBlock: UVAHIK_clean_linker_0, # of connection points: 2
#     Edge 11, Type (0, 1), BuildingBlock: UVAHIK_clean_linker_0, # of connection points: 2
#     Edge 12, Type (0, 1), BuildingBlock: UVAHIK_clean_linker_0, # of connection points: 2
#     Edge 13, Type (0, 1), BuildingBlock: UVAHIK_clean_linker_0, # of connection points: 2
#     Edge 14, Type (0, 1), BuildingBlock: UVAHIK_clean_linker_0, # of connection points: 2
#     Edge 15, Type (0, 1), BuildingBlock: UVAHIK_clean_linker_0, # of connection points: 2
#     Edge 16, Type (0, 1), BuildingBlock: UVAHIK_clean_linker_0, # of connection points: 2
#     Edge 17, Type (0, 1), BuildingBlock: UVAHIK_clean_linker_0, # of connection points: 2
# Relax obj value: 0.059
# Max RMSD: 0.179
# Mean RMSD: 0.115
data_MOF--net-pth--node1-NAHDIM_clean_sbu_0--node2-NAHDIM_clean_linker_0--edge1-UVAHIK_clean_linker_0
_symmetry_space_group_name_H-M    P1
_symmetry_Int_Tables_number       1
_symmetry_cell_setting            triclinic
loop_
_symmetry_equiv_pos_as_xyz
'x, y, z'
_cell_length_a     38.219069
_cell_length_b     38.382214
_cell_length_c     95.716672
_cell_angle_alpha  91.569997
_cell_angle_beta   90.432937
_cell_angle_gamma 120.54207
loop_
_atom_site_label
_atom_site_type_symbol
_atom_site_fract_x
_atom_site_fract_y
_atom_site_fract_z
_atom_type_partial_charge
C0 C 0.0706 0.01589 0.09294 0.0
O1 O 0.08286 0.05211 0.09846 0.0
O2 O 0.02995 0.07758 0.08369 0.0
Zn3 Zn 0.04114 0.04349 0.07005 0.0
O4 O 0.99165 0.00723 0.05797 0.0
C5 C 0.1181 0.11252 0.06265 0.0
O6 O 0.12157 0.12009 0.07622 0.0
O7 O 0.05391 0.00667 0.08081 0.0
C8 C 0.98226 0.0185 0.0469 0.0
O9 O 0.00467 0.05627 0.04328 0.0
C10 C 0.03232 0.11037 0.08011 0.0
O11 O 0.03997 0.12107 0.06706 0.0
O12 O 0.08714 0.08047 0.05771 0.0
C13 C 0.10456 0.1554 0.38385 0.0
O14 O 0.11222 0.12905 0.3777 0.0
O15 O 0.04825 0.04858 0.39178 0.0
Zn16 Zn 0.06739 0.09553 0.40566 0.0
O17 O 0.02065 0.08867 0.41729 0.0
C18 C 0.13669 0.08857 0.41352 0.0
O19 O 0.13514 0.07896 0.40016 0.0
O20 O 0.08727 0.14746 0.39558 0.0
C21 C 0.01403 0.07518 0.42957 0.0
O22 O 0.03771 0.06332 0.43504 0.0
C23 C 0.03422 0.013 0.39612 0.0
O24 O 0.03154 0.00748 0.40965 0.0
O25 O 0.11144 0.09803 0.4182 0.0
C26 C 0.10105 0.03549 0.7188 0.0
O27 O 0.11221 0.07296 0.72256 0.0
O28 O 0.99763 0.03408 0.72038 0.0
Zn29 Zn 0.03021 0.02053 0.73359 0.0
O30 O 0.0646 0.06845 0.74671 0.0
C31 C 0.97282 0.9785 0.75484 0.0
O32 O 0.98062 0.01541 0.75786 0.0
O33 O 0.06649 0.007 0.72237 0.0
C34 C 0.0818 0.06621 0.75778 0.0
O35 O 0.07746 0.0312 0.76101 0.0
C36 C 0.00128 0.06892 0.72052 0.0
O37 O 0.0274 0.09721 0.72935 0.0
O38 O 0.99096 0.9728 0.74473 0.0
C39 C 0.91154 0.66732 0.29138 0.0
C40 C 0.94855 0.67893 0.30093 0.0
C41 C 0.9948 0.66619 0.2867 0.0
C42 C 0.03254 0.68493 0.28035 0.0
C43 C 0.04709 0.66216 0.27353 0.0
C44 C 0.02285 0.61943 0.27288 0.0
C45 C 0.98458 0.60013 0.27928 0.0
C46 C 0.97096 0.62366 0.28618 0.0
C47 C 0.08827 0.68377 0.26696 0.0
C48 C 0.95793 0.55462 0.2787 0.0
C49 C 0.19278 0.54607 0.32383 0.0
C50 C 0.15459 0.5101 0.31713 0.0
C51 C 0.13753 0.5204 0.2938 0.0
C52 C 0.09499 0.49938 0.29351 0.0
C53 C 0.07347 0.51036 0.28443 0.0
C54 C 0.09512 0.54359 0.27568 0.0
C55 C 0.13821 0.56471 0.27596 0.0
C56 C 0.15882 0.55213 0.28482 0.0
C57 C 0.02763 0.48673 0.2843 0.0
C58 C 0.16258 0.60105 0.26716 0.0
C59 C 0.11214 0.46976 0.18801 0.0
C60 C 0.07219 0.44824 0.19277 0.0
C61 C 0.05402 0.46874 0.19882 0.0
C62 C 0.07645 0.51152 0.2002 0.0
C63 C 0.11611 0.53326 0.19489 0.0
C64 C 0.13323 0.51201 0.18868 0.0
C65 C 0.01115 0.44472 0.20393 0.0
C66 C 0.14078 0.57888 0.19608 0.0
C67 C 0.9165 0.67759 0.18389 0.0
C68 C 0.95979 0.68599 0.18206 0.0
C69 C 0.97612 0.63262 0.18302 0.0
C70 C 0.95422 0.59058 0.18396 0.0
C71 C 0.97031 0.57051 0.19132 0.0
C72 C 0.00979 0.59315 0.19747 0.0
C73 C 0.03316 0.63547 0.19567 0.0
C74 C 0.01585 0.65483 0.1886 0.0
C75 C 0.94464 0.52537 0.19291 0.0
C76 C 0.07608 0.66043 0.20148 0.0
C77 C 0.03742 0.595 0.26537 0.0
C78 C 0.05739 0.57971 0.27315 0.0
C79 C 0.07283 0.55734 0.26672 0.0
C80 C 0.06828 0.54994 0.25206 0.0
C81 C 0.08295 0.52719 0.24523 0.0
C82 C 0.07993 0.52163 0.23074 0.0
C83 C 0.0616 0.53814 0.22252 0.0
C84 C 0.05922 0.53349 0.20776 0.0
C85 C 0.04171 0.55118 0.19991 0.0
C86 C 0.02588 0.57311 0.20641 0.0
C87 C 0.02696 0.5771 0.22117 0.0
C88 C 0.0101 0.59777 0.22808 0.0
C89 C 0.01298 0.60319 0.24256 0.0
C90 C 0.03285 0.58817 0.25071 0.0
C91 C 0.04873 0.56594 0.24402 0.0
C92 C 0.04556 0.56019 0.22923 0.0
C93 C 0.16871 0.42123 0.19062 0.0
C94 C 0.1267 0.41467 0.18699 0.0
O95 O 0.98274 0.69042 0.29302 0.0
O96 O 0.95807 0.65106 0.17684 0.0
O97 O 0.1312 0.45087 0.18265 0.0
O98 O 0.15859 0.5106 0.30274 0.0
H99 H 0.9423 0.65252 0.30723 0.0
H100 H 0.90485 0.64101 0.28439 0.0
H101 H 0.91713 0.69291 0.28477 0.0
H102 H 0.88435 0.65884 0.29776 0.0
H103 H 0.05073 0.7177 0.2808 0.0
H104 H 0.94159 0.60853 0.29098 0.0
H105 H 0.10721 0.67144 0.27076 0.0
H106 H 0.10465 0.71693 0.2693 0.0
H107 H 0.08461 0.67847 0.25545 0.0
H108 H 0.92813 0.54423 0.28361 0.0
H109 H 0.97365 0.54109 0.28418 0.0
H110 H 0.95255 0.5431 0.26766 0.0
H111 H 0.12831 0.51362 0.32004 0.0
H112 H 0.19007 0.54673 0.33538 0.0
H113 H 0.1968 0.57476 0.31985 0.0
H114 H 0.22014 0.54423 0.32128 0.0
H115 H 0.07875 0.47432 0.30036 0.0
H116 H 0.19174 0.56797 0.28513 0.0
H117 H 0.01644 0.50555 0.28931 0.0
H118 H 0.0155 0.45824 0.29004 0.0
H119 H 0.01534 0.47924 0.27339 0.0
H120 H 0.19535 0.61775 0.27024 0.0
H121 H 0.15081 0.62216 0.26805 0.0
H122 H 0.15971 0.59103 0.25602 0.0
H123 H 0.10888 0.40505 0.19673 0.0
H124 H 0.05517 0.4155 0.19174 0.0
H125 H 0.16379 0.52829 0.18474 0.0
H126 H 0.01152 0.44745 0.21551 0.0
H127 H 0.99633 0.41212 0.20076 0.0
H128 H 0.99259 0.4571 0.1998 0.0
H129 H 0.17178 0.59118 0.19191 0.0
H130 H 0.14348 0.58917 0.2072 0.0
H131 H 0.12503 0.59175 0.19023 0.0
H132 H 0.9747 0.69455 0.19265 0.0
H133 H 0.91705 0.70509 0.18816 0.0
H134 H 0.90038 0.65293 0.19133 0.0
H135 H 0.89929 0.66811 0.17374 0.0
H136 H 0.92377 0.57372 0.17941 0.0
H137 H 0.03324 0.68731 0.18744 0.0
H138 H 0.94196 0.51826 0.20416 0.0
H139 H 0.95959 0.51022 0.18777 0.0
H140 H 0.91366 0.51256 0.18821 0.0
H141 H 0.09247 0.69098 0.19702 0.0
H142 H 0.09339 0.64488 0.19932 0.0
H143 H 0.07538 0.66422 0.21299 0.0
H144 H 0.06137 0.58571 0.28437 0.0
H145 H 0.09734 0.51376 0.251 0.0
H146 H 0.09239 0.5044 0.22607 0.0
H147 H 0.04089 0.54831 0.18858 0.0
H148 H 0.99469 0.61025 0.22237 0.0
H149 H 0.99974 0.61966 0.24728 0.0
H150 H 0.1884 0.43113 0.18135 0.0
H151 H 0.16606 0.39284 0.19435 0.0
H152 H 0.18343 0.44496 0.19908 0.0
C153 C 0.39068 0.92441 0.66111 0.0
C154 C 0.39203 0.95788 0.65239 0.0
C155 C 0.41535 0.96771 0.62861 0.0
C156 C 0.43136 0.00945 0.6276 0.0
C157 C 0.46255 0.0319 0.6183 0.0
C158 C 0.47852 0.01221 0.61008 0.0
C159 C 0.46124 0.96974 0.61073 0.0
C160 C 0.42916 0.9479 0.6198 0.0
C161 C 0.47928 0.07687 0.61763 0.0
C162 C 0.47788 0.94764 0.60239 0.0
C163 C 0.7325 0.19822 0.66338 0.0
C164 C 0.72156 0.16026 0.65445 0.0
C165 C 0.69301 0.14752 0.63093 0.0
C166 C 0.67538 0.10549 0.62933 0.0
C167 C 0.64287 0.08308 0.61979 0.0
C168 C 0.62701 0.10314 0.61203 0.0
C169 C 0.64514 0.14576 0.61363 0.0
C170 C 0.6787 0.1675 0.6228 0.0
C171 C 0.62514 0.03792 0.61818 0.0
C172 C 0.62845 0.16838 0.60602 0.0
C173 C 0.70721 0.14405 0.52417 0.0
C174 C 0.69103 0.1039 0.52813 0.0
C175 C 0.65244 0.08276 0.53401 0.0
C176 C 0.62999 0.10249 0.53614 0.0
C177 C 0.64556 0.14237 0.53157 0.0
C178 C 0.68383 0.16243 0.52544 0.0
C179 C 0.63607 0.03969 0.53822 0.0
C180 C 0.62236 0.16424 0.53356 0.0
C181 C 0.29933 0.93486 0.51755 0.0
C182 C 0.33535 0.9774 0.51549 0.0
C183 C 0.40529 0.99283 0.51908 0.0
C184 C 0.42656 0.97222 0.51997 0.0
C185 C 0.46331 0.98884 0.52766 0.0
C186 C 0.47954 0.02752 0.53433 0.0
C187 C 0.45913 0.04942 0.53287 0.0
C188 C 0.42208 0.03177 0.52529 0.0
C189 C 0.48441 0.9648 0.52889 0.0
C190 C 0.47632 0.09134 0.53942 0.0
C191 C 0.51605 0.0365 0.60207 0.0
C192 C 0.55277 0.05743 0.60969 0.0
C193 C 0.58982 0.0794 0.60305 0.0
C194 C 0.59056 0.07968 0.58828 0.0
C195 C 0.62739 0.09946 0.5812 0.0
C196 C 0.62779 0.10044 0.56668 0.0
C197 C 0.59134 0.08145 0.55867 0.0
C198 C 0.59147 0.08236 0.5439 0.0
C199 C 0.55467 0.06434 0.53629 0.0
C200 C 0.51746 0.0448 0.54302 0.0
C201 C 0.51674 0.0424 0.55776 0.0
C202 C 0.4799 0.02186 0.56486 0.0
C203 C 0.47954 0.0199 0.57937 0.0
C204 C 0.51599 0.03844 0.58734 0.0
C205 C 0.55346 0.0597 0.58041 0.0
C206 C 0.55385 0.06112 0.5656 0.0
C207 C 0.81277 0.20774 0.52793 0.0
C208 C 0.77897 0.16467 0.52389 0.0
O209 O 0.38766 0.94625 0.63834 0.0
O210 O 0.36897 0.97445 0.51204 0.0
O211 O 0.74524 0.16587 0.51914 0.0
O212 O 0.72337 0.16935 0.64046 0.0
H213 H 0.42251 0.98525 0.65459 0.0
H214 H 0.41634 0.91994 0.65833 0.0
H215 H 0.36183 0.89529 0.65912 0.0
H216 H 0.39361 0.93293 0.67243 0.0
H217 H 0.41981 0.02448 0.63424 0.0
H218 H 0.41622 0.91555 0.62063 0.0
H219 H 0.50905 0.09332 0.62332 0.0
H220 H 0.45868 0.08602 0.62245 0.0
H221 H 0.48432 0.08635 0.60661 0.0
H222 H 0.46369 0.91538 0.60515 0.0
H223 H 0.51126 0.96255 0.60417 0.0
H224 H 0.47221 0.94878 0.59108 0.0
H225 H 0.68989 0.13685 0.65706 0.0
H226 H 0.73054 0.1916 0.67467 0.0
H227 H 0.71091 0.20868 0.66097 0.0
H228 H 0.76379 0.22298 0.66122 0.0
H229 H 0.68715 0.09033 0.63553 0.0
H230 H 0.69279 0.20006 0.62415 0.0
H231 H 0.6192 0.02801 0.60697 0.0
H232 H 0.59571 0.02221 0.62358 0.0
H233 H 0.64555 0.0283 0.62277 0.0
H234 H 0.64108 0.19974 0.61037 0.0
H235 H 0.5948 0.15231 0.60658 0.0
H236 H 0.63635 0.17015 0.59483 0.0
H237 H 0.7719 0.14694 0.53356 0.0
H238 H 0.70856 0.08912 0.52666 0.0
H239 H 0.69641 0.19322 0.52211 0.0
H240 H 0.63648 0.03873 0.5498 0.0
H241 H 0.65432 0.02682 0.53403 0.0
H242 H 0.60405 0.02028 0.53448 0.0
H243 H 0.63953 0.19585 0.53001 0.0
H244 H 0.61531 0.16482 0.54477 0.0
H245 H 0.59303 0.14776 0.5276 0.0
H246 H 0.3407 0.99453 0.52563 0.0
H247 H 0.272 0.93629 0.5205 0.0
H248 H 0.30669 0.92036 0.52607 0.0
H249 H 0.29228 0.91576 0.50781 0.0
H250 H 0.41361 0.94245 0.51493 0.0
H251 H 0.40649 0.04851 0.52414 0.0
H252 H 0.48922 0.96114 0.54009 0.0
H253 H 0.51477 0.98148 0.52413 0.0
H254 H 0.46683 0.93435 0.52364 0.0
H255 H 0.45887 0.10587 0.53622 0.0
H256 H 0.5085 0.11084 0.53647 0.0
H257 H 0.47579 0.0896 0.55098 0.0
H258 H 0.55247 0.05672 0.62102 0.0
H259 H 0.65636 0.11444 0.58681 0.0
H260 H 0.6571 0.11647 0.56184 0.0
H261 H 0.55499 0.06569 0.52498 0.0
H262 H 0.4509 0.00696 0.55927 0.0
H263 H 0.45033 0.00381 0.58428 0.0
H264 H 0.84008 0.20764 0.53195 0.0
H265 H 0.80224 0.22066 0.53629 0.0
H266 H 0.82126 0.22744 0.51878 0.0
C267 C 0.63422 0.59749 0.80752 0.0
C268 C 0.6408 0.63221 0.81751 0.0
C269 C 0.61699 0.61004 0.84086 0.0
C270 C 0.59641 0.63072 0.84401 0.0
C271 C 0.56586 0.61622 0.85399 0.0
C272 C 0.55548 0.58006 0.86083 0.0
C273 C 0.57679 0.55957 0.85782 0.0
C274 C 0.60787 0.57534 0.84803 0.0
C275 C 0.54446 0.63935 0.85714 0.0
C276 C 0.56631 0.52069 0.86474 0.0
C277 C 0.21788 0.40305 0.86143 0.0
C278 C 0.25589 0.40137 0.85778 0.0
C279 C 0.3256 0.45863 0.85767 0.0
C280 C 0.34543 0.43769 0.86132 0.0
C281 C 0.38605 0.45876 0.86617 0.0
C282 C 0.40704 0.50154 0.86749 0.0
C283 C 0.38762 0.52271 0.86325 0.0
C284 C 0.34721 0.50089 0.85823 0.0
C285 C 0.40626 0.4353 0.87018 0.0
C286 C 0.40919 0.56831 0.86437 0.0
C287 C 0.37153 0.47894 0.95943 0.0
C288 C 0.38729 0.45701 0.95279 0.0
C289 C 0.42169 0.47654 0.94447 0.0
C290 C 0.44021 0.51873 0.9426 0.0
C291 C 0.42516 0.54106 0.94971 0.0
C292 C 0.39129 0.52086 0.95822 0.0
C293 C 0.43788 0.45198 0.93753 0.0
C294 C 0.44421 0.58606 0.94804 0.0
C295 C 0.77435 0.70111 0.94056 0.0
C296 C 0.73897 0.70543 0.94576 0.0
C297 C 0.66953 0.64808 0.94638 0.0
C298 C 0.6492 0.60586 0.94552 0.0
C299 C 0.60903 0.5832 0.94032 0.0
C300 C 0.58855 0.60345 0.93621 0.0
C301 C 0.60821 0.64612 0.93785 0.0
C302 C 0.64863 0.66806 0.94287 0.0
C303 C 0.58885 0.53773 0.93886 0.0
C304 C 0.58673 0.66854 0.93406 0.0
C305 C 0.52157 0.56306 0.87081 0.0
C306 C 0.48185 0.54114 0.86529 0.0
C307 C 0.44844 0.52402 0.87402 0.0
C308 C 0.4546 0.52847 0.8887 0.0
C309 C 0.42165 0.51175 0.89779 0.0
C310 C 0.42799 0.51544 0.91221 0.0
C311 C 0.46751 0.53614 0.91814 0.0
C312 C 0.47426 0.53913 0.9328 0.0
C313 C 0.51391 0.56125 0.93835 0.0
C314 C 0.54726 0.58019 0.92964 0.0
C315 C 0.54116 0.57649 0.91494 0.0
C316 C 0.57408 0.59426 0.90586 0.0
C317 C 0.56776 0.59026 0.89142 0.0
C318 C 0.52831 0.56803 0.88548 0.0
C319 C 0.49468 0.55031 0.89445 0.0
C320 C 0.50112 0.55437 0.90919 0.0
C321 C 0.26684 0.43093 0.96246 0.0
C322 C 0.30274 0.42398 0.96362 0.0
O323 O 0.64595 0.62315 0.83103 0.0
O324 O 0.70919 0.66853 0.95061 0.0
O325 O 0.33754 0.4606 0.96714 0.0
O326 O 0.28575 0.43922 0.85366 0.0
H327 H 0.61323 0.63498 0.81661 0.0
H328 H 0.60669 0.56901 0.81047 0.0
H329 H 0.66073 0.593 0.80799 0.0
H330 H 0.6297 0.60393 0.79661 0.0
H331 H 0.60446 0.65832 0.83872 0.0
H332 H 0.62434 0.55992 0.8456 0.0
H333 H 0.51268 0.62164 0.85303 0.0
H334 H 0.55954 0.66944 0.85233 0.0
H335 H 0.54335 0.64369 0.86861 0.0
H336 H 0.58301 0.50648 0.86025 0.0
H337 H 0.53317 0.49878 0.86362 0.0
H338 H 0.57395 0.52687 0.87608 0.0
H339 H 0.26574 0.39321 0.86753 0.0
H340 H 0.19346 0.37303 0.86481 0.0
H341 H 0.20656 0.41209 0.85229 0.0
H342 H 0.22511 0.42558 0.87015 0.0
H343 H 0.3293 0.40495 0.86041 0.0
H344 H 0.3318 0.51675 0.85517 0.0
H345 H 0.41158 0.43802 0.88168 0.0
H346 H 0.43631 0.44811 0.86522 0.0
H347 H 0.38752 0.40267 0.86707 0.0
H348 H 0.38932 0.58015 0.86113 0.0
H349 H 0.43622 0.58128 0.85767 0.0
H350 H 0.42009 0.57893 0.87531 0.0
H351 H 0.30556 0.41222 0.95317 0.0
H352 H 0.37284 0.42471 0.95417 0.0
H353 H 0.37919 0.53754 0.9636 0.0
H354 H 0.43121 0.44915 0.92611 0.0
H355 H 0.424 0.42107 0.94166 0.0
H356 H 0.47139 0.46745 0.93906 0.0
H357 H 0.42729 0.59854 0.95357 0.0
H358 H 0.4454 0.59274 0.93678 0.0
H359 H 0.47594 0.60185 0.95226 0.0
H360 H 0.72733 0.71419 0.9366 0.0
H361 H 0.79859 0.73023 0.9365 0.0
H362 H 0.76352 0.67771 0.93194 0.0
H363 H 0.78737 0.69184 0.94912 0.0
H364 H 0.66544 0.59076 0.9485 0.0
H365 H 0.66382 0.70072 0.94407 0.0
H366 H 0.57875 0.52766 0.92782 0.0
H367 H 0.56142 0.52347 0.94537 0.0
H368 H 0.6094 0.52669 0.9421 0.0
H369 H 0.60456 0.70109 0.93735 0.0
H370 H 0.55659 0.65458 0.93901 0.0
H371 H 0.58144 0.66621 0.92256 0.0
H372 H 0.47685 0.53735 0.85404 0.0
H373 H 0.39053 0.49538 0.89386 0.0
H374 H 0.40143 0.50177 0.91865 0.0
H375 H 0.51889 0.56366 0.9496 0.0
H376 H 0.60516 0.61139 0.9098 0.0
H377 H 0.59425 0.60467 0.88496 0.0
H378 H 0.23856 0.40219 0.95942 0.0
H379 H 0.27273 0.45326 0.95433 0.0
H380 H 0.26227 0.44282 0.97258 0.0
C381 C 0.0202 0.12605 0.10458 0.0
C382 C 0.03135 0.13838 0.09083 0.0
C383 C 0.02292 0.15364 0.115 0.0
C384 C 0.03735 0.25682 0.12085 0.0
H385 H 0.08165 0.25111 0.15673 0.0
C386 C 0.1144 0.39049 0.16148 0.0
C387 C 0.1062 0.38177 0.17566 0.0
C388 C 0.09899 0.35926 0.15123 0.0
C389 C 0.06869 0.25279 0.14684 0.0
H390 H 0.05304 0.18909 0.07716 0.0
H391 H 0.05882 0.23736 0.09534 0.0
H392 H 0.06597 0.19914 0.13866 0.0
H393 H 0.0758 0.33366 0.19022 0.0
H394 H 0.04892 0.27899 0.17231 0.0
H395 H 0.04169 0.31154 0.12899 0.0
C396 C 0.04715 0.20623 0.09807 0.0
C397 C 0.05956 0.2229 0.13647 0.0
C398 C 0.04406 0.17855 0.08764 0.0
C399 C 0.08207 0.34123 0.17935 0.0
C400 C 0.06695 0.30999 0.16913 0.0
C401 C 0.04684 0.28696 0.13121 0.0
C402 C 0.03726 0.19432 0.11194 0.0
C403 C 0.04414 0.22469 0.12328 0.0
C404 C 0.0757 0.31865 0.15498 0.0
C405 C 0.06294 0.28542 0.14427 0.0
H406 H 0.00998 0.09521 0.10736 0.0
H407 H 0.01425 0.14315 0.12549 0.0
H408 H 0.02487 0.25885 0.11092 0.0
H409 H 0.13365 0.42137 0.15835 0.0
H410 H 0.10675 0.36682 0.14044 0.0
C411 C 0.97612 0.06366 0.45186 0.0
C412 C 0.98217 0.0762 0.43799 0.0
C413 C 0.94837 0.06779 0.46015 0.0
C414 C 0.90015 0.12937 0.46337 0.0
H415 H 0.83195 0.05003 0.49002 0.0
C416 C 0.794 0.15593 0.49866 0.0
C417 C 0.7935 0.14651 0.51276 0.0
C418 C 0.81179 0.14284 0.4887 0.0
C419 C 0.851 0.0726 0.48269 0.0
H420 H 0.96254 0.10141 0.42177 0.0
H421 H 0.91408 0.1084 0.4362 0.0
H422 H 0.87274 0.03509 0.47414 0.0
H423 H 0.81138 0.11629 0.52751 0.0
H424 H 0.8429 0.09381 0.5102 0.0
H425 H 0.87944 0.16734 0.4721 0.0
C426 C 0.93121 0.0959 0.44074 0.0
C427 C 0.87433 0.06401 0.47359 0.0
C428 C 0.95886 0.09169 0.43244 0.0
C429 C 0.81072 0.12334 0.51667 0.0
C430 C 0.82864 0.11037 0.50673 0.0
C431 C 0.87698 0.13801 0.47249 0.0
C432 C 0.92613 0.08463 0.45475 0.0
C433 C 0.89943 0.09246 0.46391 0.0
C434 C 0.82995 0.12048 0.49265 0.0
C435 C 0.85238 0.1099 0.48235 0.0
H436 H 0.99354 0.05156 0.45646 0.0
H437 H 0.94542 0.05913 0.47095 0.0
H438 H 0.91968 0.15224 0.4562 0.0
H439 H 0.78149 0.17425 0.49538 0.0
H440 H 0.81186 0.15077 0.47792 0.0
C441 C 0.92935 0.90392 0.75845 0.0
C442 C 0.94223 0.94401 0.7628 0.0
C443 C 0.89905 0.87145 0.76562 0.0
C444 C 0.81397 0.84623 0.78934 0.0
H445 H 0.8161 0.74716 0.79356 0.0
C446 C 0.71716 0.68074 0.81693 0.0
C447 C 0.67754 0.67141 0.81328 0.0
C448 C 0.75091 0.71537 0.81196 0.0
C449 C 0.81522 0.77476 0.79264 0.0
H450 H 0.93426 0.98142 0.77836 0.0
H451 H 0.88209 0.92492 0.79099 0.0
H452 H 0.87324 0.80494 0.78303 0.0
H453 H 0.64226 0.69039 0.80129 0.0
H454 H 0.70093 0.75049 0.79249 0.0
H455 H 0.75631 0.81636 0.79915 0.0
C456 C 0.8947 0.91847 0.78186 0.0
C457 C 0.84778 0.80774 0.78642 0.0
C458 C 0.92481 0.9509 0.77465 0.0
C459 C 0.67242 0.69731 0.80452 0.0
C460 C 0.70609 0.73181 0.79951 0.0
C461 C 0.78151 0.81334 0.7956 0.0
C462 C 0.88107 0.8783 0.77735 0.0
C463 C 0.84739 0.84378 0.78456 0.0
C464 C 0.74578 0.74119 0.80309 0.0
C465 C 0.78149 0.77701 0.79719 0.0
H466 H 0.94208 0.89755 0.74934 0.0
H467 H 0.88899 0.84096 0.76173 0.0
H468 H 0.81235 0.87329 0.78797 0.0
H469 H 0.72202 0.66092 0.82347 0.0
H470 H 0.78101 0.72183 0.81502 0.0
C471 C 0.05297 0.94419 0.09618 0.0
C472 C 0.07125 0.98443 0.1014 0.0
C473 C 0.0491 0.91353 0.10473 0.0
C474 C 0.04288 0.89026 0.14196 0.0
H475 H 0.04684 0.79637 0.12821 0.0
C476 C 0.00919 0.75977 0.1779 0.0
C477 C 0.98257 0.72059 0.17234 0.0
C478 C 0.02658 0.79284 0.16922 0.0
C479 C 0.04549 0.82234 0.13219 0.0
H480 H 0.10192 0.0243 0.11945 0.0
H481 H 0.09573 0.9709 0.13429 0.0
H482 H 0.06655 0.8533 0.11303 0.0
H483 H 0.95356 0.68521 0.15332 0.0
H484 H 0.98376 0.74304 0.13811 0.0
H485 H 0.02109 0.85915 0.16099 0.0
C486 C 0.08359 0.96292 0.12368 0.0
C487 C 0.05677 0.85495 0.12349 0.0
C488 C 0.08736 0.99359 0.11514 0.0
C489 C 0.97444 0.71502 0.15785 0.0
C490 C 0.99183 0.74813 0.14916 0.0
C491 C 0.03171 0.85775 0.15064 0.0
C492 C 0.06354 0.92237 0.11868 0.0
C493 C 0.0551 0.88911 0.12822 0.0
C494 C 0.01749 0.78754 0.15479 0.0
C495 C 0.03239 0.82318 0.14581 0.0
H496 H 0.04026 0.93605 0.08564 0.0
H497 H 0.03317 0.88263 0.10056 0.0
H498 H 0.04045 0.91567 0.14588 0.0
H499 H 0.01575 0.76496 0.18904 0.0
H500 H 0.04661 0.82271 0.17387 0.0
C501 C 0.18948 0.06978 0.4183 0.0
C502 C 0.16505 0.08499 0.4232 0.0
C503 C 0.21381 0.06327 0.4276 0.0
C504 C 0.25994 0.08872 0.46329 0.0
H505 H 0.25318 0.98463 0.45944 0.0
C506 C 0.30786 0.02138 0.50764 0.0
C507 C 0.32508 0.99764 0.50411 0.0
C508 C 0.29366 0.03627 0.49722 0.0
C509 C 0.25612 0.01416 0.46055 0.0
H510 H 0.14813 0.10656 0.44166 0.0
H511 H 0.19056 0.09515 0.45786 0.0
H512 H 0.21911 0.00338 0.44222 0.0
H513 H 0.34088 0.97083 0.48688 0.0
H514 H 0.31719 0.99777 0.46866 0.0
H515 H 0.29668 0.09934 0.4817 0.0
C516 C 0.19104 0.08845 0.44682 0.0
C517 C 0.23647 0.02488 0.45067 0.0
C518 C 0.16655 0.09479 0.43754 0.0
C519 C 0.32833 0.98958 0.48992 0.0
C520 C 0.31432 0.00464 0.47949 0.0
C521 C 0.2798 0.07808 0.47315 0.0
C522 C 0.21445 0.072 0.44199 0.0
C523 C 0.23774 0.06206 0.45201 0.0
C524 C 0.29617 0.02762 0.48301 0.0
C525 C 0.27772 0.04044 0.472 0.0
H526 H 0.18918 0.06205 0.40732 0.0
H527 H 0.23189 0.05104 0.42353 0.0
H528 H 0.26192 0.11781 0.46451 0.0
H529 H 0.30427 0.02739 0.51849 0.0
H530 H 0.27925 0.05322 0.50035 0.0
C531 C 0.11961 0.09938 0.78031 0.0
C532 C 0.10514 0.10246 0.76713 0.0
C533 C 0.14011 0.1334 0.78936 0.0
C534 C 0.1523 0.23428 0.79628 0.0
H535 H 0.24231 0.25122 0.82023 0.0
C536 C 0.23912 0.37654 0.83243 0.0
C537 C 0.24605 0.3697 0.84626 0.0
C538 C 0.226 0.34572 0.82211 0.0
C539 C 0.21708 0.24676 0.81365 0.0
H540 H 0.10195 0.14397 0.75295 0.0
H541 H 0.13824 0.20329 0.7686 0.0
H542 H 0.21174 0.19393 0.80338 0.0
H543 H 0.24512 0.32555 0.86009 0.0
H544 H 0.22226 0.27165 0.84205 0.0
H545 H 0.15745 0.2869 0.80658 0.0
C546 C 0.13303 0.17447 0.77209 0.0
C547 C 0.1995 0.2139 0.80402 0.0
C548 C 0.11239 0.14046 0.76308 0.0
C549 C 0.24041 0.33173 0.84949 0.0
C550 C 0.22746 0.30096 0.83915 0.0
C551 C 0.16997 0.26717 0.80585 0.0
C552 C 0.14675 0.1713 0.78541 0.0
C553 C 0.16667 0.20709 0.79529 0.0
C554 C 0.21949 0.30741 0.82539 0.0
C555 C 0.20236 0.27364 0.81472 0.0
H556 H 0.11446 0.07054 0.78377 0.0
H557 H 0.1498 0.12974 0.7996 0.0
H558 H 0.12661 0.22959 0.78991 0.0
H559 H 0.24297 0.40547 0.8297 0.0
H560 H 0.22052 0.35175 0.81157 0.0
C561 C 0.94861 0.04788 0.70129 0.0
C562 C 0.97524 0.07713 0.71128 0.0
C563 C 0.92292 0.05523 0.69298 0.0
C564 C 0.90625 0.1377 0.68148 0.0
H565 H 0.7948 0.05049 0.67568 0.0
C566 C 0.78872 0.16217 0.65197 0.0
C567 C 0.75021 0.14523 0.65793 0.0
C568 C 0.81655 0.15111 0.65644 0.0
C569 C 0.82579 0.07522 0.67723 0.0
H570 H 0.99616 0.13725 0.72024 0.0
H571 H 0.95093 0.14968 0.70603 0.0
H572 H 0.84342 0.03763 0.68758 0.0
H573 H 0.71085 0.10396 0.67333 0.0
H574 H 0.75943 0.08513 0.68133 0.0
H575 H 0.88816 0.1758 0.6718 0.0
C576 C 0.95032 0.12135 0.70438 0.0
C577 C 0.85384 0.06771 0.6839 0.0
C578 C 0.9761 0.1141 0.71262 0.0
C579 C 0.74002 0.11686 0.66837 0.0
C580 C 0.76786 0.10598 0.6729 0.0
C581 C 0.87815 0.14526 0.67488 0.0
C582 C 0.92319 0.09193 0.69452 0.0
C583 C 0.89427 0.09904 0.68633 0.0
C584 C 0.80668 0.12333 0.66713 0.0
C585 C 0.83739 0.11428 0.67289 0.0
H586 H 0.94737 0.01916 0.69993 0.0
H587 H 0.90283 0.03212 0.68536 0.0
H588 H 0.93729 0.16239 0.68296 0.0
H589 H 0.79763 0.1846 0.64405 0.0
H590 H 0.84601 0.16477 0.65167 0.0
C591 C 0.93899 1.00004 0.02502 0.0
C592 C 0.94885 0.98835 0.03755 0.0
C593 C 0.90999 0.97098 0.01561 0.0
C594 C 0.82753 0.86282 0.012 0.0
H595 H 0.85761 0.87541 0.97308 0.0
C596 C 0.76105 0.73045 0.9709 0.0
C597 C 0.75373 0.73809 0.95723 0.0
C598 C 0.77923 0.76191 0.98103 0.0
C599 C 0.84833 0.8717 0.98386 0.0
H600 H 0.93481 0.93704 0.05025 0.0
H601 H 0.88492 0.8865 0.03379 0.0
H602 H 0.89939 0.92905 0.99021 0.0
H603 H 0.7594 0.78446 0.94347 0.0
H604 H 0.79086 0.83945 0.9612 0.0
H605 H 0.77708 0.80479 0.00563 0.0
C606 C 0.89912 0.9181 0.03128 0.0
C607 C 0.8723 0.90253 0.9937 0.0
C608 C 0.92799 0.94713 0.04069 0.0
C609 C 0.76432 0.77767 0.95397 0.0
C610 C 0.78259 0.80915 0.96408 0.0
C611 C 0.80361 0.83189 0.00215 0.0
C612 C 0.89026 0.92958 0.01851 0.0
C613 C 0.86255 0.89826 0.00793 0.0
C614 C 0.79087 0.80175 0.97766 0.0
C615 C 0.81406 0.83577 0.988 0.0
H616 H 0.95427 0.03157 0.02233 0.0
H617 H 0.90341 0.98093 0.00598 0.0
H618 H 0.81877 0.85881 0.02284 0.0
H619 H 0.75387 0.70036 0.97363 0.0
H620 H 0.78573 0.7553 0.99133 0.0
C621 C 0.02901 0.98484 0.37174 0.0
C622 C 0.02282 0.97854 0.38613 0.0
C623 C 0.01964 0.95247 0.36239 0.0
C624 C 0.9593 0.84098 0.35849 0.0
H625 H 0.03646 0.85598 0.32983 0.0
C626 C 0.94681 0.70738 0.32497 0.0
C627 C 0.95639 0.71384 0.31078 0.0
C628 C 0.95398 0.73962 0.33405 0.0
C629 C 0.01431 0.8514 0.33765 0.0
H630 H 0.00142 0.93319 0.40196 0.0
H631 H 0.98521 0.87681 0.38564 0.0
H632 H 0.0502 0.91234 0.34577 0.0
H633 H 0.97976 0.75883 0.29487 0.0
H634 H 0.9918 0.81509 0.31066 0.0
H635 H 0.92336 0.78005 0.35035 0.0
C636 C 0.99702 0.90672 0.38158 0.0
C637 C 0.02221 0.88372 0.34679 0.0
C638 C 0.00652 0.93909 0.39094 0.0
C639 C 0.97258 0.7531 0.3058 0.0
C640 C 0.97964 0.7853 0.31486 0.0
C641 C 0.95132 0.80867 0.34931 0.0
C642 C 0.00373 0.91308 0.36721 0.0
C643 C 0.99486 0.87887 0.35734 0.0
C644 C 0.97061 0.77901 0.32911 0.0
C645 C 0.97879 0.81346 0.3388 0.0
H646 H 0.04146 0.01484 0.36769 0.0
H647 H 0.0247 0.95828 0.35137 0.0
H648 H 0.93736 0.83643 0.36639 0.0
H649 H 0.93402 0.67739 0.32906 0.0
H650 H 0.94704 0.73376 0.34498 0.0
C651 C 0.1689 0.05738 0.70856 0.0
C652 C 0.1285 0.02677 0.71055 0.0
C653 C 0.1951 0.04931 0.70089 0.0
C654 C 0.20833 0.96472 0.68816 0.0
H655 H 0.29025 0.04751 0.66534 0.0
C656 C 0.3178 0.93703 0.65468 0.0
C657 C 0.35909 0.96661 0.65662 0.0
C658 C 0.28761 0.94397 0.65981 0.0
C659 C 0.26756 0.02415 0.67169 0.0
H660 H 0.08372 0.96374 0.70586 0.0
H661 H 0.12915 0.94985 0.6922 0.0
H662 H 0.24092 0.0599 0.67704 0.0
H663 H 0.40108 0.02713 0.66493 0.0
H664 H 0.34838 0.03947 0.67371 0.0
H665 H 0.23507 0.92899 0.68273 0.0
C666 C 0.1409 0.97994 0.69681 0.0
C667 C 0.23939 0.03127 0.67846 0.0
C668 C 0.11477 0.98794 0.7046 0.0
C669 C 0.36951 0.0038 0.66329 0.0
C670 C 0.33935 0.01091 0.66827 0.0
C671 C 0.23627 0.95747 0.68128 0.0
C672 C 0.18147 0.0105 0.6949 0.0
C673 C 0.20979 0.00189 0.68697 0.0
C674 C 0.29813 0.98082 0.66679 0.0
C675 C 0.26652 0.98733 0.67314 0.0
H676 H 0.18053 0.08757 0.71308 0.0
H677 H 0.2263 0.07342 0.69989 0.0
H678 H 0.18641 0.94161 0.69477 0.0
H679 H 0.30895 0.90821 0.64949 0.0
H680 H 0.25604 0.92041 0.6584 0.0
C681 C 0.1431 0.13563 0.03857 0.0
C682 C 0.14663 0.14354 0.05311 0.0
C683 C 0.16699 0.16632 0.02947 0.0
C684 C 0.21863 0.2764 0.02745 0.0
H685 H 0.26547 0.25944 0.99401 0.0
C686 C 0.30244 0.40403 0.98877 0.0
C687 C 0.29444 0.39288 0.97448 0.0
C688 C 0.29043 0.3745 0.99881 0.0
C689 C 0.25232 0.2646 0.00325 0.0
H690 H 0.17922 0.18954 0.06948 0.0
H691 H 0.22078 0.24305 0.05357 0.0
H692 H 0.23353 0.20561 0.01073 0.0
H693 H 0.26711 0.34215 0.95954 0.0
H694 H 0.24541 0.29055 0.97701 0.0
H695 H 0.23589 0.33464 0.01984 0.0
C696 C 0.19931 0.21316 0.04924 0.0
C697 C 0.23412 0.23378 0.01284 0.0
C698 C 0.17565 0.18241 0.05835 0.0
C699 C 0.2744 0.35161 0.97046 0.0
C700 C 0.26211 0.32208 0.98049 0.0
C701 C 0.23651 0.30706 0.01783 0.0
C702 C 0.19472 0.20565 0.03469 0.0
C703 C 0.21673 0.23921 0.02498 0.0
C704 C 0.26949 0.33309 0.99482 0.0
C705 C 0.25322 0.30145 0.00552 0.0
H706 H 0.12107 0.10601 0.03419 0.0
H707 H 0.16252 0.15965 0.01831 0.0
H708 H 0.20493 0.28129 0.0366 0.0
H709 H 0.31723 0.43557 0.99221 0.0
H710 H 0.29706 0.38416 0.00972 0.0
C711 C 0.13385 0.20328 0.36413 0.0
C712 C 0.11342 0.19291 0.37685 0.0
C713 C 0.1406 0.23796 0.35734 0.0
C714 C 0.14184 0.33473 0.3635 0.0
H715 H 0.12778 0.33041 0.32319 0.0
C716 C 0.1254 0.45542 0.33481 0.0
C717 C 0.14834 0.47091 0.32277 0.0
C718 C 0.12226 0.42143 0.34097 0.0
C719 C 0.13216 0.33215 0.33444 0.0
H720 H 0.08411 0.21096 0.39241 0.0
H721 H 0.09508 0.27059 0.38051 0.0
H722 H 0.12119 0.27166 0.3349 0.0
H723 H 0.18677 0.46338 0.30792 0.0
H724 H 0.18065 0.40331 0.31858 0.0
H725 H 0.15192 0.39486 0.36304 0.0
C726 C 0.10672 0.25257 0.37587 0.0
C727 C 0.12854 0.29857 0.34116 0.0
C728 C 0.1002 0.21814 0.38268 0.0
C729 C 0.16811 0.45158 0.31701 0.0
C730 C 0.16467 0.41728 0.32311 0.0
C731 C 0.14511 0.36809 0.3568 0.0
C732 C 0.12693 0.26294 0.3631 0.0
C733 C 0.13294 0.2993 0.3558 0.0
C734 C 0.1421 0.40216 0.33526 0.0
C735 C 0.13994 0.36704 0.34222 0.0
H736 H 0.14452 0.18455 0.35937 0.0
H737 H 0.15673 0.24529 0.34761 0.0
H738 H 0.14634 0.33678 0.37474 0.0
H739 H 0.1104 0.4701 0.3396 0.0
H740 H 0.10437 0.41027 0.35026 0.0
loop_
_geom_bond_atom_site_label_1
_geom_bond_atom_site_label_2
_geom_bond_distance
_geom_bond_site_symmetry_2
_ccdc_geom_bond_type
C0 O1 1.160 1_565 S
C0 O7 1.185 1_565 S
O1 C0 1.160 1_545 S
O2 Zn3 1.899 . S
O2 C10 1.284 . S
Zn3 O2 1.899 . S
Zn3 O4 2.032 1_455 S
Zn3 O7 2.086 . S
Zn3 O12 1.977 . S
O4 Zn3 2.032 1_655 S
O4 C8 1.278 . S
C5 O6 1.203 . S
C5 O12 1.267 . S
O6 C5 1.203 . S
O7 C0 1.185 1_545 S
O7 Zn3 2.086 . S
C8 O4 1.278 . S
C8 O9 1.211 . S
O9 C8 1.211 . S
C10 O2 1.284 . S
C10 O11 1.273 1_455 S
O11 C10 1.273 1_655 S
O12 Zn3 1.977 . S
O12 C5 1.267 . S
C13 O14 1.160 . S
C13 O20 1.185 . S
O14 C13 1.160 . S
O15 Zn16 1.899 . S
O15 C23 1.284 . S
Zn16 O15 1.899 . S
Zn16 O17 2.032 . S
Zn16 O20 2.086 . S
Zn16 O25 1.977 . S
O17 Zn16 2.032 . S
O17 C21 1.278 . S
C18 O19 1.203 . S
C18 O25 1.267 . S
O19 C18 1.203 . S
O20 C13 1.185 . S
O20 Zn16 2.086 . S
C21 O17 1.278 . S
C21 O22 1.211 . S
O22 C21 1.211 . S
C23 O15 1.284 . S
C23 O24 1.273 . S
O24 C23 1.273 . S
O25 Zn16 1.977 . S
O25 C18 1.267 . S
C26 O27 1.160 . S
C26 O33 1.185 . S
O27 C26 1.160 . S
O28 Zn29 1.889 1_655 S
O28 C36 1.294 . S
Zn29 O28 1.889 1_455 S
Zn29 O30 2.032 . S
Zn29 O33 2.086 . S
Zn29 O38 1.977 1_545 S
O30 Zn29 2.032 . S
O30 C34 1.278 . S
C31 O32 1.203 . S
C31 O38 1.267 1_655 S
O32 C31 1.203 . S
O33 C26 1.185 . S
O33 Zn29 2.086 . S
C34 O30 1.278 . S
C34 O35 1.211 . S
O35 C34 1.211 . S
C36 O28 1.294 . S
C36 O37 1.273 1_655 S
O37 C36 1.273 1_455 S
O38 Zn29 1.977 1_565 S
O38 C31 1.267 1_455 S
C39 C40 1.560 1_655 S
C39 H100 0.959 . S
C39 H101 0.959 . S
C39 H102 0.960 . S
C40 C39 1.560 1_455 S
C40 O95 1.426 1_455 S
C40 H99 0.980 . S
C41 C42 1.407 . S
C41 C46 1.418 1_455 S
C41 O95 1.334 1_455 S
C42 C41 1.407 . S
C42 C43 1.360 . S
C42 H103 0.929 . S
C43 C42 1.360 . S
C43 C44 1.401 . S
C43 C47 1.527 . S
C44 C43 1.401 . S
C44 C45 1.405 1_455 S
C44 C77 1.587 . S
C45 C44 1.405 1_655 S
C45 C46 1.332 . S
C45 C48 1.496 . S
C46 C41 1.418 1_655 S
C46 C45 1.332 . S
C46 H104 0.929 . S
C47 C43 1.527 . S
C47 H105 0.959 . S
C47 H106 0.961 . S
C47 H107 0.961 . S
C48 C45 1.496 . S
C48 H108 0.960 . S
C48 H109 0.960 . S
C48 H110 0.961 . S
C49 C50 1.517 . S
C49 H112 0.961 . S
C49 H113 0.960 . S
C49 H114 0.959 . S
C50 C49 1.517 . S
C50 O98 1.468 . S
C50 H111 0.980 . S
C51 C52 1.349 . S
C51 C56 1.367 . S
C51 O98 1.408 . S
C52 C51 1.349 . S
C52 C53 1.407 . S
C52 H115 0.930 . S
C53 C52 1.407 . S
C53 C54 1.449 . S
C53 C57 1.535 1_455 S
C54 C53 1.449 . S
C54 C55 1.384 . S
C54 C79 1.553 . S
C55 C54 1.384 . S
C55 C56 1.364 . S
C55 C58 1.450 . S
C56 C51 1.367 . S
C56 C55 1.364 . S
C56 H116 0.931 . S
C57 C53 1.535 1_655 S
C57 H117 0.959 . S
C57 H118 0.961 . S
C57 H119 0.959 . S
C58 C55 1.450 . S
C58 H120 0.960 . S
C58 H121 0.960 . S
C58 H122 0.960 . S
C59 C60 1.309 . S
C59 C64 1.304 . S
C59 O97 1.435 . S
C60 C59 1.309 . S
C60 C61 1.476 . S
C60 H124 0.937 . S
C61 C60 1.476 . S
C61 C62 1.400 . S
C61 C65 1.567 1_455 S
C62 C61 1.400 . S
C62 C63 1.373 . S
C62 C84 1.432 . S
C63 C62 1.373 . S
C63 C64 1.339 . S
C63 C66 1.530 . S
C64 C59 1.304 . S
C64 C63 1.339 . S
C64 H125 0.930 . S
C65 C61 1.567 1_655 S
C65 H126 0.961 . S
C65 H127 0.960 . S
C65 H128 0.958 . S
C66 C63 1.530 . S
C66 H129 0.961 . S
C66 H130 0.960 . S
C66 H131 0.960 . S
C67 C68 1.530 1_655 S
C67 H133 0.959 1_655 S
C67 H134 0.961 . S
C67 H135 0.959 . S
C68 C67 1.530 1_455 S
C68 O96 1.412 1_455 S
C68 H132 0.980 . S
C69 C70 1.288 . S
C69 C74 1.377 1_655 S
C69 O96 1.393 . S
C70 C69 1.288 . S
C70 C71 1.369 . S
C70 H136 0.932 . S
C71 C70 1.369 . S
C71 C72 1.398 1_655 S
C71 C75 1.527 . S
C72 C71 1.398 1_455 S
C72 C73 1.380 . S
C72 C86 1.497 . S
C73 C72 1.380 . S
C73 C74 1.383 . S
C73 C76 1.603 . S
C74 C69 1.377 1_455 S
C74 C73 1.383 . S
C74 H137 0.929 . S
C75 C71 1.527 . S
C75 H138 0.961 . S
C75 H139 0.959 . S
C75 H140 0.959 . S
C76 C73 1.603 . S
C76 H141 0.960 . S
C76 H142 0.962 . S
C76 H143 0.961 . S
C77 C44 1.587 . S
C77 C78 1.360 . S
C77 C90 1.412 . S
C78 C77 1.360 . S
C78 C79 1.365 . S
C78 H144 0.929 . S
C79 C54 1.553 . S
C79 C78 1.365 . S
C79 C80 1.404 . S
C80 C79 1.404 . S
C80 C81 1.395 . S
C80 C91 1.451 . S
C81 C80 1.395 . S
C81 C82 1.322 . S
C81 H145 0.930 . S
C82 C81 1.322 . S
C82 C83 1.459 . S
C82 H146 0.929 . S
C83 C82 1.459 . S
C83 C84 1.445 . S
C83 C92 1.395 . S
C84 C62 1.432 . S
C84 C83 1.445 . S
C84 C85 1.370 . S
C85 C84 1.370 . S
C85 C86 1.438 . S
C85 H147 0.930 . S
C86 C72 1.497 . S
C86 C85 1.438 . S
C86 C87 1.360 . S
C87 C86 1.360 . S
C87 C88 1.401 . S
C87 C92 1.446 . S
C88 C87 1.401 . S
C88 C89 1.347 . S
C88 H148 0.929 . S
C89 C88 1.347 . S
C89 C90 1.455 . S
C89 H149 0.930 . S
C90 C77 1.412 . S
C90 C89 1.455 . S
C90 C91 1.331 . S
C91 C80 1.451 . S
C91 C90 1.331 . S
C91 C92 1.497 . S
C92 C83 1.395 . S
C92 C87 1.446 . S
C92 C91 1.497 . S
C93 C94 1.582 . S
C93 H150 0.962 . S
C93 H151 0.959 . S
C93 H152 0.958 . S
C94 C93 1.582 . S
C94 O97 1.458 . S
C94 H123 0.980 . S
O95 C40 1.426 1_655 S
O95 C41 1.334 1_655 S
O96 C68 1.412 1_655 S
O96 C69 1.393 . S
O97 C59 1.435 . S
O97 C94 1.458 . S
O98 C50 1.468 . S
O98 C51 1.408 . S
H99 C40 0.980 . S
H100 C39 0.959 . S
H101 C39 0.959 . S
H102 C39 0.960 . S
H103 C42 0.929 . S
H104 C46 0.929 . S
H105 C47 0.959 . S
H106 C47 0.961 . S
H107 C47 0.961 . S
H108 C48 0.960 . S
H109 C48 0.960 . S
H110 C48 0.961 . S
H111 C50 0.980 . S
H112 C49 0.961 . S
H113 C49 0.960 . S
H114 C49 0.959 . S
H115 C52 0.930 . S
H116 C56 0.931 . S
H117 C57 0.959 . S
H118 C57 0.961 . S
H119 C57 0.959 . S
H120 C58 0.960 . S
H121 C58 0.960 . S
H122 C58 0.960 . S
H123 C94 0.980 . S
H124 C60 0.937 . S
H125 C64 0.930 . S
H126 C65 0.961 . S
H127 C65 0.960 . S
H128 C65 0.958 . S
H129 C66 0.961 . S
H130 C66 0.960 . S
H131 C66 0.960 . S
H132 C68 0.980 . S
H133 C67 0.959 1_455 S
H134 C67 0.961 . S
H135 C67 0.959 . S
H136 C70 0.932 . S
H137 C74 0.929 . S
H138 C75 0.961 . S
H139 C75 0.959 . S
H140 C75 0.959 . S
H141 C76 0.960 . S
H142 C76 0.962 . S
H143 C76 0.961 . S
H144 C78 0.929 . S
H145 C81 0.930 . S
H146 C82 0.929 . S
H147 C85 0.930 . S
H148 C88 0.929 . S
H149 C89 0.930 . S
H150 C93 0.962 . S
H151 C93 0.959 . S
H152 C93 0.958 . S
C153 C154 1.560 1_565 S
C153 H214 0.959 . S
C153 H215 0.959 . S
C153 H216 0.960 . S
C154 C153 1.560 1_545 S
C154 O209 1.426 1_545 S
C154 H213 0.980 . S
C155 C156 1.407 . S
C155 C160 1.418 1_545 S
C155 O209 1.334 1_545 S
C156 C155 1.407 . S
C156 C157 1.360 . S
C156 H217 0.929 . S
C157 C156 1.360 . S
C157 C158 1.401 . S
C157 C161 1.527 . S
C158 C157 1.401 . S
C158 C159 1.405 . S
C158 C191 1.587 . S
C159 C158 1.405 . S
C159 C160 1.332 1_545 S
C159 C162 1.496 1_545 S
C160 C155 1.418 1_565 S
C160 C159 1.332 1_565 S
C160 H218 0.929 . S
C161 C157 1.527 . S
C161 H219 0.959 . S
C161 H220 0.961 . S
C161 H221 0.961 . S
C162 C159 1.496 1_565 S
C162 H222 0.960 . S
C162 H223 0.960 . S
C162 H224 0.961 . S
C163 C164 1.517 . S
C163 H226 0.961 . S
C163 H227 0.960 . S
C163 H228 0.959 . S
C164 C163 1.517 . S
C164 O212 1.468 . S
C164 H225 0.980 . S
C165 C166 1.349 . S
C165 C170 1.367 . S
C165 O212 1.408 . S
C166 C165 1.349 . S
C166 C167 1.407 . S
C166 H229 0.930 . S
C167 C166 1.407 . S
C167 C168 1.449 . S
C167 C171 1.535 . S
C168 C167 1.449 . S
C168 C169 1.384 . S
C168 C193 1.553 . S
C169 C168 1.384 . S
C169 C170 1.364 . S
C169 C172 1.450 . S
C170 C165 1.367 . S
C170 C169 1.364 . S
C170 H230 0.931 . S
C171 C167 1.535 . S
C171 H231 0.959 . S
C171 H232 0.961 1_545 S
C171 H233 0.959 1_545 S
C172 C169 1.450 . S
C172 H234 0.960 . S
C172 H235 0.960 . S
C172 H236 0.960 . S
C173 C174 1.309 . S
C173 C178 1.304 . S
C173 O211 1.435 . S
C174 C173 1.309 . S
C174 C175 1.476 . S
C174 H238 0.930 . S
C175 C174 1.476 . S
C175 C176 1.400 . S
C175 C179 1.567 . S
C176 C175 1.400 . S
C176 C177 1.373 . S
C176 C198 1.432 . S
C177 C176 1.373 . S
C177 C178 1.339 . S
C177 C180 1.530 . S
C178 C173 1.304 . S
C178 C177 1.339 . S
C178 H239 0.930 . S
C179 C175 1.567 . S
C179 H240 0.961 . S
C179 H241 0.960 1_545 S
C179 H242 0.958 1_545 S
C180 C177 1.530 . S
C180 H243 0.961 . S
C180 H244 0.960 . S
C180 H245 0.960 . S
C181 C182 1.530 . S
C181 H247 0.961 . S
C181 H248 0.961 . S
C181 H249 0.959 . S
C182 C181 1.530 . S
C182 O210 1.412 . S
C182 H246 0.980 . S
C183 C184 1.288 . S
C183 C188 1.377 . S
C183 O210 1.393 . S
C184 C183 1.288 . S
C184 C185 1.369 . S
C184 H250 0.932 1_545 S
C185 C184 1.369 . S
C185 C186 1.398 . S
C185 C189 1.527 1_545 S
C186 C185 1.398 . S
C186 C187 1.380 . S
C186 C200 1.497 . S
C187 C186 1.380 . S
C187 C188 1.383 . S
C187 C190 1.603 . S
C188 C183 1.377 . S
C188 C187 1.383 . S
C188 H251 0.929 . S
C189 C185 1.527 1_565 S
C189 H252 0.961 . S
C189 H253 0.959 . S
C189 H254 0.959 . S
C190 C187 1.603 . S
C190 H255 0.960 . S
C190 H256 0.962 . S
C190 H257 0.961 . S
C191 C158 1.587 . S
C191 C192 1.360 . S
C191 C204 1.412 . S
C192 C191 1.360 . S
C192 C193 1.365 . S
C192 H258 0.929 . S
C193 C168 1.553 . S
C193 C192 1.365 . S
C193 C194 1.404 . S
C194 C193 1.404 . S
C194 C195 1.395 . S
C194 C205 1.451 . S
C195 C194 1.395 . S
C195 C196 1.322 . S
C195 H259 0.930 . S
C196 C195 1.322 . S
C196 C197 1.459 . S
C196 H260 0.929 . S
C197 C196 1.459 . S
C197 C198 1.445 . S
C197 C206 1.395 . S
C198 C176 1.432 . S
C198 C197 1.445 . S
C198 C199 1.370 . S
C199 C198 1.370 . S
C199 C200 1.438 . S
C199 H261 0.930 . S
C200 C186 1.497 . S
C200 C199 1.438 . S
C200 C201 1.360 . S
C201 C200 1.360 . S
C201 C202 1.401 . S
C201 C206 1.446 . S
C202 C201 1.401 . S
C202 C203 1.347 . S
C202 H262 0.929 . S
C203 C202 1.347 . S
C203 C204 1.455 . S
C203 H263 0.930 . S
C204 C191 1.412 . S
C204 C203 1.455 . S
C204 C205 1.331 . S
C205 C194 1.451 . S
C205 C204 1.331 . S
C205 C206 1.497 . S
C206 C197 1.395 . S
C206 C201 1.446 . S
C206 C205 1.497 . S
C207 C208 1.582 . S
C207 H264 0.962 . S
C207 H265 0.959 . S
C207 H266 0.958 . S
C208 C207 1.582 . S
C208 O211 1.458 . S
C208 H237 0.980 . S
O209 C154 1.426 1_565 S
O209 C155 1.334 1_565 S
O210 C182 1.412 . S
O210 C183 1.393 . S
O211 C173 1.435 . S
O211 C208 1.458 . S
O212 C164 1.468 . S
O212 C165 1.408 . S
H213 C154 0.980 . S
H214 C153 0.959 . S
H215 C153 0.959 . S
H216 C153 0.960 . S
H217 C156 0.929 . S
H218 C160 0.929 . S
H219 C161 0.959 . S
H220 C161 0.961 . S
H221 C161 0.961 . S
H222 C162 0.960 . S
H223 C162 0.960 . S
H224 C162 0.961 . S
H225 C164 0.980 . S
H226 C163 0.961 . S
H227 C163 0.960 . S
H228 C163 0.959 . S
H229 C166 0.930 . S
H230 C170 0.931 . S
H231 C171 0.959 . S
H232 C171 0.961 1_565 S
H233 C171 0.959 1_565 S
H234 C172 0.960 . S
H235 C172 0.960 . S
H236 C172 0.960 . S
H237 C208 0.980 . S
H238 C174 0.930 . S
H239 C178 0.930 . S
H240 C179 0.961 . S
H241 C179 0.960 1_565 S
H242 C179 0.958 1_565 S
H243 C180 0.961 . S
H244 C180 0.960 . S
H245 C180 0.960 . S
H246 C182 0.980 . S
H247 C181 0.961 . S
H248 C181 0.961 . S
H249 C181 0.959 . S
H250 C184 0.932 1_565 S
H251 C188 0.929 . S
H252 C189 0.961 . S
H253 C189 0.959 . S
H254 C189 0.959 . S
H255 C190 0.960 . S
H256 C190 0.962 . S
H257 C190 0.961 . S
H258 C192 0.929 . S
H259 C195 0.930 . S
H260 C196 0.929 . S
H261 C199 0.930 . S
H262 C202 0.929 . S
H263 C203 0.930 . S
H264 C207 0.962 . S
H265 C207 0.959 . S
H266 C207 0.958 . S
C267 C268 1.560 . S
C267 H328 0.959 . S
C267 H329 0.959 . S
C267 H330 0.960 . S
C268 C267 1.560 . S
C268 O323 1.426 . S
C268 H327 0.980 . S
C269 C270 1.407 . S
C269 C274 1.418 . S
C269 O323 1.334 . S
C270 C269 1.407 . S
C270 C271 1.360 . S
C270 H331 0.929 . S
C271 C270 1.360 . S
C271 C272 1.401 . S
C271 C275 1.527 . S
C272 C271 1.401 . S
C272 C273 1.405 . S
C272 C305 1.587 . S
C273 C272 1.405 . S
C273 C274 1.332 . S
C273 C276 1.496 . S
C274 C269 1.418 . S
C274 C273 1.332 . S
C274 H332 0.929 . S
C275 C271 1.527 . S
C275 H333 0.959 . S
C275 H334 0.961 . S
C275 H335 0.961 . S
C276 C273 1.496 . S
C276 H336 0.960 . S
C276 H337 0.960 . S
C276 H338 0.961 . S
C277 C278 1.517 . S
C277 H340 0.961 . S
C277 H341 0.960 . S
C277 H342 0.959 . S
C278 C277 1.517 . S
C278 O326 1.468 . S
C278 H339 0.980 . S
C279 C280 1.349 . S
C279 C284 1.367 . S
C279 O326 1.408 . S
C280 C279 1.349 . S
C280 C281 1.407 . S
C280 H343 0.930 . S
C281 C280 1.407 . S
C281 C282 1.449 . S
C281 C285 1.535 . S
C282 C281 1.449 . S
C282 C283 1.384 . S
C282 C307 1.553 . S
C283 C282 1.384 . S
C283 C284 1.364 . S
C283 C286 1.450 . S
C284 C279 1.367 . S
C284 C283 1.364 . S
C284 H344 0.931 . S
C285 C281 1.535 . S
C285 H345 0.959 . S
C285 H346 0.961 . S
C285 H347 0.959 . S
C286 C283 1.450 . S
C286 H348 0.960 . S
C286 H349 0.960 . S
C286 H350 0.960 . S
C287 C288 1.309 . S
C287 C292 1.304 . S
C287 O325 1.435 . S
C288 C287 1.309 . S
C288 C289 1.476 . S
C288 H352 0.930 . S
C289 C288 1.476 . S
C289 C290 1.400 . S
C289 C293 1.567 . S
C290 C289 1.400 . S
C290 C291 1.373 . S
C290 C312 1.432 . S
C291 C290 1.373 . S
C291 C292 1.339 . S
C291 C294 1.530 . S
C292 C287 1.304 . S
C292 C291 1.339 . S
C292 H353 0.930 . S
C293 C289 1.567 . S
C293 H354 0.961 . S
C293 H355 0.960 . S
C293 H356 0.958 . S
C294 C291 1.530 . S
C294 H357 0.961 . S
C294 H358 0.960 . S
C294 H359 0.960 . S
C295 C296 1.530 . S
C295 H361 0.961 . S
C295 H362 0.961 . S
C295 H363 0.959 . S
C296 C295 1.530 . S
C296 O324 1.412 . S
C296 H360 0.980 . S
C297 C298 1.288 . S
C297 C302 1.377 . S
C297 O324 1.393 . S
C298 C297 1.288 . S
C298 C299 1.369 . S
C298 H364 0.932 . S
C299 C298 1.369 . S
C299 C300 1.398 . S
C299 C303 1.527 . S
C300 C299 1.398 . S
C300 C301 1.380 . S
C300 C314 1.497 . S
C301 C300 1.380 . S
C301 C302 1.383 . S
C301 C304 1.603 . S
C302 C297 1.377 . S
C302 C301 1.383 . S
C302 H365 0.929 . S
C303 C299 1.527 . S
C303 H366 0.961 . S
C303 H367 0.959 . S
C303 H368 0.959 . S
C304 C301 1.603 . S
C304 H369 0.960 . S
C304 H370 0.962 . S
C304 H371 0.961 . S
C305 C272 1.587 . S
C305 C306 1.360 . S
C305 C318 1.412 . S
C306 C305 1.360 . S
C306 C307 1.365 . S
C306 H372 0.929 . S
C307 C282 1.553 . S
C307 C306 1.365 . S
C307 C308 1.404 . S
C308 C307 1.404 . S
C308 C309 1.395 . S
C308 C319 1.451 . S
C309 C308 1.395 . S
C309 C310 1.322 . S
C309 H373 0.930 . S
C310 C309 1.322 . S
C310 C311 1.459 . S
C310 H374 0.929 . S
C311 C310 1.459 . S
C311 C312 1.445 . S
C311 C320 1.395 . S
C312 C290 1.432 . S
C312 C311 1.445 . S
C312 C313 1.370 . S
C313 C312 1.370 . S
C313 C314 1.438 . S
C313 H375 0.930 . S
C314 C300 1.497 . S
C314 C313 1.438 . S
C314 C315 1.360 . S
C315 C314 1.360 . S
C315 C316 1.401 . S
C315 C320 1.446 . S
C316 C315 1.401 . S
C316 C317 1.347 . S
C316 H376 0.929 . S
C317 C316 1.347 . S
C317 C318 1.455 . S
C317 H377 0.930 . S
C318 C305 1.412 . S
C318 C317 1.455 . S
C318 C319 1.331 . S
C319 C308 1.451 . S
C319 C318 1.331 . S
C319 C320 1.497 . S
C320 C311 1.395 . S
C320 C315 1.446 . S
C320 C319 1.497 . S
C321 C322 1.582 . S
C321 H378 0.962 . S
C321 H379 0.959 . S
C321 H380 0.958 . S
C322 C321 1.582 . S
C322 O325 1.458 . S
C322 H351 0.980 . S
O323 C268 1.426 . S
O323 C269 1.334 . S
O324 C296 1.412 . S
O324 C297 1.393 . S
O325 C287 1.435 . S
O325 C322 1.458 . S
O326 C278 1.468 . S
O326 C279 1.408 . S
H327 C268 0.980 . S
H328 C267 0.959 . S
H329 C267 0.959 . S
H330 C267 0.960 . S
H331 C270 0.929 . S
H332 C274 0.929 . S
H333 C275 0.959 . S
H334 C275 0.961 . S
H335 C275 0.961 . S
H336 C276 0.960 . S
H337 C276 0.960 . S
H338 C276 0.961 . S
H339 C278 0.980 . S
H340 C277 0.961 . S
H341 C277 0.960 . S
H342 C277 0.959 . S
H343 C280 0.930 . S
H344 C284 0.931 . S
H345 C285 0.959 . S
H346 C285 0.961 . S
H347 C285 0.959 . S
H348 C286 0.960 . S
H349 C286 0.960 . S
H350 C286 0.960 . S
H351 C322 0.980 . S
H352 C288 0.930 . S
H353 C292 0.930 . S
H354 C293 0.961 . S
H355 C293 0.960 . S
H356 C293 0.958 . S
H357 C294 0.961 . S
H358 C294 0.960 . S
H359 C294 0.960 . S
H360 C296 0.980 . S
H361 C295 0.961 . S
H362 C295 0.961 . S
H363 C295 0.959 . S
H364 C298 0.932 . S
H365 C302 0.929 . S
H366 C303 0.961 . S
H367 C303 0.959 . S
H368 C303 0.959 . S
H369 C304 0.960 . S
H370 C304 0.962 . S
H371 C304 0.961 . S
H372 C306 0.929 . S
H373 C309 0.930 . S
H374 C310 0.929 . S
H375 C313 0.930 . S
H376 C316 0.929 . S
H377 C317 0.930 . S
H378 C321 0.962 . S
H379 C321 0.959 . S
H380 C321 0.958 . S
C381 C382 1.349 . S
C381 C383 1.327 . S
C381 H406 0.950 . S
C382 C381 1.349 . S
C382 C398 1.349 . S
C383 C381 1.327 . S
C383 C402 1.429 . S
C383 H407 0.950 . S
C384 C401 1.574 . S
C384 C403 1.368 . S
C384 H408 0.949 . S
H385 C389 0.949 . S
C386 C387 1.349 . S
C386 C388 1.327 . S
C386 H409 0.950 . S
C387 C386 1.349 . S
C387 C399 1.349 . S
C388 C386 1.327 . S
C388 C404 1.429 . S
C388 H410 0.950 . S
C389 H385 0.949 . S
C389 C397 1.574 . S
C389 C405 1.368 . S
H390 C398 0.950 . S
H391 C396 0.950 . S
H392 C397 0.949 . S
H393 C399 0.950 . S
H394 C400 0.950 . S
H395 C401 0.949 . S
C396 H391 0.950 . S
C396 C398 1.327 . S
C396 C402 1.429 . S
C397 C389 1.574 . S
C397 H392 0.949 . S
C397 C403 1.368 . S
C398 C382 1.349 . S
C398 H390 0.950 . S
C398 C396 1.327 . S
C399 C387 1.349 . S
C399 H393 0.950 . S
C399 C400 1.327 . S
C400 H394 0.950 . S
C400 C399 1.327 . S
C400 C404 1.429 . S
C401 C384 1.574 . S
C401 H395 0.949 . S
C401 C405 1.368 . S
C402 C383 1.429 . S
C402 C396 1.429 . S
C402 C403 1.523 . S
C403 C384 1.368 . S
C403 C397 1.368 . S
C403 C402 1.523 . S
C404 C388 1.429 . S
C404 C400 1.429 . S
C404 C405 1.523 . S
C405 C389 1.368 . S
C405 C401 1.368 . S
C405 C404 1.523 . S
H406 C381 0.950 . S
H407 C383 0.950 . S
H408 C384 0.949 . S
H409 C386 0.950 . S
H410 C388 0.950 . S
C411 C412 1.349 . S
C411 C413 1.327 . S
C411 H436 0.950 . S
C412 C411 1.349 . S
C412 C428 1.349 . S
C413 C411 1.327 . S
C413 C432 1.429 . S
C413 H437 0.950 . S
C414 C431 1.574 . S
C414 C433 1.368 . S
C414 H438 0.949 . S
H415 C419 0.949 . S
C416 C417 1.349 . S
C416 C418 1.327 . S
C416 H439 0.950 . S
C417 C416 1.349 . S
C417 C429 1.349 . S
C418 C416 1.327 . S
C418 C434 1.429 . S
C418 H440 0.950 . S
C419 H415 0.949 . S
C419 C427 1.574 . S
C419 C435 1.368 . S
H420 C428 0.950 . S
H421 C426 0.950 . S
H422 C427 0.949 . S
H423 C429 0.950 . S
H424 C430 0.950 . S
H425 C431 0.949 . S
C426 H421 0.950 . S
C426 C428 1.327 . S
C426 C432 1.429 . S
C427 C419 1.574 . S
C427 H422 0.949 . S
C427 C433 1.368 . S
C428 C412 1.349 . S
C428 H420 0.950 . S
C428 C426 1.327 . S
C429 C417 1.349 . S
C429 H423 0.950 . S
C429 C430 1.327 . S
C430 H424 0.950 . S
C430 C429 1.327 . S
C430 C434 1.429 . S
C431 C414 1.574 . S
C431 H425 0.949 . S
C431 C435 1.368 . S
C432 C413 1.429 . S
C432 C426 1.429 . S
C432 C433 1.523 . S
C433 C414 1.368 . S
C433 C427 1.368 . S
C433 C432 1.523 . S
C434 C418 1.429 . S
C434 C430 1.429 . S
C434 C435 1.523 . S
C435 C419 1.368 . S
C435 C431 1.368 . S
C435 C434 1.523 . S
H436 C411 0.950 . S
H437 C413 0.950 . S
H438 C414 0.949 . S
H439 C416 0.950 . S
H440 C418 0.950 . S
C441 C442 1.349 . S
C441 C443 1.327 . S
C441 H466 0.950 . S
C442 C441 1.349 . S
C442 C458 1.349 . S
C443 C441 1.327 . S
C443 C462 1.429 . S
C443 H467 0.950 . S
C444 C461 1.574 . S
C444 C463 1.368 . S
C444 H468 0.949 . S
H445 C449 0.949 . S
C446 C447 1.349 . S
C446 C448 1.327 . S
C446 H469 0.950 . S
C447 C446 1.349 . S
C447 C459 1.349 . S
C448 C446 1.327 . S
C448 C464 1.429 . S
C448 H470 0.950 . S
C449 H445 0.949 . S
C449 C457 1.574 . S
C449 C465 1.368 . S
H450 C458 0.950 . S
H451 C456 0.950 . S
H452 C457 0.949 . S
H453 C459 0.950 . S
H454 C460 0.950 . S
H455 C461 0.949 . S
C456 H451 0.950 . S
C456 C458 1.327 . S
C456 C462 1.429 . S
C457 C449 1.574 . S
C457 H452 0.949 . S
C457 C463 1.368 . S
C458 C442 1.349 . S
C458 H450 0.950 . S
C458 C456 1.327 . S
C459 C447 1.349 . S
C459 H453 0.950 . S
C459 C460 1.327 . S
C460 H454 0.950 . S
C460 C459 1.327 . S
C460 C464 1.429 . S
C461 C444 1.574 . S
C461 H455 0.949 . S
C461 C465 1.368 . S
C462 C443 1.429 . S
C462 C456 1.429 . S
C462 C463 1.523 . S
C463 C444 1.368 . S
C463 C457 1.368 . S
C463 C462 1.523 . S
C464 C448 1.429 . S
C464 C460 1.429 . S
C464 C465 1.523 . S
C465 C449 1.368 . S
C465 C461 1.368 . S
C465 C464 1.523 . S
H466 C441 0.950 . S
H467 C443 0.950 . S
H468 C444 0.949 . S
H469 C446 0.950 . S
H470 C448 0.950 . S
C471 C472 1.349 . S
C471 C473 1.327 . S
C471 H496 0.950 . S
C472 C471 1.349 . S
C472 C488 1.349 . S
C473 C471 1.327 . S
C473 C492 1.429 . S
C473 H497 0.950 . S
C474 C491 1.574 . S
C474 C493 1.368 . S
C474 H498 0.949 . S
H475 C479 0.949 . S
C476 C477 1.349 . S
C476 C478 1.327 . S
C476 H499 0.950 . S
C477 C476 1.349 . S
C477 C489 1.349 . S
C478 C476 1.327 . S
C478 C494 1.429 . S
C478 H500 0.950 . S
C479 H475 0.949 . S
C479 C487 1.574 . S
C479 C495 1.368 . S
H480 C488 0.950 1_545 S
H481 C486 0.950 . S
H482 C487 0.949 . S
H483 C489 0.950 . S
H484 C490 0.950 . S
H485 C491 0.949 . S
C486 H481 0.950 . S
C486 C488 1.327 . S
C486 C492 1.429 . S
C487 C479 1.574 . S
C487 H482 0.949 . S
C487 C493 1.368 . S
C488 C472 1.349 . S
C488 H480 0.950 1_565 S
C488 C486 1.327 . S
C489 C477 1.349 . S
C489 H483 0.950 . S
C489 C490 1.327 . S
C490 H484 0.950 . S
C490 C489 1.327 . S
C490 C494 1.429 . S
C491 C474 1.574 . S
C491 H485 0.949 . S
C491 C495 1.368 . S
C492 C473 1.429 . S
C492 C486 1.429 . S
C492 C493 1.523 . S
C493 C474 1.368 . S
C493 C487 1.368 . S
C493 C492 1.523 . S
C494 C478 1.429 . S
C494 C490 1.429 . S
C494 C495 1.523 . S
C495 C479 1.368 . S
C495 C491 1.368 . S
C495 C494 1.523 . S
H496 C471 0.950 . S
H497 C473 0.950 . S
H498 C474 0.949 . S
H499 C476 0.950 . S
H500 C478 0.950 . S
C501 C502 1.349 . S
C501 C503 1.327 . S
C501 H526 0.950 . S
C502 C501 1.349 . S
C502 C518 1.349 . S
C503 C501 1.327 . S
C503 C522 1.429 . S
C503 H527 0.950 . S
C504 C521 1.574 . S
C504 C523 1.368 . S
C504 H528 0.949 . S
H505 C509 0.949 . S
C506 C507 1.349 . S
C506 C508 1.327 . S
C506 H529 0.950 . S
C507 C506 1.349 . S
C507 C519 1.349 . S
C508 C506 1.327 . S
C508 C524 1.429 . S
C508 H530 0.950 . S
C509 H505 0.949 . S
C509 C517 1.574 . S
C509 C525 1.368 . S
H510 C518 0.950 . S
H511 C516 0.950 . S
H512 C517 0.949 . S
H513 C519 0.950 . S
H514 C520 0.950 . S
H515 C521 0.949 . S
C516 H511 0.950 . S
C516 C518 1.327 . S
C516 C522 1.429 . S
C517 C509 1.574 . S
C517 H512 0.949 . S
C517 C523 1.368 . S
C518 C502 1.349 . S
C518 H510 0.950 . S
C518 C516 1.327 . S
C519 C507 1.349 . S
C519 H513 0.950 . S
C519 C520 1.327 . S
C520 H514 0.950 . S
C520 C519 1.327 . S
C520 C524 1.429 . S
C521 C504 1.574 . S
C521 H515 0.949 . S
C521 C525 1.368 . S
C522 C503 1.429 . S
C522 C516 1.429 . S
C522 C523 1.523 . S
C523 C504 1.368 . S
C523 C517 1.368 . S
C523 C522 1.523 . S
C524 C508 1.429 . S
C524 C520 1.429 . S
C524 C525 1.523 . S
C525 C509 1.368 . S
C525 C521 1.368 . S
C525 C524 1.523 . S
H526 C501 0.950 . S
H527 C503 0.950 . S
H528 C504 0.949 . S
H529 C506 0.950 . S
H530 C508 0.950 . S
C531 C532 1.349 . S
C531 C533 1.327 . S
C531 H556 0.950 . S
C532 C531 1.349 . S
C532 C548 1.349 . S
C533 C531 1.327 . S
C533 C552 1.429 . S
C533 H557 0.950 . S
C534 C551 1.574 . S
C534 C553 1.368 . S
C534 H558 0.949 . S
H535 C539 0.949 . S
C536 C537 1.349 . S
C536 C538 1.327 . S
C536 H559 0.950 . S
C537 C536 1.349 . S
C537 C549 1.349 . S
C538 C536 1.327 . S
C538 C554 1.429 . S
C538 H560 0.950 . S
C539 H535 0.949 . S
C539 C547 1.574 . S
C539 C555 1.368 . S
H540 C548 0.950 . S
H541 C546 0.950 . S
H542 C547 0.949 . S
H543 C549 0.950 . S
H544 C550 0.950 . S
H545 C551 0.949 . S
C546 H541 0.950 . S
C546 C548 1.327 . S
C546 C552 1.429 . S
C547 C539 1.574 . S
C547 H542 0.949 . S
C547 C553 1.368 . S
C548 C532 1.349 . S
C548 H540 0.950 . S
C548 C546 1.327 . S
C549 C537 1.349 . S
C549 H543 0.950 . S
C549 C550 1.327 . S
C550 H544 0.950 . S
C550 C549 1.327 . S
C550 C554 1.429 . S
C551 C534 1.574 . S
C551 H545 0.949 . S
C551 C555 1.368 . S
C552 C533 1.429 . S
C552 C546 1.429 . S
C552 C553 1.523 . S
C553 C534 1.368 . S
C553 C547 1.368 . S
C553 C552 1.523 . S
C554 C538 1.429 . S
C554 C550 1.429 . S
C554 C555 1.523 . S
C555 C539 1.368 . S
C555 C551 1.368 . S
C555 C554 1.523 . S
H556 C531 0.950 . S
H557 C533 0.950 . S
H558 C534 0.949 . S
H559 C536 0.950 . S
H560 C538 0.950 . S
C561 C562 1.349 . S
C561 C563 1.327 . S
C561 H586 0.950 1_545 S
C562 C561 1.349 . S
C562 C578 1.349 . S
C563 C561 1.327 . S
C563 C582 1.429 . S
C563 H587 0.950 1_545 S
C564 C581 1.574 . S
C564 C583 1.368 . S
C564 H588 0.949 . S
H565 C569 0.949 1_565 S
C566 C567 1.349 . S
C566 C568 1.327 . S
C566 H589 0.950 . S
C567 C566 1.349 . S
C567 C579 1.349 . S
C568 C566 1.327 . S
C568 C584 1.429 . S
C568 H590 0.950 . S
C569 H565 0.949 1_545 S
C569 C577 1.574 . S
C569 C585 1.368 . S
H570 C578 0.950 1_455 S
H571 C576 0.950 . S
H572 C577 0.949 1_565 S
H573 C579 0.950 1_565 S
H574 C580 0.950 1_565 S
H575 C581 0.949 . S
C576 H571 0.950 . S
C576 C578 1.327 . S
C576 C582 1.429 . S
C577 C569 1.574 . S
C577 H572 0.949 1_545 S
C577 C583 1.368 . S
C578 C562 1.349 . S
C578 H570 0.950 1_655 S
C578 C576 1.327 . S
C579 C567 1.349 . S
C579 H573 0.950 1_545 S
C579 C580 1.327 . S
C580 H574 0.950 1_545 S
C580 C579 1.327 . S
C580 C584 1.429 . S
C581 C564 1.574 . S
C581 H575 0.949 . S
C581 C585 1.368 . S
C582 C563 1.429 . S
C582 C576 1.429 . S
C582 C583 1.523 . S
C583 C564 1.368 . S
C583 C577 1.368 . S
C583 C582 1.523 . S
C584 C568 1.429 . S
C584 C580 1.429 . S
C584 C585 1.523 . S
C585 C569 1.368 . S
C585 C581 1.368 . S
C585 C584 1.523 . S
H586 C561 0.950 1_565 S
H587 C563 0.950 1_565 S
H588 C564 0.949 . S
H589 C566 0.950 . S
H590 C568 0.950 . S
C591 C592 1.349 . S
C591 C593 1.327 . S
C591 H616 0.950 1_565 S
C592 C591 1.349 . S
C592 C608 1.349 . S
C593 C591 1.327 . S
C593 C612 1.429 . S
C593 H617 0.950 . S
C594 C611 1.574 . S
C594 C613 1.368 . S
C594 H618 0.949 . S
H595 C599 0.949 . S
C596 C597 1.349 . S
C596 C598 1.327 . S
C596 H619 0.950 . S
C597 C596 1.349 . S
C597 C609 1.349 . S
C598 C596 1.327 . S
C598 C614 1.429 . S
C598 H620 0.950 1_556 S
C599 H595 0.949 . S
C599 C607 1.574 1_556 S
C599 C615 1.368 1_556 S
H600 C608 0.950 . S
H601 C606 0.950 . S
H602 C607 0.949 . S
H603 C609 0.950 . S
H604 C610 0.950 . S
H605 C611 0.949 . S
C606 H601 0.950 . S
C606 C608 1.327 . S
C606 C612 1.429 . S
C607 C599 1.574 1_554 S
C607 H602 0.949 . S
C607 C613 1.368 . S
C608 C592 1.349 . S
C608 H600 0.950 . S
C608 C606 1.327 . S
C609 C597 1.349 . S
C609 H603 0.950 . S
C609 C610 1.327 . S
C610 H604 0.950 . S
C610 C609 1.327 . S
C610 C614 1.429 . S
C611 C594 1.574 . S
C611 H605 0.949 . S
C611 C615 1.368 . S
C612 C593 1.429 . S
C612 C606 1.429 . S
C612 C613 1.523 . S
C613 C594 1.368 . S
C613 C607 1.368 . S
C613 C612 1.523 . S
C614 C598 1.429 . S
C614 C610 1.429 . S
C614 C615 1.523 1_556 S
C615 C599 1.368 1_554 S
C615 C611 1.368 . S
C615 C614 1.523 1_554 S
H616 C591 0.950 1_545 S
H617 C593 0.950 . S
H618 C594 0.949 . S
H619 C596 0.950 . S
H620 C598 0.950 1_554 S
C621 C622 1.349 1_545 S
C621 C623 1.327 1_545 S
C621 H646 0.950 . S
C622 C621 1.349 1_565 S
C622 C638 1.349 . S
C623 C621 1.327 1_565 S
C623 C642 1.429 . S
C623 H647 0.950 . S
C624 C641 1.574 . S
C624 C643 1.368 . S
C624 H648 0.949 . S
H625 C629 0.949 . S
C626 C627 1.349 . S
C626 C628 1.327 . S
C626 H649 0.950 . S
C627 C626 1.349 . S
C627 C639 1.349 . S
C628 C626 1.327 . S
C628 C644 1.429 . S
C628 H650 0.950 . S
C629 H625 0.949 . S
C629 C637 1.574 . S
C629 C645 1.368 . S
H630 C638 0.950 . S
H631 C636 0.950 . S
H632 C637 0.949 . S
H633 C639 0.950 . S
H634 C640 0.950 . S
H635 C641 0.949 . S
C636 H631 0.950 . S
C636 C638 1.327 . S
C636 C642 1.429 . S
C637 C629 1.574 . S
C637 H632 0.949 . S
C637 C643 1.368 . S
C638 C622 1.349 . S
C638 H630 0.950 . S
C638 C636 1.327 . S
C639 C627 1.349 . S
C639 H633 0.950 . S
C639 C640 1.327 . S
C640 H634 0.950 . S
C640 C639 1.327 . S
C640 C644 1.429 . S
C641 C624 1.574 . S
C641 H635 0.949 . S
C641 C645 1.368 . S
C642 C623 1.429 . S
C642 C636 1.429 . S
C642 C643 1.523 . S
C643 C624 1.368 . S
C643 C637 1.368 . S
C643 C642 1.523 . S
C644 C628 1.429 . S
C644 C640 1.429 . S
C644 C645 1.523 . S
C645 C629 1.368 . S
C645 C641 1.368 . S
C645 C644 1.523 . S
H646 C621 0.950 . S
H647 C623 0.950 . S
H648 C624 0.949 . S
H649 C626 0.950 . S
H650 C628 0.950 . S
C651 C652 1.349 . S
C651 C653 1.327 . S
C651 H676 0.950 . S
C652 C651 1.349 . S
C652 C668 1.349 1_545 S
C653 C651 1.327 . S
C653 C672 1.429 . S
C653 H677 0.950 . S
C654 C671 1.574 . S
C654 C673 1.368 1_565 S
C654 H678 0.949 . S
H655 C659 0.949 . S
C656 C657 1.349 1_565 S
C656 C658 1.327 . S
C656 H679 0.950 . S
C657 C656 1.349 1_545 S
C657 C669 1.349 . S
C658 C656 1.327 . S
C658 C674 1.429 1_565 S
C658 H680 0.950 . S
C659 H655 0.949 . S
C659 C667 1.574 . S
C659 C675 1.368 . S
H660 C668 0.950 . S
H661 C666 0.950 . S
H662 C667 0.949 . S
H663 C669 0.950 . S
H664 C670 0.950 . S
H665 C671 0.949 . S
C666 H661 0.950 . S
C666 C668 1.327 . S
C666 C672 1.429 1_565 S
C667 C659 1.574 . S
C667 H662 0.949 . S
C667 C673 1.368 . S
C668 C652 1.349 1_565 S
C668 H660 0.950 . S
C668 C666 1.327 . S
C669 C657 1.349 . S
C669 H663 0.950 . S
C669 C670 1.327 . S
C670 H664 0.950 . S
C670 C669 1.327 . S
C670 C674 1.429 . S
C671 C654 1.574 . S
C671 H665 0.949 . S
C671 C675 1.368 1_565 S
C672 C653 1.429 . S
C672 C666 1.429 1_545 S
C672 C673 1.523 . S
C673 C654 1.368 1_545 S
C673 C667 1.368 . S
C673 C672 1.523 . S
C674 C658 1.429 1_545 S
C674 C670 1.429 . S
C674 C675 1.523 . S
C675 C659 1.368 . S
C675 C671 1.368 1_545 S
C675 C674 1.523 . S
H676 C651 0.950 . S
H677 C653 0.950 . S
H678 C654 0.949 . S
H679 C656 0.950 . S
H680 C658 0.950 . S
C681 C682 1.349 . S
C681 C683 1.327 . S
C681 H706 0.950 . S
C682 C681 1.349 . S
C682 C698 1.349 . S
C683 C681 1.327 . S
C683 C702 1.429 . S
C683 H707 0.950 . S
C684 C701 1.574 . S
C684 C703 1.368 . S
C684 H708 0.949 . S
H685 C689 0.949 1_556 S
C686 C687 1.349 . S
C686 C688 1.327 . S
C686 H709 0.950 . S
C687 C686 1.349 . S
C687 C699 1.349 . S
C688 C686 1.327 . S
C688 C704 1.429 . S
C688 H710 0.950 . S
C689 H685 0.949 1_554 S
C689 C697 1.574 . S
C689 C705 1.364 1_554 S
H690 C698 0.950 . S
H691 C696 0.950 . S
H692 C697 0.949 . S
H693 C699 0.950 . S
H694 C700 0.950 . S
H695 C701 0.949 . S
C696 H691 0.950 . S
C696 C698 1.327 . S
C696 C702 1.429 . S
C697 C689 1.574 . S
C697 H692 0.949 . S
C697 C703 1.368 . S
C698 C682 1.349 . S
C698 H690 0.950 . S
C698 C696 1.327 . S
C699 C687 1.349 . S
C699 H693 0.950 . S
C699 C700 1.327 . S
C700 H694 0.950 . S
C700 C699 1.327 . S
C700 C704 1.429 . S
C701 C684 1.574 . S
C701 H695 0.949 . S
C701 C705 1.357 1_554 S
C702 C683 1.429 . S
C702 C696 1.429 . S
C702 C703 1.523 . S
C703 C684 1.368 . S
C703 C697 1.368 . S
C703 C702 1.523 . S
C704 C688 1.429 . S
C704 C700 1.429 . S
C704 C705 1.543 . S
C705 C689 1.364 1_556 S
C705 C701 1.357 1_556 S
C705 C704 1.543 . S
H706 C681 0.950 . S
H707 C683 0.950 . S
H708 C684 0.949 . S
H709 C686 0.950 . S
H710 C688 0.950 . S
C711 C712 1.349 . S
C711 C713 1.327 . S
C711 H736 0.950 . S
C712 C711 1.349 . S
C712 C728 1.349 . S
C713 C711 1.327 . S
C713 C732 1.429 . S
C713 H737 0.950 . S
C714 C731 1.574 . S
C714 C733 1.368 . S
C714 H738 0.949 . S
H715 C719 0.949 . S
C716 C717 1.349 . S
C716 C718 1.327 . S
C716 H739 0.950 . S
C717 C716 1.349 . S
C717 C729 1.349 . S
C718 C716 1.327 . S
C718 C734 1.429 . S
C718 H740 0.950 . S
C719 H715 0.949 . S
C719 C727 1.574 . S
C719 C735 1.368 . S
H720 C728 0.950 . S
H721 C726 0.950 . S
H722 C727 0.949 . S
H723 C729 0.950 . S
H724 C730 0.950 . S
H725 C731 0.949 . S
C726 H721 0.950 . S
C726 C728 1.327 . S
C726 C732 1.429 . S
C727 C719 1.574 . S
C727 H722 0.949 . S
C727 C733 1.368 . S
C728 C712 1.349 . S
C728 H720 0.950 . S
C728 C726 1.327 . S
C729 C717 1.349 . S
C729 H723 0.950 . S
C729 C730 1.327 . S
C730 H724 0.950 . S
C730 C729 1.327 . S
C730 C734 1.429 . S
C731 C714 1.574 . S
C731 H725 0.949 . S
C731 C735 1.368 . S
C732 C713 1.429 . S
C732 C726 1.429 . S
C732 C733 1.523 . S
C733 C714 1.368 . S
C733 C727 1.368 . S
C733 C732 1.523 . S
C734 C718 1.429 . S
C734 C730 1.429 . S
C734 C735 1.523 . S
C735 C719 1.368 . S
C735 C731 1.368 . S
C735 C734 1.523 . S
H736 C711 0.950 . S
H737 C713 0.950 . S
H738 C714 0.949 . S
H739 C716 0.950 . S
H740 C718 0.950 . S
C387 C94 1.057 . S
C382 C10 1.463 . S
C412 C21 1.494 1_655 S
C417 C208 1.126 . S
C442 C31 1.175 . S
C447 C268 0.954 . S
C472 C0 1.245 . S
C477 C68 1.060 . S
C507 C182 1.068 . S
C502 C18 1.255 . S
C532 C34 1.360 . S
C537 C278 0.887 . S
C567 C164 0.824 . S
C562 C36 1.356 . S
C592 C8 1.286 1_565 S
C597 C296 1.036 . S
C627 C40 0.979 . S
C622 C23 1.205 1_565 S
C657 C154 0.918 . S
C652 C26 1.098 . S
C687 C322 1.142 . S
C682 C5 1.420 . S
C712 C13 1.313 . S
C717 C50 0.812 . S
