# Generated by pormake.
# Topology ctn, (3,4)-cn, num edge types: 1
# Building blocks:
#     Node 0, Type 0, BuildingBlock: BELTOD_clean_linker_0, # of connection points: 3
#     Node 1, Type 0, BuildingBlock: BELTOD_clean_linker_0, # of connection points: 3
#     Node 2, Type 0, BuildingBlock: BELTOD_clean_linker_0, # of connection points: 3
#     Node 3, Type 0, BuildingBlock: BELTOD_clean_linker_0, # of connection points: 3
#     Node 4, Type 0, BuildingBlock: BELTOD_clean_linker_0, # of connection points: 3
#     Node 5, Type 0, BuildingBlock: BELTOD_clean_linker_0, # of connection points: 3
#     Node 6, Type 0, BuildingBlock: BELTOD_clean_linker_0, # of connection points: 3
#     Node 7, Type 0, BuildingBlock: BELTOD_clean_linker_0, # of connection points: 3
#     Node 8, Type 0, BuildingBlock: BELTOD_clean_linker_0, # of connection points: 3
#     Node 9, Type 0, BuildingBlock: BELTOD_clean_linker_0, # of connection points: 3
#     Node 10, Type 0, BuildingBlock: BELTOD_clean_linker_0, # of connection points: 3
#     Node 11, Type 0, BuildingBlock: BELTOD_clean_linker_0, # of connection points: 3
#     Node 12, Type 0, BuildingBlock: BELTOD_clean_linker_0, # of connection points: 3
#     Node 13, Type 0, BuildingBlock: BELTOD_clean_linker_0, # of connection points: 3
#     Node 14, Type 0, BuildingBlock: BELTOD_clean_linker_0, # of connection points: 3
#     Node 15, Type 0, BuildingBlock: BELTOD_clean_linker_0, # of connection points: 3
#     Node 16, Type 1, BuildingBlock: TATPOV_clean_sbu_0, # of connection points: 4
#     Node 17, Type 1, BuildingBlock: TATPOV_clean_sbu_0, # of connection points: 4
#     Node 18, Type 1, BuildingBlock: TATPOV_clean_sbu_0, # of connection points: 4
#     Node 19, Type 1, BuildingBlock: TATPOV_clean_sbu_0, # of connection points: 4
#     Node 20, Type 1, BuildingBlock: TATPOV_clean_sbu_0, # of connection points: 4
#     Node 21, Type 1, BuildingBlock: TATPOV_clean_sbu_0, # of connection points: 4
#     Node 22, Type 1, BuildingBlock: TATPOV_clean_sbu_0, # of connection points: 4
#     Node 23, Type 1, BuildingBlock: TATPOV_clean_sbu_0, # of connection points: 4
#     Node 24, Type 1, BuildingBlock: TATPOV_clean_sbu_0, # of connection points: 4
#     Node 25, Type 1, BuildingBlock: TATPOV_clean_sbu_0, # of connection points: 4
#     Node 26, Type 1, BuildingBlock: TATPOV_clean_sbu_0, # of connection points: 4
#     Node 27, Type 1, BuildingBlock: TATPOV_clean_sbu_0, # of connection points: 4
#     Edge 28, Type (0, 1), BuildingBlock: XIVTED_clean_linker_0, # of connection points: 2
#     Edge 29, Type (0, 1), BuildingBlock: XIVTED_clean_linker_0, # of connection points: 2
#     Edge 30, Type (0, 1), BuildingBlock: XIVTED_clean_linker_0, # of connection points: 2
#     Edge 31, Type (0, 1), BuildingBlock: XIVTED_clean_linker_0, # of connection points: 2
#     Edge 32, Type (0, 1), BuildingBlock: XIVTED_clean_linker_0, # of connection points: 2
#     Edge 33, Type (0, 1), BuildingBlock: XIVTED_clean_linker_0, # of connection points: 2
#     Edge 34, Type (0, 1), BuildingBlock: XIVTED_clean_linker_0, # of connection points: 2
#     Edge 35, Type (0, 1), BuildingBlock: XIVTED_clean_linker_0, # of connection points: 2
#     Edge 36, Type (0, 1), BuildingBlock: XIVTED_clean_linker_0, # of connection points: 2
#     Edge 37, Type (0, 1), BuildingBlock: XIVTED_clean_linker_0, # of connection points: 2
#     Edge 38, Type (0, 1), BuildingBlock: XIVTED_clean_linker_0, # of connection points: 2
#     Edge 39, Type (0, 1), BuildingBlock: XIVTED_clean_linker_0, # of connection points: 2
#     Edge 40, Type (0, 1), BuildingBlock: XIVTED_clean_linker_0, # of connection points: 2
#     Edge 41, Type (0, 1), BuildingBlock: XIVTED_clean_linker_0, # of connection points: 2
#     Edge 42, Type (0, 1), BuildingBlock: XIVTED_clean_linker_0, # of connection points: 2
#     Edge 43, Type (0, 1), BuildingBlock: XIVTED_clean_linker_0, # of connection points: 2
#     Edge 44, Type (0, 1), BuildingBlock: XIVTED_clean_linker_0, # of connection points: 2
#     Edge 45, Type (0, 1), BuildingBlock: XIVTED_clean_linker_0, # of connection points: 2
#     Edge 46, Type (0, 1), BuildingBlock: XIVTED_clean_linker_0, # of connection points: 2
#     Edge 47, Type (0, 1), BuildingBlock: XIVTED_clean_linker_0, # of connection points: 2
#     Edge 48, Type (0, 1), BuildingBlock: XIVTED_clean_linker_0, # of connection points: 2
#     Edge 49, Type (0, 1), BuildingBlock: XIVTED_clean_linker_0, # of connection points: 2
#     Edge 50, Type (0, 1), BuildingBlock: XIVTED_clean_linker_0, # of connection points: 2
#     Edge 51, Type (0, 1), BuildingBlock: XIVTED_clean_linker_0, # of connection points: 2
#     Edge 52, Type (0, 1), BuildingBlock: XIVTED_clean_linker_0, # of connection points: 2
#     Edge 53, Type (0, 1), BuildingBlock: XIVTED_clean_linker_0, # of connection points: 2
#     Edge 54, Type (0, 1), BuildingBlock: XIVTED_clean_linker_0, # of connection points: 2
#     Edge 55, Type (0, 1), BuildingBlock: XIVTED_clean_linker_0, # of connection points: 2
#     Edge 56, Type (0, 1), BuildingBlock: XIVTED_clean_linker_0, # of connection points: 2
#     Edge 57, Type (0, 1), BuildingBlock: XIVTED_clean_linker_0, # of connection points: 2
#     Edge 58, Type (0, 1), BuildingBlock: XIVTED_clean_linker_0, # of connection points: 2
#     Edge 59, Type (0, 1), BuildingBlock: XIVTED_clean_linker_0, # of connection points: 2
#     Edge 60, Type (0, 1), BuildingBlock: XIVTED_clean_linker_0, # of connection points: 2
#     Edge 61, Type (0, 1), BuildingBlock: XIVTED_clean_linker_0, # of connection points: 2
#     Edge 62, Type (0, 1), BuildingBlock: XIVTED_clean_linker_0, # of connection points: 2
#     Edge 63, Type (0, 1), BuildingBlock: XIVTED_clean_linker_0, # of connection points: 2
#     Edge 64, Type (0, 1), BuildingBlock: XIVTED_clean_linker_0, # of connection points: 2
#     Edge 65, Type (0, 1), BuildingBlock: XIVTED_clean_linker_0, # of connection points: 2
#     Edge 66, Type (0, 1), BuildingBlock: XIVTED_clean_linker_0, # of connection points: 2
#     Edge 67, Type (0, 1), BuildingBlock: XIVTED_clean_linker_0, # of connection points: 2
#     Edge 68, Type (0, 1), BuildingBlock: XIVTED_clean_linker_0, # of connection points: 2
#     Edge 69, Type (0, 1), BuildingBlock: XIVTED_clean_linker_0, # of connection points: 2
#     Edge 70, Type (0, 1), BuildingBlock: XIVTED_clean_linker_0, # of connection points: 2
#     Edge 71, Type (0, 1), BuildingBlock: XIVTED_clean_linker_0, # of connection points: 2
#     Edge 72, Type (0, 1), BuildingBlock: XIVTED_clean_linker_0, # of connection points: 2
#     Edge 73, Type (0, 1), BuildingBlock: XIVTED_clean_linker_0, # of connection points: 2
#     Edge 74, Type (0, 1), BuildingBlock: XIVTED_clean_linker_0, # of connection points: 2
#     Edge 75, Type (0, 1), BuildingBlock: XIVTED_clean_linker_0, # of connection points: 2
# Relax obj value: 0.003
# Max RMSD: 0.051
# Mean RMSD: 0.025
data_MOF--net-ctn--node1-TATPOV_clean_sbu_0--node2-BELTOD_clean_linker_0--edge1-XIVTED_clean_linker_0
_symmetry_space_group_name_H-M    P1
_symmetry_Int_Tables_number       1
_symmetry_cell_setting            triclinic
loop_
_symmetry_equiv_pos_as_xyz
'x, y, z'
_cell_length_a     62.09033
_cell_length_b     62.574687
_cell_length_c     62.003001
_cell_angle_alpha  90.30793
_cell_angle_beta   91.162143
_cell_angle_gamma 91.758186
loop_
_atom_site_label
_atom_site_type_symbol
_atom_site_fract_x
_atom_site_fract_y
_atom_site_fract_z
_atom_type_partial_charge
P0 P 0.05681 0.06042 0.04698 0.0
H1 H 0.05285 0.06013 0.09382 0.0
H2 H 0.02324 0.05061 0.11759 0.0
H3 H 0.98312 0.03322 0.06212 0.0
H4 H 0.01295 0.04292 0.03832 0.0
H5 H 0.10256 0.05494 0.03995 0.0
H6 H 0.12387 0.02382 0.03227 0.0
H7 H 0.06559 0.98426 0.02859 0.0
H8 H 0.04439 0.01553 0.03669 0.0
H9 H 0.02303 0.09142 0.04246 0.0
H10 H 0.07056 0.0638 0.00191 0.0
O11 O 0.0734 0.07699 0.06106 0.0
H12 H 0.01315 0.11579 0.01358 0.0
H13 H 0.06112 0.08852 0.97302 0.0
C14 C 0.03498 0.05255 0.06429 0.0
C15 C 0.03768 0.05435 0.08673 0.0
C16 C 0.02071 0.04896 0.10031 0.0
C17 C 0.00077 0.04136 0.09173 0.0
C18 C 0.99831 0.03897 0.06922 0.0
C19 C 0.01528 0.04459 0.05561 0.0
C20 C 0.07193 0.0375 0.03933 0.0
C21 C 0.09434 0.03958 0.03744 0.0
C22 C 0.10652 0.02176 0.03287 0.0
C23 C 0.09649 0.00145 0.02994 0.0
C24 C 0.07388 -0.00042 0.03113 0.0
C25 C 0.0617 0.01748 0.03568 0.0
C26 C 0.04719 0.07544 0.0242 0.0
C27 C 0.03105 0.09029 0.02716 0.0
C28 C 0.02561 0.10443 0.0107 0.0
C29 C 0.03643 0.10423 0.99098 0.0
C30 C 0.05227 0.08894 0.98788 0.0
C31 C 0.0577 0.07477 0.00441 0.0
P32 P 0.27013 0.67101 0.20667 0.0
H33 H 0.29603 0.70069 0.182 0.0
H34 H 0.28768 0.73153 0.15986 0.0
H35 H 0.22024 0.72299 0.17457 0.0
H36 H 0.22877 0.69189 0.19673 0.0
H37 H 0.31028 0.65135 0.22079 0.0
H38 H 0.34025 0.66409 0.24414 0.0
H39 H 0.3053 0.72088 0.25885 0.0
H40 H 0.27568 0.70824 0.23505 0.0
H41 H 0.23425 0.64474 0.18982 0.0
H42 H 0.25596 0.66945 0.25185 0.0
O43 O 0.28016 0.65327 0.18969 0.0
H44 H 0.20506 0.62458 0.20704 0.0
H45 H 0.22666 0.64958 0.26917 0.0
C46 C 0.26308 0.69404 0.19104 0.0
C47 C 0.27945 0.70552 0.18057 0.0
C48 C 0.27466 0.72324 0.16803 0.0
C49 C 0.25329 0.72985 0.1656 0.0
C50 C 0.23683 0.71825 0.17607 0.0
C51 C 0.2417 0.70049 0.18878 0.0
C52 C 0.291 0.67909 0.22587 0.0
C53 C 0.30904 0.66648 0.22915 0.0
C54 C 0.3261 0.67371 0.24265 0.0
C55 C 0.32531 0.69364 0.25317 0.0
C56 C 0.30664 0.70568 0.25064 0.0
C57 C 0.28966 0.69845 0.23711 0.0
C58 C 0.24743 0.65834 0.21955 0.0
C59 C 0.23257 0.646 0.20713 0.0
C60 C 0.2158 0.63461 0.21699 0.0
C61 C 0.2136 0.63537 0.23952 0.0
C62 C 0.2281 0.64841 0.25183 0.0
C63 C 0.24484 0.65986 0.24191 0.0
P64 P 0.01245 0.4771 0.04451 0.0
H65 H 0.02197 0.47125 -0.00064 0.0
H66 H 0.01846 0.44057 0.97496 0.0
H67 H 0.99859 0.40053 0.02796 0.0
H68 H 0.00219 0.43147 0.05242 0.0
H69 H 0.99856 0.52109 0.03911 0.0
H70 H 0.96313 0.53633 0.03318 0.0
H71 H 0.9333 0.47327 0.03778 0.0
H72 H 0.96876 0.45815 0.04372 0.0
H73 H 0.04199 0.44824 0.0662 0.0
H74 H 0.9971 0.49613 0.08429 0.0
O75 O 0.03116 0.49455 0.03584 0.0
H76 H 0.05263 0.44399 0.10416 0.0
H77 H 0.00764 0.49198 0.12211 0.0
C78 C 0.01281 0.45354 0.02776 0.0
C79 C 0.01729 0.4558 0.00584 0.0
C80 C 0.01508 0.43829 0.99189 0.0
C81 C 0.00818 0.41817 -0.00044 0.0
C82 C 0.00418 0.41579 0.02167 0.0
C83 C 0.00627 0.43343 0.03564 0.0
C84 C 0.98631 0.48844 0.04129 0.0
C85 C 0.98439 0.51056 0.03887 0.0
C86 C 0.96412 0.51927 0.03568 0.0
C87 C 0.94546 0.50596 0.03485 0.0
C88 C 0.94743 0.48387 0.03801 0.0
C89 C 0.96768 0.47521 0.04137 0.0
C90 C 0.01833 0.47205 0.07248 0.0
C91 C 0.0341 0.45749 0.07836 0.0
C92 C 0.04018 0.45511 0.10004 0.0
C93 C 0.03093 0.46764 0.11608 0.0
C94 C 0.01513 0.4822 0.11008 0.0
C95 C 0.00895 0.48442 0.08847 0.0
P96 P 0.69642 0.79093 0.16406 0.0
H97 H 0.72391 0.81992 0.13931 0.0
H98 H 0.75033 0.84802 0.14968 0.0
H99 H 0.73882 0.83456 0.21692 0.0
H100 H 0.71349 0.80584 0.20635 0.0
H101 H 0.67831 0.74782 0.15746 0.0
H102 H 0.69208 0.71601 0.14016 0.0
H103 H 0.75326 0.74937 0.13127 0.0
H104 H 0.7397 0.7806 0.14939 0.0
H105 H 0.65786 0.81266 0.17627 0.0
H106 H 0.69496 0.76034 0.2001 0.0
O107 O 0.68254 0.80049 0.1431 0.0
H108 H 0.63331 0.80843 0.20622 0.0
H109 H 0.67047 0.7561 0.23048 0.0
C110 C 0.71656 0.81095 0.17203 0.0
C111 C 0.72725 0.82297 0.15628 0.0
C112 C 0.74225 0.83916 0.16226 0.0
C113 C 0.74669 0.84379 0.18418 0.0
C114 C 0.73615 0.83135 0.19989 0.0
C115 C 0.7214 0.81497 0.19386 0.0
C116 C 0.70804 0.7665 0.15506 0.0
C117 C 0.69489 0.74805 0.15233 0.0
C118 C 0.70272 0.72994 0.14218 0.0
C119 C 0.72377 0.73011 0.13415 0.0
C120 C 0.7371 0.74847 0.13752 0.0
C121 C 0.72929 0.76649 0.14783 0.0
C122 C 0.67791 0.78652 0.1857 0.0
C123 C 0.66061 0.80012 0.18788 0.0
C124 C 0.64671 0.79781 0.20517 0.0
C125 C 0.64997 0.78196 0.2208 0.0
C126 C 0.66738 0.76829 0.21858 0.0
C127 C 0.68136 0.77069 0.20123 0.0
P128 P 0.06223 0.93731 0.41522 0.0
H129 H 0.10528 0.93489 0.43377 0.0
H130 H 0.13302 0.96201 0.44377 0.0
H131 H 0.08998 0.01172 0.42466 0.0
H132 H 0.06207 0.9846 0.4153 0.0
H133 H 0.06304 0.89316 0.43066 0.0
H134 H 0.04954 0.87596 0.46319 0.0
H135 H 0.02681 0.9366 0.48556 0.0
H136 H 0.04049 0.95378 0.45287 0.0
H137 H 0.06177 0.96284 0.37607 0.0
H138 H 0.01486 0.93387 0.41814 0.0
O139 O 0.07453 0.91938 0.40017 0.0
H140 H 0.03268 0.97722 0.3538 0.0
H141 H 0.98585 0.94775 0.39586 0.0
C142 C 0.08188 0.95769 0.42322 0.0
C143 C 0.10179 0.95163 0.43182 0.0
C144 C 0.11755 0.96711 0.43766 0.0
C145 C 0.11365 0.98892 0.43482 0.0
C146 C 0.09345 0.99499 0.42674 0.0
C147 C 0.07755 0.97948 0.42126 0.0
C148 C 0.05264 0.92471 0.43935 0.0
C149 C 0.05524 0.90279 0.44257 0.0
C150 C 0.04762 0.893 0.46124 0.0
C151 C 0.03713 0.90495 0.47692 0.0
C152 C 0.03467 0.92697 0.47367 0.0
C153 C 0.04252 0.9368 0.45508 0.0
C154 C 0.04054 0.94779 0.39909 0.0
C155 C 0.04521 0.95965 0.38055 0.0
C156 C 0.02857 0.96772 0.36776 0.0
C157 C 0.00691 0.96383 0.37316 0.0
C158 C 0.00234 0.95151 0.39152 0.0
C159 C 0.01899 0.94351 0.40431 0.0
P160 P 0.23161 0.74972 0.74835 0.0
H161 H 0.25255 0.73717 0.78899 0.0
H162 H 0.24877 0.74894 0.82619 0.0
H163 H 0.19921 0.79198 0.80584 0.0
H164 H 0.20365 0.78057 0.76848 0.0
H165 H 0.27355 0.73542 0.734 0.0
H166 H 0.29012 0.70053 0.7339 0.0
H167 H 0.23183 0.67191 0.75948 0.0
H168 H 0.21558 0.70699 0.76 0.0
H169 H 0.21965 0.76216 0.70444 0.0
H170 H 0.18788 0.73578 0.75994 0.0
O171 O 0.24818 0.76788 0.73728 0.0
H172 H 0.18498 0.76363 0.6852 0.0
H173 H 0.15317 0.73682 0.74069 0.0
C174 C 0.22796 0.75755 0.77601 0.0
C175 C 0.24069 0.74895 0.79253 0.0
C176 C 0.23843 0.75566 0.81387 0.0
C177 C 0.22348 0.77125 0.81912 0.0
C178 C 0.21094 0.78002 0.80242 0.0
C179 C 0.2133 0.77335 0.78105 0.0
C180 C 0.24326 0.72376 0.74685 0.0
C181 C 0.26427 0.72162 0.73943 0.0
C182 C 0.27371 0.70161 0.73929 0.0
C183 C 0.26232 0.68338 0.74667 0.0
C184 C 0.24116 0.68563 0.75391 0.0
C185 C 0.23176 0.70565 0.75404 0.0
C186 C 0.20625 0.74928 0.73375 0.0
C187 C 0.20521 0.75657 0.71244 0.0
C188 C 0.18539 0.75725 0.7014 0.0
C189 C 0.16627 0.75052 0.71148 0.0
C190 C 0.16754 0.7425 0.73261 0.0
C191 C 0.18738 0.74179 0.7436 0.0
P192 P 0.9606 0.52553 0.54011 0.0
H193 H 0.96108 0.54842 0.49876 0.0
H194 H 0.978 0.54079 0.46429 0.0
H195 H 0.00479 0.4838 0.49164 0.0
H196 H 0.98784 0.49151 0.52591 0.0
H197 H 0.98962 0.56235 0.53539 0.0
H198 H 0.98708 0.59999 0.54533 0.0
H199 H 0.92219 0.5877 0.56706 0.0
H200 H 0.92474 0.55012 0.5567 0.0
H201 H 0.94296 0.49221 0.56815 0.0
H202 H 0.92316 0.52546 0.51068 0.0
O203 O 0.97632 0.51662 0.56006 0.0
H204 H 0.9108 0.46894 0.56524 0.0
H205 H 0.89091 0.50191 0.50746 0.0
C206 C 0.97369 0.52079 0.51501 0.0
C207 C 0.97084 0.53445 0.49739 0.0
C208 C 0.9805 0.53008 0.47772 0.0
C209 C 0.99277 0.51173 0.47529 0.0
C210 C 0.99531 0.49798 0.49296 0.0
C211 C 0.98579 0.50245 0.51261 0.0
C212 C 0.95725 0.55356 0.54491 0.0
C213 C 0.97471 0.56786 0.54191 0.0
C214 C 0.9733 0.58932 0.5478 0.0
C215 C 0.95446 0.59682 0.55707 0.0
C216 C 0.93682 0.58248 0.5597 0.0
C217 C 0.93827 0.56097 0.5538 0.0
C218 C 0.9355 0.51041 0.5395 0.0
C219 C 0.93159 0.49464 0.55499 0.0
C220 C 0.91322 0.48127 0.55326 0.0
C221 C 0.89845 0.48342 0.53598 0.0
C222 C 0.90193 0.49993 0.52101 0.0
C223 C 0.92038 0.5133 0.52276 0.0
P224 P 0.84281 0.85007 0.8661 0.0
H225 H 0.86648 0.87722 0.83613 0.0
H226 H 0.88519 0.86971 0.80255 0.0
H227 H 0.86896 0.8025 0.80929 0.0
H228 H 0.85012 0.81005 0.84245 0.0
H229 H 0.81179 0.87071 0.8931 0.0
H230 H 0.77669 0.88622 0.88533 0.0
H231 H 0.78458 0.87382 0.81741 0.0
H232 H 0.81932 0.85804 0.82523 0.0
H233 H 0.86956 0.82143 0.89111 0.0
H234 H 0.80264 0.82455 0.87152 0.0
O235 O 0.85836 0.86601 0.88194 0.0
H236 H 0.86202 0.78679 0.90821 0.0
H237 H 0.79504 0.79037 0.88886 0.0
C238 C 0.85725 0.8442 0.84199 0.0
C239 C 0.8671 0.86087 0.83041 0.0
C240 C 0.87765 0.85659 0.81121 0.0
C241 C 0.87864 0.8355 0.80344 0.0
C242 C 0.86873 0.81885 0.8151 0.0
C243 C 0.85795 0.82319 0.8341 0.0
C244 C 0.81829 0.86352 0.85975 0.0
C245 C 0.80605 0.87159 0.87652 0.0
C246 C 0.78598 0.88027 0.8721 0.0
C247 C 0.77799 0.88122 0.85077 0.0
C248 C 0.79049 0.87349 0.83396 0.0
C249 C 0.81039 0.8645 0.83844 0.0
C250 C 0.83663 0.82577 0.88043 0.0
C251 C 0.85321 0.81486 0.89083 0.0
C252 C 0.84892 0.79507 0.90047 0.0
C253 C 0.82791 0.78603 0.89997 0.0
C254 C 0.81129 0.79716 0.88979 0.0
C255 C 0.81566 0.81675 0.87988 0.0
P256 P 0.34551 0.35253 0.3659 0.0
H257 H 0.38236 0.37346 0.34463 0.0
H258 H 0.3983 0.36818 0.30921 0.0
H259 H 0.35088 0.31782 0.29502 0.0
H260 H 0.33516 0.32311 0.3303 0.0
H261 H 0.3299 0.39601 0.37157 0.0
H262 H 0.29461 0.4115 0.36527 0.0
H263 H 0.26953 0.35012 0.34226 0.0
H264 H 0.30448 0.33472 0.3493 0.0
H265 H 0.36961 0.31299 0.36502 0.0
H266 H 0.31426 0.33679 0.39733 0.0
O267 O 0.36116 0.36869 0.38143 0.0
H268 H 0.36319 0.27789 0.38107 0.0
H269 H 0.30741 0.3016 0.41306 0.0
C270 C 0.35761 0.34864 0.34009 0.0
C271 C 0.37546 0.36125 0.3339 0.0
C272 C 0.38458 0.35819 0.3137 0.0
C273 C 0.37579 0.34263 0.29931 0.0
C274 C 0.35783 0.33014 0.30561 0.0
C275 C 0.34885 0.33312 0.32581 0.0
C276 C 0.31972 0.36417 0.36115 0.0
C277 C 0.31675 0.38591 0.36528 0.0
C278 C 0.2966 0.39477 0.36151 0.0
C279 C 0.27917 0.38202 0.3534 0.0
C280 C 0.28244 0.36031 0.34892 0.0
C281 C 0.30251 0.35151 0.35275 0.0
C282 C 0.34195 0.32727 0.37935 0.0
C283 C 0.35601 0.31065 0.37549 0.0
C284 C 0.35228 0.29056 0.38465 0.0
C285 C 0.33455 0.28682 0.39804 0.0
C286 C 0.32122 0.30391 0.40283 0.0
C287 C 0.32499 0.324 0.39368 0.0
P288 P 0.50919 0.9654 0.54412 0.0
H289 H 0.51788 0.95875 0.49897 0.0
H290 H 0.51361 0.92778 0.47502 0.0
H291 H 0.49406 0.8887 0.52881 0.0
H292 H 0.49824 0.91998 0.55282 0.0
H293 H 0.49772 0.01018 0.5396 0.0
H294 H 0.46345 0.02733 0.53234 0.0
H295 H 0.43045 0.96554 0.53307 0.0
H296 H 0.46476 0.94852 0.54033 0.0
H297 H 0.53772 0.93645 0.56701 0.0
H298 H 0.49298 0.98514 0.58324 0.0
O299 O 0.52894 0.98176 0.53563 0.0
H300 H 0.54775 0.93301 0.60522 0.0
H301 H 0.50294 0.98181 0.62129 0.0
C302 C 0.50887 0.94156 0.52773 0.0
C303 C 0.51308 0.94345 0.50572 0.0
C304 C 0.51046 0.92578 0.49202 0.0
C305 C 0.50347 0.90585 0.50007 0.0
C306 C 0.49971 0.90382 0.52226 0.0
C307 C 0.50215 0.92165 0.53596 0.0
C308 C 0.48382 0.97805 0.53994 0.0
C309 C 0.4831 0.00034 0.53822 0.0
C310 C 0.46349 0.01013 0.53426 0.0
C311 C 0.44429 0.99775 0.53196 0.0
C312 C 0.44503 0.97546 0.53443 0.0
C313 C 0.46462 0.96572 0.53856 0.0
C314 C 0.5142 0.96063 0.57233 0.0
C315 C 0.52969 0.94603 0.57883 0.0
C316 C 0.53543 0.9441 0.60064 0.0
C317 C 0.5261 0.95714 0.61622 0.0
C318 C 0.51047 0.97164 0.60963 0.0
C319 C 0.50463 0.97341 0.58787 0.0
P320 P 0.19337 0.28565 0.66447 0.0
H321 H 0.21884 0.31563 0.63877 0.0
H322 H 0.24492 0.34435 0.64826 0.0
H323 H 0.23592 0.33077 0.7159 0.0
H324 H 0.21093 0.30148 0.70618 0.0
H325 H 0.17693 0.24205 0.65701 0.0
H326 H 0.19238 0.21096 0.63983 0.0
H327 H 0.25284 0.24636 0.63364 0.0
H328 H 0.23761 0.27683 0.65155 0.0
H329 H 0.15539 0.30751 0.6778 0.0
H330 H 0.19244 0.25458 0.70022 0.0
O331 O 0.17877 0.29414 0.64349 0.0
H332 H 0.13187 0.30361 0.7086 0.0
H333 H 0.16888 0.2506 0.7314 0.0
C334 C 0.21274 0.30661 0.67175 0.0
C335 C 0.22259 0.31885 0.65564 0.0
C336 C 0.23741 0.33537 0.66112 0.0
C337 C 0.24254 0.34007 0.68288 0.0
C338 C 0.23272 0.3275 0.69896 0.0
C339 C 0.21816 0.31081 0.69343 0.0
C340 C 0.20614 0.2617 0.65581 0.0
C341 C 0.1937 0.24287 0.65248 0.0
C342 C 0.2025 0.22519 0.64242 0.0
C343 C 0.22384 0.22615 0.63516 0.0
C344 C 0.23647 0.24485 0.63927 0.0
C345 C 0.22768 0.26244 0.64946 0.0
C346 C 0.17534 0.28106 0.68648 0.0
C347 C 0.15831 0.29487 0.68926 0.0
C348 C 0.145 0.29275 0.70701 0.0
C349 C 0.14857 0.27685 0.72251 0.0
C350 C 0.1656 0.26286 0.71962 0.0
C351 C 0.17904 0.2651 0.70182 0.0
P352 P 0.77761 0.17069 0.70971 0.0
H353 H 0.79246 0.21437 0.69923 0.0
H354 H 0.77789 0.24129 0.67508 0.0
H355 H 0.72146 0.20053 0.66289 0.0
H356 H 0.73639 0.1735 0.68662 0.0
H357 H 0.82226 0.15898 0.71785 0.0
H358 H 0.85015 0.17242 0.74311 0.0
H359 H 0.80504 0.21607 0.76996 0.0
H360 H 0.77724 0.20272 0.74422 0.0
H361 H 0.7739 0.12502 0.71809 0.0
H362 H 0.73847 0.1813 0.73276 0.0
O363 O 0.78913 0.15534 0.6914 0.0
H364 H 0.74656 0.10272 0.73564 0.0
H365 H 0.71091 0.15902 0.75044 0.0
C366 C 0.76528 0.19213 0.69516 0.0
C367 C 0.77671 0.21146 0.69181 0.0
C368 C 0.76831 0.22689 0.67802 0.0
C369 C 0.74847 0.22311 0.66707 0.0
C370 C 0.73684 0.20391 0.67095 0.0
C371 C 0.74527 0.18851 0.6847 0.0
C372 C 0.79783 0.18018 0.72892 0.0
C373 C 0.81835 0.17145 0.72916 0.0
C374 C 0.83425 0.179 0.74379 0.0
C375 C 0.82987 0.19538 0.75853 0.0
C376 C 0.80903 0.20366 0.75862 0.0
C377 C 0.79312 0.19604 0.74398 0.0
C378 C 0.75787 0.1547 0.72365 0.0
C379 C 0.76022 0.13257 0.72511 0.0
C380 C 0.74465 0.11987 0.7353 0.0
C381 C 0.72651 0.12912 0.7443 0.0
C382 C 0.72455 0.15143 0.74337 0.0
C383 C 0.74027 0.16415 0.73331 0.0
P384 P 0.55661 0.5586 0.54278 0.0
H385 H 0.53598 0.5797 0.57856 0.0
H386 H 0.50679 0.56888 0.60228 0.0
H387 H 0.49898 0.50899 0.56754 0.0
H388 H 0.52856 0.51989 0.54399 0.0
H389 H 0.58944 0.5367 0.56728 0.0
H390 H 0.61202 0.50654 0.5593 0.0
H391 H 0.58077 0.49952 0.49664 0.0
H392 H 0.55825 0.52996 0.50477 0.0
H393 H 0.51521 0.57768 0.53135 0.0
H394 H 0.57769 0.57189 0.50315 0.0
O395 O 0.57255 0.57587 0.55673 0.0
H396 H 0.5044 0.60125 0.50226 0.0
H397 H 0.56674 0.59498 0.47345 0.0
C398 C 0.53472 0.55042 0.55982 0.0
C399 C 0.52805 0.5642 0.5761 0.0
C400 C 0.51119 0.55807 0.58953 0.0
C401 C 0.50055 0.53802 0.58688 0.0
C402 C 0.50704 0.52439 0.57023 0.0
C403 C 0.52391 0.53061 0.55673 0.0
C404 C 0.57256 0.53589 0.53643 0.0
C405 C 0.58748 0.52871 0.5518 0.0
C406 C 0.60026 0.51132 0.54727 0.0
C407 C 0.5983 0.50064 0.52728 0.0
C408 C 0.58294 0.50761 0.51205 0.0
C409 C 0.57004 0.52499 0.51668 0.0
C410 C 0.54716 0.57266 0.51925 0.0
C411 C 0.52645 0.581 0.5186 0.0
C412 C 0.52024 0.59451 0.50184 0.0
C413 C 0.53467 0.60009 0.48542 0.0
C414 C 0.55527 0.59127 0.48591 0.0
C415 C 0.56148 0.57783 0.50275 0.0
P416 P 0.56827 0.42849 0.90809 0.0
H417 H 0.61226 0.42953 0.92458 0.0
H418 H 0.63756 0.45866 0.9351 0.0
H419 H 0.58952 0.50466 0.91878 0.0
H420 H 0.56396 0.47538 0.90894 0.0
H421 H 0.5835 0.39421 0.93552 0.0
H422 H 0.57101 0.3792 0.96927 0.0
H423 H 0.51907 0.42387 0.96923 0.0
H424 H 0.53317 0.44004 0.9366 0.0
H425 H 0.56765 0.45582 0.86996 0.0
H426 H 0.52215 0.41632 0.90462 0.0
O427 O 0.58209 0.40992 0.8954 0.0
H428 H 0.53904 0.46569 0.84463 0.0
H429 H 0.49332 0.42727 0.88069 0.0
C430 C 0.58653 0.45033 0.91529 0.0
C431 C 0.60718 0.44588 0.92321 0.0
C432 C 0.62154 0.4625 0.92937 0.0
C433 C 0.61548 0.48386 0.9276 0.0
C434 C 0.59462 0.4883 0.92003 0.0
C435 C 0.58009 0.4716 0.91427 0.0
C436 C 0.55863 0.41756 0.93303 0.0
C437 C 0.5694 0.40072 0.94281 0.0
C438 C 0.56207 0.39203 0.96212 0.0
C439 C 0.54357 0.39981 0.97194 0.0
C440 C 0.53338 0.41736 0.96241 0.0
C441 C 0.54118 0.42644 0.94344 0.0
C442 C 0.54687 0.43622 0.88989 0.0
C443 C 0.55139 0.44969 0.87245 0.0
C444 C 0.53496 0.45538 0.85799 0.0
C445 C 0.51367 0.44756 0.86065 0.0
C446 C 0.50945 0.43356 0.87787 0.0
C447 C 0.52594 0.42762 0.89202 0.0
P448 P 0.73155 0.25757 0.243 0.0
H449 H 0.75828 0.2515 0.28159 0.0
H450 H 0.75517 0.26296 0.31904 0.0
H451 H 0.697 0.29581 0.30236 0.0
H452 H 0.70033 0.28442 0.26477 0.0
H453 H 0.76027 0.23703 0.21296 0.0
H454 H 0.77508 0.20134 0.21149 0.0
H455 H 0.74068 0.18424 0.26919 0.0
H456 H 0.72524 0.21959 0.26986 0.0
H457 H 0.71657 0.2768 0.20264 0.0
H458 H 0.68996 0.23738 0.25297 0.0
O459 O 0.74852 0.27462 0.23087 0.0
H460 H 0.6812 0.27762 0.18478 0.0
H461 H 0.65446 0.23789 0.23503 0.0
C462 C 0.7291 0.26639 0.27055 0.0
C463 C 0.74472 0.26097 0.286 0.0
C464 C 0.7429 0.26752 0.30742 0.0
C465 C 0.7256 0.27997 0.31374 0.0
C466 C 0.71044 0.28616 0.29801 0.0
C467 C 0.71224 0.27947 0.27656 0.0
C468 C 0.74211 0.23111 0.24183 0.0
C469 C 0.75594 0.22556 0.22528 0.0
C470 C 0.76449 0.20515 0.22453 0.0
C471 C 0.75932 0.18987 0.24035 0.0
C472 C 0.74493 0.19543 0.2566 0.0
C473 C 0.73624 0.21576 0.25717 0.0
C474 C 0.70578 0.25721 0.22923 0.0
C475 C 0.70313 0.26821 0.20979 0.0
C476 C 0.68291 0.26855 0.19951 0.0
C477 C 0.665 0.25788 0.20853 0.0
C478 C 0.66787 0.2465 0.22784 0.0
C479 C 0.68814 0.24609 0.23803 0.0
P480 P 0.46407 0.02983 0.03831 0.0
H481 H 0.50915 0.02978 0.02541 0.0
H482 H 0.52592 0.02481 0.99043 0.0
H483 H 0.4631 0.02465 0.95913 0.0
H484 H 0.44647 0.02946 0.99411 0.0
H485 H 0.45899 0.04809 0.08096 0.0
H486 H 0.45396 0.08456 0.09381 0.0
H487 H 0.45245 0.10673 0.02791 0.0
H488 H 0.4572 0.07013 0.01519 0.0
H489 H 0.45697 0.98397 0.03982 0.0
H490 H 0.41828 0.03946 0.03121 0.0
O491 O 0.48069 0.01888 0.05632 0.0
H492 H 0.42535 0.96073 0.0327 0.0
H493 H 0.38646 0.01621 0.02371 0.0
C494 C 0.47656 0.02943 0.01238 0.0
C495 C 0.49903 0.02889 0.01098 0.0
C496 C 0.5086 0.02619 0.99097 0.0
C497 C 0.49579 0.02405 0.97206 0.0
C498 C 0.47334 0.02583 0.97346 0.0
C499 C 0.46383 0.0286 0.99345 0.0
C500 C 0.45895 0.05654 0.04719 0.0
C501 C 0.45753 0.06081 0.06929 0.0
C502 C 0.45472 0.08166 0.0766 0.0
C503 C 0.45308 0.09857 0.06188 0.0
C504 C 0.4536 0.09404 0.03965 0.0
C505 C 0.45648 0.07315 0.03236 0.0
C506 C 0.43987 0.01338 0.03643 0.0
C507 C 0.44156 0.99114 0.03676 0.0
C508 C 0.42351 0.97789 0.03244 0.0
C509 C 0.40344 0.98665 0.02746 0.0
C510 C 0.40166 0.009 0.02768 0.0
C511 C 0.41982 0.02229 0.03199 0.0
Zn512 Zn 0.27057 0.83424 0.00351 0.0
Zn513 Zn 0.23786 0.85965 0.00663 0.0
O514 O 0.23517 0.84145 0.03459 0.0
O515 O 0.26547 0.82402 0.03356 0.0
O516 O 0.21399 0.88101 0.00785 0.0
O517 O 0.29141 0.85885 -0.00084 0.0
O518 O 0.26488 0.88 0.00661 0.0
C519 C 0.24851 0.82877 0.04323 0.0
C520 C 0.24024 0.82703 0.96925 0.0
O521 O 0.23165 0.84323 0.97777 0.0
O522 O 0.25668 0.81905 0.97805 0.0
C523 C 0.19599 0.87834 0.01706 0.0
O524 O 0.19157 0.86013 0.02671 0.0
C525 C 0.28472 0.87742 0.00266 0.0
Zn526 Zn 0.08765 0.43853 0.31234 0.0
Zn527 Zn 0.10522 0.4788 0.30889 0.0
O528 O 0.08398 0.48262 0.33346 0.0
O529 O 0.06913 0.4503 0.33598 0.0
O530 O 0.11967 0.50778 0.30491 0.0
O531 O 0.11727 0.42767 0.31995 0.0
O532 O 0.13093 0.46034 0.31664 0.0
C533 C 0.07068 0.46961 0.34229 0.0
C534 C 0.08117 0.45657 0.27038 0.0
O535 O 0.09123 0.47247 0.27922 0.0
O536 O 0.07763 0.43964 0.28103 0.0
C537 C 0.11159 0.52228 0.29326 0.0
O538 O 0.09243 0.51891 0.28429 0.0
C539 C 0.13339 0.4406 0.3206 0.0
Zn540 Zn 0.78672 0.59157 0.94493 0.0
Zn541 Zn 0.77549 0.60644 0.98389 0.0
O542 O 0.80106 0.58781 0.99199 0.0
O543 O 0.80841 0.57334 0.96059 0.0
O544 O 0.76586 0.6191 0.01191 0.0
O545 O 0.79551 0.6215 0.93585 0.0
O546 O 0.78394 0.6334 0.96687 0.0
C547 C 0.81204 0.57518 0.98072 0.0
C548 C 0.74296 0.58073 0.95499 0.0
O549 O 0.74845 0.58954 0.97294 0.0
O550 O 0.75617 0.58032 0.93971 0.0
C551 C 0.77908 0.62817 0.02522 0.0
O552 O 0.79977 0.6284 0.02111 0.0
C553 C 0.79204 0.63693 0.94847 0.0
Zn554 Zn 0.83565 0.00621 0.27158 0.0
Zn555 Zn 0.8594 0.01325 0.23637 0.0
O556 O 0.84171 0.04059 0.23901 0.0
O557 O 0.82054 0.03391 0.26639 0.0
O558 O 0.87868 0.0197 0.21107 0.0
O559 O 0.86256 0.00552 0.2903 0.0
O560 O 0.88168 0.00838 0.2609 0.0
C561 C 0.82667 0.04617 0.25138 0.0
C562 C 0.8288 0.97395 0.23841 0.0
O563 O 0.84145 0.98606 0.22764 0.0
O564 O 0.82433 0.97874 0.25765 0.0
C565 C 0.88573 0.00551 0.19849 0.0
O566 O 0.87984 0.98539 0.2013 0.0
C567 C 0.88067 0.006 0.28127 0.0
Zn568 Zn 0.28979 0.0923 0.4428 0.0
Zn569 Zn 0.27945 0.1074 0.48197 0.0
O570 O 0.30484 0.08852 0.4899 0.0
O571 O 0.31203 0.07448 0.45826 0.0
O572 O 0.26969 0.11978 0.51005 0.0
O573 O 0.29769 0.12229 0.43327 0.0
O574 O 0.28815 0.13438 0.46496 0.0
C575 C 0.31578 0.07605 0.4784 0.0
C576 C 0.24642 0.08139 0.45359 0.0
O577 O 0.25221 0.09063 0.47123 0.0
O578 O 0.25938 0.08055 0.43813 0.0
C579 C 0.28238 0.12909 0.52369 0.0
O580 O 0.30314 0.13014 0.51996 0.0
C581 C 0.29524 0.1378 0.44611 0.0
Zn582 Zn 0.33977 0.49877 0.76909 0.0
Zn583 Zn 0.36147 0.50637 0.73276 0.0
O584 O 0.34512 0.53427 0.73759 0.0
O585 O 0.32756 0.52828 0.76755 0.0
O586 O 0.37896 0.51271 0.70623 0.0
O587 O 0.36737 0.4933 0.78528 0.0
O588 O 0.38519 0.4997 0.75552 0.0
C589 C 0.33237 0.54052 0.75206 0.0
C590 C 0.32854 0.46882 0.73491 0.0
O591 O 0.34202 0.48005 0.72417 0.0
O592 O 0.32472 0.47366 0.75429 0.0
C593 C 0.39191 0.49907 0.69917 0.0
O594 O 0.39318 0.48055 0.70893 0.0
C595 C 0.38499 0.49458 0.7754 0.0
Zn596 Zn 0.76666 0.32676 0.50495 0.0
Zn597 Zn 0.73526 0.35398 0.50859 0.0
O598 O 0.73078 0.33305 0.5344 0.0
O599 O 0.7559 0.30943 0.52953 0.0
O600 O 0.71107 0.37471 0.512 0.0
O601 O 0.78871 0.35053 0.50976 0.0
O602 O 0.76271 0.37354 0.51171 0.0
C603 C 0.74012 0.31598 0.53999 0.0
C604 C 0.74003 0.32674 0.46721 0.0
O605 O 0.72998 0.34077 0.47778 0.0
O606 O 0.75659 0.31843 0.47537 0.0
C607 C 0.70649 0.38829 0.49754 0.0
O608 O 0.71756 0.3887 0.4797 0.0
C609 C 0.78274 0.36955 0.51208 0.0
Zn610 Zn 0.58522 0.93809 0.81323 0.0
Zn611 Zn 0.60562 0.97684 0.80689 0.0
O612 O 0.58593 0.98344 0.83193 0.0
O613 O 0.56815 0.95281 0.83644 0.0
O614 O 0.62287 0.00407 0.80228 0.0
O615 O 0.6141 0.92519 0.82103 0.0
O616 O 0.62962 0.9564 0.81403 0.0
C617 C 0.57174 0.97224 0.84169 0.0
C618 C 0.579 0.95523 0.77024 0.0
O619 O 0.59014 0.97101 0.77796 0.0
O620 O 0.57501 0.93898 0.78179 0.0
C621 C 0.61662 0.02007 0.79158 0.0
O622 O 0.59707 0.01975 0.78305 0.0
C623 C 0.631 0.93692 0.81951 0.0
Zn624 Zn 0.99112 0.29356 0.84109 0.0
Zn625 Zn 0.0006 0.26035 0.86471 0.0
O626 O 0.02688 0.26255 0.84435 0.0
O627 O 0.01944 0.2918 0.82641 0.0
O628 O 0.00714 0.2357 0.88464 0.0
O629 O 0.98873 0.31264 0.8666 0.0
O630 O 0.99868 0.28567 0.88669 0.0
C631 C 0.03194 0.27664 0.83037 0.0
C632 C 0.95954 0.26005 0.8356 0.0
O633 O 0.97167 0.25079 0.84931 0.0
O634 O 0.9646 0.27863 0.82911 0.0
C635 C 0.00878 0.21637 0.87858 0.0
O636 O 0.0064 0.21156 0.858 0.0
C637 C 0.99343 0.30517 0.88494 0.0
Zn638 Zn 0.48857 0.79012 0.33664 0.0
Zn639 Zn 0.49858 0.75565 0.35785 0.0
O640 O 0.52498 0.76082 0.33808 0.0
O641 O 0.51738 0.79139 0.32272 0.0
O642 O 0.50672 0.7295 0.37508 0.0
O643 O 0.48409 0.80654 0.36367 0.0
O644 O 0.49521 0.77876 0.38193 0.0
C645 C 0.53011 0.77621 0.32557 0.0
C646 C 0.45849 0.756 0.32744 0.0
O647 O 0.47019 0.74632 0.34122 0.0
O648 O 0.46341 0.77501 0.3222 0.0
C649 C 0.49273 0.71712 0.38367 0.0
O650 O 0.47219 0.7211 0.38103 0.0
C651 C 0.48879 0.79796 0.3815 0.0
Zn652 Zn 0.93938 0.79201 0.61479 0.0
Zn653 Zn 0.97926 0.7857 0.63301 0.0
O654 O 0.98561 0.80812 0.60993 0.0
O655 O 0.95375 0.81403 0.59522 0.0
O656 O 0.00814 0.78098 0.64721 0.0
O657 O 0.92891 0.80103 0.64431 0.0
O658 O 0.96113 0.79537 0.65822 0.0
C659 C 0.97393 0.81781 0.59623 0.0
C660 C 0.95419 0.74868 0.61039 0.0
O661 O 0.97062 0.7564 0.62066 0.0
O662 O 0.93845 0.76044 0.60591 0.0
C663 C 0.02349 0.77283 0.63706 0.0
O664 O 0.02055 0.76758 0.61664 0.0
C665 C 0.94173 0.8009 0.66048 0.0
Zn666 Zn 0.43864 0.29641 0.11103 0.0
Zn667 Zn 0.47709 0.28887 0.13144 0.0
O668 O 0.48535 0.30946 0.10729 0.0
O669 O 0.45447 0.31787 0.0919 0.0
O670 O 0.50547 0.2834 0.14634 0.0
O671 O 0.42718 0.30597 0.13992 0.0
O672 O 0.45881 0.301 0.15549 0.0
C673 C 0.47483 0.31986 0.09322 0.0
C674 C 0.45138 0.25221 0.10901 0.0
O675 O 0.46725 0.25935 0.12051 0.0
O676 O 0.437 0.26475 0.10248 0.0
C677 C 0.52103 0.27656 0.13551 0.0
O678 O 0.51823 0.2732 0.11469 0.0
C679 C 0.43936 0.30674 0.15659 0.0
H680 H 0.22517 0.74731 0.85604 0.0
H681 H 0.21783 0.84705 0.93682 0.0
H682 H 0.21715 0.81205 0.83418 0.0
H683 H 0.24497 0.78666 0.95402 0.0
H684 H 0.20981 0.83286 0.90038 0.0
H685 H 0.22504 0.76012 0.89326 0.0
C686 C 0.22337 0.76422 0.85902 0.0
C687 C 0.2215 0.77864 0.84185 0.0
C688 C 0.21729 0.82269 0.91226 0.0
C689 C 0.22098 0.79338 0.88458 0.0
C690 C 0.22173 0.83072 0.93305 0.0
C691 C 0.23226 0.81807 0.94837 0.0
C692 C 0.22317 0.80182 0.90694 0.0
C693 C 0.23706 0.79704 0.94263 0.0
C694 C 0.22317 0.77151 0.88031 0.0
C695 C 0.21857 0.8003 0.84683 0.0
N696 N 0.23257 0.78963 0.92238 0.0
N697 N 0.21856 0.80704 0.86774 0.0
H698 H 0.01473 0.53891 0.44823 0.0
H699 H 0.04123 0.44576 0.3647 0.0
H700 H 0.99342 0.47303 0.45475 0.0
H701 H 0.06991 0.50939 0.36144 0.0
H702 H 0.0209 0.45671 0.3958 0.0
H703 H 0.03232 0.52959 0.41454 0.0
C704 C 0.01361 0.52253 0.44248 0.0
C705 C 0.00274 0.50668 0.45439 0.0
C706 C 0.03159 0.46833 0.38828 0.0
C707 C 0.02284 0.49591 0.41599 0.0
C708 C 0.04321 0.46209 0.37046 0.0
C709 C 0.05744 0.47663 0.36048 0.0
C710 C 0.03413 0.4893 0.39629 0.0
C711 C 0.05921 0.49761 0.36867 0.0
C712 C 0.02374 0.51721 0.42334 0.0
C713 C 0.00193 0.48569 0.44629 0.0
N714 N 0.04774 0.5033 0.38616 0.0
N715 N 0.01186 0.48093 0.42764 0.0
H716 H 0.79527 0.77353 0.92656 0.0
H717 H 0.81792 0.64959 0.9155 0.0
H718 H 0.85019 0.7497 0.89356 0.0
H719 H 0.77944 0.67456 0.96653 0.0
H720 H 0.82748 0.68612 0.90487 0.0
H721 H 0.78688 0.73725 0.93934 0.0
C722 C 0.80558 0.76065 0.9221 0.0
C723 C 0.82344 0.76455 0.90902 0.0
C724 C 0.817 0.6836 0.91844 0.0
C725 C 0.81386 0.72315 0.92332 0.0
C726 C 0.81143 0.66276 0.92445 0.0
C727 C 0.79782 0.65902 0.94191 0.0
C728 C 0.80867 0.70087 0.92976 0.0
C729 C 0.79001 0.67672 0.95299 0.0
C730 C 0.80085 0.74002 0.92944 0.0
C731 C 0.83638 0.74737 0.90377 0.0
N732 N 0.79543 0.69691 0.94663 0.0
N733 N 0.83123 0.72737 0.91078 0.0
H734 H 0.96928 0.98086 0.38661 0.0
H735 H 0.92172 -0.00053 0.26733 0.0
H736 H 0.0039 0.96634 0.32892 0.0
H737 H 0.88469 0.00465 0.32523 0.0
H738 H 0.95339 0.99115 0.28957 0.0
H739 H 0.93943 0.99319 0.36426 0.0
C740 C 0.9706 0.9802 0.36923 0.0
C741 C 0.98909 0.97234 0.35966 0.0
C742 C 0.93835 0.99422 0.29738 0.0
C743 C 0.95498 0.98674 0.33389 0.0
C744 C 0.92028 0.99905 0.28471 0.0
C745 C 0.90046 0.00264 0.29441 0.0
C746 C 0.9366 0.99309 0.31991 0.0
C747 C 0.89957 0.00186 0.31701 0.0
C748 C 0.95358 0.98736 0.35646 0.0
C749 C 0.99005 0.97238 0.33703 0.0
N750 N 0.91733 0.99711 0.32895 0.0
N751 N 0.9732 0.97937 0.32492 0.0
H752 H 0.26498 0.21072 0.63498 0.0
H753 H 0.24005 0.13266 0.53423 0.0
H754 H 0.20223 0.20172 0.60435 0.0
H755 H 0.30449 0.15098 0.55611 0.0
H756 H 0.22558 0.15355 0.56362 0.0
H757 H 0.27927 0.18474 0.6098 0.0
C758 C 0.25416 0.20324 0.62306 0.0
C759 C 0.23235 0.2086 0.62175 0.0
C760 C 0.24289 0.15291 0.56208 0.0
C761 C 0.24862 0.17866 0.59302 0.0
C762 C 0.25119 0.14094 0.54531 0.0
C763 C 0.27354 0.14021 0.54255 0.0
C764 C 0.25701 0.16424 0.57629 0.0
C765 C 0.28715 0.1512 0.55751 0.0
C766 C 0.26234 0.18835 0.60875 0.0
C767 C 0.21907 0.198 0.60622 0.0
N768 N 0.27867 0.16286 0.57367 0.0
N769 N 0.22743 0.18367 0.59242 0.0
H770 H 0.49315 0.49858 0.60499 0.0
H771 H 0.39508 0.5366 0.67655 0.0
H772 H 0.46819 0.56217 0.60283 0.0
H773 H 0.42163 0.47374 0.68045 0.0
H774 H 0.42025 0.54555 0.64792 0.0
H775 H 0.46548 0.48844 0.63083 0.0
C776 C 0.48172 0.51036 0.60977 0.0
C777 C 0.4831 0.5313 0.60176 0.0
C778 C 0.42052 0.52977 0.65498 0.0
C779 C 0.45147 0.51985 0.6316 0.0
C780 C 0.40612 0.52463 0.67133 0.0
C781 C 0.40627 0.5044 0.68102 0.0
C782 C 0.43522 0.51459 0.64822 0.0
C783 C 0.42095 0.48956 0.67353 0.0
C784 C 0.466 0.5046 0.62465 0.0
C785 C 0.46799 0.54594 0.6088 0.0
N786 N 0.43486 0.49497 0.65765 0.0
N787 N 0.45287 0.53996 0.62333 0.0
H788 H 0.74985 0.26722 0.66752 0.0
H789 H 0.73208 0.27346 0.54128 0.0
H790 H 0.73066 0.21297 0.62752 0.0
H791 H 0.7339 0.32997 0.58136 0.0
H792 H 0.72851 0.2514 0.57336 0.0
H793 H 0.74179 0.29094 0.63722 0.0
C794 C 0.74373 0.26031 0.65247 0.0
C795 C 0.74109 0.23803 0.65004 0.0
C796 C 0.72927 0.26862 0.57525 0.0
C797 C 0.73184 0.26504 0.61538 0.0
C798 C 0.73124 0.28119 0.55691 0.0
C799 C 0.73324 0.30347 0.55879 0.0
C800 C 0.72994 0.27836 0.59572 0.0
C801 C 0.73222 0.3128 0.57933 0.0
C802 C 0.73899 0.27387 0.63525 0.0
C803 C 0.73282 0.23001 0.63027 0.0
N804 N 0.73107 0.30015 0.59713 0.0
N805 N 0.72877 0.24346 0.61368 0.0
H806 H 0.5328 0.92183 0.64121 0.0
H807 H 0.57908 0.98931 0.74269 0.0
H808 H 0.53617 0.99078 0.6432 0.0
H809 H 0.5605 0.92236 0.74625 0.0
H810 H 0.5659 0.98972 0.7053 0.0
H811 H 0.54551 0.92122 0.67889 0.0
C812 C 0.53624 0.93682 0.64959 0.0
C813 C 0.53336 0.95638 0.63912 0.0
C814 C 0.56466 0.97496 0.71429 0.0
C815 C 0.54792 0.95583 0.68209 0.0
C816 C 0.57223 0.97469 0.73563 0.0
C817 C 0.57088 0.95577 0.74765 0.0
C818 C 0.55587 0.95613 0.7048 0.0
C819 C 0.56181 0.93733 0.73762 0.0
C820 C 0.54338 0.93648 0.67109 0.0
C821 C 0.53791 0.97536 0.65075 0.0
N822 N 0.55473 0.93794 0.71676 0.0
N823 N 0.54505 0.97461 0.67157 0.0
H824 H 0.83822 0.23746 0.76856 0.0
H825 H 0.9464 0.2175 0.8374 0.0
H826 H 0.86152 0.17431 0.78094 0.0
H827 H 0.92667 0.27896 0.8142 0.0
H828 H 0.91344 0.20111 0.82093 0.0
H829 H 0.86836 0.25267 0.78983 0.0
C830 C 0.84951 0.22675 0.776 0.0
C831 C 0.84733 0.20456 0.77287 0.0
C832 C 0.91637 0.21819 0.81958 0.0
C833 C 0.88228 0.22196 0.79703 0.0
C834 C 0.93512 0.22754 0.829 0.0
C835 C 0.9394 0.2496 0.82702 0.0
C836 C 0.90179 0.23107 0.80834 0.0
C837 C 0.92421 0.26187 0.81597 0.0
C838 C 0.86687 0.23546 0.78801 0.0
C839 C 0.86274 0.19153 0.78266 0.0
N840 N 0.90618 0.25245 0.80706 0.0
N841 N 0.87962 0.20042 0.79425 0.0
H842 H 0.51602 0.8641 0.50341 0.0
H843 H 0.4658 0.83366 0.38695 0.0
H844 H 0.48046 0.90652 0.46239 0.0
H845 H 0.50881 0.79221 0.42122 0.0
H846 H 0.46686 0.85793 0.4176 0.0
H847 H 0.50988 0.83537 0.47647 0.0
C848 C 0.50678 0.86728 0.48884 0.0
C849 C 0.49898 0.88776 0.48494 0.0
C850 C 0.47602 0.84351 0.41858 0.0
C851 C 0.49182 0.85515 0.4543 0.0
C852 C 0.47541 0.82958 0.40103 0.0
C853 C 0.48749 0.811 0.40139 0.0
C854 C 0.48898 0.83906 0.43671 0.0
C855 C 0.49934 0.80642 0.42026 0.0
C856 C 0.50335 0.85095 0.47348 0.0
C857 C 0.48711 0.89109 0.46585 0.0
N858 N 0.50001 0.82052 0.43713 0.0
N859 N 0.48397 0.87502 0.45128 0.0
H860 H 0.13038 0.24091 0.74128 0.0
H861 H 0.05484 0.31027 0.81458 0.0
H862 H 0.13521 0.30959 0.74761 0.0
H863 H 0.0551 0.24149 0.81875 0.0
H864 H 0.08586 0.30961 0.79142 0.0
H865 H 0.10461 0.23986 0.77087 0.0
C866 C 0.12624 0.25572 0.74906 0.0
C867 C 0.13466 0.27541 0.74172 0.0
C868 C 0.07935 0.2946 0.79747 0.0
C869 C 0.10522 0.27434 0.77538 0.0
C870 C 0.06157 0.29498 0.8107 0.0
C871 C 0.05226 0.27589 0.81843 0.0
C872 C 0.08784 0.27494 0.7915 0.0
C873 C 0.06182 0.25656 0.81308 0.0
C874 C 0.1115 0.25511 0.76589 0.0
C875 C 0.12873 0.2941 0.75236 0.0
N876 N 0.07895 0.25654 0.79964 0.0
N877 N 0.11429 0.2931 0.76846 0.0
H878 H 0.49532 0.60475 0.46494 0.0
H879 H 0.53373 0.70665 0.39619 0.0
H880 H 0.56014 0.63182 0.46758 0.0
H881 H 0.46713 0.68599 0.40197 0.0
H882 H 0.54426 0.67722 0.41955 0.0
H883 H 0.48528 0.63237 0.43923 0.0
C884 C 0.50747 0.61647 0.46015 0.0
C885 C 0.52862 0.61592 0.4686 0.0
C886 C 0.52735 0.67909 0.41567 0.0
C887 C 0.51723 0.64754 0.43888 0.0
C888 C 0.52131 0.69588 0.40228 0.0
C889 C 0.49948 0.69888 0.39715 0.0
C890 C 0.51147 0.66509 0.42393 0.0
C891 C 0.48414 0.68438 0.40555 0.0
C892 C 0.50173 0.63221 0.44538 0.0
C893 C 0.54372 0.63136 0.46137 0.0
N894 N 0.49042 0.66816 0.41852 0.0
N895 N 0.53772 0.64653 0.44702 0.0
H896 H 0.90734 0.80421 0.79593 0.0
H897 H 0.96216 0.79554 0.69954 0.0
H898 H 0.87478 0.85586 0.76465 0.0
H899 H 0.90389 0.81963 0.67076 0.0
H900 H 0.94876 0.80429 0.73517 0.0
H901 H 0.92427 0.79567 0.76181 0.0
C902 C 0.9039 0.81384 0.78188 0.0
C903 C 0.88973 0.83081 0.78309 0.0
C904 C 0.93879 0.80742 0.72109 0.0
C905 C 0.90927 0.82139 0.74411 0.0
C906 C 0.94652 0.80263 0.7007 0.0
C907 C 0.93404 0.80667 0.68212 0.0
C908 C 0.91846 0.81642 0.72291 0.0
C909 C 0.91396 0.81603 0.68464 0.0
C910 C 0.91375 0.80912 0.76248 0.0
C911 C 0.88581 0.8428 0.76443 0.0
N912 N 0.90683 0.82066 0.70467 0.0
N913 N 0.89537 0.83772 0.74563 0.0
H914 H 0.99753 0.9096 0.49466 0.0
H915 H 0.0169 0.82418 0.58822 0.0
H916 H 0.0567 0.87595 0.50314 0.0
H917 H 0.95395 0.84543 0.56875 0.0
H918 H 0.03295 0.84716 0.56069 0.0
H919 H 0.98259 0.89028 0.52545 0.0
C920 C 0.00745 0.8983 0.50315 0.0
C921 C 0.02834 0.89428 0.49629 0.0
C922 C 0.01564 0.84685 0.56253 0.0
C923 C 0.01135 0.87209 0.53143 0.0
C924 C 0.00646 0.83381 0.57829 0.0
C925 C 0.98402 0.83277 0.58072 0.0
C926 C 0.00231 0.85909 0.5492 0.0
C927 C 0.97131 0.8456 0.56736 0.0
C928 C 0.99887 0.8872 0.52062 0.0
C929 C 0.04042 0.87932 0.50774 0.0
N930 N 0.98063 0.8582 0.55216 0.0
N931 N 0.03174 0.86876 0.52474 0.0
H932 H 0.15556 0.74194 0.66901 0.0
H933 H 0.03439 0.78065 0.67944 0.0
H934 H 0.12863 0.7641 0.72844 0.0
H935 H 0.06012 0.75657 0.6202 0.0
H936 H 0.06884 0.77447 0.69761 0.0
H937 H 0.12079 0.74699 0.65078 0.0
C938 C 0.14235 0.74789 0.67823 0.0
C939 C 0.14504 0.75261 0.7003 0.0
C940 C 0.06697 0.77051 0.68064 0.0
C941 C 0.10515 0.75833 0.67955 0.0
C942 C 0.04728 0.77407 0.67023 0.0
C943 C 0.04434 0.76915 0.64823 0.0
C944 C 0.08392 0.76202 0.66899 0.0
C945 C 0.06165 0.76061 0.63716 0.0
C946 C 0.12247 0.75067 0.66783 0.0
C947 C 0.12725 0.75999 0.71148 0.0
N948 N 0.08071 0.75735 0.64765 0.0
N949 N 0.10812 0.76268 0.70097 0.0
H950 H 0.92112 0.6246 0.55331 0.0
H951 H 0.98565 0.7195 0.6162 0.0
H952 H 0.98596 0.62003 0.57894 0.0
H953 H 0.92198 0.72625 0.58821 0.0
H954 H 0.98534 0.68258 0.60352 0.0
H955 H 0.92041 0.66143 0.56683 0.0
C956 C 0.93518 0.63132 0.56182 0.0
C957 C 0.95367 0.61925 0.56488 0.0
C958 C 0.97141 0.6921 0.60016 0.0
C959 C 0.953 0.66134 0.58032 0.0
C960 C 0.97155 0.71322 0.60743 0.0
C961 C 0.95382 0.72605 0.60325 0.0
C962 C 0.95339 0.68365 0.58859 0.0
C963 C 0.93602 0.71697 0.59179 0.0
C964 C 0.93479 0.65236 0.56945 0.0
C965 C 0.97149 0.62883 0.57587 0.0
N966 N 0.93627 0.69632 0.58484 0.0
N967 N 0.97069 0.64926 0.58318 0.0
H968 H 0.77466 0.84643 0.2192 0.0
H969 H 0.821 0.96422 0.19557 0.0
H970 H 0.75313 0.88265 0.1641 0.0
H971 H 0.81494 0.93837 0.25962 0.0
H972 H 0.80304 0.93151 0.18086 0.0
H973 H 0.79658 0.87739 0.23131 0.0
C974 C 0.77446 0.86083 0.20962 0.0
C975 C 0.76167 0.86189 0.19072 0.0
C976 C 0.80579 0.93305 0.19811 0.0
C977 C 0.78731 0.89726 0.20429 0.0
C978 C 0.81607 0.95161 0.20648 0.0
C979 C 0.81927 0.95405 0.22884 0.0
C980 C 0.79916 0.91673 0.2122 0.0
C981 C 0.81257 0.93725 0.2423 0.0
C982 C 0.78712 0.87846 0.2165 0.0
C983 C 0.76278 0.8809 0.17867 0.0
N984 N 0.8029 0.9193 0.23377 0.0
N985 N 0.77531 0.89785 0.18569 0.0
H986 H 0.80039 0.17949 0.22895 0.0
H987 H 0.78896 0.05893 0.26851 0.0
H988 H 0.74072 0.15106 0.25141 0.0
H989 H 0.84052 0.08082 0.22766 0.0
H990 H 0.77224 0.09348 0.26451 0.0
H991 H 0.81639 0.14431 0.23 0.0
C992 C 0.79053 0.16588 0.23389 0.0
C993 C 0.76911 0.16839 0.24017 0.0
C994 C 0.78716 0.09072 0.25633 0.0
C995 C 0.78761 0.12808 0.24185 0.0
C996 C 0.79678 0.071 0.25867 0.0
C997 C 0.81623 0.06696 0.24844 0.0
C998 C 0.79714 0.1067 0.24389 0.0
C999 C 0.82552 0.08323 0.23581 0.0
C1000 C 0.79976 0.1458 0.23459 0.0
C1001 C 0.75738 0.15011 0.24683 0.0
N1002 N 0.81597 0.10246 0.23402 0.0
N1003 N 0.76681 0.13081 0.24761 0.0
H1004 H 0.40326 0.95191 0.00072 0.0
H1005 H 0.27962 0.91791 0.01905 0.0
H1006 H 0.36115 0.98898 0.03968 0.0
H1007 H 0.32572 0.87847 0.98783 0.0
H1008 H 0.30752 0.94641 0.02296 0.0
H1009 H 0.37331 0.92711 0.99217 0.0
C1010 C 0.38769 0.95479 0.00755 0.0
C1011 C 0.3848 0.97235 0.02124 0.0
C1012 C 0.31142 0.93156 0.01512 0.0
C1013 C 0.35023 0.94403 0.01132 0.0
C1014 C 0.2955 0.91533 0.0128 0.0
C1015 C 0.3004 0.8957 0.00328 0.0
C1016 C 0.33229 0.92812 0.00772 0.0
C1017 C 0.32124 0.89323 0.99549 0.0
C1018 C 0.37053 0.94068 0.00256 0.0
C1019 C 0.36408 0.97561 0.0291 0.0
N1020 N 0.33639 0.90918 0.99797 0.0
N1021 N 0.34759 0.96147 0.02417 0.0
H1022 H 0.23963 0.36343 0.36138 0.0
H1023 H 0.17228 0.46265 0.31972 0.0
H1024 H 0.26944 0.42143 0.337 0.0
H1025 H 0.14393 0.40052 0.33378 0.0
H1026 H 0.20788 0.44897 0.32847 0.0
H1027 H 0.20431 0.37793 0.35383 0.0
C1028 C 0.23877 0.37919 0.35434 0.0
C1029 C 0.25759 0.39114 0.34965 0.0
C1030 C 0.19386 0.43836 0.32963 0.0
C1031 C 0.21705 0.408 0.34124 0.0
C1032 C 0.17351 0.44615 0.32468 0.0
C1033 C 0.15506 0.4327 0.32598 0.0
C1034 C 0.19575 0.417 0.33607 0.0
C1035 C 0.15768 0.41147 0.33248 0.0
C1036 C 0.21856 0.38751 0.35013 0.0
C1037 C 0.2554 0.4117 0.34103 0.0
N1038 N 0.17762 0.4043 0.33729 0.0
N1039 N 0.2355 0.41946 0.33705 0.0
H1040 H 0.13939 0.99335 0.47103 0.0
H1041 H 0.22396 0.07159 0.41638 0.0
H1042 H 0.12763 0.021 0.40849 0.0
H1043 H 0.22012 0.06672 0.4856 0.0
H1044 H 0.18973 0.05142 0.41272 0.0
H1045 H 0.17019 0.01844 0.47655 0.0
C1046 C 0.14323 0.00482 0.45855 0.0
C1047 C 0.13105 0.00514 0.43927 0.0
C1048 C 0.19627 0.05495 0.42871 0.0
C1049 C 0.16624 0.03356 0.44533 0.0
C1050 C 0.21584 0.06638 0.43081 0.0
C1051 C 0.22492 0.07075 0.45132 0.0
C1052 C 0.18593 0.04744 0.44723 0.0
C1053 C 0.21364 0.06371 0.46949 0.0
C1054 C 0.1607 0.01916 0.46174 0.0
C1055 C 0.13657 0.02036 0.42364 0.0
N1056 N 0.19485 0.05213 0.46702 0.0
N1057 N 0.15395 0.03379 0.42689 0.0
H1058 H 0.68271 0.13155 0.73903 0.0
H1059 H 0.65828 0.025 0.80626 0.0
H1060 H 0.73151 0.0952 0.77144 0.0
H1061 H 0.61011 0.05611 0.76743 0.0
H1062 H 0.68435 0.05323 0.79717 0.0
H1063 H 0.65504 0.10678 0.75286 0.0
C1064 C 0.68757 0.11851 0.74928 0.0
C1065 C 0.70945 0.11533 0.75398 0.0
C1066 C 0.66806 0.05397 0.7907 0.0
C1067 C 0.67794 0.08687 0.76969 0.0
C1068 C 0.65312 0.03785 0.79592 0.0
C1069 C 0.63199 0.03807 0.78745 0.0
C1070 C 0.6619 0.07051 0.7769 0.0
C1071 C 0.62625 0.05522 0.77423 0.0
C1072 C 0.67179 0.10431 0.75705 0.0
C1073 C 0.71486 0.09806 0.76715 0.0
N1074 N 0.64117 0.0707 0.76925 0.0
N1075 N 0.69923 0.08446 0.77447 0.0
H1076 H 0.41439 0.98421 0.50162 0.0
H1077 H 0.33591 0.08184 0.51801 0.0
H1078 H 0.42767 0.03455 0.54828 0.0
H1079 H 0.33541 0.04173 0.46111 0.0
H1080 H 0.36615 0.06176 0.53274 0.0
H1081 H 0.38172 0.0021 0.49019 0.0
C1082 C 0.41029 0.99891 0.50963 0.0
C1083 C 0.42379 0.00793 0.52589 0.0
C1084 C 0.35933 0.05736 0.51707 0.0
C1085 C 0.38649 0.02861 0.51275 0.0
C1086 C 0.34204 0.06874 0.5087 0.0
C1087 C 0.33321 0.06353 0.48824 0.0
C1088 C 0.3676 0.04053 0.50501 0.0
C1089 C 0.34181 0.04643 0.47686 0.0
C1090 C 0.39172 0.0092 0.50299 0.0
C1091 C 0.41782 0.02718 0.53552 0.0
N1092 N 0.35849 0.03556 0.4854 0.0
N1093 N 0.39959 0.03691 0.52879 0.0
H1094 H 0.6105 0.46804 0.55389 0.0
H1095 H 0.69211 0.41892 0.46972 0.0
H1096 H 0.6188 0.4922 0.48944 0.0
H1097 H 0.68177 0.39334 0.53333 0.0
H1098 H 0.66464 0.44522 0.47622 0.0
H1099 H 0.63583 0.44 0.54627 0.0
C1100 C 0.61765 0.46746 0.53812 0.0
C1101 C 0.61258 0.48262 0.52233 0.0
C1102 C 0.66832 0.43381 0.48874 0.0
C1103 C 0.64161 0.45039 0.51343 0.0
C1104 C 0.68404 0.41877 0.48504 0.0
C1105 C 0.68935 0.4039 0.50102 0.0
C1106 C 0.65782 0.43408 0.5086 0.0
C1107 C 0.67827 0.4045 0.52054 0.0
C1108 C 0.63206 0.45137 0.53374 0.0
C1109 C 0.62208 0.48079 0.50205 0.0
N1110 N 0.66312 0.41937 0.52379 0.0
N1111 N 0.63622 0.46507 0.49824 0.0
H1112 H 0.73115 0.25499 0.34917 0.0
H1113 H 0.71793 0.34902 0.43583 0.0
H1114 H 0.71498 0.31901 0.33069 0.0
H1115 H 0.74606 0.28814 0.44898 0.0
H1116 H 0.71063 0.33719 0.39829 0.0
H1117 H 0.7305 0.26577 0.38691 0.0
C1118 C 0.72748 0.27136 0.35307 0.0
C1119 C 0.72349 0.28621 0.33673 0.0
C1120 C 0.71821 0.32642 0.40953 0.0
C1121 C 0.72259 0.29873 0.3801 0.0
C1122 C 0.72226 0.33311 0.43091 0.0
C1123 C 0.73284 0.31962 0.44541 0.0
C1124 C 0.72454 0.30605 0.40288 0.0
C1125 C 0.73816 0.29918 0.43826 0.0
C1126 C 0.72701 0.27751 0.37465 0.0
C1127 C 0.71822 0.30707 0.34279 0.0
N1128 N 0.73404 0.29309 0.41757 0.0
N1129 N 0.71813 0.3128 0.36402 0.0
H1130 H 0.48102 0.99433 0.9425 0.0
H1131 H 0.57989 0.01043 0.86279 0.0
H1132 H 0.53307 0.04045 0.95444 0.0
H1133 H 0.53606 0.95549 0.86133 0.0
H1134 H 0.56045 0.02471 0.89342 0.0
H1135 H 0.49838 0.98324 0.90951 0.0
C1136 C 0.49598 0.00234 0.93803 0.0
C1137 C 0.50561 0.01835 0.95125 0.0
C1138 C 0.55509 0.00957 0.88632 0.0
C1139 C 0.52575 0.0055 0.91359 0.0
C1140 C 0.56612 0.00143 0.86881 0.0
C1141 C 0.55967 0.98167 0.85955 0.0
C1142 C 0.53736 0.99796 0.89447 0.0
C1143 C 0.54171 0.97071 0.86803 0.0
C1144 C 0.50598 0.99586 0.91927 0.0
C1145 C 0.5252 0.0279 0.94481 0.0
N1146 N 0.53121 0.979 0.88499 0.0
N1147 N 0.53465 0.02131 0.92642 0.0
H1148 H 0.32024 0.27489 0.4381 0.0
H1149 H 0.31055 0.15052 0.40705 0.0
H1150 H 0.33679 0.24891 0.37618 0.0
H1151 H 0.29317 0.17529 0.46926 0.0
H1152 H 0.32048 0.18664 0.39582 0.0
H1153 H 0.3105 0.23874 0.45016 0.0
C1154 C 0.32182 0.26161 0.42704 0.0
C1155 C 0.3294 0.26496 0.4061 0.0
C1156 C 0.3145 0.18423 0.41194 0.0
C1157 C 0.31838 0.22356 0.41983 0.0
C1158 C 0.30879 0.16356 0.41837 0.0
C1159 C 0.30099 0.15982 0.43915 0.0
C1160 C 0.31243 0.2014 0.42634 0.0
C1161 C 0.29909 0.17741 0.45309 0.0
C1162 C 0.31633 0.24097 0.43396 0.0
C1163 C 0.33136 0.2471 0.39256 0.0
N1164 N 0.30478 0.19745 0.44643 0.0
N1165 N 0.32584 0.22723 0.39964 0.0
H1166 H 0.47807 0.42355 0.84689 0.0
H1167 H 0.42687 0.50752 0.76741 0.0
H1168 H 0.50848 0.48616 0.83995 0.0
H1169 H 0.3885 0.46726 0.80901 0.0
H1170 H 0.45958 0.49602 0.7868 0.0
H1171 H 0.44749 0.43535 0.82533 0.0
C1172 C 0.47839 0.4398 0.84097 0.0
C1173 C 0.49585 0.45398 0.84575 0.0
C1174 C 0.44393 0.48981 0.79158 0.0
C1175 C 0.46106 0.46723 0.82028 0.0
C1176 C 0.42535 0.49629 0.78056 0.0
C1177 C 0.40499 0.48843 0.78675 0.0
C1178 C 0.44203 0.47492 0.80835 0.0
C1179 C 0.40386 0.47389 0.80386 0.0
C1180 C 0.46095 0.44642 0.8285 0.0
C1181 C 0.49553 0.47457 0.83669 0.0
N1182 N 0.42212 0.46745 0.81392 0.0
N1183 N 0.47838 0.4806 0.82439 0.0
H1184 H 0.70034 0.7057 0.10459 0.0
H1185 H 0.80265 0.64916 0.05716 0.0
H1186 H 0.76429 0.71335 0.13283 0.0
H1187 H 0.73717 0.63465 0.03585 0.0
H1188 H 0.78896 0.67152 0.08598 0.0
H1189 H 0.7134 0.67831 0.08057 0.0
C1190 C 0.71706 0.70141 0.10604 0.0
C1191 C 0.73122 0.712 0.1208 0.0
C1192 C 0.77758 0.66329 0.07511 0.0
C1193 C 0.74646 0.68084 0.09279 0.0
C1194 C 0.78539 0.65052 0.05864 0.0
C1195 C 0.77105 0.64013 0.04394 0.0
C1196 C 0.75528 0.66583 0.07682 0.0
C1197 C 0.74885 0.64243 0.04672 0.0
C1198 C 0.72456 0.68583 0.09215 0.0
C1199 C 0.75284 0.70594 0.12149 0.0
N1200 N 0.74167 0.65516 0.06269 0.0
N1201 N 0.75983 0.6909 0.10757 0.0
H1202 H 0.97301 0.0063 0.0906 0.0
H1203 H 0.90586 0.04448 0.1921 0.0
H1204 H 0.98723 0.06474 0.12601 0.0
H1205 H 0.90136 0.98017 0.16648 0.0
H1206 H 0.93287 0.05357 0.16528 0.0
H1207 H 0.94387 0.99787 0.11558 0.0
C1208 C 0.96991 0.01742 0.10354 0.0
C1209 C 0.98264 0.0362 0.1063 0.0
C1210 C 0.92594 0.03748 0.16549 0.0
C1211 C 0.94937 0.02667 0.13491 0.0
C1212 C 0.91045 0.03229 0.18077 0.0
C1213 C 0.90136 0.01149 0.18163 0.0
C1214 C 0.93234 0.02184 0.15081 0.0
C1215 C 0.90799 0.99638 0.1665 0.0
C1216 C 0.95337 0.01254 0.11785 0.0
C1217 C 0.97801 0.04995 0.12345 0.0
N1218 N 0.92308 0.00184 0.15172 0.0
N1219 N 0.96177 0.04493 0.13707 0.0
H1220 H 0.2757 0.76803 0.16337 0.0
H1221 H 0.21165 0.80957 0.05907 0.0
H1222 H 0.22002 0.73407 0.13599 0.0
H1223 H 0.27782 0.8262 0.07566 0.0
H1224 H 0.20929 0.78835 0.09246 0.0
H1225 H 0.27112 0.79611 0.13669 0.0
C1226 C 0.26241 0.76655 0.15182 0.0
C1227 C 0.24852 0.74843 0.15162 0.0
C1228 C 0.22416 0.797 0.08891 0.0
C1229 C 0.24308 0.78067 0.12106 0.0
C1230 C 0.22545 0.80918 0.07002 0.0
C1231 C 0.24499 0.81946 0.06468 0.0
C1232 C 0.24245 0.79554 0.10254 0.0
C1233 C 0.26252 0.81834 0.07918 0.0
C1234 C 0.25975 0.78263 0.13664 0.0
C1235 C 0.23118 0.74771 0.13666 0.0
N1236 N 0.26086 0.80655 0.09737 0.0
N1237 N 0.2291 0.76347 0.12176 0.0
H1238 H 0.04071 0.50038 0.14429 0.0
H1239 H 0.06425 0.42427 0.2446 0.0
H1240 H 0.03793 0.43151 0.13973 0.0
H1241 H 0.08098 0.49177 0.2443 0.0
H1242 H 0.05198 0.4268 0.20702 0.0
H1243 H 0.05281 0.49771 0.1819 0.0
C1244 C 0.04253 0.48468 0.15126 0.0
C1245 C 0.03825 0.46613 0.13891 0.0
C1246 C 0.05837 0.44103 0.21518 0.0
C1247 C 0.0522 0.46295 0.1819 0.0
C1248 C 0.06533 0.43963 0.23665 0.0
C1249 C 0.07366 0.45784 0.24764 0.0
C1250 C 0.05958 0.46082 0.20464 0.0
C1251 C 0.07471 0.4773 0.23648 0.0
C1252 C 0.04957 0.48317 0.17268 0.0
C1253 C 0.0412 0.44621 0.14865 0.0
N1254 N 0.06769 0.47829 0.21563 0.0
N1255 N 0.04792 0.44514 0.16962 0.0
H1256 H 0.34126 0.73475 0.25321 0.0
H1257 H 0.44205 0.71472 0.33267 0.0
H1258 H 0.35316 0.6729 0.28074 0.0
H1259 H 0.43003 0.77381 0.29946 0.0
H1260 H 0.40914 0.6989 0.31551 0.0
H1261 H 0.37306 0.74931 0.27214 0.0
C1262 C 0.35042 0.72425 0.26346 0.0
C1263 C 0.34439 0.70258 0.26546 0.0
C1264 C 0.4138 0.71532 0.31205 0.0
C1265 C 0.38138 0.71915 0.28701 0.0
C1266 C 0.43255 0.72435 0.32182 0.0
C1267 C 0.43888 0.74563 0.3175 0.0
C1268 C 0.40134 0.72773 0.29798 0.0
C1269 C 0.42593 0.75735 0.30331 0.0
C1270 C 0.36877 0.73255 0.27416 0.0
C1271 C 0.3573 0.68967 0.27861 0.0
N1272 N 0.40788 0.74827 0.29414 0.0
N1273 N 0.37521 0.69815 0.28891 0.0
H1274 H 0.98656 0.4194 0.96106 0.0
H1275 H 0.01056 0.29923 0.92594 0.0
H1276 H 0.01993 0.37617 0.0031 0.0
H1277 H 0.97602 0.34439 0.88703 0.0
H1278 H 0.01249 0.32563 0.95555 0.0
H1279 H 0.98101 0.39071 0.93478 0.0
C1280 C 0.9928 0.40382 0.96471 0.0
C1281 C 0.00399 0.40024 0.98415 0.0
C1282 C 0.00437 0.32962 0.94055 0.0
C1283 C 0.99759 0.36705 0.95406 0.0
C1284 C 0.00322 0.31456 0.92369 0.0
C1285 C 0.99332 0.31968 0.90389 0.0
C1286 C 0.99549 0.34982 0.93751 0.0
C1287 C 0.98406 0.33977 0.90187 0.0
C1288 C 0.98953 0.38736 0.94974 0.0
C1289 C 0.01125 0.37957 0.98826 0.0
N1290 N 0.98548 0.35405 0.91836 0.0
N1291 N 0.00809 0.36375 0.97323 0.0
H1292 H 0.63255 0.74543 0.23906 0.0
H1293 H 0.55144 0.81105 0.30987 0.0
H1294 H 0.6339 0.8142 0.24495 0.0
H1295 H 0.55525 0.74247 0.31417 0.0
H1296 H 0.58292 0.81198 0.28724 0.0
H1297 H 0.60579 0.74332 0.26765 0.0
C1298 C 0.62742 0.76006 0.24652 0.0
C1299 C 0.63523 0.78005 0.23935 0.0
C1300 C 0.57707 0.79668 0.29321 0.0
C1301 C 0.60457 0.77775 0.27188 0.0
C1302 C 0.55902 0.79614 0.30613 0.0
C1303 C 0.55059 0.77662 0.31376 0.0
C1304 C 0.58673 0.77753 0.2875 0.0
C1305 C 0.56124 0.75785 0.30859 0.0
C1306 C 0.61211 0.75884 0.26278 0.0
C1307 C 0.62796 0.79847 0.24955 0.0
N1308 N 0.57864 0.75872 0.29551 0.0
N1309 N 0.61297 0.79687 0.26512 0.0
H1310 H 0.0296 0.14686 0.99712 0.0
H1311 H 0.01404 0.17345 0.87152 0.0
H1312 H 0.03352 0.09931 0.94678 0.0
H1313 H 0.0131 0.22068 0.92248 0.0
H1314 H 0.02065 0.14592 0.89858 0.0
H1315 H 0.02273 0.17381 0.96982 0.0
C1316 C 0.02882 0.14201 0.98032 0.0
C1317 C 0.03201 0.12068 0.9743 0.0
C1318 C 0.01901 0.16231 0.90382 0.0
C1319 C 0.02444 0.15173 0.94276 0.0
C1320 C 0.01523 0.17806 0.88838 0.0
C1321 C 0.013 0.19946 0.8947 0.0
C1322 C 0.02053 0.16796 0.92578 0.0
C1323 C 0.01471 0.20443 0.9168 0.0
C1324 C 0.02505 0.15749 0.96469 0.0
C1325 C 0.03131 0.11555 0.95219 0.0
N1326 N 0.01834 0.18883 0.93149 0.0
N1327 N 0.02756 0.13094 0.93724 0.0
H1328 H 0.35465 0.33695 0.26049 0.0
H1329 H 0.46106 0.31247 0.19531 0.0
H1330 H 0.41852 0.34056 0.28927 0.0
H1331 H 0.39789 0.31695 0.16554 0.0
H1332 H 0.446 0.32277 0.22985 0.0
H1333 H 0.37036 0.32954 0.22556 0.0
C1334 C 0.372 0.33617 0.25944 0.0
C1335 C 0.38529 0.33925 0.27784 0.0
C1336 C 0.43547 0.32159 0.21573 0.0
C1337 C 0.40343 0.33085 0.23784 0.0
C1338 C 0.44405 0.31568 0.196 0.0
C1339 C 0.43072 0.31376 0.17747 0.0
C1340 C 0.41337 0.32549 0.217 0.0
C1341 C 0.4088 0.31818 0.17937 0.0
C1342 C 0.38097 0.33205 0.23947 0.0
C1343 C 0.40769 0.33841 0.27547 0.0
N1344 N 0.40081 0.32373 0.19877 0.0
N1345 N 0.41606 0.33414 0.25586 0.0
H1346 H 0.52095 0.41782 0.00523 0.0
H1347 H 0.5154 0.3147 0.07843 0.0
H1348 H 0.5455 0.35746 0.98384 0.0
H1349 H 0.46065 0.35523 0.07209 0.0
H1350 H 0.53337 0.33524 0.05 0.0
H1351 H 0.50479 0.39946 0.03591 0.0
C1352 C 0.523 0.40079 0.00681 0.0
C1353 C 0.53465 0.38928 0.99159 0.0
C1354 C 0.5175 0.33968 0.05502 0.0
C1355 C 0.51688 0.36851 0.0273 0.0
C1356 C 0.5073 0.3281 0.07126 0.0
C1357 C 0.48648 0.33325 0.07749 0.0
C1358 C 0.50702 0.35683 0.04538 0.0
C1359 C 0.47664 0.35068 0.06761 0.0
C1360 C 0.51387 0.39041 0.02446 0.0
C1361 C 0.53715 0.36728 0.99517 0.0
N1362 N 0.48706 0.36196 0.05206 0.0
N1363 N 0.52844 0.35767 0.01268 0.0
H1364 H 0.62635 0.26393 0.22788 0.0
H1365 H 0.55828 0.26431 0.11674 0.0
H1366 H 0.65429 0.25484 0.16545 0.0
H1367 H 0.53181 0.27992 0.17852 0.0
H1368 H 0.59306 0.25855 0.13453 0.0
H1369 H 0.59103 0.26732 0.21032 0.0
C1370 C 0.62502 0.26245 0.21048 0.0
C1371 C 0.64332 0.25913 0.19811 0.0
C1372 C 0.57964 0.26321 0.1442 0.0
C1373 C 0.60295 0.26323 0.17787 0.0
C1374 C 0.55975 0.26649 0.13405 0.0
C1375 C 0.5421 0.27268 0.14614 0.0
C1376 C 0.58191 0.26607 0.16662 0.0
C1377 C 0.54499 0.27523 0.16854 0.0
C1378 C 0.60488 0.26454 0.20045 0.0
C1379 C 0.64068 0.25766 0.1756 0.0
N1380 N 0.56451 0.27193 0.17804 0.0
N1381 N 0.62088 0.25973 0.16621 0.0
H1382 H 0.47594 0.11772 0.09519 0.0
H1383 H 0.42257 0.2318 0.08103 0.0
H1384 H 0.42746 0.13039 0.04645 0.0
H1385 H 0.47746 0.22039 0.12281 0.0
H1386 H 0.42195 0.19413 0.07013 0.0
H1387 H 0.47441 0.15468 0.10757 0.0
C1388 C 0.46481 0.12824 0.08721 0.0
C1389 C 0.45177 0.12093 0.06978 0.0
C1390 C 0.43409 0.19989 0.08171 0.0
C1391 C 0.45011 0.16344 0.08373 0.0
C1392 C 0.43443 0.22138 0.08799 0.0
C1393 C 0.45014 0.22931 0.10283 0.0
C1394 C 0.44949 0.18621 0.09041 0.0
C1395 C 0.4651 0.21504 0.11128 0.0
C1396 C 0.46406 0.1494 0.09419 0.0
C1397 C 0.43794 0.13541 0.05982 0.0
N1398 N 0.4644 0.19422 0.10495 0.0
N1399 N 0.43746 0.15598 0.06695 0.0
H1400 H 0.27182 0.34253 0.71676 0.0
H1401 H 0.319 0.45966 0.69216 0.0
H1402 H 0.24815 0.37905 0.66277 0.0
H1403 H 0.31372 0.43385 0.75631 0.0
H1404 H 0.29968 0.42745 0.67782 0.0
H1405 H 0.29426 0.37336 0.72813 0.0
C1406 C 0.27125 0.35699 0.70728 0.0
C1407 C 0.25769 0.35818 0.68893 0.0
C1408 C 0.30288 0.42893 0.69501 0.0
C1409 C 0.28395 0.3934 0.70164 0.0
C1410 C 0.31392 0.44719 0.70316 0.0
C1411 C 0.31778 0.44947 0.72545 0.0
C1412 C 0.29621 0.41273 0.70924 0.0
C1413 C 0.31086 0.43287 0.73904 0.0
C1414 C 0.28421 0.37453 0.71374 0.0
C1415 C 0.25836 0.37724 0.67694 0.0
N1416 N 0.30052 0.4152 0.73072 0.0
N1417 N 0.27122 0.39413 0.68354 0.0
H1418 H 0.25967 0.65304 0.7783 0.0
H1419 H 0.33719 0.57108 0.72054 0.0
H1420 H 0.28876 0.66555 0.71681 0.0
H1421 H 0.30556 0.55879 0.78081 0.0
H1422 H 0.32036 0.60598 0.71895 0.0
H1423 H 0.27684 0.61854 0.77941 0.0
C1424 C 0.26953 0.64847 0.76492 0.0
C1425 C 0.27267 0.66224 0.74738 0.0
C1426 C 0.31714 0.59563 0.73251 0.0
C1427 C 0.29273 0.62272 0.7487 0.0
C1428 C 0.32677 0.57571 0.73345 0.0
C1429 C 0.32279 0.56192 0.75083 0.0
C1430 C 0.30347 0.60181 0.74908 0.0
C1431 C 0.30911 0.5688 0.76707 0.0
C1432 C 0.27948 0.6288 0.76564 0.0
C1433 C 0.28604 0.65557 0.73076 0.0
N1434 N 0.29998 0.5882 0.76578 0.0
N1435 N 0.29555 0.63629 0.73181 0.0
H1436 H 0.85612 0.49026 0.52431 0.0
H1437 H 0.82595 0.36522 0.51798 0.0
H1438 H 0.89995 0.44018 0.54 0.0
H1439 H 0.77751 0.4132 0.51404 0.0
H1440 H 0.85339 0.39318 0.52384 0.0
H1441 H 0.82722 0.46299 0.51838 0.0
C1442 C 0.85964 0.47356 0.52652 0.0
C1443 C 0.88044 0.46749 0.5328 0.0
C1444 C 0.83678 0.39768 0.52174 0.0
C1445 C 0.84762 0.43635 0.526 0.0
C1446 C 0.82104 0.38167 0.51832 0.0
C1447 C 0.79932 0.38683 0.51552 0.0
C1448 C 0.83093 0.41916 0.52228 0.0
C1449 C 0.79405 0.4085 0.51617 0.0
C1450 C 0.84316 0.45805 0.52323 0.0
C1451 C 0.88411 0.44565 0.53553 0.0
N1452 N 0.80978 0.42392 0.51944 0.0
N1453 N 0.86792 0.43093 0.53205 0.0
H1454 H 0.76687 0.91034 0.82013 0.0
H1455 H 0.64055 0.89982 0.84056 0.0
H1456 H 0.74015 0.8712 0.87064 0.0
H1457 H 0.6703 0.95406 0.8088 0.0
H1458 H 0.67644 0.88611 0.84827 0.0
H1459 H 0.73089 0.92369 0.81223 0.0
C1460 C 0.75339 0.90455 0.82951 0.0
C1461 C 0.75643 0.88973 0.84609 0.0
C1462 C 0.67505 0.90102 0.83964 0.0
C1463 C 0.71533 0.90475 0.83709 0.0
C1464 C 0.6546 0.9088 0.83516 0.0
C1465 C 0.65244 0.92814 0.82407 0.0
C1466 C 0.6934 0.91249 0.83269 0.0
C1467 C 0.67121 0.93914 0.81749 0.0
C1468 C 0.73292 0.91222 0.82508 0.0
C1469 C 0.73848 0.8828 0.85787 0.0
N1470 N 0.69089 0.93112 0.82181 0.0
N1471 N 0.71864 0.89028 0.85306 0.0
H1472 H 0.62692 0.5181 0.90282 0.0
H1473 H 0.71643 0.56493 0.98627 0.0
H1474 H 0.64004 0.48907 0.96443 0.0
H1475 H 0.72099 0.57182 0.91728 0.0
H1476 H 0.68277 0.54383 0.98077 0.0
H1477 H 0.65588 0.54482 0.91044 0.0
C1478 C 0.63569 0.5176 0.91809 0.0
C1479 C 0.63127 0.50135 0.93298 0.0
C1480 C 0.69109 0.55017 0.96689 0.0
C1481 C 0.66417 0.53173 0.94178 0.0
C1482 C 0.71019 0.56226 0.97001 0.0
C1483 C 0.72159 0.56994 0.95218 0.0
C1484 C 0.68318 0.5461 0.94585 0.0
C1485 C 0.71283 0.56599 0.93145 0.0
C1486 C 0.65224 0.53272 0.92235 0.0
C1487 C 0.64316 0.50126 0.95246 0.0
N1488 N 0.69414 0.55432 0.92884 0.0
N1489 N 0.65912 0.51622 0.95632 0.0
H1490 H 0.21816 0.61198 0.27645 0.0
H1491 H 0.10179 0.55396 0.26462 0.0
H1492 H 0.17154 0.62699 0.22665 0.0
H1493 H 0.15132 0.53472 0.30972 0.0
H1494 H 0.12524 0.58387 0.25359 0.0
H1495 H 0.19195 0.58691 0.29194 0.0
C1496 C 0.20229 0.61025 0.26894 0.0
C1497 C 0.1971 0.62155 0.25013 0.0
C1498 C 0.13091 0.5732 0.26601 0.0
C1499 C 0.16707 0.59256 0.26764 0.0
C1500 C 0.1175 0.55614 0.27237 0.0
C1501 C 0.12466 0.54168 0.288 0.0
C1502 C 0.15162 0.57586 0.27537 0.0
C1503 C 0.14517 0.54535 0.2975 0.0
C1504 C 0.18738 0.59579 0.27771 0.0
C1505 C 0.17636 0.61838 0.24096 0.0
N1506 N 0.15796 0.56199 0.29095 0.0
N1507 N 0.16215 0.60411 0.24973 0.0
H1508 H 0.92791 0.54245 0.05077 0.0
H1509 H 0.83126 0.54012 0.96456 0.0
H1510 H 0.91475 0.49001 0.0065 0.0
H1511 H 0.83318 0.58287 0.01948 0.0
H1512 H 0.86225 0.52197 0.97962 0.0
H1513 H 0.89377 0.5581 0.03951 0.0
C1514 C 0.91778 0.5342 0.03876 0.0
C1515 C 0.92418 0.51494 0.02951 0.0
C1516 C 0.85582 0.5352 0.9885 0.0
C1517 C 0.88525 0.53273 0.01654 0.0
C1518 C 0.83815 0.54562 0.97988 0.0
C1519 C 0.8297 0.56311 0.99073 0.0
C1520 C 0.86538 0.54248 0.008 0.0
C1521 C 0.83919 0.56944 0.01059 0.0
C1522 C 0.89827 0.54306 0.03244 0.0
C1523 C 0.91037 0.50479 0.01419 0.0
N1524 N 0.85671 0.55927 0.0185 0.0
N1525 N 0.89167 0.5139 0.00805 0.0
H1526 H 0.09083 0.96113 0.04674 0.0
H1527 H 0.19969 0.91757 0.99783 0.0
H1528 H 0.13248 0.99806 0.00518 0.0
H1529 H 0.15698 0.87934 0.03716 0.0
H1530 H 0.17466 0.94681 -0.00043 0.0
H1531 H 0.11398 0.93057 0.04236 0.0
C1532 C 0.1047 0.96278 0.03649 0.0
C1533 C 0.10971 0.9823 0.02639 0.0
C1534 C 0.1707 0.93202 0.00777 0.0
C1535 C 0.13654 0.94736 0.02157 0.0
C1536 C 0.18502 0.91528 0.0068 0.0
C1537 C 0.18051 0.89594 0.01743 0.0
C1538 C 0.15168 0.92951 0.01951 0.0
C1539 C 0.16117 0.89395 0.02874 0.0
C1540 C 0.11801 0.94533 0.03412 0.0
C1541 C 0.12813 0.98349 0.01358 0.0
N1542 N 0.14753 0.91054 0.02955 0.0
N1543 N 0.14087 0.96632 0.01161 0.0
loop_
_geom_bond_atom_site_label_1
_geom_bond_atom_site_label_2
_geom_bond_distance
_geom_bond_site_symmetry_2
_ccdc_geom_bond_type
P0 O11 1.490 . S
P0 C14 1.812 . S
P0 C20 1.803 . S
P0 C26 1.819 . S
H1 C15 0.941 . S
H2 C16 0.939 . S
H3 C18 0.940 1_655 S
H4 C19 0.940 . S
H5 C21 0.939 . S
H6 C22 0.942 . S
H7 C24 0.951 . S
H8 C25 0.939 . S
H9 C27 0.941 . S
H10 C31 0.939 . S
O11 P0 1.490 . S
H12 C28 0.939 . S
H13 C30 0.940 1_556 S
C14 P0 1.812 . S
C14 C15 1.389 . S
C14 C19 1.391 . S
C15 H1 0.941 . S
C15 C14 1.389 . S
C15 C16 1.397 . S
C16 H2 0.939 . S
C16 C15 1.397 . S
C16 C17 1.378 . S
C17 C16 1.378 . S
C17 C18 1.378 . S
C18 H3 0.940 1_455 S
C18 C17 1.378 . S
C18 C19 1.396 . S
C19 H4 0.940 . S
C19 C14 1.391 . S
C19 C18 1.396 . S
C20 P0 1.803 . S
C20 C21 1.378 . S
C20 C25 1.400 . S
C21 H5 0.939 . S
C21 C20 1.378 . S
C21 C22 1.361 . S
C22 H6 0.942 . S
C22 C21 1.361 . S
C22 C23 1.369 . S
C23 C22 1.369 . S
C23 C24 1.403 1_545 S
C24 H7 0.951 . S
C24 C23 1.403 1_565 S
C24 C25 1.379 1_565 S
C25 H8 0.939 . S
C25 C20 1.400 . S
C25 C24 1.379 1_545 S
C26 P0 1.819 . S
C26 C27 1.391 . S
C26 C31 1.391 . S
C27 H9 0.941 . S
C27 C26 1.391 . S
C27 C28 1.396 . S
C28 H12 0.939 . S
C28 C27 1.396 . S
C28 C29 1.397 . S
C29 C28 1.397 . S
C29 C30 1.385 . S
C30 H13 0.940 1_554 S
C30 C29 1.385 . S
C30 C31 1.388 . S
C31 H10 0.939 . S
C31 C26 1.391 . S
C31 C30 1.388 . S
P32 O43 1.490 . S
P32 C46 1.812 . S
P32 C52 1.803 . S
P32 C58 1.819 . S
H33 C47 0.941 . S
H34 C48 0.939 . S
H35 C50 0.940 . S
H36 C51 0.940 . S
H37 C53 0.939 . S
H38 C54 0.942 . S
H39 C56 0.940 . S
H40 C57 0.939 . S
H41 C59 0.941 . S
H42 C63 0.939 . S
O43 P32 1.490 . S
H44 C60 0.939 . S
H45 C62 0.940 . S
C46 P32 1.812 . S
C46 C47 1.389 . S
C46 C51 1.391 . S
C47 H33 0.941 . S
C47 C46 1.389 . S
C47 C48 1.397 . S
C48 H34 0.939 . S
C48 C47 1.397 . S
C48 C49 1.378 . S
C49 C48 1.378 . S
C49 C50 1.378 . S
C50 H35 0.940 . S
C50 C49 1.378 . S
C50 C51 1.396 . S
C51 H36 0.940 . S
C51 C46 1.391 . S
C51 C50 1.396 . S
C52 P32 1.803 . S
C52 C53 1.378 . S
C52 C57 1.400 . S
C53 H37 0.939 . S
C53 C52 1.378 . S
C53 C54 1.361 . S
C54 H38 0.942 . S
C54 C53 1.361 . S
C54 C55 1.369 . S
C55 C54 1.369 . S
C55 C56 1.404 . S
C56 H39 0.940 . S
C56 C55 1.404 . S
C56 C57 1.389 . S
C57 H40 0.939 . S
C57 C52 1.400 . S
C57 C56 1.389 . S
C58 P32 1.819 . S
C58 C59 1.391 . S
C58 C63 1.391 . S
C59 H41 0.941 . S
C59 C58 1.391 . S
C59 C60 1.396 . S
C60 H44 0.939 . S
C60 C59 1.396 . S
C60 C61 1.397 . S
C61 C60 1.397 . S
C61 C62 1.385 . S
C62 H45 0.940 . S
C62 C61 1.385 . S
C62 C63 1.388 . S
C63 H42 0.939 . S
C63 C58 1.391 . S
C63 C62 1.388 . S
P64 O75 1.490 . S
P64 C78 1.812 . S
P64 C84 1.803 . S
P64 C90 1.819 . S
H65 C79 0.941 1_556 S
H66 C80 0.939 . S
H67 C82 0.940 . S
H68 C83 0.940 . S
H69 C85 0.939 . S
H70 C86 0.942 . S
H71 C88 0.940 . S
H72 C89 0.939 . S
H73 C91 0.941 1_455 S
H74 C95 0.939 . S
O75 P64 1.490 . S
H76 C92 0.939 . S
H77 C94 0.940 . S
C78 P64 1.812 . S
C78 C79 1.389 . S
C78 C83 1.391 . S
C79 H65 0.941 1_554 S
C79 C78 1.389 . S
C79 C80 1.397 1_554 S
C80 H66 0.939 . S
C80 C79 1.397 1_556 S
C80 C81 1.378 1_556 S
C81 C80 1.378 1_554 S
C81 C82 1.378 . S
C82 H67 0.940 . S
C82 C81 1.378 . S
C82 C83 1.396 . S
C83 H68 0.940 . S
C83 C78 1.391 . S
C83 C82 1.396 . S
C84 P64 1.803 . S
C84 C85 1.378 . S
C84 C89 1.400 . S
C85 H69 0.939 . S
C85 C84 1.378 . S
C85 C86 1.361 . S
C86 H70 0.942 . S
C86 C85 1.361 . S
C86 C87 1.369 . S
C87 C86 1.369 . S
C87 C88 1.404 . S
C88 H71 0.940 . S
C88 C87 1.404 . S
C88 C89 1.389 . S
C89 H72 0.939 . S
C89 C84 1.400 . S
C89 C88 1.389 . S
C90 P64 1.819 . S
C90 C91 1.391 . S
C90 C95 1.391 . S
C91 H73 0.941 1_655 S
C91 C90 1.391 . S
C91 C92 1.396 1_655 S
C92 H76 0.939 . S
C92 C91 1.396 1_455 S
C92 C93 1.397 1_455 S
C93 C92 1.397 1_655 S
C93 C94 1.385 . S
C94 H77 0.940 . S
C94 C93 1.385 . S
C94 C95 1.388 . S
C95 H74 0.939 . S
C95 C90 1.391 . S
C95 C94 1.388 . S
P96 O107 1.490 . S
P96 C110 1.812 . S
P96 C116 1.803 . S
P96 C122 1.819 . S
H97 C111 0.941 . S
H98 C112 0.939 . S
H99 C114 0.940 . S
H100 C115 0.940 . S
H101 C117 0.939 . S
H102 C118 0.942 . S
H103 C120 0.940 . S
H104 C121 0.939 . S
H105 C123 0.941 . S
H106 C127 0.939 . S
O107 P96 1.490 . S
H108 C124 0.939 . S
H109 C126 0.940 . S
C110 P96 1.812 . S
C110 C111 1.389 . S
C110 C115 1.391 . S
C111 H97 0.941 . S
C111 C110 1.389 . S
C111 C112 1.397 . S
C112 H98 0.939 . S
C112 C111 1.397 . S
C112 C113 1.378 . S
C113 C112 1.378 . S
C113 C114 1.378 . S
C114 H99 0.940 . S
C114 C113 1.378 . S
C114 C115 1.396 . S
C115 H100 0.940 . S
C115 C110 1.391 . S
C115 C114 1.396 . S
C116 P96 1.803 . S
C116 C117 1.378 . S
C116 C121 1.400 . S
C117 H101 0.939 . S
C117 C116 1.378 . S
C117 C118 1.361 . S
C118 H102 0.942 . S
C118 C117 1.361 . S
C118 C119 1.369 . S
C119 C118 1.369 . S
C119 C120 1.404 . S
C120 H103 0.940 . S
C120 C119 1.404 . S
C120 C121 1.389 . S
C121 H104 0.939 . S
C121 C116 1.400 . S
C121 C120 1.389 . S
C122 P96 1.819 . S
C122 C123 1.391 . S
C122 C127 1.391 . S
C123 H105 0.941 . S
C123 C122 1.391 . S
C123 C124 1.396 . S
C124 H108 0.939 . S
C124 C123 1.396 . S
C124 C125 1.397 . S
C125 C124 1.397 . S
C125 C126 1.385 . S
C126 H109 0.940 . S
C126 C125 1.385 . S
C126 C127 1.388 . S
C127 H106 0.939 . S
C127 C122 1.391 . S
C127 C126 1.388 . S
P128 O139 1.490 . S
P128 C142 1.812 . S
P128 C148 1.803 . S
P128 C154 1.819 . S
H129 C143 0.941 . S
H130 C144 0.939 . S
H131 C146 0.940 1_545 S
H132 C147 0.940 . S
H133 C149 0.939 . S
H134 C150 0.942 . S
H135 C152 0.940 . S
H136 C153 0.939 . S
H137 C155 0.941 . S
H138 C159 0.939 . S
O139 P128 1.490 . S
H140 C156 0.939 . S
H141 C158 0.940 1_655 S
C142 P128 1.812 . S
C142 C143 1.389 . S
C142 C147 1.391 . S
C143 H129 0.941 . S
C143 C142 1.389 . S
C143 C144 1.397 . S
C144 H130 0.939 . S
C144 C143 1.397 . S
C144 C145 1.378 . S
C145 C144 1.378 . S
C145 C146 1.378 . S
C146 H131 0.940 1_565 S
C146 C145 1.378 . S
C146 C147 1.396 . S
C147 H132 0.940 . S
C147 C142 1.391 . S
C147 C146 1.396 . S
C148 P128 1.803 . S
C148 C149 1.378 . S
C148 C153 1.400 . S
C149 H133 0.939 . S
C149 C148 1.378 . S
C149 C150 1.361 . S
C150 H134 0.942 . S
C150 C149 1.361 . S
C150 C151 1.369 . S
C151 C150 1.369 . S
C151 C152 1.404 . S
C152 H135 0.940 . S
C152 C151 1.404 . S
C152 C153 1.389 . S
C153 H136 0.939 . S
C153 C148 1.400 . S
C153 C152 1.389 . S
C154 P128 1.819 . S
C154 C155 1.391 . S
C154 C159 1.391 . S
C155 H137 0.941 . S
C155 C154 1.391 . S
C155 C156 1.396 . S
C156 H140 0.939 . S
C156 C155 1.396 . S
C156 C157 1.397 . S
C157 C156 1.397 . S
C157 C158 1.385 . S
C158 H141 0.940 1_455 S
C158 C157 1.385 . S
C158 C159 1.388 . S
C159 H138 0.939 . S
C159 C154 1.391 . S
C159 C158 1.388 . S
P160 O171 1.490 . S
P160 C174 1.812 . S
P160 C180 1.803 . S
P160 C186 1.819 . S
H161 C175 0.941 . S
H162 C176 0.939 . S
H163 C178 0.940 . S
H164 C179 0.940 . S
H165 C181 0.939 . S
H166 C182 0.942 . S
H167 C184 0.940 . S
H168 C185 0.939 . S
H169 C187 0.941 . S
H170 C191 0.939 . S
O171 P160 1.490 . S
H172 C188 0.939 . S
H173 C190 0.940 . S
C174 P160 1.812 . S
C174 C175 1.389 . S
C174 C179 1.391 . S
C175 H161 0.941 . S
C175 C174 1.389 . S
C175 C176 1.397 . S
C176 H162 0.939 . S
C176 C175 1.397 . S
C176 C177 1.378 . S
C177 C176 1.378 . S
C177 C178 1.378 . S
C178 H163 0.940 . S
C178 C177 1.378 . S
C178 C179 1.396 . S
C179 H164 0.940 . S
C179 C174 1.391 . S
C179 C178 1.396 . S
C180 P160 1.803 . S
C180 C181 1.378 . S
C180 C185 1.400 . S
C181 H165 0.939 . S
C181 C180 1.378 . S
C181 C182 1.361 . S
C182 H166 0.942 . S
C182 C181 1.361 . S
C182 C183 1.369 . S
C183 C182 1.369 . S
C183 C184 1.404 . S
C184 H167 0.940 . S
C184 C183 1.404 . S
C184 C185 1.389 . S
C185 H168 0.939 . S
C185 C180 1.400 . S
C185 C184 1.389 . S
C186 P160 1.819 . S
C186 C187 1.391 . S
C186 C191 1.391 . S
C187 H169 0.941 . S
C187 C186 1.391 . S
C187 C188 1.396 . S
C188 H172 0.939 . S
C188 C187 1.396 . S
C188 C189 1.397 . S
C189 C188 1.397 . S
C189 C190 1.385 . S
C190 H173 0.940 . S
C190 C189 1.385 . S
C190 C191 1.388 . S
C191 H170 0.939 . S
C191 C186 1.391 . S
C191 C190 1.388 . S
P192 O203 1.490 . S
P192 C206 1.812 . S
P192 C212 1.803 . S
P192 C218 1.819 . S
H193 C207 0.941 . S
H194 C208 0.939 . S
H195 C210 0.940 . S
H196 C211 0.940 . S
H197 C213 0.939 . S
H198 C214 0.942 . S
H199 C216 0.940 . S
H200 C217 0.939 . S
H201 C219 0.941 . S
H202 C223 0.939 . S
O203 P192 1.490 . S
H204 C220 0.939 . S
H205 C222 0.940 . S
C206 P192 1.812 . S
C206 C207 1.389 1_655 S
C206 C211 1.391 . S
C207 H193 0.941 . S
C207 C206 1.389 1_455 S
C207 C208 1.397 . S
C208 H194 0.939 . S
C208 C207 1.397 . S
C208 C209 1.352 1_455 S
C209 C208 1.352 1_655 S
C209 C210 1.419 . S
C210 H195 0.940 . S
C210 C209 1.419 . S
C210 C211 1.396 . S
C211 H196 0.940 . S
C211 C206 1.391 . S
C211 C210 1.396 . S
C212 P192 1.803 . S
C212 C213 1.378 . S
C212 C217 1.400 . S
C213 H197 0.939 . S
C213 C212 1.378 . S
C213 C214 1.361 . S
C214 H198 0.942 . S
C214 C213 1.361 . S
C214 C215 1.369 . S
C215 C214 1.369 . S
C215 C216 1.404 . S
C216 H199 0.940 . S
C216 C215 1.404 . S
C216 C217 1.389 . S
C217 H200 0.939 . S
C217 C212 1.400 . S
C217 C216 1.389 . S
C218 P192 1.819 . S
C218 C219 1.391 . S
C218 C223 1.391 . S
C219 H201 0.941 . S
C219 C218 1.391 . S
C219 C220 1.396 . S
C220 H204 0.939 . S
C220 C219 1.396 . S
C220 C221 1.397 . S
C221 C220 1.397 . S
C221 C222 1.385 . S
C222 H205 0.940 . S
C222 C221 1.385 . S
C222 C223 1.388 . S
C223 H202 0.939 . S
C223 C218 1.391 . S
C223 C222 1.388 . S
P224 O235 1.490 . S
P224 C238 1.812 . S
P224 C244 1.803 . S
P224 C250 1.819 . S
H225 C239 0.941 . S
H226 C240 0.939 . S
H227 C242 0.940 . S
H228 C243 0.940 . S
H229 C245 0.939 . S
H230 C246 0.942 . S
H231 C248 0.940 . S
H232 C249 0.939 . S
H233 C251 0.941 . S
H234 C255 0.939 . S
O235 P224 1.490 . S
H236 C252 0.939 . S
H237 C254 0.940 . S
C238 P224 1.812 . S
C238 C239 1.389 . S
C238 C243 1.391 . S
C239 H225 0.941 . S
C239 C238 1.389 . S
C239 C240 1.397 . S
C240 H226 0.939 . S
C240 C239 1.397 . S
C240 C241 1.378 . S
C241 C240 1.378 . S
C241 C242 1.378 . S
C242 H227 0.940 . S
C242 C241 1.378 . S
C242 C243 1.396 . S
C243 H228 0.940 . S
C243 C238 1.391 . S
C243 C242 1.396 . S
C244 P224 1.803 . S
C244 C245 1.378 . S
C244 C249 1.400 . S
C245 H229 0.939 . S
C245 C244 1.378 . S
C245 C246 1.361 . S
C246 H230 0.942 . S
C246 C245 1.361 . S
C246 C247 1.369 . S
C247 C246 1.369 . S
C247 C248 1.404 . S
C248 H231 0.940 . S
C248 C247 1.404 . S
C248 C249 1.389 . S
C249 H232 0.939 . S
C249 C244 1.400 . S
C249 C248 1.389 . S
C250 P224 1.819 . S
C250 C251 1.391 . S
C250 C255 1.391 . S
C251 H233 0.941 . S
C251 C250 1.391 . S
C251 C252 1.396 . S
C252 H236 0.939 . S
C252 C251 1.396 . S
C252 C253 1.397 . S
C253 C252 1.397 . S
C253 C254 1.385 . S
C254 H237 0.940 . S
C254 C253 1.385 . S
C254 C255 1.388 . S
C255 H234 0.939 . S
C255 C250 1.391 . S
C255 C254 1.388 . S
P256 O267 1.490 . S
P256 C270 1.812 . S
P256 C276 1.803 . S
P256 C282 1.819 . S
H257 C271 0.941 . S
H258 C272 0.939 . S
H259 C274 0.940 . S
H260 C275 0.940 . S
H261 C277 0.939 . S
H262 C278 0.942 . S
H263 C280 0.940 . S
H264 C281 0.939 . S
H265 C283 0.941 . S
H266 C287 0.939 . S
O267 P256 1.490 . S
H268 C284 0.939 . S
H269 C286 0.940 . S
C270 P256 1.812 . S
C270 C271 1.389 . S
C270 C275 1.391 . S
C271 H257 0.941 . S
C271 C270 1.389 . S
C271 C272 1.397 . S
C272 H258 0.939 . S
C272 C271 1.397 . S
C272 C273 1.378 . S
C273 C272 1.378 . S
C273 C274 1.378 . S
C274 H259 0.940 . S
C274 C273 1.378 . S
C274 C275 1.396 . S
C275 H260 0.940 . S
C275 C270 1.391 . S
C275 C274 1.396 . S
C276 P256 1.803 . S
C276 C277 1.378 . S
C276 C281 1.400 . S
C277 H261 0.939 . S
C277 C276 1.378 . S
C277 C278 1.361 . S
C278 H262 0.942 . S
C278 C277 1.361 . S
C278 C279 1.369 . S
C279 C278 1.369 . S
C279 C280 1.404 . S
C280 H263 0.940 . S
C280 C279 1.404 . S
C280 C281 1.389 . S
C281 H264 0.939 . S
C281 C276 1.400 . S
C281 C280 1.389 . S
C282 P256 1.819 . S
C282 C283 1.391 . S
C282 C287 1.391 . S
C283 H265 0.941 . S
C283 C282 1.391 . S
C283 C284 1.396 . S
C284 H268 0.939 . S
C284 C283 1.396 . S
C284 C285 1.397 . S
C285 C284 1.397 . S
C285 C286 1.385 . S
C286 H269 0.940 . S
C286 C285 1.385 . S
C286 C287 1.388 . S
C287 H266 0.939 . S
C287 C282 1.391 . S
C287 C286 1.388 . S
P288 O299 1.490 . S
P288 C302 1.812 . S
P288 C308 1.803 . S
P288 C314 1.819 . S
H289 C303 0.941 . S
H290 C304 0.939 . S
H291 C306 0.940 . S
H292 C307 0.940 . S
H293 C309 0.939 . S
H294 C310 0.942 . S
H295 C312 0.940 . S
H296 C313 0.939 . S
H297 C315 0.941 . S
H298 C319 0.939 . S
O299 P288 1.490 . S
H300 C316 0.939 . S
H301 C318 0.940 . S
C302 P288 1.812 . S
C302 C303 1.389 . S
C302 C307 1.391 . S
C303 H289 0.941 . S
C303 C302 1.389 . S
C303 C304 1.397 . S
C304 H290 0.939 . S
C304 C303 1.397 . S
C304 C305 1.378 . S
C305 C304 1.378 . S
C305 C306 1.378 . S
C306 H291 0.940 . S
C306 C305 1.378 . S
C306 C307 1.396 . S
C307 H292 0.940 . S
C307 C302 1.391 . S
C307 C306 1.396 . S
C308 P288 1.803 . S
C308 C309 1.378 1_565 S
C308 C313 1.400 . S
C309 H293 0.939 . S
C309 C308 1.378 1_545 S
C309 C310 1.361 . S
C310 H294 0.942 . S
C310 C309 1.361 . S
C310 C311 1.369 . S
C311 C310 1.369 . S
C311 C312 1.404 1_545 S
C312 H295 0.940 . S
C312 C311 1.404 1_565 S
C312 C313 1.389 . S
C313 H296 0.939 . S
C313 C308 1.400 . S
C313 C312 1.389 . S
C314 P288 1.819 . S
C314 C315 1.391 . S
C314 C319 1.391 . S
C315 H297 0.941 . S
C315 C314 1.391 . S
C315 C316 1.396 . S
C316 H300 0.939 . S
C316 C315 1.396 . S
C316 C317 1.397 . S
C317 C316 1.397 . S
C317 C318 1.385 . S
C318 H301 0.940 . S
C318 C317 1.385 . S
C318 C319 1.388 . S
C319 H298 0.939 . S
C319 C314 1.391 . S
C319 C318 1.388 . S
P320 O331 1.490 . S
P320 C334 1.812 . S
P320 C340 1.803 . S
P320 C346 1.819 . S
H321 C335 0.941 . S
H322 C336 0.939 . S
H323 C338 0.940 . S
H324 C339 0.940 . S
H325 C341 0.939 . S
H326 C342 0.942 . S
H327 C344 0.940 . S
H328 C345 0.939 . S
H329 C347 0.941 . S
H330 C351 0.939 . S
O331 P320 1.490 . S
H332 C348 0.939 . S
H333 C350 0.940 . S
C334 P320 1.812 . S
C334 C335 1.389 . S
C334 C339 1.391 . S
C335 H321 0.941 . S
C335 C334 1.389 . S
C335 C336 1.397 . S
C336 H322 0.939 . S
C336 C335 1.397 . S
C336 C337 1.378 . S
C337 C336 1.378 . S
C337 C338 1.378 . S
C338 H323 0.940 . S
C338 C337 1.378 . S
C338 C339 1.396 . S
C339 H324 0.940 . S
C339 C334 1.391 . S
C339 C338 1.396 . S
C340 P320 1.803 . S
C340 C341 1.378 . S
C340 C345 1.400 . S
C341 H325 0.939 . S
C341 C340 1.378 . S
C341 C342 1.361 . S
C342 H326 0.942 . S
C342 C341 1.361 . S
C342 C343 1.369 . S
C343 C342 1.369 . S
C343 C344 1.404 . S
C344 H327 0.940 . S
C344 C343 1.404 . S
C344 C345 1.389 . S
C345 H328 0.939 . S
C345 C340 1.400 . S
C345 C344 1.389 . S
C346 P320 1.819 . S
C346 C347 1.391 . S
C346 C351 1.391 . S
C347 H329 0.941 . S
C347 C346 1.391 . S
C347 C348 1.396 . S
C348 H332 0.939 . S
C348 C347 1.396 . S
C348 C349 1.397 . S
C349 C348 1.397 . S
C349 C350 1.385 . S
C350 H333 0.940 . S
C350 C349 1.385 . S
C350 C351 1.388 . S
C351 H330 0.939 . S
C351 C346 1.391 . S
C351 C350 1.388 . S
P352 O363 1.490 . S
P352 C366 1.812 . S
P352 C372 1.803 . S
P352 C378 1.819 . S
H353 C367 0.941 . S
H354 C368 0.939 . S
H355 C370 0.940 . S
H356 C371 0.940 . S
H357 C373 0.939 . S
H358 C374 0.942 . S
H359 C376 0.940 . S
H360 C377 0.939 . S
H361 C379 0.941 . S
H362 C383 0.939 . S
O363 P352 1.490 . S
H364 C380 0.939 . S
H365 C382 0.940 . S
C366 P352 1.812 . S
C366 C367 1.389 . S
C366 C371 1.391 . S
C367 H353 0.941 . S
C367 C366 1.389 . S
C367 C368 1.397 . S
C368 H354 0.939 . S
C368 C367 1.397 . S
C368 C369 1.378 . S
C369 C368 1.378 . S
C369 C370 1.378 . S
C370 H355 0.940 . S
C370 C369 1.378 . S
C370 C371 1.396 . S
C371 H356 0.940 . S
C371 C366 1.391 . S
C371 C370 1.396 . S
C372 P352 1.803 . S
C372 C373 1.378 . S
C372 C377 1.400 . S
C373 H357 0.939 . S
C373 C372 1.378 . S
C373 C374 1.361 . S
C374 H358 0.942 . S
C374 C373 1.361 . S
C374 C375 1.369 . S
C375 C374 1.369 . S
C375 C376 1.404 . S
C376 H359 0.940 . S
C376 C375 1.404 . S
C376 C377 1.389 . S
C377 H360 0.939 . S
C377 C372 1.400 . S
C377 C376 1.389 . S
C378 P352 1.819 . S
C378 C379 1.391 . S
C378 C383 1.391 . S
C379 H361 0.941 . S
C379 C378 1.391 . S
C379 C380 1.396 . S
C380 H364 0.939 . S
C380 C379 1.396 . S
C380 C381 1.397 . S
C381 C380 1.397 . S
C381 C382 1.385 . S
C382 H365 0.940 . S
C382 C381 1.385 . S
C382 C383 1.388 . S
C383 H362 0.939 . S
C383 C378 1.391 . S
C383 C382 1.388 . S
P384 O395 1.490 . S
P384 C398 1.812 . S
P384 C404 1.803 . S
P384 C410 1.819 . S
H385 C399 0.941 . S
H386 C400 0.939 . S
H387 C402 0.940 . S
H388 C403 0.940 . S
H389 C405 0.939 . S
H390 C406 0.942 . S
H391 C408 0.940 . S
H392 C409 0.939 . S
H393 C411 0.941 . S
H394 C415 0.939 . S
O395 P384 1.490 . S
H396 C412 0.939 . S
H397 C414 0.940 . S
C398 P384 1.812 . S
C398 C399 1.389 . S
C398 C403 1.391 . S
C399 H385 0.941 . S
C399 C398 1.389 . S
C399 C400 1.397 . S
C400 H386 0.939 . S
C400 C399 1.397 . S
C400 C401 1.378 . S
C401 C400 1.378 . S
C401 C402 1.378 . S
C402 H387 0.940 . S
C402 C401 1.378 . S
C402 C403 1.396 . S
C403 H388 0.940 . S
C403 C398 1.391 . S
C403 C402 1.396 . S
C404 P384 1.803 . S
C404 C405 1.378 . S
C404 C409 1.400 . S
C405 H389 0.939 . S
C405 C404 1.378 . S
C405 C406 1.361 . S
C406 H390 0.942 . S
C406 C405 1.361 . S
C406 C407 1.369 . S
C407 C406 1.369 . S
C407 C408 1.404 . S
C408 H391 0.940 . S
C408 C407 1.404 . S
C408 C409 1.389 . S
C409 H392 0.939 . S
C409 C404 1.400 . S
C409 C408 1.389 . S
C410 P384 1.819 . S
C410 C411 1.391 . S
C410 C415 1.391 . S
C411 H393 0.941 . S
C411 C410 1.391 . S
C411 C412 1.396 . S
C412 H396 0.939 . S
C412 C411 1.396 . S
C412 C413 1.397 . S
C413 C412 1.397 . S
C413 C414 1.385 . S
C414 H397 0.940 . S
C414 C413 1.385 . S
C414 C415 1.388 . S
C415 H394 0.939 . S
C415 C410 1.391 . S
C415 C414 1.388 . S
P416 O427 1.490 . S
P416 C430 1.812 . S
P416 C436 1.803 . S
P416 C442 1.819 . S
H417 C431 0.941 . S
H418 C432 0.939 . S
H419 C434 0.940 . S
H420 C435 0.940 . S
H421 C437 0.939 . S
H422 C438 0.942 . S
H423 C440 0.940 . S
H424 C441 0.939 . S
H425 C443 0.941 . S
H426 C447 0.939 . S
O427 P416 1.490 . S
H428 C444 0.939 . S
H429 C446 0.940 . S
C430 P416 1.812 . S
C430 C431 1.389 . S
C430 C435 1.391 . S
C431 H417 0.941 . S
C431 C430 1.389 . S
C431 C432 1.397 . S
C432 H418 0.939 . S
C432 C431 1.397 . S
C432 C433 1.378 . S
C433 C432 1.378 . S
C433 C434 1.378 . S
C434 H419 0.940 . S
C434 C433 1.378 . S
C434 C435 1.396 . S
C435 H420 0.940 . S
C435 C430 1.391 . S
C435 C434 1.396 . S
C436 P416 1.803 . S
C436 C437 1.378 . S
C436 C441 1.400 . S
C437 H421 0.939 . S
C437 C436 1.378 . S
C437 C438 1.361 . S
C438 H422 0.942 . S
C438 C437 1.361 . S
C438 C439 1.369 1_556 S
C439 C438 1.369 1_554 S
C439 C440 1.404 . S
C440 H423 0.940 . S
C440 C439 1.404 . S
C440 C441 1.389 1_554 S
C441 H424 0.939 . S
C441 C436 1.400 . S
C441 C440 1.389 1_556 S
C442 P416 1.819 . S
C442 C443 1.391 . S
C442 C447 1.391 . S
C443 H425 0.941 . S
C443 C442 1.391 . S
C443 C444 1.396 . S
C444 H428 0.939 . S
C444 C443 1.396 . S
C444 C445 1.397 . S
C445 C444 1.397 . S
C445 C446 1.385 . S
C446 H429 0.940 . S
C446 C445 1.385 . S
C446 C447 1.388 . S
C447 H426 0.939 . S
C447 C442 1.391 . S
C447 C446 1.388 . S
P448 O459 1.490 . S
P448 C462 1.812 . S
P448 C468 1.803 . S
P448 C474 1.819 . S
H449 C463 0.941 . S
H450 C464 0.939 . S
H451 C466 0.940 . S
H452 C467 0.940 . S
H453 C469 0.939 . S
H454 C470 0.942 . S
H455 C472 0.940 . S
H456 C473 0.939 . S
H457 C475 0.941 . S
H458 C479 0.939 . S
O459 P448 1.490 . S
H460 C476 0.939 . S
H461 C478 0.940 . S
C462 P448 1.812 . S
C462 C463 1.389 . S
C462 C467 1.391 . S
C463 H449 0.941 . S
C463 C462 1.389 . S
C463 C464 1.397 . S
C464 H450 0.939 . S
C464 C463 1.397 . S
C464 C465 1.378 . S
C465 C464 1.378 . S
C465 C466 1.378 . S
C466 H451 0.940 . S
C466 C465 1.378 . S
C466 C467 1.396 . S
C467 H452 0.940 . S
C467 C462 1.391 . S
C467 C466 1.396 . S
C468 P448 1.803 . S
C468 C469 1.378 . S
C468 C473 1.400 . S
C469 H453 0.939 . S
C469 C468 1.378 . S
C469 C470 1.361 . S
C470 H454 0.942 . S
C470 C469 1.361 . S
C470 C471 1.369 . S
C471 C470 1.369 . S
C471 C472 1.404 . S
C472 H455 0.940 . S
C472 C471 1.404 . S
C472 C473 1.389 . S
C473 H456 0.939 . S
C473 C468 1.400 . S
C473 C472 1.389 . S
C474 P448 1.819 . S
C474 C475 1.391 . S
C474 C479 1.391 . S
C475 H457 0.941 . S
C475 C474 1.391 . S
C475 C476 1.396 . S
C476 H460 0.939 . S
C476 C475 1.396 . S
C476 C477 1.397 . S
C477 C476 1.397 . S
C477 C478 1.385 . S
C478 H461 0.940 . S
C478 C477 1.385 . S
C478 C479 1.388 . S
C479 H458 0.939 . S
C479 C474 1.391 . S
C479 C478 1.388 . S
P480 O491 1.490 . S
P480 C494 1.812 . S
P480 C500 1.803 . S
P480 C506 1.819 . S
H481 C495 0.941 . S
H482 C496 0.939 . S
H483 C498 0.940 . S
H484 C499 0.940 . S
H485 C501 0.939 . S
H486 C502 0.942 . S
H487 C504 0.940 . S
H488 C505 0.939 . S
H489 C507 0.941 1_565 S
H490 C511 0.939 . S
O491 P480 1.490 . S
H492 C508 0.939 . S
H493 C510 0.940 . S
C494 P480 1.812 . S
C494 C495 1.389 . S
C494 C499 1.391 . S
C495 H481 0.941 . S
C495 C494 1.389 . S
C495 C496 1.397 . S
C496 H482 0.939 . S
C496 C495 1.397 . S
C496 C497 1.378 . S
C497 C496 1.378 . S
C497 C498 1.378 . S
C498 H483 0.940 . S
C498 C497 1.378 . S
C498 C499 1.396 . S
C499 H484 0.940 . S
C499 C494 1.391 . S
C499 C498 1.396 . S
C500 P480 1.803 . S
C500 C501 1.378 1_556 S
C500 C505 1.400 . S
C501 H485 0.939 . S
C501 C500 1.378 1_554 S
C501 C502 1.361 . S
C502 H486 0.942 . S
C502 C501 1.361 . S
C502 C503 1.355 1_554 S
C503 C502 1.355 1_556 S
C503 C504 1.428 . S
C504 H487 0.940 . S
C504 C503 1.428 . S
C504 C505 1.389 . S
C505 H488 0.939 . S
C505 C500 1.400 . S
C505 C504 1.389 . S
C506 P480 1.819 . S
C506 C507 1.391 . S
C506 C511 1.391 . S
C507 H489 0.941 1_545 S
C507 C506 1.391 . S
C507 C508 1.396 1_545 S
C508 H492 0.939 . S
C508 C507 1.396 1_565 S
C508 C509 1.397 1_565 S
C509 C508 1.397 1_545 S
C509 C510 1.385 . S
C510 H493 0.940 . S
C510 C509 1.385 . S
C510 C511 1.388 . S
C511 H490 0.939 . S
C511 C506 1.391 . S
C511 C510 1.388 . S
Zn512 O515 2.041 . S
Zn512 O517 2.043 1_554 S
Zn512 O522 2.054 1_554 S
Zn513 O514 1.962 . S
Zn513 O516 1.986 . S
Zn513 O518 1.996 . S
Zn513 O521 1.943 1_554 S
O514 Zn513 1.962 . S
O514 C519 1.254 . S
O515 Zn512 2.041 . S
O515 C519 1.269 . S
O516 Zn513 1.986 . S
O516 C523 1.262 . S
O517 Zn512 2.043 1_556 S
O517 C525 1.260 . S
O518 Zn513 1.996 . S
O518 C525 1.257 1_554 S
C519 O514 1.254 . S
C519 O515 1.269 . S
C520 O521 1.249 . S
C520 O522 1.270 . S
O521 Zn513 1.943 1_556 S
O521 C520 1.249 . S
O522 Zn512 2.054 1_556 S
O522 C520 1.270 . S
C523 O516 1.262 . S
C523 O524 1.232 . S
O524 C523 1.232 . S
C525 O517 1.260 . S
C525 O518 1.257 1_556 S
Zn526 O529 2.031 . S
Zn526 O531 2.049 . S
Zn526 O536 2.067 . S
Zn527 O528 1.962 . S
Zn527 O530 1.986 . S
Zn527 O532 1.996 . S
Zn527 O535 1.943 . S
O528 Zn527 1.962 . S
O528 C533 1.254 . S
O529 Zn526 2.031 . S
O529 C533 1.269 . S
O530 Zn527 1.986 . S
O530 C537 1.262 . S
O531 Zn526 2.049 . S
O531 C539 1.260 . S
O532 Zn527 1.996 . S
O532 C539 1.257 . S
C533 O528 1.254 . S
C533 O529 1.269 . S
C534 O535 1.249 . S
C534 O536 1.270 . S
O535 Zn527 1.943 . S
O535 C534 1.249 . S
O536 Zn526 2.067 . S
O536 C534 1.270 . S
C537 O530 1.262 . S
C537 O538 1.232 . S
O538 C537 1.232 . S
C539 O531 1.260 . S
C539 O532 1.257 . S
Zn540 O543 2.031 . S
Zn540 O545 2.049 . S
Zn540 O550 2.067 . S
Zn541 O542 1.962 . S
Zn541 O544 1.986 . S
Zn541 O546 1.996 1_554 S
Zn541 O549 1.943 . S
O542 Zn541 1.962 . S
O542 C547 1.254 . S
O543 Zn540 2.031 . S
O543 C547 1.269 1_556 S
O544 Zn541 1.986 . S
O544 C551 1.262 . S
O545 Zn540 2.049 . S
O545 C553 1.260 . S
O546 Zn541 1.996 1_556 S
O546 C553 1.257 . S
C547 O542 1.254 . S
C547 O543 1.269 1_554 S
C548 O549 1.249 1_556 S
C548 O550 1.270 . S
O549 Zn541 1.943 . S
O549 C548 1.249 1_554 S
O550 Zn540 2.067 . S
O550 C548 1.270 . S
C551 O544 1.262 . S
C551 O552 1.232 . S
O552 C551 1.232 . S
C553 O545 1.260 . S
C553 O546 1.257 . S
Zn554 O557 2.042 . S
Zn554 O559 2.042 1_545 S
Zn554 O564 2.053 1_545 S
Zn555 O556 1.962 . S
Zn555 O558 1.986 . S
Zn555 O560 1.996 . S
Zn555 O563 1.943 1_545 S
O556 Zn555 1.962 . S
O556 C561 1.254 . S
O557 Zn554 2.042 . S
O557 C561 1.269 . S
O558 Zn555 1.986 . S
O558 C565 1.262 . S
O559 Zn554 2.042 1_565 S
O559 C567 1.260 . S
O560 Zn555 1.996 . S
O560 C567 1.257 1_545 S
C561 O556 1.254 . S
C561 O557 1.269 . S
C562 O563 1.249 . S
C562 O564 1.270 . S
O563 Zn555 1.943 1_565 S
O563 C562 1.249 . S
O564 Zn554 2.053 1_565 S
O564 C562 1.270 . S
C565 O558 1.262 . S
C565 O566 1.232 . S
O566 C565 1.232 . S
C567 O559 1.260 . S
C567 O560 1.257 1_565 S
Zn568 O571 2.031 . S
Zn568 O573 2.049 . S
Zn568 O578 2.067 . S
Zn569 O570 1.962 . S
Zn569 O572 1.986 . S
Zn569 O574 1.996 . S
Zn569 O577 1.943 . S
O570 Zn569 1.962 . S
O570 C575 1.254 . S
O571 Zn568 2.031 . S
O571 C575 1.269 . S
O572 Zn569 1.986 . S
O572 C579 1.262 . S
O573 Zn568 2.049 . S
O573 C581 1.260 . S
O574 Zn569 1.996 . S
O574 C581 1.257 . S
C575 O570 1.254 . S
C575 O571 1.269 . S
C576 O577 1.249 . S
C576 O578 1.270 . S
O577 Zn569 1.943 . S
O577 C576 1.249 . S
O578 Zn568 2.067 . S
O578 C576 1.270 . S
C579 O572 1.262 . S
C579 O580 1.232 . S
O580 C579 1.232 . S
C581 O573 1.260 . S
C581 O574 1.257 . S
Zn582 O585 2.031 . S
Zn582 O587 2.049 . S
Zn582 O592 2.067 . S
Zn583 O584 1.962 . S
Zn583 O586 1.986 . S
Zn583 O588 1.996 . S
Zn583 O591 1.943 . S
O584 Zn583 1.962 . S
O584 C589 1.254 . S
O585 Zn582 2.031 . S
O585 C589 1.269 . S
O586 Zn583 1.986 . S
O586 C593 1.262 . S
O587 Zn582 2.049 . S
O587 C595 1.260 . S
O588 Zn583 1.996 . S
O588 C595 1.257 . S
C589 O584 1.254 . S
C589 O585 1.269 . S
C590 O591 1.249 . S
C590 O592 1.270 . S
O591 Zn583 1.943 . S
O591 C590 1.249 . S
O592 Zn582 2.067 . S
O592 C590 1.270 . S
C593 O586 1.262 . S
C593 O594 1.232 . S
O594 C593 1.232 . S
C595 O587 1.260 . S
C595 O588 1.257 . S
Zn596 O599 2.031 . S
Zn596 O601 2.049 . S
Zn596 O606 2.067 . S
Zn597 O598 1.962 . S
Zn597 O600 1.986 . S
Zn597 O602 1.996 . S
Zn597 O605 1.943 . S
O598 Zn597 1.962 . S
O598 C603 1.254 . S
O599 Zn596 2.031 . S
O599 C603 1.269 . S
O600 Zn597 1.986 . S
O600 C607 1.262 . S
O601 Zn596 2.049 . S
O601 C609 1.260 . S
O602 Zn597 1.996 . S
O602 C609 1.257 . S
C603 O598 1.254 . S
C603 O599 1.269 . S
C604 O605 1.249 . S
C604 O606 1.270 . S
O605 Zn597 1.943 . S
O605 C604 1.249 . S
O606 Zn596 2.067 . S
O606 C604 1.270 . S
C607 O600 1.262 . S
C607 O608 1.232 . S
O608 C607 1.232 . S
C609 O601 1.260 . S
C609 O602 1.257 . S
Zn610 O613 2.031 . S
Zn610 O615 2.049 . S
Zn610 O620 2.067 . S
Zn611 O612 1.962 . S
Zn611 O614 1.986 . S
Zn611 O616 1.996 1_545 S
Zn611 O619 1.943 . S
O612 Zn611 1.962 . S
O612 C617 1.254 . S
O613 Zn610 2.031 . S
O613 C617 1.269 1_565 S
O614 Zn611 1.986 . S
O614 C621 1.262 . S
O615 Zn610 2.049 . S
O615 C623 1.260 . S
O616 Zn611 1.996 1_565 S
O616 C623 1.257 . S
C617 O612 1.254 . S
C617 O613 1.269 1_545 S
C618 O619 1.249 1_565 S
C618 O620 1.270 . S
O619 Zn611 1.943 . S
O619 C618 1.249 1_545 S
O620 Zn610 2.067 . S
O620 C618 1.270 . S
C621 O614 1.262 . S
C621 O622 1.232 . S
O622 C621 1.232 . S
C623 O615 1.260 . S
C623 O616 1.257 . S
Zn624 O627 2.031 . S
Zn624 O629 2.049 1_455 S
Zn624 O634 2.067 1_455 S
Zn625 O626 1.962 . S
Zn625 O628 1.986 . S
Zn625 O630 1.996 . S
Zn625 O633 1.943 1_455 S
O626 Zn625 1.962 . S
O626 C631 1.254 . S
O627 Zn624 2.031 . S
O627 C631 1.269 . S
O628 Zn625 1.986 . S
O628 C635 1.262 . S
O629 Zn624 2.049 1_655 S
O629 C637 1.260 . S
O630 Zn625 1.996 . S
O630 C637 1.257 1_455 S
C631 O626 1.254 . S
C631 O627 1.269 . S
C632 O633 1.249 . S
C632 O634 1.270 . S
O633 Zn625 1.943 1_655 S
O633 C632 1.249 . S
O634 Zn624 2.067 1_655 S
O634 C632 1.270 . S
C635 O628 1.262 . S
C635 O636 1.232 . S
O636 C635 1.232 . S
C637 O629 1.260 . S
C637 O630 1.257 1_655 S
Zn638 O641 2.031 . S
Zn638 O643 2.049 . S
Zn638 O648 2.067 . S
Zn639 O640 1.962 . S
Zn639 O642 1.986 . S
Zn639 O644 1.996 . S
Zn639 O647 1.943 . S
O640 Zn639 1.962 . S
O640 C645 1.254 . S
O641 Zn638 2.031 . S
O641 C645 1.269 . S
O642 Zn639 1.986 . S
O642 C649 1.262 . S
O643 Zn638 2.049 . S
O643 C651 1.260 . S
O644 Zn639 1.996 . S
O644 C651 1.257 . S
C645 O640 1.254 . S
C645 O641 1.269 . S
C646 O647 1.249 . S
C646 O648 1.270 . S
O647 Zn639 1.943 . S
O647 C646 1.249 . S
O648 Zn638 2.067 . S
O648 C646 1.270 . S
C649 O642 1.262 . S
C649 O650 1.232 . S
O650 C649 1.232 . S
C651 O643 1.260 . S
C651 O644 1.257 . S
Zn652 O655 2.031 . S
Zn652 O657 2.049 . S
Zn652 O662 2.067 . S
Zn653 O654 1.962 . S
Zn653 O656 1.986 . S
Zn653 O658 1.996 1_455 S
Zn653 O661 1.943 . S
O654 Zn653 1.962 . S
O654 C659 1.254 . S
O655 Zn652 2.031 . S
O655 C659 1.269 1_655 S
O656 Zn653 1.986 . S
O656 C663 1.262 . S
O657 Zn652 2.049 . S
O657 C665 1.260 . S
O658 Zn653 1.996 1_655 S
O658 C665 1.257 . S
C659 O654 1.254 . S
C659 O655 1.269 1_455 S
C660 O661 1.249 1_655 S
C660 O662 1.270 . S
O661 Zn653 1.943 . S
O661 C660 1.249 1_455 S
O662 Zn652 2.067 . S
O662 C660 1.270 . S
C663 O656 1.262 . S
C663 O664 1.232 . S
O664 C663 1.232 . S
C665 O657 1.260 . S
C665 O658 1.257 . S
Zn666 O669 2.031 . S
Zn666 O671 2.049 . S
Zn666 O676 2.067 . S
Zn667 O668 1.962 . S
Zn667 O670 1.986 . S
Zn667 O672 1.996 . S
Zn667 O675 1.943 . S
O668 Zn667 1.962 . S
O668 C673 1.254 . S
O669 Zn666 2.031 . S
O669 C673 1.269 . S
O670 Zn667 1.986 . S
O670 C677 1.262 . S
O671 Zn666 2.049 . S
O671 C679 1.260 . S
O672 Zn667 1.996 . S
O672 C679 1.257 . S
C673 O668 1.254 . S
C673 O669 1.269 . S
C674 O675 1.249 . S
C674 O676 1.270 . S
O675 Zn667 1.943 . S
O675 C674 1.249 . S
O676 Zn666 2.067 . S
O676 C674 1.270 . S
C677 O670 1.262 . S
C677 O678 1.232 . S
O678 C677 1.232 . S
C679 O671 1.260 . S
C679 O672 1.257 . S
H680 C686 0.930 . S
H681 C690 0.930 . S
H682 C695 0.929 . S
H683 C693 0.929 . S
H684 C688 0.929 . S
H685 C694 0.929 . S
C686 H680 0.930 . S
C686 C687 1.367 . S
C686 C694 1.378 . S
C687 C686 1.367 . S
C687 C695 1.433 . S
C688 H684 0.929 . S
C688 C690 1.378 . S
C688 C692 1.350 . S
C689 C692 1.463 . S
C689 C694 1.350 . S
C689 N697 1.427 . S
C690 H681 0.930 . S
C690 C688 1.378 . S
C690 C691 1.367 . S
C691 C690 1.367 . S
C691 C693 1.433 . S
C692 C688 1.350 . S
C692 C689 1.463 . S
C692 N696 1.427 . S
C693 H683 0.929 . S
C693 C691 1.433 . S
C693 N696 1.384 . S
C694 H685 0.929 . S
C694 C686 1.378 . S
C694 C689 1.350 . S
C695 H682 0.929 . S
C695 C687 1.433 . S
C695 N697 1.384 . S
N696 C692 1.427 . S
N696 C693 1.384 . S
N697 C689 1.427 . S
N697 C695 1.384 . S
H698 C704 0.930 . S
H699 C708 0.930 . S
H700 C713 0.929 1_655 S
H701 C711 0.929 . S
H702 C706 0.929 . S
H703 C712 0.929 . S
C704 H698 0.930 . S
C704 C705 1.367 . S
C704 C712 1.378 . S
C705 C704 1.367 . S
C705 C713 1.433 . S
C706 H702 0.929 . S
C706 C708 1.378 . S
C706 C710 1.350 . S
C707 C710 1.463 . S
C707 C712 1.350 . S
C707 N715 1.427 . S
C708 H699 0.930 . S
C708 C706 1.378 . S
C708 C709 1.367 . S
C709 C708 1.367 . S
C709 C711 1.433 . S
C710 C706 1.350 . S
C710 C707 1.463 . S
C710 N714 1.427 . S
C711 H701 0.929 . S
C711 C709 1.433 . S
C711 N714 1.384 . S
C712 H703 0.929 . S
C712 C704 1.378 . S
C712 C707 1.350 . S
C713 H700 0.929 1_455 S
C713 C705 1.433 . S
C713 N715 1.384 . S
N714 C710 1.427 . S
N714 C711 1.384 . S
N715 C707 1.427 . S
N715 C713 1.384 . S
H716 C722 0.930 . S
H717 C726 0.930 . S
H718 C731 0.929 . S
H719 C729 0.929 . S
H720 C724 0.929 . S
H721 C730 0.929 . S
C722 H716 0.930 . S
C722 C723 1.367 . S
C722 C730 1.378 . S
C723 C722 1.367 . S
C723 C731 1.433 . S
C724 H720 0.929 . S
C724 C726 1.378 . S
C724 C728 1.350 . S
C725 C728 1.463 . S
C725 C730 1.350 . S
C725 N733 1.427 . S
C726 H717 0.930 . S
C726 C724 1.378 . S
C726 C727 1.367 . S
C727 C726 1.367 . S
C727 C729 1.433 . S
C728 C724 1.350 . S
C728 C725 1.463 . S
C728 N732 1.427 . S
C729 H719 0.929 . S
C729 C727 1.433 . S
C729 N732 1.384 . S
C730 H721 0.929 . S
C730 C722 1.378 . S
C730 C725 1.350 . S
C731 H718 0.929 . S
C731 C723 1.433 . S
C731 N733 1.384 . S
N732 C728 1.427 . S
N732 C729 1.384 . S
N733 C725 1.427 . S
N733 C731 1.384 . S
H734 C740 0.930 . S
H735 C744 0.930 . S
H736 C749 0.929 . S
H737 C747 0.929 . S
H738 C742 0.929 . S
H739 C748 0.929 . S
C740 H734 0.930 . S
C740 C741 1.367 . S
C740 C748 1.378 . S
C741 C740 1.367 . S
C741 C749 1.433 1_655 S
C742 H738 0.929 . S
C742 C744 1.378 . S
C742 C746 1.350 . S
C743 C746 1.463 . S
C743 C748 1.350 . S
C743 N751 1.427 . S
C744 H735 0.930 . S
C744 C742 1.378 . S
C744 C745 1.367 . S
C745 C744 1.367 . S
C745 C747 1.433 . S
C746 C742 1.350 . S
C746 C743 1.463 . S
C746 N750 1.427 . S
C747 H737 0.929 . S
C747 C745 1.433 . S
C747 N750 1.384 . S
C748 H739 0.929 . S
C748 C740 1.378 . S
C748 C743 1.350 . S
C749 H736 0.929 . S
C749 C741 1.433 1_455 S
C749 N751 1.384 1_455 S
N750 C746 1.427 . S
N750 C747 1.384 . S
N751 C743 1.427 . S
N751 C749 1.384 1_655 S
H752 C758 0.930 . S
H753 C762 0.930 . S
H754 C767 0.929 . S
H755 C765 0.929 . S
H756 C760 0.929 . S
H757 C766 0.929 . S
C758 H752 0.930 . S
C758 C759 1.367 . S
C758 C766 1.378 . S
C759 C758 1.367 . S
C759 C767 1.433 . S
C760 H756 0.929 . S
C760 C762 1.378 . S
C760 C764 1.350 . S
C761 C764 1.463 . S
C761 C766 1.350 . S
C761 N769 1.427 . S
C762 H753 0.930 . S
C762 C760 1.378 . S
C762 C763 1.367 . S
C763 C762 1.367 . S
C763 C765 1.433 . S
C764 C760 1.350 . S
C764 C761 1.463 . S
C764 N768 1.427 . S
C765 H755 0.929 . S
C765 C763 1.433 . S
C765 N768 1.384 . S
C766 H757 0.929 . S
C766 C758 1.378 . S
C766 C761 1.350 . S
C767 H754 0.929 . S
C767 C759 1.433 . S
C767 N769 1.384 . S
N768 C764 1.427 . S
N768 C765 1.384 . S
N769 C761 1.427 . S
N769 C767 1.384 . S
H770 C776 0.930 . S
H771 C780 0.930 . S
H772 C785 0.929 . S
H773 C783 0.929 . S
H774 C778 0.929 . S
H775 C784 0.929 . S
C776 H770 0.930 . S
C776 C777 1.367 . S
C776 C784 1.378 . S
C777 C776 1.367 . S
C777 C785 1.433 . S
C778 H774 0.929 . S
C778 C780 1.378 . S
C778 C782 1.350 . S
C779 C782 1.463 . S
C779 C784 1.350 . S
C779 N787 1.427 . S
C780 H771 0.930 . S
C780 C778 1.378 . S
C780 C781 1.367 . S
C781 C780 1.367 . S
C781 C783 1.433 . S
C782 C778 1.350 . S
C782 C779 1.463 . S
C782 N786 1.427 . S
C783 H773 0.929 . S
C783 C781 1.433 . S
C783 N786 1.384 . S
C784 H775 0.929 . S
C784 C776 1.378 . S
C784 C779 1.350 . S
C785 H772 0.929 . S
C785 C777 1.433 . S
C785 N787 1.384 . S
N786 C782 1.427 . S
N786 C783 1.384 . S
N787 C779 1.427 . S
N787 C785 1.384 . S
H788 C794 0.930 . S
H789 C798 0.930 . S
H790 C803 0.929 . S
H791 C801 0.929 . S
H792 C796 0.929 . S
H793 C802 0.929 . S
C794 H788 0.930 . S
C794 C795 1.367 . S
C794 C802 1.378 . S
C795 C794 1.367 . S
C795 C803 1.433 . S
C796 H792 0.929 . S
C796 C798 1.378 . S
C796 C800 1.350 . S
C797 C800 1.463 . S
C797 C802 1.350 . S
C797 N805 1.427 . S
C798 H789 0.930 . S
C798 C796 1.378 . S
C798 C799 1.367 . S
C799 C798 1.367 . S
C799 C801 1.433 . S
C800 C796 1.350 . S
C800 C797 1.463 . S
C800 N804 1.427 . S
C801 H791 0.929 . S
C801 C799 1.433 . S
C801 N804 1.384 . S
C802 H793 0.929 . S
C802 C794 1.378 . S
C802 C797 1.350 . S
C803 H790 0.929 . S
C803 C795 1.433 . S
C803 N805 1.384 . S
N804 C800 1.427 . S
N804 C801 1.384 . S
N805 C797 1.427 . S
N805 C803 1.384 . S
H806 C812 0.930 . S
H807 C816 0.930 . S
H808 C821 0.929 1_545 S
H809 C819 0.929 . S
H810 C814 0.929 . S
H811 C820 0.929 . S
C812 H806 0.930 . S
C812 C813 1.367 . S
C812 C820 1.378 . S
C813 C812 1.367 . S
C813 C821 1.433 . S
C814 H810 0.929 . S
C814 C816 1.378 . S
C814 C818 1.350 1_545 S
C815 C818 1.463 . S
C815 C820 1.350 . S
C815 N823 1.427 . S
C816 H807 0.930 . S
C816 C814 1.378 . S
C816 C817 1.367 1_545 S
C817 C816 1.367 1_565 S
C817 C819 1.433 . S
C818 C814 1.350 1_565 S
C818 C815 1.463 . S
C818 N822 1.427 . S
C819 H809 0.929 . S
C819 C817 1.433 . S
C819 N822 1.384 . S
C820 H811 0.929 . S
C820 C812 1.378 . S
C820 C815 1.350 . S
C821 H808 0.929 1_565 S
C821 C813 1.433 . S
C821 N823 1.384 . S
N822 C818 1.427 . S
N822 C819 1.384 . S
N823 C815 1.427 . S
N823 C821 1.384 . S
H824 C830 0.930 . S
H825 C834 0.930 . S
H826 C839 0.929 . S
H827 C837 0.929 . S
H828 C832 0.929 . S
H829 C838 0.929 . S
C830 H824 0.930 . S
C830 C831 1.367 . S
C830 C838 1.378 . S
C831 C830 1.367 . S
C831 C839 1.433 . S
C832 H828 0.929 . S
C832 C834 1.378 . S
C832 C836 1.350 . S
C833 C836 1.463 . S
C833 C838 1.350 . S
C833 N841 1.427 . S
C834 H825 0.930 . S
C834 C832 1.378 . S
C834 C835 1.367 . S
C835 C834 1.367 . S
C835 C837 1.433 . S
C836 C832 1.350 . S
C836 C833 1.463 . S
C836 N840 1.427 . S
C837 H827 0.929 . S
C837 C835 1.433 . S
C837 N840 1.384 . S
C838 H829 0.929 . S
C838 C830 1.378 . S
C838 C833 1.350 . S
C839 H826 0.929 . S
C839 C831 1.433 . S
C839 N841 1.384 . S
N840 C836 1.427 . S
N840 C837 1.384 . S
N841 C833 1.427 . S
N841 C839 1.384 . S
H842 C848 0.930 . S
H843 C852 0.930 . S
H844 C857 0.929 . S
H845 C855 0.929 . S
H846 C850 0.929 . S
H847 C856 0.929 . S
C848 H842 0.930 . S
C848 C849 1.367 . S
C848 C856 1.378 . S
C849 C848 1.367 . S
C849 C857 1.433 . S
C850 H846 0.929 . S
C850 C852 1.378 . S
C850 C854 1.350 . S
C851 C854 1.463 . S
C851 C856 1.350 . S
C851 N859 1.427 . S
C852 H843 0.930 . S
C852 C850 1.378 . S
C852 C853 1.367 . S
C853 C852 1.367 . S
C853 C855 1.433 . S
C854 C850 1.350 . S
C854 C851 1.463 . S
C854 N858 1.427 . S
C855 H845 0.929 . S
C855 C853 1.433 . S
C855 N858 1.384 . S
C856 H847 0.929 . S
C856 C848 1.378 . S
C856 C851 1.350 . S
C857 H844 0.929 . S
C857 C849 1.433 . S
C857 N859 1.384 . S
N858 C854 1.427 . S
N858 C855 1.384 . S
N859 C851 1.427 . S
N859 C857 1.384 . S
H860 C866 0.930 . S
H861 C870 0.930 . S
H862 C875 0.929 . S
H863 C873 0.929 . S
H864 C868 0.929 . S
H865 C874 0.929 . S
C866 H860 0.930 . S
C866 C867 1.367 . S
C866 C874 1.378 . S
C867 C866 1.367 . S
C867 C875 1.433 . S
C868 H864 0.929 . S
C868 C870 1.378 . S
C868 C872 1.350 . S
C869 C872 1.463 . S
C869 C874 1.350 . S
C869 N877 1.427 . S
C870 H861 0.930 . S
C870 C868 1.378 . S
C870 C871 1.367 . S
C871 C870 1.367 . S
C871 C873 1.433 . S
C872 C868 1.350 . S
C872 C869 1.463 . S
C872 N876 1.427 . S
C873 H863 0.929 . S
C873 C871 1.433 . S
C873 N876 1.384 . S
C874 H865 0.929 . S
C874 C866 1.378 . S
C874 C869 1.350 . S
C875 H862 0.929 . S
C875 C867 1.433 . S
C875 N877 1.384 . S
N876 C872 1.427 . S
N876 C873 1.384 . S
N877 C869 1.427 . S
N877 C875 1.384 . S
H878 C884 0.930 . S
H879 C888 0.930 . S
H880 C893 0.929 . S
H881 C891 0.929 . S
H882 C886 0.929 . S
H883 C892 0.929 . S
C884 H878 0.930 . S
C884 C885 1.367 . S
C884 C892 1.378 . S
C885 C884 1.367 . S
C885 C893 1.433 . S
C886 H882 0.929 . S
C886 C888 1.378 . S
C886 C890 1.350 . S
C887 C890 1.463 . S
C887 C892 1.350 . S
C887 N895 1.427 . S
C888 H879 0.930 . S
C888 C886 1.378 . S
C888 C889 1.367 . S
C889 C888 1.367 . S
C889 C891 1.433 . S
C890 C886 1.350 . S
C890 C887 1.463 . S
C890 N894 1.427 . S
C891 H881 0.929 . S
C891 C889 1.433 . S
C891 N894 1.384 . S
C892 H883 0.929 . S
C892 C884 1.378 . S
C892 C887 1.350 . S
C893 H880 0.929 . S
C893 C885 1.433 . S
C893 N895 1.384 . S
N894 C890 1.427 . S
N894 C891 1.384 . S
N895 C887 1.427 . S
N895 C893 1.384 . S
H896 C902 0.930 . S
H897 C906 0.930 . S
H898 C911 0.929 . S
H899 C909 0.929 . S
H900 C904 0.929 . S
H901 C910 0.929 . S
C902 H896 0.930 . S
C902 C903 1.367 . S
C902 C910 1.378 . S
C903 C902 1.367 . S
C903 C911 1.433 . S
C904 H900 0.929 . S
C904 C906 1.378 . S
C904 C908 1.350 . S
C905 C908 1.463 . S
C905 C910 1.350 . S
C905 N913 1.427 . S
C906 H897 0.930 . S
C906 C904 1.378 . S
C906 C907 1.367 . S
C907 C906 1.367 . S
C907 C909 1.433 . S
C908 C904 1.350 . S
C908 C905 1.463 . S
C908 N912 1.427 . S
C909 H899 0.929 . S
C909 C907 1.433 . S
C909 N912 1.384 . S
C910 H901 0.929 . S
C910 C902 1.378 . S
C910 C905 1.350 . S
C911 H898 0.929 . S
C911 C903 1.433 . S
C911 N913 1.384 . S
N912 C908 1.427 . S
N912 C909 1.384 . S
N913 C905 1.427 . S
N913 C911 1.384 . S
H914 C920 0.930 . S
H915 C924 0.930 . S
H916 C929 0.929 . S
H917 C927 0.929 1_655 S
H918 C922 0.929 . S
H919 C928 0.929 . S
C920 H914 0.930 . S
C920 C921 1.367 . S
C920 C928 1.378 . S
C921 C920 1.367 . S
C921 C929 1.433 . S
C922 H918 0.929 . S
C922 C924 1.378 . S
C922 C926 1.350 . S
C923 C926 1.463 . S
C923 C928 1.350 . S
C923 N931 1.427 . S
C924 H915 0.930 . S
C924 C922 1.378 . S
C924 C925 1.367 . S
C925 C924 1.367 . S
C925 C927 1.433 . S
C926 C922 1.350 . S
C926 C923 1.463 . S
C926 N930 1.427 . S
C927 H917 0.929 1_455 S
C927 C925 1.433 . S
C927 N930 1.384 . S
C928 H919 0.929 . S
C928 C920 1.378 . S
C928 C923 1.350 . S
C929 H916 0.929 . S
C929 C921 1.433 . S
C929 N931 1.384 . S
N930 C926 1.427 . S
N930 C927 1.384 . S
N931 C923 1.427 . S
N931 C929 1.384 . S
H932 C938 0.930 . S
H933 C942 0.930 . S
H934 C947 0.929 . S
H935 C945 0.929 . S
H936 C940 0.929 . S
H937 C946 0.929 . S
C938 H932 0.930 . S
C938 C939 1.367 . S
C938 C946 1.378 . S
C939 C938 1.367 . S
C939 C947 1.433 . S
C940 H936 0.929 . S
C940 C942 1.378 . S
C940 C944 1.350 . S
C941 C944 1.463 . S
C941 C946 1.350 . S
C941 N949 1.427 . S
C942 H933 0.930 . S
C942 C940 1.378 . S
C942 C943 1.367 . S
C943 C942 1.367 . S
C943 C945 1.433 . S
C944 C940 1.350 . S
C944 C941 1.463 . S
C944 N948 1.427 . S
C945 H935 0.929 . S
C945 C943 1.433 . S
C945 N948 1.384 . S
C946 H937 0.929 . S
C946 C938 1.378 . S
C946 C941 1.350 . S
C947 H934 0.929 . S
C947 C939 1.433 . S
C947 N949 1.384 . S
N948 C944 1.427 . S
N948 C945 1.384 . S
N949 C941 1.427 . S
N949 C947 1.384 . S
H950 C956 0.930 . S
H951 C960 0.930 . S
H952 C965 0.929 . S
H953 C963 0.956 . S
H954 C958 0.929 . S
H955 C964 0.929 . S
C956 H950 0.930 . S
C956 C957 1.367 . S
C956 C964 1.378 . S
C957 C956 1.367 . S
C957 C965 1.433 . S
C958 H954 0.929 . S
C958 C960 1.378 . S
C958 C962 1.350 . S
C959 C962 1.463 . S
C959 C964 1.350 . S
C959 N967 1.427 . S
C960 H951 0.930 . S
C960 C958 1.378 . S
C960 C961 1.367 . S
C961 C960 1.367 . S
C961 C963 1.413 1_655 S
C962 C958 1.350 . S
C962 C959 1.463 . S
C962 N966 1.427 . S
C963 H953 0.956 . S
C963 C961 1.413 1_455 S
C963 N966 1.378 1_455 S
C964 H955 0.929 . S
C964 C956 1.378 . S
C964 C959 1.350 . S
C965 H952 0.929 . S
C965 C957 1.433 . S
C965 N967 1.384 . S
N966 C962 1.427 . S
N966 C963 1.378 1_655 S
N967 C959 1.427 . S
N967 C965 1.384 . S
H968 C974 0.930 . S
H969 C978 0.930 . S
H970 C983 0.929 . S
H971 C981 0.929 . S
H972 C976 0.929 . S
H973 C982 0.929 . S
C974 H968 0.930 . S
C974 C975 1.367 . S
C974 C982 1.378 . S
C975 C974 1.367 . S
C975 C983 1.433 . S
C976 H972 0.929 . S
C976 C978 1.378 . S
C976 C980 1.350 . S
C977 C980 1.463 . S
C977 C982 1.350 . S
C977 N985 1.427 . S
C978 H969 0.930 . S
C978 C976 1.378 . S
C978 C979 1.367 . S
C979 C978 1.367 . S
C979 C981 1.433 . S
C980 C976 1.350 . S
C980 C977 1.463 . S
C980 N984 1.427 . S
C981 H971 0.929 . S
C981 C979 1.433 . S
C981 N984 1.384 . S
C982 H973 0.929 . S
C982 C974 1.378 . S
C982 C977 1.350 . S
C983 H970 0.929 . S
C983 C975 1.433 . S
C983 N985 1.384 . S
N984 C980 1.427 . S
N984 C981 1.384 . S
N985 C977 1.427 . S
N985 C983 1.384 . S
H986 C992 0.930 . S
H987 C996 0.930 . S
H988 C1001 0.929 . S
H989 C999 0.929 . S
H990 C994 0.929 . S
H991 C1000 0.929 . S
C992 H986 0.930 . S
C992 C993 1.367 . S
C992 C1000 1.378 . S
C993 C992 1.367 . S
C993 C1001 1.433 . S
C994 H990 0.929 . S
C994 C996 1.378 . S
C994 C998 1.350 . S
C995 C998 1.463 . S
C995 C1000 1.350 . S
C995 N1003 1.427 . S
C996 H987 0.930 . S
C996 C994 1.378 . S
C996 C997 1.367 . S
C997 C996 1.367 . S
C997 C999 1.433 . S
C998 C994 1.350 . S
C998 C995 1.463 . S
C998 N1002 1.427 . S
C999 H989 0.929 . S
C999 C997 1.433 . S
C999 N1002 1.384 . S
C1000 H991 0.929 . S
C1000 C992 1.378 . S
C1000 C995 1.350 . S
C1001 H988 0.929 . S
C1001 C993 1.433 . S
C1001 N1003 1.384 . S
N1002 C998 1.427 . S
N1002 C999 1.384 . S
N1003 C995 1.427 . S
N1003 C1001 1.384 . S
H1004 C1010 0.930 . S
H1005 C1014 0.950 . S
H1006 C1019 0.972 . S
H1007 C1017 0.929 . S
H1008 C1012 0.929 1_554 S
H1009 C1018 0.929 . S
C1010 H1004 0.930 . S
C1010 C1011 1.367 . S
C1010 C1018 1.378 . S
C1011 C1010 1.367 . S
C1011 C1019 1.423 1_565 S
C1012 H1008 0.929 1_556 S
C1012 C1014 1.372 1_556 S
C1012 C1016 1.350 . S
C1013 C1016 1.463 . S
C1013 C1018 1.350 . S
C1013 N1021 1.427 . S
C1014 H1005 0.950 . S
C1014 C1012 1.372 1_554 S
C1014 C1015 1.353 1_554 S
C1015 C1014 1.353 1_556 S
C1015 C1017 1.433 . S
C1016 C1012 1.350 . S
C1016 C1013 1.463 . S
C1016 N1020 1.427 . S
C1017 H1007 0.929 . S
C1017 C1015 1.433 . S
C1017 N1020 1.384 . S
C1018 H1009 0.929 . S
C1018 C1010 1.378 . S
C1018 C1013 1.350 . S
C1019 H1006 0.972 . S
C1019 C1011 1.423 1_545 S
C1019 N1021 1.351 1_545 S
N1020 C1016 1.427 . S
N1020 C1017 1.384 . S
N1021 C1013 1.427 . S
N1021 C1019 1.351 1_565 S
H1022 C1028 0.930 . S
H1023 C1032 0.930 . S
H1024 C1037 0.929 . S
H1025 C1035 0.929 . S
H1026 C1030 0.929 . S
H1027 C1036 0.929 . S
C1028 H1022 0.930 . S
C1028 C1029 1.367 . S
C1028 C1036 1.378 . S
C1029 C1028 1.367 . S
C1029 C1037 1.433 . S
C1030 H1026 0.929 . S
C1030 C1032 1.378 . S
C1030 C1034 1.350 . S
C1031 C1034 1.463 . S
C1031 C1036 1.350 . S
C1031 N1039 1.427 . S
C1032 H1023 0.930 . S
C1032 C1030 1.378 . S
C1032 C1033 1.367 . S
C1033 C1032 1.367 . S
C1033 C1035 1.433 . S
C1034 C1030 1.350 . S
C1034 C1031 1.463 . S
C1034 N1038 1.427 . S
C1035 H1025 0.929 . S
C1035 C1033 1.433 . S
C1035 N1038 1.384 . S
C1036 H1027 0.929 . S
C1036 C1028 1.378 . S
C1036 C1031 1.350 . S
C1037 H1024 0.929 . S
C1037 C1029 1.433 . S
C1037 N1039 1.384 . S
N1038 C1034 1.427 . S
N1038 C1035 1.384 . S
N1039 C1031 1.427 . S
N1039 C1037 1.384 . S
H1040 C1046 0.930 . S
H1041 C1050 0.930 . S
H1042 C1055 0.929 . S
H1043 C1053 0.929 . S
H1044 C1048 0.929 . S
H1045 C1054 0.929 . S
C1046 H1040 0.930 . S
C1046 C1047 1.367 . S
C1046 C1054 1.378 . S
C1047 C1046 1.367 . S
C1047 C1055 1.433 . S
C1048 H1044 0.929 . S
C1048 C1050 1.378 . S
C1048 C1052 1.350 . S
C1049 C1052 1.463 . S
C1049 C1054 1.350 . S
C1049 N1057 1.427 . S
C1050 H1041 0.930 . S
C1050 C1048 1.378 . S
C1050 C1051 1.367 . S
C1051 C1050 1.367 . S
C1051 C1053 1.433 . S
C1052 C1048 1.350 . S
C1052 C1049 1.463 . S
C1052 N1056 1.427 . S
C1053 H1043 0.929 . S
C1053 C1051 1.433 . S
C1053 N1056 1.384 . S
C1054 H1045 0.929 . S
C1054 C1046 1.378 . S
C1054 C1049 1.350 . S
C1055 H1042 0.929 . S
C1055 C1047 1.433 . S
C1055 N1057 1.384 . S
N1056 C1052 1.427 . S
N1056 C1053 1.384 . S
N1057 C1049 1.427 . S
N1057 C1055 1.384 . S
H1058 C1064 0.930 . S
H1059 C1068 0.930 . S
H1060 C1073 0.929 . S
H1061 C1071 0.929 . S
H1062 C1066 0.929 . S
H1063 C1072 0.929 . S
C1064 H1058 0.930 . S
C1064 C1065 1.367 . S
C1064 C1072 1.378 . S
C1065 C1064 1.367 . S
C1065 C1073 1.433 . S
C1066 H1062 0.929 . S
C1066 C1068 1.378 . S
C1066 C1070 1.350 . S
C1067 C1070 1.463 . S
C1067 C1072 1.350 . S
C1067 N1075 1.427 . S
C1068 H1059 0.930 . S
C1068 C1066 1.378 . S
C1068 C1069 1.367 . S
C1069 C1068 1.367 . S
C1069 C1071 1.433 . S
C1070 C1066 1.350 . S
C1070 C1067 1.463 . S
C1070 N1074 1.427 . S
C1071 H1061 0.929 . S
C1071 C1069 1.433 . S
C1071 N1074 1.384 . S
C1072 H1063 0.929 . S
C1072 C1064 1.378 . S
C1072 C1067 1.350 . S
C1073 H1060 0.929 . S
C1073 C1065 1.433 . S
C1073 N1075 1.384 . S
N1074 C1070 1.427 . S
N1074 C1071 1.384 . S
N1075 C1067 1.427 . S
N1075 C1073 1.384 . S
H1076 C1082 0.911 1_565 S
H1077 C1086 0.930 . S
H1078 C1091 0.929 . S
H1079 C1089 0.929 . S
H1080 C1084 0.929 . S
H1081 C1090 0.929 . S
C1082 H1076 0.911 1_545 S
C1082 C1083 1.367 . S
C1082 C1090 1.378 . S
C1083 C1082 1.367 . S
C1083 C1091 1.433 . S
C1084 H1080 0.929 . S
C1084 C1086 1.378 . S
C1084 C1088 1.350 . S
C1085 C1088 1.463 . S
C1085 C1090 1.350 . S
C1085 N1093 1.427 . S
C1086 H1077 0.930 . S
C1086 C1084 1.378 . S
C1086 C1087 1.367 . S
C1087 C1086 1.367 . S
C1087 C1089 1.433 . S
C1088 C1084 1.350 . S
C1088 C1085 1.463 . S
C1088 N1092 1.427 . S
C1089 H1079 0.929 . S
C1089 C1087 1.433 . S
C1089 N1092 1.384 . S
C1090 H1081 0.929 . S
C1090 C1082 1.378 . S
C1090 C1085 1.350 . S
C1091 H1078 0.929 . S
C1091 C1083 1.433 . S
C1091 N1093 1.384 . S
N1092 C1088 1.427 . S
N1092 C1089 1.384 . S
N1093 C1085 1.427 . S
N1093 C1091 1.384 . S
H1094 C1100 0.930 . S
H1095 C1104 0.930 . S
H1096 C1109 0.929 . S
H1097 C1107 0.929 . S
H1098 C1102 0.929 . S
H1099 C1108 0.929 . S
C1100 H1094 0.930 . S
C1100 C1101 1.367 . S
C1100 C1108 1.378 . S
C1101 C1100 1.367 . S
C1101 C1109 1.433 . S
C1102 H1098 0.929 . S
C1102 C1104 1.378 . S
C1102 C1106 1.350 . S
C1103 C1106 1.463 . S
C1103 C1108 1.350 . S
C1103 N1111 1.427 . S
C1104 H1095 0.930 . S
C1104 C1102 1.378 . S
C1104 C1105 1.367 . S
C1105 C1104 1.367 . S
C1105 C1107 1.433 . S
C1106 C1102 1.350 . S
C1106 C1103 1.463 . S
C1106 N1110 1.427 . S
C1107 H1097 0.929 . S
C1107 C1105 1.433 . S
C1107 N1110 1.384 . S
C1108 H1099 0.929 . S
C1108 C1100 1.378 . S
C1108 C1103 1.350 . S
C1109 H1096 0.929 . S
C1109 C1101 1.433 . S
C1109 N1111 1.384 . S
N1110 C1106 1.427 . S
N1110 C1107 1.384 . S
N1111 C1103 1.427 . S
N1111 C1109 1.384 . S
H1112 C1118 0.930 . S
H1113 C1122 0.930 . S
H1114 C1127 0.929 . S
H1115 C1125 0.929 . S
H1116 C1120 0.929 . S
H1117 C1126 0.929 . S
C1118 H1112 0.930 . S
C1118 C1119 1.367 . S
C1118 C1126 1.378 . S
C1119 C1118 1.367 . S
C1119 C1127 1.433 . S
C1120 H1116 0.929 . S
C1120 C1122 1.378 . S
C1120 C1124 1.350 . S
C1121 C1124 1.463 . S
C1121 C1126 1.350 . S
C1121 N1129 1.427 . S
C1122 H1113 0.930 . S
C1122 C1120 1.378 . S
C1122 C1123 1.367 . S
C1123 C1122 1.367 . S
C1123 C1125 1.433 . S
C1124 C1120 1.350 . S
C1124 C1121 1.463 . S
C1124 N1128 1.427 . S
C1125 H1115 0.929 . S
C1125 C1123 1.433 . S
C1125 N1128 1.384 . S
C1126 H1117 0.929 . S
C1126 C1118 1.378 . S
C1126 C1121 1.350 . S
C1127 H1114 0.929 . S
C1127 C1119 1.433 . S
C1127 N1129 1.384 . S
N1128 C1124 1.427 . S
N1128 C1125 1.384 . S
N1129 C1121 1.427 . S
N1129 C1127 1.384 . S
H1130 C1136 0.930 . S
H1131 C1140 0.930 . S
H1132 C1145 0.929 . S
H1133 C1143 0.948 . S
H1134 C1138 0.929 . S
H1135 C1144 0.929 1_565 S
C1136 H1130 0.930 . S
C1136 C1137 1.367 . S
C1136 C1144 1.378 . S
C1137 C1136 1.367 . S
C1137 C1145 1.433 . S
C1138 H1134 0.929 . S
C1138 C1140 1.378 . S
C1138 C1142 1.350 . S
C1139 C1142 1.463 . S
C1139 C1144 1.350 . S
C1139 N1147 1.427 . S
C1140 H1131 0.930 . S
C1140 C1138 1.378 . S
C1140 C1141 1.367 . S
C1141 C1140 1.367 . S
C1141 C1143 1.418 1_545 S
C1142 C1138 1.350 . S
C1142 C1139 1.463 . S
C1142 N1146 1.427 . S
C1143 H1133 0.948 . S
C1143 C1141 1.418 1_565 S
C1143 N1146 1.379 1_565 S
C1144 H1135 0.929 1_545 S
C1144 C1136 1.378 . S
C1144 C1139 1.350 . S
C1145 H1132 0.929 . S
C1145 C1137 1.433 . S
C1145 N1147 1.384 . S
N1146 C1142 1.427 . S
N1146 C1143 1.379 1_545 S
N1147 C1139 1.427 . S
N1147 C1145 1.384 . S
H1148 C1154 0.930 . S
H1149 C1158 0.930 . S
H1150 C1163 0.929 . S
H1151 C1161 0.929 . S
H1152 C1156 0.929 . S
H1153 C1162 0.929 . S
C1154 H1148 0.930 . S
C1154 C1155 1.367 . S
C1154 C1162 1.378 . S
C1155 C1154 1.367 . S
C1155 C1163 1.433 . S
C1156 H1152 0.929 . S
C1156 C1158 1.378 . S
C1156 C1160 1.350 . S
C1157 C1160 1.463 . S
C1157 C1162 1.350 . S
C1157 N1165 1.427 . S
C1158 H1149 0.930 . S
C1158 C1156 1.378 . S
C1158 C1159 1.367 . S
C1159 C1158 1.367 . S
C1159 C1161 1.433 . S
C1160 C1156 1.350 . S
C1160 C1157 1.463 . S
C1160 N1164 1.427 . S
C1161 H1151 0.929 . S
C1161 C1159 1.433 . S
C1161 N1164 1.384 . S
C1162 H1153 0.929 . S
C1162 C1154 1.378 . S
C1162 C1157 1.350 . S
C1163 H1150 0.929 . S
C1163 C1155 1.433 . S
C1163 N1165 1.384 . S
N1164 C1160 1.427 . S
N1164 C1161 1.384 . S
N1165 C1157 1.427 . S
N1165 C1163 1.384 . S
H1166 C1172 0.930 . S
H1167 C1176 0.930 . S
H1168 C1181 0.929 . S
H1169 C1179 0.929 . S
H1170 C1174 0.929 . S
H1171 C1180 0.929 . S
C1172 H1166 0.930 . S
C1172 C1173 1.367 . S
C1172 C1180 1.378 . S
C1173 C1172 1.367 . S
C1173 C1181 1.433 . S
C1174 H1170 0.929 . S
C1174 C1176 1.378 . S
C1174 C1178 1.350 . S
C1175 C1178 1.463 . S
C1175 C1180 1.350 . S
C1175 N1183 1.427 . S
C1176 H1167 0.930 . S
C1176 C1174 1.378 . S
C1176 C1177 1.367 . S
C1177 C1176 1.367 . S
C1177 C1179 1.433 . S
C1178 C1174 1.350 . S
C1178 C1175 1.463 . S
C1178 N1182 1.427 . S
C1179 H1169 0.929 . S
C1179 C1177 1.433 . S
C1179 N1182 1.384 . S
C1180 H1171 0.929 . S
C1180 C1172 1.378 . S
C1180 C1175 1.350 . S
C1181 H1168 0.929 . S
C1181 C1173 1.433 . S
C1181 N1183 1.384 . S
N1182 C1178 1.427 . S
N1182 C1179 1.384 . S
N1183 C1175 1.427 . S
N1183 C1181 1.384 . S
H1184 C1190 0.930 . S
H1185 C1194 0.930 . S
H1186 C1199 0.929 . S
H1187 C1197 0.929 . S
H1188 C1192 0.929 . S
H1189 C1198 0.929 . S
C1190 H1184 0.930 . S
C1190 C1191 1.367 . S
C1190 C1198 1.378 . S
C1191 C1190 1.367 . S
C1191 C1199 1.433 . S
C1192 H1188 0.929 . S
C1192 C1194 1.378 . S
C1192 C1196 1.350 . S
C1193 C1196 1.463 . S
C1193 C1198 1.350 . S
C1193 N1201 1.427 . S
C1194 H1185 0.930 . S
C1194 C1192 1.378 . S
C1194 C1195 1.367 . S
C1195 C1194 1.367 . S
C1195 C1197 1.433 . S
C1196 C1192 1.350 . S
C1196 C1193 1.463 . S
C1196 N1200 1.427 . S
C1197 H1187 0.929 . S
C1197 C1195 1.433 . S
C1197 N1200 1.384 . S
C1198 H1189 0.929 . S
C1198 C1190 1.378 . S
C1198 C1193 1.350 . S
C1199 H1186 0.929 . S
C1199 C1191 1.433 . S
C1199 N1201 1.384 . S
N1200 C1196 1.427 . S
N1200 C1197 1.384 . S
N1201 C1193 1.427 . S
N1201 C1199 1.384 . S
H1202 C1208 0.930 1_565 S
H1203 C1212 0.930 . S
H1204 C1217 0.929 . S
H1205 C1215 0.929 . S
H1206 C1210 0.929 . S
H1207 C1216 0.929 1_565 S
C1208 H1202 0.930 1_545 S
C1208 C1209 1.367 . S
C1208 C1216 1.378 . S
C1209 C1208 1.367 . S
C1209 C1217 1.433 . S
C1210 H1206 0.929 . S
C1210 C1212 1.378 . S
C1210 C1214 1.350 . S
C1211 C1214 1.463 . S
C1211 C1216 1.350 . S
C1211 N1219 1.427 . S
C1212 H1203 0.930 . S
C1212 C1210 1.378 . S
C1212 C1213 1.367 . S
C1213 C1212 1.367 . S
C1213 C1215 1.433 1_545 S
C1214 C1210 1.350 . S
C1214 C1211 1.463 . S
C1214 N1218 1.477 . S
C1215 H1205 0.929 . S
C1215 C1213 1.433 1_565 S
C1215 N1218 1.378 1_565 S
C1216 H1207 0.929 1_545 S
C1216 C1208 1.378 . S
C1216 C1211 1.350 . S
C1217 H1204 0.929 . S
C1217 C1209 1.433 . S
C1217 N1219 1.384 . S
N1218 C1214 1.477 . S
N1218 C1215 1.378 1_545 S
N1219 C1211 1.427 . S
N1219 C1217 1.384 . S
H1220 C1226 0.930 . S
H1221 C1230 0.930 . S
H1222 C1235 0.929 . S
H1223 C1233 0.929 . S
H1224 C1228 0.929 . S
H1225 C1234 0.929 . S
C1226 H1220 0.930 . S
C1226 C1227 1.367 . S
C1226 C1234 1.378 . S
C1227 C1226 1.367 . S
C1227 C1235 1.433 . S
C1228 H1224 0.929 . S
C1228 C1230 1.378 . S
C1228 C1232 1.350 . S
C1229 C1232 1.463 . S
C1229 C1234 1.350 . S
C1229 N1237 1.427 . S
C1230 H1221 0.930 . S
C1230 C1228 1.378 . S
C1230 C1231 1.367 . S
C1231 C1230 1.367 . S
C1231 C1233 1.433 . S
C1232 C1228 1.350 . S
C1232 C1229 1.463 . S
C1232 N1236 1.427 . S
C1233 H1223 0.929 . S
C1233 C1231 1.433 . S
C1233 N1236 1.384 . S
C1234 H1225 0.929 . S
C1234 C1226 1.378 . S
C1234 C1229 1.350 . S
C1235 H1222 0.929 . S
C1235 C1227 1.433 . S
C1235 N1237 1.384 . S
N1236 C1232 1.427 . S
N1236 C1233 1.384 . S
N1237 C1229 1.427 . S
N1237 C1235 1.384 . S
H1238 C1244 0.930 1_655 S
H1239 C1248 0.930 . S
H1240 C1253 0.929 . S
H1241 C1251 0.929 . S
H1242 C1246 0.929 . S
H1243 C1252 0.929 . S
C1244 H1238 0.930 1_455 S
C1244 C1245 1.367 . S
C1244 C1252 1.378 . S
C1245 C1244 1.367 . S
C1245 C1253 1.433 . S
C1246 H1242 0.929 . S
C1246 C1248 1.378 . S
C1246 C1250 1.350 . S
C1247 C1250 1.463 . S
C1247 C1252 1.350 . S
C1247 N1255 1.427 . S
C1248 H1239 0.930 . S
C1248 C1246 1.378 . S
C1248 C1249 1.367 . S
C1249 C1248 1.367 . S
C1249 C1251 1.433 . S
C1250 C1246 1.350 . S
C1250 C1247 1.463 . S
C1250 N1254 1.427 . S
C1251 H1241 0.929 . S
C1251 C1249 1.433 . S
C1251 N1254 1.384 . S
C1252 H1243 0.929 . S
C1252 C1244 1.378 . S
C1252 C1247 1.350 . S
C1253 H1240 0.929 . S
C1253 C1245 1.433 . S
C1253 N1255 1.384 . S
N1254 C1250 1.427 . S
N1254 C1251 1.384 . S
N1255 C1247 1.427 . S
N1255 C1253 1.384 . S
H1256 C1262 0.930 . S
H1257 C1266 0.930 . S
H1258 C1271 0.929 . S
H1259 C1269 0.929 . S
H1260 C1264 0.929 . S
H1261 C1270 0.929 . S
C1262 H1256 0.930 . S
C1262 C1263 1.367 . S
C1262 C1270 1.378 . S
C1263 C1262 1.367 . S
C1263 C1271 1.433 . S
C1264 H1260 0.929 . S
C1264 C1266 1.378 . S
C1264 C1268 1.350 . S
C1265 C1268 1.463 . S
C1265 C1270 1.350 . S
C1265 N1273 1.427 . S
C1266 H1257 0.930 . S
C1266 C1264 1.378 . S
C1266 C1267 1.367 . S
C1267 C1266 1.367 . S
C1267 C1269 1.433 . S
C1268 C1264 1.350 . S
C1268 C1265 1.463 . S
C1268 N1272 1.427 . S
C1269 H1259 0.929 . S
C1269 C1267 1.433 . S
C1269 N1272 1.384 . S
C1270 H1261 0.929 . S
C1270 C1262 1.378 . S
C1270 C1265 1.350 . S
C1271 H1258 0.929 . S
C1271 C1263 1.433 . S
C1271 N1273 1.384 . S
N1272 C1268 1.427 . S
N1272 C1269 1.384 . S
N1273 C1265 1.427 . S
N1273 C1271 1.384 . S
H1274 C1280 0.930 . S
H1275 C1284 0.944 . S
H1276 C1289 0.929 . S
H1277 C1287 0.929 . S
H1278 C1282 0.929 . S
H1279 C1288 0.929 . S
C1280 H1274 0.930 . S
C1280 C1281 1.364 1_554 S
C1280 C1288 1.378 1_554 S
C1281 C1280 1.364 1_556 S
C1281 C1289 1.444 . S
C1282 H1278 0.929 . S
C1282 C1284 1.378 . S
C1282 C1286 1.350 . S
C1283 C1286 1.463 . S
C1283 C1288 1.350 . S
C1283 N1291 1.427 . S
C1284 H1275 0.944 . S
C1284 C1282 1.378 . S
C1284 C1285 1.367 . S
C1285 C1284 1.367 . S
C1285 C1287 1.433 . S
C1286 C1282 1.350 . S
C1286 C1283 1.463 . S
C1286 N1290 1.427 . S
C1287 H1277 0.929 . S
C1287 C1285 1.433 . S
C1287 N1290 1.384 . S
C1288 H1279 0.929 . S
C1288 C1280 1.378 1_556 S
C1288 C1283 1.350 . S
C1289 H1276 0.929 . S
C1289 C1281 1.444 . S
C1289 N1291 1.384 . S
N1290 C1286 1.427 . S
N1290 C1287 1.384 . S
N1291 C1283 1.427 . S
N1291 C1289 1.384 . S
H1292 C1298 0.930 . S
H1293 C1302 0.930 . S
H1294 C1307 0.929 . S
H1295 C1305 0.929 . S
H1296 C1300 0.929 . S
H1297 C1306 0.929 . S
C1298 H1292 0.930 . S
C1298 C1299 1.367 . S
C1298 C1306 1.378 . S
C1299 C1298 1.367 . S
C1299 C1307 1.433 . S
C1300 H1296 0.929 . S
C1300 C1302 1.378 . S
C1300 C1304 1.350 . S
C1301 C1304 1.463 . S
C1301 C1306 1.350 . S
C1301 N1309 1.427 . S
C1302 H1293 0.930 . S
C1302 C1300 1.378 . S
C1302 C1303 1.367 . S
C1303 C1302 1.367 . S
C1303 C1305 1.433 . S
C1304 C1300 1.350 . S
C1304 C1301 1.463 . S
C1304 N1308 1.427 . S
C1305 H1295 0.929 . S
C1305 C1303 1.433 . S
C1305 N1308 1.384 . S
C1306 H1297 0.929 . S
C1306 C1298 1.378 . S
C1306 C1301 1.350 . S
C1307 H1294 0.929 . S
C1307 C1299 1.433 . S
C1307 N1309 1.384 . S
N1308 C1304 1.427 . S
N1308 C1305 1.384 . S
N1309 C1301 1.427 . S
N1309 C1307 1.384 . S
H1310 C1316 0.978 . S
H1311 C1320 0.918 1_655 S
H1312 C1325 0.929 . S
H1313 C1323 0.929 . S
H1314 C1318 0.929 . S
H1315 C1324 0.929 . S
C1316 H1310 0.978 . S
C1316 C1317 1.352 1_554 S
C1316 C1324 1.347 1_554 S
C1317 C1316 1.352 1_556 S
C1317 C1325 1.433 . S
C1318 H1314 0.929 . S
C1318 C1320 1.378 . S
C1318 C1322 1.350 . S
C1319 C1322 1.463 . S
C1319 C1324 1.350 . S
C1319 N1327 1.427 . S
C1320 H1311 0.918 1_455 S
C1320 C1318 1.378 . S
C1320 C1321 1.367 . S
C1321 C1320 1.367 . S
C1321 C1323 1.433 . S
C1322 C1318 1.350 . S
C1322 C1319 1.463 . S
C1322 N1326 1.427 . S
C1323 H1313 0.929 . S
C1323 C1321 1.433 . S
C1323 N1326 1.384 . S
C1324 H1315 0.929 . S
C1324 C1316 1.347 1_556 S
C1324 C1319 1.350 . S
C1325 H1312 0.929 . S
C1325 C1317 1.433 . S
C1325 N1327 1.384 . S
N1326 C1322 1.427 . S
N1326 C1323 1.384 . S
N1327 C1319 1.427 . S
N1327 C1325 1.384 . S
H1328 C1334 0.930 . S
H1329 C1338 0.930 . S
H1330 C1343 0.929 . S
H1331 C1341 0.929 . S
H1332 C1336 0.929 . S
H1333 C1342 0.929 . S
C1334 H1328 0.930 . S
C1334 C1335 1.367 . S
C1334 C1342 1.378 . S
C1335 C1334 1.367 . S
C1335 C1343 1.433 . S
C1336 H1332 0.929 . S
C1336 C1338 1.378 . S
C1336 C1340 1.350 . S
C1337 C1340 1.463 . S
C1337 C1342 1.350 . S
C1337 N1345 1.427 . S
C1338 H1329 0.930 . S
C1338 C1336 1.378 . S
C1338 C1339 1.367 . S
C1339 C1338 1.367 . S
C1339 C1341 1.433 . S
C1340 C1336 1.350 . S
C1340 C1337 1.463 . S
C1340 N1344 1.427 . S
C1341 H1331 0.929 . S
C1341 C1339 1.433 . S
C1341 N1344 1.384 . S
C1342 H1333 0.929 . S
C1342 C1334 1.378 . S
C1342 C1337 1.350 . S
C1343 H1330 0.929 . S
C1343 C1335 1.433 . S
C1343 N1345 1.384 . S
N1344 C1340 1.427 . S
N1344 C1341 1.384 . S
N1345 C1337 1.427 . S
N1345 C1343 1.384 . S
H1346 C1352 0.930 . S
H1347 C1356 0.930 . S
H1348 C1361 0.929 1_556 S
H1349 C1359 0.929 . S
H1350 C1354 0.929 . S
H1351 C1360 0.929 . S
C1352 H1346 0.930 . S
C1352 C1353 1.367 . S
C1352 C1360 1.378 . S
C1353 C1352 1.367 . S
C1353 C1361 1.433 . S
C1354 H1350 0.929 . S
C1354 C1356 1.378 . S
C1354 C1358 1.350 . S
C1355 C1358 1.463 . S
C1355 C1360 1.350 . S
C1355 N1363 1.427 . S
C1356 H1347 0.930 . S
C1356 C1354 1.378 . S
C1356 C1357 1.367 . S
C1357 C1356 1.367 . S
C1357 C1359 1.433 . S
C1358 C1354 1.350 . S
C1358 C1355 1.463 . S
C1358 N1362 1.427 . S
C1359 H1349 0.929 . S
C1359 C1357 1.433 . S
C1359 N1362 1.384 . S
C1360 H1351 0.929 . S
C1360 C1352 1.378 . S
C1360 C1355 1.350 . S
C1361 H1348 0.929 1_554 S
C1361 C1353 1.433 . S
C1361 N1363 1.384 . S
N1362 C1358 1.427 . S
N1362 C1359 1.384 . S
N1363 C1355 1.427 . S
N1363 C1361 1.384 . S
H1364 C1370 0.930 . S
H1365 C1374 0.930 . S
H1366 C1379 0.929 . S
H1367 C1377 0.929 . S
H1368 C1372 0.929 . S
H1369 C1378 0.929 . S
C1370 H1364 0.930 . S
C1370 C1371 1.367 . S
C1370 C1378 1.378 . S
C1371 C1370 1.367 . S
C1371 C1379 1.433 . S
C1372 H1368 0.929 . S
C1372 C1374 1.378 . S
C1372 C1376 1.350 . S
C1373 C1376 1.463 . S
C1373 C1378 1.350 . S
C1373 N1381 1.427 . S
C1374 H1365 0.930 . S
C1374 C1372 1.378 . S
C1374 C1375 1.367 . S
C1375 C1374 1.367 . S
C1375 C1377 1.433 . S
C1376 C1372 1.350 . S
C1376 C1373 1.463 . S
C1376 N1380 1.427 . S
C1377 H1367 0.929 . S
C1377 C1375 1.433 . S
C1377 N1380 1.384 . S
C1378 H1369 0.929 . S
C1378 C1370 1.378 . S
C1378 C1373 1.350 . S
C1379 H1366 0.929 . S
C1379 C1371 1.433 . S
C1379 N1381 1.384 . S
N1380 C1376 1.427 . S
N1380 C1377 1.384 . S
N1381 C1373 1.427 . S
N1381 C1379 1.384 . S
H1382 C1388 0.930 . S
H1383 C1392 0.930 . S
H1384 C1397 0.929 1_556 S
H1385 C1395 0.929 . S
H1386 C1390 0.929 . S
H1387 C1396 0.929 . S
C1388 H1382 0.930 . S
C1388 C1389 1.367 . S
C1388 C1396 1.378 . S
C1389 C1388 1.367 . S
C1389 C1397 1.433 . S
C1390 H1386 0.929 . S
C1390 C1392 1.378 . S
C1390 C1394 1.350 . S
C1391 C1394 1.463 . S
C1391 C1396 1.350 . S
C1391 N1399 1.427 . S
C1392 H1383 0.930 . S
C1392 C1390 1.378 . S
C1392 C1393 1.367 . S
C1393 C1392 1.367 . S
C1393 C1395 1.433 . S
C1394 C1390 1.350 . S
C1394 C1391 1.463 . S
C1394 N1398 1.427 . S
C1395 H1385 0.929 . S
C1395 C1393 1.433 . S
C1395 N1398 1.384 . S
C1396 H1387 0.929 . S
C1396 C1388 1.378 . S
C1396 C1391 1.350 . S
C1397 H1384 0.929 1_554 S
C1397 C1389 1.433 . S
C1397 N1399 1.384 . S
N1398 C1394 1.427 . S
N1398 C1395 1.384 . S
N1399 C1391 1.427 . S
N1399 C1397 1.384 . S
H1400 C1406 0.930 . S
H1401 C1410 0.930 . S
H1402 C1415 0.929 . S
H1403 C1413 0.929 . S
H1404 C1408 0.929 . S
H1405 C1414 0.929 . S
C1406 H1400 0.930 . S
C1406 C1407 1.367 . S
C1406 C1414 1.378 . S
C1407 C1406 1.367 . S
C1407 C1415 1.433 . S
C1408 H1404 0.929 . S
C1408 C1410 1.378 . S
C1408 C1412 1.350 . S
C1409 C1412 1.463 . S
C1409 C1414 1.350 . S
C1409 N1417 1.427 . S
C1410 H1401 0.930 . S
C1410 C1408 1.378 . S
C1410 C1411 1.367 . S
C1411 C1410 1.367 . S
C1411 C1413 1.433 . S
C1412 C1408 1.350 . S
C1412 C1409 1.463 . S
C1412 N1416 1.427 . S
C1413 H1403 0.929 . S
C1413 C1411 1.433 . S
C1413 N1416 1.384 . S
C1414 H1405 0.929 . S
C1414 C1406 1.378 . S
C1414 C1409 1.350 . S
C1415 H1402 0.929 . S
C1415 C1407 1.433 . S
C1415 N1417 1.384 . S
N1416 C1412 1.427 . S
N1416 C1413 1.384 . S
N1417 C1409 1.427 . S
N1417 C1415 1.384 . S
H1418 C1424 0.930 . S
H1419 C1428 0.930 . S
H1420 C1433 0.929 . S
H1421 C1431 0.929 . S
H1422 C1426 0.929 . S
H1423 C1432 0.929 . S
C1424 H1418 0.930 . S
C1424 C1425 1.367 . S
C1424 C1432 1.378 . S
C1425 C1424 1.367 . S
C1425 C1433 1.433 . S
C1426 H1422 0.929 . S
C1426 C1428 1.378 . S
C1426 C1430 1.350 . S
C1427 C1430 1.463 . S
C1427 C1432 1.350 . S
C1427 N1435 1.427 . S
C1428 H1419 0.930 . S
C1428 C1426 1.378 . S
C1428 C1429 1.367 . S
C1429 C1428 1.367 . S
C1429 C1431 1.433 . S
C1430 C1426 1.350 . S
C1430 C1427 1.463 . S
C1430 N1434 1.427 . S
C1431 H1421 0.929 . S
C1431 C1429 1.433 . S
C1431 N1434 1.384 . S
C1432 H1423 0.929 . S
C1432 C1424 1.378 . S
C1432 C1427 1.350 . S
C1433 H1420 0.929 . S
C1433 C1425 1.433 . S
C1433 N1435 1.384 . S
N1434 C1430 1.427 . S
N1434 C1431 1.384 . S
N1435 C1427 1.427 . S
N1435 C1433 1.384 . S
H1436 C1442 0.930 . S
H1437 C1446 0.930 . S
H1438 C1451 0.929 . S
H1439 C1449 0.929 . S
H1440 C1444 0.929 . S
H1441 C1450 0.929 . S
C1442 H1436 0.930 . S
C1442 C1443 1.367 . S
C1442 C1450 1.378 . S
C1443 C1442 1.367 . S
C1443 C1451 1.433 . S
C1444 H1440 0.929 . S
C1444 C1446 1.378 . S
C1444 C1448 1.350 . S
C1445 C1448 1.463 . S
C1445 C1450 1.350 . S
C1445 N1453 1.427 . S
C1446 H1437 0.930 . S
C1446 C1444 1.378 . S
C1446 C1447 1.367 . S
C1447 C1446 1.367 . S
C1447 C1449 1.433 . S
C1448 C1444 1.350 . S
C1448 C1445 1.463 . S
C1448 N1452 1.427 . S
C1449 H1439 0.929 . S
C1449 C1447 1.433 . S
C1449 N1452 1.384 . S
C1450 H1441 0.929 . S
C1450 C1442 1.378 . S
C1450 C1445 1.350 . S
C1451 H1438 0.929 . S
C1451 C1443 1.433 . S
C1451 N1453 1.384 . S
N1452 C1448 1.427 . S
N1452 C1449 1.384 . S
N1453 C1445 1.427 . S
N1453 C1451 1.384 . S
H1454 C1460 0.930 . S
H1455 C1464 0.930 . S
H1456 C1469 0.929 . S
H1457 C1467 0.929 . S
H1458 C1462 0.929 . S
H1459 C1468 0.929 . S
C1460 H1454 0.930 . S
C1460 C1461 1.367 . S
C1460 C1468 1.378 . S
C1461 C1460 1.367 . S
C1461 C1469 1.433 . S
C1462 H1458 0.929 . S
C1462 C1464 1.378 . S
C1462 C1466 1.350 . S
C1463 C1466 1.463 . S
C1463 C1468 1.350 . S
C1463 N1471 1.427 . S
C1464 H1455 0.930 . S
C1464 C1462 1.378 . S
C1464 C1465 1.367 . S
C1465 C1464 1.367 . S
C1465 C1467 1.433 . S
C1466 C1462 1.350 . S
C1466 C1463 1.463 . S
C1466 N1470 1.427 . S
C1467 H1457 0.929 . S
C1467 C1465 1.433 . S
C1467 N1470 1.384 . S
C1468 H1459 0.929 . S
C1468 C1460 1.378 . S
C1468 C1463 1.350 . S
C1469 H1456 0.929 . S
C1469 C1461 1.433 . S
C1469 N1471 1.384 . S
N1470 C1466 1.427 . S
N1470 C1467 1.384 . S
N1471 C1463 1.427 . S
N1471 C1469 1.384 . S
H1472 C1478 0.930 . S
H1473 C1482 0.930 . S
H1474 C1487 0.929 1_554 S
H1475 C1485 0.929 . S
H1476 C1480 0.929 . S
H1477 C1486 0.929 . S
C1478 H1472 0.930 . S
C1478 C1479 1.367 . S
C1478 C1486 1.378 . S
C1479 C1478 1.367 . S
C1479 C1487 1.433 . S
C1480 H1476 0.929 . S
C1480 C1482 1.378 . S
C1480 C1484 1.350 1_554 S
C1481 C1484 1.463 . S
C1481 C1486 1.350 . S
C1481 N1489 1.427 . S
C1482 H1473 0.930 . S
C1482 C1480 1.378 . S
C1482 C1483 1.367 1_554 S
C1483 C1482 1.367 1_556 S
C1483 C1485 1.433 . S
C1484 C1480 1.350 1_556 S
C1484 C1481 1.463 . S
C1484 N1488 1.427 . S
C1485 H1475 0.929 . S
C1485 C1483 1.433 . S
C1485 N1488 1.384 . S
C1486 H1477 0.929 . S
C1486 C1478 1.378 . S
C1486 C1481 1.350 . S
C1487 H1474 0.929 1_556 S
C1487 C1479 1.433 . S
C1487 N1489 1.384 . S
N1488 C1484 1.427 . S
N1488 C1485 1.384 . S
N1489 C1481 1.427 . S
N1489 C1487 1.384 . S
H1490 C1496 0.930 . S
H1491 C1500 0.930 . S
H1492 C1505 0.929 . S
H1493 C1503 0.929 . S
H1494 C1498 0.929 . S
H1495 C1504 0.929 . S
C1496 H1490 0.930 . S
C1496 C1497 1.367 . S
C1496 C1504 1.378 . S
C1497 C1496 1.367 . S
C1497 C1505 1.433 . S
C1498 H1494 0.929 . S
C1498 C1500 1.378 . S
C1498 C1502 1.350 . S
C1499 C1502 1.463 . S
C1499 C1504 1.350 . S
C1499 N1507 1.427 . S
C1500 H1491 0.930 . S
C1500 C1498 1.378 . S
C1500 C1501 1.367 . S
C1501 C1500 1.367 . S
C1501 C1503 1.433 . S
C1502 C1498 1.350 . S
C1502 C1499 1.463 . S
C1502 N1506 1.427 . S
C1503 H1493 0.929 . S
C1503 C1501 1.433 . S
C1503 N1506 1.384 . S
C1504 H1495 0.929 . S
C1504 C1496 1.378 . S
C1504 C1499 1.350 . S
C1505 H1492 0.929 . S
C1505 C1497 1.433 . S
C1505 N1507 1.384 . S
N1506 C1502 1.427 . S
N1506 C1503 1.384 . S
N1507 C1499 1.427 . S
N1507 C1505 1.384 . S
H1508 C1514 0.930 . S
H1509 C1518 0.930 1_556 S
H1510 C1523 0.929 . S
H1511 C1521 0.929 . S
H1512 C1516 0.929 1_556 S
H1513 C1522 0.929 . S
C1514 H1508 0.930 . S
C1514 C1515 1.367 . S
C1514 C1522 1.378 . S
C1515 C1514 1.367 . S
C1515 C1523 1.433 . S
C1516 H1512 0.929 1_554 S
C1516 C1518 1.378 . S
C1516 C1520 1.350 . S
C1517 C1520 1.463 . S
C1517 C1522 1.350 . S
C1517 N1525 1.427 . S
C1518 H1509 0.930 1_554 S
C1518 C1516 1.378 . S
C1518 C1519 1.367 . S
C1519 C1518 1.367 . S
C1519 C1521 1.433 . S
C1520 C1516 1.350 . S
C1520 C1517 1.463 . S
C1520 N1524 1.427 . S
C1521 H1511 0.929 . S
C1521 C1519 1.433 . S
C1521 N1524 1.384 . S
C1522 H1513 0.929 . S
C1522 C1514 1.378 . S
C1522 C1517 1.350 . S
C1523 H1510 0.929 . S
C1523 C1515 1.433 . S
C1523 N1525 1.384 . S
N1524 C1520 1.427 . S
N1524 C1521 1.384 . S
N1525 C1517 1.427 . S
N1525 C1523 1.384 . S
H1526 C1532 0.930 . S
H1527 C1536 0.930 1_556 S
H1528 C1541 0.929 1_545 S
H1529 C1539 0.929 . S
H1530 C1534 0.929 1_556 S
H1531 C1540 0.929 . S
C1532 H1526 0.930 . S
C1532 C1533 1.367 . S
C1532 C1540 1.378 . S
C1533 C1532 1.367 . S
C1533 C1541 1.433 . S
C1534 H1530 0.929 1_554 S
C1534 C1536 1.378 . S
C1534 C1538 1.350 . S
C1535 C1538 1.463 . S
C1535 C1540 1.350 . S
C1535 N1543 1.427 . S
C1536 H1527 0.930 1_554 S
C1536 C1534 1.378 . S
C1536 C1537 1.367 . S
C1537 C1536 1.367 . S
C1537 C1539 1.433 . S
C1538 C1534 1.350 . S
C1538 C1535 1.463 . S
C1538 N1542 1.427 . S
C1539 H1529 0.929 . S
C1539 C1537 1.433 . S
C1539 N1542 1.384 . S
C1540 H1531 0.929 . S
C1540 C1532 1.378 . S
C1540 C1535 1.350 . S
C1541 H1528 0.929 1_565 S
C1541 C1533 1.433 . S
C1541 N1543 1.384 . S
N1542 C1538 1.427 . S
N1542 C1539 1.384 . S
N1543 C1535 1.427 . S
N1543 C1541 1.384 . S
C691 C520 1.462 . S
C687 C177 1.450 . S
C709 C533 1.501 . S
C705 C209 1.443 1_455 S
C723 C253 1.547 . S
C727 C553 1.494 . S
C745 C567 1.396 . S
C741 C157 1.445 1_655 S
C763 C579 1.526 . S
C759 C343 1.508 . S
C781 C593 1.418 . S
C777 C401 1.396 . S
C795 C369 1.487 . S
C799 C603 1.506 . S
C817 C618 1.504 . S
C813 C317 1.493 . S
C831 C375 1.510 . S
C835 C632 1.506 . S
C853 C651 1.393 . S
C849 C305 1.447 . S
C867 C349 1.489 . S
C871 C631 1.505 . S
C889 C649 1.432 . S
C885 C413 1.403 . S
C903 C241 1.580 . S
C907 C665 1.510 . S
C921 C151 1.449 . S
C925 C659 1.454 . S
C939 C189 1.481 . S
C943 C663 1.519 . S
C957 C215 1.504 . S
C961 C660 1.506 . S
C975 C113 1.489 . S
C979 C562 1.482 . S
C993 C471 1.441 . S
C997 C561 1.463 . S
C1015 C525 1.383 . S
C1011 C509 1.407 1_565 S
C1033 C539 1.531 . S
C1029 C279 1.589 . S
C1047 C145 1.488 1_545 S
C1051 C576 1.460 . S
C1069 C621 1.555 . S
C1065 C381 1.533 . S
C1087 C575 1.495 . S
C1083 C311 1.463 . S
C1105 C607 1.416 . S
C1101 C407 1.383 . S
C1123 C604 1.461 . S
C1119 C465 1.452 . S
C1137 C497 1.470 . S
C1141 C617 1.504 . S
C1155 C285 1.539 . S
C1159 C581 1.489 . S
C1177 C595 1.388 . S
C1173 C445 1.439 . S
C1191 C119 1.498 . S
C1195 C551 1.521 . S
C1213 C565 1.417 . S
C1209 C17 1.395 1_655 S
C1231 C519 1.503 . S
C1227 C49 1.494 . S
C1249 C534 1.494 . S
C1245 C93 1.490 1_455 S
C1263 C55 1.508 . S
C1267 C646 1.505 . S
C1281 C81 1.445 1_556 S
C1285 C637 1.389 . S
C1299 C125 1.482 . S
C1303 C645 1.509 . S
C1317 C29 1.391 1_556 S
C1321 C635 1.433 . S
C1339 C679 1.517 . S
C1335 C273 1.579 . S
C1357 C673 1.451 . S
C1353 C439 1.447 . S
C1375 C677 1.514 . S
C1371 C477 1.493 . S
C1389 C503 1.482 1_554 S
C1393 C674 1.507 . S
C1407 C337 1.491 . S
C1411 C590 1.486 . S
C1429 C589 1.469 . S
C1425 C183 1.450 . S
C1447 C609 1.378 . S
C1443 C221 1.401 . S
C1465 C623 1.519 . S
C1461 C247 1.581 . S
C1479 C433 1.488 . S
C1483 C548 1.471 . S
C1501 C537 1.553 . S
C1497 C61 1.526 . S
C1515 C87 1.465 . S
C1519 C547 1.490 . S
C1537 C523 1.418 . S
C1533 C23 1.388 1_565 S
