# Generated by pormake.
# Topology tsx, (6,3)-cn, num edge types: 1
# Building blocks:
#     Node 0, Type 0, BuildingBlock: JUFBIX_clean_sbu_0, # of connection points: 6
#     Node 1, Type 0, BuildingBlock: JUFBIX_clean_sbu_0, # of connection points: 6
#     Node 2, Type 1, BuildingBlock: BELTOD_clean_linker_0, # of connection points: 3
#     Node 3, Type 1, BuildingBlock: BELTOD_clean_linker_0, # of connection points: 3
#     Node 4, Type 1, BuildingBlock: BELTOD_clean_linker_0, # of connection points: 3
#     Node 5, Type 1, BuildingBlock: BELTOD_clean_linker_0, # of connection points: 3
#     Edge 6, Type (0, 1), BuildingBlock: ZUJKAS_clean_linker_0, # of connection points: 2
#     Edge 7, Type (0, 1), BuildingBlock: ZUJKAS_clean_linker_0, # of connection points: 2
#     Edge 8, Type (0, 1), BuildingBlock: ZUJKAS_clean_linker_0, # of connection points: 2
#     Edge 9, Type (0, 1), BuildingBlock: ZUJKAS_clean_linker_0, # of connection points: 2
#     Edge 10, Type (0, 1), BuildingBlock: ZUJKAS_clean_linker_0, # of connection points: 2
#     Edge 11, Type (0, 1), BuildingBlock: ZUJKAS_clean_linker_0, # of connection points: 2
#     Edge 12, Type (0, 1), BuildingBlock: ZUJKAS_clean_linker_0, # of connection points: 2
#     Edge 13, Type (0, 1), BuildingBlock: ZUJKAS_clean_linker_0, # of connection points: 2
#     Edge 14, Type (0, 1), BuildingBlock: ZUJKAS_clean_linker_0, # of connection points: 2
#     Edge 15, Type (0, 1), BuildingBlock: ZUJKAS_clean_linker_0, # of connection points: 2
#     Edge 16, Type (0, 1), BuildingBlock: ZUJKAS_clean_linker_0, # of connection points: 2
#     Edge 17, Type (0, 1), BuildingBlock: ZUJKAS_clean_linker_0, # of connection points: 2
# Relax obj value: 0.144
# Max RMSD: 0.159
# Mean RMSD: 0.123
data_MOF--net-tsx--node1-JUFBIX_clean_sbu_0--node2-BELTOD_clean_linker_0--edge1-ZUJKAS_clean_linker_0
_symmetry_space_group_name_H-M    P1
_symmetry_Int_Tables_number       1
_symmetry_cell_setting            triclinic
loop_
_symmetry_equiv_pos_as_xyz
'x, y, z'
_cell_length_a     27.982212
_cell_length_b     33.133333
_cell_length_c     49.915828
_cell_angle_alpha  92.873993
_cell_angle_beta   89.673682
_cell_angle_gamma 96.990134
loop_
_atom_site_label
_atom_site_type_symbol
_atom_site_fract_x
_atom_site_fract_y
_atom_site_fract_z
_atom_type_partial_charge
Co0 Co 0.02261 0.99241 0.01277 0.0
C1 C 0.98434 0.01384 0.96412 0.0
Co2 Co 0.95994 0.02706 0.01682 0.0
C3 C 0.08651 0.92905 0.01415 0.0
C4 C 0.11379 0.9792 0.99072 0.0
N5 N 0.07668 0.96584 0.00665 0.0
N6 N 0.12801 0.91891 1.0032 0.0
C7 C 0.14526 0.95055 0.98858 0.0
H8 H 0.06274 0.90939 0.02641 0.0
H9 H 0.11703 0.0075 0.98058 0.0
C10 C 0.99944 0.00573 0.06548 0.0
N11 N 0.90572 0.0536 0.02285 0.0
C12 C 0.89519 0.08987 0.01476 0.0
C13 C 0.86875 0.04035 0.03889 0.0
N14 N 0.8533 0.0998 0.02539 0.0
C15 C 0.83661 0.06853 0.04047 0.0
C16 C 0.93716 0.94209 0.01249 0.0
O17 O 0.02932 0.98955 0.05037 0.0
O18 O 0.96657 0.02307 0.05486 0.0
O19 O 0.92007 0.97594 0.01464 0.0
O20 O 0.98251 0.94198 0.01139 0.0
O21 O 0.95437 0.03089 0.97876 0.0
H22 H 0.86586 0.0123 0.04931 0.0
H23 H 0.91859 0.10922 1.00211 0.0
O24 O 0.01566 0.99553 0.97526 0.0
O25 O 0.0621 0.04319 0.01424 0.0
O26 O 1.0003 0.07772 0.01879 0.0
C27 C 0.04553 0.0772 0.01684 0.0
H28 H 0.17807 0.95262 0.97686 0.0
H29 H 0.80357 0.06621 0.05197 0.0
Co30 Co 0.51754 0.48961 0.51536 0.0
C31 C 0.48025 0.51198 0.46658 0.0
Co32 Co 0.45438 0.52378 0.51912 0.0
C33 C 0.58371 0.42727 0.51557 0.0
C34 C 0.6106 0.48035 0.49482 0.0
N35 N 0.57274 0.46435 0.50931 0.0
N36 N 0.62678 0.41962 0.50529 0.0
C37 C 0.64373 0.45319 0.49242 0.0
H38 H 0.55989 0.40583 0.52659 0.0
H39 H 0.61351 0.50965 0.48592 0.0
C40 C 0.49276 0.50152 0.56792 0.0
N41 N 0.39948 0.54949 0.52496 0.0
C42 C 0.38918 0.5861 0.51738 0.0
C43 C 0.36162 0.53523 0.54005 0.0
N44 N 0.34649 0.59528 0.52736 0.0
C45 C 0.3291 0.56311 0.54151 0.0
C46 C 0.43286 0.43863 0.5136 0.0
O47 O 0.52259 0.48501 0.55293 0.0
O48 O 0.4606 0.51957 0.55716 0.0
O49 O 0.41562 0.47234 0.51659 0.0
O50 O 0.47826 0.43868 0.51239 0.0
O51 O 0.44907 0.52769 0.48109 0.0
H52 H 0.35828 0.50665 0.54987 0.0
H53 H 0.41326 0.60614 0.50553 0.0
O54 O 0.51223 0.49454 0.47784 0.0
O55 O 0.55603 0.54082 0.51851 0.0
O56 O 0.49372 0.5749 0.52142 0.0
C57 C 0.53906 0.57465 0.52077 0.0
H58 H 0.67768 0.45782 0.48185 0.0
H59 H 0.29526 0.55987 0.55225 0.0
P60 P 0.07211 0.06294 0.44494 0.0
H61 H 0.0635 0.12699 0.48644 0.0
H62 H 0.99465 0.15836 0.50425 0.0
H63 H 0.89865 0.07057 0.45712 0.0
H64 H 0.96806 0.03986 0.439 0.0
H65 H 0.15556 0.04925 0.4768 0.0
H66 H 0.17984 0.98867 0.49599 0.0
H67 H 0.04541 0.92006 0.47 0.0
H68 H 0.02141 0.98117 0.45067 0.0
H69 H 0.02484 0.10463 0.4044 0.0
H70 H 0.09671 0.99698 0.40729 0.0
O71 O 0.11865 0.09959 0.44712 0.0
H72 H 0.01305 0.0921 0.35615 0.0
H73 H 0.08387 0.98352 0.35915 0.0
C74 C 0.02086 0.08192 0.46083 0.0
C75 C 0.02761 0.11433 0.48009 0.0
C76 C 0.98809 0.132 0.49045 0.0
C77 C 0.94106 0.11733 0.48185 0.0
C78 C 0.93441 0.08314 0.46375 0.0
C79 C 0.97401 0.06547 0.45344 0.0
C80 C 0.08702 0.01948 0.46195 0.0
C81 C 0.13102 0.02135 0.47549 0.0
C82 C 0.14474 0.98667 0.48664 0.0
C83 C 0.11479 0.94938 0.48424 0.0
C84 C 0.06959 0.94819 0.4718 0.0
C85 C 0.05576 0.98305 0.46083 0.0
C86 C 0.06049 0.0512 0.40965 0.0
C87 C 0.03727 0.07783 0.39474 0.0
C88 C 0.03043 0.07053 0.3671 0.0
C89 C 0.04714 0.03657 0.35367 0.0
C90 C 0.07076 0.01009 0.36873 0.0
C91 C 0.07765 0.01751 0.3964 0.0
P92 P 0.0717 0.95217 0.59013 0.0
H93 H 0.03879 0.91144 0.5392 0.0
H94 H 0.96019 0.87691 0.52419 0.0
H95 H 0.89687 0.91496 0.59898 0.0
H96 H 0.9747 0.94887 0.61386 0.0
H97 H 0.17035 0.98856 0.58497 0.0
H98 H 0.208 0.04722 0.56185 0.0
H99 H 0.06939 0.0661 0.53015 0.0
H100 H 0.03172 0.00773 0.55412 0.0
H101 H 0.0841 0.90989 0.63903 0.0
H102 H 0.04868 0.02739 0.61825 0.0
O103 O 0.10679 0.91494 0.58685 0.0
H104 H 0.07039 0.92706 0.68629 0.0
H105 H 0.03328 0.04451 0.66556 0.0
C106 C 0.01284 0.93216 0.57778 0.0
C107 C 0.00777 0.91271 0.55218 0.0
C108 C 0.96288 0.89324 0.54358 0.0
C109 C 0.9226 0.89288 0.56059 0.0
C110 C 0.92748 0.91421 0.58564 0.0
C111 C 0.97215 0.93372 0.59415 0.0
C112 C 0.09844 0.99373 0.57114 0.0
C113 C 0.14815 0.00511 0.57284 0.0
C114 C 0.16966 0.03847 0.55939 0.0
C115 C 0.14174 0.06131 0.54402 0.0
C116 C 0.09182 0.04937 0.54201 0.0
C117 C 0.07029 0.01589 0.55558 0.0
C118 C 0.06833 0.96765 0.62519 0.0
C119 C 0.07401 0.93967 0.6447 0.0
C120 C 0.06548 0.94937 0.67174 0.0
C121 C 0.05029 0.98709 0.67983 0.0
C122 C 0.04549 0.0154 0.66017 0.0
C123 C 0.05432 0.00569 0.63309 0.0
P124 P 0.57095 0.56561 0.94721 0.0
H125 H 0.54881 0.61299 0.9954 0.0
H126 H 0.47601 0.64125 0.01056 0.0
H127 H 0.39737 0.57757 0.94369 0.0
H128 H 0.47048 0.55 0.92846 0.0
H129 H 0.66333 0.54935 0.96835 0.0
H130 H 0.69006 0.48986 0.98769 0.0
H131 H 0.5448 0.42847 0.98299 0.0
H132 H 0.51805 0.48867 0.96368 0.0
H133 H 0.58581 0.61798 0.90202 0.0
H134 H 0.54317 0.49053 0.9134 0.0
O135 O 0.61318 0.60531 0.95257 0.0
H136 H 0.57609 0.60577 0.8536 0.0
H137 H 0.53373 0.47797 0.8649 0.0
C138 C 0.51533 0.58033 0.96045 0.0
C139 C 0.51573 0.60478 0.98419 0.0
C140 C 0.47396 0.62067 0.99294 0.0
C141 C 0.43098 0.61214 0.97811 0.0
C142 C 0.43012 0.58542 0.95524 0.0
C143 C 0.47193 0.56955 0.94654 0.0
C144 C 0.58875 0.52332 0.96441 0.0
C145 C 0.63699 0.5234 0.97183 0.0
C146 C 0.65222 0.4894 0.98307 0.0
C147 C 0.61959 0.45436 0.98673 0.0
C148 C 0.57084 0.45489 0.98014 0.0
C149 C 0.55552 0.48922 0.96917 0.0
C150 C 0.56627 0.55508 0.91136 0.0
C151 C 0.57503 0.58722 0.89408 0.0
C152 C 0.56952 0.58017 0.86635 0.0
C153 C 0.55448 0.54081 0.85529 0.0
C154 C 0.54518 0.50867 0.87274 0.0
C155 C 0.55098 0.51577 0.90052 0.0
P156 P 0.5706 0.4495 0.09236 0.0
H157 H 0.5529 0.40068 0.04242 0.0
H158 H 0.47889 0.36774 0.0209 0.0
H159 H 0.3949 0.42428 0.08185 0.0
H160 H 0.46867 0.4581 0.1025 0.0
H161 H 0.67259 0.47532 0.08451 0.0
H162 H 0.71644 0.53523 0.06533 0.0
H163 H 0.58158 0.57804 0.04582 0.0
H164 H 0.53784 0.51731 0.06466 0.0
H165 H 0.5295 0.39989 0.13495 0.0
H166 H 0.58133 0.52646 0.12595 0.0
O167 O 0.60554 0.41208 0.09186 0.0
H168 H 0.50894 0.41509 0.18172 0.0
H169 H 0.56058 0.54197 0.17277 0.0
C170 C 0.51619 0.43066 0.07451 0.0
C171 C 0.51845 0.4063 0.0509 0.0
C172 C 0.47615 0.38742 0.03869 0.0
C173 C 0.43093 0.39272 0.04994 0.0
C174 C 0.42899 0.41955 0.07258 0.0
C175 C 0.47129 0.43857 0.08464 0.0
C176 C 0.60207 0.4919 0.07591 0.0
C177 C 0.65244 0.49732 0.0758 0.0
C178 C 0.67746 0.53169 0.06494 0.0
C179 C 0.6525 0.56163 0.05431 0.0
C180 C 0.60186 0.55542 0.05367 0.0
C181 C 0.57682 0.52087 0.06455 0.0
C182 C 0.55713 0.46192 0.127 0.0
C183 C 0.53651 0.43097 0.14308 0.0
C184 C 0.52441 0.43978 0.16976 0.0
C185 C 0.5329 0.4798 0.18097 0.0
C186 C 0.55391 0.5108 0.1648 0.0
C187 C 0.5657 0.50196 0.13798 0.0
H188 H 0.0243 0.15592 0.02382 0.0
H189 H 0.08111 0.2186 0.02381 0.0
H190 H 0.19871 0.14712 0.01051 0.0
H191 H 0.14277 0.08482 0.01032 0.0
H192 H 0.1609 0.24069 0.0583 0.0
H193 H 0.2192 0.23066 0.95235 0.0
H194 H 0.16495 0.20189 0.96432 0.0
H195 H 0.22258 0.18427 0.96892 0.0
C196 C 0.06225 0.15364 0.02077 0.0
C197 C 0.079 0.11539 0.01702 0.0
C198 C 0.09457 0.18942 0.02072 0.0
C199 C 0.14392 0.18745 0.01661 0.0
C200 C 0.16062 0.14934 0.01305 0.0
H201 H 0.42068 0.31234 0.03352 0.0
H202 H 0.3464 0.26844 0.02249 0.0
C203 C 0.12856 0.11371 0.01318 0.0
C204 C 0.17894 0.22477 0.01748 0.0
H205 H 0.27313 0.27251 0.98282 0.0
C206 C 0.1848 0.24834 0.04164 0.0
C207 C 0.20988 0.23464 0.99565 0.0
C208 C 0.20357 0.21177 0.96876 0.0
C209 C 0.22302 0.27976 0.04517 0.0
C210 C 0.25564 0.28806 0.02381 0.0
C211 C 0.24815 0.26595 0.99918 0.0
C212 C 0.30054 0.3163 0.02762 0.0
C213 C 0.23001 0.30214 0.07222 0.0
C214 C 0.29949 0.35807 0.03333 0.0
C215 C 0.34212 0.38346 0.03947 0.0
C216 C 0.38646 0.36745 0.03994 0.0
C217 C 0.3874 0.32588 0.03299 0.0
C218 C 0.34488 0.30063 0.02684 0.0
H219 H 0.20589 0.28781 0.08775 0.0
H220 H 0.26788 0.30315 0.079 0.0
H221 H 0.22218 0.33396 0.0706 0.0
H222 H 0.26564 0.37083 0.03358 0.0
H223 H 0.34025 0.41545 0.04433 0.0
H224 H 0.12574 0.87071 0.04573 0.0
H225 H 0.16553 0.80871 0.04887 0.0
H226 H 0.21589 0.82037 0.96753 0.0
H227 H 0.17644 0.88172 0.96425 0.0
H228 H 0.16928 0.73587 0.98586 0.0
H229 H 0.32164 0.8154 0.04728 0.0
H230 H 0.26047 0.82268 0.05588 0.0
H231 H 0.28687 0.84325 0.02594 0.0
C232 C 0.14489 0.85969 0.02849 0.0
C233 C 0.14849 0.88127 1.00486 0.0
C234 C 0.16766 0.82448 0.03033 0.0
C235 C 0.19376 0.81026 0.00845 0.0
C236 C 0.19601 0.831 0.98463 0.0
H237 H 0.37335 0.64583 0.94386 0.0
H238 H 0.30959 0.68762 0.95502 0.0
C239 C 0.17377 0.86621 0.98287 0.0
C240 C 0.22076 0.77479 0.01024 0.0
H241 H 0.33001 0.74998 0.02913 0.0
C242 C 0.20402 0.73853 0.99575 0.0
C243 C 0.26582 0.7784 0.02331 0.0
C244 C 0.28517 0.81695 0.03901 0.0
C245 C 0.23222 0.70629 0.99301 0.0
C246 C 0.27889 0.71101 1.00445 0.0
C247 C 0.29435 0.7464 0.02028 0.0
C248 C 0.31412 0.68187 0.99792 0.0
C249 C 0.21205 0.66783 0.97747 0.0
C250 C 0.33858 0.66506 0.01832 0.0
C251 C 0.37548 0.64119 0.01197 0.0
C252 C 0.38871 0.63384 0.98508 0.0
C253 C 0.36341 0.65006 0.96473 0.0
C254 C 0.32677 0.67396 0.97109 0.0
H255 H 0.17213 0.66296 0.97881 0.0
H256 H 0.2217 0.67054 0.95599 0.0
H257 H 0.22666 0.64074 0.98486 0.0
H258 H 0.32969 0.67102 0.03919 0.0
H259 H 0.39408 0.62896 0.02811 0.0
H260 H 0.8387 0.93178 0.01157 0.0
H261 H 0.78502 0.86797 0.01354 0.0
H262 H 0.90787 0.80115 0.01501 0.0
H263 H 0.96189 0.8647 0.01253 0.0
H264 H 0.83323 0.76373 0.98147 0.0
H265 H 0.76576 0.80669 0.08265 0.0
H266 H 0.75862 0.84213 0.05733 0.0
H267 H 0.818 0.83428 0.06778 0.0
C268 C 0.85434 0.90349 0.01215 0.0
C269 C 0.9046 0.90335 0.01214 0.0
C270 C 0.82358 0.86708 0.01336 0.0
C271 C 0.84249 0.82993 0.01485 0.0
C272 C 0.89257 0.82953 0.01394 0.0
H273 H 0.72813 0.60645 0.07999 0.0
H274 H 0.77143 0.67112 0.06763 0.0
C275 C 0.92337 0.8659 0.01261 0.0
C276 C 0.81036 0.7916 0.01848 0.0
H277 H 0.732 0.74382 0.06276 0.0
C278 C 0.8108 0.75938 0.99913 0.0
C279 C 0.78148 0.78601 0.04167 0.0
C280 C 0.78106 0.81892 0.0637 0.0
C281 C 0.78359 0.72144 1.00256 0.0
C282 C 0.7549 0.71588 0.0258 0.0
C283 C 0.75381 0.74834 0.04487 0.0
C284 C 0.72907 0.67572 0.03204 0.0
C285 C 0.78716 0.68715 0.98187 0.0
C286 C 0.69083 0.65674 0.01605 0.0
C287 C 0.66611 0.61935 0.02297 0.0
C288 C 0.6793 0.60047 0.04599 0.0
C289 C 0.71766 0.6197 0.06184 0.0
C290 C 0.74221 0.65687 0.05495 0.0
H291 H 0.81736 0.69426 0.96766 0.0
H292 H 0.79219 0.65864 0.99172 0.0
H293 H 0.75319 0.68155 0.97017 0.0
H294 H 0.6797 0.67107 0.99848 0.0
H295 H 0.63679 0.60521 0.01034 0.0
H296 H 0.85747 0.14684 0.98223 0.0
H297 H 0.81685 0.20761 0.97711 0.0
H298 H 0.75954 0.19696 0.05719 0.0
H299 H 0.79941 0.1363 0.06224 0.0
H300 H 0.69084 0.20944 0.02209 0.0
H301 H 0.85187 0.32203 0.00901 0.0
H302 H 0.84845 0.27921 0.98531 0.0
H303 H 0.85587 0.27172 0.02041 0.0
C304 C 0.83666 0.1578 0.99881 0.0
C305 C 0.83151 0.13665 0.02258 0.0
C306 C 0.81354 0.19257 0.99591 0.0
C307 C 0.78551 0.20715 0.01689 0.0
C308 C 0.78083 0.18628 0.04071 0.0
H309 H 0.6836 0.44577 0.02681 0.0
H310 H 0.72118 0.38482 0.03594 0.0
C311 C 0.80354 0.15148 0.04353 0.0
C312 C 0.75964 0.24332 0.01395 0.0
H313 H 0.77584 0.34438 1.0012 0.0
C314 C 0.70947 0.23899 0.01762 0.0
C315 C 0.78398 0.28202 0.0085 0.0
C316 C 0.83806 0.28926 0.00583 0.0
C317 C 0.68294 0.27209 0.01565 0.0
C318 C 0.70707 0.31045 0.00928 0.0
C319 C 0.75731 0.31493 0.00596 0.0
C320 C 0.68097 0.34623 0.00549 0.0
C321 C 0.62945 0.26578 0.0209 0.0
C322 C 0.64535 0.34468 0.98564 0.0
C323 C 0.62362 0.37934 0.98054 0.0
C324 C 0.63759 0.41644 0.99492 0.0
C325 C 0.67232 0.41768 0.01529 0.0
C326 C 0.69382 0.38291 0.02051 0.0
H327 H 0.61931 0.2391 0.03327 0.0
H328 H 0.6171 0.29308 0.03127 0.0
H329 H 0.61006 0.25996 1.0015 0.0
H330 H 0.63558 0.31705 0.97337 0.0
H331 H 0.59761 0.37758 0.96441 0.0
H332 H 0.63543 0.58275 0.5297 0.0
H333 H 0.6915 0.64499 0.53204 0.0
H334 H 0.57531 0.71533 0.51695 0.0
H335 H 0.51824 0.65279 0.51541 0.0
H336 H 0.71519 0.69897 0.49418 0.0
H337 H 0.63697 0.77531 0.58301 0.0
H338 H 0.61916 0.72249 0.57327 0.0
H339 H 0.59677 0.76183 0.55519 0.0
C340 C 0.62161 0.61143 0.527 0.0
C341 C 0.57234 0.61289 0.52249 0.0
C342 C 0.65378 0.64701 0.52827 0.0
C343 C 0.6376 0.68486 0.52489 0.0
C344 C 0.58845 0.68653 0.52013 0.0
H345 H 0.8735 0.88712 0.51277 0.0
H346 H 0.79928 0.84225 0.5011 0.0
C347 C 0.55595 0.6508 0.51916 0.0
C348 C 0.67298 0.72205 0.52634 0.0
H349 H 0.70702 0.80916 0.56439 0.0
C350 C 0.71322 0.72336 0.50932 0.0
C351 C 0.67024 0.75372 0.54616 0.0
C352 C 0.62872 0.75333 0.56562 0.0
C353 C 0.75204 0.75424 0.51249 0.0
C354 C 0.74983 0.78542 0.53273 0.0
C355 C 0.70847 0.78528 0.54883 0.0
C356 C 0.79225 0.81533 0.5398 0.0
C357 C 0.79621 0.75168 0.49527 0.0
C358 C 0.81188 0.81611 0.56564 0.0
C359 C 0.85359 0.84192 0.57239 0.0
C360 C 0.87673 0.8675 0.55342 0.0
C361 C 0.85661 0.86738 0.52767 0.0
C362 C 0.81437 0.84175 0.52099 0.0
H363 H 0.79584 0.72137 0.48464 0.0
H364 H 0.7977 0.7749 0.47993 0.0
H365 H 0.82949 0.75778 0.50756 0.0
H366 H 0.79558 0.79588 0.58044 0.0
H367 H 0.86857 0.84095 0.59228 0.0
H368 H 0.68638 0.39086 0.46818 0.0
H369 H 0.73144 0.33293 0.4714 0.0
H370 H 0.66464 0.30624 0.54755 0.0
H371 H 0.61947 0.36521 0.54468 0.0
H372 H 0.79584 0.32537 0.51741 0.0
H373 H 0.65246 0.19466 0.49957 0.0
H374 H 0.64654 0.24459 0.48794 0.0
H375 H 0.64135 0.2357 0.523 0.0
C376 C 0.68123 0.37288 0.4857 0.0
C377 C 0.64983 0.38308 0.50639 0.0
C378 C 0.7068 0.33957 0.4874 0.0
C379 C 0.7014 0.3154 0.50969 0.0
C380 C 0.66899 0.32444 0.53008 0.0
H381 H 0.92225 0.15191 0.53144 0.0
H382 H 0.86051 0.19649 0.54269 0.0
C383 C 0.64321 0.35803 0.5284 0.0
C384 C 0.73221 0.2824 0.5118 0.0
H385 H 0.73231 0.17957 0.50264 0.0
C386 C 0.78199 0.2934 0.51467 0.0
C387 C 0.71384 0.2409 0.50796 0.0
C388 C 0.66065 0.2279 0.50433 0.0
C389 C 0.8142 0.2641 0.51282 0.0
C390 C 0.79602 0.22256 0.50834 0.0
C391 C 0.74605 0.2114 0.50629 0.0
C392 C 0.82882 0.19112 0.50305 0.0
C393 C 0.86759 0.27807 0.5142 0.0
C394 C 0.8302 0.17209 0.47737 0.0
C395 C 0.86539 0.14671 0.47087 0.0
C396 C 0.89989 0.13976 0.48998 0.0
C397 C 0.89677 0.15719 0.51614 0.0
C398 C 0.86145 0.18257 0.52263 0.0
H399 H 0.87574 0.31158 0.51288 0.0
H400 H 0.88198 0.26962 0.53354 0.0
H401 H 0.88684 0.26302 0.49774 0.0
H402 H 0.80542 0.17838 0.46195 0.0
H403 H 0.86698 0.13421 0.45047 0.0
H404 H 0.33477 0.42891 0.5169 0.0
H405 H 0.28062 0.36522 0.51613 0.0
H406 H 0.40189 0.29716 0.50604 0.0
H407 H 0.45665 0.36088 0.50665 0.0
H408 H 0.31715 0.26987 0.47155 0.0
H409 H 0.27355 0.28819 0.58005 0.0
H410 H 0.26654 0.33101 0.56032 0.0
H411 H 0.32544 0.31629 0.56511 0.0
C412 C 0.35004 0.40045 0.51441 0.0
C413 C 0.40011 0.39997 0.51204 0.0
C414 C 0.31899 0.3641 0.51401 0.0
C415 C 0.33735 0.32659 0.5113 0.0
C416 C 0.38712 0.32589 0.50819 0.0
H417 H 0.22913 0.0736 0.51881 0.0
H418 H 0.27289 0.13862 0.5071 0.0
C419 C 0.41831 0.36229 0.50864 0.0
C420 C 0.3047 0.28813 0.51275 0.0
H421 H 0.23167 0.23229 0.55573 0.0
C422 C 0.29834 0.26157 0.48991 0.0
C423 C 0.28015 0.27761 0.53671 0.0
C424 C 0.28687 0.30452 0.56205 0.0
C425 C 0.26774 0.22467 0.49039 0.0
C426 C 0.24375 0.21387 0.5145 0.0
C427 C 0.24979 0.24075 0.53721 0.0
C428 C 0.21456 0.17387 0.5174 0.0
C429 C 0.26099 0.19784 0.46505 0.0
C430 C 0.16702 0.17192 0.52684 0.0
C431 C 0.14217 0.13484 0.53399 0.0
C432 C 0.1646 0.09905 0.53201 0.0
C433 C 0.21117 0.10075 0.52102 0.0
C434 C 0.23602 0.13783 0.51395 0.0
H435 H 0.26882 0.21565 0.44692 0.0
H436 H 0.28628 0.17452 0.4652 0.0
H437 H 0.22374 0.18193 0.46351 0.0
H438 H 0.14985 0.19941 0.52974 0.0
H439 H 0.10649 0.13471 0.54253 0.0
H440 H 0.35802 0.64694 0.48653 0.0
H441 H 0.31816 0.70805 0.48156 0.0
H442 H 0.24516 0.68819 0.55692 0.0
H443 H 0.28483 0.62751 0.5621 0.0
H444 H 0.18382 0.70319 0.51651 0.0
H445 H 0.34447 0.81942 0.52166 0.0
H446 H 0.34841 0.77881 0.49683 0.0
H447 H 0.34594 0.76803 0.53178 0.0
C448 C 0.33398 0.65588 0.5022 0.0
C449 C 0.32452 0.63213 0.52464 0.0
C450 C 0.31124 0.69085 0.49935 0.0
C451 C 0.279 0.7029 0.51901 0.0
C452 C 0.26982 0.67944 0.54149 0.0
H453 H 0.16449 0.9372 0.52987 0.0
H454 H 0.20189 0.87655 0.54016 0.0
C455 C 0.2924 0.64456 0.54433 0.0
C456 C 0.25334 0.73906 0.51583 0.0
H457 H 0.27065 0.84188 0.50905 0.0
C458 C 0.20279 0.73355 0.51498 0.0
C459 C 0.2781 0.77873 0.51426 0.0
C460 C 0.3322 0.78683 0.51642 0.0
C461 C 0.17636 0.76647 0.51203 0.0
C462 C 0.20118 0.80591 0.50946 0.0
C463 C 0.25168 0.81159 0.51089 0.0
C464 C 0.17556 0.84147 0.50436 0.0
C465 C 0.12209 0.75878 0.51194 0.0
C466 C 0.14805 0.84175 0.48098 0.0
C467 C 0.12668 0.87623 0.47509 0.0
C468 C 0.13274 0.91136 0.49235 0.0
C469 C 0.15947 0.91073 0.51608 0.0
C470 C 0.18079 0.87612 0.52199 0.0
H471 H 0.10886 0.73016 0.52175 0.0
H472 H 0.10613 0.78437 0.52234 0.0
H473 H 0.10906 0.75578 0.4909 0.0
H474 H 0.14439 0.81573 0.4668 0.0
H475 H 0.10716 0.87596 0.45639 0.0
H476 H 0.93807 0.033 0.1033 0.0
H477 H 0.9464 0.03481 0.15216 0.0
H478 H 0.07779 0.97962 0.14377 0.0
H479 H 0.06991 0.97772 0.09487 0.0
H480 H 0.95476 0.96822 0.1868 0.0
H481 H 0.11519 0.08521 0.19152 0.0
H482 H 0.07671 0.07638 0.16236 0.0
H483 H 0.11955 0.04188 0.16887 0.0
C484 C 0.96874 0.02118 0.11181 0.0
C485 C 0.00348 0.00542 0.09513 0.0
C486 C 0.97338 0.02219 0.13975 0.0
C487 C 0.01301 0.00784 0.15158 0.0
C488 C 0.0473 0.99142 0.13504 0.0
H489 H 0.11135 0.00974 0.31705 0.0
H490 H 0.10181 0.99978 0.26842 0.0
C491 C 0.0426 0.9902 0.10709 0.0
C492 C 0.01852 0.01027 0.18122 0.0
H493 H 0.08951 0.05624 0.23219 0.0
C494 C 0.98417 0.98747 0.19677 0.0
C495 C 0.05702 0.0353 0.19414 0.0
C496 C 0.09411 0.06139 0.17847 0.0
C497 C 0.98759 0.98867 0.22491 0.0
C498 C 0.02578 0.01412 0.23789 0.0
C499 C 0.06027 0.03671 0.22227 0.0
C500 C 0.03034 0.01832 0.26763 0.0
C501 C 0.95079 0.962 0.2404 0.0
C502 C 0.99344 0.03221 0.28346 0.0
C503 C 0.99856 0.03753 0.31133 0.0
C504 C 0.04096 0.02949 0.32404 0.0
C505 C 0.07788 0.0156 0.30808 0.0
C506 C 0.07265 0.01018 0.28021 0.0
H507 H 0.9333 0.93602 0.22759 0.0
H508 H 0.9674 0.94982 0.25796 0.0
H509 H 0.92227 0.98027 0.24779 0.0
H510 H 0.96086 0.03954 0.27422 0.0
H511 H 0.9692 0.04794 0.32293 0.0
H512 H 0.03757 0.97315 0.92868 0.0
H513 H 0.04274 0.97801 0.8803 0.0
H514 H 0.93842 0.06377 0.88337 0.0
H515 H 0.93236 0.05865 0.93233 0.0
H516 H 0.92217 0.00484 0.84134 0.0
H517 H 0.11238 0.07339 0.84178 0.0
H518 H 0.10431 0.02739 0.85962 0.0
H519 H 0.07611 0.07078 0.87182 0.0
C520 C 0.01557 0.99312 0.9192 0.0
C521 C 0.98477 0.01578 0.93448 0.0
C522 C 0.01887 0.99604 0.89148 0.0
C523 C 0.99191 0.022 0.87827 0.0
C524 C 0.95996 0.04386 0.89323 0.0
H525 H 0.06873 0.0596 0.70949 0.0
H526 H 0.04945 0.07349 0.75672 0.0
C527 C 0.95648 0.04086 0.92116 0.0
C528 C 0.99712 0.02536 0.84878 0.0
H529 H 0.08214 0.04146 0.79986 0.0
C530 C 0.95697 0.01345 0.83224 0.0
C531 C 0.04231 0.03742 0.83686 0.0
C532 C 0.0861 0.05339 0.85346 0.0
C533 C 0.96143 0.01097 0.80414 0.0
C534 C 0.00745 0.01981 0.79232 0.0
C535 C 0.04698 0.03405 0.80885 0.0
C536 C 0.01605 0.01232 0.76314 0.0
C537 C 0.9168 0.99863 0.78744 0.0
C538 C 0.00401 0.9733 0.751 0.0
C539 C 0.01457 0.96537 0.72399 0.0
C540 C 0.03813 0.99614 0.70849 0.0
C541 C 0.0501 0.03529 0.72068 0.0
C542 C 0.0393 0.04324 0.74774 0.0
H543 H 0.8841 0.00682 0.79811 0.0
H544 H 0.91931 0.01326 0.76787 0.0
H545 H 0.91224 0.96511 0.78359 0.0
H546 H 0.98718 0.94863 0.76255 0.0
H547 H 0.00416 0.93501 0.71526 0.0
H548 H 0.56215 0.47268 0.59772 0.0
H549 H 0.57033 0.47606 0.64657 0.0
H550 H 0.43991 0.5329 0.65423 0.0
H551 H 0.43195 0.53038 0.6054 0.0
H552 H 0.51155 0.57303 0.68477 0.0
H553 H 0.49748 0.4082 0.70233 0.0
H554 H 0.54353 0.42432 0.67865 0.0
H555 H 0.48142 0.42723 0.67077 0.0
C556 C 0.53492 0.48555 0.60978 0.0
C557 C 0.49635 0.50122 0.59759 0.0
C558 C 0.53951 0.48723 0.63776 0.0
C559 C 0.50537 0.50419 0.65416 0.0
C560 C 0.46661 0.51952 0.64203 0.0
H561 H 0.4812 0.49315 0.82832 0.0
H562 H 0.46898 0.48393 0.77973 0.0
C563 C 0.46209 0.51801 0.61408 0.0
C564 C 0.51129 0.50796 0.68385 0.0
H565 H 0.5241 0.45365 0.73929 0.0
C566 C 0.51407 0.54688 0.69669 0.0
C567 C 0.51395 0.47382 0.6995 0.0
C568 C 0.50846 0.43099 0.68718 0.0
C569 C 0.5203 0.5527 0.72459 0.0
C570 C 0.52492 0.51876 0.74011 0.0
C571 C 0.52116 0.47972 0.72737 0.0
C572 C 0.53336 0.52323 0.76959 0.0
C573 C 0.52104 0.59513 0.73722 0.0
C574 C 0.57415 0.54767 0.78009 0.0
C575 C 0.5812 0.55301 0.80783 0.0
C576 C 0.54788 0.53368 0.82573 0.0
C577 C 0.50775 0.50826 0.81513 0.0
C578 C 0.50062 0.50307 0.78735 0.0
H579 H 0.50368 0.61524 0.7241 0.0
H580 H 0.5024 0.59464 0.75692 0.0
H581 H 0.55894 0.60866 0.74048 0.0
H582 H 0.60059 0.56268 0.7668 0.0
H583 H 0.61297 0.57214 0.81527 0.0
H584 H 0.41471 0.54179 0.43396 0.0
H585 H 0.41443 0.54014 0.38461 0.0
H586 H 0.54533 0.48362 0.38306 0.0
H587 H 0.54578 0.48473 0.43182 0.0
H588 H 0.48566 0.57335 0.34746 0.0
H589 H 0.45262 0.40519 0.33566 0.0
H590 H 0.44301 0.43274 0.36698 0.0
H591 H 0.50269 0.42289 0.35725 0.0
C592 C 0.4434 0.52905 0.42307 0.0
C593 C 0.47996 0.51301 0.43688 0.0
C594 C 0.44322 0.52817 0.3949 0.0
C595 C 0.4794 0.51106 0.38018 0.0
C596 C 0.51651 0.49615 0.39398 0.0
H597 H 0.58638 0.52828 0.21875 0.0
H598 H 0.56809 0.53886 0.26639 0.0
C599 C 0.51673 0.49697 0.42194 0.0
C600 C 0.47894 0.50831 0.35038 0.0
H601 H 0.48179 0.44014 0.29697 0.0
C602 C 0.4842 0.54425 0.33635 0.0
C603 C 0.47631 0.4703 0.33587 0.0
C604 C 0.46786 0.43056 0.34968 0.0
C605 C 0.48906 0.54321 0.30824 0.0
C606 C 0.48946 0.50524 0.2939 0.0
C607 C 0.48206 0.4693 0.30791 0.0
C608 C 0.49877 0.5018 0.26453 0.0
C609 C 0.49369 0.58276 0.29421 0.0
C610 C 0.46631 0.47702 0.24759 0.0
C611 C 0.47692 0.47062 0.2204 0.0
C612 C 0.52032 0.4888 0.20952 0.0
C613 C 0.55236 0.51429 0.22639 0.0
C614 C 0.54183 0.52049 0.25364 0.0
H615 H 0.47763 0.60677 0.30631 0.0
H616 H 0.5324 0.59355 0.29131 0.0
H617 H 0.47599 0.57887 0.27424 0.0
H618 H 0.43293 0.46217 0.2555 0.0
H619 H 0.45119 0.45121 0.2079 0.0
loop_
_geom_bond_atom_site_label_1
_geom_bond_atom_site_label_2
_geom_bond_distance
_geom_bond_site_symmetry_2
_ccdc_geom_bond_type
Co0 N5 2.057 . S
Co0 O17 2.021 . S
Co0 O20 2.062 1_455 S
Co0 O24 2.117 1_554 S
Co0 O25 2.020 1_565 S
C1 O21 1.259 1_455 S
C1 O24 1.258 1_545 S
Co2 N11 2.057 . S
Co2 O18 2.117 . S
Co2 O19 2.020 1_545 S
Co2 O21 2.021 1_554 S
Co2 O26 2.062 1_655 S
C3 N5 1.316 . S
C3 N6 1.347 . S
C3 H8 0.931 . S
C4 N5 1.375 1_556 S
C4 C7 1.350 . S
C4 H9 0.930 . S
N5 Co0 2.057 . S
N5 C3 1.316 . S
N5 C4 1.375 1_554 S
N6 C3 1.347 . S
N6 C7 1.373 1_554 S
C7 C4 1.350 . S
C7 N6 1.373 1_556 S
C7 H28 0.931 . S
H8 C3 0.931 . S
H9 C4 0.930 . S
C10 O17 1.259 1_545 S
C10 O18 1.258 1_455 S
N11 Co2 2.057 . S
N11 C12 1.316 . S
N11 C13 1.375 . S
C12 N11 1.316 . S
C12 N14 1.347 . S
C12 H23 0.931 1_554 S
C13 N11 1.375 . S
C13 C15 1.350 . S
C13 H22 0.930 . S
N14 C12 1.347 . S
N14 C15 1.373 . S
C15 C13 1.350 . S
C15 N14 1.373 . S
C15 H29 0.931 . S
C16 O19 1.256 . S
C16 O20 1.255 . S
O17 Co0 2.021 . S
O17 C10 1.259 1_565 S
O18 Co2 2.117 . S
O18 C10 1.258 1_655 S
O19 Co2 2.020 1_565 S
O19 C16 1.256 . S
O20 Co0 2.062 1_655 S
O20 C16 1.255 . S
O21 C1 1.259 1_655 S
O21 Co2 2.021 1_556 S
H22 C13 0.930 . S
H23 C12 0.931 1_556 S
O24 Co0 2.117 1_556 S
O24 C1 1.258 1_565 S
O25 Co0 2.020 1_545 S
O25 C27 1.256 . S
O26 Co2 2.062 1_455 S
O26 C27 1.255 . S
C27 O25 1.256 . S
C27 O26 1.255 . S
H28 C7 0.931 . S
H29 C15 0.931 . S
Co30 N35 2.057 . S
Co30 O47 2.021 . S
Co30 O50 2.062 . S
Co30 O54 2.117 . S
Co30 O55 2.020 . S
C31 O51 1.259 . S
C31 O54 1.258 . S
Co32 N41 2.057 . S
Co32 O48 2.117 . S
Co32 O49 2.020 . S
Co32 O51 2.021 . S
Co32 O56 2.062 . S
C33 N35 1.316 . S
C33 N36 1.347 . S
C33 H38 0.931 . S
C34 N35 1.375 . S
C34 C37 1.350 . S
C34 H39 0.930 . S
N35 Co30 2.057 . S
N35 C33 1.316 . S
N35 C34 1.375 . S
N36 C33 1.347 . S
N36 C37 1.373 . S
C37 C34 1.350 . S
C37 N36 1.373 . S
C37 H58 0.931 . S
H38 C33 0.931 . S
H39 C34 0.930 . S
C40 O47 1.259 . S
C40 O48 1.258 . S
N41 Co32 2.057 . S
N41 C42 1.316 . S
N41 C43 1.375 . S
C42 N41 1.316 . S
C42 N44 1.347 . S
C42 H53 0.931 . S
C43 N41 1.375 . S
C43 C45 1.350 . S
C43 H52 0.930 . S
N44 C42 1.347 . S
N44 C45 1.373 . S
C45 C43 1.350 . S
C45 N44 1.373 . S
C45 H59 0.931 . S
C46 O49 1.256 . S
C46 O50 1.255 . S
O47 Co30 2.021 . S
O47 C40 1.259 . S
O48 Co32 2.117 . S
O48 C40 1.258 . S
O49 Co32 2.020 . S
O49 C46 1.256 . S
O50 Co30 2.062 . S
O50 C46 1.255 . S
O51 C31 1.259 . S
O51 Co32 2.021 . S
H52 C43 0.930 . S
H53 C42 0.931 . S
O54 Co30 2.117 . S
O54 C31 1.258 . S
O55 Co30 2.020 . S
O55 C57 1.256 . S
O56 Co32 2.062 . S
O56 C57 1.255 . S
C57 O55 1.256 . S
C57 O56 1.255 . S
H58 C37 0.931 . S
H59 C45 0.931 . S
P60 O71 1.490 . S
P60 C74 1.812 . S
P60 C80 1.803 1_545 S
P60 C86 1.819 . S
H61 C75 0.941 . S
H62 C76 0.939 . S
H63 C78 0.940 . S
H64 C79 0.940 . S
H65 C81 0.939 1_545 S
H66 C82 0.942 . S
H67 C84 0.940 . S
H68 C85 0.939 . S
H69 C87 0.941 . S
H70 C91 0.939 . S
O71 P60 1.490 . S
H72 C88 0.939 . S
H73 C90 0.940 . S
C74 P60 1.812 . S
C74 C75 1.389 . S
C74 C79 1.391 1_455 S
C75 H61 0.941 . S
C75 C74 1.389 . S
C75 C76 1.397 1_455 S
C76 H62 0.939 . S
C76 C75 1.397 1_655 S
C76 C77 1.378 . S
C77 C76 1.378 . S
C77 C78 1.378 . S
C78 H63 0.940 . S
C78 C77 1.378 . S
C78 C79 1.396 . S
C79 H64 0.940 . S
C79 C74 1.391 1_655 S
C79 C78 1.396 . S
C80 P60 1.803 1_565 S
C80 C81 1.378 . S
C80 C85 1.400 . S
C81 H65 0.939 1_565 S
C81 C80 1.378 . S
C81 C82 1.361 . S
C82 H66 0.942 . S
C82 C81 1.361 . S
C82 C83 1.369 . S
C83 C82 1.369 . S
C83 C84 1.404 . S
C84 H67 0.940 . S
C84 C83 1.404 . S
C84 C85 1.389 . S
C85 H68 0.939 . S
C85 C80 1.400 . S
C85 C84 1.389 . S
C86 P60 1.819 . S
C86 C87 1.391 . S
C86 C91 1.391 1_545 S
C87 H69 0.941 . S
C87 C86 1.391 . S
C87 C88 1.396 . S
C88 H72 0.939 . S
C88 C87 1.396 . S
C88 C89 1.397 . S
C89 C88 1.397 . S
C89 C90 1.385 1_545 S
C90 H73 0.940 . S
C90 C89 1.385 1_565 S
C90 C91 1.388 . S
C91 H70 0.939 . S
C91 C86 1.391 1_565 S
C91 C90 1.388 . S
P92 O103 1.490 . S
P92 C106 1.813 1_455 S
P92 C112 1.803 1_565 S
P92 C118 1.819 . S
H93 C107 0.941 . S
H94 C108 0.939 . S
H95 C110 0.940 . S
H96 C111 0.940 . S
H97 C113 0.939 . S
H98 C114 0.942 . S
H99 C116 0.940 . S
H100 C117 0.939 . S
H101 C119 0.941 . S
H102 C123 0.939 . S
O103 P92 1.490 . S
H104 C120 0.939 . S
H105 C122 0.940 . S
C106 P92 1.813 1_655 S
C106 C107 1.389 1_655 S
C106 C111 1.390 . S
C107 H93 0.941 . S
C107 C106 1.389 1_455 S
C107 C108 1.397 1_455 S
C108 H94 0.939 . S
C108 C107 1.397 1_655 S
C108 C109 1.378 . S
C109 C108 1.378 . S
C109 C110 1.378 . S
C110 H95 0.940 . S
C110 C109 1.378 . S
C110 C111 1.396 . S
C111 H96 0.940 . S
C111 C106 1.390 . S
C111 C110 1.396 . S
C112 P92 1.803 1_545 S
C112 C113 1.378 . S
C112 C117 1.400 . S
C113 H97 0.939 . S
C113 C112 1.378 . S
C113 C114 1.361 . S
C114 H98 0.942 . S
C114 C113 1.361 . S
C114 C115 1.369 . S
C115 C114 1.369 . S
C115 C116 1.404 . S
C116 H99 0.940 . S
C116 C115 1.404 . S
C116 C117 1.389 . S
C117 H100 0.939 . S
C117 C112 1.400 . S
C117 C116 1.389 . S
C118 P92 1.819 . S
C118 C119 1.391 . S
C118 C123 1.391 1_565 S
C119 H101 0.941 . S
C119 C118 1.391 . S
C119 C120 1.396 . S
C120 H104 0.939 . S
C120 C119 1.396 . S
C120 C121 1.397 1_565 S
C121 C120 1.397 1_545 S
C121 C122 1.385 . S
C122 H105 0.940 . S
C122 C121 1.385 . S
C122 C123 1.388 . S
C123 H102 0.939 . S
C123 C118 1.391 1_545 S
C123 C122 1.388 . S
P124 O135 1.490 . S
P124 C138 1.812 . S
P124 C144 1.803 . S
P124 C150 1.819 . S
H125 C139 0.941 . S
H126 C140 0.939 . S
H127 C142 0.940 . S
H128 C143 0.940 . S
H129 C145 0.939 . S
H130 C146 0.942 . S
H131 C148 0.940 . S
H132 C149 0.939 . S
H133 C151 0.941 . S
H134 C155 0.939 . S
O135 P124 1.490 . S
H136 C152 0.939 . S
H137 C154 0.940 . S
C138 P124 1.812 . S
C138 C139 1.389 . S
C138 C143 1.391 . S
C139 H125 0.941 . S
C139 C138 1.389 . S
C139 C140 1.397 . S
C140 H126 0.939 . S
C140 C139 1.397 . S
C140 C141 1.378 . S
C141 C140 1.378 . S
C141 C142 1.378 . S
C142 H127 0.940 . S
C142 C141 1.378 . S
C142 C143 1.396 . S
C143 H128 0.940 . S
C143 C138 1.391 . S
C143 C142 1.396 . S
C144 P124 1.803 . S
C144 C145 1.378 . S
C144 C149 1.400 . S
C145 H129 0.939 . S
C145 C144 1.378 . S
C145 C146 1.361 . S
C146 H130 0.942 . S
C146 C145 1.361 . S
C146 C147 1.369 . S
C147 C146 1.369 . S
C147 C148 1.404 . S
C148 H131 0.940 . S
C148 C147 1.404 . S
C148 C149 1.389 . S
C149 H132 0.939 . S
C149 C144 1.400 . S
C149 C148 1.389 . S
C150 P124 1.819 . S
C150 C151 1.391 . S
C150 C155 1.391 . S
C151 H133 0.941 . S
C151 C150 1.391 . S
C151 C152 1.396 . S
C152 H136 0.939 . S
C152 C151 1.396 . S
C152 C153 1.397 . S
C153 C152 1.397 . S
C153 C154 1.385 . S
C154 H137 0.940 . S
C154 C153 1.385 . S
C154 C155 1.388 . S
C155 H134 0.939 . S
C155 C150 1.391 . S
C155 C154 1.388 . S
P156 O167 1.490 . S
P156 C170 1.812 . S
P156 C176 1.803 . S
P156 C182 1.819 . S
H157 C171 0.941 . S
H158 C172 0.939 . S
H159 C174 0.940 . S
H160 C175 0.940 . S
H161 C177 0.939 . S
H162 C178 0.942 . S
H163 C180 0.940 . S
H164 C181 0.939 . S
H165 C183 0.941 . S
H166 C187 0.939 . S
O167 P156 1.490 . S
H168 C184 0.939 . S
H169 C186 0.940 . S
C170 P156 1.812 . S
C170 C171 1.389 . S
C170 C175 1.391 . S
C171 H157 0.941 . S
C171 C170 1.389 . S
C171 C172 1.397 . S
C172 H158 0.939 . S
C172 C171 1.397 . S
C172 C173 1.378 . S
C173 C172 1.378 . S
C173 C174 1.378 . S
C174 H159 0.940 . S
C174 C173 1.378 . S
C174 C175 1.396 . S
C175 H160 0.940 . S
C175 C170 1.391 . S
C175 C174 1.396 . S
C176 P156 1.803 . S
C176 C177 1.378 . S
C176 C181 1.400 . S
C177 H161 0.939 . S
C177 C176 1.378 . S
C177 C178 1.361 . S
C178 H162 0.942 . S
C178 C177 1.361 . S
C178 C179 1.369 . S
C179 C178 1.369 . S
C179 C180 1.404 . S
C180 H163 0.940 . S
C180 C179 1.404 . S
C180 C181 1.389 . S
C181 H164 0.939 . S
C181 C176 1.400 . S
C181 C180 1.389 . S
C182 P156 1.819 . S
C182 C183 1.391 . S
C182 C187 1.391 . S
C183 H165 0.941 . S
C183 C182 1.391 . S
C183 C184 1.396 . S
C184 H168 0.939 . S
C184 C183 1.396 . S
C184 C185 1.397 . S
C185 C184 1.397 . S
C185 C186 1.385 . S
C186 H169 0.940 . S
C186 C185 1.385 . S
C186 C187 1.388 . S
C187 H166 0.939 . S
C187 C182 1.391 . S
C187 C186 1.388 . S
H188 C196 0.929 . S
H189 C198 0.930 . S
H190 C200 0.930 . S
H191 C203 0.929 . S
H192 C206 0.930 . S
H193 C208 0.960 . S
H194 C208 0.960 . S
H195 C208 0.960 . S
C196 H188 0.929 . S
C196 C197 1.377 . S
C196 C198 1.384 . S
C197 C196 1.377 . S
C197 C203 1.390 . S
C198 H189 0.930 . S
C198 C196 1.384 . S
C198 C199 1.372 . S
C199 C198 1.372 . S
C199 C200 1.400 . S
C199 C204 1.490 . S
C200 H190 0.930 . S
C200 C199 1.400 . S
C200 C203 1.386 . S
H201 C217 0.930 . S
H202 C218 0.931 . S
C203 H191 0.929 . S
C203 C197 1.390 . S
C203 C200 1.386 . S
C204 C199 1.490 . S
C204 C206 1.395 . S
C204 C207 1.403 . S
H205 C211 0.914 1_556 S
C206 H192 0.930 . S
C206 C204 1.395 . S
C206 C209 1.403 . S
C207 C204 1.403 . S
C207 C208 1.524 1_554 S
C207 C211 1.400 . S
C208 H193 0.960 . S
C208 H194 0.960 . S
C208 H195 0.960 . S
C208 C207 1.524 1_556 S
C209 C206 1.403 . S
C209 C210 1.392 . S
C209 C213 1.495 . S
C210 C209 1.392 . S
C210 C211 1.385 . S
C210 C212 1.478 . S
C211 H205 0.914 1_554 S
C211 C207 1.400 . S
C211 C210 1.385 . S
C212 C210 1.478 . S
C212 C214 1.381 . S
C212 C218 1.383 . S
C213 C209 1.495 . S
C213 H219 0.959 . S
C213 H220 0.961 . S
C213 H221 0.960 . S
C214 C212 1.381 . S
C214 C215 1.394 . S
C214 H222 0.930 . S
C215 C214 1.394 . S
C215 C216 1.383 . S
C215 H223 0.929 . S
C216 C215 1.383 . S
C216 C217 1.377 . S
C217 H201 0.930 . S
C217 C216 1.377 . S
C217 C218 1.379 . S
C218 H202 0.931 . S
C218 C212 1.383 . S
C218 C217 1.379 . S
H219 C213 0.959 . S
H220 C213 0.961 . S
H221 C213 0.960 . S
H222 C214 0.930 . S
H223 C215 0.929 . S
H224 C232 0.929 . S
H225 C234 0.930 . S
H226 C236 0.930 . S
H227 C239 0.929 . S
H228 C242 0.930 1_554 S
H229 C244 0.961 . S
H230 C244 0.956 1_554 S
H231 C244 0.963 . S
C232 H224 0.929 . S
C232 C233 1.377 . S
C232 C234 1.384 . S
C233 C232 1.377 . S
C233 C239 1.390 1_554 S
C234 H225 0.930 . S
C234 C232 1.384 . S
C234 C235 1.372 . S
C235 C234 1.372 . S
C235 C236 1.400 1_554 S
C235 C240 1.487 1_554 S
C236 H226 0.930 . S
C236 C235 1.400 1_556 S
C236 C239 1.386 . S
H237 C253 0.930 . S
H238 C254 0.931 . S
C239 H227 0.929 . S
C239 C233 1.390 1_556 S
C239 C236 1.386 . S
C240 C235 1.487 1_556 S
C240 C242 1.395 . S
C240 C243 1.405 . S
H241 C247 0.930 . S
C242 H228 0.930 1_556 S
C242 C240 1.395 . S
C242 C245 1.403 . S
C243 C240 1.405 . S
C243 C244 1.524 . S
C243 C247 1.400 . S
C244 H229 0.961 . S
C244 H230 0.956 1_556 S
C244 H231 0.963 . S
C244 C243 1.524 . S
C245 C242 1.403 . S
C245 C246 1.392 . S
C245 C249 1.495 . S
C246 C245 1.392 . S
C246 C247 1.385 . S
C246 C248 1.478 . S
C247 H241 0.930 . S
C247 C243 1.400 . S
C247 C246 1.385 . S
C248 C246 1.478 . S
C248 C250 1.381 1_556 S
C248 C254 1.383 . S
C249 C245 1.495 . S
C249 H255 0.959 . S
C249 H256 0.961 . S
C249 H257 0.960 1_556 S
C250 C248 1.381 1_554 S
C250 C251 1.393 1_554 S
C250 H258 0.930 . S
C251 C250 1.393 1_556 S
C251 C252 1.391 . S
C251 H259 0.922 1_556 S
C252 C251 1.391 . S
C252 C253 1.377 . S
C253 H237 0.930 . S
C253 C252 1.377 . S
C253 C254 1.379 . S
C254 H238 0.931 . S
C254 C248 1.383 . S
C254 C253 1.379 . S
H255 C249 0.959 . S
H256 C249 0.961 . S
H257 C249 0.960 1_554 S
H258 C250 0.930 . S
H259 C251 0.922 1_554 S
H260 C268 0.929 . S
H261 C270 0.930 . S
H262 C272 0.930 . S
H263 C275 0.929 . S
H264 C278 0.930 . S
H265 C280 0.960 . S
H266 C280 0.960 . S
H267 C280 0.960 . S
C268 H260 0.929 . S
C268 C269 1.377 1_556 S
C268 C270 1.384 . S
C269 C268 1.377 1_554 S
C269 C275 1.390 . S
C270 H261 0.930 . S
C270 C268 1.384 . S
C270 C271 1.372 1_556 S
C271 C270 1.372 1_554 S
C271 C272 1.400 . S
C271 C276 1.490 . S
C272 H262 0.930 . S
C272 C271 1.400 . S
C272 C275 1.386 . S
H273 C289 0.930 . S
H274 C290 0.931 . S
C275 H263 0.929 . S
C275 C269 1.390 . S
C275 C272 1.386 . S
C276 C271 1.490 . S
C276 C278 1.395 . S
C276 C279 1.403 . S
H277 C283 0.930 . S
C278 H264 0.930 . S
C278 C276 1.395 . S
C278 C281 1.403 . S
C279 C276 1.403 . S
C279 C280 1.524 . S
C279 C283 1.400 . S
C280 H265 0.960 . S
C280 H266 0.960 . S
C280 H267 0.960 . S
C280 C279 1.524 . S
C281 C278 1.403 . S
C281 C282 1.392 . S
C281 C285 1.495 . S
C282 C281 1.392 . S
C282 C283 1.385 . S
C282 C284 1.478 . S
C283 H277 0.930 . S
C283 C279 1.400 . S
C283 C282 1.385 . S
C284 C282 1.478 . S
C284 C286 1.381 . S
C284 C290 1.383 . S
C285 C281 1.495 . S
C285 H291 0.959 1_554 S
C285 H292 0.961 . S
C285 H293 0.960 1_554 S
C286 C284 1.381 . S
C286 C287 1.394 . S
C286 H294 0.930 1_554 S
C287 C286 1.394 . S
C287 C288 1.383 . S
C287 H295 0.929 . S
C288 C287 1.383 . S
C288 C289 1.377 . S
C289 H273 0.930 . S
C289 C288 1.377 . S
C289 C290 1.379 . S
C290 H274 0.931 . S
C290 C284 1.383 . S
C290 C289 1.379 . S
H291 C285 0.959 1_556 S
H292 C285 0.961 . S
H293 C285 0.960 1_556 S
H294 C286 0.930 1_556 S
H295 C287 0.929 . S
H296 C304 0.929 . S
H297 C306 0.930 . S
H298 C308 0.930 . S
H299 C311 0.929 . S
H300 C314 0.930 . S
H301 C316 0.960 . S
H302 C316 0.960 . S
H303 C316 0.960 . S
C304 H296 0.929 . S
C304 C305 1.377 1_556 S
C304 C306 1.384 . S
C305 C304 1.377 1_554 S
C305 C311 1.390 . S
C306 H297 0.930 . S
C306 C304 1.384 . S
C306 C307 1.372 1_556 S
C307 C306 1.372 1_554 S
C307 C308 1.400 . S
C307 C312 1.490 1_554 S
C308 H298 0.930 . S
C308 C307 1.400 . S
C308 C311 1.386 . S
H309 C325 0.930 . S
H310 C326 0.931 1_554 S
C311 H299 0.929 . S
C311 C305 1.390 . S
C311 C308 1.386 . S
C312 C307 1.490 1_556 S
C312 C314 1.395 1_556 S
C312 C315 1.403 . S
H313 C319 0.930 . S
C314 H300 0.930 . S
C314 C312 1.395 1_554 S
C314 C317 1.403 . S
C315 C312 1.403 . S
C315 C316 1.524 . S
C315 C319 1.400 . S
C316 H301 0.960 . S
C316 H302 0.960 . S
C316 H303 0.960 . S
C316 C315 1.524 . S
C317 C314 1.403 . S
C317 C318 1.392 1_554 S
C317 C321 1.495 . S
C318 C317 1.392 1_556 S
C318 C319 1.385 . S
C318 C320 1.478 . S
C319 H313 0.930 . S
C319 C315 1.400 . S
C319 C318 1.385 . S
C320 C318 1.478 . S
C320 C322 1.381 . S
C320 C326 1.383 . S
C321 C317 1.495 . S
C321 H327 0.959 . S
C321 H328 0.961 . S
C321 H329 0.960 . S
C322 C320 1.381 . S
C322 C323 1.394 . S
C322 H330 0.930 . S
C323 C322 1.394 . S
C323 C324 1.383 . S
C323 H331 0.929 . S
C324 C323 1.383 . S
C324 C325 1.377 . S
C325 H309 0.930 . S
C325 C324 1.377 . S
C325 C326 1.379 . S
C326 H310 0.931 1_556 S
C326 C320 1.383 . S
C326 C325 1.379 . S
H327 C321 0.959 . S
H328 C321 0.961 . S
H329 C321 0.960 . S
H330 C322 0.930 . S
H331 C323 0.929 . S
H332 C340 0.929 . S
H333 C342 0.930 . S
H334 C344 0.930 . S
H335 C347 0.929 . S
H336 C350 0.930 . S
H337 C352 0.960 . S
H338 C352 0.960 . S
H339 C352 0.960 . S
C340 H332 0.929 . S
C340 C341 1.377 . S
C340 C342 1.384 . S
C341 C340 1.377 . S
C341 C347 1.390 . S
C342 H333 0.930 . S
C342 C340 1.384 . S
C342 C343 1.372 . S
C343 C342 1.372 . S
C343 C344 1.400 . S
C343 C348 1.490 . S
C344 H334 0.930 . S
C344 C343 1.400 . S
C344 C347 1.386 . S
H345 C361 0.930 . S
H346 C362 0.931 . S
C347 H335 0.929 . S
C347 C341 1.390 . S
C347 C344 1.386 . S
C348 C343 1.490 . S
C348 C350 1.395 . S
C348 C351 1.403 . S
H349 C355 0.930 . S
C350 H336 0.930 . S
C350 C348 1.395 . S
C350 C353 1.403 . S
C351 C348 1.403 . S
C351 C352 1.524 . S
C351 C355 1.400 . S
C352 H337 0.960 . S
C352 H338 0.960 . S
C352 H339 0.960 . S
C352 C351 1.524 . S
C353 C350 1.403 . S
C353 C354 1.392 . S
C353 C357 1.495 . S
C354 C353 1.392 . S
C354 C355 1.385 . S
C354 C356 1.478 . S
C355 H349 0.930 . S
C355 C351 1.400 . S
C355 C354 1.385 . S
C356 C354 1.478 . S
C356 C358 1.381 . S
C356 C362 1.383 . S
C357 C353 1.495 . S
C357 H363 0.959 . S
C357 H364 0.961 . S
C357 H365 0.960 . S
C358 C356 1.381 . S
C358 C359 1.394 . S
C358 H366 0.930 . S
C359 C358 1.394 . S
C359 C360 1.383 . S
C359 H367 0.929 . S
C360 C359 1.383 . S
C360 C361 1.377 . S
C361 H345 0.930 . S
C361 C360 1.377 . S
C361 C362 1.379 . S
C362 H346 0.931 . S
C362 C356 1.383 . S
C362 C361 1.379 . S
H363 C357 0.959 . S
H364 C357 0.961 . S
H365 C357 0.960 . S
H366 C358 0.930 . S
H367 C359 0.929 . S
H368 C376 0.929 . S
H369 C378 0.930 . S
H370 C380 0.930 . S
H371 C383 0.929 . S
H372 C386 0.930 . S
H373 C388 0.960 . S
H374 C388 0.960 . S
H375 C388 0.960 . S
C376 H368 0.929 . S
C376 C377 1.377 . S
C376 C378 1.384 . S
C377 C376 1.377 . S
C377 C383 1.390 . S
C378 H369 0.930 . S
C378 C376 1.384 . S
C378 C379 1.372 . S
C379 C378 1.372 . S
C379 C380 1.400 . S
C379 C384 1.490 . S
C380 H370 0.930 . S
C380 C379 1.400 . S
C380 C383 1.386 . S
H381 C397 0.930 . S
H382 C398 0.931 . S
C383 H371 0.929 . S
C383 C377 1.390 . S
C383 C380 1.386 . S
C384 C379 1.490 . S
C384 C386 1.395 . S
C384 C387 1.403 . S
H385 C391 0.930 . S
C386 H372 0.930 . S
C386 C384 1.395 . S
C386 C389 1.403 . S
C387 C384 1.403 . S
C387 C388 1.524 . S
C387 C391 1.400 . S
C388 H373 0.960 . S
C388 H374 0.960 . S
C388 H375 0.960 . S
C388 C387 1.524 . S
C389 C386 1.403 . S
C389 C390 1.392 . S
C389 C393 1.495 . S
C390 C389 1.392 . S
C390 C391 1.385 . S
C390 C392 1.478 . S
C391 H385 0.930 . S
C391 C387 1.400 . S
C391 C390 1.385 . S
C392 C390 1.478 . S
C392 C394 1.381 . S
C392 C398 1.383 . S
C393 C389 1.495 . S
C393 H399 0.959 . S
C393 H400 0.961 . S
C393 H401 0.960 . S
C394 C392 1.381 . S
C394 C395 1.394 . S
C394 H402 0.930 . S
C395 C394 1.394 . S
C395 C396 1.383 . S
C395 H403 0.929 . S
C396 C395 1.383 . S
C396 C397 1.377 . S
C397 H381 0.930 . S
C397 C396 1.377 . S
C397 C398 1.379 . S
C398 H382 0.931 . S
C398 C392 1.383 . S
C398 C397 1.379 . S
H399 C393 0.959 . S
H400 C393 0.961 . S
H401 C393 0.960 . S
H402 C394 0.930 . S
H403 C395 0.929 . S
H404 C412 0.929 . S
H405 C414 0.930 . S
H406 C416 0.930 . S
H407 C419 0.929 . S
H408 C422 0.930 . S
H409 C424 0.960 . S
H410 C424 0.960 . S
H411 C424 0.960 . S
C412 H404 0.929 . S
C412 C413 1.377 . S
C412 C414 1.384 . S
C413 C412 1.377 . S
C413 C419 1.390 . S
C414 H405 0.930 . S
C414 C412 1.384 . S
C414 C415 1.372 . S
C415 C414 1.372 . S
C415 C416 1.400 . S
C415 C420 1.490 . S
C416 H406 0.930 . S
C416 C415 1.400 . S
C416 C419 1.386 . S
H417 C433 0.930 . S
H418 C434 0.931 . S
C419 H407 0.929 . S
C419 C413 1.390 . S
C419 C416 1.386 . S
C420 C415 1.490 . S
C420 C422 1.395 . S
C420 C423 1.403 . S
H421 C427 0.930 . S
C422 H408 0.930 . S
C422 C420 1.395 . S
C422 C425 1.403 . S
C423 C420 1.403 . S
C423 C424 1.524 . S
C423 C427 1.400 . S
C424 H409 0.960 . S
C424 H410 0.960 . S
C424 H411 0.960 . S
C424 C423 1.524 . S
C425 C422 1.403 . S
C425 C426 1.392 . S
C425 C429 1.495 . S
C426 C425 1.392 . S
C426 C427 1.385 . S
C426 C428 1.478 . S
C427 H421 0.930 . S
C427 C423 1.400 . S
C427 C426 1.385 . S
C428 C426 1.478 . S
C428 C430 1.381 . S
C428 C434 1.383 . S
C429 C425 1.495 . S
C429 H435 0.959 . S
C429 H436 0.961 . S
C429 H437 0.960 . S
C430 C428 1.381 . S
C430 C431 1.394 . S
C430 H438 0.930 . S
C431 C430 1.394 . S
C431 C432 1.383 . S
C431 H439 0.929 . S
C432 C431 1.383 . S
C432 C433 1.377 . S
C433 H417 0.930 . S
C433 C432 1.377 . S
C433 C434 1.379 . S
C434 H418 0.931 . S
C434 C428 1.383 . S
C434 C433 1.379 . S
H435 C429 0.959 . S
H436 C429 0.961 . S
H437 C429 0.960 . S
H438 C430 0.930 . S
H439 C431 0.929 . S
H440 C448 0.929 . S
H441 C450 0.930 . S
H442 C452 0.930 . S
H443 C455 0.929 . S
H444 C458 0.930 . S
H445 C460 0.960 . S
H446 C460 0.960 . S
H447 C460 0.960 . S
C448 H440 0.929 . S
C448 C449 1.377 . S
C448 C450 1.384 . S
C449 C448 1.377 . S
C449 C455 1.390 . S
C450 H441 0.930 . S
C450 C448 1.384 . S
C450 C451 1.372 . S
C451 C450 1.372 . S
C451 C452 1.400 . S
C451 C456 1.490 . S
C452 H442 0.930 . S
C452 C451 1.400 . S
C452 C455 1.386 . S
H453 C469 0.930 . S
H454 C470 0.931 . S
C455 H443 0.929 . S
C455 C449 1.390 . S
C455 C452 1.386 . S
C456 C451 1.490 . S
C456 C458 1.395 . S
C456 C459 1.403 . S
H457 C463 0.930 . S
C458 H444 0.930 . S
C458 C456 1.395 . S
C458 C461 1.403 . S
C459 C456 1.403 . S
C459 C460 1.524 . S
C459 C463 1.400 . S
C460 H445 0.960 . S
C460 H446 0.960 . S
C460 H447 0.960 . S
C460 C459 1.524 . S
C461 C458 1.403 . S
C461 C462 1.392 . S
C461 C465 1.495 . S
C462 C461 1.392 . S
C462 C463 1.385 . S
C462 C464 1.478 . S
C463 H457 0.930 . S
C463 C459 1.400 . S
C463 C462 1.385 . S
C464 C462 1.478 . S
C464 C466 1.381 . S
C464 C470 1.383 . S
C465 C461 1.495 . S
C465 H471 0.959 . S
C465 H472 0.961 . S
C465 H473 0.960 . S
C466 C464 1.381 . S
C466 C467 1.394 . S
C466 H474 0.930 . S
C467 C466 1.394 . S
C467 C468 1.383 . S
C467 H475 0.929 . S
C468 C467 1.383 . S
C468 C469 1.377 . S
C469 H453 0.930 . S
C469 C468 1.377 . S
C469 C470 1.379 . S
C470 H454 0.931 . S
C470 C464 1.383 . S
C470 C469 1.379 . S
H471 C465 0.959 . S
H472 C465 0.961 . S
H473 C465 0.960 . S
H474 C466 0.930 . S
H475 C467 0.929 . S
H476 C484 0.929 1_565 S
H477 C486 0.929 1_565 S
H478 C488 0.930 . S
H479 C491 0.929 . S
H480 C494 0.930 . S
H481 C496 0.960 . S
H482 C496 0.960 . S
H483 C496 0.960 . S
C484 H476 0.929 1_545 S
C484 C485 1.377 1_655 S
C484 C486 1.385 . S
C485 C484 1.377 1_455 S
C485 C491 1.390 . S
C486 H477 0.929 1_545 S
C486 C484 1.385 . S
C486 C487 1.372 1_655 S
C487 C486 1.372 1_455 S
C487 C488 1.400 . S
C487 C492 1.491 . S
C488 H478 0.930 . S
C488 C487 1.400 . S
C488 C491 1.386 . S
H489 C505 0.930 1_545 S
H490 C506 0.931 . S
C491 H479 0.929 . S
C491 C485 1.390 . S
C491 C488 1.386 . S
C492 C487 1.491 . S
C492 C494 1.387 1_445 S
C492 C495 1.410 . S
H493 C499 0.930 . S
C494 H480 0.930 . S
C494 C492 1.387 1_665 S
C494 C497 1.403 . S
C495 C492 1.410 . S
C495 C496 1.524 . S
C495 C499 1.400 . S
C496 H481 0.960 . S
C496 H482 0.960 . S
C496 H483 0.960 . S
C496 C495 1.524 . S
C497 C494 1.403 . S
C497 C498 1.392 . S
C497 C501 1.495 . S
C498 C497 1.392 . S
C498 C499 1.385 1_665 S
C498 C500 1.478 . S
C499 H493 0.930 . S
C499 C495 1.400 . S
C499 C498 1.385 1_445 S
C500 C498 1.478 . S
C500 C502 1.381 . S
C500 C506 1.383 1_655 S
C501 C497 1.495 . S
C501 H507 0.959 . S
C501 H508 0.961 . S
C501 H509 0.960 . S
C502 C500 1.381 . S
C502 C503 1.394 . S
C502 H510 0.930 . S
C503 C502 1.394 . S
C503 C504 1.371 1_655 S
C503 H511 0.929 . S
C504 C503 1.371 1_455 S
C504 C505 1.389 . S
C505 H489 0.930 1_565 S
C505 C504 1.389 . S
C505 C506 1.379 . S
C506 H490 0.931 . S
C506 C500 1.383 1_455 S
C506 C505 1.379 . S
H507 C501 0.959 . S
H508 C501 0.961 . S
H509 C501 0.960 . S
H510 C502 0.930 . S
H511 C503 0.929 . S
H512 C520 0.929 . S
H513 C522 0.930 . S
H514 C524 0.930 . S
H515 C527 0.929 . S
H516 C530 0.930 . S
H517 C532 0.958 1_565 S
H518 C532 0.952 1_565 S
H519 C532 0.966 . S
C520 H512 0.929 . S
C520 C521 1.377 1_665 S
C520 C522 1.384 . S
C521 C520 1.377 1_445 S
C521 C527 1.390 . S
C522 H513 0.930 . S
C522 C520 1.384 . S
C522 C523 1.372 1_665 S
C523 C522 1.372 1_445 S
C523 C524 1.400 . S
C523 C528 1.490 . S
C524 H514 0.930 . S
C524 C523 1.400 . S
C524 C527 1.386 . S
H525 C541 0.930 . S
H526 C542 0.931 . S
C527 H515 0.929 . S
C527 C521 1.390 . S
C527 C524 1.386 . S
C528 C523 1.490 . S
C528 C530 1.395 1_455 S
C528 C531 1.403 . S
H529 C535 0.930 . S
C530 H516 0.930 . S
C530 C528 1.395 1_655 S
C530 C533 1.403 . S
C531 C528 1.403 . S
C531 C532 1.526 . S
C531 C535 1.400 . S
C532 H517 0.958 1_545 S
C532 H518 0.952 1_545 S
C532 H519 0.966 . S
C532 C531 1.526 . S
C533 C530 1.403 . S
C533 C534 1.392 . S
C533 C537 1.495 . S
C534 C533 1.392 . S
C534 C535 1.385 1_655 S
C534 C536 1.478 . S
C535 H529 0.930 . S
C535 C531 1.400 . S
C535 C534 1.385 1_455 S
C536 C534 1.478 . S
C536 C538 1.381 1_545 S
C536 C542 1.383 1_655 S
C537 C533 1.495 . S
C537 H543 0.959 . S
C537 H544 0.961 . S
C537 H545 0.960 1_545 S
C538 C536 1.381 1_565 S
C538 C539 1.394 . S
C538 H546 0.930 . S
C539 C538 1.394 . S
C539 C540 1.379 1_665 S
C539 H547 0.929 . S
C540 C539 1.379 1_445 S
C540 C541 1.381 . S
C541 H525 0.930 . S
C541 C540 1.381 . S
C541 C542 1.379 . S
C542 H526 0.931 . S
C542 C536 1.383 1_455 S
C542 C541 1.379 . S
H543 C537 0.959 . S
H544 C537 0.961 . S
H545 C537 0.960 1_565 S
H546 C538 0.930 . S
H547 C539 0.929 . S
H548 C556 0.929 . S
H549 C558 0.930 . S
H550 C560 0.930 . S
H551 C563 0.929 . S
H552 C566 0.930 . S
H553 C568 0.960 . S
H554 C568 0.960 . S
H555 C568 0.960 . S
C556 H548 0.929 . S
C556 C557 1.377 . S
C556 C558 1.384 . S
C557 C556 1.377 . S
C557 C563 1.390 . S
C558 H549 0.930 . S
C558 C556 1.384 . S
C558 C559 1.372 . S
C559 C558 1.372 . S
C559 C560 1.400 . S
C559 C564 1.490 . S
C560 H550 0.930 . S
C560 C559 1.400 . S
C560 C563 1.386 . S
H561 C577 0.930 . S
H562 C578 0.931 . S
C563 H551 0.929 . S
C563 C557 1.390 . S
C563 C560 1.386 . S
C564 C559 1.490 . S
C564 C566 1.395 . S
C564 C567 1.403 . S
H565 C571 0.930 . S
C566 H552 0.930 . S
C566 C564 1.395 . S
C566 C569 1.403 . S
C567 C564 1.403 . S
C567 C568 1.524 . S
C567 C571 1.400 . S
C568 H553 0.960 . S
C568 H554 0.960 . S
C568 H555 0.960 . S
C568 C567 1.524 . S
C569 C566 1.403 . S
C569 C570 1.392 . S
C569 C573 1.495 . S
C570 C569 1.392 . S
C570 C571 1.385 . S
C570 C572 1.478 . S
C571 H565 0.930 . S
C571 C567 1.400 . S
C571 C570 1.385 . S
C572 C570 1.478 . S
C572 C574 1.381 . S
C572 C578 1.383 . S
C573 C569 1.495 . S
C573 H579 0.959 . S
C573 H580 0.961 . S
C573 H581 0.960 . S
C574 C572 1.381 . S
C574 C575 1.394 . S
C574 H582 0.930 . S
C575 C574 1.394 . S
C575 C576 1.383 . S
C575 H583 0.929 . S
C576 C575 1.383 . S
C576 C577 1.377 . S
C577 H561 0.930 . S
C577 C576 1.377 . S
C577 C578 1.379 . S
C578 H562 0.931 . S
C578 C572 1.383 . S
C578 C577 1.379 . S
H579 C573 0.959 . S
H580 C573 0.961 . S
H581 C573 0.960 . S
H582 C574 0.930 . S
H583 C575 0.929 . S
H584 C592 0.929 . S
H585 C594 0.930 . S
H586 C596 0.930 . S
H587 C599 0.929 . S
H588 C602 0.930 . S
H589 C604 0.960 . S
H590 C604 0.960 . S
H591 C604 0.960 . S
C592 H584 0.929 . S
C592 C593 1.377 . S
C592 C594 1.384 . S
C593 C592 1.377 . S
C593 C599 1.390 . S
C594 H585 0.930 . S
C594 C592 1.384 . S
C594 C595 1.372 . S
C595 C594 1.372 . S
C595 C596 1.400 . S
C595 C600 1.490 . S
C596 H586 0.930 . S
C596 C595 1.400 . S
C596 C599 1.386 . S
H597 C613 0.930 . S
H598 C614 0.931 . S
C599 H587 0.929 . S
C599 C593 1.390 . S
C599 C596 1.386 . S
C600 C595 1.490 . S
C600 C602 1.395 . S
C600 C603 1.403 . S
H601 C607 0.930 . S
C602 H588 0.930 . S
C602 C600 1.395 . S
C602 C605 1.403 . S
C603 C600 1.403 . S
C603 C604 1.524 . S
C603 C607 1.400 . S
C604 H589 0.960 . S
C604 H590 0.960 . S
C604 H591 0.960 . S
C604 C603 1.524 . S
C605 C602 1.403 . S
C605 C606 1.392 . S
C605 C609 1.495 . S
C606 C605 1.392 . S
C606 C607 1.385 . S
C606 C608 1.478 . S
C607 H601 0.930 . S
C607 C603 1.400 . S
C607 C606 1.385 . S
C608 C606 1.478 . S
C608 C610 1.381 . S
C608 C614 1.383 . S
C609 C605 1.495 . S
C609 H615 0.959 . S
C609 H616 0.961 . S
C609 H617 0.960 . S
C610 C608 1.381 . S
C610 C611 1.394 . S
C610 H618 0.930 . S
C611 C610 1.394 . S
C611 C612 1.383 . S
C611 H619 0.929 . S
C612 C611 1.383 . S
C612 C613 1.377 . S
C613 H597 0.930 . S
C613 C612 1.377 . S
C613 C614 1.379 . S
C614 H598 0.931 . S
C614 C608 1.383 . S
C614 C613 1.379 . S
H615 C609 0.959 . S
H616 C609 0.961 . S
H617 C609 0.960 . S
H618 C610 0.930 . S
H619 C611 0.929 . S
C216 C173 1.335 . S
C197 C27 1.384 . S
C233 N6 1.300 . S
C252 C141 1.332 . S
C269 C16 1.377 . S
C288 C179 1.326 . S
C305 N14 1.330 . S
C324 C147 1.331 . S
C341 C57 1.383 . S
C360 C109 1.327 . S
C377 N36 1.293 . S
C396 C77 1.287 . S
C432 C115 1.352 . S
C413 C46 1.375 . S
C468 C83 1.330 . S
C449 N44 1.332 . S
C485 C10 1.395 . S
C504 C89 1.383 1_565 S
C521 C1 1.527 . S
C540 C121 1.515 . S
C576 C153 1.347 . S
C557 C40 1.392 . S
C593 C31 1.525 . S
C612 C185 1.511 . S
