# Generated by pormake.
# Topology wbl, (4,4)-cn, num edge types: 1
# Building blocks:
#     Node 0, Type 0, BuildingBlock: NAWXER_clean_linker_0, # of connection points: 4
#     Node 1, Type 0, BuildingBlock: NAWXER_clean_linker_0, # of connection points: 4
#     Node 2, Type 0, BuildingBlock: NAWXER_clean_linker_0, # of connection points: 4
#     Node 3, Type 0, BuildingBlock: NAWXER_clean_linker_0, # of connection points: 4
#     Node 4, Type 0, BuildingBlock: NAWXER_clean_linker_0, # of connection points: 4
#     Node 5, Type 0, BuildingBlock: NAWXER_clean_linker_0, # of connection points: 4
#     Node 6, Type 0, BuildingBlock: NAWXER_clean_linker_0, # of connection points: 4
#     Node 7, Type 0, BuildingBlock: NAWXER_clean_linker_0, # of connection points: 4
#     Node 8, Type 1, BuildingBlock: KUFVIS_clean_sbu_0, # of connection points: 4
#     Node 9, Type 1, BuildingBlock: KUFVIS_clean_sbu_0, # of connection points: 4
#     Node 10, Type 1, BuildingBlock: KUFVIS_clean_sbu_0, # of connection points: 4
#     Node 11, Type 1, BuildingBlock: KUFVIS_clean_sbu_0, # of connection points: 4
#     Node 12, Type 1, BuildingBlock: KUFVIS_clean_sbu_0, # of connection points: 4
#     Node 13, Type 1, BuildingBlock: KUFVIS_clean_sbu_0, # of connection points: 4
#     Node 14, Type 1, BuildingBlock: KUFVIS_clean_sbu_0, # of connection points: 4
#     Node 15, Type 1, BuildingBlock: KUFVIS_clean_sbu_0, # of connection points: 4
#     Edge 16, Type (0, 1), BuildingBlock: MIFKUJ_clean_linker_0, # of connection points: 2
#     Edge 17, Type (0, 1), BuildingBlock: MIFKUJ_clean_linker_0, # of connection points: 2
#     Edge 18, Type (0, 1), BuildingBlock: MIFKUJ_clean_linker_0, # of connection points: 2
#     Edge 19, Type (0, 1), BuildingBlock: MIFKUJ_clean_linker_0, # of connection points: 2
#     Edge 20, Type (0, 1), BuildingBlock: MIFKUJ_clean_linker_0, # of connection points: 2
#     Edge 21, Type (0, 1), BuildingBlock: MIFKUJ_clean_linker_0, # of connection points: 2
#     Edge 22, Type (0, 1), BuildingBlock: MIFKUJ_clean_linker_0, # of connection points: 2
#     Edge 23, Type (0, 1), BuildingBlock: MIFKUJ_clean_linker_0, # of connection points: 2
#     Edge 24, Type (0, 1), BuildingBlock: MIFKUJ_clean_linker_0, # of connection points: 2
#     Edge 25, Type (0, 1), BuildingBlock: MIFKUJ_clean_linker_0, # of connection points: 2
#     Edge 26, Type (0, 1), BuildingBlock: MIFKUJ_clean_linker_0, # of connection points: 2
#     Edge 27, Type (0, 1), BuildingBlock: MIFKUJ_clean_linker_0, # of connection points: 2
#     Edge 28, Type (0, 1), BuildingBlock: MIFKUJ_clean_linker_0, # of connection points: 2
#     Edge 29, Type (0, 1), BuildingBlock: MIFKUJ_clean_linker_0, # of connection points: 2
#     Edge 30, Type (0, 1), BuildingBlock: MIFKUJ_clean_linker_0, # of connection points: 2
#     Edge 31, Type (0, 1), BuildingBlock: MIFKUJ_clean_linker_0, # of connection points: 2
#     Edge 32, Type (0, 1), BuildingBlock: MIFKUJ_clean_linker_0, # of connection points: 2
#     Edge 33, Type (0, 1), BuildingBlock: MIFKUJ_clean_linker_0, # of connection points: 2
#     Edge 34, Type (0, 1), BuildingBlock: MIFKUJ_clean_linker_0, # of connection points: 2
#     Edge 35, Type (0, 1), BuildingBlock: MIFKUJ_clean_linker_0, # of connection points: 2
#     Edge 36, Type (0, 1), BuildingBlock: MIFKUJ_clean_linker_0, # of connection points: 2
#     Edge 37, Type (0, 1), BuildingBlock: MIFKUJ_clean_linker_0, # of connection points: 2
#     Edge 38, Type (0, 1), BuildingBlock: MIFKUJ_clean_linker_0, # of connection points: 2
#     Edge 39, Type (0, 1), BuildingBlock: MIFKUJ_clean_linker_0, # of connection points: 2
#     Edge 40, Type (0, 1), BuildingBlock: MIFKUJ_clean_linker_0, # of connection points: 2
#     Edge 41, Type (0, 1), BuildingBlock: MIFKUJ_clean_linker_0, # of connection points: 2
#     Edge 42, Type (0, 1), BuildingBlock: MIFKUJ_clean_linker_0, # of connection points: 2
#     Edge 43, Type (0, 1), BuildingBlock: MIFKUJ_clean_linker_0, # of connection points: 2
#     Edge 44, Type (0, 1), BuildingBlock: MIFKUJ_clean_linker_0, # of connection points: 2
#     Edge 45, Type (0, 1), BuildingBlock: MIFKUJ_clean_linker_0, # of connection points: 2
#     Edge 46, Type (0, 1), BuildingBlock: MIFKUJ_clean_linker_0, # of connection points: 2
#     Edge 47, Type (0, 1), BuildingBlock: MIFKUJ_clean_linker_0, # of connection points: 2
# Relax obj value: 0.160
# Max RMSD: 0.158
# Mean RMSD: 0.139
data_MOF--net-wbl--node1-KUFVIS_clean_sbu_0--node2-NAWXER_clean_linker_0--edge1-MIFKUJ_clean_linker_0
_symmetry_space_group_name_H-M    P1
_symmetry_Int_Tables_number       1
_symmetry_cell_setting            triclinic
loop_
_symmetry_equiv_pos_as_xyz
'x, y, z'
_cell_length_a     56.24452
_cell_length_b     56.245595
_cell_length_c     96.984109
_cell_angle_alpha  90.010662
_cell_angle_beta   90.668279
_cell_angle_gamma 90.000209
loop_
_atom_site_label
_atom_site_type_symbol
_atom_site_fract_x
_atom_site_fract_y
_atom_site_fract_z
_atom_type_partial_charge
C0 C 0.07152 0.95519 0.34984 0.0
C1 C 0.08297 0.96504 0.36149 0.0
C2 C 0.05785 0.96949 0.34103 0.0
C3 C 0.05566 0.994 0.34353 0.0
C4 C 0.08104 0.98965 0.36383 0.0
C5 C 0.06748 0.00393 0.35497 0.0
C6 C 0.03919 0.00892 0.33522 0.0
C7 C 0.09567 0.98493 0.30651 0.0
C8 C 0.08774 0.96975 0.29589 0.0
C9 C 0.07944 0.99752 0.31446 0.0
C10 C 0.05489 0.99497 0.3121 0.0
C11 C 0.06316 0.96766 0.29332 0.0
C12 C 0.0469 0.98028 0.30131 0.0
C13 C 0.0376 0.00801 0.32066 0.0
C14 C 0.966 0.08437 0.30755 0.0
C15 C 0.94825 0.07185 0.30019 0.0
C16 C 0.98456 0.07221 0.31415 0.0
C17 C 0.98592 0.04735 0.31336 0.0
C18 C 0.95014 0.04692 0.29919 0.0
C19 C 0.96895 0.03484 0.30558 0.0
C20 C 0.00433 0.03424 0.32117 0.0
C21 C 0.94932 0.05582 0.35239 0.0
C22 C 0.95792 0.0721 0.36224 0.0
C23 C 0.96495 0.04442 0.34346 0.0
C24 C 0.98946 0.04911 0.34422 0.0
C25 C 0.98241 0.07707 0.36282 0.0
C26 C 0.99806 0.0655 0.35397 0.0
C27 C 0.00635 0.03568 0.33564 0.0
H28 H 0.07272 0.93634 0.34769 0.0
H29 H 0.04835 0.96119 0.33252 0.0
H30 H 0.08921 0.99779 0.37283 0.0
H31 H 0.06581 0.02272 0.35723 0.0
H32 H 0.11445 0.98681 0.30885 0.0
H33 H 0.08609 0.00924 0.32249 0.0
H34 H 0.0565 0.95638 0.28509 0.0
H35 H 0.02805 0.9783 0.29919 0.0
H36 H 0.96552 0.10356 0.30831 0.0
H37 H 0.99772 0.08217 0.32 0.0
H38 H 0.93668 0.03654 0.29387 0.0
H39 H 0.96971 0.01563 0.30492 0.0
H40 H 0.93053 0.05168 0.35172 0.0
H41 H 0.95797 0.03143 0.33622 0.0
H42 H 0.98957 0.08927 0.37045 0.0
H43 H 0.01693 0.06916 0.35482 0.0
N44 N 0.02367 0.02296 0.34211 0.0
N45 N 0.02 0.02049 0.31418 0.0
C46 C 0.94638 0.44228 0.60171 0.0
C47 C 0.9577 0.42884 0.61213 0.0
C48 C 0.95979 0.45543 0.59232 0.0
C49 C 0.98472 0.45541 0.59322 0.0
C50 C 0.98273 0.42812 0.61254 0.0
C51 C 0.99605 0.44151 0.60332 0.0
C52 C 0.99907 0.47153 0.58465 0.0
C53 C 0.97246 0.41438 0.55632 0.0
C54 C 0.95825 0.42235 0.54522 0.0
C55 C 0.98517 0.43051 0.56447 0.0
C56 C 0.98364 0.45502 0.56186 0.0
C57 C 0.95691 0.44688 0.54254 0.0
C58 C 0.96961 0.46304 0.55074 0.0
C59 C 0.99773 0.47218 0.57013 0.0
C60 C 0.07551 0.54306 0.55659 0.0
C61 C 0.06383 0.55576 0.54599 0.0
C62 C 0.06341 0.52573 0.5641 0.0
C63 C 0.0392 0.52127 0.56146 0.0
C64 C 0.04007 0.54995 0.54275 0.0
C65 C 0.0279 0.53297 0.55042 0.0
C66 C 0.0254 0.50444 0.56998 0.0
C67 C 0.05186 0.56115 0.59954 0.0
C68 C 0.06432 0.55243 0.61108 0.0
C69 C 0.0396 0.5455 0.59078 0.0
C70 C 0.04039 0.52082 0.59318 0.0
C71 C 0.06484 0.52791 0.61361 0.0
C72 C 0.05307 0.51224 0.60471 0.0
C73 C 0.02656 0.50385 0.58457 0.0
H74 H 0.92718 0.44348 0.60115 0.0
H75 H 0.95069 0.46636 0.58473 0.0
H76 H 0.9921 0.41751 0.62017 0.0
H77 H 0.01528 0.44124 0.60416 0.0
H78 H 0.97372 0.39563 0.55876 0.0
H79 H 0.99647 0.42374 0.57269 0.0
H80 H 0.94637 0.45357 0.53396 0.0
H81 H 0.96844 0.48185 0.54841 0.0
H82 H 0.09377 0.54698 0.5594 0.0
H83 H 0.07286 0.51625 0.57219 0.0
H84 H 0.03069 0.55877 0.53439 0.0
H85 H 0.0094 0.52943 0.54795 0.0
H86 H 0.05099 0.58009 0.59757 0.0
H87 H 0.02917 0.55274 0.58232 0.0
H88 H 0.0743 0.52089 0.62251 0.0
H89 H 0.05369 0.49336 0.60691 0.0
N90 N 0.01347 0.48728 0.59126 0.0
N91 N 0.01087 0.48868 0.56336 0.0
C92 C 0.5582 0.45492 0.84978 0.0
C93 C 0.57547 0.46366 0.85903 0.0
C94 C 0.54607 0.47044 0.84093 0.0
C95 C 0.55078 0.49495 0.84137 0.0
C96 C 0.58046 0.48811 0.85931 0.0
C97 C 0.56794 0.50371 0.85067 0.0
C98 C 0.53681 0.51146 0.83267 0.0
C99 C 0.58966 0.47627 0.80597 0.0
C100 C 0.58025 0.4622 0.79527 0.0
C101 C 0.5751 0.49178 0.81323 0.0
C102 C 0.55063 0.4931 0.81022 0.0
C103 C 0.556 0.46417 0.79183 0.0
C104 C 0.54129 0.47948 0.79928 0.0
C105 C 0.53504 0.50919 0.8182 0.0
C106 C 0.46371 0.58716 0.80368 0.0
C107 C 0.44913 0.57395 0.7946 0.0
C108 C 0.48249 0.5762 0.81081 0.0
C109 C 0.48663 0.5517 0.80931 0.0
C110 C 0.45451 0.54983 0.79238 0.0
C111 C 0.47298 0.53884 0.79968 0.0
C112 C 0.50471 0.53894 0.81774 0.0
C113 C 0.45431 0.57082 0.84925 0.0
C114 C 0.46566 0.58563 0.85898 0.0
C115 C 0.46772 0.55699 0.8402 0.0
C116 C 0.49268 0.55815 0.84055 0.0
C117 C 0.4906 0.58704 0.85912 0.0
C118 C 0.50395 0.57338 0.85003 0.0
C119 C 0.50733 0.5419 0.83218 0.0
H120 H 0.55407 0.43612 0.84945 0.0
H121 H 0.53264 0.46339 0.83395 0.0
H122 H 0.59359 0.49519 0.86647 0.0
H123 H 0.57164 0.52259 0.85121 0.0
H124 H 0.60844 0.47558 0.80856 0.0
H125 H 0.58309 0.5029 0.82113 0.0
H126 H 0.5484 0.45361 0.78354 0.0
H127 H 0.52255 0.48045 0.79662 0.0
H128 H 0.46019 0.60577 0.80563 0.0
H129 H 0.49337 0.58679 0.81775 0.0
H130 H 0.44421 0.53926 0.78514 0.0
H131 H 0.47611 0.52004 0.79809 0.0
H132 H 0.43513 0.56906 0.84907 0.0
H133 H 0.45862 0.54486 0.83326 0.0
H134 H 0.49981 0.59838 0.86646 0.0
H135 H 0.52318 0.57438 0.85056 0.0
N136 N 0.52322 0.52796 0.83905 0.0
N137 N 0.51879 0.52276 0.81132 0.0
C138 C 0.4688 0.92124 0.05586 0.0
C139 C 0.45378 0.92719 0.0447 0.0
C140 C 0.47989 0.93895 0.06368 0.0
C141 C 0.47589 0.96306 0.06069 0.0
C142 C 0.45015 0.95134 0.04153 0.0
C143 C 0.46125 0.96911 0.04941 0.0
C144 C 0.48788 0.9818 0.06893 0.0
C145 C 0.4371 0.94659 0.09812 0.0
C146 C 0.44746 0.93645 0.11002 0.0
C147 C 0.45057 0.96089 0.08937 0.0
C148 C 0.47482 0.96497 0.09216 0.0
C149 C 0.47171 0.94069 0.11279 0.0
C150 C 0.48519 0.95476 0.10397 0.0
C151 C 0.48909 0.98129 0.08353 0.0
C152 C 0.5415 0.06856 0.10067 0.0
C153 C 0.56145 0.05906 0.10756 0.0
C154 C 0.527 0.05393 0.09247 0.0
C155 C 0.53203 0.02957 0.09133 0.0
C156 C 0.56666 0.03477 0.10615 0.0
C157 C 0.55189 0.02009 0.09823 0.0
C158 C 0.51634 0.01369 0.08328 0.0
C159 C 0.56488 0.05054 0.0541 0.0
C160 C 0.55272 0.06855 0.04682 0.0
C161 C 0.55232 0.03288 0.06104 0.0
C162 C 0.52739 0.03278 0.06077 0.0
C163 C 0.52768 0.06798 0.04632 0.0
C164 C 0.51515 0.05013 0.05315 0.0
C165 C 0.51409 0.01511 0.06884 0.0
H166 H 0.47181 0.90286 0.0587 0.0
H167 H 0.49168 0.93376 0.07206 0.0
H168 H 0.43894 0.95651 0.03288 0.0
H169 H 0.45821 0.98759 0.04677 0.0
H170 H 0.41853 0.94364 0.09562 0.0
H171 H 0.44184 0.96914 0.08058 0.0
H172 H 0.48022 0.93369 0.12201 0.0
H173 H 0.50375 0.95787 0.10649 0.0
H174 H 0.53715 0.08724 0.10167 0.0
H175 H 0.51164 0.06148 0.08725 0.0
H176 H 0.58181 0.02703 0.1115 0.0
H177 H 0.55596 0.00131 0.09746 0.0
H178 H 0.58412 0.05008 0.05447 0.0
H179 H 0.56208 0.01937 0.06671 0.0
H180 H 0.51768 0.08169 0.04099 0.0
H181 H 0.49589 0.05032 0.05286 0.0
N182 N 0.50008 0.99904 0.06214 0.0
N183 N 0.50365 0.99701 0.0901 0.0
C184 C 0.03625 0.57348 0.89829 0.0
C185 C 0.04676 0.56261 0.88681 0.0
C186 C 0.02231 0.56021 0.90731 0.0
C187 C 0.01881 0.53575 0.90512 0.0
C188 C 0.04295 0.53819 0.88455 0.0
C189 C 0.02904 0.52494 0.89358 0.0
C190 C 0.0037 0.52149 0.91441 0.0
C191 C 0.06742 0.54266 0.93893 0.0
C192 C 0.06278 0.56041 0.94877 0.0
C193 C 0.04882 0.53019 0.93264 0.0
C194 C 0.02516 0.53515 0.93603 0.0
C195 C 0.03903 0.56488 0.95243 0.0
C196 C 0.02039 0.55222 0.94617 0.0
C197 C 0.00558 0.52246 0.92891 0.0
C198 C 0.93942 0.44425 0.94701 0.0
C199 C 0.92666 0.45616 0.95732 0.0
C200 C 0.95502 0.45674 0.93853 0.0
C201 C 0.95783 0.48141 0.94006 0.0
C202 C 0.93044 0.48066 0.95923 0.0
C203 C 0.94593 0.49313 0.95072 0.0
C204 C 0.97325 0.49521 0.93075 0.0
C205 C 0.91446 0.46432 0.90364 0.0
C206 C 0.92264 0.45199 0.89205 0.0
C207 C 0.93029 0.47785 0.91168 0.0
C208 C 0.95464 0.47854 0.90847 0.0
C209 C 0.94683 0.45281 0.88879 0.0
C210 C 0.96267 0.46586 0.89695 0.0
C211 C 0.9718 0.49371 0.91619 0.0
H212 H 0.03888 0.59223 0.90033 0.0
H213 H 0.01405 0.56915 0.91591 0.0
H214 H 0.05038 0.52936 0.87567 0.0
H215 H 0.02635 0.50617 0.89158 0.0
H216 H 0.08547 0.53824 0.93614 0.0
H217 H 0.05293 0.51665 0.92509 0.0
H218 H 0.03482 0.57848 0.95992 0.0
H219 H 0.00222 0.55616 0.94898 0.0
H220 H 0.93688 0.42542 0.94521 0.0
H221 H 0.96456 0.44718 0.93064 0.0
H222 H 0.92127 0.49028 0.96726 0.0
H223 H 0.94818 0.51209 0.95224 0.0
H224 H 0.89576 0.46413 0.90618 0.0
H225 H 0.92339 0.48815 0.92017 0.0
H226 H 0.95344 0.44342 0.87986 0.0
H227 H 0.98127 0.46624 0.89416 0.0
N228 N 0.98709 0.50697 0.90864 0.0
N229 N 0.9901 0.50956 0.93655 0.0
C230 C 0.44108 0.55433 0.15306 0.0
C231 C 0.45277 0.56958 0.14386 0.0
C232 C 0.45398 0.53843 0.16128 0.0
C233 C 0.47889 0.5375 0.16055 0.0
C234 C 0.47778 0.56888 0.14334 0.0
C235 C 0.49068 0.55285 0.15152 0.0
C236 C 0.49238 0.51936 0.16844 0.0
C237 C 0.46858 0.57225 0.19949 0.0
C238 C 0.44797 0.56472 0.20624 0.0
C239 C 0.48204 0.55613 0.19194 0.0
C240 C 0.47527 0.53217 0.19116 0.0
C241 C 0.44127 0.54068 0.20555 0.0
C242 C 0.45506 0.52441 0.19821 0.0
C243 C 0.48908 0.51554 0.18265 0.0
C244 C 0.56204 0.4398 0.19582 0.0
C245 C 0.54831 0.42443 0.20394 0.0
C246 C 0.55139 0.4588 0.1888 0.0
C247 C 0.52677 0.46261 0.18964 0.0
C248 C 0.5238 0.42884 0.20514 0.0
C249 C 0.51318 0.4478 0.1981 0.0
C250 C 0.51503 0.4821 0.1819 0.0
C251 C 0.54287 0.43185 0.14944 0.0
C252 C 0.5599 0.44209 0.14075 0.0
C253 C 0.52974 0.44605 0.15842 0.0
C254 C 0.53351 0.47072 0.15893 0.0
C255 C 0.56372 0.46678 0.14137 0.0
C256 C 0.55054 0.48095 0.1503 0.0
C257 C 0.51873 0.48623 0.16768 0.0
H258 H 0.42185 0.55394 0.15352 0.0
H259 H 0.4444 0.52628 0.16785 0.0
H260 H 0.48739 0.58055 0.13649 0.0
H261 H 0.50987 0.55234 0.15075 0.0
H262 H 0.47397 0.59074 0.19979 0.0
H263 H 0.49767 0.56239 0.18661 0.0
H264 H 0.42544 0.53453 0.21071 0.0
H265 H 0.44962 0.50595 0.1977 0.0
H266 H 0.58093 0.43687 0.19463 0.0
H267 H 0.5624 0.47039 0.18266 0.0
H268 H 0.51281 0.41762 0.21152 0.0
H269 H 0.49421 0.45062 0.19906 0.0
H270 H 0.53957 0.41288 0.14923 0.0
H271 H 0.51631 0.4378 0.16474 0.0
H272 H 0.5764 0.47526 0.13464 0.0
H273 H 0.55353 0.49998 0.15041 0.0
N274 N 0.50726 0.50472 0.16151 0.0
N275 N 0.50032 0.49696 0.18886 0.0
C276 C 0.42818 0.95633 0.40628 0.0
C277 C 0.41554 0.96658 0.3952 0.0
C278 C 0.44158 0.97058 0.41527 0.0
C279 C 0.44224 0.99539 0.41351 0.0
C280 C 0.41569 0.99144 0.39369 0.0
C281 C 0.42896 0.00567 0.40272 0.0
C282 C 0.45882 0.01033 0.42176 0.0
C283 C 0.40632 0.98251 0.45158 0.0
C284 C 0.41546 0.96656 0.46147 0.0
C285 C 0.42156 0.99594 0.44345 0.0
C286 C 0.44631 0.99349 0.44486 0.0
C287 C 0.44026 0.96448 0.46308 0.0
C288 C 0.45555 0.97797 0.45491 0.0
C289 C 0.46244 0.00764 0.43613 0.0
C290 C 0.53553 0.08265 0.44959 0.0
C291 C 0.55373 0.06902 0.4558 0.0
C292 C 0.51623 0.07158 0.44303 0.0
C293 C 0.51464 0.04671 0.44267 0.0
C294 C 0.55174 0.04405 0.45558 0.0
C295 C 0.53226 0.03304 0.4492 0.0
C296 C 0.49496 0.03477 0.43526 0.0
C297 C 0.54255 0.06226 0.4011 0.0
C298 C 0.53181 0.08062 0.39335 0.0
C299 C 0.52937 0.04917 0.41058 0.0
C300 C 0.50517 0.05407 0.41244 0.0
C301 C 0.50775 0.08604 0.39572 0.0
C302 C 0.49451 0.07268 0.40504 0.0
C303 C 0.49042 0.03851 0.42111 0.0
H304 H 0.42872 0.93721 0.40757 0.0
H305 H 0.45226 0.96204 0.4232 0.0
H306 H 0.40594 -0.00015 0.38531 0.0
H307 H 0.4293 0.02473 0.40108 0.0
H308 H 0.38732 0.98439 0.44997 0.0
H309 H 0.41396 0.00826 0.43603 0.0
H310 H 0.44784 0.95255 0.47072 0.0
H311 H 0.47459 0.97603 0.4563 0.0
H312 H 0.53613 0.10188 0.44979 0.0
H313 H 0.50256 0.08244 0.43821 0.0
H314 H 0.56554 0.03289 0.46 0.0
H315 H 0.53134 0.0138 0.449 0.0
H316 H 0.56088 0.05724 0.39943 0.0
H317 H 0.53782 0.03458 0.41604 0.0
H318 H 0.49896 0.10034 0.39021 0.0
H319 H 0.47583 0.07669 0.40635 0.0
N320 N 0.4727 0.026 0.41487 0.0
N321 N 0.4807 0.01962 0.44231 0.0
C322 C 0.0719 0.95375 0.65644 0.0
C323 C 0.06289 0.94222 0.64462 0.0
C324 C 0.05709 0.96794 0.6645 0.0
C325 C 0.03291 0.97063 0.66099 0.0
C326 C 0.03876 0.94524 0.64105 0.0
C327 C 0.02398 0.95934 0.64912 0.0
C328 C 0.01704 0.98608 0.66916 0.0
C329 C 0.03874 0.92596 0.69629 0.0
C330 C 0.05368 0.93269 0.70734 0.0
C331 C 0.02616 0.94304 0.68877 0.0
C332 C 0.02844 0.96724 0.69204 0.0
C333 C 0.05522 0.95687 0.71094 0.0
C334 C 0.0426 0.974 0.70338 0.0
C335 C 0.01591 0.98541 0.68368 0.0
C336 C 0.93568 0.05433 0.69552 0.0
C337 C 0.94603 0.0668 0.70666 0.0
C338 C 0.94887 0.03757 0.68819 0.0
C339 C 0.97291 0.03353 0.69154 0.0
C340 C 0.9696 0.06138 0.71057 0.0
C341 C 0.98288 0.04502 0.70307 0.0
C342 C 0.98792 0.01735 0.6833 0.0
C343 C 0.96073 0.0738 0.65369 0.0
C344 C 0.94938 0.06461 0.64188 0.0
C345 C 0.97372 0.05876 0.66248 0.0
C346 C 0.97474 0.03417 0.65983 0.0
C347 C 0.95085 0.04021 0.63908 0.0
C348 C 0.96333 0.02514 0.64799 0.0
C349 C 0.98868 0.01768 0.6687 0.0
H350 H 0.09038 0.95178 0.65949 0.0
H351 H 0.06462 0.97702 0.67338 0.0
H352 H 0.03134 0.93706 0.63185 0.0
H353 H 0.00549 0.96142 0.64609 0.0
H354 H 0.03668 0.90743 0.69348 0.0
H355 H 0.01474 0.93733 0.68033 0.0
H356 H 0.06662 0.96262 0.71938 0.0
H357 H 0.04438 0.99258 0.70616 0.0
H358 H 0.91762 0.05796 0.69217 0.0
H359 H 0.94042 0.02822 0.67969 0.0
H360 H 0.97796 0.06998 0.71935 0.0
H361 H 0.0012 0.04177 0.70609 0.0
H362 H 0.96005 0.09267 0.65591 0.0
H363 H 0.98311 0.06638 0.67122 0.0
H364 H 0.94224 0.0328 0.62999 0.0
H365 H 0.96407 0.00633 0.64561 0.0
N366 N 0.00319 0.00199 0.66227 0.0
N367 N 0.00166 0.00125 0.6902 0.0
Mn368 Mn 0.32724 0.67425 0.0053 0.0
Mn369 Mn 0.33362 0.6148 0.0069 0.0
C370 C 0.33002 0.65561 0.02663 0.0
C371 C 0.34404 0.71193 0.00354 0.0
C372 C 0.28719 0.63945 0.99929 0.0
O373 O 0.33752 0.6653 0.98584 0.0
O374 O 0.34599 0.62647 0.98907 0.0
C375 C 0.38609 0.61047 0.00744 0.0
N376 N 0.36464 0.60598 0.01327 0.0
C377 C 0.38301 0.58327 0.03152 0.0
C378 C 0.4053 0.58753 0.02567 0.0
C379 C 0.40684 0.60127 0.01361 0.0
C380 C 0.36296 0.5929 0.02491 0.0
H381 H 0.38732 0.62102 0.99818 0.0
C382 C 0.34577 0.64539 0.9817 0.0
O383 O 0.32212 0.70801 0.99986 0.0
O384 O 0.35628 0.69386 0.00795 0.0
N385 N 0.32252 0.60147 0.02376 0.0
C386 C 0.29989 0.60051 0.0286 0.0
C387 C 0.2953 0.58786 0.04075 0.0
C388 C 0.31398 0.57628 0.04773 0.0
C389 C 0.33717 0.5778 0.04267 0.0
C390 C 0.34063 0.59048 0.03045 0.0
H391 H 0.28542 0.60914 0.02318 0.0
O392 O 0.32056 0.67658 0.02551 0.0
O393 O 0.33759 0.6463 0.01522 0.0
O394 O 0.2941 0.66067 0.00156 0.0
O395 O 0.30089 0.62145 0.00043 0.0
C396 C 0.357 0.5673 0.04927 0.0
C397 C 0.37993 0.57019 0.04376 0.0
H398 H 0.42136 0.58053 0.03042 0.0
H399 H 0.42399 0.60474 0.00908 0.0
H400 H 0.27737 0.58682 0.04464 0.0
H401 H 0.31024 0.56615 0.0569 0.0
H402 H 0.35485 0.55711 0.05863 0.0
H403 H 0.39508 0.56239 0.04906 0.0
Mn404 Mn 0.32784 0.82576 0.25634 0.0
Mn405 Mn 0.38762 0.82749 0.25914 0.0
C406 C 0.34583 0.83021 0.27779 0.0
C407 C 0.2913 0.84465 0.25336 0.0
C408 C 0.36007 0.7819 0.25491 0.0
O409 O 0.33764 0.83306 0.2367 0.0
O410 O 0.37741 0.83326 0.23971 0.0
C411 C 0.3942 0.87856 0.25281 0.0
N412 N 0.39768 0.85971 0.26141 0.0
C413 C 0.42046 0.8837 0.27731 0.0
C414 C 0.41723 0.90334 0.26858 0.0
C415 C 0.40398 0.90076 0.2563 0.0
C416 C 0.41031 0.86201 0.27328 0.0
H417 H 0.38403 0.87667 0.24336 0.0
C418 C 0.35869 0.83519 0.23212 0.0
O419 O 0.29385 0.82218 0.25065 0.0
O420 O 0.31009 0.85616 0.25741 0.0
N421 N 0.40019 0.82251 0.27731 0.0
C422 C 0.40043 0.80221 0.28497 0.0
C423 C 0.41295 0.80178 0.29757 0.0
C424 C 0.4251 0.82219 0.30213 0.0
C425 C 0.42418 0.843 0.29423 0.0
C426 C 0.41179 0.84225 0.28164 0.0
H427 H 0.39132 0.78642 0.28142 0.0
O428 O 0.32451 0.82158 0.27665 0.0
O429 O 0.35617 0.83573 0.26628 0.0
O430 O 0.33951 0.79143 0.25419 0.0
O431 O 0.37915 0.79368 0.25706 0.0
C432 C 0.435 0.86449 0.29836 0.0
C433 C 0.43302 0.88486 0.28994 0.0
H434 H 0.42469 0.92051 0.27125 0.0
H435 H 0.40132 0.91586 0.24954 0.0
H436 H 0.41343 0.7857 0.3037 0.0
H437 H 0.43517 0.82172 0.31169 0.0
H438 H 0.44463 0.86561 0.30808 0.0
H439 H 0.4411 0.90137 0.29333 0.0
Mn440 Mn 0.17557 0.82374 0.50111 0.0
Mn441 Mn 0.11595 0.82935 0.50129 0.0
C442 C 0.15498 0.83255 0.48086 0.0
C443 C 0.21328 0.84036 0.50358 0.0
C444 C 0.1412 0.78178 0.50258 0.0
O445 O 0.1686 0.82823 0.52151 0.0
O446 O 0.12892 0.83378 0.52025 0.0
C447 C 0.11212 0.88024 0.50868 0.0
N448 N 0.10758 0.86215 0.49969 0.0
C449 C 0.08392 0.88766 0.48512 0.0
C450 C 0.08815 0.90651 0.4943 0.0
C451 C 0.10252 0.90284 0.50604 0.0
C452 C 0.09435 0.86565 0.48815 0.0
H453 H 0.12278 0.87737 0.51787 0.0
C454 C 0.14858 0.83257 0.52703 0.0
O455 O 0.20989 0.81767 0.50506 0.0
O456 O 0.19471 0.85335 0.501 0.0
N457 N 0.101 0.82559 0.48362 0.0
C458 C 0.09719 0.80515 0.47636 0.0
C459 C 0.08332 0.80581 0.46423 0.0
C460 C 0.07306 0.82734 0.45986 0.0
C461 C 0.07657 0.84796 0.46776 0.0
C462 C 0.09079 0.84628 0.47966 0.0
H463 H 0.1047 0.78847 0.47978 0.0
O464 O 0.17601 0.82311 0.48051 0.0
O465 O 0.14672 0.83651 0.49309 0.0
O466 O 0.16233 0.78983 0.50175 0.0
O467 O 0.12282 0.79509 0.50268 0.0
C468 C 0.06591 0.86993 0.46449 0.0
C469 C 0.06939 0.88968 0.47325 0.0
H470 H 0.08033 0.92384 0.4925 0.0
H471 H 0.1059 0.91734 0.51314 0.0
H472 H 0.08042 0.78974 0.45831 0.0
H473 H 0.06222 0.82774 0.45056 0.0
H474 H 0.05469 0.87174 0.4554 0.0
H475 H 0.06061 0.90629 0.47078 0.0
Mn476 Mn 0.1785 0.68351 0.74673 0.0
Mn477 Mn 0.17203 0.62422 0.74276 0.0
C478 C 0.17306 0.66751 0.725 0.0
C479 C 0.16213 0.72094 0.75042 0.0
C480 C 0.21952 0.64789 0.74861 0.0
O481 O 0.17028 0.67244 0.76606 0.0
O482 O 0.1648 0.63326 0.76208 0.0
C483 C 0.11998 0.62093 0.74657 0.0
N484 N 0.13949 0.61699 0.7387 0.0
C485 C 0.1157 0.59888 0.72078 0.0
C486 C 0.09536 0.60264 0.72872 0.0
C487 C 0.09752 0.61375 0.74166 0.0
C488 C 0.13762 0.60635 0.72623 0.0
H489 H 0.12156 0.62952 0.7565 0.0
C490 C 0.16496 0.65149 0.77003 0.0
O491 O 0.18435 0.71662 0.75325 0.0
O492 O 0.14939 0.70335 0.74585 0.0
N493 N 0.1783 0.61308 0.72451 0.0
C494 C 0.19946 0.61193 0.71784 0.0
C495 C 0.20033 0.6017 0.70465 0.0
C496 C 0.17949 0.59263 0.69849 0.0
C497 C 0.15794 0.59395 0.70557 0.0
C498 C 0.15821 0.60413 0.71875 0.0
H499 H 0.21554 0.6188 0.72254 0.0
O500 O 0.18289 0.68824 0.72647 0.0
O501 O 0.16685 0.65681 0.73627 0.0
O502 O 0.21189 0.66925 0.74871 0.0
O503 O 0.20606 0.62989 0.74661 0.0
C504 C 0.13614 0.58591 0.69998 0.0
C505 C 0.11503 0.58844 0.70756 0.0
H506 H 0.07798 0.59724 0.72495 0.0
H507 H 0.08189 0.6168 0.74782 0.0
H508 H 0.21702 0.60079 0.69923 0.0
H509 H 0.18024 0.58478 0.68831 0.0
H510 H 0.13536 0.57808 0.68978 0.0
H511 H 0.09832 0.58253 0.70307 0.0
Mn512 Mn 0.82402 0.17994 0.50554 0.0
Mn513 Mn 0.82908 0.12097 0.5112 0.0
C514 C 0.82891 0.16563 0.52771 0.0
C515 C 0.84119 0.21668 0.501 0.0
C516 C 0.78232 0.14515 0.50417 0.0
O517 O 0.83239 0.1671 0.48664 0.0
O518 O 0.83713 0.12818 0.49167 0.0
C519 C 0.88112 0.116 0.508 0.0
N520 N 0.86133 0.11335 0.5158 0.0
C521 C 0.8843 0.09682 0.53458 0.0
C522 C 0.90491 0.09924 0.5267 0.0
C523 C 0.90331 0.10891 0.51336 0.0
C524 C 0.86267 0.10406 0.52865 0.0
H525 H 0.87999 0.12352 0.49777 0.0
C526 C 0.83758 0.14579 0.48326 0.0
O527 O 0.81893 0.21262 0.49816 0.0
O528 O 0.85351 0.1992 0.50609 0.0
N529 N 0.8221 0.11183 0.52974 0.0
C530 C 0.80084 0.11223 0.53633 0.0
C531 C 0.7995 0.10384 0.54994 0.0
C532 C 0.81999 0.09507 0.55661 0.0
C533 C 0.84166 0.09478 0.54961 0.0
C534 C 0.84187 0.10317 0.53602 0.0
H535 H 0.78505 0.11905 0.53128 0.0
O536 O 0.81937 0.18635 0.52565 0.0
O537 O 0.83491 0.15392 0.51675 0.0
O538 O 0.79048 0.16627 0.50357 0.0
O539 O 0.7952 0.127 0.50687 0.0
C540 C 0.86315 0.08694 0.55569 0.0
C541 C 0.88446 0.08801 0.54818 0.0
H542 H 0.92208 0.09395 0.53084 0.0
H543 H 0.91916 0.11095 0.50725 0.0
H544 H 0.78273 0.10422 0.5553 0.0
H545 H 0.81892 0.08879 0.56715 0.0
H546 H 0.86355 0.08042 0.5662 0.0
H547 H 0.90094 0.08231 0.55305 0.0
Mn548 Mn 0.81727 0.3251 0.75511 0.0
Mn549 Mn 0.87496 0.33169 0.76407 0.0
C550 C 0.82799 0.33102 0.77796 0.0
C551 C 0.78146 0.34227 0.7482 0.0
C552 C 0.8527 0.28416 0.75634 0.0
O553 O 0.83306 0.33237 0.73677 0.0
O554 O 0.87045 0.33987 0.74426 0.0
C555 C 0.87934 0.38387 0.76106 0.0
N556 N 0.88127 0.36399 0.76901 0.0
C557 C 0.89501 0.38688 0.7885 0.0
C558 C 0.89329 0.40758 0.7805 0.0
C559 C 0.88537 0.40607 0.76674 0.0
C560 C 0.88881 0.36525 0.78228 0.0
H561 H 0.87321 0.38278 0.75049 0.0
C562 C 0.85452 0.33884 0.7347 0.0
O563 O 0.78554 0.31981 0.74613 0.0
O564 O 0.7984 0.35469 0.75379 0.0
N565 N 0.88155 0.32454 0.78303 0.0
C566 C 0.88086 0.30311 0.78956 0.0
C567 C 0.88768 0.30163 0.80351 0.0
C568 C 0.89527 0.32213 0.81057 0.0
C569 C 0.89592 0.34397 0.80362 0.0
C570 C 0.88907 0.34433 0.78969 0.0
H571 H 0.87512 0.28728 0.78418 0.0
O572 O 0.80766 0.32145 0.77484 0.0
O573 O 0.84128 0.33674 0.76763 0.0
O574 O 0.83135 0.29151 0.75489 0.0
O575 O 0.87011 0.29783 0.75945 0.0
C576 C 0.90275 0.36545 0.81001 0.0
C577 C 0.9022 0.3869 0.80248 0.0
H578 H 0.89782 0.42476 0.78486 0.0
H579 H 0.88389 0.42199 0.76052 0.0
H580 H 0.88709 0.28471 0.80882 0.0
H581 H 0.90043 0.32091 0.82134 0.0
H582 H 0.90816 0.36573 0.82077 0.0
H583 H 0.90711 0.40336 0.80757 0.0
Mn584 Mn 0.68089 0.32703 0.99562 0.0
Mn585 Mn 0.62189 0.33298 0.98981 0.0
C586 C 0.66647 0.3339 0.9736 0.0
C587 C 0.71798 0.34349 0.00065 0.0
C588 C 0.64569 0.2855 0.99493 0.0
O589 O 0.66836 0.33383 0.01478 0.0
O590 O 0.62931 0.33809 0.00973 0.0
C591 C 0.61756 0.38439 0.99583 0.0
N592 N 0.61457 0.36581 0.98697 0.0
C593 C 0.59797 0.39148 0.96949 0.0
C594 C 0.60074 0.41087 0.97847 0.0
C595 C 0.61061 0.4073 0.99168 0.0
C596 C 0.60507 0.36904 0.97423 0.0
H597 H 0.62524 0.38174 0.00597 0.0
C598 C 0.64692 0.3379 0.01827 0.0
O599 O 0.71373 0.3211 0.00282 0.0
O600 O 0.70044 0.35634 0.99609 0.0
N601 N 0.61239 0.32872 0.97095 0.0
C602 C 0.61233 0.30845 0.96326 0.0
C603 C 0.60362 0.30909 0.94963 0.0
C604 C 0.59498 0.33052 0.94408 0.0
C605 C 0.59512 0.35113 0.95221 0.0
C606 C 0.6038 0.34936 0.96577 0.0
H607 H 0.61904 0.29195 0.96746 0.0
O608 O 0.68707 0.32395 0.97542 0.0
O609 O 0.65486 0.33917 0.98469 0.0
O610 O 0.6668 0.29347 0.9964 0.0
O611 O 0.62771 0.29868 0.99231 0.0
C612 C 0.58747 0.37347 0.94731 0.0
C613 C 0.58892 0.39363 0.95594 0.0
H614 H 0.59555 0.4286 0.97527 0.0
H615 H 0.61292 0.42219 0.99864 0.0
H616 H 0.60364 0.29313 0.9434 0.0
H617 H 0.58844 0.33098 0.93353 0.0
H618 H 0.5808 0.37542 0.93684 0.0
H619 H 0.58332 0.41077 0.95198 0.0
Mn620 Mn 0.6739 0.16941 0.24771 0.0
Mn621 Mn 0.67276 0.10944 0.24833 0.0
C622 C 0.67349 0.14811 0.22724 0.0
C623 C 0.65488 0.20618 0.24754 0.0
C624 C 0.71732 0.13808 0.25387 0.0
O625 O 0.66326 0.16249 0.26728 0.0
O626 O 0.66312 0.12248 0.26647 0.0
C627 C 0.62082 0.10273 0.25132 0.0
N628 N 0.64125 0.09855 0.24432 0.0
C629 C 0.62079 0.07314 0.22813 0.0
C630 C 0.59954 0.07712 0.23519 0.0
C631 C 0.59955 0.09203 0.24681 0.0
C632 C 0.64143 0.08426 0.23312 0.0
H633 H 0.62075 0.11413 0.26029 0.0
C634 C 0.66001 0.1422 0.27282 0.0
O635 O 0.67674 0.20396 0.25179 0.0
O636 O 0.64392 0.18694 0.2437 0.0
N637 N 0.68142 0.09434 0.2315 0.0
C638 C 0.70307 0.09363 0.22536 0.0
C639 C 0.70606 0.07969 0.21352 0.0
C640 C 0.68679 0.06663 0.20819 0.0
C641 C 0.66459 0.06794 0.21453 0.0
C642 C 0.66276 0.08189 0.2264 0.0
H643 H 0.71792 0.10362 0.22946 0.0
O644 O 0.68158 0.16971 0.22767 0.0
O645 O 0.66581 0.13954 0.23884 0.0
O646 O 0.70772 0.15851 0.25263 0.0
O647 O 0.70593 0.11863 0.25232 0.0
C648 C 0.64417 0.05615 0.20947 0.0
C649 C 0.62225 0.05884 0.21623 0.0
H650 H 0.58308 0.06894 0.23172 0.0
H651 H 0.5832 0.09523 0.25228 0.0
H652 H 0.72318 0.07888 0.20856 0.0
H653 H 0.68927 0.05557 0.19928 0.0
H654 H 0.64506 0.0452 0.20031 0.0
H655 H 0.6066 0.04996 0.21214 0.0
H656 H 0.13046 0.98479 0.28592 0.0
H657 H 0.16065 0.96111 0.27442 0.0
H658 H 0.11451 0.89986 0.27551 0.0
H659 H 0.08452 0.92329 0.28755 0.0
H660 H 0.15733 0.88854 0.28449 0.0
H661 H 0.12703 0.92806 0.2448 0.0
H662 H 0.11341 0.96186 0.2306 0.0
H663 H 0.18305 0.99294 0.23305 0.0
H664 H 0.19703 0.9595 0.24745 0.0
H665 H 0.24757 0.82381 0.25017 0.0
H666 H 0.2087 0.84284 0.25289 0.0
H667 H 0.24312 0.9107 0.2587 0.0
H668 H 0.2819 0.8919 0.25596 0.0
H669 H 0.20164 0.91432 0.24315 0.0
H670 H 0.22891 0.87817 0.28605 0.0
H671 H 0.24245 0.84466 0.30054 0.0
H672 H 0.17748 0.80723 0.29174 0.0
H673 H 0.1637 0.84043 0.27703 0.0
C674 C 0.1267 0.96629 0.2837 0.0
C675 C 0.10514 0.9559 0.28773 0.0
C676 C 0.14386 0.95283 0.27696 0.0
C677 C 0.13975 0.92875 0.27394 0.0
C678 C 0.11801 0.91844 0.27767 0.0
C679 C 0.10083 0.9319 0.28446 0.0
C680 C 0.15894 0.91405 0.26794 0.0
C681 C 0.16661 0.89386 0.27524 0.0
C682 C 0.17132 0.92116 0.25599 0.0
C683 C 0.16304 0.94131 0.24728 0.0
C684 C 0.13941 0.94218 0.2424 0.0
C685 C 0.13163 0.96127 0.2343 0.0
C686 C 0.14734 0.97955 0.23094 0.0
C687 C 0.1709 0.97876 0.23566 0.0
C688 C 0.17877 0.95972 0.24377 0.0
C689 C 0.24682 0.84285 0.25177 0.0
C690 C 0.26778 0.85634 0.25299 0.0
C691 C 0.22462 0.85367 0.25335 0.0
C692 C 0.22308 0.87812 0.25615 0.0
C693 C 0.24392 0.89181 0.25655 0.0
C694 C 0.26607 0.88101 0.25505 0.0
C695 C 0.20016 0.88925 0.25988 0.0
C696 C 0.19191 0.90875 0.25218 0.0
C697 C 0.18717 0.88152 0.27145 0.0
C698 C 0.19542 0.86162 0.28031 0.0
C699 C 0.21761 0.86271 0.28712 0.0
C700 C 0.22531 0.84379 0.29538 0.0
C701 C 0.21087 0.82379 0.29702 0.0
C702 C 0.18867 0.82271 0.29043 0.0
C703 C 0.1809 0.84156 0.28213 0.0
H704 H 0.21686 0.80917 0.30343 0.0
H705 H 0.14128 0.99432 0.22467 0.0
H706 H 0.04411 0.59775 0.53744 0.0
H707 H 0.06359 0.63114 0.52638 0.0
H708 H 0.13051 0.59384 0.52797 0.0
H709 H 0.11092 0.55959 0.53858 0.0
H710 H 0.13194 0.64143 0.53834 0.0
H711 H 0.10745 0.60018 0.49785 0.0
H712 H 0.07989 0.57809 0.48261 0.0
H713 H 0.03349 0.63863 0.48058 0.0
H714 H 0.06057 0.66099 0.49598 0.0
H715 H 0.17501 0.74662 0.50533 0.0
H716 H 0.16817 0.70414 0.50921 0.0
H717 H 0.09242 0.71582 0.50701 0.0
H718 H 0.09896 0.7579 0.50289 0.0
H719 H 0.10383 0.67585 0.49395 0.0
H720 H 0.12296 0.71302 0.53802 0.0
H721 H 0.14859 0.73542 0.55423 0.0
H722 H 0.20341 0.68281 0.5502 0.0
H723 H 0.17818 0.66025 0.53381 0.0
C724 C 0.06284 0.59624 0.53516 0.0
C725 C 0.07584 0.57578 0.53883 0.0
C726 C 0.07398 0.61547 0.5289 0.0
C727 C 0.09842 0.61483 0.52625 0.0
C728 C 0.1116 0.59459 0.52991 0.0
C729 C 0.10037 0.57512 0.53604 0.0
C730 C 0.11001 0.636 0.52027 0.0
C731 C 0.12633 0.64869 0.52846 0.0
C732 C 0.10235 0.64554 0.50748 0.0
C733 C 0.08602 0.63223 0.49814 0.0
C734 C 0.09129 0.60874 0.49423 0.0
C735 C 0.07576 0.59617 0.48555 0.0
C736 C 0.05494 0.60694 0.48064 0.0
C737 C 0.04963 0.63032 0.48439 0.0
C738 C 0.06509 0.64296 0.49308 0.0
C739 C 0.1569 0.7401 0.50553 0.0
C740 C 0.13754 0.75577 0.50393 0.0
C741 C 0.15304 0.71582 0.50778 0.0
C742 C 0.12978 0.70686 0.50855 0.0
C743 C 0.11052 0.72232 0.50645 0.0
C744 C 0.11433 0.74647 0.50417 0.0
C745 C 0.12507 0.68174 0.51226 0.0
C746 C 0.11001 0.6683 0.50364 0.0
C747 C 0.13371 0.67161 0.52471 0.0
C748 C 0.14884 0.68514 0.53456 0.0
C749 C 0.14056 0.70634 0.54051 0.0
C750 C 0.15499 0.71904 0.54974 0.0
C751 C 0.17765 0.71059 0.5532 0.0
C752 C 0.18588 0.68937 0.54747 0.0
C753 C 0.17153 0.67662 0.53822 0.0
H754 H 0.1888 0.72044 0.56036 0.0
H755 H 0.04294 0.59718 0.47392 0.0
H756 H 0.40588 0.55312 0.78993 0.0
H757 H 0.37063 0.57049 0.77923 0.0
H758 H 0.4075 0.63707 0.77427 0.0
H759 H 0.4435 0.61951 0.78452 0.0
H760 H 0.3608 0.64039 0.78624 0.0
H761 H 0.39841 0.60776 0.74663 0.0
H762 H 0.41889 0.57693 0.73314 0.0
H763 H 0.35808 0.5312 0.73634 0.0
H764 H 0.33735 0.56161 0.75003 0.0
H765 H 0.25572 0.6806 0.75096 0.0
H766 H 0.29771 0.67277 0.7561 0.0
H767 H 0.28312 0.59751 0.75768 0.0
H768 H 0.24152 0.60503 0.7522 0.0
H769 H 0.32291 0.60477 0.74465 0.0
H770 H 0.28844 0.63294 0.7872 0.0
H771 H 0.26753 0.66175 0.80191 0.0
H772 H 0.32167 0.71381 0.79432 0.0
H773 H 0.34275 0.68536 0.77941 0.0
C774 C 0.40681 0.5713 0.78632 0.0
C775 C 0.42773 0.58479 0.78796 0.0
C776 C 0.38653 0.58125 0.78028 0.0
C777 C 0.38658 0.60496 0.77585 0.0
C778 C 0.40719 0.61869 0.77761 0.0
C779 C 0.42768 0.60865 0.78353 0.0
C780 C 0.36468 0.61521 0.76971 0.0
C781 C 0.35272 0.63306 0.77696 0.0
C782 C 0.35405 0.60524 0.75776 0.0
C783 C 0.36637 0.58695 0.74943 0.0
C784 C 0.38946 0.59107 0.74454 0.0
C785 C 0.40111 0.57368 0.73685 0.0
C786 C 0.3898 0.55211 0.7339 0.0
C787 C 0.36681 0.54792 0.73863 0.0
C788 C 0.35509 0.56524 0.74634 0.0
C789 C 0.26148 0.66238 0.75233 0.0
C790 C 0.24516 0.64347 0.75124 0.0
C791 C 0.28548 0.65794 0.75532 0.0
C792 C 0.29353 0.63457 0.75743 0.0
C793 C 0.27736 0.61569 0.75606 0.0
C794 C 0.2535 0.62006 0.75297 0.0
C795 C 0.31857 0.62945 0.76143 0.0
C796 C 0.33115 0.61254 0.75376 0.0
C797 C 0.32963 0.64007 0.7731 0.0
C798 C 0.31699 0.65715 0.78206 0.0
C799 C 0.29577 0.6506 0.78858 0.0
C800 C 0.28392 0.66684 0.79697 0.0
C801 C 0.29323 0.68963 0.79901 0.0
C802 C 0.31445 0.69618 0.7927 0.0
C803 C 0.32636 0.68 0.78429 0.0
H804 H 0.28402 0.70218 0.80551 0.0
H805 H 0.39885 0.53867 0.72795 0.0
H806 H 0.40794 0.92648 0.03468 0.0
H807 H 0.38739 0.89354 0.02316 0.0
H808 H 0.4515 0.85154 0.02544 0.0
H809 H 0.47242 0.88469 0.03635 0.0
H810 H 0.42891 0.8435 0.00166 0.0
H811 H 0.40765 0.8468 0.04979 0.0
H812 H 0.39188 0.86577 0.07072 0.0
H813 H 0.32442 0.87603 0.0504 0.0
H814 H 0.33992 0.8574 0.02928 0.0
H815 H 0.3904 0.72434 0.0077 0.0
H816 H 0.40674 0.76435 0.01019 0.0
H817 H 0.33731 0.79428 0.00226 0.0
H818 H 0.32077 0.75417 0.99973 0.0
H819 H 0.35848 0.81176 0.02589 0.0
H820 H 0.37928 0.80121 0.97882 0.0
H821 H 0.39595 0.78007 0.95886 0.0
H822 H 0.46523 0.78146 0.9779 0.0
H823 H 0.44892 0.80224 0.99809 0.0
C824 C 0.41781 0.91042 0.03246 0.0
C825 C 0.44175 0.90811 0.03661 0.0
C826 C 0.40598 0.89154 0.02597 0.0
C827 C 0.41779 0.86992 0.02366 0.0
C828 C 0.44198 0.868 0.02718 0.0
C829 C 0.45384 0.88688 0.03357 0.0
C830 C 0.40476 0.84871 0.01847 0.0
C831 C 0.41354 0.83651 0.00697 0.0
C832 C 0.38438 0.83987 0.02522 0.0
C833 C 0.37503 0.85099 0.03791 0.0
C834 C 0.38951 0.85327 0.04976 0.0
C835 C 0.38062 0.86394 0.06166 0.0
C836 C 0.35719 0.87217 0.06187 0.0
C837 C 0.34258 0.8697 0.0502 0.0
C838 C 0.35141 0.85908 0.03827 0.0
C839 C 0.37865 0.73942 0.00629 0.0
C840 C 0.35429 0.73612 0.00357 0.0
C841 C 0.38805 0.76229 0.00765 0.0
C842 C 0.37326 0.78227 0.00632 0.0
C843 C 0.34902 0.77907 0.00327 0.0
C844 C 0.33963 0.75616 0.0018 0.0
C845 C 0.38289 0.8063 0.00925 0.0
C846 C 0.37351 0.819 0.02038 0.0
C847 C 0.40285 0.81541 0.00224 0.0
C848 C 0.41282 0.80317 0.99002 0.0
C849 C 0.39804 0.79687 0.9788 0.0
C850 C 0.40743 0.78496 0.96744 0.0
C851 C 0.43162 0.7794 0.96712 0.0
C852 C 0.44649 0.78578 0.97816 0.0
C853 C 0.43719 0.79765 0.98956 0.0
H854 H 0.43886 0.77017 0.95832 0.0
H855 H 0.35033 0.88042 0.07109 0.0
H856 H 0.06799 0.5749 0.9757 0.0
H857 H 0.10204 0.59534 0.98622 0.0
H858 H 0.13734 0.59565 0.94695 0.0
H859 H 0.10296 0.57662 0.93624 0.0
H860 H 0.14487 0.58058 0.98973 0.0
H861 H 0.17541 0.63973 0.94378 0.0
H862 H 0.15714 0.66339 0.92506 0.0
H863 H 0.09364 0.67151 0.94876 0.0
H864 H 0.11162 0.64815 0.96769 0.0
H865 H 0.26712 0.59761 0.99091 0.0
H866 H 0.22592 0.59013 0.98443 0.0
H867 H 0.20865 0.66362 0.99216 0.0
H868 H 0.25025 0.67151 0.99841 0.0
H869 H 0.18761 0.64874 0.96901 0.0
H870 H 0.19252 0.62098 0.01505 0.0
H871 H 0.20973 0.59925 0.03485 0.0
H872 H 0.19898 0.53302 0.01366 0.0
H873 H 0.18207 0.55437 0.99362 0.0
C874 C 0.08277 0.57984 0.96924 0.0
C875 C 0.08277 0.57399 0.95513 0.0
C876 C 0.10231 0.59136 0.97529 0.0
C877 C 0.1222 0.59726 0.96737 0.0
C878 C 0.12206 0.59174 0.95325 0.0
C879 C 0.10249 0.58048 0.94718 0.0
C880 C 0.14387 0.60755 0.97394 0.0
C881 C 0.15406 0.59564 0.98528 0.0
C882 C 0.15564 0.62759 0.96838 0.0
C883 C 0.14485 0.64206 0.95713 0.0
C884 C 0.15761 0.6467 0.94504 0.0
C885 C 0.14728 0.66002 0.93438 0.0
C886 C 0.12423 0.66892 0.93571 0.0
C887 C 0.11148 0.66456 0.94772 0.0
C888 C 0.12172 0.65124 0.95842 0.0
C889 C 0.25465 0.61226 0.99127 0.0
C890 C 0.26204 0.63517 0.99526 0.0
C891 C 0.23101 0.6079 0.98762 0.0
C892 C 0.21411 0.62621 0.98806 0.0
C893 C 0.2214 0.6492 0.99182 0.0
C894 C 0.24517 0.65366 0.99541 0.0
C895 C 0.18894 0.62112 0.98437 0.0
C896 C 0.17814 0.63398 0.9736 0.0
C897 C 0.17632 0.60232 0.99066 0.0
C898 C 0.18611 0.58931 0.00279 0.0
C899 C 0.19393 0.60179 0.01458 0.0
C900 C 0.20364 0.58954 0.02585 0.0
C901 C 0.20547 0.56477 0.02551 0.0
C902 C 0.19754 0.5522 0.01391 0.0
C903 C 0.18786 0.56437 0.0026 0.0
H904 H 0.21302 0.55532 0.03424 0.0
H905 H 0.11626 0.6792 0.92743 0.0
H906 H 0.40085 0.57413 0.20233 0.0
H907 H 0.37798 0.6069 0.21244 0.0
H908 H 0.4394 0.62756 0.23665 0.0
H909 H 0.46235 0.59513 0.22642 0.0
H910 H 0.39494 0.62965 0.25116 0.0
H911 H 0.43134 0.65459 0.20835 0.0
H912 H 0.4391 0.65126 0.18346 0.0
H913 H 0.36449 0.65873 0.1746 0.0
H914 H 0.35626 0.6617 0.1995 0.0
H915 H 0.39617 0.75274 0.26323 0.0
H916 H 0.40243 0.71128 0.25689 0.0
H917 H 0.33602 0.71111 0.2342 0.0
H918 H 0.32945 0.75276 0.24064 0.0
H919 H 0.3744 0.69515 0.21886 0.0
H920 H 0.33914 0.678 0.26174 0.0
H921 H 0.33174 0.68146 0.28665 0.0
H922 H 0.40342 0.65957 0.29555 0.0
H923 H 0.4114 0.65632 0.27067 0.0
C924 C 0.40924 0.58543 0.21001 0.0
C925 C 0.43331 0.58229 0.2136 0.0
C926 C 0.39623 0.6041 0.21574 0.0
C927 C 0.40707 0.61962 0.22525 0.0
C928 C 0.43074 0.61569 0.22937 0.0
C929 C 0.44383 0.59731 0.22349 0.0
C930 C 0.39466 0.64123 0.23001 0.0
C931 C 0.39041 0.64401 0.24414 0.0
C932 C 0.38821 0.6596 0.22074 0.0
C933 C 0.39315 0.65801 0.20578 0.0
C934 C 0.41657 0.65528 0.2011 0.0
C935 C 0.42106 0.6535 0.18699 0.0
C936 C 0.40229 0.65468 0.17745 0.0
C937 C 0.379 0.65774 0.182 0.0
C938 C 0.37441 0.65947 0.19611 0.0
C939 C 0.38269 0.74382 0.25707 0.0
C940 C 0.36234 0.75606 0.25241 0.0
C941 C 0.38624 0.72007 0.25351 0.0
C942 C 0.36963 0.70811 0.24513 0.0
C943 C 0.34898 0.72004 0.24073 0.0
C944 C 0.34523 0.74377 0.24446 0.0
C945 C 0.37513 0.68389 0.2401 0.0
C946 C 0.37825 0.68061 0.22589 0.0
C947 C 0.38053 0.66509 0.24931 0.0
C948 C 0.37591 0.66707 0.26431 0.0
C949 C 0.35341 0.67412 0.269 0.0
C950 C 0.34909 0.67601 0.28312 0.0
C951 C 0.36711 0.67078 0.29268 0.0
C952 C 0.38948 0.66362 0.28813 0.0
C953 C 0.3939 0.66172 0.27402 0.0
H954 H 0.36373 0.67224 0.30361 0.0
H955 H 0.4058 0.65329 0.16653 0.0
H956 H 0.41959 0.91941 0.46825 0.0
H957 H 0.39036 0.89458 0.47999 0.0
H958 H 0.3446 0.95553 0.48471 0.0
H959 H 0.37406 0.98057 0.4735 0.0
H960 H 0.343 0.92785 0.50715 0.0
H961 H 0.33775 0.9169 0.45762 0.0
H962 H 0.35345 0.90659 0.43474 0.0
H963 H 0.37058 0.83638 0.44915 0.0
H964 H 0.35526 0.84642 0.47218 0.0
H965 H 0.22472 0.88737 0.50367 0.0
H966 H 0.26404 0.90499 0.50114 0.0
H967 H 0.29562 0.8351 0.50114 0.0
H968 H 0.25612 0.81724 0.50365 0.0
H969 H 0.30933 0.86179 0.47919 0.0
H970 H 0.30664 0.87172 0.52782 0.0
H971 H 0.2892 0.88296 0.5501 0.0
H972 H 0.28532 0.9558 0.53704 0.0
H973 H 0.3024 0.94497 0.5146 0.0
C974 C 0.40354 0.92761 0.47206 0.0
C975 C 0.39899 0.9519 0.46978 0.0
C976 C 0.38678 0.91337 0.47868 0.0
C977 C 0.36514 0.92313 0.48302 0.0
C978 C 0.36113 0.94759 0.48139 0.0
C979 C 0.37788 0.96183 0.47484 0.0
C980 C 0.34582 0.9078 0.48832 0.0
C981 C 0.3356 0.91341 0.50105 0.0
C982 C 0.33656 0.88858 0.48051 0.0
C983 C 0.34565 0.8825 0.46666 0.0
C984 C 0.34504 0.89933 0.45593 0.0
C985 C 0.35384 0.89353 0.44294 0.0
C986 C 0.36308 0.87087 0.44051 0.0
C987 C 0.36347 0.85394 0.45106 0.0
C988 C 0.35473 0.85968 0.46408 0.0
C989 C 0.24005 0.87573 0.50336 0.0
C990 C 0.23733 0.85092 0.5038 0.0
C991 C 0.26255 0.88585 0.502 0.0
C992 C 0.28278 0.87136 0.50105 0.0
C993 C 0.28022 0.84658 0.50191 0.0
C994 C 0.25768 0.83642 0.50337 0.0
C995 C 0.3061 0.8822 0.49788 0.0
C996 C 0.31706 0.87581 0.48549 0.0
C997 C 0.31586 0.90082 0.50595 0.0
C998 C 0.3057 0.90749 0.51948 0.0
C999 C 0.30192 0.89011 0.52966 0.0
C1000 C 0.29212 0.89642 0.54232 0.0
C1001 C 0.28613 0.92007 0.54498 0.0
C1002 C 0.28997 0.93749 0.53497 0.0
C1003 C 0.29975 0.93128 0.52228 0.0
H1004 H 0.27853 0.92491 0.55479 0.0
H1005 H 0.36988 0.86641 0.43044 0.0
H1006 H 0.06151 0.92882 0.73526 0.0
H1007 H 0.08406 0.89782 0.74747 0.0
H1008 H 0.09949 0.86409 0.70862 0.0
H1009 H 0.07784 0.89528 0.6964 0.0
H1010 H 0.07617 0.85143 0.74898 0.0
H1011 H 0.15205 0.83794 0.70915 0.0
H1012 H 0.1763 0.86246 0.69363 0.0
H1013 H 0.16445 0.92362 0.71914 0.0
H1014 H 0.14041 0.89941 0.73493 0.0
H1015 H 0.11698 0.73471 0.74399 0.0
H1016 H 0.10174 0.77507 0.74214 0.0
H1017 H 0.16911 0.80262 0.7567 0.0
H1018 H 0.18474 0.76202 0.75828 0.0
H1019 H 0.15616 0.8249 0.73439 0.0
H1020 H 0.11826 0.80801 0.77639 0.0
H1021 H 0.09517 0.78499 0.79321 0.0
H1022 H 0.03393 0.78774 0.76642 0.0
H1023 H 0.05673 0.81048 0.74933 0.0
C1024 C 0.07005 0.91499 0.72933 0.0
C1025 C 0.06784 0.91445 0.71487 0.0
C1026 C 0.08278 0.89723 0.73632 0.0
C1027 C 0.09368 0.87879 0.72895 0.0
C1028 C 0.09159 0.87836 0.71452 0.0
C1029 C 0.07894 0.89605 0.70755 0.0
C1030 C 0.10627 0.8592 0.73622 0.0
C1031 C 0.09376 0.84574 0.74592 0.0
C1032 C 0.12953 0.85223 0.73255 0.0
C1033 C 0.14431 0.86684 0.7232 0.0
C1034 C 0.15474 0.85657 0.71151 0.0
C1035 C 0.16842 0.87044 0.70265 0.0
C1036 C 0.17188 0.89459 0.70538 0.0
C1037 C 0.16171 0.90492 0.71701 0.0
C1038 C 0.14803 0.89114 0.72592 0.0
C1039 C 0.12847 0.74929 0.74704 0.0
C1040 C 0.15211 0.74518 0.75122 0.0
C1041 C 0.11966 0.77241 0.74606 0.0
C1042 C 0.13419 0.79192 0.74941 0.0
C1043 C 0.15756 0.78783 0.75409 0.0
C1044 C 0.16645 0.76464 0.75502 0.0
C1045 C 0.12556 0.81642 0.74662 0.0
C1046 C 0.1388 0.83083 0.73773 0.0
C1047 C 0.10319 0.82448 0.75127 0.0
C1048 C 0.08927 0.81091 0.76154 0.0
C1049 C 0.09991 0.8036 0.77404 0.0
C1050 C 0.08686 0.7906 0.78363 0.0
C1051 C 0.0631 0.78489 0.78088 0.0
C1052 C 0.05233 0.7922 0.76854 0.0
C1053 C 0.0653 0.80518 0.7589 0.0
H1054 H 0.05303 0.77482 0.78832 0.0
H1055 H 0.18246 0.90529 0.6985 0.0
H1056 H 0.61079 0.42959 0.80611 0.0
H1057 H 0.64114 0.4069 0.79396 0.0
H1058 H 0.61646 0.43604 0.75521 0.0
H1059 H 0.58561 0.45845 0.76736 0.0
H1060 H 0.63134 0.38986 0.75226 0.0
H1061 H 0.66137 0.46217 0.77211 0.0
H1062 H 0.66883 0.4913 0.79066 0.0
H1063 H 0.7087 0.4391 0.8135 0.0
H1064 H 0.70108 0.4095 0.7952 0.0
H1065 H 0.77143 0.38851 0.74294 0.0
H1066 H 0.73301 0.4081 0.74549 0.0
H1067 H 0.69989 0.34005 0.75266 0.0
H1068 H 0.73825 0.32032 0.74955 0.0
H1069 H 0.71291 0.40855 0.76897 0.0
H1070 H 0.63936 0.3444 0.74865 0.0
H1071 H 0.6323 0.31729 0.72904 0.0
H1072 H 0.6811 0.35732 0.70448 0.0
H1073 H 0.68821 0.38487 0.72387 0.0
C1074 C 0.61163 0.43086 0.79497 0.0
C1075 C 0.59614 0.44598 0.78767 0.0
C1076 C 0.62892 0.41789 0.78805 0.0
C1077 C 0.63136 0.42019 0.77372 0.0
C1078 C 0.61492 0.43409 0.76628 0.0
C1079 C 0.59736 0.44688 0.77321 0.0
C1080 C 0.65241 0.40995 0.76683 0.0
C1081 C 0.64921 0.39391 0.75586 0.0
C1082 C 0.67573 0.41572 0.77133 0.0
C1083 C 0.68045 0.43355 0.78233 0.0
C1084 C 0.67156 0.45684 0.78113 0.0
C1085 C 0.67583 0.47344 0.79161 0.0
C1086 C 0.68918 0.46704 0.80327 0.0
C1087 C 0.69832 0.44402 0.80447 0.0
C1088 C 0.69403 0.42733 0.79405 0.0
C1089 C 0.75578 0.37768 0.74458 0.0
C1090 C 0.75777 0.35296 0.74616 0.0
C1091 C 0.73385 0.38888 0.74607 0.0
C1092 C 0.71356 0.37561 0.74941 0.0
C1093 C 0.71519 0.35068 0.74993 0.0
C1094 C 0.73713 0.3394 0.74818 0.0
C1095 C 0.69204 0.38805 0.75445 0.0
C1096 C 0.69512 0.40453 0.7652 0.0
C1097 C 0.66878 0.38293 0.74955 0.0
C1098 C 0.66447 0.36658 0.73777 0.0
C1099 C 0.64851 0.34749 0.73905 0.0
C1100 C 0.64451 0.33202 0.72797 0.0
C1101 C 0.6563 0.33554 0.71554 0.0
C1102 C 0.67206 0.35456 0.71414 0.0
C1103 C 0.67611 0.37008 0.72518 0.0
H1104 H 0.65319 0.32354 0.70698 0.0
H1105 H 0.69247 0.47992 0.81135 0.0
H1106 H 0.54257 0.09103 0.0223 0.0
H1107 H 0.56297 0.12501 0.01228 0.0
H1108 H 0.61416 0.12401 0.04577 0.0
H1109 H 0.59296 0.09103 0.05633 0.0
H1110 H 0.60085 0.16703 0.04164 0.0
H1111 H 0.628 0.10546 0.0121 0.0
H1112 H 0.62489 0.07087 0.99657 0.0
H1113 H 0.58359 0.11209 0.96775 0.0
H1114 H 0.58616 0.14686 0.9832 0.0
H1115 H 0.67281 0.25455 0.01012 0.0
H1116 H 0.66196 0.21425 0.01725 0.0
H1117 H 0.59775 0.21848 0.99266 0.0
H1118 H 0.60824 0.25884 0.98562 0.0
H1119 H 0.62215 0.17242 0.99222 0.0
H1120 H 0.59256 0.2325 0.0238 0.0
H1121 H 0.59763 0.26693 0.03931 0.0
H1122 H 0.64657 0.22697 0.0645 0.0
H1123 H 0.6421 0.19243 0.04897 0.0
C1124 C 0.55808 0.0981 0.0276 0.0
C1125 C 0.56605 0.08824 0.04016 0.0
C1126 C 0.56997 0.11734 0.02173 0.0
C1127 C 0.59036 0.12689 0.02814 0.0
C1128 C 0.59855 0.11689 0.04058 0.0
C1129 C 0.58651 0.09784 0.04654 0.0
C1130 C 0.60229 0.14814 0.0223 0.0
C1131 C 0.60593 0.16794 0.03089 0.0
C1132 C 0.60868 0.14958 0.00823 0.0
C1133 C 0.60711 0.12873 0.99887 0.0
C1134 C 0.6181 0.10711 0.0025 0.0
C1135 C 0.61646 0.08747 0.9937 0.0
C1136 C 0.60401 0.08927 0.9812 0.0
C1137 C 0.59321 0.11073 0.97745 0.0
C1138 C 0.59478 0.13041 0.98622 0.0
C1139 C 0.65665 0.24671 0.00599 0.0
C1140 C 0.64126 0.25995 0.99741 0.0
C1141 C 0.65047 0.22373 0.01009 0.0
C1142 C 0.629 0.21355 0.00554 0.0
C1143 C 0.61441 0.22607 0.99625 0.0
C1144 C 0.62038 0.24916 0.99231 0.0
C1145 C 0.62044 0.19102 0.01156 0.0
C1146 C 0.61736 0.17116 0.003 0.0
C1147 C 0.61482 0.18937 0.02569 0.0
C1148 C 0.61721 0.20999 0.03514 0.0
C1149 C 0.60455 0.23113 0.03258 0.0
C1150 C 0.6073 0.25066 0.04138 0.0
C1151 C 0.62247 0.24917 0.05286 0.0
C1152 C 0.63487 0.22812 0.05558 0.0
C1153 C 0.63223 0.20856 0.04679 0.0
H1154 H 0.62458 0.26431 0.05966 0.0
H1155 H 0.60276 0.07404 0.9744 0.0
H1156 H 0.92515 0.11116 0.31032 0.0
H1157 H 0.88922 0.12991 0.3013 0.0
H1158 H 0.88653 0.07889 0.26809 0.0
H1159 H 0.92364 0.06137 0.27629 0.0
H1160 H 0.87188 0.11878 0.25868 0.0
H1161 H 0.85407 0.07301 0.29935 0.0
H1162 H 0.8581 0.06141 0.32379 0.0
H1163 H 0.83801 0.1318 0.33625 0.0
H1164 H 0.83415 0.14389 0.31186 0.0
H1165 H 0.74766 0.10157 0.24848 0.0
H1166 H 0.78944 0.09808 0.25527 0.0
H1167 H 0.7866 0.16704 0.27458 0.0
H1168 H 0.74473 0.17106 0.26746 0.0
H1169 H 0.80486 0.12528 0.2913 0.0
H1170 H 0.8168 0.1675 0.24896 0.0
H1171 H 0.81089 0.17534 0.22415 0.0
H1172 H 0.8399 0.1068 0.21448 0.0
H1173 H 0.84565 0.09839 0.23925 0.0
C1174 C 0.91737 0.10427 0.30088 0.0
C1175 C 0.92728 0.08447 0.29416 0.0
C1176 C 0.89654 0.11484 0.29584 0.0
C1177 C 0.88476 0.10544 0.28422 0.0
C1178 C 0.89514 0.08638 0.27715 0.0
C1179 C 0.91624 0.07612 0.28199 0.0
C1180 C 0.86105 0.11451 0.2798 0.0
C1181 C 0.85724 0.12011 0.26582 0.0
C1182 C 0.84196 0.11671 0.28913 0.0
C1183 C 0.8441 0.10942 0.30379 0.0
C1184 C 0.85066 0.08605 0.3073 0.0
C1185 C 0.8529 0.07938 0.32115 0.0
C1186 C 0.84839 0.09588 0.33157 0.0
C1187 C 0.84155 0.11906 0.32817 0.0
C1188 C 0.83932 0.12582 0.31434 0.0
C1189 C 0.75593 0.11614 0.25403 0.0
C1190 C 0.7429 0.13661 0.25742 0.0
C1191 C 0.77982 0.11412 0.25786 0.0
C1192 C 0.79101 0.13234 0.26535 0.0
C1193 C 0.77819 0.15287 0.26874 0.0
C1194 C 0.75435 0.15514 0.26464 0.0
C1195 C 0.81576 0.12904 0.27022 0.0
C1196 C 0.81969 0.12441 0.28426 0.0
C1197 C 0.83478 0.12721 0.2609 0.0
C1198 C 0.83149 0.13225 0.24598 0.0
C1199 C 0.82173 0.15401 0.24155 0.0
C1200 C 0.81845 0.15858 0.22749 0.0
C1201 C 0.82497 0.14156 0.21774 0.0
C1202 C 0.83485 0.11996 0.22204 0.0
C1203 C 0.83815 0.1153 0.23609 0.0
H1204 H 0.82242 0.14513 0.20686 0.0
H1205 H 0.85014 0.09069 0.34228 0.0
H1206 H 0.91277 0.42615 0.53493 0.0
H1207 H 0.89023 0.39621 0.52195 0.0
H1208 H 0.95087 0.34925 0.52333 0.0
H1209 H 0.97377 0.37938 0.53576 0.0
H1210 H 0.92869 0.34635 0.4988 0.0
H1211 H 0.906 0.34523 0.54696 0.0
H1212 H 0.89049 0.3629 0.56833 0.0
H1213 H 0.82479 0.3797 0.54753 0.0
H1214 H 0.84006 0.36237 0.52598 0.0
H1215 H 0.88793 0.22865 0.50317 0.0
H1216 H 0.90471 0.2685 0.50493 0.0
H1217 H 0.83509 0.29886 0.49823 0.0
H1218 H 0.81808 0.25883 0.49648 0.0
H1219 H 0.85642 0.31546 0.52153 0.0
H1220 H 0.87744 0.30779 0.47453 0.0
H1221 H 0.89362 0.28837 0.45388 0.0
H1222 H 0.96296 0.28644 0.47282 0.0
H1223 H 0.94716 0.30553 0.49369 0.0
C1224 C 0.92144 0.40963 0.53223 0.0
C1225 C 0.94497 0.40501 0.53653 0.0
C1226 C 0.90849 0.39248 0.52489 0.0
C1227 C 0.91877 0.37037 0.52184 0.0
C1228 C 0.94255 0.36616 0.5256 0.0
C1229 C 0.95553 0.38329 0.53286 0.0
C1230 C 0.90448 0.35088 0.51564 0.0
C1231 C 0.91288 0.33956 0.50375 0.0
C1232 C 0.88347 0.34246 0.52188 0.0
C1233 C 0.87427 0.3528 0.53483 0.0
C1234 C 0.88831 0.35286 0.54693 0.0
C1235 C 0.87956 0.36278 0.55907 0.0
C1236 C 0.8567 0.37249 0.55927 0.0
C1237 C 0.84252 0.37223 0.54734 0.0
C1238 C 0.85121 0.36236 0.53517 0.0
C1239 C 0.87624 0.24379 0.50178 0.0
C1240 C 0.85167 0.24063 0.49978 0.0
C1241 C 0.88589 0.26658 0.5027 0.0
C1242 C 0.87117 0.28665 0.50163 0.0
C1243 C 0.84676 0.28358 0.49903 0.0
C1244 C 0.83709 0.26073 0.498 0.0
C1245 C 0.88101 0.31045 0.50491 0.0
C1246 C 0.87182 0.32259 0.51631 0.0
C1247 C 0.90139 0.31944 0.49827 0.0
C1248 C 0.91106 0.30802 0.48572 0.0
C1249 C 0.89611 0.30308 0.47434 0.0
C1250 C 0.90522 0.29215 0.46258 0.0
C1251 C 0.9293 0.28615 0.46204 0.0
C1252 C 0.94432 0.29111 0.47325 0.0
C1253 C 0.93529 0.30202 0.48504 0.0
H1254 H 0.93632 0.27768 0.45293 0.0
H1255 H 0.84994 0.38016 0.56869 0.0
H1256 H 0.57667 0.10945 0.44719 0.0
H1257 H 0.61266 0.12722 0.45685 0.0
H1258 H 0.61629 0.07193 0.48763 0.0
H1259 H 0.57924 0.05513 0.47876 0.0
H1260 H 0.62959 0.1113 0.49885 0.0
H1261 H 0.64955 0.0709 0.45678 0.0
H1262 H 0.64636 0.06174 0.43195 0.0
H1263 H 0.66432 0.13392 0.42211 0.0
H1264 H 0.66733 0.14358 0.4469 0.0
H1265 H 0.75491 0.10709 0.51135 0.0
H1266 H 0.71369 0.09919 0.50448 0.0
H1267 H 0.71103 0.16585 0.48258 0.0
H1268 H 0.7522 0.17413 0.48956 0.0
H1269 H 0.69654 0.1249 0.46693 0.0
H1270 H 0.68067 0.16299 0.51007 0.0
H1271 H 0.68524 0.16972 0.53508 0.0
H1272 H 0.66134 0.09859 0.54307 0.0
H1273 H 0.65696 0.09131 0.51808 0.0
C1274 C 0.58475 0.10133 0.45622 0.0
C1275 C 0.57505 0.08064 0.46209 0.0
C1276 C 0.60559 0.11136 0.46161 0.0
C1277 C 0.61755 0.1006 0.47276 0.0
C1278 C 0.60751 0.08047 0.47895 0.0
C1279 C 0.58644 0.07067 0.47373 0.0
C1280 C 0.64094 0.10974 0.47771 0.0
C1281 C 0.64426 0.11408 0.49187 0.0
C1282 C 0.66003 0.11383 0.46859 0.0
C1283 C 0.65841 0.10802 0.45369 0.0
C1284 C 0.65267 0.08485 0.44932 0.0
C1285 C 0.65091 0.07957 0.43526 0.0
C1286 C 0.65507 0.09726 0.42546 0.0
C1287 C 0.66107 0.12025 0.42971 0.0
C1288 C 0.66282 0.12564 0.44376 0.0
C1289 C 0.74549 0.12021 0.5052 0.0
C1290 C 0.75683 0.14123 0.50098 0.0
C1291 C 0.72193 0.1157 0.50133 0.0
C1292 C 0.70937 0.13198 0.49307 0.0
C1293 C 0.72047 0.15312 0.48899 0.0
C1294 C 0.74393 0.15784 0.49304 0.0
C1295 C 0.68515 0.12614 0.48802 0.0
C1296 C 0.68173 0.12236 0.47385 0.0
C1297 C 0.66615 0.12219 0.49715 0.0
C1298 C 0.66868 0.12654 0.51219 0.0
C1299 C 0.67658 0.14871 0.51715 0.0
C1300 C 0.6791 0.15264 0.53132 0.0
C1301 C 0.67364 0.13458 0.54065 0.0
C1302 C 0.66559 0.11256 0.53583 0.0
C1303 C 0.66306 0.10853 0.52166 0.0
H1304 H 0.6756 0.13766 0.55163 0.0
H1305 H 0.65369 0.09314 0.41458 0.0
H1306 H 0.89812 0.06919 0.7124 0.0
H1307 H 0.87663 0.10225 0.72298 0.0
H1308 H 0.94241 0.14076 0.72802 0.0
H1309 H 0.96385 0.1086 0.71691 0.0
H1310 H 0.91237 0.14037 0.75195 0.0
H1311 H 0.90928 0.15465 0.70231 0.0
H1312 H 0.89896 0.14355 0.67838 0.0
H1313 H 0.82546 0.13736 0.68931 0.0
H1314 H 0.83543 0.14808 0.71338 0.0
H1315 H 0.89596 0.26225 0.75782 0.0
H1316 H 0.90561 0.22149 0.75191 0.0
H1317 H 0.83158 0.20705 0.74329 0.0
H1318 H 0.8217 0.24835 0.74887 0.0
H1319 H 0.85813 0.19008 0.72333 0.0
H1320 H 0.85967 0.18291 0.77191 0.0
H1321 H 0.86934 0.19365 0.79597 0.0
H1322 H 0.94377 0.18522 0.78791 0.0
H1323 H 0.9346 0.17478 0.76374 0.0
C1324 C 0.90803 0.08474 0.71566 0.0
C1325 C 0.93281 0.08611 0.71379 0.0
C1326 C 0.89572 0.10352 0.7218 0.0
C1327 C 0.90799 0.12384 0.7263 0.0
C1328 C 0.93268 0.12507 0.72474 0.0
C1329 C 0.94493 0.10655 0.71844 0.0
C1330 C 0.89526 0.14446 0.73214 0.0
C1331 C 0.90049 0.1513 0.74574 0.0
C1332 C 0.87913 0.15812 0.72414 0.0
C1333 C 0.87314 0.15185 0.70967 0.0
C1334 C 0.89096 0.1507 0.69964 0.0
C1335 C 0.88517 0.14453 0.68604 0.0
C1336 C 0.86158 0.13967 0.68234 0.0
C1337 C 0.84373 0.14107 0.69221 0.0
C1338 C 0.84944 0.1472 0.70582 0.0
C1339 C 0.88159 0.25046 0.7548 0.0
C1340 C 0.85802 0.2587 0.75381 0.0
C1341 C 0.88716 0.22701 0.75151 0.0
C1342 C 0.86928 0.21105 0.74736 0.0
C1343 C 0.84565 0.21903 0.74654 0.0
C1344 C 0.84004 0.24263 0.74977 0.0
C1345 C 0.87583 0.18658 0.74308 0.0
C1346 C 0.86948 0.17895 0.72975 0.0
C1347 C 0.89076 0.17205 0.75139 0.0
C1348 C 0.89643 0.17815 0.76597 0.0
C1349 C 0.87812 0.18348 0.77524 0.0
C1350 C 0.88351 0.1895 0.7889 0.0
C1351 C 0.90715 0.19014 0.79346 0.0
C1352 C 0.92546 0.18471 0.78437 0.0
C1353 C 0.92017 0.1787 0.77068 0.0
H1354 H 0.91129 0.19482 0.80405 0.0
H1355 H 0.85713 0.13489 0.67181 0.0
H1356 H 0.92958 0.41128 0.96843 0.0
H1357 H 0.89845 0.38946 0.98055 0.0
H1358 H 0.85197 0.4502 0.977 0.0
H1359 H 0.88274 0.47196 0.96479 0.0
H1360 H 0.84886 0.42939 0.00232 0.0
H1361 H 0.84794 0.40489 0.95431 0.0
H1362 H 0.86576 0.38827 0.93329 0.0
H1363 H 0.88093 0.32305 0.95466 0.0
H1364 H 0.86348 0.33944 0.97588 0.0
H1365 H 0.73064 0.39004 0.99881 0.0
H1366 H 0.77061 0.40618 0.99671 0.0
H1367 H 0.80022 0.33611 0.00265 0.0
H1368 H 0.76001 0.31971 0.00464 0.0
H1369 H 0.81695 0.3567 0.9798 0.0
H1370 H 0.81018 0.37933 0.02668 0.0
H1371 H 0.7913 0.39634 0.04726 0.0
H1372 H 0.78971 0.46511 0.02808 0.0
H1373 H 0.80827 0.44847 0.00729 0.0
C1374 C 0.91274 0.41999 0.97024 0.0
C1375 C 0.90862 0.44334 0.96558 0.0
C1376 C 0.89502 0.40754 0.97722 0.0
C1377 C 0.87286 0.41817 0.97959 0.0
C1378 C 0.869 0.44171 0.97536 0.0
C1379 C 0.88665 0.45415 0.9684 0.0
C1380 C 0.85302 0.4045 0.98566 0.0
C1381 C 0.84182 0.4135 0.99742 0.0
C1382 C 0.84432 0.38337 0.97948 0.0
C1383 C 0.85469 0.37349 0.96672 0.0
C1384 C 0.85525 0.38707 0.95456 0.0
C1385 C 0.86526 0.37769 0.9426 0.0
C1386 C 0.87455 0.35465 0.94265 0.0
C1387 C 0.87378 0.34092 0.95465 0.0
C1388 C 0.86384 0.35024 0.96664 0.0
C1389 C 0.74565 0.3781 -3e-05 0.0
C1390 C 0.74218 0.35358 0.00182 0.0
C1391 C 0.76853 0.38739 0.99884 0.0
C1392 C 0.78844 0.37238 0.9996 0.0
C1393 C 0.7851 0.34801 0.00207 0.0
C1394 C 0.76213 0.33869 0.00326 0.0
C1395 C 0.8123 0.38193 0.99628 0.0
C1396 C 0.82426 0.3722 0.98498 0.0
C1397 C 0.82162 0.40243 0.00287 0.0
C1398 C 0.81053 0.4126 0.01538 0.0
C1399 C 0.80567 0.39805 0.0268 0.0
C1400 C 0.79504 0.40763 0.03852 0.0
C1401 C 0.78928 0.43178 0.03897 0.0
C1402 C 0.79419 0.44641 0.02772 0.0
C1403 C 0.8048 0.43692 0.01597 0.0
H1404 H 0.78105 0.43917 0.04805 0.0
H1405 H 0.88228 0.34741 0.93339 0.0
H1406 H 0.53029 0.37947 0.20592 0.0
H1407 H 0.54888 0.34468 0.2165 0.0
H1408 H 0.6101 0.38687 0.22785 0.0
H1409 H 0.59147 0.42192 0.21736 0.0
H1410 H 0.62295 0.34577 0.21596 0.0
H1411 H 0.57159 0.36869 0.25232 0.0
H1412 H 0.53387 0.38059 0.26301 0.0
H1413 H 0.50242 0.31392 0.25127 0.0
H1414 H 0.53986 0.30175 0.24032 0.0
H1415 H 0.67444 0.2497 0.25311 0.0
H1416 H 0.65671 0.28874 0.24875 0.0
H1417 H 0.59209 0.25504 0.23443 0.0
H1418 H 0.60958 0.21598 0.23889 0.0
H1419 H 0.58293 0.29425 0.25014 0.0
H1420 H 0.63293 0.2736 0.21172 0.0
H1421 H 0.67051 0.26184 0.20078 0.0
H1422 H 0.70441 0.32481 0.21651 0.0
H1423 H 0.66709 0.33678 0.22771 0.0
C1424 C 0.54753 0.38148 0.21087 0.0
C1425 C 0.55936 0.40351 0.21083 0.0
C1426 C 0.55815 0.36155 0.21691 0.0
C1427 C 0.58076 0.36324 0.22311 0.0
C1428 C 0.59262 0.38519 0.22313 0.0
C1429 C 0.582 0.40517 0.21709 0.0
C1430 C 0.5924 0.34175 0.22894 0.0
C1431 C 0.61443 0.33477 0.22365 0.0
C1432 C 0.58106 0.32717 0.23879 0.0
C1433 C 0.5585 0.33438 0.2454 0.0
C1434 C 0.55658 0.35663 0.25192 0.0
C1435 C 0.53525 0.36342 0.25805 0.0
C1436 C 0.51574 0.34804 0.2578 0.0
C1437 C 0.51754 0.32582 0.25145 0.0
C1438 C 0.53883 0.31896 0.24529 0.0
C1439 C 0.65635 0.2506 0.24919 0.0
C1440 C 0.64346 0.22976 0.24624 0.0
C1441 C 0.64628 0.27292 0.24667 0.0
C1442 C 0.62321 0.27477 0.24109 0.0
C1443 C 0.60994 0.25401 0.23871 0.0
C1444 C 0.61999 0.2317 0.24123 0.0
C1445 C 0.61328 0.29818 0.23701 0.0
C1446 C 0.59157 0.30548 0.24261 0.0
C1447 C 0.6249 0.31308 0.22745 0.0
C1448 C 0.64731 0.30594 0.22068 0.0
C1449 C 0.64846 0.28484 0.21294 0.0
C1450 C 0.6697 0.27815 0.20667 0.0
C1451 C 0.68986 0.29253 0.20798 0.0
C1452 C 0.6888 0.31366 0.21553 0.0
C1453 C 0.66761 0.32041 0.22183 0.0
H1454 H 0.70628 0.28732 0.20312 0.0
H1455 H 0.49924 0.35333 0.26255 0.0
H1456 H 0.12436 0.97412 0.37581 0.0
H1457 H 0.1414 0.95109 0.3949 0.0
H1458 H 0.08668 0.89808 0.38951 0.0
H1459 H 0.06923 0.92116 0.37067 0.0
H1460 H 0.11826 0.94185 0.41855 0.0
H1461 H 0.10874 0.84402 0.40019 0.0
H1462 H 0.11206 0.82095 0.37866 0.0
H1463 H 0.15892 0.87373 0.36212 0.0
H1464 H 0.15617 0.89694 0.3836 0.0
H1465 H 0.1315 0.81742 0.45764 0.0
H1466 H 0.12023 0.84127 0.4376 0.0
H1467 H 0.15777 0.90115 0.45553 0.0
H1468 H 0.1639 0.87868 0.47658 0.0
H1469 H 0.14029 0.8566 0.41899 0.0
H1470 H 0.15775 0.94677 0.44001 0.0
H1471 H 0.15301 0.97331 0.46007 0.0
H1472 H 0.08697 0.93943 0.46965 0.0
H1473 H 0.09188 0.91187 0.44993 0.0
C1474 C 0.11604 0.95748 0.37862 0.0
C1475 C 0.09531 0.9496 0.37176 0.0
C1476 C 0.12588 0.94428 0.38947 0.0
C1477 C 0.11537 0.92284 0.39358 0.0
C1478 C 0.09531 0.91439 0.38637 0.0
C1479 C 0.08538 0.92762 0.37557 0.0
C1480 C 0.12373 0.91057 0.40626 0.0
C1481 C 0.12326 0.9232 0.41868 0.0
C1482 C 0.13006 0.88629 0.40641 0.0
C1483 C 0.13207 0.87232 0.39348 0.0
C1484 C 0.11984 0.85065 0.39198 0.0
C1485 C 0.12161 0.83756 0.37978 0.0
C1486 C 0.13564 0.8459 0.36902 0.0
C1487 C 0.14799 0.86733 0.37044 0.0
C1488 C 0.1463 0.88048 0.38263 0.0
C1489 C 0.13575 0.83616 0.45757 0.0
C1490 C 0.14705 0.8467 0.46893 0.0
C1491 C 0.12998 0.84978 0.44593 0.0
C1492 C 0.13736 0.87372 0.44489 0.0
C1493 C 0.15003 0.88364 0.4561 0.0
C1494 C 0.15407 0.87054 0.46814 0.0
C1495 C 0.13317 0.88733 0.43175 0.0
C1496 C 0.13485 0.87509 0.41908 0.0
C1497 C 0.12772 0.91202 0.43136 0.0
C1498 C 0.12544 0.92698 0.44378 0.0
C1499 C 0.14243 0.94473 0.44657 0.0
C1500 C 0.13978 0.95981 0.45789 0.0
C1501 C 0.11988 0.95769 0.46629 0.0
C1502 C 0.10266 0.94046 0.46337 0.0
C1503 C 0.10546 0.92497 0.45221 0.0
H1504 H 0.11767 0.96957 0.47496 0.0
H1505 H 0.13697 0.83574 0.35958 0.0
H1506 H 0.10214 0.58157 0.60653 0.0
H1507 H 0.12289 0.60682 0.6236 0.0
H1508 H 0.0728 0.58543 0.65458 0.0
H1509 H 0.05256 0.55974 0.63769 0.0
H1510 H 0.08411 0.63755 0.65242 0.0
H1511 H 0.12 0.55874 0.65646 0.0
H1512 H 0.14065 0.52363 0.64718 0.0
H1513 H 0.19842 0.56786 0.63414 0.0
H1514 H 0.1779 0.6033 0.64318 0.0
H1515 H 0.12764 0.65625 0.71899 0.0
H1516 H 0.11117 0.64288 0.69697 0.0
H1517 H 0.17984 0.65191 0.67818 0.0
H1518 H 0.19659 0.66439 0.7006 0.0
H1519 H 0.16271 0.61163 0.67064 0.0
H1520 H 0.13094 0.6893 0.67042 0.0
H1521 H 0.11101 0.72499 0.67945 0.0
H1522 H 0.04652 0.68527 0.68456 0.0
H1523 H 0.06615 0.64923 0.67575 0.0
C1524 C 0.09557 0.58249 0.61698 0.0
C1525 C 0.0759 0.56883 0.62091 0.0
C1526 C 0.10737 0.59681 0.62667 0.0
C1527 C 0.09929 0.59793 0.64029 0.0
C1528 C 0.07919 0.58483 0.64408 0.0
C1529 C 0.06773 0.57016 0.6345 0.0
C1530 C 0.11226 0.61187 0.65086 0.0
C1531 C 0.10125 0.63193 0.65649 0.0
C1532 C 0.13498 0.60493 0.65573 0.0
C1533 C 0.14727 0.58367 0.65029 0.0
C1534 C 0.13698 0.561 0.65147 0.0
C1535 C 0.14869 0.54104 0.64629 0.0
C1536 C 0.17079 0.54352 0.64002 0.0
C1537 C 0.18127 0.56597 0.63896 0.0
C1538 C 0.16961 0.58599 0.64411 0.0
C1539 C 0.13921 0.65522 0.71015 0.0
C1540 C 0.16348 0.66039 0.71148 0.0
C1541 C 0.12971 0.64802 0.6975 0.0
C1542 C 0.14417 0.64662 0.68582 0.0
C1543 C 0.16834 0.65281 0.68704 0.0
C1544 C 0.17789 0.6599 0.69979 0.0
C1545 C 0.13422 0.63701 0.67271 0.0
C1546 C 0.14578 0.6177 0.66652 0.0
C1547 C 0.11208 0.64483 0.66724 0.0
C1548 C 0.10008 0.66651 0.67247 0.0
C1549 C 0.11255 0.68813 0.67354 0.0
C1550 C 0.1013 0.70843 0.67862 0.0
C1551 C 0.07752 0.70739 0.68259 0.0
C1552 C 0.06494 0.68605 0.68147 0.0
C1553 C 0.07611 0.66568 0.67641 0.0
H1554 H 0.06885 0.72313 0.68652 0.0
H1555 H 0.17984 0.52804 0.63602 0.0
H1556 H 0.47501 0.58655 0.88651 0.0
H1557 H 0.45053 0.60336 0.90472 0.0
H1558 H 0.40019 0.62879 0.87429 0.0
H1559 H 0.42463 0.61172 0.85587 0.0
H1560 H 0.4208 0.66029 0.90276 0.0
H1561 H 0.37466 0.59287 0.88402 0.0
H1562 H 0.37233 0.55199 0.87487 0.0
H1563 H 0.40505 0.52526 0.91198 0.0
H1564 H 0.4079 0.56607 0.92124 0.0
H1565 H 0.33904 0.67532 0.95948 0.0
H1566 H 0.35537 0.67074 0.93626 0.0
H1567 H 0.39274 0.60759 0.94954 0.0
H1568 H 0.37607 0.61156 0.97238 0.0
H1569 H 0.37206 0.59921 0.92618 0.0
H1570 H 0.42008 0.66355 0.94499 0.0
H1571 H 0.42642 0.70339 0.95503 0.0
H1572 H 0.39409 0.73546 0.91928 0.0
H1573 H 0.38729 0.69576 0.9091 0.0
C1574 C 0.459 0.59615 0.88365 0.0
C1575 C 0.45172 0.59784 0.86977 0.0
C1576 C 0.44505 0.60572 0.89406 0.0
C1577 C 0.4237 0.61735 0.8908 0.0
C1578 C 0.41674 0.61996 0.87695 0.0
C1579 C 0.43058 0.61008 0.86649 0.0
C1580 C 0.4078 0.62432 0.90211 0.0
C1581 C 0.40959 0.64722 0.90773 0.0
C1582 C 0.39374 0.60704 0.90869 0.0
C1583 C 0.39168 0.5825 0.90325 0.0
C1584 C 0.38154 0.57829 0.89017 0.0
C1585 C 0.38008 0.55513 0.88498 0.0
C1586 C 0.38859 0.53604 0.89283 0.0
C1587 C 0.39849 0.54007 0.9059 0.0
C1588 C 0.40001 0.56319 0.91113 0.0
C1589 C 0.3508 0.66052 0.95742 0.0
C1590 C 0.35612 0.64373 0.96776 0.0
C1591 C 0.36016 0.65796 0.94416 0.0
C1592 C 0.37531 0.63881 0.94114 0.0
C1593 C 0.38091 0.62237 0.95156 0.0
C1594 C 0.37137 0.62471 0.96466 0.0
C1595 C 0.38527 0.6352 0.92717 0.0
C1596 C 0.38255 0.61271 0.92106 0.0
C1597 C 0.39865 0.65286 0.92029 0.0
C1598 C 0.40291 0.67669 0.92637 0.0
C1599 C 0.41416 0.67909 0.93932 0.0
C1600 C 0.41787 0.70164 0.94503 0.0
C1601 C 0.41058 0.72194 0.93782 0.0
C1602 C 0.39967 0.71972 0.92487 0.0
C1603 C 0.3959 0.69721 0.91912 0.0
H1604 H 0.41344 0.73937 0.94226 0.0
H1605 H 0.38745 0.51813 0.88879 0.0
H1606 H 0.40126 0.94429 0.11779 0.0
H1607 H 0.37895 0.92342 0.13551 0.0
H1608 H 0.43889 0.87712 0.14298 0.0
H1609 H 0.46073 0.89683 0.12469 0.0
H1610 H 0.39977 0.85271 0.14542 0.0
H1611 H 0.42798 0.92847 0.16265 0.0
H1612 H 0.43203 0.97213 0.16275 0.0
H1613 H 0.35632 0.97953 0.16604 0.0
H1614 H 0.3518 0.93587 0.16578 0.0
H1615 H 0.39799 0.82735 0.21664 0.0
H1616 H 0.40533 0.84082 0.19317 0.0
H1617 H 0.33479 0.87074 0.19089 0.0
H1618 H 0.32716 0.85707 0.21446 0.0
H1619 H 0.3714 0.90265 0.18406 0.0
H1620 H 0.34563 0.82494 0.17133 0.0
H1621 H 0.34409 0.78119 0.17259 0.0
H1622 H 0.41798 0.77724 0.1622 0.0
H1623 H 0.42008 0.82099 0.16109 0.0
C1624 C 0.40952 0.92929 0.12294 0.0
C1625 C 0.43298 0.92247 0.1199 0.0
C1626 C 0.3968 0.91753 0.1332 0.0
C1627 C 0.40741 0.89903 0.14081 0.0
C1628 C 0.43035 0.89145 0.13733 0.0
C1629 C 0.44295 0.90296 0.12697 0.0
C1630 C 0.39542 0.88848 0.15293 0.0
C1631 C 0.39362 0.86363 0.15389 0.0
C1632 C 0.38684 0.90272 0.16386 0.0
C1633 C 0.38953 0.92894 0.16402 0.0
C1634 C 0.41219 0.93942 0.16329 0.0
C1635 C 0.41457 0.96416 0.16339 0.0
C1636 C 0.39444 0.9786 0.16435 0.0
C1637 C 0.37189 0.96832 0.16526 0.0
C1638 C 0.3694 0.94359 0.16514 0.0
C1639 C 0.38389 0.83652 0.21111 0.0
C1640 C 0.36202 0.84123 0.21743 0.0
C1641 C 0.38807 0.84408 0.19766 0.0
C1642 C 0.37055 0.85664 0.19028 0.0
C1643 C 0.34848 0.86095 0.19641 0.0
C1644 C 0.34414 0.85307 0.20984 0.0
C1645 C 0.37631 0.86693 0.17667 0.0
C1646 C 0.37702 0.89175 0.17546 0.0
C1647 C 0.38422 0.85265 0.16563 0.0
C1648 C 0.38303 0.82629 0.1662 0.0
C1649 C 0.3616 0.81476 0.16941 0.0
C1650 C 0.36062 0.78995 0.17008 0.0
C1651 C 0.38093 0.77644 0.16749 0.0
C1652 C 0.40226 0.78772 0.1642 0.0
C1653 C 0.40334 0.81253 0.16353 0.0
H1654 H 0.38014 0.75724 0.16802 0.0
H1655 H 0.39632 0.99775 0.16444 0.0
H1656 H 0.08834 0.54956 0.8746 0.0
H1657 H 0.11065 0.57137 0.85729 0.0
H1658 H 0.06088 0.62954 0.85981 0.0
H1659 H 0.03788 0.60736 0.87679 0.0
H1660 H 0.06874 0.61879 0.83383 0.0
H1661 H 0.11774 0.63518 0.87268 0.0
H1662 H 0.141 0.62684 0.89383 0.0
H1663 H 0.1884 0.58251 0.87084 0.0
H1664 H 0.16523 0.5903 0.84957 0.0
H1665 H 0.14169 0.68279 0.78671 0.0
H1666 H 0.12437 0.6743 0.80932 0.0
H1667 H 0.15405 0.60364 0.80829 0.0
H1668 H 0.17091 0.61177 0.78564 0.0
H1669 H 0.15649 0.62822 0.83523 0.0
H1670 H 0.10203 0.60749 0.79754 0.0
H1671 H 0.07911 0.61715 0.77645 0.0
H1672 H 0.04198 0.67211 0.79815 0.0
H1673 H 0.06506 0.66304 0.81932 0.0
C1674 C 0.08211 0.56699 0.87147 0.0
C1675 C 0.06127 0.57667 0.87703 0.0
C1676 C 0.09506 0.57958 0.86169 0.0
C1677 C 0.08762 0.60224 0.85737 0.0
C1678 C 0.06702 0.61214 0.86305 0.0
C1679 C 0.054 0.59951 0.87282 0.0
C1680 C 0.10056 0.61475 0.84625 0.0
C1681 C 0.08785 0.62136 0.83431 0.0
C1682 C 0.12554 0.61795 0.84678 0.0
C1683 C 0.13963 0.61322 0.85953 0.0
C1684 C 0.13302 0.62351 0.87215 0.0
C1685 C 0.14621 0.6189 0.88416 0.0
C1686 C 0.16614 0.60412 0.88368 0.0
C1687 C 0.17295 0.59395 0.87119 0.0
C1688 C 0.15982 0.59849 0.85915 0.0
C1689 C 0.1449 0.66563 0.79145 0.0
C1690 C 0.15746 0.64786 0.78441 0.0
C1691 C 0.13501 0.66082 0.80432 0.0
C1692 C 0.13794 0.63834 0.8104 0.0
C1693 C 0.1517 0.62111 0.80377 0.0
C1694 C 0.16116 0.62573 0.79081 0.0
C1695 C 0.12467 0.6317 0.82289 0.0
C1696 C 0.13731 0.62612 0.83499 0.0
C1697 C 0.09962 0.62964 0.82259 0.0
C1698 C 0.08546 0.6348 0.80995 0.0
C1699 C 0.08912 0.62177 0.79778 0.0
C1700 C 0.07609 0.62712 0.78582 0.0
C1701 C 0.05915 0.64528 0.78595 0.0
C1702 C 0.05515 0.65808 0.79806 0.0
C1703 C 0.0682 0.65285 0.81004 0.0
H1704 H 0.04907 0.6494 0.77668 0.0
H1705 H 0.17633 0.60057 0.89299 0.0
H1706 H 0.46194 0.57874 0.11675 0.0
H1707 H 0.43721 0.60034 0.10023 0.0
H1708 H 0.38656 0.61558 0.13208 0.0
H1709 H 0.41161 0.59443 0.14888 0.0
H1710 H 0.36561 0.59635 0.10916 0.0
H1711 H 0.41722 0.66064 0.11896 0.0
H1712 H 0.45545 0.68111 0.12291 0.0
H1713 H 0.47611 0.66577 0.08137 0.0
H1714 H 0.43816 0.64489 0.07722 0.0
H1715 H 0.30541 0.65649 0.05074 0.0
H1716 H 0.32115 0.64817 0.07389 0.0
H1717 H 0.38818 0.62742 0.05635 0.0
H1718 H 0.37347 0.63887 0.03362 0.0
H1719 H 0.39447 0.65758 0.07665 0.0
H1720 H 0.35276 0.56995 0.08277 0.0
H1721 H 0.31563 0.54653 0.08176 0.0
H1722 H 0.27577 0.60803 0.09391 0.0
H1723 H 0.31286 0.63136 0.09561 0.0
C1724 C 0.4459 0.58722 0.12039 0.0
C1725 C 0.4388 0.58479 0.13417 0.0
C1726 C 0.43172 0.59953 0.11089 0.0
C1727 C 0.41012 0.60971 0.11495 0.0
C1728 C 0.40318 0.60786 0.12875 0.0
C1729 C 0.41746 0.59565 0.1383 0.0
C1730 C 0.39411 0.62043 0.10441 0.0
C1731 C 0.3717 0.61011 0.10219 0.0
C1732 C 0.40199 0.63844 0.0954 0.0
C1733 C 0.42484 0.6511 0.0978 0.0
C1734 C 0.42997 0.66149 0.11069 0.0
C1735 C 0.45159 0.67319 0.11296 0.0
C1736 C 0.46821 0.67472 0.1024 0.0
C1737 C 0.46322 0.66459 0.08954 0.0
C1738 C 0.44163 0.65285 0.08721 0.0
C1739 C 0.32332 0.64965 0.05189 0.0
C1740 C 0.33784 0.64701 0.04031 0.0
C1741 C 0.3322 0.64447 0.06513 0.0
C1742 C 0.35558 0.63609 0.06695 0.0
C1743 C 0.36993 0.63339 0.05529 0.0
C1744 C 0.36137 0.63943 0.04221 0.0
C1745 C 0.36652 0.63246 0.08086 0.0
C1746 C 0.38809 0.64421 0.08377 0.0
C1747 C 0.35778 0.6159 0.09057 0.0
C1748 C 0.33533 0.60269 0.08855 0.0
C1749 C 0.33598 0.57853 0.08495 0.0
C1750 C 0.31502 0.56517 0.08451 0.0
C1751 C 0.29328 0.5759 0.08751 0.0
C1752 C 0.29255 0.59985 0.09132 0.0
C1753 C 0.31355 0.61311 0.09208 0.0
H1754 H 0.27704 0.56559 0.08705 0.0
H1755 H 0.48494 0.68379 0.10419 0.0
H1756 H 0.41822 0.97114 0.36737 0.0
H1757 H 0.40132 0.94523 0.34971 0.0
H1758 H 0.37017 0.90125 0.38118 0.0
H1759 H 0.38753 0.92714 0.39904 0.0
H1760 H 0.38923 0.87413 0.36248 0.0
H1761 H 0.33504 0.93775 0.36076 0.0
H1762 H 0.32104 0.97927 0.3601 0.0
H1763 H 0.35432 0.98933 0.32091 0.0
H1764 H 0.36883 0.94797 0.32142 0.0
H1765 H 0.33944 0.81125 0.30341 0.0
H1766 H 0.34594 0.83114 0.3256 0.0
H1767 H 0.37612 0.89138 0.30438 0.0
H1768 H 0.36632 0.87293 0.28242 0.0
H1769 H 0.34814 0.9073 0.3213 0.0
H1770 H 0.40993 0.84286 0.32831 0.0
H1771 H 0.42118 0.80039 0.33095 0.0
H1772 H 0.36749 0.79137 0.36154 0.0
H1773 H 0.35612 0.83357 0.35916 0.0
C1774 C 0.40743 0.9562 0.37055 0.0
C1775 C 0.40397 0.95133 0.38459 0.0
C1776 C 0.39775 0.94137 0.36043 0.0
C1777 C 0.38406 0.92152 0.36409 0.0
C1778 C 0.38057 0.91653 0.37811 0.0
C1779 C 0.39047 0.93131 0.38829 0.0
C1780 C 0.37441 0.90564 0.35312 0.0
C1781 C 0.37999 0.88133 0.35353 0.0
C1782 C 0.3619 0.91483 0.34157 0.0
C1783 C 0.35312 0.93975 0.34117 0.0
C1784 C 0.33951 0.94885 0.35204 0.0
C1785 C 0.33146 0.97236 0.35169 0.0
C1786 C 0.33681 0.98694 0.34048 0.0
C1787 C 0.35018 0.97802 0.32959 0.0
C1788 C 0.35829 0.95452 0.32989 0.0
C1789 C 0.34785 0.82857 0.30359 0.0
C1790 C 0.35364 0.84005 0.29121 0.0
C1791 C 0.3518 0.83988 0.3163 0.0
C1792 C 0.36213 0.86267 0.31685 0.0
C1793 C 0.36828 0.87379 0.30439 0.0
C1794 C 0.36335 0.86295 0.29177 0.0
C1795 C 0.36494 0.87617 0.33003 0.0
C1796 C 0.3575 0.90005 0.33019 0.0
C1797 C 0.37528 0.86645 0.34218 0.0
C1798 C 0.38202 0.84114 0.3434 0.0
C1799 C 0.40046 0.83166 0.33548 0.0
C1800 C 0.40688 0.80774 0.33695 0.0
C1801 C 0.39494 0.79322 0.34629 0.0
C1802 C 0.37667 0.8026 0.35427 0.0
C1803 C 0.3703 0.82651 0.3529 0.0
H1804 H 0.39992 0.77472 0.34739 0.0
H1805 H 0.33057 0.00514 0.34023 0.0
H1806 H 0.05246 0.89988 0.63208 0.0
H1807 H 0.07647 0.87808 0.6156 0.0
H1808 H 0.13325 0.929 0.62088 0.0
H1809 H 0.10878 0.9516 0.63695 0.0
H1810 H 0.12523 0.92211 0.59476 0.0
H1811 H 0.13911 0.87062 0.63241 0.0
H1812 H 0.12972 0.846 0.65265 0.0
H1813 H 0.08682 0.80004 0.62725 0.0
H1814 H 0.09563 0.82458 0.60688 0.0
H1815 H 0.1829 0.85337 0.54328 0.0
H1816 H 0.17811 0.86806 0.56695 0.0
H1817 H 0.10745 0.83837 0.56787 0.0
H1818 H 0.11196 0.82399 0.5443 0.0
H1819 H 0.13318 0.83427 0.59347 0.0
H1820 H 0.11263 0.89279 0.55779 0.0
H1821 H 0.1224 0.9173 0.53756 0.0
H1822 H 0.17987 0.94983 0.56017 0.0
H1823 H 0.17062 0.92521 0.5805 0.0
C1824 C 0.07007 0.90645 0.62977 0.0
C1825 C 0.0786 0.92761 0.63575 0.0
C1826 C 0.08396 0.89375 0.62049 0.0
C1827 C 0.10684 0.90169 0.61712 0.0
C1828 C 0.11571 0.92244 0.62338 0.0
C1829 C 0.10175 0.93525 0.63264 0.0
C1830 C 0.12034 0.8895 0.60609 0.0
C1831 C 0.12759 0.90296 0.59469 0.0
C1832 C 0.12331 0.86448 0.60589 0.0
C1833 C 0.11797 0.84955 0.61811 0.0
C1834 C 0.12754 0.85536 0.63115 0.0
C1835 C 0.12234 0.8414 0.64265 0.0
C1836 C 0.10767 0.82148 0.64124 0.0
C1837 C 0.09819 0.81547 0.62832 0.0
C1838 C 0.10332 0.82938 0.61679 0.0
C1839 C 0.1666 0.8495 0.54868 0.0
C1840 C 0.14769 0.83779 0.54193 0.0
C1841 C 0.16389 0.8579 0.56216 0.0
C1842 C 0.14237 0.85439 0.56909 0.0
C1843 C 0.1242 0.84119 0.56271 0.0
C1844 C 0.12675 0.83314 0.54921 0.0
C1845 C 0.13728 0.86687 0.58216 0.0
C1846 C 0.13152 0.85347 0.59384 0.0
C1847 C 0.13583 0.89195 0.58271 0.0
C1848 C 0.14113 0.90699 0.57058 0.0
C1849 C 0.12745 0.90505 0.55841 0.0
C1850 C 0.13288 0.91897 0.54693 0.0
C1851 C 0.15179 0.93506 0.54756 0.0
C1852 C 0.16526 0.93732 0.55969 0.0
C1853 C 0.15994 0.9234 0.57119 0.0
H1854 H 0.15597 0.94582 0.53866 0.0
H1855 H 0.10366 0.81069 0.65016 0.0
H1856 H 0.62296 0.45517 0.86174 0.0
H1857 H 0.64278 0.42881 0.87842 0.0
H1858 H 0.57457 0.41097 0.89566 0.0
H1859 H 0.55484 0.43614 0.87846 0.0
H1860 H 0.64744 0.43053 0.9039 0.0
H1861 H 0.57374 0.35848 0.91124 0.0
H1862 H 0.54364 0.33733 0.89721 0.0
H1863 H 0.58389 0.35074 0.86067 0.0
H1864 H 0.61442 0.37166 0.8745 0.0
H1865 H 0.65512 0.37974 0.96916 0.0
H1866 H 0.6442 0.39864 0.94739 0.0
H1867 H 0.65653 0.33249 0.92599 0.0
H1868 H 0.66637 0.31323 0.94811 0.0
H1869 H 0.61786 0.35055 0.91668 0.0
H1870 H 0.69513 0.38162 0.92324 0.0
H1871 H 0.72878 0.40018 0.93571 0.0
H1872 H 0.68807 0.46404 0.941 0.0
H1873 H 0.65404 0.44576 0.92873 0.0
C1874 C 0.61231 0.44531 0.86901 0.0
C1875 C 0.58746 0.44743 0.86883 0.0
C1876 C 0.62358 0.43031 0.87854 0.0
C1877 C 0.6102 0.41753 0.88821 0.0
C1878 C 0.58531 0.41996 0.88807 0.0
C1879 C 0.57403 0.43448 0.87833 0.0
C1880 C 0.62225 0.40281 0.89896 0.0
C1881 C 0.64106 0.41296 0.90659 0.0
C1882 C 0.61448 0.37956 0.90231 0.0
C1883 C 0.59629 0.36682 0.89391 0.0
C1884 C 0.57624 0.35682 0.90022 0.0
C1885 C 0.55908 0.34489 0.8923 0.0
C1886 C 0.56181 0.34275 0.87805 0.0
C1887 C 0.58175 0.35248 0.8717 0.0
C1888 C 0.59898 0.3644 0.87958 0.0
C1889 C 0.65523 0.36922 0.95981 0.0
C1890 C 0.66062 0.34491 0.96027 0.0
C1891 C 0.64943 0.38011 0.94733 0.0
C1892 C 0.64975 0.36708 0.93498 0.0
C1893 C 0.65605 0.34288 0.93538 0.0
C1894 C 0.66169 0.33191 0.94796 0.0
C1895 C 0.64238 0.37865 0.92185 0.0
C1896 C 0.62444 0.36795 0.91382 0.0
C1897 C 0.65149 0.40104 0.91783 0.0
C1898 C 0.67199 0.41226 0.92511 0.0
C1899 C 0.69331 0.39958 0.92712 0.0
C1900 C 0.71245 0.41006 0.93415 0.0
C1901 C 0.71056 0.43327 0.93915 0.0
C1902 C 0.68952 0.44607 0.93711 0.0
C1903 C 0.67031 0.43567 0.9301 0.0
H1904 H 0.7254 0.44134 0.9446 0.0
H1905 H 0.5485 0.33353 0.87194 0.0
H1906 H 0.54668 0.08449 0.12966 0.0
H1907 H 0.57155 0.10375 0.1472 0.0
H1908 H 0.6342 0.08664 0.12384 0.0
H1909 H 0.60928 0.06623 0.10667 0.0
H1910 H 0.64203 0.07437 0.14801 0.0
H1911 H 0.6133 0.14633 0.12931 0.0
H1912 H 0.58422 0.17542 0.12034 0.0
H1913 H 0.55055 0.17802 0.15981 0.0
H1914 H 0.57921 0.14868 0.16898 0.0
H1915 H 0.70074 0.14811 0.20419 0.0
H1916 H 0.68863 0.1357 0.18089 0.0
H1917 H 0.62124 0.112 0.19651 0.0
H1918 H 0.63237 0.12664 0.21943 0.0
H1919 H 0.62419 0.14884 0.17313 0.0
H1920 H 0.64628 0.04944 0.17174 0.0
H1921 H 0.67837 0.02004 0.17512 0.0
H1922 H 0.73062 0.07524 0.17131 0.0
H1923 H 0.69891 0.10458 0.16707 0.0
C1924 C 0.56573 0.08533 0.12817 0.0
C1925 C 0.57615 0.07391 0.11689 0.0
C1926 C 0.57996 0.09647 0.13815 0.0
C1927 C 0.60484 0.09694 0.13684 0.0
C1928 C 0.6151 0.0865 0.12515 0.0
C1929 C 0.6009 0.0749 0.11533 0.0
C1930 C 0.62015 0.10579 0.14837 0.0
C1931 C 0.63832 0.09088 0.15336 0.0
C1932 C 0.61569 0.1275 0.15526 0.0
C1933 C 0.59836 0.14518 0.14981 0.0
C1934 C 0.5996 0.15297 0.13606 0.0
C1935 C 0.5832 0.16953 0.13094 0.0
C1936 C 0.56553 0.17854 0.13949 0.0
C1937 C 0.56425 0.17103 0.1532 0.0
C1938 C 0.5806 0.15446 0.15837 0.0
C1939 C 0.6836 0.13968 0.20266 0.0
C1940 C 0.66791 0.13721 0.21373 0.0
C1941 C 0.67686 0.13222 0.18939 0.0
C1942 C 0.65451 0.12174 0.18706 0.0
C1943 C 0.6389 0.11924 0.19816 0.0
C1944 C 0.64535 0.12734 0.21129 0.0
C1945 C 0.64543 0.11702 0.17292 0.0
C1946 C 0.62815 0.13262 0.16755 0.0
C1947 C 0.6512 0.09627 0.16543 0.0
C1948 C 0.67014 0.07947 0.16975 0.0
C1949 C 0.66462 0.05535 0.17184 0.0
C1950 C 0.68276 0.03859 0.17362 0.0
C1951 C 0.70654 0.04578 0.17351 0.0
C1952 C 0.71219 0.06973 0.17156 0.0
C1953 C 0.69411 0.08646 0.1695 0.0
H1954 H 0.72057 0.03281 0.17494 0.0
H1955 H 0.55285 0.19136 0.13551 0.0
H1956 H 0.95514 0.11863 0.37029 0.0
H1957 H 0.93072 0.13529 0.38867 0.0
H1958 H 0.90042 0.06599 0.39598 0.0
H1959 H 0.92434 0.04945 0.37742 0.0
H1960 H 0.8673 0.09843 0.39858 0.0
H1961 H 0.94746 0.08851 0.41567 0.0
H1962 H 0.99095 0.09417 0.41576 0.0
H1963 H 0.98156 0.16968 0.41931 0.0
H1964 H 0.93798 0.16448 0.41905 0.0
H1965 H 0.8393 0.10315 0.46981 0.0
H1966 H 0.85558 0.09505 0.44705 0.0
H1967 H 0.87096 0.16959 0.4418 0.0
H1968 H 0.8545 0.17796 0.46456 0.0
H1969 H 0.90982 0.13926 0.43694 0.0
H1970 H 0.82843 0.14708 0.42294 0.0
H1971 H 0.78534 0.13937 0.4239 0.0
H1972 H 0.79745 0.06536 0.41573 0.0
H1973 H 0.84068 0.07255 0.41493 0.0
C1974 C 0.94312 0.10704 0.37577 0.0
C1975 C 0.94173 0.08273 0.3725 0.0
C1976 C 0.9292 0.11654 0.38627 0.0
C1977 C 0.91403 0.10181 0.39388 0.0
C1978 C 0.91197 0.07772 0.39026 0.0
C1979 C 0.92565 0.06828 0.37965 0.0
C1980 C 0.90124 0.11105 0.40608 0.0
C1981 C 0.87662 0.10724 0.407 0.0
C1982 C 0.9133 0.12297 0.41697 0.0
C1983 C 0.93948 0.12613 0.41717 0.0
C1984 C 0.95468 0.10633 0.41636 0.0
C1985 C 0.97934 0.10946 0.41646 0.0
C1986 C 0.98901 0.13228 0.41749 0.0
C1987 C 0.97404 0.15202 0.41847 0.0
C1988 C 0.94936 0.149 0.41836 0.0
C1989 C 0.8459 0.11788 0.46377 0.0
C1990 C 0.84564 0.1412 0.46902 0.0
C1991 C 0.85509 0.11323 0.45073 0.0
C1992 C 0.86434 0.13175 0.44273 0.0
C1993 C 0.8638 0.15509 0.44782 0.0
C1994 C 0.85432 0.15982 0.4608 0.0
C1995 C 0.87601 0.12635 0.42949 0.0
C1996 C 0.90044 0.1308 0.42841 0.0
C1997 C 0.86384 0.11473 0.41857 0.0
C1998 C 0.83783 0.11034 0.41898 0.0
C1999 C 0.82193 0.12912 0.42146 0.0
C2000 C 0.79747 0.12485 0.42195 0.0
C2001 C 0.78866 0.10188 0.4199 0.0
C2002 C 0.8043 0.08314 0.41732 0.0
C2003 C 0.82879 0.08731 0.41683 0.0
H2004 H 0.76972 0.09861 0.42028 0.0
H2005 H 0.0081 0.13466 0.41757 0.0
H2006 H 0.96881 0.42513 0.63954 0.0
H2007 H 0.94663 0.40507 0.65749 0.0
H2008 H 0.89191 0.3863 0.62796 0.0
H2009 H 0.91457 0.40566 0.60961 0.0
H2010 H 0.87538 0.40623 0.65414 0.0
H2011 H 0.92399 0.34355 0.63723 0.0
H2012 H 0.96108 0.32497 0.62926 0.0
H2013 H 0.99353 0.3369 0.66895 0.0
H2014 H 0.95676 0.3559 0.6771 0.0
H2015 H 0.82778 0.33772 0.71068 0.0
H2016 H 0.84058 0.34879 0.68746 0.0
H2017 H 0.9101 0.36662 0.70361 0.0
H2018 H 0.89775 0.35546 0.72662 0.0
H2019 H 0.91354 0.34078 0.68062 0.0
H2020 H 0.86825 0.40926 0.69599 0.0
H2021 H 0.83217 0.42949 0.7042 0.0
H2022 H 0.79419 0.40758 0.66769 0.0
H2023 H 0.83 0.38695 0.65935 0.0
C2024 C 0.9523 0.41639 0.63671 0.0
C2025 C 0.94371 0.41674 0.62303 0.0
C2026 C 0.93954 0.4051 0.64705 0.0
C2027 C 0.91778 0.39404 0.64401 0.0
C2028 C 0.90872 0.39474 0.63048 0.0
C2029 C 0.92167 0.40587 0.62003 0.0
C2030 C 0.90486 0.38185 0.65518 0.0
C2031 C 0.88336 0.39151 0.65976 0.0
C2032 C 0.91549 0.36287 0.66255 0.0
C2033 C 0.93763 0.35127 0.65775 0.0
C2034 C 0.93909 0.34237 0.64423 0.0
C2035 C 0.96005 0.33174 0.63969 0.0
C2036 C 0.97966 0.32978 0.64859 0.0
C2037 C 0.97833 0.33842 0.66207 0.0
C2038 C 0.95741 0.3491 0.66666 0.0
C2039 C 0.8458 0.34399 0.70928 0.0
C2040 C 0.86172 0.34564 0.72056 0.0
C2041 C 0.85306 0.35035 0.696 0.0
C2042 C 0.87629 0.35857 0.69381 0.0
C2043 C 0.89214 0.36018 0.70504 0.0
C2044 C 0.88497 0.35383 0.71823 0.0
C2045 C 0.8845 0.36574 0.67993 0.0
C2046 C 0.90518 0.35508 0.67483 0.0
C2047 C 0.87315 0.38386 0.67215 0.0
C2048 C 0.85168 0.39631 0.67714 0.0
C2049 C 0.85214 0.40859 0.68977 0.0
C2050 C 0.83176 0.42016 0.69443 0.0
C2051 C 0.81087 0.41975 0.68649 0.0
C2052 C 0.81036 0.40783 0.67385 0.0
C2053 C 0.83069 0.3962 0.66915 0.0
H2054 H 0.79511 0.42872 0.69012 0.0
H2055 H 0.99587 0.32154 0.64505 0.0
H2056 H 0.57928 0.09281 0.39282 0.0
H2057 H 0.60149 0.10853 0.37337 0.0
H2058 H 0.5366 0.11301 0.34934 0.0
H2059 H 0.51462 0.09572 0.36828 0.0
H2060 H 0.56788 0.09329 0.3347 0.0
H2061 H 0.56731 0.16358 0.36222 0.0
H2062 H 0.57313 0.18777 0.38319 0.0
H2063 H 0.64788 0.17231 0.38302 0.0
H2064 H 0.64247 0.14777 0.36212 0.0
H2065 H 0.63726 0.17705 0.28755 0.0
H2066 H 0.61667 0.17217 0.30955 0.0
H2067 H 0.64159 0.09979 0.31216 0.0
H2068 H 0.6618 0.10431 0.29025 0.0
H2069 H 0.62783 0.158 0.33683 0.0
H2070 H 0.59528 0.06509 0.31922 0.0
H2071 H 0.58777 0.04365 0.29739 0.0
H2072 H 0.57367 0.1098 0.27677 0.0
H2073 H 0.58074 0.13156 0.29848 0.0
C2074 C 0.56971 0.09706 0.38339 0.0
C2075 C 0.54509 0.09283 0.38217 0.0
C2076 C 0.58241 0.10642 0.37232 0.0
C2077 C 0.57072 0.11218 0.35989 0.0
C2078 C 0.54605 0.10873 0.35881 0.0
C2079 C 0.53342 0.09907 0.36977 0.0
C2080 C 0.58432 0.12 0.34763 0.0
C2081 C 0.58085 0.10755 0.33522 0.0
C2082 C 0.60109 0.13882 0.34815 0.0
C2083 C 0.60445 0.15369 0.36066 0.0
C2084 C 0.58497 0.16521 0.3667 0.0
C2085 C 0.58819 0.17901 0.37857 0.0
C2086 C 0.61085 0.18153 0.38445 0.0
C2087 C 0.63034 0.17032 0.37845 0.0
C2088 C 0.62721 0.1565 0.36658 0.0
C2089 C 0.63873 0.16025 0.29296 0.0
C2090 C 0.6508 0.14093 0.28704 0.0
C2091 C 0.62702 0.15753 0.30553 0.0
C2092 C 0.62731 0.1355 0.31233 0.0
C2093 C 0.64086 0.11682 0.30695 0.0
C2094 C 0.65235 0.11944 0.2944 0.0
C2095 C 0.61154 0.13096 0.32417 0.0
C2096 C 0.61466 0.14391 0.33642 0.0
C2097 C 0.59394 0.11303 0.32345 0.0
C2098 C 0.58874 0.09995 0.31046 0.0
C2099 C 0.59041 0.07503 0.31004 0.0
C2100 C 0.58627 0.06282 0.29768 0.0
C2101 C 0.58034 0.07535 0.28568 0.0
C2102 C 0.57836 0.10011 0.28604 0.0
C2103 C 0.58244 0.11238 0.29837 0.0
H2104 H 0.57723 0.06588 0.27611 0.0
H2105 H 0.61331 0.19221 0.39364 0.0
H2106 H 0.91086 0.09262 0.64701 0.0
H2107 H 0.88763 0.11597 0.6301 0.0
H2108 H 0.93618 0.09526 0.59816 0.0
H2109 H 0.95894 0.0715 0.61489 0.0
H2110 H 0.92264 0.1463 0.59921 0.0
H2111 H 0.88966 0.06587 0.59879 0.0
H2112 H 0.87121 0.03108 0.60985 0.0
H2113 H 0.81294 0.07451 0.62305 0.0
H2114 H 0.83127 0.10965 0.61222 0.0
H2115 H 0.87458 0.15501 0.53322 0.0
H2116 H 0.8925 0.1444 0.55535 0.0
H2117 H 0.82497 0.15504 0.57519 0.0
H2118 H 0.80675 0.1649 0.55268 0.0
H2119 H 0.84401 0.11541 0.58391 0.0
H2120 H 0.87256 0.19414 0.58035 0.0
H2121 H 0.89041 0.22928 0.56936 0.0
H2122 H 0.95598 0.19134 0.56432 0.0
H2123 H 0.93843 0.15584 0.5751 0.0
C2124 C 0.9166 0.09334 0.6364 0.0
C2125 C 0.93655 0.08034 0.63216 0.0
C2126 C 0.90337 0.10657 0.62679 0.0
C2127 C 0.91026 0.10726 0.61292 0.0
C2128 C 0.93068 0.09496 0.60883 0.0
C2129 C 0.94358 0.08139 0.61834 0.0
C2130 C 0.89573 0.11979 0.60242 0.0
C2131 C 0.90544 0.13963 0.59582 0.0
C2132 C 0.87297 0.11149 0.5984 0.0
C2133 C 0.862 0.09042 0.60489 0.0
C2134 C 0.87305 0.06804 0.60419 0.0
C2135 C 0.86259 0.04825 0.61038 0.0
C2136 C 0.84097 0.0506 0.6172 0.0
C2137 C 0.82973 0.07273 0.6178 0.0
C2138 C 0.84014 0.09258 0.61164 0.0
C2139 C 0.86356 0.15493 0.54231 0.0
C2140 C 0.8392 0.1599 0.54128 0.0
C2141 C 0.87388 0.14927 0.555 0.0
C2142 C 0.86018 0.1492 0.56701 0.0
C2143 C 0.83589 0.15499 0.56606 0.0
C2144 C 0.8255 0.16059 0.55327 0.0
C2145 C 0.87121 0.14161 0.58027 0.0
C2146 C 0.8609 0.12262 0.58744 0.0
C2147 C 0.89334 0.15088 0.58489 0.0
C2148 C 0.90412 0.17227 0.57851 0.0
C2149 C 0.89075 0.19324 0.57684 0.0
C2150 C 0.90082 0.21323 0.57065 0.0
C2151 C 0.92431 0.21254 0.56613 0.0
C2152 C 0.93779 0.19186 0.56783 0.0
C2153 C 0.9278 0.1718 0.57401 0.0
H2154 H 0.93207 0.22803 0.56134 0.0
H2155 H 0.83288 0.03526 0.62198 0.0
H2156 H 0.89599 0.41275 0.89787 0.0
H2157 H 0.87187 0.38921 0.88145 0.0
H2158 H 0.88814 0.43921 0.84918 0.0
H2159 H 0.91256 0.46231 0.86542 0.0
H2160 H 0.83887 0.42375 0.84996 0.0
H2161 H 0.92004 0.39278 0.85044 0.0
H2162 H 0.95541 0.37531 0.8618 0.0
H2163 H 0.9136 0.3161 0.87543 0.0
H2164 H 0.87789 0.33344 0.86431 0.0
H2165 H 0.83681 0.37684 0.78391 0.0
H2166 H 0.84435 0.39452 0.80649 0.0
H2167 H 0.83333 0.32624 0.82574 0.0
H2168 H 0.82637 0.30834 0.80286 0.0
H2169 H 0.872 0.3459 0.83572 0.0
H2170 H 0.79311 0.37237 0.83009 0.0
H2171 H 0.75794 0.3894 0.81834 0.0
H2172 H 0.79394 0.45631 0.81435 0.0
H2173 H 0.82948 0.43962 0.82589 0.0
C2174 C 0.89405 0.41878 0.88731 0.0
C2175 C 0.90603 0.4392 0.88281 0.0
C2176 C 0.88037 0.40538 0.87798 0.0
C2177 C 0.87827 0.41253 0.86414 0.0
C2178 C 0.88945 0.4335 0.85984 0.0
C2179 C 0.90342 0.4466 0.86906 0.0
C2180 C 0.86597 0.39751 0.85377 0.0
C2181 C 0.84602 0.40671 0.8468 0.0
C2182 C 0.87487 0.37493 0.85004 0.0
C2183 C 0.89626 0.36458 0.85676 0.0
C2184 C 0.91835 0.37617 0.856 0.0
C2185 C 0.93847 0.36627 0.86236 0.0
C2186 C 0.93673 0.34466 0.86938 0.0
C2187 C 0.9149 0.33288 0.87003 0.0
C2188 C 0.89472 0.34273 0.8637 0.0
C2189 C 0.83608 0.36563 0.79298 0.0
C2190 C 0.83186 0.34118 0.79173 0.0
C2191 C 0.83997 0.37579 0.8059 0.0
C2192 C 0.83911 0.36179 0.81787 0.0
C2193 C 0.83403 0.33739 0.81666 0.0
C2194 C 0.83012 0.32719 0.80365 0.0
C2195 C 0.84544 0.37257 0.83139 0.0
C2196 C 0.86429 0.36259 0.83901 0.0
C2197 C 0.83543 0.39441 0.83573 0.0
C2198 C 0.81403 0.40468 0.82884 0.0
C2199 C 0.7936 0.39068 0.82664 0.0
C2200 C 0.77358 0.40028 0.82002 0.0
C2201 C 0.77371 0.42392 0.81559 0.0
C2202 C 0.79385 0.43801 0.8178 0.0
C2203 C 0.81393 0.4285 0.82441 0.0
H2204 H 0.75819 0.43131 0.81046 0.0
H2205 H 0.95233 0.33701 0.87429 0.0
H2206 H 0.54157 0.40732 0.1241 0.0
H2207 H 0.56172 0.38549 0.10591 0.0
H2208 H 0.62724 0.42191 0.11582 0.0
H2209 H 0.60707 0.44398 0.13404 0.0
H2210 H 0.61917 0.42335 0.08915 0.0
H2211 H 0.62007 0.36206 0.12276 0.0
H2212 H 0.60411 0.33527 0.14051 0.0
H2213 H 0.5564 0.30442 0.11062 0.0
H2214 H 0.57182 0.33127 0.09272 0.0
H2215 H 0.67789 0.3548 0.03798 0.0
H2216 H 0.66823 0.3682 0.06131 0.0
H2217 H 0.59519 0.34732 0.05477 0.0
H2218 H 0.60459 0.33405 0.03149 0.0
H2219 H 0.61321 0.33629 0.08154 0.0
H2220 H 0.60902 0.40221 0.04922 0.0
H2221 H 0.62567 0.4286 0.03148 0.0
H2222 H 0.68102 0.45023 0.05966 0.0
H2223 H 0.66489 0.42362 0.07751 0.0
C2224 C 0.56039 0.41034 0.1226 0.0
C2225 C 0.57273 0.42738 0.13051 0.0
C2226 C 0.57191 0.39782 0.1122 0.0
C2227 C 0.59609 0.40185 0.10958 0.0
C2228 C 0.60859 0.4185 0.11765 0.0
C2229 C 0.59703 0.43113 0.12803 0.0
C2230 C 0.6077 0.38996 0.09775 0.0
C2231 C 0.61835 0.40424 0.08768 0.0
C2232 C 0.60636 0.36505 0.09569 0.0
C2233 C 0.59701 0.34882 0.10641 0.0
C2234 C 0.60605 0.3497 0.11999 0.0
C2235 C 0.59711 0.33447 0.13008 0.0
C2236 C 0.57922 0.31818 0.1267 0.0
C2237 C 0.57025 0.31705 0.11322 0.0
C2238 C 0.57911 0.33225 0.10309 0.0
C2239 C 0.65986 0.35273 0.04159 0.0
C2240 C 0.64194 0.34362 0.03284 0.0
C2241 C 0.65438 0.36041 0.0549 0.0
C2242 C 0.63097 0.35888 0.0597 0.0
C2243 C 0.61336 0.34863 0.05126 0.0
C2244 C 0.61874 0.34122 0.03792 0.0
C2245 C 0.62421 0.36976 0.07298 0.0
C2246 C 0.61443 0.35532 0.08325 0.0
C2247 C 0.62644 0.39449 0.07528 0.0
C2248 C 0.63593 0.41072 0.06463 0.0
C2249 C 0.62485 0.41245 0.0516 0.0
C2250 C 0.63417 0.42746 0.04153 0.0
C2251 C 0.65443 0.44103 0.04443 0.0
C2252 C 0.66536 0.43967 0.05742 0.0
C2253 C 0.65613 0.42463 0.06752 0.0
H2254 H 0.66163 0.45265 0.03662 0.0
H2255 H 0.57233 0.30641 0.13452 0.0
loop_
_geom_bond_atom_site_label_1
_geom_bond_atom_site_label_2
_geom_bond_distance
_geom_bond_site_symmetry_2
_ccdc_geom_bond_type
C0 C1 1.384 . S
C0 C2 1.384 . S
C0 H28 0.931 . S
C1 C0 1.384 . S
C1 C4 1.382 . S
C2 C0 1.384 . S
C2 C3 1.381 . S
C2 H29 0.930 . S
C3 C2 1.381 . S
C3 C5 1.381 . S
C3 C6 1.487 . S
C4 C1 1.382 . S
C4 C5 1.387 . S
C4 H30 0.930 . S
C5 C3 1.381 . S
C5 C4 1.387 . S
C5 H31 0.931 1_565 S
C6 C3 1.487 . S
C6 C13 1.399 . S
C6 N44 1.343 1_565 S
C7 C8 1.384 . S
C7 C9 1.384 . S
C7 H32 0.931 . S
C8 C7 1.384 . S
C8 C11 1.382 . S
C9 C7 1.384 . S
C9 C10 1.381 . S
C9 H33 0.930 . S
C10 C9 1.381 . S
C10 C12 1.381 . S
C10 C13 1.487 . S
C11 C8 1.382 . S
C11 C12 1.387 . S
C11 H34 0.930 . S
C12 C10 1.381 . S
C12 C11 1.387 . S
C12 H35 0.931 . S
C13 C6 1.399 . S
C13 C10 1.487 . S
C13 N45 1.332 1_465 S
C14 C15 1.384 . S
C14 C16 1.384 . S
C14 H36 0.931 . S
C15 C14 1.384 . S
C15 C18 1.382 . S
C16 C14 1.384 . S
C16 C17 1.381 . S
C16 H37 0.930 . S
C17 C16 1.381 . S
C17 C19 1.381 . S
C17 C20 1.487 . S
C18 C15 1.382 . S
C18 C19 1.387 . S
C18 H38 0.930 . S
C19 C17 1.381 . S
C19 C18 1.387 . S
C19 H39 0.907 1_545 S
C20 C17 1.487 . S
C20 C27 1.399 . S
C20 N45 1.354 . S
C21 C22 1.384 . S
C21 C23 1.384 . S
C21 H40 0.931 . S
C22 C21 1.384 . S
C22 C25 1.382 . S
C23 C21 1.384 . S
C23 C24 1.381 . S
C23 H41 0.930 . S
C24 C23 1.381 . S
C24 C26 1.381 . S
C24 C27 1.487 . S
C25 C22 1.382 . S
C25 C26 1.387 . S
C25 H42 0.930 . S
C26 C24 1.381 . S
C26 C25 1.387 . S
C26 H43 0.931 . S
C27 C20 1.399 . S
C27 C24 1.487 . S
C27 N44 1.343 1_655 S
H28 C0 0.931 . S
H29 C2 0.930 . S
H30 C4 0.930 . S
H31 C5 0.931 1_545 S
H32 C7 0.931 . S
H33 C9 0.930 . S
H34 C11 0.930 . S
H35 C12 0.931 . S
H36 C14 0.931 . S
H37 C16 0.930 . S
H38 C18 0.930 . S
H39 C19 0.907 1_565 S
H40 C21 0.931 . S
H41 C23 0.930 . S
H42 C25 0.930 . S
H43 C26 0.931 . S
N44 C6 1.343 1_545 S
N44 C27 1.343 1_455 S
N45 C13 1.332 1_645 S
N45 C20 1.354 . S
C46 C47 1.384 . S
C46 C48 1.384 . S
C46 H74 0.931 . S
C47 C46 1.384 . S
C47 C50 1.382 . S
C48 C46 1.384 . S
C48 C49 1.381 . S
C48 H75 0.930 . S
C49 C48 1.381 . S
C49 C51 1.381 . S
C49 C52 1.487 . S
C50 C47 1.382 . S
C50 C51 1.387 . S
C50 H76 0.930 . S
C51 C49 1.381 . S
C51 C50 1.387 . S
C51 H77 0.931 1_655 S
C52 C49 1.487 . S
C52 C59 1.399 . S
C52 N90 1.343 1_655 S
C53 C54 1.384 . S
C53 C55 1.384 . S
C53 H78 0.931 . S
C54 C53 1.384 . S
C54 C57 1.382 . S
C55 C53 1.384 . S
C55 C56 1.381 . S
C55 H79 0.930 . S
C56 C55 1.381 . S
C56 C58 1.381 . S
C56 C59 1.487 . S
C57 C54 1.382 . S
C57 C58 1.387 . S
C57 H80 0.930 . S
C58 C56 1.381 . S
C58 C57 1.387 . S
C58 H81 0.931 . S
C59 C52 1.399 . S
C59 C56 1.487 . S
C59 N91 1.343 . S
C60 C61 1.384 . S
C60 C62 1.384 . S
C60 H82 0.931 . S
C61 C60 1.384 . S
C61 C64 1.382 . S
C62 C60 1.384 . S
C62 C63 1.381 . S
C62 H83 0.930 . S
C63 C62 1.381 . S
C63 C65 1.381 . S
C63 C66 1.487 . S
C64 C61 1.382 . S
C64 C65 1.387 . S
C64 H84 0.930 . S
C65 C63 1.381 . S
C65 C64 1.387 . S
C65 H85 0.931 1_455 S
C66 C63 1.487 . S
C66 C73 1.399 . S
C66 N91 1.343 1_455 S
C67 C68 1.384 . S
C67 C69 1.384 . S
C67 H86 0.931 . S
C68 C67 1.384 . S
C68 C71 1.382 . S
C69 C67 1.384 . S
C69 C70 1.381 . S
C69 H87 0.930 . S
C70 C69 1.381 . S
C70 C72 1.381 . S
C70 C73 1.487 . S
C71 C68 1.382 . S
C71 C72 1.387 . S
C71 H88 0.930 . S
C72 C70 1.381 . S
C72 C71 1.387 . S
C72 H89 0.931 . S
C73 C66 1.399 . S
C73 C70 1.487 . S
C73 N90 1.343 . S
H74 C46 0.931 . S
H75 C48 0.930 . S
H76 C50 0.930 . S
H77 C51 0.931 1_455 S
H78 C53 0.931 . S
H79 C55 0.930 . S
H80 C57 0.930 . S
H81 C58 0.931 . S
H82 C60 0.931 . S
H83 C62 0.930 . S
H84 C64 0.930 . S
H85 C65 0.931 1_655 S
H86 C67 0.931 . S
H87 C69 0.930 . S
H88 C71 0.930 . S
H89 C72 0.931 . S
N90 C52 1.343 1_455 S
N90 C73 1.343 . S
N91 C59 1.343 . S
N91 C66 1.343 1_655 S
C92 C93 1.384 . S
C92 C94 1.384 . S
C92 H120 0.931 . S
C93 C92 1.384 . S
C93 C96 1.382 . S
C94 C92 1.384 . S
C94 C95 1.381 . S
C94 H121 0.930 . S
C95 C94 1.381 . S
C95 C97 1.381 . S
C95 C98 1.487 . S
C96 C93 1.382 . S
C96 C97 1.387 . S
C96 H122 0.930 . S
C97 C95 1.381 . S
C97 C96 1.387 . S
C97 H123 0.931 . S
C98 C95 1.487 . S
C98 C105 1.399 . S
C98 N136 1.343 . S
C99 C100 1.384 . S
C99 C101 1.384 . S
C99 H124 0.931 . S
C100 C99 1.384 . S
C100 C103 1.382 . S
C101 C99 1.384 . S
C101 C102 1.381 . S
C101 H125 0.930 . S
C102 C101 1.381 . S
C102 C104 1.381 . S
C102 C105 1.487 . S
C103 C100 1.382 . S
C103 C104 1.387 . S
C103 H126 0.930 . S
C104 C102 1.381 . S
C104 C103 1.387 . S
C104 H127 0.931 . S
C105 C98 1.399 . S
C105 C102 1.487 . S
C105 N137 1.343 . S
C106 C107 1.384 . S
C106 C108 1.384 . S
C106 H128 0.931 . S
C107 C106 1.384 . S
C107 C110 1.382 . S
C108 C106 1.384 . S
C108 C109 1.381 . S
C108 H129 0.930 . S
C109 C108 1.381 . S
C109 C111 1.381 . S
C109 C112 1.487 . S
C110 C107 1.382 . S
C110 C111 1.387 . S
C110 H130 0.930 . S
C111 C109 1.381 . S
C111 C110 1.387 . S
C111 H131 0.931 . S
C112 C109 1.487 . S
C112 C119 1.399 . S
C112 N137 1.343 . S
C113 C114 1.384 . S
C113 C115 1.384 . S
C113 H132 0.931 . S
C114 C113 1.384 . S
C114 C117 1.382 . S
C115 C113 1.384 . S
C115 C116 1.381 . S
C115 H133 0.930 . S
C116 C115 1.381 . S
C116 C118 1.381 . S
C116 C119 1.487 . S
C117 C114 1.382 . S
C117 C118 1.387 . S
C117 H134 0.930 . S
C118 C116 1.381 . S
C118 C117 1.387 . S
C118 H135 0.931 . S
C119 C112 1.399 . S
C119 C116 1.487 . S
C119 N136 1.343 . S
H120 C92 0.931 . S
H121 C94 0.930 . S
H122 C96 0.930 . S
H123 C97 0.931 . S
H124 C99 0.931 . S
H125 C101 0.930 . S
H126 C103 0.930 . S
H127 C104 0.931 . S
H128 C106 0.931 . S
H129 C108 0.930 . S
H130 C110 0.930 . S
H131 C111 0.931 . S
H132 C113 0.931 . S
H133 C115 0.930 . S
H134 C117 0.930 . S
H135 C118 0.931 . S
N136 C98 1.343 . S
N136 C119 1.343 . S
N137 C105 1.343 . S
N137 C112 1.343 . S
C138 C139 1.384 . S
C138 C140 1.384 . S
C138 H166 0.931 . S
C139 C138 1.384 . S
C139 C142 1.382 . S
C140 C138 1.384 . S
C140 C141 1.381 . S
C140 H167 0.930 . S
C141 C140 1.381 . S
C141 C143 1.381 . S
C141 C144 1.487 . S
C142 C139 1.382 . S
C142 C143 1.387 . S
C142 H168 0.930 . S
C143 C141 1.381 . S
C143 C142 1.387 . S
C143 H169 0.935 1_565 S
C144 C141 1.487 . S
C144 C151 1.399 . S
C144 N182 1.343 1_565 S
C145 C146 1.384 . S
C145 C147 1.384 . S
C145 H170 0.931 . S
C146 C145 1.384 . S
C146 C149 1.382 . S
C147 C145 1.384 . S
C147 C148 1.381 . S
C147 H171 0.930 . S
C148 C147 1.381 . S
C148 C150 1.381 . S
C148 C151 1.487 . S
C149 C146 1.382 . S
C149 C150 1.387 . S
C149 H172 0.930 . S
C150 C148 1.381 . S
C150 C149 1.387 . S
C150 H173 0.931 . S
C151 C144 1.399 . S
C151 C148 1.487 . S
C151 N183 1.343 1_565 S
C152 C153 1.384 . S
C152 C154 1.384 . S
C152 H174 0.931 . S
C153 C152 1.384 . S
C153 C156 1.382 . S
C154 C152 1.384 . S
C154 C155 1.381 . S
C154 H175 0.930 . S
C155 C154 1.381 . S
C155 C157 1.381 . S
C155 C158 1.487 . S
C156 C153 1.382 . S
C156 C157 1.387 . S
C156 H176 0.930 . S
C157 C155 1.381 . S
C157 C156 1.387 . S
C157 H177 0.931 . S
C158 C155 1.487 . S
C158 C165 1.399 . S
C158 N183 1.343 . S
C159 C160 1.384 . S
C159 C161 1.384 . S
C159 H178 0.931 . S
C160 C159 1.384 . S
C160 C163 1.382 . S
C161 C159 1.384 . S
C161 C162 1.381 . S
C161 H179 0.930 . S
C162 C161 1.381 . S
C162 C164 1.381 . S
C162 C165 1.487 . S
C163 C160 1.382 . S
C163 C164 1.387 . S
C163 H180 0.930 . S
C164 C162 1.381 . S
C164 C163 1.387 . S
C164 H181 0.931 . S
C165 C158 1.399 . S
C165 C162 1.487 . S
C165 N182 1.343 . S
H166 C138 0.931 . S
H167 C140 0.930 . S
H168 C142 0.930 . S
H169 C143 0.935 1_545 S
H170 C145 0.931 . S
H171 C147 0.930 . S
H172 C149 0.930 . S
H173 C150 0.931 . S
H174 C152 0.931 . S
H175 C154 0.930 . S
H176 C156 0.930 . S
H177 C157 0.931 . S
H178 C159 0.931 . S
H179 C161 0.930 . S
H180 C163 0.930 . S
H181 C164 0.931 . S
N182 C144 1.343 1_545 S
N182 C165 1.343 . S
N183 C151 1.343 1_545 S
N183 C158 1.343 . S
C184 C185 1.384 . S
C184 C186 1.384 . S
C184 H212 0.931 . S
C185 C184 1.384 . S
C185 C188 1.382 . S
C186 C184 1.384 . S
C186 C187 1.381 . S
C186 H213 0.930 . S
C187 C186 1.381 . S
C187 C189 1.381 . S
C187 C190 1.487 . S
C188 C185 1.382 . S
C188 C189 1.387 . S
C188 H214 0.930 . S
C189 C187 1.381 . S
C189 C188 1.387 . S
C189 H215 0.931 . S
C190 C187 1.487 . S
C190 C197 1.399 . S
C190 N228 1.343 . S
C191 C192 1.384 . S
C191 C193 1.384 . S
C191 H216 0.931 . S
C192 C191 1.384 . S
C192 C195 1.382 . S
C193 C191 1.384 . S
C193 C194 1.381 . S
C193 H217 0.930 . S
C194 C193 1.381 . S
C194 C196 1.381 . S
C194 C197 1.487 . S
C195 C192 1.382 . S
C195 C196 1.387 . S
C195 H218 0.930 . S
C196 C194 1.381 . S
C196 C195 1.387 . S
C196 H219 0.931 . S
C197 C190 1.399 . S
C197 C194 1.487 . S
C197 N229 1.343 . S
C198 C199 1.384 . S
C198 C200 1.384 . S
C198 H220 0.931 . S
C199 C198 1.384 . S
C199 C202 1.382 . S
C200 C198 1.384 . S
C200 C201 1.381 . S
C200 H221 0.930 . S
C201 C200 1.381 . S
C201 C203 1.381 . S
C201 C204 1.487 . S
C202 C199 1.382 . S
C202 C203 1.387 . S
C202 H222 0.930 . S
C203 C201 1.381 . S
C203 C202 1.387 . S
C203 H223 0.931 . S
C204 C201 1.487 . S
C204 C211 1.399 . S
C204 N229 1.343 1_655 S
C205 C206 1.384 . S
C205 C207 1.384 . S
C205 H224 0.931 . S
C206 C205 1.384 . S
C206 C209 1.382 . S
C207 C205 1.384 . S
C207 C208 1.381 . S
C207 H225 0.930 . S
C208 C207 1.381 . S
C208 C210 1.381 . S
C208 C211 1.487 . S
C209 C206 1.382 . S
C209 C210 1.387 . S
C209 H226 0.930 . S
C210 C208 1.381 . S
C210 C209 1.387 . S
C210 H227 0.931 . S
C211 C204 1.399 . S
C211 C208 1.487 . S
C211 N228 1.343 1_655 S
H212 C184 0.931 . S
H213 C186 0.930 . S
H214 C188 0.930 . S
H215 C189 0.931 . S
H216 C191 0.931 . S
H217 C193 0.930 . S
H218 C195 0.930 . S
H219 C196 0.931 . S
H220 C198 0.931 . S
H221 C200 0.930 . S
H222 C202 0.930 . S
H223 C203 0.931 . S
H224 C205 0.931 . S
H225 C207 0.930 . S
H226 C209 0.930 . S
H227 C210 0.931 . S
N228 C190 1.343 . S
N228 C211 1.343 1_455 S
N229 C197 1.343 . S
N229 C204 1.343 1_455 S
C230 C231 1.384 . S
C230 C232 1.384 . S
C230 H258 0.931 . S
C231 C230 1.384 . S
C231 C234 1.382 . S
C232 C230 1.384 . S
C232 C233 1.381 . S
C232 H259 0.930 . S
C233 C232 1.381 . S
C233 C235 1.381 . S
C233 C236 1.487 . S
C234 C231 1.382 . S
C234 C235 1.387 . S
C234 H260 0.930 . S
C235 C233 1.381 . S
C235 C234 1.387 . S
C235 H261 0.931 . S
C236 C233 1.487 . S
C236 C243 1.399 . S
C236 N274 1.343 . S
C237 C238 1.384 . S
C237 C239 1.384 . S
C237 H262 0.931 . S
C238 C237 1.384 . S
C238 C241 1.382 . S
C239 C237 1.384 . S
C239 C240 1.381 . S
C239 H263 0.930 . S
C240 C239 1.381 . S
C240 C242 1.381 . S
C240 C243 1.487 . S
C241 C238 1.382 . S
C241 C242 1.387 . S
C241 H264 0.930 . S
C242 C240 1.381 . S
C242 C241 1.387 . S
C242 H265 0.931 . S
C243 C236 1.399 . S
C243 C240 1.487 . S
C243 N275 1.343 . S
C244 C245 1.384 . S
C244 C246 1.384 . S
C244 H266 0.931 . S
C245 C244 1.384 . S
C245 C248 1.382 . S
C246 C244 1.384 . S
C246 C247 1.381 . S
C246 H267 0.930 . S
C247 C246 1.381 . S
C247 C249 1.381 . S
C247 C250 1.487 . S
C248 C245 1.382 . S
C248 C249 1.387 . S
C248 H268 0.930 . S
C249 C247 1.381 . S
C249 C248 1.387 . S
C249 H269 0.931 . S
C250 C247 1.487 . S
C250 C257 1.399 . S
C250 N275 1.343 . S
C251 C252 1.384 . S
C251 C253 1.384 . S
C251 H270 0.931 . S
C252 C251 1.384 . S
C252 C255 1.382 . S
C253 C251 1.384 . S
C253 C254 1.381 . S
C253 H271 0.930 . S
C254 C253 1.381 . S
C254 C256 1.381 . S
C254 C257 1.487 . S
C255 C252 1.382 . S
C255 C256 1.387 . S
C255 H272 0.930 . S
C256 C254 1.381 . S
C256 C255 1.387 . S
C256 H273 0.931 . S
C257 C250 1.399 . S
C257 C254 1.487 . S
C257 N274 1.343 . S
H258 C230 0.931 . S
H259 C232 0.930 . S
H260 C234 0.930 . S
H261 C235 0.931 . S
H262 C237 0.931 . S
H263 C239 0.930 . S
H264 C241 0.930 . S
H265 C242 0.931 . S
H266 C244 0.931 . S
H267 C246 0.930 . S
H268 C248 0.930 . S
H269 C249 0.931 . S
H270 C251 0.931 . S
H271 C253 0.930 . S
H272 C255 0.930 . S
H273 C256 0.931 . S
N274 C236 1.343 . S
N274 C257 1.343 . S
N275 C243 1.343 . S
N275 C250 1.343 . S
C276 C277 1.384 . S
C276 C278 1.384 . S
C276 H304 0.931 . S
C277 C276 1.384 . S
C277 C280 1.382 . S
C278 C276 1.384 . S
C278 C279 1.381 . S
C278 H305 0.930 . S
C279 C278 1.381 . S
C279 C281 1.381 . S
C279 C282 1.487 . S
C280 C277 1.382 . S
C280 C281 1.387 . S
C280 H306 0.930 . S
C281 C279 1.381 . S
C281 C280 1.387 . S
C281 H307 0.931 1_565 S
C282 C279 1.487 . S
C282 C289 1.399 . S
C282 N320 1.343 1_565 S
C283 C284 1.384 . S
C283 C285 1.384 . S
C283 H308 0.931 . S
C284 C283 1.384 . S
C284 C287 1.382 . S
C285 C283 1.384 . S
C285 C286 1.381 . S
C285 H309 0.930 . S
C286 C285 1.381 . S
C286 C288 1.381 . S
C286 C289 1.487 . S
C287 C284 1.382 . S
C287 C288 1.387 . S
C287 H310 0.930 . S
C288 C286 1.381 . S
C288 C287 1.387 . S
C288 H311 0.931 . S
C289 C282 1.399 . S
C289 C286 1.487 . S
C289 N321 1.343 1_565 S
C290 C291 1.384 . S
C290 C292 1.384 . S
C290 H312 0.931 . S
C291 C290 1.384 . S
C291 C294 1.382 . S
C292 C290 1.384 . S
C292 C293 1.381 . S
C292 H313 0.930 . S
C293 C292 1.381 . S
C293 C295 1.381 . S
C293 C296 1.487 . S
C294 C291 1.382 . S
C294 C295 1.387 . S
C294 H314 0.930 . S
C295 C293 1.381 . S
C295 C294 1.387 . S
C295 H315 0.977 . S
C296 C293 1.487 . S
C296 C303 1.399 . S
C296 N321 1.343 . S
C297 C298 1.384 . S
C297 C299 1.384 . S
C297 H316 0.931 . S
C298 C297 1.384 . S
C298 C301 1.382 . S
C299 C297 1.384 . S
C299 C300 1.381 . S
C299 H317 0.930 . S
C300 C299 1.381 . S
C300 C302 1.381 . S
C300 C303 1.487 . S
C301 C298 1.382 . S
C301 C302 1.387 . S
C301 H318 0.930 . S
C302 C300 1.381 . S
C302 C301 1.387 . S
C302 H319 0.931 . S
C303 C296 1.399 . S
C303 C300 1.487 . S
C303 N320 1.343 . S
H304 C276 0.931 . S
H305 C278 0.930 . S
H306 C280 0.930 . S
H307 C281 0.931 1_545 S
H308 C283 0.931 . S
H309 C285 0.930 . S
H310 C287 0.930 . S
H311 C288 0.931 . S
H312 C290 0.931 . S
H313 C292 0.930 . S
H314 C294 0.930 . S
H315 C295 0.977 . S
H316 C297 0.931 . S
H317 C299 0.930 . S
H318 C301 0.930 . S
H319 C302 0.931 . S
N320 C282 1.343 1_545 S
N320 C303 1.343 . S
N321 C289 1.343 1_545 S
N321 C296 1.343 . S
C322 C323 1.384 . S
C322 C324 1.384 . S
C322 H350 0.931 . S
C323 C322 1.384 . S
C323 C326 1.382 . S
C324 C322 1.384 . S
C324 C325 1.381 . S
C324 H351 0.930 . S
C325 C324 1.381 . S
C325 C327 1.381 . S
C325 C328 1.487 . S
C326 C323 1.382 . S
C326 C327 1.387 . S
C326 H352 0.930 . S
C327 C325 1.381 . S
C327 C326 1.387 . S
C327 H353 0.944 . S
C328 C325 1.487 . S
C328 C335 1.399 . S
C328 N366 1.343 1_565 S
C329 C330 1.384 . S
C329 C331 1.384 . S
C329 H354 0.931 . S
C330 C329 1.384 . S
C330 C333 1.382 . S
C331 C329 1.384 . S
C331 C332 1.381 . S
C331 H355 0.930 . S
C332 C331 1.381 . S
C332 C334 1.381 . S
C332 C335 1.487 . S
C333 C330 1.382 . S
C333 C334 1.387 . S
C333 H356 0.930 . S
C334 C332 1.381 . S
C334 C333 1.387 . S
C334 H357 0.931 . S
C335 C328 1.399 . S
C335 C332 1.487 . S
C335 N367 1.343 1_565 S
C336 C337 1.384 . S
C336 C338 1.384 . S
C336 H358 0.931 . S
C337 C336 1.384 . S
C337 C340 1.382 . S
C338 C336 1.384 . S
C338 C339 1.381 . S
C338 H359 0.930 . S
C339 C338 1.381 . S
C339 C341 1.381 . S
C339 C342 1.487 . S
C340 C337 1.382 . S
C340 C341 1.387 . S
C340 H360 0.930 . S
C341 C339 1.381 . S
C341 C340 1.387 . S
C341 H361 0.931 1_655 S
C342 C339 1.487 . S
C342 C349 1.399 . S
C342 N367 1.343 1_655 S
C343 C344 1.384 . S
C343 C345 1.384 . S
C343 H362 0.931 . S
C344 C343 1.384 . S
C344 C347 1.382 . S
C345 C343 1.384 . S
C345 C346 1.381 . S
C345 H363 0.930 . S
C346 C345 1.381 . S
C346 C348 1.381 . S
C346 C349 1.487 . S
C347 C344 1.382 . S
C347 C348 1.387 . S
C347 H364 0.930 . S
C348 C346 1.381 . S
C348 C347 1.387 . S
C348 H365 0.931 . S
C349 C342 1.399 . S
C349 C346 1.487 . S
C349 N366 1.343 1_655 S
H350 C322 0.931 . S
H351 C324 0.930 . S
H352 C326 0.930 . S
H353 C327 0.944 . S
H354 C329 0.931 . S
H355 C331 0.930 . S
H356 C333 0.930 . S
H357 C334 0.931 . S
H358 C336 0.931 . S
H359 C338 0.930 . S
H360 C340 0.930 . S
H361 C341 0.931 1_455 S
H362 C343 0.931 . S
H363 C345 0.930 . S
H364 C347 0.930 . S
H365 C348 0.931 . S
N366 C328 1.343 1_545 S
N366 C349 1.343 1_455 S
N367 C335 1.343 1_545 S
N367 C342 1.343 1_455 S
Mn368 O373 2.095 1_554 S
Mn368 O383 2.162 . S
Mn368 O384 2.297 . S
Mn368 O392 2.385 . S
Mn368 O393 2.209 . S
Mn368 O394 2.094 1_554 S
Mn369 O374 2.121 . S
Mn369 N376 2.257 1_556 S
Mn369 N385 2.282 1_556 S
Mn369 O393 2.215 1_556 S
Mn369 O395 2.117 . S
C370 O392 1.234 . S
C370 O393 1.283 . S
C371 O383 1.281 . S
C371 O384 1.236 . S
C372 O394 1.240 . S
C372 O395 1.264 . S
O373 Mn368 2.095 1_556 S
O373 C382 1.250 . S
O374 Mn369 2.121 . S
O374 C382 1.258 . S
C375 N376 1.326 1_556 S
C375 C379 1.460 1_556 S
C375 H381 0.929 . S
N376 Mn369 2.257 1_554 S
N376 C375 1.326 1_554 S
N376 C380 1.362 . S
C377 C378 1.258 . S
C377 C380 1.431 . S
C377 C397 1.449 . S
C378 C377 1.258 . S
C378 C379 1.477 . S
C378 H398 0.931 . S
C379 C375 1.460 1_554 S
C379 C378 1.477 . S
C379 H399 0.930 1_554 S
C380 N376 1.362 . S
C380 C377 1.431 . S
C380 C390 1.476 . S
H381 C375 0.929 . S
C382 O373 1.250 . S
C382 O374 1.258 . S
O383 Mn368 2.162 . S
O383 C371 1.281 . S
O384 Mn368 2.297 . S
O384 C371 1.236 . S
N385 Mn369 2.282 1_554 S
N385 C386 1.328 . S
N385 C390 1.318 . S
C386 N385 1.328 . S
C386 C387 1.457 . S
C386 H391 0.929 . S
C387 C386 1.457 . S
C387 C388 1.291 . S
C387 H400 0.931 . S
C388 C387 1.291 . S
C388 C389 1.373 . S
C388 H401 0.929 . S
C389 C388 1.373 . S
C389 C390 1.396 . S
C389 C396 1.403 . S
C390 C380 1.476 . S
C390 N385 1.318 . S
C390 C389 1.396 . S
H391 C386 0.929 . S
O392 Mn368 2.385 . S
O392 C370 1.234 . S
O393 Mn368 2.209 . S
O393 Mn369 2.215 1_554 S
O393 C370 1.283 . S
O394 Mn368 2.094 1_556 S
O394 C372 1.240 . S
O395 Mn369 2.117 . S
O395 C372 1.264 . S
C396 C389 1.403 . S
C396 C397 1.399 . S
C396 H402 0.929 . S
C397 C377 1.449 . S
C397 C396 1.399 . S
C397 H403 0.930 . S
H398 C378 0.931 . S
H399 C379 0.930 1_556 S
H400 C387 0.931 . S
H401 C388 0.929 . S
H402 C396 0.929 . S
H403 C397 0.930 . S
Mn404 O409 2.095 . S
Mn404 O419 2.162 . S
Mn404 O420 2.297 . S
Mn404 O428 2.385 . S
Mn404 O429 2.209 . S
Mn404 O430 2.094 . S
Mn405 O410 2.121 . S
Mn405 N412 2.257 . S
Mn405 N421 2.282 . S
Mn405 O429 2.215 . S
Mn405 O431 2.117 . S
C406 O428 1.234 . S
C406 O429 1.283 . S
C407 O419 1.281 . S
C407 O420 1.236 . S
C408 O430 1.240 . S
C408 O431 1.264 . S
O409 Mn404 2.095 . S
O409 C418 1.250 . S
O410 Mn405 2.121 . S
O410 C418 1.258 . S
C411 N412 1.326 . S
C411 C415 1.460 . S
C411 H417 0.929 . S
N412 Mn405 2.257 . S
N412 C411 1.326 . S
N412 C416 1.362 . S
C413 C414 1.258 . S
C413 C416 1.431 . S
C413 C433 1.449 . S
C414 C413 1.258 . S
C414 C415 1.477 . S
C414 H434 0.931 . S
C415 C411 1.460 . S
C415 C414 1.477 . S
C415 H435 0.930 . S
C416 N412 1.362 . S
C416 C413 1.431 . S
C416 C426 1.476 . S
H417 C411 0.929 . S
C418 O409 1.250 . S
C418 O410 1.258 . S
O419 Mn404 2.162 . S
O419 C407 1.281 . S
O420 Mn404 2.297 . S
O420 C407 1.236 . S
N421 Mn405 2.282 . S
N421 C422 1.328 . S
N421 C426 1.318 . S
C422 N421 1.328 . S
C422 C423 1.457 . S
C422 H427 0.929 . S
C423 C422 1.457 . S
C423 C424 1.291 . S
C423 H436 0.931 . S
C424 C423 1.291 . S
C424 C425 1.373 . S
C424 H437 0.929 . S
C425 C424 1.373 . S
C425 C426 1.396 . S
C425 C432 1.403 . S
C426 C416 1.476 . S
C426 N421 1.318 . S
C426 C425 1.396 . S
H427 C422 0.929 . S
O428 Mn404 2.385 . S
O428 C406 1.234 . S
O429 Mn404 2.209 . S
O429 Mn405 2.215 . S
O429 C406 1.283 . S
O430 Mn404 2.094 . S
O430 C408 1.240 . S
O431 Mn405 2.117 . S
O431 C408 1.264 . S
C432 C425 1.403 . S
C432 C433 1.399 . S
C432 H438 0.929 . S
C433 C413 1.449 . S
C433 C432 1.399 . S
C433 H439 0.930 . S
H434 C414 0.931 . S
H435 C415 0.930 . S
H436 C423 0.931 . S
H437 C424 0.929 . S
H438 C432 0.929 . S
H439 C433 0.930 . S
Mn440 O445 2.095 . S
Mn440 O455 2.162 . S
Mn440 O456 2.297 . S
Mn440 O464 2.385 . S
Mn440 O465 2.209 . S
Mn440 O466 2.094 . S
Mn441 O446 2.121 . S
Mn441 N448 2.257 . S
Mn441 N457 2.282 . S
Mn441 O465 2.215 . S
Mn441 O467 2.117 . S
C442 O464 1.234 . S
C442 O465 1.283 . S
C443 O455 1.281 . S
C443 O456 1.236 . S
C444 O466 1.240 . S
C444 O467 1.264 . S
O445 Mn440 2.095 . S
O445 C454 1.250 . S
O446 Mn441 2.121 . S
O446 C454 1.258 . S
C447 N448 1.326 . S
C447 C451 1.460 . S
C447 H453 0.929 . S
N448 Mn441 2.257 . S
N448 C447 1.326 . S
N448 C452 1.362 . S
C449 C450 1.258 . S
C449 C452 1.431 . S
C449 C469 1.449 . S
C450 C449 1.258 . S
C450 C451 1.477 . S
C450 H470 0.931 . S
C451 C447 1.460 . S
C451 C450 1.477 . S
C451 H471 0.930 . S
C452 N448 1.362 . S
C452 C449 1.431 . S
C452 C462 1.476 . S
H453 C447 0.929 . S
C454 O445 1.250 . S
C454 O446 1.258 . S
O455 Mn440 2.162 . S
O455 C443 1.281 . S
O456 Mn440 2.297 . S
O456 C443 1.236 . S
N457 Mn441 2.282 . S
N457 C458 1.328 . S
N457 C462 1.318 . S
C458 N457 1.328 . S
C458 C459 1.457 . S
C458 H463 0.929 . S
C459 C458 1.457 . S
C459 C460 1.291 . S
C459 H472 0.931 . S
C460 C459 1.291 . S
C460 C461 1.373 . S
C460 H473 0.929 . S
C461 C460 1.373 . S
C461 C462 1.396 . S
C461 C468 1.403 . S
C462 C452 1.476 . S
C462 N457 1.318 . S
C462 C461 1.396 . S
H463 C458 0.929 . S
O464 Mn440 2.385 . S
O464 C442 1.234 . S
O465 Mn440 2.209 . S
O465 Mn441 2.215 . S
O465 C442 1.283 . S
O466 Mn440 2.094 . S
O466 C444 1.240 . S
O467 Mn441 2.117 . S
O467 C444 1.264 . S
C468 C461 1.403 . S
C468 C469 1.399 . S
C468 H474 0.929 . S
C469 C449 1.449 . S
C469 C468 1.399 . S
C469 H475 0.930 . S
H470 C450 0.931 . S
H471 C451 0.930 . S
H472 C459 0.931 . S
H473 C460 0.929 . S
H474 C468 0.929 . S
H475 C469 0.930 . S
Mn476 O481 2.095 . S
Mn476 O491 2.162 . S
Mn476 O492 2.297 . S
Mn476 O500 2.385 . S
Mn476 O501 2.209 . S
Mn476 O502 2.094 . S
Mn477 O482 2.121 . S
Mn477 N484 2.257 . S
Mn477 N493 2.282 . S
Mn477 O501 2.215 . S
Mn477 O503 2.117 . S
C478 O500 1.234 . S
C478 O501 1.283 . S
C479 O491 1.281 . S
C479 O492 1.236 . S
C480 O502 1.240 . S
C480 O503 1.264 . S
O481 Mn476 2.095 . S
O481 C490 1.250 . S
O482 Mn477 2.121 . S
O482 C490 1.258 . S
C483 N484 1.326 . S
C483 C487 1.460 . S
C483 H489 0.929 . S
N484 Mn477 2.257 . S
N484 C483 1.326 . S
N484 C488 1.362 . S
C485 C486 1.258 . S
C485 C488 1.431 . S
C485 C505 1.449 . S
C486 C485 1.258 . S
C486 C487 1.477 . S
C486 H506 0.931 . S
C487 C483 1.460 . S
C487 C486 1.477 . S
C487 H507 0.930 . S
C488 N484 1.362 . S
C488 C485 1.431 . S
C488 C498 1.476 . S
H489 C483 0.929 . S
C490 O481 1.250 . S
C490 O482 1.258 . S
O491 Mn476 2.162 . S
O491 C479 1.281 . S
O492 Mn476 2.297 . S
O492 C479 1.236 . S
N493 Mn477 2.282 . S
N493 C494 1.328 . S
N493 C498 1.318 . S
C494 N493 1.328 . S
C494 C495 1.457 . S
C494 H499 0.929 . S
C495 C494 1.457 . S
C495 C496 1.291 . S
C495 H508 0.931 . S
C496 C495 1.291 . S
C496 C497 1.373 . S
C496 H509 0.929 . S
C497 C496 1.373 . S
C497 C498 1.396 . S
C497 C504 1.403 . S
C498 C488 1.476 . S
C498 N493 1.318 . S
C498 C497 1.396 . S
H499 C494 0.929 . S
O500 Mn476 2.385 . S
O500 C478 1.234 . S
O501 Mn476 2.209 . S
O501 Mn477 2.215 . S
O501 C478 1.283 . S
O502 Mn476 2.094 . S
O502 C480 1.240 . S
O503 Mn477 2.117 . S
O503 C480 1.264 . S
C504 C497 1.403 . S
C504 C505 1.399 . S
C504 H510 0.929 . S
C505 C485 1.449 . S
C505 C504 1.399 . S
C505 H511 0.930 . S
H506 C486 0.931 . S
H507 C487 0.930 . S
H508 C495 0.931 . S
H509 C496 0.929 . S
H510 C504 0.929 . S
H511 C505 0.930 . S
Mn512 O517 2.095 . S
Mn512 O527 2.162 . S
Mn512 O528 2.297 . S
Mn512 O536 2.385 . S
Mn512 O537 2.209 . S
Mn512 O538 2.094 . S
Mn513 O518 2.121 . S
Mn513 N520 2.257 . S
Mn513 N529 2.282 . S
Mn513 O537 2.215 . S
Mn513 O539 2.117 . S
C514 O536 1.234 . S
C514 O537 1.283 . S
C515 O527 1.281 . S
C515 O528 1.236 . S
C516 O538 1.240 . S
C516 O539 1.264 . S
O517 Mn512 2.095 . S
O517 C526 1.250 . S
O518 Mn513 2.121 . S
O518 C526 1.258 . S
C519 N520 1.326 . S
C519 C523 1.460 . S
C519 H525 0.929 . S
N520 Mn513 2.257 . S
N520 C519 1.326 . S
N520 C524 1.362 . S
C521 C522 1.258 . S
C521 C524 1.431 . S
C521 C541 1.449 . S
C522 C521 1.258 . S
C522 C523 1.477 . S
C522 H542 0.931 . S
C523 C519 1.460 . S
C523 C522 1.477 . S
C523 H543 0.930 . S
C524 N520 1.362 . S
C524 C521 1.431 . S
C524 C534 1.476 . S
H525 C519 0.929 . S
C526 O517 1.250 . S
C526 O518 1.258 . S
O527 Mn512 2.162 . S
O527 C515 1.281 . S
O528 Mn512 2.297 . S
O528 C515 1.236 . S
N529 Mn513 2.282 . S
N529 C530 1.328 . S
N529 C534 1.318 . S
C530 N529 1.328 . S
C530 C531 1.457 . S
C530 H535 0.929 . S
C531 C530 1.457 . S
C531 C532 1.291 . S
C531 H544 0.931 . S
C532 C531 1.291 . S
C532 C533 1.373 . S
C532 H545 0.929 . S
C533 C532 1.373 . S
C533 C534 1.396 . S
C533 C540 1.403 . S
C534 C524 1.476 . S
C534 N529 1.318 . S
C534 C533 1.396 . S
H535 C530 0.929 . S
O536 Mn512 2.385 . S
O536 C514 1.234 . S
O537 Mn512 2.209 . S
O537 Mn513 2.215 . S
O537 C514 1.283 . S
O538 Mn512 2.094 . S
O538 C516 1.240 . S
O539 Mn513 2.117 . S
O539 C516 1.264 . S
C540 C533 1.403 . S
C540 C541 1.399 . S
C540 H546 0.929 . S
C541 C521 1.449 . S
C541 C540 1.399 . S
C541 H547 0.930 . S
H542 C522 0.931 . S
H543 C523 0.930 . S
H544 C531 0.931 . S
H545 C532 0.929 . S
H546 C540 0.929 . S
H547 C541 0.930 . S
Mn548 O553 2.095 . S
Mn548 O563 2.162 . S
Mn548 O564 2.297 . S
Mn548 O572 2.385 . S
Mn548 O573 2.209 . S
Mn548 O574 2.094 . S
Mn549 O554 2.121 . S
Mn549 N556 2.257 . S
Mn549 N565 2.282 . S
Mn549 O573 2.215 . S
Mn549 O575 2.117 . S
C550 O572 1.234 . S
C550 O573 1.283 . S
C551 O563 1.281 . S
C551 O564 1.236 . S
C552 O574 1.240 . S
C552 O575 1.264 . S
O553 Mn548 2.095 . S
O553 C562 1.250 . S
O554 Mn549 2.121 . S
O554 C562 1.258 . S
C555 N556 1.326 . S
C555 C559 1.460 . S
C555 H561 0.929 . S
N556 Mn549 2.257 . S
N556 C555 1.326 . S
N556 C560 1.362 . S
C557 C558 1.258 . S
C557 C560 1.431 . S
C557 C577 1.449 . S
C558 C557 1.258 . S
C558 C559 1.477 . S
C558 H578 0.931 . S
C559 C555 1.460 . S
C559 C558 1.477 . S
C559 H579 0.930 . S
C560 N556 1.362 . S
C560 C557 1.431 . S
C560 C570 1.476 . S
H561 C555 0.929 . S
C562 O553 1.250 . S
C562 O554 1.258 . S
O563 Mn548 2.162 . S
O563 C551 1.281 . S
O564 Mn548 2.297 . S
O564 C551 1.236 . S
N565 Mn549 2.282 . S
N565 C566 1.328 . S
N565 C570 1.318 . S
C566 N565 1.328 . S
C566 C567 1.457 . S
C566 H571 0.929 . S
C567 C566 1.457 . S
C567 C568 1.291 . S
C567 H580 0.931 . S
C568 C567 1.291 . S
C568 C569 1.373 . S
C568 H581 0.929 . S
C569 C568 1.373 . S
C569 C570 1.396 . S
C569 C576 1.403 . S
C570 C560 1.476 . S
C570 N565 1.318 . S
C570 C569 1.396 . S
H571 C566 0.929 . S
O572 Mn548 2.385 . S
O572 C550 1.234 . S
O573 Mn548 2.209 . S
O573 Mn549 2.215 . S
O573 C550 1.283 . S
O574 Mn548 2.094 . S
O574 C552 1.240 . S
O575 Mn549 2.117 . S
O575 C552 1.264 . S
C576 C569 1.403 . S
C576 C577 1.399 . S
C576 H582 0.929 . S
C577 C557 1.449 . S
C577 C576 1.399 . S
C577 H583 0.930 . S
H578 C558 0.931 . S
H579 C559 0.930 . S
H580 C567 0.931 . S
H581 C568 0.929 . S
H582 C576 0.929 . S
H583 C577 0.930 . S
Mn584 O589 2.095 . S
Mn584 O599 2.167 . S
Mn584 O600 2.297 1_554 S
Mn584 O608 2.385 1_554 S
Mn584 O609 2.209 1_554 S
Mn584 O610 2.094 . S
Mn585 O590 2.121 . S
Mn585 N592 2.245 1_554 S
Mn585 N601 2.282 1_554 S
Mn585 O609 2.215 1_554 S
Mn585 O611 2.117 . S
C586 O608 1.234 . S
C586 O609 1.283 . S
C587 O599 1.270 1_556 S
C587 O600 1.236 . S
C588 O610 1.240 . S
C588 O611 1.264 . S
O589 Mn584 2.095 . S
O589 C598 1.250 . S
O590 Mn585 2.121 . S
O590 C598 1.258 . S
C591 N592 1.305 1_554 S
C591 C595 1.460 . S
C591 H597 0.929 . S
N592 Mn585 2.245 1_556 S
N592 C591 1.305 1_556 S
N592 C596 1.397 . S
C593 C594 1.258 . S
C593 C596 1.431 . S
C593 C613 1.449 . S
C594 C593 1.258 . S
C594 C595 1.477 1_556 S
C594 H614 0.931 . S
C595 C591 1.460 . S
C595 C594 1.477 1_554 S
C595 H615 0.930 . S
C596 N592 1.397 . S
C596 C593 1.431 . S
C596 C606 1.476 . S
H597 C591 0.929 . S
C598 O589 1.250 . S
C598 O590 1.258 . S
O599 Mn584 2.167 . S
O599 C587 1.270 1_554 S
O600 Mn584 2.297 1_556 S
O600 C587 1.236 . S
N601 Mn585 2.282 1_556 S
N601 C602 1.328 . S
N601 C606 1.318 . S
C602 N601 1.328 . S
C602 C603 1.457 . S
C602 H607 0.929 . S
C603 C602 1.457 . S
C603 C604 1.291 . S
C603 H616 0.931 . S
C604 C603 1.291 . S
C604 C605 1.373 . S
C604 H617 0.929 . S
C605 C604 1.373 . S
C605 C606 1.396 . S
C605 C612 1.403 . S
C606 C596 1.476 . S
C606 N601 1.318 . S
C606 C605 1.396 . S
H607 C602 0.929 . S
O608 Mn584 2.385 1_556 S
O608 C586 1.234 . S
O609 Mn584 2.209 1_556 S
O609 Mn585 2.215 1_556 S
O609 C586 1.283 . S
O610 Mn584 2.094 . S
O610 C588 1.240 . S
O611 Mn585 2.117 . S
O611 C588 1.264 . S
C612 C605 1.403 . S
C612 C613 1.399 . S
C612 H618 0.929 . S
C613 C593 1.449 . S
C613 C612 1.399 . S
C613 H619 0.930 . S
H614 C594 0.931 . S
H615 C595 0.930 . S
H616 C603 0.931 . S
H617 C604 0.929 . S
H618 C612 0.929 . S
H619 C613 0.930 . S
Mn620 O625 2.095 . S
Mn620 O635 2.162 . S
Mn620 O636 2.297 . S
Mn620 O644 2.385 . S
Mn620 O645 2.209 . S
Mn620 O646 2.094 . S
Mn621 O626 2.121 . S
Mn621 N628 2.257 . S
Mn621 N637 2.282 . S
Mn621 O645 2.215 . S
Mn621 O647 2.117 . S
C622 O644 1.234 . S
C622 O645 1.283 . S
C623 O635 1.281 . S
C623 O636 1.236 . S
C624 O646 1.240 . S
C624 O647 1.264 . S
O625 Mn620 2.095 . S
O625 C634 1.250 . S
O626 Mn621 2.121 . S
O626 C634 1.258 . S
C627 N628 1.326 . S
C627 C631 1.460 . S
C627 H633 0.929 . S
N628 Mn621 2.257 . S
N628 C627 1.326 . S
N628 C632 1.362 . S
C629 C630 1.258 . S
C629 C632 1.431 . S
C629 C649 1.449 . S
C630 C629 1.258 . S
C630 C631 1.477 . S
C630 H650 0.931 . S
C631 C627 1.460 . S
C631 C630 1.477 . S
C631 H651 0.930 . S
C632 N628 1.362 . S
C632 C629 1.431 . S
C632 C642 1.476 . S
H633 C627 0.929 . S
C634 O625 1.250 . S
C634 O626 1.258 . S
O635 Mn620 2.162 . S
O635 C623 1.281 . S
O636 Mn620 2.297 . S
O636 C623 1.236 . S
N637 Mn621 2.282 . S
N637 C638 1.328 . S
N637 C642 1.318 . S
C638 N637 1.328 . S
C638 C639 1.457 . S
C638 H643 0.929 . S
C639 C638 1.457 . S
C639 C640 1.291 . S
C639 H652 0.931 . S
C640 C639 1.291 . S
C640 C641 1.373 . S
C640 H653 0.929 . S
C641 C640 1.373 . S
C641 C642 1.396 . S
C641 C648 1.403 . S
C642 C632 1.476 . S
C642 N637 1.318 . S
C642 C641 1.396 . S
H643 C638 0.929 . S
O644 Mn620 2.385 . S
O644 C622 1.234 . S
O645 Mn620 2.209 . S
O645 Mn621 2.215 . S
O645 C622 1.283 . S
O646 Mn620 2.094 . S
O646 C624 1.240 . S
O647 Mn621 2.117 . S
O647 C624 1.264 . S
C648 C641 1.403 . S
C648 C649 1.399 . S
C648 H654 0.929 . S
C649 C629 1.449 . S
C649 C648 1.399 . S
C649 H655 0.930 . S
H650 C630 0.931 . S
H651 C631 0.930 . S
H652 C639 0.931 . S
H653 C640 0.929 . S
H654 C648 0.929 . S
H655 C649 0.930 . S
H656 C674 0.951 . S
H657 C676 0.951 . S
H658 C678 0.950 . S
H659 C679 0.950 . S
H660 C681 0.950 . S
H661 C684 0.950 . S
H662 C685 0.950 . S
H663 C687 0.950 . S
H664 C688 0.950 . S
H665 C689 0.951 . S
H666 C691 0.951 . S
H667 C693 0.950 . S
H668 C694 0.950 . S
H669 C696 0.950 . S
H670 C699 0.950 . S
H671 C700 0.950 . S
H672 C702 0.950 . S
H673 C703 0.950 . S
C674 H656 0.951 . S
C674 C675 1.366 . S
C674 C676 1.388 . S
C675 C674 1.366 . S
C675 C679 1.385 . S
C676 H657 0.951 . S
C676 C674 1.388 . S
C676 C677 1.366 . S
C677 C676 1.366 . S
C677 C678 1.414 . S
C677 C680 1.499 . S
C678 H658 0.950 . S
C678 C677 1.414 . S
C678 C679 1.374 . S
C679 H659 0.950 . S
C679 C675 1.385 . S
C679 C678 1.374 . S
C680 C677 1.499 . S
C680 C681 1.373 . S
C680 C682 1.389 . S
C681 H660 0.950 . S
C681 C680 1.373 . S
C681 C697 1.377 . S
C682 C680 1.389 . S
C682 C683 1.524 . S
C682 C696 1.377 . S
C683 C682 1.524 . S
C683 C684 1.397 . S
C683 C688 1.363 . S
C684 H661 0.950 . S
C684 C683 1.397 . S
C684 C685 1.334 . S
C685 H662 0.950 . S
C685 C684 1.334 . S
C685 C686 1.287 . S
C686 C685 1.287 . S
C686 C687 1.524 . S
C686 H705 0.913 1_565 S
C687 H663 0.950 . S
C687 C686 1.524 . S
C687 C688 1.415 . S
C688 H664 0.950 . S
C688 C683 1.363 . S
C688 C687 1.415 . S
C689 H665 0.951 . S
C689 C690 1.366 . S
C689 C691 1.388 . S
C690 C689 1.366 . S
C690 C694 1.385 . S
C691 H666 0.951 . S
C691 C689 1.388 . S
C691 C692 1.366 . S
C692 C691 1.366 . S
C692 C693 1.414 . S
C692 C695 1.499 . S
C693 H667 0.950 . S
C693 C692 1.414 . S
C693 C694 1.374 . S
C694 H668 0.950 . S
C694 C690 1.385 . S
C694 C693 1.374 . S
C695 C692 1.499 . S
C695 C696 1.373 . S
C695 C697 1.389 . S
C696 H669 0.950 . S
C696 C682 1.377 . S
C696 C695 1.373 . S
C697 C681 1.377 . S
C697 C695 1.389 . S
C697 C698 1.524 . S
C698 C697 1.524 . S
C698 C699 1.397 . S
C698 C703 1.363 . S
C699 H670 0.950 . S
C699 C698 1.397 . S
C699 C700 1.334 . S
C700 H671 0.950 . S
C700 C699 1.334 . S
C700 C701 1.287 . S
C701 C700 1.287 . S
C701 C702 1.524 . S
C701 H704 0.999 . S
C702 H672 0.950 . S
C702 C701 1.524 . S
C702 C703 1.415 . S
C703 H673 0.950 . S
C703 C698 1.363 . S
C703 C702 1.415 . S
H704 C701 0.999 . S
H705 C686 0.913 1_545 S
H706 C724 0.951 . S
H707 C726 0.951 . S
H708 C728 0.950 . S
H709 C729 0.950 . S
H710 C731 0.950 . S
H711 C734 0.950 . S
H712 C735 0.950 . S
H713 C737 0.950 . S
H714 C738 0.950 . S
H715 C739 0.951 . S
H716 C741 0.951 . S
H717 C743 0.950 . S
H718 C744 0.950 . S
H719 C746 0.950 . S
H720 C749 0.950 . S
H721 C750 0.950 . S
H722 C752 0.950 . S
H723 C753 0.950 . S
C724 H706 0.951 . S
C724 C725 1.366 . S
C724 C726 1.388 . S
C725 C724 1.366 . S
C725 C729 1.385 . S
C726 H707 0.951 . S
C726 C724 1.388 . S
C726 C727 1.366 . S
C727 C726 1.366 . S
C727 C728 1.414 . S
C727 C730 1.499 . S
C728 H708 0.950 . S
C728 C727 1.414 . S
C728 C729 1.374 . S
C729 H709 0.950 . S
C729 C725 1.385 . S
C729 C728 1.374 . S
C730 C727 1.499 . S
C730 C731 1.373 . S
C730 C732 1.389 . S
C731 H710 0.950 . S
C731 C730 1.373 . S
C731 C747 1.377 . S
C732 C730 1.389 . S
C732 C733 1.524 . S
C732 C746 1.377 . S
C733 C732 1.524 . S
C733 C734 1.397 . S
C733 C738 1.363 . S
C734 H711 0.950 . S
C734 C733 1.397 . S
C734 C735 1.334 . S
C735 H712 0.950 . S
C735 C734 1.334 . S
C735 C736 1.287 . S
C736 C735 1.287 . S
C736 C737 1.524 . S
C736 H755 0.913 . S
C737 H713 0.950 . S
C737 C736 1.524 . S
C737 C738 1.415 . S
C738 H714 0.950 . S
C738 C733 1.363 . S
C738 C737 1.415 . S
C739 H715 0.951 . S
C739 C740 1.366 . S
C739 C741 1.388 . S
C740 C739 1.366 . S
C740 C744 1.385 . S
C741 H716 0.951 . S
C741 C739 1.388 . S
C741 C742 1.366 . S
C742 C741 1.366 . S
C742 C743 1.414 . S
C742 C745 1.499 . S
C743 H717 0.950 . S
C743 C742 1.414 . S
C743 C744 1.374 . S
C744 H718 0.950 . S
C744 C740 1.385 . S
C744 C743 1.374 . S
C745 C742 1.499 . S
C745 C746 1.373 . S
C745 C747 1.389 . S
C746 H719 0.950 . S
C746 C732 1.377 . S
C746 C745 1.373 . S
C747 C731 1.377 . S
C747 C745 1.389 . S
C747 C748 1.524 . S
C748 C747 1.524 . S
C748 C749 1.397 . S
C748 C753 1.363 . S
C749 H720 0.950 . S
C749 C748 1.397 . S
C749 C750 1.334 . S
C750 H721 0.950 . S
C750 C749 1.334 . S
C750 C751 1.287 . S
C751 C750 1.287 . S
C751 C752 1.524 . S
C751 H754 0.999 . S
C752 H722 0.950 . S
C752 C751 1.524 . S
C752 C753 1.415 . S
C753 H723 0.950 . S
C753 C748 1.363 . S
C753 C752 1.415 . S
H754 C751 0.999 . S
H755 C736 0.913 . S
H756 C774 0.951 . S
H757 C776 0.951 . S
H758 C778 0.950 . S
H759 C779 0.950 . S
H760 C781 0.950 . S
H761 C784 0.950 . S
H762 C785 0.950 . S
H763 C787 0.950 . S
H764 C788 0.950 . S
H765 C789 0.951 . S
H766 C791 0.951 . S
H767 C793 0.950 . S
H768 C794 0.950 . S
H769 C796 0.950 . S
H770 C799 0.950 . S
H771 C800 0.950 . S
H772 C802 0.950 . S
H773 C803 0.950 . S
C774 H756 0.951 . S
C774 C775 1.366 . S
C774 C776 1.388 . S
C775 C774 1.366 . S
C775 C779 1.385 . S
C776 H757 0.951 . S
C776 C774 1.388 . S
C776 C777 1.366 . S
C777 C776 1.366 . S
C777 C778 1.414 . S
C777 C780 1.499 . S
C778 H758 0.950 . S
C778 C777 1.414 . S
C778 C779 1.374 . S
C779 H759 0.950 . S
C779 C775 1.385 . S
C779 C778 1.374 . S
C780 C777 1.499 . S
C780 C781 1.373 . S
C780 C782 1.389 . S
C781 H760 0.950 . S
C781 C780 1.373 . S
C781 C797 1.377 . S
C782 C780 1.389 . S
C782 C783 1.524 . S
C782 C796 1.377 . S
C783 C782 1.524 . S
C783 C784 1.397 . S
C783 C788 1.363 . S
C784 H761 0.950 . S
C784 C783 1.397 . S
C784 C785 1.334 . S
C785 H762 0.950 . S
C785 C784 1.334 . S
C785 C786 1.287 . S
C786 C785 1.287 . S
C786 C787 1.524 . S
C786 H805 0.913 . S
C787 H763 0.950 . S
C787 C786 1.524 . S
C787 C788 1.415 . S
C788 H764 0.950 . S
C788 C783 1.363 . S
C788 C787 1.415 . S
C789 H765 0.951 . S
C789 C790 1.366 . S
C789 C791 1.388 . S
C790 C789 1.366 . S
C790 C794 1.385 . S
C791 H766 0.951 . S
C791 C789 1.388 . S
C791 C792 1.366 . S
C792 C791 1.366 . S
C792 C793 1.414 . S
C792 C795 1.499 . S
C793 H767 0.950 . S
C793 C792 1.414 . S
C793 C794 1.374 . S
C794 H768 0.950 . S
C794 C790 1.385 . S
C794 C793 1.374 . S
C795 C792 1.499 . S
C795 C796 1.373 . S
C795 C797 1.389 . S
C796 H769 0.950 . S
C796 C782 1.377 . S
C796 C795 1.373 . S
C797 C781 1.377 . S
C797 C795 1.389 . S
C797 C798 1.524 . S
C798 C797 1.524 . S
C798 C799 1.397 . S
C798 C803 1.363 . S
C799 H770 0.950 . S
C799 C798 1.397 . S
C799 C800 1.334 . S
C800 H771 0.950 . S
C800 C799 1.334 . S
C800 C801 1.287 . S
C801 C800 1.287 . S
C801 C802 1.524 . S
C801 H804 0.999 . S
C802 H772 0.950 . S
C802 C801 1.524 . S
C802 C803 1.415 . S
C803 H773 0.950 . S
C803 C798 1.363 . S
C803 C802 1.415 . S
H804 C801 0.999 . S
H805 C786 0.913 . S
H806 C824 0.951 . S
H807 C826 0.951 . S
H808 C828 0.950 . S
H809 C829 0.950 . S
H810 C831 0.950 . S
H811 C834 0.950 . S
H812 C835 0.950 . S
H813 C837 0.950 . S
H814 C838 0.950 . S
H815 C839 0.951 1_556 S
H816 C841 0.951 . S
H817 C843 0.950 . S
H818 C844 0.950 . S
H819 C846 0.950 . S
H820 C849 0.914 1_554 S
H821 C850 0.950 . S
H822 C852 0.950 . S
H823 C853 0.950 . S
C824 H806 0.951 . S
C824 C825 1.366 . S
C824 C826 1.388 . S
C825 C824 1.366 . S
C825 C829 1.385 . S
C826 H807 0.951 . S
C826 C824 1.388 . S
C826 C827 1.366 . S
C827 C826 1.366 . S
C827 C828 1.414 . S
C827 C830 1.499 . S
C828 H808 0.950 . S
C828 C827 1.414 . S
C828 C829 1.374 . S
C829 H809 0.950 . S
C829 C825 1.385 . S
C829 C828 1.374 . S
C830 C827 1.499 . S
C830 C831 1.373 . S
C830 C832 1.389 . S
C831 H810 0.950 . S
C831 C830 1.373 . S
C831 C847 1.377 . S
C832 C830 1.389 . S
C832 C833 1.524 . S
C832 C846 1.377 . S
C833 C832 1.524 . S
C833 C834 1.397 . S
C833 C838 1.363 . S
C834 H811 0.950 . S
C834 C833 1.397 . S
C834 C835 1.334 . S
C835 H812 0.950 . S
C835 C834 1.334 . S
C835 C836 1.287 . S
C836 C835 1.287 . S
C836 C837 1.524 . S
C836 H855 0.913 . S
C837 H813 0.950 . S
C837 C836 1.524 . S
C837 C838 1.415 . S
C838 H814 0.950 . S
C838 C833 1.363 . S
C838 C837 1.415 . S
C839 H815 0.951 1_554 S
C839 C840 1.366 . S
C839 C841 1.388 . S
C840 C839 1.366 . S
C840 C844 1.385 . S
C841 H816 0.951 . S
C841 C839 1.388 . S
C841 C842 1.366 . S
C842 C841 1.366 . S
C842 C843 1.414 . S
C842 C845 1.499 . S
C843 H817 0.950 . S
C843 C842 1.414 . S
C843 C844 1.374 . S
C844 H818 0.950 . S
C844 C840 1.385 . S
C844 C843 1.374 . S
C845 C842 1.499 . S
C845 C846 1.373 . S
C845 C847 1.389 . S
C846 H819 0.950 . S
C846 C832 1.377 . S
C846 C845 1.373 . S
C847 C831 1.377 . S
C847 C845 1.389 . S
C847 C848 1.524 1_554 S
C848 C847 1.524 1_556 S
C848 C849 1.397 . S
C848 C853 1.363 . S
C849 H820 0.914 1_556 S
C849 C848 1.397 . S
C849 C850 1.334 . S
C850 H821 0.950 . S
C850 C849 1.334 . S
C850 C851 1.287 . S
C851 C850 1.287 . S
C851 C852 1.524 . S
C851 H854 0.999 . S
C852 H822 0.950 . S
C852 C851 1.524 . S
C852 C853 1.415 . S
C853 H823 0.950 . S
C853 C848 1.363 . S
C853 C852 1.415 . S
H854 C851 0.999 . S
H855 C836 0.913 . S
H856 C874 0.951 . S
H857 C876 0.951 . S
H858 C878 0.950 . S
H859 C879 0.950 . S
H860 C881 0.950 . S
H861 C884 0.950 . S
H862 C885 0.950 . S
H863 C887 0.950 . S
H864 C888 0.950 . S
H865 C889 0.951 . S
H866 C891 0.951 . S
H867 C893 0.942 1_554 S
H868 C894 0.905 1_554 S
H869 C896 0.950 . S
H870 C899 0.950 1_554 S
H871 C900 0.950 . S
H872 C902 0.950 . S
H873 C903 0.950 . S
C874 H856 0.951 . S
C874 C875 1.366 . S
C874 C876 1.388 . S
C875 C874 1.366 . S
C875 C879 1.385 . S
C876 H857 0.951 . S
C876 C874 1.388 . S
C876 C877 1.366 . S
C877 C876 1.366 . S
C877 C878 1.414 . S
C877 C880 1.499 . S
C878 H858 0.950 . S
C878 C877 1.414 . S
C878 C879 1.374 . S
C879 H859 0.950 . S
C879 C875 1.385 . S
C879 C878 1.374 . S
C880 C877 1.499 . S
C880 C881 1.373 . S
C880 C882 1.389 . S
C881 H860 0.950 . S
C881 C880 1.373 . S
C881 C897 1.377 . S
C882 C880 1.389 . S
C882 C883 1.524 . S
C882 C896 1.377 . S
C883 C882 1.524 . S
C883 C884 1.397 . S
C883 C888 1.363 . S
C884 H861 0.950 . S
C884 C883 1.397 . S
C884 C885 1.334 . S
C885 H862 0.950 . S
C885 C884 1.334 . S
C885 C886 1.287 . S
C886 C885 1.287 . S
C886 C887 1.524 . S
C886 H905 0.913 . S
C887 H863 0.950 . S
C887 C886 1.524 . S
C887 C888 1.415 . S
C888 H864 0.950 . S
C888 C883 1.363 . S
C888 C887 1.415 . S
C889 H865 0.951 . S
C889 C890 1.366 . S
C889 C891 1.388 . S
C890 C889 1.366 . S
C890 C894 1.417 . S
C891 H866 0.951 . S
C891 C889 1.388 . S
C891 C892 1.366 . S
C892 C891 1.366 . S
C892 C893 1.414 . S
C892 C895 1.499 . S
C893 H867 0.942 1_556 S
C893 C892 1.414 . S
C893 C894 1.390 . S
C894 H868 0.905 1_556 S
C894 C890 1.417 . S
C894 C893 1.390 . S
C895 C892 1.499 . S
C895 C896 1.373 . S
C895 C897 1.389 . S
C896 H869 0.950 . S
C896 C882 1.377 . S
C896 C895 1.373 . S
C897 C881 1.377 . S
C897 C895 1.389 . S
C897 C898 1.524 . S
C898 C897 1.524 . S
C898 C899 1.397 . S
C898 C903 1.363 . S
C899 H870 0.950 1_556 S
C899 C898 1.397 . S
C899 C900 1.334 1_556 S
C900 H871 0.950 . S
C900 C899 1.334 1_554 S
C900 C901 1.287 1_554 S
C901 C900 1.287 1_556 S
C901 C902 1.524 . S
C901 H904 0.999 . S
C902 H872 0.950 . S
C902 C901 1.524 . S
C902 C903 1.415 . S
C903 H873 0.950 . S
C903 C898 1.363 . S
C903 C902 1.415 . S
H904 C901 0.999 . S
H905 C886 0.913 . S
H906 C924 0.951 . S
H907 C926 0.951 . S
H908 C928 0.950 . S
H909 C929 0.950 . S
H910 C931 0.950 . S
H911 C934 0.950 . S
H912 C935 0.950 . S
H913 C937 0.950 . S
H914 C938 0.950 . S
H915 C939 0.951 . S
H916 C941 0.951 . S
H917 C943 0.950 . S
H918 C944 0.950 . S
H919 C946 0.950 . S
H920 C949 0.950 . S
H921 C950 0.950 . S
H922 C952 0.950 . S
H923 C953 0.950 . S
C924 H906 0.951 . S
C924 C925 1.366 . S
C924 C926 1.388 . S
C925 C924 1.366 . S
C925 C929 1.385 . S
C926 H907 0.951 . S
C926 C924 1.388 . S
C926 C927 1.366 . S
C927 C926 1.366 . S
C927 C928 1.414 . S
C927 C930 1.499 . S
C928 H908 0.950 . S
C928 C927 1.414 . S
C928 C929 1.374 . S
C929 H909 0.950 . S
C929 C925 1.385 . S
C929 C928 1.374 . S
C930 C927 1.499 . S
C930 C931 1.373 . S
C930 C932 1.389 . S
C931 H910 0.950 . S
C931 C930 1.373 . S
C931 C947 1.377 . S
C932 C930 1.389 . S
C932 C933 1.524 . S
C932 C946 1.377 . S
C933 C932 1.524 . S
C933 C934 1.397 . S
C933 C938 1.363 . S
C934 H911 0.950 . S
C934 C933 1.397 . S
C934 C935 1.334 . S
C935 H912 0.950 . S
C935 C934 1.334 . S
C935 C936 1.287 . S
C936 C935 1.287 . S
C936 C937 1.524 . S
C936 H955 0.913 . S
C937 H913 0.950 . S
C937 C936 1.524 . S
C937 C938 1.415 . S
C938 H914 0.950 . S
C938 C933 1.363 . S
C938 C937 1.415 . S
C939 H915 0.951 . S
C939 C940 1.366 . S
C939 C941 1.388 . S
C940 C939 1.366 . S
C940 C944 1.385 . S
C941 H916 0.951 . S
C941 C939 1.388 . S
C941 C942 1.366 . S
C942 C941 1.366 . S
C942 C943 1.414 . S
C942 C945 1.499 . S
C943 H917 0.950 . S
C943 C942 1.414 . S
C943 C944 1.374 . S
C944 H918 0.950 . S
C944 C940 1.385 . S
C944 C943 1.374 . S
C945 C942 1.499 . S
C945 C946 1.373 . S
C945 C947 1.389 . S
C946 H919 0.950 . S
C946 C932 1.377 . S
C946 C945 1.373 . S
C947 C931 1.377 . S
C947 C945 1.389 . S
C947 C948 1.524 . S
C948 C947 1.524 . S
C948 C949 1.397 . S
C948 C953 1.363 . S
C949 H920 0.950 . S
C949 C948 1.397 . S
C949 C950 1.334 . S
C950 H921 0.950 . S
C950 C949 1.334 . S
C950 C951 1.287 . S
C951 C950 1.287 . S
C951 C952 1.524 . S
C951 H954 0.999 . S
C952 H922 0.950 . S
C952 C951 1.524 . S
C952 C953 1.415 . S
C953 H923 0.950 . S
C953 C948 1.363 . S
C953 C952 1.415 . S
H954 C951 0.999 . S
H955 C936 0.913 . S
H956 C974 0.951 . S
H957 C976 0.951 . S
H958 C978 0.950 . S
H959 C979 0.950 . S
H960 C981 0.950 . S
H961 C984 0.950 . S
H962 C985 0.950 . S
H963 C987 0.950 . S
H964 C988 0.950 . S
H965 C989 0.951 . S
H966 C991 0.951 . S
H967 C993 0.950 . S
H968 C994 0.950 . S
H969 C996 0.950 . S
H970 C999 0.950 . S
H971 C1000 0.950 . S
H972 C1002 0.950 . S
H973 C1003 0.950 . S
C974 H956 0.951 . S
C974 C975 1.366 . S
C974 C976 1.388 . S
C975 C974 1.366 . S
C975 C979 1.385 . S
C976 H957 0.951 . S
C976 C974 1.388 . S
C976 C977 1.366 . S
C977 C976 1.366 . S
C977 C978 1.414 . S
C977 C980 1.499 . S
C978 H958 0.950 . S
C978 C977 1.414 . S
C978 C979 1.374 . S
C979 H959 0.950 . S
C979 C975 1.385 . S
C979 C978 1.374 . S
C980 C977 1.499 . S
C980 C981 1.373 . S
C980 C982 1.389 . S
C981 H960 0.950 . S
C981 C980 1.373 . S
C981 C997 1.377 . S
C982 C980 1.389 . S
C982 C983 1.524 . S
C982 C996 1.377 . S
C983 C982 1.524 . S
C983 C984 1.397 . S
C983 C988 1.363 . S
C984 H961 0.950 . S
C984 C983 1.397 . S
C984 C985 1.334 . S
C985 H962 0.950 . S
C985 C984 1.334 . S
C985 C986 1.287 . S
C986 C985 1.287 . S
C986 C987 1.524 . S
C986 H1005 0.913 . S
C987 H963 0.950 . S
C987 C986 1.524 . S
C987 C988 1.415 . S
C988 H964 0.950 . S
C988 C983 1.363 . S
C988 C987 1.415 . S
C989 H965 0.951 . S
C989 C990 1.366 . S
C989 C991 1.388 . S
C990 C989 1.366 . S
C990 C994 1.385 . S
C991 H966 0.951 . S
C991 C989 1.388 . S
C991 C992 1.366 . S
C992 C991 1.366 . S
C992 C993 1.414 . S
C992 C995 1.499 . S
C993 H967 0.950 . S
C993 C992 1.414 . S
C993 C994 1.374 . S
C994 H968 0.950 . S
C994 C990 1.385 . S
C994 C993 1.374 . S
C995 C992 1.499 . S
C995 C996 1.373 . S
C995 C997 1.389 . S
C996 H969 0.950 . S
C996 C982 1.377 . S
C996 C995 1.373 . S
C997 C981 1.377 . S
C997 C995 1.389 . S
C997 C998 1.524 . S
C998 C997 1.524 . S
C998 C999 1.397 . S
C998 C1003 1.363 . S
C999 H970 0.950 . S
C999 C998 1.397 . S
C999 C1000 1.334 . S
C1000 H971 0.950 . S
C1000 C999 1.334 . S
C1000 C1001 1.287 . S
C1001 C1000 1.287 . S
C1001 C1002 1.524 . S
C1001 H1004 0.999 . S
C1002 H972 0.950 . S
C1002 C1001 1.524 . S
C1002 C1003 1.415 . S
C1003 H973 0.950 . S
C1003 C998 1.363 . S
C1003 C1002 1.415 . S
H1004 C1001 0.999 . S
H1005 C986 0.913 . S
H1006 C1024 0.951 . S
H1007 C1026 0.951 . S
H1008 C1028 0.950 . S
H1009 C1029 0.950 . S
H1010 C1031 0.950 . S
H1011 C1034 0.950 . S
H1012 C1035 0.950 . S
H1013 C1037 0.950 . S
H1014 C1038 0.950 . S
H1015 C1039 0.951 . S
H1016 C1041 0.951 . S
H1017 C1043 0.950 . S
H1018 C1044 0.950 . S
H1019 C1046 0.950 . S
H1020 C1049 0.950 . S
H1021 C1050 0.950 . S
H1022 C1052 0.950 . S
H1023 C1053 0.950 . S
C1024 H1006 0.951 . S
C1024 C1025 1.366 . S
C1024 C1026 1.388 . S
C1025 C1024 1.366 . S
C1025 C1029 1.385 . S
C1026 H1007 0.951 . S
C1026 C1024 1.388 . S
C1026 C1027 1.366 . S
C1027 C1026 1.366 . S
C1027 C1028 1.414 . S
C1027 C1030 1.499 . S
C1028 H1008 0.950 . S
C1028 C1027 1.414 . S
C1028 C1029 1.374 . S
C1029 H1009 0.950 . S
C1029 C1025 1.385 . S
C1029 C1028 1.374 . S
C1030 C1027 1.499 . S
C1030 C1031 1.373 . S
C1030 C1032 1.389 . S
C1031 H1010 0.950 . S
C1031 C1030 1.373 . S
C1031 C1047 1.377 . S
C1032 C1030 1.389 . S
C1032 C1033 1.524 . S
C1032 C1046 1.377 . S
C1033 C1032 1.524 . S
C1033 C1034 1.397 . S
C1033 C1038 1.363 . S
C1034 H1011 0.950 . S
C1034 C1033 1.397 . S
C1034 C1035 1.334 . S
C1035 H1012 0.950 . S
C1035 C1034 1.334 . S
C1035 C1036 1.287 . S
C1036 C1035 1.287 . S
C1036 C1037 1.524 . S
C1036 H1055 0.913 . S
C1037 H1013 0.950 . S
C1037 C1036 1.524 . S
C1037 C1038 1.415 . S
C1038 H1014 0.950 . S
C1038 C1033 1.363 . S
C1038 C1037 1.415 . S
C1039 H1015 0.951 . S
C1039 C1040 1.366 . S
C1039 C1041 1.388 . S
C1040 C1039 1.366 . S
C1040 C1044 1.385 . S
C1041 H1016 0.951 . S
C1041 C1039 1.388 . S
C1041 C1042 1.366 . S
C1042 C1041 1.366 . S
C1042 C1043 1.414 . S
C1042 C1045 1.499 . S
C1043 H1017 0.950 . S
C1043 C1042 1.414 . S
C1043 C1044 1.374 . S
C1044 H1018 0.950 . S
C1044 C1040 1.385 . S
C1044 C1043 1.374 . S
C1045 C1042 1.499 . S
C1045 C1046 1.373 . S
C1045 C1047 1.389 . S
C1046 H1019 0.950 . S
C1046 C1032 1.377 . S
C1046 C1045 1.373 . S
C1047 C1031 1.377 . S
C1047 C1045 1.389 . S
C1047 C1048 1.524 . S
C1048 C1047 1.524 . S
C1048 C1049 1.397 . S
C1048 C1053 1.363 . S
C1049 H1020 0.950 . S
C1049 C1048 1.397 . S
C1049 C1050 1.334 . S
C1050 H1021 0.950 . S
C1050 C1049 1.334 . S
C1050 C1051 1.287 . S
C1051 C1050 1.287 . S
C1051 C1052 1.524 . S
C1051 H1054 0.999 . S
C1052 H1022 0.950 . S
C1052 C1051 1.524 . S
C1052 C1053 1.415 . S
C1053 H1023 0.950 . S
C1053 C1048 1.363 . S
C1053 C1052 1.415 . S
H1054 C1051 0.999 . S
H1055 C1036 0.913 . S
H1056 C1074 0.951 . S
H1057 C1076 0.951 . S
H1058 C1078 0.950 . S
H1059 C1079 0.950 . S
H1060 C1081 0.950 . S
H1061 C1084 0.950 . S
H1062 C1085 0.950 . S
H1063 C1087 0.950 . S
H1064 C1088 0.950 . S
H1065 C1089 0.951 . S
H1066 C1091 0.951 . S
H1067 C1093 0.950 . S
H1068 C1094 0.950 . S
H1069 C1096 0.950 . S
H1070 C1099 0.950 . S
H1071 C1100 0.950 . S
H1072 C1102 0.950 . S
H1073 C1103 0.950 . S
C1074 H1056 0.951 . S
C1074 C1075 1.366 . S
C1074 C1076 1.388 . S
C1075 C1074 1.366 . S
C1075 C1079 1.385 . S
C1076 H1057 0.951 . S
C1076 C1074 1.388 . S
C1076 C1077 1.366 . S
C1077 C1076 1.366 . S
C1077 C1078 1.414 . S
C1077 C1080 1.499 . S
C1078 H1058 0.950 . S
C1078 C1077 1.414 . S
C1078 C1079 1.374 . S
C1079 H1059 0.950 . S
C1079 C1075 1.385 . S
C1079 C1078 1.374 . S
C1080 C1077 1.499 . S
C1080 C1081 1.373 . S
C1080 C1082 1.389 . S
C1081 H1060 0.950 . S
C1081 C1080 1.373 . S
C1081 C1097 1.377 . S
C1082 C1080 1.389 . S
C1082 C1083 1.524 . S
C1082 C1096 1.377 . S
C1083 C1082 1.524 . S
C1083 C1084 1.397 . S
C1083 C1088 1.363 . S
C1084 H1061 0.950 . S
C1084 C1083 1.397 . S
C1084 C1085 1.334 . S
C1085 H1062 0.950 . S
C1085 C1084 1.334 . S
C1085 C1086 1.287 . S
C1086 C1085 1.287 . S
C1086 C1087 1.524 . S
C1086 H1105 0.913 . S
C1087 H1063 0.950 . S
C1087 C1086 1.524 . S
C1087 C1088 1.415 . S
C1088 H1064 0.950 . S
C1088 C1083 1.363 . S
C1088 C1087 1.415 . S
C1089 H1065 0.951 . S
C1089 C1090 1.366 . S
C1089 C1091 1.388 . S
C1090 C1089 1.366 . S
C1090 C1094 1.385 . S
C1091 H1066 0.951 . S
C1091 C1089 1.388 . S
C1091 C1092 1.366 . S
C1092 C1091 1.366 . S
C1092 C1093 1.414 . S
C1092 C1095 1.499 . S
C1093 H1067 0.950 . S
C1093 C1092 1.414 . S
C1093 C1094 1.374 . S
C1094 H1068 0.950 . S
C1094 C1090 1.385 . S
C1094 C1093 1.374 . S
C1095 C1092 1.499 . S
C1095 C1096 1.373 . S
C1095 C1097 1.389 . S
C1096 H1069 0.950 . S
C1096 C1082 1.377 . S
C1096 C1095 1.373 . S
C1097 C1081 1.377 . S
C1097 C1095 1.389 . S
C1097 C1098 1.524 . S
C1098 C1097 1.524 . S
C1098 C1099 1.397 . S
C1098 C1103 1.363 . S
C1099 H1070 0.950 . S
C1099 C1098 1.397 . S
C1099 C1100 1.334 . S
C1100 H1071 0.950 . S
C1100 C1099 1.334 . S
C1100 C1101 1.287 . S
C1101 C1100 1.287 . S
C1101 C1102 1.524 . S
C1101 H1104 0.999 . S
C1102 H1072 0.950 . S
C1102 C1101 1.524 . S
C1102 C1103 1.415 . S
C1103 H1073 0.950 . S
C1103 C1098 1.363 . S
C1103 C1102 1.415 . S
H1104 C1101 0.999 . S
H1105 C1086 0.913 . S
H1106 C1124 0.951 . S
H1107 C1126 0.951 . S
H1108 C1128 0.950 . S
H1109 C1129 0.950 . S
H1110 C1131 0.950 . S
H1111 C1134 0.950 . S
H1112 C1135 0.950 . S
H1113 C1137 0.950 . S
H1114 C1138 0.950 . S
H1115 C1139 0.951 . S
H1116 C1141 0.951 . S
H1117 C1143 0.950 . S
H1118 C1144 0.950 1_556 S
H1119 C1146 0.950 . S
H1120 C1149 0.950 . S
H1121 C1150 0.950 . S
H1122 C1152 0.950 . S
H1123 C1153 0.950 . S
C1124 H1106 0.951 . S
C1124 C1125 1.366 . S
C1124 C1126 1.388 . S
C1125 C1124 1.366 . S
C1125 C1129 1.385 . S
C1126 H1107 0.951 . S
C1126 C1124 1.388 . S
C1126 C1127 1.366 . S
C1127 C1126 1.366 . S
C1127 C1128 1.414 . S
C1127 C1130 1.499 . S
C1128 H1108 0.950 . S
C1128 C1127 1.414 . S
C1128 C1129 1.374 . S
C1129 H1109 0.950 . S
C1129 C1125 1.385 . S
C1129 C1128 1.374 . S
C1130 C1127 1.499 . S
C1130 C1131 1.373 . S
C1130 C1132 1.389 . S
C1131 H1110 0.950 . S
C1131 C1130 1.373 . S
C1131 C1147 1.377 . S
C1132 C1130 1.389 . S
C1132 C1133 1.524 . S
C1132 C1146 1.377 . S
C1133 C1132 1.524 . S
C1133 C1134 1.397 . S
C1133 C1138 1.363 1_554 S
C1134 H1111 0.950 . S
C1134 C1133 1.397 . S
C1134 C1135 1.334 1_554 S
C1135 H1112 0.950 . S
C1135 C1134 1.334 1_556 S
C1135 C1136 1.287 . S
C1136 C1135 1.287 . S
C1136 C1137 1.524 . S
C1136 H1155 0.913 . S
C1137 H1113 0.950 . S
C1137 C1136 1.524 . S
C1137 C1138 1.415 . S
C1138 H1114 0.950 . S
C1138 C1133 1.363 1_556 S
C1138 C1137 1.415 . S
C1139 H1115 0.951 . S
C1139 C1140 1.366 . S
C1139 C1141 1.388 . S
C1140 C1139 1.366 . S
C1140 C1144 1.385 . S
C1141 H1116 0.951 . S
C1141 C1139 1.388 . S
C1141 C1142 1.366 . S
C1142 C1141 1.366 . S
C1142 C1143 1.414 . S
C1142 C1145 1.499 . S
C1143 H1117 0.950 . S
C1143 C1142 1.414 . S
C1143 C1144 1.374 . S
C1144 H1118 0.950 1_554 S
C1144 C1140 1.385 . S
C1144 C1143 1.374 . S
C1145 C1142 1.499 . S
C1145 C1146 1.373 . S
C1145 C1147 1.389 . S
C1146 H1119 0.950 . S
C1146 C1132 1.377 . S
C1146 C1145 1.373 . S
C1147 C1131 1.377 . S
C1147 C1145 1.389 . S
C1147 C1148 1.524 . S
C1148 C1147 1.524 . S
C1148 C1149 1.397 . S
C1148 C1153 1.363 . S
C1149 H1120 0.950 . S
C1149 C1148 1.397 . S
C1149 C1150 1.334 . S
C1150 H1121 0.950 . S
C1150 C1149 1.334 . S
C1150 C1151 1.287 . S
C1151 C1150 1.287 . S
C1151 C1152 1.524 . S
C1151 H1154 0.999 . S
C1152 H1122 0.950 . S
C1152 C1151 1.524 . S
C1152 C1153 1.415 . S
C1153 H1123 0.950 . S
C1153 C1148 1.363 . S
C1153 C1152 1.415 . S
H1154 C1151 0.999 . S
H1155 C1136 0.913 . S
H1156 C1174 0.951 . S
H1157 C1176 0.951 . S
H1158 C1178 0.950 . S
H1159 C1179 0.950 . S
H1160 C1181 0.950 . S
H1161 C1184 0.950 . S
H1162 C1185 0.950 . S
H1163 C1187 0.950 . S
H1164 C1188 0.950 . S
H1165 C1189 0.951 . S
H1166 C1191 0.951 . S
H1167 C1193 0.950 . S
H1168 C1194 0.950 . S
H1169 C1196 0.950 . S
H1170 C1199 0.950 . S
H1171 C1200 0.950 . S
H1172 C1202 0.950 . S
H1173 C1203 0.950 . S
C1174 H1156 0.951 . S
C1174 C1175 1.366 . S
C1174 C1176 1.388 . S
C1175 C1174 1.366 . S
C1175 C1179 1.385 . S
C1176 H1157 0.951 . S
C1176 C1174 1.388 . S
C1176 C1177 1.366 . S
C1177 C1176 1.366 . S
C1177 C1178 1.414 . S
C1177 C1180 1.499 . S
C1178 H1158 0.950 . S
C1178 C1177 1.414 . S
C1178 C1179 1.374 . S
C1179 H1159 0.950 . S
C1179 C1175 1.385 . S
C1179 C1178 1.374 . S
C1180 C1177 1.499 . S
C1180 C1181 1.373 . S
C1180 C1182 1.389 . S
C1181 H1160 0.950 . S
C1181 C1180 1.373 . S
C1181 C1197 1.377 . S
C1182 C1180 1.389 . S
C1182 C1183 1.524 . S
C1182 C1196 1.377 . S
C1183 C1182 1.524 . S
C1183 C1184 1.397 . S
C1183 C1188 1.363 . S
C1184 H1161 0.950 . S
C1184 C1183 1.397 . S
C1184 C1185 1.334 . S
C1185 H1162 0.950 . S
C1185 C1184 1.334 . S
C1185 C1186 1.287 . S
C1186 C1185 1.287 . S
C1186 C1187 1.524 . S
C1186 H1205 0.913 . S
C1187 H1163 0.950 . S
C1187 C1186 1.524 . S
C1187 C1188 1.415 . S
C1188 H1164 0.950 . S
C1188 C1183 1.363 . S
C1188 C1187 1.415 . S
C1189 H1165 0.951 . S
C1189 C1190 1.366 . S
C1189 C1191 1.388 . S
C1190 C1189 1.366 . S
C1190 C1194 1.385 . S
C1191 H1166 0.951 . S
C1191 C1189 1.388 . S
C1191 C1192 1.366 . S
C1192 C1191 1.366 . S
C1192 C1193 1.414 . S
C1192 C1195 1.499 . S
C1193 H1167 0.950 . S
C1193 C1192 1.414 . S
C1193 C1194 1.374 . S
C1194 H1168 0.950 . S
C1194 C1190 1.385 . S
C1194 C1193 1.374 . S
C1195 C1192 1.499 . S
C1195 C1196 1.373 . S
C1195 C1197 1.389 . S
C1196 H1169 0.950 . S
C1196 C1182 1.377 . S
C1196 C1195 1.373 . S
C1197 C1181 1.377 . S
C1197 C1195 1.389 . S
C1197 C1198 1.524 . S
C1198 C1197 1.524 . S
C1198 C1199 1.397 . S
C1198 C1203 1.363 . S
C1199 H1170 0.950 . S
C1199 C1198 1.397 . S
C1199 C1200 1.334 . S
C1200 H1171 0.950 . S
C1200 C1199 1.334 . S
C1200 C1201 1.287 . S
C1201 C1200 1.287 . S
C1201 C1202 1.524 . S
C1201 H1204 0.999 . S
C1202 H1172 0.950 . S
C1202 C1201 1.524 . S
C1202 C1203 1.415 . S
C1203 H1173 0.950 . S
C1203 C1198 1.363 . S
C1203 C1202 1.415 . S
H1204 C1201 0.999 . S
H1205 C1186 0.913 . S
H1206 C1224 0.951 . S
H1207 C1226 0.951 . S
H1208 C1228 0.950 . S
H1209 C1229 0.950 . S
H1210 C1231 0.950 . S
H1211 C1234 0.950 . S
H1212 C1235 0.950 . S
H1213 C1237 0.950 . S
H1214 C1238 0.950 . S
H1215 C1239 0.951 . S
H1216 C1241 0.951 . S
H1217 C1243 0.950 . S
H1218 C1244 0.950 . S
H1219 C1246 0.950 . S
H1220 C1249 0.950 . S
H1221 C1250 0.950 . S
H1222 C1252 0.950 . S
H1223 C1253 0.950 . S
C1224 H1206 0.951 . S
C1224 C1225 1.366 . S
C1224 C1226 1.388 . S
C1225 C1224 1.366 . S
C1225 C1229 1.385 . S
C1226 H1207 0.951 . S
C1226 C1224 1.388 . S
C1226 C1227 1.366 . S
C1227 C1226 1.366 . S
C1227 C1228 1.414 . S
C1227 C1230 1.499 . S
C1228 H1208 0.950 . S
C1228 C1227 1.414 . S
C1228 C1229 1.374 . S
C1229 H1209 0.950 . S
C1229 C1225 1.385 . S
C1229 C1228 1.374 . S
C1230 C1227 1.499 . S
C1230 C1231 1.373 . S
C1230 C1232 1.389 . S
C1231 H1210 0.950 . S
C1231 C1230 1.373 . S
C1231 C1247 1.377 . S
C1232 C1230 1.389 . S
C1232 C1233 1.524 . S
C1232 C1246 1.377 . S
C1233 C1232 1.524 . S
C1233 C1234 1.397 . S
C1233 C1238 1.363 . S
C1234 H1211 0.950 . S
C1234 C1233 1.397 . S
C1234 C1235 1.334 . S
C1235 H1212 0.950 . S
C1235 C1234 1.334 . S
C1235 C1236 1.287 . S
C1236 C1235 1.287 . S
C1236 C1237 1.524 . S
C1236 H1255 0.913 . S
C1237 H1213 0.950 . S
C1237 C1236 1.524 . S
C1237 C1238 1.415 . S
C1238 H1214 0.950 . S
C1238 C1233 1.363 . S
C1238 C1237 1.415 . S
C1239 H1215 0.951 . S
C1239 C1240 1.366 . S
C1239 C1241 1.388 . S
C1240 C1239 1.366 . S
C1240 C1244 1.385 . S
C1241 H1216 0.951 . S
C1241 C1239 1.388 . S
C1241 C1242 1.366 . S
C1242 C1241 1.366 . S
C1242 C1243 1.414 . S
C1242 C1245 1.499 . S
C1243 H1217 0.950 . S
C1243 C1242 1.414 . S
C1243 C1244 1.374 . S
C1244 H1218 0.950 . S
C1244 C1240 1.385 . S
C1244 C1243 1.374 . S
C1245 C1242 1.499 . S
C1245 C1246 1.373 . S
C1245 C1247 1.389 . S
C1246 H1219 0.950 . S
C1246 C1232 1.377 . S
C1246 C1245 1.373 . S
C1247 C1231 1.377 . S
C1247 C1245 1.389 . S
C1247 C1248 1.524 . S
C1248 C1247 1.524 . S
C1248 C1249 1.397 . S
C1248 C1253 1.363 . S
C1249 H1220 0.950 . S
C1249 C1248 1.397 . S
C1249 C1250 1.334 . S
C1250 H1221 0.950 . S
C1250 C1249 1.334 . S
C1250 C1251 1.287 . S
C1251 C1250 1.287 . S
C1251 C1252 1.524 . S
C1251 H1254 0.999 . S
C1252 H1222 0.950 . S
C1252 C1251 1.524 . S
C1252 C1253 1.415 . S
C1253 H1223 0.950 . S
C1253 C1248 1.363 . S
C1253 C1252 1.415 . S
H1254 C1251 0.999 . S
H1255 C1236 0.913 . S
H1256 C1274 0.951 . S
H1257 C1276 0.951 . S
H1258 C1278 0.950 . S
H1259 C1279 0.950 . S
H1260 C1281 0.950 . S
H1261 C1284 0.950 . S
H1262 C1285 0.950 . S
H1263 C1287 0.950 . S
H1264 C1288 0.950 . S
H1265 C1289 0.951 . S
H1266 C1291 0.951 . S
H1267 C1293 0.950 . S
H1268 C1294 0.950 . S
H1269 C1296 0.950 . S
H1270 C1299 0.950 . S
H1271 C1300 0.950 . S
H1272 C1302 0.950 . S
H1273 C1303 0.950 . S
C1274 H1256 0.951 . S
C1274 C1275 1.366 . S
C1274 C1276 1.388 . S
C1275 C1274 1.366 . S
C1275 C1279 1.385 . S
C1276 H1257 0.951 . S
C1276 C1274 1.388 . S
C1276 C1277 1.366 . S
C1277 C1276 1.366 . S
C1277 C1278 1.414 . S
C1277 C1280 1.499 . S
C1278 H1258 0.950 . S
C1278 C1277 1.414 . S
C1278 C1279 1.374 . S
C1279 H1259 0.950 . S
C1279 C1275 1.385 . S
C1279 C1278 1.374 . S
C1280 C1277 1.499 . S
C1280 C1281 1.373 . S
C1280 C1282 1.389 . S
C1281 H1260 0.950 . S
C1281 C1280 1.373 . S
C1281 C1297 1.377 . S
C1282 C1280 1.389 . S
C1282 C1283 1.524 . S
C1282 C1296 1.377 . S
C1283 C1282 1.524 . S
C1283 C1284 1.397 . S
C1283 C1288 1.363 . S
C1284 H1261 0.950 . S
C1284 C1283 1.397 . S
C1284 C1285 1.334 . S
C1285 H1262 0.950 . S
C1285 C1284 1.334 . S
C1285 C1286 1.287 . S
C1286 C1285 1.287 . S
C1286 C1287 1.524 . S
C1286 H1305 0.913 . S
C1287 H1263 0.950 . S
C1287 C1286 1.524 . S
C1287 C1288 1.415 . S
C1288 H1264 0.950 . S
C1288 C1283 1.363 . S
C1288 C1287 1.415 . S
C1289 H1265 0.951 . S
C1289 C1290 1.366 . S
C1289 C1291 1.388 . S
C1290 C1289 1.366 . S
C1290 C1294 1.385 . S
C1291 H1266 0.951 . S
C1291 C1289 1.388 . S
C1291 C1292 1.366 . S
C1292 C1291 1.366 . S
C1292 C1293 1.414 . S
C1292 C1295 1.499 . S
C1293 H1267 0.950 . S
C1293 C1292 1.414 . S
C1293 C1294 1.374 . S
C1294 H1268 0.950 . S
C1294 C1290 1.385 . S
C1294 C1293 1.374 . S
C1295 C1292 1.499 . S
C1295 C1296 1.373 . S
C1295 C1297 1.389 . S
C1296 H1269 0.950 . S
C1296 C1282 1.377 . S
C1296 C1295 1.373 . S
C1297 C1281 1.377 . S
C1297 C1295 1.389 . S
C1297 C1298 1.524 . S
C1298 C1297 1.524 . S
C1298 C1299 1.397 . S
C1298 C1303 1.363 . S
C1299 H1270 0.950 . S
C1299 C1298 1.397 . S
C1299 C1300 1.334 . S
C1300 H1271 0.950 . S
C1300 C1299 1.334 . S
C1300 C1301 1.287 . S
C1301 C1300 1.287 . S
C1301 C1302 1.524 . S
C1301 H1304 0.999 . S
C1302 H1272 0.950 . S
C1302 C1301 1.524 . S
C1302 C1303 1.415 . S
C1303 H1273 0.950 . S
C1303 C1298 1.363 . S
C1303 C1302 1.415 . S
H1304 C1301 0.999 . S
H1305 C1286 0.913 . S
H1306 C1324 0.951 . S
H1307 C1326 0.951 . S
H1308 C1328 0.950 . S
H1309 C1329 0.950 . S
H1310 C1331 0.950 . S
H1311 C1334 0.950 . S
H1312 C1335 0.950 . S
H1313 C1337 0.950 . S
H1314 C1338 0.950 . S
H1315 C1339 0.951 . S
H1316 C1341 0.951 . S
H1317 C1343 0.950 . S
H1318 C1344 0.950 . S
H1319 C1346 0.950 . S
H1320 C1349 0.950 . S
H1321 C1350 0.950 . S
H1322 C1352 0.950 . S
H1323 C1353 0.950 . S
C1324 H1306 0.951 . S
C1324 C1325 1.366 . S
C1324 C1326 1.388 . S
C1325 C1324 1.366 . S
C1325 C1329 1.385 . S
C1326 H1307 0.951 . S
C1326 C1324 1.388 . S
C1326 C1327 1.366 . S
C1327 C1326 1.366 . S
C1327 C1328 1.414 . S
C1327 C1330 1.499 . S
C1328 H1308 0.950 . S
C1328 C1327 1.414 . S
C1328 C1329 1.374 . S
C1329 H1309 0.950 . S
C1329 C1325 1.385 . S
C1329 C1328 1.374 . S
C1330 C1327 1.499 . S
C1330 C1331 1.373 . S
C1330 C1332 1.389 . S
C1331 H1310 0.950 . S
C1331 C1330 1.373 . S
C1331 C1347 1.377 . S
C1332 C1330 1.389 . S
C1332 C1333 1.524 . S
C1332 C1346 1.377 . S
C1333 C1332 1.524 . S
C1333 C1334 1.397 . S
C1333 C1338 1.363 . S
C1334 H1311 0.950 . S
C1334 C1333 1.397 . S
C1334 C1335 1.334 . S
C1335 H1312 0.950 . S
C1335 C1334 1.334 . S
C1335 C1336 1.287 . S
C1336 C1335 1.287 . S
C1336 C1337 1.524 . S
C1336 H1355 0.913 . S
C1337 H1313 0.950 . S
C1337 C1336 1.524 . S
C1337 C1338 1.415 . S
C1338 H1314 0.950 . S
C1338 C1333 1.363 . S
C1338 C1337 1.415 . S
C1339 H1315 0.951 . S
C1339 C1340 1.366 . S
C1339 C1341 1.388 . S
C1340 C1339 1.366 . S
C1340 C1344 1.385 . S
C1341 H1316 0.951 . S
C1341 C1339 1.388 . S
C1341 C1342 1.366 . S
C1342 C1341 1.366 . S
C1342 C1343 1.414 . S
C1342 C1345 1.499 . S
C1343 H1317 0.950 . S
C1343 C1342 1.414 . S
C1343 C1344 1.374 . S
C1344 H1318 0.950 . S
C1344 C1340 1.385 . S
C1344 C1343 1.374 . S
C1345 C1342 1.499 . S
C1345 C1346 1.373 . S
C1345 C1347 1.389 . S
C1346 H1319 0.950 . S
C1346 C1332 1.377 . S
C1346 C1345 1.373 . S
C1347 C1331 1.377 . S
C1347 C1345 1.389 . S
C1347 C1348 1.524 . S
C1348 C1347 1.524 . S
C1348 C1349 1.397 . S
C1348 C1353 1.363 . S
C1349 H1320 0.950 . S
C1349 C1348 1.397 . S
C1349 C1350 1.334 . S
C1350 H1321 0.950 . S
C1350 C1349 1.334 . S
C1350 C1351 1.287 . S
C1351 C1350 1.287 . S
C1351 C1352 1.524 . S
C1351 H1354 0.999 . S
C1352 H1322 0.950 . S
C1352 C1351 1.524 . S
C1352 C1353 1.415 . S
C1353 H1323 0.950 . S
C1353 C1348 1.363 . S
C1353 C1352 1.415 . S
H1354 C1351 0.999 . S
H1355 C1336 0.913 . S
H1356 C1374 0.951 . S
H1357 C1376 0.951 . S
H1358 C1378 0.950 . S
H1359 C1379 0.950 . S
H1360 C1381 0.950 . S
H1361 C1384 0.950 . S
H1362 C1385 0.950 . S
H1363 C1387 0.950 . S
H1364 C1388 0.950 . S
H1365 C1389 0.951 . S
H1366 C1391 0.951 . S
H1367 C1393 0.950 . S
H1368 C1394 0.950 . S
H1369 C1396 0.950 . S
H1370 C1399 0.950 . S
H1371 C1400 0.950 . S
H1372 C1402 0.950 . S
H1373 C1403 0.950 . S
C1374 H1356 0.951 . S
C1374 C1375 1.366 . S
C1374 C1376 1.388 . S
C1375 C1374 1.366 . S
C1375 C1379 1.385 . S
C1376 H1357 0.951 . S
C1376 C1374 1.388 . S
C1376 C1377 1.366 . S
C1377 C1376 1.366 . S
C1377 C1378 1.414 . S
C1377 C1380 1.499 . S
C1378 H1358 0.950 . S
C1378 C1377 1.414 . S
C1378 C1379 1.374 . S
C1379 H1359 0.950 . S
C1379 C1375 1.385 . S
C1379 C1378 1.374 . S
C1380 C1377 1.499 . S
C1380 C1381 1.373 . S
C1380 C1382 1.389 . S
C1381 H1360 0.950 . S
C1381 C1380 1.373 . S
C1381 C1397 1.377 . S
C1382 C1380 1.389 . S
C1382 C1383 1.524 . S
C1382 C1396 1.377 . S
C1383 C1382 1.524 . S
C1383 C1384 1.397 . S
C1383 C1388 1.363 . S
C1384 H1361 0.950 . S
C1384 C1383 1.397 . S
C1384 C1385 1.334 . S
C1385 H1362 0.950 . S
C1385 C1384 1.334 . S
C1385 C1386 1.287 . S
C1386 C1385 1.287 . S
C1386 C1387 1.524 . S
C1386 H1405 0.913 . S
C1387 H1363 0.950 . S
C1387 C1386 1.524 . S
C1387 C1388 1.415 . S
C1388 H1364 0.950 . S
C1388 C1383 1.363 . S
C1388 C1387 1.415 . S
C1389 H1365 0.951 . S
C1389 C1390 1.366 . S
C1389 C1391 1.388 . S
C1390 C1389 1.366 . S
C1390 C1394 1.385 . S
C1391 H1366 0.951 . S
C1391 C1389 1.388 . S
C1391 C1392 1.366 . S
C1392 C1391 1.366 . S
C1392 C1393 1.414 . S
C1392 C1395 1.499 . S
C1393 H1367 0.950 . S
C1393 C1392 1.414 . S
C1393 C1394 1.374 . S
C1394 H1368 0.950 . S
C1394 C1390 1.385 . S
C1394 C1393 1.374 . S
C1395 C1392 1.499 . S
C1395 C1396 1.373 . S
C1395 C1397 1.389 . S
C1396 H1369 0.950 . S
C1396 C1382 1.377 . S
C1396 C1395 1.373 . S
C1397 C1381 1.377 . S
C1397 C1395 1.389 . S
C1397 C1398 1.524 . S
C1398 C1397 1.524 . S
C1398 C1399 1.397 1_556 S
C1398 C1403 1.363 . S
C1399 H1370 0.950 . S
C1399 C1398 1.397 1_554 S
C1399 C1400 1.334 . S
C1400 H1371 0.950 . S
C1400 C1399 1.334 . S
C1400 C1401 1.287 . S
C1401 C1400 1.287 . S
C1401 C1402 1.524 . S
C1401 H1404 0.999 . S
C1402 H1372 0.950 . S
C1402 C1401 1.524 . S
C1402 C1403 1.415 1_554 S
C1403 H1373 0.950 . S
C1403 C1398 1.363 . S
C1403 C1402 1.415 1_556 S
H1404 C1401 0.999 . S
H1405 C1386 0.913 . S
H1406 C1424 0.951 . S
H1407 C1426 0.951 . S
H1408 C1428 0.950 . S
H1409 C1429 0.950 . S
H1410 C1431 0.950 . S
H1411 C1434 0.950 . S
H1412 C1435 0.950 . S
H1413 C1437 0.950 . S
H1414 C1438 0.950 . S
H1415 C1439 0.951 . S
H1416 C1441 0.951 . S
H1417 C1443 0.950 . S
H1418 C1444 0.950 . S
H1419 C1446 0.950 . S
H1420 C1449 0.950 . S
H1421 C1450 0.950 . S
H1422 C1452 0.950 . S
H1423 C1453 0.950 . S
C1424 H1406 0.951 . S
C1424 C1425 1.366 . S
C1424 C1426 1.388 . S
C1425 C1424 1.366 . S
C1425 C1429 1.385 . S
C1426 H1407 0.951 . S
C1426 C1424 1.388 . S
C1426 C1427 1.366 . S
C1427 C1426 1.366 . S
C1427 C1428 1.414 . S
C1427 C1430 1.499 . S
C1428 H1408 0.950 . S
C1428 C1427 1.414 . S
C1428 C1429 1.374 . S
C1429 H1409 0.950 . S
C1429 C1425 1.385 . S
C1429 C1428 1.374 . S
C1430 C1427 1.499 . S
C1430 C1431 1.373 . S
C1430 C1432 1.389 . S
C1431 H1410 0.950 . S
C1431 C1430 1.373 . S
C1431 C1447 1.377 . S
C1432 C1430 1.389 . S
C1432 C1433 1.524 . S
C1432 C1446 1.377 . S
C1433 C1432 1.524 . S
C1433 C1434 1.397 . S
C1433 C1438 1.363 . S
C1434 H1411 0.950 . S
C1434 C1433 1.397 . S
C1434 C1435 1.334 . S
C1435 H1412 0.950 . S
C1435 C1434 1.334 . S
C1435 C1436 1.287 . S
C1436 C1435 1.287 . S
C1436 C1437 1.524 . S
C1436 H1455 0.913 . S
C1437 H1413 0.950 . S
C1437 C1436 1.524 . S
C1437 C1438 1.415 . S
C1438 H1414 0.950 . S
C1438 C1433 1.363 . S
C1438 C1437 1.415 . S
C1439 H1415 0.951 . S
C1439 C1440 1.366 . S
C1439 C1441 1.388 . S
C1440 C1439 1.366 . S
C1440 C1444 1.385 . S
C1441 H1416 0.951 . S
C1441 C1439 1.388 . S
C1441 C1442 1.366 . S
C1442 C1441 1.366 . S
C1442 C1443 1.414 . S
C1442 C1445 1.499 . S
C1443 H1417 0.950 . S
C1443 C1442 1.414 . S
C1443 C1444 1.374 . S
C1444 H1418 0.950 . S
C1444 C1440 1.385 . S
C1444 C1443 1.374 . S
C1445 C1442 1.499 . S
C1445 C1446 1.373 . S
C1445 C1447 1.389 . S
C1446 H1419 0.950 . S
C1446 C1432 1.377 . S
C1446 C1445 1.373 . S
C1447 C1431 1.377 . S
C1447 C1445 1.389 . S
C1447 C1448 1.524 . S
C1448 C1447 1.524 . S
C1448 C1449 1.397 . S
C1448 C1453 1.363 . S
C1449 H1420 0.950 . S
C1449 C1448 1.397 . S
C1449 C1450 1.334 . S
C1450 H1421 0.950 . S
C1450 C1449 1.334 . S
C1450 C1451 1.287 . S
C1451 C1450 1.287 . S
C1451 C1452 1.524 . S
C1451 H1454 0.999 . S
C1452 H1422 0.950 . S
C1452 C1451 1.524 . S
C1452 C1453 1.415 . S
C1453 H1423 0.950 . S
C1453 C1448 1.363 . S
C1453 C1452 1.415 . S
H1454 C1451 0.999 . S
H1455 C1436 0.913 . S
H1456 C1474 0.951 . S
H1457 C1476 0.951 . S
H1458 C1478 0.950 . S
H1459 C1479 0.950 . S
H1460 C1481 0.950 . S
H1461 C1484 0.950 . S
H1462 C1485 0.950 . S
H1463 C1487 0.950 . S
H1464 C1488 0.950 . S
H1465 C1489 0.951 . S
H1466 C1491 0.951 . S
H1467 C1493 0.950 . S
H1468 C1494 0.950 . S
H1469 C1496 0.950 . S
H1470 C1499 0.950 . S
H1471 C1500 0.950 . S
H1472 C1502 0.950 . S
H1473 C1503 0.950 . S
C1474 H1456 0.951 . S
C1474 C1475 1.366 . S
C1474 C1476 1.388 . S
C1475 C1474 1.366 . S
C1475 C1479 1.385 . S
C1476 H1457 0.951 . S
C1476 C1474 1.388 . S
C1476 C1477 1.366 . S
C1477 C1476 1.366 . S
C1477 C1478 1.414 . S
C1477 C1480 1.499 . S
C1478 H1458 0.950 . S
C1478 C1477 1.414 . S
C1478 C1479 1.374 . S
C1479 H1459 0.950 . S
C1479 C1475 1.385 . S
C1479 C1478 1.374 . S
C1480 C1477 1.499 . S
C1480 C1481 1.373 . S
C1480 C1482 1.389 . S
C1481 H1460 0.950 . S
C1481 C1480 1.373 . S
C1481 C1497 1.377 . S
C1482 C1480 1.389 . S
C1482 C1483 1.524 . S
C1482 C1496 1.377 . S
C1483 C1482 1.524 . S
C1483 C1484 1.397 . S
C1483 C1488 1.363 . S
C1484 H1461 0.950 . S
C1484 C1483 1.397 . S
C1484 C1485 1.334 . S
C1485 H1462 0.950 . S
C1485 C1484 1.334 . S
C1485 C1486 1.287 . S
C1486 C1485 1.287 . S
C1486 C1487 1.524 . S
C1486 H1505 0.913 . S
C1487 H1463 0.950 . S
C1487 C1486 1.524 . S
C1487 C1488 1.415 . S
C1488 H1464 0.950 . S
C1488 C1483 1.363 . S
C1488 C1487 1.415 . S
C1489 H1465 0.951 . S
C1489 C1490 1.366 . S
C1489 C1491 1.388 . S
C1490 C1489 1.366 . S
C1490 C1494 1.385 . S
C1491 H1466 0.951 . S
C1491 C1489 1.388 . S
C1491 C1492 1.366 . S
C1492 C1491 1.366 . S
C1492 C1493 1.414 . S
C1492 C1495 1.499 . S
C1493 H1467 0.950 . S
C1493 C1492 1.414 . S
C1493 C1494 1.374 . S
C1494 H1468 0.950 . S
C1494 C1490 1.385 . S
C1494 C1493 1.374 . S
C1495 C1492 1.499 . S
C1495 C1496 1.373 . S
C1495 C1497 1.389 . S
C1496 H1469 0.950 . S
C1496 C1482 1.377 . S
C1496 C1495 1.373 . S
C1497 C1481 1.377 . S
C1497 C1495 1.389 . S
C1497 C1498 1.524 . S
C1498 C1497 1.524 . S
C1498 C1499 1.397 . S
C1498 C1503 1.363 . S
C1499 H1470 0.950 . S
C1499 C1498 1.397 . S
C1499 C1500 1.334 . S
C1500 H1471 0.950 . S
C1500 C1499 1.334 . S
C1500 C1501 1.287 . S
C1501 C1500 1.287 . S
C1501 C1502 1.524 . S
C1501 H1504 0.999 . S
C1502 H1472 0.950 . S
C1502 C1501 1.524 . S
C1502 C1503 1.415 . S
C1503 H1473 0.950 . S
C1503 C1498 1.363 . S
C1503 C1502 1.415 . S
H1504 C1501 0.999 . S
H1505 C1486 0.913 . S
H1506 C1524 0.951 . S
H1507 C1526 0.951 . S
H1508 C1528 0.950 . S
H1509 C1529 0.950 . S
H1510 C1531 0.950 . S
H1511 C1534 0.950 . S
H1512 C1535 0.950 . S
H1513 C1537 0.950 . S
H1514 C1538 0.950 . S
H1515 C1539 0.951 . S
H1516 C1541 0.951 . S
H1517 C1543 0.950 . S
H1518 C1544 0.950 . S
H1519 C1546 0.950 . S
H1520 C1549 0.950 . S
H1521 C1550 0.950 . S
H1522 C1552 0.950 . S
H1523 C1553 0.950 . S
C1524 H1506 0.951 . S
C1524 C1525 1.366 . S
C1524 C1526 1.388 . S
C1525 C1524 1.366 . S
C1525 C1529 1.385 . S
C1526 H1507 0.951 . S
C1526 C1524 1.388 . S
C1526 C1527 1.366 . S
C1527 C1526 1.366 . S
C1527 C1528 1.414 . S
C1527 C1530 1.499 . S
C1528 H1508 0.950 . S
C1528 C1527 1.414 . S
C1528 C1529 1.374 . S
C1529 H1509 0.950 . S
C1529 C1525 1.385 . S
C1529 C1528 1.374 . S
C1530 C1527 1.499 . S
C1530 C1531 1.373 . S
C1530 C1532 1.389 . S
C1531 H1510 0.950 . S
C1531 C1530 1.373 . S
C1531 C1547 1.377 . S
C1532 C1530 1.389 . S
C1532 C1533 1.524 . S
C1532 C1546 1.377 . S
C1533 C1532 1.524 . S
C1533 C1534 1.397 . S
C1533 C1538 1.363 . S
C1534 H1511 0.950 . S
C1534 C1533 1.397 . S
C1534 C1535 1.334 . S
C1535 H1512 0.950 . S
C1535 C1534 1.334 . S
C1535 C1536 1.287 . S
C1536 C1535 1.287 . S
C1536 C1537 1.524 . S
C1536 H1555 0.913 . S
C1537 H1513 0.950 . S
C1537 C1536 1.524 . S
C1537 C1538 1.415 . S
C1538 H1514 0.950 . S
C1538 C1533 1.363 . S
C1538 C1537 1.415 . S
C1539 H1515 0.951 . S
C1539 C1540 1.366 . S
C1539 C1541 1.388 . S
C1540 C1539 1.366 . S
C1540 C1544 1.385 . S
C1541 H1516 0.951 . S
C1541 C1539 1.388 . S
C1541 C1542 1.366 . S
C1542 C1541 1.366 . S
C1542 C1543 1.414 . S
C1542 C1545 1.499 . S
C1543 H1517 0.950 . S
C1543 C1542 1.414 . S
C1543 C1544 1.374 . S
C1544 H1518 0.950 . S
C1544 C1540 1.385 . S
C1544 C1543 1.374 . S
C1545 C1542 1.499 . S
C1545 C1546 1.373 . S
C1545 C1547 1.389 . S
C1546 H1519 0.950 . S
C1546 C1532 1.377 . S
C1546 C1545 1.373 . S
C1547 C1531 1.377 . S
C1547 C1545 1.389 . S
C1547 C1548 1.524 . S
C1548 C1547 1.524 . S
C1548 C1549 1.397 . S
C1548 C1553 1.363 . S
C1549 H1520 0.950 . S
C1549 C1548 1.397 . S
C1549 C1550 1.334 . S
C1550 H1521 0.950 . S
C1550 C1549 1.334 . S
C1550 C1551 1.287 . S
C1551 C1550 1.287 . S
C1551 C1552 1.524 . S
C1551 H1554 0.999 . S
C1552 H1522 0.950 . S
C1552 C1551 1.524 . S
C1552 C1553 1.415 . S
C1553 H1523 0.950 . S
C1553 C1548 1.363 . S
C1553 C1552 1.415 . S
H1554 C1551 0.999 . S
H1555 C1536 0.913 . S
H1556 C1574 0.951 . S
H1557 C1576 0.951 . S
H1558 C1578 0.950 . S
H1559 C1579 0.950 . S
H1560 C1581 0.950 . S
H1561 C1584 0.950 . S
H1562 C1585 0.950 . S
H1563 C1587 0.950 . S
H1564 C1588 0.950 . S
H1565 C1589 0.951 . S
H1566 C1591 0.951 . S
H1567 C1593 0.950 . S
H1568 C1594 0.950 . S
H1569 C1596 0.950 . S
H1570 C1599 0.950 . S
H1571 C1600 0.950 . S
H1572 C1602 0.950 . S
H1573 C1603 0.950 . S
C1574 H1556 0.951 . S
C1574 C1575 1.366 . S
C1574 C1576 1.388 . S
C1575 C1574 1.366 . S
C1575 C1579 1.385 . S
C1576 H1557 0.951 . S
C1576 C1574 1.388 . S
C1576 C1577 1.366 . S
C1577 C1576 1.366 . S
C1577 C1578 1.414 . S
C1577 C1580 1.499 . S
C1578 H1558 0.950 . S
C1578 C1577 1.414 . S
C1578 C1579 1.374 . S
C1579 H1559 0.950 . S
C1579 C1575 1.385 . S
C1579 C1578 1.374 . S
C1580 C1577 1.499 . S
C1580 C1581 1.373 . S
C1580 C1582 1.389 . S
C1581 H1560 0.950 . S
C1581 C1580 1.373 . S
C1581 C1597 1.377 . S
C1582 C1580 1.389 . S
C1582 C1583 1.524 . S
C1582 C1596 1.377 . S
C1583 C1582 1.524 . S
C1583 C1584 1.397 . S
C1583 C1588 1.363 . S
C1584 H1561 0.950 . S
C1584 C1583 1.397 . S
C1584 C1585 1.334 . S
C1585 H1562 0.950 . S
C1585 C1584 1.334 . S
C1585 C1586 1.287 . S
C1586 C1585 1.287 . S
C1586 C1587 1.524 . S
C1586 H1605 0.913 . S
C1587 H1563 0.950 . S
C1587 C1586 1.524 . S
C1587 C1588 1.415 . S
C1588 H1564 0.950 . S
C1588 C1583 1.363 . S
C1588 C1587 1.415 . S
C1589 H1565 0.951 . S
C1589 C1590 1.366 . S
C1589 C1591 1.388 . S
C1590 C1589 1.366 . S
C1590 C1594 1.385 . S
C1591 H1566 0.951 . S
C1591 C1589 1.388 . S
C1591 C1592 1.366 . S
C1592 C1591 1.366 . S
C1592 C1593 1.414 . S
C1592 C1595 1.499 . S
C1593 H1567 0.950 . S
C1593 C1592 1.414 . S
C1593 C1594 1.374 . S
C1594 H1568 0.950 . S
C1594 C1590 1.385 . S
C1594 C1593 1.374 . S
C1595 C1592 1.499 . S
C1595 C1596 1.373 . S
C1595 C1597 1.389 . S
C1596 H1569 0.950 . S
C1596 C1582 1.377 . S
C1596 C1595 1.373 . S
C1597 C1581 1.377 . S
C1597 C1595 1.389 . S
C1597 C1598 1.524 . S
C1598 C1597 1.524 . S
C1598 C1599 1.397 . S
C1598 C1603 1.363 . S
C1599 H1570 0.950 . S
C1599 C1598 1.397 . S
C1599 C1600 1.334 . S
C1600 H1571 0.950 . S
C1600 C1599 1.334 . S
C1600 C1601 1.287 . S
C1601 C1600 1.287 . S
C1601 C1602 1.524 . S
C1601 H1604 0.999 . S
C1602 H1572 0.950 . S
C1602 C1601 1.524 . S
C1602 C1603 1.415 . S
C1603 H1573 0.950 . S
C1603 C1598 1.363 . S
C1603 C1602 1.415 . S
H1604 C1601 0.999 . S
H1605 C1586 0.913 . S
H1606 C1624 0.951 . S
H1607 C1626 0.951 . S
H1608 C1628 0.950 . S
H1609 C1629 0.950 . S
H1610 C1631 0.950 . S
H1611 C1634 0.950 . S
H1612 C1635 0.950 . S
H1613 C1637 0.950 . S
H1614 C1638 0.950 . S
H1615 C1639 0.951 . S
H1616 C1641 0.951 . S
H1617 C1643 0.950 . S
H1618 C1644 0.950 . S
H1619 C1646 0.950 . S
H1620 C1649 0.950 . S
H1621 C1650 0.950 . S
H1622 C1652 0.950 . S
H1623 C1653 0.950 . S
C1624 H1606 0.951 . S
C1624 C1625 1.366 . S
C1624 C1626 1.388 . S
C1625 C1624 1.366 . S
C1625 C1629 1.385 . S
C1626 H1607 0.951 . S
C1626 C1624 1.388 . S
C1626 C1627 1.366 . S
C1627 C1626 1.366 . S
C1627 C1628 1.414 . S
C1627 C1630 1.499 . S
C1628 H1608 0.950 . S
C1628 C1627 1.414 . S
C1628 C1629 1.374 . S
C1629 H1609 0.950 . S
C1629 C1625 1.385 . S
C1629 C1628 1.374 . S
C1630 C1627 1.499 . S
C1630 C1631 1.373 . S
C1630 C1632 1.389 . S
C1631 H1610 0.950 . S
C1631 C1630 1.373 . S
C1631 C1647 1.377 . S
C1632 C1630 1.389 . S
C1632 C1633 1.524 . S
C1632 C1646 1.377 . S
C1633 C1632 1.524 . S
C1633 C1634 1.397 . S
C1633 C1638 1.363 . S
C1634 H1611 0.950 . S
C1634 C1633 1.397 . S
C1634 C1635 1.334 . S
C1635 H1612 0.950 . S
C1635 C1634 1.334 . S
C1635 C1636 1.287 . S
C1636 C1635 1.287 . S
C1636 C1637 1.524 . S
C1636 H1655 0.913 1_565 S
C1637 H1613 0.950 . S
C1637 C1636 1.524 . S
C1637 C1638 1.415 . S
C1638 H1614 0.950 . S
C1638 C1633 1.363 . S
C1638 C1637 1.415 . S
C1639 H1615 0.951 . S
C1639 C1640 1.366 . S
C1639 C1641 1.388 . S
C1640 C1639 1.366 . S
C1640 C1644 1.385 . S
C1641 H1616 0.951 . S
C1641 C1639 1.388 . S
C1641 C1642 1.366 . S
C1642 C1641 1.366 . S
C1642 C1643 1.414 . S
C1642 C1645 1.499 . S
C1643 H1617 0.950 . S
C1643 C1642 1.414 . S
C1643 C1644 1.374 . S
C1644 H1618 0.950 . S
C1644 C1640 1.385 . S
C1644 C1643 1.374 . S
C1645 C1642 1.499 . S
C1645 C1646 1.373 . S
C1645 C1647 1.389 . S
C1646 H1619 0.950 . S
C1646 C1632 1.377 . S
C1646 C1645 1.373 . S
C1647 C1631 1.377 . S
C1647 C1645 1.389 . S
C1647 C1648 1.524 . S
C1648 C1647 1.524 . S
C1648 C1649 1.397 . S
C1648 C1653 1.363 . S
C1649 H1620 0.950 . S
C1649 C1648 1.397 . S
C1649 C1650 1.334 . S
C1650 H1621 0.950 . S
C1650 C1649 1.334 . S
C1650 C1651 1.287 . S
C1651 C1650 1.287 . S
C1651 C1652 1.524 . S
C1651 H1654 0.999 . S
C1652 H1622 0.950 . S
C1652 C1651 1.524 . S
C1652 C1653 1.415 . S
C1653 H1623 0.950 . S
C1653 C1648 1.363 . S
C1653 C1652 1.415 . S
H1654 C1651 0.999 . S
H1655 C1636 0.913 1_545 S
H1656 C1674 0.951 . S
H1657 C1676 0.951 . S
H1658 C1678 0.950 . S
H1659 C1679 0.950 . S
H1660 C1681 0.950 . S
H1661 C1684 0.950 . S
H1662 C1685 0.950 . S
H1663 C1687 0.950 . S
H1664 C1688 0.950 . S
H1665 C1689 0.951 . S
H1666 C1691 0.951 . S
H1667 C1693 0.950 . S
H1668 C1694 0.950 . S
H1669 C1696 0.950 . S
H1670 C1699 0.950 . S
H1671 C1700 0.950 . S
H1672 C1702 0.950 . S
H1673 C1703 0.950 . S
C1674 H1656 0.951 . S
C1674 C1675 1.366 . S
C1674 C1676 1.388 . S
C1675 C1674 1.366 . S
C1675 C1679 1.385 . S
C1676 H1657 0.951 . S
C1676 C1674 1.388 . S
C1676 C1677 1.366 . S
C1677 C1676 1.366 . S
C1677 C1678 1.414 . S
C1677 C1680 1.499 . S
C1678 H1658 0.950 . S
C1678 C1677 1.414 . S
C1678 C1679 1.374 . S
C1679 H1659 0.950 . S
C1679 C1675 1.385 . S
C1679 C1678 1.374 . S
C1680 C1677 1.499 . S
C1680 C1681 1.373 . S
C1680 C1682 1.389 . S
C1681 H1660 0.950 . S
C1681 C1680 1.373 . S
C1681 C1697 1.377 . S
C1682 C1680 1.389 . S
C1682 C1683 1.524 . S
C1682 C1696 1.377 . S
C1683 C1682 1.524 . S
C1683 C1684 1.397 . S
C1683 C1688 1.363 . S
C1684 H1661 0.950 . S
C1684 C1683 1.397 . S
C1684 C1685 1.334 . S
C1685 H1662 0.950 . S
C1685 C1684 1.334 . S
C1685 C1686 1.287 . S
C1686 C1685 1.287 . S
C1686 C1687 1.524 . S
C1686 H1705 0.913 . S
C1687 H1663 0.950 . S
C1687 C1686 1.524 . S
C1687 C1688 1.415 . S
C1688 H1664 0.950 . S
C1688 C1683 1.363 . S
C1688 C1687 1.415 . S
C1689 H1665 0.951 . S
C1689 C1690 1.366 . S
C1689 C1691 1.388 . S
C1690 C1689 1.366 . S
C1690 C1694 1.385 . S
C1691 H1666 0.951 . S
C1691 C1689 1.388 . S
C1691 C1692 1.366 . S
C1692 C1691 1.366 . S
C1692 C1693 1.414 . S
C1692 C1695 1.499 . S
C1693 H1667 0.950 . S
C1693 C1692 1.414 . S
C1693 C1694 1.374 . S
C1694 H1668 0.950 . S
C1694 C1690 1.385 . S
C1694 C1693 1.374 . S
C1695 C1692 1.499 . S
C1695 C1696 1.373 . S
C1695 C1697 1.389 . S
C1696 H1669 0.950 . S
C1696 C1682 1.377 . S
C1696 C1695 1.373 . S
C1697 C1681 1.377 . S
C1697 C1695 1.389 . S
C1697 C1698 1.524 . S
C1698 C1697 1.524 . S
C1698 C1699 1.397 . S
C1698 C1703 1.363 . S
C1699 H1670 0.950 . S
C1699 C1698 1.397 . S
C1699 C1700 1.334 . S
C1700 H1671 0.950 . S
C1700 C1699 1.334 . S
C1700 C1701 1.287 . S
C1701 C1700 1.287 . S
C1701 C1702 1.524 . S
C1701 H1704 0.999 . S
C1702 H1672 0.950 . S
C1702 C1701 1.524 . S
C1702 C1703 1.415 . S
C1703 H1673 0.950 . S
C1703 C1698 1.363 . S
C1703 C1702 1.415 . S
H1704 C1701 0.999 . S
H1705 C1686 0.913 . S
H1706 C1724 0.951 . S
H1707 C1726 0.951 . S
H1708 C1728 0.950 . S
H1709 C1729 0.950 . S
H1710 C1731 0.950 . S
H1711 C1734 0.950 . S
H1712 C1735 0.950 . S
H1713 C1737 0.950 . S
H1714 C1738 0.950 . S
H1715 C1739 0.951 . S
H1716 C1741 0.951 . S
H1717 C1743 0.950 . S
H1718 C1744 0.950 . S
H1719 C1746 0.950 . S
H1720 C1749 0.950 . S
H1721 C1750 0.950 . S
H1722 C1752 0.950 . S
H1723 C1753 0.950 . S
C1724 H1706 0.951 . S
C1724 C1725 1.366 . S
C1724 C1726 1.388 . S
C1725 C1724 1.366 . S
C1725 C1729 1.385 . S
C1726 H1707 0.951 . S
C1726 C1724 1.388 . S
C1726 C1727 1.366 . S
C1727 C1726 1.366 . S
C1727 C1728 1.414 . S
C1727 C1730 1.499 . S
C1728 H1708 0.950 . S
C1728 C1727 1.414 . S
C1728 C1729 1.374 . S
C1729 H1709 0.950 . S
C1729 C1725 1.385 . S
C1729 C1728 1.374 . S
C1730 C1727 1.499 . S
C1730 C1731 1.373 . S
C1730 C1732 1.389 . S
C1731 H1710 0.950 . S
C1731 C1730 1.373 . S
C1731 C1747 1.377 . S
C1732 C1730 1.389 . S
C1732 C1733 1.524 . S
C1732 C1746 1.377 . S
C1733 C1732 1.524 . S
C1733 C1734 1.397 . S
C1733 C1738 1.363 . S
C1734 H1711 0.950 . S
C1734 C1733 1.397 . S
C1734 C1735 1.334 . S
C1735 H1712 0.950 . S
C1735 C1734 1.334 . S
C1735 C1736 1.287 . S
C1736 C1735 1.287 . S
C1736 C1737 1.524 . S
C1736 H1755 0.913 . S
C1737 H1713 0.950 . S
C1737 C1736 1.524 . S
C1737 C1738 1.415 . S
C1738 H1714 0.950 . S
C1738 C1733 1.363 . S
C1738 C1737 1.415 . S
C1739 H1715 0.951 . S
C1739 C1740 1.366 . S
C1739 C1741 1.388 . S
C1740 C1739 1.366 . S
C1740 C1744 1.385 . S
C1741 H1716 0.951 . S
C1741 C1739 1.388 . S
C1741 C1742 1.366 . S
C1742 C1741 1.366 . S
C1742 C1743 1.414 . S
C1742 C1745 1.499 . S
C1743 H1717 0.950 . S
C1743 C1742 1.414 . S
C1743 C1744 1.374 . S
C1744 H1718 0.950 . S
C1744 C1740 1.385 . S
C1744 C1743 1.374 . S
C1745 C1742 1.499 . S
C1745 C1746 1.373 . S
C1745 C1747 1.389 . S
C1746 H1719 0.950 . S
C1746 C1732 1.377 . S
C1746 C1745 1.373 . S
C1747 C1731 1.377 . S
C1747 C1745 1.389 . S
C1747 C1748 1.524 . S
C1748 C1747 1.524 . S
C1748 C1749 1.397 . S
C1748 C1753 1.363 . S
C1749 H1720 0.950 . S
C1749 C1748 1.397 . S
C1749 C1750 1.334 . S
C1750 H1721 0.950 . S
C1750 C1749 1.334 . S
C1750 C1751 1.287 . S
C1751 C1750 1.287 . S
C1751 C1752 1.524 . S
C1751 H1754 0.999 . S
C1752 H1722 0.950 . S
C1752 C1751 1.524 . S
C1752 C1753 1.415 . S
C1753 H1723 0.950 . S
C1753 C1748 1.363 . S
C1753 C1752 1.415 . S
H1754 C1751 0.999 . S
H1755 C1736 0.913 . S
H1756 C1774 0.951 . S
H1757 C1776 0.951 . S
H1758 C1778 0.950 . S
H1759 C1779 0.950 . S
H1760 C1781 0.950 . S
H1761 C1784 0.950 . S
H1762 C1785 0.950 . S
H1763 C1787 0.950 . S
H1764 C1788 0.950 . S
H1765 C1789 0.951 . S
H1766 C1791 0.951 . S
H1767 C1793 0.950 . S
H1768 C1794 0.950 . S
H1769 C1796 0.950 . S
H1770 C1799 0.950 . S
H1771 C1800 0.950 . S
H1772 C1802 0.950 . S
H1773 C1803 0.950 . S
C1774 H1756 0.951 . S
C1774 C1775 1.366 . S
C1774 C1776 1.388 . S
C1775 C1774 1.366 . S
C1775 C1779 1.385 . S
C1776 H1757 0.951 . S
C1776 C1774 1.388 . S
C1776 C1777 1.366 . S
C1777 C1776 1.366 . S
C1777 C1778 1.414 . S
C1777 C1780 1.499 . S
C1778 H1758 0.950 . S
C1778 C1777 1.414 . S
C1778 C1779 1.374 . S
C1779 H1759 0.950 . S
C1779 C1775 1.385 . S
C1779 C1778 1.374 . S
C1780 C1777 1.499 . S
C1780 C1781 1.373 . S
C1780 C1782 1.389 . S
C1781 H1760 0.950 . S
C1781 C1780 1.373 . S
C1781 C1797 1.377 . S
C1782 C1780 1.389 . S
C1782 C1783 1.524 . S
C1782 C1796 1.377 . S
C1783 C1782 1.524 . S
C1783 C1784 1.397 . S
C1783 C1788 1.363 . S
C1784 H1761 0.950 . S
C1784 C1783 1.397 . S
C1784 C1785 1.334 . S
C1785 H1762 0.950 . S
C1785 C1784 1.334 . S
C1785 C1786 1.287 . S
C1786 C1785 1.287 . S
C1786 C1787 1.524 . S
C1786 H1805 0.913 . S
C1787 H1763 0.950 . S
C1787 C1786 1.524 . S
C1787 C1788 1.415 . S
C1788 H1764 0.950 . S
C1788 C1783 1.363 . S
C1788 C1787 1.415 . S
C1789 H1765 0.951 . S
C1789 C1790 1.366 . S
C1789 C1791 1.388 . S
C1790 C1789 1.366 . S
C1790 C1794 1.385 . S
C1791 H1766 0.951 . S
C1791 C1789 1.388 . S
C1791 C1792 1.366 . S
C1792 C1791 1.366 . S
C1792 C1793 1.414 . S
C1792 C1795 1.499 . S
C1793 H1767 0.950 . S
C1793 C1792 1.414 . S
C1793 C1794 1.374 . S
C1794 H1768 0.950 . S
C1794 C1790 1.385 . S
C1794 C1793 1.374 . S
C1795 C1792 1.499 . S
C1795 C1796 1.373 . S
C1795 C1797 1.389 . S
C1796 H1769 0.950 . S
C1796 C1782 1.377 . S
C1796 C1795 1.373 . S
C1797 C1781 1.377 . S
C1797 C1795 1.389 . S
C1797 C1798 1.524 . S
C1798 C1797 1.524 . S
C1798 C1799 1.397 . S
C1798 C1803 1.363 . S
C1799 H1770 0.950 . S
C1799 C1798 1.397 . S
C1799 C1800 1.334 . S
C1800 H1771 0.950 . S
C1800 C1799 1.334 . S
C1800 C1801 1.287 . S
C1801 C1800 1.287 . S
C1801 C1802 1.524 . S
C1801 H1804 0.999 . S
C1802 H1772 0.950 . S
C1802 C1801 1.524 . S
C1802 C1803 1.415 . S
C1803 H1773 0.950 . S
C1803 C1798 1.363 . S
C1803 C1802 1.415 . S
H1804 C1801 0.999 . S
H1805 C1786 0.913 . S
H1806 C1824 0.951 . S
H1807 C1826 0.951 . S
H1808 C1828 0.950 . S
H1809 C1829 0.950 . S
H1810 C1831 0.950 . S
H1811 C1834 0.950 . S
H1812 C1835 0.950 . S
H1813 C1837 0.950 . S
H1814 C1838 0.950 . S
H1815 C1839 0.951 . S
H1816 C1841 0.951 . S
H1817 C1843 0.950 . S
H1818 C1844 0.950 . S
H1819 C1846 0.950 . S
H1820 C1849 0.950 . S
H1821 C1850 0.950 . S
H1822 C1852 0.950 . S
H1823 C1853 0.950 . S
C1824 H1806 0.951 . S
C1824 C1825 1.366 . S
C1824 C1826 1.388 . S
C1825 C1824 1.366 . S
C1825 C1829 1.385 . S
C1826 H1807 0.951 . S
C1826 C1824 1.388 . S
C1826 C1827 1.366 . S
C1827 C1826 1.366 . S
C1827 C1828 1.414 . S
C1827 C1830 1.499 . S
C1828 H1808 0.950 . S
C1828 C1827 1.414 . S
C1828 C1829 1.374 . S
C1829 H1809 0.950 . S
C1829 C1825 1.385 . S
C1829 C1828 1.374 . S
C1830 C1827 1.499 . S
C1830 C1831 1.373 . S
C1830 C1832 1.389 . S
C1831 H1810 0.950 . S
C1831 C1830 1.373 . S
C1831 C1847 1.377 . S
C1832 C1830 1.389 . S
C1832 C1833 1.524 . S
C1832 C1846 1.377 . S
C1833 C1832 1.524 . S
C1833 C1834 1.397 . S
C1833 C1838 1.363 . S
C1834 H1811 0.950 . S
C1834 C1833 1.397 . S
C1834 C1835 1.334 . S
C1835 H1812 0.950 . S
C1835 C1834 1.334 . S
C1835 C1836 1.287 . S
C1836 C1835 1.287 . S
C1836 C1837 1.524 . S
C1836 H1855 0.913 . S
C1837 H1813 0.950 . S
C1837 C1836 1.524 . S
C1837 C1838 1.415 . S
C1838 H1814 0.950 . S
C1838 C1833 1.363 . S
C1838 C1837 1.415 . S
C1839 H1815 0.951 . S
C1839 C1840 1.366 . S
C1839 C1841 1.388 . S
C1840 C1839 1.366 . S
C1840 C1844 1.385 . S
C1841 H1816 0.951 . S
C1841 C1839 1.388 . S
C1841 C1842 1.366 . S
C1842 C1841 1.366 . S
C1842 C1843 1.414 . S
C1842 C1845 1.499 . S
C1843 H1817 0.950 . S
C1843 C1842 1.414 . S
C1843 C1844 1.374 . S
C1844 H1818 0.950 . S
C1844 C1840 1.385 . S
C1844 C1843 1.374 . S
C1845 C1842 1.499 . S
C1845 C1846 1.373 . S
C1845 C1847 1.389 . S
C1846 H1819 0.950 . S
C1846 C1832 1.377 . S
C1846 C1845 1.373 . S
C1847 C1831 1.377 . S
C1847 C1845 1.389 . S
C1847 C1848 1.524 . S
C1848 C1847 1.524 . S
C1848 C1849 1.397 . S
C1848 C1853 1.363 . S
C1849 H1820 0.950 . S
C1849 C1848 1.397 . S
C1849 C1850 1.334 . S
C1850 H1821 0.950 . S
C1850 C1849 1.334 . S
C1850 C1851 1.287 . S
C1851 C1850 1.287 . S
C1851 C1852 1.524 . S
C1851 H1854 0.999 . S
C1852 H1822 0.950 . S
C1852 C1851 1.524 . S
C1852 C1853 1.415 . S
C1853 H1823 0.950 . S
C1853 C1848 1.363 . S
C1853 C1852 1.415 . S
H1854 C1851 0.999 . S
H1855 C1836 0.913 . S
H1856 C1874 0.951 . S
H1857 C1876 0.951 . S
H1858 C1878 0.950 . S
H1859 C1879 0.950 . S
H1860 C1881 0.950 . S
H1861 C1884 0.950 . S
H1862 C1885 0.950 . S
H1863 C1887 0.950 . S
H1864 C1888 0.950 . S
H1865 C1889 0.951 . S
H1866 C1891 0.951 . S
H1867 C1893 0.950 . S
H1868 C1894 0.950 . S
H1869 C1896 0.950 . S
H1870 C1899 0.950 . S
H1871 C1900 0.950 . S
H1872 C1902 0.950 . S
H1873 C1903 0.950 . S
C1874 H1856 0.951 . S
C1874 C1875 1.366 . S
C1874 C1876 1.388 . S
C1875 C1874 1.366 . S
C1875 C1879 1.385 . S
C1876 H1857 0.951 . S
C1876 C1874 1.388 . S
C1876 C1877 1.366 . S
C1877 C1876 1.366 . S
C1877 C1878 1.414 . S
C1877 C1880 1.499 . S
C1878 H1858 0.950 . S
C1878 C1877 1.414 . S
C1878 C1879 1.374 . S
C1879 H1859 0.950 . S
C1879 C1875 1.385 . S
C1879 C1878 1.374 . S
C1880 C1877 1.499 . S
C1880 C1881 1.373 . S
C1880 C1882 1.389 . S
C1881 H1860 0.950 . S
C1881 C1880 1.373 . S
C1881 C1897 1.377 . S
C1882 C1880 1.389 . S
C1882 C1883 1.524 . S
C1882 C1896 1.377 . S
C1883 C1882 1.524 . S
C1883 C1884 1.397 . S
C1883 C1888 1.363 . S
C1884 H1861 0.950 . S
C1884 C1883 1.397 . S
C1884 C1885 1.334 . S
C1885 H1862 0.950 . S
C1885 C1884 1.334 . S
C1885 C1886 1.287 . S
C1886 C1885 1.287 . S
C1886 C1887 1.524 . S
C1886 H1905 0.913 . S
C1887 H1863 0.950 . S
C1887 C1886 1.524 . S
C1887 C1888 1.415 . S
C1888 H1864 0.950 . S
C1888 C1883 1.363 . S
C1888 C1887 1.415 . S
C1889 H1865 0.951 . S
C1889 C1890 1.366 . S
C1889 C1891 1.388 . S
C1890 C1889 1.366 . S
C1890 C1894 1.385 . S
C1891 H1866 0.951 . S
C1891 C1889 1.388 . S
C1891 C1892 1.366 . S
C1892 C1891 1.366 . S
C1892 C1893 1.414 . S
C1892 C1895 1.499 . S
C1893 H1867 0.950 . S
C1893 C1892 1.414 . S
C1893 C1894 1.374 . S
C1894 H1868 0.950 . S
C1894 C1890 1.385 . S
C1894 C1893 1.374 . S
C1895 C1892 1.499 . S
C1895 C1896 1.373 . S
C1895 C1897 1.389 . S
C1896 H1869 0.950 . S
C1896 C1882 1.377 . S
C1896 C1895 1.373 . S
C1897 C1881 1.377 . S
C1897 C1895 1.389 . S
C1897 C1898 1.524 . S
C1898 C1897 1.524 . S
C1898 C1899 1.397 . S
C1898 C1903 1.363 . S
C1899 H1870 0.950 . S
C1899 C1898 1.397 . S
C1899 C1900 1.334 . S
C1900 H1871 0.950 . S
C1900 C1899 1.334 . S
C1900 C1901 1.287 . S
C1901 C1900 1.287 . S
C1901 C1902 1.524 . S
C1901 H1904 0.999 . S
C1902 H1872 0.950 . S
C1902 C1901 1.524 . S
C1902 C1903 1.415 . S
C1903 H1873 0.950 . S
C1903 C1898 1.363 . S
C1903 C1902 1.415 . S
H1904 C1901 0.999 . S
H1905 C1886 0.913 . S
H1906 C1924 0.951 . S
H1907 C1926 0.951 . S
H1908 C1928 0.950 . S
H1909 C1929 0.950 . S
H1910 C1931 0.950 . S
H1911 C1934 0.950 . S
H1912 C1935 0.950 . S
H1913 C1937 0.950 . S
H1914 C1938 0.950 . S
H1915 C1939 0.951 . S
H1916 C1941 0.951 . S
H1917 C1943 0.950 . S
H1918 C1944 0.950 . S
H1919 C1946 0.950 . S
H1920 C1949 0.950 . S
H1921 C1950 0.950 . S
H1922 C1952 0.950 . S
H1923 C1953 0.950 . S
C1924 H1906 0.951 . S
C1924 C1925 1.366 . S
C1924 C1926 1.388 . S
C1925 C1924 1.366 . S
C1925 C1929 1.385 . S
C1926 H1907 0.951 . S
C1926 C1924 1.388 . S
C1926 C1927 1.366 . S
C1927 C1926 1.366 . S
C1927 C1928 1.414 . S
C1927 C1930 1.499 . S
C1928 H1908 0.950 . S
C1928 C1927 1.414 . S
C1928 C1929 1.374 . S
C1929 H1909 0.950 . S
C1929 C1925 1.385 . S
C1929 C1928 1.374 . S
C1930 C1927 1.499 . S
C1930 C1931 1.373 . S
C1930 C1932 1.389 . S
C1931 H1910 0.950 . S
C1931 C1930 1.373 . S
C1931 C1947 1.377 . S
C1932 C1930 1.389 . S
C1932 C1933 1.524 . S
C1932 C1946 1.377 . S
C1933 C1932 1.524 . S
C1933 C1934 1.397 . S
C1933 C1938 1.363 . S
C1934 H1911 0.950 . S
C1934 C1933 1.397 . S
C1934 C1935 1.334 . S
C1935 H1912 0.950 . S
C1935 C1934 1.334 . S
C1935 C1936 1.287 . S
C1936 C1935 1.287 . S
C1936 C1937 1.524 . S
C1936 H1955 0.913 . S
C1937 H1913 0.950 . S
C1937 C1936 1.524 . S
C1937 C1938 1.415 . S
C1938 H1914 0.950 . S
C1938 C1933 1.363 . S
C1938 C1937 1.415 . S
C1939 H1915 0.951 . S
C1939 C1940 1.366 . S
C1939 C1941 1.388 . S
C1940 C1939 1.366 . S
C1940 C1944 1.385 . S
C1941 H1916 0.951 . S
C1941 C1939 1.388 . S
C1941 C1942 1.366 . S
C1942 C1941 1.366 . S
C1942 C1943 1.414 . S
C1942 C1945 1.499 . S
C1943 H1917 0.950 . S
C1943 C1942 1.414 . S
C1943 C1944 1.374 . S
C1944 H1918 0.950 . S
C1944 C1940 1.385 . S
C1944 C1943 1.374 . S
C1945 C1942 1.499 . S
C1945 C1946 1.373 . S
C1945 C1947 1.389 . S
C1946 H1919 0.950 . S
C1946 C1932 1.377 . S
C1946 C1945 1.373 . S
C1947 C1931 1.377 . S
C1947 C1945 1.389 . S
C1947 C1948 1.524 . S
C1948 C1947 1.524 . S
C1948 C1949 1.397 . S
C1948 C1953 1.363 . S
C1949 H1920 0.950 . S
C1949 C1948 1.397 . S
C1949 C1950 1.334 . S
C1950 H1921 0.950 . S
C1950 C1949 1.334 . S
C1950 C1951 1.287 . S
C1951 C1950 1.287 . S
C1951 C1952 1.524 . S
C1951 H1954 0.999 . S
C1952 H1922 0.950 . S
C1952 C1951 1.524 . S
C1952 C1953 1.415 . S
C1953 H1923 0.950 . S
C1953 C1948 1.363 . S
C1953 C1952 1.415 . S
H1954 C1951 0.999 . S
H1955 C1936 0.913 . S
H1956 C1974 0.951 . S
H1957 C1976 0.951 . S
H1958 C1978 0.950 . S
H1959 C1979 0.950 . S
H1960 C1981 0.950 . S
H1961 C1984 0.950 . S
H1962 C1985 0.950 . S
H1963 C1987 0.950 . S
H1964 C1988 0.950 . S
H1965 C1989 0.951 . S
H1966 C1991 0.951 . S
H1967 C1993 0.950 . S
H1968 C1994 0.950 . S
H1969 C1996 0.950 . S
H1970 C1999 0.950 . S
H1971 C2000 0.950 . S
H1972 C2002 0.950 . S
H1973 C2003 0.950 . S
C1974 H1956 0.951 . S
C1974 C1975 1.366 . S
C1974 C1976 1.388 . S
C1975 C1974 1.366 . S
C1975 C1979 1.385 . S
C1976 H1957 0.951 . S
C1976 C1974 1.388 . S
C1976 C1977 1.366 . S
C1977 C1976 1.366 . S
C1977 C1978 1.414 . S
C1977 C1980 1.499 . S
C1978 H1958 0.950 . S
C1978 C1977 1.414 . S
C1978 C1979 1.374 . S
C1979 H1959 0.950 . S
C1979 C1975 1.385 . S
C1979 C1978 1.374 . S
C1980 C1977 1.499 . S
C1980 C1981 1.373 . S
C1980 C1982 1.389 . S
C1981 H1960 0.950 . S
C1981 C1980 1.373 . S
C1981 C1997 1.377 . S
C1982 C1980 1.389 . S
C1982 C1983 1.524 . S
C1982 C1996 1.377 . S
C1983 C1982 1.524 . S
C1983 C1984 1.397 . S
C1983 C1988 1.363 . S
C1984 H1961 0.950 . S
C1984 C1983 1.397 . S
C1984 C1985 1.334 . S
C1985 H1962 0.950 . S
C1985 C1984 1.334 . S
C1985 C1986 1.287 . S
C1986 C1985 1.287 . S
C1986 C1987 1.524 . S
C1986 H2005 0.913 . S
C1987 H1963 0.950 . S
C1987 C1986 1.524 . S
C1987 C1988 1.415 . S
C1988 H1964 0.950 . S
C1988 C1983 1.363 . S
C1988 C1987 1.415 . S
C1989 H1965 0.951 . S
C1989 C1990 1.366 . S
C1989 C1991 1.388 . S
C1990 C1989 1.366 . S
C1990 C1994 1.385 . S
C1991 H1966 0.951 . S
C1991 C1989 1.388 . S
C1991 C1992 1.366 . S
C1992 C1991 1.366 . S
C1992 C1993 1.414 . S
C1992 C1995 1.499 . S
C1993 H1967 0.950 . S
C1993 C1992 1.414 . S
C1993 C1994 1.374 . S
C1994 H1968 0.950 . S
C1994 C1990 1.385 . S
C1994 C1993 1.374 . S
C1995 C1992 1.499 . S
C1995 C1996 1.373 . S
C1995 C1997 1.389 . S
C1996 H1969 0.950 . S
C1996 C1982 1.377 . S
C1996 C1995 1.373 . S
C1997 C1981 1.377 . S
C1997 C1995 1.389 . S
C1997 C1998 1.524 . S
C1998 C1997 1.524 . S
C1998 C1999 1.397 . S
C1998 C2003 1.363 . S
C1999 H1970 0.950 . S
C1999 C1998 1.397 . S
C1999 C2000 1.334 . S
C2000 H1971 0.950 . S
C2000 C1999 1.334 . S
C2000 C2001 1.287 . S
C2001 C2000 1.287 . S
C2001 C2002 1.524 . S
C2001 H2004 0.999 . S
C2002 H1972 0.950 . S
C2002 C2001 1.524 . S
C2002 C2003 1.415 . S
C2003 H1973 0.950 . S
C2003 C1998 1.363 . S
C2003 C2002 1.415 . S
H2004 C2001 0.999 . S
H2005 C1986 0.913 . S
H2006 C2024 0.951 . S
H2007 C2026 0.951 . S
H2008 C2028 0.950 . S
H2009 C2029 0.950 . S
H2010 C2031 0.950 . S
H2011 C2034 0.950 . S
H2012 C2035 0.950 . S
H2013 C2037 0.950 . S
H2014 C2038 0.950 . S
H2015 C2039 0.951 . S
H2016 C2041 0.951 . S
H2017 C2043 0.950 . S
H2018 C2044 0.950 . S
H2019 C2046 0.950 . S
H2020 C2049 0.950 . S
H2021 C2050 0.950 . S
H2022 C2052 0.950 . S
H2023 C2053 0.950 . S
C2024 H2006 0.951 . S
C2024 C2025 1.366 . S
C2024 C2026 1.388 . S
C2025 C2024 1.366 . S
C2025 C2029 1.385 . S
C2026 H2007 0.951 . S
C2026 C2024 1.388 . S
C2026 C2027 1.366 . S
C2027 C2026 1.366 . S
C2027 C2028 1.414 . S
C2027 C2030 1.499 . S
C2028 H2008 0.950 . S
C2028 C2027 1.414 . S
C2028 C2029 1.374 . S
C2029 H2009 0.950 . S
C2029 C2025 1.385 . S
C2029 C2028 1.374 . S
C2030 C2027 1.499 . S
C2030 C2031 1.373 . S
C2030 C2032 1.389 . S
C2031 H2010 0.950 . S
C2031 C2030 1.373 . S
C2031 C2047 1.377 . S
C2032 C2030 1.389 . S
C2032 C2033 1.524 . S
C2032 C2046 1.377 . S
C2033 C2032 1.524 . S
C2033 C2034 1.397 . S
C2033 C2038 1.363 . S
C2034 H2011 0.950 . S
C2034 C2033 1.397 . S
C2034 C2035 1.334 . S
C2035 H2012 0.950 . S
C2035 C2034 1.334 . S
C2035 C2036 1.287 . S
C2036 C2035 1.287 . S
C2036 C2037 1.524 . S
C2036 H2055 0.913 . S
C2037 H2013 0.950 . S
C2037 C2036 1.524 . S
C2037 C2038 1.415 . S
C2038 H2014 0.950 . S
C2038 C2033 1.363 . S
C2038 C2037 1.415 . S
C2039 H2015 0.951 . S
C2039 C2040 1.366 . S
C2039 C2041 1.388 . S
C2040 C2039 1.366 . S
C2040 C2044 1.385 . S
C2041 H2016 0.951 . S
C2041 C2039 1.388 . S
C2041 C2042 1.366 . S
C2042 C2041 1.366 . S
C2042 C2043 1.414 . S
C2042 C2045 1.499 . S
C2043 H2017 0.950 . S
C2043 C2042 1.414 . S
C2043 C2044 1.374 . S
C2044 H2018 0.950 . S
C2044 C2040 1.385 . S
C2044 C2043 1.374 . S
C2045 C2042 1.499 . S
C2045 C2046 1.373 . S
C2045 C2047 1.389 . S
C2046 H2019 0.950 . S
C2046 C2032 1.377 . S
C2046 C2045 1.373 . S
C2047 C2031 1.377 . S
C2047 C2045 1.389 . S
C2047 C2048 1.524 . S
C2048 C2047 1.524 . S
C2048 C2049 1.397 . S
C2048 C2053 1.363 . S
C2049 H2020 0.950 . S
C2049 C2048 1.397 . S
C2049 C2050 1.334 . S
C2050 H2021 0.950 . S
C2050 C2049 1.334 . S
C2050 C2051 1.287 . S
C2051 C2050 1.287 . S
C2051 C2052 1.524 . S
C2051 H2054 0.999 . S
C2052 H2022 0.950 . S
C2052 C2051 1.524 . S
C2052 C2053 1.415 . S
C2053 H2023 0.950 . S
C2053 C2048 1.363 . S
C2053 C2052 1.415 . S
H2054 C2051 0.999 . S
H2055 C2036 0.913 . S
H2056 C2074 0.951 . S
H2057 C2076 0.951 . S
H2058 C2078 0.950 . S
H2059 C2079 0.950 . S
H2060 C2081 0.950 . S
H2061 C2084 0.950 . S
H2062 C2085 0.950 . S
H2063 C2087 0.950 . S
H2064 C2088 0.950 . S
H2065 C2089 0.951 . S
H2066 C2091 0.951 . S
H2067 C2093 0.950 . S
H2068 C2094 0.950 . S
H2069 C2096 0.950 . S
H2070 C2099 0.950 . S
H2071 C2100 0.950 . S
H2072 C2102 0.950 . S
H2073 C2103 0.950 . S
C2074 H2056 0.951 . S
C2074 C2075 1.366 . S
C2074 C2076 1.388 . S
C2075 C2074 1.366 . S
C2075 C2079 1.385 . S
C2076 H2057 0.951 . S
C2076 C2074 1.388 . S
C2076 C2077 1.366 . S
C2077 C2076 1.366 . S
C2077 C2078 1.414 . S
C2077 C2080 1.499 . S
C2078 H2058 0.950 . S
C2078 C2077 1.414 . S
C2078 C2079 1.374 . S
C2079 H2059 0.950 . S
C2079 C2075 1.385 . S
C2079 C2078 1.374 . S
C2080 C2077 1.499 . S
C2080 C2081 1.373 . S
C2080 C2082 1.389 . S
C2081 H2060 0.950 . S
C2081 C2080 1.373 . S
C2081 C2097 1.377 . S
C2082 C2080 1.389 . S
C2082 C2083 1.524 . S
C2082 C2096 1.377 . S
C2083 C2082 1.524 . S
C2083 C2084 1.397 . S
C2083 C2088 1.363 . S
C2084 H2061 0.950 . S
C2084 C2083 1.397 . S
C2084 C2085 1.334 . S
C2085 H2062 0.950 . S
C2085 C2084 1.334 . S
C2085 C2086 1.287 . S
C2086 C2085 1.287 . S
C2086 C2087 1.524 . S
C2086 H2105 0.913 . S
C2087 H2063 0.950 . S
C2087 C2086 1.524 . S
C2087 C2088 1.415 . S
C2088 H2064 0.950 . S
C2088 C2083 1.363 . S
C2088 C2087 1.415 . S
C2089 H2065 0.951 . S
C2089 C2090 1.366 . S
C2089 C2091 1.388 . S
C2090 C2089 1.366 . S
C2090 C2094 1.385 . S
C2091 H2066 0.951 . S
C2091 C2089 1.388 . S
C2091 C2092 1.366 . S
C2092 C2091 1.366 . S
C2092 C2093 1.414 . S
C2092 C2095 1.499 . S
C2093 H2067 0.950 . S
C2093 C2092 1.414 . S
C2093 C2094 1.374 . S
C2094 H2068 0.950 . S
C2094 C2090 1.385 . S
C2094 C2093 1.374 . S
C2095 C2092 1.499 . S
C2095 C2096 1.373 . S
C2095 C2097 1.389 . S
C2096 H2069 0.950 . S
C2096 C2082 1.377 . S
C2096 C2095 1.373 . S
C2097 C2081 1.377 . S
C2097 C2095 1.389 . S
C2097 C2098 1.524 . S
C2098 C2097 1.524 . S
C2098 C2099 1.397 . S
C2098 C2103 1.363 . S
C2099 H2070 0.950 . S
C2099 C2098 1.397 . S
C2099 C2100 1.334 . S
C2100 H2071 0.950 . S
C2100 C2099 1.334 . S
C2100 C2101 1.287 . S
C2101 C2100 1.287 . S
C2101 C2102 1.524 . S
C2101 H2104 0.999 . S
C2102 H2072 0.950 . S
C2102 C2101 1.524 . S
C2102 C2103 1.415 . S
C2103 H2073 0.950 . S
C2103 C2098 1.363 . S
C2103 C2102 1.415 . S
H2104 C2101 0.999 . S
H2105 C2086 0.913 . S
H2106 C2124 0.951 . S
H2107 C2126 0.951 . S
H2108 C2128 0.950 . S
H2109 C2129 0.950 . S
H2110 C2131 0.950 . S
H2111 C2134 0.950 . S
H2112 C2135 0.950 . S
H2113 C2137 0.950 . S
H2114 C2138 0.950 . S
H2115 C2139 0.951 . S
H2116 C2141 0.951 . S
H2117 C2143 0.950 . S
H2118 C2144 0.950 . S
H2119 C2146 0.950 . S
H2120 C2149 0.950 . S
H2121 C2150 0.950 . S
H2122 C2152 0.950 . S
H2123 C2153 0.950 . S
C2124 H2106 0.951 . S
C2124 C2125 1.366 . S
C2124 C2126 1.388 . S
C2125 C2124 1.366 . S
C2125 C2129 1.385 . S
C2126 H2107 0.951 . S
C2126 C2124 1.388 . S
C2126 C2127 1.366 . S
C2127 C2126 1.366 . S
C2127 C2128 1.414 . S
C2127 C2130 1.499 . S
C2128 H2108 0.950 . S
C2128 C2127 1.414 . S
C2128 C2129 1.374 . S
C2129 H2109 0.950 . S
C2129 C2125 1.385 . S
C2129 C2128 1.374 . S
C2130 C2127 1.499 . S
C2130 C2131 1.373 . S
C2130 C2132 1.389 . S
C2131 H2110 0.950 . S
C2131 C2130 1.373 . S
C2131 C2147 1.377 . S
C2132 C2130 1.389 . S
C2132 C2133 1.524 . S
C2132 C2146 1.377 . S
C2133 C2132 1.524 . S
C2133 C2134 1.397 . S
C2133 C2138 1.363 . S
C2134 H2111 0.950 . S
C2134 C2133 1.397 . S
C2134 C2135 1.334 . S
C2135 H2112 0.950 . S
C2135 C2134 1.334 . S
C2135 C2136 1.287 . S
C2136 C2135 1.287 . S
C2136 C2137 1.524 . S
C2136 H2155 0.913 . S
C2137 H2113 0.950 . S
C2137 C2136 1.524 . S
C2137 C2138 1.415 . S
C2138 H2114 0.950 . S
C2138 C2133 1.363 . S
C2138 C2137 1.415 . S
C2139 H2115 0.951 . S
C2139 C2140 1.366 . S
C2139 C2141 1.388 . S
C2140 C2139 1.366 . S
C2140 C2144 1.385 . S
C2141 H2116 0.951 . S
C2141 C2139 1.388 . S
C2141 C2142 1.366 . S
C2142 C2141 1.366 . S
C2142 C2143 1.414 . S
C2142 C2145 1.499 . S
C2143 H2117 0.950 . S
C2143 C2142 1.414 . S
C2143 C2144 1.374 . S
C2144 H2118 0.950 . S
C2144 C2140 1.385 . S
C2144 C2143 1.374 . S
C2145 C2142 1.499 . S
C2145 C2146 1.373 . S
C2145 C2147 1.389 . S
C2146 H2119 0.950 . S
C2146 C2132 1.377 . S
C2146 C2145 1.373 . S
C2147 C2131 1.377 . S
C2147 C2145 1.389 . S
C2147 C2148 1.524 . S
C2148 C2147 1.524 . S
C2148 C2149 1.397 . S
C2148 C2153 1.363 . S
C2149 H2120 0.950 . S
C2149 C2148 1.397 . S
C2149 C2150 1.334 . S
C2150 H2121 0.950 . S
C2150 C2149 1.334 . S
C2150 C2151 1.287 . S
C2151 C2150 1.287 . S
C2151 C2152 1.524 . S
C2151 H2154 0.999 . S
C2152 H2122 0.950 . S
C2152 C2151 1.524 . S
C2152 C2153 1.415 . S
C2153 H2123 0.950 . S
C2153 C2148 1.363 . S
C2153 C2152 1.415 . S
H2154 C2151 0.999 . S
H2155 C2136 0.913 . S
H2156 C2174 0.951 . S
H2157 C2176 0.951 . S
H2158 C2178 0.950 . S
H2159 C2179 0.950 . S
H2160 C2181 0.950 . S
H2161 C2184 0.950 . S
H2162 C2185 0.950 . S
H2163 C2187 0.950 . S
H2164 C2188 0.950 . S
H2165 C2189 0.951 . S
H2166 C2191 0.951 . S
H2167 C2193 0.950 . S
H2168 C2194 0.950 . S
H2169 C2196 0.950 . S
H2170 C2199 0.950 . S
H2171 C2200 0.950 . S
H2172 C2202 0.950 . S
H2173 C2203 0.950 . S
C2174 H2156 0.951 . S
C2174 C2175 1.366 . S
C2174 C2176 1.388 . S
C2175 C2174 1.366 . S
C2175 C2179 1.385 . S
C2176 H2157 0.951 . S
C2176 C2174 1.388 . S
C2176 C2177 1.366 . S
C2177 C2176 1.366 . S
C2177 C2178 1.414 . S
C2177 C2180 1.499 . S
C2178 H2158 0.950 . S
C2178 C2177 1.414 . S
C2178 C2179 1.374 . S
C2179 H2159 0.950 . S
C2179 C2175 1.385 . S
C2179 C2178 1.374 . S
C2180 C2177 1.499 . S
C2180 C2181 1.373 . S
C2180 C2182 1.389 . S
C2181 H2160 0.950 . S
C2181 C2180 1.373 . S
C2181 C2197 1.377 . S
C2182 C2180 1.389 . S
C2182 C2183 1.524 . S
C2182 C2196 1.377 . S
C2183 C2182 1.524 . S
C2183 C2184 1.397 . S
C2183 C2188 1.363 . S
C2184 H2161 0.950 . S
C2184 C2183 1.397 . S
C2184 C2185 1.334 . S
C2185 H2162 0.950 . S
C2185 C2184 1.334 . S
C2185 C2186 1.287 . S
C2186 C2185 1.287 . S
C2186 C2187 1.524 . S
C2186 H2205 0.913 . S
C2187 H2163 0.950 . S
C2187 C2186 1.524 . S
C2187 C2188 1.415 . S
C2188 H2164 0.950 . S
C2188 C2183 1.363 . S
C2188 C2187 1.415 . S
C2189 H2165 0.951 . S
C2189 C2190 1.366 . S
C2189 C2191 1.388 . S
C2190 C2189 1.366 . S
C2190 C2194 1.385 . S
C2191 H2166 0.951 . S
C2191 C2189 1.388 . S
C2191 C2192 1.366 . S
C2192 C2191 1.366 . S
C2192 C2193 1.414 . S
C2192 C2195 1.499 . S
C2193 H2167 0.950 . S
C2193 C2192 1.414 . S
C2193 C2194 1.374 . S
C2194 H2168 0.950 . S
C2194 C2190 1.385 . S
C2194 C2193 1.374 . S
C2195 C2192 1.499 . S
C2195 C2196 1.373 . S
C2195 C2197 1.389 . S
C2196 H2169 0.950 . S
C2196 C2182 1.377 . S
C2196 C2195 1.373 . S
C2197 C2181 1.377 . S
C2197 C2195 1.389 . S
C2197 C2198 1.524 . S
C2198 C2197 1.524 . S
C2198 C2199 1.397 . S
C2198 C2203 1.363 . S
C2199 H2170 0.950 . S
C2199 C2198 1.397 . S
C2199 C2200 1.334 . S
C2200 H2171 0.950 . S
C2200 C2199 1.334 . S
C2200 C2201 1.287 . S
C2201 C2200 1.287 . S
C2201 C2202 1.524 . S
C2201 H2204 0.999 . S
C2202 H2172 0.950 . S
C2202 C2201 1.524 . S
C2202 C2203 1.415 . S
C2203 H2173 0.950 . S
C2203 C2198 1.363 . S
C2203 C2202 1.415 . S
H2204 C2201 0.999 . S
H2205 C2186 0.913 . S
H2206 C2224 0.951 . S
H2207 C2226 0.951 . S
H2208 C2228 0.950 . S
H2209 C2229 0.950 . S
H2210 C2231 0.950 . S
H2211 C2234 0.950 . S
H2212 C2235 0.950 . S
H2213 C2237 0.950 . S
H2214 C2238 0.950 . S
H2215 C2239 0.951 . S
H2216 C2241 0.951 . S
H2217 C2243 0.950 . S
H2218 C2244 0.950 . S
H2219 C2246 0.950 . S
H2220 C2249 0.950 . S
H2221 C2250 0.950 . S
H2222 C2252 0.950 . S
H2223 C2253 0.950 . S
C2224 H2206 0.951 . S
C2224 C2225 1.366 . S
C2224 C2226 1.388 . S
C2225 C2224 1.366 . S
C2225 C2229 1.385 . S
C2226 H2207 0.951 . S
C2226 C2224 1.388 . S
C2226 C2227 1.366 . S
C2227 C2226 1.366 . S
C2227 C2228 1.414 . S
C2227 C2230 1.499 . S
C2228 H2208 0.950 . S
C2228 C2227 1.414 . S
C2228 C2229 1.374 . S
C2229 H2209 0.950 . S
C2229 C2225 1.385 . S
C2229 C2228 1.374 . S
C2230 C2227 1.499 . S
C2230 C2231 1.373 . S
C2230 C2232 1.389 . S
C2231 H2210 0.950 . S
C2231 C2230 1.373 . S
C2231 C2247 1.377 . S
C2232 C2230 1.389 . S
C2232 C2233 1.524 . S
C2232 C2246 1.377 . S
C2233 C2232 1.524 . S
C2233 C2234 1.397 . S
C2233 C2238 1.363 . S
C2234 H2211 0.950 . S
C2234 C2233 1.397 . S
C2234 C2235 1.334 . S
C2235 H2212 0.950 . S
C2235 C2234 1.334 . S
C2235 C2236 1.287 . S
C2236 C2235 1.287 . S
C2236 C2237 1.524 . S
C2236 H2255 0.913 . S
C2237 H2213 0.950 . S
C2237 C2236 1.524 . S
C2237 C2238 1.415 . S
C2238 H2214 0.950 . S
C2238 C2233 1.363 . S
C2238 C2237 1.415 . S
C2239 H2215 0.951 . S
C2239 C2240 1.366 . S
C2239 C2241 1.388 . S
C2240 C2239 1.366 . S
C2240 C2244 1.385 . S
C2241 H2216 0.951 . S
C2241 C2239 1.388 . S
C2241 C2242 1.366 . S
C2242 C2241 1.366 . S
C2242 C2243 1.414 . S
C2242 C2245 1.499 . S
C2243 H2217 0.950 . S
C2243 C2242 1.414 . S
C2243 C2244 1.374 . S
C2244 H2218 0.950 . S
C2244 C2240 1.385 . S
C2244 C2243 1.374 . S
C2245 C2242 1.499 . S
C2245 C2246 1.373 . S
C2245 C2247 1.389 . S
C2246 H2219 0.950 . S
C2246 C2232 1.377 . S
C2246 C2245 1.373 . S
C2247 C2231 1.377 . S
C2247 C2245 1.389 . S
C2247 C2248 1.524 . S
C2248 C2247 1.524 . S
C2248 C2249 1.397 . S
C2248 C2253 1.363 . S
C2249 H2220 0.950 . S
C2249 C2248 1.397 . S
C2249 C2250 1.334 . S
C2250 H2221 0.950 . S
C2250 C2249 1.334 . S
C2250 C2251 1.287 . S
C2251 C2250 1.287 . S
C2251 C2252 1.524 . S
C2251 H2254 0.999 . S
C2252 H2222 0.950 . S
C2252 C2251 1.524 . S
C2252 C2253 1.415 . S
C2253 H2223 0.950 . S
C2253 C2248 1.363 . S
C2253 C2252 1.415 . S
H2254 C2251 0.999 . S
H2255 C2236 0.913 . S
C690 C407 1.203 . S
C675 C8 1.184 . S
C740 C444 1.188 . S
C725 C61 1.187 . S
C790 C480 1.204 . S
C775 C107 1.198 . S
C825 C139 1.197 . S
C840 C371 1.219 . S
C875 C192 1.205 . S
C890 C372 1.208 . S
C925 C238 1.193 . S
C940 C408 1.191 . S
C990 C443 1.206 . S
C975 C284 1.188 . S
C1040 C479 1.222 . S
C1025 C330 1.200 . S
C1075 C100 1.188 . S
C1090 C551 1.206 . S
C1140 C588 1.192 . S
C1125 C160 1.191 . S
C1175 C15 1.203 . S
C1190 C624 1.207 . S
C1240 C515 1.222 . S
C1225 C54 1.200 . S
C1275 C291 1.199 . S
C1290 C516 1.203 . S
C1325 C337 1.188 . S
C1340 C552 1.188 . S
C1390 C587 1.203 . S
C1375 C199 1.182 . S
C1425 C245 1.193 . S
C1440 C623 1.219 . S
C1490 C442 1.632 . S
C1475 C1 1.631 . S
C1540 C478 1.613 . S
C1525 C68 1.606 . S
C1575 C114 1.559 . S
C1590 C382 1.442 . S
C1625 C146 1.585 . S
C1640 C418 1.462 . S
C1675 C185 1.571 . S
C1690 C490 1.449 . S
C1740 C370 1.620 . S
C1725 C231 1.619 . S
C1790 C406 1.638 . S
C1775 C277 1.637 . S
C1840 C454 1.467 . S
C1825 C323 1.590 . S
C1890 C586 1.638 . S
C1875 C93 1.637 . S
C1940 C622 1.619 . S
C1925 C153 1.611 . S
C1975 C22 1.565 . S
C1990 C526 1.448 . S
C2040 C562 1.466 . S
C2025 C47 1.590 . S
C2090 C634 1.443 . S
C2075 C298 1.559 . S
C2125 C344 1.606 . S
C2140 C514 1.614 . S
C2190 C550 1.632 . S
C2175 C206 1.625 . S
C2240 C598 1.461 . S
C2225 C252 1.579 . S
