# Generated by pormake.
# Topology anh, (6,3)-cn, num edge types: 1
# Building blocks:
#     Node 0, Type 0, BuildingBlock: BETGAK_clean_sbu_0, # of connection points: 6
#     Node 1, Type 0, BuildingBlock: BETGAK_clean_sbu_0, # of connection points: 6
#     Node 2, Type 0, BuildingBlock: BETGAK_clean_sbu_0, # of connection points: 6
#     Node 3, Type 1, BuildingBlock: ESEHIV_clean_linker_0, # of connection points: 3
#     Node 4, Type 1, BuildingBlock: ESEHIV_clean_linker_0, # of connection points: 3
#     Node 5, Type 1, BuildingBlock: ESEHIV_clean_linker_0, # of connection points: 3
#     Node 6, Type 1, BuildingBlock: ESEHIV_clean_linker_0, # of connection points: 3
#     Node 7, Type 1, BuildingBlock: ESEHIV_clean_linker_0, # of connection points: 3
#     Node 8, Type 1, BuildingBlock: ESEHIV_clean_linker_0, # of connection points: 3
#     Edge 9, Type (0, 1), BuildingBlock: MIFKUJ_clean_linker_0, # of connection points: 2
#     Edge 10, Type (0, 1), BuildingBlock: MIFKUJ_clean_linker_0, # of connection points: 2
#     Edge 11, Type (0, 1), BuildingBlock: MIFKUJ_clean_linker_0, # of connection points: 2
#     Edge 12, Type (0, 1), BuildingBlock: MIFKUJ_clean_linker_0, # of connection points: 2
#     Edge 13, Type (0, 1), BuildingBlock: MIFKUJ_clean_linker_0, # of connection points: 2
#     Edge 14, Type (0, 1), BuildingBlock: MIFKUJ_clean_linker_0, # of connection points: 2
#     Edge 15, Type (0, 1), BuildingBlock: MIFKUJ_clean_linker_0, # of connection points: 2
#     Edge 16, Type (0, 1), BuildingBlock: MIFKUJ_clean_linker_0, # of connection points: 2
#     Edge 17, Type (0, 1), BuildingBlock: MIFKUJ_clean_linker_0, # of connection points: 2
#     Edge 18, Type (0, 1), BuildingBlock: MIFKUJ_clean_linker_0, # of connection points: 2
#     Edge 19, Type (0, 1), BuildingBlock: MIFKUJ_clean_linker_0, # of connection points: 2
#     Edge 20, Type (0, 1), BuildingBlock: MIFKUJ_clean_linker_0, # of connection points: 2
#     Edge 21, Type (0, 1), BuildingBlock: MIFKUJ_clean_linker_0, # of connection points: 2
#     Edge 22, Type (0, 1), BuildingBlock: MIFKUJ_clean_linker_0, # of connection points: 2
#     Edge 23, Type (0, 1), BuildingBlock: MIFKUJ_clean_linker_0, # of connection points: 2
#     Edge 24, Type (0, 1), BuildingBlock: MIFKUJ_clean_linker_0, # of connection points: 2
#     Edge 25, Type (0, 1), BuildingBlock: MIFKUJ_clean_linker_0, # of connection points: 2
#     Edge 26, Type (0, 1), BuildingBlock: MIFKUJ_clean_linker_0, # of connection points: 2
# Relax obj value: 0.183
# Max RMSD: 0.206
# Mean RMSD: 0.155
data_MOF--net-anh--node1-BETGAK_clean_sbu_0--node2-ESEHIV_clean_linker_0--edge1-MIFKUJ_clean_linker_0
_symmetry_space_group_name_H-M    P1
_symmetry_Int_Tables_number       1
_symmetry_cell_setting            triclinic
loop_
_symmetry_equiv_pos_as_xyz
'x, y, z'
_cell_length_a     38.03404
_cell_length_b     43.771868
_cell_length_c     67.54339
_cell_angle_alpha  92.028824
_cell_angle_beta   89.320643
_cell_angle_gamma 128.22145
loop_
_atom_site_label
_atom_site_type_symbol
_atom_site_fract_x
_atom_site_fract_y
_atom_site_fract_z
_atom_type_partial_charge
La0 La 0.11604 0.53925 0.14489 0.0
La1 La 0.06889 0.57049 0.15878 0.0
C2 C 0.1648 0.528 0.12625 0.0
C3 C 0.21079 0.54173 0.12976 0.0
C4 C 0.22213 0.53339 0.14739 0.0
C5 C 0.26503 0.54487 0.15028 0.0
C6 C 0.2979 0.56538 0.13574 0.0
C7 C 0.28704 0.5752 0.11846 0.0
C8 C 0.24379 0.56331 0.11548 0.0
C9 C 0.10772 0.53962 0.1835 0.0
C10 C 0.17163 0.63204 0.15364 0.0
C11 C 1.01959 0.58188 0.17695 0.0
C12 C 0.97398 0.55562 0.18483 0.0
C13 C 0.94136 0.55809 0.17781 0.0
C14 C 0.89659 0.53022 0.18268 0.0
C15 C 0.88346 0.49947 0.19493 0.0
C16 C 0.9166 0.49827 0.20282 0.0
C17 C 0.96147 0.52596 0.19774 0.0
C18 C 0.07886 0.5692 0.12002 0.0
C19 C 1.01466 0.4789 0.15265 0.0
O20 O 0.13488 0.50401 0.1391 0.0
O21 O 0.16071 0.55443 0.12151 0.0
O22 O 0.11 0.51509 0.1736 0.0
O23 O 0.11528 0.56519 0.17212 0.0
O24 O 0.17069 0.60309 0.14601 0.0
O25 O 0.13552 0.62561 0.16127 0.0
O26 O 1.02217 0.58105 0.15763 0.0
O27 O 1.05053 0.58242 0.18564 0.0
O28 O 0.08073 0.59626 0.12972 0.0
O29 O 0.06915 0.54343 0.13175 0.0
O30 O 1.01902 0.50753 0.16279 0.0
O31 O 1.04708 0.48622 0.14094 0.0
H32 H 0.19764 0.51715 0.15883 0.0
H33 H 0.27165 0.53603 0.16359 0.0
H34 H 0.31167 0.59138 0.10707 0.0
H35 H 0.23595 0.57049 0.10188 0.0
H36 H 0.95024 0.58062 0.16778 0.0
H37 H 0.87211 0.53183 0.17595 0.0
H38 H 0.90764 0.47534 0.21249 0.0
H39 H 0.98597 0.52329 0.2034 0.0
La40 La 0.60879 0.02802 0.48064 0.0
La41 La 0.55317 0.05237 0.47067 0.0
C42 C 0.64135 0.99973 0.49742 0.0
C43 C 0.63098 0.96214 0.50159 0.0
C44 C 0.66603 0.95974 0.50143 0.0
C45 C 0.65827 0.92527 0.50614 0.0
C46 C 0.61518 0.89232 0.51118 0.0
C47 C 0.57977 0.89452 0.51099 0.0
C48 C 0.58764 0.92923 0.50629 0.0
C49 C 0.60691 0.03931 0.4428 0.0
C50 C 0.50372 0.96338 0.47103 0.0
C51 C 0.52257 0.08522 0.45779 0.0
C52 C 0.53038 0.1214 0.46442 0.0
C53 C 0.55115 0.13911 0.48283 0.0
C54 C 0.55717 0.17259 0.48964 0.0
C55 C 0.54298 0.18942 0.47809 0.0
C56 C 0.52287 0.17185 0.45945 0.0
C57 C 0.51656 0.13809 0.45271 0.0
C58 C 0.55913 0.04432 0.5088 0.0
C59 C 0.65981 0.11688 0.47636 0.0
O60 O 0.64853 1.00974 0.47892 0.0
O61 O 0.6177 1.00827 0.50653 0.0
O62 O 0.64075 0.04543 0.45181 0.0
O63 O 0.57433 0.02397 0.45443 0.0
O64 O 0.53978 0.97236 0.48033 0.0
O65 O 0.50426 0.99065 0.46275 0.0
O66 O 0.50176 0.05733 0.47044 0.0
O67 O 0.55699 0.08937 0.45012 0.0
O68 O 0.52429 0.03704 0.50037 0.0
O69 O 0.58979 0.05846 0.49635 0.0
O70 O 0.62173 0.10726 0.46919 0.0
O71 O 0.66161 0.0907 0.48439 0.0
H72 H 0.69967 0.98478 0.4978 0.0
H73 H 0.68612 0.92439 0.50578 0.0
H74 H 0.54627 0.86977 0.51494 0.0
H75 H 0.56009 0.93049 0.5066 0.0
H76 H 0.56212 0.12665 0.49209 0.0
H77 H 0.5721 0.18475 0.50418 0.0
H78 H 0.51215 0.18426 0.45001 0.0
H79 H 0.5007 0.12491 0.4384 0.0
La80 La 0.60128 0.55998 0.84812 0.0
La81 La 0.53958 0.47407 0.85181 0.0
C82 C 0.64025 0.62795 0.83616 0.0
C83 C 0.63019 0.65415 0.83032 0.0
C84 C 0.6133 0.66724 0.84382 0.0
C85 C 0.60771 0.69457 0.83827 0.0
C86 C 0.61889 0.70945 0.8191 0.0
C87 C 0.63481 0.69553 0.80553 0.0
C88 C 0.64042 0.6683 0.81108 0.0
C89 C 0.58894 0.53543 0.8843 0.0
C90 C 0.49366 0.51509 0.85237 0.0
C91 C 0.5035 0.40538 0.8614 0.0
C92 C 0.51079 0.37717 0.85481 0.0
C93 C 0.52465 0.37743 0.8354 0.0
C94 C 0.53025 0.34998 0.82897 0.0
C95 C 0.52272 0.32202 0.84188 0.0
C96 C 0.51007 0.3225 0.86149 0.0
C97 C 0.50397 0.34976 0.86786 0.0
C98 C 0.55276 0.49709 0.8151 0.0
C99 C 0.64842 0.52016 0.85033 0.0
O100 O 0.63653 0.61959 0.85488 0.0
O101 O 0.62509 0.59767 0.82438 0.0
O102 O 0.62685 0.56607 0.87812 0.0
O103 O 0.55969 0.52153 0.87089 0.0
O104 O 0.53342 0.5461 0.8461 0.0
O105 O 0.48987 0.48434 0.85821 0.0
O106 O 0.487 0.41438 0.84801 0.0
O107 O 0.53629 0.43614 0.87154 0.0
O108 O 0.5159 0.46595 0.82142 0.0
O109 O 0.58174 0.51222 0.82877 0.0
O110 O 0.60713 0.48743 0.85343 0.0
O111 O 0.6541 0.55257 0.84629 0.0
H112 H 0.60521 0.657 0.8588 0.0
H113 H 0.59588 0.70486 0.84922 0.0
H114 H 0.64319 0.70578 0.79057 0.0
H115 H 0.65351 0.65874 0.80037 0.0
H116 H 0.53085 0.3987 0.82513 0.0
H117 H 0.5407 0.35075 0.81389 0.0
H118 H 0.50391 0.30125 0.87175 0.0
H119 H 0.49358 0.34925 0.88293 0.0
H120 H 0.53516 0.99477 0.22608 0.0
H121 H 0.65065 0.11533 0.22977 0.0
H122 H 0.59586 0.05757 0.17266 0.0
C123 C 0.56106 0.02145 0.21887 0.0
C124 C 0.56159 0.02207 0.19809 0.0
C125 C 0.5931 0.05482 0.23042 0.0
C126 C 0.6256 0.08947 0.22093 0.0
C127 C 0.62709 0.09098 0.20014 0.0
C128 C 0.59533 0.0568 0.18868 0.0
H129 H 0.59406 0.59131 0.60475 0.0
H130 H 0.58544 0.48871 0.59998 0.0
H131 H 0.58174 0.53926 0.5473 0.0
C132 C 0.59159 0.5691 0.59567 0.0
C133 C 0.5883 0.56895 0.57494 0.0
C134 C 0.58991 0.53995 0.60481 0.0
C135 C 0.58623 0.51106 0.59299 0.0
C136 C 0.5835 0.51066 0.57224 0.0
C137 C 0.58367 0.53929 0.5633 0.0
H138 H 1.02229 0.53242 0.90281 0.0
H139 H 0.12971 0.52502 0.90476 0.0
H140 H 0.07068 0.51614 0.84844 0.0
C141 C 1.04469 0.52869 0.89515 0.0
C142 C 1.04101 0.52349 0.87444 0.0
C143 C 0.07634 0.52938 0.90619 0.0
C144 C 0.10597 0.52527 0.89619 0.0
C145 C 0.10568 0.521 0.87543 0.0
C146 C 0.07247 0.52006 0.86441 0.0
H147 H 1.01608 0.47661 0.3981 0.0
H148 H 0.13406 0.59593 0.39858 0.0
H149 H 0.07903 0.53809 0.4537 0.0
C150 C 1.04256 0.50286 0.40628 0.0
C151 C 1.04332 0.50314 0.4271 0.0
C152 C 0.07507 0.5361 0.39589 0.0
C153 C 0.10863 0.57019 0.40655 0.0
C154 C 0.11057 0.57141 0.42735 0.0
C155 C 0.07818 0.53741 0.43765 0.0
H156 H 0.57167 0.06892 0.72409 0.0
H157 H 0.59427 0.98432 0.72059 0.0
H158 H 0.57944 0.02237 0.77757 0.0
C159 C 0.5756 0.04961 0.73149 0.0
C160 C 0.57455 0.04862 0.7523 0.0
C161 C 0.58281 0.02663 0.72001 0.0
C162 C 0.58959 1.00264 0.72949 0.0
C163 C 0.58825 1.00072 0.75026 0.0
C164 C 0.5807 0.02384 0.76157 0.0
H165 H 0.48441 0.41483 0.07936 0.0
H166 H 0.53918 0.35341 0.0791 0.0
H167 H 0.5114 0.38658 0.13439 0.0
C168 C 0.49448 0.40019 0.0873 0.0
C169 C 0.49514 0.40181 0.10804 0.0
C170 C 0.5106 0.38306 0.07677 0.0
C171 C 0.52596 0.36608 0.08719 0.0
C172 C 0.52512 0.36619 0.10803 0.0
C173 C 0.50993 0.38441 0.11833 0.0
H174 H 0.34868 0.58483 0.16948 0.0
H175 H 0.40666 0.5773 0.17389 0.0
H176 H 0.40338 0.55422 0.11107 0.0
H177 H 0.34449 0.55993 0.10661 0.0
H178 H 0.38347 0.50574 0.16502 0.0
H179 H 0.50129 0.57723 0.09649 0.0
H180 H 0.5434 0.63968 0.07977 0.0
H181 H 0.54369 0.69623 0.13308 0.0
H182 H 0.5022 0.63429 0.15026 0.0
H183 H 0.41865 0.39392 0.10581 0.0
H184 H 0.40515 0.43782 0.12043 0.0
H185 H 0.53634 0.50809 0.14783 0.0
H186 H 0.5496 0.4636 0.13352 0.0
H187 H 0.51515 0.54927 0.12406 0.0
H188 H 0.46048 0.46713 0.17861 0.0
H189 H 0.41869 0.405 0.19565 0.0
H190 H 0.29505 0.37262 0.17203 0.0
H191 H 0.33613 0.43428 0.15459 0.0
C192 C 0.36088 0.57884 0.15654 0.0
C193 C 0.34106 0.57201 0.13775 0.0
C194 C 0.39433 0.57496 0.15909 0.0
C195 C 0.40918 0.56511 0.14283 0.0
C196 C 0.39282 0.56234 0.1238 0.0
C197 C 0.359 0.56566 0.12127 0.0
C198 C 0.43416 0.54988 0.14579 0.0
C199 C 0.4129 0.51575 0.15644 0.0
C200 C 0.47308 0.56348 0.13494 0.0
C201 C 0.49847 0.60096 0.12468 0.0
C202 C 0.51061 0.60301 0.10472 0.0
C203 C 0.53431 0.63834 0.09514 0.0
C204 C 0.54618 0.67189 0.10535 0.0
C205 C 0.53439 0.6702 0.12517 0.0
C206 C 0.51071 0.63496 0.13483 0.0
C207 C 0.44416 0.41832 0.11527 0.0
C208 C 0.48494 0.4254 0.1187 0.0
C209 C 0.4365 0.44328 0.1236 0.0
C210 C 0.46975 0.47599 0.13524 0.0
C211 C 0.5103 0.48284 0.13897 0.0
C212 C 0.51767 0.4574 0.13092 0.0
C213 C 0.46249 0.50402 0.14216 0.0
C214 C 0.48687 0.54024 0.13328 0.0
C215 C 0.42655 0.49251 0.15471 0.0
C216 C 0.40147 0.45537 0.16525 0.0
C217 C 0.4244 0.44667 0.17694 0.0
C218 C 0.40083 0.41153 0.18669 0.0
C219 C 0.35425 0.38487 0.18492 0.0
C220 C 0.33114 0.39332 0.17341 0.0
C221 C 0.35456 0.42841 0.16362 0.0
H222 H 0.33605 0.35768 0.19247 0.0
H223 H 0.56451 0.6992 0.0979 0.0
H224 H 0.66754 0.17757 0.46076 0.0
H225 H 0.73541 0.24346 0.45568 0.0
H226 H 0.81422 0.21605 0.48303 0.0
H227 H 0.74602 0.14954 0.48827 0.0
H228 H 0.84246 0.29081 0.49442 0.0
H229 H 0.81154 0.21618 0.43449 0.0
H230 H 0.76456 0.17124 0.40659 0.0
H231 H 0.74426 0.25174 0.38726 0.0
H232 H 0.79045 0.29688 0.41526 0.0
H233 H 1.04837 0.46009 0.45403 0.0
H234 H 0.98619 0.3953 0.46559 0.0
H235 H 0.89243 0.40075 0.43392 0.0
H236 H 0.95423 0.46466 0.42214 0.0
H237 H 0.87577 0.33457 0.42524 0.0
H238 H 0.9027 0.40745 0.48607 0.0
H239 H 0.94779 0.45184 0.51445 0.0
H240 H 0.97518 0.3751 0.53212 0.0
H241 H 0.9307 0.33048 0.50368 0.0
C242 C 0.69916 0.1854 0.46586 0.0
C243 C 0.70116 0.15792 0.47481 0.0
C244 C 0.73807 0.22323 0.46289 0.0
C245 C 0.78011 0.23469 0.46872 0.0
C246 C 0.78221 0.2079 0.47836 0.0
C247 C 0.74315 0.16983 0.48129 0.0
C248 C 0.82164 0.27407 0.46388 0.0
C249 C 0.85019 0.30025 0.47927 0.0
C250 C 0.8315 0.28664 0.44414 0.0
C251 C 0.8042 0.2598 0.42709 0.0
C252 C 0.79681 0.2242 0.42437 0.0
C253 C 0.77033 0.19869 0.40853 0.0
C254 C 0.75137 0.2086 0.39518 0.0
C255 C 0.75894 0.24409 0.39762 0.0
C256 C 0.78529 0.26966 0.41347 0.0
C257 C 1.01436 0.44771 0.44995 0.0
C258 C 1.00615 0.46739 0.43716 0.0
C259 C 0.97878 0.41062 0.45651 0.0
C260 C 0.93433 0.39281 0.45061 0.0
C261 C 0.92624 0.41345 0.43857 0.0
C262 C 0.96161 0.45014 0.43193 0.0
C263 C 0.89625 0.35197 0.45582 0.0
C264 C 0.86834 0.32529 0.44042 0.0
C265 C 0.88706 0.33908 0.47554 0.0
C266 C 0.91381 0.36586 0.49262 0.0
C267 C 0.91866 0.40021 0.49591 0.0
C268 C 0.94404 0.42538 0.51202 0.0
C269 C 0.96446 0.41636 0.52504 0.0
C270 C 0.95942 0.38209 0.52201 0.0
C271 C 0.93411 0.35684 0.5059 0.0
H272 H 0.98408 0.43587 0.53752 0.0
H273 H 0.73087 0.18881 0.38292 0.0
H274 H 0.67521 0.77168 0.79555 0.0
H275 H 0.6691 0.82133 0.78595 0.0
H276 H 0.54998 0.76834 0.82089 0.0
H277 H 0.55438 0.71706 0.82969 0.0
H278 H 0.53827 0.78867 0.78721 0.0
H279 H 0.654 0.85393 0.8366 0.0
H280 H 0.72436 0.87652 0.85297 0.0
H281 H 0.79843 0.9408 0.80182 0.0
H282 H 0.72842 0.91817 0.78503 0.0
H283 H 0.53814 0.9509 0.78009 0.0
H284 H 0.54348 0.90304 0.79419 0.0
H285 H 0.65441 0.94064 0.75604 0.0
H286 H 0.6497 0.98889 0.74213 0.0
H287 H 0.6686 0.92877 0.79378 0.0
H288 H 0.55095 0.8598 0.74409 0.0
H289 H 0.48014 0.83756 0.72835 0.0
H290 H 0.40919 0.78076 0.78148 0.0
H291 H 0.47974 0.80315 0.79763 0.0
C292 C 0.64729 0.77012 0.80102 0.0
C293 C 0.61525 0.74012 0.81342 0.0
C294 C 0.64423 0.79901 0.79574 0.0
C295 C 0.60954 0.79914 0.80297 0.0
C296 C 0.57725 0.7691 0.8152 0.0
C297 C 0.58007 0.73994 0.82038 0.0
C298 C 0.60662 0.83021 0.79743 0.0
C299 C 0.56658 0.81931 0.78899 0.0
C300 C 0.64368 0.87029 0.79942 0.0
C301 C 0.68589 0.88408 0.80949 0.0
C302 C 0.68525 0.87266 0.82879 0.0
C303 C 0.72508 0.88551 0.83815 0.0
C304 C 0.76582 0.91001 0.82843 0.0
C305 C 0.76684 0.92179 0.80933 0.0
C306 C 0.7271 0.909 0.79989 0.0
C307 C 0.56408 0.94935 0.77492 0.0
C308 C 0.59336 0.97357 0.75991 0.0
C309 C 0.56686 0.92177 0.78287 0.0
C310 C 0.59901 0.91792 0.776 0.0
C311 C 0.62924 0.94297 0.76152 0.0
C312 C 0.62632 0.97036 0.75349 0.0
C313 C 0.60051 0.88712 0.78343 0.0
C314 C 0.64026 0.89811 0.79219 0.0
C315 C 0.56313 0.84717 0.78187 0.0
C316 C 0.52068 0.8335 0.77213 0.0
C317 C 0.5203 0.84282 0.75246 0.0
C318 C 0.48021 0.83015 0.74346 0.0
C319 C 0.44021 0.80785 0.75392 0.0
C320 C 0.44021 0.79809 0.7734 0.0
C321 C 0.48023 0.81074 0.78248 0.0
H322 H 0.4092 0.79806 0.74693 0.0
H323 H 0.79662 0.91992 0.8357 0.0
H324 H 0.81538 0.50423 0.19928 0.0
H325 H 0.73653 0.45194 0.19428 0.0
H326 H 0.76152 0.36809 0.19366 0.0
H327 H 0.8416 0.42114 0.19655 0.0
H328 H 0.7171 0.35224 0.16432 0.0
H329 H 0.68413 0.36553 0.22831 0.0
H330 H 0.68752 0.39565 0.26049 0.0
H331 H 0.6419 0.45248 0.23286 0.0
H332 H 0.63893 0.42333 0.20047 0.0
H333 H 0.49113 0.32029 0.1403 0.0
H334 H 0.53172 0.30905 0.1629 0.0
H335 H 0.64592 0.37139 0.12436 0.0
H336 H 0.60523 0.38155 0.10173 0.0
H337 H 0.59689 0.3602 0.18373 0.0
H338 H 0.71683 0.3557 0.12877 0.0
H339 H 0.70841 0.31723 0.09912 0.0
H340 H 0.57078 0.22743 0.11311 0.0
H341 H 0.57847 0.26494 0.1431 0.0
C342 C 0.80419 0.47467 0.19827 0.0
C343 C 0.83509 0.46712 0.19769 0.0
C344 C 0.7586 0.44442 0.19589 0.0
C345 C 0.74246 0.40561 0.19365 0.0
C346 C 0.77291 0.39768 0.19521 0.0
C347 C 0.81885 0.42816 0.19706 0.0
C348 C 0.69612 0.37544 0.18588 0.0
C349 C 0.69051 0.35342 0.1688 0.0
C350 C 0.65984 0.37436 0.19238 0.0
C351 C 0.6611 0.39196 0.21189 0.0
C352 C 0.67494 0.38453 0.22906 0.0
C353 C 0.67681 0.40147 0.24736 0.0
C354 C 0.66486 0.4259 0.24873 0.0
C355 C 0.65099 0.43342 0.2318 0.0
C356 C 0.64904 0.41657 0.21345 0.0
C357 C 0.52445 0.33047 0.13644 0.0
C358 C 0.5452 0.35197 0.11934 0.0
C359 C 0.54757 0.32401 0.14933 0.0
C360 C 0.5919 0.33914 0.14538 0.0
C361 C 0.61141 0.35839 0.1276 0.0
C362 C 0.58818 0.36445 0.11464 0.0
C363 C 0.62082 0.34156 0.161 0.0
C364 C 0.62278 0.35783 0.17966 0.0
C365 C 0.65284 0.33592 0.15638 0.0
C366 C 0.64827 0.31323 0.13829 0.0
C367 C 0.68485 0.32759 0.12569 0.0
C368 C 0.68018 0.30597 0.10876 0.0
C369 C 0.63909 0.26993 0.10423 0.0
C370 C 0.60258 0.2554 0.11662 0.0
C371 C 0.60707 0.27686 0.13358 0.0
H372 H 0.63555 0.25325 0.09111 0.0
H373 H 0.66639 0.43902 0.26291 0.0
H374 H 0.49133 0.89826 0.48367 0.0
H375 H 0.42414 0.83033 0.4801 0.0
H376 H 0.35637 0.86623 0.45005 0.0
H377 H 0.42315 0.93416 0.45374 0.0
H378 H 0.30191 0.81217 0.4764 0.0
H379 H 0.39755 0.82572 0.42435 0.0
H380 H 0.4675 0.8425 0.41039 0.0
H381 H 0.45674 0.7583 0.4465 0.0
H382 H 0.38691 0.74134 0.46085 0.0
H383 H 0.12771 0.64095 0.42352 0.0
H384 H 0.19338 0.70514 0.43524 0.0
H385 H 0.24192 0.65215 0.46521 0.0
H386 H 0.17567 0.58737 0.45332 0.0
H387 H 0.30695 0.71254 0.44251 0.0
H388 H 0.20548 0.69452 0.49188 0.0
H389 H 0.13501 0.67821 0.50482 0.0
H390 H 0.15615 0.7713 0.47287 0.0
H391 H 0.22645 0.78784 0.4595 0.0
C392 C 0.46216 0.89178 0.47631 0.0
C393 C 0.46289 0.92188 0.46894 0.0
C394 C 0.42371 0.8528 0.47421 0.0
C395 C 0.38508 0.84292 0.46465 0.0
C396 C 0.3856 0.87296 0.45751 0.0
C397 C 0.42401 0.91189 0.45956 0.0
C398 C 0.34421 0.80141 0.46193 0.0
C399 C 0.303 0.79049 0.46885 0.0
C400 C 0.34556 0.77267 0.45254 0.0
C401 C 0.38729 0.78256 0.44383 0.0
C402 C 0.41027 0.81098 0.42942 0.0
C403 C 0.44986 0.82049 0.42141 0.0
C404 C 0.46663 0.80156 0.4276 0.0
C405 C 0.44374 0.77298 0.44175 0.0
C406 C 0.40413 0.76338 0.44981 0.0
C407 C 0.15191 0.64292 0.43297 0.0
C408 C 0.14642 0.60913 0.43761 0.0
C409 C 0.1895 0.67967 0.43968 0.0
C410 C 0.22272 0.68369 0.45122 0.0
C411 C 0.21676 0.64986 0.45637 0.0
C412 C 0.17873 0.61285 0.44976 0.0
C413 C 0.26452 0.72341 0.45677 0.0
C414 C 0.30592 0.73406 0.45032 0.0
C415 C 0.2633 0.75197 0.46649 0.0
C416 C 0.22112 0.74224 0.47457 0.0
C417 C 0.19495 0.71134 0.48749 0.0
C418 C 0.15505 0.70208 0.49493 0.0
C419 C 0.14107 0.72366 0.48965 0.0
C420 C 0.16701 0.7546 0.47695 0.0
C421 C 0.20693 0.76397 0.46945 0.0
H422 H 0.11017 0.71644 0.49542 0.0
H423 H 0.49729 0.80896 0.42139 0.0
H424 H 0.56591 0.29828 0.86004 0.0
H425 H 0.57428 0.24971 0.84758 0.0
H426 H 0.49804 0.22966 0.79514 0.0
H427 H 0.48958 0.27802 0.80749 0.0
H428 H 0.47186 0.16085 0.81204 0.0
H429 H 0.60775 0.28419 0.79243 0.0
H430 H 0.67664 0.35127 0.79861 0.0
H431 H 0.72614 0.30962 0.83741 0.0
H432 H 0.65719 0.24229 0.83167 0.0
H433 H 0.51748 0.06493 0.74387 0.0
H434 H 0.50905 0.10929 0.76173 0.0
H435 H 0.6045 0.13244 0.80593 0.0
H436 H 0.61496 0.08946 0.78747 0.0
H437 H 0.62152 0.19806 0.79683 0.0
H438 H 0.4899 0.07486 0.81519 0.0
H439 H 0.42092 1.00738 0.81032 0.0
H440 H 0.36287 0.04724 0.77609 0.0
H441 H 0.43177 0.11494 0.78052 0.0
C442 C 0.55074 0.28332 0.84591 0.0
C443 C 0.52726 0.29209 0.83469 0.0
C444 C 0.55572 0.25575 0.83877 0.0
C445 C 0.53697 0.23622 0.82038 0.0
C446 C 0.51282 0.2444 0.80936 0.0
C447 C 0.50827 0.27223 0.81636 0.0
C448 C 0.54277 0.2075 0.81239 0.0
C449 C 0.50453 0.16899 0.80855 0.0
C450 C 0.5855 0.21786 0.80848 0.0
C451 C 0.6271 0.25827 0.8118 0.0
C452 C 0.63316 0.28937 0.80241 0.0
C453 C 0.67224 0.32743 0.80581 0.0
C454 C 0.70569 0.33472 0.81845 0.0
C455 C 0.70017 0.30394 0.82766 0.0
C456 C 0.66111 0.26582 0.82433 0.0
C457 C 0.53699 0.07959 0.75732 0.0
C458 C 0.5671 0.07363 0.76414 0.0
C459 C 0.53166 0.10465 0.76769 0.0
C460 C 0.55564 0.12393 0.78538 0.0
C461 C 0.58546 0.11783 0.79237 0.0
C462 C 0.59107 0.0929 0.78189 0.0
C463 C 0.55044 0.15129 0.79611 0.0
C464 C 0.5888 0.18962 0.80049 0.0
C465 C 0.50778 0.14065 0.80073 0.0
C466 C 0.46618 0.09997 0.79807 0.0
C467 C 0.46256 0.06922 0.8065 0.0
C468 C 0.42345 0.03093 0.80384 0.0
C469 C 0.38757 0.02302 0.79287 0.0
C470 C 0.3907 0.05341 0.78458 0.0
C471 C 0.42976 0.09175 0.78718 0.0
H472 H 0.35732 0.99335 0.79082 0.0
H473 H 0.73592 0.36421 0.82107 0.0
H474 H 0.66818 0.88662 0.53501 0.0
H475 H 0.65943 0.8283 0.54281 0.0
H476 H 0.53687 0.75778 0.5084 0.0
H477 H 0.5456 0.8164 0.50038 0.0
H478 H 0.52918 0.72399 0.54302 0.0
H479 H 0.63047 0.7775 0.48932 0.0
H480 H 0.69629 0.82836 0.47045 0.0
H481 H 0.7834 0.84506 0.51689 0.0
H482 H 0.71805 0.79468 0.5362 0.0
H483 H 0.53142 0.56093 0.54688 0.0
H484 H 0.53203 0.61261 0.53328 0.0
H485 H 0.64934 0.69849 0.56863 0.0
H486 H 0.64879 0.64713 0.58225 0.0
H487 H 0.65479 0.71993 0.52941 0.0
H488 H 0.55151 0.66984 0.58404 0.0
H489 H 0.48502 0.61839 0.6024 0.0
H490 H 0.40065 0.59398 0.55275 0.0
H491 H 0.4668 0.64495 0.53398 0.0
C492 C 0.63948 0.85877 0.52897 0.0
C493 C 0.60792 0.85625 0.51684 0.0
C494 C 0.63449 0.82541 0.53347 0.0
C495 C 0.59795 0.78872 0.52588 0.0
C496 C 0.56546 0.78582 0.51433 0.0
C497 C 0.57042 0.81931 0.50981 0.0
C498 C 0.59431 0.75372 0.53002 0.0
C499 C 0.55627 0.72276 0.53969 0.0
C500 C 0.62982 0.75223 0.52585 0.0
C501 C 0.6693 0.7825 0.51428 0.0
C502 C 0.66364 0.79222 0.49559 0.0
C503 C 0.70087 0.82094 0.4848 0.0
C504 C 0.74399 0.83999 0.49249 0.0
C505 C 0.74997 0.8303 0.51096 0.0
C506 C 0.71284 0.80163 0.52183 0.0
C507 C 0.55755 0.5909 0.55156 0.0
C508 C 0.58994 0.60006 0.56568 0.0
C509 C 0.55772 0.62031 0.54389 0.0
C510 C 0.59056 0.65934 0.55006 0.0
C511 C 0.62368 0.66858 0.56369 0.0
C512 C 0.62319 0.63922 0.57153 0.0
C513 C 0.59017 0.69072 0.54276 0.0
C514 C 0.62748 0.72098 0.53248 0.0
C515 C 0.55388 0.6914 0.54624 0.0
C516 C 0.51413 0.66086 0.55752 0.0
C517 C 0.51882 0.65325 0.57697 0.0
C518 C 0.4812 0.62423 0.58746 0.0
C519 C 0.43865 0.60284 0.57872 0.0
C520 C 0.43364 0.61051 0.55949 0.0
C521 C 0.47118 0.63947 0.54892 0.0
H522 H 0.40956 0.58039 0.58687 0.0
H523 H 0.77278 0.86221 0.48411 0.0
H524 H 0.73967 0.58139 0.84577 0.0
H525 H 0.80419 0.58171 0.84794 0.0
H526 H 0.71596 0.45929 0.85922 0.0
H527 H 0.65141 0.45915 0.85749 0.0
H528 H 0.78496 0.48703 0.88093 0.0
H529 H 0.77792 0.50529 0.8121 0.0
H530 H 0.77551 0.53631 0.78293 0.0
H531 H 0.90249 0.64395 0.79998 0.0
H532 H 0.90539 0.61367 0.8294 0.0
H533 H 0.95184 0.45963 0.86936 0.0
H534 H 0.88721 0.45823 0.86368 0.0
H535 H 0.97612 0.58189 0.85586 0.0
H536 H 1.04079 0.58299 0.86134 0.0
H537 H 0.90699 0.55338 0.83197 0.0
H538 H 0.91392 0.53458 0.9007 0.0
H539 H 0.91664 0.503 0.92951 0.0
H540 H 0.78941 0.3957 0.91236 0.0
H541 H 0.78629 0.42648 0.88324 0.0
C542 C 0.7336 0.55431 0.84863 0.0
C543 C 0.68912 0.52021 0.8513 0.0
C544 C 0.77114 0.55442 0.84976 0.0
C545 C 0.76648 0.52034 0.85343 0.0
C546 C 0.722 0.48634 0.85632 0.0
C547 C 0.68444 0.48623 0.85523 0.0
C548 C 0.80728 0.52015 0.85451 0.0
C549 C 0.81104 0.50116 0.86992 0.0
C550 C 0.84323 0.53905 0.84071 0.0
C551 C 0.84164 0.55732 0.82306 0.0
C552 C 0.80518 0.53565 0.8097 0.0
C553 C 0.80375 0.55308 0.79311 0.0
C554 C 0.83877 0.59211 0.78963 0.0
C555 C 0.87535 0.61374 0.80271 0.0
C556 C 0.87693 0.59645 0.81934 0.0
C557 C 0.95794 0.4864 0.86566 0.0
C558 C 1.0026 0.52115 0.86505 0.0
C559 C 0.92041 0.48579 0.86281 0.0
C560 C 0.92528 0.52008 0.85959 0.0
C561 C 0.97001 0.55464 0.85823 0.0
C562 C 1.00758 0.55523 0.86114 0.0
C563 C 0.88447 0.52014 0.85832 0.0
C564 C 0.88079 0.53918 0.84292 0.0
C565 C 0.84853 0.50122 0.8721 0.0
C566 C 0.85009 0.48273 0.88968 0.0
C567 C 0.88665 0.50418 0.903 0.0
C568 C 0.88827 0.48643 0.91939 0.0
C569 C 0.85327 0.44735 0.92274 0.0
C570 C 0.81653 0.42596 0.90973 0.0
C571 C 0.81482 0.44354 0.89328 0.0
H572 H 0.85457 0.43366 0.93544 0.0
H573 H 0.8376 0.60555 0.77678 0.0
H574 H 0.1848 0.69854 0.16631 0.0
H575 H 0.25467 0.76473 0.1686 0.0
H576 H 0.32638 0.72464 0.14545 0.0
H577 H 0.25616 0.65775 0.14323 0.0
H578 H 0.37097 0.7751 0.17671 0.0
H579 H 0.30862 0.77579 0.11658 0.0
H580 H 0.2504 0.76407 0.09417 0.0
H581 H 0.24173 0.8421 0.13007 0.0
H582 H 0.29946 0.85385 0.15288 0.0
H583 H 0.56809 0.97426 0.17376 0.0
H584 H 0.50591 0.90859 0.16086 0.0
H585 H 0.4112 0.92256 0.18536 0.0
H586 H 0.47305 0.9877 0.19829 0.0
H587 H 0.38371 0.88469 0.14851 0.0
H588 H 0.44047 0.87674 0.21048 0.0
H589 H 0.4991 0.88795 0.23242 0.0
H590 H 0.5193 0.8229 0.19148 0.0
H591 H 0.46123 0.81184 0.16914 0.0
C592 C 0.21528 0.70359 0.16161 0.0
C593 C 0.21459 0.67258 0.15454 0.0
C594 C 0.25536 0.74168 0.16285 0.0
C595 C 0.29595 0.74999 0.15697 0.0
C596 C 0.29556 0.71911 0.15001 0.0
C597 C 0.2553 0.68084 0.1487 0.0
C598 C 0.33855 0.79084 0.1586 0.0
C599 C 0.37407 0.79893 0.17017 0.0
C600 C 0.34275 0.82223 0.15026 0.0
C601 C 0.30819 0.81549 0.13653 0.0
C602 C 0.29409 0.79025 0.11978 0.0
C603 C 0.2612 0.78363 0.10699 0.0
C604 C 0.24232 0.80228 0.11072 0.0
C605 C 0.25637 0.82766 0.12721 0.0
C606 C 0.28923 0.83435 0.14006 0.0
C607 C 0.53396 0.96357 0.17589 0.0
C608 C 0.52528 0.98608 0.18687 0.0
C609 C 0.49846 0.92597 0.16868 0.0
C610 C 0.45372 0.91037 0.17229 0.0
C611 C 0.44526 0.93383 0.18234 0.0
C612 C 0.48061 0.97108 0.18969 0.0
C613 C 0.4156 0.86892 0.16694 0.0
C614 C 0.38086 0.86074 0.15473 0.0
C615 C 0.41228 0.83746 0.17455 0.0
C616 C 0.44693 0.84388 0.18803 0.0
C617 C 0.45768 0.86511 0.20608 0.0
C618 C 0.49077 0.8714 0.2186 0.0
C619 C 0.51301 0.85625 0.21332 0.0
C620 C 0.50212 0.83469 0.19553 0.0
C621 C 0.46913 0.82841 0.18293 0.0
H622 H 0.5386 0.86113 0.22303 0.0
H623 H 0.21685 0.79711 0.1008 0.0
H624 H 0.48525 0.20673 0.47372 0.0
H625 H 0.4929 0.26297 0.4876 0.0
H626 H 0.61938 0.30725 0.51433 0.0
H627 H 0.61289 0.25193 0.5 0.0
H628 H 0.56125 0.30566 0.5407 0.0
H629 H 0.61862 0.34981 0.47517 0.0
H630 H 0.61575 0.34508 0.43866 0.0
H631 H 0.49941 0.34013 0.43868 0.0
H632 H 0.50122 0.34427 0.47523 0.0
H633 H 0.63827 0.49076 0.57468 0.0
H634 H 0.63172 0.43797 0.55673 0.0
H635 H 0.51605 0.40863 0.52502 0.0
H636 H 0.52355 0.46253 0.5426 0.0
H637 H 0.56508 0.40078 0.50087 0.0
H638 H 0.50637 0.357 0.56554 0.0
H639 H 0.5067 0.36074 0.60206 0.0
H640 H 0.62039 0.362 0.60392 0.0
H641 H 0.62119 0.35888 0.56738 0.0
C642 C 0.51514 0.22875 0.48222 0.0
C643 C 0.54838 0.22456 0.48575 0.0
C644 C 0.51932 0.26081 0.49024 0.0
C645 C 0.55671 0.2893 0.502 0.0
C646 C 0.59011 0.28547 0.5054 0.0
C647 C 0.58618 0.25366 0.49726 0.0
C648 C 0.56053 0.32256 0.51126 0.0
C649 C 0.56265 0.32675 0.532 0.0
C650 C 0.56082 0.34929 0.49991 0.0
C651 C 0.55978 0.34693 0.47794 0.0
C652 C 0.59219 0.34736 0.4674 0.0
C653 C 0.5908 0.34486 0.44669 0.0
C654 C 0.55734 0.3422 0.43636 0.0
C655 C 0.52527 0.34214 0.44671 0.0
C656 C 0.52648 0.34459 0.46742 0.0
C657 C 0.61158 0.47314 0.56381 0.0
C658 C 0.58111 0.48042 0.56017 0.0
C659 C 0.60774 0.44288 0.5536 0.0
C660 C 0.5727 0.41861 0.53985 0.0
C661 C 0.5432 0.42677 0.53563 0.0
C662 C 0.54747 0.45753 0.54566 0.0
C663 C 0.56637 0.38424 0.53037 0.0
C664 C 0.56358 0.37969 0.50961 0.0
C665 C 0.56488 0.35681 0.54171 0.0
C666 C 0.56406 0.35804 0.5637 0.0
C667 C 0.5316 0.3583 0.57373 0.0
C668 C 0.53158 0.3603 0.59443 0.0
C669 C 0.56361 0.3617 0.6053 0.0
C670 C 0.59563 0.36096 0.59548 0.0
C671 C 0.59586 0.35903 0.57477 0.0
H672 H 0.56356 0.36328 0.62133 0.0
H673 H 0.55632 0.34027 0.42033 0.0
H674 H 0.40709 0.45885 0.8662 0.0
H675 H 0.34324 0.45954 0.8683 0.0
H676 H 0.42243 0.57275 0.8431 0.0
H677 H 0.48682 0.57248 0.84147 0.0
H678 H 0.37324 0.57474 0.86831 0.0
H679 H 0.32917 0.4777 0.81764 0.0
H680 H 0.31386 0.41826 0.80267 0.0
H681 H 0.21579 0.34969 0.84708 0.0
H682 H 0.23092 0.40881 0.86246 0.0
H683 H 0.18365 0.57324 0.85388 0.0
H684 H 0.24736 0.57267 0.84816 0.0
H685 H 0.17453 0.46111 0.87483 0.0
H686 H 0.11102 0.46159 0.88021 0.0
H687 H 0.22092 0.45911 0.84765 0.0
H688 H 0.2661 0.55672 0.8985 0.0
H689 H 0.28122 0.61627 0.91318 0.0
H690 H 0.37713 0.68397 0.8679 0.0
H691 H 0.36213 0.6247 0.8528 0.0
C692 C 0.41126 0.48402 0.861 0.0
C693 C 0.45322 0.51549 0.85353 0.0
C694 C 0.37396 0.4843 0.86208 0.0
C695 C 0.37611 0.51588 0.85552 0.0
C696 C 0.41832 0.5476 0.8483 0.0
C697 C 0.45571 0.54738 0.84728 0.0
C698 C 0.3352 0.51603 0.85633 0.0
C699 C 0.34023 0.54941 0.86344 0.0
C700 C 0.29072 0.4833 0.85051 0.0
C701 C 0.28151 0.44773 0.84131 0.0
C702 C 0.30456 0.44997 0.82428 0.0
C703 C 0.29588 0.41634 0.81572 0.0
C704 C 0.26397 0.38024 0.82395 0.0
C705 C 0.24056 0.37769 0.84074 0.0
C706 C 0.24914 0.41124 0.84938 0.0
C707 C 0.18044 0.54791 0.85793 0.0
C708 C 0.14062 0.5169 0.86701 0.0
C709 C 0.21778 0.5479 0.85503 0.0
C710 C 0.21758 0.51711 0.86131 0.0
C711 C 0.17705 0.48553 0.86968 0.0
C712 C 0.13996 0.48563 0.87262 0.0
C713 C 0.25895 0.51775 0.85968 0.0
C714 C 0.25398 0.48447 0.85245 0.0
C715 C 0.30347 0.55059 0.86535 0.0
C716 C 0.31263 0.58623 0.87441 0.0
C717 C 0.29019 0.58427 0.8916 0.0
C718 C 0.29876 0.61797 0.9 0.0
C719 C 0.33002 0.65386 0.89144 0.0
C720 C 0.35286 0.65614 0.87449 0.0
C721 C 0.34435 0.6225 0.86601 0.0
H722 H 0.33662 0.67992 0.89797 0.0
H723 H 0.2573 0.35423 0.81729 0.0
H724 H 0.99415 0.41069 0.13663 0.0
H725 H 0.92717 0.34401 0.14222 0.0
H726 H 0.87375 0.38822 0.17948 0.0
H727 H 0.94062 0.45459 0.17425 0.0
H728 H 0.86333 0.33099 0.19682 0.0
H729 H 0.83221 0.34847 0.13135 0.0
H730 H 0.84721 0.3642 0.09605 0.0
H731 H 0.85623 0.27193 0.08551 0.0
H732 H 0.84178 0.25594 0.12082 0.0
H733 H 0.64384 0.16034 0.20777 0.0
H734 H 0.70735 0.22462 0.19703 0.0
H735 H 0.75455 0.17246 0.16204 0.0
H736 H 0.6898 0.1076 0.17239 0.0
H737 H 0.76976 0.23247 0.14316 0.0
H738 H 0.79647 0.21367 0.20947 0.0
H739 H 0.77882 0.19839 0.24473 0.0
H740 H 0.77703 0.295 0.25379 0.0
H741 H 0.79382 0.31044 0.21853 0.0
C742 C 0.968 0.40625 0.14588 0.0
C743 C 0.97297 0.43821 0.15494 0.0
C744 C 0.92952 0.36801 0.14902 0.0
C745 C 0.89492 0.3608 0.16117 0.0
C746 C 0.89977 0.39276 0.17007 0.0
C747 C 0.93816 0.43087 0.16699 0.0
C748 C 0.85439 0.32017 0.16524 0.0
C749 C 0.84262 0.30967 0.18504 0.0
C750 C 0.82772 0.29176 0.14998 0.0
C751 C 0.83641 0.30129 0.12876 0.0
C752 C 0.83775 0.33174 0.12154 0.0
C753 C 0.84607 0.34066 0.10152 0.0
C754 C 0.85281 0.31916 0.08856 0.0
C755 C 0.85108 0.28861 0.09557 0.0
C756 C 0.84278 0.27958 0.11558 0.0
C757 C 0.66741 0.16252 0.19754 0.0
C758 C 0.662 0.12894 0.19102 0.0
C759 C 0.70395 0.19936 0.19151 0.0
C760 C 0.73668 0.20375 0.17914 0.0
C761 C 0.73007 0.17002 0.17171 0.0
C762 C 0.693 0.13293 0.17757 0.0
C763 C 0.77845 0.24353 0.17472 0.0
C764 C 0.79055 0.25381 0.15491 0.0
C765 C 0.80537 0.27192 0.18999 0.0
C766 C 0.79598 0.26297 0.21129 0.0
C767 C 0.79203 0.23151 0.21895 0.0
C768 C 0.78218 0.22282 0.23894 0.0
C769 C 0.77667 0.24565 0.25146 0.0
C770 C 0.78121 0.27731 0.24406 0.0
C771 C 0.7909 0.28604 0.22408 0.0
H772 H 0.76892 0.23886 0.26691 0.0
H773 H 0.85925 0.32611 0.07307 0.0
H774 H 0.08176 0.5169 0.09853 0.0
H775 H 0.08533 0.51143 0.06251 0.0
H776 H 0.08105 0.60692 0.05627 0.0
H777 H 0.08006 0.61376 0.09234 0.0
H778 H 1.03246 0.49322 0.03417 0.0
H779 H 0.1315 0.65571 0.01519 0.0
H780 H 0.1897 0.72059 0.0304 0.0
H781 H 0.23754 0.67238 0.06503 0.0
H782 H 0.18007 0.60735 0.04983 0.0
H783 H 1.00624 0.50043 0.93198 0.0
H784 H 1.00934 0.509 0.96786 0.0
H785 H 0.15272 0.57467 0.9671 0.0
H786 H 0.1504 0.56915 0.93101 0.0
H787 H 0.13618 0.60718 0.99288 0.0
H788 H 0.07612 0.47503 0.98086 0.0
H789 H 1.02506 0.40828 0.96643 0.0
H790 H 0.91351 0.39275 0.99468 0.0
H791 H 0.96383 0.45962 0.00908 0.0
C792 C 0.08213 0.537 0.08945 0.0
C793 C 0.0811 0.56602 0.09823 0.0
C794 C 0.08388 0.53371 0.06883 0.0
C795 C 0.08407 0.55906 0.05651 0.0
C796 C 0.08216 0.58761 0.06534 0.0
C797 C 0.0813 0.59138 0.08598 0.0
C798 C 0.08543 0.55512 0.03449 0.0
C799 C 1.05524 0.51819 0.02518 0.0
C800 C 0.11578 0.5874 0.02262 0.0
C801 C 0.15118 0.6266 0.03149 0.0
C802 C 0.1546 0.65901 0.02596 0.0
C803 C 0.18743 0.6958 0.03461 0.0
C804 C 0.2172 0.70058 0.04872 0.0
C805 C 0.21437 0.66862 0.05415 0.0
C806 C 0.18166 0.63179 0.04553 0.0
C807 C 1.03865 0.51732 0.93931 0.0
C808 C 0.07808 0.534 0.92835 0.0
C809 C 1.04026 0.52165 0.95999 0.0
C810 C 0.08117 0.54181 0.9704 0.0
C811 C 0.12063 0.55878 0.95953 0.0
C812 C 0.11916 0.55512 0.93881 0.0
C813 C 0.08282 0.54533 0.99254 0.0
C814 C 0.11351 0.58219 0.00187 0.0
C815 C 1.05409 0.51274 0.00449 0.0
C816 C 1.0237 0.47246 0.9959 0.0
C817 C 1.04066 0.45747 0.98389 0.0
C818 C 1.01185 0.4196 0.97573 0.0
C819 C 0.96606 0.39632 0.97959 0.0
C820 C 0.94898 0.41084 0.99168 0.0
C821 C 0.97763 0.44871 0.99986 0.0
H822 H 0.94381 0.36701 0.97326 0.0
H823 H 0.2425 0.72907 0.05544 0.0
H824 H 0.53793 0.02622 0.42129 0.0
H825 H 0.53455 0.03073 0.38536 0.0
H826 H 0.66742 0.06425 0.38005 0.0
H827 H 0.67143 0.06112 0.41588 0.0
H828 H 0.66089 0.10535 0.35673 0.0
H829 H 0.57055 0.96952 0.36908 0.0
H830 H 0.51018 0.90857 0.38483 0.0
H831 H 0.4123 0.91614 0.36025 0.0
H832 H 0.47219 0.97747 0.34457 0.0
H833 H 0.58163 0.99849 0.25284 0.0
H834 H 0.58287 0.99683 0.28895 0.0
H835 H 0.60432 0.10584 0.29386 0.0
H836 H 0.60362 0.10784 0.25772 0.0
H837 H 0.53364 0.99304 0.31733 0.0
H838 H 0.67064 0.15895 0.33446 0.0
H839 H 0.73797 0.21607 0.31905 0.0
H840 H 0.75328 0.14122 0.28408 0.0
H841 H 0.68657 0.08374 0.29951 0.0
C842 C 0.56642 0.03473 0.41242 0.0
C843 C 0.60478 0.04301 0.4213 0.0
C844 C 0.56442 0.03713 0.39189 0.0
C845 C 0.60047 0.04724 0.3799 0.0
C846 C 0.63915 0.05636 0.38892 0.0
C847 C 0.64133 0.05438 0.40941 0.0
C848 C 0.59791 0.0477 0.35794 0.0
C849 C 0.63292 0.08086 0.34814 0.0
C850 C 0.56204 0.01539 0.34661 0.0
C851 C 0.52589 0.97829 0.35582 0.0
C852 C 0.53617 0.95831 0.36714 0.0
C853 C 0.50205 0.92369 0.37604 0.0
C854 C 0.45745 0.90856 0.37359 0.0
C855 C 0.44688 0.92794 0.36216 0.0
C856 C 0.48089 0.96262 0.35325 0.0
C857 C 0.58629 0.02197 0.26162 0.0
C858 C 0.59274 0.0534 0.25241 0.0
C859 C 0.58701 0.021 0.28227 0.0
C860 C 0.59414 0.05139 0.29418 0.0
C861 C 0.59961 0.08239 0.28502 0.0
C862 C 0.59923 0.08353 0.26436 0.0
C863 C 0.59647 0.05083 0.31614 0.0
C864 C 0.56141 0.01767 0.32594 0.0
C865 C 0.63314 0.08258 0.32741 0.0
C866 C 0.67323 0.117 0.31797 0.0
C867 C 0.68841 0.15469 0.3235 0.0
C868 C 0.72649 0.18713 0.31477 0.0
C869 C 0.74981 0.18226 0.30057 0.0
C870 C 0.7351 0.14494 0.29504 0.0
C871 C 0.69712 0.11242 0.30375 0.0
H872 H 0.77942 0.2074 0.29391 0.0
H873 H 0.43108 0.88177 0.38051 0.0
H874 H 0.63148 0.55635 0.79791 0.0
H875 H 0.64504 0.56933 0.76238 0.0
H876 H 0.50918 0.4687 0.74904 0.0
H877 H 0.49478 0.45666 0.78436 0.0
H878 H 0.58523 0.47762 0.72668 0.0
H879 H 0.52028 0.54166 0.74523 0.0
H880 H 0.5173 0.58817 0.7653 0.0
H881 H 0.65023 0.68219 0.74733 0.0
H882 H 0.65419 0.63606 0.72732 0.0
H883 H 0.53328 0.47819 0.62792 0.0
H884 H 0.53439 0.47611 0.66397 0.0
H885 H 0.65032 0.59733 0.66725 0.0
H886 H 0.6483 0.59976 0.63106 0.0
H887 H 0.5959 0.58413 0.69561 0.0
H888 H 0.65822 0.52268 0.6734 0.0
H889 H 0.66285 0.47714 0.65332 0.0
H890 H 0.54079 0.38018 0.67864 0.0
H891 H 0.53505 0.42513 0.69866 0.0
C892 C 0.60436 0.53746 0.78741 0.0
C893 C 0.56192 0.50581 0.7939 0.0
C894 C 0.61223 0.54472 0.76716 0.0
C895 C 0.57805 0.5199 0.75319 0.0
C896 C 0.53593 0.48809 0.75964 0.0
C897 C 0.52778 0.48134 0.77981 0.0
C898 C 0.58575 0.52668 0.73174 0.0
C899 C 0.58744 0.50078 0.71981 0.0
C900 C 0.58999 0.55764 0.723 0.0
C901 C 0.58772 0.58538 0.73498 0.0
C902 C 0.54905 0.57219 0.74572 0.0
C903 C 0.54713 0.59848 0.75704 0.0
C904 C 0.58356 0.63809 0.75759 0.0
C905 C 0.62204 0.65149 0.74687 0.0
C906 C 0.62413 0.62529 0.73553 0.0
C907 C 0.55914 0.50433 0.63634 0.0
C908 C 0.59094 0.53904 0.62671 0.0
C909 C 0.55986 0.50312 0.65694 0.0
C910 C 0.59307 0.53635 0.66836 0.0
C911 C 0.62451 0.57127 0.65878 0.0
C912 C 0.62337 0.57264 0.63813 0.0
C913 C 0.5944 0.53442 0.69026 0.0
C914 C 0.59448 0.56127 0.70237 0.0
C915 C 0.59237 0.50454 0.69921 0.0
C916 C 0.59606 0.47733 0.68744 0.0
C917 C 0.63223 0.49165 0.67461 0.0
C918 C 0.63506 0.46594 0.66324 0.0
C919 C 0.60209 0.4258 0.66467 0.0
C920 C 0.5663 0.41128 0.67754 0.0
C921 C 0.56327 0.43687 0.68893 0.0
H922 H 0.60432 0.40594 0.65584 0.0
H923 H 0.58184 0.65839 0.76626 0.0
H924 H 0.63423 0.06768 0.52926 0.0
H925 H 0.64152 0.06429 0.56502 0.0
H926 H 0.50314 0.01529 0.57251 0.0
H927 H 0.49539 0.01773 0.53679 0.0
H928 H 0.56419 0.07852 0.59931 0.0
H929 H 0.52961 0.95766 0.57348 0.0
H930 H 0.54367 0.92021 0.55143 0.0
H931 H 0.67339 0.97882 0.57827 0.0
H932 H 0.66047 0.0172 0.60023 0.0
H933 H 0.51839 0.01634 0.69656 0.0
H934 H 0.51741 0.01865 0.6605 0.0
H935 H 0.64516 0.04141 0.65788 0.0
H936 H 0.64518 0.03742 0.69405 0.0
H937 H 0.59621 0.9952 0.62813 0.0
H938 H 0.6347 0.11519 0.65371 0.0
H939 H 0.62796 0.15865 0.67459 0.0
H940 H 0.50069 0.10925 0.64749 0.0
H941 H 0.50635 0.06507 0.62664 0.0
C942 C 0.60528 0.05576 0.53852 0.0
C943 C 0.5641 0.04255 0.53026 0.0
C944 C 0.60952 0.05397 0.55892 0.0
C945 C 0.57278 0.03935 0.57136 0.0
C946 C 0.53185 0.02664 0.56314 0.0
C947 C 0.52746 0.02799 0.54276 0.0
C948 C 0.57684 0.03762 0.59301 0.0
C949 C 0.57069 0.06 0.60566 0.0
C950 C 0.58709 0.0146 0.60116 0.0
C951 C 0.59424 0.99059 0.58839 0.0
C952 C 0.56126 0.96276 0.5746 0.0
C953 C 0.56902 0.94135 0.56212 0.0
C954 C 0.60945 0.94721 0.56341 0.0
C955 C 0.64211 0.97436 0.57726 0.0
C956 C 0.63458 0.99593 0.58974 0.0
C957 C 0.54623 0.02182 0.68827 0.0
C958 C 0.58209 0.02713 0.69807 0.0
C959 C 0.54576 0.02327 0.66766 0.0
C960 C 0.58175 0.03116 0.65642 0.0
C961 C 0.61711 0.03546 0.66618 0.0
C962 C 0.61717 0.03328 0.68682 0.0
C963 C 0.58256 0.03557 0.6346 0.0
C964 C 0.58983 0.01386 0.62187 0.0
C965 C 0.57425 0.05989 0.62629 0.0
C966 C 0.57079 0.08658 0.63873 0.0
C967 C 0.60513 0.11341 0.6523 0.0
C968 C 0.60152 0.13819 0.66412 0.0
C969 C 0.56387 0.13665 0.6624 0.0
C970 C 0.52981 0.11038 0.64882 0.0
C971 C 0.53322 0.08549 0.63698 0.0
H972 H 0.56114 0.15587 0.67157 0.0
H973 H 0.61543 0.93065 0.55373 0.0
H974 H 0.50929 0.47701 0.89989 0.0
H975 H 0.49621 0.44632 0.93157 0.0
H976 H 0.6384 0.52154 0.94339 0.0
H977 H 0.65172 0.55265 0.91162 0.0
H978 H 0.59204 0.44064 0.9517 0.0
H979 H 0.58244 0.54402 0.96584 0.0
H980 H 0.55487 0.58141 0.96054 0.0
H981 H 0.42019 0.47968 0.97062 0.0
H982 H 0.44691 0.44152 0.9757 0.0
H983 H 0.58704 0.41577 0.05589 0.0
H984 H 0.59964 0.43584 0.02154 0.0
H985 H 0.45916 0.38114 0.01462 0.0
H986 H 0.44701 0.36244 0.04924 0.0
H987 H 0.50507 0.45091 0.003 0.0
H988 H 0.51264 0.34709 0.98993 0.0
H989 H 0.53814 0.30791 0.99446 0.0
H990 H 0.6729 0.40656 0.98166 0.0
H991 H 0.64832 0.44652 0.97732 0.0
C992 C 0.53776 0.48702 0.90925 0.0
C993 C 0.58149 0.51735 0.90345 0.0
C994 C 0.53024 0.46946 0.9273 0.0
C995 C 0.56634 0.48182 0.93981 0.0
C996 C 0.61016 0.51163 0.93389 0.0
C997 C 0.61769 0.5295 0.91587 0.0
C998 C 0.55796 0.46432 0.95934 0.0
C999 C 0.5735 0.44317 0.96307 0.0
C1000 C 0.53272 0.46685 0.97385 0.0
C1001 C 0.51663 0.48983 0.97095 0.0
C1002 C 0.5469 0.52954 0.96676 0.0
C1003 C 0.53144 0.55089 0.96383 0.0
C1004 C 0.48579 0.53291 0.96519 0.0
C1005 C 0.45553 0.49356 0.96954 0.0
C1006 C 0.47082 0.47207 0.97247 0.0
C1007 C 0.55871 0.40711 0.04682 0.0
C1008 C 0.51606 0.38753 0.05511 0.0
C1009 C 0.56588 0.41856 0.02718 0.0
C1010 C 0.53031 0.4099 0.0154 0.0
C1011 C 0.48717 0.38833 0.02342 0.0
C1012 C 0.48016 0.37746 0.04312 0.0
C1013 C 0.53874 0.42662 0.99552 0.0
C1014 C 0.52338 0.44794 0.9917 0.0
C1015 C 0.56378 0.42386 0.9809 0.0
C1016 C 0.57868 0.3999 0.98348 0.0
C1017 C 0.54777 0.36052 0.98824 0.0
C1018 C 0.56205 0.33816 0.99074 0.0
C1019 C 0.60713 0.35476 0.9884 0.0
C1020 C 0.638 0.39375 0.98349 0.0
C1021 C 0.6239 0.41626 0.98099 0.0
H1022 H 0.61811 0.33739 0.99035 0.0
H1023 H 0.47388 0.54949 0.96291 0.0
H1024 H 0.08892 0.4842 0.20839 0.0
H1025 H 0.08033 0.48353 0.24429 0.0
H1026 H 0.10513 0.59394 0.2434 0.0
H1027 H 0.11583 0.59551 0.20747 0.0
H1028 H 0.15016 0.59328 0.27284 0.0
H1029 H 0.99894 0.50518 0.24766 0.0
H1030 H 0.93723 0.44834 0.22798 0.0
H1031 H 0.9451 0.37237 0.26252 0.0
H1032 H 1.00793 0.42873 0.282 0.0
H1033 H 0.08647 0.59056 0.37187 0.0
H1034 H 0.08809 0.59057 0.33566 0.0
H1035 H 0.06332 0.48008 0.33395 0.0
H1036 H 0.06129 0.47977 0.37018 0.0
H1037 H 1.01575 0.48112 0.30573 0.0
H1038 H 0.16862 0.56521 0.32797 0.0
H1039 H 0.23401 0.61985 0.34715 0.0
H1040 H 0.22486 0.70041 0.31806 0.0
H1041 H 0.15896 0.64614 0.29891 0.0
C1042 C 0.09255 0.50834 0.21586 0.0
C1043 C 0.10243 0.53968 0.20515 0.0
C1044 C 0.0873 0.50779 0.23636 0.0
C1045 C 0.09112 0.53828 0.24652 0.0
C1046 C 0.10159 0.56991 0.23585 0.0
C1047 C 0.10732 0.57065 0.21532 0.0
C1048 C 0.08536 0.53759 0.26833 0.0
C1049 C 0.12039 0.56906 0.27999 0.0
C1050 C 1.04708 0.50536 0.27771 0.0
C1051 C 1.0085 0.47134 0.26624 0.0
C1052 C 0.98778 0.47641 0.251 0.0
C1053 C 0.95257 0.44427 0.23987 0.0
C1054 C 0.93719 0.40681 0.24402 0.0
C1055 C 0.95704 0.4014 0.25932 0.0
C1056 C 0.99252 0.43345 0.27039 0.0
C1057 C 0.08147 0.56631 0.36377 0.0
C1058 C 0.07412 0.53531 0.37388 0.0
C1059 C 0.08234 0.56632 0.34308 0.0
C1060 C 0.07647 0.53559 0.33208 0.0
C1061 C 0.06792 0.5041 0.34212 0.0
C1062 C 0.06675 0.50395 0.36282 0.0
C1063 C 0.08053 0.53681 0.31016 0.0
C1064 C 1.04527 0.50546 0.29851 0.0
C1065 C 0.1188 0.56885 0.30075 0.0
C1066 C 0.15856 0.60157 0.31216 0.0
C1067 C 0.18034 0.59455 0.32578 0.0
C1068 C 0.21752 0.62545 0.33662 0.0
C1069 C 0.2335 0.66357 0.33387 0.0
C1070 C 0.21239 0.67086 0.32021 0.0
C1071 C 0.17514 0.64004 0.30934 0.0
H1072 H 0.2623 0.68746 0.34228 0.0
H1073 H 0.9099 0.38199 0.23538 0.0
loop_
_geom_bond_atom_site_label_1
_geom_bond_atom_site_label_2
_geom_bond_distance
_geom_bond_site_symmetry_2
_ccdc_geom_bond_type
La0 C2 2.928 . S
La0 O20 2.521 . S
La0 O21 2.628 . S
La0 O22 2.554 . S
La0 O23 2.757 . S
La0 O24 2.470 . S
La0 O29 2.482 . S
La0 O31 2.503 1_455 S
La1 C11 2.928 . S
La1 O23 2.482 1_655 S
La1 O25 2.503 1_655 S
La1 O26 2.521 . S
La1 O27 2.628 . S
La1 O28 2.554 . S
La1 O29 2.757 1_655 S
La1 O30 2.470 . S
C2 La0 2.928 . S
C2 C3 1.503 . S
C2 O20 1.261 . S
C2 O21 1.243 . S
C3 C2 1.503 . S
C3 C4 1.394 . S
C3 C8 1.373 . S
C4 C3 1.394 . S
C4 C5 1.380 . S
C4 H32 0.930 . S
C5 C4 1.380 . S
C5 C6 1.376 . S
C5 H33 0.930 . S
C6 C5 1.376 . S
C6 C7 1.370 . S
C7 C6 1.370 . S
C7 C8 1.396 . S
C7 H34 0.929 . S
C8 C3 1.373 . S
C8 C7 1.396 . S
C8 H35 0.929 . S
C9 O22 1.240 . S
C9 O23 1.289 . S
C10 O24 1.258 . S
C10 O25 1.256 . S
C11 La1 2.928 . S
C11 C12 1.503 . S
C11 O26 1.261 . S
C11 O27 1.243 . S
C12 C11 1.503 . S
C12 C13 1.394 . S
C12 C17 1.373 . S
C13 C12 1.394 . S
C13 C14 1.380 . S
C13 H36 0.930 . S
C14 C13 1.380 . S
C14 C15 1.376 . S
C14 H37 0.930 . S
C15 C14 1.376 . S
C15 C16 1.370 . S
C16 C15 1.370 . S
C16 C17 1.396 . S
C16 H38 0.929 . S
C17 C12 1.373 . S
C17 C16 1.396 . S
C17 H39 0.929 . S
C18 O28 1.240 1_455 S
C18 O29 1.289 . S
C19 O30 1.258 . S
C19 O31 1.256 . S
O20 La0 2.521 . S
O20 C2 1.261 . S
O21 La0 2.628 . S
O21 C2 1.243 . S
O22 La0 2.554 . S
O22 C9 1.240 . S
O23 La0 2.757 . S
O23 La1 2.482 1_455 S
O23 C9 1.289 . S
O24 La0 2.470 . S
O24 C10 1.258 . S
O25 La1 2.503 1_455 S
O25 C10 1.256 . S
O26 La1 2.521 . S
O26 C11 1.261 . S
O27 La1 2.628 . S
O27 C11 1.243 . S
O28 La1 2.554 . S
O28 C18 1.240 1_655 S
O29 La0 2.482 . S
O29 La1 2.757 1_455 S
O29 C18 1.289 . S
O30 La1 2.470 . S
O30 C19 1.258 . S
O31 La0 2.503 1_655 S
O31 C19 1.256 . S
H32 C4 0.930 . S
H33 C5 0.930 . S
H34 C7 0.929 . S
H35 C8 0.929 . S
H36 C13 0.930 . S
H37 C14 0.930 . S
H38 C16 0.929 . S
H39 C17 0.929 . S
La40 C42 2.928 . S
La40 O60 2.521 . S
La40 O61 2.628 . S
La40 O62 2.554 . S
La40 O63 2.757 1_565 S
La40 O64 2.470 . S
La40 O69 2.482 . S
La40 O71 2.503 1_565 S
La41 C51 2.928 . S
La41 O63 2.482 . S
La41 O65 2.503 1_545 S
La41 O66 2.521 . S
La41 O67 2.628 . S
La41 O68 2.554 . S
La41 O69 2.757 1_545 S
La41 O70 2.470 . S
C42 La40 2.928 . S
C42 C43 1.503 . S
C42 O60 1.261 . S
C42 O61 1.243 . S
C43 C42 1.503 . S
C43 C44 1.394 . S
C43 C48 1.373 . S
C44 C43 1.394 . S
C44 C45 1.380 . S
C44 H72 0.930 . S
C45 C44 1.380 . S
C45 C46 1.376 . S
C45 H73 0.930 . S
C46 C45 1.376 . S
C46 C47 1.370 . S
C47 C46 1.370 . S
C47 C48 1.396 . S
C47 H74 0.929 . S
C48 C43 1.373 . S
C48 C47 1.396 . S
C48 H75 0.929 . S
C49 O62 1.240 1_545 S
C49 O63 1.289 . S
C50 O64 1.258 . S
C50 O65 1.256 . S
C51 La41 2.928 . S
C51 C52 1.503 . S
C51 O66 1.261 . S
C51 O67 1.243 . S
C52 C51 1.503 . S
C52 C53 1.394 . S
C52 C57 1.373 . S
C53 C52 1.394 . S
C53 C54 1.380 . S
C53 H76 0.930 . S
C54 C53 1.380 . S
C54 C55 1.376 . S
C54 H77 0.930 . S
C55 C54 1.376 . S
C55 C56 1.370 . S
C56 C55 1.370 . S
C56 C57 1.396 . S
C56 H78 0.929 . S
C57 C52 1.373 . S
C57 C56 1.396 . S
C57 H79 0.929 . S
C58 O68 1.240 . S
C58 O69 1.289 1_545 S
C59 O70 1.258 . S
C59 O71 1.256 . S
O60 La40 2.521 . S
O60 C42 1.261 . S
O61 La40 2.628 . S
O61 C42 1.243 . S
O62 La40 2.554 . S
O62 C49 1.240 1_565 S
O63 La40 2.757 1_545 S
O63 La41 2.482 . S
O63 C49 1.289 . S
O64 La40 2.470 . S
O64 C50 1.258 . S
O65 La41 2.503 1_565 S
O65 C50 1.256 . S
O66 La41 2.521 . S
O66 C51 1.261 . S
O67 La41 2.628 . S
O67 C51 1.243 . S
O68 La41 2.554 . S
O68 C58 1.240 . S
O69 La40 2.482 . S
O69 La41 2.757 1_565 S
O69 C58 1.289 1_565 S
O70 La41 2.470 . S
O70 C59 1.258 . S
O71 La40 2.503 1_545 S
O71 C59 1.256 . S
H72 C44 0.930 . S
H73 C45 0.930 . S
H74 C47 0.929 . S
H75 C48 0.929 . S
H76 C53 0.930 . S
H77 C54 0.930 . S
H78 C56 0.929 . S
H79 C57 0.929 . S
La80 C82 2.928 . S
La80 O100 2.521 . S
La80 O101 2.628 . S
La80 O102 2.554 . S
La80 O103 2.757 . S
La80 O104 2.470 . S
La80 O109 2.482 . S
La80 O111 2.503 . S
La81 C91 2.928 . S
La81 O103 2.482 . S
La81 O105 2.503 . S
La81 O106 2.521 . S
La81 O107 2.628 . S
La81 O108 2.554 . S
La81 O109 2.757 . S
La81 O110 2.470 . S
C82 La80 2.928 . S
C82 C83 1.503 . S
C82 O100 1.261 . S
C82 O101 1.243 . S
C83 C82 1.503 . S
C83 C84 1.394 . S
C83 C88 1.373 . S
C84 C83 1.394 . S
C84 C85 1.380 . S
C84 H112 0.930 . S
C85 C84 1.380 . S
C85 C86 1.376 . S
C85 H113 0.930 . S
C86 C85 1.376 . S
C86 C87 1.370 . S
C87 C86 1.370 . S
C87 C88 1.396 . S
C87 H114 0.929 . S
C88 C83 1.373 . S
C88 C87 1.396 . S
C88 H115 0.929 . S
C89 O102 1.240 . S
C89 O103 1.289 . S
C90 O104 1.258 . S
C90 O105 1.256 . S
C91 La81 2.928 . S
C91 C92 1.503 . S
C91 O106 1.261 . S
C91 O107 1.243 . S
C92 C91 1.503 . S
C92 C93 1.394 . S
C92 C97 1.373 . S
C93 C92 1.394 . S
C93 C94 1.380 . S
C93 H116 0.930 . S
C94 C93 1.380 . S
C94 C95 1.376 . S
C94 H117 0.930 . S
C95 C94 1.376 . S
C95 C96 1.370 . S
C96 C95 1.370 . S
C96 C97 1.396 . S
C96 H118 0.929 . S
C97 C92 1.373 . S
C97 C96 1.396 . S
C97 H119 0.929 . S
C98 O108 1.240 . S
C98 O109 1.289 . S
C99 O110 1.258 . S
C99 O111 1.256 . S
O100 La80 2.521 . S
O100 C82 1.261 . S
O101 La80 2.628 . S
O101 C82 1.243 . S
O102 La80 2.554 . S
O102 C89 1.240 . S
O103 La80 2.757 . S
O103 La81 2.482 . S
O103 C89 1.289 . S
O104 La80 2.470 . S
O104 C90 1.258 . S
O105 La81 2.503 . S
O105 C90 1.256 . S
O106 La81 2.521 . S
O106 C91 1.261 . S
O107 La81 2.628 . S
O107 C91 1.243 . S
O108 La81 2.554 . S
O108 C98 1.240 . S
O109 La80 2.482 . S
O109 La81 2.757 . S
O109 C98 1.289 . S
O110 La81 2.470 . S
O110 C99 1.258 . S
O111 La80 2.503 . S
O111 C99 1.256 . S
H112 C84 0.930 . S
H113 C85 0.930 . S
H114 C87 0.929 . S
H115 C88 0.929 . S
H116 C93 0.930 . S
H117 C94 0.930 . S
H118 C96 0.929 . S
H119 C97 0.929 . S
H120 C123 0.931 . S
H121 C126 0.928 . S
H122 C128 0.930 . S
C123 H120 0.931 . S
C123 C124 1.413 . S
C123 C125 1.360 1_565 S
C124 C123 1.413 . S
C124 C128 1.429 1_565 S
C125 C123 1.360 1_545 S
C125 C126 1.372 . S
C126 H121 0.928 . S
C126 C125 1.372 . S
C126 C127 1.404 . S
C127 C126 1.404 . S
C127 C128 1.391 . S
C128 H122 0.930 . S
C128 C124 1.429 1_545 S
C128 C127 1.391 . S
H129 C132 0.931 . S
H130 C135 0.928 . S
H131 C137 0.930 . S
C132 H129 0.931 . S
C132 C133 1.413 . S
C132 C134 1.360 . S
C133 C132 1.413 . S
C133 C137 1.429 . S
C134 C132 1.360 . S
C134 C135 1.372 . S
C135 H130 0.928 . S
C135 C134 1.372 . S
C135 C136 1.404 . S
C136 C135 1.404 . S
C136 C137 1.391 . S
C137 H131 0.930 . S
C137 C133 1.429 . S
C137 C136 1.391 . S
H138 C141 0.931 1_655 S
H139 C144 0.928 . S
H140 C146 0.930 . S
C141 H138 0.931 1_455 S
C141 C142 1.413 . S
C141 C143 1.360 . S
C142 C141 1.413 . S
C142 C146 1.429 . S
C143 C141 1.360 . S
C143 C144 1.372 . S
C144 H139 0.928 . S
C144 C143 1.372 . S
C144 C145 1.404 . S
C145 C144 1.404 . S
C145 C146 1.391 . S
C146 H140 0.930 . S
C146 C142 1.429 . S
C146 C145 1.391 . S
H147 C150 0.931 . S
H148 C153 0.928 . S
H149 C155 0.930 . S
C150 H147 0.931 . S
C150 C151 1.413 . S
C150 C152 1.360 1_655 S
C151 C150 1.413 . S
C151 C155 1.429 1_655 S
C152 C150 1.360 1_455 S
C152 C153 1.371 . S
C153 H148 0.928 . S
C153 C152 1.371 . S
C153 C154 1.404 . S
C154 C153 1.404 . S
C154 C155 1.391 . S
C155 H149 0.930 . S
C155 C151 1.429 1_455 S
C155 C154 1.391 . S
H156 C159 0.931 . S
H157 C162 0.928 . S
H158 C164 0.930 . S
C159 H156 0.931 . S
C159 C160 1.413 . S
C159 C161 1.381 . S
C160 C159 1.413 . S
C160 C164 1.429 . S
C161 C159 1.381 . S
C161 C162 1.351 1_545 S
C162 H157 0.928 . S
C162 C161 1.351 1_565 S
C162 C163 1.404 . S
C163 C162 1.404 . S
C163 C164 1.391 1_565 S
C164 H158 0.930 . S
C164 C160 1.429 . S
C164 C163 1.391 1_545 S
H165 C168 0.931 . S
H166 C171 0.928 . S
H167 C173 0.930 . S
C168 H165 0.931 . S
C168 C169 1.413 . S
C168 C170 1.360 . S
C169 C168 1.413 . S
C169 C173 1.429 . S
C170 C168 1.360 . S
C170 C171 1.372 . S
C171 H166 0.928 . S
C171 C170 1.372 . S
C171 C172 1.404 . S
C172 C171 1.404 . S
C172 C173 1.391 . S
C173 H167 0.930 . S
C173 C169 1.429 . S
C173 C172 1.391 . S
H174 C192 0.951 . S
H175 C194 0.951 . S
H176 C196 0.950 . S
H177 C197 0.950 . S
H178 C199 0.950 . S
H179 C202 0.950 . S
H180 C203 0.950 . S
H181 C205 0.950 . S
H182 C206 0.950 . S
H183 C207 0.951 . S
H184 C209 0.951 . S
H185 C211 0.950 . S
H186 C212 0.950 . S
H187 C214 0.950 . S
H188 C217 0.950 . S
H189 C218 0.950 . S
H190 C220 0.950 . S
H191 C221 0.950 . S
C192 H174 0.951 . S
C192 C193 1.366 . S
C192 C194 1.388 . S
C193 C192 1.366 . S
C193 C197 1.385 . S
C194 H175 0.951 . S
C194 C192 1.388 . S
C194 C195 1.366 . S
C195 C194 1.366 . S
C195 C196 1.414 . S
C195 C198 1.499 . S
C196 H176 0.950 . S
C196 C195 1.414 . S
C196 C197 1.374 . S
C197 H177 0.950 . S
C197 C193 1.385 . S
C197 C196 1.374 . S
C198 C195 1.499 . S
C198 C199 1.373 . S
C198 C200 1.389 . S
C199 H178 0.950 . S
C199 C198 1.373 . S
C199 C215 1.377 . S
C200 C198 1.389 . S
C200 C201 1.524 . S
C200 C214 1.377 . S
C201 C200 1.524 . S
C201 C202 1.397 . S
C201 C206 1.363 . S
C202 H179 0.950 . S
C202 C201 1.397 . S
C202 C203 1.334 . S
C203 H180 0.950 . S
C203 C202 1.334 . S
C203 C204 1.287 . S
C204 C203 1.287 . S
C204 C205 1.524 . S
C204 H223 0.913 . S
C205 H181 0.950 . S
C205 C204 1.524 . S
C205 C206 1.415 . S
C206 H182 0.950 . S
C206 C201 1.363 . S
C206 C205 1.415 . S
C207 H183 0.951 . S
C207 C208 1.366 . S
C207 C209 1.388 . S
C208 C207 1.366 . S
C208 C212 1.385 . S
C209 H184 0.951 . S
C209 C207 1.388 . S
C209 C210 1.366 . S
C210 C209 1.366 . S
C210 C211 1.414 . S
C210 C213 1.499 . S
C211 H185 0.950 . S
C211 C210 1.414 . S
C211 C212 1.374 . S
C212 H186 0.950 . S
C212 C208 1.385 . S
C212 C211 1.374 . S
C213 C210 1.499 . S
C213 C214 1.373 . S
C213 C215 1.389 . S
C214 H187 0.950 . S
C214 C200 1.377 . S
C214 C213 1.373 . S
C215 C199 1.377 . S
C215 C213 1.389 . S
C215 C216 1.524 . S
C216 C215 1.524 . S
C216 C217 1.397 . S
C216 C221 1.363 . S
C217 H188 0.950 . S
C217 C216 1.397 . S
C217 C218 1.334 . S
C218 H189 0.950 . S
C218 C217 1.334 . S
C218 C219 1.287 . S
C219 C218 1.287 . S
C219 C220 1.524 . S
C219 H222 0.999 . S
C220 H190 0.950 . S
C220 C219 1.524 . S
C220 C221 1.415 . S
C221 H191 0.950 . S
C221 C216 1.363 . S
C221 C220 1.415 . S
H222 C219 0.999 . S
H223 C204 0.913 . S
H224 C242 0.951 . S
H225 C244 0.951 . S
H226 C246 0.950 . S
H227 C247 0.950 . S
H228 C249 0.950 . S
H229 C252 0.950 . S
H230 C253 0.950 . S
H231 C255 0.950 . S
H232 C256 0.950 . S
H233 C257 0.951 . S
H234 C259 0.951 . S
H235 C261 0.950 . S
H236 C262 0.950 . S
H237 C264 0.950 . S
H238 C267 0.950 . S
H239 C268 0.950 . S
H240 C270 0.950 . S
H241 C271 0.950 . S
C242 H224 0.951 . S
C242 C243 1.366 . S
C242 C244 1.388 . S
C243 C242 1.366 . S
C243 C247 1.385 . S
C244 H225 0.951 . S
C244 C242 1.388 . S
C244 C245 1.366 . S
C245 C244 1.366 . S
C245 C246 1.414 . S
C245 C248 1.499 . S
C246 H226 0.950 . S
C246 C245 1.414 . S
C246 C247 1.374 . S
C247 H227 0.950 . S
C247 C243 1.385 . S
C247 C246 1.374 . S
C248 C245 1.499 . S
C248 C249 1.373 . S
C248 C250 1.389 . S
C249 H228 0.950 . S
C249 C248 1.373 . S
C249 C265 1.377 . S
C250 C248 1.389 . S
C250 C251 1.524 . S
C250 C264 1.377 . S
C251 C250 1.524 . S
C251 C252 1.397 . S
C251 C256 1.363 . S
C252 H229 0.950 . S
C252 C251 1.397 . S
C252 C253 1.334 . S
C253 H230 0.950 . S
C253 C252 1.334 . S
C253 C254 1.287 . S
C254 C253 1.287 . S
C254 C255 1.524 . S
C254 H273 0.913 . S
C255 H231 0.950 . S
C255 C254 1.524 . S
C255 C256 1.415 . S
C256 H232 0.950 . S
C256 C251 1.363 . S
C256 C255 1.415 . S
C257 H233 0.951 . S
C257 C258 1.366 . S
C257 C259 1.388 . S
C258 C257 1.366 . S
C258 C262 1.385 . S
C259 H234 0.951 . S
C259 C257 1.388 . S
C259 C260 1.366 . S
C260 C259 1.366 . S
C260 C261 1.414 . S
C260 C263 1.499 . S
C261 H235 0.950 . S
C261 C260 1.414 . S
C261 C262 1.374 . S
C262 H236 0.950 . S
C262 C258 1.385 . S
C262 C261 1.374 . S
C263 C260 1.499 . S
C263 C264 1.373 . S
C263 C265 1.389 . S
C264 H237 0.950 . S
C264 C250 1.377 . S
C264 C263 1.373 . S
C265 C249 1.377 . S
C265 C263 1.389 . S
C265 C266 1.524 . S
C266 C265 1.524 . S
C266 C267 1.397 . S
C266 C271 1.363 . S
C267 H238 0.950 . S
C267 C266 1.397 . S
C267 C268 1.334 . S
C268 H239 0.950 . S
C268 C267 1.334 . S
C268 C269 1.287 . S
C269 C268 1.287 . S
C269 C270 1.524 . S
C269 H272 0.999 . S
C270 H240 0.950 . S
C270 C269 1.524 . S
C270 C271 1.415 . S
C271 H241 0.950 . S
C271 C266 1.363 . S
C271 C270 1.415 . S
H272 C269 0.999 . S
H273 C254 0.913 . S
H274 C292 0.951 . S
H275 C294 0.951 . S
H276 C296 0.950 . S
H277 C297 0.950 . S
H278 C299 0.950 . S
H279 C302 0.950 . S
H280 C303 0.950 . S
H281 C305 0.950 . S
H282 C306 0.950 . S
H283 C307 0.951 . S
H284 C309 0.951 . S
H285 C311 0.950 . S
H286 C312 0.950 . S
H287 C314 0.950 . S
H288 C317 0.950 . S
H289 C318 0.950 . S
H290 C320 0.950 . S
H291 C321 0.950 . S
C292 H274 0.951 . S
C292 C293 1.366 . S
C292 C294 1.388 . S
C293 C292 1.366 . S
C293 C297 1.385 . S
C294 H275 0.951 . S
C294 C292 1.388 . S
C294 C295 1.366 . S
C295 C294 1.366 . S
C295 C296 1.414 . S
C295 C298 1.499 . S
C296 H276 0.950 . S
C296 C295 1.414 . S
C296 C297 1.374 . S
C297 H277 0.950 . S
C297 C293 1.385 . S
C297 C296 1.374 . S
C298 C295 1.499 . S
C298 C299 1.373 . S
C298 C300 1.389 . S
C299 H278 0.950 . S
C299 C298 1.373 . S
C299 C315 1.377 . S
C300 C298 1.389 . S
C300 C301 1.524 . S
C300 C314 1.377 . S
C301 C300 1.524 . S
C301 C302 1.397 . S
C301 C306 1.363 . S
C302 H279 0.950 . S
C302 C301 1.397 . S
C302 C303 1.334 . S
C303 H280 0.950 . S
C303 C302 1.334 . S
C303 C304 1.287 . S
C304 C303 1.287 . S
C304 C305 1.524 . S
C304 H323 0.913 . S
C305 H281 0.950 . S
C305 C304 1.524 . S
C305 C306 1.415 . S
C306 H282 0.950 . S
C306 C301 1.363 . S
C306 C305 1.415 . S
C307 H283 0.951 . S
C307 C308 1.366 . S
C307 C309 1.388 . S
C308 C307 1.366 . S
C308 C312 1.385 . S
C309 H284 0.951 . S
C309 C307 1.388 . S
C309 C310 1.366 . S
C310 C309 1.366 . S
C310 C311 1.414 . S
C310 C313 1.499 . S
C311 H285 0.950 . S
C311 C310 1.414 . S
C311 C312 1.374 . S
C312 H286 0.950 . S
C312 C308 1.385 . S
C312 C311 1.374 . S
C313 C310 1.499 . S
C313 C314 1.373 . S
C313 C315 1.389 . S
C314 H287 0.950 . S
C314 C300 1.377 . S
C314 C313 1.373 . S
C315 C299 1.377 . S
C315 C313 1.389 . S
C315 C316 1.524 . S
C316 C315 1.524 . S
C316 C317 1.397 . S
C316 C321 1.363 . S
C317 H288 0.950 . S
C317 C316 1.397 . S
C317 C318 1.334 . S
C318 H289 0.950 . S
C318 C317 1.334 . S
C318 C319 1.287 . S
C319 C318 1.287 . S
C319 C320 1.524 . S
C319 H322 0.999 . S
C320 H290 0.950 . S
C320 C319 1.524 . S
C320 C321 1.415 . S
C321 H291 0.950 . S
C321 C316 1.363 . S
C321 C320 1.415 . S
H322 C319 0.999 . S
H323 C304 0.913 . S
H324 C342 0.951 . S
H325 C344 0.951 . S
H326 C346 0.950 . S
H327 C347 0.950 . S
H328 C349 0.950 . S
H329 C352 0.950 . S
H330 C353 0.950 . S
H331 C355 0.950 . S
H332 C356 0.950 . S
H333 C357 0.951 . S
H334 C359 0.951 . S
H335 C361 0.950 . S
H336 C362 0.950 . S
H337 C364 0.950 . S
H338 C367 0.950 . S
H339 C368 0.950 . S
H340 C370 0.950 . S
H341 C371 0.950 . S
C342 H324 0.951 . S
C342 C343 1.366 . S
C342 C344 1.388 . S
C343 C342 1.366 . S
C343 C347 1.385 . S
C344 H325 0.951 . S
C344 C342 1.388 . S
C344 C345 1.366 . S
C345 C344 1.366 . S
C345 C346 1.414 . S
C345 C348 1.499 . S
C346 H326 0.950 . S
C346 C345 1.414 . S
C346 C347 1.374 . S
C347 H327 0.950 . S
C347 C343 1.385 . S
C347 C346 1.374 . S
C348 C345 1.499 . S
C348 C349 1.373 . S
C348 C350 1.389 . S
C349 H328 0.950 . S
C349 C348 1.373 . S
C349 C365 1.377 . S
C350 C348 1.389 . S
C350 C351 1.524 . S
C350 C364 1.377 . S
C351 C350 1.524 . S
C351 C352 1.397 . S
C351 C356 1.363 . S
C352 H329 0.950 . S
C352 C351 1.397 . S
C352 C353 1.334 . S
C353 H330 0.950 . S
C353 C352 1.334 . S
C353 C354 1.287 . S
C354 C353 1.287 . S
C354 C355 1.524 . S
C354 H373 0.913 . S
C355 H331 0.950 . S
C355 C354 1.524 . S
C355 C356 1.415 . S
C356 H332 0.950 . S
C356 C351 1.363 . S
C356 C355 1.415 . S
C357 H333 0.951 . S
C357 C358 1.366 . S
C357 C359 1.388 . S
C358 C357 1.366 . S
C358 C362 1.385 . S
C359 H334 0.951 . S
C359 C357 1.388 . S
C359 C360 1.366 . S
C360 C359 1.366 . S
C360 C361 1.414 . S
C360 C363 1.499 . S
C361 H335 0.950 . S
C361 C360 1.414 . S
C361 C362 1.374 . S
C362 H336 0.950 . S
C362 C358 1.385 . S
C362 C361 1.374 . S
C363 C360 1.499 . S
C363 C364 1.373 . S
C363 C365 1.389 . S
C364 H337 0.950 . S
C364 C350 1.377 . S
C364 C363 1.373 . S
C365 C349 1.377 . S
C365 C363 1.389 . S
C365 C366 1.524 . S
C366 C365 1.524 . S
C366 C367 1.397 . S
C366 C371 1.363 . S
C367 H338 0.950 . S
C367 C366 1.397 . S
C367 C368 1.334 . S
C368 H339 0.950 . S
C368 C367 1.334 . S
C368 C369 1.287 . S
C369 C368 1.287 . S
C369 C370 1.524 . S
C369 H372 0.999 . S
C370 H340 0.950 . S
C370 C369 1.524 . S
C370 C371 1.415 . S
C371 H341 0.950 . S
C371 C366 1.363 . S
C371 C370 1.415 . S
H372 C369 0.999 . S
H373 C354 0.913 . S
H374 C392 0.951 . S
H375 C394 0.951 . S
H376 C396 0.950 . S
H377 C397 0.950 . S
H378 C399 0.950 . S
H379 C402 0.950 . S
H380 C403 0.950 . S
H381 C405 0.950 . S
H382 C406 0.950 . S
H383 C407 0.951 . S
H384 C409 0.951 . S
H385 C411 0.950 . S
H386 C412 0.950 . S
H387 C414 0.950 . S
H388 C417 0.950 . S
H389 C418 0.950 . S
H390 C420 0.950 . S
H391 C421 0.950 . S
C392 H374 0.951 . S
C392 C393 1.366 . S
C392 C394 1.388 . S
C393 C392 1.366 . S
C393 C397 1.385 . S
C394 H375 0.951 . S
C394 C392 1.388 . S
C394 C395 1.366 . S
C395 C394 1.366 . S
C395 C396 1.414 . S
C395 C398 1.499 . S
C396 H376 0.950 . S
C396 C395 1.414 . S
C396 C397 1.374 . S
C397 H377 0.950 . S
C397 C393 1.385 . S
C397 C396 1.374 . S
C398 C395 1.499 . S
C398 C399 1.373 . S
C398 C400 1.389 . S
C399 H378 0.950 . S
C399 C398 1.373 . S
C399 C415 1.377 . S
C400 C398 1.389 . S
C400 C401 1.524 . S
C400 C414 1.377 . S
C401 C400 1.524 . S
C401 C402 1.397 . S
C401 C406 1.363 . S
C402 H379 0.950 . S
C402 C401 1.397 . S
C402 C403 1.334 . S
C403 H380 0.950 . S
C403 C402 1.334 . S
C403 C404 1.287 . S
C404 C403 1.287 . S
C404 C405 1.524 . S
C404 H423 0.913 . S
C405 H381 0.950 . S
C405 C404 1.524 . S
C405 C406 1.415 . S
C406 H382 0.950 . S
C406 C401 1.363 . S
C406 C405 1.415 . S
C407 H383 0.951 . S
C407 C408 1.366 . S
C407 C409 1.388 . S
C408 C407 1.366 . S
C408 C412 1.385 . S
C409 H384 0.951 . S
C409 C407 1.388 . S
C409 C410 1.366 . S
C410 C409 1.366 . S
C410 C411 1.414 . S
C410 C413 1.499 . S
C411 H385 0.950 . S
C411 C410 1.414 . S
C411 C412 1.374 . S
C412 H386 0.950 . S
C412 C408 1.385 . S
C412 C411 1.374 . S
C413 C410 1.499 . S
C413 C414 1.373 . S
C413 C415 1.389 . S
C414 H387 0.950 . S
C414 C400 1.377 . S
C414 C413 1.373 . S
C415 C399 1.377 . S
C415 C413 1.389 . S
C415 C416 1.524 . S
C416 C415 1.524 . S
C416 C417 1.397 . S
C416 C421 1.363 . S
C417 H388 0.950 . S
C417 C416 1.397 . S
C417 C418 1.334 . S
C418 H389 0.950 . S
C418 C417 1.334 . S
C418 C419 1.287 . S
C419 C418 1.287 . S
C419 C420 1.524 . S
C419 H422 0.999 . S
C420 H390 0.950 . S
C420 C419 1.524 . S
C420 C421 1.415 . S
C421 H391 0.950 . S
C421 C416 1.363 . S
C421 C420 1.415 . S
H422 C419 0.999 . S
H423 C404 0.913 . S
H424 C442 0.951 . S
H425 C444 0.951 . S
H426 C446 0.950 . S
H427 C447 0.950 . S
H428 C449 0.950 . S
H429 C452 0.950 . S
H430 C453 0.950 . S
H431 C455 0.950 . S
H432 C456 0.950 . S
H433 C457 0.951 . S
H434 C459 0.951 . S
H435 C461 0.950 . S
H436 C462 0.950 . S
H437 C464 0.950 . S
H438 C467 0.950 . S
H439 C468 0.950 . S
H440 C470 0.950 . S
H441 C471 0.950 . S
C442 H424 0.951 . S
C442 C443 1.366 . S
C442 C444 1.388 . S
C443 C442 1.366 . S
C443 C447 1.385 . S
C444 H425 0.951 . S
C444 C442 1.388 . S
C444 C445 1.366 . S
C445 C444 1.366 . S
C445 C446 1.414 . S
C445 C448 1.499 . S
C446 H426 0.950 . S
C446 C445 1.414 . S
C446 C447 1.374 . S
C447 H427 0.950 . S
C447 C443 1.385 . S
C447 C446 1.374 . S
C448 C445 1.499 . S
C448 C449 1.373 . S
C448 C450 1.389 . S
C449 H428 0.950 . S
C449 C448 1.373 . S
C449 C465 1.377 . S
C450 C448 1.389 . S
C450 C451 1.524 . S
C450 C464 1.377 . S
C451 C450 1.524 . S
C451 C452 1.397 . S
C451 C456 1.363 . S
C452 H429 0.950 . S
C452 C451 1.397 . S
C452 C453 1.334 . S
C453 H430 0.950 . S
C453 C452 1.334 . S
C453 C454 1.287 . S
C454 C453 1.287 . S
C454 C455 1.524 . S
C454 H473 0.913 . S
C455 H431 0.950 . S
C455 C454 1.524 . S
C455 C456 1.415 . S
C456 H432 0.950 . S
C456 C451 1.363 . S
C456 C455 1.415 . S
C457 H433 0.951 . S
C457 C458 1.366 . S
C457 C459 1.388 . S
C458 C457 1.366 . S
C458 C462 1.385 . S
C459 H434 0.951 . S
C459 C457 1.388 . S
C459 C460 1.366 . S
C460 C459 1.366 . S
C460 C461 1.414 . S
C460 C463 1.499 . S
C461 H435 0.950 . S
C461 C460 1.414 . S
C461 C462 1.374 . S
C462 H436 0.950 . S
C462 C458 1.385 . S
C462 C461 1.374 . S
C463 C460 1.499 . S
C463 C464 1.373 . S
C463 C465 1.389 . S
C464 H437 0.950 . S
C464 C450 1.377 . S
C464 C463 1.373 . S
C465 C449 1.377 . S
C465 C463 1.389 . S
C465 C466 1.524 . S
C466 C465 1.524 . S
C466 C467 1.397 . S
C466 C471 1.363 . S
C467 H438 0.950 . S
C467 C466 1.397 . S
C467 C468 1.334 . S
C468 H439 0.950 . S
C468 C467 1.334 . S
C468 C469 1.287 . S
C469 C468 1.287 . S
C469 C470 1.524 . S
C469 H472 0.999 . S
C470 H440 0.950 . S
C470 C469 1.524 . S
C470 C471 1.415 . S
C471 H441 0.950 . S
C471 C466 1.363 . S
C471 C470 1.415 . S
H472 C469 0.999 . S
H473 C454 0.913 . S
H474 C492 0.951 . S
H475 C494 0.951 . S
H476 C496 0.950 . S
H477 C497 0.950 . S
H478 C499 0.950 . S
H479 C502 0.950 . S
H480 C503 0.950 . S
H481 C505 0.950 . S
H482 C506 0.950 . S
H483 C507 0.951 . S
H484 C509 0.951 . S
H485 C511 0.950 . S
H486 C512 0.950 . S
H487 C514 0.950 . S
H488 C517 0.950 . S
H489 C518 0.950 . S
H490 C520 0.950 . S
H491 C521 0.950 . S
C492 H474 0.951 . S
C492 C493 1.366 . S
C492 C494 1.388 . S
C493 C492 1.366 . S
C493 C497 1.385 . S
C494 H475 0.951 . S
C494 C492 1.388 . S
C494 C495 1.366 . S
C495 C494 1.366 . S
C495 C496 1.414 . S
C495 C498 1.499 . S
C496 H476 0.950 . S
C496 C495 1.414 . S
C496 C497 1.374 . S
C497 H477 0.950 . S
C497 C493 1.385 . S
C497 C496 1.374 . S
C498 C495 1.499 . S
C498 C499 1.373 . S
C498 C500 1.389 . S
C499 H478 0.950 . S
C499 C498 1.373 . S
C499 C515 1.377 . S
C500 C498 1.389 . S
C500 C501 1.524 . S
C500 C514 1.377 . S
C501 C500 1.524 . S
C501 C502 1.397 . S
C501 C506 1.363 . S
C502 H479 0.950 . S
C502 C501 1.397 . S
C502 C503 1.334 . S
C503 H480 0.950 . S
C503 C502 1.334 . S
C503 C504 1.287 . S
C504 C503 1.287 . S
C504 C505 1.524 . S
C504 H523 0.913 . S
C505 H481 0.950 . S
C505 C504 1.524 . S
C505 C506 1.415 . S
C506 H482 0.950 . S
C506 C501 1.363 . S
C506 C505 1.415 . S
C507 H483 0.951 . S
C507 C508 1.366 . S
C507 C509 1.388 . S
C508 C507 1.366 . S
C508 C512 1.385 . S
C509 H484 0.951 . S
C509 C507 1.388 . S
C509 C510 1.366 . S
C510 C509 1.366 . S
C510 C511 1.414 . S
C510 C513 1.499 . S
C511 H485 0.950 . S
C511 C510 1.414 . S
C511 C512 1.374 . S
C512 H486 0.950 . S
C512 C508 1.385 . S
C512 C511 1.374 . S
C513 C510 1.499 . S
C513 C514 1.373 . S
C513 C515 1.389 . S
C514 H487 0.950 . S
C514 C500 1.377 . S
C514 C513 1.373 . S
C515 C499 1.377 . S
C515 C513 1.389 . S
C515 C516 1.524 . S
C516 C515 1.524 . S
C516 C517 1.397 . S
C516 C521 1.363 . S
C517 H488 0.950 . S
C517 C516 1.397 . S
C517 C518 1.334 . S
C518 H489 0.950 . S
C518 C517 1.334 . S
C518 C519 1.287 . S
C519 C518 1.287 . S
C519 C520 1.524 . S
C519 H522 0.999 . S
C520 H490 0.950 . S
C520 C519 1.524 . S
C520 C521 1.415 . S
C521 H491 0.950 . S
C521 C516 1.363 . S
C521 C520 1.415 . S
H522 C519 0.999 . S
H523 C504 0.913 . S
H524 C542 0.951 . S
H525 C544 0.951 . S
H526 C546 0.950 . S
H527 C547 0.950 . S
H528 C549 0.950 . S
H529 C552 0.950 . S
H530 C553 0.950 . S
H531 C555 0.950 . S
H532 C556 0.950 . S
H533 C557 0.951 . S
H534 C559 0.951 . S
H535 C561 0.950 . S
H536 C562 0.950 . S
H537 C564 0.950 . S
H538 C567 0.950 . S
H539 C568 0.950 . S
H540 C570 0.950 . S
H541 C571 0.950 . S
C542 H524 0.951 . S
C542 C543 1.366 . S
C542 C544 1.388 . S
C543 C542 1.366 . S
C543 C547 1.385 . S
C544 H525 0.951 . S
C544 C542 1.388 . S
C544 C545 1.366 . S
C545 C544 1.366 . S
C545 C546 1.414 . S
C545 C548 1.499 . S
C546 H526 0.950 . S
C546 C545 1.414 . S
C546 C547 1.374 . S
C547 H527 0.950 . S
C547 C543 1.385 . S
C547 C546 1.374 . S
C548 C545 1.499 . S
C548 C549 1.373 . S
C548 C550 1.389 . S
C549 H528 0.950 . S
C549 C548 1.373 . S
C549 C565 1.377 . S
C550 C548 1.389 . S
C550 C551 1.524 . S
C550 C564 1.377 . S
C551 C550 1.524 . S
C551 C552 1.397 . S
C551 C556 1.363 . S
C552 H529 0.950 . S
C552 C551 1.397 . S
C552 C553 1.334 . S
C553 H530 0.950 . S
C553 C552 1.334 . S
C553 C554 1.287 . S
C554 C553 1.287 . S
C554 C555 1.524 . S
C554 H573 0.913 . S
C555 H531 0.950 . S
C555 C554 1.524 . S
C555 C556 1.415 . S
C556 H532 0.950 . S
C556 C551 1.363 . S
C556 C555 1.415 . S
C557 H533 0.951 . S
C557 C558 1.366 . S
C557 C559 1.388 . S
C558 C557 1.366 . S
C558 C562 1.385 . S
C559 H534 0.951 . S
C559 C557 1.388 . S
C559 C560 1.366 . S
C560 C559 1.366 . S
C560 C561 1.414 . S
C560 C563 1.499 . S
C561 H535 0.950 . S
C561 C560 1.414 . S
C561 C562 1.374 . S
C562 H536 0.950 . S
C562 C558 1.385 . S
C562 C561 1.374 . S
C563 C560 1.499 . S
C563 C564 1.373 . S
C563 C565 1.389 . S
C564 H537 0.950 . S
C564 C550 1.377 . S
C564 C563 1.373 . S
C565 C549 1.377 . S
C565 C563 1.389 . S
C565 C566 1.524 . S
C566 C565 1.524 . S
C566 C567 1.397 . S
C566 C571 1.363 . S
C567 H538 0.950 . S
C567 C566 1.397 . S
C567 C568 1.334 . S
C568 H539 0.950 . S
C568 C567 1.334 . S
C568 C569 1.287 . S
C569 C568 1.287 . S
C569 C570 1.524 . S
C569 H572 0.999 . S
C570 H540 0.950 . S
C570 C569 1.524 . S
C570 C571 1.415 . S
C571 H541 0.950 . S
C571 C566 1.363 . S
C571 C570 1.415 . S
H572 C569 0.999 . S
H573 C554 0.913 . S
H574 C592 0.951 . S
H575 C594 0.951 . S
H576 C596 0.950 . S
H577 C597 0.950 . S
H578 C599 0.950 . S
H579 C602 0.950 . S
H580 C603 0.950 . S
H581 C605 0.950 . S
H582 C606 0.950 . S
H583 C607 0.951 . S
H584 C609 0.951 . S
H585 C611 0.950 . S
H586 C612 0.950 . S
H587 C614 0.950 . S
H588 C617 0.950 . S
H589 C618 0.950 . S
H590 C620 0.950 . S
H591 C621 0.950 . S
C592 H574 0.951 . S
C592 C593 1.366 . S
C592 C594 1.388 . S
C593 C592 1.366 . S
C593 C597 1.385 . S
C594 H575 0.951 . S
C594 C592 1.388 . S
C594 C595 1.366 . S
C595 C594 1.366 . S
C595 C596 1.414 . S
C595 C598 1.499 . S
C596 H576 0.950 . S
C596 C595 1.414 . S
C596 C597 1.374 . S
C597 H577 0.950 . S
C597 C593 1.385 . S
C597 C596 1.374 . S
C598 C595 1.499 . S
C598 C599 1.373 . S
C598 C600 1.389 . S
C599 H578 0.950 . S
C599 C598 1.373 . S
C599 C615 1.377 . S
C600 C598 1.389 . S
C600 C601 1.524 . S
C600 C614 1.377 . S
C601 C600 1.524 . S
C601 C602 1.397 . S
C601 C606 1.363 . S
C602 H579 0.950 . S
C602 C601 1.397 . S
C602 C603 1.334 . S
C603 H580 0.950 . S
C603 C602 1.334 . S
C603 C604 1.287 . S
C604 C603 1.287 . S
C604 C605 1.524 . S
C604 H623 0.913 . S
C605 H581 0.950 . S
C605 C604 1.524 . S
C605 C606 1.415 . S
C606 H582 0.950 . S
C606 C601 1.363 . S
C606 C605 1.415 . S
C607 H583 0.951 . S
C607 C608 1.366 . S
C607 C609 1.388 . S
C608 C607 1.366 . S
C608 C612 1.385 . S
C609 H584 0.951 . S
C609 C607 1.388 . S
C609 C610 1.366 . S
C610 C609 1.366 . S
C610 C611 1.414 . S
C610 C613 1.499 . S
C611 H585 0.950 . S
C611 C610 1.414 . S
C611 C612 1.374 . S
C612 H586 0.950 . S
C612 C608 1.385 . S
C612 C611 1.374 . S
C613 C610 1.499 . S
C613 C614 1.373 . S
C613 C615 1.389 . S
C614 H587 0.950 . S
C614 C600 1.377 . S
C614 C613 1.373 . S
C615 C599 1.377 . S
C615 C613 1.389 . S
C615 C616 1.524 . S
C616 C615 1.524 . S
C616 C617 1.397 . S
C616 C621 1.363 . S
C617 H588 0.950 . S
C617 C616 1.397 . S
C617 C618 1.334 . S
C618 H589 0.950 . S
C618 C617 1.334 . S
C618 C619 1.287 . S
C619 C618 1.287 . S
C619 C620 1.524 . S
C619 H622 0.999 . S
C620 H590 0.950 . S
C620 C619 1.524 . S
C620 C621 1.415 . S
C621 H591 0.950 . S
C621 C616 1.363 . S
C621 C620 1.415 . S
H622 C619 0.999 . S
H623 C604 0.913 . S
H624 C642 0.951 . S
H625 C644 0.951 . S
H626 C646 0.950 . S
H627 C647 0.950 . S
H628 C649 0.950 . S
H629 C652 0.950 . S
H630 C653 0.950 . S
H631 C655 0.950 . S
H632 C656 0.950 . S
H633 C657 0.951 . S
H634 C659 0.951 . S
H635 C661 0.950 . S
H636 C662 0.950 . S
H637 C664 0.950 . S
H638 C667 0.950 . S
H639 C668 0.950 . S
H640 C670 0.950 . S
H641 C671 0.950 . S
C642 H624 0.951 . S
C642 C643 1.366 . S
C642 C644 1.388 . S
C643 C642 1.366 . S
C643 C647 1.385 . S
C644 H625 0.951 . S
C644 C642 1.388 . S
C644 C645 1.366 . S
C645 C644 1.366 . S
C645 C646 1.414 . S
C645 C648 1.499 . S
C646 H626 0.950 . S
C646 C645 1.414 . S
C646 C647 1.374 . S
C647 H627 0.950 . S
C647 C643 1.385 . S
C647 C646 1.374 . S
C648 C645 1.499 . S
C648 C649 1.373 . S
C648 C650 1.389 . S
C649 H628 0.950 . S
C649 C648 1.373 . S
C649 C665 1.377 . S
C650 C648 1.389 . S
C650 C651 1.524 . S
C650 C664 1.377 . S
C651 C650 1.524 . S
C651 C652 1.397 . S
C651 C656 1.363 . S
C652 H629 0.950 . S
C652 C651 1.397 . S
C652 C653 1.334 . S
C653 H630 0.950 . S
C653 C652 1.334 . S
C653 C654 1.287 . S
C654 C653 1.287 . S
C654 C655 1.524 . S
C654 H673 0.913 . S
C655 H631 0.950 . S
C655 C654 1.524 . S
C655 C656 1.415 . S
C656 H632 0.950 . S
C656 C651 1.363 . S
C656 C655 1.415 . S
C657 H633 0.951 . S
C657 C658 1.366 . S
C657 C659 1.388 . S
C658 C657 1.366 . S
C658 C662 1.385 . S
C659 H634 0.951 . S
C659 C657 1.388 . S
C659 C660 1.366 . S
C660 C659 1.366 . S
C660 C661 1.414 . S
C660 C663 1.499 . S
C661 H635 0.950 . S
C661 C660 1.414 . S
C661 C662 1.374 . S
C662 H636 0.950 . S
C662 C658 1.385 . S
C662 C661 1.374 . S
C663 C660 1.499 . S
C663 C664 1.373 . S
C663 C665 1.389 . S
C664 H637 0.950 . S
C664 C650 1.377 . S
C664 C663 1.373 . S
C665 C649 1.377 . S
C665 C663 1.389 . S
C665 C666 1.524 . S
C666 C665 1.524 . S
C666 C667 1.397 . S
C666 C671 1.363 . S
C667 H638 0.950 . S
C667 C666 1.397 . S
C667 C668 1.334 . S
C668 H639 0.950 . S
C668 C667 1.334 . S
C668 C669 1.287 . S
C669 C668 1.287 . S
C669 C670 1.524 . S
C669 H672 0.999 . S
C670 H640 0.950 . S
C670 C669 1.524 . S
C670 C671 1.415 . S
C671 H641 0.950 . S
C671 C666 1.363 . S
C671 C670 1.415 . S
H672 C669 0.999 . S
H673 C654 0.913 . S
H674 C692 0.951 . S
H675 C694 0.951 . S
H676 C696 0.950 . S
H677 C697 0.950 . S
H678 C699 0.950 . S
H679 C702 0.950 . S
H680 C703 0.950 . S
H681 C705 0.950 . S
H682 C706 0.950 . S
H683 C707 0.951 . S
H684 C709 0.951 . S
H685 C711 0.950 . S
H686 C712 0.950 . S
H687 C714 0.950 . S
H688 C717 0.950 . S
H689 C718 0.950 . S
H690 C720 0.950 . S
H691 C721 0.950 . S
C692 H674 0.951 . S
C692 C693 1.366 . S
C692 C694 1.388 . S
C693 C692 1.366 . S
C693 C697 1.385 . S
C694 H675 0.951 . S
C694 C692 1.388 . S
C694 C695 1.366 . S
C695 C694 1.366 . S
C695 C696 1.414 . S
C695 C698 1.499 . S
C696 H676 0.950 . S
C696 C695 1.414 . S
C696 C697 1.374 . S
C697 H677 0.950 . S
C697 C693 1.385 . S
C697 C696 1.374 . S
C698 C695 1.499 . S
C698 C699 1.373 . S
C698 C700 1.389 . S
C699 H678 0.950 . S
C699 C698 1.373 . S
C699 C715 1.377 . S
C700 C698 1.389 . S
C700 C701 1.524 . S
C700 C714 1.377 . S
C701 C700 1.524 . S
C701 C702 1.397 . S
C701 C706 1.363 . S
C702 H679 0.950 . S
C702 C701 1.397 . S
C702 C703 1.334 . S
C703 H680 0.950 . S
C703 C702 1.334 . S
C703 C704 1.287 . S
C704 C703 1.287 . S
C704 C705 1.524 . S
C704 H723 0.913 . S
C705 H681 0.950 . S
C705 C704 1.524 . S
C705 C706 1.415 . S
C706 H682 0.950 . S
C706 C701 1.363 . S
C706 C705 1.415 . S
C707 H683 0.951 . S
C707 C708 1.366 . S
C707 C709 1.388 . S
C708 C707 1.366 . S
C708 C712 1.385 . S
C709 H684 0.951 . S
C709 C707 1.388 . S
C709 C710 1.366 . S
C710 C709 1.366 . S
C710 C711 1.414 . S
C710 C713 1.499 . S
C711 H685 0.950 . S
C711 C710 1.414 . S
C711 C712 1.374 . S
C712 H686 0.950 . S
C712 C708 1.385 . S
C712 C711 1.374 . S
C713 C710 1.499 . S
C713 C714 1.373 . S
C713 C715 1.389 . S
C714 H687 0.950 . S
C714 C700 1.377 . S
C714 C713 1.373 . S
C715 C699 1.377 . S
C715 C713 1.389 . S
C715 C716 1.524 . S
C716 C715 1.524 . S
C716 C717 1.397 . S
C716 C721 1.363 . S
C717 H688 0.950 . S
C717 C716 1.397 . S
C717 C718 1.334 . S
C718 H689 0.950 . S
C718 C717 1.334 . S
C718 C719 1.287 . S
C719 C718 1.287 . S
C719 C720 1.524 . S
C719 H722 0.999 . S
C720 H690 0.950 . S
C720 C719 1.524 . S
C720 C721 1.415 . S
C721 H691 0.950 . S
C721 C716 1.363 . S
C721 C720 1.415 . S
H722 C719 0.999 . S
H723 C704 0.913 . S
H724 C742 0.951 . S
H725 C744 0.951 . S
H726 C746 0.950 . S
H727 C747 0.950 . S
H728 C749 0.950 . S
H729 C752 0.950 . S
H730 C753 0.950 . S
H731 C755 0.950 . S
H732 C756 0.950 . S
H733 C757 0.951 . S
H734 C759 0.951 . S
H735 C761 0.950 . S
H736 C762 0.950 . S
H737 C764 0.950 . S
H738 C767 0.950 . S
H739 C768 0.950 . S
H740 C770 0.950 . S
H741 C771 0.950 . S
C742 H724 0.951 . S
C742 C743 1.366 . S
C742 C744 1.388 . S
C743 C742 1.366 . S
C743 C747 1.385 . S
C744 H725 0.951 . S
C744 C742 1.388 . S
C744 C745 1.366 . S
C745 C744 1.366 . S
C745 C746 1.414 . S
C745 C748 1.499 . S
C746 H726 0.950 . S
C746 C745 1.414 . S
C746 C747 1.374 . S
C747 H727 0.950 . S
C747 C743 1.385 . S
C747 C746 1.374 . S
C748 C745 1.499 . S
C748 C749 1.373 . S
C748 C750 1.389 . S
C749 H728 0.950 . S
C749 C748 1.373 . S
C749 C765 1.377 . S
C750 C748 1.389 . S
C750 C751 1.524 . S
C750 C764 1.377 . S
C751 C750 1.524 . S
C751 C752 1.397 . S
C751 C756 1.363 . S
C752 H729 0.950 . S
C752 C751 1.397 . S
C752 C753 1.334 . S
C753 H730 0.950 . S
C753 C752 1.334 . S
C753 C754 1.287 . S
C754 C753 1.287 . S
C754 C755 1.524 . S
C754 H773 0.913 . S
C755 H731 0.950 . S
C755 C754 1.524 . S
C755 C756 1.415 . S
C756 H732 0.950 . S
C756 C751 1.363 . S
C756 C755 1.415 . S
C757 H733 0.951 . S
C757 C758 1.366 . S
C757 C759 1.388 . S
C758 C757 1.366 . S
C758 C762 1.385 . S
C759 H734 0.951 . S
C759 C757 1.388 . S
C759 C760 1.366 . S
C760 C759 1.366 . S
C760 C761 1.414 . S
C760 C763 1.499 . S
C761 H735 0.950 . S
C761 C760 1.414 . S
C761 C762 1.374 . S
C762 H736 0.950 . S
C762 C758 1.385 . S
C762 C761 1.374 . S
C763 C760 1.499 . S
C763 C764 1.373 . S
C763 C765 1.389 . S
C764 H737 0.950 . S
C764 C750 1.377 . S
C764 C763 1.373 . S
C765 C749 1.377 . S
C765 C763 1.389 . S
C765 C766 1.524 . S
C766 C765 1.524 . S
C766 C767 1.397 . S
C766 C771 1.363 . S
C767 H738 0.950 . S
C767 C766 1.397 . S
C767 C768 1.334 . S
C768 H739 0.950 . S
C768 C767 1.334 . S
C768 C769 1.287 . S
C769 C768 1.287 . S
C769 C770 1.524 . S
C769 H772 0.999 . S
C770 H740 0.950 . S
C770 C769 1.524 . S
C770 C771 1.415 . S
C771 H741 0.950 . S
C771 C766 1.363 . S
C771 C770 1.415 . S
H772 C769 0.999 . S
H773 C754 0.913 . S
H774 C792 0.951 . S
H775 C794 0.951 . S
H776 C796 0.950 . S
H777 C797 0.950 . S
H778 C799 0.950 1_655 S
H779 C802 0.950 . S
H780 C803 0.950 . S
H781 C805 0.950 . S
H782 C806 0.950 . S
H783 C807 0.951 1_655 S
H784 C809 0.951 1_655 S
H785 C811 0.950 . S
H786 C812 0.950 . S
H787 C814 0.950 . S
H788 C817 0.955 . S
H789 C818 0.950 . S
H790 C820 0.950 . S
H791 C821 0.950 . S
C792 H774 0.951 . S
C792 C793 1.366 . S
C792 C794 1.388 . S
C793 C792 1.366 . S
C793 C797 1.385 1_455 S
C794 H775 0.951 . S
C794 C792 1.388 . S
C794 C795 1.366 . S
C795 C794 1.366 . S
C795 C796 1.414 1_455 S
C795 C798 1.499 . S
C796 H776 0.950 . S
C796 C795 1.414 1_655 S
C796 C797 1.374 . S
C797 H777 0.950 . S
C797 C793 1.385 1_655 S
C797 C796 1.374 . S
C798 C795 1.499 . S
C798 C799 1.373 . S
C798 C800 1.389 . S
C799 H778 0.950 1_455 S
C799 C798 1.373 . S
C799 C815 1.377 . S
C800 C798 1.389 . S
C800 C801 1.524 . S
C800 C814 1.377 . S
C801 C800 1.524 . S
C801 C802 1.397 . S
C801 C806 1.363 . S
C802 H779 0.950 . S
C802 C801 1.397 . S
C802 C803 1.334 . S
C803 H780 0.950 . S
C803 C802 1.334 . S
C803 C804 1.287 . S
C804 C803 1.287 . S
C804 C805 1.524 . S
C804 H823 0.913 . S
C805 H781 0.950 . S
C805 C804 1.524 . S
C805 C806 1.415 . S
C806 H782 0.950 . S
C806 C801 1.363 . S
C806 C805 1.415 . S
C807 H783 0.951 1_455 S
C807 C808 1.366 . S
C807 C809 1.388 . S
C808 C807 1.366 . S
C808 C812 1.385 . S
C809 H784 0.951 1_455 S
C809 C807 1.388 . S
C809 C810 1.366 . S
C810 C809 1.366 . S
C810 C811 1.414 . S
C810 C813 1.533 . S
C811 H785 0.950 . S
C811 C810 1.414 . S
C811 C812 1.374 . S
C812 H786 0.950 . S
C812 C808 1.385 . S
C812 C811 1.374 . S
C813 C810 1.533 . S
C813 C814 1.355 1_556 S
C813 C815 1.373 1_556 S
C814 H787 0.950 . S
C814 C800 1.377 . S
C814 C813 1.355 1_554 S
C815 C799 1.377 . S
C815 C813 1.373 1_554 S
C815 C816 1.524 1_454 S
C816 C815 1.524 1_656 S
C816 C817 1.391 1_655 S
C816 C821 1.363 1_556 S
C817 H788 0.955 . S
C817 C816 1.391 1_455 S
C817 C818 1.335 1_455 S
C818 H789 0.950 . S
C818 C817 1.335 1_655 S
C818 C819 1.287 . S
C819 C818 1.287 . S
C819 C820 1.524 . S
C819 H822 0.999 . S
C820 H790 0.950 . S
C820 C819 1.524 . S
C820 C821 1.415 1_556 S
C821 H791 0.950 . S
C821 C816 1.363 1_554 S
C821 C820 1.415 1_554 S
H822 C819 0.999 . S
H823 C804 0.913 . S
H824 C842 0.951 . S
H825 C844 0.951 . S
H826 C846 0.950 . S
H827 C847 0.950 . S
H828 C849 0.950 . S
H829 C852 0.950 . S
H830 C853 0.950 . S
H831 C855 0.950 . S
H832 C856 0.950 1_545 S
H833 C857 0.951 1_565 S
H834 C859 0.951 1_565 S
H835 C861 0.950 . S
H836 C862 0.950 . S
H837 C864 0.950 1_565 S
H838 C867 0.950 . S
H839 C868 0.950 . S
H840 C870 0.950 . S
H841 C871 0.950 . S
C842 H824 0.951 . S
C842 C843 1.366 . S
C842 C844 1.388 . S
C843 C842 1.366 . S
C843 C847 1.385 1_545 S
C844 H825 0.951 . S
C844 C842 1.388 . S
C844 C845 1.366 . S
C845 C844 1.366 . S
C845 C846 1.414 1_545 S
C845 C848 1.499 . S
C846 H826 0.950 . S
C846 C845 1.414 1_565 S
C846 C847 1.374 . S
C847 H827 0.950 . S
C847 C843 1.385 1_565 S
C847 C846 1.374 . S
C848 C845 1.499 . S
C848 C849 1.373 . S
C848 C850 1.389 1_545 S
C849 H828 0.950 . S
C849 C848 1.373 . S
C849 C865 1.377 . S
C850 C848 1.389 1_565 S
C850 C851 1.524 . S
C850 C864 1.377 1_565 S
C851 C850 1.524 . S
C851 C852 1.397 . S
C851 C856 1.363 . S
C852 H829 0.950 . S
C852 C851 1.397 . S
C852 C853 1.334 . S
C853 H830 0.950 . S
C853 C852 1.334 . S
C853 C854 1.287 . S
C854 C853 1.287 . S
C854 C855 1.524 . S
C854 H873 0.913 . S
C855 H831 0.950 . S
C855 C854 1.524 . S
C855 C856 1.415 . S
C856 H832 0.950 1_565 S
C856 C851 1.363 . S
C856 C855 1.415 . S
C857 H833 0.951 1_545 S
C857 C858 1.366 . S
C857 C859 1.388 . S
C858 C857 1.366 . S
C858 C862 1.385 . S
C859 H834 0.951 1_545 S
C859 C857 1.388 . S
C859 C860 1.366 . S
C860 C859 1.366 . S
C860 C861 1.414 . S
C860 C863 1.499 . S
C861 H835 0.950 . S
C861 C860 1.414 . S
C861 C862 1.374 . S
C862 H836 0.950 . S
C862 C858 1.385 . S
C862 C861 1.374 . S
C863 C860 1.499 . S
C863 C864 1.373 . S
C863 C865 1.389 . S
C864 H837 0.950 1_545 S
C864 C850 1.377 1_545 S
C864 C863 1.373 . S
C865 C849 1.377 . S
C865 C863 1.389 . S
C865 C866 1.524 . S
C866 C865 1.524 . S
C866 C867 1.397 . S
C866 C871 1.363 . S
C867 H838 0.950 . S
C867 C866 1.397 . S
C867 C868 1.334 . S
C868 H839 0.950 . S
C868 C867 1.334 . S
C868 C869 1.287 . S
C869 C868 1.287 . S
C869 C870 1.524 . S
C869 H872 0.999 . S
C870 H840 0.950 . S
C870 C869 1.524 . S
C870 C871 1.415 . S
C871 H841 0.950 . S
C871 C866 1.363 . S
C871 C870 1.415 . S
H872 C869 0.999 . S
H873 C854 0.913 . S
H874 C892 0.951 . S
H875 C894 0.951 . S
H876 C896 0.950 . S
H877 C897 0.950 . S
H878 C899 0.950 . S
H879 C902 0.950 . S
H880 C903 0.950 . S
H881 C905 0.950 . S
H882 C906 0.950 . S
H883 C907 0.951 . S
H884 C909 0.951 . S
H885 C911 0.950 . S
H886 C912 0.950 . S
H887 C914 0.950 . S
H888 C917 0.950 . S
H889 C918 0.950 . S
H890 C920 0.950 . S
H891 C921 0.950 . S
C892 H874 0.951 . S
C892 C893 1.366 . S
C892 C894 1.388 . S
C893 C892 1.366 . S
C893 C897 1.385 . S
C894 H875 0.951 . S
C894 C892 1.388 . S
C894 C895 1.366 . S
C895 C894 1.366 . S
C895 C896 1.414 . S
C895 C898 1.499 . S
C896 H876 0.950 . S
C896 C895 1.414 . S
C896 C897 1.374 . S
C897 H877 0.950 . S
C897 C893 1.385 . S
C897 C896 1.374 . S
C898 C895 1.499 . S
C898 C899 1.373 . S
C898 C900 1.389 . S
C899 H878 0.950 . S
C899 C898 1.373 . S
C899 C915 1.377 . S
C900 C898 1.389 . S
C900 C901 1.524 . S
C900 C914 1.377 . S
C901 C900 1.524 . S
C901 C902 1.397 . S
C901 C906 1.363 . S
C902 H879 0.950 . S
C902 C901 1.397 . S
C902 C903 1.334 . S
C903 H880 0.950 . S
C903 C902 1.334 . S
C903 C904 1.287 . S
C904 C903 1.287 . S
C904 C905 1.524 . S
C904 H923 0.913 . S
C905 H881 0.950 . S
C905 C904 1.524 . S
C905 C906 1.415 . S
C906 H882 0.950 . S
C906 C901 1.363 . S
C906 C905 1.415 . S
C907 H883 0.951 . S
C907 C908 1.366 . S
C907 C909 1.388 . S
C908 C907 1.366 . S
C908 C912 1.385 . S
C909 H884 0.951 . S
C909 C907 1.388 . S
C909 C910 1.366 . S
C910 C909 1.366 . S
C910 C911 1.414 . S
C910 C913 1.499 . S
C911 H885 0.950 . S
C911 C910 1.414 . S
C911 C912 1.374 . S
C912 H886 0.950 . S
C912 C908 1.385 . S
C912 C911 1.374 . S
C913 C910 1.499 . S
C913 C914 1.373 . S
C913 C915 1.389 . S
C914 H887 0.950 . S
C914 C900 1.377 . S
C914 C913 1.373 . S
C915 C899 1.377 . S
C915 C913 1.389 . S
C915 C916 1.524 . S
C916 C915 1.524 . S
C916 C917 1.397 . S
C916 C921 1.363 . S
C917 H888 0.950 . S
C917 C916 1.397 . S
C917 C918 1.334 . S
C918 H889 0.950 . S
C918 C917 1.334 . S
C918 C919 1.287 . S
C919 C918 1.287 . S
C919 C920 1.524 . S
C919 H922 0.999 . S
C920 H890 0.950 . S
C920 C919 1.524 . S
C920 C921 1.415 . S
C921 H891 0.950 . S
C921 C916 1.363 . S
C921 C920 1.415 . S
H922 C919 0.999 . S
H923 C904 0.913 . S
H924 C942 0.951 . S
H925 C944 0.951 . S
H926 C946 0.986 1_565 S
H927 C947 0.943 . S
H928 C949 0.950 . S
H929 C952 0.950 . S
H930 C953 0.950 . S
H931 C955 0.950 . S
H932 C956 0.950 . S
H933 C957 0.951 . S
H934 C959 0.949 1_565 S
H935 C961 0.950 . S
H936 C962 0.950 . S
H937 C964 0.950 . S
H938 C967 0.950 . S
H939 C968 0.950 . S
H940 C970 0.950 . S
H941 C971 0.950 . S
C942 H924 0.951 . S
C942 C943 1.366 . S
C942 C944 1.388 . S
C943 C942 1.366 . S
C943 C947 1.385 . S
C944 H925 0.951 . S
C944 C942 1.388 . S
C944 C945 1.366 . S
C945 C944 1.366 . S
C945 C946 1.395 . S
C945 C948 1.499 . S
C946 H926 0.986 1_545 S
C946 C945 1.395 . S
C946 C947 1.376 . S
C947 H927 0.943 . S
C947 C943 1.385 . S
C947 C946 1.376 . S
C948 C945 1.499 . S
C948 C949 1.373 . S
C948 C950 1.389 1_545 S
C949 H928 0.950 . S
C949 C948 1.373 . S
C949 C965 1.377 . S
C950 C948 1.389 1_565 S
C950 C951 1.524 . S
C950 C964 1.377 . S
C951 C950 1.524 . S
C951 C952 1.397 . S
C951 C956 1.363 . S
C952 H929 0.950 . S
C952 C951 1.397 . S
C952 C953 1.334 . S
C953 H930 0.950 . S
C953 C952 1.334 . S
C953 C954 1.287 . S
C954 C953 1.287 . S
C954 C955 1.524 . S
C954 H973 0.913 . S
C955 H931 0.950 . S
C955 C954 1.524 . S
C955 C956 1.415 . S
C956 H932 0.950 . S
C956 C951 1.363 . S
C956 C955 1.415 . S
C957 H933 0.951 . S
C957 C958 1.378 1_565 S
C957 C959 1.388 1_565 S
C958 C957 1.378 1_545 S
C958 C962 1.374 . S
C959 H934 0.949 1_545 S
C959 C957 1.388 1_545 S
C959 C960 1.367 . S
C960 C959 1.367 . S
C960 C961 1.414 . S
C960 C963 1.499 . S
C961 H935 0.950 . S
C961 C960 1.414 . S
C961 C962 1.374 . S
C962 H936 0.950 . S
C962 C958 1.374 . S
C962 C961 1.374 . S
C963 C960 1.499 . S
C963 C964 1.373 1_545 S
C963 C965 1.389 . S
C964 H937 0.950 . S
C964 C950 1.377 . S
C964 C963 1.373 1_565 S
C965 C949 1.377 . S
C965 C963 1.389 . S
C965 C966 1.524 . S
C966 C965 1.524 . S
C966 C967 1.397 . S
C966 C971 1.363 . S
C967 H938 0.950 . S
C967 C966 1.397 . S
C967 C968 1.334 . S
C968 H939 0.950 . S
C968 C967 1.334 . S
C968 C969 1.287 . S
C969 C968 1.287 . S
C969 C970 1.524 . S
C969 H972 0.999 . S
C970 H940 0.950 . S
C970 C969 1.524 . S
C970 C971 1.415 . S
C971 H941 0.950 . S
C971 C966 1.363 . S
C971 C970 1.415 . S
H972 C969 0.999 . S
H973 C954 0.913 . S
H974 C992 0.951 . S
H975 C994 0.951 . S
H976 C996 0.950 . S
H977 C997 0.950 . S
H978 C999 0.950 . S
H979 C1002 0.950 . S
H980 C1003 0.950 . S
H981 C1005 0.950 . S
H982 C1006 0.950 . S
H983 C1007 0.951 . S
H984 C1009 0.951 . S
H985 C1011 0.950 . S
H986 C1012 0.950 . S
H987 C1014 0.950 . S
H988 C1017 0.954 . S
H989 C1018 0.950 . S
H990 C1020 0.950 . S
H991 C1021 0.950 . S
C992 H974 0.951 . S
C992 C993 1.366 . S
C992 C994 1.388 . S
C993 C992 1.366 . S
C993 C997 1.385 . S
C994 H975 0.951 . S
C994 C992 1.388 . S
C994 C995 1.366 . S
C995 C994 1.366 . S
C995 C996 1.414 . S
C995 C998 1.499 . S
C996 H976 0.950 . S
C996 C995 1.414 . S
C996 C997 1.374 . S
C997 H977 0.950 . S
C997 C993 1.385 . S
C997 C996 1.374 . S
C998 C995 1.499 . S
C998 C999 1.373 . S
C998 C1000 1.389 . S
C999 H978 0.950 . S
C999 C998 1.373 . S
C999 C1015 1.377 . S
C1000 C998 1.389 . S
C1000 C1001 1.524 . S
C1000 C1014 1.377 . S
C1001 C1000 1.524 . S
C1001 C1002 1.397 . S
C1001 C1006 1.363 . S
C1002 H979 0.950 . S
C1002 C1001 1.397 . S
C1002 C1003 1.334 . S
C1003 H980 0.950 . S
C1003 C1002 1.334 . S
C1003 C1004 1.287 . S
C1004 C1003 1.287 . S
C1004 C1005 1.524 . S
C1004 H1023 0.913 . S
C1005 H981 0.950 . S
C1005 C1004 1.524 . S
C1005 C1006 1.415 . S
C1006 H982 0.950 . S
C1006 C1001 1.363 . S
C1006 C1005 1.415 . S
C1007 H983 0.951 . S
C1007 C1008 1.366 . S
C1007 C1009 1.388 . S
C1008 C1007 1.366 . S
C1008 C1012 1.385 . S
C1009 H984 0.951 . S
C1009 C1007 1.388 . S
C1009 C1010 1.366 . S
C1010 C1009 1.366 . S
C1010 C1011 1.414 . S
C1010 C1013 1.499 1_554 S
C1011 H985 0.950 . S
C1011 C1010 1.414 . S
C1011 C1012 1.374 . S
C1012 H986 0.950 . S
C1012 C1008 1.385 . S
C1012 C1011 1.374 . S
C1013 C1010 1.499 1_556 S
C1013 C1014 1.373 . S
C1013 C1015 1.389 . S
C1014 H987 0.950 . S
C1014 C1000 1.377 . S
C1014 C1013 1.373 . S
C1015 C999 1.377 . S
C1015 C1013 1.389 . S
C1015 C1016 1.524 . S
C1016 C1015 1.524 . S
C1016 C1017 1.373 1_556 S
C1016 C1021 1.363 . S
C1017 H988 0.954 . S
C1017 C1016 1.373 1_554 S
C1017 C1018 1.356 . S
C1018 H989 0.950 . S
C1018 C1017 1.356 . S
C1018 C1019 1.287 . S
C1019 C1018 1.287 . S
C1019 C1020 1.524 1_554 S
C1019 H1022 0.999 . S
C1020 H990 0.950 . S
C1020 C1019 1.524 1_556 S
C1020 C1021 1.415 . S
C1021 H991 0.950 . S
C1021 C1016 1.363 . S
C1021 C1020 1.415 . S
H1022 C1019 0.999 . S
H1023 C1004 0.913 . S
H1024 C1042 0.951 . S
H1025 C1044 0.951 . S
H1026 C1046 0.950 . S
H1027 C1047 0.950 . S
H1028 C1049 0.950 . S
H1029 C1052 0.950 . S
H1030 C1053 0.950 . S
H1031 C1055 0.950 . S
H1032 C1056 0.950 . S
H1033 C1057 0.951 . S
H1034 C1059 0.924 1_655 S
H1035 C1061 0.950 . S
H1036 C1062 0.950 . S
H1037 C1064 0.950 . S
H1038 C1067 0.950 . S
H1039 C1068 0.950 . S
H1040 C1070 0.950 . S
H1041 C1071 0.950 . S
C1042 H1024 0.951 . S
C1042 C1043 1.366 . S
C1042 C1044 1.388 . S
C1043 C1042 1.366 . S
C1043 C1047 1.385 . S
C1044 H1025 0.951 . S
C1044 C1042 1.388 . S
C1044 C1045 1.366 . S
C1045 C1044 1.366 . S
C1045 C1046 1.414 . S
C1045 C1048 1.499 . S
C1046 H1026 0.950 . S
C1046 C1045 1.414 . S
C1046 C1047 1.374 . S
C1047 H1027 0.950 . S
C1047 C1043 1.385 . S
C1047 C1046 1.374 . S
C1048 C1045 1.499 . S
C1048 C1049 1.373 . S
C1048 C1050 1.389 1_455 S
C1049 H1028 0.950 . S
C1049 C1048 1.373 . S
C1049 C1065 1.377 . S
C1050 C1048 1.389 1_655 S
C1050 C1051 1.524 . S
C1050 C1064 1.377 . S
C1051 C1050 1.524 . S
C1051 C1052 1.397 . S
C1051 C1056 1.363 . S
C1052 H1029 0.950 . S
C1052 C1051 1.397 . S
C1052 C1053 1.334 . S
C1053 H1030 0.950 . S
C1053 C1052 1.334 . S
C1053 C1054 1.287 . S
C1054 C1053 1.287 . S
C1054 C1055 1.524 . S
C1054 H1073 0.913 . S
C1055 H1031 0.950 . S
C1055 C1054 1.524 . S
C1055 C1056 1.415 . S
C1056 H1032 0.950 . S
C1056 C1051 1.363 . S
C1056 C1055 1.415 . S
C1057 H1033 0.951 . S
C1057 C1058 1.367 . S
C1057 C1059 1.386 1_655 S
C1058 C1057 1.367 . S
C1058 C1062 1.383 1_655 S
C1059 H1034 0.924 1_455 S
C1059 C1057 1.386 1_455 S
C1059 C1060 1.387 . S
C1060 C1059 1.387 . S
C1060 C1061 1.414 . S
C1060 C1063 1.499 . S
C1061 H1035 0.950 . S
C1061 C1060 1.414 . S
C1061 C1062 1.374 . S
C1062 H1036 0.950 . S
C1062 C1058 1.383 1_455 S
C1062 C1061 1.374 . S
C1063 C1060 1.499 . S
C1063 C1064 1.373 1_455 S
C1063 C1065 1.389 . S
C1064 H1037 0.950 . S
C1064 C1050 1.377 . S
C1064 C1063 1.373 1_655 S
C1065 C1049 1.377 . S
C1065 C1063 1.389 . S
C1065 C1066 1.524 . S
C1066 C1065 1.524 . S
C1066 C1067 1.397 . S
C1066 C1071 1.363 . S
C1067 H1038 0.950 . S
C1067 C1066 1.397 . S
C1067 C1068 1.334 . S
C1068 H1039 0.950 . S
C1068 C1067 1.334 . S
C1068 C1069 1.287 . S
C1069 C1068 1.287 . S
C1069 C1070 1.524 . S
C1069 H1072 0.999 . S
C1070 H1040 0.950 . S
C1070 C1069 1.524 . S
C1070 C1071 1.415 . S
C1071 H1041 0.950 . S
C1071 C1066 1.363 . S
C1071 C1070 1.415 . S
H1072 C1069 0.999 . S
H1073 C1054 0.913 . S
C193 C6 0.473 . S
C208 C169 0.417 . S
C243 C59 1.764 . S
C258 C151 1.749 . S
C293 C86 1.173 . S
C308 C163 1.189 . S
C343 C15 0.416 . S
C358 C172 0.269 . S
C408 C154 1.784 . S
C393 C50 1.772 . S
C458 C160 1.277 . S
C443 C95 1.257 . S
C493 C46 1.167 . S
C508 C133 1.183 . S
C543 C99 2.960 . S
C558 C142 2.933 1_655 S
C593 C10 1.810 . S
C608 C124 1.840 . S
C658 C136 1.249 . S
C643 C55 1.225 . S
C708 C145 2.845 . S
C693 C90 2.821 . S
C743 C19 1.742 . S
C758 C127 1.730 . S
C808 C143 1.778 . S
C793 C18 1.705 . S
C843 C49 1.323 . S
C858 C125 1.375 . S
C893 C98 1.447 . S
C908 C134 1.508 . S
C958 C161 1.486 . S
C943 C58 1.434 . S
C1008 C170 1.082 . S
C993 C89 1.060 . S
C1043 C9 1.319 . S
C1058 C152 1.364 1_655 S
