# Generated by pormake.
# Topology ctn, (3,4)-cn, num edge types: 1
# Building blocks:
#     Node 0, Type 0, BuildingBlock: BETDAH_clean_linker_0, # of connection points: 3
#     Node 1, Type 0, BuildingBlock: BETDAH_clean_linker_0, # of connection points: 3
#     Node 2, Type 0, BuildingBlock: BETDAH_clean_linker_0, # of connection points: 3
#     Node 3, Type 0, BuildingBlock: BETDAH_clean_linker_0, # of connection points: 3
#     Node 4, Type 0, BuildingBlock: BETDAH_clean_linker_0, # of connection points: 3
#     Node 5, Type 0, BuildingBlock: BETDAH_clean_linker_0, # of connection points: 3
#     Node 6, Type 0, BuildingBlock: BETDAH_clean_linker_0, # of connection points: 3
#     Node 7, Type 0, BuildingBlock: BETDAH_clean_linker_0, # of connection points: 3
#     Node 8, Type 0, BuildingBlock: BETDAH_clean_linker_0, # of connection points: 3
#     Node 9, Type 0, BuildingBlock: BETDAH_clean_linker_0, # of connection points: 3
#     Node 10, Type 0, BuildingBlock: BETDAH_clean_linker_0, # of connection points: 3
#     Node 11, Type 0, BuildingBlock: BETDAH_clean_linker_0, # of connection points: 3
#     Node 12, Type 0, BuildingBlock: BETDAH_clean_linker_0, # of connection points: 3
#     Node 13, Type 0, BuildingBlock: BETDAH_clean_linker_0, # of connection points: 3
#     Node 14, Type 0, BuildingBlock: BETDAH_clean_linker_0, # of connection points: 3
#     Node 15, Type 0, BuildingBlock: BETDAH_clean_linker_0, # of connection points: 3
#     Node 16, Type 1, BuildingBlock: TATPOV_clean_sbu_0, # of connection points: 4
#     Node 17, Type 1, BuildingBlock: TATPOV_clean_sbu_0, # of connection points: 4
#     Node 18, Type 1, BuildingBlock: TATPOV_clean_sbu_0, # of connection points: 4
#     Node 19, Type 1, BuildingBlock: TATPOV_clean_sbu_0, # of connection points: 4
#     Node 20, Type 1, BuildingBlock: TATPOV_clean_sbu_0, # of connection points: 4
#     Node 21, Type 1, BuildingBlock: TATPOV_clean_sbu_0, # of connection points: 4
#     Node 22, Type 1, BuildingBlock: TATPOV_clean_sbu_0, # of connection points: 4
#     Node 23, Type 1, BuildingBlock: TATPOV_clean_sbu_0, # of connection points: 4
#     Node 24, Type 1, BuildingBlock: TATPOV_clean_sbu_0, # of connection points: 4
#     Node 25, Type 1, BuildingBlock: TATPOV_clean_sbu_0, # of connection points: 4
#     Node 26, Type 1, BuildingBlock: TATPOV_clean_sbu_0, # of connection points: 4
#     Node 27, Type 1, BuildingBlock: TATPOV_clean_sbu_0, # of connection points: 4
#     Edge 28, Type (0, 1), BuildingBlock: UVAHIK_clean_linker_0, # of connection points: 2
#     Edge 29, Type (0, 1), BuildingBlock: UVAHIK_clean_linker_0, # of connection points: 2
#     Edge 30, Type (0, 1), BuildingBlock: UVAHIK_clean_linker_0, # of connection points: 2
#     Edge 31, Type (0, 1), BuildingBlock: UVAHIK_clean_linker_0, # of connection points: 2
#     Edge 32, Type (0, 1), BuildingBlock: UVAHIK_clean_linker_0, # of connection points: 2
#     Edge 33, Type (0, 1), BuildingBlock: UVAHIK_clean_linker_0, # of connection points: 2
#     Edge 34, Type (0, 1), BuildingBlock: UVAHIK_clean_linker_0, # of connection points: 2
#     Edge 35, Type (0, 1), BuildingBlock: UVAHIK_clean_linker_0, # of connection points: 2
#     Edge 36, Type (0, 1), BuildingBlock: UVAHIK_clean_linker_0, # of connection points: 2
#     Edge 37, Type (0, 1), BuildingBlock: UVAHIK_clean_linker_0, # of connection points: 2
#     Edge 38, Type (0, 1), BuildingBlock: UVAHIK_clean_linker_0, # of connection points: 2
#     Edge 39, Type (0, 1), BuildingBlock: UVAHIK_clean_linker_0, # of connection points: 2
#     Edge 40, Type (0, 1), BuildingBlock: UVAHIK_clean_linker_0, # of connection points: 2
#     Edge 41, Type (0, 1), BuildingBlock: UVAHIK_clean_linker_0, # of connection points: 2
#     Edge 42, Type (0, 1), BuildingBlock: UVAHIK_clean_linker_0, # of connection points: 2
#     Edge 43, Type (0, 1), BuildingBlock: UVAHIK_clean_linker_0, # of connection points: 2
#     Edge 44, Type (0, 1), BuildingBlock: UVAHIK_clean_linker_0, # of connection points: 2
#     Edge 45, Type (0, 1), BuildingBlock: UVAHIK_clean_linker_0, # of connection points: 2
#     Edge 46, Type (0, 1), BuildingBlock: UVAHIK_clean_linker_0, # of connection points: 2
#     Edge 47, Type (0, 1), BuildingBlock: UVAHIK_clean_linker_0, # of connection points: 2
#     Edge 48, Type (0, 1), BuildingBlock: UVAHIK_clean_linker_0, # of connection points: 2
#     Edge 49, Type (0, 1), BuildingBlock: UVAHIK_clean_linker_0, # of connection points: 2
#     Edge 50, Type (0, 1), BuildingBlock: UVAHIK_clean_linker_0, # of connection points: 2
#     Edge 51, Type (0, 1), BuildingBlock: UVAHIK_clean_linker_0, # of connection points: 2
#     Edge 52, Type (0, 1), BuildingBlock: UVAHIK_clean_linker_0, # of connection points: 2
#     Edge 53, Type (0, 1), BuildingBlock: UVAHIK_clean_linker_0, # of connection points: 2
#     Edge 54, Type (0, 1), BuildingBlock: UVAHIK_clean_linker_0, # of connection points: 2
#     Edge 55, Type (0, 1), BuildingBlock: UVAHIK_clean_linker_0, # of connection points: 2
#     Edge 56, Type (0, 1), BuildingBlock: UVAHIK_clean_linker_0, # of connection points: 2
#     Edge 57, Type (0, 1), BuildingBlock: UVAHIK_clean_linker_0, # of connection points: 2
#     Edge 58, Type (0, 1), BuildingBlock: UVAHIK_clean_linker_0, # of connection points: 2
#     Edge 59, Type (0, 1), BuildingBlock: UVAHIK_clean_linker_0, # of connection points: 2
#     Edge 60, Type (0, 1), BuildingBlock: UVAHIK_clean_linker_0, # of connection points: 2
#     Edge 61, Type (0, 1), BuildingBlock: UVAHIK_clean_linker_0, # of connection points: 2
#     Edge 62, Type (0, 1), BuildingBlock: UVAHIK_clean_linker_0, # of connection points: 2
#     Edge 63, Type (0, 1), BuildingBlock: UVAHIK_clean_linker_0, # of connection points: 2
#     Edge 64, Type (0, 1), BuildingBlock: UVAHIK_clean_linker_0, # of connection points: 2
#     Edge 65, Type (0, 1), BuildingBlock: UVAHIK_clean_linker_0, # of connection points: 2
#     Edge 66, Type (0, 1), BuildingBlock: UVAHIK_clean_linker_0, # of connection points: 2
#     Edge 67, Type (0, 1), BuildingBlock: UVAHIK_clean_linker_0, # of connection points: 2
#     Edge 68, Type (0, 1), BuildingBlock: UVAHIK_clean_linker_0, # of connection points: 2
#     Edge 69, Type (0, 1), BuildingBlock: UVAHIK_clean_linker_0, # of connection points: 2
#     Edge 70, Type (0, 1), BuildingBlock: UVAHIK_clean_linker_0, # of connection points: 2
#     Edge 71, Type (0, 1), BuildingBlock: UVAHIK_clean_linker_0, # of connection points: 2
#     Edge 72, Type (0, 1), BuildingBlock: UVAHIK_clean_linker_0, # of connection points: 2
#     Edge 73, Type (0, 1), BuildingBlock: UVAHIK_clean_linker_0, # of connection points: 2
#     Edge 74, Type (0, 1), BuildingBlock: UVAHIK_clean_linker_0, # of connection points: 2
#     Edge 75, Type (0, 1), BuildingBlock: UVAHIK_clean_linker_0, # of connection points: 2
# Relax obj value: 0.045
# Max RMSD: 0.166
# Mean RMSD: 0.099
data_MOF--net-ctn--node1-TATPOV_clean_sbu_0--node2-BETDAH_clean_linker_0--edge1-UVAHIK_clean_linker_0
_symmetry_space_group_name_H-M    P1
_symmetry_Int_Tables_number       1
_symmetry_cell_setting            triclinic
loop_
_symmetry_equiv_pos_as_xyz
'x, y, z'
_cell_length_a     69.741648
_cell_length_b     69.731083
_cell_length_c     70.626586
_cell_angle_alpha  99.455053
_cell_angle_beta   91.336355
_cell_angle_gamma 95.807295
loop_
_atom_site_label
_atom_site_type_symbol
_atom_site_fract_x
_atom_site_fract_y
_atom_site_fract_z
_atom_type_partial_charge
H0 H 0.06618 0.01304 0.06552 0.0
H1 H 0.09202 0.03232 0.0163 0.0
H2 H 0.04611 0.06178 0.04329 0.0
C3 C 0.06682 0.02269 0.05493 0.0
C4 C 0.05427 0.03742 0.05598 0.0
C5 C 0.08066 0.02078 0.04081 0.0
C6 C 0.0817 0.03375 0.02755 0.0
C7 C 0.06943 0.0485 0.02831 0.0
C8 C 0.05571 0.05043 0.04263 0.0
N9 N 0.07159 0.06097 0.01432 0.0
C10 C 0.06045 0.07592 0.01202 0.0
H11 H 0.31278 0.67984 0.25035 0.0
H12 H 0.3453 0.71798 0.21794 0.0
H13 H 0.28372 0.70725 0.20918 0.0
C14 C 0.3133 0.68981 0.24005 0.0
C15 C 0.29611 0.6928 0.23066 0.0
C16 C 0.33118 0.69869 0.23557 0.0
C17 C 0.33167 0.7108 0.22152 0.0
C18 C 0.31474 0.71413 0.21211 0.0
C19 C 0.29687 0.70505 0.21664 0.0
N20 N 0.31659 0.72616 0.19776 0.0
C21 C 0.30195 0.7352 0.19031 0.0
H22 H 0.02944 0.43249 0.05852 0.0
H23 H 0.02983 0.49397 0.07941 0.0
H24 H 0.00207 0.46919 0.02482 0.0
C25 C 0.02529 0.44665 0.05668 0.0
C26 C 0.01517 0.44873 0.03977 0.0
C27 C 0.03031 0.4628 0.07121 0.0
C28 C 0.02559 0.48126 0.06854 0.0
C29 C 0.01529 0.48358 0.05204 0.0
C30 C 0.00992 0.4673 0.03768 0.0
N31 N 0.01127 0.50267 0.05006 0.0
C32 C 0.99447 0.50674 0.04134 0.0
H33 H 0.81824 0.78585 0.20081 0.0
H34 H 0.78541 0.74306 0.22808 0.0
H35 H 0.80721 0.7984 0.26108 0.0
C36 C 0.81159 0.78164 0.21343 0.0
C37 C 0.81379 0.7947 0.23096 0.0
C38 C 0.80144 0.76291 0.21219 0.0
C39 C 0.79336 0.75735 0.22882 0.0
C40 C 0.79577 0.77013 0.24647 0.0
C41 C 0.80597 0.78859 0.24742 0.0
N42 N 0.78843 0.76485 0.26367 0.0
C43 C 0.77234 0.75156 0.26432 0.0
H44 H 0.08674 0.99596 0.43664 0.0
H45 H 0.07855 0.95491 0.47595 0.0
H46 H 0.0417 0.94839 0.42519 0.0
C47 C 0.07887 0.9833 0.44099 0.0
C48 C 0.06339 0.97323 0.42918 0.0
C49 C 0.08467 0.97672 0.45783 0.0
C50 C 0.07446 0.95994 0.46287 0.0
C51 C 0.05901 0.94964 0.45101 0.0
C52 C 0.05372 0.95626 0.43417 0.0
N53 N 0.04846 0.93257 0.45551 0.0
C54 C 0.05064 0.92565 0.47272 0.0
H55 H 0.26302 0.71484 0.80224 0.0
H56 H 0.21296 0.73717 0.78067 0.0
H57 H 0.23766 0.68954 0.74667 0.0
C58 C 0.25232 0.71478 0.79086 0.0
C59 C 0.25234 0.70092 0.77405 0.0
C60 C 0.23822 0.72798 0.79348 0.0
C61 C 0.22385 0.72707 0.77889 0.0
C62 C 0.22367 0.7131 0.762 0.0
C63 C 0.23784 0.70013 0.75978 0.0
N64 N 0.20949 0.7114 0.7469 0.0
C65 C 0.19562 0.72418 0.74567 0.0
H66 H 0.92862 0.56638 0.50375 0.0
H67 H 0.97042 0.58064 0.46291 0.0
H68 H 0.9266 0.53249 0.44695 0.0
C69 C 0.93465 0.56325 0.48972 0.0
C70 C 0.9258 0.54769 0.47615 0.0
C71 C 0.95076 0.57526 0.48515 0.0
C72 C 0.95802 0.57154 0.46662 0.0
C73 C 0.94906 0.55621 0.45281 0.0
C74 C 0.93305 0.5445 0.45764 0.0
N75 N 0.95547 0.55224 0.43379 0.0
C76 C 0.97376 0.55821 0.42816 0.0
H77 H 0.8464 0.79517 0.83846 0.0
H78 H 0.83089 0.8509 0.82812 0.0
H79 H 0.80751 0.82609 0.87548 0.0
C80 C 0.83876 0.8079 0.84253 0.0
C81 C 0.82671 0.80867 0.85824 0.0
C82 C 0.84041 0.82306 0.83156 0.0
C83 C 0.82962 0.83907 0.83636 0.0
C84 C 0.81779 0.84012 0.85227 0.0
C85 C 0.81659 0.82506 0.86317 0.0
N86 N 0.80715 0.85625 0.85798 0.0
C87 C 0.80131 0.86844 0.84575 0.0
H88 H 0.34562 0.27314 0.34452 0.0
H89 H 0.33298 0.33008 0.335 0.0
H90 H 0.31129 0.3074 0.38413 0.0
C91 C 0.33874 0.28633 0.34889 0.0
C92 C 0.32822 0.28832 0.36572 0.0
C93 C 0.34053 0.30131 0.33768 0.0
C94 C 0.33146 0.31836 0.34338 0.0
C95 C 0.3211 0.32057 0.3603 0.0
C96 C 0.31961 0.30561 0.37131 0.0
N97 N 0.31227 0.33774 0.367 0.0
C98 C 0.30897 0.35205 0.35613 0.0
H99 H 0.53996 0.92133 0.5268 0.0
H100 H 0.50799 0.97157 0.53703 0.0
H101 H 0.50177 0.9334 0.48258 0.0
C102 C 0.52982 0.93042 0.52188 0.0
C103 C 0.5217 0.92546 0.50312 0.0
C104 C 0.525 0.94707 0.53428 0.0
C105 C 0.51164 0.95862 0.52772 0.0
C106 C 0.50332 0.95363 0.50902 0.0
C107 C 0.50844 0.93718 0.4969 0.0
N108 N 0.4898 0.96473 0.50171 0.0
C109 C 0.48253 0.98092 0.51207 0.0
H110 H 0.29124 0.28152 0.72036 0.0
H111 H 0.25689 0.23783 0.74514 0.0
H112 H 0.27802 0.29235 0.78019 0.0
C113 C 0.28424 0.27689 0.73263 0.0
C114 C 0.2858 0.28952 0.75042 0.0
C115 C 0.27387 0.25821 0.73052 0.0
C116 C 0.26467 0.25228 0.74645 0.0
C117 C 0.26654 0.26458 0.7644 0.0
C118 C 0.27711 0.28297 0.76629 0.0
N119 N 0.25883 0.25849 0.78109 0.0
C120 C 0.24051 0.24876 0.78149 0.0
H121 H 0.78839 0.1919 0.74508 0.0
H122 H 0.82068 0.23795 0.72197 0.0
H123 H 0.76128 0.22094 0.70396 0.0
C124 C 0.78908 0.20313 0.7361 0.0
C125 C 0.77268 0.20527 0.72497 0.0
C126 C 0.80656 0.21468 0.73505 0.0
C127 C 0.80741 0.22865 0.7228 0.0
C128 C 0.79125 0.23111 0.71169 0.0
C129 C 0.77381 0.21931 0.71268 0.0
N130 N 0.79353 0.24537 0.69949 0.0
C131 C 0.7789 0.25226 0.68965 0.0
H132 H 0.55288 0.50735 0.57474 0.0
H133 H 0.56378 0.53528 0.52529 0.0
H134 H 0.5239 0.55712 0.5668 0.0
C135 C 0.55007 0.51843 0.56624 0.0
C136 C 0.53723 0.53207 0.57287 0.0
C137 C 0.55985 0.51948 0.54912 0.0
C138 C 0.5565 0.53441 0.53855 0.0
C139 C 0.54346 0.54797 0.54501 0.0
C140 C 0.53402 0.54668 0.56206 0.0
N141 N 0.53919 0.56314 0.53494 0.0
C142 C 0.54724 0.56725 0.51805 0.0
H143 H 0.5802 0.50283 0.95201 0.0
H144 H 0.58161 0.4623 0.99192 0.0
H145 H 0.53843 0.45243 0.9459 0.0
C146 C 0.57414 0.48988 0.95731 0.0
C147 C 0.55815 0.47858 0.94739 0.0
C148 C 0.58293 0.48404 0.97328 0.0
C149 C 0.57507 0.46687 0.97956 0.0
C150 C 0.55897 0.45546 0.96965 0.0
C151 C 0.55082 0.46127 0.9535 0.0
N152 N 0.5507 0.43791 0.97523 0.0
C153 C 0.5548 0.43191 0.99255 0.0
H154 H 0.7631 0.21553 0.29671 0.0
H155 H 0.70873 0.22705 0.27339 0.0
H156 H 0.73964 0.18199 0.24308 0.0
C157 C 0.75191 0.21242 0.28539 0.0
C158 C 0.75349 0.19747 0.26971 0.0
C159 C 0.73579 0.2231 0.28687 0.0
C160 C 0.72117 0.21887 0.27229 0.0
C161 C 0.72276 0.20418 0.25632 0.0
C162 C 0.73886 0.19363 0.25518 0.0
N163 N 0.7084 0.19931 0.24123 0.0
C164 C 0.69166 0.20842 0.24027 0.0
H165 H 0.43366 0.06488 0.99695 0.0
H166 H 0.4648 0.0842 0.95043 0.0
H167 H 0.42382 0.03321 0.93922 0.0
C168 C 0.43688 0.06283 0.98186 0.0
C169 C 0.42731 0.04694 0.9691 0.0
C170 C 0.45013 0.07656 0.97521 0.0
C171 C 0.4546 0.07374 0.9557 0.0
C172 C 0.44526 0.05786 0.94285 0.0
C173 C 0.43141 0.04491 0.94951 0.0
N174 N 0.44873 0.05502 0.92295 0.0
C175 C 0.4666 0.05945 0.91553 0.0
Zn176 Zn 0.29144 0.85198 0.01817 0.0
Zn177 Zn 0.25805 0.86813 0.01883 0.0
O178 O 0.25698 0.85441 0.04289 0.0
O179 O 0.28503 0.84236 0.04284 0.0
O180 O 0.23479 0.88332 0.02026 0.0
O181 O 0.3073 0.87788 0.01945 0.0
O182 O 0.2798 0.8907 0.01863 0.0
C183 C 0.2691 0.8451 0.0505 0.0
C184 C 0.26573 0.8378 0.98439 0.0
O185 O 0.2544 0.84927 0.99302 0.0
O186 O 0.28201 0.8364 0.99216 0.0
C187 C 0.218 0.87791 0.02535 0.0
O188 O 0.2144 0.86046 0.03 0.0
C189 C 0.29819 0.8926 0.01906 0.0
Zn190 Zn 0.13492 0.46737 0.29192 0.0
Zn191 Zn 0.15467 0.5 0.2843 0.0
O192 O 0.13757 0.51043 0.30651 0.0
O193 O 0.12181 0.48346 0.31303 0.0
O194 O 0.16825 0.52439 0.27667 0.0
O195 O 0.16012 0.45746 0.29746 0.0
O196 O 0.17667 0.48433 0.29166 0.0
C197 C 0.12536 0.5019 0.31639 0.0
C198 C 0.12773 0.47257 0.25354 0.0
O199 O 0.13962 0.48768 0.25909 0.0
O200 O 0.12287 0.46106 0.26513 0.0
C201 C 0.17455 0.53966 0.28845 0.0
O202 O 0.17279 0.53981 0.30695 0.0
C203 C 0.17618 0.46739 0.29639 0.0
Zn204 Zn 0.79975 0.59921 0.95445 0.0
Zn205 Zn 0.80021 0.62167 0.98963 0.0
O206 O 0.82377 0.60654 0.99149 0.0
O207 O 0.82396 0.58849 0.96282 0.0
O208 O 0.80021 0.6391 0.01539 0.0
O209 O 0.80169 0.62352 0.94213 0.0
O210 O 0.80246 0.64146 0.9709 0.0
C211 C 0.83134 0.59391 0.97966 0.0
C212 C 0.7659 0.59098 0.97574 0.0
O213 O 0.7744 0.6044 0.98848 0.0
O214 O 0.77363 0.58617 0.95984 0.0
C215 C 0.80056 0.63235 0.03104 0.0
O216 O 0.80118 0.61349 0.03045 0.0
C217 C 0.8028 0.64017 0.9527 0.0
Zn218 Zn 0.90881 0.0316 0.29064 0.0
Zn219 Zn 0.92188 0.031 0.25581 0.0
O220 O 0.90519 0.05452 0.2594 0.0
O221 O 0.89385 0.05404 0.28815 0.0
O222 O 0.93328 0.03132 0.22973 0.0
O223 O 0.93533 0.03666 0.30294 0.0
O224 O 0.94632 0.03243 0.27374 0.0
C225 C 0.89488 0.06155 0.27303 0.0
C226 C 0.89739 0.99519 0.26513 0.0
O227 O 0.90594 0.00402 0.25275 0.0
O228 O 0.89693 0.00371 0.28238 0.0
C229 C 0.94228 0.04674 0.22546 0.0
O230 O 0.94377 0.06292 0.23815 0.0
C231 C 0.94933 0.03515 0.29193 0.0
Zn232 Zn 0.30402 0.09193 0.4804 0.0
Zn233 Zn 0.29849 0.11492 0.51371 0.0
O234 O 0.32392 0.10362 0.51917 0.0
O235 O 0.32962 0.08663 0.49108 0.0
O236 O 0.29474 0.13251 0.53886 0.0
O237 O 0.30301 0.1146 0.46635 0.0
O238 O 0.30026 0.13393 0.4939 0.0
C239 C 0.33465 0.09307 0.50849 0.0
C240 C 0.26916 0.07952 0.49775 0.0
O241 O 0.27445 0.0946 0.51028 0.0
O242 O 0.27959 0.0749 0.48363 0.0
C243 C 0.27833 0.13544 0.5456 0.0
O244 O 0.26265 0.12691 0.53581 0.0
C245 C 0.30174 0.1315 0.47569 0.0
Zn246 Zn 0.38931 0.52457 0.80774 0.0
Zn247 Zn 0.40451 0.52127 0.77322 0.0
O248 O 0.38894 0.54534 0.77428 0.0
O249 O 0.37559 0.54713 0.80236 0.0
O250 O 0.41753 0.51969 0.74781 0.0
O251 O 0.41552 0.5296 0.82103 0.0
O252 O 0.4278 0.5235 0.79251 0.0
C253 C 0.37807 0.55354 0.78675 0.0
C254 C 0.37807 0.48721 0.78352 0.0
O255 O 0.38767 0.49493 0.77104 0.0
O256 O 0.37695 0.4967 0.80031 0.0
C257 C 0.42836 0.53444 0.74441 0.0
O258 O 0.43031 0.55044 0.75735 0.0
C259 C 0.42999 0.52726 0.81077 0.0
Zn260 Zn 0.77229 0.35282 0.50771 0.0
Zn261 Zn 0.742 0.37281 0.50706 0.0
O262 O 0.73893 0.36014 0.53175 0.0
O263 O 0.76614 0.3469 0.53386 0.0
O264 O 0.7198 0.38953 0.50773 0.0
O265 O 0.79051 0.3764 0.50536 0.0
O266 O 0.76561 0.39352 0.50713 0.0
C267 C 0.75018 0.35101 0.54069 0.0
C268 C 0.74655 0.33868 0.47471 0.0
O269 O 0.73768 0.3533 0.48143 0.0
O270 O 0.7612 0.33487 0.48379 0.0
C271 C 0.7027 0.38352 0.51144 0.0
O272 O 0.69892 0.36546 0.51448 0.0
C273 C 0.78374 0.39264 0.50592 0.0
Zn274 Zn 0.61843 0.96642 0.76231 0.0
Zn275 Zn 0.63879 0.00022 0.75816 0.0
O276 O 0.62189 0.00886 0.78094 0.0
O277 O 0.60553 0.98115 0.78474 0.0
O278 O 0.6539 0.02528 0.75392 0.0
O279 O 0.64328 0.95502 0.76673 0.0
O280 O 0.65992 0.9829 0.76395 0.0
C281 C 0.60943 0.99944 0.78983 0.0
C282 C 0.61155 0.97679 0.72541 0.0
O283 O 0.62362 0.99137 0.73231 0.0
O284 O 0.60677 0.96371 0.73542 0.0
C285 C 0.64517 0.03981 0.75121 0.0
O286 O 0.62626 0.03841 0.75168 0.0
C287 C 0.65936 0.96528 0.76687 0.0
Zn288 Zn 0.01767 0.26785 0.84707 0.0
Zn289 Zn 0.01653 0.2417 0.87093 0.0
O290 O 0.04245 0.23865 0.85722 0.0
O291 O 0.0432 0.26035 0.83779 0.0
O292 O 0.01612 0.22186 0.88896 0.0
O293 O 0.01619 0.28951 0.86958 0.0
O294 O 0.01523 0.26793 0.88914 0.0
C295 C 0.05087 0.24703 0.84443 0.0
C296 C 0.98496 0.23899 0.83908 0.0
O297 O 0.9918 0.23277 0.85358 0.0
O298 O 0.99353 0.25368 0.83326 0.0
C299 C 0.02756 0.2247 0.90369 0.0
O300 O 0.03962 0.24073 0.90705 0.0
C301 C 0.01518 0.28557 0.88643 0.0
Zn302 Zn 0.55058 0.73774 0.32321 0.0
Zn303 Zn 0.55186 0.71375 0.34899 0.0
O304 O 0.57692 0.7105 0.33389 0.0
O305 O 0.57556 0.73016 0.3126 0.0
O306 O 0.55396 0.69574 0.36854 0.0
O307 O 0.55017 0.76055 0.3449 0.0
O308 O 0.55124 0.74068 0.366 0.0
C309 C 0.5842 0.71788 0.31995 0.0
C310 C 0.51786 0.70885 0.31929 0.0
O311 O 0.52584 0.70382 0.33391 0.0
O312 O 0.52585 0.7227 0.31174 0.0
C313 C 0.5488 0.67744 0.36497 0.0
O314 O 0.54145 0.66956 0.34783 0.0
C315 C 0.55052 0.75785 0.3622 0.0
Zn316 Zn 0.96232 0.79267 0.62489 0.0
Zn317 Zn 0.99483 0.7895 0.64472 0.0
O318 O 0.00309 0.81195 0.62974 0.0
O319 O 0.97636 0.81451 0.61354 0.0
O320 O 0.01869 0.78637 0.66042 0.0
O321 O 0.94832 0.7988 0.64924 0.0
O322 O 0.97469 0.79544 0.66558 0.0
C323 C 0.994 0.82007 0.61788 0.0
C324 C 0.97603 0.75498 0.61501 0.0
O325 O 0.98964 0.76266 0.6271 0.0
O326 O 0.96226 0.76466 0.61175 0.0
C327 C 0.03577 0.79046 0.65526 0.0
O328 O 0.03831 0.79735 0.63917 0.0
C329 C 0.95706 0.79889 0.66516 0.0
Zn330 Zn 0.45947 0.29105 0.12843 0.0
Zn331 Zn 0.4908 0.28295 0.14694 0.0
O332 O 0.50017 0.30788 0.13601 0.0
O333 O 0.47397 0.31568 0.12247 0.0
O334 O 0.51467 0.27773 0.16109 0.0
O335 O 0.44459 0.29165 0.15263 0.0
O336 O 0.47063 0.28584 0.168 0.0
C337 C 0.49182 0.31925 0.12688 0.0
C338 C 0.47279 0.2542 0.11209 0.0
O339 O 0.4852 0.25848 0.12607 0.0
O340 O 0.46039 0.2658 0.10982 0.0
C341 C 0.51492 0.26289 0.16938 0.0
O342 O 0.49917 0.25072 0.16882 0.0
C343 C 0.45295 0.28909 0.16799 0.0
C344 C 0.22148 0.74574 0.8214 0.0
C345 C 0.23855 0.74213 0.81178 0.0
C346 C 0.22229 0.75702 0.83984 0.0
C347 C 0.2537 0.76774 0.88242 0.0
H348 H 0.22708 0.81341 0.899 0.0
C349 C 0.27469 0.81746 0.95406 0.0
C350 C 0.2605 0.82656 0.96493 0.0
C351 C 0.27027 0.80719 0.93557 0.0
C352 C 0.23434 0.80047 0.89471 0.0
H353 H 0.26967 0.74895 0.8134 0.0
H354 H 0.27104 0.768 0.84563 0.0
H355 H 0.22212 0.79597 0.86587 0.0
H356 H 0.23042 0.83193 0.96483 0.0
H357 H 0.22249 0.81339 0.93258 0.0
H358 H 0.26565 0.7717 0.91103 0.0
C359 C 0.25709 0.76194 0.839 0.0
C360 C 0.23156 0.79058 0.87572 0.0
C361 C 0.25629 0.75096 0.82057 0.0
C362 C 0.24169 0.82508 0.95682 0.0
C363 C 0.23718 0.81455 0.93829 0.0
C364 C 0.25625 0.77737 0.90137 0.0
C365 C 0.24017 0.76469 0.84899 0.0
C366 C 0.24158 0.77441 0.86934 0.0
C367 C 0.25144 0.80542 0.92744 0.0
C368 C 0.24702 0.79418 0.90769 0.0
H369 H 0.20758 0.73911 0.8151 0.0
H370 H 0.20904 0.75897 0.84729 0.0
H371 H 0.26131 0.75507 0.87792 0.0
H372 H 0.2894 0.8185 0.95971 0.0
H373 H 0.28179 0.80086 0.92755 0.0
C374 C 0.0093 0.56358 0.43132 0.0
C375 C 0.99227 0.56143 0.41993 0.0
C376 C 0.02718 0.56341 0.4227 0.0
C377 C 0.059 0.54507 0.40012 0.0
H378 H 0.0684 0.56148 0.35098 0.0
C379 C 0.10325 0.50339 0.34373 0.0
C380 C 0.11463 0.51326 0.33144 0.0
C381 C 0.09185 0.5135 0.35701 0.0
C382 C 0.06625 0.55711 0.36487 0.0
H383 H 0.98015 0.55817 0.391 0.0
H384 H 0.01116 0.55753 0.37583 0.0
H385 H 0.04187 0.57335 0.36986 0.0
H386 H 0.12342 0.54169 0.32392 0.0
H387 H 0.10331 0.55948 0.34729 0.0
H388 H 0.08318 0.52862 0.39501 0.0
C389 C 0.01103 0.55978 0.39136 0.0
C390 C 0.05089 0.56373 0.3756 0.0
C391 C 0.99323 0.56003 0.4 0.0
C392 C 0.11478 0.53366 0.33317 0.0
C393 C 0.10322 0.54382 0.34648 0.0
C394 C 0.07438 0.53854 0.38945 0.0
C395 C 0.02822 0.56092 0.40255 0.0
C396 C 0.04663 0.55719 0.39301 0.0
C397 C 0.09147 0.53379 0.35841 0.0
C398 C 0.07772 0.54384 0.37135 0.0
H399 H 0.00874 0.5646 0.44677 0.0
H400 H 0.04012 0.56458 0.43177 0.0
H401 H 0.05617 0.53961 0.41338 0.0
H402 H 0.1028 0.48769 0.34286 0.0
H403 H 0.08275 0.50522 0.3657 0.0
C404 C 0.80572 0.78515 0.87413 0.0
C405 C 0.82421 0.79214 0.86913 0.0
C406 C 0.80319 0.76927 0.8839 0.0
C407 C 0.82873 0.74102 0.91432 0.0
H408 H 0.78699 0.70035 0.89692 0.0
C409 C 0.8082 0.6767 0.95514 0.0
C410 C 0.80469 0.65805 0.94378 0.0
C411 C 0.81034 0.69347 0.94657 0.0
C412 C 0.79875 0.71155 0.90191 0.0
H413 H 0.85459 0.78815 0.87076 0.0
H414 H 0.85016 0.76027 0.88775 0.0
H415 H 0.79152 0.72883 0.88092 0.0
H416 H 0.80055 0.64246 0.91449 0.0
H417 H 0.80425 0.67167 0.89963 0.0
H418 H 0.83611 0.72355 0.93515 0.0
C419 C 0.83763 0.76717 0.88418 0.0
C420 C 0.80123 0.72796 0.89286 0.0
C421 C 0.84015 0.783 0.87429 0.0
C422 C 0.80323 0.65658 0.92369 0.0
C423 C 0.80524 0.67333 0.91515 0.0
C424 C 0.82617 0.72466 0.92346 0.0
C425 C 0.8191 0.76005 0.88898 0.0
C426 C 0.8163 0.74283 0.8989 0.0
C427 C 0.80887 0.69196 0.92648 0.0
C428 C 0.81122 0.70968 0.91726 0.0
H429 H 0.79312 0.79174 0.87018 0.0
H430 H 0.78875 0.76423 0.88754 0.0
H431 H 0.84037 0.75232 0.9194 0.0
H432 H 0.80941 0.67835 0.97065 0.0
H433 H 0.81296 0.70765 0.95568 0.0
C434 C 0.05322 0.00026 0.41327 0.0
C435 C 0.05704 0.98072 0.41187 0.0
C436 C 0.04618 0.00717 0.39727 0.0
C437 C 0.02097 0.98914 0.34981 0.0
H438 H 0.02944 0.044 0.34524 0.0
C439 C 0.98017 0.01977 0.29188 0.0
C440 C 0.96852 0.03377 0.30052 0.0
C441 C 0.99565 0.01473 0.30235 0.0
C442 C 0.02713 0.0286 0.34623 0.0
H443 H 0.05738 0.95327 0.39253 0.0
H444 H 0.0458 0.96543 0.36431 0.0
H445 H 0.0479 0.03162 0.36957 0.0
H446 H 0.96489 0.05474 0.32609 0.0
H447 H 0.99228 0.04644 0.3441 0.0
H448 H 0.00013 0.98625 0.3265 0.0
C449 C 0.04758 0.97534 0.37789 0.0
C450 C 0.03753 0.02151 0.36029 0.0
C451 C 0.05429 0.96835 0.39401 0.0
C452 C 0.97367 0.0439 0.3191 0.0
C453 C 0.98936 0.03918 0.32939 0.0
C454 C 0.01085 0.99618 0.33556 0.0
C455 C 0.04311 0.99477 0.37935 0.0
C456 C 0.03414 0.0018 0.36269 0.0
C457 C -3e-05 0.02396 0.32143 0.0
C458 C 0.01342 0.01607 0.33399 0.0
H459 H 0.05506 0.01005 0.42694 0.0
H460 H 0.04255 0.02208 0.39918 0.0
H461 H 0.01766 0.97397 0.35129 0.0
H462 H 0.9764 0.01163 0.27763 0.0
H463 H 0.00367 0.00298 0.29589 0.0
C464 C 0.25608 0.23411 0.70383 0.0
C465 C 0.27337 0.24482 0.71179 0.0
C466 C 0.2557 0.22218 0.68578 0.0
C467 C 0.2834 0.21504 0.64142 0.0
H468 H 0.25356 0.16417 0.63118 0.0
C469 C 0.29359 0.15854 0.57417 0.0
C470 C 0.27694 0.14814 0.56442 0.0
C471 C 0.29234 0.17045 0.59196 0.0
C472 C 0.26179 0.17844 0.63376 0.0
H473 H 0.30394 0.25072 0.7075 0.0
H474 H 0.30333 0.22987 0.67626 0.0
H475 H 0.25283 0.18453 0.66275 0.0
H476 H 0.24591 0.14209 0.56578 0.0
H477 H 0.24377 0.16291 0.59688 0.0
H478 H 0.29256 0.20888 0.61255 0.0
C479 C 0.28994 0.23105 0.68362 0.0
C480 C 0.26136 0.19011 0.65185 0.0
C481 C 0.29031 0.24298 0.70156 0.0
C482 C 0.25902 0.1499 0.5729 0.0
C483 C 0.25779 0.16174 0.59077 0.0
C484 C 0.28389 0.20336 0.62341 0.0
C485 C 0.27261 0.22067 0.67538 0.0
C486 C 0.27232 0.20849 0.65595 0.0
C487 C 0.27444 0.17218 0.60047 0.0
C488 C 0.27324 0.18485 0.61942 0.0
H489 H 0.24278 0.23532 0.71134 0.0
H490 H 0.24207 0.2145 0.67979 0.0
H491 H 0.29167 0.22929 0.64392 0.0
H492 H 0.30763 0.15749 0.56808 0.0
H493 H 0.30546 0.17811 0.59918 0.0
C494 C 0.52572 0.54856 0.60416 0.0
C495 C 0.52712 0.53129 0.59108 0.0
C496 C 0.51523 0.54819 0.62072 0.0
C497 C 0.49368 0.51532 0.65272 0.0
H498 H 0.46273 0.55807 0.66779 0.0
C499 C 0.43898 0.51584 0.71354 0.0
C500 C 0.43908 0.53351 0.72645 0.0
C501 C 0.44953 0.515 0.69685 0.0
C502 C 0.47142 0.54611 0.66387 0.0
H503 H 0.51889 0.50002 0.58532 0.0
H504 H 0.50035 0.49937 0.61422 0.0
H505 H 0.48171 0.5575 0.63925 0.0
H506 H 0.4503 0.56417 0.73186 0.0
H507 H 0.4686 0.5627 0.7028 0.0
H508 H 0.48318 0.50391 0.67738 0.0
C509 C 0.50757 0.51319 0.61177 0.0
C510 C 0.48235 0.5458 0.64753 0.0
C511 C 0.51818 0.51354 0.5952 0.0
C512 C 0.44986 0.55033 0.72222 0.0
C513 C 0.46029 0.54951 0.7055 0.0
C514 C 0.48264 0.5156 0.66906 0.0
C515 C 0.50576 0.53056 0.62462 0.0
C516 C 0.49377 0.5305 0.64182 0.0
C517 C 0.46029 0.53184 0.69263 0.0
C518 C 0.47151 0.53109 0.67491 0.0
H519 H 0.53274 0.56241 0.60157 0.0
H520 H 0.51457 0.56179 0.6305 0.0
H521 H 0.50245 0.50342 0.64888 0.0
H522 H 0.43085 0.50261 0.71637 0.0
H523 H 0.4491 0.50121 0.68713 0.0
C524 C 0.7526 0.25372 0.6658 0.0
C525 C 0.76769 0.26304 0.67852 0.0
C526 C 0.7439 0.26414 0.65316 0.0
C527 C 0.74248 0.31493 0.64179 0.0
H528 H 0.73486 0.28767 0.5893 0.0
C529 C 0.75849 0.34867 0.57448 0.0
C530 C 0.74493 0.34477 0.55898 0.0
C531 C 0.7553 0.34018 0.59085 0.0
C532 C 0.73652 0.2954 0.60396 0.0
H533 H 0.78538 0.29024 0.68858 0.0
H534 H 0.77079 0.30827 0.66644 0.0
H535 H 0.74025 0.26924 0.61507 0.0
H536 H 0.71728 0.32934 0.5484 0.0
H537 H 0.71201 0.3137 0.57697 0.0
H538 H 0.74039 0.34127 0.63024 0.0
C539 C 0.76506 0.29324 0.66633 0.0
C540 C 0.73957 0.28484 0.6188 0.0
C541 C 0.77357 0.28289 0.67898 0.0
C542 C 0.72779 0.33273 0.56033 0.0
C543 C 0.72484 0.32374 0.57656 0.0
C544 C 0.7398 0.32548 0.62691 0.0
C545 C 0.75034 0.28396 0.65296 0.0
C546 C 0.74331 0.29455 0.63784 0.0
C547 C 0.73874 0.32719 0.59181 0.0
C548 C 0.73738 0.31587 0.60781 0.0
H549 H 0.74798 0.23832 0.66522 0.0
H550 H 0.73247 0.25655 0.64326 0.0
H551 H 0.74474 0.32289 0.65631 0.0
H552 H 0.77187 0.3578 0.57365 0.0
H553 H 0.76633 0.3429 0.60231 0.0
C554 C 0.52289 0.95902 0.56968 0.0
C555 C 0.53394 0.95234 0.55402 0.0
C556 C 0.5312 0.96344 0.58829 0.0
C557 C 0.54889 0.959 0.62674 0.0
H558 H 0.6016 0.98297 0.63643 0.0
C559 C 0.59066 0.95835 0.69771 0.0
C560 C 0.60286 0.97513 0.70578 0.0
C561 C 0.58217 0.95677 0.67935 0.0
C562 C 0.5868 0.97645 0.63402 0.0
H563 H 0.56256 0.94565 0.54562 0.0
H564 H 0.57688 0.95275 0.57809 0.0
H565 H 0.58681 0.97888 0.6042 0.0
H566 H 0.61571 0.00346 0.70084 0.0
H567 H 0.60066 0.00078 0.66882 0.0
H568 H 0.54874 0.95685 0.65659 0.0
C569 C 0.56185 0.95482 0.57599 0.0
C570 C 0.57839 0.9739 0.61549 0.0
C571 C 0.55356 0.95048 0.55738 0.0
C572 C 0.60644 0.99029 0.69501 0.0
C573 C 0.59787 0.98873 0.67663 0.0
C574 C 0.55727 0.96161 0.64526 0.0
C575 C 0.55075 0.96123 0.5917 0.0
C576 C 0.55939 0.96495 0.61158 0.0
C577 C 0.58558 0.97196 0.66861 0.0
C578 C 0.5764 0.97015 0.64909 0.0
H579 H 0.50771 0.96049 0.56763 0.0
H580 H 0.52229 0.96856 0.60002 0.0
H581 H 0.5343 0.95189 0.62424 0.0
H582 H 0.58767 0.94634 0.70554 0.0
H583 H 0.57308 0.94349 0.67349 0.0
C584 C 0.84225 0.21302 0.73838 0.0
C585 C 0.82403 0.21201 0.74646 0.0
C586 C 0.85879 0.21125 0.74921 0.0
C587 C 0.87743 0.21714 0.79939 0.0
H588 H 0.921 0.19448 0.77489 0.0
C589 C 0.95197 0.22069 0.83885 0.0
C590 C 0.96674 0.22963 0.82904 0.0
C591 C 0.93393 0.21413 0.82961 0.0
C592 C 0.90889 0.20072 0.78195 0.0
H593 H 0.80891 0.20797 0.77225 0.0
H594 H 0.83776 0.20436 0.79102 0.0
H595 H 0.89007 0.19109 0.75715 0.0
H596 H 0.97466 0.2377 0.80167 0.0
H597 H 0.94348 0.2259 0.78551 0.0
H598 H 0.89648 0.22702 0.82409 0.0
C599 C 0.83928 0.20684 0.77636 0.0
C600 C 0.89121 0.19891 0.77177 0.0
C601 C 0.82271 0.20871 0.76554 0.0
C602 C 0.9635 0.23096 0.80962 0.0
C603 C 0.9457 0.22408 0.80032 0.0
C604 C 0.89509 0.21876 0.80964 0.0
C605 C 0.85756 0.20826 0.76838 0.0
C606 C 0.87544 0.20767 0.78013 0.0
C607 C 0.93059 0.21599 0.81031 0.0
C608 C 0.91114 0.2111 0.8008 0.0
H609 H 0.84379 0.21523 0.72365 0.0
H610 H 0.87261 0.21273 0.74263 0.0
H611 H 0.86567 0.22421 0.80625 0.0
H612 H 0.95409 0.21957 0.85386 0.0
H613 H 0.9225 0.20791 0.83759 0.0
C614 C 0.53018 0.90922 0.47054 0.0
C615 C 0.52685 0.90805 0.48988 0.0
C616 C 0.53371 0.89266 0.45765 0.0
C617 C 0.5485 0.84285 0.45396 0.0
H618 H 0.52189 0.83543 0.40405 0.0
C619 C 0.54778 0.77206 0.39707 0.0
C620 C 0.54943 0.77469 0.37783 0.0
C621 C 0.54568 0.78798 0.41151 0.0
C622 C 0.52961 0.83737 0.41784 0.0
H623 H 0.52513 0.88867 0.51098 0.0
H624 H 0.53135 0.85961 0.48838 0.0
H625 H 0.51727 0.86383 0.42784 0.0
H626 H 0.55082 0.79626 0.35881 0.0
H627 H 0.54741 0.82387 0.3839 0.0
H628 H 0.56085 0.81628 0.44382 0.0
C629 C 0.53132 0.87342 0.48325 0.0
C630 C 0.52695 0.85366 0.43148 0.0
C631 C 0.52777 0.89005 0.49619 0.0
C632 C 0.54942 0.79363 0.37344 0.0
C633 C 0.54734 0.80948 0.38782 0.0
C634 C 0.55118 0.82649 0.44025 0.0
C635 C 0.53401 0.8745 0.46376 0.0
C636 C 0.53652 0.85673 0.44962 0.0
C637 C 0.54517 0.80683 0.40698 0.0
C638 C 0.54192 0.8237 0.42195 0.0
H639 H 0.52996 0.92296 0.46532 0.0
H640 H 0.53616 0.89407 0.44283 0.0
H641 H 0.55615 0.84486 0.46779 0.0
H642 H 0.54774 0.75765 0.40094 0.0
H643 H 0.54394 0.78545 0.42613 0.0
C644 C 0.20557 0.24647 0.77462 0.0
C645 C 0.22112 0.24107 0.78467 0.0
C646 C 0.18669 0.24177 0.77987 0.0
C647 C 0.16016 0.2325 0.82235 0.0
H648 H 0.11639 0.22186 0.78596 0.0
C649 C 0.08094 0.23003 0.8464 0.0
C650 C 0.06957 0.24142 0.837 0.0
C651 C 0.099 0.22575 0.83951 0.0
C652 C 0.12847 0.2248 0.7963 0.0
H653 H 0.22959 0.22613 0.80754 0.0
H654 H 0.19651 0.21757 0.81664 0.0
H655 H 0.14901 0.22154 0.77425 0.0
H656 H 0.068 0.2567 0.81266 0.0
H657 H 0.09919 0.24927 0.8008 0.0
H658 H 0.1396 0.23633 0.84436 0.0
C659 C 0.19879 0.22556 0.80483 0.0
C660 C 0.14716 0.22464 0.7896 0.0
C661 C 0.21767 0.23028 0.79954 0.0
C662 C 0.07639 0.24796 0.82034 0.0
C663 C 0.09423 0.24354 0.81339 0.0
C664 C 0.14145 0.23262 0.82906 0.0
C665 C 0.18309 0.23166 0.79535 0.0
C666 C 0.16325 0.22903 0.80251 0.0
C667 C 0.10584 0.23254 0.82295 0.0
C668 C 0.12543 0.22933 0.81608 0.0
H669 H 0.20805 0.25505 0.76325 0.0
H670 H 0.175 0.24695 0.77243 0.0
H671 H 0.17221 0.23616 0.8327 0.0
H672 H 0.07608 0.22477 0.85926 0.0
H673 H 0.10763 0.21718 0.84715 0.0
C674 C 0.56494 0.59274 0.50318 0.0
C675 C 0.55295 0.57511 0.50115 0.0
C676 C 0.56736 0.60273 0.48764 0.0
C677 C 0.55967 0.59871 0.4349 0.0
H678 H 0.5526 0.65372 0.4477 0.0
C679 C 0.54322 0.64549 0.37705 0.0
C680 C 0.55108 0.66518 0.38 0.0
C681 C 0.54511 0.63404 0.39138 0.0
C682 C 0.55494 0.63848 0.44385 0.0
H683 H 0.53453 0.55358 0.48148 0.0
H684 H 0.53883 0.57094 0.45412 0.0
H685 H 0.55406 0.63422 0.47312 0.0
H686 H 0.56749 0.68812 0.40018 0.0
H687 H 0.57113 0.6681 0.42493 0.0
H688 H 0.56047 0.60299 0.40557 0.0
C689 C 0.54656 0.57701 0.46759 0.0
C690 C 0.55577 0.62727 0.45847 0.0
C691 C 0.5441 0.56705 0.4832 0.0
C692 C 0.56111 0.67306 0.39748 0.0
C693 C 0.56312 0.66158 0.41174 0.0
C694 C 0.55896 0.60997 0.42024 0.0
C695 C 0.55774 0.59527 0.46981 0.0
C696 C 0.55804 0.60724 0.45418 0.0
C697 C 0.55502 0.64195 0.40896 0.0
C698 C 0.55645 0.62999 0.42452 0.0
H699 H 0.57172 0.59927 0.51702 0.0
H700 H 0.57628 0.61662 0.48974 0.0
H701 H 0.56158 0.58335 0.43115 0.0
H702 H 0.53536 0.63897 0.36377 0.0
H703 H 0.53844 0.61908 0.3888 0.0
C704 C 0.84714 0.82671 0.79746 0.0
C705 C 0.8533 0.82197 0.81505 0.0
C706 C 0.85901 0.82485 0.78172 0.0
C707 C 0.90956 0.82165 0.76807 0.0
H708 H 0.88615 0.79721 0.71852 0.0
C709 C 0.95421 0.79979 0.70081 0.0
C710 C 0.9464 0.80267 0.68309 0.0
C711 C 0.94345 0.80254 0.71738 0.0
C712 C 0.8929 0.80429 0.73219 0.0
H713 H 0.87699 0.81219 0.83007 0.0
H714 H 0.89763 0.80881 0.80254 0.0
H715 H 0.86625 0.80173 0.74641 0.0
H716 H 0.9214 0.81136 0.66906 0.0
H717 H 0.90297 0.81646 0.69781 0.0
H718 H 0.93623 0.8243 0.75376 0.0
C719 C 0.88365 0.81399 0.80094 0.0
C720 C 0.88147 0.80687 0.74819 0.0
C721 C 0.87174 0.81574 0.81665 0.0
C722 C 0.92782 0.80879 0.68241 0.0
C723 C 0.91717 0.81161 0.69891 0.0
C724 C 0.92101 0.81913 0.75201 0.0
C725 C 0.87734 0.81834 0.78324 0.0
C726 C 0.88963 0.81565 0.76629 0.0
C727 C 0.9247 0.80827 0.71656 0.0
C728 C 0.91279 0.81053 0.73385 0.0
H729 H 0.83298 0.83144 0.79574 0.0
H730 H 0.85383 0.82853 0.76833 0.0
H731 H 0.91624 0.8286 0.78181 0.0
H732 H 0.96846 0.79505 0.70182 0.0
H733 H 0.94964 0.79971 0.73073 0.0
C734 C 0.05191 0.92985 0.50808 0.0
C735 C 0.05121 0.9176 0.49021 0.0
C736 C 0.05034 0.92182 0.52495 0.0
C737 C 0.05135 0.8753 0.54442 0.0
H738 H 0.01431 0.89734 0.57951 0.0
C739 C 0.99314 0.84649 0.59806 0.0
C740 C 0.00401 0.83525 0.60814 0.0
C741 C 0.00216 0.85931 0.587 0.0
C742 C 0.02478 0.89107 0.56992 0.0
H743 H 0.0489 0.88765 0.47556 0.0
H744 H 0.04594 0.87348 0.50493 0.0
H745 H 0.02476 0.91403 0.55325 0.0
H746 H 0.03301 0.82924 0.61512 0.0
H747 H 0.04887 0.85172 0.5956 0.0
H748 H 0.05049 0.85176 0.56051 0.0
C749 C 0.04802 0.88925 0.50614 0.0
C750 C 0.03094 0.90075 0.55497 0.0
C751 C 0.04959 0.8973 0.48931 0.0
C752 C 0.02424 0.8377 0.60751 0.0
C753 C 0.0333 0.85047 0.59626 0.0
C754 C 0.04519 0.86562 0.55941 0.0
C755 C 0.048 0.90139 0.52415 0.0
C756 C 0.04386 0.89268 0.54169 0.0
C757 C 0.02231 0.86118 0.58565 0.0
C758 C 0.03137 0.8731 0.57196 0.0
H759 H 0.05316 0.94559 0.50896 0.0
H760 H 0.05058 0.93158 0.53859 0.0
H761 H 0.06155 0.86885 0.53462 0.0
H762 H 0.97753 0.84503 0.59829 0.0
H763 H 0.99322 0.86712 0.57883 0.0
C764 C 0.16178 0.73142 0.74679 0.0
C765 C 0.18062 0.73562 0.74107 0.0
C766 C 0.1466 0.74022 0.73963 0.0
C767 C 0.13362 0.76079 0.69708 0.0
H768 H 0.09019 0.77747 0.7264 0.0
C769 C 0.07145 0.79279 0.66204 0.0
C770 C 0.05261 0.78678 0.66685 0.0
C771 C 0.08739 0.78861 0.67241 0.0
C772 C 0.10213 0.77271 0.71797 0.0
H773 H 0.1988 0.75254 0.72408 0.0
H774 H 0.17238 0.76817 0.71168 0.0
H775 H 0.11759 0.76693 0.74268 0.0
H776 H 0.03574 0.77191 0.68658 0.0
H777 H 0.06351 0.76424 0.70441 0.0
H778 H 0.11811 0.76602 0.67232 0.0
C779 C 0.16919 0.75801 0.72153 0.0
C780 C 0.11785 0.76673 0.72732 0.0
C781 C 0.18432 0.74924 0.72874 0.0
C782 C 0.05006 0.77679 0.68251 0.0
C783 C 0.06601 0.7725 0.69282 0.0
C784 C 0.11791 0.76667 0.68774 0.0
C785 C 0.15008 0.75324 0.72651 0.0
C786 C 0.13375 0.76063 0.71696 0.0
C787 C 0.0849 0.77818 0.68779 0.0
C788 C 0.1019 0.77263 0.69802 0.0
H789 H 0.15866 0.72073 0.75614 0.0
H790 H 0.13205 0.73609 0.74362 0.0
H791 H 0.14544 0.75581 0.68859 0.0
H792 H 0.07394 0.80066 0.65016 0.0
H793 H 0.10169 0.79354 0.66833 0.0
C794 C 0.96097 0.59031 0.51912 0.0
C795 C 0.95927 0.59211 0.49962 0.0
C796 C 0.96651 0.60669 0.5331 0.0
C797 C 0.98816 0.65818 0.54125 0.0
H798 H 0.9526 0.66445 0.58271 0.0
C799 C 0.99362 0.72617 0.60212 0.0
C800 C 0.97632 0.73491 0.60431 0.0
C801 C 0.99385 0.70768 0.59085 0.0
C802 C 0.96273 0.66283 0.5713 0.0
H803 H 0.96308 0.6124 0.47945 0.0
H804 H 0.97296 0.64097 0.50388 0.0
H805 H 0.94992 0.634 0.55975 0.0
H806 H 0.94565 0.73092 0.59691 0.0
H807 H 0.94601 0.69863 0.57764 0.0
H808 H 0.0006 0.68734 0.55263 0.0
C809 C 0.97003 0.62685 0.50831 0.0
C810 C 0.9613 0.64536 0.55824 0.0
C811 C 0.96438 0.61047 0.49432 0.0
C812 C 0.95922 0.72461 0.59547 0.0
C813 C 0.95939 0.70607 0.58451 0.0
C814 C 0.98974 0.67562 0.55449 0.0
C815 C 0.97062 0.62521 0.52789 0.0
C816 C 0.97374 0.64298 0.54285 0.0
C817 C 0.97672 0.6975 0.58192 0.0
C818 C 0.97674 0.67825 0.56937 0.0
H819 H 0.95757 0.57629 0.52365 0.0
H820 H 0.96715 0.60494 0.54805 0.0
H821 H 0.99801 0.65669 0.52959 0.0
H822 H 0.00704 0.7338 0.60871 0.0
H823 H 0.00738 0.70134 0.5891 0.0
C824 C 0.82174 0.8256 0.21715 0.0
C825 C 0.82384 0.81482 0.23216 0.0
C826 C 0.83001 0.84501 0.21899 0.0
C827 C 0.84249 0.88763 0.25514 0.0
H828 H 0.87743 0.90748 0.21925 0.0
C829 C 0.88453 0.96345 0.27428 0.0
C830 C 0.88854 0.97473 0.25982 0.0
C831 C 0.8764 0.94409 0.26966 0.0
C832 C 0.86742 0.90229 0.22924 0.0
H833 H 0.83731 0.81585 0.26041 0.0
H834 H 0.85093 0.84987 0.26385 0.0
H835 H 0.86384 0.87315 0.21303 0.0
H836 H 0.88713 0.97452 0.2291 0.0
H837 H 0.87219 0.94077 0.22099 0.0
H838 H 0.84538 0.91656 0.27112 0.0
C839 C 0.84283 0.84324 0.25072 0.0
C840 C 0.85975 0.88261 0.2257 0.0
C841 C 0.8349 0.82379 0.24877 0.0
C842 C 0.88422 0.96617 0.24056 0.0
C843 C 0.87576 0.94679 0.23592 0.0
C844 C 0.84982 0.9073 0.2585 0.0
C845 C 0.84025 0.85408 0.23597 0.0
C846 C 0.84753 0.87507 0.23884 0.0
C847 C 0.8717 0.9355 0.25045 0.0
C848 C 0.86273 0.91484 0.24584 0.0
H849 H 0.81317 0.81931 0.20424 0.0
H850 H 0.82777 0.85315 0.20746 0.0
H851 H 0.83281 0.8822 0.2653 0.0
H852 H 0.88794 0.96948 0.28925 0.0
H853 H 0.87405 0.93579 0.28123 0.0
C854 C 0.7762 0.17881 0.28572 0.0
C855 C 0.76981 0.18519 0.26902 0.0
C856 C 0.79076 0.1664 0.28501 0.0
C857 C 0.83055 0.14762 0.25608 0.0
H858 H 0.82274 0.10537 0.28549 0.0
C859 C 0.87935 0.08353 0.25351 0.0
C860 C 0.88324 0.07788 0.27132 0.0
C861 C 0.86647 0.09752 0.25209 0.0
C862 C 0.82525 0.11719 0.27733 0.0
H863 H 0.77421 0.18395 0.23855 0.0
H864 H 0.79947 0.16192 0.23727 0.0
H865 H 0.79847 0.12796 0.28521 0.0
H866 H 0.87765 0.08345 0.30175 0.0
H867 H 0.85561 0.10772 0.29928 0.0
H868 H 0.85745 0.13661 0.24822 0.0
C869 C 0.79326 0.16668 0.25094 0.0
C870 C 0.81133 0.13017 0.27719 0.0
C871 C 0.77865 0.17913 0.25164 0.0
C872 C 0.87477 0.08718 0.28774 0.0
C873 C 0.86203 0.10107 0.28633 0.0
C874 C 0.84455 0.13454 0.2562 0.0
C875 C 0.79929 0.15995 0.26758 0.0
C876 C 0.81392 0.14574 0.26683 0.0
C877 C 0.8573 0.10604 0.26845 0.0
C878 C 0.84217 0.11937 0.2671 0.0
H879 H 0.76961 0.18299 0.2993 0.0
H880 H 0.79527 0.16175 0.29817 0.0
H881 H 0.83299 0.1595 0.24799 0.0
H882 H 0.88567 0.07666 0.24061 0.0
H883 H 0.86311 0.10109 0.23811 0.0
C884 C 0.40046 0.03886 0.99084 0.0
C885 C 0.41276 0.03272 0.976 0.0
C886 C 0.3867 0.02547 0.99704 0.0
C887 C 0.35715 0.97946 0.98095 0.0
H888 H 0.35633 0.97296 0.03446 0.0
C889 C 0.30059 0.92556 0.00896 0.0
C890 C 0.30907 0.91165 0.01779 0.0
C891 C 0.31171 0.94242 0.00554 0.0
C892 C 0.35631 0.97478 0.01951 0.0
H893 H 0.42033 0.00741 0.95644 0.0
H894 H 0.39578 0.98436 0.96675 0.0
H895 H 0.37901 0.99845 0.02464 0.0
H896 H 0.33547 0.90501 0.03095 0.0
H897 H 0.35471 0.93469 0.0254 0.0
H898 H 0.3346 0.95574 0.97575 0.0
C899 C 0.39689 0.99957 0.97352 0.0
C900 C 0.3692 0.98934 0.01393 0.0
C901 C 0.41088 0.01284 0.96757 0.0
C902 C 0.32857 0.91543 0.02404 0.0
C903 C 0.33956 0.93244 0.02096 0.0
C904 C 0.34403 0.96517 0.98658 0.0
C905 C 0.38468 0.00576 0.9883 0.0
C906 C 0.36997 0.99153 0.99454 0.0
C907 C 0.33136 0.94585 0.01127 0.0
C908 C 0.34373 0.96246 0.00585 0.0
H909 H 0.40118 0.05407 0.99747 0.0
H910 H 0.37735 0.03058 0.00841 0.0
H911 H 0.35743 0.98095 0.96593 0.0
H912 H 0.28561 0.92301 0.00394 0.0
H913 H 0.30506 0.9526 0.99809 0.0
C914 C 0.30099 0.36492 0.3267 0.0
C915 C 0.30304 0.36744 0.34674 0.0
C916 C 0.29245 0.37874 0.31793 0.0
C917 C 0.27406 0.42802 0.32759 0.0
H918 H 0.23356 0.40311 0.29052 0.0
C919 C 0.19272 0.43973 0.30485 0.0
C920 C 0.19411 0.45863 0.30013 0.0
C921 C 0.20919 0.4307 0.30766 0.0
C922 C 0.24493 0.41033 0.30071 0.0
H923 H 0.29874 0.3863 0.37346 0.0
H924 H 0.28353 0.41026 0.35835 0.0
H925 H 0.25788 0.38389 0.30058 0.0
H926 H 0.21411 0.48303 0.29509 0.0
H927 H 0.24323 0.46708 0.30033 0.0
H928 H 0.26013 0.45423 0.32849 0.0
C929 C 0.28879 0.39801 0.34922 0.0
C930 C 0.25902 0.39936 0.30635 0.0
C931 C 0.29736 0.38424 0.35792 0.0
C932 C 0.21254 0.46845 0.29867 0.0
C933 C 0.22918 0.45936 0.30166 0.0
C934 C 0.2599 0.43903 0.32191 0.0
C935 C 0.28571 0.39517 0.32915 0.0
C936 C 0.27335 0.40786 0.3204 0.0
C937 C 0.22759 0.44026 0.30591 0.0
C938 C 0.24476 0.43006 0.309 0.0
H939 H 0.3053 0.35196 0.31788 0.0
H940 H 0.2905 0.37622 0.30243 0.0
H941 H 0.28509 0.43509 0.33822 0.0
H942 H 0.17883 0.43173 0.30626 0.0
H943 H 0.20751 0.41616 0.31138 0.0
C944 C 0.11512 0.97623 0.47754 0.0
C945 C 0.10193 0.98692 0.46949 0.0
C946 C 0.13249 0.98558 0.48641 0.0
C947 C 0.17319 0.00517 0.48888 0.0
H948 H 0.18041 0.06004 0.51167 0.0
C949 C 0.24428 0.05205 0.48432 0.0
C950 C 0.25056 0.06762 0.49913 0.0
C951 C 0.2264 0.04129 0.48486 0.0
C952 C 0.1787 0.04461 0.50566 0.0
H953 H 0.09608 0.01612 0.46591 0.0
H954 H 0.12667 0.03218 0.48025 0.0
H955 H 0.14796 0.04307 0.50678 0.0
H956 H 0.24312 0.08379 0.52644 0.0
H957 H 0.21186 0.06466 0.5275 0.0
H958 H 0.20387 0.00661 0.48798 0.0
C959 C 0.12357 0.01662 0.48008 0.0
C960 C 0.16003 0.03493 0.5026 0.0
C961 C 0.10609 0.00733 0.47149 0.0
C962 C 0.23866 0.0719 0.51474 0.0
C963 C 0.22072 0.06102 0.51533 0.0
C964 C 0.1918 0.01476 0.49216 0.0
C965 C 0.13725 0.0058 0.48719 0.0
C966 C 0.157 0.01526 0.49353 0.0
C967 C 0.21432 0.04565 0.50028 0.0
C968 C 0.19478 0.03478 0.49991 0.0
H969 H 0.11248 0.96049 0.47627 0.0
H970 H 0.14244 0.9768 0.4921 0.0
H971 H 0.17155 0.99009 0.48175 0.0
H972 H 0.25298 0.04837 0.47204 0.0
H973 H 0.22183 0.02988 0.47278 0.0
C974 C 0.74586 0.18092 0.70894 0.0
C975 C 0.75484 0.19198 0.72581 0.0
C976 C 0.73109 0.166 0.70998 0.0
C977 C 0.6967 0.14566 0.74283 0.0
H978 H 0.70453 0.09569 0.71239 0.0
C979 C 0.64671 0.07457 0.74569 0.0
C980 C 0.65612 0.05792 0.74711 0.0
C981 C 0.65703 0.09162 0.74169 0.0
C982 C 0.70215 0.10954 0.72098 0.0
H983 H 0.75465 0.19707 0.75689 0.0
H984 H 0.72889 0.17116 0.75875 0.0
H985 H 0.72472 0.1251 0.70776 0.0
H986 H 0.68376 0.04612 0.74537 0.0
H987 H 0.70174 0.07584 0.73843 0.0
H988 H 0.67454 0.12997 0.75647 0.0
C989 C 0.73318 0.17391 0.74472 0.0
C990 C 0.71355 0.12643 0.71816 0.0
C991 C 0.74802 0.18867 0.74367 0.0
C992 C 0.67606 0.05868 0.74437 0.0
C993 C 0.68635 0.07566 0.74025 0.0
C994 C 0.68521 0.12878 0.74556 0.0
C995 C 0.72492 0.16204 0.72791 0.0
C996 C 0.7112 0.14463 0.7293 0.0
C997 C 0.67696 0.09233 0.73888 0.0
C998 C 0.68807 0.11048 0.73492 0.0
H999 H 0.75092 0.18312 0.69499 0.0
H1000 H 0.72484 0.15722 0.69679 0.0
H1001 H 0.69447 0.1595 0.75154 0.0
H1002 H 0.63135 0.07447 0.74769 0.0
H1003 H 0.64938 0.10418 0.7406 0.0
C1004 C 0.46281 0.99784 0.53678 0.0
C1005 C 0.47307 0.99767 0.51996 0.0
C1006 C 0.45105 0.01272 0.54251 0.0
C1007 C 0.43767 0.06046 0.53103 0.0
H1008 H 0.38628 0.04034 0.54297 0.0
C1009 C 0.36835 0.08519 0.50383 0.0
C1010 C 0.353 0.08802 0.51614 0.0
C1011 C 0.38519 0.07863 0.51018 0.0
C1012 C 0.40066 0.04634 0.54011 0.0
H1013 H 0.47996 0.01281 0.49624 0.0
H1014 H 0.4593 0.03852 0.50584 0.0
H1015 H 0.41272 0.02015 0.54371 0.0
H1016 H 0.34334 0.08676 0.54488 0.0
H1017 H 0.37279 0.07442 0.55584 0.0
H1018 H 0.42509 0.08603 0.52587 0.0
C1019 C 0.46048 0.02765 0.51502 0.0
C1020 C 0.41587 0.03479 0.54056 0.0
C1021 C 0.47224 0.01287 0.5094 0.0
C1022 C 0.35503 0.08474 0.53515 0.0
C1023 C 0.37179 0.07768 0.54139 0.0
C1024 C 0.42241 0.07188 0.53033 0.0
C1025 C 0.44931 0.02752 0.53137 0.0
C1026 C 0.4344 0.04138 0.53521 0.0
C1027 C 0.38691 0.07438 0.52885 0.0
C1028 C 0.40364 0.0646 0.53413 0.0
H1029 H 0.46328 0.98609 0.54505 0.0
H1030 H 0.44285 0.01227 0.55529 0.0
H1031 H 0.45185 0.06622 0.52733 0.0
H1032 H 0.36719 0.08771 0.48913 0.0
H1033 H 0.39653 0.07598 0.50014 0.0
C1034 C 0.56929 0.48524 0.54394 0.0
C1035 C 0.57373 0.50509 0.54264 0.0
C1036 C 0.58275 0.47187 0.53915 0.0
C1037 C 0.62795 0.4644 0.51344 0.0
H1038 H 0.63304 0.42635 0.54709 0.0
C1039 C 0.69155 0.41655 0.51059 0.0
C1040 C 0.68743 0.39702 0.51323 0.0
C1041 C 0.67736 0.42948 0.5131 0.0
C1042 C 0.63166 0.43669 0.53739 0.0
H1043 H 0.59574 0.52637 0.53493 0.0
H1044 H 0.61931 0.50303 0.52661 0.0
H1045 H 0.60896 0.4493 0.55324 0.0
H1046 H 0.665 0.3757 0.52019 0.0
H1047 H 0.64026 0.39817 0.52439 0.0
H1048 H 0.65081 0.45182 0.49769 0.0
C1049 C 0.6053 0.49776 0.53114 0.0
C1050 C 0.61782 0.44987 0.54091 0.0
C1051 C 0.59179 0.51115 0.53591 0.0
C1052 C 0.66871 0.39065 0.51812 0.0
C1053 C 0.65454 0.40358 0.52065 0.0
C1054 C 0.64182 0.4512 0.50992 0.0
C1055 C 0.60104 0.47799 0.53296 0.0
C1056 C 0.61575 0.46389 0.52898 0.0
C1057 C 0.65872 0.42321 0.51834 0.0
C1058 C 0.64384 0.43716 0.52185 0.0
H1059 H 0.55537 0.48001 0.54873 0.0
H1060 H 0.57881 0.4567 0.54032 0.0
H1061 H 0.6266 0.47483 0.50382 0.0
H1062 H 0.70582 0.42197 0.50684 0.0
H1063 H 0.68115 0.44454 0.51139 0.0
C1064 C 0.74999 0.2517 0.31099 0.0
C1065 C 0.73413 0.23808 0.30413 0.0
C1066 C 0.74937 0.26429 0.32846 0.0
C1067 C 0.71712 0.28353 0.36683 0.0
H1068 H 0.76396 0.28823 0.39865 0.0
C1069 C 0.73013 0.33385 0.44186 0.0
C1070 C 0.74088 0.32666 0.45574 0.0
C1071 C 0.72734 0.32338 0.42309 0.0
C1072 C 0.75069 0.28696 0.39005 0.0
H1073 H 0.70488 0.22751 0.30976 0.0
H1074 H 0.70388 0.2493 0.34053 0.0
H1075 H 0.76289 0.27024 0.36618 0.0
H1076 H 0.75585 0.30219 0.46121 0.0
H1077 H 0.75061 0.28387 0.42888 0.0
H1078 H 0.70483 0.29988 0.39117 0.0
C1079 C 0.71671 0.25046 0.33228 0.0
C1080 C 0.75017 0.27688 0.37126 0.0
C1081 C 0.71728 0.23794 0.31467 0.0
C1082 C 0.74776 0.30831 0.45079 0.0
C1083 C 0.74486 0.29784 0.43219 0.0
C1084 C 0.71764 0.29366 0.38575 0.0
C1085 C 0.73295 0.26344 0.33962 0.0
C1086 C 0.7334 0.27496 0.35939 0.0
C1087 C 0.73517 0.30551 0.41793 0.0
C1088 C 0.73439 0.2953 0.39764 0.0
H1089 H 0.76304 0.25234 0.303 0.0
H1090 H 0.76196 0.27444 0.33342 0.0
H1091 H 0.70401 0.28245 0.35803 0.0
H1092 H 0.72465 0.34796 0.44524 0.0
H1093 H 0.71981 0.32969 0.41244 0.0
C1094 C 0.48414 0.06113 0.88608 0.0
C1095 C 0.48451 0.06108 0.90588 0.0
C1096 C 0.50099 0.0594 0.8759 0.0
C1097 C 0.53978 0.06062 0.85743 0.0
H1098 H 0.56876 0.01961 0.8703 0.0
C1099 C 0.60034 0.03026 0.80993 0.0
C1100 C 0.59897 0.00972 0.80582 0.0
C1101 C 0.58939 0.03968 0.82432 0.0
C1102 C 0.56087 0.03114 0.86655 0.0
H1103 H 0.50249 0.06006 0.93097 0.0
H1104 H 0.53222 0.05737 0.91328 0.0
H1105 H 0.54383 0.03142 0.89131 0.0
H1106 H 0.58542 0.98303 0.814 0.0
H1107 H 0.5664 0.99934 0.83879 0.0
H1108 H 0.55613 0.05946 0.83204 0.0
C1109 C 0.51894 0.05852 0.90549 0.0
C1110 C 0.54672 0.03812 0.87874 0.0
C1111 C 0.50202 0.0602 0.91565 0.0
C1112 C 0.58683 0.99886 0.81673 0.0
C1113 C 0.57602 0.00824 0.8311 0.0
C1114 C 0.55395 0.05361 0.84521 0.0
C1115 C 0.51852 0.05754 0.88539 0.0
C1116 C 0.5356 0.05254 0.87406 0.0
C1117 C 0.577 0.02874 0.83497 0.0
C1118 C 0.56423 0.03836 0.84934 0.0
H1119 H 0.47065 0.06159 0.87831 0.0
H1120 H 0.50001 0.05841 0.86044 0.0
H1121 H 0.53169 0.07195 0.85354 0.0
H1122 H 0.60956 0.03906 0.80179 0.0
H1123 H 0.59054 0.05551 0.82704 0.0
C1124 C 0.32681 0.27681 0.39762 0.0
C1125 C 0.32597 0.27239 0.37743 0.0
C1126 C 0.32373 0.26198 0.40867 0.0
C1127 C 0.30164 0.21102 0.40577 0.0
H1128 H 0.33225 0.21273 0.45269 0.0
C1129 C 0.30228 0.14501 0.44503 0.0
C1130 C 0.3026 0.14832 0.46523 0.0
C1131 C 0.3041 0.16063 0.43491 0.0
C1132 C 0.3234 0.21219 0.43977 0.0
H1133 H 0.32144 0.24881 0.35307 0.0
H1134 H 0.3166 0.22288 0.37236 0.0
H1135 H 0.3382 0.23874 0.43363 0.0
H1136 H 0.30476 0.17074 0.49063 0.0
H1137 H 0.30794 0.19816 0.47285 0.0
H1138 H 0.28701 0.18433 0.41179 0.0
C1139 C 0.31931 0.23788 0.37964 0.0
C1140 C 0.32682 0.22708 0.42882 0.0
C1141 C 0.32235 0.25272 0.36858 0.0
C1142 C 0.30447 0.16769 0.47508 0.0
C1143 C 0.30641 0.18338 0.46491 0.0
C1144 C 0.29826 0.19611 0.41668 0.0
C1145 C 0.31981 0.24234 0.39983 0.0
C1146 C 0.31607 0.22662 0.41162 0.0
C1147 C 0.30635 0.17999 0.4447 0.0
C1148 C 0.30918 0.19645 0.43374 0.0
H1149 H 0.32982 0.29177 0.40492 0.0
H1150 H 0.32408 0.26598 0.42417 0.0
H1151 H 0.29282 0.21039 0.39281 0.0
H1152 H 0.30084 0.1303 0.43694 0.0
H1153 H 0.30424 0.1575 0.41938 0.0
C1154 C 0.54621 0.47213 0.91299 0.0
C1155 C 0.54911 0.48489 0.9306 0.0
C1156 C 0.53729 0.47801 0.89728 0.0
C1157 C 0.52086 0.52203 0.88002 0.0
H1158 H 0.48533 0.48303 0.84789 0.0
C1159 C 0.45303 0.53704 0.83903 0.0
C1160 C 0.44891 0.5267 0.82034 0.0
C1161 C 0.46916 0.53379 0.84965 0.0
C1162 C 0.49546 0.49401 0.85651 0.0
H1163 H 0.54511 0.51371 0.94573 0.0
H1164 H 0.5287 0.52372 0.91873 0.0
H1165 H 0.50552 0.47322 0.87234 0.0
H1166 H 0.45894 0.5056 0.7977 0.0
H1167 H 0.48696 0.49947 0.81657 0.0
H1168 H 0.50955 0.54298 0.86487 0.0
C1169 C 0.53387 0.50943 0.91665 0.0
C1170 C 0.50712 0.48841 0.87054 0.0
C1171 C 0.54312 0.50367 0.93223 0.0
C1172 C 0.46183 0.51384 0.81204 0.0
C1173 C 0.47778 0.51026 0.82284 0.0
C1174 C 0.50891 0.52767 0.8662 0.0
C1175 C 0.53072 0.49665 0.89896 0.0
C1176 C 0.51974 0.50239 0.88276 0.0
C1177 C 0.48127 0.51985 0.8419 0.0
C1178 C 0.49591 0.51375 0.85454 0.0
H1179 H 0.55095 0.45765 0.91136 0.0
H1180 H 0.53554 0.46788 0.88384 0.0
H1181 H 0.53071 0.53316 0.88877 0.0
H1182 H 0.44331 0.54706 0.84574 0.0
H1183 H 0.47147 0.54127 0.86436 0.0
C1184 C 0.80192 0.7292 0.19306 0.0
C1185 C 0.79972 0.74911 0.19362 0.0
C1186 C 0.80116 0.71641 0.17553 0.0
C1187 C 0.808 0.71601 0.12394 0.0
H1188 H 0.78123 0.66373 0.11797 0.0
C1189 C 0.79805 0.66553 0.05026 0.0
C1190 C 0.80008 0.64559 0.04969 0.0
C1191 C 0.79753 0.67803 0.06782 0.0
C1192 C 0.78896 0.6782 0.11946 0.0
H1193 H 0.7943 0.77102 0.17618 0.0
H1194 H 0.79311 0.74874 0.14561 0.0
H1195 H 0.78091 0.68572 0.14862 0.0
H1196 H 0.80319 0.62318 0.06717 0.0
H1197 H 0.8026 0.64505 0.09781 0.0
H1198 H 0.81625 0.7085 0.09491 0.0
C1199 C 0.79571 0.74308 0.15872 0.0
C1200 C 0.78875 0.69081 0.13702 0.0
C1201 C 0.79641 0.75585 0.17625 0.0
C1202 C 0.80156 0.63844 0.06709 0.0
C1203 C 0.8011 0.65097 0.08467 0.0
C1204 C 0.80827 0.7034 0.10642 0.0
C1205 C 0.79824 0.72325 0.15815 0.0
C1206 C 0.79825 0.70987 0.13945 0.0
C1207 C 0.79909 0.67093 0.08525 0.0
C1208 C 0.79875 0.68433 0.10394 0.0
H1209 H 0.80476 0.72357 0.20614 0.0
H1210 H 0.80338 0.70127 0.17555 0.0
H1211 H 0.81573 0.73049 0.12545 0.0
H1212 H 0.79676 0.6715 0.03712 0.0
H1213 H 0.79567 0.69325 0.06771 0.0
C1214 C 0.03786 0.05735 0.0826 0.0
C1215 C 0.04002 0.03916 0.07135 0.0
C1216 C 0.02583 0.05855 0.09828 0.0
C1217 C 0.00407 0.02777 0.13192 0.0
H1218 H 0.97371 0.07104 0.14658 0.0
C1219 C 0.95148 0.02864 0.1938 0.0
C1220 C 0.95172 0.04626 0.20679 0.0
C1221 C 0.96116 0.02803 0.17661 0.0
C1222 C 0.98223 0.05893 0.14275 0.0
H1223 H 0.0304 0.00816 0.06701 0.0
H1224 H 0.00923 0.01025 0.09405 0.0
H1225 H 0.9923 0.06959 0.11757 0.0
H1226 H 0.96201 0.07716 0.21165 0.0
H1227 H 0.97893 0.07605 0.18171 0.0
H1228 H 0.99409 0.01712 0.15706 0.0
C1229 C 0.01722 0.02354 0.09118 0.0
C1230 C 0.9929 0.05811 0.12612 0.0
C1231 C 0.02929 0.02234 0.07562 0.0
C1232 C 0.96153 0.06333 0.20199 0.0
C1233 C 0.97115 0.06273 0.18476 0.0
C1234 C 0.99338 0.02856 0.14846 0.0
C1235 C 0.01562 0.04159 0.10298 0.0
C1236 C 0.00397 0.0425 0.12049 0.0
C1237 C 0.97126 0.04502 0.17196 0.0
C1238 C 0.98233 0.04414 0.1541 0.0
H1239 H 0.04605 0.07054 0.07975 0.0
H1240 H 0.02508 0.07267 0.10713 0.0
H1241 H 0.01275 0.01575 0.1283 0.0
H1242 H 0.94401 0.01522 0.19699 0.0
H1243 H 0.96072 0.0142 0.16695 0.0
C1244 C 0.27443 0.73965 0.16915 0.0
C1245 C 0.29068 0.74747 0.18098 0.0
C1246 C 0.26565 0.75133 0.15782 0.0
C1247 C 0.26655 0.80322 0.14894 0.0
H1248 H 0.25411 0.77835 0.09626 0.0
C1249 C 0.27973 0.8395 0.08271 0.0
C1250 C 0.26505 0.83735 0.06836 0.0
C1251 C 0.2773 0.83012 0.09861 0.0
C1252 C 0.25713 0.78544 0.11101 0.0
H1253 H 0.31039 0.77334 0.19082 0.0
H1254 H 0.29562 0.79356 0.17095 0.0
H1255 H 0.26002 0.7583 0.12057 0.0
H1256 H 0.23617 0.82406 0.05941 0.0
H1257 H 0.23218 0.80679 0.08709 0.0
H1258 H 0.26523 0.83046 0.13884 0.0
C1259 C 0.28907 0.77874 0.17058 0.0
C1260 C 0.26048 0.77396 0.12501 0.0
C1261 C 0.29767 0.76714 0.18194 0.0
C1262 C 0.2476 0.82607 0.07043 0.0
C1263 C 0.24536 0.81616 0.08614 0.0
C1264 C 0.26354 0.81468 0.13488 0.0
C1265 C 0.27317 0.77094 0.15803 0.0
C1266 C 0.26594 0.78274 0.14405 0.0
C1267 C 0.26032 0.81797 0.10024 0.0
C1268 C 0.25938 0.80591 0.11569 0.0
H1269 H 0.26894 0.72441 0.16816 0.0
H1270 H 0.2533 0.74486 0.14855 0.0
H1271 H 0.27016 0.81052 0.16352 0.0
H1272 H 0.29333 0.8481 0.08139 0.0
H1273 H 0.28911 0.83158 0.10916 0.0
C1274 C 0.03414 0.46945 0.10701 0.0
C1275 C 0.04042 0.46056 0.08927 0.0
C1276 C 0.04392 0.46803 0.12409 0.0
C1277 C 0.06112 0.45398 0.15845 0.0
H1278 H 0.11683 0.46522 0.1616 0.0
C1279 C 0.10542 0.45245 0.22784 0.0
C1280 C 0.11922 0.46862 0.23371 0.0
C1281 C 0.09669 0.44919 0.20945 0.0
C1282 C 0.10127 0.46204 0.16091 0.0
H1283 H 0.06175 0.44307 0.07545 0.0
H1284 H 0.07894 0.44056 0.10545 0.0
H1285 H 0.0993 0.46353 0.13088 0.0
H1286 H 0.13507 0.49372 0.22462 0.0
H1287 H 0.11969 0.48809 0.19254 0.0
H1288 H 0.06296 0.45307 0.18854 0.0
C1289 C 0.06645 0.44867 0.10607 0.0
C1290 C 0.09127 0.46088 0.14331 0.0
C1291 C 0.05655 0.44997 0.08895 0.0
C1292 C 0.12447 0.48116 0.22058 0.0
C1293 C 0.11576 0.47786 0.20215 0.0
C1294 C 0.07111 0.45504 0.176 0.0
C1295 C 0.06026 0.45776 0.1238 0.0
C1296 C 0.07106 0.45717 0.14199 0.0
C1297 C 0.10159 0.46198 0.19648 0.0
C1298 C 0.09126 0.45938 0.17749 0.0
H1299 H 0.02164 0.47754 0.10769 0.0
H1300 H 0.03893 0.47536 0.13751 0.0
H1301 H 0.04555 0.4509 0.15781 0.0
H1302 H 0.10114 0.44241 0.23755 0.0
H1303 H 0.086 0.43669 0.2054 0.0
C1304 C 0.35006 0.6938 0.26495 0.0
C1305 C 0.34934 0.69501 0.24526 0.0
C1306 C 0.36721 0.69061 0.27405 0.0
C1307 C 0.41603 0.67476 0.26398 0.0
H1308 H 0.43015 0.70585 0.31399 0.0
C1309 C 0.49381 0.69904 0.29201 0.0
C1310 C 0.49868 0.69965 0.31152 0.0
C1311 C 0.4749 0.69347 0.28493 0.0
C1312 C 0.42626 0.69675 0.30021 0.0
H1313 H 0.36608 0.69326 0.21963 0.0
H1314 H 0.39604 0.68855 0.23558 0.0
H1315 H 0.39813 0.70636 0.29965 0.0
H1316 H 0.4878 0.6941 0.3388 0.0
H1317 H 0.45436 0.68469 0.32643 0.0
H1318 H 0.44463 0.66606 0.26418 0.0
C1319 C 0.38329 0.68968 0.24398 0.0
C1320 C 0.40789 0.69704 0.29195 0.0
C1321 C 0.36615 0.69273 0.23487 0.0
C1322 C 0.48443 0.69365 0.32368 0.0
C1323 C 0.46532 0.6884 0.31664 0.0
C1324 C 0.43445 0.67464 0.27216 0.0
C1325 C 0.3841 0.68865 0.26371 0.0
C1326 C 0.40272 0.68645 0.2735 0.0
C1327 C 0.46034 0.68867 0.29727 0.0
C1328 C 0.43991 0.68601 0.29015 0.0
H1329 H 0.33745 0.69564 0.27345 0.0
H1330 H 0.36723 0.68973 0.28922 0.0
H1331 H 0.4124 0.66604 0.24997 0.0
H1332 H 0.50454 0.70356 0.28232 0.0
H1333 H 0.47148 0.69399 0.26999 0.0
C1334 C 0.01375 0.43376 0.00481 0.0
C1335 C 0.01103 0.43165 0.02406 0.0
C1336 C 0.01176 0.41741 0.99024 0.0
C1337 C 0.01559 0.3647 0.9826 0.0
H1338 H 0.99178 0.36541 0.93262 0.0
C1339 C 0.01024 0.29764 0.92137 0.0
C1340 C 0.01365 0.30158 0.90277 0.0
C1341 C 0.00836 0.31292 0.93656 0.0
C1342 C 0.99864 0.36503 0.94644 0.0
H1343 H 0.00303 0.41076 0.04289 0.0
H1344 H 0.99979 0.38222 0.01745 0.0
H1345 H 0.99074 0.39331 0.95826 0.0
H1346 H 0.01803 0.32471 0.88566 0.0
H1347 H 0.01517 0.35119 0.91207 0.0
H1348 H 0.02393 0.33666 0.9707 0.0
C1349 C 0.00373 0.39651 0.01371 0.0
C1350 C 0.99799 0.381 0.96114 0.0
C1351 C 0.00561 0.41287 0.02827 0.0
C1352 C 0.01528 0.32111 0.89976 0.0
C1353 C 0.01349 0.33632 0.91491 0.0
C1354 C 0.01633 0.34876 0.96787 0.0
C1355 C 0.00708 0.39857 0.99458 0.0
C1356 C 0.00663 0.3811 0.97932 0.0
C1357 C 0.0099 0.33245 0.93348 0.0
C1358 C 0.00808 0.34883 0.94953 0.0
H1359 H 0.01818 0.44796 0.00107 0.0
H1360 H 0.01463 0.41946 0.97565 0.0
H1361 H 0.02259 0.36444 0.9964 0.0
H1362 H 0.00884 0.28276 0.92417 0.0
H1363 H 0.00543 0.30939 0.95065 0.0
C1364 C 0.75344 0.72987 0.28274 0.0
C1365 C 0.75474 0.73985 0.26708 0.0
C1366 C 0.7356 0.72109 0.28732 0.0
C1367 C 0.68464 0.70685 0.26931 0.0
H1368 H 0.67321 0.72064 0.32301 0.0
C1369 C 0.6088 0.71794 0.2949 0.0
C1370 C 0.60315 0.71305 0.31263 0.0
C1371 C 0.62736 0.71557 0.28867 0.0
C1372 C 0.67623 0.71624 0.30804 0.0
H1373 H 0.73906 0.74819 0.24351 0.0
H1374 H 0.70778 0.73302 0.25148 0.0
H1375 H 0.7061 0.72672 0.31298 0.0
H1376 H 0.61229 0.70098 0.33734 0.0
H1377 H 0.64499 0.69696 0.32644 0.0
H1378 H 0.65455 0.69717 0.2643 0.0
C1379 C 0.72044 0.73158 0.2601 0.0
C1380 C 0.69512 0.71973 0.30226 0.0
C1381 C 0.73828 0.74033 0.25554 0.0
C1382 C 0.61624 0.70491 0.32363 0.0
C1383 C 0.63497 0.7027 0.31744 0.0
C1384 C 0.66575 0.70337 0.27509 0.0
C1385 C 0.7188 0.72228 0.27634 0.0
C1386 C 0.69944 0.71564 0.28275 0.0
C1387 C 0.64081 0.70835 0.30004 0.0
C1388 C 0.66123 0.7086 0.29443 0.0
H1389 H 0.76607 0.72948 0.29186 0.0
H1390 H 0.73488 0.71387 0.29978 0.0
H1391 H 0.68756 0.70319 0.25422 0.0
H1392 H 0.59903 0.72413 0.286 0.0
H1393 H 0.63143 0.72031 0.27532 0.0
C1394 C 0.03588 0.08795 0.9927 0.0
C1395 C 0.05161 0.09185 0.00596 0.0
C1396 C 0.02983 0.10285 0.98366 0.0
C1397 C 0.03551 0.15679 0.98453 0.0
H1398 H 0.02702 0.14193 0.92938 0.0
C1399 C 0.04048 0.21313 0.9328 0.0
C1400 C 0.02762 0.20999 0.91669 0.0
C1401 C 0.04099 0.19908 0.94479 0.0
C1402 C 0.02902 0.14632 0.94479 0.0
H1403 H 0.07308 0.11415 0.02074 0.0
H1404 H 0.06263 0.14026 0.005 0.0
H1405 H 0.03144 0.11696 0.94894 0.0
H1406 H 0.00494 0.18972 0.90079 0.0
H1407 H 0.00575 0.16527 0.92178 0.0
H1408 H 0.03351 0.18625 0.98025 0.0
C1409 C 0.05468 0.12587 0.00172 0.0
C1410 C 0.03153 0.13197 0.95605 0.0
C1411 C 0.06069 0.11095 0.01075 0.0
C1412 C 0.01509 0.19258 0.91302 0.0
C1413 C 0.01561 0.17851 0.92502 0.0
C1414 C 0.033 0.17117 0.97325 0.0
C1415 C 0.03953 0.12188 0.98763 0.0
C1416 C 0.03506 0.13703 0.97603 0.0
C1417 C 0.02867 0.18152 0.94098 0.0
C1418 C 0.02998 0.16614 0.9532 0.0
H1419 H 0.02884 0.0732 0.98868 0.0
H1420 H 0.01795 0.09932 0.9731 0.0
H1421 H 0.03794 0.16118 0.9999 0.0
H1422 H 0.05035 0.22636 0.93607 0.0
H1423 H 0.05141 0.20179 0.95679 0.0
C1424 C 0.34533 0.30444 0.30312 0.0
C1425 C 0.3522 0.29929 0.32026 0.0
C1426 C 0.3564 0.3026 0.28679 0.0
C1427 C 0.40636 0.30025 0.27152 0.0
H1428 H 0.38203 0.27859 0.22164 0.0
C1429 C 0.45012 0.2854 0.20273 0.0
C1430 C 0.44195 0.28982 0.18578 0.0
C1431 C 0.43943 0.2859 0.21932 0.0
C1432 C 0.38903 0.28488 0.23543 0.0
H1433 H 0.37616 0.28839 0.33378 0.0
H1434 H 0.39545 0.2851 0.30523 0.0
H1435 H 0.36279 0.28089 0.25013 0.0
H1436 H 0.41619 0.29846 0.17311 0.0
H1437 H 0.39782 0.29967 0.20196 0.0
H1438 H 0.43255 0.30451 0.25681 0.0
C1439 C 0.38152 0.2906 0.30444 0.0
C1440 C 0.37799 0.28617 0.25176 0.0
C1441 C 0.37039 0.2923 0.32072 0.0
C1442 C 0.42293 0.29485 0.18585 0.0
C1443 C 0.41231 0.29542 0.2024 0.0
C1444 C 0.4174 0.29905 0.25516 0.0
C1445 C 0.37465 0.29571 0.28728 0.0
C1446 C 0.3865 0.29397 0.26998 0.0
C1447 C 0.42036 0.29087 0.21934 0.0
C1448 C 0.40884 0.29147 0.23689 0.0
H1449 H 0.33132 0.30976 0.3023 0.0
H1450 H 0.35078 0.30682 0.27383 0.0
H1451 H 0.4133 0.30653 0.28535 0.0
H1452 H 0.46472 0.2814 0.20315 0.0
H1453 H 0.44603 0.28213 0.23206 0.0
C1454 C 0.55668 0.43579 0.02793 0.0
C1455 C 0.55639 0.42381 0.00993 0.0
C1456 C 0.55521 0.42743 0.04463 0.0
C1457 C 0.55571 0.38006 0.06301 0.0
H1458 H 0.51747 0.40112 0.09719 0.0
C1459 C 0.49337 0.34889 0.11111 0.0
C1460 C 0.50304 0.3357 0.11986 0.0
C1461 C 0.50361 0.36276 0.10201 0.0
C1462 C 0.52825 0.39509 0.08785 0.0
H1463 H 0.55503 0.39406 0.99491 0.0
H1464 H 0.55219 0.37935 0.02387 0.0
H1465 H 0.5295 0.41903 0.07237 0.0
H1466 H 0.53121 0.32752 0.12687 0.0
H1467 H 0.54919 0.35193 0.111 0.0
H1468 H 0.5534 0.35544 0.07763 0.0
C1469 C 0.55394 0.39514 0.02539 0.0
C1470 C 0.53535 0.40549 0.07373 0.0
C1471 C 0.55545 0.40351 0.00876 0.0
C1472 C 0.52332 0.33742 0.1202 0.0
C1473 C 0.53361 0.35132 0.11101 0.0
C1474 C 0.54852 0.3696 0.07707 0.0
C1475 C 0.55332 0.40696 0.04352 0.0
C1476 C 0.54865 0.39776 0.06069 0.0
C1477 C 0.52382 0.36385 0.10141 0.0
C1478 C 0.53418 0.37666 0.08919 0.0
H1479 H 0.55732 0.45153 0.02902 0.0
H1480 H 0.55501 0.43697 0.05836 0.0
H1481 H 0.56622 0.37386 0.05344 0.0
H1482 H 0.47777 0.34805 0.11064 0.0
H1483 H 0.49554 0.37194 0.09458 0.0
C1484 C 0.65623 0.2053 0.23834 0.0
C1485 C 0.67387 0.21651 0.23724 0.0
C1486 C 0.63897 0.21212 0.23329 0.0
C1487 C 0.62066 0.24516 0.20318 0.0
H1488 H 0.57322 0.23606 0.22943 0.0
C1489 C 0.54973 0.2722 0.17978 0.0
C1490 C 0.5329 0.25912 0.17909 0.0
C1491 C 0.56685 0.26835 0.18842 0.0
C1492 C 0.58632 0.23858 0.22186 0.0
H1493 H 0.68769 0.24365 0.23062 0.0
H1494 H 0.65747 0.25585 0.22198 0.0
H1495 H 0.60333 0.2273 0.24229 0.0
H1496 H 0.52084 0.23185 0.18719 0.0
H1497 H 0.55076 0.22502 0.20203 0.0
H1498 H 0.60368 0.25614 0.18259 0.0
C1499 C 0.65688 0.24171 0.22651 0.0
C1500 C 0.60358 0.23357 0.22924 0.0
C1501 C 0.67413 0.23485 0.23159 0.0
C1502 C 0.53353 0.24225 0.18748 0.0
C1503 C 0.55066 0.23839 0.19611 0.0
C1504 C 0.60343 0.25015 0.1958 0.0
C1505 C 0.63911 0.23027 0.22698 0.0
C1506 C 0.62094 0.23667 0.2199 0.0
C1507 C 0.56757 0.25132 0.19656 0.0
C1508 C 0.58601 0.24677 0.20495 0.0
H1509 H 0.65584 0.191 0.24253 0.0
H1510 H 0.6256 0.20284 0.2336 0.0
H1511 H 0.63369 0.24742 0.19542 0.0
H1512 H 0.54973 0.28539 0.17355 0.0
H1513 H 0.57953 0.27876 0.18875 0.0
C1514 C 0.45602 0.113 0.98269 0.0
C1515 C 0.4576 0.09479 0.98832 0.0
C1516 C 0.46014 0.13027 0.99587 0.0
C1517 C 0.48436 0.15312 0.04176 0.0
H1518 H 0.44198 0.18532 0.04584 0.0
C1519 C 0.48175 0.21997 0.10264 0.0
C1520 C 0.47296 0.23597 0.09804 0.0
C1521 C 0.48121 0.20262 0.08931 0.0
C1522 C 0.45415 0.17677 0.04473 0.0
H1523 H 0.46584 0.08043 0.01178 0.0
H1524 H 0.47333 0.11081 0.03484 0.0
H1525 H 0.43987 0.1558 0.02195 0.0
H1526 H 0.4575 0.24667 0.07561 0.0
H1527 H 0.45722 0.21699 0.05226 0.0
H1528 H 0.49885 0.17434 0.06428 0.0
C1529 C 0.46878 0.11161 0.02025 0.0
C1530 C 0.45287 0.15978 0.03105 0.0
C1531 C 0.46441 0.09427 0.00711 0.0
C1532 C 0.46412 0.23449 0.07972 0.0
C1533 C 0.46386 0.21736 0.06634 0.0
C1534 C 0.4858 0.17037 0.05531 0.0
C1535 C 0.46612 0.12972 0.01489 0.0
C1536 C 0.46795 0.14782 0.02937 0.0
C1537 C 0.4721 0.20105 0.07102 0.0
C1538 C 0.47071 0.18247 0.05691 0.0
H1539 H 0.45064 0.11385 0.96837 0.0
H1540 H 0.45812 0.14407 0.99135 0.0
H1541 H 0.49619 0.14411 0.04073 0.0
H1542 H 0.48867 0.22069 0.11667 0.0
H1543 H 0.48755 0.19034 0.09352 0.0
C1544 C 0.30684 0.31796 0.76953 0.0
C1545 C 0.29629 0.30953 0.75244 0.0
C1546 C 0.31573 0.33711 0.77187 0.0
C1547 C 0.33619 0.37532 0.74686 0.0
H1548 H 0.32323 0.41094 0.79172 0.0
C1549 C 0.36437 0.45785 0.75975 0.0
C1550 C 0.36864 0.46694 0.77886 0.0
C1551 C 0.35523 0.43871 0.75567 0.0
C1552 C 0.32731 0.40118 0.77928 0.0
H1553 H 0.2872 0.31481 0.72427 0.0
H1554 H 0.30345 0.348 0.72818 0.0
H1555 H 0.30877 0.37716 0.7863 0.0
H1556 H 0.36727 0.46291 0.80861 0.0
H1557 H 0.35222 0.42953 0.80157 0.0
H1558 H 0.3553 0.39904 0.74014 0.0
C1559 C 0.30462 0.33968 0.73975 0.0
C1560 C 0.3189 0.38184 0.77614 0.0
C1561 C 0.29541 0.32062 0.73752 0.0
C1562 C 0.36391 0.45643 0.79374 0.0
C1563 C 0.35513 0.43726 0.78967 0.0
C1564 C 0.34492 0.39462 0.75017 0.0
C1565 C 0.3146 0.34817 0.75705 0.0
C1566 C 0.32333 0.36873 0.75998 0.0
C1567 C 0.35046 0.42816 0.7706 0.0
C1568 C 0.34069 0.40778 0.76652 0.0
H1569 H 0.30828 0.30979 0.78116 0.0
H1570 H 0.32356 0.34329 0.78527 0.0
H1571 H 0.33986 0.36541 0.73432 0.0
H1572 H 0.3678 0.46562 0.74798 0.0
H1573 H 0.35167 0.43232 0.74082 0.0
C1574 C 0.28673 0.69374 0.77703 0.0
C1575 C 0.26735 0.6871 0.7717 0.0
C1576 C 0.30069 0.68062 0.776 0.0
C1577 C 0.32323 0.64866 0.78624 0.0
H1578 H 0.32213 0.60281 0.74667 0.0
C1579 C 0.35821 0.58066 0.79822 0.0
C1580 C 0.36796 0.57042 0.78323 0.0
C1581 C 0.34796 0.59609 0.79514 0.0
C1582 C 0.32281 0.61568 0.75769 0.0
H1583 H 0.24751 0.6615 0.76069 0.0
H1584 H 0.27182 0.63853 0.75909 0.0
H1585 H 0.30045 0.62766 0.74352 0.0
H1586 H 0.37474 0.56858 0.75322 0.0
H1587 H 0.35663 0.59572 0.7478 0.0
H1588 H 0.34545 0.6367 0.80046 0.0
C1589 C 0.27631 0.65395 0.76378 0.0
C1590 C 0.31023 0.6298 0.756 0.0
C1591 C 0.26235 0.6671 0.76475 0.0
C1592 C 0.36739 0.57618 0.76506 0.0
C1593 C 0.35695 0.59163 0.76194 0.0
C1594 C 0.33575 0.63458 0.78792 0.0
C1595 C 0.29561 0.6605 0.76969 0.0
C1596 C 0.31007 0.6463 0.77043 0.0
C1597 C 0.3471 0.60173 0.77697 0.0
C1598 C 0.33541 0.61772 0.77389 0.0
H1599 H 0.2911 0.70912 0.78211 0.0
H1600 H 0.31547 0.68622 0.78033 0.0
H1601 H 0.32341 0.66107 0.79772 0.0
H1602 H 0.35832 0.57668 0.81241 0.0
H1603 H 0.34029 0.60333 0.80695 0.0
C1604 C 0.90898 0.52888 0.49959 0.0
C1605 C 0.90928 0.53453 0.48137 0.0
C1606 C 0.89409 0.51565 0.50415 0.0
C1607 C 0.86942 0.47772 0.50516 0.0
H1608 H 0.81703 0.47495 0.48449 0.0
C1609 C 0.81667 0.4086 0.50149 0.0
C1610 C 0.79708 0.41035 0.50481 0.0
C1611 C 0.82943 0.425 0.50013 0.0
C1612 C 0.83152 0.47566 0.4906 0.0
H1613 H 0.89356 0.53124 0.45394 0.0
H1614 H 0.86809 0.50757 0.46157 0.0
H1615 H 0.84051 0.50205 0.47996 0.0
H1616 H 0.77556 0.43084 0.5094 0.0
H1617 H 0.79803 0.45968 0.50734 0.0
H1618 H 0.86043 0.4516 0.51608 0.0
C1619 C 0.8792 0.5136 0.47249 0.0
C1620 C 0.84507 0.49107 0.48778 0.0
C1621 C 0.89401 0.52697 0.468 0.0
C1622 C 0.79056 0.42898 0.5068 0.0
C1623 C 0.80342 0.44549 0.50553 0.0
C1624 C 0.85588 0.46244 0.50808 0.0
C1625 C 0.87918 0.50756 0.49054 0.0
C1626 C 0.86428 0.49212 0.49477 0.0
C1627 C 0.82303 0.44368 0.5022 0.0
C1628 C 0.83686 0.46098 0.50052 0.0
H1629 H 0.92055 0.53425 0.51022 0.0
H1630 H 0.8944 0.51161 0.5183 0.0
H1631 H 0.8841 0.47787 0.51058 0.0
H1632 H 0.82221 0.39448 0.49972 0.0
H1633 H 0.84431 0.42295 0.49713 0.0
C1634 C 0.7839 0.89698 0.84433 0.0
C1635 C 0.79267 0.88119 0.83472 0.0
C1636 C 0.77326 0.90803 0.83402 0.0
C1637 C 0.7453 0.90306 0.78841 0.0
H1638 H 0.73983 0.95774 0.80654 0.0
C1639 C 0.69542 0.96784 0.77265 0.0
C1640 C 0.67732 0.95667 0.77094 0.0
C1641 C 0.71208 0.95968 0.77744 0.0
C1642 C 0.74137 0.94257 0.80104 0.0
H1643 H 0.798 0.86468 0.80702 0.0
H1644 H 0.7796 0.88424 0.78873 0.0
H1645 H 0.76554 0.94242 0.82025 0.0
H1646 H 0.66266 0.92801 0.77249 0.0
H1647 H 0.69139 0.91402 0.78103 0.0
H1648 H 0.72111 0.90317 0.76926 0.0
C1649 C 0.78071 0.88802 0.80424 0.0
C1650 C 0.75599 0.9337 0.80907 0.0
C1651 C 0.79133 0.87692 0.81463 0.0
C1652 C 0.67633 0.93708 0.77368 0.0
C1653 C 0.69289 0.92896 0.77842 0.0
C1654 C 0.73076 0.91193 0.78033 0.0
C1655 C 0.77119 0.90346 0.81386 0.0
C1656 C 0.75776 0.91368 0.80327 0.0
C1657 C 0.71097 0.94016 0.78052 0.0
C1658 C 0.72822 0.93163 0.78697 0.0
H1659 H 0.78466 0.90033 0.85989 0.0
H1660 H 0.7659 0.91955 0.84196 0.0
H1661 H 0.74611 0.8876 0.78363 0.0
H1662 H 0.69671 0.98296 0.77057 0.0
H1663 H 0.72581 0.96866 0.77879 0.0
C1664 C 0.61675 0.48535 0.98681 0.0
C1665 C 0.60113 0.4952 0.98217 0.0
C1666 C 0.63493 0.49561 0.99175 0.0
C1667 C 0.67268 0.51712 0.98361 0.0
H1668 H 0.68184 0.5716 0.0075 0.0
C1669 C 0.73741 0.56654 0.96502 0.0
C1670 C 0.74724 0.58045 0.97959 0.0
C1671 C 0.72022 0.55597 0.96862 0.0
C1672 C 0.67961 0.55631 0.00102 0.0
H1673 H 0.59191 0.52378 0.98097 0.0
H1674 H 0.62363 0.54153 0.9888 0.0
H1675 H 0.65059 0.55326 0.01025 0.0
H1676 H 0.74657 0.59427 0.00939 0.0
H1677 H 0.71646 0.57561 0.01572 0.0
H1678 H 0.70163 0.5201 0.97441 0.0
C1679 C 0.62194 0.52592 0.98881 0.0
C1680 C 0.66163 0.54584 0.00244 0.0
C1681 C 0.60375 0.51569 0.98404 0.0
C1682 C 0.73932 0.58369 0.99783 0.0
C1683 C 0.72206 0.57304 0.00146 0.0
C1684 C 0.69063 0.52753 0.9823 0.0
C1685 C 0.63792 0.51592 0.99202 0.0
C1686 C 0.65778 0.52626 0.9933 0.0
C1687 C 0.71241 0.55893 0.98691 0.0
C1688 C 0.69413 0.5474 0.99047 0.0
H1689 H 0.61527 0.46957 0.98552 0.0
H1690 H 0.64682 0.48749 0.99457 0.0
H1691 H 0.67027 0.50216 0.9762 0.0
H1692 H 0.743 0.56375 0.95076 0.0
H1693 H 0.71293 0.54557 0.95695 0.0
C1694 C 0.27325 0.68115 0.2541 0.0
C1695 C 0.27779 0.6819 0.23494 0.0
C1696 C 0.25817 0.66801 0.25838 0.0
C1697 C 0.23387 0.61997 0.23819 0.0
H1698 H 0.20176 0.62931 0.28216 0.0
C1699 C 0.18387 0.55759 0.26146 0.0
C1700 C 0.18358 0.55713 0.28129 0.0
C1701 C 0.19257 0.57395 0.25466 0.0
C1702 C 0.21071 0.62644 0.2699 0.0
H1703 H 0.26941 0.67038 0.20522 0.0
H1704 H 0.24286 0.64739 0.21268 0.0
H1705 H 0.22104 0.65675 0.27196 0.0
H1706 H 0.19203 0.57365 0.30951 0.0
H1707 H 0.20757 0.60201 0.29766 0.0
H1708 H 0.22416 0.58964 0.23648 0.0
C1709 C 0.25111 0.65687 0.22439 0.0
C1710 C 0.22168 0.64217 0.26401 0.0
C1711 C 0.26616 0.67015 0.2201 0.0
C1712 C 0.19199 0.57352 0.29416 0.0
C1713 C 0.20076 0.58986 0.28735 0.0
C1714 C 0.22296 0.60424 0.24411 0.0
C1715 C 0.24734 0.65524 0.24359 0.0
C1716 C 0.23367 0.63907 0.24831 0.0
C1717 C 0.20127 0.59024 0.2675 0.0
C1718 C 0.21152 0.60722 0.26026 0.0
H1719 H 0.28194 0.69014 0.26581 0.0
H1720 H 0.25576 0.66707 0.27331 0.0
H1721 H 0.24318 0.61701 0.22623 0.0
H1722 H 0.17738 0.54528 0.25114 0.0
H1723 H 0.19245 0.57384 0.2393 0.0
C1724 C 0.97069 0.50868 0.01542 0.0
C1725 C 0.97712 0.5135 0.03469 0.0
C1726 C 0.95441 0.51641 0.00907 0.0
C1727 C 0.91146 0.54028 0.02668 0.0
H1728 H 0.91316 0.5599 0.9784 0.0
C1729 C 0.85573 0.58926 0.00477 0.0
C1730 C 0.84841 0.58501 0.98566 0.0
C1731 C 0.87136 0.58018 0.0105 0.0
C1732 C 0.91239 0.55432 0.99182 0.0
H1733 H 0.97204 0.52982 0.06257 0.0
H1734 H 0.94375 0.54352 0.05158 0.0
H1735 H 0.94015 0.54388 0.98869 0.0
H1736 H 0.85196 0.56804 0.95754 0.0
H1737 H 0.87913 0.55223 0.96758 0.0
H1738 H 0.88378 0.5509 0.02989 0.0
C1739 C 0.9509 0.5336 0.04134 0.0
C1740 C 0.92783 0.54508 0.99769 0.0
C1741 C 0.96712 0.52586 0.04763 0.0
C1742 C 0.85723 0.57168 0.97237 0.0
C1743 C 0.87288 0.56267 0.97809 0.0
C1744 C 0.89606 0.54956 0.02083 0.0
C1745 C 0.9444 0.52908 0.02196 0.0
C1746 C 0.92759 0.53805 0.01525 0.0
C1747 C 0.88004 0.56672 0.99724 0.0
C1748 C 0.89639 0.55676 0.00338 0.0
H1749 H 0.97835 0.49914 0.00526 0.0
H1750 H 0.94965 0.51248 0.9941 0.0
H1751 H 0.91068 0.53475 0.04013 0.0
H1752 H 0.84929 0.59946 0.01537 0.0
H1753 H 0.87671 0.58379 0.02531 0.0
C1754 C 0.11358 0.00963 0.03563 0.0
C1755 C 0.09416 0.00542 0.03988 0.0
C1756 C 0.12616 0.99514 0.03399 0.0
C1757 C 0.13357 0.94747 0.04747 0.0
H1758 H 0.1684 0.94435 0.00534 0.0
C1759 C 0.18411 0.88592 0.03174 0.0
C1760 C 0.20291 0.89156 0.02649 0.0
C1761 C 0.17007 0.89906 0.03306 0.0
C1762 C 0.15893 0.94513 0.01731 0.0
H1763 H 0.07285 0.98259 0.04598 0.0
H1764 H 0.09494 0.95728 0.04332 0.0
H1765 H 0.14554 0.96875 0.00862 0.0
H1766 H 0.22167 0.91552 0.01858 0.0
H1767 H 0.19742 0.93836 0.02114 0.0
H1768 H 0.14717 0.924 0.05631 0.0
C1769 C 0.10039 0.97188 0.04132 0.0
C1770 C 0.1458 0.95912 0.01917 0.0
C1771 C 0.08775 0.9864 0.04287 0.0
C1772 C 0.20732 0.91061 0.02257 0.0
C1773 C 0.19334 0.92371 0.02392 0.0
C1774 C 0.14679 0.9335 0.04565 0.0
C1775 C 0.1197 0.97605 0.03666 0.0
C1776 C 0.1331 0.9606 0.03438 0.0
C1777 C 0.17453 0.91813 0.02916 0.0
C1778 C 0.15977 0.93229 0.03065 0.0
H1779 H 0.11914 0.02422 0.03365 0.0
H1780 H 0.14104 0.99893 0.03078 0.0
H1781 H 0.12408 0.94834 0.05944 0.0
H1782 H 0.18021 0.87136 0.03484 0.0
H1783 H 0.15567 0.8942 0.03694 0.0
loop_
_geom_bond_atom_site_label_1
_geom_bond_atom_site_label_2
_geom_bond_distance
_geom_bond_site_symmetry_2
_ccdc_geom_bond_type
H0 C3 0.929 . S
H1 C6 0.929 . S
H2 C8 0.930 . S
C3 H0 0.929 . S
C3 C4 1.398 . S
C3 C5 1.396 . S
C4 C3 1.398 . S
C4 C8 1.407 . S
C5 C3 1.396 . S
C5 C6 1.394 . S
C6 H1 0.929 . S
C6 C5 1.394 . S
C6 C7 1.382 . S
C7 C6 1.382 . S
C7 C8 1.392 . S
C7 N9 1.420 . S
C8 H2 0.930 . S
C8 C4 1.407 . S
C8 C7 1.392 . S
N9 C7 1.420 . S
N9 C10 1.244 . S
C10 N9 1.244 . S
H11 C14 0.929 . S
H12 C17 0.929 . S
H13 C19 0.930 . S
C14 H11 0.929 . S
C14 C15 1.398 . S
C14 C16 1.396 . S
C15 C14 1.398 . S
C15 C19 1.407 . S
C16 C14 1.396 . S
C16 C17 1.394 . S
C17 H12 0.929 . S
C17 C16 1.394 . S
C17 C18 1.382 . S
C18 C17 1.382 . S
C18 C19 1.392 . S
C18 N20 1.420 . S
C19 H13 0.930 . S
C19 C15 1.407 . S
C19 C18 1.392 . S
N20 C18 1.420 . S
N20 C21 1.244 . S
C21 N20 1.244 . S
H22 C25 0.929 . S
H23 C28 0.929 . S
H24 C30 0.930 . S
C25 H22 0.929 . S
C25 C26 1.398 . S
C25 C27 1.396 . S
C26 C25 1.398 . S
C26 C30 1.407 . S
C27 C25 1.396 . S
C27 C28 1.394 . S
C28 H23 0.929 . S
C28 C27 1.394 . S
C28 C29 1.382 . S
C29 C28 1.382 . S
C29 C30 1.392 . S
C29 N31 1.420 . S
C30 H24 0.930 . S
C30 C26 1.407 . S
C30 C29 1.392 . S
N31 C29 1.420 . S
N31 C32 1.244 . S
C32 N31 1.244 . S
H33 C36 0.929 . S
H34 C39 0.929 . S
H35 C41 0.930 . S
C36 H33 0.929 . S
C36 C37 1.398 . S
C36 C38 1.396 . S
C37 C36 1.398 . S
C37 C41 1.407 . S
C38 C36 1.396 . S
C38 C39 1.394 . S
C39 H34 0.929 . S
C39 C38 1.394 . S
C39 C40 1.382 . S
C40 C39 1.382 . S
C40 C41 1.392 . S
C40 N42 1.420 . S
C41 H35 0.930 . S
C41 C37 1.407 . S
C41 C40 1.392 . S
N42 C40 1.420 . S
N42 C43 1.244 . S
C43 N42 1.244 . S
H44 C47 0.929 . S
H45 C50 0.929 . S
H46 C52 0.930 . S
C47 H44 0.929 . S
C47 C48 1.398 . S
C47 C49 1.396 . S
C48 C47 1.398 . S
C48 C52 1.407 . S
C49 C47 1.396 . S
C49 C50 1.394 . S
C50 H45 0.929 . S
C50 C49 1.394 . S
C50 C51 1.382 . S
C51 C50 1.382 . S
C51 C52 1.392 . S
C51 N53 1.420 . S
C52 H46 0.930 . S
C52 C48 1.407 . S
C52 C51 1.392 . S
N53 C51 1.420 . S
N53 C54 1.244 . S
C54 N53 1.244 . S
H55 C58 0.929 . S
H56 C61 0.929 . S
H57 C63 0.930 . S
C58 H55 0.929 . S
C58 C59 1.398 . S
C58 C60 1.396 . S
C59 C58 1.398 . S
C59 C63 1.407 . S
C60 C58 1.396 . S
C60 C61 1.394 . S
C61 H56 0.929 . S
C61 C60 1.394 . S
C61 C62 1.382 . S
C62 C61 1.382 . S
C62 C63 1.392 . S
C62 N64 1.420 . S
C63 H57 0.930 . S
C63 C59 1.407 . S
C63 C62 1.392 . S
N64 C62 1.420 . S
N64 C65 1.244 . S
C65 N64 1.244 . S
H66 C69 0.929 . S
H67 C72 0.911 1_455 S
H68 C74 0.930 . S
C69 H66 0.929 . S
C69 C70 1.398 . S
C69 C71 1.396 . S
C70 C69 1.398 . S
C70 C74 1.407 . S
C71 C69 1.396 . S
C71 C72 1.394 . S
C72 H67 0.911 1_655 S
C72 C71 1.394 . S
C72 C73 1.382 . S
C73 C72 1.382 . S
C73 C74 1.392 . S
C73 N75 1.420 . S
C74 H68 0.930 . S
C74 C70 1.407 . S
C74 C73 1.392 . S
N75 C73 1.420 . S
N75 C76 1.244 1_655 S
C76 N75 1.244 1_455 S
H77 C80 0.929 . S
H78 C83 0.929 . S
H79 C85 0.930 . S
C80 H77 0.929 . S
C80 C81 1.398 . S
C80 C82 1.396 . S
C81 C80 1.398 . S
C81 C85 1.407 . S
C82 C80 1.396 . S
C82 C83 1.394 . S
C83 H78 0.929 . S
C83 C82 1.394 . S
C83 C84 1.382 . S
C84 C83 1.382 . S
C84 C85 1.392 . S
C84 N86 1.420 . S
C85 H79 0.930 . S
C85 C81 1.407 . S
C85 C84 1.392 . S
N86 C84 1.420 . S
N86 C87 1.244 . S
C87 N86 1.244 . S
H88 C91 0.929 . S
H89 C94 0.929 . S
H90 C96 0.930 . S
C91 H88 0.929 . S
C91 C92 1.398 . S
C91 C93 1.396 . S
C92 C91 1.398 . S
C92 C96 1.407 . S
C93 C91 1.396 . S
C93 C94 1.394 . S
C94 H89 0.929 . S
C94 C93 1.394 . S
C94 C95 1.382 . S
C95 C94 1.382 . S
C95 C96 1.392 . S
C95 N97 1.420 . S
C96 H90 0.930 . S
C96 C92 1.407 . S
C96 C95 1.392 . S
N97 C95 1.420 . S
N97 C98 1.244 . S
C98 N97 1.244 . S
H99 C102 0.929 . S
H100 C105 0.929 . S
H101 C107 0.930 . S
C102 H99 0.929 . S
C102 C103 1.398 . S
C102 C104 1.396 . S
C103 C102 1.398 . S
C103 C107 1.407 . S
C104 C102 1.396 . S
C104 C105 1.394 . S
C105 H100 0.929 . S
C105 C104 1.394 . S
C105 C106 1.382 . S
C106 C105 1.382 . S
C106 C107 1.392 . S
C106 N108 1.420 . S
C107 H101 0.930 . S
C107 C103 1.407 . S
C107 C106 1.392 . S
N108 C106 1.420 . S
N108 C109 1.244 . S
C109 N108 1.244 . S
H110 C113 0.929 . S
H111 C116 0.929 . S
H112 C118 0.930 . S
C113 H110 0.929 . S
C113 C114 1.398 . S
C113 C115 1.396 . S
C114 C113 1.398 . S
C114 C118 1.407 . S
C115 C113 1.396 . S
C115 C116 1.394 . S
C116 H111 0.929 . S
C116 C115 1.394 . S
C116 C117 1.382 . S
C117 C116 1.382 . S
C117 C118 1.392 . S
C117 N119 1.420 . S
C118 H112 0.930 . S
C118 C114 1.407 . S
C118 C117 1.392 . S
N119 C117 1.420 . S
N119 C120 1.244 . S
C120 N119 1.244 . S
H121 C124 0.929 . S
H122 C127 0.929 . S
H123 C129 0.930 . S
C124 H121 0.929 . S
C124 C125 1.398 . S
C124 C126 1.396 . S
C125 C124 1.398 . S
C125 C129 1.407 . S
C126 C124 1.396 . S
C126 C127 1.394 . S
C127 H122 0.929 . S
C127 C126 1.394 . S
C127 C128 1.382 . S
C128 C127 1.382 . S
C128 C129 1.392 . S
C128 N130 1.420 . S
C129 H123 0.930 . S
C129 C125 1.407 . S
C129 C128 1.392 . S
N130 C128 1.420 . S
N130 C131 1.244 . S
C131 N130 1.244 . S
H132 C135 0.929 . S
H133 C138 0.929 . S
H134 C140 0.930 . S
C135 H132 0.929 . S
C135 C136 1.398 . S
C135 C137 1.396 . S
C136 C135 1.398 . S
C136 C140 1.407 . S
C137 C135 1.396 . S
C137 C138 1.394 . S
C138 H133 0.929 . S
C138 C137 1.394 . S
C138 C139 1.382 . S
C139 C138 1.382 . S
C139 C140 1.392 . S
C139 N141 1.420 . S
C140 H134 0.930 . S
C140 C136 1.407 . S
C140 C139 1.392 . S
N141 C139 1.420 . S
N141 C142 1.244 . S
C142 N141 1.244 . S
H143 C146 0.929 . S
H144 C149 0.924 1_554 S
H145 C151 0.930 . S
C146 H143 0.929 . S
C146 C147 1.398 . S
C146 C148 1.396 . S
C147 C146 1.398 . S
C147 C151 1.407 . S
C148 C146 1.396 . S
C148 C149 1.394 . S
C149 H144 0.924 1_556 S
C149 C148 1.394 . S
C149 C150 1.382 . S
C150 C149 1.382 . S
C150 C151 1.392 . S
C150 N152 1.420 . S
C151 H145 0.930 . S
C151 C147 1.407 . S
C151 C150 1.392 . S
N152 C150 1.420 . S
N152 C153 1.244 1_556 S
C153 N152 1.244 1_554 S
H154 C157 0.929 . S
H155 C160 0.929 . S
H156 C162 0.930 . S
C157 H154 0.929 . S
C157 C158 1.398 . S
C157 C159 1.396 . S
C158 C157 1.398 . S
C158 C162 1.407 . S
C159 C157 1.396 . S
C159 C160 1.394 . S
C160 H155 0.929 . S
C160 C159 1.394 . S
C160 C161 1.382 . S
C161 C160 1.382 . S
C161 C162 1.392 . S
C161 N163 1.420 . S
C162 H156 0.930 . S
C162 C158 1.407 . S
C162 C161 1.392 . S
N163 C161 1.420 . S
N163 C164 1.244 . S
C164 N163 1.244 . S
H165 C168 0.929 . S
H166 C171 0.929 . S
H167 C173 0.930 . S
C168 H165 0.929 . S
C168 C169 1.398 . S
C168 C170 1.396 . S
C169 C168 1.398 . S
C169 C173 1.407 . S
C170 C168 1.396 . S
C170 C171 1.394 . S
C171 H166 0.929 . S
C171 C170 1.394 . S
C171 C172 1.382 . S
C172 C171 1.382 . S
C172 C173 1.392 . S
C172 N174 1.420 . S
C173 H167 0.930 . S
C173 C169 1.407 . S
C173 C172 1.392 . S
N174 C172 1.420 . S
N174 C175 1.244 . S
C175 N174 1.244 . S
Zn176 O179 2.031 . S
Zn176 O181 2.049 . S
Zn176 O186 2.067 . S
Zn177 O178 1.962 . S
Zn177 O180 1.986 . S
Zn177 O182 1.996 . S
Zn177 O185 1.943 . S
O178 Zn177 1.962 . S
O178 C183 1.254 . S
O179 Zn176 2.031 . S
O179 C183 1.269 . S
O180 Zn177 1.986 . S
O180 C187 1.262 . S
O181 Zn176 2.049 . S
O181 C189 1.260 . S
O182 Zn177 1.996 . S
O182 C189 1.257 . S
C183 O178 1.254 . S
C183 O179 1.269 . S
C184 O185 1.249 . S
C184 O186 1.270 . S
O185 Zn177 1.943 . S
O185 C184 1.249 . S
O186 Zn176 2.067 . S
O186 C184 1.270 . S
C187 O180 1.262 . S
C187 O188 1.232 . S
O188 C187 1.232 . S
C189 O181 1.260 . S
C189 O182 1.257 . S
Zn190 O193 2.031 . S
Zn190 O195 2.049 . S
Zn190 O200 2.067 . S
Zn191 O192 1.962 . S
Zn191 O194 1.986 . S
Zn191 O196 1.996 . S
Zn191 O199 1.943 . S
O192 Zn191 1.962 . S
O192 C197 1.254 . S
O193 Zn190 2.031 . S
O193 C197 1.269 . S
O194 Zn191 1.986 . S
O194 C201 1.262 . S
O195 Zn190 2.049 . S
O195 C203 1.260 . S
O196 Zn191 1.996 . S
O196 C203 1.257 . S
C197 O192 1.254 . S
C197 O193 1.269 . S
C198 O199 1.249 . S
C198 O200 1.270 . S
O199 Zn191 1.943 . S
O199 C198 1.249 . S
O200 Zn190 2.067 . S
O200 C198 1.270 . S
C201 O194 1.262 . S
C201 O202 1.232 . S
O202 C201 1.232 . S
C203 O195 1.260 . S
C203 O196 1.257 . S
Zn204 O207 2.031 . S
Zn204 O209 2.049 . S
Zn204 O214 2.067 . S
Zn205 O206 1.962 . S
Zn205 O208 1.986 . S
Zn205 O210 1.996 1_554 S
Zn205 O213 1.943 . S
O206 Zn205 1.962 . S
O206 C211 1.254 . S
O207 Zn204 2.031 . S
O207 C211 1.269 1_556 S
O208 Zn205 1.986 . S
O208 C215 1.262 . S
O209 Zn204 2.049 . S
O209 C217 1.260 . S
O210 Zn205 1.996 1_556 S
O210 C217 1.257 . S
C211 O206 1.254 . S
C211 O207 1.269 1_554 S
C212 O213 1.249 1_556 S
C212 O214 1.270 . S
O213 Zn205 1.943 . S
O213 C212 1.249 1_554 S
O214 Zn204 2.067 . S
O214 C212 1.270 . S
C215 O208 1.262 . S
C215 O216 1.232 . S
O216 C215 1.232 . S
C217 O209 1.260 . S
C217 O210 1.257 . S
Zn218 O221 2.031 . S
Zn218 O223 2.049 . S
Zn218 O228 2.067 1_545 S
Zn219 O220 1.962 . S
Zn219 O222 1.986 . S
Zn219 O224 1.996 . S
Zn219 O227 1.956 . S
O220 Zn219 1.962 . S
O220 C225 1.254 . S
O221 Zn218 2.031 . S
O221 C225 1.269 . S
O222 Zn219 1.986 . S
O222 C229 1.262 . S
O223 Zn218 2.049 . S
O223 C231 1.260 . S
O224 Zn219 1.996 . S
O224 C231 1.257 . S
C225 O220 1.254 . S
C225 O221 1.269 . S
C226 O227 1.239 1_565 S
C226 O228 1.270 . S
O227 Zn219 1.956 . S
O227 C226 1.239 1_545 S
O228 Zn218 2.067 1_565 S
O228 C226 1.270 . S
C229 O222 1.262 . S
C229 O230 1.232 . S
O230 C229 1.232 . S
C231 O223 1.260 . S
C231 O224 1.257 . S
Zn232 O235 2.031 . S
Zn232 O237 2.049 . S
Zn232 O242 2.067 . S
Zn233 O234 1.962 . S
Zn233 O236 1.986 . S
Zn233 O238 1.996 . S
Zn233 O241 1.943 . S
O234 Zn233 1.962 . S
O234 C239 1.254 . S
O235 Zn232 2.031 . S
O235 C239 1.269 . S
O236 Zn233 1.986 . S
O236 C243 1.262 . S
O237 Zn232 2.049 . S
O237 C245 1.260 . S
O238 Zn233 1.996 . S
O238 C245 1.257 . S
C239 O234 1.254 . S
C239 O235 1.269 . S
C240 O241 1.249 . S
C240 O242 1.270 . S
O241 Zn233 1.943 . S
O241 C240 1.249 . S
O242 Zn232 2.067 . S
O242 C240 1.270 . S
C243 O236 1.262 . S
C243 O244 1.232 . S
O244 C243 1.232 . S
C245 O237 1.260 . S
C245 O238 1.257 . S
Zn246 O249 2.031 . S
Zn246 O251 2.049 . S
Zn246 O256 2.067 . S
Zn247 O248 1.962 . S
Zn247 O250 1.986 . S
Zn247 O252 1.996 . S
Zn247 O255 1.943 . S
O248 Zn247 1.962 . S
O248 C253 1.254 . S
O249 Zn246 2.031 . S
O249 C253 1.269 . S
O250 Zn247 1.986 . S
O250 C257 1.262 . S
O251 Zn246 2.049 . S
O251 C259 1.260 . S
O252 Zn247 1.996 . S
O252 C259 1.257 . S
C253 O248 1.254 . S
C253 O249 1.269 . S
C254 O255 1.249 . S
C254 O256 1.270 . S
O255 Zn247 1.943 . S
O255 C254 1.249 . S
O256 Zn246 2.067 . S
O256 C254 1.270 . S
C257 O250 1.262 . S
C257 O258 1.232 . S
O258 C257 1.232 . S
C259 O251 1.260 . S
C259 O252 1.257 . S
Zn260 O263 2.031 . S
Zn260 O265 2.049 . S
Zn260 O270 2.067 . S
Zn261 O262 1.962 . S
Zn261 O264 1.986 . S
Zn261 O266 1.996 . S
Zn261 O269 1.943 . S
O262 Zn261 1.962 . S
O262 C267 1.254 . S
O263 Zn260 2.031 . S
O263 C267 1.269 . S
O264 Zn261 1.986 . S
O264 C271 1.262 . S
O265 Zn260 2.049 . S
O265 C273 1.260 . S
O266 Zn261 1.996 . S
O266 C273 1.257 . S
C267 O262 1.254 . S
C267 O263 1.269 . S
C268 O269 1.249 . S
C268 O270 1.270 . S
O269 Zn261 1.943 . S
O269 C268 1.249 . S
O270 Zn260 2.067 . S
O270 C268 1.270 . S
C271 O264 1.262 . S
C271 O272 1.232 . S
O272 C271 1.232 . S
C273 O265 1.260 . S
C273 O266 1.257 . S
Zn274 O277 2.031 . S
Zn274 O279 2.049 . S
Zn274 O284 2.067 . S
Zn275 O276 1.962 . S
Zn275 O278 1.986 . S
Zn275 O280 1.996 1_545 S
Zn275 O283 1.943 . S
O276 Zn275 1.962 . S
O276 C281 1.254 . S
O277 Zn274 2.031 . S
O277 C281 1.269 1_565 S
O278 Zn275 1.986 . S
O278 C285 1.262 . S
O279 Zn274 2.049 . S
O279 C287 1.260 . S
O280 Zn275 1.996 1_565 S
O280 C287 1.257 . S
C281 O276 1.254 . S
C281 O277 1.269 1_545 S
C282 O283 1.221 1_565 S
C282 O284 1.270 . S
O283 Zn275 1.943 . S
O283 C282 1.221 1_545 S
O284 Zn274 2.067 . S
O284 C282 1.270 . S
C285 O278 1.262 . S
C285 O286 1.232 . S
O286 C285 1.232 . S
C287 O279 1.260 . S
C287 O280 1.257 . S
Zn288 O291 2.031 . S
Zn288 O293 2.049 . S
Zn288 O298 2.067 1_455 S
Zn289 O290 1.962 . S
Zn289 O292 1.986 . S
Zn289 O294 1.996 . S
Zn289 O297 1.943 . S
O290 Zn289 1.962 . S
O290 C295 1.254 . S
O291 Zn288 2.031 . S
O291 C295 1.269 . S
O292 Zn289 1.986 . S
O292 C299 1.262 . S
O293 Zn288 2.049 . S
O293 C301 1.260 . S
O294 Zn289 1.996 . S
O294 C301 1.257 . S
C295 O290 1.254 . S
C295 O291 1.269 . S
C296 O297 1.249 1_655 S
C296 O298 1.270 . S
O297 Zn289 1.943 . S
O297 C296 1.249 1_455 S
O298 Zn288 2.067 1_655 S
O298 C296 1.270 . S
C299 O292 1.262 . S
C299 O300 1.232 . S
O300 C299 1.232 . S
C301 O293 1.260 . S
C301 O294 1.257 . S
Zn302 O305 2.031 . S
Zn302 O307 2.049 . S
Zn302 O312 2.067 . S
Zn303 O304 1.962 . S
Zn303 O306 1.986 . S
Zn303 O308 1.996 . S
Zn303 O311 1.943 . S
O304 Zn303 1.962 . S
O304 C309 1.254 . S
O305 Zn302 2.031 . S
O305 C309 1.269 . S
O306 Zn303 1.986 . S
O306 C313 1.262 . S
O307 Zn302 2.049 . S
O307 C315 1.260 . S
O308 Zn303 1.996 . S
O308 C315 1.257 . S
C309 O304 1.254 . S
C309 O305 1.269 . S
C310 O311 1.249 . S
C310 O312 1.270 . S
O311 Zn303 1.943 . S
O311 C310 1.249 . S
O312 Zn302 2.067 . S
O312 C310 1.270 . S
C313 O306 1.262 . S
C313 O314 1.232 . S
O314 C313 1.232 . S
C315 O307 1.260 . S
C315 O308 1.257 . S
Zn316 O319 2.031 1_655 S
Zn316 O321 2.049 . S
Zn316 O326 2.067 . S
Zn317 O318 1.962 . S
Zn317 O320 1.986 . S
Zn317 O322 1.996 1_455 S
Zn317 O325 1.943 . S
O318 Zn317 1.962 . S
O318 C323 1.254 . S
O319 Zn316 2.031 1_455 S
O319 C323 1.269 . S
O320 Zn317 1.986 . S
O320 C327 1.262 . S
O321 Zn316 2.049 . S
O321 C329 1.260 . S
O322 Zn317 1.996 1_655 S
O322 C329 1.257 . S
C323 O318 1.254 . S
C323 O319 1.269 . S
C324 O325 1.249 . S
C324 O326 1.270 1_455 S
O325 Zn317 1.943 . S
O325 C324 1.249 . S
O326 Zn316 2.067 . S
O326 C324 1.270 1_655 S
C327 O320 1.262 . S
C327 O328 1.232 . S
O328 C327 1.232 . S
C329 O321 1.260 . S
C329 O322 1.257 . S
Zn330 O333 2.031 . S
Zn330 O335 2.049 . S
Zn330 O340 2.067 . S
Zn331 O332 1.962 . S
Zn331 O334 1.986 . S
Zn331 O336 1.996 . S
Zn331 O339 1.943 . S
O332 Zn331 1.962 . S
O332 C337 1.254 . S
O333 Zn330 2.031 . S
O333 C337 1.269 . S
O334 Zn331 1.986 . S
O334 C341 1.262 . S
O335 Zn330 2.049 . S
O335 C343 1.260 . S
O336 Zn331 1.996 . S
O336 C343 1.257 . S
C337 O332 1.254 . S
C337 O333 1.269 . S
C338 O339 1.249 . S
C338 O340 1.270 . S
O339 Zn331 1.943 . S
O339 C338 1.249 . S
O340 Zn330 2.067 . S
O340 C338 1.270 . S
C341 O334 1.262 . S
C341 O342 1.232 . S
O342 C341 1.232 . S
C343 O335 1.260 . S
C343 O336 1.257 . S
C344 C345 1.349 . S
C344 C346 1.327 . S
C344 H369 0.950 . S
C345 C344 1.349 . S
C345 C361 1.349 . S
C346 C344 1.327 . S
C346 C365 1.429 . S
C346 H370 0.950 . S
C347 C364 1.574 . S
C347 C366 1.368 . S
C347 H371 0.949 . S
H348 C352 0.949 . S
C349 C350 1.349 . S
C349 C351 1.327 . S
C349 H372 0.950 . S
C350 C349 1.349 . S
C350 C362 1.349 . S
C351 C349 1.327 . S
C351 C367 1.429 . S
C351 H373 0.950 . S
C352 H348 0.949 . S
C352 C360 1.574 . S
C352 C368 1.368 . S
H353 C361 0.950 . S
H354 C359 0.950 . S
H355 C360 0.949 . S
H356 C362 0.950 . S
H357 C363 0.950 . S
H358 C364 0.949 . S
C359 H354 0.950 . S
C359 C361 1.327 . S
C359 C365 1.429 . S
C360 C352 1.574 . S
C360 H355 0.949 . S
C360 C366 1.368 . S
C361 C345 1.349 . S
C361 H353 0.950 . S
C361 C359 1.327 . S
C362 C350 1.349 . S
C362 H356 0.950 . S
C362 C363 1.327 . S
C363 H357 0.950 . S
C363 C362 1.327 . S
C363 C367 1.429 . S
C364 C347 1.574 . S
C364 H358 0.949 . S
C364 C368 1.368 . S
C365 C346 1.429 . S
C365 C359 1.429 . S
C365 C366 1.523 . S
C366 C347 1.368 . S
C366 C360 1.368 . S
C366 C365 1.523 . S
C367 C351 1.429 . S
C367 C363 1.429 . S
C367 C368 1.523 . S
C368 C352 1.368 . S
C368 C364 1.368 . S
C368 C367 1.523 . S
H369 C344 0.950 . S
H370 C346 0.950 . S
H371 C347 0.949 . S
H372 C349 0.950 . S
H373 C351 0.950 . S
C374 C375 1.349 . S
C374 C376 1.327 . S
C374 H399 0.950 . S
C375 C374 1.349 . S
C375 C391 1.349 . S
C376 C374 1.327 . S
C376 C395 1.429 . S
C376 H400 0.950 . S
C377 C394 1.574 . S
C377 C396 1.368 . S
C377 H401 0.949 . S
H378 C382 0.949 . S
C379 C380 1.349 . S
C379 C381 1.327 . S
C379 H402 0.950 . S
C380 C379 1.349 . S
C380 C392 1.349 . S
C381 C379 1.327 . S
C381 C397 1.429 . S
C381 H403 0.950 . S
C382 H378 0.949 . S
C382 C390 1.574 . S
C382 C398 1.368 . S
H383 C391 0.950 . S
H384 C389 0.950 . S
H385 C390 0.949 . S
H386 C392 0.950 . S
H387 C393 0.950 . S
H388 C394 0.949 . S
C389 H384 0.950 . S
C389 C391 1.327 . S
C389 C395 1.429 . S
C390 C382 1.574 . S
C390 H385 0.949 . S
C390 C396 1.368 . S
C391 C375 1.349 . S
C391 H383 0.950 . S
C391 C389 1.327 . S
C392 C380 1.349 . S
C392 H386 0.950 . S
C392 C393 1.327 . S
C393 H387 0.950 . S
C393 C392 1.327 . S
C393 C397 1.429 . S
C394 C377 1.574 . S
C394 H388 0.949 . S
C394 C398 1.368 . S
C395 C376 1.429 . S
C395 C389 1.429 . S
C395 C396 1.523 . S
C396 C377 1.368 . S
C396 C390 1.368 . S
C396 C395 1.523 . S
C397 C381 1.429 . S
C397 C393 1.429 . S
C397 C398 1.523 . S
C398 C382 1.368 . S
C398 C394 1.368 . S
C398 C397 1.523 . S
H399 C374 0.950 . S
H400 C376 0.950 . S
H401 C377 0.949 . S
H402 C379 0.950 . S
H403 C381 0.950 . S
C404 C405 1.349 . S
C404 C406 1.327 . S
C404 H429 0.950 . S
C405 C404 1.349 . S
C405 C421 1.349 . S
C406 C404 1.327 . S
C406 C425 1.429 . S
C406 H430 0.950 . S
C407 C424 1.574 . S
C407 C426 1.368 . S
C407 H431 0.949 . S
H408 C412 0.949 . S
C409 C410 1.349 . S
C409 C411 1.327 . S
C409 H432 0.950 . S
C410 C409 1.349 . S
C410 C422 1.349 . S
C411 C409 1.327 . S
C411 C427 1.429 . S
C411 H433 0.950 . S
C412 H408 0.949 . S
C412 C420 1.574 . S
C412 C428 1.368 . S
H413 C421 0.950 . S
H414 C419 0.950 . S
H415 C420 0.949 . S
H416 C422 0.950 . S
H417 C423 0.950 . S
H418 C424 0.949 . S
C419 H414 0.950 . S
C419 C421 1.327 . S
C419 C425 1.429 . S
C420 C412 1.574 . S
C420 H415 0.949 . S
C420 C426 1.368 . S
C421 C405 1.349 . S
C421 H413 0.950 . S
C421 C419 1.327 . S
C422 C410 1.349 . S
C422 H416 0.950 . S
C422 C423 1.327 . S
C423 H417 0.950 . S
C423 C422 1.327 . S
C423 C427 1.429 . S
C424 C407 1.574 . S
C424 H418 0.949 . S
C424 C428 1.368 . S
C425 C406 1.429 . S
C425 C419 1.429 . S
C425 C426 1.523 . S
C426 C407 1.368 . S
C426 C420 1.368 . S
C426 C425 1.523 . S
C427 C411 1.429 . S
C427 C423 1.429 . S
C427 C428 1.523 . S
C428 C412 1.368 . S
C428 C424 1.368 . S
C428 C427 1.523 . S
H429 C404 0.950 . S
H430 C406 0.950 . S
H431 C407 0.949 . S
H432 C409 0.950 . S
H433 C411 0.950 . S
C434 C435 1.349 . S
C434 C436 1.327 . S
C434 H459 0.950 . S
C435 C434 1.349 . S
C435 C451 1.349 . S
C436 C434 1.327 . S
C436 C455 1.429 . S
C436 H460 0.950 . S
C437 C454 1.574 1_455 S
C437 C456 1.368 . S
C437 H461 0.949 . S
H438 C442 0.949 . S
C439 C440 1.349 1_565 S
C439 C441 1.327 . S
C439 H462 0.950 . S
C440 C439 1.349 1_545 S
C440 C452 1.349 . S
C441 C439 1.327 . S
C441 C457 1.429 . S
C441 H463 0.950 . S
C442 H438 0.949 . S
C442 C450 1.574 1_545 S
C442 C458 1.326 1_445 S
H443 C451 0.950 . S
H444 C449 0.950 . S
H445 C450 0.949 1_545 S
H446 C452 0.950 . S
H447 C453 0.950 1_455 S
H448 C454 0.949 . S
C449 H444 0.950 . S
C449 C451 1.327 . S
C449 C455 1.429 . S
C450 C442 1.574 1_565 S
C450 H445 0.949 1_565 S
C450 C456 1.368 . S
C451 C435 1.349 . S
C451 H443 0.950 . S
C451 C449 1.327 . S
C452 C440 1.349 . S
C452 H446 0.950 . S
C452 C453 1.327 . S
C453 H447 0.950 1_655 S
C453 C452 1.327 . S
C453 C457 1.429 1_545 S
C454 C437 1.574 1_655 S
C454 H448 0.949 . S
C454 C458 1.386 . S
C455 C436 1.429 . S
C455 C449 1.429 . S
C455 C456 1.523 . S
C456 C437 1.368 . S
C456 C450 1.368 . S
C456 C455 1.523 . S
C457 C441 1.429 . S
C457 C453 1.429 1_565 S
C457 C458 1.557 . S
C458 C442 1.326 1_665 S
C458 C454 1.386 . S
C458 C457 1.557 . S
H459 C434 0.950 . S
H460 C436 0.950 . S
H461 C437 0.949 . S
H462 C439 0.950 . S
H463 C441 0.950 . S
C464 C465 1.349 . S
C464 C466 1.327 . S
C464 H489 0.950 . S
C465 C464 1.349 . S
C465 C481 1.349 . S
C466 C464 1.327 . S
C466 C485 1.429 . S
C466 H490 0.950 . S
C467 C484 1.574 . S
C467 C486 1.368 . S
C467 H491 0.949 . S
H468 C472 0.949 . S
C469 C470 1.349 . S
C469 C471 1.327 . S
C469 H492 0.950 . S
C470 C469 1.349 . S
C470 C482 1.349 . S
C471 C469 1.327 . S
C471 C487 1.429 . S
C471 H493 0.950 . S
C472 H468 0.949 . S
C472 C480 1.574 . S
C472 C488 1.368 . S
H473 C481 0.950 . S
H474 C479 0.950 . S
H475 C480 0.949 . S
H476 C482 0.950 . S
H477 C483 0.950 . S
H478 C484 0.949 . S
C479 H474 0.950 . S
C479 C481 1.327 . S
C479 C485 1.429 . S
C480 C472 1.574 . S
C480 H475 0.949 . S
C480 C486 1.368 . S
C481 C465 1.349 . S
C481 H473 0.950 . S
C481 C479 1.327 . S
C482 C470 1.349 . S
C482 H476 0.950 . S
C482 C483 1.327 . S
C483 H477 0.950 . S
C483 C482 1.327 . S
C483 C487 1.429 . S
C484 C467 1.574 . S
C484 H478 0.949 . S
C484 C488 1.368 . S
C485 C466 1.429 . S
C485 C479 1.429 . S
C485 C486 1.523 . S
C486 C467 1.368 . S
C486 C480 1.368 . S
C486 C485 1.523 . S
C487 C471 1.429 . S
C487 C483 1.429 . S
C487 C488 1.523 . S
C488 C472 1.368 . S
C488 C484 1.368 . S
C488 C487 1.523 . S
H489 C464 0.950 . S
H490 C466 0.950 . S
H491 C467 0.949 . S
H492 C469 0.950 . S
H493 C471 0.950 . S
C494 C495 1.349 . S
C494 C496 1.327 . S
C494 H519 0.950 . S
C495 C494 1.349 . S
C495 C511 1.349 . S
C496 C494 1.327 . S
C496 C515 1.429 . S
C496 H520 0.950 . S
C497 C514 1.574 . S
C497 C516 1.368 . S
C497 H521 0.949 . S
H498 C502 0.949 . S
C499 C500 1.349 . S
C499 C501 1.327 . S
C499 H522 0.950 . S
C500 C499 1.349 . S
C500 C512 1.349 . S
C501 C499 1.327 . S
C501 C517 1.429 . S
C501 H523 0.950 . S
C502 H498 0.949 . S
C502 C510 1.574 . S
C502 C518 1.368 . S
H503 C511 0.950 . S
H504 C509 0.950 . S
H505 C510 0.949 . S
H506 C512 0.950 . S
H507 C513 0.950 . S
H508 C514 0.949 . S
C509 H504 0.950 . S
C509 C511 1.327 . S
C509 C515 1.429 . S
C510 C502 1.574 . S
C510 H505 0.949 . S
C510 C516 1.368 . S
C511 C495 1.349 . S
C511 H503 0.950 . S
C511 C509 1.327 . S
C512 C500 1.349 . S
C512 H506 0.950 . S
C512 C513 1.327 . S
C513 H507 0.950 . S
C513 C512 1.327 . S
C513 C517 1.429 . S
C514 C497 1.574 . S
C514 H508 0.949 . S
C514 C518 1.368 . S
C515 C496 1.429 . S
C515 C509 1.429 . S
C515 C516 1.523 . S
C516 C497 1.368 . S
C516 C510 1.368 . S
C516 C515 1.523 . S
C517 C501 1.429 . S
C517 C513 1.429 . S
C517 C518 1.523 . S
C518 C502 1.368 . S
C518 C514 1.368 . S
C518 C517 1.523 . S
H519 C494 0.950 . S
H520 C496 0.950 . S
H521 C497 0.949 . S
H522 C499 0.950 . S
H523 C501 0.950 . S
C524 C525 1.349 . S
C524 C526 1.327 . S
C524 H549 0.950 . S
C525 C524 1.349 . S
C525 C541 1.349 . S
C526 C524 1.327 . S
C526 C545 1.429 . S
C526 H550 0.950 . S
C527 C544 1.574 . S
C527 C546 1.368 . S
C527 H551 0.949 . S
H528 C532 0.949 . S
C529 C530 1.349 . S
C529 C531 1.327 . S
C529 H552 0.950 . S
C530 C529 1.349 . S
C530 C542 1.349 . S
C531 C529 1.327 . S
C531 C547 1.429 . S
C531 H553 0.950 . S
C532 H528 0.949 . S
C532 C540 1.574 . S
C532 C548 1.368 . S
H533 C541 0.950 . S
H534 C539 0.950 . S
H535 C540 0.949 . S
H536 C542 0.950 . S
H537 C543 0.950 . S
H538 C544 0.949 . S
C539 H534 0.950 . S
C539 C541 1.327 . S
C539 C545 1.429 . S
C540 C532 1.574 . S
C540 H535 0.949 . S
C540 C546 1.368 . S
C541 C525 1.349 . S
C541 H533 0.950 . S
C541 C539 1.327 . S
C542 C530 1.349 . S
C542 H536 0.950 . S
C542 C543 1.327 . S
C543 H537 0.950 . S
C543 C542 1.327 . S
C543 C547 1.429 . S
C544 C527 1.574 . S
C544 H538 0.949 . S
C544 C548 1.368 . S
C545 C526 1.429 . S
C545 C539 1.429 . S
C545 C546 1.523 . S
C546 C527 1.368 . S
C546 C540 1.368 . S
C546 C545 1.523 . S
C547 C531 1.429 . S
C547 C543 1.429 . S
C547 C548 1.523 . S
C548 C532 1.368 . S
C548 C544 1.368 . S
C548 C547 1.523 . S
H549 C524 0.950 . S
H550 C526 0.950 . S
H551 C527 0.949 . S
H552 C529 0.950 . S
H553 C531 0.950 . S
C554 C555 1.349 . S
C554 C556 1.327 . S
C554 H579 0.950 . S
C555 C554 1.349 . S
C555 C571 1.349 . S
C556 C554 1.327 . S
C556 C575 1.429 . S
C556 H580 0.956 . S
C557 C574 1.574 . S
C557 C576 1.368 . S
C557 H581 0.949 . S
H558 C562 0.949 1_545 S
C559 C560 1.349 . S
C559 C561 1.327 . S
C559 H582 0.950 . S
C560 C559 1.349 . S
C560 C572 1.349 1_565 S
C561 C559 1.327 . S
C561 C577 1.429 . S
C561 H583 0.950 . S
C562 H558 0.949 1_565 S
C562 C570 1.574 . S
C562 C578 1.368 . S
H563 C571 0.950 . S
H564 C569 0.950 . S
H565 C570 0.949 1_545 S
H566 C572 0.950 . S
H567 C573 0.949 . S
H568 C574 0.949 . S
C569 H564 0.950 . S
C569 C571 1.327 . S
C569 C575 1.429 . S
C570 C562 1.574 . S
C570 H565 0.949 1_565 S
C570 C576 1.368 . S
C571 C555 1.349 . S
C571 H563 0.950 . S
C571 C569 1.327 . S
C572 C560 1.349 1_545 S
C572 H566 0.950 . S
C572 C573 1.327 . S
C573 H567 0.949 . S
C573 C572 1.327 . S
C573 C577 1.429 1_545 S
C574 C557 1.574 . S
C574 H568 0.949 . S
C574 C578 1.368 . S
C575 C556 1.429 . S
C575 C569 1.429 . S
C575 C576 1.523 . S
C576 C557 1.368 . S
C576 C570 1.368 . S
C576 C575 1.523 . S
C577 C561 1.429 . S
C577 C573 1.429 1_565 S
C577 C578 1.523 . S
C578 C562 1.368 . S
C578 C574 1.368 . S
C578 C577 1.523 . S
H579 C554 0.950 . S
H580 C556 0.956 . S
H581 C557 0.949 . S
H582 C559 0.950 . S
H583 C561 0.950 . S
C584 C585 1.349 . S
C584 C586 1.327 . S
C584 H609 0.950 . S
C585 C584 1.349 . S
C585 C601 1.349 . S
C586 C584 1.327 . S
C586 C605 1.429 . S
C586 H610 0.950 . S
C587 C604 1.574 . S
C587 C606 1.368 . S
C587 H611 0.949 . S
H588 C592 0.949 . S
C589 C590 1.349 . S
C589 C591 1.327 . S
C589 H612 0.950 . S
C590 C589 1.349 . S
C590 C602 1.349 . S
C591 C589 1.327 . S
C591 C607 1.429 . S
C591 H613 0.950 . S
C592 H588 0.949 . S
C592 C600 1.574 . S
C592 C608 1.368 . S
H593 C601 0.950 . S
H594 C599 0.950 . S
H595 C600 0.949 . S
H596 C602 0.950 . S
H597 C603 0.950 . S
H598 C604 0.949 . S
C599 H594 0.950 . S
C599 C601 1.327 . S
C599 C605 1.429 . S
C600 C592 1.574 . S
C600 H595 0.949 . S
C600 C606 1.368 . S
C601 C585 1.349 . S
C601 H593 0.950 . S
C601 C599 1.327 . S
C602 C590 1.349 . S
C602 H596 0.950 . S
C602 C603 1.327 . S
C603 H597 0.950 . S
C603 C602 1.327 . S
C603 C607 1.429 . S
C604 C587 1.574 . S
C604 H598 0.949 . S
C604 C608 1.368 . S
C605 C586 1.429 . S
C605 C599 1.429 . S
C605 C606 1.523 . S
C606 C587 1.368 . S
C606 C600 1.368 . S
C606 C605 1.523 . S
C607 C591 1.429 . S
C607 C603 1.429 . S
C607 C608 1.523 . S
C608 C592 1.368 . S
C608 C604 1.368 . S
C608 C607 1.523 . S
H609 C584 0.950 . S
H610 C586 0.950 . S
H611 C587 0.949 . S
H612 C589 0.950 . S
H613 C591 0.950 . S
C614 C615 1.349 . S
C614 C616 1.327 . S
C614 H639 0.950 . S
C615 C614 1.349 . S
C615 C631 1.349 . S
C616 C614 1.327 . S
C616 C635 1.429 . S
C616 H640 0.950 . S
C617 C634 1.574 . S
C617 C636 1.368 . S
C617 H641 0.949 . S
H618 C622 0.949 . S
C619 C620 1.349 . S
C619 C621 1.327 . S
C619 H642 0.950 . S
C620 C619 1.349 . S
C620 C632 1.349 . S
C621 C619 1.327 . S
C621 C637 1.429 . S
C621 H643 0.950 . S
C622 H618 0.949 . S
C622 C630 1.574 . S
C622 C638 1.368 . S
H623 C631 0.950 . S
H624 C629 0.950 . S
H625 C630 0.949 . S
H626 C632 0.950 . S
H627 C633 0.950 . S
H628 C634 0.949 . S
C629 H624 0.950 . S
C629 C631 1.327 . S
C629 C635 1.429 . S
C630 C622 1.574 . S
C630 H625 0.949 . S
C630 C636 1.368 . S
C631 C615 1.349 . S
C631 H623 0.950 . S
C631 C629 1.327 . S
C632 C620 1.349 . S
C632 H626 0.950 . S
C632 C633 1.327 . S
C633 H627 0.950 . S
C633 C632 1.327 . S
C633 C637 1.429 . S
C634 C617 1.574 . S
C634 H628 0.949 . S
C634 C638 1.368 . S
C635 C616 1.429 . S
C635 C629 1.429 . S
C635 C636 1.523 . S
C636 C617 1.368 . S
C636 C630 1.368 . S
C636 C635 1.523 . S
C637 C621 1.429 . S
C637 C633 1.429 . S
C637 C638 1.523 . S
C638 C622 1.368 . S
C638 C634 1.368 . S
C638 C637 1.523 . S
H639 C614 0.950 . S
H640 C616 0.950 . S
H641 C617 0.949 . S
H642 C619 0.950 . S
H643 C621 0.950 . S
C644 C645 1.349 . S
C644 C646 1.327 . S
C644 H669 0.950 . S
C645 C644 1.349 . S
C645 C661 1.349 . S
C646 C644 1.327 . S
C646 C665 1.429 . S
C646 H670 0.950 . S
C647 C664 1.574 . S
C647 C666 1.368 . S
C647 H671 0.949 . S
H648 C652 0.949 . S
C649 C650 1.349 . S
C649 C651 1.327 . S
C649 H672 0.950 . S
C650 C649 1.349 . S
C650 C662 1.349 . S
C651 C649 1.327 . S
C651 C667 1.429 . S
C651 H673 0.950 . S
C652 H648 0.949 . S
C652 C660 1.574 . S
C652 C668 1.368 . S
H653 C661 0.950 . S
H654 C659 0.950 . S
H655 C660 0.949 . S
H656 C662 0.950 . S
H657 C663 0.950 . S
H658 C664 0.949 . S
C659 H654 0.950 . S
C659 C661 1.327 . S
C659 C665 1.429 . S
C660 C652 1.574 . S
C660 H655 0.949 . S
C660 C666 1.368 . S
C661 C645 1.349 . S
C661 H653 0.950 . S
C661 C659 1.327 . S
C662 C650 1.349 . S
C662 H656 0.950 . S
C662 C663 1.327 . S
C663 H657 0.950 . S
C663 C662 1.327 . S
C663 C667 1.429 . S
C664 C647 1.574 . S
C664 H658 0.949 . S
C664 C668 1.368 . S
C665 C646 1.429 . S
C665 C659 1.429 . S
C665 C666 1.523 . S
C666 C647 1.368 . S
C666 C660 1.368 . S
C666 C665 1.523 . S
C667 C651 1.429 . S
C667 C663 1.429 . S
C667 C668 1.523 . S
C668 C652 1.368 . S
C668 C664 1.368 . S
C668 C667 1.523 . S
H669 C644 0.950 . S
H670 C646 0.950 . S
H671 C647 0.949 . S
H672 C649 0.950 . S
H673 C651 0.950 . S
C674 C675 1.349 . S
C674 C676 1.327 . S
C674 H699 0.950 . S
C675 C674 1.349 . S
C675 C691 1.349 . S
C676 C674 1.327 . S
C676 C695 1.429 . S
C676 H700 0.950 . S
C677 C694 1.574 . S
C677 C696 1.368 . S
C677 H701 0.949 . S
H678 C682 0.949 . S
C679 C680 1.349 . S
C679 C681 1.327 . S
C679 H702 0.950 . S
C680 C679 1.349 . S
C680 C692 1.349 . S
C681 C679 1.327 . S
C681 C697 1.429 . S
C681 H703 0.950 . S
C682 H678 0.949 . S
C682 C690 1.574 . S
C682 C698 1.368 . S
H683 C691 0.950 . S
H684 C689 0.950 . S
H685 C690 0.949 . S
H686 C692 0.950 . S
H687 C693 0.950 . S
H688 C694 0.949 . S
C689 H684 0.950 . S
C689 C691 1.327 . S
C689 C695 1.429 . S
C690 C682 1.574 . S
C690 H685 0.949 . S
C690 C696 1.368 . S
C691 C675 1.349 . S
C691 H683 0.950 . S
C691 C689 1.327 . S
C692 C680 1.349 . S
C692 H686 0.950 . S
C692 C693 1.327 . S
C693 H687 0.950 . S
C693 C692 1.327 . S
C693 C697 1.429 . S
C694 C677 1.574 . S
C694 H688 0.949 . S
C694 C698 1.368 . S
C695 C676 1.429 . S
C695 C689 1.429 . S
C695 C696 1.523 . S
C696 C677 1.368 . S
C696 C690 1.368 . S
C696 C695 1.523 . S
C697 C681 1.429 . S
C697 C693 1.429 . S
C697 C698 1.523 . S
C698 C682 1.368 . S
C698 C694 1.368 . S
C698 C697 1.523 . S
H699 C674 0.950 . S
H700 C676 0.950 . S
H701 C677 0.949 . S
H702 C679 0.950 . S
H703 C681 0.950 . S
C704 C705 1.349 . S
C704 C706 1.327 . S
C704 H729 0.950 . S
C705 C704 1.349 . S
C705 C721 1.349 . S
C706 C704 1.327 . S
C706 C725 1.429 . S
C706 H730 0.950 . S
C707 C724 1.574 . S
C707 C726 1.368 . S
C707 H731 0.949 . S
H708 C712 0.949 . S
C709 C710 1.349 . S
C709 C711 1.327 . S
C709 H732 0.950 . S
C710 C709 1.349 . S
C710 C722 1.349 . S
C711 C709 1.327 . S
C711 C727 1.429 . S
C711 H733 0.950 . S
C712 H708 0.949 . S
C712 C720 1.574 . S
C712 C728 1.368 . S
H713 C721 0.950 . S
H714 C719 0.950 . S
H715 C720 0.949 . S
H716 C722 0.950 . S
H717 C723 0.950 . S
H718 C724 0.949 . S
C719 H714 0.950 . S
C719 C721 1.327 . S
C719 C725 1.429 . S
C720 C712 1.574 . S
C720 H715 0.949 . S
C720 C726 1.368 . S
C721 C705 1.349 . S
C721 H713 0.950 . S
C721 C719 1.327 . S
C722 C710 1.349 . S
C722 H716 0.950 . S
C722 C723 1.327 . S
C723 H717 0.950 . S
C723 C722 1.327 . S
C723 C727 1.429 . S
C724 C707 1.574 . S
C724 H718 0.949 . S
C724 C728 1.368 . S
C725 C706 1.429 . S
C725 C719 1.429 . S
C725 C726 1.523 . S
C726 C707 1.368 . S
C726 C720 1.368 . S
C726 C725 1.523 . S
C727 C711 1.429 . S
C727 C723 1.429 . S
C727 C728 1.523 . S
C728 C712 1.368 . S
C728 C724 1.368 . S
C728 C727 1.523 . S
H729 C704 0.950 . S
H730 C706 0.950 . S
H731 C707 0.949 . S
H732 C709 0.950 . S
H733 C711 0.950 . S
C734 C735 1.349 . S
C734 C736 1.327 . S
C734 H759 0.950 . S
C735 C734 1.349 . S
C735 C751 1.349 . S
C736 C734 1.327 . S
C736 C755 1.429 . S
C736 H760 0.950 . S
C737 C754 1.574 . S
C737 C756 1.368 . S
C737 H761 0.949 . S
H738 C742 0.949 . S
C739 C740 1.349 . S
C739 C741 1.327 . S
C739 H762 0.950 . S
C740 C739 1.349 . S
C740 C752 1.349 . S
C741 C739 1.327 . S
C741 C757 1.429 . S
C741 H763 0.950 . S
C742 H738 0.949 . S
C742 C750 1.574 . S
C742 C758 1.368 . S
H743 C751 0.950 . S
H744 C749 0.950 . S
H745 C750 0.949 . S
H746 C752 0.950 . S
H747 C753 0.950 . S
H748 C754 0.949 . S
C749 H744 0.950 . S
C749 C751 1.327 . S
C749 C755 1.429 . S
C750 C742 1.574 . S
C750 H745 0.949 . S
C750 C756 1.368 . S
C751 C735 1.349 . S
C751 H743 0.950 . S
C751 C749 1.327 . S
C752 C740 1.349 . S
C752 H746 0.950 . S
C752 C753 1.327 . S
C753 H747 0.950 . S
C753 C752 1.327 . S
C753 C757 1.429 . S
C754 C737 1.574 . S
C754 H748 0.949 . S
C754 C758 1.368 . S
C755 C736 1.429 . S
C755 C749 1.429 . S
C755 C756 1.523 . S
C756 C737 1.368 . S
C756 C750 1.368 . S
C756 C755 1.523 . S
C757 C741 1.429 . S
C757 C753 1.429 . S
C757 C758 1.523 . S
C758 C742 1.368 . S
C758 C754 1.368 . S
C758 C757 1.523 . S
H759 C734 0.950 . S
H760 C736 0.950 . S
H761 C737 0.949 . S
H762 C739 0.950 . S
H763 C741 0.950 . S
C764 C765 1.349 . S
C764 C766 1.327 . S
C764 H789 0.950 . S
C765 C764 1.349 . S
C765 C781 1.349 . S
C766 C764 1.327 . S
C766 C785 1.429 . S
C766 H790 0.950 . S
C767 C784 1.574 . S
C767 C786 1.368 . S
C767 H791 0.949 . S
H768 C772 0.949 . S
C769 C770 1.349 . S
C769 C771 1.327 . S
C769 H792 0.950 . S
C770 C769 1.349 . S
C770 C782 1.349 . S
C771 C769 1.327 . S
C771 C787 1.429 . S
C771 H793 0.950 . S
C772 H768 0.949 . S
C772 C780 1.574 . S
C772 C788 1.368 . S
H773 C781 0.950 . S
H774 C779 0.950 . S
H775 C780 0.949 . S
H776 C782 0.950 . S
H777 C783 0.950 . S
H778 C784 0.949 . S
C779 H774 0.950 . S
C779 C781 1.327 . S
C779 C785 1.429 . S
C780 C772 1.574 . S
C780 H775 0.949 . S
C780 C786 1.368 . S
C781 C765 1.349 . S
C781 H773 0.950 . S
C781 C779 1.327 . S
C782 C770 1.349 . S
C782 H776 0.950 . S
C782 C783 1.327 . S
C783 H777 0.950 . S
C783 C782 1.327 . S
C783 C787 1.429 . S
C784 C767 1.574 . S
C784 H778 0.949 . S
C784 C788 1.368 . S
C785 C766 1.429 . S
C785 C779 1.429 . S
C785 C786 1.523 . S
C786 C767 1.368 . S
C786 C780 1.368 . S
C786 C785 1.523 . S
C787 C771 1.429 . S
C787 C783 1.429 . S
C787 C788 1.523 . S
C788 C772 1.368 . S
C788 C784 1.368 . S
C788 C787 1.523 . S
H789 C764 0.950 . S
H790 C766 0.950 . S
H791 C767 0.949 . S
H792 C769 0.950 . S
H793 C771 0.950 . S
C794 C795 1.349 . S
C794 C796 1.327 . S
C794 H819 0.950 . S
C795 C794 1.349 . S
C795 C811 1.349 . S
C796 C794 1.327 . S
C796 C815 1.429 . S
C796 H820 0.950 . S
C797 C814 1.574 . S
C797 C816 1.368 . S
C797 H821 0.949 . S
H798 C802 0.949 . S
C799 C800 1.349 . S
C799 C801 1.331 . S
C799 H822 0.950 . S
C800 C799 1.349 . S
C800 C812 1.350 . S
C801 C799 1.331 . S
C801 C817 1.427 1_455 S
C801 H823 0.952 . S
C802 H798 0.949 . S
C802 C810 1.574 . S
C802 C818 1.368 . S
H803 C811 0.950 . S
H804 C809 0.950 . S
H805 C810 0.949 . S
H806 C812 0.950 . S
H807 C813 0.950 . S
H808 C814 0.949 . S
C809 H804 0.950 . S
C809 C811 1.327 . S
C809 C815 1.429 . S
C810 C802 1.574 . S
C810 H805 0.949 . S
C810 C816 1.368 . S
C811 C795 1.349 . S
C811 H803 0.950 . S
C811 C809 1.327 . S
C812 C800 1.350 . S
C812 H806 0.950 . S
C812 C813 1.327 1_455 S
C813 H807 0.950 . S
C813 C812 1.327 1_655 S
C813 C817 1.429 . S
C814 C797 1.574 . S
C814 H808 0.949 . S
C814 C818 1.368 . S
C815 C796 1.429 . S
C815 C809 1.429 . S
C815 C816 1.523 . S
C816 C797 1.368 . S
C816 C810 1.368 . S
C816 C815 1.523 . S
C817 C801 1.427 1_655 S
C817 C813 1.429 . S
C817 C818 1.523 . S
C818 C802 1.368 . S
C818 C814 1.368 . S
C818 C817 1.523 . S
H819 C794 0.950 . S
H820 C796 0.950 . S
H821 C797 0.949 . S
H822 C799 0.950 . S
H823 C801 0.952 . S
C824 C825 1.349 . S
C824 C826 1.327 . S
C824 H849 0.950 . S
C825 C824 1.349 . S
C825 C841 1.349 . S
C826 C824 1.327 . S
C826 C845 1.429 . S
C826 H850 0.950 . S
C827 C844 1.574 . S
C827 C846 1.368 . S
C827 H851 0.949 . S
H828 C832 0.949 . S
C829 C830 1.349 . S
C829 C831 1.327 . S
C829 H852 0.950 . S
C830 C829 1.349 . S
C830 C842 1.349 . S
C831 C829 1.327 . S
C831 C847 1.429 . S
C831 H853 0.950 . S
C832 H828 0.949 . S
C832 C840 1.574 . S
C832 C848 1.368 . S
H833 C841 0.950 . S
H834 C839 0.950 . S
H835 C840 0.949 . S
H836 C842 0.950 . S
H837 C843 0.950 . S
H838 C844 0.949 . S
C839 H834 0.950 . S
C839 C841 1.327 . S
C839 C845 1.429 . S
C840 C832 1.574 . S
C840 H835 0.949 . S
C840 C846 1.368 . S
C841 C825 1.349 . S
C841 H833 0.950 . S
C841 C839 1.327 . S
C842 C830 1.349 . S
C842 H836 0.950 . S
C842 C843 1.327 . S
C843 H837 0.950 . S
C843 C842 1.327 . S
C843 C847 1.429 . S
C844 C827 1.574 . S
C844 H838 0.949 . S
C844 C848 1.368 . S
C845 C826 1.429 . S
C845 C839 1.429 . S
C845 C846 1.523 . S
C846 C827 1.368 . S
C846 C840 1.368 . S
C846 C845 1.523 . S
C847 C831 1.429 . S
C847 C843 1.429 . S
C847 C848 1.523 . S
C848 C832 1.368 . S
C848 C844 1.368 . S
C848 C847 1.523 . S
H849 C824 0.950 . S
H850 C826 0.950 . S
H851 C827 0.949 . S
H852 C829 0.950 . S
H853 C831 0.950 . S
C854 C855 1.349 . S
C854 C856 1.327 . S
C854 H879 0.950 . S
C855 C854 1.349 . S
C855 C871 1.349 . S
C856 C854 1.327 . S
C856 C875 1.429 . S
C856 H880 0.950 . S
C857 C874 1.574 . S
C857 C876 1.368 . S
C857 H881 0.949 . S
H858 C862 0.949 . S
C859 C860 1.349 . S
C859 C861 1.327 . S
C859 H882 0.950 . S
C860 C859 1.349 . S
C860 C872 1.349 . S
C861 C859 1.327 . S
C861 C877 1.429 . S
C861 H883 0.950 . S
C862 H858 0.949 . S
C862 C870 1.574 . S
C862 C878 1.368 . S
H863 C871 0.950 . S
H864 C869 0.950 . S
H865 C870 0.949 . S
H866 C872 0.950 . S
H867 C873 0.950 . S
H868 C874 0.949 . S
C869 H864 0.950 . S
C869 C871 1.327 . S
C869 C875 1.429 . S
C870 C862 1.574 . S
C870 H865 0.949 . S
C870 C876 1.368 . S
C871 C855 1.349 . S
C871 H863 0.950 . S
C871 C869 1.327 . S
C872 C860 1.349 . S
C872 H866 0.950 . S
C872 C873 1.327 . S
C873 H867 0.950 . S
C873 C872 1.327 . S
C873 C877 1.429 . S
C874 C857 1.574 . S
C874 H868 0.949 . S
C874 C878 1.368 . S
C875 C856 1.429 . S
C875 C869 1.429 . S
C875 C876 1.523 . S
C876 C857 1.368 . S
C876 C870 1.368 . S
C876 C875 1.523 . S
C877 C861 1.429 . S
C877 C873 1.429 . S
C877 C878 1.523 . S
C878 C862 1.368 . S
C878 C874 1.368 . S
C878 C877 1.523 . S
H879 C854 0.950 . S
H880 C856 0.950 . S
H881 C857 0.949 . S
H882 C859 0.950 . S
H883 C861 0.950 . S
C884 C885 1.349 . S
C884 C886 1.327 . S
C884 H909 0.950 . S
C885 C884 1.349 . S
C885 C901 1.349 . S
C886 C884 1.327 . S
C886 C905 1.429 . S
C886 H910 0.950 . S
C887 C904 1.574 . S
C887 C906 1.368 . S
C887 H911 0.949 . S
H888 C892 0.949 . S
C889 C890 1.349 . S
C889 C891 1.327 1_554 S
C889 H912 0.950 1_554 S
C890 C889 1.349 . S
C890 C902 1.349 . S
C891 C889 1.327 1_556 S
C891 C907 1.429 1_556 S
C891 H913 0.950 . S
C892 H888 0.949 . S
C892 C900 1.604 1_554 S
C892 C908 1.368 1_554 S
H893 C901 0.950 . S
H894 C899 0.950 . S
H895 C900 0.903 1_544 S
H896 C902 0.950 . S
H897 C903 0.950 . S
H898 C904 0.949 . S
C899 H894 0.950 . S
C899 C901 1.327 1_565 S
C899 C905 1.429 1_565 S
C900 C892 1.604 1_556 S
C900 H895 0.903 1_566 S
C900 C906 1.390 . S
C901 C885 1.349 . S
C901 H893 0.950 . S
C901 C899 1.327 1_545 S
C902 C890 1.349 . S
C902 H896 0.950 . S
C902 C903 1.327 . S
C903 H897 0.950 . S
C903 C902 1.327 . S
C903 C907 1.429 . S
C904 C887 1.574 . S
C904 H898 0.949 . S
C904 C908 1.368 . S
C905 C886 1.429 . S
C905 C899 1.429 1_545 S
C905 C906 1.523 1_545 S
C906 C887 1.368 . S
C906 C900 1.390 . S
C906 C905 1.523 1_565 S
C907 C891 1.429 1_554 S
C907 C903 1.429 . S
C907 C908 1.523 1_554 S
C908 C892 1.368 1_556 S
C908 C904 1.368 . S
C908 C907 1.523 1_556 S
H909 C884 0.950 . S
H910 C886 0.950 . S
H911 C887 0.949 . S
H912 C889 0.950 1_556 S
H913 C891 0.950 . S
C914 C915 1.349 . S
C914 C916 1.327 . S
C914 H939 0.950 . S
C915 C914 1.349 . S
C915 C931 1.349 . S
C916 C914 1.327 . S
C916 C935 1.429 . S
C916 H940 0.950 . S
C917 C934 1.574 . S
C917 C936 1.368 . S
C917 H941 0.949 . S
H918 C922 0.949 . S
C919 C920 1.349 . S
C919 C921 1.327 . S
C919 H942 0.950 . S
C920 C919 1.349 . S
C920 C932 1.349 . S
C921 C919 1.327 . S
C921 C937 1.429 . S
C921 H943 0.950 . S
C922 H918 0.949 . S
C922 C930 1.574 . S
C922 C938 1.368 . S
H923 C931 0.950 . S
H924 C929 0.950 . S
H925 C930 0.949 . S
H926 C932 0.950 . S
H927 C933 0.950 . S
H928 C934 0.949 . S
C929 H924 0.950 . S
C929 C931 1.327 . S
C929 C935 1.429 . S
C930 C922 1.574 . S
C930 H925 0.949 . S
C930 C936 1.368 . S
C931 C915 1.349 . S
C931 H923 0.950 . S
C931 C929 1.327 . S
C932 C920 1.349 . S
C932 H926 0.950 . S
C932 C933 1.327 . S
C933 H927 0.950 . S
C933 C932 1.327 . S
C933 C937 1.429 . S
C934 C917 1.574 . S
C934 H928 0.949 . S
C934 C938 1.368 . S
C935 C916 1.429 . S
C935 C929 1.429 . S
C935 C936 1.523 . S
C936 C917 1.368 . S
C936 C930 1.368 . S
C936 C935 1.523 . S
C937 C921 1.429 . S
C937 C933 1.429 . S
C937 C938 1.523 . S
C938 C922 1.368 . S
C938 C934 1.368 . S
C938 C937 1.523 . S
H939 C914 0.950 . S
H940 C916 0.950 . S
H941 C917 0.949 . S
H942 C919 0.950 . S
H943 C921 0.950 . S
C944 C945 1.349 . S
C944 C946 1.364 . S
C944 H969 0.950 . S
C945 C944 1.349 . S
C945 C961 1.349 . S
C946 C944 1.364 . S
C946 C965 1.385 1_565 S
C946 H970 0.960 . S
C947 C964 1.574 . S
C947 C966 1.368 . S
C947 H971 0.949 . S
H948 C952 0.949 . S
C949 C950 1.349 . S
C949 C951 1.327 . S
C949 H972 0.950 . S
C950 C949 1.349 . S
C950 C962 1.349 . S
C951 C949 1.327 . S
C951 C967 1.429 . S
C951 H973 0.950 . S
C952 H948 0.949 . S
C952 C960 1.574 . S
C952 C968 1.368 . S
H953 C961 0.950 . S
H954 C959 0.950 . S
H955 C960 0.949 . S
H956 C962 0.950 . S
H957 C963 0.950 . S
H958 C964 0.949 . S
C959 H954 0.950 . S
C959 C961 1.327 1_545 S
C959 C965 1.429 . S
C960 C952 1.574 . S
C960 H955 0.949 . S
C960 C966 1.368 . S
C961 C945 1.349 . S
C961 H953 0.950 . S
C961 C959 1.327 1_565 S
C962 C950 1.349 . S
C962 H956 0.950 . S
C962 C963 1.327 . S
C963 H957 0.950 . S
C963 C962 1.327 . S
C963 C967 1.429 . S
C964 C947 1.574 . S
C964 H958 0.949 . S
C964 C968 1.368 . S
C965 C946 1.385 1_545 S
C965 C959 1.429 . S
C965 C966 1.523 . S
C966 C947 1.368 . S
C966 C960 1.368 . S
C966 C965 1.523 . S
C967 C951 1.429 . S
C967 C963 1.429 . S
C967 C968 1.523 . S
C968 C952 1.368 . S
C968 C964 1.368 . S
C968 C967 1.523 . S
H969 C944 0.950 . S
H970 C946 0.960 . S
H971 C947 0.949 . S
H972 C949 0.950 . S
H973 C951 0.950 . S
C974 C975 1.349 . S
C974 C976 1.327 . S
C974 H999 0.950 . S
C975 C974 1.349 . S
C975 C991 1.349 . S
C976 C974 1.327 . S
C976 C995 1.429 . S
C976 H1000 0.950 . S
C977 C994 1.574 . S
C977 C996 1.368 . S
C977 H1001 0.949 . S
H978 C982 0.949 . S
C979 C980 1.349 . S
C979 C981 1.327 . S
C979 H1002 0.950 . S
C980 C979 1.349 . S
C980 C992 1.349 . S
C981 C979 1.327 . S
C981 C997 1.429 . S
C981 H1003 0.950 . S
C982 H978 0.949 . S
C982 C990 1.574 . S
C982 C998 1.368 . S
H983 C991 0.950 . S
H984 C989 0.950 . S
H985 C990 0.949 . S
H986 C992 0.950 . S
H987 C993 0.950 . S
H988 C994 0.949 . S
C989 H984 0.950 . S
C989 C991 1.327 . S
C989 C995 1.429 . S
C990 C982 1.574 . S
C990 H985 0.949 . S
C990 C996 1.368 . S
C991 C975 1.349 . S
C991 H983 0.950 . S
C991 C989 1.327 . S
C992 C980 1.349 . S
C992 H986 0.950 . S
C992 C993 1.327 . S
C993 H987 0.950 . S
C993 C992 1.327 . S
C993 C997 1.429 . S
C994 C977 1.574 . S
C994 H988 0.949 . S
C994 C998 1.368 . S
C995 C976 1.429 . S
C995 C989 1.429 . S
C995 C996 1.523 . S
C996 C977 1.368 . S
C996 C990 1.368 . S
C996 C995 1.523 . S
C997 C981 1.429 . S
C997 C993 1.429 . S
C997 C998 1.523 . S
C998 C982 1.368 . S
C998 C994 1.368 . S
C998 C997 1.523 . S
H999 C974 0.950 . S
H1000 C976 0.950 . S
H1001 C977 0.949 . S
H1002 C979 0.950 . S
H1003 C981 0.950 . S
C1004 C1005 1.359 . S
C1004 C1006 1.371 . S
C1004 H1029 0.897 1_545 S
C1005 C1004 1.359 . S
C1005 C1021 1.349 . S
C1006 C1004 1.371 . S
C1006 C1025 1.429 . S
C1006 H1030 0.950 . S
C1007 C1024 1.574 . S
C1007 C1026 1.368 . S
C1007 H1031 0.949 . S
H1008 C1012 0.949 . S
C1009 C1010 1.349 . S
C1009 C1011 1.327 . S
C1009 H1032 0.950 . S
C1010 C1009 1.349 . S
C1010 C1022 1.349 . S
C1011 C1009 1.327 . S
C1011 C1027 1.429 . S
C1011 H1033 0.950 . S
C1012 H1008 0.949 . S
C1012 C1020 1.574 . S
C1012 C1028 1.368 . S
H1013 C1021 0.950 . S
H1014 C1019 0.950 . S
H1015 C1020 0.949 . S
H1016 C1022 0.950 . S
H1017 C1023 0.950 . S
H1018 C1024 0.949 . S
C1019 H1014 0.950 . S
C1019 C1021 1.327 . S
C1019 C1025 1.429 . S
C1020 C1012 1.574 . S
C1020 H1015 0.949 . S
C1020 C1026 1.368 . S
C1021 C1005 1.349 . S
C1021 H1013 0.950 . S
C1021 C1019 1.327 . S
C1022 C1010 1.349 . S
C1022 H1016 0.950 . S
C1022 C1023 1.327 . S
C1023 H1017 0.950 . S
C1023 C1022 1.327 . S
C1023 C1027 1.429 . S
C1024 C1007 1.574 . S
C1024 H1018 0.949 . S
C1024 C1028 1.368 . S
C1025 C1006 1.429 . S
C1025 C1019 1.429 . S
C1025 C1026 1.523 . S
C1026 C1007 1.368 . S
C1026 C1020 1.368 . S
C1026 C1025 1.523 . S
C1027 C1011 1.429 . S
C1027 C1023 1.429 . S
C1027 C1028 1.523 . S
C1028 C1012 1.368 . S
C1028 C1024 1.368 . S
C1028 C1027 1.523 . S
H1029 C1004 0.897 1_565 S
H1030 C1006 0.950 . S
H1031 C1007 0.949 . S
H1032 C1009 0.950 . S
H1033 C1011 0.950 . S
C1034 C1035 1.349 . S
C1034 C1036 1.327 . S
C1034 H1059 0.950 . S
C1035 C1034 1.349 . S
C1035 C1051 1.349 . S
C1036 C1034 1.327 . S
C1036 C1055 1.429 . S
C1036 H1060 0.950 . S
C1037 C1054 1.574 . S
C1037 C1056 1.368 . S
C1037 H1061 0.949 . S
H1038 C1042 0.949 . S
C1039 C1040 1.349 . S
C1039 C1041 1.327 . S
C1039 H1062 0.950 . S
C1040 C1039 1.349 . S
C1040 C1052 1.349 . S
C1041 C1039 1.327 . S
C1041 C1057 1.429 . S
C1041 H1063 0.950 . S
C1042 H1038 0.949 . S
C1042 C1050 1.574 . S
C1042 C1058 1.368 . S
H1043 C1051 0.950 . S
H1044 C1049 0.950 . S
H1045 C1050 0.949 . S
H1046 C1052 0.950 . S
H1047 C1053 0.950 . S
H1048 C1054 0.949 . S
C1049 H1044 0.950 . S
C1049 C1051 1.327 . S
C1049 C1055 1.429 . S
C1050 C1042 1.574 . S
C1050 H1045 0.949 . S
C1050 C1056 1.368 . S
C1051 C1035 1.349 . S
C1051 H1043 0.950 . S
C1051 C1049 1.327 . S
C1052 C1040 1.349 . S
C1052 H1046 0.950 . S
C1052 C1053 1.327 . S
C1053 H1047 0.950 . S
C1053 C1052 1.327 . S
C1053 C1057 1.429 . S
C1054 C1037 1.574 . S
C1054 H1048 0.949 . S
C1054 C1058 1.368 . S
C1055 C1036 1.429 . S
C1055 C1049 1.429 . S
C1055 C1056 1.523 . S
C1056 C1037 1.368 . S
C1056 C1050 1.368 . S
C1056 C1055 1.523 . S
C1057 C1041 1.429 . S
C1057 C1053 1.429 . S
C1057 C1058 1.523 . S
C1058 C1042 1.368 . S
C1058 C1054 1.368 . S
C1058 C1057 1.523 . S
H1059 C1034 0.950 . S
H1060 C1036 0.950 . S
H1061 C1037 0.949 . S
H1062 C1039 0.950 . S
H1063 C1041 0.950 . S
C1064 C1065 1.349 . S
C1064 C1066 1.327 . S
C1064 H1089 0.950 . S
C1065 C1064 1.349 . S
C1065 C1081 1.349 . S
C1066 C1064 1.327 . S
C1066 C1085 1.429 . S
C1066 H1090 0.950 . S
C1067 C1084 1.574 . S
C1067 C1086 1.368 . S
C1067 H1091 0.949 . S
H1068 C1072 0.949 . S
C1069 C1070 1.349 . S
C1069 C1071 1.327 . S
C1069 H1092 0.950 . S
C1070 C1069 1.349 . S
C1070 C1082 1.349 . S
C1071 C1069 1.327 . S
C1071 C1087 1.429 . S
C1071 H1093 0.950 . S
C1072 H1068 0.949 . S
C1072 C1080 1.574 . S
C1072 C1088 1.368 . S
H1073 C1081 0.950 . S
H1074 C1079 0.950 . S
H1075 C1080 0.949 . S
H1076 C1082 0.950 . S
H1077 C1083 0.950 . S
H1078 C1084 0.949 . S
C1079 H1074 0.950 . S
C1079 C1081 1.327 . S
C1079 C1085 1.429 . S
C1080 C1072 1.574 . S
C1080 H1075 0.949 . S
C1080 C1086 1.368 . S
C1081 C1065 1.349 . S
C1081 H1073 0.950 . S
C1081 C1079 1.327 . S
C1082 C1070 1.349 . S
C1082 H1076 0.950 . S
C1082 C1083 1.327 . S
C1083 H1077 0.950 . S
C1083 C1082 1.327 . S
C1083 C1087 1.429 . S
C1084 C1067 1.574 . S
C1084 H1078 0.949 . S
C1084 C1088 1.368 . S
C1085 C1066 1.429 . S
C1085 C1079 1.429 . S
C1085 C1086 1.523 . S
C1086 C1067 1.368 . S
C1086 C1080 1.368 . S
C1086 C1085 1.523 . S
C1087 C1071 1.429 . S
C1087 C1083 1.429 . S
C1087 C1088 1.523 . S
C1088 C1072 1.368 . S
C1088 C1084 1.368 . S
C1088 C1087 1.523 . S
H1089 C1064 0.950 . S
H1090 C1066 0.950 . S
H1091 C1067 0.949 . S
H1092 C1069 0.950 . S
H1093 C1071 0.950 . S
C1094 C1095 1.349 . S
C1094 C1096 1.327 . S
C1094 H1119 0.950 . S
C1095 C1094 1.349 . S
C1095 C1111 1.349 . S
C1096 C1094 1.327 . S
C1096 C1115 1.429 . S
C1096 H1120 0.950 . S
C1097 C1114 1.574 . S
C1097 C1116 1.368 . S
C1097 H1121 0.949 . S
H1098 C1102 0.949 1_565 S
C1099 C1100 1.349 . S
C1099 C1101 1.327 . S
C1099 H1122 0.950 . S
C1100 C1099 1.349 . S
C1100 C1112 1.312 1_545 S
C1101 C1099 1.327 . S
C1101 C1117 1.429 . S
C1101 H1123 0.950 . S
C1102 H1098 0.949 1_545 S
C1102 C1110 1.574 . S
C1102 C1118 1.368 . S
H1103 C1111 0.950 . S
H1104 C1109 0.950 . S
H1105 C1110 0.949 . S
H1106 C1112 0.996 . S
H1107 C1113 0.950 1_565 S
H1108 C1114 0.949 . S
C1109 H1104 0.950 . S
C1109 C1111 1.327 . S
C1109 C1115 1.429 . S
C1110 C1102 1.574 . S
C1110 H1105 0.949 . S
C1110 C1116 1.368 . S
C1111 C1095 1.349 . S
C1111 H1103 0.950 . S
C1111 C1109 1.327 . S
C1112 C1100 1.312 1_565 S
C1112 H1106 0.996 . S
C1112 C1113 1.322 1_565 S
C1113 H1107 0.950 1_545 S
C1113 C1112 1.322 1_545 S
C1113 C1117 1.429 . S
C1114 C1097 1.574 . S
C1114 H1108 0.949 . S
C1114 C1118 1.368 . S
C1115 C1096 1.429 . S
C1115 C1109 1.429 . S
C1115 C1116 1.523 . S
C1116 C1097 1.368 . S
C1116 C1110 1.368 . S
C1116 C1115 1.523 . S
C1117 C1101 1.429 . S
C1117 C1113 1.429 . S
C1117 C1118 1.523 . S
C1118 C1102 1.368 . S
C1118 C1114 1.368 . S
C1118 C1117 1.523 . S
H1119 C1094 0.950 . S
H1120 C1096 0.950 . S
H1121 C1097 0.949 . S
H1122 C1099 0.950 . S
H1123 C1101 0.950 . S
C1124 C1125 1.349 . S
C1124 C1126 1.327 . S
C1124 H1149 0.950 . S
C1125 C1124 1.349 . S
C1125 C1141 1.349 . S
C1126 C1124 1.327 . S
C1126 C1145 1.429 . S
C1126 H1150 0.950 . S
C1127 C1144 1.574 . S
C1127 C1146 1.368 . S
C1127 H1151 0.949 . S
H1128 C1132 0.949 . S
C1129 C1130 1.349 . S
C1129 C1131 1.327 . S
C1129 H1152 0.950 . S
C1130 C1129 1.349 . S
C1130 C1142 1.349 . S
C1131 C1129 1.327 . S
C1131 C1147 1.429 . S
C1131 H1153 0.950 . S
C1132 H1128 0.949 . S
C1132 C1140 1.574 . S
C1132 C1148 1.368 . S
H1133 C1141 0.950 . S
H1134 C1139 0.950 . S
H1135 C1140 0.949 . S
H1136 C1142 0.950 . S
H1137 C1143 0.950 . S
H1138 C1144 0.949 . S
C1139 H1134 0.950 . S
C1139 C1141 1.327 . S
C1139 C1145 1.429 . S
C1140 C1132 1.574 . S
C1140 H1135 0.949 . S
C1140 C1146 1.368 . S
C1141 C1125 1.349 . S
C1141 H1133 0.950 . S
C1141 C1139 1.327 . S
C1142 C1130 1.349 . S
C1142 H1136 0.950 . S
C1142 C1143 1.327 . S
C1143 H1137 0.950 . S
C1143 C1142 1.327 . S
C1143 C1147 1.429 . S
C1144 C1127 1.574 . S
C1144 H1138 0.949 . S
C1144 C1148 1.368 . S
C1145 C1126 1.429 . S
C1145 C1139 1.429 . S
C1145 C1146 1.523 . S
C1146 C1127 1.368 . S
C1146 C1140 1.368 . S
C1146 C1145 1.523 . S
C1147 C1131 1.429 . S
C1147 C1143 1.429 . S
C1147 C1148 1.523 . S
C1148 C1132 1.368 . S
C1148 C1144 1.368 . S
C1148 C1147 1.523 . S
H1149 C1124 0.950 . S
H1150 C1126 0.950 . S
H1151 C1127 0.949 . S
H1152 C1129 0.950 . S
H1153 C1131 0.950 . S
C1154 C1155 1.349 . S
C1154 C1156 1.327 . S
C1154 H1179 0.950 . S
C1155 C1154 1.349 . S
C1155 C1171 1.349 . S
C1156 C1154 1.327 . S
C1156 C1175 1.429 . S
C1156 H1180 0.950 . S
C1157 C1174 1.574 . S
C1157 C1176 1.368 . S
C1157 H1181 0.949 . S
H1158 C1162 0.949 . S
C1159 C1160 1.349 . S
C1159 C1161 1.327 . S
C1159 H1182 0.950 . S
C1160 C1159 1.349 . S
C1160 C1172 1.349 . S
C1161 C1159 1.327 . S
C1161 C1177 1.429 . S
C1161 H1183 0.950 . S
C1162 H1158 0.949 . S
C1162 C1170 1.574 . S
C1162 C1178 1.368 . S
H1163 C1171 0.950 . S
H1164 C1169 0.950 . S
H1165 C1170 0.949 . S
H1166 C1172 0.950 . S
H1167 C1173 0.950 . S
H1168 C1174 0.949 . S
C1169 H1164 0.950 . S
C1169 C1171 1.327 . S
C1169 C1175 1.429 . S
C1170 C1162 1.574 . S
C1170 H1165 0.949 . S
C1170 C1176 1.368 . S
C1171 C1155 1.349 . S
C1171 H1163 0.950 . S
C1171 C1169 1.327 . S
C1172 C1160 1.349 . S
C1172 H1166 0.950 . S
C1172 C1173 1.327 . S
C1173 H1167 0.950 . S
C1173 C1172 1.327 . S
C1173 C1177 1.429 . S
C1174 C1157 1.574 . S
C1174 H1168 0.949 . S
C1174 C1178 1.368 . S
C1175 C1156 1.429 . S
C1175 C1169 1.429 . S
C1175 C1176 1.523 . S
C1176 C1157 1.368 . S
C1176 C1170 1.368 . S
C1176 C1175 1.523 . S
C1177 C1161 1.429 . S
C1177 C1173 1.429 . S
C1177 C1178 1.523 . S
C1178 C1162 1.368 . S
C1178 C1174 1.368 . S
C1178 C1177 1.523 . S
H1179 C1154 0.950 . S
H1180 C1156 0.950 . S
H1181 C1157 0.949 . S
H1182 C1159 0.950 . S
H1183 C1161 0.950 . S
C1184 C1185 1.349 . S
C1184 C1186 1.327 . S
C1184 H1209 0.950 . S
C1185 C1184 1.349 . S
C1185 C1201 1.349 . S
C1186 C1184 1.327 . S
C1186 C1205 1.429 . S
C1186 H1210 0.950 . S
C1187 C1204 1.574 . S
C1187 C1206 1.368 . S
C1187 H1211 0.949 . S
H1188 C1192 0.949 . S
C1189 C1190 1.349 . S
C1189 C1191 1.327 . S
C1189 H1212 0.950 . S
C1190 C1189 1.349 . S
C1190 C1202 1.349 . S
C1191 C1189 1.327 . S
C1191 C1207 1.429 . S
C1191 H1213 0.950 . S
C1192 H1188 0.949 . S
C1192 C1200 1.574 . S
C1192 C1208 1.368 . S
H1193 C1201 0.950 . S
H1194 C1199 0.950 . S
H1195 C1200 0.949 . S
H1196 C1202 0.950 . S
H1197 C1203 0.950 . S
H1198 C1204 0.949 . S
C1199 H1194 0.950 . S
C1199 C1201 1.327 . S
C1199 C1205 1.429 . S
C1200 C1192 1.574 . S
C1200 H1195 0.949 . S
C1200 C1206 1.368 . S
C1201 C1185 1.349 . S
C1201 H1193 0.950 . S
C1201 C1199 1.327 . S
C1202 C1190 1.349 . S
C1202 H1196 0.950 . S
C1202 C1203 1.327 . S
C1203 H1197 0.950 . S
C1203 C1202 1.327 . S
C1203 C1207 1.429 . S
C1204 C1187 1.574 . S
C1204 H1198 0.949 . S
C1204 C1208 1.368 . S
C1205 C1186 1.429 . S
C1205 C1199 1.429 . S
C1205 C1206 1.523 . S
C1206 C1187 1.368 . S
C1206 C1200 1.368 . S
C1206 C1205 1.523 . S
C1207 C1191 1.429 . S
C1207 C1203 1.429 . S
C1207 C1208 1.523 . S
C1208 C1192 1.368 . S
C1208 C1204 1.368 . S
C1208 C1207 1.523 . S
H1209 C1184 0.950 . S
H1210 C1186 0.950 . S
H1211 C1187 0.949 . S
H1212 C1189 0.950 . S
H1213 C1191 0.950 . S
C1214 C1215 1.349 . S
C1214 C1216 1.327 . S
C1214 H1239 0.950 . S
C1215 C1214 1.349 . S
C1215 C1231 1.349 . S
C1216 C1214 1.327 . S
C1216 C1235 1.429 . S
C1216 H1240 0.950 . S
C1217 C1234 1.574 . S
C1217 C1236 1.368 . S
C1217 H1241 0.949 . S
H1218 C1222 0.949 . S
C1219 C1220 1.349 . S
C1219 C1221 1.327 . S
C1219 H1242 0.950 . S
C1220 C1219 1.349 . S
C1220 C1232 1.349 . S
C1221 C1219 1.327 . S
C1221 C1237 1.429 . S
C1221 H1243 0.955 . S
C1222 H1218 0.949 . S
C1222 C1230 1.574 1_655 S
C1222 C1238 1.368 . S
H1223 C1231 0.950 . S
H1224 C1229 0.950 . S
H1225 C1230 0.949 . S
H1226 C1232 0.950 . S
H1227 C1233 0.950 . S
H1228 C1234 0.949 . S
C1229 H1224 0.950 . S
C1229 C1231 1.327 . S
C1229 C1235 1.429 . S
C1230 C1222 1.574 1_455 S
C1230 H1225 0.949 . S
C1230 C1236 1.368 . S
C1231 C1215 1.349 . S
C1231 H1223 0.950 . S
C1231 C1229 1.327 . S
C1232 C1220 1.349 . S
C1232 H1226 0.950 . S
C1232 C1233 1.327 . S
C1233 H1227 0.950 . S
C1233 C1232 1.327 . S
C1233 C1237 1.429 . S
C1234 C1217 1.574 . S
C1234 H1228 0.949 . S
C1234 C1238 1.368 1_455 S
C1235 C1216 1.429 . S
C1235 C1229 1.429 . S
C1235 C1236 1.523 . S
C1236 C1217 1.368 . S
C1236 C1230 1.368 . S
C1236 C1235 1.523 . S
C1237 C1221 1.429 . S
C1237 C1233 1.429 . S
C1237 C1238 1.523 . S
C1238 C1222 1.368 . S
C1238 C1234 1.368 1_655 S
C1238 C1237 1.523 . S
H1239 C1214 0.950 . S
H1240 C1216 0.950 . S
H1241 C1217 0.949 . S
H1242 C1219 0.950 . S
H1243 C1221 0.955 . S
C1244 C1245 1.349 . S
C1244 C1246 1.327 . S
C1244 H1269 0.950 . S
C1245 C1244 1.349 . S
C1245 C1261 1.349 . S
C1246 C1244 1.327 . S
C1246 C1265 1.429 . S
C1246 H1270 0.950 . S
C1247 C1264 1.574 . S
C1247 C1266 1.368 . S
C1247 H1271 0.949 . S
H1248 C1252 0.949 . S
C1249 C1250 1.349 . S
C1249 C1251 1.327 . S
C1249 H1272 0.950 . S
C1250 C1249 1.349 . S
C1250 C1262 1.349 . S
C1251 C1249 1.327 . S
C1251 C1267 1.429 . S
C1251 H1273 0.950 . S
C1252 H1248 0.949 . S
C1252 C1260 1.574 . S
C1252 C1268 1.368 . S
H1253 C1261 0.950 . S
H1254 C1259 0.950 . S
H1255 C1260 0.949 . S
H1256 C1262 0.950 . S
H1257 C1263 0.950 . S
H1258 C1264 0.949 . S
C1259 H1254 0.950 . S
C1259 C1261 1.327 . S
C1259 C1265 1.429 . S
C1260 C1252 1.574 . S
C1260 H1255 0.949 . S
C1260 C1266 1.368 . S
C1261 C1245 1.349 . S
C1261 H1253 0.950 . S
C1261 C1259 1.327 . S
C1262 C1250 1.349 . S
C1262 H1256 0.950 . S
C1262 C1263 1.327 . S
C1263 H1257 0.950 . S
C1263 C1262 1.327 . S
C1263 C1267 1.429 . S
C1264 C1247 1.574 . S
C1264 H1258 0.949 . S
C1264 C1268 1.368 . S
C1265 C1246 1.429 . S
C1265 C1259 1.429 . S
C1265 C1266 1.523 . S
C1266 C1247 1.368 . S
C1266 C1260 1.368 . S
C1266 C1265 1.523 . S
C1267 C1251 1.429 . S
C1267 C1263 1.429 . S
C1267 C1268 1.523 . S
C1268 C1252 1.368 . S
C1268 C1264 1.368 . S
C1268 C1267 1.523 . S
H1269 C1244 0.950 . S
H1270 C1246 0.950 . S
H1271 C1247 0.949 . S
H1272 C1249 0.950 . S
H1273 C1251 0.950 . S
C1274 C1275 1.349 . S
C1274 C1276 1.327 1_655 S
C1274 H1299 0.950 . S
C1275 C1274 1.349 . S
C1275 C1291 1.349 1_655 S
C1276 C1274 1.327 1_455 S
C1276 C1295 1.429 . S
C1276 H1300 0.950 . S
C1277 C1294 1.574 . S
C1277 C1296 1.368 . S
C1277 H1301 0.949 . S
H1278 C1282 0.949 . S
C1279 C1280 1.349 . S
C1279 C1281 1.327 . S
C1279 H1302 0.950 . S
C1280 C1279 1.349 . S
C1280 C1292 1.349 . S
C1281 C1279 1.327 . S
C1281 C1297 1.429 . S
C1281 H1303 0.950 . S
C1282 H1278 0.949 . S
C1282 C1290 1.574 . S
C1282 C1298 1.368 . S
H1283 C1291 0.950 . S
H1284 C1289 0.950 . S
H1285 C1290 0.949 . S
H1286 C1292 0.950 . S
H1287 C1293 0.950 . S
H1288 C1294 0.949 . S
C1289 H1284 0.950 . S
C1289 C1291 1.327 . S
C1289 C1295 1.429 . S
C1290 C1282 1.574 . S
C1290 H1285 0.949 . S
C1290 C1296 1.368 . S
C1291 C1275 1.349 1_455 S
C1291 H1283 0.950 . S
C1291 C1289 1.327 . S
C1292 C1280 1.349 . S
C1292 H1286 0.950 . S
C1292 C1293 1.327 . S
C1293 H1287 0.950 . S
C1293 C1292 1.327 . S
C1293 C1297 1.429 . S
C1294 C1277 1.574 . S
C1294 H1288 0.949 . S
C1294 C1298 1.368 . S
C1295 C1276 1.429 . S
C1295 C1289 1.429 . S
C1295 C1296 1.523 . S
C1296 C1277 1.368 . S
C1296 C1290 1.368 . S
C1296 C1295 1.523 . S
C1297 C1281 1.429 . S
C1297 C1293 1.429 . S
C1297 C1298 1.523 . S
C1298 C1282 1.368 . S
C1298 C1294 1.368 . S
C1298 C1297 1.523 . S
H1299 C1274 0.950 . S
H1300 C1276 0.950 . S
H1301 C1277 0.949 . S
H1302 C1279 0.950 . S
H1303 C1281 0.950 . S
C1304 C1305 1.349 . S
C1304 C1306 1.327 . S
C1304 H1329 0.950 . S
C1305 C1304 1.349 . S
C1305 C1321 1.349 . S
C1306 C1304 1.327 . S
C1306 C1325 1.429 . S
C1306 H1330 0.950 . S
C1307 C1324 1.574 . S
C1307 C1326 1.368 . S
C1307 H1331 0.949 . S
H1308 C1312 0.949 . S
C1309 C1310 1.349 . S
C1309 C1311 1.327 . S
C1309 H1332 0.950 . S
C1310 C1309 1.349 . S
C1310 C1322 1.349 . S
C1311 C1309 1.327 . S
C1311 C1327 1.429 . S
C1311 H1333 0.950 . S
C1312 H1308 0.949 . S
C1312 C1320 1.574 . S
C1312 C1328 1.368 . S
H1313 C1321 0.950 . S
H1314 C1319 0.950 . S
H1315 C1320 0.949 . S
H1316 C1322 0.950 . S
H1317 C1323 0.950 . S
H1318 C1324 0.949 . S
C1319 H1314 0.950 . S
C1319 C1321 1.327 . S
C1319 C1325 1.429 . S
C1320 C1312 1.574 . S
C1320 H1315 0.949 . S
C1320 C1326 1.368 . S
C1321 C1305 1.349 . S
C1321 H1313 0.950 . S
C1321 C1319 1.327 . S
C1322 C1310 1.349 . S
C1322 H1316 0.950 . S
C1322 C1323 1.327 . S
C1323 H1317 0.950 . S
C1323 C1322 1.327 . S
C1323 C1327 1.429 . S
C1324 C1307 1.574 . S
C1324 H1318 0.949 . S
C1324 C1328 1.368 . S
C1325 C1306 1.429 . S
C1325 C1319 1.429 . S
C1325 C1326 1.523 . S
C1326 C1307 1.368 . S
C1326 C1320 1.368 . S
C1326 C1325 1.523 . S
C1327 C1311 1.429 . S
C1327 C1323 1.429 . S
C1327 C1328 1.523 . S
C1328 C1312 1.368 . S
C1328 C1324 1.368 . S
C1328 C1327 1.523 . S
H1329 C1304 0.950 . S
H1330 C1306 0.950 . S
H1331 C1307 0.949 . S
H1332 C1309 0.950 . S
H1333 C1311 0.950 . S
C1334 C1335 1.349 . S
C1334 C1336 1.327 1_554 S
C1334 H1359 0.950 . S
C1335 C1334 1.349 . S
C1335 C1351 1.349 . S
C1336 C1334 1.327 1_556 S
C1336 C1355 1.439 . S
C1336 H1360 0.950 . S
C1337 C1354 1.574 . S
C1337 C1356 1.368 . S
C1337 H1361 0.949 1_556 S
H1338 C1342 0.949 1_455 S
C1339 C1340 1.370 . S
C1339 C1341 1.311 1_455 S
C1339 H1362 0.951 1_455 S
C1340 C1339 1.370 . S
C1340 C1352 1.349 . S
C1341 C1339 1.311 1_655 S
C1341 C1357 1.430 . S
C1341 H1363 0.950 . S
C1342 H1338 0.949 1_655 S
C1342 C1350 1.574 . S
C1342 C1358 1.368 . S
H1343 C1351 0.950 . S
H1344 C1349 0.950 . S
H1345 C1350 0.949 . S
H1346 C1352 0.950 . S
H1347 C1353 0.950 . S
H1348 C1354 0.949 . S
C1349 H1344 0.950 . S
C1349 C1351 1.327 . S
C1349 C1355 1.404 1_554 S
C1350 C1342 1.574 . S
C1350 H1345 0.949 . S
C1350 C1356 1.368 . S
C1351 C1335 1.349 . S
C1351 H1343 0.950 . S
C1351 C1349 1.327 . S
C1352 C1340 1.349 . S
C1352 H1346 0.950 . S
C1352 C1353 1.327 . S
C1353 H1347 0.950 . S
C1353 C1352 1.327 . S
C1353 C1357 1.420 1_455 S
C1354 C1337 1.574 . S
C1354 H1348 0.949 . S
C1354 C1358 1.368 . S
C1355 C1336 1.439 . S
C1355 C1349 1.404 1_556 S
C1355 C1356 1.536 . S
C1356 C1337 1.368 . S
C1356 C1350 1.368 . S
C1356 C1355 1.536 . S
C1357 C1341 1.430 . S
C1357 C1353 1.420 1_655 S
C1357 C1358 1.530 . S
C1358 C1342 1.368 . S
C1358 C1354 1.368 . S
C1358 C1357 1.530 . S
H1359 C1334 0.950 . S
H1360 C1336 0.950 . S
H1361 C1337 0.949 1_554 S
H1362 C1339 0.951 1_655 S
H1363 C1341 0.950 . S
C1364 C1365 1.349 . S
C1364 C1366 1.327 . S
C1364 H1389 0.950 . S
C1365 C1364 1.349 . S
C1365 C1381 1.349 . S
C1366 C1364 1.327 . S
C1366 C1385 1.429 . S
C1366 H1390 0.950 . S
C1367 C1384 1.574 . S
C1367 C1386 1.368 . S
C1367 H1391 0.949 . S
H1368 C1372 0.949 . S
C1369 C1370 1.349 . S
C1369 C1371 1.327 . S
C1369 H1392 0.950 . S
C1370 C1369 1.349 . S
C1370 C1382 1.349 . S
C1371 C1369 1.327 . S
C1371 C1387 1.429 . S
C1371 H1393 0.950 . S
C1372 H1368 0.949 . S
C1372 C1380 1.574 . S
C1372 C1388 1.368 . S
H1373 C1381 0.950 . S
H1374 C1379 0.950 . S
H1375 C1380 0.949 . S
H1376 C1382 0.950 . S
H1377 C1383 0.950 . S
H1378 C1384 0.949 . S
C1379 H1374 0.950 . S
C1379 C1381 1.327 . S
C1379 C1385 1.429 . S
C1380 C1372 1.574 . S
C1380 H1375 0.949 . S
C1380 C1386 1.368 . S
C1381 C1365 1.349 . S
C1381 H1373 0.950 . S
C1381 C1379 1.327 . S
C1382 C1370 1.349 . S
C1382 H1376 0.950 . S
C1382 C1383 1.327 . S
C1383 H1377 0.950 . S
C1383 C1382 1.327 . S
C1383 C1387 1.429 . S
C1384 C1367 1.574 . S
C1384 H1378 0.949 . S
C1384 C1388 1.368 . S
C1385 C1366 1.429 . S
C1385 C1379 1.429 . S
C1385 C1386 1.523 . S
C1386 C1367 1.368 . S
C1386 C1380 1.368 . S
C1386 C1385 1.523 . S
C1387 C1371 1.429 . S
C1387 C1383 1.429 . S
C1387 C1388 1.523 . S
C1388 C1372 1.368 . S
C1388 C1384 1.368 . S
C1388 C1387 1.523 . S
H1389 C1364 0.950 . S
H1390 C1366 0.950 . S
H1391 C1367 0.949 . S
H1392 C1369 0.950 . S
H1393 C1371 0.950 . S
C1394 C1395 1.349 . S
C1394 C1396 1.327 . S
C1394 H1419 0.950 . S
C1395 C1394 1.349 . S
C1395 C1411 1.349 . S
C1396 C1394 1.327 . S
C1396 C1415 1.429 1_554 S
C1396 H1420 0.950 1_554 S
C1397 C1414 1.574 . S
C1397 C1416 1.368 . S
C1397 H1421 0.949 . S
H1398 C1402 0.949 . S
C1399 C1400 1.349 . S
C1399 C1401 1.327 . S
C1399 H1422 0.950 . S
C1400 C1399 1.349 . S
C1400 C1412 1.349 . S
C1401 C1399 1.327 . S
C1401 C1417 1.429 . S
C1401 H1423 0.950 . S
C1402 H1398 0.949 . S
C1402 C1410 1.574 . S
C1402 C1418 1.368 . S
H1403 C1411 0.950 . S
H1404 C1409 0.972 . S
H1405 C1410 0.949 . S
H1406 C1412 0.950 . S
H1407 C1413 0.950 . S
H1408 C1414 0.949 . S
C1409 H1404 0.972 . S
C1409 C1411 1.293 1_556 S
C1409 C1415 1.443 . S
C1410 C1402 1.574 . S
C1410 H1405 0.949 . S
C1410 C1416 1.368 . S
C1411 C1395 1.349 . S
C1411 H1403 0.950 . S
C1411 C1409 1.293 1_554 S
C1412 C1400 1.349 . S
C1412 H1406 0.950 . S
C1412 C1413 1.327 . S
C1413 H1407 0.950 . S
C1413 C1412 1.327 . S
C1413 C1417 1.429 . S
C1414 C1397 1.574 . S
C1414 H1408 0.949 . S
C1414 C1418 1.368 . S
C1415 C1396 1.429 1_556 S
C1415 C1409 1.443 . S
C1415 C1416 1.523 . S
C1416 C1397 1.368 . S
C1416 C1410 1.368 . S
C1416 C1415 1.523 . S
C1417 C1401 1.429 . S
C1417 C1413 1.429 . S
C1417 C1418 1.523 . S
C1418 C1402 1.368 . S
C1418 C1414 1.368 . S
C1418 C1417 1.523 . S
H1419 C1394 0.950 . S
H1420 C1396 0.950 1_556 S
H1421 C1397 0.949 . S
H1422 C1399 0.950 . S
H1423 C1401 0.950 . S
C1424 C1425 1.349 . S
C1424 C1426 1.327 . S
C1424 H1449 0.950 . S
C1425 C1424 1.349 . S
C1425 C1441 1.349 . S
C1426 C1424 1.327 . S
C1426 C1445 1.429 . S
C1426 H1450 0.950 . S
C1427 C1444 1.574 . S
C1427 C1446 1.368 . S
C1427 H1451 0.949 . S
H1428 C1432 0.949 . S
C1429 C1430 1.349 . S
C1429 C1431 1.327 . S
C1429 H1452 0.950 . S
C1430 C1429 1.349 . S
C1430 C1442 1.349 . S
C1431 C1429 1.327 . S
C1431 C1447 1.429 . S
C1431 H1453 0.950 . S
C1432 H1428 0.949 . S
C1432 C1440 1.574 . S
C1432 C1448 1.368 . S
H1433 C1441 0.950 . S
H1434 C1439 0.950 . S
H1435 C1440 0.949 . S
H1436 C1442 0.950 . S
H1437 C1443 0.950 . S
H1438 C1444 0.949 . S
C1439 H1434 0.950 . S
C1439 C1441 1.327 . S
C1439 C1445 1.429 . S
C1440 C1432 1.574 . S
C1440 H1435 0.949 . S
C1440 C1446 1.368 . S
C1441 C1425 1.349 . S
C1441 H1433 0.950 . S
C1441 C1439 1.327 . S
C1442 C1430 1.349 . S
C1442 H1436 0.950 . S
C1442 C1443 1.327 . S
C1443 H1437 0.950 . S
C1443 C1442 1.327 . S
C1443 C1447 1.429 . S
C1444 C1427 1.574 . S
C1444 H1438 0.949 . S
C1444 C1448 1.368 . S
C1445 C1426 1.429 . S
C1445 C1439 1.429 . S
C1445 C1446 1.523 . S
C1446 C1427 1.368 . S
C1446 C1440 1.368 . S
C1446 C1445 1.523 . S
C1447 C1431 1.429 . S
C1447 C1443 1.429 . S
C1447 C1448 1.523 . S
C1448 C1432 1.368 . S
C1448 C1444 1.368 . S
C1448 C1447 1.523 . S
H1449 C1424 0.950 . S
H1450 C1426 0.950 . S
H1451 C1427 0.949 . S
H1452 C1429 0.950 . S
H1453 C1431 0.950 . S
C1454 C1455 1.349 . S
C1454 C1456 1.327 . S
C1454 H1479 0.950 . S
C1455 C1454 1.349 . S
C1455 C1471 1.349 . S
C1456 C1454 1.327 . S
C1456 C1475 1.429 . S
C1456 H1480 0.950 . S
C1457 C1474 1.574 . S
C1457 C1476 1.368 . S
C1457 H1481 0.949 . S
H1458 C1462 0.949 . S
C1459 C1460 1.349 . S
C1459 C1461 1.327 . S
C1459 H1482 0.950 . S
C1460 C1459 1.349 . S
C1460 C1472 1.349 . S
C1461 C1459 1.327 . S
C1461 C1477 1.429 . S
C1461 H1483 0.950 . S
C1462 H1458 0.949 . S
C1462 C1470 1.574 . S
C1462 C1478 1.368 . S
H1463 C1471 0.950 1_556 S
H1464 C1469 0.950 . S
H1465 C1470 0.949 . S
H1466 C1472 0.950 . S
H1467 C1473 0.950 . S
H1468 C1474 0.949 . S
C1469 H1464 0.950 . S
C1469 C1471 1.327 . S
C1469 C1475 1.429 . S
C1470 C1462 1.574 . S
C1470 H1465 0.949 . S
C1470 C1476 1.368 . S
C1471 C1455 1.349 . S
C1471 H1463 0.950 1_554 S
C1471 C1469 1.327 . S
C1472 C1460 1.349 . S
C1472 H1466 0.950 . S
C1472 C1473 1.327 . S
C1473 H1467 0.950 . S
C1473 C1472 1.327 . S
C1473 C1477 1.429 . S
C1474 C1457 1.574 . S
C1474 H1468 0.949 . S
C1474 C1478 1.368 . S
C1475 C1456 1.429 . S
C1475 C1469 1.429 . S
C1475 C1476 1.523 . S
C1476 C1457 1.368 . S
C1476 C1470 1.368 . S
C1476 C1475 1.523 . S
C1477 C1461 1.429 . S
C1477 C1473 1.429 . S
C1477 C1478 1.523 . S
C1478 C1462 1.368 . S
C1478 C1474 1.368 . S
C1478 C1477 1.523 . S
H1479 C1454 0.950 . S
H1480 C1456 0.950 . S
H1481 C1457 0.949 . S
H1482 C1459 0.950 . S
H1483 C1461 0.950 . S
C1484 C1485 1.349 . S
C1484 C1486 1.327 . S
C1484 H1509 0.950 . S
C1485 C1484 1.349 . S
C1485 C1501 1.349 . S
C1486 C1484 1.327 . S
C1486 C1505 1.429 . S
C1486 H1510 0.950 . S
C1487 C1504 1.574 . S
C1487 C1506 1.368 . S
C1487 H1511 0.949 . S
H1488 C1492 0.949 . S
C1489 C1490 1.349 . S
C1489 C1491 1.327 . S
C1489 H1512 0.950 . S
C1490 C1489 1.349 . S
C1490 C1502 1.349 . S
C1491 C1489 1.327 . S
C1491 C1507 1.429 . S
C1491 H1513 0.950 . S
C1492 H1488 0.949 . S
C1492 C1500 1.574 . S
C1492 C1508 1.368 . S
H1493 C1501 0.950 . S
H1494 C1499 0.950 . S
H1495 C1500 0.949 . S
H1496 C1502 0.950 . S
H1497 C1503 0.950 . S
H1498 C1504 0.949 . S
C1499 H1494 0.950 . S
C1499 C1501 1.327 . S
C1499 C1505 1.429 . S
C1500 C1492 1.574 . S
C1500 H1495 0.949 . S
C1500 C1506 1.368 . S
C1501 C1485 1.349 . S
C1501 H1493 0.950 . S
C1501 C1499 1.327 . S
C1502 C1490 1.349 . S
C1502 H1496 0.950 . S
C1502 C1503 1.327 . S
C1503 H1497 0.950 . S
C1503 C1502 1.327 . S
C1503 C1507 1.429 . S
C1504 C1487 1.574 . S
C1504 H1498 0.949 . S
C1504 C1508 1.368 . S
C1505 C1486 1.429 . S
C1505 C1499 1.429 . S
C1505 C1506 1.523 . S
C1506 C1487 1.368 . S
C1506 C1500 1.368 . S
C1506 C1505 1.523 . S
C1507 C1491 1.429 . S
C1507 C1503 1.429 . S
C1507 C1508 1.523 . S
C1508 C1492 1.368 . S
C1508 C1504 1.368 . S
C1508 C1507 1.523 . S
H1509 C1484 0.950 . S
H1510 C1486 0.950 . S
H1511 C1487 0.949 . S
H1512 C1489 0.950 . S
H1513 C1491 0.950 . S
C1514 C1515 1.349 . S
C1514 C1516 1.327 . S
C1514 H1539 0.950 . S
C1515 C1514 1.349 . S
C1515 C1531 1.349 . S
C1516 C1514 1.327 . S
C1516 C1535 1.429 1_556 S
C1516 H1540 0.950 . S
C1517 C1534 1.574 . S
C1517 C1536 1.368 . S
C1517 H1541 0.949 . S
H1518 C1522 0.949 . S
C1519 C1520 1.349 . S
C1519 C1521 1.327 . S
C1519 H1542 0.950 . S
C1520 C1519 1.349 . S
C1520 C1532 1.349 . S
C1521 C1519 1.327 . S
C1521 C1537 1.429 . S
C1521 H1543 0.950 . S
C1522 H1518 0.949 . S
C1522 C1530 1.574 . S
C1522 C1538 1.368 . S
H1523 C1531 0.950 . S
H1524 C1529 0.950 . S
H1525 C1530 0.949 . S
H1526 C1532 0.950 . S
H1527 C1533 0.950 . S
H1528 C1534 0.949 . S
C1529 H1524 0.950 . S
C1529 C1531 1.327 1_554 S
C1529 C1535 1.429 . S
C1530 C1522 1.574 . S
C1530 H1525 0.949 . S
C1530 C1536 1.368 . S
C1531 C1515 1.349 . S
C1531 H1523 0.950 . S
C1531 C1529 1.327 1_556 S
C1532 C1520 1.349 . S
C1532 H1526 0.950 . S
C1532 C1533 1.327 . S
C1533 H1527 0.950 . S
C1533 C1532 1.327 . S
C1533 C1537 1.429 . S
C1534 C1517 1.574 . S
C1534 H1528 0.949 . S
C1534 C1538 1.368 . S
C1535 C1516 1.429 1_554 S
C1535 C1529 1.429 . S
C1535 C1536 1.523 . S
C1536 C1517 1.368 . S
C1536 C1530 1.368 . S
C1536 C1535 1.523 . S
C1537 C1521 1.429 . S
C1537 C1533 1.429 . S
C1537 C1538 1.523 . S
C1538 C1522 1.368 . S
C1538 C1534 1.368 . S
C1538 C1537 1.523 . S
H1539 C1514 0.950 . S
H1540 C1516 0.950 . S
H1541 C1517 0.949 . S
H1542 C1519 0.950 . S
H1543 C1521 0.950 . S
C1544 C1545 1.349 . S
C1544 C1546 1.327 . S
C1544 H1569 0.950 . S
C1545 C1544 1.349 . S
C1545 C1561 1.349 . S
C1546 C1544 1.327 . S
C1546 C1565 1.429 . S
C1546 H1570 0.950 . S
C1547 C1564 1.574 . S
C1547 C1566 1.368 . S
C1547 H1571 0.949 . S
H1548 C1552 0.949 . S
C1549 C1550 1.349 . S
C1549 C1551 1.327 . S
C1549 H1572 0.950 . S
C1550 C1549 1.349 . S
C1550 C1562 1.349 . S
C1551 C1549 1.327 . S
C1551 C1567 1.429 . S
C1551 H1573 0.950 . S
C1552 H1548 0.949 . S
C1552 C1560 1.574 . S
C1552 C1568 1.368 . S
H1553 C1561 0.950 . S
H1554 C1559 0.950 . S
H1555 C1560 0.949 . S
H1556 C1562 0.950 . S
H1557 C1563 0.950 . S
H1558 C1564 0.949 . S
C1559 H1554 0.950 . S
C1559 C1561 1.327 . S
C1559 C1565 1.429 . S
C1560 C1552 1.574 . S
C1560 H1555 0.949 . S
C1560 C1566 1.368 . S
C1561 C1545 1.349 . S
C1561 H1553 0.950 . S
C1561 C1559 1.327 . S
C1562 C1550 1.349 . S
C1562 H1556 0.950 . S
C1562 C1563 1.327 . S
C1563 H1557 0.950 . S
C1563 C1562 1.327 . S
C1563 C1567 1.429 . S
C1564 C1547 1.574 . S
C1564 H1558 0.949 . S
C1564 C1568 1.368 . S
C1565 C1546 1.429 . S
C1565 C1559 1.429 . S
C1565 C1566 1.523 . S
C1566 C1547 1.368 . S
C1566 C1560 1.368 . S
C1566 C1565 1.523 . S
C1567 C1551 1.429 . S
C1567 C1563 1.429 . S
C1567 C1568 1.523 . S
C1568 C1552 1.368 . S
C1568 C1564 1.368 . S
C1568 C1567 1.523 . S
H1569 C1544 0.950 . S
H1570 C1546 0.950 . S
H1571 C1547 0.949 . S
H1572 C1549 0.950 . S
H1573 C1551 0.950 . S
C1574 C1575 1.349 . S
C1574 C1576 1.327 . S
C1574 H1599 0.950 . S
C1575 C1574 1.349 . S
C1575 C1591 1.349 . S
C1576 C1574 1.327 . S
C1576 C1595 1.429 . S
C1576 H1600 0.950 . S
C1577 C1594 1.574 . S
C1577 C1596 1.368 . S
C1577 H1601 0.949 . S
H1578 C1582 0.949 . S
C1579 C1580 1.349 . S
C1579 C1581 1.327 . S
C1579 H1602 0.950 . S
C1580 C1579 1.349 . S
C1580 C1592 1.349 . S
C1581 C1579 1.327 . S
C1581 C1597 1.429 . S
C1581 H1603 0.950 . S
C1582 H1578 0.949 . S
C1582 C1590 1.574 . S
C1582 C1598 1.368 . S
H1583 C1591 0.950 . S
H1584 C1589 0.950 . S
H1585 C1590 0.949 . S
H1586 C1592 0.950 . S
H1587 C1593 0.950 . S
H1588 C1594 0.949 . S
C1589 H1584 0.950 . S
C1589 C1591 1.327 . S
C1589 C1595 1.429 . S
C1590 C1582 1.574 . S
C1590 H1585 0.949 . S
C1590 C1596 1.368 . S
C1591 C1575 1.349 . S
C1591 H1583 0.950 . S
C1591 C1589 1.327 . S
C1592 C1580 1.349 . S
C1592 H1586 0.950 . S
C1592 C1593 1.327 . S
C1593 H1587 0.950 . S
C1593 C1592 1.327 . S
C1593 C1597 1.429 . S
C1594 C1577 1.574 . S
C1594 H1588 0.949 . S
C1594 C1598 1.368 . S
C1595 C1576 1.429 . S
C1595 C1589 1.429 . S
C1595 C1596 1.523 . S
C1596 C1577 1.368 . S
C1596 C1590 1.368 . S
C1596 C1595 1.523 . S
C1597 C1581 1.429 . S
C1597 C1593 1.429 . S
C1597 C1598 1.523 . S
C1598 C1582 1.368 . S
C1598 C1594 1.368 . S
C1598 C1597 1.523 . S
H1599 C1574 0.950 . S
H1600 C1576 0.950 . S
H1601 C1577 0.949 . S
H1602 C1579 0.950 . S
H1603 C1581 0.950 . S
C1604 C1605 1.349 . S
C1604 C1606 1.327 . S
C1604 H1629 0.950 . S
C1605 C1604 1.349 . S
C1605 C1621 1.349 . S
C1606 C1604 1.327 . S
C1606 C1625 1.429 . S
C1606 H1630 0.950 . S
C1607 C1624 1.574 . S
C1607 C1626 1.368 . S
C1607 H1631 0.949 . S
H1608 C1612 0.949 . S
C1609 C1610 1.349 . S
C1609 C1611 1.327 . S
C1609 H1632 0.950 . S
C1610 C1609 1.349 . S
C1610 C1622 1.349 . S
C1611 C1609 1.327 . S
C1611 C1627 1.429 . S
C1611 H1633 0.950 . S
C1612 H1608 0.949 . S
C1612 C1620 1.574 . S
C1612 C1628 1.368 . S
H1613 C1621 0.950 . S
H1614 C1619 0.950 . S
H1615 C1620 0.949 . S
H1616 C1622 0.950 . S
H1617 C1623 0.950 . S
H1618 C1624 0.949 . S
C1619 H1614 0.950 . S
C1619 C1621 1.327 . S
C1619 C1625 1.429 . S
C1620 C1612 1.574 . S
C1620 H1615 0.949 . S
C1620 C1626 1.368 . S
C1621 C1605 1.349 . S
C1621 H1613 0.950 . S
C1621 C1619 1.327 . S
C1622 C1610 1.349 . S
C1622 H1616 0.950 . S
C1622 C1623 1.327 . S
C1623 H1617 0.950 . S
C1623 C1622 1.327 . S
C1623 C1627 1.429 . S
C1624 C1607 1.574 . S
C1624 H1618 0.949 . S
C1624 C1628 1.368 . S
C1625 C1606 1.429 . S
C1625 C1619 1.429 . S
C1625 C1626 1.523 . S
C1626 C1607 1.368 . S
C1626 C1620 1.368 . S
C1626 C1625 1.523 . S
C1627 C1611 1.429 . S
C1627 C1623 1.429 . S
C1627 C1628 1.523 . S
C1628 C1612 1.368 . S
C1628 C1624 1.368 . S
C1628 C1627 1.523 . S
H1629 C1604 0.950 . S
H1630 C1606 0.950 . S
H1631 C1607 0.949 . S
H1632 C1609 0.950 . S
H1633 C1611 0.950 . S
C1634 C1635 1.349 . S
C1634 C1636 1.327 . S
C1634 H1659 0.950 . S
C1635 C1634 1.349 . S
C1635 C1651 1.349 . S
C1636 C1634 1.327 . S
C1636 C1655 1.429 . S
C1636 H1660 0.950 . S
C1637 C1654 1.574 . S
C1637 C1656 1.368 . S
C1637 H1661 0.949 . S
H1638 C1642 0.949 . S
C1639 C1640 1.349 . S
C1639 C1641 1.327 . S
C1639 H1662 0.950 . S
C1640 C1639 1.349 . S
C1640 C1652 1.349 . S
C1641 C1639 1.327 . S
C1641 C1657 1.429 . S
C1641 H1663 0.950 . S
C1642 H1638 0.949 . S
C1642 C1650 1.574 . S
C1642 C1658 1.368 . S
H1643 C1651 0.950 . S
H1644 C1649 0.950 . S
H1645 C1650 0.949 . S
H1646 C1652 0.950 . S
H1647 C1653 0.950 . S
H1648 C1654 0.949 . S
C1649 H1644 0.950 . S
C1649 C1651 1.327 . S
C1649 C1655 1.429 . S
C1650 C1642 1.574 . S
C1650 H1645 0.949 . S
C1650 C1656 1.368 . S
C1651 C1635 1.349 . S
C1651 H1643 0.950 . S
C1651 C1649 1.327 . S
C1652 C1640 1.349 . S
C1652 H1646 0.950 . S
C1652 C1653 1.327 . S
C1653 H1647 0.950 . S
C1653 C1652 1.327 . S
C1653 C1657 1.429 . S
C1654 C1637 1.574 . S
C1654 H1648 0.949 . S
C1654 C1658 1.368 . S
C1655 C1636 1.429 . S
C1655 C1649 1.429 . S
C1655 C1656 1.523 . S
C1656 C1637 1.368 . S
C1656 C1650 1.368 . S
C1656 C1655 1.523 . S
C1657 C1641 1.429 . S
C1657 C1653 1.429 . S
C1657 C1658 1.523 . S
C1658 C1642 1.368 . S
C1658 C1654 1.368 . S
C1658 C1657 1.523 . S
H1659 C1634 0.950 . S
H1660 C1636 0.950 . S
H1661 C1637 0.949 . S
H1662 C1639 0.950 . S
H1663 C1641 0.950 . S
C1664 C1665 1.349 . S
C1664 C1666 1.327 . S
C1664 H1689 0.950 1_556 S
C1665 C1664 1.349 . S
C1665 C1681 1.349 . S
C1666 C1664 1.327 . S
C1666 C1685 1.429 . S
C1666 H1690 0.950 1_556 S
C1667 C1684 1.574 . S
C1667 C1686 1.368 . S
C1667 H1691 0.949 . S
H1668 C1672 0.949 . S
C1669 C1670 1.349 . S
C1669 C1671 1.327 . S
C1669 H1692 0.950 . S
C1670 C1669 1.349 . S
C1670 C1682 1.349 1_556 S
C1671 C1669 1.327 . S
C1671 C1687 1.429 . S
C1671 H1693 0.950 . S
C1672 H1668 0.949 . S
C1672 C1680 1.574 1_554 S
C1672 C1688 1.368 1_554 S
H1673 C1681 0.950 . S
H1674 C1679 0.950 . S
H1675 C1680 0.949 1_554 S
H1676 C1682 0.950 . S
H1677 C1683 0.950 . S
H1678 C1684 0.949 . S
C1679 H1674 0.950 . S
C1679 C1681 1.327 . S
C1679 C1685 1.429 . S
C1680 C1672 1.574 1_556 S
C1680 H1675 0.949 1_556 S
C1680 C1686 1.369 . S
C1681 C1665 1.349 . S
C1681 H1673 0.950 . S
C1681 C1679 1.327 . S
C1682 C1670 1.349 1_554 S
C1682 H1676 0.950 . S
C1682 C1683 1.327 . S
C1683 H1677 0.950 . S
C1683 C1682 1.327 . S
C1683 C1687 1.429 1_554 S
C1684 C1667 1.574 . S
C1684 H1678 0.949 . S
C1684 C1688 1.368 . S
C1685 C1666 1.429 . S
C1685 C1679 1.429 . S
C1685 C1686 1.523 . S
C1686 C1667 1.368 . S
C1686 C1680 1.369 . S
C1686 C1685 1.523 . S
C1687 C1671 1.429 . S
C1687 C1683 1.429 1_556 S
C1687 C1688 1.523 . S
C1688 C1672 1.368 1_556 S
C1688 C1684 1.368 . S
C1688 C1687 1.523 . S
H1689 C1664 0.950 1_554 S
H1690 C1666 0.950 1_554 S
H1691 C1667 0.949 . S
H1692 C1669 0.950 . S
H1693 C1671 0.950 . S
C1694 C1695 1.349 . S
C1694 C1696 1.327 . S
C1694 H1719 0.950 . S
C1695 C1694 1.349 . S
C1695 C1711 1.349 . S
C1696 C1694 1.327 . S
C1696 C1715 1.429 . S
C1696 H1720 0.950 . S
C1697 C1714 1.574 . S
C1697 C1716 1.368 . S
C1697 H1721 0.949 . S
H1698 C1702 0.949 . S
C1699 C1700 1.349 . S
C1699 C1701 1.327 . S
C1699 H1722 0.950 . S
C1700 C1699 1.349 . S
C1700 C1712 1.349 . S
C1701 C1699 1.327 . S
C1701 C1717 1.429 . S
C1701 H1723 0.950 . S
C1702 H1698 0.949 . S
C1702 C1710 1.574 . S
C1702 C1718 1.368 . S
H1703 C1711 0.950 . S
H1704 C1709 0.950 . S
H1705 C1710 0.949 . S
H1706 C1712 0.950 . S
H1707 C1713 0.950 . S
H1708 C1714 0.949 . S
C1709 H1704 0.950 . S
C1709 C1711 1.327 . S
C1709 C1715 1.429 . S
C1710 C1702 1.574 . S
C1710 H1705 0.949 . S
C1710 C1716 1.368 . S
C1711 C1695 1.349 . S
C1711 H1703 0.950 . S
C1711 C1709 1.327 . S
C1712 C1700 1.349 . S
C1712 H1706 0.950 . S
C1712 C1713 1.327 . S
C1713 H1707 0.950 . S
C1713 C1712 1.327 . S
C1713 C1717 1.429 . S
C1714 C1697 1.574 . S
C1714 H1708 0.949 . S
C1714 C1718 1.368 . S
C1715 C1696 1.429 . S
C1715 C1709 1.429 . S
C1715 C1716 1.523 . S
C1716 C1697 1.368 . S
C1716 C1710 1.368 . S
C1716 C1715 1.523 . S
C1717 C1701 1.429 . S
C1717 C1713 1.429 . S
C1717 C1718 1.523 . S
C1718 C1702 1.368 . S
C1718 C1714 1.368 . S
C1718 C1717 1.523 . S
H1719 C1694 0.950 . S
H1720 C1696 0.950 . S
H1721 C1697 0.949 . S
H1722 C1699 0.950 . S
H1723 C1701 0.950 . S
C1724 C1725 1.349 . S
C1724 C1726 1.327 . S
C1724 H1749 0.950 . S
C1725 C1724 1.349 . S
C1725 C1741 1.349 . S
C1726 C1724 1.327 . S
C1726 C1745 1.429 . S
C1726 H1750 0.950 . S
C1727 C1744 1.574 . S
C1727 C1746 1.368 . S
C1727 H1751 0.949 . S
H1728 C1732 0.932 1_556 S
C1729 C1730 1.349 . S
C1729 C1731 1.327 . S
C1729 H1752 0.950 . S
C1730 C1729 1.349 . S
C1730 C1742 1.349 1_554 S
C1731 C1729 1.327 . S
C1731 C1747 1.429 . S
C1731 H1753 0.950 . S
C1732 H1728 0.932 1_554 S
C1732 C1740 1.574 . S
C1732 C1748 1.368 . S
H1733 C1741 0.950 . S
H1734 C1739 0.950 . S
H1735 C1740 0.949 . S
H1736 C1742 0.950 . S
H1737 C1743 0.950 1_556 S
H1738 C1744 0.949 . S
C1739 H1734 0.950 . S
C1739 C1741 1.327 . S
C1739 C1745 1.429 . S
C1740 C1732 1.574 . S
C1740 H1735 0.949 . S
C1740 C1746 1.368 . S
C1741 C1725 1.349 . S
C1741 H1733 0.950 . S
C1741 C1739 1.327 . S
C1742 C1730 1.349 1_556 S
C1742 H1736 0.950 . S
C1742 C1743 1.327 1_556 S
C1743 H1737 0.950 1_554 S
C1743 C1742 1.327 1_554 S
C1743 C1747 1.429 . S
C1744 C1727 1.574 . S
C1744 H1738 0.949 . S
C1744 C1748 1.368 . S
C1745 C1726 1.429 . S
C1745 C1739 1.429 . S
C1745 C1746 1.523 . S
C1746 C1727 1.368 . S
C1746 C1740 1.368 . S
C1746 C1745 1.523 . S
C1747 C1731 1.429 . S
C1747 C1743 1.429 . S
C1747 C1748 1.523 . S
C1748 C1732 1.368 . S
C1748 C1744 1.368 . S
C1748 C1747 1.523 . S
H1749 C1724 0.950 . S
H1750 C1726 0.950 . S
H1751 C1727 0.949 . S
H1752 C1729 0.950 . S
H1753 C1731 0.950 . S
C1754 C1755 1.349 . S
C1754 C1756 1.327 . S
C1754 H1779 0.950 . S
C1755 C1754 1.349 . S
C1755 C1771 1.349 . S
C1756 C1754 1.327 . S
C1756 C1775 1.429 . S
C1756 H1780 0.950 . S
C1757 C1774 1.574 . S
C1757 C1776 1.368 . S
C1757 H1781 0.949 . S
H1758 C1762 0.949 . S
C1759 C1760 1.349 . S
C1759 C1761 1.327 . S
C1759 H1782 0.950 . S
C1760 C1759 1.349 . S
C1760 C1772 1.349 . S
C1761 C1759 1.327 . S
C1761 C1777 1.429 . S
C1761 H1783 0.950 . S
C1762 H1758 0.949 . S
C1762 C1770 1.574 . S
C1762 C1778 1.368 . S
H1763 C1771 0.950 . S
H1764 C1769 0.950 1_565 S
H1765 C1770 0.945 1_545 S
H1766 C1772 0.950 . S
H1767 C1773 0.950 . S
H1768 C1774 0.949 . S
C1769 H1764 0.950 1_545 S
C1769 C1771 1.327 . S
C1769 C1775 1.429 . S
C1770 C1762 1.574 . S
C1770 H1765 0.945 1_565 S
C1770 C1776 1.368 . S
C1771 C1755 1.349 . S
C1771 H1763 0.950 . S
C1771 C1769 1.327 . S
C1772 C1760 1.349 . S
C1772 H1766 0.950 . S
C1772 C1773 1.327 . S
C1773 H1767 0.950 . S
C1773 C1772 1.327 . S
C1773 C1777 1.429 . S
C1774 C1757 1.574 . S
C1774 H1768 0.949 . S
C1774 C1778 1.368 . S
C1775 C1756 1.429 . S
C1775 C1769 1.429 . S
C1775 C1776 1.523 1_545 S
C1776 C1757 1.368 . S
C1776 C1770 1.368 . S
C1776 C1775 1.523 1_565 S
C1777 C1761 1.429 . S
C1777 C1773 1.429 . S
C1777 C1778 1.523 . S
C1778 C1762 1.368 . S
C1778 C1774 1.368 . S
C1778 C1777 1.523 . S
H1779 C1754 0.950 . S
H1780 C1756 0.950 . S
H1781 C1757 0.949 . S
H1782 C1759 0.950 . S
H1783 C1761 0.950 . S
C350 C184 1.601 1_556 S
C345 C60 1.640 . S
C380 C197 1.255 . S
C375 C76 1.262 . S
C405 C81 1.858 . S
C410 C217 1.733 . S
C440 C231 1.421 . S
C435 C48 1.520 . S
C470 C243 1.541 . S
C465 C115 1.545 . S
C500 C257 1.526 . S
C495 C136 1.533 . S
C525 C131 1.269 . S
C530 C267 1.258 . S
C560 C282 1.546 . S
C555 C104 1.548 . S
C585 C126 1.494 . S
C590 C296 1.446 . S
C620 C315 1.202 . S
C615 C103 1.289 . S
C645 C120 1.393 . S
C650 C295 1.381 . S
C680 C313 1.327 . S
C675 C142 1.333 . S
C705 C82 1.667 . S
C710 C329 1.553 . S
C735 C54 1.854 . S
C740 C323 1.842 . S
C765 C65 1.438 . S
C770 C327 1.440 . S
C795 C71 1.248 . S
C800 C324 1.240 . S
C825 C37 1.582 . S
C830 C226 1.552 . S
C855 C158 1.989 . S
C860 C225 1.980 . S
C890 C189 1.248 . S
C885 C169 1.309 . S
C920 C203 1.297 . S
C915 C98 1.397 . S
C945 C49 1.763 . S
C950 C240 1.764 . S
C980 C285 1.445 . S
C975 C125 1.452 . S
C1010 C239 1.302 . S
C1005 C109 1.306 1_545 S
C1040 C271 1.752 . S
C1035 C137 1.745 . S
C1070 C268 1.602 . S
C1065 C159 1.641 . S
C1095 C175 1.261 . S
C1100 C281 1.255 . S
C1125 C92 1.858 . S
C1130 C245 1.731 . S
C1160 C259 1.421 . S
C1155 C147 1.520 . S
C1185 C38 1.545 . S
C1190 C215 1.540 . S
C1220 C229 1.526 . S
C1215 C4 1.533 . S
C1250 C183 1.257 . S
C1245 C21 1.269 . S
C1280 C198 1.546 . S
C1275 C27 1.549 . S
C1305 C16 1.494 . S
C1310 C310 1.446 . S
C1335 C26 1.289 . S
C1340 C301 1.202 . S
C1365 C43 1.393 . S
C1370 C309 1.381 . S
C1395 C10 1.333 . S
C1400 C299 1.327 . S
C1430 C343 1.553 . S
C1425 C93 1.667 . S
C1460 C337 1.842 . S
C1455 C153 1.853 . S
C1490 C341 1.440 . S
C1485 C164 1.438 . S
C1515 C170 1.248 . S
C1520 C338 1.240 . S
C1545 C114 1.582 . S
C1550 C254 1.552 . S
C1580 C253 1.980 . S
C1575 C59 1.989 . S
C1610 C273 1.248 . S
C1605 C70 1.309 . S
C1640 C287 1.297 . S
C1635 C87 1.397 . S
C1665 C148 1.763 . S
C1670 C212 1.764 . S
C1700 C201 1.445 . S
C1695 C15 1.452 . S
C1725 C32 1.306 . S
C1730 C211 1.301 . S
C1760 C187 1.752 . S
C1755 C5 1.745 . S
