# Generated by pormake.
# Topology csq, (4,8)-cn, num edge types: 1
# Building blocks:
#     Node 0, Type 0, BuildingBlock: MUDLON_clean_linker_0, # of connection points: 4
#     Node 1, Type 0, BuildingBlock: MUDLON_clean_linker_0, # of connection points: 4
#     Node 2, Type 0, BuildingBlock: MUDLON_clean_linker_0, # of connection points: 4
#     Node 3, Type 0, BuildingBlock: MUDLON_clean_linker_0, # of connection points: 4
#     Node 4, Type 0, BuildingBlock: MUDLON_clean_linker_0, # of connection points: 4
#     Node 5, Type 0, BuildingBlock: MUDLON_clean_linker_0, # of connection points: 4
#     Node 6, Type 1, BuildingBlock: TAGTUT_clean_sbu_1, # of connection points: 8
#     Node 7, Type 1, BuildingBlock: TAGTUT_clean_sbu_1, # of connection points: 8
#     Node 8, Type 1, BuildingBlock: TAGTUT_clean_sbu_1, # of connection points: 8
#     Edge 9, Type (0, 1), BuildingBlock: KIFKEQ_clean_linker_1, # of connection points: 2
#     Edge 10, Type (0, 1), BuildingBlock: KIFKEQ_clean_linker_1, # of connection points: 2
#     Edge 11, Type (0, 1), BuildingBlock: KIFKEQ_clean_linker_1, # of connection points: 2
#     Edge 12, Type (0, 1), BuildingBlock: KIFKEQ_clean_linker_1, # of connection points: 2
#     Edge 13, Type (0, 1), BuildingBlock: KIFKEQ_clean_linker_1, # of connection points: 2
#     Edge 14, Type (0, 1), BuildingBlock: KIFKEQ_clean_linker_1, # of connection points: 2
#     Edge 15, Type (0, 1), BuildingBlock: KIFKEQ_clean_linker_1, # of connection points: 2
#     Edge 16, Type (0, 1), BuildingBlock: KIFKEQ_clean_linker_1, # of connection points: 2
#     Edge 17, Type (0, 1), BuildingBlock: KIFKEQ_clean_linker_1, # of connection points: 2
#     Edge 18, Type (0, 1), BuildingBlock: KIFKEQ_clean_linker_1, # of connection points: 2
#     Edge 19, Type (0, 1), BuildingBlock: KIFKEQ_clean_linker_1, # of connection points: 2
#     Edge 20, Type (0, 1), BuildingBlock: KIFKEQ_clean_linker_1, # of connection points: 2
#     Edge 21, Type (0, 1), BuildingBlock: KIFKEQ_clean_linker_1, # of connection points: 2
#     Edge 22, Type (0, 1), BuildingBlock: KIFKEQ_clean_linker_1, # of connection points: 2
#     Edge 23, Type (0, 1), BuildingBlock: KIFKEQ_clean_linker_1, # of connection points: 2
#     Edge 24, Type (0, 1), BuildingBlock: KIFKEQ_clean_linker_1, # of connection points: 2
#     Edge 25, Type (0, 1), BuildingBlock: KIFKEQ_clean_linker_1, # of connection points: 2
#     Edge 26, Type (0, 1), BuildingBlock: KIFKEQ_clean_linker_1, # of connection points: 2
#     Edge 27, Type (0, 1), BuildingBlock: KIFKEQ_clean_linker_1, # of connection points: 2
#     Edge 28, Type (0, 1), BuildingBlock: KIFKEQ_clean_linker_1, # of connection points: 2
#     Edge 29, Type (0, 1), BuildingBlock: KIFKEQ_clean_linker_1, # of connection points: 2
#     Edge 30, Type (0, 1), BuildingBlock: KIFKEQ_clean_linker_1, # of connection points: 2
#     Edge 31, Type (0, 1), BuildingBlock: KIFKEQ_clean_linker_1, # of connection points: 2
#     Edge 32, Type (0, 1), BuildingBlock: KIFKEQ_clean_linker_1, # of connection points: 2
# Relax obj value: 0.046
# Max RMSD: 0.134
# Mean RMSD: 0.093
data_MOF--net-csq--node1-TAGTUT_clean_sbu_1--node2-MUDLON_clean_linker_0--edge1-KIFKEQ_clean_linker_1
_symmetry_space_group_name_H-M    P1
_symmetry_Int_Tables_number       1
_symmetry_cell_setting            triclinic
loop_
_symmetry_equiv_pos_as_xyz
'x, y, z'
_cell_length_a     71.126518
_cell_length_b     70.488384
_cell_length_c     23.996366
_cell_angle_alpha  92.702946
_cell_angle_beta   92.348695
_cell_angle_gamma 119.87712
loop_
_atom_site_label
_atom_site_type_symbol
_atom_site_fract_x
_atom_site_fract_y
_atom_site_fract_z
_atom_type_partial_charge
H0 H 0.34103 0.5038 0.17897 0.0
N1 N 0.30618 0.46399 0.14186 0.0
H2 H 0.36338 0.5124 0.26662 0.0
H3 H 0.29967 0.43784 0.22399 0.0
H4 H 0.3213 0.44647 0.31316 0.0
H5 H 0.32299 0.44147 0.09568 0.0
H6 H 0.34624 0.45087 0.01717 0.0
H7 H 0.31731 0.49902 0.0781 0.0
H8 H 0.34015 0.50818 0.99823 0.0
H9 H 0.30209 0.49916 0.17778 0.0
H10 H 0.26651 0.43238 0.1059 0.0
H11 H 0.26793 0.49894 0.18883 0.0
H12 H 0.23232 0.43223 0.11414 0.0
H13 H 0.17871 0.49672 0.2369 0.0
H14 H 0.16206 0.50301 0.31731 0.0
H15 H 0.11644 0.43323 0.31221 0.0
H16 H 0.13207 0.42766 0.22867 0.0
H17 H 0.14423 0.42938 0.08547 0.0
H18 H 0.13041 0.4353 0.99689 0.0
H19 H 0.15055 0.50168 0.05995 0.0
H20 H 0.16537 0.49595 0.14638 0.0
H21 H 0.2013 0.49507 0.15519 0.0
H22 H 0.2367 0.49795 0.14415 0.0
H23 H 0.21009 0.43076 0.18619 0.0
N24 N 0.16367 0.45781 0.17411 0.0
H25 H 0.17467 0.42789 0.19445 0.0
C26 C 0.31891 0.47002 0.19469 0.0
C27 C 0.33666 0.49123 0.20808 0.0
C28 C 0.34928 0.49618 0.25862 0.0
C29 C 0.34425 0.4801 0.29711 0.0
C30 C 0.32594 0.45914 0.28423 0.0
C31 C 0.31349 0.45418 0.23349 0.0
C32 C 0.31828 0.46936 0.09255 0.0
C33 C 0.32651 0.45595 0.07427 0.0
C34 C 0.3398 0.46136 0.02965 0.0
C35 C 0.34495 0.48024 0.00172 0.0
C36 C 0.33625 0.49345 0.01885 0.0
C37 C 0.32321 0.48821 0.06442 0.0
C38 C 0.28675 0.4656 0.14161 0.0
C39 C 0.28692 0.48456 0.16355 0.0
C40 C 0.26734 0.48442 0.16962 0.0
C41 C 0.24727 0.46542 0.15338 0.0
C42 C 0.24737 0.44695 0.12869 0.0
C43 C 0.26689 0.44705 0.12319 0.0
C44 C 0.15613 0.46177 0.22584 0.0
C45 C 0.16498 0.48287 0.25284 0.0
C46 C 0.15558 0.48635 0.29961 0.0
C47 C 0.13752 0.4687 0.32135 0.0
C48 C 0.12976 0.44741 0.296 0.0
C49 C 0.13882 0.44408 0.24852 0.0
C50 C 0.15545 0.46198 0.12298 0.0
C51 C 0.14564 0.44519 0.07989 0.0
C52 C 0.13766 0.44861 0.02943 0.0
C53 C 0.13915 0.46895 0.02112 0.0
C54 C 0.14931 0.48589 0.06429 0.0
C55 C 0.15755 0.48252 0.11444 0.0
C56 C 0.18534 0.46113 0.1751 0.0
C57 C 0.2032 0.48106 0.16238 0.0
C58 C 0.22346 0.48268 0.15624 0.0
C59 C 0.22623 0.46446 0.16322 0.0
C60 C 0.20848 0.44494 0.17881 0.0
C61 C 0.18828 0.44331 0.18435 0.0
H62 H 0.70336 0.1097 0.1955 0.0
N63 N 0.71151 0.14339 0.13633 0.0
H64 H 0.68445 0.0998 0.2811 0.0
H65 H 0.69527 0.16623 0.19205 0.0
H66 H 0.67458 0.15555 0.27502 0.0
H67 H 0.67801 0.15019 0.10343 0.0
H68 H 0.65537 0.13622 0.01637 0.0
H69 H 0.71527 0.12046 0.0507 0.0
H70 H 0.69318 0.10714 0.9614 0.0
H71 H 0.74882 0.15337 0.19073 0.0
H72 H 0.71852 0.1811 0.08952 0.0
H73 H 0.78316 0.18788 0.19546 0.0
H74 H 0.75312 0.21497 0.08958 0.0
H75 H 0.89297 0.29151 0.1823 0.0
H76 H 0.91551 0.32253 0.25047 0.0
H77 H 0.86336 0.33701 0.25895 0.0
H78 H 0.841 0.30607 0.19115 0.0
H79 H 0.84528 0.31173 0.09388 0.0
H80 H 0.86315 0.33552 0.02019 0.0
H81 H 0.89321 0.29696 0.97741 0.0
H82 H 0.87635 0.27417 0.0544 0.0
H83 H 0.84668 0.24089 0.14009 0.0
H84 H 0.81143 0.20777 0.14195 0.0
H85 H 0.78016 0.24701 0.13623 0.0
N86 N 0.85493 0.28146 0.13254 0.0
H87 H 0.81542 0.27963 0.12916 0.0
C88 C 0.70019 0.13827 0.18676 0.0
C89 C 0.69713 0.11975 0.21295 0.0
C90 C 0.68614 0.11407 0.26168 0.0
C91 C 0.67747 0.12657 0.28478 0.0
C92 C 0.68105 0.14553 0.25895 0.0
C93 C 0.69255 0.15148 0.21082 0.0
C94 C 0.69817 0.136 0.0842 0.0
C95 C 0.6814 0.14068 0.07315 0.0
C96 C 0.66861 0.13293 0.02259 0.0
C97 C 0.67242 0.12054 0.98155 0.0
C98 C 0.68956 0.11634 0.99226 0.0
C99 C 0.70225 0.12399 0.04311 0.0
C100 C 0.73122 0.1644 0.13902 0.0
C101 C 0.74969 0.16688 0.16905 0.0
C102 C 0.76937 0.1866 0.1711 0.0
C103 C 0.77121 0.20424 0.14188 0.0
C104 C 0.75244 0.20192 0.11299 0.0
C105 C 0.73257 0.18233 0.11225 0.0
C106 C 0.86535 0.2964 0.18148 0.0
C107 C 0.8862 0.30099 0.20024 0.0
C108 C 0.89906 0.31876 0.23894 0.0
C109 C 0.89127 0.33236 0.25941 0.0
C110 C 0.86989 0.327 0.24311 0.0
C111 C 0.85699 0.30912 0.20464 0.0
C112 C 0.85996 0.29149 0.08037 0.0
C113 C 0.85538 0.30813 0.06808 0.0
C114 C 0.86557 0.32169 0.02543 0.0
C115 C 0.88014 0.31856 0.99364 0.0
C116 C 0.8827 0.30033 0.00227 0.0
C117 C 0.87284 0.28707 0.04562 0.0
C118 C 0.83374 0.26269 0.13574 0.0
C119 C 0.83215 0.24223 0.13937 0.0
C120 C 0.81194 0.22335 0.14101 0.0
C121 C 0.79276 0.22458 0.14018 0.0
C122 C 0.79445 0.24527 0.13654 0.0
C123 C 0.81472 0.26412 0.13353 0.0
H124 H 0.60573 0.89322 0.9679 0.0
N125 N 0.58517 0.86226 0.03638 0.0
H126 H 0.58915 0.90352 0.89315 0.0
H127 H 0.5439 0.83583 0.98765 0.0
H128 H 0.52683 0.84648 0.9138 0.0
H129 H 0.54582 0.85213 0.07623 0.0
H130 H 0.53944 0.87357 0.14698 0.0
H131 H 0.61488 0.89744 0.09939 0.0
H132 H 0.60841 0.91941 0.17054 0.0
H133 H 0.61135 0.84996 0.99291 0.0
H134 H 0.55688 0.82762 0.09554 0.0
H135 H 0.61208 0.81611 0.00467 0.0
H136 H 0.55838 0.79478 0.11033 0.0
H137 H 0.61821 0.71259 0.06598 0.0
H138 H 0.60958 0.68127 -0.00018 0.0
H139 H 0.5463 0.67336 0.95869 0.0
H140 H 0.55506 0.70471 0.02352 0.0
H141 H 0.54899 0.69685 0.11915 0.0
H142 H 0.53801 0.67193 0.19305 0.0
H143 H 0.60442 0.70407 0.26364 0.0
H144 H 0.61544 0.72932 0.1891 0.0
H145 H 0.6237 0.76583 0.08724 0.0
H146 H 0.62189 0.79889 0.07169 0.0
H147 H 0.55175 0.76109 0.07007 0.0
N148 N 0.59119 0.7259 0.0981 0.0
H149 H 0.55391 0.72878 0.08933 0.0
C150 C 0.57602 0.86411 0.98381 0.0
C151 C 0.5887 0.88249 0.95471 0.0
C152 C 0.57915 0.88832 0.91211 0.0
C153 C 0.55663 0.87591 0.89824 0.0
C154 C 0.54418 0.85643 0.92424 0.0
C155 C 0.5539 0.85037 0.96632 0.0
C156 C 0.58102 0.8729 0.08319 0.0
C157 C 0.55972 0.86641 0.09727 0.0
C158 C 0.55602 0.87876 0.13766 0.0
C159 C 0.57343 0.8981 0.16405 0.0
C160 C 0.59471 0.90458 0.15047 0.0
C161 C 0.59844 0.89197 0.11049 0.0
C162 C 0.58434 0.84167 0.04356 0.0
C163 C 0.59964 0.83784 0.01819 0.0
C164 C 0.60015 0.81857 0.02546 0.0
C165 C 0.58544 0.80274 0.05903 0.0
C166 C 0.56981 0.80642 0.08364 0.0
C167 C 0.56909 0.82553 0.07555 0.0
C168 C 0.58737 0.71102 0.05015 0.0
C169 C 0.60276 0.70451 0.04132 0.0
C170 C 0.59777 0.6866 0.00386 0.0
C171 C 0.57714 0.67475 0.97504 0.0
C172 C 0.56219 0.68205 0.98122 0.0
C173 C 0.5673 0.70013 0.01812 0.0
C174 C 0.58321 0.71505 0.14836 0.0
C175 C 0.56116 0.69926 0.1514 0.0
C176 C 0.55486 0.68479 0.19353 0.0
C177 C 0.57042 0.68588 0.23342 0.0
C178 C 0.59208 0.70293 0.23346 0.0
C179 C 0.5984 0.71736 0.19106 0.0
C180 C 0.58907 0.7448 0.08901 0.0
C181 C 0.60798 0.7648 0.08371 0.0
C182 C 0.60686 0.78361 0.07426 0.0
C183 C 0.58664 0.78269 0.06911 0.0
C184 C 0.56764 0.76254 0.07447 0.0
C185 C 0.56883 0.74383 0.08489 0.0
H186 H 0.8673 0.57564 0.15312 0.0
N187 N 0.84719 0.54696 0.06519 0.0
H188 H 0.88113 0.56974 0.24172 0.0
H189 H 0.84459 0.50855 0.094 0.0
H190 H 0.8594 0.5028 0.18042 0.0
H191 H 0.83175 0.50784 0.00313 0.0
H192 H 0.84818 0.50104 0.92296 0.0
H193 H 0.87896 0.57671 0.01018 0.0
H194 H 0.89437 0.57065 0.92682 0.0
H195 H 0.8368 0.57732 0.04453 0.0
H196 H 0.8092 0.51006 0.08399 0.0
H197 H 0.80157 0.57498 0.05201 0.0
H198 H 0.77399 0.50771 0.09423 0.0
H199 H 0.69389 0.56805 0.15361 0.0
H200 H 0.67247 0.55975 0.23517 0.0
H201 H 0.66957 0.49702 0.23644 0.0
H202 H 0.69054 0.50536 0.15348 0.0
H203 H 0.67059 0.50303 0.05902 0.0
H204 H 0.64812 0.49505 0.97201 0.0
H205 H 0.6896 0.56166 0.92915 0.0
H206 H 0.71138 0.56966 0.01783 0.0
H207 H 0.74535 0.57414 0.13224 0.0
H208 H 0.77931 0.57387 0.12359 0.0
H209 H 0.74306 0.50719 0.04895 0.0
N210 N 0.70546 0.54269 0.09752 0.0
H211 H 0.70912 0.5074 0.06029 0.0
C212 C 0.85528 0.54277 0.11649 0.0
C213 C 0.86553 0.55971 0.1591 0.0
C214 C 0.87351 0.5563 0.20958 0.0
C215 C 0.8716 0.53581 0.21838 0.0
C216 C 0.86099 0.51872 0.17571 0.0
C217 C 0.85274 0.52209 0.12555 0.0
C218 C 0.85462 0.54273 0.0136 0.0
C219 C 0.84557 0.52155 0.987 0.0
C220 C 0.85484 0.51778 0.94033 0.0
C221 C 0.87299 0.53523 0.91828 0.0
C222 C 0.88098 0.55661 0.94326 0.0
C223 C 0.87204 0.56022 0.99064 0.0
C224 C 0.82564 0.544 0.06405 0.0
C225 C 0.82302 0.562 0.05452 0.0
C226 C 0.80293 0.56067 0.05959 0.0
C227 C 0.78496 0.54128 0.07496 0.0
C228 C 0.78741 0.52289 0.08227 0.0
C229 C 0.80756 0.5242 0.07661 0.0
C230 C 0.69392 0.53747 0.1477 0.0
C231 C 0.68876 0.5526 0.17188 0.0
C232 C 0.67662 0.54784 0.21878 0.0
C233 C 0.66935 0.52774 0.24293 0.0
C234 C 0.67472 0.51258 0.21882 0.0
C235 C 0.68686 0.51738 0.17158 0.0
C236 C 0.69245 0.53711 0.04528 0.0
C237 C 0.6748 0.51591 0.031 0.0
C238 C 0.66211 0.51131 0.98073 0.0
C239 C 0.66695 0.52772 0.94336 0.0
C240 C 0.6851 0.54871 0.9572 0.0
C241 C 0.69764 0.55332 0.00768 0.0
C242 C 0.7248 0.54096 0.09658 0.0
C243 C 0.74478 0.5594 0.11475 0.0
C244 C 0.76417 0.55926 0.10906 0.0
C245 C 0.76404 0.54065 0.08443 0.0
C246 C 0.74384 0.5218 0.06816 0.0
C247 C 0.72438 0.52191 0.0744 0.0
H248 H 0.17465 0.70514 0.1787 0.0
N249 N 0.15693 0.72019 0.10156 0.0
H250 H 0.15477 0.68055 0.2506 0.0
H251 H 0.11949 0.71296 0.13767 0.0
H252 H 0.09964 0.68876 0.20984 0.0
H253 H 0.13122 0.71696 0.01442 0.0
H254 H 0.11148 0.6856 0.94576 0.0
H255 H 0.16568 0.68671 0.08422 0.0
H256 H 0.14664 0.65564 0.01463 0.0
H257 H 0.19557 0.72186 0.08048 0.0
H258 H 0.16715 0.76084 0.13204 0.0
H259 H 0.23102 0.75492 0.08125 0.0
H260 H 0.20279 0.79394 0.13613 0.0
H261 H 0.3345 0.85075 0.14109 0.0
H262 H 0.35739 0.86458 0.22769 0.0
H263 H 0.31975 0.8936 0.28466 0.0
H264 H 0.29754 0.88057 0.19563 0.0
H265 H 0.30613 0.89042 0.04938 0.0
H266 H 0.32413 0.90112 0.96277 0.0
H267 H 0.33911 0.84872 0.96881 0.0
H268 H 0.31898 0.83691 0.05215 0.0
H269 H 0.29546 0.81811 0.13612 0.0
H270 H 0.26071 0.78398 0.13697 0.0
H271 H 0.22742 0.81682 0.07432 0.0
N272 N 0.30109 0.85786 0.10931 0.0
H273 H 0.26211 0.85101 0.07678 0.0
C274 C 0.14835 0.71065 0.15273 0.0
C275 C 0.15852 0.7021 0.18643 0.0
C276 C 0.14716 0.68807 0.2274 0.0
C277 C 0.12553 0.68245 0.23489 0.0
C278 C 0.11615 0.6925 0.20416 0.0
C279 C 0.1275 0.70649 0.16349 0.0
C280 C 0.14999 0.70434 0.0541 0.0
C281 C 0.13513 0.70394 0.01342 0.0
C282 C 0.12386 0.68595 0.97429 0.0
C283 C 0.12733 0.66796 0.97498 0.0
C284 C 0.14332 0.66904 0.01354 0.0
C285 C 0.15449 0.68701 0.0529 0.0
C286 C 0.17853 0.73895 0.1052 0.0
C287 C 0.19691 0.73747 0.0924 0.0
C288 C 0.21732 0.75647 0.09335 0.0
C289 C 0.21979 0.77721 0.10795 0.0
C290 C 0.20147 0.77838 0.12306 0.0
C291 C 0.1811 0.75948 0.1213 0.0
C292 C 0.31451 0.86505 0.1612 0.0
C293 C 0.33119 0.86021 0.1717 0.0
C294 C 0.34414 0.8679 0.22204 0.0
C295 C 0.3405 0.88028 0.26352 0.0
C296 C 0.32332 0.88448 0.25346 0.0
C297 C 0.31055 0.87698 0.20276 0.0
C298 C 0.31185 0.86341 0.05812 0.0
C299 C 0.31326 0.88126 0.03164 0.0
C300 C 0.32378 0.88744 0.98231 0.0
C301 C 0.33371 0.87621 0.95894 0.0
C302 C 0.33169 0.85782 0.98498 0.0
C303 C 0.32055 0.85126 0.03354 0.0
C304 C 0.28121 0.83716 0.10728 0.0
C305 C 0.28065 0.81793 0.12292 0.0
C306 C 0.26075 0.79837 0.12292 0.0
C307 C 0.24115 0.79766 0.10645 0.0
C308 C 0.24204 0.81684 0.08885 0.0
C309 C 0.26184 0.83636 0.08965 0.0
H310 H 0.48215 0.32769 0.12143 0.0
N311 N 0.4462 0.28912 0.14431 0.0
H312 H 0.48465 0.34963 0.04504 0.0
H313 H 0.41836 0.27714 0.05452 0.0
H314 H 0.42092 0.2993 0.97616 0.0
H315 H 0.4145 0.29463 0.18158 0.0
H316 H 0.41844 0.32389 0.24879 0.0
H317 H 0.48233 0.31543 0.21574 0.0
H318 H 0.48635 0.34469 0.28198 0.0
H319 H 0.48819 0.29903 0.12558 0.0
H320 H 0.42701 0.24909 0.17942 0.0
H321 H 0.50396 0.2761 0.14157 0.0
H322 H 0.4428 0.22561 0.19463 0.0
H323 H 0.53931 0.18292 0.1561 0.0
H324 H 0.53146 0.15344 0.08547 0.0
H325 H 0.46544 0.14059 0.05964 0.0
H326 H 0.47317 0.16921 0.13273 0.0
H327 H 0.47196 0.16167 0.23252 0.0
H328 H 0.4668 0.13493 0.29964 0.0
H329 H 0.5364 0.16766 0.33748 0.0
H330 H 0.54121 0.19498 0.27222 0.0
H331 H 0.51736 0.2194 0.11726 0.0
H332 H 0.50158 0.24265 0.10279 0.0
H333 H 0.47022 0.22414 0.2572 0.0
N334 N 0.5112 0.19291 0.19894 0.0
H335 H 0.48569 0.20085 0.2717 0.0
C336 C 0.45 0.30048 0.0938 0.0
C337 C 0.46891 0.32085 0.08933 0.0
C338 C 0.47036 0.33352 0.04522 0.0
C339 C 0.45296 0.32627 0.00451 0.0
C340 C 0.43452 0.30543 0.00724 0.0
C341 C 0.43311 0.29267 0.05155 0.0
C342 C 0.44802 0.30282 0.19319 0.0
C343 C 0.43003 0.30506 0.20478 0.0
C344 C 0.43234 0.3218 0.24287 0.0
C345 C 0.45279 0.33671 0.26966 0.0
C346 C 0.47049 0.33358 0.26107 0.0
C347 C 0.46812 0.31669 0.22349 0.0
C348 C 0.45615 0.27574 0.1509 0.0
C349 C 0.47795 0.28308 0.14026 0.0
C350 C 0.48705 0.26985 0.14935 0.0
C351 C 0.47464 0.24901 0.16924 0.0
C352 C 0.45287 0.24169 0.17986 0.0
C353 C 0.44378 0.25497 0.17078 0.0
C354 C 0.50698 0.17837 0.14965 0.0
C355 C 0.52329 0.17398 0.13435 0.0
C356 C 0.51873 0.15712 0.09381 0.0
C357 C 0.49773 0.14445 0.06697 0.0
C358 C 0.48165 0.14965 0.08026 0.0
C359 C 0.48614 0.16627 0.12155 0.0
C360 C 0.50707 0.18053 0.24772 0.0
C361 C 0.48604 0.16355 0.25677 0.0
C362 C 0.48315 0.14805 0.2946 0.0
C363 C 0.50121 0.14882 0.3232 0.0
C364 C 0.52207 0.16659 0.31668 0.0
C365 C 0.5249 0.1823 0.27949 0.0
C366 C 0.50202 0.20721 0.19385 0.0
C367 C 0.5069 0.22011 0.14784 0.0
C368 C 0.49801 0.23358 0.13981 0.0
C369 C 0.48434 0.23494 0.1784 0.0
C370 C 0.48017 0.22289 0.22585 0.0
C371 C 0.48906 0.20937 0.23392 0.0
C372 C 0.98068 0.4411 0.7669 0.0
C373 C 0.04653 0.48327 0.72645 0.0
C374 C 0.02391 0.54468 0.70681 0.0
Mg375 Mg 0.00331 0.45609 0.65667 0.0
O376 O 0.99492 0.47713 0.6707 0.0
Mg377 Mg 0.00616 0.495 0.74435 0.0
Mg378 Mg 0.0047 0.50116 0.61955 0.0
O379 O 0.01454 0.52517 0.56854 0.0
Mg380 Mg 0.00714 0.54691 0.58268 0.0
Mg381 Mg 0.0033 0.50748 0.49483 0.0
C382 C 0.98641 0.45805 0.53226 0.0
C383 C 0.04254 0.50105 0.54662 0.0
O384 O 0.98733 0.46126 0.78338 0.0
O385 O 0.98473 0.4354 0.71938 0.0
O386 O 0.03741 0.49269 0.75102 0.0
O387 O 0.03703 0.46945 0.68423 0.0
O388 O 0.99229 0.44858 0.56796 0.0
O389 O 0.98683 0.47622 0.54474 0.0
C390 C 0.96684 0.50127 0.69244 0.0
O391 O 0.9746 0.5038 0.64414 0.0
O392 O 0.97566 0.49744 0.73469 0.0
O393 O 0.02228 0.54121 0.45558 0.0
O394 O 0.02653 0.56739 0.52082 0.0
O395 O 0.97225 0.51021 0.48864 0.0
C396 C 0.02996 0.5615 0.4727 0.0
O397 O 0.97359 0.53435 0.55438 0.0
O398 O 0.0184 0.55444 0.67114 0.0
C399 C 0.96365 0.52026 0.51282 0.0
O400 O 0.02261 0.5261 0.69419 0.0
O401 O 0.03481 0.49857 0.59494 0.0
O402 O 0.03371 0.50486 0.50434 0.0
C403 C 0.47347 0.02132 0.79374 0.0
C404 C 0.44333 0.95828 0.69968 0.0
C405 C 0.52674 0.97589 0.68793 0.0
Mg406 Mg 0.46497 0.00593 0.66731 0.0
O407 O 0.49256 0.00917 0.68187 0.0
Mg408 Mg 0.49644 0.99278 0.74297 0.0
Mg409 Mg 0.50635 0.00133 0.62173 0.0
O410 O 0.52053 0.9939 0.5617 0.0
Mg411 Mg 0.54907 0.00064 0.58061 0.0
Mg412 Mg 0.5169 0.01045 0.5005 0.0
C413 C 0.48734 0.02897 0.55753 0.0
C414 C 0.46945 0.96961 0.52386 0.0
O415 O 0.48417 0.01118 0.80017 0.0
O416 O 0.46494 0.0218 0.74606 0.0
O417 O 0.46125 0.96365 0.72749 0.0
O418 O 0.44141 0.97162 0.66894 0.0
O419 O 0.47172 0.02309 0.59011 0.0
O420 O 0.50259 0.02443 0.56566 0.0
C421 C 0.54399 0.03277 0.71885 0.0
O422 O 0.53913 0.02836 0.66596 0.0
O423 O 0.53064 0.02183 0.75468 0.0
O424 O 0.53169 0.99364 0.44444 0.0
O425 O 0.55186 0.98597 0.50425 0.0
O426 O 0.55121 0.04072 0.51649 0.0
C427 C 0.54389 0.98532 0.45486 0.0
O428 O 0.57128 0.03531 0.58031 0.0
O429 O 0.54292 0.98377 0.65705 0.0
C430 C 0.56893 0.04758 0.54671 0.0
O431 O 0.50996 0.97794 0.67811 0.0
O432 O 0.47378 0.97435 0.57687 0.0
O433 O 0.4831 0.98047 0.48841 0.0
C434 C 0.54346 0.56134 0.46889 0.0
C435 C 0.562 0.5144 0.51377 0.0
C436 C 0.47616 0.46064 0.53456 0.0
Mg437 Mg 0.5515 0.54558 0.58131 0.0
O438 O 0.52139 0.52698 0.567 0.0
Mg439 Mg 0.5115 0.50829 0.4946 0.0
Mg440 Mg 0.50574 0.50406 0.61958 0.0
O441 O 0.49002 0.48106 0.67179 0.0
Mg442 Mg 0.45987 0.46239 0.65676 0.0
Mg443 Mg 0.49984 0.49965 0.74414 0.0
C444 C 0.53583 0.54705 0.70451 0.0
C445 C 0.54172 0.4992 0.69654 0.0
O446 O 0.5285 0.54153 0.45336 0.0
O447 O 0.55418 0.5667 0.51678 0.0
O448 O 0.54294 0.50636 0.48954 0.0
O449 O 0.56848 0.52874 0.55528 0.0
O450 O 0.55067 0.55461 0.66945 0.0
O451 O 0.51686 0.53024 0.69198 0.0
C452 C 0.4697 0.50883 0.54272 0.0
O453 O 0.47502 0.50597 0.59209 0.0
O454 O 0.48105 0.51044 0.50139 0.0
O455 O 0.48254 0.4663 0.78508 0.0
O456 O 0.45699 0.44122 0.72132 0.0
O457 O 0.46855 0.50171 0.74813 0.0
C458 C 0.46756 0.44651 0.76941 0.0
O459 O 0.44278 0.47921 0.68291 0.0
O460 O 0.46108 0.45291 0.56897 0.0
C461 C 0.44947 0.49374 0.72408 0.0
O462 O 0.49475 0.47791 0.54747 0.0
O463 O 0.53647 0.50216 0.64721 0.0
O464 O 0.53028 0.49744 0.73778 0.0
H465 H 0.15471 0.50064 0.41001 0.0
H466 H 0.09388 0.44572 0.33838 0.0
H467 H 0.13494 0.50895 0.47887 0.0
H468 H 0.07468 0.45337 0.40915 0.0
H469 H 0.04608 0.46492 0.56198 0.0
H470 H 0.07181 0.4562 0.51831 0.0
H471 H 0.1059 0.52142 0.46148 0.0
H472 H 0.0799 0.5298 0.50362 0.0
C473 C 0.13725 0.49018 0.40897 0.0
C474 C 0.12603 0.47253 0.36782 0.0
C475 C 0.12598 0.49485 0.44896 0.0
C476 C 0.10332 0.48169 0.44964 0.0
C477 C 0.09221 0.46354 0.41035 0.0
C478 C 0.10335 0.45914 0.36972 0.0
C479 C 0.0596 0.4776 0.54206 0.0
C480 C 0.06121 0.49807 0.53644 0.0
C481 C 0.07417 0.47257 0.51667 0.0
C482 C 0.09079 0.48812 0.48636 0.0
C483 C 0.0934 0.5092 0.48498 0.0
C484 C 0.07857 0.51402 0.50914 0.0
H485 H 0.65007 0.08441 0.3104 0.0
H486 H 0.67393 0.15195 0.37099 0.0
H487 H 0.6282 0.0721 0.39004 0.0
H488 H 0.65052 0.13912 0.44917 0.0
H489 H 0.61157 0.05963 0.56884 0.0
H490 H 0.6414 0.08401 0.51464 0.0
H491 H 0.60044 0.10534 0.43514 0.0
H492 H 0.57026 0.08063 0.48832 0.0
C493 C 0.651 0.09672 0.3409 0.0
C494 C 0.66412 0.11927 0.33415 0.0
C495 C 0.6383 0.08958 0.38637 0.0
C496 C 0.63797 0.10471 0.4257 0.0
C497 C 0.65072 0.12722 0.41931 0.0
C498 C 0.6639 0.13447 0.37422 0.0
C499 C 0.60911 0.07018 0.54174 0.0
C500 C 0.58837 0.06781 0.53194 0.0
C501 C 0.62622 0.08412 0.51072 0.0
C502 C 0.62302 0.0963 0.47068 0.0
C503 C 0.60323 0.09613 0.46609 0.0
C504 C 0.58598 0.08194 0.49646 0.0
H505 H 0.58048 0.68826 0.34586 0.0
H506 H 0.54821 0.64238 0.20143 0.0
H507 H 0.57332 0.65782 0.40281 0.0
H508 H 0.54171 0.61211 0.25727 0.0
H509 H 0.51641 0.56064 0.38373 0.0
H510 H 0.52165 0.59088 0.32898 0.0
H511 H 0.58507 0.63207 0.41551 0.0
H512 H 0.5794 0.60208 0.47178 0.0
C513 C 0.5718 0.67165 0.32648 0.0
C514 C 0.56472 0.66762 0.26951 0.0
C515 C 0.56784 0.65422 0.35883 0.0
C516 C 0.55702 0.63248 0.33457 0.0
C517 C 0.54973 0.62855 0.27765 0.0
C518 C 0.55345 0.6459 0.24559 0.0
C519 C 0.53154 0.5761 0.39069 0.0
C520 C 0.54749 0.57898 0.43205 0.0
C521 C 0.53457 0.59346 0.35928 0.0
C522 C 0.55375 0.61399 0.36801 0.0
C523 C 0.5699 0.61666 0.40853 0.0
C524 C 0.56674 0.5994 0.44042 0.0
H525 H 0.85603 0.49868 0.27656 0.0
H526 H 0.90945 0.56541 0.27926 0.0
H527 H 0.87381 0.49266 0.35758 0.0
H528 H 0.92657 0.55952 0.36108 0.0
H529 H 0.94803 0.54854 0.52664 0.0
H530 H 0.92192 0.55115 0.46291 0.0
H531 H 0.90874 0.49121 0.37069 0.0
H532 H 0.93485 0.48855 0.43413 0.0
C533 C 0.87146 0.51211 0.2944 0.0
C534 C 0.88132 0.53252 0.27082 0.0
C535 C 0.88153 0.50866 0.34111 0.0
C536 C 0.9015 0.52564 0.36585 0.0
C537 C 0.91097 0.54623 0.34361 0.0
C538 C 0.90109 0.5496 0.29658 0.0
C539 C 0.93909 0.53554 0.49388 0.0
C540 C 0.94379 0.51851 0.48497 0.0
C541 C 0.92426 0.53715 0.45711 0.0
C542 C 0.91359 0.5216 0.41129 0.0
C543 C 0.91671 0.50345 0.40562 0.0
C544 C 0.93173 0.50196 0.44195 0.0
H545 H 0.35996 0.86176 0.32442 0.0
H546 H 0.35497 0.92039 0.32041 0.0
H547 H 0.38863 0.87969 0.40001 0.0
H548 H 0.38292 0.93777 0.39737 0.0
H549 H 0.42932 0.96076 0.55354 0.0
H550 H 0.3943 0.93547 0.50156 0.0
H551 H 0.42693 0.91318 0.39097 0.0
H552 H 0.46168 0.93861 0.44181 0.0
C553 C 0.36472 0.87833 0.33997 0.0
C554 C 0.35536 0.88973 0.31541 0.0
C555 C 0.38098 0.88848 0.38365 0.0
C556 C 0.38797 0.9101 0.40439 0.0
C557 C 0.37762 0.92097 0.38265 0.0
C558 C 0.36158 0.91096 0.33844 0.0
C559 C 0.4288 0.94995 0.51915 0.0
C560 C 0.44807 0.95155 0.50144 0.0
C561 C 0.40886 0.93564 0.48928 0.0
C562 C 0.40796 0.92241 0.4423 0.0
C563 C 0.42711 0.923 0.42732 0.0
C564 C 0.44698 0.93759 0.45622 0.0
H565 H 0.42855 0.33867 0.35247 0.0
H566 H 0.48406 0.37909 0.26095 0.0
H567 H 0.43395 0.37122 0.40728 0.0
H568 H 0.48912 0.41185 0.31416 0.0
H569 H 0.50702 0.45867 0.47499 0.0
H570 H 0.501 0.4298 0.40481 0.0
H571 H 0.43156 0.40343 0.40505 0.0
H572 H 0.43765 0.43178 0.4772 0.0
C573 C 0.44178 0.35459 0.34383 0.0
C574 C 0.45602 0.3564 0.30306 0.0
C575 C 0.44479 0.37329 0.37475 0.0
C576 C 0.46193 0.39425 0.36494 0.0
C577 C 0.47596 0.396 0.3234 0.0
C578 C 0.4731 0.37725 0.29299 0.0
C579 C 0.4905 0.44704 0.45896 0.0
C580 C 0.47279 0.44722 0.48216 0.0
C581 C 0.48702 0.43044 0.41866 0.0
C582 C 0.46574 0.41392 0.40023 0.0
C583 C 0.44812 0.41544 0.41968 0.0
C584 C 0.4516 0.43182 0.46055 0.0
H585 H 0.56897 0.89329 0.7983 0.0
H586 H 0.52147 0.88027 0.91933 0.0
H587 H 0.55829 0.91709 0.75304 0.0
H588 H 0.51066 0.9041 0.87349 0.0
H589 H 0.49267 0.9388 0.72383 0.0
H590 H 0.49593 0.91101 0.77498 0.0
H591 H 0.56535 0.95446 0.79988 0.0
H592 H 0.56217 0.98194 0.7493 0.0
C593 C 0.55588 0.89511 0.81433 0.0
C594 C 0.54625 0.8852 0.86263 0.0
C595 C 0.54985 0.90879 0.7887 0.0
C596 C 0.53405 0.91278 0.81082 0.0
C597 C 0.52296 0.90132 0.85597 0.0
C598 C 0.52906 0.88761 0.88186 0.0
C599 C 0.50847 0.94262 0.74202 0.0
C600 C 0.52723 0.9623 0.732 0.0
C601 C 0.51034 0.9267 0.77077 0.0
C602 C 0.53097 0.93043 0.78954 0.0
C603 C 0.54934 0.95099 0.7843 0.0
C604 C 0.5475 0.96676 0.75583 0.0
H605 H 0.65494 0.55532 0.89729 0.0
H606 H 0.64576 0.49 0.87286 0.0
H607 H 0.62799 0.54679 0.82034 0.0
H608 H 0.61828 0.48135 0.79647 0.0
H609 H 0.54731 0.4705 0.7553 0.0
H610 H 0.58124 0.47677 0.8016 0.0
H611 H 0.61662 0.53617 0.71739 0.0
H612 H 0.58235 0.52964 0.67048 0.0
C613 C 0.64761 0.53931 0.87471 0.0
C614 C 0.65242 0.52328 0.89193 0.0
C615 C 0.63215 0.53444 0.83036 0.0
C616 C 0.62097 0.51338 0.80237 0.0
C617 C 0.62651 0.49767 0.81759 0.0
C618 C 0.64213 0.5026 0.86168 0.0
C619 C 0.56245 0.4844 0.74496 0.0
C620 C 0.56231 0.49955 0.70931 0.0
C621 C 0.58191 0.48801 0.77143 0.0
C622 C 0.60159 0.50709 0.76359 0.0
C623 C 0.60165 0.5214 0.72447 0.0
C624 C 0.58212 0.51756 0.69714 0.0
H625 H 0.11198 0.66447 0.86645 0.0
H626 H 0.11005 0.62524 0.00171 0.0
H627 H 0.08473 0.63142 0.81145 0.0
H628 H 0.08323 0.59202 0.94528 0.0
H629 H 0.05451 0.54194 0.77405 0.0
H630 H 0.07992 0.57033 0.84543 0.0
H631 H 0.04389 0.60443 0.8302 0.0
H632 H 0.01856 0.57627 0.7597 0.0
C633 C 0.10584 0.64882 0.88439 0.0
C634 C 0.11303 0.64758 0.93876 0.0
C635 C 0.09027 0.62991 0.85288 0.0
C636 C 0.08169 0.6093 0.8747 0.0
C637 C 0.08961 0.60777 0.92776 0.0
C638 C 0.10506 0.62679 0.95973 0.0
C639 C 0.05158 0.55507 0.78752 0.0
C640 C 0.03483 0.55717 0.76061 0.0
C641 C 0.06617 0.57134 0.82806 0.0
C642 C 0.0641 0.58978 0.84187 0.0
C643 C 0.04606 0.5906 0.81917 0.0
C644 C 0.03153 0.57442 0.77908 0.0
H645 H 0.52371 0.14034 0.99161 0.0
H646 H 0.4597 0.10477 0.05333 0.0
H647 H 0.51585 0.1079 0.93209 0.0
H648 H 0.45162 0.07277 0.99115 0.0
H649 H 0.44541 0.03677 0.80822 0.0
H650 H 0.44979 0.06541 0.8781 0.0
H651 H 0.50667 0.06716 0.95446 0.0
H652 H 0.50222 0.03836 0.88558 0.0
C653 C 0.508 0.12567 0.9927 0.0
C654 C 0.49241 0.12522 0.02762 0.0
C655 C 0.50352 0.10714 0.95848 0.0
C656 C 0.48322 0.08792 0.95765 0.0
C657 C 0.46738 0.08749 0.9912 0.0
C658 C 0.47199 0.1059 0.02631 0.0
C659 C 0.45856 0.04293 0.84068 0.0
C660 C 0.47354 0.03542 0.84126 0.0
C661 C 0.46102 0.05925 0.88057 0.0
C662 C 0.47869 0.06854 0.92091 0.0
C663 C 0.49302 0.0603 0.92329 0.0
C664 C 0.49035 0.04372 0.88414 0.0
H665 H 0.38554 0.48588 0.00914 0.0
H666 H 0.33888 0.48837 0.89355 0.0
H667 H 0.41039 0.4938 0.93526 0.0
H668 H 0.36382 0.49605 0.81858 0.0
H669 H 0.40497 0.47301 0.70366 0.0
H670 H 0.37926 0.47357 0.76744 0.0
H671 H 0.43258 0.52479 0.8736 0.0
H672 H 0.45827 0.52443 0.81023 0.0
C673 C 0.3807 0.48828 0.96785 0.0
C674 C 0.36031 0.48648 0.95696 0.0
C675 C 0.39497 0.49297 0.92563 0.0
C676 C 0.38911 0.49568 0.87116 0.0
C677 C 0.36876 0.49406 0.86019 0.0
C678 C 0.35457 0.48977 0.90298 0.0
C679 C 0.4112 0.48491 0.73958 0.0
C680 C 0.43376 0.49835 0.7523 0.0
C681 C 0.39643 0.4852 0.77616 0.0
C682 C 0.40396 0.49889 0.82611 0.0
C683 C 0.42634 0.51377 0.83594 0.0
C684 C 0.44105 0.5136 0.79938 0.0
H685 H 0.87014 0.34362 0.92707 0.0
H686 H 0.9228 0.33257 0.97759 0.0
H687 H 0.895 0.37392 0.87416 0.0
H688 H 0.94709 0.36207 0.92287 0.0
H689 H 0.97468 0.39982 0.76537 0.0
H690 H 0.94988 0.36975 0.81857 0.0
H691 H 0.93015 0.41219 0.90044 0.0
H692 H 0.95516 0.44251 0.84746 0.0
C693 C 0.88691 0.34751 0.92678 0.0
C694 C 0.89437 0.33551 0.95655 0.0
C695 C 0.9011 0.36485 0.89649 0.0
C696 C 0.92291 0.37028 0.89471 0.0
C697 C 0.93028 0.35804 0.92322 0.0
C698 C 0.91624 0.34097 0.95412 0.0
C699 C 0.96516 0.4028 0.79496 0.0
C700 C 0.96688 0.42353 0.80235 0.0
C701 C 0.95102 0.38561 0.82539 0.0
C702 C 0.93807 0.38868 0.86321 0.0
C703 C 0.93985 0.40941 0.87105 0.0
C704 C 0.95429 0.42676 0.8412 0.0
H705 H 0.85541 0.50297 0.83034 0.0
H706 H 0.91659 0.55781 0.9005 0.0
H707 H 0.87486 0.49417 0.7615 0.0
H708 H 0.93545 0.54969 0.82966 0.0
H709 H 0.96322 0.5373 0.67585 0.0
H710 H 0.93777 0.54635 0.71983 0.0
H711 H 0.90395 0.48158 0.77936 0.0
H712 H 0.92969 0.47287 0.73696 0.0
C713 C 0.87289 0.51331 0.83107 0.0
C714 C 0.88429 0.53108 0.87182 0.0
C715 C 0.88396 0.50836 0.79108 0.0
C716 C 0.90662 0.52137 0.78994 0.0
C717 C 0.91792 0.53963 0.82882 0.0
C718 C 0.90698 0.5443 0.86949 0.0
C719 C 0.94981 0.52477 0.69644 0.0
C720 C 0.94822 0.50434 0.70275 0.0
C721 C 0.9354 0.53 0.72201 0.0
C722 C 0.91895 0.51468 0.75315 0.0
C723 C 0.91632 0.49362 0.75523 0.0
C724 C 0.931 0.48861 0.7309 0.0
H725 H 0.3577 0.91873 0.93091 0.0
H726 H 0.34015 0.85232 0.87412 0.0
H727 H 0.37948 0.93228 0.85176 0.0
H728 H 0.36364 0.86657 0.79677 0.0
H729 H 0.44041 0.92353 0.75334 0.0
H730 H 0.40985 0.89864 0.80514 0.0
H731 H 0.37099 0.92403 0.73408 0.0
H732 H 0.40119 0.94859 0.68127 0.0
C733 C 0.35806 0.90687 0.9013 0.0
C734 C 0.34679 0.88428 0.90923 0.0
C735 C 0.37074 0.91476 0.85601 0.0
C736 C 0.37298 0.90041 0.81805 0.0
C737 C 0.36199 0.87789 0.8255 0.0
C738 C 0.34876 0.86984 0.87024 0.0
C739 C 0.42507 0.92316 0.74684 0.0
C740 C 0.42341 0.9384 0.7141 0.0
C741 C 0.40758 0.90886 0.77643 0.0
C742 C 0.38829 0.90974 0.77401 0.0
C743 C 0.38579 0.92318 0.73663 0.0
C744 C 0.40312 0.9372 0.70632 0.0
H745 H 0.41995 0.33331 0.97008 0.0
H746 H 0.48724 0.35405 0.94662 0.0
H747 H 0.42234 0.36209 0.91299 0.0
H748 H 0.48968 0.38308 0.89061 0.0
H749 H 0.49301 0.44821 0.86021 0.0
H750 H 0.48837 0.41781 0.91383 0.0
H751 H 0.42873 0.37412 0.81432 0.0
H752 H 0.43323 0.40448 0.76062 0.0
C753 C 0.43511 0.34369 0.95181 0.0
C754 C 0.45345 0.34148 0.96317 0.0
C755 C 0.4365 0.36025 0.91947 0.0
C756 C 0.45629 0.37499 0.89825 0.0
C757 C 0.47435 0.37221 0.90755 0.0
C758 C 0.47293 0.35557 0.93944 0.0
C759 C 0.47876 0.4322 0.85016 0.0
C760 C 0.46354 0.42875 0.80598 0.0
C761 C 0.47623 0.41477 0.8805 0.0
C762 C 0.45834 0.39359 0.86767 0.0
C763 C 0.44267 0.39029 0.82504 0.0
C764 C 0.4453 0.40768 0.79429 0.0
H765 H 0.15429 0.50632 0.96407 0.0
H766 H 0.10178 0.43906 0.95902 0.0
H767 H 0.13648 0.51223 0.88291 0.0
H768 H 0.08464 0.44484 0.87708 0.0
H769 H 0.06319 0.45592 0.71184 0.0
H770 H 0.08959 0.45378 0.77558 0.0
H771 H 0.10105 0.51279 0.8695 0.0
H772 H 0.07466 0.51498 0.80605 0.0
C773 C 0.13906 0.49275 0.94567 0.0
C774 C 0.12946 0.47222 0.96863 0.0
C775 C 0.12897 0.49613 0.89889 0.0
C776 C 0.10925 0.47897 0.87347 0.0
C777 C 0.10006 0.45828 0.89508 0.0
C778 C 0.10994 0.45497 0.94219 0.0
C779 C 0.07182 0.46884 0.74499 0.0
C780 C 0.06656 0.48543 0.75438 0.0
C781 C 0.08682 0.46749 0.78175 0.0
C782 C 0.09708 0.48289 0.82803 0.0
C783 C 0.0934 0.50068 0.8342 0.0
C784 C 0.07823 0.50189 0.79788 0.0
H785 H 0.65748 0.08016 0.92582 0.0
H786 H 0.65399 0.13953 0.91884 0.0
H787 H 0.62974 0.06295 0.84826 0.0
H788 H 0.62569 0.12191 0.84232 0.0
H789 H 0.55243 0.06518 0.79708 0.0
H790 H 0.58717 0.09002 0.84873 0.0
H791 H 0.61875 0.06422 0.74491 0.0
H792 H 0.58371 0.03942 0.69245 0.0
C793 C 0.65123 0.08977 0.90697 0.0
C794 C 0.65778 0.11116 0.92931 0.0
C795 C 0.63532 0.07987 0.8624 0.0
C796 C 0.62549 0.09107 0.83952 0.0
C797 C 0.63288 0.11285 0.85958 0.0
C798 C 0.64895 0.12284 0.90373 0.0
C799 C 0.56694 0.06535 0.78421 0.0
C800 C 0.56555 0.0506 0.74072 0.0
C801 C 0.58683 0.07959 0.8136 0.0
C802 C 0.60565 0.07902 0.80087 0.0
C803 C 0.60446 0.06497 0.7555 0.0
C804 C 0.58453 0.05097 0.72522 0.0
H805 H 0.54057 0.63516 0.98038 0.0
H806 H 0.59951 0.66779 0.89486 0.0
H807 H 0.53017 0.60073 0.92627 0.0
H808 H 0.58888 0.63375 0.83909 0.0
H809 H 0.5745 0.56964 0.76592 0.0
H810 H 0.58433 0.59839 0.84033 0.0
H811 H 0.51753 0.58381 0.8349 0.0
H812 H 0.50764 0.5543 0.76257 0.0
C813 C 0.55117 0.63495 0.94951 0.0
C814 C 0.57076 0.65408 0.94139 0.0
C815 C 0.54525 0.61525 0.91857 0.0
C816 C 0.5587 0.61436 0.87843 0.0
C817 C 0.57834 0.63361 0.87057 0.0
C818 C 0.58438 0.65321 0.90204 0.0
C819 C 0.56185 0.57221 0.78195 0.0
C820 C 0.5404 0.56001 0.75823 0.0
C821 C 0.5675 0.58884 0.82407 0.0
C822 C 0.55187 0.59391 0.84243 0.0
C823 C 0.53002 0.5804 0.8219 0.0
C824 C 0.5243 0.56344 0.78043 0.0
H825 H 0.52382 0.15046 0.42073 0.0
H826 H 0.47279 0.10495 0.29842 0.0
H827 H 0.52074 0.11964 0.47002 0.0
H828 H 0.46925 0.07435 0.34921 0.0
H829 H 0.45435 0.03261 0.50717 0.0
H830 H 0.45768 0.0609 0.4468 0.0
H831 H 0.52698 0.08676 0.44936 0.0
H832 H 0.5237 0.05838 0.5095 0.0
C833 C 0.51199 0.13395 0.40426 0.0
C834 C 0.49851 0.13026 0.35565 0.0
C835 C 0.51026 0.11633 0.43248 0.0
C836 C 0.49485 0.09467 0.41311 0.0
C837 C 0.48118 0.09092 0.3651 0.0
C838 C 0.48309 0.1085 0.33643 0.0
C839 C 0.47023 0.04407 0.49395 0.0
C840 C 0.48878 0.04334 0.51318 0.0
C841 C 0.47212 0.06022 0.45939 0.0
C842 C 0.49261 0.07611 0.44412 0.0
C843 C 0.51103 0.07481 0.46118 0.0
C844 C 0.50911 0.05843 0.49505 0.0
H845 H 0.35586 0.45254 0.34505 0.0
H846 H 0.36597 0.51831 0.36575 0.0
H847 H 0.38292 0.46133 0.42181 0.0
H848 H 0.39356 0.52721 0.44206 0.0
H849 H 0.42907 0.47891 0.57018 0.0
H850 H 0.39478 0.47258 0.52392 0.0
H851 H 0.43031 0.53129 0.43723 0.0
H852 H 0.46425 0.5374 0.48303 0.0
C853 C 0.36341 0.46871 0.36682 0.0
C854 C 0.35883 0.48477 0.34859 0.0
C855 C 0.37894 0.47374 0.41106 0.0
C856 C 0.39043 0.49498 0.43797 0.0
C857 C 0.3851 0.51074 0.42179 0.0
C858 C 0.36941 0.50567 0.37776 0.0
C859 C 0.42934 0.49091 0.54313 0.0
C860 C 0.44919 0.50865 0.53012 0.0
C861 C 0.40979 0.48717 0.51617 0.0
C862 C 0.40988 0.50132 0.4765 0.0
C863 C 0.42963 0.52018 0.46782 0.0
C864 C 0.44909 0.52369 0.49399 0.0
H865 H 0.89685 0.37333 0.2501 0.0
H866 H 0.91889 0.3374 0.34836 0.0
H867 H 0.92241 0.40729 0.30565 0.0
H868 H 0.94412 0.37109 0.40423 0.0
H869 H 0.99905 0.43358 0.47161 0.0
H870 H 0.97716 0.40508 0.39768 0.0
H871 H 0.92876 0.4251 0.39909 0.0
H872 H 0.95122 0.45424 0.47177 0.0
C873 C 0.90699 0.37268 0.28399 0.0
C874 C 0.9059 0.35273 0.29497 0.0
C875 C 0.92168 0.39212 0.31561 0.0
C876 C 0.93554 0.39199 0.35885 0.0
C877 C 0.93414 0.37193 0.3702 0.0
C878 C 0.91957 0.35256 0.33851 0.0
C879 C 0.98405 0.43231 0.45475 0.0
C880 C 0.97664 0.44585 0.47768 0.0
C881 C 0.97139 0.41584 0.41293 0.0
C882 C 0.95088 0.41235 0.39385 0.0
C883 C 0.94444 0.42729 0.41301 0.0
C884 C 0.95732 0.44404 0.45449 0.0
H885 H 0.54825 0.88407 0.25184 0.0
H886 H 0.58867 0.94222 0.16777 0.0
H887 H 0.54052 0.90592 0.3191 0.0
H888 H 0.58089 0.96419 0.23546 0.0
H889 H 0.53889 0.98669 0.34082 0.0
H890 H 0.5461 0.9661 0.2674 0.0
H891 H 0.56597 0.93682 0.39396 0.0
H892 H 0.55904 0.95712 0.4666 0.0
C893 C 0.5554 0.90152 0.24774 0.0
C894 C 0.56915 0.91153 0.20501 0.0
C895 C 0.55102 0.914 0.28615 0.0
C896 C 0.56013 0.93667 0.28222 0.0
C897 C 0.57359 0.94669 0.23896 0.0
C898 C 0.57821 0.93421 0.20083 0.0
C899 C 0.54483 0.97588 0.35277 0.0
C900 C 0.54837 0.97354 0.40949 0.0
C901 C 0.54903 0.96422 0.31091 0.0
C902 C 0.55644 0.94984 0.32534 0.0
C903 C 0.56006 0.94764 0.38185 0.0
C904 C 0.55618 0.95941 0.4234 0.0
H905 H 0.6342 0.48818 0.26413 0.0
H906 H 0.67314 0.55547 0.33241 0.0
H907 H 0.60973 0.48072 0.33868 0.0
H908 H 0.64805 0.54841 0.40466 0.0
H909 H 0.60547 0.53152 0.5446 0.0
H910 H 0.63285 0.53146 0.48676 0.0
H911 H 0.5823 0.48874 0.36019 0.0
H912 H 0.55504 0.48812 0.41858 0.0
C913 C 0.63773 0.50134 0.29535 0.0
C914 C 0.65557 0.52252 0.29162 0.0
C915 C 0.62351 0.49712 0.33785 0.0
C916 C 0.62667 0.51398 0.37766 0.0
C917 C 0.64508 0.53489 0.37534 0.0
C918 C 0.65935 0.53906 0.33314 0.0
C919 C 0.60015 0.52163 0.50512 0.0
C920 C 0.57802 0.51013 0.48601 0.0
C921 C 0.6159 0.52178 0.47157 0.0
C922 C 0.60993 0.51051 0.41801 0.0
C923 C 0.58765 0.49757 0.40109 0.0
C924 C 0.57193 0.4973 0.43471 0.0
H925 H 0.08487 0.64816 0.20759 0.0
H926 H 0.13587 0.67628 0.34122 0.0
H927 H 0.06218 0.61854 0.26475 0.0
H928 H 0.11317 0.64633 0.39843 0.0
H929 H 0.05449 0.60545 0.50202 0.0
H930 H 0.07823 0.63425 0.44462 0.0
H931 H 0.06164 0.58613 0.30564 0.0
H932 H 0.03767 0.55709 0.36303 0.0
C933 C 0.09116 0.64804 0.24938 0.0
C934 C 0.11202 0.66464 0.27033 0.0
C935 C 0.07828 0.63095 0.28176 0.0
C936 C 0.08593 0.63015 0.33592 0.0
C937 C 0.10684 0.64667 0.35689 0.0
C938 C 0.11984 0.66371 0.3242 0.0
C939 C 0.0558 0.60092 0.45917 0.0
C940 C 0.04407 0.57892 0.43702 0.0
C941 C 0.06959 0.61746 0.42653 0.0
C942 C 0.07183 0.61241 0.37085 0.0
C943 C 0.06009 0.59047 0.34845 0.0
C944 C 0.04641 0.57385 0.3813 0.0
loop_
_geom_bond_atom_site_label_1
_geom_bond_atom_site_label_2
_geom_bond_distance
_geom_bond_site_symmetry_2
_ccdc_geom_bond_type
H0 C27 0.929 . S
N1 C26 1.433 . S
N1 C32 1.435 . S
N1 C38 1.423 . S
H2 C28 0.930 . S
H3 C31 0.931 . S
H4 C30 0.929 . S
H5 C33 0.930 . S
H6 C34 0.932 . S
H7 C37 0.929 . S
H8 C36 0.931 . S
H9 C39 0.929 . S
H10 C43 0.932 . S
H11 C40 0.931 . S
H12 C42 0.929 . S
H13 C45 0.929 . S
H14 C46 0.930 . S
H15 C48 0.929 . S
H16 C49 0.931 . S
H17 C51 0.930 . S
H18 C52 0.932 . S
H19 C54 0.931 1_556 S
H20 C55 0.929 . S
H21 C57 0.929 . S
H22 C58 0.931 . S
H23 C60 0.929 . S
N24 C44 1.433 . S
N24 C50 1.435 . S
N24 C56 1.423 . S
H25 C61 0.932 . S
C26 N1 1.433 . S
C26 C27 1.363 . S
C26 C31 1.370 . S
C27 H0 0.929 . S
C27 C26 1.363 . S
C27 C28 1.385 . S
C28 H2 0.930 . S
C28 C27 1.385 . S
C28 C29 1.357 . S
C29 C28 1.357 . S
C29 C30 1.406 . S
C30 H4 0.929 . S
C30 C29 1.406 . S
C30 C31 1.391 . S
C31 H3 0.931 . S
C31 C26 1.370 . S
C31 C30 1.391 . S
C32 N1 1.435 . S
C32 C33 1.358 . S
C32 C37 1.371 . S
C33 H5 0.930 . S
C33 C32 1.358 . S
C33 C34 1.405 . S
C34 H6 0.932 . S
C34 C33 1.405 . S
C34 C35 1.383 . S
C35 C34 1.383 . S
C35 C36 1.393 . S
C36 H8 0.931 . S
C36 C35 1.393 . S
C36 C37 1.382 . S
C37 H7 0.929 . S
C37 C32 1.371 . S
C37 C36 1.382 . S
C38 N1 1.423 . S
C38 C39 1.362 . S
C38 C43 1.388 . S
C39 H9 0.929 . S
C39 C38 1.362 . S
C39 C40 1.376 . S
C40 H11 0.931 . S
C40 C39 1.376 . S
C40 C41 1.396 . S
C41 C40 1.396 . S
C41 C42 1.348 . S
C41 C59 1.472 . S
C42 H12 0.929 . S
C42 C41 1.348 . S
C42 C43 1.443 . S
C43 H10 0.932 . S
C43 C38 1.388 . S
C43 C42 1.443 . S
C44 N24 1.433 . S
C44 C45 1.363 . S
C44 C49 1.370 . S
C45 H13 0.929 . S
C45 C44 1.363 . S
C45 C46 1.385 . S
C46 H14 0.930 . S
C46 C45 1.385 . S
C46 C47 1.357 . S
C47 C46 1.357 . S
C47 C48 1.406 . S
C48 H15 0.929 . S
C48 C47 1.406 . S
C48 C49 1.391 . S
C49 H16 0.931 . S
C49 C44 1.370 . S
C49 C48 1.391 . S
C50 N24 1.435 . S
C50 C51 1.358 . S
C50 C55 1.371 . S
C51 H17 0.930 . S
C51 C50 1.358 . S
C51 C52 1.405 . S
C52 H18 0.932 . S
C52 C51 1.405 . S
C52 C53 1.383 . S
C53 C52 1.383 . S
C53 C54 1.393 . S
C54 H19 0.931 1_554 S
C54 C53 1.393 . S
C54 C55 1.382 . S
C55 H20 0.929 . S
C55 C50 1.371 . S
C55 C54 1.382 . S
C56 N24 1.423 . S
C56 C57 1.362 . S
C56 C61 1.388 . S
C57 H21 0.929 . S
C57 C56 1.362 . S
C57 C58 1.376 . S
C58 H22 0.931 . S
C58 C57 1.376 . S
C58 C59 1.396 . S
C59 C41 1.472 . S
C59 C58 1.396 . S
C59 C60 1.348 . S
C60 H23 0.929 . S
C60 C59 1.348 . S
C60 C61 1.443 . S
C61 H25 0.932 . S
C61 C56 1.388 . S
C61 C60 1.443 . S
H62 C89 0.929 . S
N63 C88 1.433 . S
N63 C94 1.435 . S
N63 C100 1.423 . S
H64 C90 0.930 . S
H65 C93 0.931 . S
H66 C92 0.929 . S
H67 C95 0.930 . S
H68 C96 0.932 . S
H69 C99 0.929 . S
H70 C98 0.931 . S
H71 C101 0.929 . S
H72 C105 0.932 . S
H73 C102 0.931 . S
H74 C104 0.929 . S
H75 C107 0.929 . S
H76 C108 0.930 . S
H77 C110 0.929 . S
H78 C111 0.931 . S
H79 C113 0.930 . S
H80 C114 0.932 . S
H81 C116 0.931 1_556 S
H82 C117 0.929 . S
H83 C119 0.929 . S
H84 C120 0.931 . S
H85 C122 0.929 . S
N86 C106 1.433 . S
N86 C112 1.435 . S
N86 C118 1.423 . S
H87 C123 0.932 . S
C88 N63 1.433 . S
C88 C89 1.363 . S
C88 C93 1.370 . S
C89 H62 0.929 . S
C89 C88 1.363 . S
C89 C90 1.385 . S
C90 H64 0.930 . S
C90 C89 1.385 . S
C90 C91 1.357 . S
C91 C90 1.357 . S
C91 C92 1.406 . S
C92 H66 0.929 . S
C92 C91 1.406 . S
C92 C93 1.391 . S
C93 H65 0.931 . S
C93 C88 1.370 . S
C93 C92 1.391 . S
C94 N63 1.435 . S
C94 C95 1.358 . S
C94 C99 1.371 . S
C95 H67 0.930 . S
C95 C94 1.358 . S
C95 C96 1.405 . S
C96 H68 0.932 . S
C96 C95 1.405 . S
C96 C97 1.383 1_554 S
C97 C96 1.383 1_556 S
C97 C98 1.393 . S
C98 H70 0.931 . S
C98 C97 1.393 . S
C98 C99 1.382 1_556 S
C99 H69 0.929 . S
C99 C94 1.371 . S
C99 C98 1.382 1_554 S
C100 N63 1.423 . S
C100 C101 1.362 . S
C100 C105 1.388 . S
C101 H71 0.929 . S
C101 C100 1.362 . S
C101 C102 1.376 . S
C102 H73 0.931 . S
C102 C101 1.376 . S
C102 C103 1.396 . S
C103 C102 1.396 . S
C103 C104 1.348 . S
C103 C121 1.472 . S
C104 H74 0.929 . S
C104 C103 1.348 . S
C104 C105 1.443 . S
C105 H72 0.932 . S
C105 C100 1.388 . S
C105 C104 1.443 . S
C106 N86 1.433 . S
C106 C107 1.363 . S
C106 C111 1.370 . S
C107 H75 0.929 . S
C107 C106 1.363 . S
C107 C108 1.385 . S
C108 H76 0.930 . S
C108 C107 1.385 . S
C108 C109 1.357 . S
C109 C108 1.357 . S
C109 C110 1.406 . S
C110 H77 0.929 . S
C110 C109 1.406 . S
C110 C111 1.391 . S
C111 H78 0.931 . S
C111 C106 1.370 . S
C111 C110 1.391 . S
C112 N86 1.435 . S
C112 C113 1.358 . S
C112 C117 1.371 . S
C113 H79 0.930 . S
C113 C112 1.358 . S
C113 C114 1.405 . S
C114 H80 0.932 . S
C114 C113 1.405 . S
C114 C115 1.383 . S
C115 C114 1.383 . S
C115 C116 1.393 . S
C116 H81 0.931 1_554 S
C116 C115 1.393 . S
C116 C117 1.382 . S
C117 H82 0.929 . S
C117 C112 1.371 . S
C117 C116 1.382 . S
C118 N86 1.423 . S
C118 C119 1.362 . S
C118 C123 1.388 . S
C119 H83 0.929 . S
C119 C118 1.362 . S
C119 C120 1.376 . S
C120 H84 0.931 . S
C120 C119 1.376 . S
C120 C121 1.396 . S
C121 C103 1.472 . S
C121 C120 1.396 . S
C121 C122 1.348 . S
C122 H85 0.929 . S
C122 C121 1.348 . S
C122 C123 1.443 . S
C123 H87 0.932 . S
C123 C118 1.388 . S
C123 C122 1.443 . S
H124 C151 0.929 . S
N125 C150 1.433 1_554 S
N125 C156 1.435 . S
N125 C162 1.423 . S
H126 C152 0.930 . S
H127 C155 0.931 . S
H128 C154 0.929 . S
H129 C157 0.930 . S
H130 C158 0.932 . S
H131 C161 0.929 . S
H132 C160 0.931 . S
H133 C163 0.929 1_556 S
H134 C167 0.932 . S
H135 C164 0.931 1_556 S
H136 C166 0.929 . S
H137 C169 0.929 . S
H138 C170 0.930 . S
H139 C172 0.929 . S
H140 C173 0.931 . S
H141 C175 0.930 . S
H142 C176 0.932 . S
H143 C178 0.931 . S
H144 C179 0.929 . S
H145 C181 0.929 1_556 S
H146 C182 0.931 1_556 S
H147 C184 0.929 . S
N148 C168 1.433 1_554 S
N148 C174 1.435 . S
N148 C180 1.423 . S
H149 C185 0.932 . S
C150 N125 1.433 1_556 S
C150 C151 1.363 . S
C150 C155 1.370 . S
C151 H124 0.929 . S
C151 C150 1.363 . S
C151 C152 1.385 . S
C152 H126 0.930 . S
C152 C151 1.385 . S
C152 C153 1.357 . S
C153 C152 1.357 . S
C153 C154 1.406 . S
C154 H128 0.929 . S
C154 C153 1.406 . S
C154 C155 1.391 . S
C155 H127 0.931 . S
C155 C150 1.370 . S
C155 C154 1.391 . S
C156 N125 1.435 . S
C156 C157 1.358 . S
C156 C161 1.371 . S
C157 H129 0.930 . S
C157 C156 1.358 . S
C157 C158 1.405 . S
C158 H130 0.932 . S
C158 C157 1.405 . S
C158 C159 1.383 . S
C159 C158 1.383 . S
C159 C160 1.393 . S
C160 H132 0.931 . S
C160 C159 1.393 . S
C160 C161 1.382 . S
C161 H131 0.929 . S
C161 C156 1.371 . S
C161 C160 1.382 . S
C162 N125 1.423 . S
C162 C163 1.362 . S
C162 C167 1.388 . S
C163 H133 0.929 1_554 S
C163 C162 1.362 . S
C163 C164 1.376 . S
C164 H135 0.931 1_554 S
C164 C163 1.376 . S
C164 C165 1.396 . S
C165 C164 1.396 . S
C165 C166 1.348 . S
C165 C183 1.472 . S
C166 H136 0.929 . S
C166 C165 1.348 . S
C166 C167 1.443 . S
C167 H134 0.932 . S
C167 C162 1.388 . S
C167 C166 1.443 . S
C168 N148 1.433 1_556 S
C168 C169 1.363 . S
C168 C173 1.370 . S
C169 H137 0.929 . S
C169 C168 1.363 . S
C169 C170 1.385 . S
C170 H138 0.930 . S
C170 C169 1.385 . S
C170 C171 1.357 . S
C171 C170 1.357 . S
C171 C172 1.406 . S
C172 H139 0.929 . S
C172 C171 1.406 . S
C172 C173 1.391 . S
C173 H140 0.931 . S
C173 C168 1.370 . S
C173 C172 1.391 . S
C174 N148 1.435 . S
C174 C175 1.358 . S
C174 C179 1.371 . S
C175 H141 0.930 . S
C175 C174 1.358 . S
C175 C176 1.405 . S
C176 H142 0.932 . S
C176 C175 1.405 . S
C176 C177 1.383 . S
C177 C176 1.383 . S
C177 C178 1.393 . S
C178 H143 0.931 . S
C178 C177 1.393 . S
C178 C179 1.382 . S
C179 H144 0.929 . S
C179 C174 1.371 . S
C179 C178 1.382 . S
C180 N148 1.423 . S
C180 C181 1.362 . S
C180 C185 1.388 . S
C181 H145 0.929 1_554 S
C181 C180 1.362 . S
C181 C182 1.376 . S
C182 H146 0.931 1_554 S
C182 C181 1.376 . S
C182 C183 1.396 . S
C183 C165 1.472 . S
C183 C182 1.396 . S
C183 C184 1.348 . S
C184 H147 0.929 . S
C184 C183 1.348 . S
C184 C185 1.443 . S
C185 H149 0.932 . S
C185 C180 1.388 . S
C185 C184 1.443 . S
H186 C213 0.929 . S
N187 C212 1.433 . S
N187 C218 1.435 . S
N187 C224 1.423 . S
H188 C214 0.930 . S
H189 C217 0.931 . S
H190 C216 0.929 . S
H191 C219 0.930 . S
H192 C220 0.932 . S
H193 C223 0.929 . S
H194 C222 0.931 . S
H195 C225 0.929 . S
H196 C229 0.932 1_556 S
H197 C226 0.931 . S
H198 C228 0.929 1_556 S
H199 C231 0.929 . S
H200 C232 0.930 . S
H201 C234 0.929 . S
H202 C235 0.931 . S
H203 C237 0.930 . S
H204 C238 0.932 . S
H205 C240 0.931 . S
H206 C241 0.929 . S
H207 C243 0.929 . S
H208 C244 0.931 . S
H209 C246 0.929 1_556 S
N210 C230 1.433 . S
N210 C236 1.435 . S
N210 C242 1.423 . S
H211 C247 0.932 1_556 S
C212 N187 1.433 . S
C212 C213 1.363 . S
C212 C217 1.370 . S
C213 H186 0.929 . S
C213 C212 1.363 . S
C213 C214 1.385 . S
C214 H188 0.930 . S
C214 C213 1.385 . S
C214 C215 1.357 . S
C215 C214 1.357 . S
C215 C216 1.406 . S
C216 H190 0.929 . S
C216 C215 1.406 . S
C216 C217 1.391 . S
C217 H189 0.931 . S
C217 C212 1.370 . S
C217 C216 1.391 . S
C218 N187 1.435 . S
C218 C219 1.358 . S
C218 C223 1.371 1_554 S
C219 H191 0.930 . S
C219 C218 1.358 . S
C219 C220 1.405 1_554 S
C220 H192 0.932 . S
C220 C219 1.405 1_556 S
C220 C221 1.383 . S
C221 C220 1.383 . S
C221 C222 1.393 . S
C222 H194 0.931 . S
C222 C221 1.393 . S
C222 C223 1.382 . S
C223 H193 0.929 . S
C223 C218 1.371 1_556 S
C223 C222 1.382 . S
C224 N187 1.423 . S
C224 C225 1.362 . S
C224 C229 1.388 . S
C225 H195 0.929 . S
C225 C224 1.362 . S
C225 C226 1.376 . S
C226 H197 0.931 . S
C226 C225 1.376 . S
C226 C227 1.396 . S
C227 C226 1.396 . S
C227 C228 1.348 . S
C227 C245 1.472 . S
C228 H198 0.929 1_554 S
C228 C227 1.348 . S
C228 C229 1.443 . S
C229 H196 0.932 1_554 S
C229 C224 1.388 . S
C229 C228 1.443 . S
C230 N210 1.433 . S
C230 C231 1.363 . S
C230 C235 1.370 . S
C231 H199 0.929 . S
C231 C230 1.363 . S
C231 C232 1.385 . S
C232 H200 0.930 . S
C232 C231 1.385 . S
C232 C233 1.357 . S
C233 C232 1.357 . S
C233 C234 1.406 . S
C234 H201 0.929 . S
C234 C233 1.406 . S
C234 C235 1.391 . S
C235 H202 0.931 . S
C235 C230 1.370 . S
C235 C234 1.391 . S
C236 N210 1.435 . S
C236 C237 1.358 . S
C236 C241 1.371 1_554 S
C237 H203 0.930 . S
C237 C236 1.358 . S
C237 C238 1.405 1_554 S
C238 H204 0.932 . S
C238 C237 1.405 1_556 S
C238 C239 1.383 . S
C239 C238 1.383 . S
C239 C240 1.393 . S
C240 H205 0.931 . S
C240 C239 1.393 . S
C240 C241 1.382 . S
C241 H206 0.929 . S
C241 C236 1.371 1_556 S
C241 C240 1.382 . S
C242 N210 1.423 . S
C242 C243 1.362 . S
C242 C247 1.388 . S
C243 H207 0.929 . S
C243 C242 1.362 . S
C243 C244 1.376 . S
C244 H208 0.931 . S
C244 C243 1.376 . S
C244 C245 1.396 . S
C245 C227 1.472 . S
C245 C244 1.396 . S
C245 C246 1.348 . S
C246 H209 0.929 1_554 S
C246 C245 1.348 . S
C246 C247 1.443 . S
C247 H211 0.932 1_554 S
C247 C242 1.388 . S
C247 C246 1.443 . S
H248 C275 0.929 . S
N249 C274 1.433 . S
N249 C280 1.435 . S
N249 C286 1.423 . S
H250 C276 0.930 . S
H251 C279 0.931 . S
H252 C278 0.929 . S
H253 C281 0.930 . S
H254 C282 0.934 . S
H255 C285 0.929 . S
H256 C284 0.931 . S
H257 C287 0.929 . S
H258 C291 0.932 . S
H259 C288 0.931 . S
H260 C290 0.929 . S
H261 C293 0.929 . S
H262 C294 0.930 . S
H263 C296 0.929 . S
H264 C297 0.931 . S
H265 C299 0.930 . S
H266 C300 0.932 . S
H267 C302 0.931 . S
H268 C303 0.929 . S
H269 C305 0.929 . S
H270 C306 0.931 . S
H271 C308 0.929 . S
N272 C292 1.433 . S
N272 C298 1.435 . S
N272 C304 1.423 . S
H273 C309 0.932 . S
C274 N249 1.433 . S
C274 C275 1.363 . S
C274 C279 1.370 . S
C275 H248 0.929 . S
C275 C274 1.363 . S
C275 C276 1.385 . S
C276 H250 0.930 . S
C276 C275 1.385 . S
C276 C277 1.357 . S
C277 C276 1.357 . S
C277 C278 1.406 . S
C278 H252 0.929 . S
C278 C277 1.406 . S
C278 C279 1.391 . S
C279 H251 0.931 . S
C279 C274 1.370 . S
C279 C278 1.391 . S
C280 N249 1.435 . S
C280 C281 1.358 . S
C280 C285 1.371 1_554 S
C281 H253 0.930 . S
C281 C280 1.358 . S
C281 C282 1.405 1_554 S
C282 H254 0.934 . S
C282 C281 1.405 1_556 S
C282 C283 1.383 . S
C283 C282 1.383 . S
C283 C284 1.393 . S
C284 H256 0.931 . S
C284 C283 1.393 . S
C284 C285 1.382 . S
C285 H255 0.929 . S
C285 C280 1.371 1_556 S
C285 C284 1.382 . S
C286 N249 1.423 . S
C286 C287 1.362 . S
C286 C291 1.388 . S
C287 H257 0.929 . S
C287 C286 1.362 . S
C287 C288 1.376 . S
C288 H259 0.931 . S
C288 C287 1.376 . S
C288 C289 1.396 . S
C289 C288 1.396 . S
C289 C290 1.348 . S
C289 C307 1.472 . S
C290 H260 0.929 . S
C290 C289 1.348 . S
C290 C291 1.443 . S
C291 H258 0.932 . S
C291 C286 1.388 . S
C291 C290 1.443 . S
C292 N272 1.433 . S
C292 C293 1.363 . S
C292 C297 1.370 . S
C293 H261 0.929 . S
C293 C292 1.363 . S
C293 C294 1.385 . S
C294 H262 0.930 . S
C294 C293 1.385 . S
C294 C295 1.357 . S
C295 C294 1.357 . S
C295 C296 1.406 . S
C296 H263 0.929 . S
C296 C295 1.406 . S
C296 C297 1.391 . S
C297 H264 0.931 . S
C297 C292 1.370 . S
C297 C296 1.391 . S
C298 N272 1.435 . S
C298 C299 1.358 . S
C298 C303 1.371 . S
C299 H265 0.930 . S
C299 C298 1.358 . S
C299 C300 1.405 . S
C300 H266 0.932 . S
C300 C299 1.405 . S
C300 C301 1.383 1_554 S
C301 C300 1.383 1_556 S
C301 C302 1.393 . S
C302 H267 0.931 . S
C302 C301 1.393 . S
C302 C303 1.382 1_556 S
C303 H268 0.929 . S
C303 C298 1.371 . S
C303 C302 1.382 1_554 S
C304 N272 1.423 . S
C304 C305 1.362 . S
C304 C309 1.388 . S
C305 H269 0.929 . S
C305 C304 1.362 . S
C305 C306 1.376 . S
C306 H270 0.931 . S
C306 C305 1.376 . S
C306 C307 1.396 . S
C307 C289 1.472 . S
C307 C306 1.396 . S
C307 C308 1.348 . S
C308 H271 0.929 . S
C308 C307 1.348 . S
C308 C309 1.443 . S
C309 H273 0.932 . S
C309 C304 1.388 . S
C309 C308 1.443 . S
H310 C337 0.929 . S
N311 C336 1.433 . S
N311 C342 1.435 . S
N311 C348 1.423 . S
H312 C338 0.930 . S
H313 C341 0.931 . S
H314 C340 0.929 . S
H315 C343 0.930 . S
H316 C344 0.932 . S
H317 C347 0.929 . S
H318 C346 0.931 . S
H319 C349 0.929 . S
H320 C353 0.932 . S
H321 C350 0.931 . S
H322 C352 0.929 . S
H323 C355 0.929 . S
H324 C356 0.930 . S
H325 C358 0.929 . S
H326 C359 0.931 . S
H327 C361 0.930 . S
H328 C362 0.932 . S
H329 C364 0.931 . S
H330 C365 0.929 . S
H331 C367 0.929 . S
H332 C368 0.931 . S
H333 C370 0.929 . S
N334 C354 1.433 . S
N334 C360 1.435 . S
N334 C366 1.423 . S
H335 C371 0.932 . S
C336 N311 1.433 . S
C336 C337 1.363 . S
C336 C341 1.370 . S
C337 H310 0.929 . S
C337 C336 1.363 . S
C337 C338 1.385 . S
C338 H312 0.930 . S
C338 C337 1.385 . S
C338 C339 1.357 . S
C339 C338 1.357 . S
C339 C340 1.406 . S
C340 H314 0.929 . S
C340 C339 1.406 . S
C340 C341 1.391 . S
C341 H313 0.931 . S
C341 C336 1.370 . S
C341 C340 1.391 . S
C342 N311 1.435 . S
C342 C343 1.358 . S
C342 C347 1.371 . S
C343 H315 0.930 . S
C343 C342 1.358 . S
C343 C344 1.405 . S
C344 H316 0.932 . S
C344 C343 1.405 . S
C344 C345 1.383 . S
C345 C344 1.383 . S
C345 C346 1.393 . S
C346 H318 0.931 . S
C346 C345 1.393 . S
C346 C347 1.382 . S
C347 H317 0.929 . S
C347 C342 1.371 . S
C347 C346 1.382 . S
C348 N311 1.423 . S
C348 C349 1.362 . S
C348 C353 1.388 . S
C349 H319 0.929 . S
C349 C348 1.362 . S
C349 C350 1.376 . S
C350 H321 0.931 . S
C350 C349 1.376 . S
C350 C351 1.396 . S
C351 C350 1.396 . S
C351 C352 1.348 . S
C351 C369 1.472 . S
C352 H322 0.929 . S
C352 C351 1.348 . S
C352 C353 1.443 . S
C353 H320 0.932 . S
C353 C348 1.388 . S
C353 C352 1.443 . S
C354 N334 1.433 . S
C354 C355 1.363 . S
C354 C359 1.370 . S
C355 H323 0.929 . S
C355 C354 1.363 . S
C355 C356 1.385 . S
C356 H324 0.930 . S
C356 C355 1.385 . S
C356 C357 1.357 . S
C357 C356 1.357 . S
C357 C358 1.406 . S
C358 H325 0.929 . S
C358 C357 1.406 . S
C358 C359 1.391 . S
C359 H326 0.931 . S
C359 C354 1.370 . S
C359 C358 1.391 . S
C360 N334 1.435 . S
C360 C361 1.358 . S
C360 C365 1.371 . S
C361 H327 0.930 . S
C361 C360 1.358 . S
C361 C362 1.405 . S
C362 H328 0.932 . S
C362 C361 1.405 . S
C362 C363 1.383 . S
C363 C362 1.383 . S
C363 C364 1.393 . S
C364 H329 0.931 . S
C364 C363 1.393 . S
C364 C365 1.382 . S
C365 H330 0.929 . S
C365 C360 1.371 . S
C365 C364 1.382 . S
C366 N334 1.423 . S
C366 C367 1.362 . S
C366 C371 1.388 . S
C367 H331 0.929 . S
C367 C366 1.362 . S
C367 C368 1.376 . S
C368 H332 0.931 . S
C368 C367 1.376 . S
C368 C369 1.396 . S
C369 C351 1.472 . S
C369 C368 1.396 . S
C369 C370 1.348 . S
C370 H333 0.929 . S
C370 C369 1.348 . S
C370 C371 1.443 . S
C371 H335 0.932 . S
C371 C366 1.388 . S
C371 C370 1.443 . S
C372 O384 1.241 . S
C372 O385 1.280 . S
C373 O386 1.277 . S
C373 O387 1.245 . S
C374 O398 1.247 . S
C374 O400 1.289 . S
Mg375 O376 1.921 . S
Mg375 O385 1.984 . S
Mg375 O387 1.988 1_655 S
Mg375 O388 2.061 . S
O376 Mg375 1.921 . S
O376 Mg377 1.987 1_655 S
O376 Mg378 1.918 1_655 S
Mg377 O376 1.987 1_455 S
Mg377 O384 2.042 1_455 S
Mg377 O386 2.041 . S
Mg377 O392 2.038 1_455 S
Mg377 O400 2.238 . S
Mg378 O376 1.918 1_455 S
Mg378 O379 1.917 . S
Mg378 O389 2.106 1_455 S
Mg378 O391 2.079 1_455 S
Mg378 O400 2.106 . S
Mg378 O401 2.079 . S
O379 Mg378 1.917 . S
O379 Mg380 1.926 . S
O379 Mg381 1.986 . S
Mg380 O379 1.926 . S
Mg380 O394 1.984 . S
Mg380 O397 1.988 1_455 S
Mg380 O398 2.061 . S
Mg381 O379 1.986 . S
Mg381 O389 2.238 1_455 S
Mg381 O393 2.042 . S
Mg381 O395 2.041 1_455 S
Mg381 O402 2.038 . S
C382 O388 1.247 . S
C382 O389 1.289 . S
C383 O401 1.245 . S
C383 O402 1.274 . S
O384 C372 1.241 . S
O384 Mg377 2.042 1_655 S
O385 C372 1.280 . S
O385 Mg375 1.984 . S
O386 C373 1.277 . S
O386 Mg377 2.041 . S
O387 C373 1.245 . S
O387 Mg375 1.988 1_455 S
O388 Mg375 2.061 . S
O388 C382 1.247 . S
O389 Mg378 2.106 1_655 S
O389 Mg381 2.238 1_655 S
O389 C382 1.289 . S
C390 O391 1.245 . S
C390 O392 1.274 . S
O391 Mg378 2.079 1_655 S
O391 C390 1.245 . S
O392 Mg377 2.038 1_655 S
O392 C390 1.274 . S
O393 Mg381 2.042 . S
O393 C396 1.241 . S
O394 Mg380 1.984 . S
O394 C396 1.280 . S
O395 Mg381 2.041 1_655 S
O395 C399 1.277 . S
C396 O393 1.241 . S
C396 O394 1.280 . S
O397 Mg380 1.988 1_655 S
O397 C399 1.245 . S
O398 C374 1.247 . S
O398 Mg380 2.061 . S
C399 O395 1.277 . S
C399 O397 1.245 . S
O400 C374 1.289 . S
O400 Mg377 2.238 . S
O400 Mg378 2.106 . S
O401 Mg378 2.079 . S
O401 C383 1.245 . S
O402 Mg381 2.038 . S
O402 C383 1.274 . S
C403 O415 1.241 . S
C403 O416 1.280 . S
C404 O417 1.277 . S
C404 O418 1.245 . S
C405 O429 1.247 . S
C405 O431 1.289 . S
Mg406 O407 1.926 . S
Mg406 O416 1.984 . S
Mg406 O418 1.988 1_545 S
Mg406 O419 2.061 . S
O407 Mg406 1.926 . S
O407 Mg408 1.986 . S
O407 Mg409 1.917 . S
Mg408 O407 1.986 . S
Mg408 O415 2.042 . S
Mg408 O417 2.041 1_545 S
Mg408 O423 2.038 . S
Mg408 O431 2.238 1_545 S
Mg409 O407 1.917 . S
Mg409 O410 1.917 1_545 S
Mg409 O420 2.106 . S
Mg409 O422 2.079 . S
Mg409 O431 2.106 1_545 S
Mg409 O432 2.079 1_545 S
O410 Mg409 1.917 1_565 S
O410 Mg411 1.926 . S
O410 Mg412 1.986 1_565 S
Mg411 O410 1.926 . S
Mg411 O425 1.984 . S
Mg411 O428 1.988 1_565 S
Mg411 O429 2.061 . S
Mg412 O410 1.986 1_545 S
Mg412 O420 2.238 . S
Mg412 O424 2.042 1_545 S
Mg412 O426 2.041 . S
Mg412 O433 2.038 1_545 S
C413 O419 1.247 . S
C413 O420 1.289 . S
C414 O432 1.245 . S
C414 O433 1.274 . S
O415 C403 1.241 . S
O415 Mg408 2.042 . S
O416 C403 1.280 . S
O416 Mg406 1.984 . S
O417 C404 1.277 . S
O417 Mg408 2.041 1_565 S
O418 C404 1.245 . S
O418 Mg406 1.988 1_565 S
O419 Mg406 2.061 . S
O419 C413 1.247 . S
O420 Mg409 2.106 . S
O420 Mg412 2.238 . S
O420 C413 1.289 . S
C421 O422 1.245 . S
C421 O423 1.274 . S
O422 Mg409 2.079 . S
O422 C421 1.245 . S
O423 Mg408 2.038 . S
O423 C421 1.274 . S
O424 Mg412 2.042 1_565 S
O424 C427 1.241 . S
O425 Mg411 1.984 . S
O425 C427 1.280 . S
O426 Mg412 2.041 . S
O426 C430 1.277 . S
C427 O424 1.241 . S
C427 O425 1.280 . S
O428 Mg411 1.988 1_545 S
O428 C430 1.245 . S
O429 C405 1.247 . S
O429 Mg411 2.061 . S
C430 O426 1.277 . S
C430 O428 1.245 . S
O431 C405 1.289 . S
O431 Mg408 2.238 1_565 S
O431 Mg409 2.106 1_565 S
O432 Mg409 2.079 1_565 S
O432 C414 1.245 . S
O433 Mg412 2.038 1_565 S
O433 C414 1.274 . S
C434 O446 1.241 . S
C434 O447 1.280 . S
C435 O448 1.277 . S
C435 O449 1.245 . S
C436 O460 1.247 . S
C436 O462 1.289 . S
Mg437 O438 1.926 . S
Mg437 O447 1.984 . S
Mg437 O449 1.988 . S
Mg437 O450 2.061 . S
O438 Mg437 1.926 . S
O438 Mg439 1.986 . S
O438 Mg440 1.917 . S
Mg439 O438 1.986 . S
Mg439 O446 2.042 . S
Mg439 O448 2.041 . S
Mg439 O454 2.038 . S
Mg439 O462 2.238 . S
Mg440 O438 1.917 . S
Mg440 O441 1.917 . S
Mg440 O451 2.106 . S
Mg440 O453 2.079 . S
Mg440 O462 2.106 . S
Mg440 O463 2.079 . S
O441 Mg440 1.917 . S
O441 Mg442 1.926 . S
O441 Mg443 1.986 . S
Mg442 O441 1.926 . S
Mg442 O456 1.984 . S
Mg442 O459 1.988 . S
Mg442 O460 2.061 . S
Mg443 O441 1.986 . S
Mg443 O451 2.238 . S
Mg443 O455 2.042 . S
Mg443 O457 2.041 . S
Mg443 O464 2.038 . S
C444 O450 1.247 . S
C444 O451 1.289 . S
C445 O463 1.245 . S
C445 O464 1.274 . S
O446 C434 1.241 . S
O446 Mg439 2.042 . S
O447 C434 1.280 . S
O447 Mg437 1.984 . S
O448 C435 1.277 . S
O448 Mg439 2.041 . S
O449 C435 1.245 . S
O449 Mg437 1.988 . S
O450 Mg437 2.061 . S
O450 C444 1.247 . S
O451 Mg440 2.106 . S
O451 Mg443 2.238 . S
O451 C444 1.289 . S
C452 O453 1.245 . S
C452 O454 1.274 . S
O453 Mg440 2.079 . S
O453 C452 1.245 . S
O454 Mg439 2.038 . S
O454 C452 1.274 . S
O455 Mg443 2.042 . S
O455 C458 1.241 . S
O456 Mg442 1.984 . S
O456 C458 1.280 . S
O457 Mg443 2.041 . S
O457 C461 1.277 . S
C458 O455 1.241 . S
C458 O456 1.280 . S
O459 Mg442 1.988 . S
O459 C461 1.245 . S
O460 C436 1.247 . S
O460 Mg442 2.061 . S
C461 O457 1.277 . S
C461 O459 1.245 . S
O462 C436 1.289 . S
O462 Mg439 2.238 . S
O462 Mg440 2.106 . S
O463 Mg440 2.079 . S
O463 C445 1.245 . S
O464 Mg443 2.038 . S
O464 C445 1.274 . S
H465 C473 0.950 . S
H466 C478 0.950 . S
H467 C475 0.950 . S
H468 C477 0.950 . S
H469 C479 0.950 . S
H470 C481 0.950 . S
H471 C483 0.950 . S
H472 C484 0.950 . S
C473 H465 0.950 . S
C473 C474 1.386 . S
C473 C475 1.391 . S
C474 C473 1.386 . S
C474 C478 1.393 . S
C475 H467 0.950 . S
C475 C473 1.391 . S
C475 C476 1.400 . S
C476 C475 1.400 . S
C476 C477 1.398 . S
C476 C482 1.491 . S
C477 H468 0.950 . S
C477 C476 1.398 . S
C477 C478 1.391 . S
C478 H466 0.950 . S
C478 C474 1.393 . S
C478 C477 1.391 . S
C479 H469 0.950 . S
C479 C480 1.386 . S
C479 C481 1.391 . S
C480 C479 1.386 . S
C480 C484 1.393 . S
C481 H470 0.950 . S
C481 C479 1.391 . S
C481 C482 1.400 . S
C482 C476 1.491 . S
C482 C481 1.400 . S
C482 C483 1.398 . S
C483 H471 0.950 . S
C483 C482 1.398 . S
C483 C484 1.391 . S
C484 H472 0.950 . S
C484 C480 1.393 . S
C484 C483 1.391 . S
H485 C493 0.950 . S
H486 C498 0.950 . S
H487 C495 0.950 . S
H488 C497 0.950 . S
H489 C499 0.950 . S
H490 C501 0.950 . S
H491 C503 0.950 . S
H492 C504 0.950 . S
C493 H485 0.950 . S
C493 C494 1.386 . S
C493 C495 1.391 . S
C494 C493 1.386 . S
C494 C498 1.393 . S
C495 H487 0.950 . S
C495 C493 1.391 . S
C495 C496 1.400 . S
C496 C495 1.400 . S
C496 C497 1.398 . S
C496 C502 1.491 . S
C497 H488 0.950 . S
C497 C496 1.398 . S
C497 C498 1.391 . S
C498 H486 0.950 . S
C498 C494 1.393 . S
C498 C497 1.391 . S
C499 H489 0.950 . S
C499 C500 1.386 . S
C499 C501 1.391 . S
C500 C499 1.386 . S
C500 C504 1.393 . S
C501 H490 0.950 . S
C501 C499 1.391 . S
C501 C502 1.400 . S
C502 C496 1.491 . S
C502 C501 1.400 . S
C502 C503 1.398 . S
C503 H491 0.950 . S
C503 C502 1.398 . S
C503 C504 1.391 . S
C504 H492 0.950 . S
C504 C500 1.393 . S
C504 C503 1.391 . S
H505 C513 0.950 . S
H506 C518 0.950 . S
H507 C515 0.950 . S
H508 C517 0.950 . S
H509 C519 0.950 . S
H510 C521 0.950 . S
H511 C523 0.950 . S
H512 C524 0.950 . S
C513 H505 0.950 . S
C513 C514 1.386 . S
C513 C515 1.391 . S
C514 C513 1.386 . S
C514 C518 1.393 . S
C515 H507 0.950 . S
C515 C513 1.391 . S
C515 C516 1.400 . S
C516 C515 1.400 . S
C516 C517 1.398 . S
C516 C522 1.491 . S
C517 H508 0.950 . S
C517 C516 1.398 . S
C517 C518 1.391 . S
C518 H506 0.950 . S
C518 C514 1.393 . S
C518 C517 1.391 . S
C519 H509 0.950 . S
C519 C520 1.386 . S
C519 C521 1.391 . S
C520 C519 1.386 . S
C520 C524 1.393 . S
C521 H510 0.950 . S
C521 C519 1.391 . S
C521 C522 1.400 . S
C522 C516 1.491 . S
C522 C521 1.400 . S
C522 C523 1.398 . S
C523 H511 0.950 . S
C523 C522 1.398 . S
C523 C524 1.391 . S
C524 H512 0.950 . S
C524 C520 1.393 . S
C524 C523 1.391 . S
H525 C533 0.950 . S
H526 C538 0.950 . S
H527 C535 0.950 . S
H528 C537 0.950 . S
H529 C539 0.950 . S
H530 C541 0.950 . S
H531 C543 0.950 . S
H532 C544 0.950 . S
C533 H525 0.950 . S
C533 C534 1.386 . S
C533 C535 1.391 . S
C534 C533 1.386 . S
C534 C538 1.393 . S
C535 H527 0.950 . S
C535 C533 1.391 . S
C535 C536 1.400 . S
C536 C535 1.400 . S
C536 C537 1.398 . S
C536 C542 1.491 . S
C537 H528 0.950 . S
C537 C536 1.398 . S
C537 C538 1.391 . S
C538 H526 0.950 . S
C538 C534 1.393 . S
C538 C537 1.391 . S
C539 H529 0.950 . S
C539 C540 1.386 . S
C539 C541 1.391 . S
C540 C539 1.386 . S
C540 C544 1.393 . S
C541 H530 0.950 . S
C541 C539 1.391 . S
C541 C542 1.400 . S
C542 C536 1.491 . S
C542 C541 1.400 . S
C542 C543 1.398 . S
C543 H531 0.950 . S
C543 C542 1.398 . S
C543 C544 1.391 . S
C544 H532 0.950 . S
C544 C540 1.393 . S
C544 C543 1.391 . S
H545 C553 0.950 . S
H546 C558 0.950 . S
H547 C555 0.950 . S
H548 C557 0.950 . S
H549 C559 0.950 . S
H550 C561 0.950 . S
H551 C563 0.950 . S
H552 C564 0.950 . S
C553 H545 0.950 . S
C553 C554 1.386 . S
C553 C555 1.391 . S
C554 C553 1.386 . S
C554 C558 1.393 . S
C555 H547 0.950 . S
C555 C553 1.391 . S
C555 C556 1.400 . S
C556 C555 1.400 . S
C556 C557 1.398 . S
C556 C562 1.491 . S
C557 H548 0.950 . S
C557 C556 1.398 . S
C557 C558 1.391 . S
C558 H546 0.950 . S
C558 C554 1.393 . S
C558 C557 1.391 . S
C559 H549 0.950 . S
C559 C560 1.386 . S
C559 C561 1.391 . S
C560 C559 1.386 . S
C560 C564 1.393 . S
C561 H550 0.950 . S
C561 C559 1.391 . S
C561 C562 1.400 . S
C562 C556 1.491 . S
C562 C561 1.400 . S
C562 C563 1.398 . S
C563 H551 0.950 . S
C563 C562 1.398 . S
C563 C564 1.391 . S
C564 H552 0.950 . S
C564 C560 1.393 . S
C564 C563 1.391 . S
H565 C573 0.950 . S
H566 C578 0.950 . S
H567 C575 0.950 . S
H568 C577 0.950 . S
H569 C579 0.950 . S
H570 C581 0.950 . S
H571 C583 0.950 . S
H572 C584 0.950 . S
C573 H565 0.950 . S
C573 C574 1.386 . S
C573 C575 1.391 . S
C574 C573 1.386 . S
C574 C578 1.393 . S
C575 H567 0.950 . S
C575 C573 1.391 . S
C575 C576 1.400 . S
C576 C575 1.400 . S
C576 C577 1.398 . S
C576 C582 1.491 . S
C577 H568 0.950 . S
C577 C576 1.398 . S
C577 C578 1.391 . S
C578 H566 0.950 . S
C578 C574 1.393 . S
C578 C577 1.391 . S
C579 H569 0.950 . S
C579 C580 1.386 . S
C579 C581 1.391 . S
C580 C579 1.386 . S
C580 C584 1.393 . S
C581 H570 0.950 . S
C581 C579 1.391 . S
C581 C582 1.400 . S
C582 C576 1.491 . S
C582 C581 1.400 . S
C582 C583 1.398 . S
C583 H571 0.950 . S
C583 C582 1.398 . S
C583 C584 1.391 . S
C584 H572 0.950 . S
C584 C580 1.393 . S
C584 C583 1.391 . S
H585 C593 0.950 . S
H586 C598 0.950 . S
H587 C595 0.950 . S
H588 C597 0.950 . S
H589 C599 0.950 . S
H590 C601 0.950 . S
H591 C603 0.950 . S
H592 C604 0.950 . S
C593 H585 0.950 . S
C593 C594 1.386 . S
C593 C595 1.391 . S
C594 C593 1.386 . S
C594 C598 1.393 . S
C595 H587 0.950 . S
C595 C593 1.391 . S
C595 C596 1.400 . S
C596 C595 1.400 . S
C596 C597 1.398 . S
C596 C602 1.491 . S
C597 H588 0.950 . S
C597 C596 1.398 . S
C597 C598 1.391 . S
C598 H586 0.950 . S
C598 C594 1.393 . S
C598 C597 1.391 . S
C599 H589 0.950 . S
C599 C600 1.386 . S
C599 C601 1.391 . S
C600 C599 1.386 . S
C600 C604 1.393 . S
C601 H590 0.950 . S
C601 C599 1.391 . S
C601 C602 1.400 . S
C602 C596 1.491 . S
C602 C601 1.400 . S
C602 C603 1.398 . S
C603 H591 0.950 . S
C603 C602 1.398 . S
C603 C604 1.391 . S
C604 H592 0.950 . S
C604 C600 1.393 . S
C604 C603 1.391 . S
H605 C613 0.950 . S
H606 C618 0.950 . S
H607 C615 0.950 . S
H608 C617 0.950 . S
H609 C619 0.950 . S
H610 C621 0.950 . S
H611 C623 0.950 . S
H612 C624 0.950 . S
C613 H605 0.950 . S
C613 C614 1.386 . S
C613 C615 1.391 . S
C614 C613 1.386 . S
C614 C618 1.393 . S
C615 H607 0.950 . S
C615 C613 1.391 . S
C615 C616 1.400 . S
C616 C615 1.400 . S
C616 C617 1.398 . S
C616 C622 1.491 . S
C617 H608 0.950 . S
C617 C616 1.398 . S
C617 C618 1.391 . S
C618 H606 0.950 . S
C618 C614 1.393 . S
C618 C617 1.391 . S
C619 H609 0.950 . S
C619 C620 1.386 . S
C619 C621 1.391 . S
C620 C619 1.386 . S
C620 C624 1.393 . S
C621 H610 0.950 . S
C621 C619 1.391 . S
C621 C622 1.400 . S
C622 C616 1.491 . S
C622 C621 1.400 . S
C622 C623 1.398 . S
C623 H611 0.950 . S
C623 C622 1.398 . S
C623 C624 1.391 . S
C624 H612 0.950 . S
C624 C620 1.393 . S
C624 C623 1.391 . S
H625 C633 0.950 . S
H626 C638 0.950 . S
H627 C635 0.950 . S
H628 C637 0.950 . S
H629 C639 0.950 . S
H630 C641 0.950 . S
H631 C643 0.950 . S
H632 C644 0.950 . S
C633 H625 0.950 . S
C633 C634 1.386 . S
C633 C635 1.391 . S
C634 C633 1.386 . S
C634 C638 1.393 . S
C635 H627 0.950 . S
C635 C633 1.391 . S
C635 C636 1.400 . S
C636 C635 1.400 . S
C636 C637 1.398 . S
C636 C642 1.491 . S
C637 H628 0.950 . S
C637 C636 1.398 . S
C637 C638 1.391 . S
C638 H626 0.950 . S
C638 C634 1.393 . S
C638 C637 1.391 . S
C639 H629 0.950 . S
C639 C640 1.386 . S
C639 C641 1.391 . S
C640 C639 1.386 . S
C640 C644 1.393 . S
C641 H630 0.950 . S
C641 C639 1.391 . S
C641 C642 1.400 . S
C642 C636 1.491 . S
C642 C641 1.400 . S
C642 C643 1.398 . S
C643 H631 0.950 . S
C643 C642 1.398 . S
C643 C644 1.391 . S
C644 H632 0.950 . S
C644 C640 1.393 . S
C644 C643 1.391 . S
H645 C653 0.950 1_554 S
H646 C658 0.950 . S
H647 C655 0.950 . S
H648 C657 0.950 . S
H649 C659 0.950 . S
H650 C661 0.950 . S
H651 C663 0.950 . S
H652 C664 0.950 . S
C653 H645 0.950 1_556 S
C653 C654 1.386 . S
C653 C655 1.391 . S
C654 C653 1.386 . S
C654 C658 1.393 . S
C655 H647 0.950 . S
C655 C653 1.391 . S
C655 C656 1.400 . S
C656 C655 1.400 . S
C656 C657 1.398 . S
C656 C662 1.491 . S
C657 H648 0.950 . S
C657 C656 1.398 . S
C657 C658 1.391 . S
C658 H646 0.950 . S
C658 C654 1.393 . S
C658 C657 1.391 . S
C659 H649 0.950 . S
C659 C660 1.386 . S
C659 C661 1.391 . S
C660 C659 1.386 . S
C660 C664 1.393 . S
C661 H650 0.950 . S
C661 C659 1.391 . S
C661 C662 1.400 . S
C662 C656 1.491 . S
C662 C661 1.400 . S
C662 C663 1.398 . S
C663 H651 0.950 . S
C663 C662 1.398 . S
C663 C664 1.391 . S
C664 H652 0.950 . S
C664 C660 1.393 . S
C664 C663 1.391 . S
H665 C673 0.950 1_554 S
H666 C678 0.950 . S
H667 C675 0.950 . S
H668 C677 0.950 . S
H669 C679 0.950 . S
H670 C681 0.950 . S
H671 C683 0.950 . S
H672 C684 0.950 . S
C673 H665 0.950 1_556 S
C673 C674 1.386 . S
C673 C675 1.391 . S
C674 C673 1.386 . S
C674 C678 1.393 . S
C675 H667 0.950 . S
C675 C673 1.391 . S
C675 C676 1.400 . S
C676 C675 1.400 . S
C676 C677 1.398 . S
C676 C682 1.491 . S
C677 H668 0.950 . S
C677 C676 1.398 . S
C677 C678 1.391 . S
C678 H666 0.950 . S
C678 C674 1.393 . S
C678 C677 1.391 . S
C679 H669 0.950 . S
C679 C680 1.386 . S
C679 C681 1.391 . S
C680 C679 1.386 . S
C680 C684 1.393 . S
C681 H670 0.950 . S
C681 C679 1.391 . S
C681 C682 1.400 . S
C682 C676 1.491 . S
C682 C681 1.400 . S
C682 C683 1.398 . S
C683 H671 0.950 . S
C683 C682 1.398 . S
C683 C684 1.391 . S
C684 H672 0.950 . S
C684 C680 1.393 . S
C684 C683 1.391 . S
H685 C693 0.950 . S
H686 C698 0.950 . S
H687 C695 0.950 . S
H688 C697 0.950 . S
H689 C699 0.950 . S
H690 C701 0.950 . S
H691 C703 0.950 . S
H692 C704 0.950 . S
C693 H685 0.950 . S
C693 C694 1.386 . S
C693 C695 1.391 . S
C694 C693 1.386 . S
C694 C698 1.393 . S
C695 H687 0.950 . S
C695 C693 1.391 . S
C695 C696 1.400 . S
C696 C695 1.400 . S
C696 C697 1.398 . S
C696 C702 1.491 . S
C697 H688 0.950 . S
C697 C696 1.398 . S
C697 C698 1.391 . S
C698 H686 0.950 . S
C698 C694 1.393 . S
C698 C697 1.391 . S
C699 H689 0.950 . S
C699 C700 1.386 . S
C699 C701 1.391 . S
C700 C699 1.386 . S
C700 C704 1.393 . S
C701 H690 0.950 . S
C701 C699 1.391 . S
C701 C702 1.400 . S
C702 C696 1.491 . S
C702 C701 1.400 . S
C702 C703 1.398 . S
C703 H691 0.950 . S
C703 C702 1.398 . S
C703 C704 1.391 . S
C704 H692 0.950 . S
C704 C700 1.393 . S
C704 C703 1.391 . S
H705 C713 0.950 . S
H706 C718 0.950 . S
H707 C715 0.950 . S
H708 C717 0.950 . S
H709 C719 0.950 . S
H710 C721 0.950 . S
H711 C723 0.950 . S
H712 C724 0.950 . S
C713 H705 0.950 . S
C713 C714 1.386 . S
C713 C715 1.391 . S
C714 C713 1.386 . S
C714 C718 1.393 . S
C715 H707 0.950 . S
C715 C713 1.391 . S
C715 C716 1.400 . S
C716 C715 1.400 . S
C716 C717 1.398 . S
C716 C722 1.491 . S
C717 H708 0.950 . S
C717 C716 1.398 . S
C717 C718 1.391 . S
C718 H706 0.950 . S
C718 C714 1.393 . S
C718 C717 1.391 . S
C719 H709 0.950 . S
C719 C720 1.386 . S
C719 C721 1.391 . S
C720 C719 1.386 . S
C720 C724 1.393 . S
C721 H710 0.950 . S
C721 C719 1.391 . S
C721 C722 1.400 . S
C722 C716 1.491 . S
C722 C721 1.400 . S
C722 C723 1.398 . S
C723 H711 0.950 . S
C723 C722 1.398 . S
C723 C724 1.391 . S
C724 H712 0.950 . S
C724 C720 1.393 . S
C724 C723 1.391 . S
H725 C733 0.950 . S
H726 C738 0.950 . S
H727 C735 0.950 . S
H728 C737 0.950 . S
H729 C739 0.950 . S
H730 C741 0.950 . S
H731 C743 0.950 . S
H732 C744 0.950 . S
C733 H725 0.950 . S
C733 C734 1.386 . S
C733 C735 1.391 . S
C734 C733 1.386 . S
C734 C738 1.393 . S
C735 H727 0.950 . S
C735 C733 1.391 . S
C735 C736 1.400 . S
C736 C735 1.400 . S
C736 C737 1.398 . S
C736 C742 1.491 . S
C737 H728 0.950 . S
C737 C736 1.398 . S
C737 C738 1.391 . S
C738 H726 0.950 . S
C738 C734 1.393 . S
C738 C737 1.391 . S
C739 H729 0.950 . S
C739 C740 1.386 . S
C739 C741 1.391 . S
C740 C739 1.386 . S
C740 C744 1.393 . S
C741 H730 0.950 . S
C741 C739 1.391 . S
C741 C742 1.400 . S
C742 C736 1.491 . S
C742 C741 1.400 . S
C742 C743 1.398 . S
C743 H731 0.950 . S
C743 C742 1.398 . S
C743 C744 1.391 . S
C744 H732 0.950 . S
C744 C740 1.393 . S
C744 C743 1.391 . S
H745 C753 0.950 . S
H746 C758 0.950 . S
H747 C755 0.950 . S
H748 C757 0.950 . S
H749 C759 0.950 . S
H750 C761 0.950 . S
H751 C763 0.950 . S
H752 C764 0.950 . S
C753 H745 0.950 . S
C753 C754 1.386 . S
C753 C755 1.391 . S
C754 C753 1.386 . S
C754 C758 1.393 . S
C755 H747 0.950 . S
C755 C753 1.391 . S
C755 C756 1.400 . S
C756 C755 1.400 . S
C756 C757 1.398 . S
C756 C762 1.491 . S
C757 H748 0.950 . S
C757 C756 1.398 . S
C757 C758 1.391 . S
C758 H746 0.950 . S
C758 C754 1.393 . S
C758 C757 1.391 . S
C759 H749 0.950 . S
C759 C760 1.386 . S
C759 C761 1.391 . S
C760 C759 1.386 . S
C760 C764 1.393 . S
C761 H750 0.950 . S
C761 C759 1.391 . S
C761 C762 1.400 . S
C762 C756 1.491 . S
C762 C761 1.400 . S
C762 C763 1.398 . S
C763 H751 0.950 . S
C763 C762 1.398 . S
C763 C764 1.391 . S
C764 H752 0.950 . S
C764 C760 1.393 . S
C764 C763 1.391 . S
H765 C773 0.950 . S
H766 C778 0.950 . S
H767 C775 0.950 . S
H768 C777 0.950 . S
H769 C779 0.950 . S
H770 C781 0.950 . S
H771 C783 0.950 . S
H772 C784 0.950 . S
C773 H765 0.950 . S
C773 C774 1.386 . S
C773 C775 1.391 . S
C774 C773 1.386 . S
C774 C778 1.393 . S
C775 H767 0.950 . S
C775 C773 1.391 . S
C775 C776 1.400 . S
C776 C775 1.400 . S
C776 C777 1.398 . S
C776 C782 1.491 . S
C777 H768 0.950 . S
C777 C776 1.398 . S
C777 C778 1.391 . S
C778 H766 0.950 . S
C778 C774 1.393 . S
C778 C777 1.391 . S
C779 H769 0.950 . S
C779 C780 1.386 . S
C779 C781 1.391 . S
C780 C779 1.386 . S
C780 C784 1.393 . S
C781 H770 0.950 . S
C781 C779 1.391 . S
C781 C782 1.400 . S
C782 C776 1.491 . S
C782 C781 1.400 . S
C782 C783 1.398 . S
C783 H771 0.950 . S
C783 C782 1.398 . S
C783 C784 1.391 . S
C784 H772 0.950 . S
C784 C780 1.393 . S
C784 C783 1.391 . S
H785 C793 0.950 . S
H786 C798 0.950 . S
H787 C795 0.950 . S
H788 C797 0.950 . S
H789 C799 0.950 . S
H790 C801 0.950 . S
H791 C803 0.950 . S
H792 C804 0.950 . S
C793 H785 0.950 . S
C793 C794 1.386 . S
C793 C795 1.391 . S
C794 C793 1.386 . S
C794 C798 1.393 . S
C795 H787 0.950 . S
C795 C793 1.391 . S
C795 C796 1.400 . S
C796 C795 1.400 . S
C796 C797 1.398 . S
C796 C802 1.491 . S
C797 H788 0.950 . S
C797 C796 1.398 . S
C797 C798 1.391 . S
C798 H786 0.950 . S
C798 C794 1.393 . S
C798 C797 1.391 . S
C799 H789 0.950 . S
C799 C800 1.386 . S
C799 C801 1.391 . S
C800 C799 1.386 . S
C800 C804 1.393 . S
C801 H790 0.950 . S
C801 C799 1.391 . S
C801 C802 1.400 . S
C802 C796 1.491 . S
C802 C801 1.400 . S
C802 C803 1.398 . S
C803 H791 0.950 . S
C803 C802 1.398 . S
C803 C804 1.391 . S
C804 H792 0.950 . S
C804 C800 1.393 . S
C804 C803 1.391 . S
H805 C813 0.950 . S
H806 C818 0.950 . S
H807 C815 0.950 . S
H808 C817 0.950 . S
H809 C819 0.950 . S
H810 C821 0.950 . S
H811 C823 0.950 . S
H812 C824 0.950 . S
C813 H805 0.950 . S
C813 C814 1.386 . S
C813 C815 1.391 . S
C814 C813 1.386 . S
C814 C818 1.393 . S
C815 H807 0.950 . S
C815 C813 1.391 . S
C815 C816 1.400 . S
C816 C815 1.400 . S
C816 C817 1.398 . S
C816 C822 1.491 . S
C817 H808 0.950 . S
C817 C816 1.398 . S
C817 C818 1.391 . S
C818 H806 0.950 . S
C818 C814 1.393 . S
C818 C817 1.391 . S
C819 H809 0.950 . S
C819 C820 1.386 . S
C819 C821 1.391 . S
C820 C819 1.386 . S
C820 C824 1.393 . S
C821 H810 0.950 . S
C821 C819 1.391 . S
C821 C822 1.400 . S
C822 C816 1.491 . S
C822 C821 1.400 . S
C822 C823 1.398 . S
C823 H811 0.950 . S
C823 C822 1.398 . S
C823 C824 1.391 . S
C824 H812 0.950 . S
C824 C820 1.393 . S
C824 C823 1.391 . S
H825 C833 0.950 . S
H826 C838 0.950 . S
H827 C835 0.950 . S
H828 C837 0.950 . S
H829 C839 0.950 . S
H830 C841 0.950 . S
H831 C843 0.950 . S
H832 C844 0.950 . S
C833 H825 0.950 . S
C833 C834 1.386 . S
C833 C835 1.391 . S
C834 C833 1.386 . S
C834 C838 1.393 . S
C835 H827 0.950 . S
C835 C833 1.391 . S
C835 C836 1.400 . S
C836 C835 1.400 . S
C836 C837 1.398 . S
C836 C842 1.491 . S
C837 H828 0.950 . S
C837 C836 1.398 . S
C837 C838 1.391 . S
C838 H826 0.950 . S
C838 C834 1.393 . S
C838 C837 1.391 . S
C839 H829 0.950 . S
C839 C840 1.386 . S
C839 C841 1.391 . S
C840 C839 1.386 . S
C840 C844 1.393 . S
C841 H830 0.950 . S
C841 C839 1.391 . S
C841 C842 1.400 . S
C842 C836 1.491 . S
C842 C841 1.400 . S
C842 C843 1.398 . S
C843 H831 0.950 . S
C843 C842 1.398 . S
C843 C844 1.391 . S
C844 H832 0.950 . S
C844 C840 1.393 . S
C844 C843 1.391 . S
H845 C853 0.950 . S
H846 C858 0.950 . S
H847 C855 0.950 . S
H848 C857 0.950 . S
H849 C859 0.950 . S
H850 C861 0.950 . S
H851 C863 0.950 . S
H852 C864 0.950 . S
C853 H845 0.950 . S
C853 C854 1.386 . S
C853 C855 1.391 . S
C854 C853 1.386 . S
C854 C858 1.393 . S
C855 H847 0.950 . S
C855 C853 1.391 . S
C855 C856 1.400 . S
C856 C855 1.400 . S
C856 C857 1.398 . S
C856 C862 1.491 . S
C857 H848 0.950 . S
C857 C856 1.398 . S
C857 C858 1.391 . S
C858 H846 0.950 . S
C858 C854 1.393 . S
C858 C857 1.391 . S
C859 H849 0.950 . S
C859 C860 1.386 . S
C859 C861 1.391 . S
C860 C859 1.386 . S
C860 C864 1.393 . S
C861 H850 0.950 . S
C861 C859 1.391 . S
C861 C862 1.400 . S
C862 C856 1.491 . S
C862 C861 1.400 . S
C862 C863 1.398 . S
C863 H851 0.950 . S
C863 C862 1.398 . S
C863 C864 1.391 . S
C864 H852 0.950 . S
C864 C860 1.393 . S
C864 C863 1.391 . S
H865 C873 0.950 . S
H866 C878 0.950 . S
H867 C875 0.950 . S
H868 C877 0.950 . S
H869 C879 0.950 . S
H870 C881 0.950 . S
H871 C883 0.950 . S
H872 C884 0.950 . S
C873 H865 0.950 . S
C873 C874 1.386 . S
C873 C875 1.391 . S
C874 C873 1.386 . S
C874 C878 1.393 . S
C875 H867 0.950 . S
C875 C873 1.391 . S
C875 C876 1.400 . S
C876 C875 1.400 . S
C876 C877 1.398 . S
C876 C882 1.491 . S
C877 H868 0.950 . S
C877 C876 1.398 . S
C877 C878 1.391 . S
C878 H866 0.950 . S
C878 C874 1.393 . S
C878 C877 1.391 . S
C879 H869 0.950 . S
C879 C880 1.386 . S
C879 C881 1.391 . S
C880 C879 1.386 . S
C880 C884 1.393 . S
C881 H870 0.950 . S
C881 C879 1.391 . S
C881 C882 1.400 . S
C882 C876 1.491 . S
C882 C881 1.400 . S
C882 C883 1.398 . S
C883 H871 0.950 . S
C883 C882 1.398 . S
C883 C884 1.391 . S
C884 H872 0.950 . S
C884 C880 1.393 . S
C884 C883 1.391 . S
H885 C893 0.950 . S
H886 C898 0.950 . S
H887 C895 0.950 . S
H888 C897 0.950 . S
H889 C899 0.950 . S
H890 C901 0.950 . S
H891 C903 0.950 . S
H892 C904 0.950 . S
C893 H885 0.950 . S
C893 C894 1.386 . S
C893 C895 1.391 . S
C894 C893 1.386 . S
C894 C898 1.393 . S
C895 H887 0.950 . S
C895 C893 1.391 . S
C895 C896 1.400 . S
C896 C895 1.400 . S
C896 C897 1.398 . S
C896 C902 1.491 . S
C897 H888 0.950 . S
C897 C896 1.398 . S
C897 C898 1.391 . S
C898 H886 0.950 . S
C898 C894 1.393 . S
C898 C897 1.391 . S
C899 H889 0.950 . S
C899 C900 1.386 . S
C899 C901 1.391 . S
C900 C899 1.386 . S
C900 C904 1.393 . S
C901 H890 0.950 . S
C901 C899 1.391 . S
C901 C902 1.400 . S
C902 C896 1.491 . S
C902 C901 1.400 . S
C902 C903 1.398 . S
C903 H891 0.950 . S
C903 C902 1.398 . S
C903 C904 1.391 . S
C904 H892 0.950 . S
C904 C900 1.393 . S
C904 C903 1.391 . S
H905 C913 0.950 . S
H906 C918 0.950 . S
H907 C915 0.950 . S
H908 C917 0.950 . S
H909 C919 0.950 . S
H910 C921 0.950 . S
H911 C923 0.950 . S
H912 C924 0.950 . S
C913 H905 0.950 . S
C913 C914 1.386 . S
C913 C915 1.391 . S
C914 C913 1.386 . S
C914 C918 1.393 . S
C915 H907 0.950 . S
C915 C913 1.391 . S
C915 C916 1.400 . S
C916 C915 1.400 . S
C916 C917 1.398 . S
C916 C922 1.491 . S
C917 H908 0.950 . S
C917 C916 1.398 . S
C917 C918 1.391 . S
C918 H906 0.950 . S
C918 C914 1.393 . S
C918 C917 1.391 . S
C919 H909 0.950 . S
C919 C920 1.386 . S
C919 C921 1.391 . S
C920 C919 1.386 . S
C920 C924 1.393 . S
C921 H910 0.950 . S
C921 C919 1.391 . S
C921 C922 1.400 . S
C922 C916 1.491 . S
C922 C921 1.400 . S
C922 C923 1.398 . S
C923 H911 0.950 . S
C923 C922 1.398 . S
C923 C924 1.391 . S
C924 H912 0.950 . S
C924 C920 1.393 . S
C924 C923 1.391 . S
H925 C933 0.950 . S
H926 C938 0.950 . S
H927 C935 0.950 . S
H928 C937 0.950 . S
H929 C939 0.950 . S
H930 C941 0.950 . S
H931 C943 0.950 . S
H932 C944 0.950 . S
C933 H925 0.950 . S
C933 C934 1.386 . S
C933 C935 1.391 . S
C934 C933 1.386 . S
C934 C938 1.393 . S
C935 H927 0.950 . S
C935 C933 1.391 . S
C935 C936 1.400 . S
C936 C935 1.400 . S
C936 C937 1.398 . S
C936 C942 1.491 . S
C937 H928 0.950 . S
C937 C936 1.398 . S
C937 C938 1.391 . S
C938 H926 0.950 . S
C938 C934 1.393 . S
C938 C937 1.391 . S
C939 H929 0.950 . S
C939 C940 1.386 . S
C939 C941 1.391 . S
C940 C939 1.386 . S
C940 C944 1.393 . S
C941 H930 0.950 . S
C941 C939 1.391 . S
C941 C942 1.400 . S
C942 C936 1.491 . S
C942 C941 1.400 . S
C942 C943 1.398 . S
C943 H931 0.950 . S
C943 C942 1.398 . S
C943 C944 1.391 . S
C944 H932 0.950 . S
C944 C940 1.393 . S
C944 C943 1.391 . S
C474 C47 2.005 . S
C480 C383 2.137 . S
C494 C91 1.845 . S
C500 C430 1.918 . S
C520 C434 1.811 . S
C514 C177 1.906 . S
C540 C399 1.784 . S
C534 C215 1.751 . S
C554 C295 1.925 . S
C560 C414 2.003 . S
C580 C436 0.894 . S
C574 C345 0.908 . S
C600 C405 1.685 . S
C594 C153 1.645 . S
C614 C239 1.348 . S
C620 C445 1.287 . S
C640 C374 1.230 . S
C634 C283 1.283 . S
C654 C357 1.646 1_556 S
C660 C403 1.704 . S
C674 C35 1.966 1_556 S
C680 C461 1.907 . S
C700 C372 1.482 . S
C694 C115 1.521 1_556 S
C720 C390 1.701 . S
C714 C221 1.791 . S
C740 C404 1.539 . S
C734 C301 1.550 . S
C760 C458 2.102 . S
C754 C339 2.051 1_556 S
C780 C373 1.509 . S
C774 C53 1.565 1_556 S
C800 C421 1.689 . S
C794 C97 1.782 . S
C814 C171 1.235 . S
C820 C444 1.267 . S
C840 C413 1.306 . S
C834 C363 1.320 . S
C860 C452 1.681 . S
C854 C29 1.567 . S
C880 C382 1.546 . S
C874 C109 1.546 . S
C900 C427 1.445 . S
C894 C159 1.503 . S
C914 C233 2.170 . S
C920 C435 2.191 . S
C934 C277 1.715 . S
C940 C396 1.804 . S
