# Generated by pormake.
# Topology ftw, (4,12)-cn, num edge types: 1
# Building blocks:
#     Node 0, Type 0, BuildingBlock: MIFKUJ_clean_linker_1, # of connection points: 4
#     Node 1, Type 0, BuildingBlock: MIFKUJ_clean_linker_1, # of connection points: 4
#     Node 2, Type 0, BuildingBlock: MIFKUJ_clean_linker_1, # of connection points: 4
#     Node 3, Type 1, BuildingBlock: QEWDON_clean_sbu_0, # of connection points: 12
#     Edge 4, Type (0, 1), BuildingBlock: TEMPAE_clean_linker_10, # of connection points: 2
#     Edge 5, Type (0, 1), BuildingBlock: TEMPAE_clean_linker_10, # of connection points: 2
#     Edge 6, Type (0, 1), BuildingBlock: TEMPAE_clean_linker_10, # of connection points: 2
#     Edge 7, Type (0, 1), BuildingBlock: TEMPAE_clean_linker_10, # of connection points: 2
#     Edge 8, Type (0, 1), BuildingBlock: TEMPAE_clean_linker_10, # of connection points: 2
#     Edge 9, Type (0, 1), BuildingBlock: TEMPAE_clean_linker_10, # of connection points: 2
#     Edge 10, Type (0, 1), BuildingBlock: TEMPAE_clean_linker_10, # of connection points: 2
#     Edge 11, Type (0, 1), BuildingBlock: TEMPAE_clean_linker_10, # of connection points: 2
#     Edge 12, Type (0, 1), BuildingBlock: TEMPAE_clean_linker_10, # of connection points: 2
#     Edge 13, Type (0, 1), BuildingBlock: TEMPAE_clean_linker_10, # of connection points: 2
#     Edge 14, Type (0, 1), BuildingBlock: TEMPAE_clean_linker_10, # of connection points: 2
#     Edge 15, Type (0, 1), BuildingBlock: TEMPAE_clean_linker_10, # of connection points: 2
# Relax obj value: 0.070
# Max RMSD: 0.194
# Mean RMSD: 0.143
data_MOF--net-ftw--node1-QEWDON_clean_sbu_0--node2-MIFKUJ_clean_linker_1--edge1-TEMPAE_clean_linker_10
_symmetry_space_group_name_H-M    P1
_symmetry_Int_Tables_number       1
_symmetry_cell_setting            triclinic
loop_
_symmetry_equiv_pos_as_xyz
'x, y, z'
_cell_length_a     26.826389
_cell_length_b     30.068125
_cell_length_c     29.211102
_cell_angle_alpha  90.394122
_cell_angle_beta   90.455843
_cell_angle_gamma 90.249592
loop_
_atom_site_label
_atom_site_type_symbol
_atom_site_fract_x
_atom_site_fract_y
_atom_site_fract_z
_atom_type_partial_charge
H0 H 0.06898 0.54147 0.6168 0.0
H1 H 0.06743 0.59983 0.67499 0.0
H2 H 0.93557 0.65505 0.61168 0.0
H3 H 0.93605 0.59508 0.55463 0.0
H4 H 0.00334 0.47903 0.60613 0.0
H5 H 0.07818 0.57996 0.49119 0.0
H6 H 0.08636 0.64643 0.44322 0.0
H7 H 0.92942 0.63923 0.41036 0.0
H8 H 0.92173 0.57196 0.45716 0.0
H9 H 0.91585 0.41465 0.4433 0.0
H10 H 0.91631 0.35284 0.38789 0.0
H11 H 0.0718 0.33003 0.41787 0.0
H12 H 0.07075 0.39104 0.4745 0.0
H13 H 0.98961 0.49207 0.43754 0.0
H14 H 0.92834 0.37646 0.53525 0.0
H15 H 0.92001 0.31143 0.58425 0.0
H16 H 0.05517 0.34957 0.65624 0.0
H17 H 0.06472 0.41285 0.60549 0.0
C18 C 0.00293 0.56387 0.58086 0.0
C19 C 0.03995 0.56636 0.6151 0.0
C20 C 0.03916 0.60004 0.64833 0.0
C21 C 0.00132 0.63234 0.64826 0.0
C22 C 0.96494 0.63051 0.61322 0.0
C23 C 0.96566 0.59659 0.58 0.0
C24 C 0.00054 0.52444 0.54959 0.0
C25 C 0.00141 0.48188 0.56915 0.0
C26 C -0.00396 0.52802 0.50149 0.0
C27 C -0.0007 0.57131 0.47784 0.0
C28 C 0.04543 0.59313 0.4742 0.0
C29 C 0.0501 0.63088 0.44675 0.0
C30 C 0.00848 0.64784 0.42328 0.0
C31 C 0.96192 0.62696 0.42845 0.0
C32 C 0.95752 0.58862 0.45504 0.0
C33 C -0.00687 0.40717 0.46328 0.0
C34 C 0.94982 0.39591 0.43844 0.0
C35 C 0.95012 0.36062 0.40689 0.0
C36 C -0.00589 0.33671 0.39864 0.0
C37 C 0.03745 0.34797 0.42357 0.0
C38 C 0.03681 0.38261 0.45599 0.0
C39 C -0.00634 0.44664 0.49418 0.0
C40 C 0.99213 0.48917 0.4745 0.0
C41 C -0.00171 0.44293 0.54227 0.0
C42 C -0.00262 0.39952 0.56635 0.0
C43 C 0.95717 0.36993 0.56043 0.0
C44 C 0.95198 0.3331 0.58911 0.0
C45 C 0.98656 0.3254 0.62471 0.0
C46 C 0.02804 0.35397 0.62903 0.0
C47 C 0.03342 0.39046 0.60013 0.0
H48 H 0.40192 0.05454 0.46044 0.0
H49 H 0.34097 0.04662 0.39795 0.0
H50 H 0.39062 0.91216 0.37386 0.0
H51 H 0.45254 0.92067 0.43597 0.0
H52 H 0.39953 0.98881 0.53736 0.0
H53 H 0.50469 0.0537 0.42397 0.0
H54 H 0.55541 0.06177 0.35509 0.0
H55 H 0.6417 0.94721 0.39489 0.0
H56 H 0.59079 0.93902 0.46326 0.0
H57 H 0.59458 0.93561 0.60018 0.0
H58 H 0.64842 0.93874 0.66793 0.0
H59 H 0.56936 0.05457 0.71623 0.0
H60 H 0.5161 0.05181 0.64764 0.0
H61 H 0.58403 0.99447 0.53273 0.0
H62 H 0.47644 0.92941 0.64633 0.0
H63 H 0.42241 0.92093 0.71324 0.0
H64 H 0.33878 0.03631 0.67141 0.0
H65 H 0.39302 0.04519 0.60543 0.0
C66 C 0.43199 0.98837 0.45238 0.0
C67 C 0.40039 0.02372 0.44103 0.0
C68 C 0.36565 0.01914 0.40541 0.0
C69 C 0.3611 0.97874 0.38121 0.0
C70 C 0.39333 0.94356 0.39212 0.0
C71 C 0.42885 0.94849 0.42724 0.0
C72 C 0.46369 0.99137 0.49401 0.0
C73 C 0.43993 0.99071 0.53648 0.0
C74 C 0.51625 0.9927 0.49247 0.0
C75 C 0.5437 0.99553 0.44868 0.0
C76 C 0.53381 0.02973 0.41735 0.0
C77 C 0.56294 0.03448 0.37812 0.0
C78 C 0.60282 0.00543 0.36991 0.0
C79 C 0.61178 0.9706 0.40075 0.0
C80 C 0.58258 0.96575 0.43972 0.0
C81 C 0.55104 0.99326 0.61887 0.0
C82 C 0.58871 0.96163 0.62538 0.0
C83 C 0.61921 0.96325 0.66437 0.0
C84 C 0.61302 0.99676 0.6977 0.0
C85 C 0.57524 0.02846 0.69115 0.0
C86 C 0.54452 0.02669 0.65214 0.0
C87 C 0.51985 0.99189 0.57651 0.0
C88 C 0.54366 0.99268 0.5338 0.0
C89 C 0.46716 0.9908 0.57773 0.0
C90 C 0.43882 0.98804 0.62095 0.0
C91 C 0.44714 0.95341 0.65215 0.0
C92 C 0.41617 0.94841 0.69014 0.0
C93 C 0.37607 0.97754 0.69691 0.0
C94 C 0.36886 0.01288 0.66642 0.0
C95 C 0.39996 0.01811 0.62889 0.0
H96 H 0.59982 0.55495 0.92445 0.0
H97 H 0.67191 0.60178 0.9052 0.0
H98 H 0.6617 0.66701 0.03684 0.0
H99 H 0.5915 0.61943 0.0567 0.0
H100 H 0.58631 0.49553 0.98636 0.0
H101 H 0.49995 0.63475 0.95539 0.0
H102 H 0.46537 0.70998 0.96109 0.0
H103 H 0.44752 0.69318 0.10673 0.0
H104 H 0.48166 0.61818 0.10087 0.0
H105 H 0.42651 0.48986 0.11569 0.0
H106 H 0.35482 0.44328 0.13649 0.0
H107 H 0.34462 0.39522 0.99707 0.0
H108 H 0.41639 0.44139 0.97657 0.0
H109 H 0.43019 0.55664 0.05043 0.0
H110 H 0.50399 0.4181 0.08153 0.0
H111 H 0.52773 0.33969 0.07924 0.0
H112 H 0.5728 0.35389 0.93867 0.0
H113 H 0.54685 0.43189 0.94009 0.0
C114 C 0.58937 0.58432 0.99166 0.0
C115 C 0.61316 0.57934 0.94917 0.0
C116 C 0.65423 0.606 0.93815 0.0
C117 C 0.67172 0.63832 0.96929 0.0
C118 C 0.6482 0.64295 0.01184 0.0
C119 C 0.60785 0.61594 0.0231 0.0
C120 C 0.54671 0.55526 1.0041 0.0
C121 C 0.55171 0.50896 0.99939 0.0
C122 C 0.50247 0.57254 0.02319 0.0
C123 C 0.49273 0.62079 0.02764 0.0
C124 C 0.49011 0.64787 0.98873 0.0
C125 C 0.47057 0.69086 0.99204 0.0
C126 C 0.45331 0.70704 0.03428 0.0
C127 C 0.46012 0.68125 0.07372 0.0
C128 C 0.4795 0.63845 0.0704 0.0
C129 C 0.42685 0.46874 0.0447 0.0
C130 C 0.40874 0.46925 0.08968 0.0
C131 C 0.36799 0.4427 0.10153 0.0
C132 C 0.34413 0.41604 0.06828 0.0
C133 C 0.36204 0.41595 0.02318 0.0
C134 C 0.4032 0.44194 1.01153 0.0
C135 C 0.46961 0.49723 0.03203 0.0
C136 C 0.46465 0.54329 0.03691 0.0
C137 C 0.51387 0.47962 0.01341 0.0
C138 C 0.52317 0.43099 1.01082 0.0
C139 C 0.51715 0.40409 0.04962 0.0
C140 C 0.5308 0.35931 0.04841 0.0
C141 C 0.55179 0.34102 1.00875 0.0
C142 C 0.55647 0.36741 0.96956 0.0
C143 C 0.54198 0.41194 0.97049 0.0
Zn144 Zn 0.07755 0.09173 1.00193 0.0
Zn145 Zn 0.04604 0.08547 0.10827 0.0
O146 O 0.05232 0.05048 0.04982 0.0
H147 H 0.04384 0.01983 0.04347 0.0
C148 C 0.91972 0.11164 0.88291 0.0
O149 O 0.91971 0.06836 0.87708 0.0
Zn150 Zn 0.94035 0.91811 0.10464 0.0
Zn151 Zn 0.94835 0.9578 1.00585 0.0
O152 O 0.96935 0.97108 0.07297 0.0
H153 H 0.97524 -0.0003 0.08728 0.0
Zn154 Zn 0.87887 0.08657 0.97305 0.0
O155 O 0.92098 0.07655 0.03013 0.0
Zn156 Zn 0.87452 0.06904 0.08326 0.0
H157 H 0.95561 0.06796 0.02966 0.0
Zn158 Zn 0.05812 0.89496 0.99177 0.0
O159 O 0.02608 0.90447 0.05405 0.0
H160 H 0.03817 0.8993 0.02344 0.0
Zn161 Zn 0.07822 0.92252 0.09995 0.0
C162 C 0.02012 0.86086 0.90319 0.0
O163 O 0.02693 0.90278 0.89237 0.0
O164 O 0.10605 0.14803 0.03127 0.0
O165 O 0.08294 0.14538 0.10436 0.0
O166 O 0.93974 0.89139 0.98969 0.0
O167 O 0.92333 0.86838 0.05986 0.0
O168 O 0.80475 0.0944 0.98871 0.0
O169 O 0.80358 0.08448 0.06422 0.0
C170 C 0.0869 0.00846 0.15494 0.0
O171 O 0.13439 0.89523 0.99771 0.0
O172 O 0.14675 0.90979 0.07188 0.0
O173 O 0.88961 0.99013 0.97273 0.0
C174 C 0.10555 0.16455 0.0715 0.0
O175 O 0.12192 0.06524 0.95152 0.0
C176 C 0.85778 0.97709 0.12831 0.0
O177 O 0.90582 0.12767 0.92111 0.0
C178 C 0.92632 0.86092 0.01694 0.0
O179 O 0.02903 0.84886 0.94412 0.0
C180 C 0.94283 0.11635 0.14166 0.0
O181 O 0.07749 0.04977 0.15852 0.0
O182 O 0.07286 0.98755 0.11884 0.0
C183 C 0.78139 0.09339 0.02654 0.0
O184 O 0.87586 0.93828 0.13319 0.0
O185 O 0.88125 0.00489 0.10375 0.0
C186 C 0.02387 0.87683 0.17356 0.0
O187 O 0.89646 0.1119 0.13369 0.0
O188 O 0.97257 0.09286 0.11812 0.0
C189 C 0.16347 0.90076 0.03199 0.0
O190 O 0.06603 0.8867 0.15642 0.0
O191 O 0.98289 0.88852 0.15463 0.0
C192 C 0.88996 0.98144 0.93004 0.0
O193 O 0.92789 0.95921 0.91342 0.0
C194 C 0.13216 0.02423 0.94706 0.0
O195 O 0.11173 0.99516 0.97463 0.0
C196 C 0.96041 0.26612 0.36397 0.0
C197 C -0.00516 0.30127 0.36283 0.0
C198 C 0.95817 0.23418 0.32859 0.0
C199 C 0.99015 0.23817 0.29038 0.0
C200 C 0.0258 0.27309 0.28964 0.0
C201 C 0.02811 0.30391 0.32614 0.0
C202 C 0.92036 0.19698 0.3314 0.0
C203 C 0.05962 0.27935 0.24914 0.0
C204 C -0.00171 0.1393 0.20756 0.0
C205 C 0.96011 0.14927 0.17632 0.0
C206 C 0.00941 0.16824 0.24452 0.0
C207 C 0.98257 0.20856 0.24946 0.0
C208 C 0.94591 0.21968 0.21634 0.0
C209 C 0.93461 0.18963 0.18075 0.0
C210 C 0.048 0.15458 0.27949 0.0
C211 C 0.91739 0.26281 0.21924 0.0
H212 H 0.93491 0.26386 0.39248 0.0
H213 H 0.05451 0.33127 0.32505 0.0
H214 H 0.89094 0.2017 0.305 0.0
H215 H 0.93837 0.16451 0.32436 0.0
H216 H 0.90234 0.19557 0.36547 0.0
H217 H 0.08748 0.30627 0.25505 0.0
H218 H 0.0796 0.24807 0.24117 0.0
H219 H 0.03685 0.28779 0.21856 0.0
H220 H 0.01758 0.10785 0.20455 0.0
H221 H 0.90521 0.19751 0.15647 0.0
H222 H 0.02957 0.14849 0.31276 0.0
H223 H 0.07563 0.18166 0.28508 0.0
H224 H 0.06804 0.12391 0.26909 0.0
H225 H 0.89308 0.26253 0.24978 0.0
H226 H 0.89369 0.2684 0.18847 0.0
H227 H 0.94356 0.29129 0.22322 0.0
C228 C 0.68793 0.00861 0.3363 0.0
C229 C 0.63621 0.01174 0.33018 0.0
C230 C 0.72022 0.01003 0.29892 0.0
C231 C 0.70034 0.0147 0.25416 0.0
C232 C 0.64839 0.02064 0.24794 0.0
C233 C 0.61683 0.01908 0.28613 0.0
C234 C 0.77545 0.00402 0.30719 0.0
C235 C 0.62588 0.02612 0.20082 0.0
C236 C 0.8008 0.03276 0.16532 0.0
C237 C 0.81171 0.98872 0.15317 0.0
C238 C 0.76184 0.04246 0.19571 0.0
C239 C 0.7335 0.00715 0.21431 0.0
C240 C 0.74194 0.96302 0.19925 0.0
C241 C 0.7809 0.95439 0.16894 0.0
C242 C 0.75343 0.09006 0.21027 0.0
C243 C 0.71229 0.92436 0.21775 0.0
H244 H 0.70315 0.00405 0.37044 0.0
H245 H 0.57684 0.02168 0.28127 0.0
H246 H 0.78739 0.97156 0.29276 0.0
H247 H 0.7969 0.0304 0.28962 0.0
H248 H 0.7853 0.00486 0.3442 0.0
H249 H 0.5867 0.03784 0.20233 0.0
H250 H 0.64801 0.04999 0.1804 0.0
H251 H 0.62637 0.9937 0.18247 0.0
H252 H 0.82433 0.0594 0.15333 0.0
H253 H 0.78855 0.92028 0.15907 0.0
H254 H 0.76896 0.0953 0.24522 0.0
H255 H 0.71302 0.09761 0.21153 0.0
H256 H 0.7718 0.11391 0.18684 0.0
H257 H 0.72207 0.91937 0.25434 0.0
H258 H 0.71972 0.89291 0.19887 0.0
H259 H 0.67177 0.93135 0.21582 0.0
C260 C 0.98507 0.72356 0.39519 0.0
C261 C 0.01413 0.68518 0.39084 0.0
C262 C 0.98834 0.75799 0.36299 0.0
C263 C 0.0201 0.75313 0.32475 0.0
C264 C 0.05017 0.71471 0.32078 0.0
C265 C 0.04722 0.68142 0.35416 0.0
C266 C 0.95776 0.79949 0.36971 0.0
C267 C 0.08445 0.70822 0.28058 0.0
C268 C 0.98497 0.81417 0.21578 0.0
C269 C 0.02188 0.8472 0.21371 0.0
C270 C 0.9841 0.78347 0.25173 0.0
C271 C 0.01986 0.7869 0.28755 0.0
C272 C 0.05613 0.82137 0.28649 0.0
C273 C 0.05743 0.85047 0.24899 0.0
C274 C 0.94588 0.74641 0.25051 0.0
C275 C 0.09439 0.8275 0.32415 0.0
H276 H 0.95987 0.72661 0.42387 0.0
H277 H 0.06954 0.65162 0.35075 0.0
H278 H 0.98224 0.82931 0.36813 0.0
H279 H 0.92975 0.80234 0.34177 0.0
H280 H 0.93799 0.79966 0.40299 0.0
H281 H 0.10466 0.67609 0.28206 0.0
H282 H 0.06268 0.70936 0.24814 0.0
H283 H 0.11222 0.73564 0.27968 0.0
H284 H 0.95779 0.81125 0.18823 0.0
H285 H 0.08597 0.87609 0.24755 0.0
H286 H 0.92241 0.74784 0.28156 0.0
H287 H 0.96502 0.71375 0.25048 0.0
H288 H 0.92117 0.74805 0.21987 0.0
H289 H 0.0824 0.81293 0.35708 0.0
H290 H 0.10225 0.8634 0.32979 0.0
H291 H 0.12972 0.81144 0.31369 0.0
C292 C 0.31493 0.00492 0.31191 0.0
C293 C 0.3211 0.97311 0.34625 0.0
C294 C 0.27462 0.00244 0.28109 0.0
C295 C 0.239 0.96775 0.28523 0.0
C296 C 0.24595 0.93469 0.31896 0.0
C297 C 0.28712 0.93766 0.34898 0.0
C298 C 0.26943 0.03771 0.24482 0.0
C299 C 0.20876 0.89748 0.32493 0.0
C300 C 0.11514 0.00444 0.23611 0.0
C301 C 0.1177 0.98776 0.19124 0.0
C302 C 0.15231 0.9948 0.26858 0.0
C303 C 0.19338 0.96819 0.25571 0.0
C304 C 0.1936 0.94777 0.21188 0.0
C305 C 0.15583 0.95807 0.18008 0.0
C306 C 0.14967 0.01612 0.31542 0.0
C307 C 0.23593 0.9184 0.19679 0.0
H308 H 0.34147 0.03209 0.30953 0.0
H309 H 0.29159 0.91324 0.37582 0.0
H310 H 0.26553 0.02192 0.21052 0.0
H311 H 0.23523 0.05743 0.25098 0.0
H312 H 0.30187 0.06079 0.24439 0.0
H313 H 0.22442 0.86983 0.3455 0.0
H314 H 0.1757 0.91066 0.34299 0.0
H315 H 0.19593 0.88406 0.29135 0.0
H316 H 0.08552 0.02727 0.24508 0.0
H317 H 0.15869 0.94584 0.14548 0.0
H318 H 0.17785 0.04316 0.3181 0.0
H319 H 0.15839 0.99147 0.34237 0.0
H320 H 0.11236 0.03052 0.32222 0.0
H321 H 0.26604 0.93954 0.18267 0.0
H322 H 0.22357 0.89466 0.16966 0.0
H323 H 0.25177 0.89921 0.22571 0.0
C324 C 0.95371 0.6798 0.70453 0.0
C325 C -0.00061 0.66689 0.68535 0.0
C326 C 0.95177 0.71116 0.74052 0.0
C327 C -0.00343 0.72991 0.7581 0.0
C328 C 0.0427 0.71713 0.73887 0.0
C329 C 0.04352 0.68609 0.7027 0.0
C330 C 0.90183 0.72402 0.75995 0.0
C331 C 0.09139 0.73622 0.75659 0.0
C332 C 0.00087 0.84082 0.82147 0.0
C333 C 0.00761 0.82745 0.86705 0.0
C334 C -0.00517 0.80944 0.78596 0.0
C335 C -0.00433 0.76346 0.7961 0.0
C336 C -0.0003 0.74979 0.84232 0.0
C337 C 0.00554 0.78192 0.87723 0.0
C338 C 0.98965 0.82553 0.73731 0.0
C339 C 0.00027 0.70116 0.85477 0.0
H340 H 0.91941 0.66478 0.69199 0.0
H341 H 0.07894 0.67704 0.68779 0.0
H342 H 0.90002 0.71452 0.79652 0.0
H343 H 0.89701 0.76062 0.75844 0.0
H344 H 0.8703 0.70783 0.74132 0.0
H345 H 0.12415 0.72217 0.7386 0.0
H346 H 0.0917 0.77285 0.75234 0.0
H347 H 0.0954 0.72945 0.79373 0.0
H348 H 0.00179 0.8759 0.81323 0.0
H349 H 0.01011 0.77123 0.91236 0.0
H350 H 0.95729 0.80922 0.72018 0.0
H351 H 0.0234 0.8164 0.71772 0.0
H352 H 0.98482 0.86216 0.73555 0.0
H353 H 0.96813 0.68353 0.83873 0.0
H354 H -0.00101 0.69607 0.89238 0.0
H355 H 0.0347 0.68558 0.84141 0.0
C356 C 0.35806 0.96695 0.78011 0.0
C357 C 0.34079 0.97125 0.73498 0.0
C358 C 0.32461 0.96782 0.81686 0.0
C359 C 0.27298 0.97294 0.80792 0.0
C360 C 0.25522 0.97361 0.76219 0.0
C361 C 0.2894 0.97292 0.72627 0.0
C362 C 0.34482 0.96664 0.8652 0.0
C363 C 0.20038 0.9783 0.75121 0.0
C364 C 0.17646 0.96505 0.90224 0.0
C365 C 0.16872 0.01018 0.91229 0.0
C366 C 0.211 0.95203 0.86884 0.0
C367 C 0.23859 0.98497 0.84551 0.0
C368 C 0.23146 0.03048 0.85616 0.0
C369 C 0.19654 0.04248 0.88923 0.0
C370 C 0.21768 0.90321 0.85831 0.0
C371 C 0.26015 0.0667 0.83205 0.0
H372 H 0.39783 0.96547 0.78681 0.0
H373 H 0.27602 0.97526 0.69124 0.0
H374 H 0.34198 0.00026 0.88085 0.0
H375 H 0.32258 0.94359 0.88645 0.0
H376 H 0.38449 0.95622 0.86637 0.0
H377 H 0.19215 0.97225 0.71435 0.0
H378 H 0.17802 0.95476 0.77181 0.0
H379 H 0.18808 0.01244 0.76014 0.0
H380 H 0.15509 0.93993 0.91994 0.0
H381 H 0.19111 0.07741 0.89702 0.0
H382 H 0.25555 0.89275 0.86912 0.0
H383 H 0.21444 0.89696 0.82093 0.0
H384 H 0.18988 0.88214 0.8761 0.0
H385 H 0.30081 0.06089 0.83553 0.0
H386 H 0.25171 0.10035 0.8458 0.0
H387 H 0.25092 0.06612 0.79496 0.0
C388 C 0.01751 0.26627 0.67852 0.0
C389 C 0.9776 0.2901 0.65941 0.0
C390 C 0.00994 0.23596 0.71424 0.0
C391 C 0.96119 0.22879 0.73095 0.0
C392 C 0.92055 0.25163 0.71093 0.0
C393 C 0.92926 0.28216 0.67569 0.0
C394 C 0.05426 0.21237 0.73481 0.0
C395 C 0.86792 0.24462 0.72748 0.0
C396 C 0.93339 0.12457 0.79945 0.0
C397 C 0.93258 0.1413 0.84441 0.0
C398 C 0.94297 0.15257 0.76222 0.0
C399 C 0.95269 0.1983 0.77016 0.0
C400 C 0.95296 0.2152 0.81557 0.0
C401 C 0.94252 0.18657 0.85211 0.0
C402 C 0.94162 0.13339 0.71431 0.0
C403 C 0.96378 0.26365 0.82552 0.0
H404 H 0.05489 0.27159 0.66582 0.0
H405 H 0.89821 0.30085 0.6619 0.0
H406 H 0.05801 0.22136 0.77158 0.0
H407 H 0.04865 0.17583 0.73281 0.0
H408 H 0.08963 0.22091 0.71733 0.0
H409 H 0.84012 0.26297 0.70658 0.0
H410 H 0.85825 0.20871 0.72653 0.0
H411 H 0.86492 0.25593 0.76358 0.0
H412 H 0.92536 0.08968 0.79316 0.0
H413 H 0.94215 0.19967 0.88677 0.0
H414 H 0.97751 0.13987 0.69694 0.0
H415 H 0.91199 0.14989 0.69396 0.0
H416 H 0.93442 0.09698 0.714 0.0
H417 H 0.00022 0.27323 0.81072 0.0
H418 H 0.96461 0.27115 0.86281 0.0
H419 H 0.93492 0.28468 0.80914 0.0
C420 C 0.66812 0.03973 0.75253 0.0
C421 C 0.64708 -0.00095 0.73823 0.0
C422 C 0.70436 0.04148 0.7876 0.0
C423 C 0.71988 0.00162 0.80888 0.0
C424 C 0.69688 0.96082 0.7962 0.0
C425 C 0.66086 0.96004 0.76108 0.0
C426 C 0.72791 0.08563 0.80019 0.0
C427 C 0.71201 0.91757 0.81822 0.0
C428 C 0.85259 0.98871 0.85211 0.0
C429 C 0.84696 0.99177 0.89973 0.0
C430 C 0.81191 0.99399 0.82231 0.0
C431 C 0.76388 0.00151 0.84045 0.0
C432 C 0.75799 0.0058 0.88847 0.0
C433 C 0.79977 0.00131 0.9176 0.0
C434 C 0.82014 0.98987 0.77135 0.0
C435 C 0.70729 0.01327 0.9091 0.0
H436 H 0.65789 0.07001 0.73495 0.0
H437 H 0.64407 0.92862 0.75086 0.0
H438 H 0.72789 0.09057 0.83786 0.0
H439 H 0.76737 0.08602 0.78907 0.0
H440 H 0.70832 0.11399 0.78394 0.0
H441 H 0.68716 0.88953 0.80791 0.0
H442 H 0.75069 0.90921 0.80821 0.0
H443 H 0.71158 0.92082 0.85607 0.0
H444 H 0.88897 0.98163 0.83798 0.0
H445 H 0.79508 0.00343 0.95436 0.0
H446 H 0.80435 0.01908 0.75343 0.0
H447 H 0.80056 0.95987 0.75794 0.0
H448 H 0.86028 0.98726 0.76267 0.0
H449 H 0.68987 0.04331 0.89416 0.0
H450 H 0.70916 0.01726 0.94691 0.0
H451 H 0.68249 0.98468 0.90077 0.0
C452 C 0.2583 0.38691 0.05335 0.0
C453 C 0.30163 0.38705 0.08043 0.0
C454 C 0.22087 0.355 0.05992 0.0
C455 C 0.22755 0.32197 0.09369 0.0
C456 C 0.26929 0.32424 0.12357 0.0
C457 C 0.30591 0.35698 0.11667 0.0
C458 C 0.17594 0.35462 0.02849 0.0
C459 C 0.27727 0.28996 0.16033 0.0
C460 C 0.12324 0.23727 0.11186 0.0
C461 C 0.13664 0.20435 0.08014 0.0
C462 C 0.15238 0.27612 0.11709 0.0
C463 C 0.19667 0.28086 0.09132 0.0
C464 C 0.21116 0.24663 0.0608 0.0
C465 C 0.1807 0.20921 0.05522 0.0
C466 C 0.13547 0.31178 0.14996 0.0
C467 C 0.25855 0.24976 0.03326 0.0
H468 H 0.25455 0.41083 0.02594 0.0
H469 H 0.33934 0.35726 0.13778 0.0
H470 H 0.17916 0.32678 1.00357 0.0
H471 H 0.14137 0.34919 0.04836 0.0
H472 H 0.17239 0.38613 1.00912 0.0
H473 H 0.30802 0.29945 0.18421 0.0
H474 H 0.24264 0.2852 0.18023 0.0
H475 H 0.28654 0.25754 0.14419 0.0
H476 H 0.08935 0.23334 0.13145 0.0
H477 H 0.19168 0.18336 0.03131 0.0
H478 H 0.14564 0.34555 0.13803 0.0
H479 H 0.1537 0.3065 0.18369 0.0
H480 H 0.09449 0.3104 0.15488 0.0
H481 H 0.25605 0.27803 1.00915 0.0
H482 H 0.26585 0.21899 0.01319 0.0
H483 H 0.29093 0.25612 0.0563 0.0
C484 C 0.43334 0.78656 0.015 0.0
C485 C 0.42038 0.74637 0.03598 0.0
C486 C 0.39938 0.8221 0.01343 0.0
C487 C 0.3511 0.81643 0.03188 0.0
C488 C 0.33854 0.7762 0.05403 0.0
C489 C 0.37343 0.74193 0.05607 0.0
C490 C 0.4147 0.8651 0.99112 0.0
C491 C 0.28731 0.76838 0.07375 0.0
C492 C 0.2513 0.89877 0.06185 0.0
C493 C 0.21695 0.89027 0.0264 0.0
C494 C 0.29875 0.87928 0.06142 0.0
C495 C 0.31147 0.85014 0.02511 0.0
C496 C 0.27925 0.84594 0.9867 0.0
C497 C 0.23251 0.86643 0.98765 0.0
C498 C 0.33291 0.8864 0.10209 0.0
C499 C 0.29135 0.81544 0.94705 0.0
H500 H 0.46976 0.79002 0.99957 0.0
H501 H 0.36305 0.71062 0.07164 0.0
H502 H 0.39738 0.86724 0.95662 0.0
H503 H 0.40163 0.89409 1.01139 0.0
H504 H 0.45579 0.8675 0.98725 0.0
H505 H 0.28378 0.73523 0.08999 0.0
H506 H 0.27895 0.7942 0.09983 0.0
H507 H 0.25864 0.77085 0.04629 0.0
H508 H 0.2402 0.91858 0.09113 0.0
H509 H 0.20663 0.86044 0.95958 0.0
H510 H 0.37269 0.88349 0.09242 0.0
H511 H 0.32482 0.86086 0.12829 0.0
H512 H 0.32683 0.91961 0.11794 0.0
H513 H 0.32985 0.82143 0.93502 0.0
H514 H 0.26521 0.81977 0.91774 0.0
H515 H 0.28908 0.78035 0.95845 0.0
C516 C 0.54765 0.25871 0.0219 0.0
C517 C 0.57508 0.29669 1.01024 0.0
C518 C 0.57098 0.21701 0.02512 0.0
C519 C 0.62308 0.21399 0.01824 0.0
C520 C 0.6507 0.25254 1.00655 0.0
C521 C 0.62619 0.29323 1.00214 0.0
C522 C 0.54004 0.17661 0.03647 0.0
C523 C 0.70646 0.25111 0.99951 0.0
C524 C 0.71221 0.13092 0.0679 0.0
C525 C 0.73026 0.11151 0.02754 0.0
C526 C 0.67266 0.16125 0.06642 0.0
C527 C 0.65011 0.17131 0.02374 0.0
C528 C 0.66314 0.14653 0.98431 0.0
C529 C 0.70366 0.11736 0.9865 0.0
C530 C 0.65971 0.18662 0.10942 0.0
C531 C 0.63828 0.15459 0.93861 0.0
H532 H 0.50803 0.26164 0.02824 0.0
H533 H 0.64734 0.32285 0.99371 0.0
H534 H 0.55172 0.14734 0.01589 0.0
H535 H 0.54539 0.16827 0.07309 0.0
H536 H 0.49967 0.1825 0.0304 0.0
H537 H 0.72246 0.28443 0.99219 0.0
H538 H 0.72517 0.23779 0.03051 0.0
H539 H 0.71532 0.22856 0.97051 0.0
H540 H 0.7321 0.1261 0.09993 0.0
H541 H 0.71689 0.10192 0.95527 0.0
H542 H 0.61887 0.19106 0.11222 0.0
H543 H 0.67699 0.22021 0.10814 0.0
H544 H 0.6736 0.16962 0.14066 0.0
H545 H 0.59764 0.15986 0.94274 0.0
H546 H 0.6442 0.12637 0.91451 0.0
H547 H 0.65424 0.18504 0.92311 0.0
C548 C 0.76077 0.6488 0.94601 0.0
C549 C 0.71485 0.66715 0.95859 0.0
C550 C 0.80395 0.67547 0.94444 0.0
C551 C 0.80068 0.7212 0.95589 0.0
C552 C 0.75343 0.7404 0.96426 0.0
C553 C 0.71116 0.71307 0.96566 0.0
C554 C 0.85333 0.65401 0.934 0.0
C555 C 0.74796 0.78926 0.97548 0.0
C556 C 0.89247 0.78467 0.02864 0.0
C557 C 0.90712 0.81816 0.99839 0.0
C558 C 0.86195 0.7495 0.01378 0.0
C559 C 0.84603 0.74766 0.96747 0.0
C560 C 0.86638 0.77779 0.93554 0.0
C561 C 0.89655 0.81304 0.95147 0.0
C562 C 0.84228 0.71733 0.04887 0.0
C563 C 0.85256 0.77571 0.88542 0.0
H564 H 0.76355 0.61325 0.9402 0.0
H565 H 0.67537 0.72732 0.97442 0.0
H566 H 0.8779 0.6768 0.91462 0.0
H567 H 0.87262 0.64582 0.96658 0.0
H568 H 0.84826 0.62269 0.91407 0.0
H569 H 0.70829 0.79963 0.97672 0.0
H570 H 0.76542 0.7965 1.00931 0.0
H571 H 0.76737 0.80977 0.94966 0.0
H572 H 0.90168 0.78763 0.06474 0.0
H573 H 0.90864 0.83822 0.92756 0.0
H574 H 0.84408 0.68268 0.03579 0.0
H575 H 0.80259 0.72492 0.05587 0.0
H576 H 0.8634 0.71941 0.0817 0.0
H577 H 0.84536 0.74103 0.87387 0.0
H578 H 0.88246 0.79029 0.86401 0.0
H579 H 0.81807 0.7952 0.87964 0.0
loop_
_geom_bond_atom_site_label_1
_geom_bond_atom_site_label_2
_geom_bond_distance
_geom_bond_site_symmetry_2
_ccdc_geom_bond_type
H0 C19 0.949 . S
H1 C20 0.950 . S
H2 C22 0.950 . S
H3 C23 0.950 . S
H4 C25 0.950 . S
H5 C28 0.950 . S
H6 C29 0.950 . S
H7 C31 0.951 . S
H8 C32 0.949 . S
H9 C34 0.949 . S
H10 C35 0.950 . S
H11 C37 0.950 . S
H12 C38 0.950 . S
H13 C40 0.950 . S
H14 C43 0.950 . S
H15 C44 0.950 . S
H16 C46 0.951 . S
H17 C47 0.949 . S
C18 C19 1.376 . S
C18 C23 1.386 1_455 S
C18 C24 1.483 . S
C19 H0 0.949 . S
C19 C18 1.376 . S
C19 C20 1.397 . S
C20 H1 0.950 . S
C20 C19 1.397 . S
C20 C21 1.391 . S
C21 C20 1.391 . S
C21 C22 1.405 1_455 S
C22 H2 0.950 . S
C22 C21 1.405 1_655 S
C22 C23 1.367 . S
C23 H3 0.950 . S
C23 C18 1.386 1_655 S
C23 C22 1.367 . S
C24 C18 1.483 . S
C24 C25 1.382 . S
C24 C26 1.403 1_455 S
C25 H4 0.950 . S
C25 C24 1.382 . S
C25 C41 1.411 . S
C26 C24 1.403 1_655 S
C26 C27 1.489 . S
C26 C40 1.411 . S
C27 C26 1.489 . S
C27 C28 1.383 1_655 S
C27 C32 1.382 . S
C28 H5 0.950 . S
C28 C27 1.383 1_455 S
C28 C29 1.395 . S
C29 H6 0.950 . S
C29 C28 1.395 . S
C29 C30 1.288 1_455 S
C30 C29 1.288 1_655 S
C30 C31 1.392 . S
C31 H7 0.951 . S
C31 C30 1.392 . S
C31 C32 1.392 . S
C32 H8 0.949 . S
C32 C27 1.382 . S
C32 C31 1.392 . S
C33 C34 1.376 . S
C33 C38 1.386 1_655 S
C33 C39 1.483 . S
C34 H9 0.949 . S
C34 C33 1.376 . S
C34 C35 1.397 . S
C35 H10 0.950 . S
C35 C34 1.397 . S
C35 C36 1.391 . S
C36 C35 1.391 . S
C36 C37 1.405 1_655 S
C37 H11 0.950 . S
C37 C36 1.405 1_455 S
C37 C38 1.367 . S
C38 H12 0.950 . S
C38 C33 1.386 1_455 S
C38 C37 1.367 . S
C39 C33 1.483 . S
C39 C40 1.382 . S
C39 C41 1.403 1_655 S
C40 H13 0.950 . S
C40 C26 1.411 . S
C40 C39 1.382 . S
C41 C25 1.411 . S
C41 C39 1.403 1_455 S
C41 C42 1.489 . S
C42 C41 1.489 . S
C42 C43 1.383 1_455 S
C42 C47 1.382 . S
C43 H14 0.950 . S
C43 C42 1.383 1_655 S
C43 C44 1.395 . S
C44 H15 0.950 . S
C44 C43 1.395 . S
C44 C45 1.288 1_655 S
C45 C44 1.288 1_455 S
C45 C46 1.392 . S
C46 H16 0.951 . S
C46 C45 1.392 . S
C46 C47 1.392 . S
C47 H17 0.949 . S
C47 C42 1.382 . S
C47 C46 1.392 . S
H48 C67 0.949 . S
H49 C68 0.950 . S
H50 C70 0.950 . S
H51 C71 0.950 . S
H52 C73 0.950 . S
H53 C76 0.950 . S
H54 C77 0.950 . S
H55 C79 0.951 . S
H56 C80 0.949 . S
H57 C82 0.949 . S
H58 C83 0.950 . S
H59 C85 0.950 . S
H60 C86 0.950 . S
H61 C88 0.950 . S
H62 C91 0.950 . S
H63 C92 0.950 . S
H64 C94 0.951 . S
H65 C95 0.949 . S
C66 C67 1.376 . S
C66 C71 1.386 1_545 S
C66 C72 1.483 . S
C67 H48 0.949 . S
C67 C66 1.376 . S
C67 C68 1.397 . S
C68 H49 0.950 . S
C68 C67 1.397 . S
C68 C69 1.391 . S
C69 C68 1.391 . S
C69 C70 1.405 1_545 S
C70 H50 0.950 . S
C70 C69 1.405 1_565 S
C70 C71 1.367 . S
C71 H51 0.950 . S
C71 C66 1.386 1_565 S
C71 C70 1.367 . S
C72 C66 1.483 . S
C72 C73 1.382 . S
C72 C74 1.403 1_545 S
C73 H52 0.950 . S
C73 C72 1.382 . S
C73 C89 1.411 . S
C74 C72 1.403 1_565 S
C74 C75 1.489 . S
C74 C88 1.411 . S
C75 C74 1.489 . S
C75 C76 1.383 1_565 S
C75 C80 1.382 . S
C76 H53 0.950 . S
C76 C75 1.383 1_545 S
C76 C77 1.395 . S
C77 H54 0.950 . S
C77 C76 1.395 . S
C77 C78 1.288 1_545 S
C78 C77 1.288 1_565 S
C78 C79 1.392 . S
C79 H55 0.951 . S
C79 C78 1.392 . S
C79 C80 1.392 . S
C80 H56 0.949 . S
C80 C75 1.382 . S
C80 C79 1.392 . S
C81 C82 1.376 . S
C81 C86 1.386 1_565 S
C81 C87 1.483 . S
C82 H57 0.949 . S
C82 C81 1.376 . S
C82 C83 1.397 . S
C83 H58 0.950 . S
C83 C82 1.397 . S
C83 C84 1.391 . S
C84 C83 1.391 . S
C84 C85 1.405 1_565 S
C85 H59 0.950 . S
C85 C84 1.405 1_545 S
C85 C86 1.367 . S
C86 H60 0.950 . S
C86 C81 1.386 1_545 S
C86 C85 1.367 . S
C87 C81 1.483 . S
C87 C88 1.382 . S
C87 C89 1.403 1_565 S
C88 H61 0.950 . S
C88 C74 1.411 . S
C88 C87 1.382 . S
C89 C73 1.411 . S
C89 C87 1.403 1_545 S
C89 C90 1.489 . S
C90 C89 1.489 . S
C90 C91 1.383 1_545 S
C90 C95 1.382 . S
C91 H62 0.950 . S
C91 C90 1.383 1_565 S
C91 C92 1.395 . S
C92 H63 0.950 . S
C92 C91 1.395 . S
C92 C93 1.288 1_565 S
C93 C92 1.288 1_545 S
C93 C94 1.392 . S
C94 H64 0.951 . S
C94 C93 1.392 . S
C94 C95 1.392 . S
C95 H65 0.949 . S
C95 C90 1.382 . S
C95 C94 1.392 . S
H96 C115 0.949 . S
H97 C116 0.950 . S
H98 C118 0.950 . S
H99 C119 0.950 . S
H100 C121 0.950 . S
H101 C124 0.950 . S
H102 C125 0.950 . S
H103 C127 0.951 . S
H104 C128 0.949 . S
H105 C130 0.949 . S
H106 C131 0.950 . S
H107 C133 0.950 . S
H108 C134 0.950 . S
H109 C136 0.950 . S
H110 C139 0.950 . S
H111 C140 0.950 . S
H112 C142 0.951 . S
H113 C143 0.949 . S
C114 C115 1.376 1_554 S
C114 C119 1.386 . S
C114 C120 1.483 . S
C115 H96 0.949 . S
C115 C114 1.376 1_556 S
C115 C116 1.397 . S
C116 H97 0.950 . S
C116 C115 1.397 . S
C116 C117 1.391 1_556 S
C117 C116 1.391 1_554 S
C117 C118 1.405 . S
C118 H98 0.950 . S
C118 C117 1.405 . S
C118 C119 1.367 . S
C119 H99 0.950 . S
C119 C114 1.386 . S
C119 C118 1.367 . S
C120 C114 1.483 . S
C120 C121 1.382 . S
C120 C122 1.403 . S
C121 H100 0.950 . S
C121 C120 1.382 . S
C121 C137 1.411 . S
C122 C120 1.403 . S
C122 C123 1.489 . S
C122 C136 1.411 . S
C123 C122 1.489 . S
C123 C124 1.383 1_554 S
C123 C128 1.382 . S
C124 H101 0.950 . S
C124 C123 1.383 1_556 S
C124 C125 1.395 . S
C125 H102 0.950 . S
C125 C124 1.395 . S
C125 C126 1.288 1_556 S
C126 C125 1.288 1_554 S
C126 C127 1.392 . S
C127 H103 0.951 . S
C127 C126 1.392 . S
C127 C128 1.392 . S
C128 H104 0.949 . S
C128 C123 1.382 . S
C128 C127 1.392 . S
C129 C130 1.376 . S
C129 C134 1.386 1_554 S
C129 C135 1.483 . S
C130 H105 0.949 . S
C130 C129 1.376 . S
C130 C131 1.397 . S
C131 H106 0.950 . S
C131 C130 1.397 . S
C131 C132 1.391 . S
C132 C131 1.391 . S
C132 C133 1.405 1_554 S
C133 H107 0.950 . S
C133 C132 1.405 1_556 S
C133 C134 1.367 . S
C134 H108 0.950 . S
C134 C129 1.386 1_556 S
C134 C133 1.367 . S
C135 C129 1.483 . S
C135 C136 1.382 . S
C135 C137 1.403 . S
C136 H109 0.950 . S
C136 C122 1.411 . S
C136 C135 1.382 . S
C137 C121 1.411 . S
C137 C135 1.403 . S
C137 C138 1.489 . S
C138 C137 1.489 . S
C138 C139 1.383 . S
C138 C143 1.382 1_554 S
C139 H110 0.950 . S
C139 C138 1.383 . S
C139 C140 1.395 . S
C140 H111 0.950 . S
C140 C139 1.395 . S
C140 C141 1.288 . S
C141 C140 1.288 . S
C141 C142 1.392 1_554 S
C142 H112 0.951 . S
C142 C141 1.392 1_556 S
C142 C143 1.392 . S
C143 H113 0.949 . S
C143 C138 1.382 1_556 S
C143 C142 1.392 . S
Zn144 O146 1.933 1_556 S
Zn144 O164 1.985 . S
Zn144 O175 1.955 . S
Zn145 O146 1.911 . S
Zn145 O165 1.970 . S
Zn145 O181 1.945 . S
Zn145 O188 1.981 . S
O146 Zn144 1.933 1_554 S
O146 Zn145 1.911 . S
O146 H147 0.841 . S
H147 O146 0.841 . S
C148 O149 1.246 . S
C148 O177 1.276 1_455 S
O149 C148 1.246 . S
Zn150 O152 1.911 . S
Zn150 O167 1.970 . S
Zn150 O184 1.945 . S
Zn150 O191 1.981 . S
Zn151 O152 1.933 1_556 S
Zn151 O166 1.985 . S
Zn151 O173 1.955 . S
O152 Zn150 1.911 . S
O152 Zn151 1.933 1_554 S
O152 H153 0.841 . S
H153 O152 0.841 . S
Zn154 O155 1.933 1_556 S
Zn154 O168 1.985 . S
Zn154 O177 1.955 . S
O155 Zn154 1.933 1_554 S
O155 Zn156 1.911 . S
O155 H157 0.841 . S
Zn156 O155 1.911 . S
Zn156 O169 1.970 . S
Zn156 O185 1.981 . S
Zn156 O187 1.945 . S
H157 O155 0.841 . S
Zn158 O159 1.933 1_556 S
Zn158 O171 1.985 . S
Zn158 O179 1.955 . S
O159 Zn158 1.933 1_554 S
O159 H160 0.841 . S
O159 Zn161 1.911 . S
H160 O159 0.841 . S
Zn161 O159 1.911 . S
Zn161 O172 1.970 . S
Zn161 O182 1.981 . S
Zn161 O190 1.945 . S
C162 O163 1.246 . S
C162 O179 1.276 1_655 S
O163 C162 1.246 . S
O164 Zn144 1.985 . S
O164 C174 1.245 1_556 S
O165 Zn145 1.970 . S
O165 C174 1.263 . S
O166 Zn151 1.985 . S
O166 C178 1.245 1_556 S
O167 Zn150 1.970 . S
O167 C178 1.263 . S
O168 Zn154 1.985 . S
O168 C183 1.245 1_556 S
O169 Zn156 1.970 . S
O169 C183 1.263 . S
C170 O181 1.264 . S
C170 O182 1.244 1_545 S
O171 Zn158 1.985 . S
O171 C189 1.245 1_556 S
O172 Zn161 1.970 . S
O172 C189 1.263 . S
O173 Zn151 1.955 . S
O173 C192 1.276 1_565 S
C174 O164 1.245 1_554 S
C174 O165 1.263 . S
O175 Zn144 1.955 . S
O175 C194 1.276 1_545 S
C176 O184 1.262 1_545 S
C176 O185 1.245 . S
O177 C148 1.276 1_655 S
O177 Zn154 1.955 . S
C178 O166 1.245 1_554 S
C178 O167 1.263 . S
O179 Zn158 1.955 . S
O179 C162 1.276 1_455 S
C180 O187 1.261 1_455 S
C180 O188 1.245 . S
O181 Zn145 1.945 . S
O181 C170 1.264 . S
O182 Zn161 1.981 . S
O182 C170 1.244 1_565 S
C183 O168 1.245 1_554 S
C183 O169 1.263 . S
O184 Zn150 1.945 . S
O184 C176 1.262 1_565 S
O185 Zn156 1.981 . S
O185 C176 1.245 . S
C186 O190 1.262 . S
C186 O191 1.245 1_455 S
O187 Zn156 1.945 . S
O187 C180 1.261 1_655 S
O188 Zn145 1.981 . S
O188 C180 1.245 . S
C189 O171 1.245 1_554 S
C189 O172 1.263 . S
O190 Zn161 1.945 . S
O190 C186 1.262 . S
O191 Zn150 1.981 . S
O191 C186 1.245 1_655 S
C192 O173 1.276 1_545 S
C192 O193 1.246 . S
O193 C192 1.246 . S
C194 O175 1.276 1_565 S
C194 O195 1.246 . S
O195 C194 1.246 . S
C196 C197 1.391 1_655 S
C196 C198 1.394 . S
C196 H212 0.931 . S
C197 C196 1.391 1_455 S
C197 C201 1.376 . S
C198 C196 1.394 . S
C198 C199 1.369 1_655 S
C198 C202 1.531 . S
C199 C198 1.369 1_455 S
C199 C200 1.410 . S
C199 C207 1.503 . S
C200 C199 1.410 . S
C200 C201 1.392 . S
C200 C203 1.511 . S
C201 C197 1.376 . S
C201 C200 1.392 . S
C201 H213 0.929 . S
C202 C198 1.531 . S
C202 H214 0.960 . S
C202 H215 0.962 . S
C202 H216 0.960 . S
C203 C200 1.511 . S
C203 H217 0.961 . S
C203 H218 0.961 . S
C203 H219 0.961 . S
C204 C205 1.370 . S
C204 C206 1.363 . S
C204 H220 0.931 1_455 S
C205 C204 1.370 . S
C205 C209 1.408 . S
C206 C204 1.363 . S
C206 C207 1.370 . S
C206 C210 1.524 1_455 S
C207 C199 1.503 . S
C207 C206 1.370 . S
C207 C208 1.403 . S
C208 C207 1.403 . S
C208 C209 1.404 . S
C208 C211 1.539 . S
C209 C205 1.408 . S
C209 C208 1.404 . S
C209 H221 0.930 . S
C210 C206 1.524 1_655 S
C210 H222 0.956 . S
C210 H223 0.961 1_655 S
C210 H224 0.961 . S
C211 C208 1.539 . S
C211 H225 0.958 1_455 S
C211 H226 0.961 . S
C211 H227 0.960 . S
H212 C196 0.931 . S
H213 C201 0.929 . S
H214 C202 0.960 . S
H215 C202 0.962 . S
H216 C202 0.960 . S
H217 C203 0.961 . S
H218 C203 0.961 . S
H219 C203 0.961 . S
H220 C204 0.931 1_655 S
H221 C209 0.930 . S
H222 C210 0.956 . S
H223 C210 0.961 1_455 S
H224 C210 0.961 . S
H225 C211 0.958 1_655 S
H226 C211 0.961 . S
H227 C211 0.960 . S
C228 C229 1.391 . S
C228 C230 1.394 . S
C228 H244 0.931 . S
C229 C228 1.391 . S
C229 C233 1.376 1_565 S
C230 C228 1.394 . S
C230 C231 1.369 . S
C230 C234 1.531 . S
C231 C230 1.369 . S
C231 C232 1.410 1_565 S
C231 C239 1.504 . S
C232 C231 1.410 1_545 S
C232 C233 1.392 . S
C232 C235 1.511 . S
C233 C229 1.376 1_545 S
C233 C232 1.392 . S
C233 H245 0.929 . S
C234 C230 1.531 . S
C234 H246 0.960 . S
C234 H247 0.962 . S
C234 H248 0.960 . S
C235 C232 1.511 . S
C235 H249 0.961 . S
C235 H250 0.961 . S
C235 H251 0.961 . S
C236 C237 1.370 . S
C236 C238 1.363 . S
C236 H252 0.931 . S
C237 C236 1.370 . S
C237 C241 1.408 1_545 S
C238 C236 1.363 . S
C238 C239 1.363 1_545 S
C238 C242 1.524 . S
C239 C231 1.504 . S
C239 C238 1.363 1_565 S
C239 C240 1.409 . S
C240 C239 1.409 . S
C240 C241 1.404 . S
C240 C243 1.539 . S
C241 C237 1.408 1_565 S
C241 C240 1.404 . S
C241 H253 0.930 . S
C242 C238 1.524 . S
C242 H254 0.956 . S
C242 H255 0.961 . S
C242 H256 0.961 . S
C243 C240 1.539 . S
C243 H257 0.958 . S
C243 H258 0.961 . S
C243 H259 0.960 . S
H244 C228 0.931 . S
H245 C233 0.929 . S
H246 C234 0.960 . S
H247 C234 0.962 . S
H248 C234 0.960 . S
H249 C235 0.961 . S
H250 C235 0.961 . S
H251 C235 0.961 . S
H252 C236 0.931 . S
H253 C241 0.930 . S
H254 C242 0.956 . S
H255 C242 0.961 . S
H256 C242 0.961 . S
H257 C243 0.958 . S
H258 C243 0.961 . S
H259 C243 0.960 . S
C260 C261 1.391 . S
C260 C262 1.394 . S
C260 H276 0.931 . S
C261 C260 1.391 . S
C261 C265 1.376 1_655 S
C262 C260 1.394 . S
C262 C263 1.369 . S
C262 C266 1.531 . S
C263 C262 1.369 . S
C263 C264 1.410 1_655 S
C263 C271 1.503 . S
C264 C263 1.410 1_455 S
C264 C265 1.392 . S
C264 C267 1.511 . S
C265 C261 1.376 1_455 S
C265 C264 1.392 . S
C265 H277 0.929 . S
C266 C262 1.531 . S
C266 H278 0.960 . S
C266 H279 0.962 . S
C266 H280 0.960 . S
C267 C264 1.511 . S
C267 H281 0.961 . S
C267 H282 0.961 . S
C267 H283 0.961 . S
C268 C269 1.370 . S
C268 C270 1.363 . S
C268 H284 0.931 . S
C269 C268 1.370 . S
C269 C273 1.408 . S
C270 C268 1.363 . S
C270 C271 1.370 . S
C270 C274 1.524 . S
C271 C263 1.503 . S
C271 C270 1.370 . S
C271 C272 1.403 . S
C272 C271 1.403 . S
C272 C273 1.404 . S
C272 C275 1.539 1_655 S
C273 C269 1.408 . S
C273 C272 1.404 . S
C273 H285 0.930 . S
C274 C270 1.524 . S
C274 H286 0.956 . S
C274 H287 0.961 1_655 S
C274 H288 0.961 . S
C275 C272 1.539 1_455 S
C275 H289 0.958 1_455 S
C275 H290 0.961 . S
C275 H291 0.960 . S
H276 C260 0.931 . S
H277 C265 0.929 . S
H278 C266 0.960 . S
H279 C266 0.962 . S
H280 C266 0.960 . S
H281 C267 0.961 . S
H282 C267 0.961 . S
H283 C267 0.961 . S
H284 C268 0.931 . S
H285 C273 0.930 . S
H286 C274 0.956 . S
H287 C274 0.961 1_455 S
H288 C274 0.961 . S
H289 C275 0.958 1_655 S
H290 C275 0.961 . S
H291 C275 0.960 . S
C292 C293 1.391 1_545 S
C292 C294 1.394 . S
C292 H308 0.931 . S
C293 C292 1.391 1_565 S
C293 C297 1.376 . S
C294 C292 1.394 . S
C294 C295 1.369 1_545 S
C294 C298 1.531 . S
C295 C294 1.369 1_565 S
C295 C296 1.410 . S
C295 C303 1.503 . S
C296 C295 1.410 . S
C296 C297 1.392 . S
C296 C299 1.511 . S
C297 C293 1.376 . S
C297 C296 1.392 . S
C297 H309 0.929 . S
C298 C294 1.531 . S
C298 H310 0.960 . S
C298 H311 0.962 . S
C298 H312 0.960 . S
C299 C296 1.511 . S
C299 H313 0.961 . S
C299 H314 0.961 . S
C299 H315 0.961 . S
C300 C301 1.370 1_545 S
C300 C302 1.363 . S
C300 H316 0.931 . S
C301 C300 1.370 1_565 S
C301 C305 1.408 . S
C302 C300 1.363 . S
C302 C303 1.370 1_545 S
C302 C306 1.524 . S
C303 C295 1.503 . S
C303 C302 1.370 1_565 S
C303 C304 1.403 . S
C304 C303 1.403 . S
C304 C305 1.404 . S
C304 C307 1.539 . S
C305 C301 1.408 . S
C305 C304 1.404 . S
C305 H317 0.930 . S
C306 C302 1.524 . S
C306 H318 0.956 . S
C306 H319 0.961 . S
C306 H320 0.961 . S
C307 C304 1.539 . S
C307 H321 0.958 . S
C307 H322 0.961 . S
C307 H323 0.960 . S
H308 C292 0.931 . S
H309 C297 0.929 . S
H310 C298 0.960 . S
H311 C298 0.962 . S
H312 C298 0.960 . S
H313 C299 0.961 . S
H314 C299 0.961 . S
H315 C299 0.961 . S
H316 C300 0.931 . S
H317 C305 0.930 . S
H318 C306 0.956 . S
H319 C306 0.961 . S
H320 C306 0.961 . S
H321 C307 0.958 . S
H322 C307 0.961 . S
H323 C307 0.960 . S
C324 C325 1.393 1_655 S
C324 C326 1.394 . S
C324 H340 0.931 . S
C325 C324 1.393 1_455 S
C325 C329 1.374 . S
C326 C324 1.394 . S
C326 C327 1.369 . S
C326 C330 1.531 . S
C327 C326 1.369 . S
C327 C328 1.410 1_655 S
C327 C335 1.503 . S
C328 C327 1.410 1_455 S
C328 C329 1.392 . S
C328 C331 1.511 . S
C329 C325 1.374 . S
C329 C328 1.392 . S
C329 H341 0.929 . S
C330 C326 1.531 . S
C330 H342 0.960 . S
C330 H343 0.962 . S
C330 H344 0.960 . S
C331 C328 1.511 . S
C331 H345 0.961 . S
C331 H346 0.961 . S
C331 H347 0.961 . S
C332 C333 1.370 . S
C332 C334 1.363 . S
C332 H348 0.931 . S
C333 C332 1.370 . S
C333 C337 1.408 1_655 S
C334 C332 1.363 . S
C334 C335 1.370 . S
C334 C338 1.524 . S
C335 C327 1.503 . S
C335 C334 1.370 . S
C335 C336 1.403 1_655 S
C336 C335 1.403 1_455 S
C336 C337 1.404 . S
C336 C339 1.539 . S
C337 C333 1.408 1_455 S
C337 C336 1.404 . S
C337 H349 0.930 . S
C338 C334 1.524 . S
C338 H350 0.956 . S
C338 H351 0.961 . S
C338 H352 0.961 . S
C339 C336 1.539 . S
C339 H353 0.958 . S
C339 H354 0.961 . S
C339 H355 0.960 . S
H340 C324 0.931 . S
H341 C329 0.929 . S
H342 C330 0.960 . S
H343 C330 0.962 . S
H344 C330 0.960 . S
H345 C331 0.961 . S
H346 C331 0.961 . S
H347 C331 0.961 . S
H348 C332 0.931 . S
H349 C337 0.930 . S
H350 C338 0.956 . S
H351 C338 0.961 . S
H352 C338 0.961 . S
H353 C339 0.958 . S
H354 C339 0.961 . S
H355 C339 0.960 . S
C356 C357 1.391 . S
C356 C358 1.394 . S
C356 H372 0.931 . S
C357 C356 1.391 . S
C357 C361 1.376 1_545 S
C358 C356 1.394 . S
C358 C359 1.369 . S
C358 C362 1.531 . S
C359 C358 1.369 . S
C359 C360 1.408 1_545 S
C359 C367 1.503 1_545 S
C360 C359 1.408 1_565 S
C360 C361 1.393 . S
C360 C363 1.513 . S
C361 C357 1.376 1_565 S
C361 C360 1.393 . S
C361 H373 0.929 . S
C362 C358 1.531 . S
C362 H374 0.960 . S
C362 H375 0.962 1_545 S
C362 H376 0.960 . S
C363 C360 1.513 . S
C363 H377 0.961 . S
C363 H378 0.961 . S
C363 H379 0.961 1_565 S
C364 C365 1.370 . S
C364 C366 1.363 . S
C364 H380 0.931 . S
C365 C364 1.370 . S
C365 C369 1.408 1_565 S
C366 C364 1.363 . S
C366 C367 1.370 . S
C366 C370 1.524 . S
C367 C359 1.503 1_565 S
C367 C366 1.370 . S
C367 C368 1.403 1_565 S
C368 C367 1.403 1_545 S
C368 C369 1.404 . S
C368 C371 1.539 . S
C369 C365 1.408 1_545 S
C369 C368 1.404 . S
C369 H381 0.930 . S
C370 C366 1.524 . S
C370 H382 0.956 . S
C370 H383 0.961 . S
C370 H384 0.961 . S
C371 C368 1.539 . S
C371 H385 0.958 . S
C371 H386 0.961 . S
C371 H387 0.960 . S
H372 C356 0.931 . S
H373 C361 0.929 . S
H374 C362 0.960 . S
H375 C362 0.962 1_565 S
H376 C362 0.960 . S
H377 C363 0.961 . S
H378 C363 0.961 . S
H379 C363 0.961 1_545 S
H380 C364 0.931 . S
H381 C369 0.930 . S
H382 C370 0.956 . S
H383 C370 0.961 . S
H384 C370 0.961 . S
H385 C371 0.958 . S
H386 C371 0.961 . S
H387 C371 0.960 . S
C388 C389 1.391 . S
C388 C390 1.394 . S
C388 H404 0.931 . S
C389 C388 1.391 . S
C389 C393 1.376 1_455 S
C390 C388 1.394 . S
C390 C391 1.369 . S
C390 C394 1.531 . S
C391 C390 1.369 . S
C391 C392 1.410 1_455 S
C391 C399 1.503 . S
C392 C391 1.410 1_655 S
C392 C393 1.392 . S
C392 C395 1.511 . S
C393 C389 1.376 1_655 S
C393 C392 1.392 . S
C393 H405 0.929 . S
C394 C390 1.531 . S
C394 H406 0.960 . S
C394 H407 0.962 . S
C394 H408 0.960 . S
C395 C392 1.511 . S
C395 H409 0.961 . S
C395 H410 0.961 . S
C395 H411 0.961 . S
C396 C397 1.370 . S
C396 C398 1.363 . S
C396 H412 0.931 . S
C397 C396 1.370 . S
C397 C401 1.408 . S
C398 C396 1.363 . S
C398 C399 1.370 . S
C398 C402 1.524 . S
C399 C391 1.503 . S
C399 C398 1.370 . S
C399 C400 1.403 1_455 S
C400 C399 1.403 1_655 S
C400 C401 1.404 1_655 S
C400 C403 1.539 . S
C401 C397 1.408 . S
C401 C400 1.404 1_455 S
C401 H413 0.930 1_455 S
C402 C398 1.524 . S
C402 H414 0.956 . S
C402 H415 0.977 . S
C402 H416 0.961 . S
C403 C400 1.539 . S
C403 H417 0.958 1_655 S
C403 H418 0.961 . S
C403 H419 0.960 . S
H404 C388 0.931 . S
H405 C393 0.929 . S
H406 C394 0.960 . S
H407 C394 0.962 . S
H408 C394 0.960 . S
H409 C395 0.961 . S
H410 C395 0.961 . S
H411 C395 0.961 . S
H412 C396 0.931 . S
H413 C401 0.930 1_655 S
H414 C402 0.956 . S
H415 C402 0.977 . S
H416 C402 0.961 . S
H417 C403 0.958 1_455 S
H418 C403 0.961 . S
H419 C403 0.960 . S
C420 C421 1.391 . S
C420 C422 1.394 . S
C420 H436 0.931 . S
C421 C420 1.391 . S
C421 C425 1.376 1_545 S
C422 C420 1.394 . S
C422 C423 1.369 . S
C422 C426 1.531 . S
C423 C422 1.369 . S
C423 C424 1.410 1_545 S
C423 C431 1.503 . S
C424 C423 1.410 1_565 S
C424 C425 1.392 . S
C424 C427 1.511 . S
C425 C421 1.376 1_565 S
C425 C424 1.392 . S
C425 H437 0.929 . S
C426 C422 1.531 . S
C426 H438 0.960 . S
C426 H439 0.962 . S
C426 H440 0.960 . S
C427 C424 1.511 . S
C427 H441 0.961 . S
C427 H442 0.961 . S
C427 H443 0.961 . S
C428 C429 1.370 1_565 S
C428 C430 1.363 . S
C428 H444 0.931 . S
C429 C428 1.370 1_545 S
C429 C433 1.408 . S
C430 C428 1.363 . S
C430 C431 1.370 1_565 S
C430 C434 1.524 . S
C431 C423 1.503 . S
C431 C430 1.370 1_545 S
C431 C432 1.403 . S
C432 C431 1.403 . S
C432 C433 1.404 . S
C432 C435 1.539 . S
C433 C429 1.408 . S
C433 C432 1.404 . S
C433 H445 0.930 . S
C434 C430 1.524 . S
C434 H446 0.956 . S
C434 H447 0.961 . S
C434 H448 0.961 . S
C435 C432 1.539 . S
C435 H449 0.958 . S
C435 H450 0.961 . S
C435 H451 0.960 . S
H436 C420 0.931 . S
H437 C425 0.929 . S
H438 C426 0.960 . S
H439 C426 0.962 . S
H440 C426 0.960 . S
H441 C427 0.961 . S
H442 C427 0.961 . S
H443 C427 0.961 . S
H444 C428 0.931 . S
H445 C433 0.930 . S
H446 C434 0.956 . S
H447 C434 0.961 . S
H448 C434 0.961 . S
H449 C435 0.958 . S
H450 C435 0.961 . S
H451 C435 0.960 . S
C452 C453 1.391 1_556 S
C452 C454 1.394 . S
C452 H468 0.931 . S
C453 C452 1.391 1_554 S
C453 C457 1.376 . S
C454 C452 1.394 . S
C454 C455 1.369 1_556 S
C454 C458 1.531 . S
C455 C454 1.369 1_554 S
C455 C456 1.410 . S
C455 C463 1.503 . S
C456 C455 1.410 . S
C456 C457 1.392 . S
C456 C459 1.511 . S
C457 C453 1.376 . S
C457 C456 1.392 . S
C457 H469 0.929 . S
C458 C454 1.531 . S
C458 H470 0.960 . S
C458 H471 0.962 . S
C458 H472 0.960 . S
C459 C456 1.511 . S
C459 H473 0.961 . S
C459 H474 0.961 . S
C459 H475 0.961 . S
C460 C461 1.370 . S
C460 C462 1.363 . S
C460 H476 0.931 1_554 S
C461 C460 1.370 . S
C461 C465 1.408 . S
C462 C460 1.363 . S
C462 C463 1.370 . S
C462 C466 1.524 1_554 S
C463 C455 1.503 . S
C463 C462 1.370 . S
C463 C464 1.403 . S
C464 C463 1.403 . S
C464 C465 1.404 . S
C464 C467 1.539 . S
C465 C461 1.408 . S
C465 C464 1.404 . S
C465 H477 0.930 . S
C466 C462 1.524 1_556 S
C466 H478 0.956 . S
C466 H479 0.961 1_556 S
C466 H480 0.961 . S
C467 C464 1.539 . S
C467 H481 0.958 . S
C467 H482 0.961 . S
C467 H483 0.960 . S
H468 C452 0.931 . S
H469 C457 0.929 . S
H470 C458 0.960 . S
H471 C458 0.962 . S
H472 C458 0.960 . S
H473 C459 0.961 . S
H474 C459 0.961 . S
H475 C459 0.961 . S
H476 C460 0.931 1_556 S
H477 C465 0.930 . S
H478 C466 0.956 . S
H479 C466 0.961 1_554 S
H480 C466 0.961 . S
H481 C467 0.958 . S
H482 C467 0.961 . S
H483 C467 0.960 . S
C484 C485 1.391 . S
C484 C486 1.394 . S
C484 H500 0.931 . S
C485 C484 1.391 . S
C485 C489 1.376 . S
C486 C484 1.394 . S
C486 C487 1.369 . S
C486 C490 1.531 . S
C487 C486 1.369 . S
C487 C488 1.410 . S
C487 C495 1.503 . S
C488 C487 1.410 . S
C488 C489 1.392 . S
C488 C491 1.511 1_554 S
C489 C485 1.376 . S
C489 C488 1.392 . S
C489 H501 0.927 1_554 S
C490 C486 1.531 . S
C490 H502 0.960 . S
C490 H503 0.962 . S
C490 H504 0.960 . S
C491 C488 1.511 1_556 S
C491 H505 0.961 . S
C491 H506 0.961 1_556 S
C491 H507 0.961 . S
C492 C493 1.370 . S
C492 C494 1.363 . S
C492 H508 0.931 . S
C493 C492 1.370 . S
C493 C497 1.408 1_554 S
C494 C492 1.363 . S
C494 C495 1.370 . S
C494 C498 1.524 . S
C495 C487 1.503 . S
C495 C494 1.370 . S
C495 C496 1.403 1_554 S
C496 C495 1.403 1_556 S
C496 C497 1.404 . S
C496 C499 1.539 . S
C497 C493 1.408 1_556 S
C497 C496 1.404 . S
C497 H509 0.930 . S
C498 C494 1.524 . S
C498 H510 0.956 . S
C498 H511 0.961 . S
C498 H512 0.961 . S
C499 C496 1.539 . S
C499 H513 0.958 . S
C499 H514 0.961 . S
C499 H515 0.960 . S
H500 C484 0.931 . S
H501 C489 0.927 1_556 S
H502 C490 0.960 . S
H503 C490 0.962 . S
H504 C490 0.960 . S
H505 C491 0.961 . S
H506 C491 0.961 1_554 S
H507 C491 0.961 . S
H508 C492 0.931 . S
H509 C497 0.930 . S
H510 C498 0.956 . S
H511 C498 0.961 . S
H512 C498 0.961 . S
H513 C499 0.958 . S
H514 C499 0.961 . S
H515 C499 0.960 . S
C516 C517 1.391 1_556 S
C516 C518 1.394 . S
C516 H532 0.931 . S
C517 C516 1.391 1_554 S
C517 C521 1.376 . S
C518 C516 1.394 . S
C518 C519 1.369 1_556 S
C518 C522 1.531 . S
C519 C518 1.369 1_554 S
C519 C520 1.410 . S
C519 C527 1.503 . S
C520 C519 1.410 . S
C520 C521 1.392 . S
C520 C523 1.511 . S
C521 C517 1.376 . S
C521 C520 1.392 . S
C521 H533 0.929 . S
C522 C518 1.531 . S
C522 H534 0.960 . S
C522 H535 0.962 . S
C522 H536 0.960 . S
C523 C520 1.511 . S
C523 H537 0.961 . S
C523 H538 0.961 . S
C523 H539 0.961 . S
C524 C525 1.370 . S
C524 C526 1.363 . S
C524 H540 0.931 . S
C525 C524 1.370 . S
C525 C529 1.408 1_554 S
C526 C524 1.363 . S
C526 C527 1.370 . S
C526 C530 1.524 . S
C527 C519 1.503 . S
C527 C526 1.370 . S
C527 C528 1.403 1_554 S
C528 C527 1.403 1_556 S
C528 C529 1.404 . S
C528 C531 1.539 . S
C529 C525 1.408 1_556 S
C529 C528 1.404 . S
C529 H541 0.930 . S
C530 C526 1.524 . S
C530 H542 0.956 . S
C530 H543 0.961 . S
C530 H544 0.961 . S
C531 C528 1.539 . S
C531 H545 0.958 . S
C531 H546 0.961 . S
C531 H547 0.960 . S
H532 C516 0.931 . S
H533 C521 0.929 . S
H534 C522 0.960 . S
H535 C522 0.962 . S
H536 C522 0.960 . S
H537 C523 0.961 . S
H538 C523 0.961 . S
H539 C523 0.961 . S
H540 C524 0.931 . S
H541 C529 0.930 . S
H542 C530 0.956 . S
H543 C530 0.961 . S
H544 C530 0.961 . S
H545 C531 0.958 . S
H546 C531 0.961 . S
H547 C531 0.960 . S
C548 C549 1.391 1_556 S
C548 C550 1.394 . S
C548 H564 0.931 . S
C549 C548 1.391 1_554 S
C549 C553 1.376 . S
C550 C548 1.394 . S
C550 C551 1.369 1_556 S
C550 C554 1.531 . S
C551 C550 1.369 1_554 S
C551 C552 1.410 . S
C551 C559 1.503 . S
C552 C551 1.410 . S
C552 C553 1.392 . S
C552 C555 1.511 . S
C553 C549 1.376 . S
C553 C552 1.392 . S
C553 H565 0.929 . S
C554 C550 1.531 . S
C554 H566 0.960 . S
C554 H567 0.962 . S
C554 H568 0.960 . S
C555 C552 1.511 . S
C555 H569 0.961 . S
C555 H570 0.961 . S
C555 H571 0.961 . S
C556 C557 1.370 . S
C556 C558 1.363 . S
C556 H572 0.931 . S
C557 C556 1.370 . S
C557 C561 1.408 1_554 S
C558 C556 1.363 . S
C558 C559 1.370 . S
C558 C562 1.524 . S
C559 C551 1.503 . S
C559 C558 1.370 . S
C559 C560 1.403 1_554 S
C560 C559 1.403 1_556 S
C560 C561 1.404 . S
C560 C563 1.539 . S
C561 C557 1.408 1_556 S
C561 C560 1.404 . S
C561 H573 0.930 . S
C562 C558 1.524 . S
C562 H574 0.956 . S
C562 H575 0.961 . S
C562 H576 0.961 . S
C563 C560 1.539 . S
C563 H577 0.958 . S
C563 H578 0.961 . S
C563 H579 0.960 . S
H564 C548 0.931 . S
H565 C553 0.929 . S
H566 C554 0.960 . S
H567 C554 0.962 . S
H568 C554 0.960 . S
H569 C555 0.961 . S
H570 C555 0.961 . S
H571 C555 0.961 . S
H572 C556 0.931 . S
H573 C561 0.930 . S
H574 C562 0.956 . S
H575 C562 0.961 . S
H576 C562 0.961 . S
H577 C563 0.958 . S
H578 C563 0.961 . S
H579 C563 0.960 . S
C205 C180 1.976 . S
C197 C36 2.043 1_455 S
C237 C176 1.330 . S
C229 C78 1.418 . S
C269 C186 1.983 1_655 S
C261 C30 2.044 . S
C301 C170 1.357 1_565 S
C293 C69 1.432 1_565 S
C325 C21 2.166 . S
C333 C162 2.068 . S
C365 C194 1.438 . S
C357 C93 1.525 . S
C389 C45 2.139 . S
C397 C148 2.066 . S
C421 C84 1.557 1_545 S
C429 C192 1.442 . S
C453 C132 1.039 . S
C461 C174 0.992 . S
C485 C126 1.038 . S
C493 C189 1.007 . S
C525 C183 0.998 . S
C517 C141 1.003 . S
C557 C178 0.995 . S
C549 C117 1.036 . S
