# Generated by pormake.
# Topology ssb, (4,4)-cn, num edge types: 1
# Building blocks:
#     Node 0, Type 0, BuildingBlock: GIZVER_clean_linker_0, # of connection points: 4
#     Node 1, Type 0, BuildingBlock: GIZVER_clean_linker_0, # of connection points: 4
#     Node 2, Type 0, BuildingBlock: GIZVER_clean_linker_0, # of connection points: 4
#     Node 3, Type 0, BuildingBlock: GIZVER_clean_linker_0, # of connection points: 4
#     Node 4, Type 0, BuildingBlock: GIZVER_clean_linker_0, # of connection points: 4
#     Node 5, Type 0, BuildingBlock: GIZVER_clean_linker_0, # of connection points: 4
#     Node 6, Type 0, BuildingBlock: GIZVER_clean_linker_0, # of connection points: 4
#     Node 7, Type 0, BuildingBlock: GIZVER_clean_linker_0, # of connection points: 4
#     Node 8, Type 1, BuildingBlock: KOZSID_clean_sbu_0, # of connection points: 4
#     Node 9, Type 1, BuildingBlock: KOZSID_clean_sbu_0, # of connection points: 4
#     Node 10, Type 1, BuildingBlock: KOZSID_clean_sbu_0, # of connection points: 4
#     Node 11, Type 1, BuildingBlock: KOZSID_clean_sbu_0, # of connection points: 4
#     Node 12, Type 1, BuildingBlock: KOZSID_clean_sbu_0, # of connection points: 4
#     Node 13, Type 1, BuildingBlock: KOZSID_clean_sbu_0, # of connection points: 4
#     Node 14, Type 1, BuildingBlock: KOZSID_clean_sbu_0, # of connection points: 4
#     Node 15, Type 1, BuildingBlock: KOZSID_clean_sbu_0, # of connection points: 4
#     Edge 16, Type (0, 1), BuildingBlock: XIVTED_clean_linker_0, # of connection points: 2
#     Edge 17, Type (0, 1), BuildingBlock: XIVTED_clean_linker_0, # of connection points: 2
#     Edge 18, Type (0, 1), BuildingBlock: XIVTED_clean_linker_0, # of connection points: 2
#     Edge 19, Type (0, 1), BuildingBlock: XIVTED_clean_linker_0, # of connection points: 2
#     Edge 20, Type (0, 1), BuildingBlock: XIVTED_clean_linker_0, # of connection points: 2
#     Edge 21, Type (0, 1), BuildingBlock: XIVTED_clean_linker_0, # of connection points: 2
#     Edge 22, Type (0, 1), BuildingBlock: XIVTED_clean_linker_0, # of connection points: 2
#     Edge 23, Type (0, 1), BuildingBlock: XIVTED_clean_linker_0, # of connection points: 2
#     Edge 24, Type (0, 1), BuildingBlock: XIVTED_clean_linker_0, # of connection points: 2
#     Edge 25, Type (0, 1), BuildingBlock: XIVTED_clean_linker_0, # of connection points: 2
#     Edge 26, Type (0, 1), BuildingBlock: XIVTED_clean_linker_0, # of connection points: 2
#     Edge 27, Type (0, 1), BuildingBlock: XIVTED_clean_linker_0, # of connection points: 2
#     Edge 28, Type (0, 1), BuildingBlock: XIVTED_clean_linker_0, # of connection points: 2
#     Edge 29, Type (0, 1), BuildingBlock: XIVTED_clean_linker_0, # of connection points: 2
#     Edge 30, Type (0, 1), BuildingBlock: XIVTED_clean_linker_0, # of connection points: 2
#     Edge 31, Type (0, 1), BuildingBlock: XIVTED_clean_linker_0, # of connection points: 2
#     Edge 32, Type (0, 1), BuildingBlock: XIVTED_clean_linker_0, # of connection points: 2
#     Edge 33, Type (0, 1), BuildingBlock: XIVTED_clean_linker_0, # of connection points: 2
#     Edge 34, Type (0, 1), BuildingBlock: XIVTED_clean_linker_0, # of connection points: 2
#     Edge 35, Type (0, 1), BuildingBlock: XIVTED_clean_linker_0, # of connection points: 2
#     Edge 36, Type (0, 1), BuildingBlock: XIVTED_clean_linker_0, # of connection points: 2
#     Edge 37, Type (0, 1), BuildingBlock: XIVTED_clean_linker_0, # of connection points: 2
#     Edge 38, Type (0, 1), BuildingBlock: XIVTED_clean_linker_0, # of connection points: 2
#     Edge 39, Type (0, 1), BuildingBlock: XIVTED_clean_linker_0, # of connection points: 2
#     Edge 40, Type (0, 1), BuildingBlock: XIVTED_clean_linker_0, # of connection points: 2
#     Edge 41, Type (0, 1), BuildingBlock: XIVTED_clean_linker_0, # of connection points: 2
#     Edge 42, Type (0, 1), BuildingBlock: XIVTED_clean_linker_0, # of connection points: 2
#     Edge 43, Type (0, 1), BuildingBlock: XIVTED_clean_linker_0, # of connection points: 2
#     Edge 44, Type (0, 1), BuildingBlock: XIVTED_clean_linker_0, # of connection points: 2
#     Edge 45, Type (0, 1), BuildingBlock: XIVTED_clean_linker_0, # of connection points: 2
#     Edge 46, Type (0, 1), BuildingBlock: XIVTED_clean_linker_0, # of connection points: 2
#     Edge 47, Type (0, 1), BuildingBlock: XIVTED_clean_linker_0, # of connection points: 2
# Relax obj value: 0.003
# Max RMSD: 0.046
# Mean RMSD: 0.023
data_MOF--net-ssb--node1-KOZSID_clean_sbu_0--node2-GIZVER_clean_linker_0--edge1-XIVTED_clean_linker_0
_symmetry_space_group_name_H-M    P1
_symmetry_Int_Tables_number       1
_symmetry_cell_setting            triclinic
loop_
_symmetry_equiv_pos_as_xyz
'x, y, z'
_cell_length_a     55.070696
_cell_length_b     54.723553
_cell_length_c     40.464085
_cell_angle_alpha  92.898554
_cell_angle_beta   95.10047
_cell_angle_gamma 89.979799
loop_
_atom_site_label
_atom_site_type_symbol
_atom_site_fract_x
_atom_site_fract_y
_atom_site_fract_z
_atom_type_partial_charge
H0 H 0.26246 0.19647 0.2896 0.0
H1 H 0.21165 0.25606 0.29569 0.0
H2 H 0.22835 0.21189 0.37963 0.0
H3 H 0.24204 0.21292 0.23902 0.0
H4 H 0.21948 0.23599 0.24166 0.0
H5 H 0.28635 0.22419 0.24538 0.0
H6 H 0.30152 0.29437 0.20857 0.0
H7 H 0.22979 0.27851 0.23597 0.0
C8 C 0.25078 0.20792 0.30398 0.0
C9 C 0.24781 0.20261 0.3371 0.0
C10 C 0.23796 0.22744 0.28895 0.0
C11 C 0.22203 0.24154 0.30746 0.0
C12 C 0.21848 0.23617 0.34034 0.0
C13 C 0.23177 0.21694 0.3549 0.0
C14 C 0.23805 0.23071 0.25194 0.0
C15 C 0.25632 0.2496 0.2433 0.0
C16 C 0.28059 0.24259 0.23982 0.0
C17 C 0.29703 0.25872 0.22742 0.0
C18 C 0.28919 0.28228 0.21948 0.0
C19 C 0.26502 0.28967 0.22234 0.0
C20 C 0.24864 0.27323 0.23446 0.0
H21 H 0.82052 0.24471 0.27421 0.0
H22 H 0.76178 0.19239 0.26713 0.0
H23 H 0.8041 0.20698 0.3604 0.0
H24 H 0.80283 0.22835 0.2198 0.0
H25 H 0.77976 0.20518 0.21688 0.0
H26 H 0.79211 0.2718 0.23221 0.0
H27 H 0.71824 0.2916 0.20115 0.0
H28 H 0.73682 0.21616 0.2134 0.0
C29 C 0.80943 0.23191 0.28594 0.0
C30 C 0.8144 0.22781 0.31991 0.0
C31 C 0.79036 0.21926 0.26686 0.0
C32 C 0.77624 0.20243 0.28191 0.0
C33 C 0.78096 0.19815 0.31572 0.0
C34 C 0.79983 0.21108 0.3346 0.0
C35 C 0.78574 0.22275 0.23016 0.0
C36 C 0.76653 0.24197 0.2237 0.0
C37 C 0.77322 0.26677 0.22547 0.0
C38 C 0.75597 0.2849 0.21733 0.0
C39 C 0.73155 0.27795 0.20887 0.0
C40 C 0.72445 0.25325 0.20743 0.0
C41 C 0.74205 0.23531 0.21493 0.0
H42 H 0.77073 0.72929 0.31178 0.0
H43 H 0.71275 0.78108 0.32261 0.0
H44 H 0.78681 0.80138 0.35526 0.0
H45 H 0.72783 0.71571 0.31233 0.0
H46 H 0.70371 0.73743 0.31205 0.0
H47 H 0.74097 0.69896 0.2608 0.0
H48 H 0.7035 0.72132 0.16924 0.0
H49 H 0.69264 0.7606 0.26117 0.0
C50 C 0.76473 0.74756 0.31876 0.0
C51 C 0.78176 0.76485 0.33338 0.0
C52 C 0.73985 0.75332 0.31442 0.0
C53 C 0.73202 0.77678 0.32493 0.0
C54 C 0.74895 0.79443 0.33925 0.0
C55 C 0.7738 0.78833 0.34284 0.0
C56 C 0.72164 0.73345 0.30229 0.0
C57 C 0.71812 0.73079 0.26476 0.0
C58 C 0.7292 0.71152 0.24713 0.0
C59 C 0.72386 0.70757 0.21248 0.0
C60 C 0.70783 0.72388 0.19579 0.0
C61 C 0.69603 0.74263 0.21312 0.0
C62 C 0.70171 0.74627 0.2475 0.0
H63 H 0.17786 0.76674 0.23172 0.0
H64 H 0.24367 0.80885 0.22881 0.0
H65 H 0.21141 0.80353 0.3207 0.0
H66 H 0.19318 0.77286 0.17909 0.0
H67 H 0.21283 0.79859 0.17716 0.0
H68 H 0.20978 0.73147 0.18016 0.0
H69 H 0.2838 0.72075 0.15693 0.0
H70 H 0.25767 0.79343 0.17785 0.0
C71 C 0.1927 0.77748 0.24447 0.0
C72 C 0.19229 0.78414 0.27849 0.0
C73 C 0.21149 0.78604 0.22642 0.0
C74 C 0.22982 0.80124 0.24273 0.0
C75 C 0.23003 0.8073 0.27676 0.0
C76 C 0.21154 0.7983 0.29451 0.0
C77 C 0.21097 0.78099 0.18932 0.0
C78 C 0.23155 0.76427 0.18063 0.0
C79 C 0.22762 0.7389 0.17696 0.0
C80 C 0.24639 0.72314 0.16834 0.0
C81 C 0.26949 0.73286 0.1645 0.0
C82 C 0.27378 0.75819 0.16786 0.0
C83 C 0.25463 0.77384 0.17571 0.0
H84 H 0.3008 0.76411 0.76043 0.0
H85 H 0.24992 0.7039 0.75035 0.0
H86 H 0.28884 0.72258 0.84499 0.0
H87 H 0.28998 0.74161 0.70587 0.0
H88 H 0.26532 0.72034 0.70124 0.0
H89 H 0.28261 0.78539 0.7011 0.0
H90 H 0.20991 0.80711 0.66706 0.0
H91 H 0.2227 0.73483 0.70135 0.0
C92 C 0.2911 0.74986 0.77158 0.0
C93 C 0.29654 0.74546 0.80533 0.0
C94 C 0.27421 0.73512 0.75154 0.0
C95 C 0.26235 0.71589 0.76583 0.0
C96 C 0.26715 0.71165 0.79987 0.0
C97 C 0.28405 0.72672 0.81931 0.0
C98 C 0.27172 0.73785 0.71433 0.0
C99 C 0.25444 0.75814 0.70381 0.0
C100 C 0.26326 0.78147 0.69712 0.0
C101 C 0.2472 0.79945 0.68423 0.0
C102 C 0.22224 0.79385 0.67842 0.0
C103 C 0.21334 0.77056 0.68415 0.0
C104 C 0.22945 0.75296 0.69737 0.0
H105 H 0.27091 0.21401 0.86241 0.0
H106 H 0.21727 0.27122 0.85631 0.0
H107 H 0.29282 0.2892 0.88168 0.0
H108 H 0.22723 0.20415 0.86 0.0
H109 H 0.20503 0.22803 0.86037 0.0
H110 H 0.24382 0.19007 0.80786 0.0
H111 H 0.20439 0.20893 0.71636 0.0
H112 H 0.18883 0.24603 0.80836 0.0
C113 C 0.26637 0.23329 0.86389 0.0
C114 C 0.28489 0.25079 0.87213 0.0
C115 C 0.24196 0.24062 0.85778 0.0
C116 C 0.23612 0.26556 0.86043 0.0
C117 C 0.25442 0.28318 0.86879 0.0
C118 C 0.27876 0.27569 0.87406 0.0
C119 C 0.22197 0.22195 0.84935 0.0
C120 C 0.21691 0.21846 0.81218 0.0
C121 C 0.23021 0.20111 0.79457 0.0
C122 C 0.22589 0.19777 0.75998 0.0
C123 C 0.20835 0.21218 0.74295 0.0
C124 C 0.19471 0.22951 0.76011 0.0
C125 C 0.19918 0.23266 0.79482 0.0
H126 H 0.69852 0.25583 0.775 0.0
H127 H 0.75246 0.31295 0.77702 0.0
H128 H 0.716 0.30041 0.86441 0.0
H129 H 0.70932 0.27347 0.7233 0.0
H130 H 0.73279 0.29588 0.72406 0.0
H131 H 0.71874 0.22993 0.71906 0.0
H132 H 0.7906 0.21036 0.69391 0.0
H133 H 0.7763 0.2838 0.72992 0.0
C134 C 0.70947 0.2701 0.78863 0.0
C135 C 0.70574 0.27614 0.82197 0.0
C136 C 0.72649 0.28309 0.7723 0.0
C137 C 0.73988 0.30238 0.78977 0.0
C138 C 0.73645 0.30859 0.82326 0.0
C139 C 0.7196 0.29507 0.83915 0.0
C140 C 0.72772 0.27864 0.73524 0.0
C141 C 0.74573 0.25888 0.72671 0.0
C142 C 0.73774 0.23473 0.71797 0.0
C143 C 0.75401 0.21702 0.7066 0.0
C144 C 0.77839 0.22364 0.70428 0.0
C145 C 0.78662 0.2477 0.71226 0.0
C146 C 0.77024 0.26511 0.72404 0.0
H147 H 0.75642 0.69274 0.7624 0.0
H148 H 0.69538 0.74205 0.76203 0.0
H149 H 0.71998 0.70605 0.85092 0.0
H150 H 0.73362 0.70413 0.70987 0.0
H151 H 0.71052 0.72703 0.70996 0.0
H152 H 0.7761 0.71548 0.70826 0.0
H153 H 0.79262 0.79095 0.69496 0.0
H154 H 0.72195 0.77084 0.72232 0.0
C155 C 0.74275 0.70249 0.77553 0.0
C156 C 0.74031 0.69795 0.80883 0.0
C157 C 0.72698 0.71884 0.7587 0.0
C158 C 0.70834 0.73041 0.77542 0.0
C159 C 0.70543 0.72556 0.80865 0.0
C160 C 0.72214 0.71004 0.82536 0.0
C161 C 0.72859 0.72185 0.72212 0.0
C162 C 0.74714 0.74113 0.7165 0.0
C163 C 0.77086 0.73458 0.70906 0.0
C164 C 0.78755 0.75256 0.70174 0.0
C165 C 0.78032 0.77718 0.70234 0.0
C166 C 0.75666 0.78395 0.70941 0.0
C167 C 0.74032 0.76584 0.71703 0.0
C168 C 0.04267 0.29429 0.59426 0.0
C169 C 0.05088 0.31715 0.60691 0.0
C170 C 0.03893 0.33396 0.58773 0.0
C171 C 0.02418 0.32046 0.56458 0.0
N172 N 0.02574 0.29604 0.56799 0.0
Co173 Co 0.00851 0.26976 0.53842 0.0
N174 N 0.99046 0.29453 0.51074 0.0
C175 C 0.99195 0.31916 0.51519 0.0
C176 C 0.97647 0.33141 0.49341 0.0
C177 C 0.96402 0.31352 0.47418 0.0
C178 C 0.97271 0.29134 0.48542 0.0
N179 N 0.99205 0.24347 0.50807 0.0
C180 C 0.97494 0.24515 0.48203 0.0
C181 C 0.9684 0.22225 0.4676 0.0
C182 C 0.98176 0.20553 0.48523 0.0
C183 C 0.99561 0.21906 0.50932 0.0
N184 N 0.02559 0.24495 0.56704 0.0
C185 C 0.02329 0.22031 0.56332 0.0
C186 C 0.03701 0.208 0.58693 0.0
C187 C 0.04885 0.22579 0.60698 0.0
C188 C 0.04163 0.24806 0.59435 0.0
N189 N 0.98108 0.26978 0.56718 0.0
C190 C 0.94199 0.26944 0.60782 0.0
C191 C 0.95083 0.24771 0.59382 0.0
C192 C 0.97014 0.24829 0.57374 0.0
C193 C 0.95306 0.2914 0.60101 0.0
C194 C 0.97248 0.29115 0.58087 0.0
N195 N 0.03611 0.26973 0.50965 0.0
C196 C 0.06971 0.24863 0.48613 0.0
C197 C 0.07684 0.26986 0.47193 0.0
C198 C 0.06297 0.29094 0.47616 0.0
C199 C 0.04297 0.29055 0.49525 0.0
C200 C 0.04933 0.24887 0.50433 0.0
H201 H 0.03355 0.3074 0.49826 0.0
H202 H 0.04481 0.23192 0.51398 0.0
H203 H 0.97581 0.2311 0.56365 0.0
H204 H 0.98023 0.30846 0.57668 0.0
C205 C 0.00812 0.33018 0.54004 0.0
C206 C 0.05157 0.27152 0.60804 0.0
C207 C 0.96337 0.26777 0.47141 0.0
C208 C 0.00978 0.20929 0.53573 0.0
H209 H 0.06416 0.32122 0.62782 0.0
H210 H 0.04075 0.35367 0.5904 0.0
H211 H 0.97432 0.35099 0.4919 0.0
H212 H 0.95001 0.31643 0.45428 0.0
H213 H 0.95487 0.21797 0.44708 0.0
H214 H 0.98072 0.1858 0.48175 0.0
H215 H 0.03875 0.1884 0.58877 0.0
H216 H 0.06179 0.22264 0.62803 0.0
H217 H 0.94261 0.23024 0.59778 0.0
H218 H 0.94698 0.30872 0.61144 0.0
H219 H 0.07975 0.23176 0.48301 0.0
H220 H 0.06792 0.30783 0.46554 0.0
C221 C 0.70533 0.04333 0.57106 0.0
C222 C 0.68301 0.0521 0.57985 0.0
C223 C 0.66548 0.03794 0.5623 0.0
C224 C 0.678 0.02121 0.54412 0.0
N225 N 0.70251 0.02373 0.54905 0.0
Co226 Co 0.72743 0.00243 0.52846 0.0
N227 N 0.70158 0.98253 0.5011 0.0
C228 C 0.67726 0.98642 0.49952 0.0
C229 C 0.664 0.97048 0.47776 0.0
C230 C 0.68083 0.95547 0.46458 0.0
C231 C 0.7035 0.963 0.47935 0.0
N232 N 0.75236 0.98051 0.50889 0.0
C233 C 0.74951 0.96045 0.4877 0.0
C234 C 0.77178 0.94959 0.48257 0.0
C235 C 0.78928 0.96341 0.50068 0.0
C236 C 0.77681 0.98168 0.5161 0.0
N237 N 0.75334 0.0229 0.55481 0.0
C238 C 0.77773 0.02033 0.55413 0.0
C239 C 0.79109 0.03806 0.57266 0.0
C240 C 0.77428 0.05303 0.58584 0.0
C241 C 0.75147 0.04338 0.57487 0.0
N242 N 0.72643 0.97999 0.56531 0.0
C243 C 0.72564 0.94402 0.61266 0.0
C244 C 0.74751 0.95502 0.60619 0.0
C245 C 0.74745 0.97295 0.58288 0.0
C246 C 0.70403 0.9524 0.59632 0.0
C247 C 0.70484 0.97021 0.57293 0.0
N248 N 0.72846 0.02487 0.49158 0.0
C249 C 0.75146 0.04613 0.45367 0.0
C250 C 0.73094 0.05947 0.4429 0.0
C251 C 0.70895 0.05471 0.45601 0.0
C252 C 0.70805 0.0372 0.47983 0.0
C253 C 0.74987 0.02915 0.47795 0.0
H254 H 0.69069 0.03423 0.48865 0.0
H255 H 0.76634 0.0201 0.48567 0.0
H256 H 0.76474 0.98037 0.5789 0.0
H257 H 0.68779 0.97538 0.56084 0.0
C258 C 0.66733 0.00415 0.52035 0.0
C259 C 0.72863 0.05457 0.58377 0.0
C260 C 0.72624 0.95093 0.47194 0.0
C261 C 0.78758 1.00077 0.53642 0.0
H262 H 0.6797 0.06738 0.59688 0.0
H263 H 0.64592 0.03991 0.56229 0.0
H264 H 0.6444 0.96965 0.47245 0.0
H265 H 0.67683 0.94056 0.44631 0.0
H266 H 0.77512 0.93331 0.46739 0.0
H267 H 0.80879 0.96051 0.50235 0.0
H268 H 0.81073 0.03996 0.57601 0.0
H269 H 0.77846 0.06936 0.6015 0.0
H270 H 0.76483 0.94919 0.61797 0.0
H271 H 0.68652 0.94496 0.60104 0.0
H272 H 0.76894 0.04939 0.44428 0.0
H273 H 0.69254 0.06449 0.44798 0.0
C274 C 0.03672 0.7687 0.55477 0.0
C275 C 0.04526 0.79155 0.56724 0.0
C276 C 0.03007 0.80847 0.55303 0.0
C277 C 0.01339 0.79515 0.53245 0.0
N278 N 0.01677 0.77067 0.53283 0.0
Co279 Co 0.99827 0.74492 0.50364 0.0
N280 N 0.97637 0.77005 0.48214 0.0
C281 C 0.97642 0.7944 0.48994 0.0
C282 C 0.95817 0.80686 0.47297 0.0
C283 C 0.94547 0.78945 0.45331 0.0
C284 C 0.95697 0.76725 0.45914 0.0
N285 N 0.98052 0.71931 0.47349 0.0
C286 C 0.96161 0.72144 0.44995 0.0
C287 C 0.95548 0.69906 0.43364 0.0
C288 C 0.97072 0.68212 0.44782 0.0
C289 C 0.98538 0.69508 0.47165 0.0
N290 N 0.01944 0.71974 0.52614 0.0
C291 C 0.01782 0.69518 0.52068 0.0
C292 C 0.03417 0.68246 0.54068 0.0
C293 C 0.04715 0.69993 0.55996 0.0
C294 C 0.0381 0.72242 0.55029 0.0
N295 N 0.97437 0.74142 0.53724 0.0
C296 C 0.93771 0.73723 0.58133 0.0
C297 C 0.9461 0.71666 0.56389 0.0
C298 C 0.96433 0.71912 0.54228 0.0
C299 C 0.94856 0.75979 0.57697 0.0
C300 C 0.96671 0.76144 0.55515 0.0
N301 N 0.0221 0.74844 0.46995 0.0
C302 C 0.05281 0.73135 0.43622 0.0
C303 C 0.05747 0.7543 0.42438 0.0
C304 C 0.04355 0.77406 0.43509 0.0
C305 C 0.02626 0.77079 0.45769 0.0
C306 C 0.03514 0.72883 0.45871 0.0
H307 H 0.01664 0.78674 0.46504 0.0
H308 H 0.03259 0.71089 0.46696 0.0
H309 H 0.9698 0.70276 0.52963 0.0
H310 H 0.97394 0.77924 0.55279 0.0
C311 C 0.99422 0.8051 0.51275 0.0
C312 C 0.04854 0.74574 0.56381 0.0
C313 C 0.94844 0.74399 0.44285 0.0
C314 C 0.00231 0.68478 0.49458 0.0
H315 H 0.06102 0.79577 0.58445 0.0
H316 H 0.03125 0.82817 0.55692 0.0
H317 H 0.95442 0.82628 0.47486 0.0
H318 H 0.92939 0.79284 0.43687 0.0
H319 H 0.94118 0.69531 0.41391 0.0
H320 H 0.9707 0.66259 0.44202 0.0
H321 H 0.03678 0.66285 0.54063 0.0
H322 H 0.06196 0.69653 0.57856 0.0
H323 H 0.93864 0.69866 0.56682 0.0
H324 H 0.94262 0.77637 0.58958 0.0
H325 H 0.06313 0.71544 0.42887 0.0
H326 H 0.04595 0.79215 0.42613 0.0
C327 C 0.30168 0.96437 0.56355 0.0
C328 C 0.32384 0.95746 0.57937 0.0
C329 C 0.34117 0.97251 0.5692 0.0
C330 C 0.32868 0.98788 0.54809 0.0
N331 N 0.3044 0.98355 0.54405 0.0
Co332 Co 0.27951 0.00277 0.51693 0.0
N333 N 0.30522 0.02384 0.50024 0.0
C334 C 0.3296 0.02147 0.50653 0.0
C335 C 0.34284 0.03776 0.49067 0.0
C336 C 0.3259 0.05129 0.47301 0.0
C337 C 0.3032 0.04257 0.47934 0.0
N338 N 0.25447 0.02283 0.49133 0.0
C339 C 0.25709 0.04241 0.47259 0.0
C340 C 0.23464 0.05175 0.461 0.0
C341 C 0.21727 0.03744 0.47244 0.0
C342 C 0.22998 0.0204 0.49055 0.0
N343 N 0.25386 0.98082 0.532 0.0
C344 C 0.22965 0.9816 0.52288 0.0
C345 C 0.2166 0.96328 0.53498 0.0
C346 C 0.23346 0.94986 0.55283 0.0
C347 C 0.25594 0.96099 0.55095 0.0
N348 N 0.27704 0.0257 0.55606 0.0
C349 C 0.2729 0.06029 0.60911 0.0
C350 C 0.2528 0.04641 0.59576 0.0
C351 C 0.25522 0.02944 0.56936 0.0
C352 C 0.29525 0.05615 0.59615 0.0
C353 C 0.29697 0.03872 0.57005 0.0
N354 N 0.28202 0.97989 0.47782 0.0
C355 C 0.26308 0.95799 0.42896 0.0
C356 C 0.28475 0.94565 0.42412 0.0
C357 C 0.30522 0.95109 0.44607 0.0
C358 C 0.30355 0.9684 0.47235 0.0
C359 C 0.26207 0.97478 0.45584 0.0
H360 H 0.31986 0.97194 0.48808 0.0
H361 H 0.24482 0.98307 0.45858 0.0
H362 H 0.23907 0.01985 0.55987 0.0
H363 H 0.31458 0.03632 0.56147 0.0
C364 C 0.33938 0.00508 0.52947 0.0
C365 C 0.27864 0.95204 0.56768 0.0
C366 C 0.2803 0.05276 0.46498 0.0
C367 C 0.21956 1.00065 0.50465 0.0
H368 H 0.32719 0.9429 0.59629 0.0
H369 H 0.36063 0.972 0.57592 0.0
H370 H 0.36246 0.03981 0.49217 0.0
H371 H 0.32981 0.06603 0.4574 0.0
H372 H 0.23113 0.06721 0.44566 0.0
H373 H 0.19769 0.03902 0.46763 0.0
H374 H 0.19711 0.96017 0.53147 0.0
H375 H 0.22954 0.9337 0.56578 0.0
H376 H 0.23505 0.04917 0.60492 0.0
H377 H 0.31138 0.06631 0.60609 0.0
H378 H 0.24666 0.95406 0.41273 0.0
H379 H 0.32241 0.942 0.44302 0.0
C380 C 0.53676 0.80627 0.06028 0.0
C381 C 0.54587 0.82894 0.07241 0.0
C382 C 0.53329 0.84604 0.05447 0.0
C383 C 0.51719 0.8329 0.03267 0.0
N384 N 0.51863 0.80844 0.03567 0.0
Co385 Co 0.49823 0.78268 0.00928 0.0
N386 N 0.48142 0.80769 0.98084 0.0
C387 C 0.48636 0.83192 0.98174 0.0
C388 C 0.47189 0.84447 0.95911 0.0
C389 C 0.45667 0.82725 0.94289 0.0
C390 C 0.46275 0.80512 0.95671 0.0
N391 N 0.47691 0.75704 0.98412 0.0
C392 C 0.4579 0.75946 0.96086 0.0
C393 C 0.44697 0.73707 0.95113 0.0
C394 C 0.45927 0.71991 0.96926 0.0
C395 C 0.47689 0.73275 0.98896 0.0
N396 N 0.51596 0.7575 0.03656 0.0
C397 C 0.51282 0.73294 0.03322 0.0
C398 C 0.52866 0.72018 0.05388 0.0
C399 C 0.54305 0.73758 0.07116 0.0
C400 C 0.53501 0.76007 0.06014 0.0
N401 N 0.47313 0.78646 0.04157 0.0
C402 C 0.43369 0.78978 0.08162 0.0
C403 C 0.44625 0.76785 0.07727 0.0
C404 C 0.46569 0.76662 0.05744 0.0
C405 C 0.44186 0.81035 0.06658 0.0
C406 C 0.46165 0.80836 0.04707 0.0
N407 N 0.5233 0.77871 0.97689 0.0
C408 C 0.54643 0.7521 0.94207 0.0
C409 C 0.56206 0.77121 0.9363 0.0
C410 C 0.55709 0.79455 0.94969 0.0
C411 C 0.53766 0.79789 0.96966 0.0
C412 C 0.52746 0.75618 0.96221 0.0
H413 H 0.53492 0.81605 0.97951 0.0
H414 H 0.51674 0.74059 0.96594 0.0
H415 H 0.47397 0.74916 0.05468 0.0
H416 H 0.46707 0.82466 0.03622 0.0
C417 C 0.50251 0.84271 0.00677 0.0
C418 C 0.54652 0.78324 0.07211 0.0
C419 C 0.44933 0.78251 0.9476 0.0
C420 C 0.4942 0.72248 0.0114 0.0
H421 H 0.56049 0.83266 0.09172 0.0
H422 H 0.53612 0.86565 0.05634 0.0
H423 H 0.47174 0.86397 0.95576 0.0
H424 H 0.44223 0.83069 0.92378 0.0
H425 H 0.4316 0.73354 0.93292 0.0
H426 H 0.45576 0.70042 0.96826 0.0
H427 H 0.52966 0.70057 0.05604 0.0
H428 H 0.55795 0.73405 0.08957 0.0
H429 H 0.44056 0.75131 0.08809 0.0
H430 H 0.43296 0.82786 0.06967 0.0
H431 H 0.54897 0.73381 0.93142 0.0
H432 H 0.56857 0.81001 0.94575 0.0
C433 C 0.21449 0.53926 0.06238 0.0
C434 C 0.19217 0.54598 0.07346 0.0
C435 C 0.17482 0.5326 0.05433 0.0
C436 C 0.18751 0.51836 0.03301 0.0
N437 N 0.21194 0.52163 0.03761 0.0
Co438 Co 0.23723 0.5039 0.01308 0.0
N439 N 0.21163 0.48592 0.98303 0.0
C440 C 0.18725 0.48925 0.98186 0.0
C441 C 0.17432 0.47451 0.95815 0.0
C442 C 0.19146 0.46073 0.94356 0.0
C443 C 0.2139 0.46779 0.9595 0.0
N444 N 0.26253 0.48522 0.98952 0.0
C445 C 0.2599 0.4662 0.96665 0.0
C446 C 0.28235 0.45698 0.95896 0.0
C447 C 0.29973 0.47058 0.97766 0.0
C448 C 0.28701 0.48709 0.99586 0.0
N449 N 0.26283 0.52274 0.04228 0.0
C450 C 0.28725 0.52134 0.0409 0.0
C451 C 0.3002 0.53789 0.06202 0.0
C452 C 0.28305 0.55099 0.07749 0.0
C453 C 0.26049 0.54145 0.06509 0.0
N454 N 0.23745 0.47749 0.04537 0.0
C455 C 0.2383 0.43866 0.08936 0.0
C456 C 0.25964 0.45112 0.08377 0.0
C457 C 0.25881 0.47025 0.06201 0.0
C458 C 0.21646 0.44624 0.0726 0.0
C459 C 0.21644 0.4655 0.05099 0.0
N460 N 0.23706 0.53032 0.98067 0.0
C461 C 0.25844 0.55537 0.94473 0.0
C462 C 0.23732 0.56857 0.93596 0.0
C463 C 0.21599 0.56217 0.94987 0.0
C464 C 0.2162 0.54305 0.97172 0.0
C465 C 0.25796 0.53667 0.96702 0.0
H466 H 0.19926 0.53897 0.98113 0.0
H467 H 0.27486 0.5278 0.97301 0.0
H468 H 0.27578 0.47873 0.05877 0.0
H469 H 0.1992 0.47031 0.03894 0.0
C470 C 0.17697 0.50387 0.00615 0.0
C471 C 0.23732 0.55149 0.07442 0.0
C472 C 0.2366 0.45554 0.95305 0.0
C473 C 0.29747 0.50436 0.01939 0.0
H474 H 0.18876 0.55974 0.09264 0.0
H475 H 0.15525 0.53379 0.05502 0.0
H476 H 0.15472 0.47314 0.9531 0.0
H477 H 0.18785 0.44648 0.92419 0.0
H478 H 0.28596 0.44168 0.94218 0.0
H479 H 0.3193 0.46834 0.97845 0.0
H480 H 0.31977 0.54045 0.0653 0.0
H481 H 0.28688 0.56616 0.09535 0.0
H482 H 0.27714 0.44585 0.09558 0.0
H483 H 0.19933 0.4375 0.07626 0.0
H484 H 0.27552 0.55981 0.93502 0.0
H485 H 0.19909 0.57172 0.94367 0.0
C486 C 0.46538 0.2544 0.98697 0.0
C487 C 0.45501 0.27681 0.97931 0.0
C488 C 0.46938 0.29441 0.99617 0.0
C489 C 0.48745 0.28186 0.0134 0.0
N490 N 0.48581 0.25727 0.00819 0.0
Co491 Co 0.50677 0.23216 0.03141 0.0
N492 N 0.52688 0.2581 0.05795 0.0
C493 C 0.52492 0.28257 0.05519 0.0
C494 C 0.54241 0.29583 0.07449 0.0
C495 C 0.55666 0.27884 0.09024 0.0
C496 C 0.54685 0.25605 0.07984 0.0
N497 N 0.52681 0.20703 0.05579 0.0
C498 C 0.54586 0.2098 0.07931 0.0
C499 C 0.55398 0.18742 0.0906 0.0
C500 C 0.53997 0.16986 0.07299 0.0
C501 C 0.524 0.18246 0.0523 0.0
N502 N 0.48741 0.20626 0.00386 0.0
C503 C 0.49136 0.18187 0.00347 0.0
C504 C 0.47536 0.16865 0.98161 0.0
C505 C 0.46012 0.18559 0.9674 0.0
C506 C 0.46762 0.20823 0.9817 0.0
N507 N 0.53044 0.23263 0.99689 0.0
C508 C 0.567 0.23467 0.95234 0.0
C509 C 0.56215 0.21297 0.9673 0.0
C510 C 0.54371 0.21226 0.98895 0.0
C511 C 0.55276 0.25508 0.95921 0.0
C512 C 0.53486 0.25372 0.98145 0.0
N513 N 0.48323 0.23179 0.06587 0.0
C514 C 0.45463 0.21014 0.09604 0.0
C515 C 0.44747 0.23197 0.11183 0.0
C516 C 0.45902 0.25359 0.1047 0.0
C517 C 0.47672 0.25308 0.08201 0.0
C518 C 0.47241 0.21045 0.07339 0.0
H519 H 0.48459 0.27024 0.07751 0.0
H520 H 0.47693 0.19324 0.06198 0.0
H521 H 0.5408 0.19507 0.99923 0.0
H522 H 0.52518 0.27018 0.98611 0.0
C523 C 0.5062 0.29257 0.03471 0.0
C524 C 0.4547 0.23089 0.9745 0.0
C525 C 0.55767 0.233 0.09043 0.0
C526 C 0.50799 0.17178 0.02697 0.0
H527 H 0.43854 0.28021 0.96365 0.0
H528 H 0.4667 0.31401 0.99634 0.0
H529 H 0.54469 0.31551 0.07658 0.0
H530 H 0.57269 0.28288 0.10705 0.0
H531 H 0.56893 0.18411 0.10905 0.0
H532 H 0.54176 0.15022 0.07432 0.0
H533 H 0.47426 0.14896 0.97753 0.0
H534 H 0.44479 0.18167 0.94926 0.0
H535 H 0.5725 0.19657 0.96229 0.0
H536 H 0.55594 0.27235 0.94832 0.0
H537 H 0.44657 0.19281 0.10105 0.0
H538 H 0.454 0.27107 0.11582 0.0
C539 C 0.74764 0.54061 0.07445 0.0
C540 C 0.72505 0.54616 0.08566 0.0
C541 C 0.70949 0.52764 0.07357 0.0
C542 C 0.7234 0.51182 0.05589 0.0
N543 N 0.7467 0.51923 0.05599 0.0
Co544 Co 0.77298 0.50113 0.03488 0.0
N545 N 0.74898 0.48097 0.00557 0.0
C546 C 0.72526 0.47809 0.01036 0.0
C547 C 0.71307 0.46257 0.98693 0.0
C548 C 0.73022 0.45485 0.96631 0.0
C549 C 0.75208 0.46614 0.97839 0.0
N550 N 0.79933 0.4829 0.01376 0.0
C551 C 0.79828 0.46776 0.98601 0.0
C552 C 0.82121 0.45859 0.98071 0.0
C553 C 0.83696 0.46785 0.00641 0.0
C554 C 0.8229 0.48222 0.02586 0.0
N555 N 0.79678 0.52129 0.06453 0.0
C556 C 0.82058 0.51627 0.07123 0.0
C557 C 0.83271 0.53403 0.09147 0.0
C558 C 0.81543 0.55123 0.09807 0.0
C559 C 0.79356 0.54284 0.08171 0.0
N560 N 0.7731 0.47672 0.06852 0.0
C561 C 0.77564 0.44149 0.11632 0.0
C562 C 0.77318 0.46628 0.12567 0.0
C563 C 0.77212 0.48365 0.10137 0.0
C564 C 0.77625 0.43468 0.08264 0.0
C565 C 0.7748 0.45247 0.05923 0.0
N566 N 0.77311 0.52546 1.00132 0.0
C567 C 0.79538 0.5531 0.97076 0.0
C568 C 0.77366 0.56095 0.95413 0.0
C569 C 0.75163 0.55053 0.96136 0.0
C570 C 0.75174 0.53293 0.98521 0.0
C571 C 0.79472 0.53524 0.99402 0.0
H572 H 0.73454 0.5255 0.99081 0.0
H573 H 0.81176 0.52946 0.00623 0.0
H574 H 0.77075 0.50269 0.1092 0.0
H575 H 0.77526 0.44647 0.03359 0.0
C576 C 0.71454 0.49223 0.03482 0.0
C577 C 0.76989 0.555 0.08399 0.0
C578 C 0.77575 0.45949 0.9663 0.0
C579 C 0.83157 0.49752 0.05312 0.0
H580 H 0.72035 0.56178 0.10125 0.0
H581 H 0.69019 0.52631 0.07645 0.0
H582 H 0.69394 0.45763 0.98484 0.0
H583 H 0.72707 0.44173 0.94546 0.0
H584 H 0.82595 0.44608 0.96074 0.0
H585 H 0.85641 0.46481 0.0101 0.0
H586 H 0.85204 0.53504 0.0991 0.0
H587 H 0.81874 0.56807 0.11292 0.0
H588 H 0.77256 0.47221 0.15153 0.0
H589 H 0.77762 0.41563 0.07434 0.0
H590 H 0.81279 0.56059 0.96566 0.0
H591 H 0.73441 0.55632 0.94923 0.0
H592 H 0.17236 0.24964 0.31589 0.0
H593 H 0.12249 0.2549 0.49293 0.0
H594 H 0.21986 0.24998 0.40675 0.0
H595 H 0.08112 0.28446 0.40878 0.0
H596 H 0.15815 0.25202 0.46099 0.0
H597 H 0.13864 0.26257 0.34817 0.0
C598 C 0.1759 0.25294 0.3425 0.0
C599 C 0.19902 0.24834 0.35861 0.0
C600 C 0.14137 0.25939 0.44956 0.0
C601 C 0.16024 0.26248 0.39574 0.0
C602 C 0.12101 0.2609 0.46772 0.0
C603 C 0.09887 0.26982 0.45336 0.0
C604 C 0.1395 0.26637 0.41649 0.0
C605 C 0.09792 0.27752 0.4207 0.0
C606 C 0.15655 0.26016 0.36093 0.0
C607 C 0.20227 0.25268 0.39327 0.0
N608 N 0.11787 0.2753 0.40314 0.0
N609 N 0.18305 0.25909 0.41067 0.0
H610 H 0.75973 0.2007 0.37437 0.0
H611 H 0.75209 0.05717 0.38426 0.0
H612 H 0.77305 0.15108 0.29177 0.0
H613 H 0.71499 0.10655 0.44913 0.0
H614 H 0.75967 0.09128 0.34962 0.0
H615 H 0.7428 0.16666 0.40216 0.0
C616 C 0.75879 0.18267 0.36197 0.0
C617 C 0.76784 0.1786 0.33086 0.0
C618 C 0.74956 0.0946 0.37115 0.0
C619 C 0.74888 0.13964 0.36251 0.0
C620 C 0.74534 0.07518 0.39095 0.0
C621 C 0.73302 0.07916 0.4196 0.0
C622 C 0.74183 0.11822 0.38047 0.0
C623 C 0.72447 0.10275 0.42713 0.0
C624 C 0.74908 0.16329 0.37773 0.0
C625 C 0.76613 0.15497 0.31569 0.0
N626 N 0.72935 0.12151 0.40794 0.0
N627 N 0.75717 0.13628 0.33188 0.0
H628 H 0.79776 0.72462 0.36589 0.0
H629 H 0.93829 0.76438 0.38281 0.0
H630 H 0.82372 0.78915 0.32295 0.0
H631 H 0.90601 0.72155 0.45403 0.0
H632 H 0.89832 0.76643 0.35073 0.0
H633 H 0.83954 0.71596 0.38806 0.0
C634 C 0.81235 0.73668 0.36054 0.0
C635 C 0.80733 0.75768 0.34266 0.0
C636 C 0.90007 0.75638 0.37319 0.0
C637 C 0.85501 0.74797 0.36808 0.0
C638 C 0.92278 0.75519 0.39137 0.0
C639 C 0.92516 0.74307 0.42118 0.0
C640 C 0.87981 0.74498 0.38468 0.0
C641 C 0.90473 0.73119 0.43123 0.0
C642 C 0.83611 0.73184 0.37342 0.0
C643 C 0.82685 0.77288 0.33684 0.0
N644 N 0.88284 0.73252 0.41307 0.0
N645 N 0.84986 0.76778 0.34962 0.0
H646 H 0.25775 0.80436 0.33593 0.0
H647 H 0.26776 0.94742 0.3588 0.0
H648 H 0.24089 0.85218 0.25561 0.0
H649 H 0.30227 0.89925 0.42975 0.0
H650 H 0.2622 0.91284 0.31815 0.0
H651 H 0.27887 0.83824 0.36823 0.0
C652 C 0.25899 0.8219 0.32488 0.0
C653 C 0.24738 0.82563 0.29329 0.0
C654 C 0.27142 0.90987 0.34237 0.0
C655 C 0.27103 0.86451 0.33016 0.0
C656 C 0.2745 0.92958 0.36557 0.0
C657 C 0.2852 0.92604 0.3977 0.0
C658 C 0.27866 0.88638 0.35163 0.0
C659 C 0.29389 0.90269 0.4052 0.0
C660 C 0.27105 0.84122 0.34326 0.0
C661 C 0.24962 0.84858 0.27991 0.0
N662 N 0.29001 0.88361 0.38253 0.0
N663 N 0.26077 0.86731 0.29869 0.0
H664 H 0.17122 0.7944 0.69729 0.0
H665 H 0.09251 0.7298 0.54567 0.0
H666 H 0.19802 0.732 0.64239 0.0
H667 H 0.05829 0.76258 0.62866 0.0
H668 H 0.13208 0.73277 0.57869 0.0
H669 H 0.13001 0.78564 0.67087 0.0
C670 C 0.16831 0.77868 0.68003 0.0
C671 C 0.18793 0.76383 0.67205 0.0
C672 C 0.11589 0.73913 0.58977 0.0
C673 C 0.14124 0.75409 0.64131 0.0
C674 C 0.0934 0.73746 0.57096 0.0
C675 C 0.07231 0.74618 0.58448 0.0
C676 C 0.11731 0.75003 0.62207 0.0
C677 C 0.07428 0.75595 0.61734 0.0
C678 C 0.14487 0.77368 0.66504 0.0
C679 C 0.18331 0.74373 0.64943 0.0
N680 N 0.09649 0.75798 0.63492 0.0
N681 N 0.16049 0.73965 0.63446 0.0
H682 H 0.24878 0.20091 0.70315 0.0
H683 H 0.24971 0.05744 0.66586 0.0
H684 H 0.23023 0.14974 0.77463 0.0
H685 H 0.28965 0.10736 0.61152 0.0
H686 H 0.24233 0.09092 0.70616 0.0
H687 H 0.26417 0.16698 0.66925 0.0
C688 C 0.24824 0.18252 0.71183 0.0
C689 C 0.23818 0.17803 0.74158 0.0
C690 C 0.25296 0.09448 0.68565 0.0
C691 C 0.25537 0.13918 0.70288 0.0
C692 C 0.25705 0.07544 0.66259 0.0
C693 C 0.27019 0.07972 0.6353 0.0
C694 C 0.26173 0.11805 0.68103 0.0
C695 C 0.27952 0.10328 0.63233 0.0
C696 C 0.25706 0.1632 0.69258 0.0
C697 C 0.23798 0.15395 0.7519 0.0
N698 N 0.27486 0.12166 0.6547 0.0
N699 N 0.24613 0.13535 0.73233 0.0
H700 H 0.80003 0.28846 0.6814 0.0
H701 H 0.93332 0.23704 0.655 0.0
H702 H 0.82962 0.22295 0.72412 0.0
H703 H 0.90296 0.3008 0.60843 0.0
H704 H 0.8973 0.23446 0.68573 0.0
H705 H 0.8395 0.29651 0.66068 0.0
C706 C 0.81497 0.27603 0.68704 0.0
C707 C 0.81144 0.25489 0.70435 0.0
C708 C 0.89855 0.24913 0.66897 0.0
C709 C 0.85658 0.26375 0.68008 0.0
C710 C 0.91908 0.25054 0.65125 0.0
C711 C 0.92109 0.269 0.62875 0.0
C712 C 0.87972 0.26626 0.66417 0.0
C713 C 0.90227 0.28631 0.62556 0.0
C714 C 0.83745 0.28053 0.67492 0.0
C715 C 0.83141 0.23928 0.71048 0.0
N716 N 0.8823 0.28438 0.64282 0.0
N717 N 0.85301 0.24391 0.69813 0.0
H718 H 0.78054 0.82685 0.72985 0.0
H719 H 0.69636 0.90325 0.60436 0.0
H720 H 0.7141 0.79886 0.67681 0.0
H721 H 0.75523 0.93578 0.66965 0.0
H722 H 0.70003 0.86628 0.63522 0.0
H723 H 0.7695 0.86795 0.71271 0.0
C724 C 0.76346 0.82944 0.71502 0.0
C725 C 0.74833 0.80939 0.70448 0.0
C726 C 0.71196 0.8816 0.64311 0.0
C727 C 0.73567 0.85623 0.68456 0.0
C728 C 0.70976 0.90288 0.62559 0.0
C729 C 0.72569 0.9227 0.6341 0.0
C730 C 0.73043 0.87989 0.66913 0.0
C731 C 0.74294 0.92079 0.66161 0.0
C732 C 0.75713 0.85289 0.70531 0.0
C733 C 0.72627 0.81378 0.68563 0.0
N734 N 0.74507 0.89965 0.67785 0.0
N735 N 0.72078 0.83666 0.67587 0.0
H736 H 0.83186 0.77407 0.72047 0.0
H737 H 0.89635 0.70871 0.57071 0.0
H738 H 0.79799 0.71643 0.6557 0.0
H739 H 0.93213 0.76187 0.64114 0.0
H740 H 0.86152 0.70866 0.60412 0.0
H741 H 0.86992 0.76732 0.69463 0.0
C742 C 0.83255 0.75977 0.70106 0.0
C743 C 0.81167 0.7459 0.69009 0.0
C744 C 0.87708 0.72018 0.61243 0.0
C745 C 0.85517 0.7382 0.66005 0.0
C746 C 0.89708 0.72013 0.59343 0.0
C747 C 0.91722 0.73548 0.60289 0.0
C748 C 0.87709 0.73577 0.6411 0.0
C749 C 0.91686 0.75011 0.63242 0.0
C750 C 0.85429 0.75591 0.6863 0.0
C751 C 0.81366 0.72746 0.66506 0.0
N752 N 0.89708 0.75001 0.65028 0.0
N753 N 0.83492 0.72435 0.65061 0.0
H754 H 0.22977 0.84543 0.69754 0.0
H755 H 0.29848 0.90668 0.55685 0.0
H756 H 0.28438 0.80742 0.645 0.0
H757 H 0.25723 0.94806 0.62573 0.0
H758 H 0.29438 0.87027 0.58917 0.0
H759 H 0.24032 0.88334 0.67244 0.0
C760 C 0.24424 0.84516 0.68106 0.0
C761 C 0.25621 0.82321 0.67338 0.0
C762 C 0.28642 0.88735 0.59744 0.0
C763 C 0.26813 0.86656 0.64394 0.0
C764 C 0.28879 0.9081 0.57902 0.0
C765 C 0.27809 0.9303 0.58864 0.0
C766 C 0.27301 0.88876 0.6255 0.0
C767 C 0.26563 0.93121 0.61745 0.0
C768 C 0.25026 0.86682 0.66669 0.0
C769 C 0.27483 0.82395 0.65185 0.0
N770 N 0.26322 0.91072 0.63465 0.0
N771 N 0.28 0.84517 0.63755 0.0
H772 H 0.19588 0.25178 0.70121 0.0
H773 H 0.05096 0.26432 0.67425 0.0
H774 H 0.14784 0.23676 0.77635 0.0
H775 H 0.09943 0.27873 0.59967 0.0
H776 H 0.08639 0.25956 0.71478 0.0
H777 H 0.16122 0.26726 0.66659 0.0
C778 C 0.17804 0.25202 0.71057 0.0
C779 C 0.17469 0.24271 0.74155 0.0
C780 C 0.08932 0.26409 0.68969 0.0
C781 C 0.13482 0.26026 0.70192 0.0
C782 C 0.06914 0.26685 0.66671 0.0
C783 C 0.07251 0.27181 0.63381 0.0
C784 C 0.11297 0.2662 0.67952 0.0
C785 C 0.09626 0.27487 0.62492 0.0
C786 C 0.15825 0.26087 0.69081 0.0
C787 C 0.15126 0.2438 0.75267 0.0
N788 N 0.11563 0.2718 0.64758 0.0
N789 N 0.13216 0.25209 0.73268 0.0
H790 H 0.71618 0.20531 0.65987 0.0
H791 H 0.74707 0.06198 0.64865 0.0
H792 H 0.77337 0.17263 0.7225 0.0
H793 H 0.71127 0.09963 0.5671 0.0
H794 H 0.75018 0.10085 0.68196 0.0
H795 H 0.7071 0.165 0.63196 0.0
C796 C 0.72644 0.18954 0.66824 0.0
C797 C 0.74555 0.19228 0.69353 0.0
C798 C 0.74151 0.10059 0.65685 0.0
C799 C 0.73542 0.14624 0.6616 0.0
C800 C 0.73974 0.07846 0.63791 0.0
C801 C 0.72914 0.07774 0.60505 0.0
C802 C 0.73224 0.12211 0.64301 0.0
C803 C 0.71966 0.09951 0.59232 0.0
C804 C 0.72142 0.16662 0.6521 0.0
C805 C 0.75853 0.1713 0.70305 0.0
N806 N 0.72146 0.12082 0.61129 0.0
N807 N 0.75328 0.1492 0.68707 0.0
H808 H 0.86069 0.23367 0.30132 0.0
H809 H 0.91642 0.27489 0.48531 0.0
H810 H 0.81723 0.24747 0.38387 0.0
H811 H 0.96023 0.25795 0.40427 0.0
H812 H 0.87951 0.26963 0.4469 0.0
H813 H 0.89688 0.24754 0.33668 0.0
C814 C 0.85867 0.24003 0.32671 0.0
C815 C 0.83589 0.23921 0.33971 0.0
C816 C 0.89717 0.26724 0.43737 0.0
C817 C 0.87736 0.25474 0.38053 0.0
C818 C 0.91814 0.27028 0.45927 0.0
C819 C 0.94115 0.26664 0.44775 0.0
C820 C 0.89931 0.26047 0.40375 0.0
C821 C 0.94267 0.26075 0.41392 0.0
C822 C 0.87939 0.24777 0.34698 0.0
C823 C 0.83447 0.24741 0.37295 0.0
N824 N 0.92199 0.25766 0.39309 0.0
N825 N 0.85492 0.25464 0.39224 0.0
H826 H 0.71294 0.80334 0.381 0.0
H827 H 0.74469 0.94639 0.41137 0.0
H828 H 0.76746 0.84 0.33121 0.0
H829 H 0.70725 0.90548 0.47967 0.0
H830 H 0.74715 0.9091 0.37542 0.0
H831 H 0.70435 0.8422 0.41069 0.0
C832 C 0.72275 0.81967 0.37582 0.0
C833 C 0.74098 0.81842 0.35363 0.0
C834 C 0.73823 0.90829 0.39814 0.0
C835 C 0.7314 0.86288 0.3877 0.0
C836 C 0.7368 0.92954 0.41856 0.0
C837 C 0.7259 0.92887 0.44853 0.0
C838 C 0.72846 0.88622 0.40757 0.0
C839 C 0.71582 0.90667 0.45674 0.0
C840 C 0.71801 0.84178 0.39299 0.0
C841 C 0.75338 0.8401 0.34825 0.0
N842 N 0.7174 0.88619 0.43644 0.0
N843 N 0.74841 0.86138 0.36519 0.0
H844 H 0.16623 0.74087 0.27916 0.0
H845 H 0.08858 0.79331 0.42494 0.0
H846 H 0.16936 0.81532 0.3199 0.0
H847 H 0.07164 0.72369 0.37299 0.0
H848 H 0.1199 0.80006 0.38781 0.0
H849 H 0.13268 0.73273 0.31365 0.0
C850 C 0.1598 0.75549 0.29517 0.0
C851 C 0.17095 0.77868 0.29712 0.0
C852 C 0.10931 0.78331 0.38433 0.0
C853 C 0.13289 0.76951 0.33659 0.0
C854 C 0.09124 0.77948 0.4055 0.0
C855 C 0.07711 0.75802 0.40196 0.0
C856 C 0.11363 0.7655 0.35934 0.0
C857 C 0.08213 0.74047 0.37682 0.0
C858 C 0.14076 0.75083 0.3149 0.0
C859 C 0.16185 0.79698 0.31822 0.0
N860 N 0.09997 0.7446 0.35644 0.0
N861 N 0.14356 0.79196 0.33717 0.0
H862 H 0.27175 0.20045 0.39906 0.0
H863 H 0.26762 0.05406 0.39812 0.0
H864 H 0.24882 0.155 0.31177 0.0
H865 H 0.29256 0.10018 0.48372 0.0
H866 H 0.26412 0.09031 0.36452 0.0
H867 H 0.28342 0.16379 0.42864 0.0
C868 C 0.26953 0.18272 0.38595 0.0
C869 C 0.25918 0.18082 0.35291 0.0
C870 C 0.27061 0.09253 0.39055 0.0
C871 C 0.27221 0.13853 0.38688 0.0
C872 C 0.27262 0.07186 0.40965 0.0
C873 C 0.28036 0.07426 0.44363 0.0
C874 C 0.27628 0.11581 0.4056 0.0
C875 C 0.28656 0.09764 0.45755 0.0
C876 C 0.27614 0.16176 0.40289 0.0
C877 C 0.25685 0.15736 0.33714 0.0
N878 N 0.28424 0.1175 0.43857 0.0
N879 N 0.26301 0.13713 0.35437 0.0
H880 H 0.68355 0.77126 0.80975 0.0
H881 H 0.59232 0.73194 0.94102 0.0
H882 H 0.67706 0.69854 0.84471 0.0
H883 H 0.58194 0.79901 0.88989 0.0
H884 H 0.62645 0.72196 0.90897 0.0
H885 H 0.64857 0.78398 0.84062 0.0
C886 C 0.67477 0.758 0.82377 0.0
C887 C 0.6836 0.73394 0.82523 0.0
C888 C 0.61673 0.73885 0.90453 0.0
C889 C 0.64395 0.74832 0.86054 0.0
C890 C 0.59709 0.74453 0.9228 0.0
C891 C 0.58385 0.76613 0.91774 0.0
C892 C 0.62353 0.75489 0.88094 0.0
C893 C 0.59158 0.78212 0.89455 0.0
C894 C 0.65491 0.76528 0.84143 0.0
C895 C 0.67145 0.71747 0.84363 0.0
N896 N 0.6109 0.77614 0.87685 0.0
N897 N 0.65248 0.725 0.86062 0.0
H898 H 0.26735 0.66342 0.77772 0.0
H899 H 0.21669 0.61411 0.94229 0.0
H900 H 0.24482 0.71081 0.85759 0.0
H901 H 0.25923 0.57002 0.87763 0.0
H902 H 0.21987 0.64842 0.90621 0.0
H903 H 0.25708 0.62778 0.80846 0.0
C904 C 0.2597 0.66632 0.80136 0.0
C905 C 0.25694 0.69011 0.81513 0.0
C906 C 0.22838 0.63119 0.89981 0.0
C907 C 0.24541 0.64947 0.8506 0.0
C908 C 0.22646 0.61154 0.9203 0.0
C909 C 0.23783 0.58915 0.91313 0.0
C910 C 0.24152 0.62843 0.87162 0.0
C911 C 0.25045 0.58702 0.8844 0.0
C912 C 0.25409 0.64599 0.81905 0.0
C913 C 0.24731 0.69278 0.84613 0.0
N914 N 0.25196 0.60637 0.86474 0.0
N915 N 0.24198 0.67276 0.86284 0.0
H916 H 0.32665 0.26879 0.85044 0.0
H917 H 0.413 0.21222 0.99478 0.0
H918 H 0.30108 0.21662 0.91593 0.0
H919 H 0.44076 0.24718 0.91281 0.0
H920 H 0.37184 0.21312 0.96609 0.0
H921 H 0.36862 0.26071 0.87223 0.0
C922 C 0.32995 0.25539 0.86913 0.0
C923 C 0.31041 0.2434 0.8815 0.0
C924 C 0.38693 0.22041 0.9542 0.0
C925 C 0.35831 0.23431 0.90692 0.0
C926 C 0.41034 0.21992 0.97058 0.0
C927 C 0.43005 0.22993 0.9562 0.0
C928 C 0.38325 0.23122 0.92338 0.0
C929 C 0.42586 0.23959 0.92479 0.0
C930 C 0.35388 0.25076 0.88153 0.0
C931 C 0.31565 0.22614 0.9056 0.0
N932 N 0.40286 0.24027 0.90957 0.0
N933 N 0.33908 0.22235 0.91786 0.0
H934 H 0.74132 0.35476 0.80068 0.0
H935 H 0.78766 0.41284 0.98124 0.0
H936 H 0.75808 0.31266 0.88699 0.0
H937 H 0.76395 0.45637 0.89879 0.0
H938 H 0.78287 0.37587 0.94452 0.0
H939 H 0.75546 0.39182 0.8334 0.0
C940 C 0.74843 0.35322 0.82631 0.0
C941 C 0.74837 0.33055 0.84115 0.0
C942 C 0.77902 0.39349 0.93422 0.0
C943 C 0.7643 0.37299 0.8789 0.0
C944 C 0.78195 0.41457 0.95514 0.0
C945 C 0.77643 0.4376 0.94284 0.0
C946 C 0.77028 0.39537 0.90072 0.0
C947 C 0.7686 0.4389 0.90903 0.0
C948 C 0.75631 0.37443 0.84507 0.0
C949 C 0.75751 0.32977 0.87462 0.0
N950 N 0.76559 0.41805 0.88916 0.0
N951 N 0.76492 0.35063 0.89235 0.0
H952 H 0.68203 0.27274 0.22723 0.0
H953 H 0.60048 0.21522 0.07053 0.0
H954 H 0.70933 0.21893 0.15844 0.0
H955 H 0.56947 0.25055 0.15445 0.0
H956 H 0.6407 0.21676 0.10197 0.0
H957 H 0.6407 0.26524 0.20106 0.0
C958 C 0.67923 0.25913 0.20686 0.0
C959 C 0.69909 0.24645 0.19492 0.0
C960 C 0.6251 0.22402 0.11364 0.0
C961 C 0.65198 0.23804 0.16456 0.0
C962 C 0.60223 0.22318 0.0957 0.0
C963 C 0.58186 0.23299 0.10995 0.0
C964 C 0.62761 0.23501 0.14593 0.0
C965 C 0.58489 0.24305 0.14261 0.0
C966 C 0.65567 0.25483 0.19196 0.0
C967 C 0.69449 0.22896 0.16854 0.0
N968 N 0.60742 0.24405 0.15941 0.0
N969 N 0.67146 0.22549 0.15395 0.0
H970 H 0.76773 0.68274 0.22375 0.0
H971 H 0.74796 0.59568 0.0598 0.0
H972 H 0.70096 0.68103 0.15875 0.0
H973 H 0.78491 0.56895 0.1491 0.0
H974 H 0.73859 0.63369 0.09096 0.0
H975 H 0.78159 0.64645 0.1925 0.0
C976 C 0.75596 0.67496 0.20304 0.0
C977 C 0.73318 0.68554 0.19385 0.0
C978 C 0.74915 0.61966 0.10355 0.0
C979 C 0.74944 0.64446 0.15742 0.0
C980 C 0.75461 0.59811 0.08578 0.0
C981 C 0.76763 0.57939 0.10174 0.0
C982 C 0.75698 0.62267 0.13751 0.0
C983 C 0.77543 0.58322 0.13565 0.0
C984 C 0.76401 0.65432 0.18513 0.0
C985 C 0.71901 0.67447 0.16638 0.0
N986 N 0.77005 0.60448 0.15245 0.0
N987 N 0.72745 0.65481 0.1491 0.0
H988 H 0.28347 0.79617 0.12912 0.0
H989 H 0.42658 0.76789 0.1395 0.0
H990 H 0.31896 0.74218 0.19053 0.0
H991 H 0.39015 0.81293 0.06601 0.0
H992 H 0.38837 0.76411 0.16511 0.0
H993 H 0.32336 0.8083 0.11259 0.0
C994 C 0.2997 0.78717 0.13958 0.0
C995 C 0.2979 0.76799 0.16101 0.0
C996 C 0.38875 0.77501 0.14356 0.0
C997 C 0.3435 0.78161 0.14204 0.0
C998 C 0.41057 0.77714 0.12886 0.0
C999 C 0.41154 0.79046 0.10023 0.0
C1000 C 0.36759 0.78625 0.12958 0.0
C1001 C 0.3903 0.80251 0.08806 0.0
C1002 C 0.32242 0.79398 0.12997 0.0
C1003 C 0.31949 0.75682 0.17359 0.0
N1004 N 0.36914 0.7999 0.10257 0.0
N1005 N 0.34133 0.76368 0.16377 0.0
H1006 H 0.28675 0.33451 0.23504 0.0
H1007 H 0.21139 0.39581 0.08273 0.0
H1008 H 0.22569 0.29899 0.17807 0.0
H1009 H 0.26694 0.43363 0.14801 0.0
H1010 H 0.21457 0.36115 0.11878 0.0
H1011 H 0.27793 0.37182 0.20548 0.0
C1012 C 0.27122 0.33471 0.21664 0.0
C1013 C 0.25696 0.31357 0.209 0.0
C1014 C 0.22595 0.37711 0.12532 0.0
C1015 C 0.24695 0.35623 0.17444 0.0
C1016 C 0.22407 0.39702 0.10479 0.0
C1017 C 0.23905 0.41778 0.11203 0.0
C1018 C 0.24298 0.37779 0.15337 0.0
C1019 C 0.25535 0.41794 0.14086 0.0
C1020 C 0.26622 0.35601 0.19966 0.0
C1021 C 0.23703 0.31491 0.18494 0.0
N1022 N 0.25696 0.39828 0.16025 0.0
N1023 N 0.23281 0.33575 0.16823 0.0
H1024 H 0.30823 0.21647 0.19296 0.0
H1025 H 0.44392 0.26065 0.16908 0.0
H1026 H 0.34099 0.28241 0.24003 0.0
H1027 H 0.40526 0.20455 0.10641 0.0
H1028 H 0.4092 0.26409 0.20258 0.0
H1029 H 0.34673 0.20675 0.16935 0.0
C1030 C 0.32371 0.2286 0.19899 0.0
C1031 C 0.32138 0.25036 0.21835 0.0
C1032 C 0.40841 0.25089 0.18165 0.0
C1033 C 0.36534 0.23956 0.19097 0.0
C1034 C 0.42819 0.249 0.16234 0.0
C1035 C 0.4275 0.2325 0.13449 0.0
C1036 C 0.38771 0.23613 0.17324 0.0
C1037 C 0.40678 0.21744 0.12767 0.0
C1038 C 0.3456 0.22317 0.18522 0.0
C1039 C 0.34194 0.26558 0.22496 0.0
N1040 N 0.38768 0.21975 0.14673 0.0
N1041 N 0.36299 0.25999 0.2111 0.0
H1042 H 0.7973 0.30055 0.19175 0.0
H1043 H 0.74616 0.43492 0.16634 0.0
H1044 H 0.73223 0.32774 0.23302 0.0
H1045 H 0.80862 0.40461 0.12202 0.0
H1046 H 0.74532 0.39915 0.20047 0.0
H1047 H 0.80645 0.34167 0.1765 0.0
C1048 C 0.78518 0.31524 0.19835 0.0
C1049 C 0.76375 0.31052 0.21334 0.0
C1050 C 0.75944 0.40053 0.18365 0.0
C1051 C 0.7738 0.35776 0.19485 0.0
C1052 C 0.75998 0.42097 0.16433 0.0
C1053 C 0.77723 0.42242 0.14101 0.0
C1054 C 0.77632 0.38157 0.17956 0.0
C1055 C 0.79472 0.40389 0.13927 0.0
C1056 C 0.79032 0.33876 0.18929 0.0
C1057 C 0.74864 0.3304 0.22078 0.0
N1058 N 0.79366 0.38413 0.15799 0.0
N1059 N 0.75376 0.3531 0.21099 0.0
H1060 H 0.65139 0.75287 0.23505 0.0
H1061 H 0.59303 0.79005 0.05664 0.0
H1062 H 0.69337 0.76185 0.15132 0.0
H1063 H 0.5511 0.77591 0.13854 0.0
H1064 H 0.63069 0.7859 0.09323 0.0
H1065 H 0.61547 0.76801 0.20285 0.0
C1066 C 0.65322 0.75856 0.21014 0.0
C1067 C 0.67544 0.75588 0.1958 0.0
C1068 C 0.61328 0.78395 0.10335 0.0
C1069 C 0.6341 0.7727 0.15842 0.0
C1070 C 0.59189 0.78635 0.08251 0.0
C1071 C 0.5692 0.78314 0.09479 0.0
C1072 C 0.61185 0.77824 0.13663 0.0
C1073 C 0.5684 0.77838 0.12834 0.0
C1074 C 0.6326 0.76698 0.19162 0.0
C1075 C 0.67653 0.76322 0.16319 0.0
N1076 N 0.58946 0.77589 0.14808 0.0
N1077 N 0.6561 0.77105 0.14549 0.0
H1078 H 0.20925 0.70316 0.12675 0.0
H1079 H 0.25527 0.5651 0.13814 0.0
H1080 H 0.27277 0.68365 0.18998 0.0
H1081 H 0.21705 0.59296 0.05043 0.0
H1082 H 0.25504 0.60642 0.16518 0.0
H1083 H 0.20452 0.66027 0.10686 0.0
C1084 C 0.2219 0.68974 0.13693 0.0
C1085 C 0.24148 0.69688 0.15992 0.0
C1086 C 0.24663 0.6034 0.14008 0.0
C1087 C 0.23627 0.648 0.13719 0.0
C1088 C 0.24682 0.57997 0.12471 0.0
C1089 C 0.23655 0.57593 0.09194 0.0
C1090 C 0.23556 0.62264 0.12272 0.0
C1091 C 0.22533 0.59552 0.07566 0.0
C1092 C 0.21932 0.66536 0.12537 0.0
C1093 C 0.25755 0.67883 0.17203 0.0
N1094 N 0.22514 0.61807 0.09122 0.0
N1095 N 0.25464 0.65516 0.16045 0.0
H1096 H 0.29941 0.76282 0.87049 0.0
H1097 H 0.44388 0.78332 0.88007 0.0
H1098 H 0.34151 0.75594 0.7855 0.0
H1099 H 0.40304 0.78191 0.96587 0.0
H1100 H 0.40558 0.77981 0.84405 0.0
H1101 H 0.33611 0.77661 0.9048 0.0
C1102 C 0.3163 0.7645 0.85896 0.0
C1103 C 0.3174 0.75797 0.82512 0.0
C1104 C 0.40493 0.78053 0.87075 0.0
C1105 C 0.35952 0.77369 0.86426 0.0
C1106 C 0.42672 0.78258 0.89117 0.0
C1107 C 0.42633 0.78286 0.9257 0.0
C1108 C 0.38271 0.77867 0.88512 0.0
C1109 C 0.40386 0.78174 0.93922 0.0
C1110 C 0.33725 0.77238 0.87855 0.0
C1111 C 0.33972 0.7609 0.8114 0.0
N1112 N 0.3829 0.77954 0.91887 0.0
N1113 N 0.35993 0.76827 0.83109 0.0
H1114 H 0.27546 0.32373 0.84623 0.0
H1115 H 0.21827 0.41448 0.97644 0.0
H1116 H 0.21943 0.30157 0.9066 0.0
H1117 H 0.25257 0.44038 0.89313 0.0
H1118 H 0.21895 0.37274 0.95159 0.0
H1119 H 0.26802 0.36656 0.86304 0.0
C1120 C 0.26141 0.32796 0.86272 0.0
C1121 C 0.24808 0.30917 0.87516 0.0
C1122 C 0.22616 0.38755 0.93857 0.0
C1123 C 0.2397 0.35787 0.89476 0.0
C1124 C 0.2258 0.41126 0.95276 0.0
C1125 C 0.23572 0.43059 0.93692 0.0
C1126 C 0.23679 0.38316 0.90854 0.0
C1127 C 0.24514 0.42574 0.90623 0.0
C1128 C 0.25712 0.35234 0.87221 0.0
C1129 C 0.22999 0.31554 0.8963 0.0
N1130 N 0.24577 0.40238 0.89319 0.0
N1131 N 0.22655 0.33935 0.90581 0.0
H1132 H 0.65826 0.26961 0.79701 0.0
H1133 H 0.61396 0.21868 0.96395 0.0
H1134 H 0.7072 0.25768 0.88389 0.0
H1135 H 0.56629 0.25499 0.89173 0.0
H1136 H 0.64803 0.22488 0.93006 0.0
H1137 H 0.62416 0.25601 0.82661 0.0
C1138 C 0.66189 0.26367 0.82209 0.0
C1139 C 0.68558 0.26481 0.83806 0.0
C1140 C 0.63007 0.23131 0.92154 0.0
C1141 C 0.64665 0.24943 0.87212 0.0
C1142 C 0.61061 0.22765 0.94073 0.0
C1143 C 0.5873 0.23644 0.93069 0.0
C1144 C 0.62612 0.24355 0.89186 0.0
C1145 C 0.58403 0.24816 0.90054 0.0
C1146 C 0.6424 0.25613 0.83906 0.0
C1147 C 0.68918 0.25722 0.87077 0.0
N1148 N 0.60321 0.25138 0.8822 0.0
N1149 N 0.66993 0.2499 0.88675 0.0
H1150 H 0.74342 0.65053 0.786 0.0
H1151 H 0.79779 0.60474 0.96192 0.0
H1152 H 0.76626 0.69955 0.86975 0.0
H1153 H 0.75024 0.56124 0.89165 0.0
H1154 H 0.7961 0.63773 0.923 0.0
H1155 H 0.75656 0.61576 0.81895 0.0
C1156 C 0.75192 0.65398 0.81099 0.0
C1157 C 0.7537 0.67785 0.82533 0.0
C1158 C 0.78624 0.62086 0.91601 0.0
C1159 C 0.76832 0.63833 0.86316 0.0
C1160 C 0.78724 0.60205 0.93811 0.0
C1161 C 0.77395 0.58038 0.93002 0.0
C1162 C 0.77209 0.61782 0.88548 0.0
C1163 C 0.76046 0.57783 0.89897 0.0
C1164 C 0.75913 0.63416 0.82986 0.0
C1165 C 0.76449 0.68135 0.85795 0.0
N1166 N 0.75983 0.59637 0.87781 0.0
N1167 N 0.77121 0.66177 0.87592 0.0
loop_
_geom_bond_atom_site_label_1
_geom_bond_atom_site_label_2
_geom_bond_distance
_geom_bond_site_symmetry_2
_ccdc_geom_bond_type
H0 C8 0.930 . S
H1 C11 0.930 . S
H2 C13 0.930 . S
H3 C14 0.970 . S
H4 C14 0.970 . S
H5 C16 0.930 . S
H6 C18 0.930 . S
H7 C20 0.930 . S
C8 H0 0.930 . S
C8 C9 1.382 . S
C8 C10 1.426 . S
C9 C8 1.382 . S
C9 C13 1.389 . S
C10 C8 1.426 . S
C10 C11 1.375 . S
C10 C14 1.532 . S
C11 H1 0.930 . S
C11 C10 1.375 . S
C11 C12 1.416 . S
C12 C11 1.416 . S
C12 C13 1.371 . S
C13 H2 0.930 . S
C13 C9 1.389 . S
C13 C12 1.371 . S
C14 H3 0.970 . S
C14 H4 0.970 . S
C14 C10 1.532 . S
C14 C15 1.499 . S
C15 C14 1.499 . S
C15 C16 1.370 . S
C15 C20 1.415 . S
C16 H5 0.930 . S
C16 C15 1.370 . S
C16 C17 1.407 . S
C17 C16 1.407 . S
C17 C18 1.365 . S
C18 H6 0.930 . S
C18 C17 1.365 . S
C18 C19 1.393 . S
C19 C18 1.393 . S
C19 C20 1.387 . S
C20 H7 0.930 . S
C20 C15 1.415 . S
C20 C19 1.387 . S
H21 C29 0.930 . S
H22 C32 0.930 . S
H23 C34 0.930 . S
H24 C35 0.970 . S
H25 C35 0.970 . S
H26 C37 0.930 . S
H27 C39 0.930 . S
H28 C41 0.930 . S
C29 H21 0.930 . S
C29 C30 1.382 . S
C29 C31 1.426 . S
C30 C29 1.382 . S
C30 C34 1.389 . S
C31 C29 1.426 . S
C31 C32 1.375 . S
C31 C35 1.532 . S
C32 H22 0.930 . S
C32 C31 1.375 . S
C32 C33 1.416 . S
C33 C32 1.416 . S
C33 C34 1.371 . S
C34 H23 0.930 . S
C34 C30 1.389 . S
C34 C33 1.371 . S
C35 H24 0.970 . S
C35 H25 0.970 . S
C35 C31 1.532 . S
C35 C36 1.499 . S
C36 C35 1.499 . S
C36 C37 1.370 . S
C36 C41 1.415 . S
C37 H26 0.930 . S
C37 C36 1.370 . S
C37 C38 1.407 . S
C38 C37 1.407 . S
C38 C39 1.365 . S
C39 H27 0.930 . S
C39 C38 1.365 . S
C39 C40 1.393 . S
C40 C39 1.393 . S
C40 C41 1.387 . S
C41 H28 0.930 . S
C41 C36 1.415 . S
C41 C40 1.387 . S
H42 C50 0.930 . S
H43 C53 0.930 . S
H44 C55 0.930 . S
H45 C56 0.970 . S
H46 C56 0.970 . S
H47 C58 0.930 . S
H48 C60 0.930 . S
H49 C62 0.930 . S
C50 H42 0.930 . S
C50 C51 1.382 . S
C50 C52 1.426 . S
C51 C50 1.382 . S
C51 C55 1.389 . S
C52 C50 1.426 . S
C52 C53 1.375 . S
C52 C56 1.532 . S
C53 H43 0.930 . S
C53 C52 1.375 . S
C53 C54 1.416 . S
C54 C53 1.416 . S
C54 C55 1.371 . S
C55 H44 0.930 . S
C55 C51 1.389 . S
C55 C54 1.371 . S
C56 H45 0.970 . S
C56 H46 0.970 . S
C56 C52 1.532 . S
C56 C57 1.499 . S
C57 C56 1.499 . S
C57 C58 1.370 . S
C57 C62 1.415 . S
C58 H47 0.930 . S
C58 C57 1.370 . S
C58 C59 1.407 . S
C59 C58 1.407 . S
C59 C60 1.365 . S
C60 H48 0.930 . S
C60 C59 1.365 . S
C60 C61 1.393 . S
C61 C60 1.393 . S
C61 C62 1.387 . S
C62 H49 0.930 . S
C62 C57 1.415 . S
C62 C61 1.387 . S
H63 C71 0.930 . S
H64 C74 0.930 . S
H65 C76 0.930 . S
H66 C77 0.970 . S
H67 C77 0.970 . S
H68 C79 0.930 . S
H69 C81 0.930 . S
H70 C83 0.930 . S
C71 H63 0.930 . S
C71 C72 1.382 . S
C71 C73 1.426 . S
C72 C71 1.382 . S
C72 C76 1.389 . S
C73 C71 1.426 . S
C73 C74 1.375 . S
C73 C77 1.532 . S
C74 H64 0.930 . S
C74 C73 1.375 . S
C74 C75 1.416 . S
C75 C74 1.416 . S
C75 C76 1.371 . S
C76 H65 0.930 . S
C76 C72 1.389 . S
C76 C75 1.371 . S
C77 H66 0.970 . S
C77 H67 0.970 . S
C77 C73 1.532 . S
C77 C78 1.499 . S
C78 C77 1.499 . S
C78 C79 1.370 . S
C78 C83 1.415 . S
C79 H68 0.930 . S
C79 C78 1.370 . S
C79 C80 1.407 . S
C80 C79 1.407 . S
C80 C81 1.365 . S
C81 H69 0.930 . S
C81 C80 1.365 . S
C81 C82 1.393 . S
C82 C81 1.393 . S
C82 C83 1.387 . S
C83 H70 0.930 . S
C83 C78 1.415 . S
C83 C82 1.387 . S
H84 C92 0.930 . S
H85 C95 0.930 . S
H86 C97 0.930 . S
H87 C98 0.970 . S
H88 C98 0.970 . S
H89 C100 0.930 . S
H90 C102 0.930 . S
H91 C104 0.930 . S
C92 H84 0.930 . S
C92 C93 1.382 . S
C92 C94 1.426 . S
C93 C92 1.382 . S
C93 C97 1.389 . S
C94 C92 1.426 . S
C94 C95 1.375 . S
C94 C98 1.532 . S
C95 H85 0.930 . S
C95 C94 1.375 . S
C95 C96 1.416 . S
C96 C95 1.416 . S
C96 C97 1.371 . S
C97 H86 0.930 . S
C97 C93 1.389 . S
C97 C96 1.371 . S
C98 H87 0.970 . S
C98 H88 0.970 . S
C98 C94 1.532 . S
C98 C99 1.499 . S
C99 C98 1.499 . S
C99 C100 1.370 . S
C99 C104 1.415 . S
C100 H89 0.930 . S
C100 C99 1.370 . S
C100 C101 1.407 . S
C101 C100 1.407 . S
C101 C102 1.365 . S
C102 H90 0.930 . S
C102 C101 1.365 . S
C102 C103 1.393 . S
C103 C102 1.393 . S
C103 C104 1.387 . S
C104 H91 0.930 . S
C104 C99 1.415 . S
C104 C103 1.387 . S
H105 C113 0.930 . S
H106 C116 0.930 . S
H107 C118 0.930 . S
H108 C119 0.970 . S
H109 C119 0.970 . S
H110 C121 0.930 . S
H111 C123 0.930 . S
H112 C125 0.930 . S
C113 H105 0.930 . S
C113 C114 1.382 . S
C113 C115 1.426 . S
C114 C113 1.382 . S
C114 C118 1.389 . S
C115 C113 1.426 . S
C115 C116 1.375 . S
C115 C119 1.532 . S
C116 H106 0.930 . S
C116 C115 1.375 . S
C116 C117 1.416 . S
C117 C116 1.416 . S
C117 C118 1.371 . S
C118 H107 0.930 . S
C118 C114 1.389 . S
C118 C117 1.371 . S
C119 H108 0.970 . S
C119 H109 0.970 . S
C119 C115 1.532 . S
C119 C120 1.499 . S
C120 C119 1.499 . S
C120 C121 1.370 . S
C120 C125 1.415 . S
C121 H110 0.930 . S
C121 C120 1.370 . S
C121 C122 1.407 . S
C122 C121 1.407 . S
C122 C123 1.365 . S
C123 H111 0.930 . S
C123 C122 1.365 . S
C123 C124 1.393 . S
C124 C123 1.393 . S
C124 C125 1.387 . S
C125 H112 0.930 . S
C125 C120 1.415 . S
C125 C124 1.387 . S
H126 C134 0.930 . S
H127 C137 0.930 . S
H128 C139 0.930 . S
H129 C140 0.970 . S
H130 C140 0.970 . S
H131 C142 0.930 . S
H132 C144 0.930 . S
H133 C146 0.930 . S
C134 H126 0.930 . S
C134 C135 1.382 . S
C134 C136 1.426 . S
C135 C134 1.382 . S
C135 C139 1.389 . S
C136 C134 1.426 . S
C136 C137 1.375 . S
C136 C140 1.532 . S
C137 H127 0.930 . S
C137 C136 1.375 . S
C137 C138 1.416 . S
C138 C137 1.416 . S
C138 C139 1.371 . S
C139 H128 0.930 . S
C139 C135 1.389 . S
C139 C138 1.371 . S
C140 H129 0.970 . S
C140 H130 0.970 . S
C140 C136 1.532 . S
C140 C141 1.499 . S
C141 C140 1.499 . S
C141 C142 1.370 . S
C141 C146 1.415 . S
C142 H131 0.930 . S
C142 C141 1.370 . S
C142 C143 1.407 . S
C143 C142 1.407 . S
C143 C144 1.365 . S
C144 H132 0.930 . S
C144 C143 1.365 . S
C144 C145 1.393 . S
C145 C144 1.393 . S
C145 C146 1.387 . S
C146 H133 0.930 . S
C146 C141 1.415 . S
C146 C145 1.387 . S
H147 C155 0.930 . S
H148 C158 0.930 . S
H149 C160 0.930 . S
H150 C161 0.970 . S
H151 C161 0.970 . S
H152 C163 0.930 . S
H153 C165 0.930 . S
H154 C167 0.930 . S
C155 H147 0.930 . S
C155 C156 1.382 . S
C155 C157 1.426 . S
C156 C155 1.382 . S
C156 C160 1.389 . S
C157 C155 1.426 . S
C157 C158 1.375 . S
C157 C161 1.532 . S
C158 H148 0.930 . S
C158 C157 1.375 . S
C158 C159 1.416 . S
C159 C158 1.416 . S
C159 C160 1.371 . S
C160 H149 0.930 . S
C160 C156 1.389 . S
C160 C159 1.371 . S
C161 H150 0.970 . S
C161 H151 0.970 . S
C161 C157 1.532 . S
C161 C162 1.499 . S
C162 C161 1.499 . S
C162 C163 1.370 . S
C162 C167 1.415 . S
C163 H152 0.930 . S
C163 C162 1.370 . S
C163 C164 1.407 . S
C164 C163 1.407 . S
C164 C165 1.365 . S
C165 H153 0.930 . S
C165 C164 1.365 . S
C165 C166 1.393 . S
C166 C165 1.393 . S
C166 C167 1.387 . S
C167 H154 0.930 . S
C167 C162 1.415 . S
C167 C166 1.387 . S
C168 C169 1.443 . S
C168 N172 1.376 . S
C168 C206 1.389 . S
C169 C168 1.443 . S
C169 C170 1.340 . S
C169 H209 0.951 . S
C170 C169 1.340 . S
C170 C171 1.439 . S
C170 H210 0.950 . S
C171 C170 1.439 . S
C171 N172 1.374 . S
C171 C205 1.395 . S
N172 C168 1.376 . S
N172 C171 1.374 . S
N172 Co173 2.008 . S
Co173 N172 2.008 . S
Co173 N174 1.995 1_455 S
Co173 N179 2.008 1_455 S
Co173 N184 1.995 . S
Co173 N189 2.282 1_455 S
Co173 N195 2.282 . S
N174 Co173 1.995 1_655 S
N174 C175 1.376 . S
N174 C178 1.383 . S
C175 N174 1.376 . S
C175 C176 1.446 . S
C175 C205 1.391 1_655 S
C176 C175 1.446 . S
C176 C177 1.339 . S
C176 H211 0.949 . S
C177 C176 1.339 . S
C177 C178 1.439 . S
C177 H212 0.950 . S
C178 N174 1.383 . S
C178 C177 1.439 . S
C178 C207 1.392 . S
N179 Co173 2.008 1_655 S
N179 C180 1.376 . S
N179 C183 1.374 . S
C180 N179 1.376 . S
C180 C181 1.443 . S
C180 C207 1.389 . S
C181 C180 1.443 . S
C181 C182 1.340 . S
C181 H213 0.951 . S
C182 C181 1.340 . S
C182 C183 1.439 . S
C182 H214 0.950 . S
C183 N179 1.374 . S
C183 C182 1.439 . S
C183 C208 1.410 . S
N184 Co173 1.995 . S
N184 C185 1.376 . S
N184 C188 1.383 . S
C185 N184 1.376 . S
C185 C186 1.446 . S
C185 C208 1.375 1_455 S
C186 C185 1.446 . S
C186 C187 1.339 . S
C186 H215 0.949 . S
C187 C186 1.339 . S
C187 C188 1.439 . S
C187 H216 0.950 . S
C188 N184 1.383 . S
C188 C187 1.439 . S
C188 C206 1.392 . S
N189 Co173 2.282 1_655 S
N189 C192 1.332 . S
N189 C194 1.332 . S
C190 C191 1.386 . S
C190 C193 1.388 . S
C191 C190 1.386 . S
C191 C192 1.382 . S
C191 H217 0.950 . S
C192 N189 1.332 . S
C192 C191 1.382 . S
C192 H203 0.952 . S
C193 C190 1.388 . S
C193 C194 1.382 . S
C193 H218 0.950 . S
C194 N189 1.332 . S
C194 C193 1.382 . S
C194 H204 0.948 . S
N195 Co173 2.282 . S
N195 C199 1.332 . S
N195 C200 1.332 . S
C196 C197 1.388 . S
C196 C200 1.382 . S
C196 H219 0.950 . S
C197 C196 1.388 . S
C197 C198 1.386 . S
C198 C197 1.386 . S
C198 C199 1.382 . S
C198 H220 0.950 . S
C199 N195 1.332 . S
C199 C198 1.382 . S
C199 H201 0.952 . S
C200 N195 1.332 . S
C200 C196 1.382 . S
C200 H202 0.948 . S
H201 C199 0.952 . S
H202 C200 0.948 . S
H203 C192 0.952 . S
H204 C194 0.948 . S
C205 C171 1.395 . S
C205 C175 1.391 1_455 S
C206 C168 1.389 . S
C206 C188 1.392 . S
C207 C178 1.392 . S
C207 C180 1.389 . S
C208 C183 1.410 . S
C208 C185 1.375 1_655 S
H209 C169 0.951 . S
H210 C170 0.950 . S
H211 C176 0.949 . S
H212 C177 0.950 . S
H213 C181 0.951 . S
H214 C182 0.950 . S
H215 C186 0.949 . S
H216 C187 0.950 . S
H217 C191 0.950 . S
H218 C193 0.950 . S
H219 C196 0.950 . S
H220 C198 0.950 . S
C221 C222 1.443 . S
C221 N225 1.376 . S
C221 C259 1.389 . S
C222 C221 1.443 . S
C222 C223 1.340 . S
C222 H262 0.951 . S
C223 C222 1.340 . S
C223 C224 1.439 . S
C223 H263 0.950 . S
C224 C223 1.439 . S
C224 N225 1.374 . S
C224 C258 1.395 . S
N225 C221 1.376 . S
N225 C224 1.374 . S
N225 Co226 2.008 . S
Co226 N225 2.008 . S
Co226 N227 1.995 1_545 S
Co226 N232 2.008 1_545 S
Co226 N237 1.995 . S
Co226 N242 2.282 1_545 S
Co226 N248 2.282 . S
N227 Co226 1.995 1_565 S
N227 C228 1.376 . S
N227 C231 1.383 . S
C228 N227 1.376 . S
C228 C229 1.446 . S
C228 C258 1.391 1_565 S
C229 C228 1.446 . S
C229 C230 1.339 . S
C229 H264 0.949 . S
C230 C229 1.339 . S
C230 C231 1.439 . S
C230 H265 0.950 . S
C231 N227 1.383 . S
C231 C230 1.439 . S
C231 C260 1.392 . S
N232 Co226 2.008 1_565 S
N232 C233 1.376 . S
N232 C236 1.374 . S
C233 N232 1.376 . S
C233 C234 1.443 . S
C233 C260 1.389 . S
C234 C233 1.443 . S
C234 C235 1.340 . S
C234 H266 0.951 . S
C235 C234 1.340 . S
C235 C236 1.439 . S
C235 H267 0.950 . S
C236 N232 1.374 . S
C236 C235 1.439 . S
C236 C261 1.395 1_565 S
N237 Co226 1.995 . S
N237 C238 1.376 . S
N237 C241 1.383 . S
C238 N237 1.376 . S
C238 C239 1.446 . S
C238 C261 1.391 . S
C239 C238 1.446 . S
C239 C240 1.339 . S
C239 H268 0.949 . S
C240 C239 1.339 . S
C240 C241 1.439 . S
C240 H269 0.950 . S
C241 N237 1.383 . S
C241 C240 1.439 . S
C241 C259 1.392 . S
N242 Co226 2.282 1_565 S
N242 C245 1.332 . S
N242 C247 1.332 . S
C243 C244 1.386 . S
C243 C246 1.388 . S
C244 C243 1.386 . S
C244 C245 1.382 . S
C244 H270 0.950 . S
C245 N242 1.332 . S
C245 C244 1.382 . S
C245 H256 0.952 . S
C246 C243 1.388 . S
C246 C247 1.382 . S
C246 H271 0.950 . S
C247 N242 1.332 . S
C247 C246 1.382 . S
C247 H257 0.948 . S
N248 Co226 2.282 . S
N248 C252 1.332 . S
N248 C253 1.332 . S
C249 C250 1.388 . S
C249 C253 1.382 . S
C249 H272 0.950 . S
C250 C249 1.388 . S
C250 C251 1.386 . S
C251 C250 1.386 . S
C251 C252 1.382 . S
C251 H273 0.950 . S
C252 N248 1.332 . S
C252 C251 1.382 . S
C252 H254 0.952 . S
C253 N248 1.332 . S
C253 C249 1.382 . S
C253 H255 0.948 . S
H254 C252 0.952 . S
H255 C253 0.948 . S
H256 C245 0.952 . S
H257 C247 0.948 . S
C258 C224 1.395 . S
C258 C228 1.391 1_545 S
C259 C221 1.389 . S
C259 C241 1.392 . S
C260 C231 1.392 . S
C260 C233 1.389 . S
C261 C236 1.395 1_545 S
C261 C238 1.391 . S
H262 C222 0.951 . S
H263 C223 0.950 . S
H264 C229 0.949 . S
H265 C230 0.950 . S
H266 C234 0.951 . S
H267 C235 0.950 . S
H268 C239 0.949 . S
H269 C240 0.950 . S
H270 C244 0.950 . S
H271 C246 0.950 . S
H272 C249 0.950 . S
H273 C251 0.950 . S
C274 C275 1.443 . S
C274 N278 1.376 . S
C274 C312 1.389 . S
C275 C274 1.443 . S
C275 C276 1.340 . S
C275 H315 0.951 . S
C276 C275 1.340 . S
C276 C277 1.439 . S
C276 H316 0.950 . S
C277 C276 1.439 . S
C277 N278 1.374 . S
C277 C311 1.395 . S
N278 C274 1.376 . S
N278 C277 1.374 . S
N278 Co279 2.022 . S
Co279 N278 2.022 . S
Co279 N280 1.983 1_455 S
Co279 N285 1.995 1_455 S
Co279 N290 2.006 . S
Co279 N295 2.265 1_455 S
Co279 N301 2.300 . S
N280 Co279 1.983 1_655 S
N280 C281 1.376 . S
N280 C284 1.383 . S
C281 N280 1.376 . S
C281 C282 1.446 . S
C281 C311 1.391 1_655 S
C282 C281 1.446 . S
C282 C283 1.339 . S
C282 H317 0.949 . S
C283 C282 1.339 . S
C283 C284 1.439 . S
C283 H318 0.950 . S
C284 N280 1.383 . S
C284 C283 1.439 . S
C284 C313 1.392 . S
N285 Co279 1.995 1_655 S
N285 C286 1.376 . S
N285 C289 1.374 . S
C286 N285 1.376 . S
C286 C287 1.443 . S
C286 C313 1.389 . S
C287 C286 1.443 . S
C287 C288 1.340 . S
C287 H319 0.951 . S
C288 C287 1.340 . S
C288 C289 1.439 . S
C288 H320 0.950 . S
C289 N285 1.374 . S
C289 C288 1.439 . S
C289 C314 1.395 . S
N290 Co279 2.006 . S
N290 C291 1.376 . S
N290 C294 1.383 . S
C291 N290 1.376 . S
C291 C292 1.446 . S
C291 C314 1.391 1_455 S
C292 C291 1.446 . S
C292 C293 1.339 . S
C292 H321 0.949 . S
C293 C292 1.339 . S
C293 C294 1.439 . S
C293 H322 0.950 . S
C294 N290 1.383 . S
C294 C293 1.439 . S
C294 C312 1.392 . S
N295 Co279 2.265 1_655 S
N295 C298 1.332 . S
N295 C300 1.332 . S
C296 C297 1.386 . S
C296 C299 1.388 . S
C297 C296 1.386 . S
C297 C298 1.382 . S
C297 H323 0.950 . S
C298 N295 1.332 . S
C298 C297 1.382 . S
C298 H309 0.952 . S
C299 C296 1.388 . S
C299 C300 1.382 . S
C299 H324 0.950 . S
C300 N295 1.332 . S
C300 C299 1.382 . S
C300 H310 0.948 . S
N301 Co279 2.300 . S
N301 C305 1.332 . S
N301 C306 1.332 . S
C302 C303 1.388 . S
C302 C306 1.382 . S
C302 H325 0.950 . S
C303 C302 1.388 . S
C303 C304 1.386 . S
C304 C303 1.386 . S
C304 C305 1.382 . S
C304 H326 0.950 . S
C305 N301 1.332 . S
C305 C304 1.382 . S
C305 H307 0.952 . S
C306 N301 1.332 . S
C306 C302 1.382 . S
C306 H308 0.948 . S
H307 C305 0.952 . S
H308 C306 0.948 . S
H309 C298 0.952 . S
H310 C300 0.948 . S
C311 C277 1.395 . S
C311 C281 1.391 1_455 S
C312 C274 1.389 . S
C312 C294 1.392 . S
C313 C284 1.392 . S
C313 C286 1.389 . S
C314 C289 1.395 . S
C314 C291 1.391 1_655 S
H315 C275 0.951 . S
H316 C276 0.950 . S
H317 C282 0.949 . S
H318 C283 0.950 . S
H319 C287 0.951 . S
H320 C288 0.950 . S
H321 C292 0.949 . S
H322 C293 0.950 . S
H323 C297 0.950 . S
H324 C299 0.950 . S
H325 C302 0.950 . S
H326 C304 0.950 . S
C327 C328 1.443 . S
C327 N331 1.376 . S
C327 C365 1.389 . S
C328 C327 1.443 . S
C328 C329 1.340 . S
C328 H368 0.951 . S
C329 C328 1.340 . S
C329 C330 1.439 . S
C329 H369 0.950 . S
C330 C329 1.439 . S
C330 N331 1.374 . S
C330 C364 1.418 . S
N331 C327 1.376 . S
N331 C330 1.374 . S
N331 Co332 2.008 1_565 S
Co332 N331 2.008 1_545 S
Co332 N333 1.995 . S
Co332 N338 2.008 . S
Co332 N343 1.995 1_545 S
Co332 N348 2.282 . S
Co332 N354 2.282 1_545 S
N333 Co332 1.995 . S
N333 C334 1.376 . S
N333 C337 1.383 . S
C334 N333 1.376 . S
C334 C335 1.446 . S
C334 C364 1.367 1_545 S
C335 C334 1.446 . S
C335 C336 1.339 . S
C335 H370 0.949 . S
C336 C335 1.339 . S
C336 C337 1.439 . S
C336 H371 0.950 . S
C337 N333 1.383 . S
C337 C336 1.439 . S
C337 C366 1.392 . S
N338 Co332 2.008 . S
N338 C339 1.376 . S
N338 C342 1.374 . S
C339 N338 1.376 . S
C339 C340 1.443 . S
C339 C366 1.389 . S
C340 C339 1.443 . S
C340 C341 1.340 . S
C340 H372 0.951 . S
C341 C340 1.340 . S
C341 C342 1.439 . S
C341 H373 0.950 . S
C342 N338 1.374 . S
C342 C341 1.439 . S
C342 C367 1.395 . S
N343 Co332 1.995 1_565 S
N343 C344 1.376 . S
N343 C347 1.383 . S
C344 N343 1.376 . S
C344 C345 1.446 . S
C344 C367 1.391 1_565 S
C345 C344 1.446 . S
C345 C346 1.339 . S
C345 H374 0.949 . S
C346 C345 1.339 . S
C346 C347 1.439 . S
C346 H375 0.950 . S
C347 N343 1.383 . S
C347 C346 1.439 . S
C347 C365 1.392 . S
N348 Co332 2.282 . S
N348 C351 1.332 . S
N348 C353 1.332 . S
C349 C350 1.386 . S
C349 C352 1.388 . S
C350 C349 1.386 . S
C350 C351 1.382 . S
C350 H376 0.950 . S
C351 N348 1.332 . S
C351 C350 1.382 . S
C351 H362 0.952 . S
C352 C349 1.388 . S
C352 C353 1.382 . S
C352 H377 0.950 . S
C353 N348 1.332 . S
C353 C352 1.382 . S
C353 H363 0.948 . S
N354 Co332 2.282 1_565 S
N354 C358 1.332 . S
N354 C359 1.332 . S
C355 C356 1.388 . S
C355 C359 1.382 . S
C355 H378 0.950 . S
C356 C355 1.388 . S
C356 C357 1.386 . S
C357 C356 1.386 . S
C357 C358 1.382 . S
C357 H379 0.950 . S
C358 N354 1.332 . S
C358 C357 1.382 . S
C358 H360 0.952 . S
C359 N354 1.332 . S
C359 C355 1.382 . S
C359 H361 0.948 . S
H360 C358 0.952 . S
H361 C359 0.948 . S
H362 C351 0.952 . S
H363 C353 0.948 . S
C364 C330 1.418 . S
C364 C334 1.367 1_565 S
C365 C327 1.389 . S
C365 C347 1.392 . S
C366 C337 1.392 . S
C366 C339 1.389 . S
C367 C342 1.395 . S
C367 C344 1.391 1_545 S
H368 C328 0.951 . S
H369 C329 0.950 . S
H370 C335 0.949 . S
H371 C336 0.950 . S
H372 C340 0.951 . S
H373 C341 0.950 . S
H374 C345 0.949 . S
H375 C346 0.950 . S
H376 C350 0.950 . S
H377 C352 0.950 . S
H378 C355 0.950 . S
H379 C357 0.950 . S
C380 C381 1.443 . S
C380 N384 1.376 . S
C380 C418 1.389 . S
C381 C380 1.443 . S
C381 C382 1.340 . S
C381 H421 0.951 . S
C382 C381 1.340 . S
C382 C383 1.439 . S
C382 H422 0.950 . S
C383 C382 1.439 . S
C383 N384 1.374 . S
C383 C417 1.399 . S
N384 C380 1.376 . S
N384 C383 1.374 . S
N384 Co385 2.022 . S
Co385 N384 2.022 . S
Co385 N386 1.978 1_554 S
Co385 N391 1.995 1_554 S
Co385 N396 2.011 . S
Co385 N401 2.306 . S
Co385 N407 2.259 1_554 S
N386 Co385 1.978 1_556 S
N386 C387 1.376 . S
N386 C390 1.383 . S
C387 N386 1.376 . S
C387 C388 1.446 . S
C387 C417 1.387 1_556 S
C388 C387 1.446 . S
C388 C389 1.339 . S
C388 H423 0.949 . S
C389 C388 1.339 . S
C389 C390 1.439 . S
C389 H424 0.950 . S
C390 N386 1.383 . S
C390 C389 1.439 . S
C390 C419 1.392 . S
N391 Co385 1.995 1_556 S
N391 C392 1.376 . S
N391 C395 1.374 . S
C392 N391 1.376 . S
C392 C393 1.443 . S
C392 C419 1.389 . S
C393 C392 1.443 . S
C393 C394 1.340 . S
C393 H425 0.951 . S
C394 C393 1.340 . S
C394 C395 1.439 . S
C394 H426 0.950 . S
C395 N391 1.374 . S
C395 C394 1.439 . S
C395 C420 1.395 1_556 S
N396 Co385 2.011 . S
N396 C397 1.376 . S
N396 C400 1.383 . S
C397 N396 1.376 . S
C397 C398 1.446 . S
C397 C420 1.391 . S
C398 C397 1.446 . S
C398 C399 1.339 . S
C398 H427 0.949 . S
C399 C398 1.339 . S
C399 C400 1.439 . S
C399 H428 0.950 . S
C400 N396 1.383 . S
C400 C399 1.439 . S
C400 C418 1.392 . S
N401 Co385 2.306 . S
N401 C404 1.332 . S
N401 C406 1.332 . S
C402 C403 1.386 . S
C402 C405 1.388 . S
C403 C402 1.386 . S
C403 C404 1.382 . S
C403 H429 0.950 . S
C404 N401 1.332 . S
C404 C403 1.382 . S
C404 H415 0.952 . S
C405 C402 1.388 . S
C405 C406 1.382 . S
C405 H430 0.950 . S
C406 N401 1.332 . S
C406 C405 1.382 . S
C406 H416 0.948 . S
N407 Co385 2.259 1_556 S
N407 C411 1.332 . S
N407 C412 1.332 . S
C408 C409 1.388 . S
C408 C412 1.382 . S
C408 H431 0.950 . S
C409 C408 1.388 . S
C409 C410 1.386 . S
C410 C409 1.386 . S
C410 C411 1.382 . S
C410 H432 0.950 . S
C411 N407 1.332 . S
C411 C410 1.382 . S
C411 H413 0.952 . S
C412 N407 1.332 . S
C412 C408 1.382 . S
C412 H414 0.948 . S
H413 C411 0.952 . S
H414 C412 0.948 . S
H415 C404 0.952 . S
H416 C406 0.948 . S
C417 C383 1.399 . S
C417 C387 1.387 1_554 S
C418 C380 1.389 . S
C418 C400 1.392 . S
C419 C390 1.392 . S
C419 C392 1.389 . S
C420 C395 1.395 1_554 S
C420 C397 1.391 . S
H421 C381 0.951 . S
H422 C382 0.950 . S
H423 C388 0.949 . S
H424 C389 0.950 . S
H425 C393 0.951 . S
H426 C394 0.950 . S
H427 C398 0.949 . S
H428 C399 0.950 . S
H429 C403 0.950 . S
H430 C405 0.950 . S
H431 C408 0.950 . S
H432 C410 0.950 . S
C433 C434 1.443 . S
C433 N437 1.376 . S
C433 C471 1.389 . S
C434 C433 1.443 . S
C434 C435 1.340 . S
C434 H474 0.951 . S
C435 C434 1.340 . S
C435 C436 1.439 . S
C435 H475 0.950 . S
C436 C435 1.439 . S
C436 N437 1.374 . S
C436 C470 1.395 . S
N437 C433 1.376 . S
N437 C436 1.374 . S
N437 Co438 2.008 . S
Co438 N437 2.008 . S
Co438 N439 1.995 1_554 S
Co438 N444 2.008 . S
Co438 N449 1.995 . S
Co438 N454 2.282 . S
Co438 N460 2.282 1_554 S
N439 Co438 1.995 1_556 S
N439 C440 1.376 . S
N439 C443 1.383 . S
C440 N439 1.376 . S
C440 C441 1.446 . S
C440 C470 1.391 1_556 S
C441 C440 1.446 . S
C441 C442 1.339 . S
C441 H476 0.949 . S
C442 C441 1.339 . S
C442 C443 1.439 . S
C442 H477 0.950 . S
C443 N439 1.383 . S
C443 C442 1.439 . S
C443 C472 1.392 . S
N444 Co438 2.008 . S
N444 C445 1.376 1_554 S
N444 C448 1.374 . S
C445 N444 1.376 1_556 S
C445 C446 1.443 . S
C445 C472 1.389 . S
C446 C445 1.443 . S
C446 C447 1.340 1_556 S
C446 H478 0.951 . S
C447 C446 1.340 1_554 S
C447 C448 1.439 . S
C447 H479 0.950 . S
C448 N444 1.374 . S
C448 C447 1.439 . S
C448 C473 1.395 . S
N449 Co438 1.995 . S
N449 C450 1.376 . S
N449 C453 1.383 . S
C450 N449 1.376 . S
C450 C451 1.446 . S
C450 C473 1.391 . S
C451 C450 1.446 . S
C451 C452 1.339 . S
C451 H480 0.949 . S
C452 C451 1.339 . S
C452 C453 1.439 . S
C452 H481 0.950 . S
C453 N449 1.383 . S
C453 C452 1.439 . S
C453 C471 1.392 . S
N454 Co438 2.282 . S
N454 C457 1.332 . S
N454 C459 1.332 . S
C455 C456 1.386 . S
C455 C458 1.388 . S
C456 C455 1.386 . S
C456 C457 1.382 . S
C456 H482 0.950 . S
C457 N454 1.332 . S
C457 C456 1.382 . S
C457 H468 0.952 . S
C458 C455 1.388 . S
C458 C459 1.382 . S
C458 H483 0.950 . S
C459 N454 1.332 . S
C459 C458 1.382 . S
C459 H469 0.948 . S
N460 Co438 2.282 1_556 S
N460 C464 1.332 . S
N460 C465 1.332 . S
C461 C462 1.388 . S
C461 C465 1.382 . S
C461 H484 0.950 . S
C462 C461 1.388 . S
C462 C463 1.386 . S
C463 C462 1.386 . S
C463 C464 1.382 . S
C463 H485 0.950 . S
C464 N460 1.332 . S
C464 C463 1.382 . S
C464 H466 0.952 . S
C465 N460 1.332 . S
C465 C461 1.382 . S
C465 H467 0.948 . S
H466 C464 0.952 . S
H467 C465 0.948 . S
H468 C457 0.952 . S
H469 C459 0.948 . S
C470 C436 1.395 . S
C470 C440 1.391 1_554 S
C471 C433 1.389 . S
C471 C453 1.392 . S
C472 C443 1.392 . S
C472 C445 1.389 . S
C473 C448 1.395 . S
C473 C450 1.391 . S
H474 C434 0.951 . S
H475 C435 0.950 . S
H476 C441 0.949 . S
H477 C442 0.950 . S
H478 C446 0.951 . S
H479 C447 0.950 . S
H480 C451 0.949 . S
H481 C452 0.950 . S
H482 C456 0.950 . S
H483 C458 0.950 . S
H484 C461 0.950 . S
H485 C463 0.950 . S
C486 C487 1.446 . S
C486 N490 1.364 1_556 S
C486 C524 1.396 . S
C487 C486 1.446 . S
C487 C488 1.340 1_556 S
C487 H527 0.951 . S
C488 C487 1.340 1_554 S
C488 C489 1.439 . S
C488 H528 0.950 . S
C489 C488 1.439 . S
C489 N490 1.374 . S
C489 C523 1.395 . S
N490 C486 1.364 1_554 S
N490 C489 1.374 . S
N490 Co491 2.008 . S
Co491 N490 2.008 . S
Co491 N492 1.995 . S
Co491 N497 2.008 . S
Co491 N502 1.995 . S
Co491 N507 2.282 1_554 S
Co491 N513 2.282 . S
N492 Co491 1.995 . S
N492 C493 1.376 . S
N492 C496 1.383 . S
C493 N492 1.376 . S
C493 C494 1.446 . S
C493 C523 1.391 . S
C494 C493 1.446 . S
C494 C495 1.339 . S
C494 H529 0.949 . S
C495 C494 1.339 . S
C495 C496 1.439 . S
C495 H530 0.950 . S
C496 N492 1.383 . S
C496 C495 1.439 . S
C496 C525 1.392 . S
N497 Co491 2.008 . S
N497 C498 1.376 . S
N497 C501 1.374 . S
C498 N497 1.376 . S
C498 C499 1.443 . S
C498 C525 1.389 . S
C499 C498 1.443 . S
C499 C500 1.340 . S
C499 H531 0.951 . S
C500 C499 1.340 . S
C500 C501 1.439 . S
C500 H532 0.950 . S
C501 N497 1.374 . S
C501 C500 1.439 . S
C501 C526 1.395 . S
N502 Co491 1.995 . S
N502 C503 1.376 . S
N502 C506 1.383 1_554 S
C503 N502 1.376 . S
C503 C504 1.446 1_554 S
C503 C526 1.391 . S
C504 C503 1.446 1_556 S
C504 C505 1.339 . S
C504 H533 0.949 . S
C505 C504 1.339 . S
C505 C506 1.439 . S
C505 H534 0.950 . S
C506 N502 1.383 1_556 S
C506 C505 1.439 . S
C506 C524 1.392 . S
N507 Co491 2.282 1_556 S
N507 C510 1.332 . S
N507 C512 1.332 . S
C508 C509 1.386 . S
C508 C511 1.388 . S
C509 C508 1.386 . S
C509 C510 1.382 . S
C509 H535 0.950 . S
C510 N507 1.332 . S
C510 C509 1.382 . S
C510 H521 0.952 . S
C511 C508 1.388 . S
C511 C512 1.382 . S
C511 H536 0.950 . S
C512 N507 1.332 . S
C512 C511 1.382 . S
C512 H522 0.948 1_556 S
N513 Co491 2.282 . S
N513 C517 1.332 . S
N513 C518 1.332 . S
C514 C515 1.388 . S
C514 C518 1.382 . S
C514 H537 0.950 . S
C515 C514 1.388 . S
C515 C516 1.386 . S
C516 C515 1.386 . S
C516 C517 1.382 . S
C516 H538 0.950 . S
C517 N513 1.332 . S
C517 C516 1.382 . S
C517 H519 0.952 . S
C518 N513 1.332 . S
C518 C514 1.382 . S
C518 H520 0.948 . S
H519 C517 0.952 . S
H520 C518 0.948 . S
H521 C510 0.952 . S
H522 C512 0.948 1_554 S
C523 C489 1.395 . S
C523 C493 1.391 . S
C524 C486 1.396 . S
C524 C506 1.392 . S
C525 C496 1.392 . S
C525 C498 1.389 . S
C526 C501 1.395 . S
C526 C503 1.391 . S
H527 C487 0.951 . S
H528 C488 0.950 . S
H529 C494 0.949 . S
H530 C495 0.950 . S
H531 C499 0.951 . S
H532 C500 0.950 . S
H533 C504 0.949 . S
H534 C505 0.950 . S
H535 C509 0.950 . S
H536 C511 0.950 . S
H537 C514 0.950 . S
H538 C516 0.950 . S
C539 C540 1.443 . S
C539 N543 1.376 . S
C539 C577 1.389 . S
C540 C539 1.443 . S
C540 C541 1.340 . S
C540 H580 0.951 . S
C541 C540 1.340 . S
C541 C542 1.439 . S
C541 H581 0.950 . S
C542 C541 1.439 . S
C542 N543 1.374 . S
C542 C576 1.397 . S
N543 C539 1.376 . S
N543 C542 1.374 . S
N543 Co544 2.008 . S
Co544 N543 2.008 . S
Co544 N545 1.995 1_554 S
Co544 N550 2.008 1_554 S
Co544 N555 1.995 . S
Co544 N560 2.282 . S
Co544 N566 2.282 1_554 S
N545 Co544 1.995 1_556 S
N545 C546 1.376 . S
N545 C549 1.383 . S
C546 N545 1.376 . S
C546 C547 1.446 . S
C546 C576 1.390 1_556 S
C547 C546 1.446 . S
C547 C548 1.339 . S
C547 H582 0.949 . S
C548 C547 1.339 . S
C548 C549 1.439 . S
C548 H583 0.950 . S
C549 N545 1.383 . S
C549 C548 1.439 . S
C549 C578 1.392 . S
N550 Co544 2.008 1_556 S
N550 C551 1.376 . S
N550 C554 1.374 1_556 S
C551 N550 1.376 . S
C551 C552 1.443 . S
C551 C578 1.389 . S
C552 C551 1.443 . S
C552 C553 1.340 . S
C552 H584 0.951 . S
C553 C552 1.340 . S
C553 C554 1.439 1_556 S
C553 H585 0.950 . S
C554 N550 1.374 1_554 S
C554 C553 1.439 1_554 S
C554 C579 1.395 . S
N555 Co544 1.995 . S
N555 C556 1.376 . S
N555 C559 1.383 . S
C556 N555 1.376 . S
C556 C557 1.446 . S
C556 C579 1.391 . S
C557 C556 1.446 . S
C557 C558 1.339 . S
C557 H586 0.949 . S
C558 C557 1.339 . S
C558 C559 1.439 . S
C558 H587 0.950 . S
C559 N555 1.383 . S
C559 C558 1.439 . S
C559 C577 1.392 . S
N560 Co544 2.282 . S
N560 C563 1.332 . S
N560 C565 1.332 . S
C561 C562 1.386 . S
C561 C564 1.388 . S
C562 C561 1.386 . S
C562 C563 1.382 . S
C562 H588 0.950 . S
C563 N560 1.332 . S
C563 C562 1.382 . S
C563 H574 0.952 . S
C564 C561 1.388 . S
C564 C565 1.382 . S
C564 H589 0.950 . S
C565 N560 1.332 . S
C565 C564 1.382 . S
C565 H575 0.948 . S
N566 Co544 2.282 1_556 S
N566 C570 1.332 . S
N566 C571 1.332 . S
C567 C568 1.388 . S
C567 C571 1.382 . S
C567 H590 0.950 . S
C568 C567 1.388 . S
C568 C569 1.386 . S
C569 C568 1.386 . S
C569 C570 1.382 . S
C569 H591 0.950 . S
C570 N566 1.332 . S
C570 C569 1.382 . S
C570 H572 0.952 . S
C571 N566 1.332 . S
C571 C567 1.382 . S
C571 H573 0.948 . S
H572 C570 0.952 . S
H573 C571 0.948 . S
H574 C563 0.952 . S
H575 C565 0.948 . S
C576 C542 1.397 . S
C576 C546 1.390 1_554 S
C577 C539 1.389 . S
C577 C559 1.392 . S
C578 C549 1.392 . S
C578 C551 1.389 . S
C579 C554 1.395 . S
C579 C556 1.391 . S
H580 C540 0.951 . S
H581 C541 0.950 . S
H582 C547 0.949 . S
H583 C548 0.950 . S
H584 C552 0.951 . S
H585 C553 0.950 . S
H586 C557 0.949 . S
H587 C558 0.950 . S
H588 C562 0.950 . S
H589 C564 0.950 . S
H590 C567 0.950 . S
H591 C569 0.950 . S
H592 C598 0.930 . S
H593 C602 0.930 . S
H594 C607 0.929 . S
H595 C605 0.929 . S
H596 C600 0.929 . S
H597 C606 0.929 . S
C598 H592 0.930 . S
C598 C599 1.367 . S
C598 C606 1.378 . S
C599 C598 1.367 . S
C599 C607 1.433 . S
C600 H596 0.929 . S
C600 C602 1.378 . S
C600 C604 1.350 . S
C601 C604 1.463 . S
C601 C606 1.350 . S
C601 N609 1.427 . S
C602 H593 0.930 . S
C602 C600 1.378 . S
C602 C603 1.367 . S
C603 C602 1.367 . S
C603 C605 1.433 . S
C604 C600 1.350 . S
C604 C601 1.463 . S
C604 N608 1.427 . S
C605 H595 0.929 . S
C605 C603 1.433 . S
C605 N608 1.384 . S
C606 H597 0.929 . S
C606 C598 1.378 . S
C606 C601 1.350 . S
C607 H594 0.929 . S
C607 C599 1.433 . S
C607 N609 1.384 . S
N608 C604 1.427 . S
N608 C605 1.384 . S
N609 C601 1.427 . S
N609 C607 1.384 . S
H610 C616 0.930 . S
H611 C620 0.930 . S
H612 C625 0.929 . S
H613 C623 0.929 . S
H614 C618 0.929 . S
H615 C624 0.929 . S
C616 H610 0.930 . S
C616 C617 1.367 . S
C616 C624 1.378 . S
C617 C616 1.367 . S
C617 C625 1.433 . S
C618 H614 0.929 . S
C618 C620 1.378 . S
C618 C622 1.350 . S
C619 C622 1.463 . S
C619 C624 1.350 . S
C619 N627 1.427 . S
C620 H611 0.930 . S
C620 C618 1.378 . S
C620 C621 1.367 . S
C621 C620 1.367 . S
C621 C623 1.433 . S
C622 C618 1.350 . S
C622 C619 1.463 . S
C622 N626 1.427 . S
C623 H613 0.929 . S
C623 C621 1.433 . S
C623 N626 1.384 . S
C624 H615 0.929 . S
C624 C616 1.378 . S
C624 C619 1.350 . S
C625 H612 0.929 . S
C625 C617 1.433 . S
C625 N627 1.384 . S
N626 C622 1.427 . S
N626 C623 1.384 . S
N627 C619 1.427 . S
N627 C625 1.384 . S
H628 C634 0.930 . S
H629 C638 0.930 . S
H630 C643 0.929 . S
H631 C641 0.929 . S
H632 C636 0.929 . S
H633 C642 0.929 . S
C634 H628 0.930 . S
C634 C635 1.367 . S
C634 C642 1.378 . S
C635 C634 1.367 . S
C635 C643 1.433 . S
C636 H632 0.929 . S
C636 C638 1.378 . S
C636 C640 1.350 . S
C637 C640 1.463 . S
C637 C642 1.350 . S
C637 N645 1.427 . S
C638 H629 0.930 . S
C638 C636 1.378 . S
C638 C639 1.367 . S
C639 C638 1.367 . S
C639 C641 1.433 . S
C640 C636 1.350 . S
C640 C637 1.463 . S
C640 N644 1.427 . S
C641 H631 0.929 . S
C641 C639 1.433 . S
C641 N644 1.384 . S
C642 H633 0.929 . S
C642 C634 1.378 . S
C642 C637 1.350 . S
C643 H630 0.929 . S
C643 C635 1.433 . S
C643 N645 1.384 . S
N644 C640 1.427 . S
N644 C641 1.384 . S
N645 C637 1.427 . S
N645 C643 1.384 . S
H646 C652 0.930 . S
H647 C656 0.930 . S
H648 C661 0.929 . S
H649 C659 0.929 . S
H650 C654 0.929 . S
H651 C660 0.929 . S
C652 H646 0.930 . S
C652 C653 1.367 . S
C652 C660 1.378 . S
C653 C652 1.367 . S
C653 C661 1.433 . S
C654 H650 0.929 . S
C654 C656 1.378 . S
C654 C658 1.350 . S
C655 C658 1.463 . S
C655 C660 1.350 . S
C655 N663 1.427 . S
C656 H647 0.930 . S
C656 C654 1.378 . S
C656 C657 1.367 . S
C657 C656 1.367 . S
C657 C659 1.433 . S
C658 C654 1.350 . S
C658 C655 1.463 . S
C658 N662 1.427 . S
C659 H649 0.929 . S
C659 C657 1.433 . S
C659 N662 1.384 . S
C660 H651 0.929 . S
C660 C652 1.378 . S
C660 C655 1.350 . S
C661 H648 0.929 . S
C661 C653 1.433 . S
C661 N663 1.384 . S
N662 C658 1.427 . S
N662 C659 1.384 . S
N663 C655 1.427 . S
N663 C661 1.384 . S
H664 C670 0.930 . S
H665 C674 0.930 . S
H666 C679 0.929 . S
H667 C677 0.929 . S
H668 C672 0.929 . S
H669 C678 0.929 . S
C670 H664 0.930 . S
C670 C671 1.367 . S
C670 C678 1.378 . S
C671 C670 1.367 . S
C671 C679 1.433 . S
C672 H668 0.929 . S
C672 C674 1.378 . S
C672 C676 1.350 . S
C673 C676 1.463 . S
C673 C678 1.350 . S
C673 N681 1.427 . S
C674 H665 0.930 . S
C674 C672 1.378 . S
C674 C675 1.367 . S
C675 C674 1.367 . S
C675 C677 1.433 . S
C676 C672 1.350 . S
C676 C673 1.463 . S
C676 N680 1.427 . S
C677 H667 0.929 . S
C677 C675 1.433 . S
C677 N680 1.384 . S
C678 H669 0.929 . S
C678 C670 1.378 . S
C678 C673 1.350 . S
C679 H666 0.929 . S
C679 C671 1.433 . S
C679 N681 1.384 . S
N680 C676 1.427 . S
N680 C677 1.384 . S
N681 C673 1.427 . S
N681 C679 1.384 . S
H682 C688 0.930 . S
H683 C692 0.930 . S
H684 C697 0.929 . S
H685 C695 0.929 . S
H686 C690 0.929 . S
H687 C696 0.929 . S
C688 H682 0.930 . S
C688 C689 1.367 . S
C688 C696 1.378 . S
C689 C688 1.367 . S
C689 C697 1.433 . S
C690 H686 0.929 . S
C690 C692 1.378 . S
C690 C694 1.350 . S
C691 C694 1.463 . S
C691 C696 1.350 . S
C691 N699 1.427 . S
C692 H683 0.930 . S
C692 C690 1.378 . S
C692 C693 1.367 . S
C693 C692 1.367 . S
C693 C695 1.433 . S
C694 C690 1.350 . S
C694 C691 1.463 . S
C694 N698 1.427 . S
C695 H685 0.929 . S
C695 C693 1.433 . S
C695 N698 1.384 . S
C696 H687 0.929 . S
C696 C688 1.378 . S
C696 C691 1.350 . S
C697 H684 0.929 . S
C697 C689 1.433 . S
C697 N699 1.384 . S
N698 C694 1.427 . S
N698 C695 1.384 . S
N699 C691 1.427 . S
N699 C697 1.384 . S
H700 C706 0.930 . S
H701 C710 0.930 . S
H702 C715 0.929 . S
H703 C713 0.929 . S
H704 C708 0.929 . S
H705 C714 0.929 . S
C706 H700 0.930 . S
C706 C707 1.367 . S
C706 C714 1.378 . S
C707 C706 1.367 . S
C707 C715 1.433 . S
C708 H704 0.929 . S
C708 C710 1.378 . S
C708 C712 1.350 . S
C709 C712 1.463 . S
C709 C714 1.350 . S
C709 N717 1.427 . S
C710 H701 0.930 . S
C710 C708 1.378 . S
C710 C711 1.367 . S
C711 C710 1.367 . S
C711 C713 1.433 . S
C712 C708 1.350 . S
C712 C709 1.463 . S
C712 N716 1.427 . S
C713 H703 0.929 . S
C713 C711 1.433 . S
C713 N716 1.384 . S
C714 H705 0.929 . S
C714 C706 1.378 . S
C714 C709 1.350 . S
C715 H702 0.929 . S
C715 C707 1.433 . S
C715 N717 1.384 . S
N716 C712 1.427 . S
N716 C713 1.384 . S
N717 C709 1.427 . S
N717 C715 1.384 . S
H718 C724 0.930 . S
H719 C728 0.930 . S
H720 C733 0.929 . S
H721 C731 0.929 . S
H722 C726 0.929 . S
H723 C732 0.929 . S
C724 H718 0.930 . S
C724 C725 1.367 . S
C724 C732 1.378 . S
C725 C724 1.367 . S
C725 C733 1.433 . S
C726 H722 0.929 . S
C726 C728 1.378 . S
C726 C730 1.350 . S
C727 C730 1.463 . S
C727 C732 1.350 . S
C727 N735 1.427 . S
C728 H719 0.930 . S
C728 C726 1.378 . S
C728 C729 1.367 . S
C729 C728 1.367 . S
C729 C731 1.433 . S
C730 C726 1.350 . S
C730 C727 1.463 . S
C730 N734 1.427 . S
C731 H721 0.929 . S
C731 C729 1.433 . S
C731 N734 1.384 . S
C732 H723 0.929 . S
C732 C724 1.378 . S
C732 C727 1.350 . S
C733 H720 0.929 . S
C733 C725 1.433 . S
C733 N735 1.384 . S
N734 C730 1.427 . S
N734 C731 1.384 . S
N735 C727 1.427 . S
N735 C733 1.384 . S
H736 C742 0.930 . S
H737 C746 0.930 . S
H738 C751 0.929 . S
H739 C749 0.929 . S
H740 C744 0.929 . S
H741 C750 0.929 . S
C742 H736 0.930 . S
C742 C743 1.367 . S
C742 C750 1.378 . S
C743 C742 1.367 . S
C743 C751 1.433 . S
C744 H740 0.929 . S
C744 C746 1.378 . S
C744 C748 1.350 . S
C745 C748 1.463 . S
C745 C750 1.350 . S
C745 N753 1.427 . S
C746 H737 0.930 . S
C746 C744 1.378 . S
C746 C747 1.367 . S
C747 C746 1.367 . S
C747 C749 1.433 . S
C748 C744 1.350 . S
C748 C745 1.463 . S
C748 N752 1.427 . S
C749 H739 0.929 . S
C749 C747 1.433 . S
C749 N752 1.384 . S
C750 H741 0.929 . S
C750 C742 1.378 . S
C750 C745 1.350 . S
C751 H738 0.929 . S
C751 C743 1.433 . S
C751 N753 1.384 . S
N752 C748 1.427 . S
N752 C749 1.384 . S
N753 C745 1.427 . S
N753 C751 1.384 . S
H754 C760 0.930 . S
H755 C764 0.930 . S
H756 C769 0.929 . S
H757 C767 0.929 . S
H758 C762 0.929 . S
H759 C768 0.929 . S
C760 H754 0.930 . S
C760 C761 1.367 . S
C760 C768 1.378 . S
C761 C760 1.367 . S
C761 C769 1.433 . S
C762 H758 0.929 . S
C762 C764 1.378 . S
C762 C766 1.350 . S
C763 C766 1.463 . S
C763 C768 1.350 . S
C763 N771 1.427 . S
C764 H755 0.930 . S
C764 C762 1.378 . S
C764 C765 1.367 . S
C765 C764 1.367 . S
C765 C767 1.433 . S
C766 C762 1.350 . S
C766 C763 1.463 . S
C766 N770 1.427 . S
C767 H757 0.929 . S
C767 C765 1.433 . S
C767 N770 1.384 . S
C768 H759 0.929 . S
C768 C760 1.378 . S
C768 C763 1.350 . S
C769 H756 0.929 . S
C769 C761 1.433 . S
C769 N771 1.384 . S
N770 C766 1.427 . S
N770 C767 1.384 . S
N771 C763 1.427 . S
N771 C769 1.384 . S
H772 C778 0.930 . S
H773 C782 0.930 . S
H774 C787 0.929 . S
H775 C785 0.929 . S
H776 C780 0.929 . S
H777 C786 0.929 . S
C778 H772 0.930 . S
C778 C779 1.367 . S
C778 C786 1.378 . S
C779 C778 1.367 . S
C779 C787 1.433 . S
C780 H776 0.929 . S
C780 C782 1.378 . S
C780 C784 1.350 . S
C781 C784 1.463 . S
C781 C786 1.350 . S
C781 N789 1.427 . S
C782 H773 0.930 . S
C782 C780 1.378 . S
C782 C783 1.367 . S
C783 C782 1.367 . S
C783 C785 1.433 . S
C784 C780 1.350 . S
C784 C781 1.463 . S
C784 N788 1.427 . S
C785 H775 0.929 . S
C785 C783 1.433 . S
C785 N788 1.384 . S
C786 H777 0.929 . S
C786 C778 1.378 . S
C786 C781 1.350 . S
C787 H774 0.929 . S
C787 C779 1.433 . S
C787 N789 1.384 . S
N788 C784 1.427 . S
N788 C785 1.384 . S
N789 C781 1.427 . S
N789 C787 1.384 . S
H790 C796 0.930 . S
H791 C800 0.930 . S
H792 C805 0.929 . S
H793 C803 0.929 . S
H794 C798 0.929 . S
H795 C804 0.929 . S
C796 H790 0.930 . S
C796 C797 1.367 . S
C796 C804 1.378 . S
C797 C796 1.367 . S
C797 C805 1.433 . S
C798 H794 0.929 . S
C798 C800 1.378 . S
C798 C802 1.350 . S
C799 C802 1.463 . S
C799 C804 1.350 . S
C799 N807 1.427 . S
C800 H791 0.930 . S
C800 C798 1.378 . S
C800 C801 1.367 . S
C801 C800 1.367 . S
C801 C803 1.433 . S
C802 C798 1.350 . S
C802 C799 1.463 . S
C802 N806 1.427 . S
C803 H793 0.929 . S
C803 C801 1.433 . S
C803 N806 1.384 . S
C804 H795 0.929 . S
C804 C796 1.378 . S
C804 C799 1.350 . S
C805 H792 0.929 . S
C805 C797 1.433 . S
C805 N807 1.384 . S
N806 C802 1.427 . S
N806 C803 1.384 . S
N807 C799 1.427 . S
N807 C805 1.384 . S
H808 C814 0.930 . S
H809 C818 0.930 . S
H810 C823 0.929 . S
H811 C821 0.929 . S
H812 C816 0.929 . S
H813 C822 0.929 . S
C814 H808 0.930 . S
C814 C815 1.367 . S
C814 C822 1.378 . S
C815 C814 1.367 . S
C815 C823 1.433 . S
C816 H812 0.929 . S
C816 C818 1.378 . S
C816 C820 1.350 . S
C817 C820 1.463 . S
C817 C822 1.350 . S
C817 N825 1.427 . S
C818 H809 0.930 . S
C818 C816 1.378 . S
C818 C819 1.367 . S
C819 C818 1.367 . S
C819 C821 1.433 . S
C820 C816 1.350 . S
C820 C817 1.463 . S
C820 N824 1.427 . S
C821 H811 0.929 . S
C821 C819 1.433 . S
C821 N824 1.384 . S
C822 H813 0.929 . S
C822 C814 1.378 . S
C822 C817 1.350 . S
C823 H810 0.929 . S
C823 C815 1.433 . S
C823 N825 1.384 . S
N824 C820 1.427 . S
N824 C821 1.384 . S
N825 C817 1.427 . S
N825 C823 1.384 . S
H826 C832 0.930 . S
H827 C836 0.930 . S
H828 C841 0.929 . S
H829 C839 0.929 . S
H830 C834 0.929 . S
H831 C840 0.929 . S
C832 H826 0.930 . S
C832 C833 1.367 . S
C832 C840 1.378 . S
C833 C832 1.367 . S
C833 C841 1.433 . S
C834 H830 0.929 . S
C834 C836 1.378 . S
C834 C838 1.350 . S
C835 C838 1.463 . S
C835 C840 1.350 . S
C835 N843 1.427 . S
C836 H827 0.930 . S
C836 C834 1.378 . S
C836 C837 1.367 . S
C837 C836 1.367 . S
C837 C839 1.433 . S
C838 C834 1.350 . S
C838 C835 1.463 . S
C838 N842 1.427 . S
C839 H829 0.929 . S
C839 C837 1.433 . S
C839 N842 1.384 . S
C840 H831 0.929 . S
C840 C832 1.378 . S
C840 C835 1.350 . S
C841 H828 0.929 . S
C841 C833 1.433 . S
C841 N843 1.384 . S
N842 C838 1.427 . S
N842 C839 1.384 . S
N843 C835 1.427 . S
N843 C841 1.384 . S
H844 C850 0.930 . S
H845 C854 0.930 . S
H846 C859 0.929 . S
H847 C857 0.929 . S
H848 C852 0.929 . S
H849 C858 0.929 . S
C850 H844 0.930 . S
C850 C851 1.367 . S
C850 C858 1.378 . S
C851 C850 1.367 . S
C851 C859 1.433 . S
C852 H848 0.929 . S
C852 C854 1.378 . S
C852 C856 1.350 . S
C853 C856 1.463 . S
C853 C858 1.350 . S
C853 N861 1.427 . S
C854 H845 0.930 . S
C854 C852 1.378 . S
C854 C855 1.367 . S
C855 C854 1.367 . S
C855 C857 1.433 . S
C856 C852 1.350 . S
C856 C853 1.463 . S
C856 N860 1.427 . S
C857 H847 0.929 . S
C857 C855 1.433 . S
C857 N860 1.384 . S
C858 H849 0.929 . S
C858 C850 1.378 . S
C858 C853 1.350 . S
C859 H846 0.929 . S
C859 C851 1.433 . S
C859 N861 1.384 . S
N860 C856 1.427 . S
N860 C857 1.384 . S
N861 C853 1.427 . S
N861 C859 1.384 . S
H862 C868 0.930 . S
H863 C872 0.930 . S
H864 C877 0.929 . S
H865 C875 0.929 . S
H866 C870 0.929 . S
H867 C876 0.929 . S
C868 H862 0.930 . S
C868 C869 1.367 . S
C868 C876 1.378 . S
C869 C868 1.367 . S
C869 C877 1.433 . S
C870 H866 0.929 . S
C870 C872 1.378 . S
C870 C874 1.350 . S
C871 C874 1.463 . S
C871 C876 1.350 . S
C871 N879 1.427 . S
C872 H863 0.930 . S
C872 C870 1.378 . S
C872 C873 1.367 . S
C873 C872 1.367 . S
C873 C875 1.433 . S
C874 C870 1.350 . S
C874 C871 1.463 . S
C874 N878 1.427 . S
C875 H865 0.929 . S
C875 C873 1.433 . S
C875 N878 1.384 . S
C876 H867 0.929 . S
C876 C868 1.378 . S
C876 C871 1.350 . S
C877 H864 0.929 . S
C877 C869 1.433 . S
C877 N879 1.384 . S
N878 C874 1.427 . S
N878 C875 1.384 . S
N879 C871 1.427 . S
N879 C877 1.384 . S
H880 C886 0.930 . S
H881 C890 0.930 . S
H882 C895 0.929 . S
H883 C893 0.929 . S
H884 C888 0.929 . S
H885 C894 0.929 . S
C886 H880 0.930 . S
C886 C887 1.367 . S
C886 C894 1.378 . S
C887 C886 1.367 . S
C887 C895 1.433 . S
C888 H884 0.929 . S
C888 C890 1.378 . S
C888 C892 1.350 . S
C889 C892 1.463 . S
C889 C894 1.350 . S
C889 N897 1.427 . S
C890 H881 0.930 . S
C890 C888 1.378 . S
C890 C891 1.367 . S
C891 C890 1.367 . S
C891 C893 1.433 . S
C892 C888 1.350 . S
C892 C889 1.463 . S
C892 N896 1.427 . S
C893 H883 0.929 . S
C893 C891 1.433 . S
C893 N896 1.384 . S
C894 H885 0.929 . S
C894 C886 1.378 . S
C894 C889 1.350 . S
C895 H882 0.929 . S
C895 C887 1.433 . S
C895 N897 1.384 . S
N896 C892 1.427 . S
N896 C893 1.384 . S
N897 C889 1.427 . S
N897 C895 1.384 . S
H898 C904 0.930 . S
H899 C908 0.930 . S
H900 C913 0.929 . S
H901 C911 0.929 . S
H902 C906 0.929 . S
H903 C912 0.929 . S
C904 H898 0.930 . S
C904 C905 1.367 . S
C904 C912 1.378 . S
C905 C904 1.367 . S
C905 C913 1.433 . S
C906 H902 0.929 . S
C906 C908 1.378 . S
C906 C910 1.350 . S
C907 C910 1.463 . S
C907 C912 1.350 . S
C907 N915 1.427 . S
C908 H899 0.930 . S
C908 C906 1.378 . S
C908 C909 1.367 . S
C909 C908 1.367 . S
C909 C911 1.433 . S
C910 C906 1.350 . S
C910 C907 1.463 . S
C910 N914 1.427 . S
C911 H901 0.929 . S
C911 C909 1.433 . S
C911 N914 1.384 . S
C912 H903 0.929 . S
C912 C904 1.378 . S
C912 C907 1.350 . S
C913 H900 0.929 . S
C913 C905 1.433 . S
C913 N915 1.384 . S
N914 C910 1.427 . S
N914 C911 1.384 . S
N915 C907 1.427 . S
N915 C913 1.384 . S
H916 C922 0.930 . S
H917 C926 0.930 . S
H918 C931 0.929 . S
H919 C929 0.929 . S
H920 C924 0.929 . S
H921 C930 0.929 . S
C922 H916 0.930 . S
C922 C923 1.367 . S
C922 C930 1.378 . S
C923 C922 1.367 . S
C923 C931 1.433 . S
C924 H920 0.929 . S
C924 C926 1.378 . S
C924 C928 1.350 . S
C925 C928 1.463 . S
C925 C930 1.350 . S
C925 N933 1.427 . S
C926 H917 0.930 . S
C926 C924 1.378 . S
C926 C927 1.367 . S
C927 C926 1.367 . S
C927 C929 1.433 . S
C928 C924 1.350 . S
C928 C925 1.463 . S
C928 N932 1.427 . S
C929 H919 0.929 . S
C929 C927 1.433 . S
C929 N932 1.384 . S
C930 H921 0.929 . S
C930 C922 1.378 . S
C930 C925 1.350 . S
C931 H918 0.929 . S
C931 C923 1.433 . S
C931 N933 1.384 . S
N932 C928 1.427 . S
N932 C929 1.384 . S
N933 C925 1.427 . S
N933 C931 1.384 . S
H934 C940 0.930 . S
H935 C944 0.930 . S
H936 C949 0.929 . S
H937 C947 0.929 . S
H938 C942 0.929 . S
H939 C948 0.929 . S
C940 H934 0.930 . S
C940 C941 1.367 . S
C940 C948 1.378 . S
C941 C940 1.367 . S
C941 C949 1.433 . S
C942 H938 0.929 . S
C942 C944 1.378 . S
C942 C946 1.350 . S
C943 C946 1.463 . S
C943 C948 1.350 . S
C943 N951 1.427 . S
C944 H935 0.930 . S
C944 C942 1.378 . S
C944 C945 1.367 . S
C945 C944 1.367 . S
C945 C947 1.433 . S
C946 C942 1.350 . S
C946 C943 1.463 . S
C946 N950 1.427 . S
C947 H937 0.929 . S
C947 C945 1.433 . S
C947 N950 1.384 . S
C948 H939 0.929 . S
C948 C940 1.378 . S
C948 C943 1.350 . S
C949 H936 0.929 . S
C949 C941 1.433 . S
C949 N951 1.384 . S
N950 C946 1.427 . S
N950 C947 1.384 . S
N951 C943 1.427 . S
N951 C949 1.384 . S
H952 C958 0.930 . S
H953 C962 0.930 . S
H954 C967 0.929 . S
H955 C965 0.929 . S
H956 C960 0.929 . S
H957 C966 0.929 . S
C958 H952 0.930 . S
C958 C959 1.367 . S
C958 C966 1.378 . S
C959 C958 1.367 . S
C959 C967 1.433 . S
C960 H956 0.929 . S
C960 C962 1.378 . S
C960 C964 1.350 . S
C961 C964 1.463 . S
C961 C966 1.350 . S
C961 N969 1.427 . S
C962 H953 0.930 . S
C962 C960 1.378 . S
C962 C963 1.367 . S
C963 C962 1.367 . S
C963 C965 1.433 . S
C964 C960 1.350 . S
C964 C961 1.463 . S
C964 N968 1.427 . S
C965 H955 0.929 . S
C965 C963 1.433 . S
C965 N968 1.384 . S
C966 H957 0.929 . S
C966 C958 1.378 . S
C966 C961 1.350 . S
C967 H954 0.929 . S
C967 C959 1.433 . S
C967 N969 1.384 . S
N968 C964 1.427 . S
N968 C965 1.384 . S
N969 C961 1.427 . S
N969 C967 1.384 . S
H970 C976 0.930 . S
H971 C980 0.930 . S
H972 C985 0.929 . S
H973 C983 0.929 . S
H974 C978 0.929 . S
H975 C984 0.929 . S
C976 H970 0.930 . S
C976 C977 1.367 . S
C976 C984 1.378 . S
C977 C976 1.367 . S
C977 C985 1.433 . S
C978 H974 0.929 . S
C978 C980 1.378 . S
C978 C982 1.350 . S
C979 C982 1.463 . S
C979 C984 1.350 . S
C979 N987 1.427 . S
C980 H971 0.930 . S
C980 C978 1.378 . S
C980 C981 1.367 . S
C981 C980 1.367 . S
C981 C983 1.433 . S
C982 C978 1.350 . S
C982 C979 1.463 . S
C982 N986 1.427 . S
C983 H973 0.929 . S
C983 C981 1.433 . S
C983 N986 1.384 . S
C984 H975 0.929 . S
C984 C976 1.378 . S
C984 C979 1.350 . S
C985 H972 0.929 . S
C985 C977 1.433 . S
C985 N987 1.384 . S
N986 C982 1.427 . S
N986 C983 1.384 . S
N987 C979 1.427 . S
N987 C985 1.384 . S
H988 C994 0.930 . S
H989 C998 0.930 . S
H990 C1003 0.929 . S
H991 C1001 0.929 . S
H992 C996 0.929 . S
H993 C1002 0.929 . S
C994 H988 0.930 . S
C994 C995 1.367 . S
C994 C1002 1.378 . S
C995 C994 1.367 . S
C995 C1003 1.433 . S
C996 H992 0.929 . S
C996 C998 1.378 . S
C996 C1000 1.350 . S
C997 C1000 1.463 . S
C997 C1002 1.350 . S
C997 N1005 1.427 . S
C998 H989 0.930 . S
C998 C996 1.378 . S
C998 C999 1.367 . S
C999 C998 1.367 . S
C999 C1001 1.433 . S
C1000 C996 1.350 . S
C1000 C997 1.463 . S
C1000 N1004 1.427 . S
C1001 H991 0.929 . S
C1001 C999 1.433 . S
C1001 N1004 1.384 . S
C1002 H993 0.929 . S
C1002 C994 1.378 . S
C1002 C997 1.350 . S
C1003 H990 0.929 . S
C1003 C995 1.433 . S
C1003 N1005 1.384 . S
N1004 C1000 1.427 . S
N1004 C1001 1.384 . S
N1005 C997 1.427 . S
N1005 C1003 1.384 . S
H1006 C1012 0.930 . S
H1007 C1016 0.930 . S
H1008 C1021 0.929 . S
H1009 C1019 0.929 . S
H1010 C1014 0.929 . S
H1011 C1020 0.929 . S
C1012 H1006 0.930 . S
C1012 C1013 1.367 . S
C1012 C1020 1.378 . S
C1013 C1012 1.367 . S
C1013 C1021 1.433 . S
C1014 H1010 0.929 . S
C1014 C1016 1.378 . S
C1014 C1018 1.350 . S
C1015 C1018 1.463 . S
C1015 C1020 1.350 . S
C1015 N1023 1.427 . S
C1016 H1007 0.930 . S
C1016 C1014 1.378 . S
C1016 C1017 1.367 . S
C1017 C1016 1.367 . S
C1017 C1019 1.433 . S
C1018 C1014 1.350 . S
C1018 C1015 1.463 . S
C1018 N1022 1.427 . S
C1019 H1009 0.929 . S
C1019 C1017 1.433 . S
C1019 N1022 1.384 . S
C1020 H1011 0.929 . S
C1020 C1012 1.378 . S
C1020 C1015 1.350 . S
C1021 H1008 0.929 . S
C1021 C1013 1.433 . S
C1021 N1023 1.384 . S
N1022 C1018 1.427 . S
N1022 C1019 1.384 . S
N1023 C1015 1.427 . S
N1023 C1021 1.384 . S
H1024 C1030 0.930 . S
H1025 C1034 0.930 . S
H1026 C1039 0.929 . S
H1027 C1037 0.929 . S
H1028 C1032 0.929 . S
H1029 C1038 0.929 . S
C1030 H1024 0.930 . S
C1030 C1031 1.367 . S
C1030 C1038 1.378 . S
C1031 C1030 1.367 . S
C1031 C1039 1.433 . S
C1032 H1028 0.929 . S
C1032 C1034 1.378 . S
C1032 C1036 1.350 . S
C1033 C1036 1.463 . S
C1033 C1038 1.350 . S
C1033 N1041 1.427 . S
C1034 H1025 0.930 . S
C1034 C1032 1.378 . S
C1034 C1035 1.367 . S
C1035 C1034 1.367 . S
C1035 C1037 1.433 . S
C1036 C1032 1.350 . S
C1036 C1033 1.463 . S
C1036 N1040 1.427 . S
C1037 H1027 0.929 . S
C1037 C1035 1.433 . S
C1037 N1040 1.384 . S
C1038 H1029 0.929 . S
C1038 C1030 1.378 . S
C1038 C1033 1.350 . S
C1039 H1026 0.929 . S
C1039 C1031 1.433 . S
C1039 N1041 1.384 . S
N1040 C1036 1.427 . S
N1040 C1037 1.384 . S
N1041 C1033 1.427 . S
N1041 C1039 1.384 . S
H1042 C1048 0.930 . S
H1043 C1052 0.930 . S
H1044 C1057 0.929 . S
H1045 C1055 0.929 . S
H1046 C1050 0.929 . S
H1047 C1056 0.929 . S
C1048 H1042 0.930 . S
C1048 C1049 1.367 . S
C1048 C1056 1.378 . S
C1049 C1048 1.367 . S
C1049 C1057 1.433 . S
C1050 H1046 0.929 . S
C1050 C1052 1.378 . S
C1050 C1054 1.350 . S
C1051 C1054 1.463 . S
C1051 C1056 1.350 . S
C1051 N1059 1.427 . S
C1052 H1043 0.930 . S
C1052 C1050 1.378 . S
C1052 C1053 1.367 . S
C1053 C1052 1.367 . S
C1053 C1055 1.433 . S
C1054 C1050 1.350 . S
C1054 C1051 1.463 . S
C1054 N1058 1.427 . S
C1055 H1045 0.929 . S
C1055 C1053 1.433 . S
C1055 N1058 1.384 . S
C1056 H1047 0.929 . S
C1056 C1048 1.378 . S
C1056 C1051 1.350 . S
C1057 H1044 0.929 . S
C1057 C1049 1.433 . S
C1057 N1059 1.384 . S
N1058 C1054 1.427 . S
N1058 C1055 1.384 . S
N1059 C1051 1.427 . S
N1059 C1057 1.384 . S
H1060 C1066 0.930 . S
H1061 C1070 0.930 . S
H1062 C1075 0.929 . S
H1063 C1073 0.929 . S
H1064 C1068 0.929 . S
H1065 C1074 0.929 . S
C1066 H1060 0.930 . S
C1066 C1067 1.367 . S
C1066 C1074 1.378 . S
C1067 C1066 1.367 . S
C1067 C1075 1.433 . S
C1068 H1064 0.929 . S
C1068 C1070 1.378 . S
C1068 C1072 1.350 . S
C1069 C1072 1.463 . S
C1069 C1074 1.350 . S
C1069 N1077 1.427 . S
C1070 H1061 0.930 . S
C1070 C1068 1.378 . S
C1070 C1071 1.367 . S
C1071 C1070 1.367 . S
C1071 C1073 1.433 . S
C1072 C1068 1.350 . S
C1072 C1069 1.463 . S
C1072 N1076 1.427 . S
C1073 H1063 0.929 . S
C1073 C1071 1.433 . S
C1073 N1076 1.384 . S
C1074 H1065 0.929 . S
C1074 C1066 1.378 . S
C1074 C1069 1.350 . S
C1075 H1062 0.929 . S
C1075 C1067 1.433 . S
C1075 N1077 1.384 . S
N1076 C1072 1.427 . S
N1076 C1073 1.384 . S
N1077 C1069 1.427 . S
N1077 C1075 1.384 . S
H1078 C1084 0.930 . S
H1079 C1088 0.930 . S
H1080 C1093 0.929 . S
H1081 C1091 0.929 . S
H1082 C1086 0.929 . S
H1083 C1092 0.929 . S
C1084 H1078 0.930 . S
C1084 C1085 1.367 . S
C1084 C1092 1.378 . S
C1085 C1084 1.367 . S
C1085 C1093 1.433 . S
C1086 H1082 0.929 . S
C1086 C1088 1.378 . S
C1086 C1090 1.350 . S
C1087 C1090 1.463 . S
C1087 C1092 1.350 . S
C1087 N1095 1.427 . S
C1088 H1079 0.930 . S
C1088 C1086 1.378 . S
C1088 C1089 1.367 . S
C1089 C1088 1.367 . S
C1089 C1091 1.433 . S
C1090 C1086 1.350 . S
C1090 C1087 1.463 . S
C1090 N1094 1.427 . S
C1091 H1081 0.929 . S
C1091 C1089 1.433 . S
C1091 N1094 1.384 . S
C1092 H1083 0.929 . S
C1092 C1084 1.378 . S
C1092 C1087 1.350 . S
C1093 H1080 0.929 . S
C1093 C1085 1.433 . S
C1093 N1095 1.384 . S
N1094 C1090 1.427 . S
N1094 C1091 1.384 . S
N1095 C1087 1.427 . S
N1095 C1093 1.384 . S
H1096 C1102 0.930 . S
H1097 C1106 0.930 . S
H1098 C1111 0.929 . S
H1099 C1109 0.929 . S
H1100 C1104 0.929 . S
H1101 C1110 0.929 . S
C1102 H1096 0.930 . S
C1102 C1103 1.367 . S
C1102 C1110 1.378 . S
C1103 C1102 1.367 . S
C1103 C1111 1.433 . S
C1104 H1100 0.929 . S
C1104 C1106 1.378 . S
C1104 C1108 1.350 . S
C1105 C1108 1.463 . S
C1105 C1110 1.350 . S
C1105 N1113 1.427 . S
C1106 H1097 0.930 . S
C1106 C1104 1.378 . S
C1106 C1107 1.367 . S
C1107 C1106 1.367 . S
C1107 C1109 1.433 . S
C1108 C1104 1.350 . S
C1108 C1105 1.463 . S
C1108 N1112 1.427 . S
C1109 H1099 0.929 . S
C1109 C1107 1.433 . S
C1109 N1112 1.384 . S
C1110 H1101 0.929 . S
C1110 C1102 1.378 . S
C1110 C1105 1.350 . S
C1111 H1098 0.929 . S
C1111 C1103 1.433 . S
C1111 N1113 1.384 . S
N1112 C1108 1.427 . S
N1112 C1109 1.384 . S
N1113 C1105 1.427 . S
N1113 C1111 1.384 . S
H1114 C1120 0.930 . S
H1115 C1124 0.930 . S
H1116 C1129 0.929 . S
H1117 C1127 0.929 . S
H1118 C1122 0.929 . S
H1119 C1128 0.929 . S
C1120 H1114 0.930 . S
C1120 C1121 1.367 . S
C1120 C1128 1.378 . S
C1121 C1120 1.367 . S
C1121 C1129 1.433 . S
C1122 H1118 0.929 . S
C1122 C1124 1.378 . S
C1122 C1126 1.350 . S
C1123 C1126 1.463 . S
C1123 C1128 1.350 . S
C1123 N1131 1.427 . S
C1124 H1115 0.930 . S
C1124 C1122 1.378 . S
C1124 C1125 1.367 . S
C1125 C1124 1.367 . S
C1125 C1127 1.433 . S
C1126 C1122 1.350 . S
C1126 C1123 1.463 . S
C1126 N1130 1.427 . S
C1127 H1117 0.929 . S
C1127 C1125 1.433 . S
C1127 N1130 1.384 . S
C1128 H1119 0.929 . S
C1128 C1120 1.378 . S
C1128 C1123 1.350 . S
C1129 H1116 0.929 . S
C1129 C1121 1.433 . S
C1129 N1131 1.384 . S
N1130 C1126 1.427 . S
N1130 C1127 1.384 . S
N1131 C1123 1.427 . S
N1131 C1129 1.384 . S
H1132 C1138 0.930 . S
H1133 C1142 0.930 . S
H1134 C1147 0.929 . S
H1135 C1145 0.929 . S
H1136 C1140 0.929 . S
H1137 C1146 0.929 . S
C1138 H1132 0.930 . S
C1138 C1139 1.367 . S
C1138 C1146 1.378 . S
C1139 C1138 1.367 . S
C1139 C1147 1.433 . S
C1140 H1136 0.929 . S
C1140 C1142 1.378 . S
C1140 C1144 1.350 . S
C1141 C1144 1.463 . S
C1141 C1146 1.350 . S
C1141 N1149 1.427 . S
C1142 H1133 0.930 . S
C1142 C1140 1.378 . S
C1142 C1143 1.367 . S
C1143 C1142 1.367 . S
C1143 C1145 1.433 . S
C1144 C1140 1.350 . S
C1144 C1141 1.463 . S
C1144 N1148 1.427 . S
C1145 H1135 0.929 . S
C1145 C1143 1.433 . S
C1145 N1148 1.384 . S
C1146 H1137 0.929 . S
C1146 C1138 1.378 . S
C1146 C1141 1.350 . S
C1147 H1134 0.929 . S
C1147 C1139 1.433 . S
C1147 N1149 1.384 . S
N1148 C1144 1.427 . S
N1148 C1145 1.384 . S
N1149 C1141 1.427 . S
N1149 C1147 1.384 . S
H1150 C1156 0.930 . S
H1151 C1160 0.930 . S
H1152 C1165 0.929 . S
H1153 C1163 0.929 . S
H1154 C1158 0.929 . S
H1155 C1164 0.929 . S
C1156 H1150 0.930 . S
C1156 C1157 1.367 . S
C1156 C1164 1.378 . S
C1157 C1156 1.367 . S
C1157 C1165 1.433 . S
C1158 H1154 0.929 . S
C1158 C1160 1.378 . S
C1158 C1162 1.350 . S
C1159 C1162 1.463 . S
C1159 C1164 1.350 . S
C1159 N1167 1.427 . S
C1160 H1151 0.930 . S
C1160 C1158 1.378 . S
C1160 C1161 1.367 . S
C1161 C1160 1.367 . S
C1161 C1163 1.433 . S
C1162 C1158 1.350 . S
C1162 C1159 1.463 . S
C1162 N1166 1.427 . S
C1163 H1153 0.929 . S
C1163 C1161 1.433 . S
C1163 N1166 1.384 . S
C1164 H1155 0.929 . S
C1164 C1156 1.378 . S
C1164 C1159 1.350 . S
C1165 H1152 0.929 . S
C1165 C1157 1.433 . S
C1165 N1167 1.384 . S
N1166 C1162 1.427 . S
N1166 C1163 1.384 . S
N1167 C1159 1.427 . S
N1167 C1165 1.384 . S
C603 C197 1.500 . S
C599 C12 1.374 . S
C621 C250 1.312 . S
C617 C33 1.225 . S
C639 C313 1.545 . S
C635 C51 1.474 . S
C657 C356 1.290 . S
C653 C75 1.202 . S
C671 C103 1.485 . S
C675 C312 1.544 . S
C693 C349 1.329 . S
C689 C122 1.248 . S
C711 C190 1.484 . S
C707 C145 1.407 . S
C729 C243 1.252 . S
C725 C166 1.196 . S
C747 C296 1.545 . S
C743 C164 1.417 . S
C765 C365 1.828 . S
C761 C101 1.716 . S
C783 C206 1.582 . S
C779 C124 1.505 . S
C801 C259 1.761 . S
C797 C143 1.634 . S
C819 C207 1.582 . S
C815 C30 1.481 . S
C837 C260 1.817 . S
C833 C54 1.684 . S
C855 C303 1.545 . S
C851 C72 1.447 . S
C873 C366 1.777 . S
C869 C9 1.654 . S
C891 C409 1.486 . S
C887 C159 1.361 . S
C905 C96 1.567 . S
C909 C462 1.697 . S
C923 C114 1.495 . S
C927 C524 1.562 . S
C941 C138 1.576 . S
C945 C578 1.694 . S
C959 C40 1.460 . S
C963 C525 1.517 . S
C977 C59 1.643 . S
C981 C577 1.746 . S
C995 C82 1.428 . S
C999 C402 1.503 . S
C1017 C455 1.639 . S
C1013 C19 1.552 . S
C1035 C515 1.521 . S
C1031 C17 1.388 . S
C1049 C38 1.280 . S
C1053 C561 1.391 . S
C1067 C61 1.524 . S
C1071 C418 1.602 . S
C1085 C80 1.269 . S
C1089 C471 1.363 . S
C1107 C419 1.560 . S
C1103 C93 1.462 . S
C1125 C472 1.424 . S
C1121 C117 1.341 . S
C1139 C135 1.443 . S
C1143 C508 1.554 . S
C1161 C568 1.337 . S
C1157 C156 1.235 . S
