# Generated by pormake.
# Topology csq, (4,8)-cn, num edge types: 1
# Building blocks:
#     Node 0, Type 0, BuildingBlock: KUFVIS_clean_linker_0, # of connection points: 4
#     Node 1, Type 0, BuildingBlock: KUFVIS_clean_linker_0, # of connection points: 4
#     Node 2, Type 0, BuildingBlock: KUFVIS_clean_linker_0, # of connection points: 4
#     Node 3, Type 0, BuildingBlock: KUFVIS_clean_linker_0, # of connection points: 4
#     Node 4, Type 0, BuildingBlock: KUFVIS_clean_linker_0, # of connection points: 4
#     Node 5, Type 0, BuildingBlock: KUFVIS_clean_linker_0, # of connection points: 4
#     Node 6, Type 1, BuildingBlock: TAGTUT_clean_sbu_3, # of connection points: 8
#     Node 7, Type 1, BuildingBlock: TAGTUT_clean_sbu_3, # of connection points: 8
#     Node 8, Type 1, BuildingBlock: TAGTUT_clean_sbu_3, # of connection points: 8
#     Edge 9, Type (0, 1), BuildingBlock: ZUJKAS_clean_linker_0, # of connection points: 2
#     Edge 10, Type (0, 1), BuildingBlock: ZUJKAS_clean_linker_0, # of connection points: 2
#     Edge 11, Type (0, 1), BuildingBlock: ZUJKAS_clean_linker_0, # of connection points: 2
#     Edge 12, Type (0, 1), BuildingBlock: ZUJKAS_clean_linker_0, # of connection points: 2
#     Edge 13, Type (0, 1), BuildingBlock: ZUJKAS_clean_linker_0, # of connection points: 2
#     Edge 14, Type (0, 1), BuildingBlock: ZUJKAS_clean_linker_0, # of connection points: 2
#     Edge 15, Type (0, 1), BuildingBlock: ZUJKAS_clean_linker_0, # of connection points: 2
#     Edge 16, Type (0, 1), BuildingBlock: ZUJKAS_clean_linker_0, # of connection points: 2
#     Edge 17, Type (0, 1), BuildingBlock: ZUJKAS_clean_linker_0, # of connection points: 2
#     Edge 18, Type (0, 1), BuildingBlock: ZUJKAS_clean_linker_0, # of connection points: 2
#     Edge 19, Type (0, 1), BuildingBlock: ZUJKAS_clean_linker_0, # of connection points: 2
#     Edge 20, Type (0, 1), BuildingBlock: ZUJKAS_clean_linker_0, # of connection points: 2
#     Edge 21, Type (0, 1), BuildingBlock: ZUJKAS_clean_linker_0, # of connection points: 2
#     Edge 22, Type (0, 1), BuildingBlock: ZUJKAS_clean_linker_0, # of connection points: 2
#     Edge 23, Type (0, 1), BuildingBlock: ZUJKAS_clean_linker_0, # of connection points: 2
#     Edge 24, Type (0, 1), BuildingBlock: ZUJKAS_clean_linker_0, # of connection points: 2
#     Edge 25, Type (0, 1), BuildingBlock: ZUJKAS_clean_linker_0, # of connection points: 2
#     Edge 26, Type (0, 1), BuildingBlock: ZUJKAS_clean_linker_0, # of connection points: 2
#     Edge 27, Type (0, 1), BuildingBlock: ZUJKAS_clean_linker_0, # of connection points: 2
#     Edge 28, Type (0, 1), BuildingBlock: ZUJKAS_clean_linker_0, # of connection points: 2
#     Edge 29, Type (0, 1), BuildingBlock: ZUJKAS_clean_linker_0, # of connection points: 2
#     Edge 30, Type (0, 1), BuildingBlock: ZUJKAS_clean_linker_0, # of connection points: 2
#     Edge 31, Type (0, 1), BuildingBlock: ZUJKAS_clean_linker_0, # of connection points: 2
#     Edge 32, Type (0, 1), BuildingBlock: ZUJKAS_clean_linker_0, # of connection points: 2
# Relax obj value: 0.035
# Max RMSD: 0.115
# Mean RMSD: 0.087
data_MOF--net-csq--node1-TAGTUT_clean_sbu_3--node2-KUFVIS_clean_linker_0--edge1-ZUJKAS_clean_linker_0
_symmetry_space_group_name_H-M    P1
_symmetry_Int_Tables_number       1
_symmetry_cell_setting            triclinic
loop_
_symmetry_equiv_pos_as_xyz
'x, y, z'
_cell_length_a     69.316922
_cell_length_b     68.541426
_cell_length_c     22.686493
_cell_angle_alpha  92.063436
_cell_angle_beta   92.216695
_cell_angle_gamma 119.81067
loop_
_atom_site_label
_atom_site_type_symbol
_atom_site_fract_x
_atom_site_fract_y
_atom_site_fract_z
_atom_type_partial_charge
H0 H 0.32876 0.53037 0.15209 0.0
H1 H 0.26644 0.50935 0.22819 0.0
H2 H 0.27243 0.51861 0.04014 0.0
H3 H 0.23621 0.49258 0.03726 0.0
H4 H 0.17955 0.49132 0.10972 0.0
H5 H 0.24145 0.52154 0.21446 0.0
C6 C 0.31154 0.52646 0.14707 0.0
C7 C 0.30198 0.52506 0.09074 0.0
C8 C 0.29889 0.52096 0.19644 0.0
C9 C 0.27622 0.51443 0.18979 0.0
C10 C 0.26626 0.51401 0.13367 0.0
C11 C 0.27943 0.5191 0.084 0.0
C12 C 0.24217 0.50775 0.12701 0.0
C13 C 0.22915 0.49683 0.07391 0.0
C14 C 0.20677 0.49131 0.0676 0.0
C15 C 0.19692 0.49574 0.11487 0.0
C16 C 0.20923 0.50628 0.16807 0.0
C17 C 0.23194 0.51274 0.17367 0.0
H18 H 0.69513 0.19684 0.10179 0.0
H19 H 0.76041 0.24166 0.17887 0.0
H20 H 0.73634 0.25849 0.02002 0.0
H21 H 0.7728 0.27547 0.00181 0.0
H22 H 0.83189 0.3283 0.09384 0.0
H23 H 0.78037 0.27932 0.19329 0.0
C24 C 0.71053 0.2128 0.1012 0.0
C25 C 0.71368 0.22706 0.05551 0.0
C26 C 0.72706 0.21829 0.14589 0.0
C27 C 0.74756 0.23819 0.14476 0.0
C28 C 0.75144 0.2531 0.09922 0.0
C29 C 0.73415 0.24729 0.05479 0.0
C30 C 0.77352 0.27437 0.09778 0.0
C31 C 0.78203 0.28355 0.04344 0.0
C32 C 0.80292 0.3031 0.04241 0.0
C33 C 0.81572 0.31322 0.09516 0.0
C34 C 0.80785 0.30449 0.14949 0.0
C35 C 0.78655 0.28546 0.15081 0.0
H36 H 0.5353 0.84247 0.07886 0.0
H37 H 0.53627 0.78605 0.15084 0.0
H38 H 0.52277 0.78604 0.96271 0.0
H39 H 0.54087 0.76558 0.96118 0.0
H40 H 0.5225 0.70118 0.02704 0.0
H41 H 0.51296 0.7485 0.13199 0.0
C42 C 0.53365 0.82593 0.07222 0.0
C43 C 0.52894 0.81557 0.01514 0.0
C44 C 0.53608 0.81524 0.12098 0.0
C45 C 0.53383 0.79383 0.1127 0.0
C46 C 0.52919 0.78292 0.05563 0.0
C47 C 0.52684 0.79412 0.00686 0.0
C48 C 0.52698 0.76004 0.04733 0.0
C49 C 0.53374 0.75381 0.9953 0.0
C50 C 0.53227 0.73266 0.98806 0.0
C51 C 0.52369 0.71753 0.03264 0.0
C52 C 0.51695 0.72319 0.08472 0.0
C53 C 0.5186 0.74444 0.09197 0.0
H54 H 0.84697 0.554 0.03139 0.0
H55 H 0.79844 0.55953 0.12994 0.0
H56 H 0.77844 0.51584 0.9691 0.0
H57 H 0.75091 0.52378 0.96328 0.0
H58 H 0.69902 0.51441 0.07478 0.0
H59 H 0.76442 0.53754 0.15321 0.0
C60 C 0.82979 0.54981 0.03572 0.0
C61 C 0.8134 0.53474 0.99388 0.0
C62 C 0.82429 0.5582 0.08523 0.0
C63 C 0.80205 0.55229 0.09176 0.0
C64 C 0.78494 0.53728 0.04967 0.0
C65 C 0.79097 0.52825 0.00089 0.0
C66 C 0.761 0.53079 0.05726 0.0
C67 C 0.7456 0.52379 0.00751 0.0
C68 C 0.72318 0.5172 0.01414 0.0
C69 C 0.7161 0.51835 0.0703 0.0
C70 C 0.73106 0.52635 0.12001 0.0
C71 C 0.75336 0.53215 0.11373 0.0
H72 H 0.3185 0.84539 0.08632 0.0
H73 H 0.27221 0.79147 0.18471 0.0
H74 H 0.24997 0.80801 0.0224 0.0
H75 H 0.22785 0.77053 0.01373 0.0
H76 H 0.17753 0.72243 0.11715 0.0
H77 H 0.23642 0.77741 0.20491 0.0
C78 C 0.30167 0.83172 0.0908 0.0
C79 C 0.28489 0.82764 0.04773 0.0
C80 C 0.29704 0.81907 0.14056 0.0
C81 C 0.27525 0.80165 0.14707 0.0
C82 C 0.25788 0.79697 0.10424 0.0
C83 C 0.26291 0.81068 0.05531 0.0
C84 C 0.23502 0.77707 0.10873 0.0
C85 C 0.2218 0.76518 0.05683 0.0
C86 C 0.20085 0.74589 0.05971 0.0
C87 C 0.19335 0.73783 0.11489 0.0
C88 C 0.20631 0.74877 0.16717 0.0
C89 C 0.22678 0.7688 0.16414 0.0
H90 H 0.47948 0.31482 0.15097 0.0
H91 H 0.49473 0.27082 0.24545 0.0
H92 H 0.48813 0.26528 0.05373 0.0
H93 H 0.51281 0.25415 0.06513 0.0
H94 H 0.51467 0.20024 0.14964 0.0
H95 H 0.48544 0.2348 0.2358 0.0
C96 C 0.48264 0.30082 0.15028 0.0
C97 C 0.48355 0.29099 0.09613 0.0
C98 C 0.48631 0.29329 0.20374 0.0
C99 C 0.49097 0.27561 0.20347 0.0
C100 C 0.49197 0.26517 0.14973 0.0
C101 C 0.48802 0.27306 0.09595 0.0
C102 C 0.49807 0.24692 0.15007 0.0
C103 C 0.50871 0.24355 0.1021 0.0
C104 C 0.51451 0.22663 0.1013 0.0
C105 C 0.5107 0.21368 0.15042 0.0
C106 C 0.50085 0.21696 0.19965 0.0
C107 C 0.4939 0.23308 0.19858 0.0
C108 C 0.0437 0.50541 0.51941 0.0
C109 C 0.03335 0.46798 0.72261 0.0
C110 C 0.96896 0.46506 0.71103 0.0
Mg111 Mg 0.02262 0.53538 0.46935 0.0
Mg112 Mg 0.01245 0.56657 0.56351 0.0
O113 O 1.00639 0.5375 0.53846 0.0
Mg114 Mg 0.01389 0.52056 0.5958 0.0
O115 O 0.02158 0.50245 0.6487 0.0
Mg116 Mg 1.00478 0.47214 0.60426 0.0
Mg117 Mg 0.01715 0.50323 0.72954 0.0
C118 C 0.98356 0.53785 0.667 0.0
O119 O 0.03981 0.5521 0.65227 0.0
O120 O 1.00394 0.55066 0.41689 0.0
O121 O 0.03588 0.53992 0.74462 0.0
O122 O 0.0527 0.57136 0.48892 0.0
O123 O 0.99813 0.5718 0.48476 0.0
O124 O 0.04772 0.5902 0.56326 0.0
O125 O 0.98844 0.48776 0.54531 0.0
O126 O 0.99286 0.49914 0.45344 0.0
C127 C 0.98313 0.48371 0.48973 0.0
C128 C 0.99651 0.56395 0.43157 0.0
O129 O 0.98781 0.52191 0.65482 0.0
O130 O 0.0242 0.4612 0.6698 0.0
O131 O 0.99299 0.55669 0.64193 0.0
O132 O 0.97527 0.45896 0.66512 0.0
O133 O 0.03246 0.48367 0.75282 0.0
O134 O 0.98198 0.48344 0.74118 0.0
O135 O 0.03906 0.52092 0.53239 0.0
O136 O 0.03368 0.48636 0.54277 0.0
C137 C 0.05988 0.58888 0.5242 0.0
C138 C 0.04434 0.55572 0.7085 0.0
C139 C 0.50192 0.04312 0.50319 0.0
C140 C 0.57219 0.03633 0.44896 0.0
C141 C 0.53597 0.97134 0.52432 0.0
Mg142 Mg 0.47006 0.02109 0.61254 0.0
Mg143 Mg 0.48998 0.01035 0.73405 0.0
O144 O 0.48393 0.00476 0.65185 0.0
Mg145 Mg 0.50992 0.01406 0.60253 0.0
O146 O 0.53482 0.02334 0.54967 0.0
Mg147 Mg 0.51744 0.00595 0.47516 0.0
Mg148 Mg 0.55906 0.01984 0.57548 0.0
C149 C 0.51579 0.9839 0.70662 0.0
O150 O 0.5355 0.04167 0.66914 0.0
O151 O 0.44044 1.00161 0.67401 0.0
O152 O 0.56689 0.03985 0.65968 0.0
O153 O 0.48721 0.0518 0.68028 0.0
O154 O 0.45574 0.99526 0.7552 0.0
O155 O 0.50625 0.04613 0.7526 0.0
O156 O 0.4864 0.98794 0.53139 0.0
O157 O 0.4562 0.99129 0.5429 0.0
C158 C 0.46609 0.9821 0.51676 0.0
C159 C 0.43881 0.99343 0.7251 0.0
O160 O 0.51701 0.98879 0.65207 0.0
O161 O 0.55145 0.02685 0.43064 0.0
O162 O 0.50795 0.99192 0.74499 0.0
O163 O 0.52517 0.97737 0.48966 0.0
O164 O 0.5785 0.03544 0.50217 0.0
O165 O 0.54934 0.9846 0.56647 0.0
O166 O 0.50102 0.03821 0.55744 0.0
O167 O 0.50872 0.03404 0.465 0.0
C168 C 0.50084 0.05897 0.72603 0.0
C169 C 0.55587 0.048 0.68483 0.0
C170 C 0.52561 0.55978 0.67743 0.0
C171 C 0.45927 0.49447 0.78054 0.0
C172 C 0.48723 0.45351 0.71623 0.0
Mg173 Mg 0.54971 0.55698 0.56064 0.0
Mg174 Mg 0.52188 0.51741 0.45406 0.0
O175 O 0.53138 0.52412 0.53453 0.0
Mg176 Mg 0.50924 0.51345 0.59686 0.0
O177 O 0.48889 0.50439 0.66281 0.0
Mg178 Mg 0.51045 0.51089 0.73224 0.0
Mg179 Mg 0.46339 0.47559 0.65711 0.0
C180 C 0.49467 0.46888 0.50725 0.0
O181 O 0.47966 0.51001 0.53763 0.0
O182 O 0.57493 0.55844 0.49227 0.0
O183 O 0.45064 0.47898 0.57089 0.0
O184 O 0.53211 0.5678 0.4912 0.0
O185 O 0.55494 0.53035 0.4228 0.0
O186 O 0.50894 0.5391 0.42834 0.0
O187 O 0.53611 0.5152 0.6624 0.0
O188 O 0.56566 0.54535 0.6311 0.0
C189 C 0.55709 0.5292 0.66581 0.0
C190 C 0.57358 0.54668 0.44504 0.0
O191 O 0.49775 0.47731 0.56069 0.0
O192 O 0.48069 0.50589 0.78939 0.0
O193 O 0.50066 0.48107 0.46224 0.0
O194 O 0.50054 0.47331 0.73946 0.0
O195 O 0.44957 0.4817 0.73364 0.0
O196 O 0.47203 0.45011 0.67685 0.0
O197 O 0.52231 0.55035 0.62552 0.0
O198 O 0.52134 0.54826 0.72325 0.0
C199 C 0.51731 0.55959 0.44803 0.0
C200 C 0.45891 0.49466 0.53436 0.0
H201 H 0.21808 0.54664 0.22158 0.0
H202 H 0.19458 0.55288 0.28997 0.0
H203 H 0.15049 0.48109 0.28957 0.0
H204 H 0.17369 0.47489 0.22139 0.0
H205 H 0.1471 0.53671 0.26255 0.0
H206 H 0.16197 0.50315 0.46731 0.0
H207 H 0.18118 0.51238 0.40924 0.0
H208 H 0.15648 0.48505 0.40213 0.0
C209 C 0.20368 0.53225 0.23747 0.0
C210 C 0.19773 0.51028 0.2168 0.0
C211 C 0.19021 0.53582 0.27605 0.0
C212 C 0.17089 0.51743 0.29519 0.0
C213 C 0.16548 0.4955 0.2761 0.0
H214 H 0.05236 0.47437 0.46781 0.0
H215 H 0.0846 0.48099 0.41416 0.0
C216 C 0.17871 0.49196 0.23719 0.0
C217 C 0.15527 0.52078 0.33152 0.0
H218 H 0.12845 0.50518 0.45912 0.0
C219 C 0.14328 0.53026 0.30609 0.0
C220 C 0.15035 0.51235 0.38821 0.0
C221 C 0.1633 0.50284 0.41868 0.0
C222 C 0.12549 0.53018 0.33428 0.0
C223 C 0.11983 0.52067 0.38972 0.0
C224 C 0.13266 0.51231 0.41643 0.0
C225 C 0.09956 0.51727 0.4186 0.0
C226 C 0.11209 0.53905 0.30305 0.0
C227 C 0.09695 0.53548 0.43813 0.0
C228 C 0.07827 0.53172 0.46871 0.0
C229 C 0.06206 0.5097 0.48078 0.0
C230 C 0.06453 0.49156 0.45965 0.0
C231 C 0.08302 0.49531 0.42902 0.0
H232 H 0.11601 0.54192 0.25603 0.0
H233 H 0.09397 0.52715 0.30485 0.0
H234 H 0.11589 0.55534 0.32549 0.0
H235 H 0.10963 0.55261 0.43135 0.0
H236 H 0.07698 0.54607 0.48479 0.0
H237 H 0.73271 0.18187 0.14825 0.0
H238 H 0.71108 0.14881 0.20514 0.0
H239 H 0.68491 0.1851 0.301 0.0
H240 H 0.70695 0.21821 0.24528 0.0
H241 H 0.69037 0.15595 0.37011 0.0
H242 H 0.64484 0.11326 0.15524 0.0
H243 H 0.67408 0.12252 0.15852 0.0
H244 H 0.66501 0.14293 0.16345 0.0
C245 C 0.7232 0.18306 0.18359 0.0
C246 C 0.72166 0.20256 0.19323 0.0
C247 C 0.71055 0.16408 0.21527 0.0
C248 C 0.6959 0.1643 0.25608 0.0
C249 C 0.696 0.18451 0.26952 0.0
H250 H 0.56886 0.05966 0.35717 0.0
H251 H 0.5998 0.08946 0.30791 0.0
C252 C 0.70875 0.2035 0.23818 0.0
C253 C 0.67879 0.14315 0.28014 0.0
H254 H 0.63254 0.09234 0.23949 0.0
C255 C 0.67784 0.14194 0.34162 0.0
C256 C 0.66212 0.12512 0.24277 0.0
C257 C 0.66134 0.126 0.17635 0.0
C258 C 0.66065 0.12329 0.36684 0.0
C259 C 0.64424 0.10505 0.32948 0.0
C260 C 0.64526 0.1062 0.268 0.0
C261 C 0.62534 0.08516 0.35354 0.0
C262 C 0.65974 0.12375 0.43324 0.0
C263 C 0.62929 0.07212 0.39321 0.0
C264 C 0.61172 0.05527 0.42162 0.0
C265 C 0.58976 0.05081 0.41008 0.0
C266 C 0.58557 0.06265 0.36682 0.0
C267 C 0.60326 0.07975 0.3389 0.0
H268 H 0.66983 0.14113 0.45395 0.0
H269 H 0.64234 0.11665 0.44619 0.0
H270 H 0.66657 0.11345 0.45144 0.0
H271 H 0.64609 0.0755 0.40378 0.0
H272 H 0.61543 0.04624 0.45422 0.0
H273 H 0.48509 0.67883 0.07345 0.0
H274 H 0.4787 0.65004 0.14291 0.0
H275 H 0.52629 0.70144 0.27015 0.0
H276 H 0.53254 0.73037 0.20071 0.0
H277 H 0.51241 0.64253 0.17866 0.0
H278 H 0.47718 0.6606 0.37476 0.0
H279 H 0.47703 0.67194 0.30418 0.0
H280 H 0.50196 0.68456 0.35245 0.0
C281 C 0.4937 0.68404 0.11692 0.0
C282 C 0.50934 0.70683 0.13168 0.0
C283 C 0.49008 0.66758 0.15654 0.0
C284 C 0.50195 0.67352 0.21189 0.0
C285 C 0.51661 0.69644 0.22819 0.0
H286 H 0.53391 0.60464 0.47405 0.0
H287 H 0.52755 0.63079 0.41779 0.0
C288 C 0.52018 0.71299 0.18851 0.0
C289 C 0.5011 0.65558 0.24874 0.0
H290 H 0.4909 0.63504 0.3861 0.0
C291 C 0.50743 0.64072 0.2238 0.0
C292 C 0.4948 0.65334 0.30778 0.0
C293 C 0.48716 0.66832 0.33633 0.0
C294 C 0.50824 0.62411 0.25656 0.0
C295 C 0.50205 0.6219 0.31576 0.0
C296 C 0.49549 0.63662 0.34063 0.0
C297 C 0.50369 0.60534 0.35334 0.0
C298 C 0.51661 0.60971 0.22811 0.0
C299 C 0.49178 0.58212 0.33717 0.0
C300 C 0.49552 0.56702 0.36908 0.0
C301 C 0.51111 0.57486 0.41811 0.0
C302 C 0.52196 0.59796 0.4362 0.0
C303 C 0.51829 0.613 0.40415 0.0
H304 H 0.52563 0.61708 0.18808 0.0
H305 H 0.52793 0.60748 0.25958 0.0
H306 H 0.50223 0.59282 0.21454 0.0
H307 H 0.48001 0.57573 0.29895 0.0
H308 H 0.48662 0.54934 0.35436 0.0
H309 H 0.86405 0.59702 0.08134 0.0
H310 H 0.89745 0.60719 0.14521 0.0
H311 H 0.85769 0.55403 0.2577 0.0
H312 H 0.82427 0.54444 0.19524 0.0
H313 H 0.8929 0.58905 0.31963 0.0
H314 H 0.92005 0.56346 0.11794 0.0
H315 H 0.91631 0.58738 0.11071 0.0
H316 H 0.89271 0.56025 0.12159 0.0
C317 C 0.86237 0.5883 0.12138 0.0
C318 C 0.84173 0.5699 0.13346 0.0
C319 C 0.88145 0.59387 0.15727 0.0
C320 C 0.88012 0.58079 0.20478 0.0
C321 C 0.85911 0.56418 0.22082 0.0
H322 H 0.96801 0.53669 0.33983 0.0
H323 H 0.94159 0.5434 0.28141 0.0
C324 C 0.83998 0.55882 0.18545 0.0
C325 C 0.90043 0.58216 0.2329 0.0
H326 H 0.94347 0.57305 0.20447 0.0
C327 C 0.90413 0.5858 0.29449 0.0
C328 C 0.91469 0.57733 0.19993 0.0
C329 C 0.9107 0.57166 0.134 0.0
C330 C 0.92147 0.58439 0.32428 0.0
C331 C 0.93596 0.57996 0.29122 0.0
C332 C 0.93249 0.57669 0.22953 0.0
C333 C 0.95389 0.57718 0.32028 0.0
C334 C 0.92335 0.58657 0.39102 0.0
C335 C 0.97025 0.59432 0.35909 0.0
C336 C 0.98505 0.59038 0.39293 0.0
C337 C 0.98413 0.56944 0.38734 0.0
C338 C 0.96908 0.55298 0.34474 0.0
C339 C 0.95396 0.55679 0.31163 0.0
H340 H 0.90764 0.58388 0.40939 0.0
H341 H 0.92758 0.57428 0.4095 0.0
H342 H 0.93673 0.6038 0.40625 0.0
H343 H 0.971 0.61044 0.36496 0.0
H344 H 0.99672 0.60345 0.42504 0.0
H345 H 0.33763 0.82318 0.12604 0.0
H346 H 0.37086 0.84375 0.19368 0.0
H347 H 0.33104 0.85138 0.32424 0.0
H348 H 0.29775 0.83043 0.25702 0.0
H349 H 0.38459 0.88707 0.22274 0.0
H350 H 0.37478 0.84291 0.42812 0.0
H351 H 0.35827 0.8288 0.36032 0.0
H352 H 0.35063 0.84504 0.40822 0.0
C353 C 0.3359 0.8285 0.17012 0.0
C354 C 0.31524 0.82537 0.18644 0.0
C355 C 0.35485 0.84026 0.20864 0.0
C356 C 0.35346 0.84908 0.26407 0.0
C357 C 0.33248 0.84434 0.28224 0.0
H358 H 0.42755 0.97227 0.45535 0.0
H359 H 0.40353 0.93885 0.39053 0.0
C360 C 0.31345 0.83241 0.2438 0.0
C361 C 0.37402 0.86651 0.29768 0.0
H362 H 0.39947 0.88354 0.43654 0.0
C363 C 0.38813 0.88602 0.26914 0.0
C364 C 0.37873 0.86517 0.35813 0.0
C365 C 0.36491 0.84423 0.3903 0.0
C366 C 0.40592 0.90475 0.30032 0.0
C367 C 0.4096 0.90398 0.36153 0.0
C368 C 0.39646 0.88404 0.38949 0.0
C369 C 0.42511 0.92457 0.39818 0.0
C370 C 0.42009 0.92563 0.26825 0.0
C371 C 0.44531 0.92762 0.42323 0.0
C372 C 0.45926 0.94689 0.45992 0.0
C373 C 0.45295 0.96311 0.47269 0.0
C374 C 0.43286 0.96008 0.44649 0.0
C375 C 0.41912 0.94102 0.40947 0.0
H376 H 0.41838 0.92197 0.21962 0.0
H377 H 0.41482 0.93823 0.27782 0.0
H378 H 0.43792 0.93327 0.28368 0.0
H379 H 0.45013 0.91502 0.4149 0.0
H380 H 0.47456 0.94871 0.4799 0.0
H381 H 0.51287 0.33736 0.23726 0.0
H382 H 0.50903 0.35833 0.32087 0.0
H383 H 0.4549 0.29674 0.37826 0.0
H384 H 0.45884 0.27556 0.29393 0.0
H385 H 0.44433 0.33071 0.36305 0.0
H386 H 0.52313 0.36456 0.49945 0.0
H387 H 0.5284 0.36835 0.42276 0.0
H388 H 0.5131 0.34027 0.44784 0.0
C389 C 0.50054 0.32825 0.26862 0.0
C390 C 0.48617 0.30494 0.25956 0.0
C391 C 0.49845 0.34018 0.31656 0.0
C392 C 0.4819 0.32904 0.35629 0.0
C393 C 0.46795 0.30557 0.34849 0.0
H394 H 0.49148 0.43861 0.58773 0.0
H395 H 0.4821 0.39949 0.56663 0.0
C396 C 0.47023 0.29353 0.30062 0.0
C397 C 0.47768 0.34269 0.40041 0.0
H398 H 0.50628 0.38863 0.49691 0.0
C399 C 0.45758 0.34293 0.39384 0.0
C400 C 0.49472 0.35828 0.44154 0.0
C401 C 0.51595 0.35769 0.45379 0.0
C402 C 0.45513 0.36002 0.4223 0.0
C403 C 0.47335 0.37737 0.45727 0.0
C404 C 0.49241 0.37557 0.46924 0.0
C405 C 0.47467 0.39919 0.47296 0.0
C406 C 0.43349 0.35998 0.41205 0.0
C407 C 0.47322 0.41188 0.42755 0.0
C408 C 0.47854 0.43416 0.43941 0.0
C409 C 0.48558 0.44432 0.49693 0.0
C410 C 0.48593 0.43125 0.54302 0.0
C411 C 0.48064 0.4089 0.53104 0.0
H412 H 0.41923 0.34247 0.40596 0.0
H413 H 0.43055 0.36892 0.44935 0.0
H414 H 0.43398 0.3685 0.37098 0.0
H415 H 0.46922 0.405 0.38215 0.0
H416 H 0.47803 0.4437 0.40292 0.0
H417 H 0.50022 0.83152 0.00457 0.0
H418 H 0.4999 0.85711 0.93268 0.0
H419 H 0.552 0.85372 0.84305 0.0
H420 H 0.55228 0.82786 0.91535 0.0
H421 H 0.56115 0.89829 0.87581 0.0
H422 H 0.47817 0.84843 0.75678 0.0
H423 H 0.4771 0.84761 0.83567 0.0
H424 H 0.4914 0.83558 0.79758 0.0
C425 C 0.51122 0.8358 0.96866 0.0
C426 C 0.5262 0.82765 0.96529 0.0
C427 C 0.51099 0.85037 0.92748 0.0
C428 C 0.52578 0.8572 0.8821 0.0
C429 C 0.54032 0.84853 0.87744 0.0
H430 H 0.51764 0.95096 0.63846 0.0
H431 H 0.52313 0.92041 0.67286 0.0
C432 C 0.54038 0.83368 0.91843 0.0
C433 C 0.52732 0.87502 0.84372 0.0
H434 H 0.49564 0.88875 0.7542 0.0
C435 C 0.54698 0.89608 0.84828 0.0
C436 C 0.50892 0.87214 0.80737 0.0
C437 C 0.48777 0.84965 0.79849 0.0
C438 C 0.54822 0.91464 0.82042 0.0
C439 C 0.52928 0.91214 0.78747 0.0
C440 C 0.51011 0.89074 0.77986 0.0
C441 C 0.52829 0.93182 0.76529 0.0
C442 C 0.56963 0.93695 0.82764 0.0
C443 C 0.52955 0.94848 0.80565 0.0
C444 C 0.52639 0.96588 0.78619 0.0
C445 C 0.52195 0.96708 0.7258 0.0
C446 C 0.52138 0.95076 0.68513 0.0
C447 C 0.52435 0.93318 0.70477 0.0
H448 H 0.58414 0.9347 0.83856 0.0
H449 H 0.57262 0.94627 0.78684 0.0
H450 H 0.5685 0.94739 0.86441 0.0
H451 H 0.5322 0.94759 0.85262 0.0
H452 H 0.5269 0.9781 0.81875 0.0
H453 H 0.72697 0.54271 0.92149 0.0
H454 H 0.69628 0.53827 0.85432 0.0
H455 H 0.65221 0.4747 0.92584 0.0
H456 H 0.68275 0.47933 0.9938 0.0
H457 H 0.66443 0.50532 0.76943 0.0
H458 H 0.62576 0.51465 0.97122 0.0
H459 H 0.65404 0.52005 0.97289 0.0
H460 H 0.63116 0.49159 0.96877 0.0
C461 C 0.71093 0.52744 0.92128 0.0
C462 C 0.70709 0.51143 0.96287 0.0
C463 C 0.6934 0.52496 0.88324 0.0
C464 C 0.67189 0.50644 0.88632 0.0
C465 C 0.66859 0.48935 0.92377 0.0
H466 H 0.54696 0.49276 0.73172 0.0
H467 H 0.57338 0.4846 0.78495 0.0
C468 C 0.68604 0.4919 0.96211 0.0
C469 C 0.65266 0.50632 0.85527 0.0
H470 H 0.6069 0.51128 0.87979 0.0
C471 C 0.65173 0.50641 0.79345 0.0
C472 C 0.63615 0.5078 0.88691 0.0
C473 C 0.63681 0.50871 0.95362 0.0
C474 C 0.63489 0.50828 0.7624 0.0
C475 C 0.61881 0.51044 0.79418 0.0
C476 C 0.61926 0.50956 0.85576 0.0
C477 C 0.60259 0.51554 0.76466 0.0
C478 C 0.63455 0.50822 0.69586 0.0
C479 C 0.61027 0.53598 0.73788 0.0
C480 C 0.59532 0.54078 0.70807 0.0
C481 C 0.57232 0.52521 0.70448 0.0
C482 C 0.56455 0.50511 0.73367 0.0
C483 C 0.57961 0.50035 0.76376 0.0
H484 H 0.64388 0.50034 0.67755 0.0
H485 H 0.6172 0.49908 0.67586 0.0
H486 H 0.64255 0.52586 0.68258 0.0
H487 H 0.62793 0.54815 0.73944 0.0
H488 H 0.60191 0.5565 0.6866 0.0
H489 H 0.21435 0.7326 0.96198 0.0
H490 H 0.19049 0.70587 0.88058 0.0
H491 H 0.13267 0.70231 0.95563 0.0
H492 H 0.15641 0.72933 0.03603 0.0
H493 H 0.15912 0.66318 0.90214 0.0
H494 H 0.11874 0.70321 0.78052 0.0
H495 H 0.14371 0.71922 0.82856 0.0
H496 H 0.11678 0.70543 0.85883 0.0
C497 C 0.19664 0.72668 0.95994 0.0
C498 C 0.18719 0.73292 0.00542 0.0
C499 C 0.18303 0.71137 0.91359 0.0
C500 C 0.15983 0.70227 0.91171 0.0
C501 C 0.15054 0.70945 0.95541 0.0
H502 H 0.05155 0.57231 0.82335 0.0
H503 H 0.08074 0.60919 0.86482 0.0
C504 C 0.1641 0.72469 0.00172 0.0
C505 C 0.14501 0.6829 0.86996 0.0
H506 H 0.09902 0.66231 0.7739 0.0
C507 C 0.14629 0.66316 0.87314 0.0
C508 C 0.12834 0.68289 0.83194 0.0
C509 C 0.12694 0.70392 0.82425 0.0
C510 C 0.13053 0.64306 0.84209 0.0
C511 C 0.11297 0.64268 0.80745 0.0
C512 C 0.11239 0.66267 0.80126 0.0
C513 C 0.09434 0.62125 0.78088 0.0
C514 C 0.13233 0.62216 0.84797 0.0
C515 C 0.09213 0.61612 0.71979 0.0
C516 C 0.07553 0.59496 0.69592 0.0
C517 C 0.06076 0.57875 0.73274 0.0
C518 C 0.06268 0.58433 0.79375 0.0
C519 C 0.07931 0.6054 0.81754 0.0
H520 H 0.14924 0.62627 0.86523 0.0
H521 H 0.12014 0.6112 0.87916 0.0
H522 H 0.12838 0.61245 0.80468 0.0
H523 H 0.10368 0.62818 0.69093 0.0
H524 H 0.07484 0.59105 0.64903 0.0
H525 H 0.54713 0.21521 0.09494 0.0
H526 H 0.55264 0.19559 0.01139 0.0
H527 H 0.50659 0.20583 0.90168 0.0
H528 H 0.49999 0.22432 0.98608 0.0
H529 H 0.49298 0.16297 0.90765 0.0
H530 H 0.5814 0.20487 0.8577 0.0
H531 H 0.57878 0.20011 0.93486 0.0
H532 H 0.57037 0.2187 0.90317 0.0
C533 C 0.53852 0.21371 0.05268 0.0
C534 C 0.52271 0.22084 0.04754 0.0
C535 C 0.54198 0.20278 0.00458 0.0
C536 C 0.53006 0.19923 0.95009 0.0
C537 C 0.51599 0.20841 0.9433 0.0
H538 H 0.49454 0.09157 0.67814 0.0
H539 H 0.50503 0.12863 0.72343 0.0
C540 C 0.51232 0.21909 0.99161 0.0
C541 C 0.52871 0.18224 0.90521 0.0
H542 H 0.5597 0.16429 0.8314 0.0
C543 C 0.50756 0.16358 0.88987 0.0
C544 C 0.54775 0.18284 0.88265 0.0
C545 C 0.5708 0.20286 0.8951 0.0
C546 C 0.50496 0.14508 0.855 0.0
C547 C 0.52402 0.14534 0.83411 0.0
C548 C 0.54516 0.16421 0.84773 0.0
C549 C 0.522 0.12536 0.80116 0.0
C550 C 0.48188 0.12491 0.84316 0.0
C551 C 0.52904 0.11178 0.82874 0.0
C552 C 0.52301 0.0905 0.80312 0.0
C553 C 0.50983 0.08253 0.74954 0.0
C554 C 0.50431 0.09697 0.72 0.0
C555 C 0.51038 0.11822 0.74559 0.0
H556 H 0.46955 0.12581 0.87135 0.0
H557 H 0.47621 0.12408 0.79626 0.0
H558 H 0.482 0.10907 0.85093 0.0
H559 H 0.53812 0.11711 0.87162 0.0
H560 H 0.52787 0.07996 0.82654 0.0
H561 H 0.29344 0.49324 0.0029 0.0
H562 H 0.32159 0.4914 0.94434 0.0
H563 H 0.37007 0.55899 0.00959 0.0
H564 H 0.34205 0.56079 0.06847 0.0
H565 H 0.35317 0.51856 0.85983 0.0
H566 H 0.39384 0.51871 0.07626 0.0
H567 H 0.36596 0.51441 0.06912 0.0
H568 H 0.38955 0.54223 0.06696 0.0
C569 C 0.30981 0.50805 0.00255 0.0
C570 C 0.31561 0.52715 0.04013 0.0
C571 C 0.32595 0.5069 0.96965 0.0
C572 C 0.34804 0.52483 0.97398 0.0
C573 C 0.35323 0.5448 0.00659 0.0
H574 H 0.47018 0.53106 0.85703 0.0
H575 H 0.44397 0.53946 0.90647 0.0
C576 C 0.33715 0.54594 0.03954 0.0
C577 C 0.366 0.52178 0.94964 0.0
H578 H 0.41133 0.51687 0.99079 0.0
C579 C 0.36593 0.51827 0.88837 0.0
C580 C 0.38263 0.52138 0.98712 0.0
C581 C 0.38302 0.52419 0.05356 0.0
C582 C 0.38209 0.51443 0.86348 0.0
C583 C 0.39846 0.51361 0.901 0.0
C584 C 0.39878 0.51752 0.9622 0.0
C585 C 0.41474 0.50773 0.87736 0.0
C586 C 0.38158 0.51142 0.7971 0.0
C587 C 0.40712 0.48669 0.84747 0.0
C588 C 0.42197 0.48184 0.81957 0.0
C589 C 0.44484 0.49787 0.82132 0.0
C590 C 0.45271 0.51833 0.85506 0.0
C591 C 0.43773 0.52322 0.88291 0.0
H592 H 0.37225 0.51863 0.77453 0.0
H593 H 0.3987 0.51949 0.78154 0.0
H594 H 0.37312 0.49316 0.7837 0.0
H595 H 0.38953 0.47425 0.84405 0.0
H596 H 0.41537 0.46582 0.79452 0.0
H597 H 0.79589 0.33375 0.98786 0.0
H598 H 0.81954 0.35962 0.91598 0.0
H599 H 0.8557 0.32357 0.90486 0.0
H600 H 0.83229 0.29801 0.97762 0.0
H601 H 0.88234 0.36793 0.93798 0.0
H602 H 0.8287 0.35912 0.73943 0.0
H603 H 0.81835 0.36284 0.80782 0.0
H604 H 0.8202 0.3379 0.79291 0.0
C605 C 0.80826 0.33082 0.96792 0.0
C606 C 0.8121 0.31374 0.98715 0.0
C607 C 0.82178 0.3456 0.92695 0.0
C608 C 0.83931 0.34346 0.90461 0.0
C609 C 0.84219 0.32546 0.92119 0.0
H610 H 0.93805 0.42323 0.66257 0.0
H611 H 0.90504 0.39474 0.70734 0.0
C612 C 0.82874 0.31076 0.96228 0.0
C613 C 0.85656 0.3617 0.87148 0.0
H614 H 0.86512 0.39161 0.74831 0.0
C615 C 0.87856 0.373 0.89633 0.0
C616 C 0.85164 0.36834 0.81719 0.0
C617 C 0.82848 0.3563 0.78739 0.0
C618 C 0.89574 0.39077 0.86871 0.0
C619 C 0.89076 0.39782 0.8152 0.0
C620 C 0.86882 0.3864 0.78981 0.0
C621 C 0.90854 0.41625 0.78388 0.0
C622 C 0.9192 0.40155 0.89654 0.0
C623 C 0.92092 0.43813 0.81081 0.0
C624 C 0.93994 0.45449 0.78553 0.0
C625 C 0.94686 0.44926 0.73269 0.0
C626 C 0.93341 0.42781 0.70365 0.0
C627 C 0.91445 0.41147 0.72906 0.0
H628 H 0.92097 0.39093 0.92977 0.0
H629 H 0.93132 0.4047 0.86245 0.0
H630 H 0.9236 0.41798 0.91926 0.0
H631 H 0.91637 0.44229 0.85262 0.0
H632 H 0.94969 0.47091 0.80869 0.0
H633 H 0.81991 0.49903 0.99812 0.0
H634 H 0.84548 0.49296 0.93848 0.0
H635 H 0.85177 0.54508 0.82665 0.0
H636 H 0.82626 0.55121 0.88652 0.0
H637 H 0.85181 0.50329 0.769 0.0
H638 H 0.91234 0.54866 0.96188 0.0
H639 H 0.88584 0.52494 0.97628 0.0
H640 H 0.88706 0.54989 0.95019 0.0
C641 C 0.82585 0.50833 0.95893 0.0
C642 C 0.82081 0.52526 0.94607 0.0
C643 C 0.84065 0.50506 0.92537 0.0
C644 C 0.85067 0.51872 0.87856 0.0
C645 C 0.84414 0.53429 0.86246 0.0
H646 H 0.97514 0.56906 0.72012 0.0
H647 H 0.94266 0.56218 0.77373 0.0
C648 C 0.8294 0.53763 0.89622 0.0
C649 C 0.87007 0.51907 0.85195 0.0
H650 H 0.92566 0.53821 0.87983 0.0
C651 C 0.8679 0.51067 0.7933 0.0
C652 C 0.89111 0.52898 0.88369 0.0
C653 C 0.89445 0.5388 0.9464 0.0
C654 C 0.88632 0.51208 0.76538 0.0
C655 C 0.90739 0.52212 0.79705 0.0
C656 C 0.90947 0.53034 0.85586 0.0
C657 C 0.92781 0.52592 0.7684 0.0
C658 C 0.88333 0.50355 0.70159 0.0
C659 C 0.93062 0.50783 0.74921 0.0
C660 C 0.94932 0.51172 0.71875 0.0
C661 C 0.96551 0.53378 0.70676 0.0
C662 C 0.963 0.55186 0.72826 0.0
C663 C 0.94442 0.54796 0.75894 0.0
H664 H 0.86686 0.49942 0.68078 0.0
H665 H 0.89663 0.51629 0.67576 0.0
H666 H 0.88468 0.48808 0.69897 0.0
H667 H 0.91816 0.49069 0.7568 0.0
H668 H 0.9506 0.49738 0.70253 0.0
H669 H 0.31801 0.83502 0.97651 0.0
H670 H 0.33402 0.86354 0.90459 0.0
H671 H 0.2821 0.87999 0.92726 0.0
H672 H 0.26633 0.85166 0.00148 0.0
H673 H 0.32072 0.87286 0.80052 0.0
H674 H 0.33769 0.93957 0.97566 0.0
H675 H 0.32793 0.91076 0.99248 0.0
H676 H 0.30906 0.91849 0.95846 0.0
C677 C 0.3098 0.84449 0.96558 0.0
C678 C 0.29116 0.8414 0.99528 0.0
C679 C 0.31891 0.86074 0.92423 0.0
C680 C 0.30959 0.87431 0.91137 0.0
C681 C 0.28989 0.87008 0.93746 0.0
H682 H 0.39702 0.97606 0.66818 0.0
H683 H 0.36114 0.9492 0.70615 0.0
C684 C 0.28074 0.85373 0.9793 0.0
C685 C 0.32206 0.89393 0.87497 0.0
H686 H 0.35536 0.9512 0.8879 0.0
C687 C 0.32792 0.89006 0.81893 0.0
C688 C 0.33151 0.91637 0.89922 0.0
C689 C 0.32642 0.9217 0.95985 0.0
C690 C 0.34421 0.90776 0.78859 0.0
C691 C 0.35455 0.93005 0.81439 0.0
C692 C 0.34739 0.93411 0.86819 0.0
C693 C 0.37532 0.9485 0.79225 0.0
C694 C 0.35147 0.90217 0.73157 0.0
C695 C 0.39501 0.9579 0.82883 0.0
C696 C 0.41535 0.97332 0.80765 0.0
C697 C 0.4166 0.97979 0.74913 0.0
C698 C 0.39669 0.97137 0.71336 0.0
C699 C 0.37619 0.95586 0.73483 0.0
H700 H 0.34408 0.88373 0.72226 0.0
H701 H 0.34616 0.90887 0.69434 0.0
H702 H 0.36989 0.91013 0.73301 0.0
H703 H 0.39482 0.95259 0.87334 0.0
H704 H 0.43023 0.97957 0.83682 0.0
H705 H 0.4498 0.29854 0.06249 0.0
H706 H 0.4493 0.32181 0.9839 0.0
H707 H 0.51179 0.33044 0.92877 0.0
H708 H 0.51207 0.30669 0.00694 0.0
H709 H 0.47989 0.36536 0.98185 0.0
H710 H 0.47847 0.3216 0.77007 0.0
H711 H 0.47161 0.30765 0.8385 0.0
H712 H 0.50025 0.32554 0.82298 0.0
C713 C 0.46311 0.30488 0.0325 0.0
C714 C 0.48096 0.30078 0.04081 0.0
C715 C 0.46286 0.31824 0.98767 0.0
C716 C 0.48047 0.32791 0.95007 0.0
C717 C 0.49777 0.32287 0.95628 0.0
H718 H 0.51943 0.4548 0.79273 0.0
H719 H 0.51847 0.42368 0.84412 0.0
C720 C 0.49794 0.30928 0.00102 0.0
C721 C 0.48186 0.34526 0.90971 0.0
H722 H 0.4869 0.35984 0.76596 0.0
C723 C 0.4813 0.36403 0.93461 0.0
C724 C 0.48359 0.34357 0.84792 0.0
C725 C 0.48331 0.32341 0.81807 0.0
C726 C 0.48264 0.38116 0.89991 0.0
C727 C 0.48508 0.37987 0.83846 0.0
C728 C 0.48529 0.36096 0.81314 0.0
C729 C 0.48725 0.39807 0.80046 0.0
C730 C 0.48108 0.40039 0.92941 0.0
C731 C 0.47061 0.39391 0.75637 0.0
C732 C 0.47116 0.41174 0.72641 0.0
C733 C 0.48836 0.43408 0.74008 0.0
C734 C 0.50573 0.4379 0.78153 0.0
C735 C 0.5052 0.42011 0.81118 0.0
H736 H 0.47365 0.39606 0.97288 0.0
H737 H 0.49805 0.41524 0.93703 0.0
H738 H 0.47092 0.40524 0.90106 0.0
H739 H 0.45667 0.37702 0.74704 0.0
H740 H 0.45758 0.40811 0.69453 0.0
H741 H 0.18304 0.44741 0.02496 0.0
H742 H 0.15373 0.43206 0.94397 0.0
H743 H 0.1697 0.49968 0.90746 0.0
H744 H 0.19911 0.51478 0.98672 0.0
H745 H 0.11811 0.43554 0.94595 0.0
H746 H 0.15758 0.47282 0.74274 0.0
H747 H 0.17361 0.47272 0.8073 0.0
H748 H 0.16698 0.4949 0.79979 0.0
C749 C 0.18082 0.45888 0.99765 0.0
C750 C 0.19345 0.48221 0.01095 0.0
C751 C 0.16404 0.45016 0.95175 0.0
C752 C 0.15966 0.46469 0.91877 0.0
C753 C 0.17312 0.48809 0.93062 0.0
H754 H 0.048 0.47201 0.8378 0.0
H755 H 0.0761 0.46402 0.87806 0.0
C756 C 0.18989 0.49675 0.97612 0.0
C757 C 0.13908 0.45583 0.87912 0.0
H758 H 0.11968 0.46704 0.75168 0.0
C759 C 0.11849 0.4419 0.90266 0.0
C760 C 0.1393 0.46352 0.82192 0.0
C761 C 0.16062 0.47659 0.79135 0.0
C762 C 0.09837 0.43745 0.87334 0.0
C763 C 0.0989 0.44766 0.81989 0.0
C764 C 0.11923 0.45958 0.79334 0.0
C765 C 0.07946 0.4492 0.79595 0.0
C766 C 0.07685 0.42259 0.9013 0.0
C767 C 0.0719 0.44362 0.73604 0.0
C768 C 0.05579 0.44839 0.71249 0.0
C769 C 0.04724 0.45912 0.74838 0.0
C770 C 0.0542 0.46377 0.80879 0.0
C771 C 0.07017 0.45898 0.83214 0.0
H772 H 0.07796 0.40934 0.92553 0.0
H773 H 0.07363 0.43294 0.9339 0.0
H774 H 0.06253 0.41436 0.86786 0.0
H775 H 0.07898 0.43625 0.70714 0.0
H776 H 0.0509 0.44473 0.6657 0.0
H777 H 0.71765 0.2291 0.93542 0.0
H778 H 0.68809 0.20651 0.85896 0.0
H779 H 0.64009 0.18239 0.99258 0.0
H780 H 0.66886 0.20678 0.06691 0.0
H781 H 0.67002 0.16589 0.84802 0.0
H782 H 0.59954 0.17979 0.8683 0.0
H783 H 0.62627 0.19912 0.90501 0.0
H784 H 0.60604 0.1748 0.94114 0.0
C785 C 0.70059 0.21992 0.94781 0.0
C786 C 0.6957 0.21929 0.00746 0.0
C787 C 0.68366 0.20673 0.90415 0.0
C788 C 0.66166 0.19239 0.91952 0.0
C789 C 0.6566 0.19347 0.97846 0.0
H790 H 0.58791 0.05593 0.77135 0.0
H791 H 0.61217 0.09162 0.82834 0.0
C792 C 0.67328 0.2072 0.0215 0.0
C793 C 0.64518 0.17362 0.87757 0.0
H794 H 0.58928 0.14008 0.84359 0.0
C795 C 0.65245 0.16069 0.84604 0.0
C796 C 0.62217 0.16672 0.87317 0.0
C797 C 0.61322 0.1811 0.89832 0.0
C798 C 0.63743 0.14065 0.81339 0.0
C799 C 0.61422 0.13229 0.81544 0.0
C800 C 0.60697 0.14587 0.84377 0.0
C801 C 0.59738 0.10973 0.78789 0.0
C802 C 0.64684 0.12894 0.77658 0.0
C803 C 0.57955 0.10729 0.75063 0.0
C804 C 0.565 0.08658 0.72046 0.0
C805 C 0.56825 0.06804 0.72611 0.0
C806 C 0.58524 0.07007 0.76581 0.0
C807 C 0.59931 0.09057 0.79758 0.0
H808 H 0.66353 0.14122 0.7621 0.0
H809 H 0.64898 0.1169 0.80362 0.0
H810 H 0.6358 0.11967 0.73663 0.0
H811 H 0.57739 0.12161 0.74283 0.0
H812 H 0.55206 0.08549 0.68982 0.0
H813 H 0.52148 0.73478 0.8715 0.0
H814 H 0.52693 0.71542 0.78582 0.0
H815 H 0.56374 0.69451 0.89965 0.0
H816 H 0.55923 0.71453 0.98397 0.0
H817 H 0.58007 0.70236 0.7917 0.0
H818 H 0.48751 0.64797 0.77026 0.0
H819 H 0.49863 0.67738 0.7595 0.0
H820 H 0.50152 0.66853 0.83134 0.0
C821 C 0.53132 0.72663 0.87763 0.0
C822 C 0.53952 0.7257 0.93448 0.0
C823 C 0.53421 0.71537 0.82886 0.0
C824 C 0.54515 0.70291 0.83661 0.0
C825 C 0.55506 0.70381 0.8925 0.0
H826 H 0.54796 0.58769 0.77426 0.0
H827 H 0.55592 0.62627 0.79425 0.0
C828 C 0.55235 0.71514 0.94081 0.0
C829 C 0.54429 0.68673 0.78973 0.0
H830 H 0.50833 0.63498 0.72202 0.0
C831 C 0.56436 0.6879 0.77519 0.0
C832 C 0.52379 0.66782 0.76795 0.0
C833 C 0.5016 0.66514 0.78315 0.0
C834 C 0.56445 0.66993 0.74369 0.0
C835 C 0.544 0.65039 0.72614 0.0
C836 C 0.52398 0.65006 0.73564 0.0
C837 C 0.54278 0.62878 0.70854 0.0
C838 C 0.58641 0.67141 0.73234 0.0
C839 C 0.53299 0.61747 0.65334 0.0
C840 C 0.5286 0.59537 0.64151 0.0
C841 C 0.53341 0.58414 0.68541 0.0
C842 C 0.54398 0.59586 0.7397 0.0
C843 C 0.5487 0.61799 0.75102 0.0
H844 H 0.60001 0.68921 0.73206 0.0
H845 H 0.59081 0.66338 0.76806 0.0
H846 H 0.58536 0.66243 0.68955 0.0
H847 H 0.52806 0.62546 0.62028 0.0
H848 H 0.52035 0.58669 0.59936 0.0
H849 H 0.46296 0.19167 0.25871 0.0
H850 H 0.45748 0.16376 0.33123 0.0
H851 H 0.5265 0.18185 0.32509 0.0
H852 H 0.53209 0.20991 0.25476 0.0
H853 H 0.46095 0.12727 0.31173 0.0
H854 H 0.5204 0.17711 0.49876 0.0
H855 H 0.51241 0.19005 0.44211 0.0
H856 H 0.53449 0.1838 0.43159 0.0
C857 C 0.47707 0.19014 0.27444 0.0
C858 C 0.49794 0.20295 0.25098 0.0
C859 C 0.47392 0.1741 0.31556 0.0
C860 C 0.49164 0.17081 0.33445 0.0
C861 C 0.51266 0.18434 0.31274 0.0
H862 H 0.49995 0.05507 0.39075 0.0
H863 H 0.49371 0.08492 0.35795 0.0
C864 C 0.5158 0.20027 0.27194 0.0
C865 C 0.48796 0.1517 0.37104 0.0
H866 H 0.51221 0.13812 0.48437 0.0
C867 C 0.47184 0.12972 0.3503 0.0
C868 C 0.50176 0.15467 0.42226 0.0
C869 C 0.51804 0.17773 0.45028 0.0
C870 C 0.47036 0.11075 0.37639 0.0
C871 C 0.48577 0.11375 0.42364 0.0
C872 C 0.50067 0.1357 0.44742 0.0
C873 C 0.48819 0.09465 0.44472 0.0
C874 C 0.45256 0.08765 0.35208 0.0
C875 C 0.48772 0.09032 0.50498 0.0
C876 C 0.49153 0.07318 0.52425 0.0
C877 C 0.49611 0.0602 0.48366 0.0
C878 C 0.49636 0.06454 0.42342 0.0
C879 C 0.49258 0.08157 0.40435 0.0
H880 H 0.43769 0.08803 0.33351 0.0
H881 H 0.45914 0.08188 0.31566 0.0
H882 H 0.44729 0.0752 0.38655 0.0
H883 H 0.4846 0.10032 0.53716 0.0
H884 H 0.49137 0.07044 0.57096 0.0
H885 H 0.33408 0.55551 0.25918 0.0
H886 H 0.36057 0.55182 0.32583 0.0
H887 H 0.31602 0.48005 0.32212 0.0
H888 H 0.28941 0.48373 0.2554 0.0
H889 H 0.34351 0.50446 0.43809 0.0
H890 H 0.39101 0.51937 0.23624 0.0
H891 H 0.38271 0.53963 0.25636 0.0
H892 H 0.36188 0.51127 0.2331 0.0
C893 C 0.32951 0.53913 0.27498 0.0
C894 C 0.30974 0.5199 0.25254 0.0
C895 C 0.34472 0.537 0.31243 0.0
C896 C 0.34038 0.51563 0.32777 0.0
C897 C 0.31963 0.49668 0.3105 0.0
H898 H 0.41615 0.46238 0.50058 0.0
H899 H 0.38786 0.46759 0.4479 0.0
C900 C 0.30436 0.49881 0.27298 0.0
C901 C 0.3585 0.51277 0.35476 0.0
H902 H 0.4073 0.51477 0.32394 0.0
C903 C 0.35746 0.50669 0.4133 0.0
C904 C 0.37666 0.51574 0.32203 0.0
C905 C 0.3782 0.52171 0.2583 0.0
C906 C 0.37433 0.50375 0.44042 0.0
C907 C 0.39237 0.50643 0.40745 0.0
C908 C 0.39344 0.51267 0.34898 0.0
C909 C 0.41015 0.50263 0.43295 0.0
C910 C 0.37289 0.49824 0.50447 0.0
C911 C 0.43242 0.52017 0.43839 0.0
C912 C 0.44879 0.51717 0.4679 0.0
C913 C 0.44308 0.49655 0.49242 0.0
C914 C 0.42106 0.47857 0.48302 0.0
C915 C 0.4048 0.48156 0.45335 0.0
H916 H 0.36176 0.50291 0.52745 0.0
H917 H 0.36599 0.47983 0.50704 0.0
H918 H 0.38961 0.50708 0.52836 0.0
H919 H 0.43696 0.53648 0.42212 0.0
H920 H 0.46557 0.53137 0.47431 0.0
H921 H 0.85121 0.31616 0.16992 0.0
H922 H 0.87719 0.34117 0.25004 0.0
H923 H 0.82345 0.34389 0.33249 0.0
H924 H 0.7973 0.31907 0.25101 0.0
H925 H 0.85726 0.38518 0.31516 0.0
H926 H 0.8924 0.33745 0.42073 0.0
H927 H 0.89355 0.33575 0.34204 0.0
H928 H 0.8669 0.32384 0.37394 0.0
C929 C 0.84484 0.32169 0.20582 0.0
C930 C 0.82229 0.31583 0.2041 0.0
C931 C 0.85967 0.3358 0.252 0.0
C932 C 0.85227 0.34423 0.2978 0.0
C933 C 0.82949 0.33743 0.29786 0.0
H934 H 0.95518 0.4479 0.55304 0.0
H935 H 0.92193 0.4129 0.51482 0.0
C936 C 0.81456 0.3232 0.25152 0.0
C937 C 0.86891 0.36255 0.3399 0.0
H938 H 0.91646 0.37834 0.42638 0.0
C939 C 0.86989 0.38351 0.34058 0.0
C940 C 0.88531 0.36042 0.37364 0.0
C941 C 0.88434 0.33805 0.37806 0.0
C942 C 0.88763 0.40268 0.37056 0.0
C943 C 0.90504 0.40094 0.39989 0.0
C944 C 0.90329 0.37971 0.40293 0.0
C945 C 0.92585 0.42127 0.42341 0.0
C946 C 0.88795 0.42484 0.3691 0.0
C947 C 0.9394 0.43719 0.3845 0.0
C948 C 0.95837 0.45709 0.40601 0.0
C949 C 0.96428 0.4615 0.46703 0.0
C950 C 0.95113 0.44508 0.50583 0.0
C951 C 0.9321 0.42508 0.48413 0.0
H952 H 0.87094 0.42227 0.36029 0.0
H953 H 0.89525 0.43508 0.41148 0.0
H954 H 0.8983 0.43453 0.33315 0.0
H955 H 0.93509 0.43434 0.33734 0.0
H956 H 0.96814 0.46921 0.37472 0.0
H957 H 0.57119 0.85582 0.15945 0.0
H958 H 0.57446 0.87838 0.24931 0.0
H959 H 0.51286 0.82373 0.30377 0.0
H960 H 0.51006 0.80086 0.21468 0.0
H961 H 0.54475 0.89103 0.26451 0.0
H962 H 0.54816 0.84704 0.46125 0.0
H963 H 0.55366 0.84014 0.38851 0.0
H964 H 0.52545 0.82921 0.40889 0.0
C965 C 0.5588 0.84841 0.19173 0.0
C966 C 0.54039 0.82669 0.18047 0.0
C967 C 0.56064 0.86127 0.24297 0.0
C968 C 0.54397 0.85276 0.28357 0.0
C969 C 0.5262 0.83052 0.27396 0.0
H970 H 0.5015 0.93425 0.46611 0.0
H971 H 0.50309 0.90274 0.4178 0.0
C972 C 0.52454 0.81749 0.22294 0.0
C973 C 0.54335 0.86834 0.32975 0.0
H974 H 0.53822 0.8758 0.47713 0.0
C975 C 0.54362 0.88777 0.31106 0.0
C976 C 0.54184 0.86414 0.39056 0.0
C977 C 0.54248 0.8441 0.41365 0.0
C978 C 0.54201 0.90285 0.35098 0.0
C979 C 0.53956 0.8982 0.41129 0.0
C980 C 0.53982 0.87912 0.43067 0.0
C981 C 0.53641 0.91318 0.45355 0.0
C982 C 0.5428 0.92365 0.32814 0.0
C983 C 0.5541 0.92865 0.49265 0.0
C984 C 0.55317 0.94667 0.52089 0.0
C985 C 0.53464 0.94949 0.50962 0.0
C986 C 0.51612 0.93268 0.47505 0.0
C987 C 0.51697 0.91463 0.4475 0.0
H988 H 0.54959 0.92726 0.28377 0.0
H989 H 0.52567 0.9211 0.32449 0.0
H990 H 0.55317 0.93861 0.35897 0.0
H991 H 0.56925 0.92778 0.49778 0.0
H992 H 0.56768 0.95935 0.54734 0.0
H993 H 0.74678 0.56645 0.18336 0.0
H994 H 0.72673 0.57548 0.25662 0.0
H995 H 0.67623 0.50531 0.25232 0.0
H996 H 0.6962 0.49632 0.17949 0.0
H997 H 0.68409 0.56756 0.22673 0.0
H998 H 0.68338 0.52424 0.4284 0.0
H999 H 0.70347 0.53022 0.37341 0.0
H1000 H 0.67588 0.50614 0.36233 0.0
C1001 C 0.73193 0.55287 0.20015 0.0
C1002 C 0.72311 0.53066 0.1762 0.0
C1003 C 0.72038 0.55805 0.24154 0.0
C1004 C 0.70001 0.54107 0.26028 0.0
C1005 C 0.69208 0.51866 0.23952 0.0
H1006 H 0.57744 0.53225 0.33455 0.0
H1007 H 0.61058 0.5347 0.29368 0.0
C1008 C 0.7035 0.51351 0.19788 0.0
C1009 C 0.68541 0.54688 0.2943 0.0
H1010 H 0.65388 0.53302 0.4144 0.0
C1011 C 0.67783 0.56036 0.26837 0.0
C1012 C 0.67729 0.53762 0.34878 0.0
C1013 C 0.68559 0.52393 0.38019 0.0
C1014 C 0.66146 0.56376 0.29369 0.0
C1015 C 0.65229 0.55329 0.3461 0.0
C1016 C 0.66077 0.54088 0.3739 0.0
C1017 C 0.63271 0.5535 0.36997 0.0
C1018 C 0.65371 0.57812 0.26339 0.0
C1019 C 0.6341 0.56332 0.42653 0.0
C1020 C 0.61512 0.56209 0.45002 0.0
C1021 C 0.59431 0.55066 0.41773 0.0
C1022 C 0.59315 0.54121 0.36067 0.0
C1023 C 0.61212 0.54265 0.33708 0.0
H1024 H 0.66629 0.58977 0.23396 0.0
H1025 H 0.63812 0.56704 0.23588 0.0
H1026 H 0.65017 0.58816 0.29621 0.0
H1027 H 0.64981 0.57167 0.45278 0.0
H1028 H 0.6166 0.56937 0.49429 0.0
H1029 H 0.19414 0.70583 0.19023 0.0
H1030 H 0.17605 0.68558 0.27616 0.0
H1031 H 0.18279 0.7466 0.35822 0.0
H1032 H 0.2008 0.76703 0.27106 0.0
H1033 H 0.18842 0.69162 0.39874 0.0
H1034 H 0.11498 0.70227 0.34785 0.0
H1035 H 0.13591 0.70829 0.29558 0.0
H1036 H 0.14181 0.72738 0.35875 0.0
C1037 C 0.19198 0.71501 0.22685 0.0
C1038 C 0.19859 0.73792 0.22369 0.0
C1039 C 0.18173 0.70344 0.27606 0.0
C1040 C 0.17773 0.71445 0.32327 0.0
C1041 C 0.18541 0.73768 0.32187 0.0
H1042 H 0.07694 0.63266 0.56846 0.0
H1043 H 0.10904 0.66627 0.53451 0.0
C1044 C 0.19584 0.74937 0.27239 0.0
C1045 C 0.16413 0.70086 0.3711 0.0
H1046 H 0.1116 0.67736 0.41964 0.0
C1047 C 0.17177 0.68882 0.40419 0.0
C1048 C 0.14242 0.69724 0.3784 0.0
C1049 C 0.13311 0.70932 0.34318 0.0
C1050 C 0.15795 0.67253 0.4422 0.0
C1051 C 0.13576 0.66785 0.44647 0.0
C1052 C 0.1286 0.68092 0.41635 0.0
C1053 C 0.11885 0.64776 0.47531 0.0
C1054 C 0.16711 0.6601 0.47628 0.0
C1055 C 0.11397 0.62614 0.45446 0.0
C1056 C 0.09568 0.60697 0.47365 0.0
C1057 C 0.08168 0.60891 0.51388 0.0
C1058 C 0.08735 0.63052 0.53749 0.0
C1059 C 0.10567 0.64977 0.51798 0.0
H1060 H 0.18542 0.67067 0.48554 0.0
H1061 H 0.15914 0.65486 0.5188 0.0
H1062 H 0.16388 0.64479 0.44943 0.0
H1063 H 0.12355 0.62408 0.42069 0.0
H1064 H 0.09189 0.59063 0.45459 0.0
loop_
_geom_bond_atom_site_label_1
_geom_bond_atom_site_label_2
_geom_bond_distance
_geom_bond_site_symmetry_2
_ccdc_geom_bond_type
H0 C6 0.930 . S
H1 C9 0.931 . S
H2 C11 0.931 . S
H3 C13 0.930 . S
H4 C15 0.930 . S
H5 C17 0.931 . S
C6 H0 0.930 . S
C6 C7 1.380 . S
C6 C8 1.394 . S
C7 C6 1.380 . S
C7 C11 1.382 . S
C8 C6 1.394 . S
C8 C9 1.400 . S
C9 H1 0.931 . S
C9 C8 1.400 . S
C9 C10 1.375 . S
C10 C9 1.375 . S
C10 C11 1.415 . S
C10 C12 1.501 . S
C11 H2 0.931 . S
C11 C7 1.382 . S
C11 C10 1.415 . S
C12 C10 1.501 . S
C12 C13 1.384 . S
C12 C17 1.408 . S
C13 H3 0.930 . S
C13 C12 1.384 . S
C13 C14 1.389 . S
C14 C13 1.389 . S
C14 C15 1.405 . S
C15 H4 0.930 . S
C15 C14 1.405 . S
C15 C16 1.364 . S
C16 C15 1.364 . S
C16 C17 1.400 . S
C17 H5 0.931 . S
C17 C12 1.408 . S
C17 C16 1.400 . S
H18 C24 0.930 . S
H19 C27 0.931 . S
H20 C29 0.931 . S
H21 C31 0.930 . S
H22 C33 0.930 . S
H23 C35 0.931 . S
C24 H18 0.930 . S
C24 C25 1.380 . S
C24 C26 1.394 . S
C25 C24 1.380 . S
C25 C29 1.382 . S
C26 C24 1.394 . S
C26 C27 1.400 . S
C27 H19 0.931 . S
C27 C26 1.400 . S
C27 C28 1.375 . S
C28 C27 1.375 . S
C28 C29 1.415 . S
C28 C30 1.501 . S
C29 H20 0.931 . S
C29 C25 1.382 . S
C29 C28 1.415 . S
C30 C28 1.501 . S
C30 C31 1.384 . S
C30 C35 1.408 . S
C31 H21 0.930 . S
C31 C30 1.384 . S
C31 C32 1.389 . S
C32 C31 1.389 . S
C32 C33 1.405 . S
C33 H22 0.930 . S
C33 C32 1.405 . S
C33 C34 1.364 . S
C34 C33 1.364 . S
C34 C35 1.400 . S
C35 H23 0.931 . S
C35 C30 1.408 . S
C35 C34 1.400 . S
H36 C42 0.930 . S
H37 C45 0.931 . S
H38 C47 0.931 . S
H39 C49 0.930 . S
H40 C51 0.930 . S
H41 C53 0.931 . S
C42 H36 0.930 . S
C42 C43 1.380 1_554 S
C42 C44 1.394 . S
C43 C42 1.380 1_556 S
C43 C47 1.382 . S
C44 C42 1.394 . S
C44 C45 1.400 . S
C45 H37 0.931 . S
C45 C44 1.400 . S
C45 C46 1.375 . S
C46 C45 1.375 . S
C46 C47 1.415 1_554 S
C46 C48 1.501 . S
C47 H38 0.931 . S
C47 C43 1.382 . S
C47 C46 1.415 1_556 S
C48 C46 1.501 . S
C48 C49 1.384 1_554 S
C48 C53 1.408 . S
C49 H39 0.930 . S
C49 C48 1.384 1_556 S
C49 C50 1.389 . S
C50 C49 1.389 . S
C50 C51 1.405 1_556 S
C51 H40 0.930 . S
C51 C50 1.405 1_554 S
C51 C52 1.364 . S
C52 C51 1.364 . S
C52 C53 1.400 . S
C53 H41 0.931 . S
C53 C48 1.408 . S
C53 C52 1.400 . S
H54 C60 0.930 . S
H55 C63 0.931 . S
H56 C65 0.931 . S
H57 C67 0.930 . S
H58 C69 0.930 . S
H59 C71 0.931 . S
C60 H54 0.930 . S
C60 C61 1.380 1_554 S
C60 C62 1.394 . S
C61 C60 1.380 1_556 S
C61 C65 1.382 . S
C62 C60 1.394 . S
C62 C63 1.400 . S
C63 H55 0.931 . S
C63 C62 1.400 . S
C63 C64 1.375 . S
C64 C63 1.375 . S
C64 C65 1.415 1_554 S
C64 C66 1.501 . S
C65 H56 0.931 . S
C65 C61 1.382 . S
C65 C64 1.415 1_556 S
C66 C64 1.501 . S
C66 C67 1.384 1_554 S
C66 C71 1.408 . S
C67 H57 0.930 . S
C67 C66 1.384 1_556 S
C67 C68 1.389 . S
C68 C67 1.389 . S
C68 C69 1.405 1_556 S
C69 H58 0.930 . S
C69 C68 1.405 1_554 S
C69 C70 1.364 . S
C70 C69 1.364 . S
C70 C71 1.400 . S
C71 H59 0.931 . S
C71 C66 1.408 . S
C71 C70 1.400 . S
H72 C78 0.930 . S
H73 C81 0.931 . S
H74 C83 0.931 . S
H75 C85 0.930 . S
H76 C87 0.930 . S
H77 C89 0.931 . S
C78 H72 0.930 . S
C78 C79 1.380 . S
C78 C80 1.394 . S
C79 C78 1.380 . S
C79 C83 1.382 . S
C80 C78 1.394 . S
C80 C81 1.400 . S
C81 H73 0.931 . S
C81 C80 1.400 . S
C81 C82 1.375 . S
C82 C81 1.375 . S
C82 C83 1.415 . S
C82 C84 1.501 . S
C83 H74 0.931 . S
C83 C79 1.382 . S
C83 C82 1.415 . S
C84 C82 1.501 . S
C84 C85 1.384 . S
C84 C89 1.408 . S
C85 H75 0.930 . S
C85 C84 1.384 . S
C85 C86 1.389 . S
C86 C85 1.389 . S
C86 C87 1.405 . S
C87 H76 0.930 . S
C87 C86 1.405 . S
C87 C88 1.364 . S
C88 C87 1.364 . S
C88 C89 1.400 . S
C89 H77 0.931 . S
C89 C84 1.408 . S
C89 C88 1.400 . S
H90 C96 0.930 . S
H91 C99 0.931 . S
H92 C101 0.931 . S
H93 C103 0.930 . S
H94 C105 0.930 . S
H95 C107 0.931 . S
C96 H90 0.930 . S
C96 C97 1.380 . S
C96 C98 1.394 . S
C97 C96 1.380 . S
C97 C101 1.382 . S
C98 C96 1.394 . S
C98 C99 1.400 . S
C99 H91 0.931 . S
C99 C98 1.400 . S
C99 C100 1.375 . S
C100 C99 1.375 . S
C100 C101 1.415 . S
C100 C102 1.501 . S
C101 H92 0.931 . S
C101 C97 1.382 . S
C101 C100 1.415 . S
C102 C100 1.501 . S
C102 C103 1.384 . S
C102 C107 1.408 . S
C103 H93 0.930 . S
C103 C102 1.384 . S
C103 C104 1.389 . S
C104 C103 1.389 . S
C104 C105 1.405 . S
C105 H94 0.930 . S
C105 C104 1.405 . S
C105 C106 1.364 . S
C106 C105 1.364 . S
C106 C107 1.400 . S
C107 H95 0.931 . S
C107 C102 1.408 . S
C107 C106 1.400 . S
C108 O135 1.312 . S
C108 O136 1.208 . S
C109 O130 1.331 . S
C109 O133 1.244 . S
C110 O132 1.264 . S
C110 O134 1.273 . S
Mg111 O113 1.936 1_455 S
Mg111 O120 2.081 1_455 S
Mg111 O122 2.023 . S
Mg111 O126 2.031 1_455 S
Mg111 O135 2.291 . S
Mg112 O113 1.963 . S
Mg112 O123 1.942 . S
Mg112 O124 1.955 1_655 S
Mg112 O131 1.986 . S
O113 Mg111 1.936 1_655 S
O113 Mg112 1.963 . S
O113 Mg114 1.915 1_655 S
Mg114 O113 1.915 1_455 S
Mg114 O115 1.915 . S
Mg114 O119 2.013 . S
Mg114 O125 2.114 1_455 S
Mg114 O129 2.013 1_455 S
Mg114 O135 2.114 . S
O115 Mg114 1.915 . S
O115 Mg116 1.936 . S
O115 Mg117 1.963 . S
Mg116 O115 1.936 . S
Mg116 O125 2.291 1_455 S
Mg116 O130 2.081 . S
Mg116 O132 2.023 1_455 S
Mg116 O136 2.031 . S
Mg117 O115 1.963 . S
Mg117 O121 1.986 . S
Mg117 O133 1.942 . S
Mg117 O134 1.955 1_455 S
C118 O129 1.191 . S
C118 O131 1.307 . S
O119 Mg114 2.013 . S
O119 C138 1.191 . S
O120 Mg111 2.081 1_655 S
O120 C128 1.331 . S
O121 Mg117 1.986 . S
O121 C138 1.307 . S
O122 Mg111 2.023 . S
O122 C137 1.264 . S
O123 Mg112 1.942 . S
O123 C128 1.244 . S
O124 Mg112 1.955 1_455 S
O124 C137 1.273 . S
O125 Mg114 2.114 1_655 S
O125 Mg116 2.291 1_655 S
O125 C127 1.312 . S
O126 Mg111 2.031 1_655 S
O126 C127 1.208 . S
C127 O125 1.312 . S
C127 O126 1.208 . S
C128 O120 1.331 . S
C128 O123 1.244 . S
O129 Mg114 2.013 1_655 S
O129 C118 1.191 . S
O130 C109 1.331 . S
O130 Mg116 2.081 . S
O131 Mg112 1.986 . S
O131 C118 1.307 . S
O132 C110 1.264 . S
O132 Mg116 2.023 1_655 S
O133 C109 1.244 . S
O133 Mg117 1.942 . S
O134 C110 1.273 . S
O134 Mg117 1.955 1_655 S
O135 C108 1.312 . S
O135 Mg111 2.291 . S
O135 Mg114 2.114 . S
O136 C108 1.208 . S
O136 Mg116 2.031 . S
C137 O122 1.264 . S
C137 O124 1.273 . S
C138 O119 1.191 . S
C138 O121 1.307 . S
C139 O166 1.312 . S
C139 O167 1.208 . S
C140 O161 1.331 . S
C140 O164 1.244 . S
C141 O163 1.264 . S
C141 O165 1.273 . S
Mg142 O144 1.936 . S
Mg142 O151 2.081 1_545 S
Mg142 O153 2.023 . S
Mg142 O157 2.031 1_545 S
Mg142 O166 2.291 . S
Mg143 O144 1.963 . S
Mg143 O154 1.942 1_545 S
Mg143 O155 1.955 . S
Mg143 O162 1.986 1_545 S
O144 Mg142 1.936 . S
O144 Mg143 1.963 . S
O144 Mg145 1.915 . S
Mg145 O144 1.915 . S
Mg145 O146 1.915 . S
Mg145 O150 2.013 . S
Mg145 O156 2.114 1_545 S
Mg145 O160 2.013 1_545 S
Mg145 O166 2.114 . S
O146 Mg145 1.915 . S
O146 Mg147 1.936 . S
O146 Mg148 1.963 . S
Mg147 O146 1.936 . S
Mg147 O156 2.291 1_545 S
Mg147 O161 2.081 . S
Mg147 O163 2.023 1_545 S
Mg147 O167 2.031 . S
Mg148 O146 1.963 . S
Mg148 O152 1.986 . S
Mg148 O164 1.942 . S
Mg148 O165 1.955 1_545 S
C149 O160 1.191 . S
C149 O162 1.307 . S
O150 Mg145 2.013 . S
O150 C169 1.191 . S
O151 Mg142 2.081 1_565 S
O151 C159 1.331 . S
O152 Mg148 1.986 . S
O152 C169 1.307 . S
O153 Mg142 2.023 . S
O153 C168 1.264 . S
O154 Mg143 1.942 1_565 S
O154 C159 1.244 . S
O155 Mg143 1.955 . S
O155 C168 1.273 . S
O156 Mg145 2.114 1_565 S
O156 Mg147 2.291 1_565 S
O156 C158 1.312 . S
O157 Mg142 2.031 1_565 S
O157 C158 1.208 . S
C158 O156 1.312 . S
C158 O157 1.208 . S
C159 O151 1.331 . S
C159 O154 1.244 . S
O160 Mg145 2.013 1_565 S
O160 C149 1.191 . S
O161 C140 1.331 . S
O161 Mg147 2.081 . S
O162 Mg143 1.986 1_565 S
O162 C149 1.307 . S
O163 C141 1.264 . S
O163 Mg147 2.023 1_565 S
O164 C140 1.244 . S
O164 Mg148 1.942 . S
O165 C141 1.273 . S
O165 Mg148 1.955 1_565 S
O166 C139 1.312 . S
O166 Mg142 2.291 . S
O166 Mg145 2.114 . S
O167 C139 1.208 . S
O167 Mg147 2.031 . S
C168 O153 1.264 . S
C168 O155 1.273 . S
C169 O150 1.191 . S
C169 O152 1.307 . S
C170 O197 1.312 . S
C170 O198 1.208 . S
C171 O192 1.331 . S
C171 O195 1.244 . S
C172 O194 1.264 . S
C172 O196 1.273 . S
Mg173 O175 1.936 . S
Mg173 O182 2.081 . S
Mg173 O184 2.023 . S
Mg173 O188 2.031 . S
Mg173 O197 2.291 . S
Mg174 O175 1.963 . S
Mg174 O185 1.942 . S
Mg174 O186 1.955 . S
Mg174 O193 1.986 . S
O175 Mg173 1.936 . S
O175 Mg174 1.963 . S
O175 Mg176 1.915 . S
Mg176 O175 1.915 . S
Mg176 O177 1.915 . S
Mg176 O181 2.013 . S
Mg176 O187 2.114 . S
Mg176 O191 2.013 . S
Mg176 O197 2.114 . S
O177 Mg176 1.915 . S
O177 Mg178 1.936 . S
O177 Mg179 1.963 . S
Mg178 O177 1.936 . S
Mg178 O187 2.291 . S
Mg178 O192 2.081 . S
Mg178 O194 2.023 . S
Mg178 O198 2.031 . S
Mg179 O177 1.963 . S
Mg179 O183 1.986 . S
Mg179 O195 1.942 . S
Mg179 O196 1.955 . S
C180 O191 1.191 . S
C180 O193 1.307 . S
O181 Mg176 2.013 . S
O181 C200 1.191 . S
O182 Mg173 2.081 . S
O182 C190 1.331 . S
O183 Mg179 1.986 . S
O183 C200 1.307 . S
O184 Mg173 2.023 . S
O184 C199 1.264 . S
O185 Mg174 1.942 . S
O185 C190 1.244 . S
O186 Mg174 1.955 . S
O186 C199 1.273 . S
O187 Mg176 2.114 . S
O187 Mg178 2.291 . S
O187 C189 1.312 . S
O188 Mg173 2.031 . S
O188 C189 1.208 . S
C189 O187 1.312 . S
C189 O188 1.208 . S
C190 O182 1.331 . S
C190 O185 1.244 . S
O191 Mg176 2.013 . S
O191 C180 1.191 . S
O192 C171 1.331 . S
O192 Mg178 2.081 . S
O193 Mg174 1.986 . S
O193 C180 1.307 . S
O194 C172 1.264 . S
O194 Mg178 2.023 . S
O195 C171 1.244 . S
O195 Mg179 1.942 . S
O196 C172 1.273 . S
O196 Mg179 1.955 . S
O197 C170 1.312 . S
O197 Mg173 2.291 . S
O197 Mg176 2.114 . S
O198 C170 1.208 . S
O198 Mg178 2.031 . S
C199 O184 1.264 . S
C199 O186 1.273 . S
C200 O181 1.191 . S
C200 O183 1.307 . S
H201 C209 0.929 . S
H202 C211 0.930 . S
H203 C213 0.930 . S
H204 C216 0.929 . S
H205 C219 0.930 . S
H206 C221 0.960 . S
H207 C221 0.960 . S
H208 C221 0.960 . S
C209 H201 0.929 . S
C209 C210 1.377 . S
C209 C211 1.384 . S
C210 C209 1.377 . S
C210 C216 1.390 . S
C211 H202 0.930 . S
C211 C209 1.384 . S
C211 C212 1.372 . S
C212 C211 1.372 . S
C212 C213 1.400 . S
C212 C217 1.490 . S
C213 H203 0.930 . S
C213 C212 1.400 . S
C213 C216 1.386 . S
H214 C230 0.930 . S
H215 C231 0.931 . S
C216 H204 0.929 . S
C216 C210 1.390 . S
C216 C213 1.386 . S
C217 C212 1.490 . S
C217 C219 1.395 . S
C217 C220 1.403 . S
H218 C224 0.930 . S
C219 H205 0.930 . S
C219 C217 1.395 . S
C219 C222 1.403 . S
C220 C217 1.403 . S
C220 C221 1.524 . S
C220 C224 1.400 . S
C221 H206 0.960 . S
C221 H207 0.960 . S
C221 H208 0.960 . S
C221 C220 1.524 . S
C222 C219 1.403 . S
C222 C223 1.392 . S
C222 C226 1.495 . S
C223 C222 1.392 . S
C223 C224 1.385 . S
C223 C225 1.478 . S
C224 H218 0.930 . S
C224 C220 1.400 . S
C224 C223 1.385 . S
C225 C223 1.478 . S
C225 C227 1.381 . S
C225 C231 1.383 . S
C226 C222 1.495 . S
C226 H232 0.959 . S
C226 H233 0.961 . S
C226 H234 0.960 . S
C227 C225 1.381 . S
C227 C228 1.394 . S
C227 H235 0.930 . S
C228 C227 1.394 . S
C228 C229 1.383 . S
C228 H236 0.929 . S
C229 C228 1.383 . S
C229 C230 1.377 . S
C230 H214 0.930 . S
C230 C229 1.377 . S
C230 C231 1.379 . S
C231 H215 0.931 . S
C231 C225 1.383 . S
C231 C230 1.379 . S
H232 C226 0.959 . S
H233 C226 0.961 . S
H234 C226 0.960 . S
H235 C227 0.930 . S
H236 C228 0.929 . S
H237 C245 0.929 . S
H238 C247 0.930 . S
H239 C249 0.930 . S
H240 C252 0.929 . S
H241 C255 0.930 . S
H242 C257 0.960 . S
H243 C257 0.960 . S
H244 C257 0.960 . S
C245 H237 0.929 . S
C245 C246 1.377 . S
C245 C247 1.384 . S
C246 C245 1.377 . S
C246 C252 1.390 . S
C247 H238 0.930 . S
C247 C245 1.384 . S
C247 C248 1.372 . S
C248 C247 1.372 . S
C248 C249 1.400 . S
C248 C253 1.490 . S
C249 H239 0.930 . S
C249 C248 1.400 . S
C249 C252 1.386 . S
H250 C266 0.930 . S
H251 C267 0.931 . S
C252 H240 0.929 . S
C252 C246 1.390 . S
C252 C249 1.386 . S
C253 C248 1.490 . S
C253 C255 1.395 . S
C253 C256 1.403 . S
H254 C260 0.930 . S
C255 H241 0.930 . S
C255 C253 1.395 . S
C255 C258 1.403 . S
C256 C253 1.403 . S
C256 C257 1.524 . S
C256 C260 1.400 . S
C257 H242 0.960 . S
C257 H243 0.960 . S
C257 H244 0.960 . S
C257 C256 1.524 . S
C258 C255 1.403 . S
C258 C259 1.392 . S
C258 C262 1.495 . S
C259 C258 1.392 . S
C259 C260 1.385 . S
C259 C261 1.478 . S
C260 H254 0.930 . S
C260 C256 1.400 . S
C260 C259 1.385 . S
C261 C259 1.478 . S
C261 C263 1.381 . S
C261 C267 1.383 . S
C262 C258 1.495 . S
C262 H268 0.959 . S
C262 H269 0.961 . S
C262 H270 0.960 . S
C263 C261 1.381 . S
C263 C264 1.394 . S
C263 H271 0.930 . S
C264 C263 1.394 . S
C264 C265 1.383 . S
C264 H272 0.929 . S
C265 C264 1.383 . S
C265 C266 1.377 . S
C266 H250 0.930 . S
C266 C265 1.377 . S
C266 C267 1.379 . S
C267 H251 0.931 . S
C267 C261 1.383 . S
C267 C266 1.379 . S
H268 C262 0.959 . S
H269 C262 0.961 . S
H270 C262 0.960 . S
H271 C263 0.930 . S
H272 C264 0.929 . S
H273 C281 0.929 . S
H274 C283 0.930 . S
H275 C285 0.930 . S
H276 C288 0.929 . S
H277 C291 0.930 . S
H278 C293 0.960 . S
H279 C293 0.960 . S
H280 C293 0.960 . S
C281 H273 0.929 . S
C281 C282 1.377 . S
C281 C283 1.384 . S
C282 C281 1.377 . S
C282 C288 1.390 . S
C283 H274 0.930 . S
C283 C281 1.384 . S
C283 C284 1.372 . S
C284 C283 1.372 . S
C284 C285 1.400 . S
C284 C289 1.490 . S
C285 H275 0.930 . S
C285 C284 1.400 . S
C285 C288 1.386 . S
H286 C302 0.930 . S
H287 C303 0.931 . S
C288 H276 0.929 . S
C288 C282 1.390 . S
C288 C285 1.386 . S
C289 C284 1.490 . S
C289 C291 1.395 . S
C289 C292 1.403 . S
H290 C296 0.930 . S
C291 H277 0.930 . S
C291 C289 1.395 . S
C291 C294 1.403 . S
C292 C289 1.403 . S
C292 C293 1.524 . S
C292 C296 1.400 . S
C293 H278 0.960 . S
C293 H279 0.960 . S
C293 H280 0.960 . S
C293 C292 1.524 . S
C294 C291 1.403 . S
C294 C295 1.392 . S
C294 C298 1.495 . S
C295 C294 1.392 . S
C295 C296 1.385 . S
C295 C297 1.478 . S
C296 H290 0.930 . S
C296 C292 1.400 . S
C296 C295 1.385 . S
C297 C295 1.478 . S
C297 C299 1.381 . S
C297 C303 1.383 . S
C298 C294 1.495 . S
C298 H304 0.959 . S
C298 H305 0.961 . S
C298 H306 0.960 . S
C299 C297 1.381 . S
C299 C300 1.394 . S
C299 H307 0.930 . S
C300 C299 1.394 . S
C300 C301 1.383 . S
C300 H308 0.929 . S
C301 C300 1.383 . S
C301 C302 1.377 . S
C302 H286 0.930 . S
C302 C301 1.377 . S
C302 C303 1.379 . S
C303 H287 0.931 . S
C303 C297 1.383 . S
C303 C302 1.379 . S
H304 C298 0.959 . S
H305 C298 0.961 . S
H306 C298 0.960 . S
H307 C299 0.930 . S
H308 C300 0.929 . S
H309 C317 0.929 . S
H310 C319 0.930 . S
H311 C321 0.930 . S
H312 C324 0.929 . S
H313 C327 0.930 . S
H314 C329 0.960 . S
H315 C329 0.960 . S
H316 C329 0.960 . S
C317 H309 0.929 . S
C317 C318 1.377 . S
C317 C319 1.384 . S
C318 C317 1.377 . S
C318 C324 1.390 . S
C319 H310 0.930 . S
C319 C317 1.384 . S
C319 C320 1.372 . S
C320 C319 1.372 . S
C320 C321 1.400 . S
C320 C325 1.490 . S
C321 H311 0.930 . S
C321 C320 1.400 . S
C321 C324 1.386 . S
H322 C338 0.930 . S
H323 C339 0.931 . S
C324 H312 0.929 . S
C324 C318 1.390 . S
C324 C321 1.386 . S
C325 C320 1.490 . S
C325 C327 1.395 . S
C325 C328 1.403 . S
H326 C332 0.930 . S
C327 H313 0.930 . S
C327 C325 1.395 . S
C327 C330 1.403 . S
C328 C325 1.403 . S
C328 C329 1.524 . S
C328 C332 1.400 . S
C329 H314 0.960 . S
C329 H315 0.960 . S
C329 H316 0.960 . S
C329 C328 1.524 . S
C330 C327 1.403 . S
C330 C331 1.392 . S
C330 C334 1.495 . S
C331 C330 1.392 . S
C331 C332 1.385 . S
C331 C333 1.478 . S
C332 H326 0.930 . S
C332 C328 1.400 . S
C332 C331 1.385 . S
C333 C331 1.478 . S
C333 C335 1.381 . S
C333 C339 1.383 . S
C334 C330 1.495 . S
C334 H340 0.959 . S
C334 H341 0.961 . S
C334 H342 0.960 . S
C335 C333 1.381 . S
C335 C336 1.394 . S
C335 H343 0.930 . S
C336 C335 1.394 . S
C336 C337 1.383 . S
C336 H344 0.929 . S
C337 C336 1.383 . S
C337 C338 1.377 . S
C338 H322 0.930 . S
C338 C337 1.377 . S
C338 C339 1.379 . S
C339 H323 0.931 . S
C339 C333 1.383 . S
C339 C338 1.379 . S
H340 C334 0.959 . S
H341 C334 0.961 . S
H342 C334 0.960 . S
H343 C335 0.930 . S
H344 C336 0.929 . S
H345 C353 0.929 . S
H346 C355 0.930 . S
H347 C357 0.930 . S
H348 C360 0.929 . S
H349 C363 0.930 . S
H350 C365 0.960 . S
H351 C365 0.960 . S
H352 C365 0.960 . S
C353 H345 0.929 . S
C353 C354 1.377 . S
C353 C355 1.384 . S
C354 C353 1.377 . S
C354 C360 1.390 . S
C355 H346 0.930 . S
C355 C353 1.384 . S
C355 C356 1.372 . S
C356 C355 1.372 . S
C356 C357 1.400 . S
C356 C361 1.490 . S
C357 H347 0.930 . S
C357 C356 1.400 . S
C357 C360 1.386 . S
H358 C374 0.930 . S
H359 C375 0.931 . S
C360 H348 0.929 . S
C360 C354 1.390 . S
C360 C357 1.386 . S
C361 C356 1.490 . S
C361 C363 1.395 . S
C361 C364 1.403 . S
H362 C368 0.930 . S
C363 H349 0.930 . S
C363 C361 1.395 . S
C363 C366 1.403 . S
C364 C361 1.403 . S
C364 C365 1.524 . S
C364 C368 1.400 . S
C365 H350 0.960 . S
C365 H351 0.960 . S
C365 H352 0.960 . S
C365 C364 1.524 . S
C366 C363 1.403 . S
C366 C367 1.392 . S
C366 C370 1.495 . S
C367 C366 1.392 . S
C367 C368 1.385 . S
C367 C369 1.478 . S
C368 H362 0.930 . S
C368 C364 1.400 . S
C368 C367 1.385 . S
C369 C367 1.478 . S
C369 C371 1.381 . S
C369 C375 1.383 . S
C370 C366 1.495 . S
C370 H376 0.959 . S
C370 H377 0.961 . S
C370 H378 0.960 . S
C371 C369 1.381 . S
C371 C372 1.394 . S
C371 H379 0.930 . S
C372 C371 1.394 . S
C372 C373 1.383 . S
C372 H380 0.929 . S
C373 C372 1.383 . S
C373 C374 1.377 . S
C374 H358 0.930 . S
C374 C373 1.377 . S
C374 C375 1.379 . S
C375 H359 0.931 . S
C375 C369 1.383 . S
C375 C374 1.379 . S
H376 C370 0.959 . S
H377 C370 0.961 . S
H378 C370 0.960 . S
H379 C371 0.930 . S
H380 C372 0.929 . S
H381 C389 0.929 . S
H382 C391 0.930 . S
H383 C393 0.930 . S
H384 C396 0.929 . S
H385 C399 0.930 . S
H386 C401 0.960 . S
H387 C401 0.960 . S
H388 C401 0.960 . S
C389 H381 0.929 . S
C389 C390 1.377 . S
C389 C391 1.384 . S
C390 C389 1.377 . S
C390 C396 1.390 . S
C391 H382 0.930 . S
C391 C389 1.384 . S
C391 C392 1.372 . S
C392 C391 1.372 . S
C392 C393 1.400 . S
C392 C397 1.490 . S
C393 H383 0.930 . S
C393 C392 1.400 . S
C393 C396 1.386 . S
H394 C410 0.930 . S
H395 C411 0.931 . S
C396 H384 0.929 . S
C396 C390 1.390 . S
C396 C393 1.386 . S
C397 C392 1.490 . S
C397 C399 1.395 . S
C397 C400 1.403 . S
H398 C404 0.930 . S
C399 H385 0.930 . S
C399 C397 1.395 . S
C399 C402 1.403 . S
C400 C397 1.403 . S
C400 C401 1.524 . S
C400 C404 1.400 . S
C401 H386 0.960 . S
C401 H387 0.960 . S
C401 H388 0.960 . S
C401 C400 1.524 . S
C402 C399 1.403 . S
C402 C403 1.392 . S
C402 C406 1.495 . S
C403 C402 1.392 . S
C403 C404 1.385 . S
C403 C405 1.478 . S
C404 H398 0.930 . S
C404 C400 1.400 . S
C404 C403 1.385 . S
C405 C403 1.478 . S
C405 C407 1.381 . S
C405 C411 1.383 . S
C406 C402 1.495 . S
C406 H412 0.959 . S
C406 H413 0.961 . S
C406 H414 0.960 . S
C407 C405 1.381 . S
C407 C408 1.394 . S
C407 H415 0.930 . S
C408 C407 1.394 . S
C408 C409 1.383 . S
C408 H416 0.929 . S
C409 C408 1.383 . S
C409 C410 1.377 . S
C410 H394 0.930 . S
C410 C409 1.377 . S
C410 C411 1.379 . S
C411 H395 0.931 . S
C411 C405 1.383 . S
C411 C410 1.379 . S
H412 C406 0.959 . S
H413 C406 0.961 . S
H414 C406 0.960 . S
H415 C407 0.930 . S
H416 C408 0.929 . S
H417 C425 0.929 1_554 S
H418 C427 0.930 . S
H419 C429 0.930 . S
H420 C432 0.929 . S
H421 C435 0.930 . S
H422 C437 0.960 . S
H423 C437 0.960 . S
H424 C437 0.960 . S
C425 H417 0.929 1_556 S
C425 C426 1.377 . S
C425 C427 1.384 . S
C426 C425 1.377 . S
C426 C432 1.390 . S
C427 H418 0.930 . S
C427 C425 1.384 . S
C427 C428 1.372 . S
C428 C427 1.372 . S
C428 C429 1.400 . S
C428 C433 1.490 . S
C429 H419 0.930 . S
C429 C428 1.400 . S
C429 C432 1.386 . S
H430 C446 0.930 . S
H431 C447 0.931 . S
C432 H420 0.929 . S
C432 C426 1.390 . S
C432 C429 1.386 . S
C433 C428 1.490 . S
C433 C435 1.395 . S
C433 C436 1.403 . S
H434 C440 0.930 . S
C435 H421 0.930 . S
C435 C433 1.395 . S
C435 C438 1.403 . S
C436 C433 1.403 . S
C436 C437 1.524 . S
C436 C440 1.400 . S
C437 H422 0.960 . S
C437 H423 0.960 . S
C437 H424 0.960 . S
C437 C436 1.524 . S
C438 C435 1.403 . S
C438 C439 1.392 . S
C438 C442 1.495 . S
C439 C438 1.392 . S
C439 C440 1.385 . S
C439 C441 1.478 . S
C440 H434 0.930 . S
C440 C436 1.400 . S
C440 C439 1.385 . S
C441 C439 1.478 . S
C441 C443 1.381 . S
C441 C447 1.383 . S
C442 C438 1.495 . S
C442 H448 0.959 . S
C442 H449 0.961 . S
C442 H450 0.960 . S
C443 C441 1.381 . S
C443 C444 1.394 . S
C443 H451 0.930 . S
C444 C443 1.394 . S
C444 C445 1.383 . S
C444 H452 0.929 . S
C445 C444 1.383 . S
C445 C446 1.377 . S
C446 H430 0.930 . S
C446 C445 1.377 . S
C446 C447 1.379 . S
C447 H431 0.931 . S
C447 C441 1.383 . S
C447 C446 1.379 . S
H448 C442 0.959 . S
H449 C442 0.961 . S
H450 C442 0.960 . S
H451 C443 0.930 . S
H452 C444 0.929 . S
H453 C461 0.929 . S
H454 C463 0.930 . S
H455 C465 0.930 . S
H456 C468 0.929 . S
H457 C471 0.930 . S
H458 C473 0.960 . S
H459 C473 0.960 . S
H460 C473 0.960 . S
C461 H453 0.929 . S
C461 C462 1.377 . S
C461 C463 1.384 . S
C462 C461 1.377 . S
C462 C468 1.390 . S
C463 H454 0.930 . S
C463 C461 1.384 . S
C463 C464 1.372 . S
C464 C463 1.372 . S
C464 C465 1.400 . S
C464 C469 1.490 . S
C465 H455 0.930 . S
C465 C464 1.400 . S
C465 C468 1.386 . S
H466 C482 0.930 . S
H467 C483 0.931 . S
C468 H456 0.929 . S
C468 C462 1.390 . S
C468 C465 1.386 . S
C469 C464 1.490 . S
C469 C471 1.395 . S
C469 C472 1.403 . S
H470 C476 0.930 . S
C471 H457 0.930 . S
C471 C469 1.395 . S
C471 C474 1.403 . S
C472 C469 1.403 . S
C472 C473 1.524 . S
C472 C476 1.400 . S
C473 H458 0.960 . S
C473 H459 0.960 . S
C473 H460 0.960 . S
C473 C472 1.524 . S
C474 C471 1.403 . S
C474 C475 1.392 . S
C474 C478 1.495 . S
C475 C474 1.392 . S
C475 C476 1.385 . S
C475 C477 1.478 . S
C476 H470 0.930 . S
C476 C472 1.400 . S
C476 C475 1.385 . S
C477 C475 1.478 . S
C477 C479 1.381 . S
C477 C483 1.383 . S
C478 C474 1.495 . S
C478 H484 0.959 . S
C478 H485 0.961 . S
C478 H486 0.960 . S
C479 C477 1.381 . S
C479 C480 1.394 . S
C479 H487 0.930 . S
C480 C479 1.394 . S
C480 C481 1.383 . S
C480 H488 0.929 . S
C481 C480 1.383 . S
C481 C482 1.377 . S
C482 H466 0.930 . S
C482 C481 1.377 . S
C482 C483 1.379 . S
C483 H467 0.931 . S
C483 C477 1.383 . S
C483 C482 1.379 . S
H484 C478 0.959 . S
H485 C478 0.961 . S
H486 C478 0.960 . S
H487 C479 0.930 . S
H488 C480 0.929 . S
H489 C497 0.929 . S
H490 C499 0.930 . S
H491 C501 0.930 . S
H492 C504 0.929 . S
H493 C507 0.930 . S
H494 C509 0.960 . S
H495 C509 0.960 . S
H496 C509 0.960 . S
C497 H489 0.929 . S
C497 C498 1.377 . S
C497 C499 1.384 . S
C498 C497 1.377 . S
C498 C504 1.390 1_556 S
C499 H490 0.930 . S
C499 C497 1.384 . S
C499 C500 1.372 . S
C500 C499 1.372 . S
C500 C501 1.400 . S
C500 C505 1.490 . S
C501 H491 0.930 . S
C501 C500 1.400 . S
C501 C504 1.386 1_556 S
H502 C518 0.930 . S
H503 C519 0.931 . S
C504 H492 0.929 . S
C504 C498 1.390 1_554 S
C504 C501 1.386 1_554 S
C505 C500 1.490 . S
C505 C507 1.395 . S
C505 C508 1.403 . S
H506 C512 0.930 . S
C507 H493 0.930 . S
C507 C505 1.395 . S
C507 C510 1.403 . S
C508 C505 1.403 . S
C508 C509 1.524 . S
C508 C512 1.400 . S
C509 H494 0.960 . S
C509 H495 0.960 . S
C509 H496 0.960 . S
C509 C508 1.524 . S
C510 C507 1.403 . S
C510 C511 1.392 . S
C510 C514 1.495 . S
C511 C510 1.392 . S
C511 C512 1.385 . S
C511 C513 1.478 . S
C512 H506 0.930 . S
C512 C508 1.400 . S
C512 C511 1.385 . S
C513 C511 1.478 . S
C513 C515 1.381 . S
C513 C519 1.383 . S
C514 C510 1.495 . S
C514 H520 0.959 . S
C514 H521 0.961 . S
C514 H522 0.960 . S
C515 C513 1.381 . S
C515 C516 1.394 . S
C515 H523 0.930 . S
C516 C515 1.394 . S
C516 C517 1.383 . S
C516 H524 0.929 . S
C517 C516 1.383 . S
C517 C518 1.377 . S
C518 H502 0.930 . S
C518 C517 1.377 . S
C518 C519 1.379 . S
C519 H503 0.931 . S
C519 C513 1.383 . S
C519 C518 1.379 . S
H520 C514 0.959 . S
H521 C514 0.961 . S
H522 C514 0.960 . S
H523 C515 0.930 . S
H524 C516 0.929 . S
H525 C533 0.929 . S
H526 C535 0.930 . S
H527 C537 0.930 . S
H528 C540 0.929 . S
H529 C543 0.930 1_554 S
H530 C545 0.960 . S
H531 C545 0.960 . S
H532 C545 0.960 . S
C533 H525 0.929 . S
C533 C534 1.377 . S
C533 C535 1.384 . S
C534 C533 1.377 . S
C534 C540 1.390 . S
C535 H526 0.930 . S
C535 C533 1.384 . S
C535 C536 1.372 1_554 S
C536 C535 1.372 1_556 S
C536 C537 1.400 . S
C536 C541 1.490 . S
C537 H527 0.930 . S
C537 C536 1.400 . S
C537 C540 1.386 1_556 S
H538 C554 0.930 . S
H539 C555 0.931 . S
C540 H528 0.929 . S
C540 C534 1.390 . S
C540 C537 1.386 1_554 S
C541 C536 1.490 . S
C541 C543 1.395 . S
C541 C544 1.403 . S
H542 C548 0.930 . S
C543 H529 0.930 1_556 S
C543 C541 1.395 . S
C543 C546 1.403 . S
C544 C541 1.403 . S
C544 C545 1.524 . S
C544 C548 1.400 . S
C545 H530 0.960 . S
C545 H531 0.960 . S
C545 H532 0.960 . S
C545 C544 1.524 . S
C546 C543 1.403 . S
C546 C547 1.392 . S
C546 C550 1.495 . S
C547 C546 1.392 . S
C547 C548 1.385 . S
C547 C549 1.478 . S
C548 H542 0.930 . S
C548 C544 1.400 . S
C548 C547 1.385 . S
C549 C547 1.478 . S
C549 C551 1.381 . S
C549 C555 1.383 . S
C550 C546 1.495 . S
C550 H556 0.959 1_556 S
C550 H557 0.961 . S
C550 H558 0.960 . S
C551 C549 1.381 . S
C551 C552 1.394 . S
C551 H559 0.930 . S
C552 C551 1.394 . S
C552 C553 1.383 . S
C552 H560 0.929 . S
C553 C552 1.383 . S
C553 C554 1.377 . S
C554 H538 0.930 . S
C554 C553 1.377 . S
C554 C555 1.379 . S
C555 H539 0.931 . S
C555 C549 1.383 . S
C555 C554 1.379 . S
H556 C550 0.959 1_554 S
H557 C550 0.961 . S
H558 C550 0.960 . S
H559 C551 0.930 . S
H560 C552 0.929 . S
H561 C569 0.929 1_556 S
H562 C571 0.930 . S
H563 C573 0.930 . S
H564 C576 0.929 . S
H565 C579 0.930 . S
H566 C581 0.960 . S
H567 C581 0.960 . S
H568 C581 0.960 . S
C569 H561 0.929 1_554 S
C569 C570 1.377 . S
C569 C571 1.384 1_554 S
C570 C569 1.377 . S
C570 C576 1.390 . S
C571 H562 0.930 . S
C571 C569 1.384 1_556 S
C571 C572 1.372 1_556 S
C572 C571 1.372 1_554 S
C572 C573 1.400 . S
C572 C577 1.490 1_554 S
C573 H563 0.930 . S
C573 C572 1.400 . S
C573 C576 1.386 . S
H574 C590 0.930 . S
H575 C591 0.931 . S
C576 H564 0.929 . S
C576 C570 1.390 . S
C576 C573 1.386 . S
C577 C572 1.490 1_556 S
C577 C579 1.395 . S
C577 C580 1.403 . S
H578 C584 0.930 . S
C579 H565 0.930 . S
C579 C577 1.395 . S
C579 C582 1.403 . S
C580 C577 1.403 . S
C580 C581 1.524 1_556 S
C580 C584 1.400 . S
C581 H566 0.960 . S
C581 H567 0.960 . S
C581 H568 0.960 . S
C581 C580 1.524 1_554 S
C582 C579 1.403 . S
C582 C583 1.392 . S
C582 C586 1.495 . S
C583 C582 1.392 . S
C583 C584 1.385 . S
C583 C585 1.478 . S
C584 H578 0.930 . S
C584 C580 1.400 . S
C584 C583 1.385 . S
C585 C583 1.478 . S
C585 C587 1.381 . S
C585 C591 1.383 . S
C586 C582 1.495 . S
C586 H592 0.959 . S
C586 H593 0.961 . S
C586 H594 0.960 . S
C587 C585 1.381 . S
C587 C588 1.394 . S
C587 H595 0.930 . S
C588 C587 1.394 . S
C588 C589 1.383 . S
C588 H596 0.929 . S
C589 C588 1.383 . S
C589 C590 1.377 . S
C590 H574 0.930 . S
C590 C589 1.377 . S
C590 C591 1.379 . S
C591 H575 0.931 . S
C591 C585 1.383 . S
C591 C590 1.379 . S
H592 C586 0.959 . S
H593 C586 0.961 . S
H594 C586 0.960 . S
H595 C587 0.930 . S
H596 C588 0.929 . S
H597 C605 0.929 . S
H598 C607 0.927 1_554 S
H599 C609 0.930 . S
H600 C612 0.929 . S
H601 C615 0.930 . S
H602 C617 0.960 . S
H603 C617 0.960 . S
H604 C617 0.960 . S
C605 H597 0.929 . S
C605 C606 1.377 1_554 S
C605 C607 1.381 1_554 S
C606 C605 1.377 1_556 S
C606 C612 1.390 . S
C607 H598 0.927 1_556 S
C607 C605 1.381 1_556 S
C607 C608 1.377 . S
C608 C607 1.377 . S
C608 C609 1.400 . S
C608 C613 1.490 . S
C609 H599 0.930 . S
C609 C608 1.400 . S
C609 C612 1.386 . S
H610 C626 0.930 . S
H611 C627 0.931 . S
C612 H600 0.929 . S
C612 C606 1.390 . S
C612 C609 1.386 . S
C613 C608 1.490 . S
C613 C615 1.395 . S
C613 C616 1.403 . S
H614 C620 0.930 . S
C615 H601 0.930 . S
C615 C613 1.395 . S
C615 C618 1.403 . S
C616 C613 1.403 . S
C616 C617 1.524 . S
C616 C620 1.400 . S
C617 H602 0.960 . S
C617 H603 0.960 . S
C617 H604 0.960 . S
C617 C616 1.524 . S
C618 C615 1.403 . S
C618 C619 1.392 . S
C618 C622 1.495 . S
C619 C618 1.392 . S
C619 C620 1.385 . S
C619 C621 1.478 . S
C620 H614 0.930 . S
C620 C616 1.400 . S
C620 C619 1.385 . S
C621 C619 1.478 . S
C621 C623 1.381 . S
C621 C627 1.383 . S
C622 C618 1.495 . S
C622 H628 0.959 . S
C622 H629 0.961 . S
C622 H630 0.960 . S
C623 C621 1.381 . S
C623 C624 1.394 . S
C623 H631 0.930 . S
C624 C623 1.394 . S
C624 C625 1.383 . S
C624 H632 0.929 . S
C625 C624 1.383 . S
C625 C626 1.377 . S
C626 H610 0.930 . S
C626 C625 1.377 . S
C626 C627 1.379 . S
C627 H611 0.931 . S
C627 C621 1.383 . S
C627 C626 1.379 . S
H628 C622 0.959 . S
H629 C622 0.961 . S
H630 C622 0.960 . S
H631 C623 0.930 . S
H632 C624 0.929 . S
H633 C641 0.929 . S
H634 C643 0.930 . S
H635 C645 0.930 . S
H636 C648 0.929 . S
H637 C651 0.930 . S
H638 C653 0.960 . S
H639 C653 0.960 . S
H640 C653 0.960 . S
C641 H633 0.929 . S
C641 C642 1.377 . S
C641 C643 1.384 . S
C642 C641 1.377 . S
C642 C648 1.390 . S
C643 H634 0.930 . S
C643 C641 1.384 . S
C643 C644 1.372 . S
C644 C643 1.372 . S
C644 C645 1.400 . S
C644 C649 1.490 . S
C645 H635 0.930 . S
C645 C644 1.400 . S
C645 C648 1.386 . S
H646 C662 0.930 . S
H647 C663 0.931 . S
C648 H636 0.929 . S
C648 C642 1.390 . S
C648 C645 1.386 . S
C649 C644 1.490 . S
C649 C651 1.395 . S
C649 C652 1.403 . S
H650 C656 0.930 . S
C651 H637 0.930 . S
C651 C649 1.395 . S
C651 C654 1.403 . S
C652 C649 1.403 . S
C652 C653 1.524 . S
C652 C656 1.400 . S
C653 H638 0.960 . S
C653 H639 0.960 . S
C653 H640 0.960 . S
C653 C652 1.524 . S
C654 C651 1.403 . S
C654 C655 1.392 . S
C654 C658 1.495 . S
C655 C654 1.392 . S
C655 C656 1.385 . S
C655 C657 1.478 . S
C656 H650 0.930 . S
C656 C652 1.400 . S
C656 C655 1.385 . S
C657 C655 1.478 . S
C657 C659 1.381 . S
C657 C663 1.383 . S
C658 C654 1.495 . S
C658 H664 0.959 . S
C658 H665 0.961 . S
C658 H666 0.960 . S
C659 C657 1.381 . S
C659 C660 1.394 . S
C659 H667 0.930 . S
C660 C659 1.394 . S
C660 C661 1.383 . S
C660 H668 0.929 . S
C661 C660 1.383 . S
C661 C662 1.377 . S
C662 H646 0.930 . S
C662 C661 1.377 . S
C662 C663 1.379 . S
C663 H647 0.931 . S
C663 C657 1.383 . S
C663 C662 1.379 . S
H664 C658 0.959 . S
H665 C658 0.961 . S
H666 C658 0.960 . S
H667 C659 0.930 . S
H668 C660 0.929 . S
H669 C677 0.929 . S
H670 C679 0.930 . S
H671 C681 0.930 . S
H672 C684 0.929 . S
H673 C687 0.930 . S
H674 C689 0.960 . S
H675 C689 0.960 . S
H676 C689 0.960 . S
C677 H669 0.929 . S
C677 C678 1.377 . S
C677 C679 1.384 . S
C678 C677 1.377 . S
C678 C684 1.390 1_554 S
C679 H670 0.930 . S
C679 C677 1.384 . S
C679 C680 1.372 1_554 S
C680 C679 1.372 1_556 S
C680 C681 1.400 . S
C680 C685 1.490 . S
C681 H671 0.930 . S
C681 C680 1.400 . S
C681 C684 1.386 . S
H682 C698 0.930 . S
H683 C699 0.931 . S
C684 H672 0.929 . S
C684 C678 1.390 1_556 S
C684 C681 1.386 . S
C685 C680 1.490 . S
C685 C687 1.395 . S
C685 C688 1.403 . S
H686 C692 0.930 . S
C687 H673 0.930 . S
C687 C685 1.395 . S
C687 C690 1.403 . S
C688 C685 1.403 . S
C688 C689 1.524 . S
C688 C692 1.400 . S
C689 H674 0.960 . S
C689 H675 0.960 . S
C689 H676 0.960 . S
C689 C688 1.524 . S
C690 C687 1.403 . S
C690 C691 1.392 . S
C690 C694 1.495 . S
C691 C690 1.392 . S
C691 C692 1.385 . S
C691 C693 1.478 . S
C692 H686 0.930 . S
C692 C688 1.400 . S
C692 C691 1.385 . S
C693 C691 1.478 . S
C693 C695 1.381 . S
C693 C699 1.383 . S
C694 C690 1.495 . S
C694 H700 0.959 . S
C694 H701 0.961 . S
C694 H702 0.960 . S
C695 C693 1.381 . S
C695 C696 1.394 . S
C695 H703 0.930 . S
C696 C695 1.394 . S
C696 C697 1.383 . S
C696 H704 0.929 . S
C697 C696 1.383 . S
C697 C698 1.377 . S
C698 H682 0.930 . S
C698 C697 1.377 . S
C698 C699 1.379 . S
C699 H683 0.931 . S
C699 C693 1.383 . S
C699 C698 1.379 . S
H700 C694 0.959 . S
H701 C694 0.961 . S
H702 C694 0.960 . S
H703 C695 0.930 . S
H704 C696 0.929 . S
H705 C713 0.929 . S
H706 C715 0.930 1_556 S
H707 C717 0.930 1_556 S
H708 C720 0.929 . S
H709 C723 0.930 1_554 S
H710 C725 0.960 . S
H711 C725 0.960 . S
H712 C725 0.960 . S
C713 H705 0.929 . S
C713 C714 1.377 . S
C713 C715 1.384 . S
C714 C713 1.377 . S
C714 C720 1.390 . S
C715 H706 0.930 1_554 S
C715 C713 1.384 . S
C715 C716 1.372 1_554 S
C716 C715 1.372 1_556 S
C716 C717 1.400 1_556 S
C716 C721 1.490 . S
C717 H707 0.930 1_554 S
C717 C716 1.400 1_554 S
C717 C720 1.386 . S
H718 C734 0.930 . S
H719 C735 0.931 . S
C720 H708 0.929 . S
C720 C714 1.390 . S
C720 C717 1.386 . S
C721 C716 1.490 . S
C721 C723 1.395 . S
C721 C724 1.403 . S
H722 C728 0.930 . S
C723 H709 0.930 1_556 S
C723 C721 1.395 . S
C723 C726 1.403 . S
C724 C721 1.403 . S
C724 C725 1.524 . S
C724 C728 1.400 . S
C725 H710 0.960 . S
C725 H711 0.960 . S
C725 H712 0.960 . S
C725 C724 1.524 . S
C726 C723 1.403 . S
C726 C727 1.392 . S
C726 C730 1.495 . S
C727 C726 1.392 . S
C727 C728 1.385 . S
C727 C729 1.478 . S
C728 H722 0.930 . S
C728 C724 1.400 . S
C728 C727 1.385 . S
C729 C727 1.478 . S
C729 C731 1.381 . S
C729 C735 1.383 . S
C730 C726 1.495 . S
C730 H736 0.944 1_556 S
C730 H737 0.961 . S
C730 H738 0.960 . S
C731 C729 1.381 . S
C731 C732 1.394 . S
C731 H739 0.930 . S
C732 C731 1.394 . S
C732 C733 1.383 . S
C732 H740 0.929 . S
C733 C732 1.383 . S
C733 C734 1.377 . S
C734 H718 0.930 . S
C734 C733 1.377 . S
C734 C735 1.379 . S
C735 H719 0.931 . S
C735 C729 1.383 . S
C735 C734 1.379 . S
H736 C730 0.944 1_554 S
H737 C730 0.961 . S
H738 C730 0.960 . S
H739 C731 0.930 . S
H740 C732 0.929 . S
H741 C749 0.929 . S
H742 C751 0.930 . S
H743 C753 0.930 . S
H744 C756 0.929 . S
H745 C759 0.930 . S
H746 C761 0.960 . S
H747 C761 0.960 . S
H748 C761 0.960 1_554 S
C749 H741 0.929 . S
C749 C750 1.377 . S
C749 C751 1.384 1_554 S
C750 C749 1.377 . S
C750 C756 1.390 . S
C751 H742 0.930 . S
C751 C749 1.384 1_556 S
C751 C752 1.372 1_556 S
C752 C751 1.372 1_554 S
C752 C753 1.400 . S
C752 C757 1.490 1_554 S
C753 H743 0.930 . S
C753 C752 1.400 . S
C753 C756 1.386 . S
H754 C770 0.930 . S
H755 C771 0.931 . S
C756 H744 0.929 . S
C756 C750 1.390 . S
C756 C753 1.386 . S
C757 C752 1.490 1_556 S
C757 C759 1.395 . S
C757 C760 1.403 . S
H758 C764 0.930 . S
C759 H745 0.930 . S
C759 C757 1.395 . S
C759 C762 1.403 . S
C760 C757 1.403 . S
C760 C761 1.524 . S
C760 C764 1.400 . S
C761 H746 0.960 . S
C761 H747 0.960 . S
C761 H748 0.960 1_556 S
C761 C760 1.524 . S
C762 C759 1.403 . S
C762 C763 1.392 . S
C762 C766 1.495 . S
C763 C762 1.392 . S
C763 C764 1.385 . S
C763 C765 1.478 . S
C764 H758 0.930 . S
C764 C760 1.400 . S
C764 C763 1.385 . S
C765 C763 1.478 . S
C765 C767 1.381 . S
C765 C771 1.383 . S
C766 C762 1.495 . S
C766 H772 0.959 . S
C766 H773 0.961 . S
C766 H774 0.960 . S
C767 C765 1.381 . S
C767 C768 1.394 . S
C767 H775 0.930 . S
C768 C767 1.394 . S
C768 C769 1.383 . S
C768 H776 0.929 . S
C769 C768 1.383 . S
C769 C770 1.377 . S
C770 H754 0.930 . S
C770 C769 1.377 . S
C770 C771 1.379 . S
C771 H755 0.931 . S
C771 C765 1.383 . S
C771 C770 1.379 . S
H772 C766 0.959 . S
H773 C766 0.961 . S
H774 C766 0.960 . S
H775 C767 0.930 . S
H776 C768 0.929 . S
H777 C785 0.929 . S
H778 C787 0.930 . S
H779 C789 0.930 . S
H780 C792 0.929 . S
H781 C795 0.930 . S
H782 C797 0.960 . S
H783 C797 0.960 . S
H784 C797 0.960 . S
C785 H777 0.929 . S
C785 C786 1.377 . S
C785 C787 1.384 . S
C786 C785 1.377 . S
C786 C792 1.390 1_556 S
C787 H778 0.930 . S
C787 C785 1.384 . S
C787 C788 1.372 . S
C788 C787 1.372 . S
C788 C789 1.400 . S
C788 C793 1.490 . S
C789 H779 0.930 . S
C789 C788 1.400 . S
C789 C792 1.386 1_556 S
H790 C806 0.930 . S
H791 C807 0.931 . S
C792 H780 0.929 . S
C792 C786 1.390 1_554 S
C792 C789 1.386 1_554 S
C793 C788 1.490 . S
C793 C795 1.395 . S
C793 C796 1.403 . S
H794 C800 0.930 . S
C795 H781 0.930 . S
C795 C793 1.395 . S
C795 C798 1.403 . S
C796 C793 1.403 . S
C796 C797 1.524 . S
C796 C800 1.400 . S
C797 H782 0.960 . S
C797 H783 0.960 . S
C797 H784 0.960 . S
C797 C796 1.524 . S
C798 C795 1.403 . S
C798 C799 1.392 . S
C798 C802 1.495 . S
C799 C798 1.392 . S
C799 C800 1.385 . S
C799 C801 1.478 . S
C800 H794 0.930 . S
C800 C796 1.400 . S
C800 C799 1.385 . S
C801 C799 1.478 . S
C801 C803 1.381 . S
C801 C807 1.383 . S
C802 C798 1.495 . S
C802 H808 0.959 . S
C802 H809 0.961 . S
C802 H810 0.960 . S
C803 C801 1.381 . S
C803 C804 1.394 . S
C803 H811 0.930 . S
C804 C803 1.394 . S
C804 C805 1.383 . S
C804 H812 0.929 . S
C805 C804 1.383 . S
C805 C806 1.377 . S
C806 H790 0.930 . S
C806 C805 1.377 . S
C806 C807 1.379 . S
C807 H791 0.931 . S
C807 C801 1.383 . S
C807 C806 1.379 . S
H808 C802 0.959 . S
H809 C802 0.961 . S
H810 C802 0.960 . S
H811 C803 0.930 . S
H812 C804 0.929 . S
H813 C821 0.929 . S
H814 C823 0.930 . S
H815 C825 0.930 . S
H816 C828 0.929 . S
H817 C831 0.930 . S
H818 C833 0.960 . S
H819 C833 0.960 . S
H820 C833 0.960 . S
C821 H813 0.929 . S
C821 C822 1.377 . S
C821 C823 1.384 . S
C822 C821 1.377 . S
C822 C828 1.390 . S
C823 H814 0.930 . S
C823 C821 1.384 . S
C823 C824 1.372 . S
C824 C823 1.372 . S
C824 C825 1.400 . S
C824 C829 1.490 . S
C825 H815 0.930 . S
C825 C824 1.400 . S
C825 C828 1.386 . S
H826 C842 0.930 . S
H827 C843 0.931 . S
C828 H816 0.929 . S
C828 C822 1.390 . S
C828 C825 1.386 . S
C829 C824 1.490 . S
C829 C831 1.395 . S
C829 C832 1.403 . S
H830 C836 0.930 . S
C831 H817 0.930 . S
C831 C829 1.395 . S
C831 C834 1.403 . S
C832 C829 1.403 . S
C832 C833 1.524 . S
C832 C836 1.400 . S
C833 H818 0.960 . S
C833 H819 0.960 . S
C833 H820 0.960 . S
C833 C832 1.524 . S
C834 C831 1.403 . S
C834 C835 1.392 . S
C834 C838 1.495 . S
C835 C834 1.392 . S
C835 C836 1.385 . S
C835 C837 1.478 . S
C836 H830 0.930 . S
C836 C832 1.400 . S
C836 C835 1.385 . S
C837 C835 1.478 . S
C837 C839 1.381 . S
C837 C843 1.383 . S
C838 C834 1.495 . S
C838 H844 0.959 . S
C838 H845 0.961 . S
C838 H846 0.960 . S
C839 C837 1.381 . S
C839 C840 1.394 . S
C839 H847 0.930 . S
C840 C839 1.394 . S
C840 C841 1.383 . S
C840 H848 0.929 . S
C841 C840 1.383 . S
C841 C842 1.377 . S
C842 H826 0.930 . S
C842 C841 1.377 . S
C842 C843 1.379 . S
C843 H827 0.931 . S
C843 C837 1.383 . S
C843 C842 1.379 . S
H844 C838 0.959 . S
H845 C838 0.961 . S
H846 C838 0.960 . S
H847 C839 0.930 . S
H848 C840 0.929 . S
H849 C857 0.929 . S
H850 C859 0.930 . S
H851 C861 0.930 . S
H852 C864 0.929 . S
H853 C867 0.930 . S
H854 C869 0.960 . S
H855 C869 0.960 . S
H856 C869 0.960 . S
C857 H849 0.929 . S
C857 C858 1.377 . S
C857 C859 1.384 . S
C858 C857 1.377 . S
C858 C864 1.390 . S
C859 H850 0.930 . S
C859 C857 1.384 . S
C859 C860 1.372 . S
C860 C859 1.372 . S
C860 C861 1.400 . S
C860 C865 1.490 . S
C861 H851 0.930 . S
C861 C860 1.400 . S
C861 C864 1.386 . S
H862 C878 0.930 . S
H863 C879 0.931 . S
C864 H852 0.929 . S
C864 C858 1.390 . S
C864 C861 1.386 . S
C865 C860 1.490 . S
C865 C867 1.395 . S
C865 C868 1.403 . S
H866 C872 0.930 . S
C867 H853 0.930 . S
C867 C865 1.395 . S
C867 C870 1.403 . S
C868 C865 1.403 . S
C868 C869 1.524 . S
C868 C872 1.400 . S
C869 H854 0.960 . S
C869 H855 0.960 . S
C869 H856 0.960 . S
C869 C868 1.524 . S
C870 C867 1.403 . S
C870 C871 1.392 . S
C870 C874 1.495 . S
C871 C870 1.392 . S
C871 C872 1.385 . S
C871 C873 1.478 . S
C872 H866 0.930 . S
C872 C868 1.400 . S
C872 C871 1.385 . S
C873 C871 1.478 . S
C873 C875 1.381 . S
C873 C879 1.383 . S
C874 C870 1.495 . S
C874 H880 0.959 . S
C874 H881 0.961 . S
C874 H882 0.960 . S
C875 C873 1.381 . S
C875 C876 1.394 . S
C875 H883 0.930 . S
C876 C875 1.394 . S
C876 C877 1.383 . S
C876 H884 0.929 . S
C877 C876 1.383 . S
C877 C878 1.377 . S
C878 H862 0.930 . S
C878 C877 1.377 . S
C878 C879 1.379 . S
C879 H863 0.931 . S
C879 C873 1.383 . S
C879 C878 1.379 . S
H880 C874 0.959 . S
H881 C874 0.961 . S
H882 C874 0.960 . S
H883 C875 0.930 . S
H884 C876 0.929 . S
H885 C893 0.929 . S
H886 C895 0.930 . S
H887 C897 0.930 . S
H888 C900 0.929 . S
H889 C903 0.930 . S
H890 C905 0.960 . S
H891 C905 0.960 . S
H892 C905 0.960 . S
C893 H885 0.929 . S
C893 C894 1.377 . S
C893 C895 1.384 . S
C894 C893 1.377 . S
C894 C900 1.390 . S
C895 H886 0.930 . S
C895 C893 1.384 . S
C895 C896 1.372 . S
C896 C895 1.372 . S
C896 C897 1.400 . S
C896 C901 1.490 . S
C897 H887 0.930 . S
C897 C896 1.400 . S
C897 C900 1.386 . S
H898 C914 0.930 . S
H899 C915 0.931 . S
C900 H888 0.929 . S
C900 C894 1.390 . S
C900 C897 1.386 . S
C901 C896 1.490 . S
C901 C903 1.395 . S
C901 C904 1.403 . S
H902 C908 0.930 . S
C903 H889 0.930 . S
C903 C901 1.395 . S
C903 C906 1.403 . S
C904 C901 1.403 . S
C904 C905 1.524 . S
C904 C908 1.400 . S
C905 H890 0.960 . S
C905 H891 0.960 . S
C905 H892 0.960 . S
C905 C904 1.524 . S
C906 C903 1.403 . S
C906 C907 1.392 . S
C906 C910 1.495 . S
C907 C906 1.392 . S
C907 C908 1.385 . S
C907 C909 1.478 . S
C908 H902 0.930 . S
C908 C904 1.400 . S
C908 C907 1.385 . S
C909 C907 1.478 . S
C909 C911 1.381 . S
C909 C915 1.383 . S
C910 C906 1.495 . S
C910 H916 0.959 . S
C910 H917 0.961 . S
C910 H918 0.960 . S
C911 C909 1.381 . S
C911 C912 1.394 . S
C911 H919 0.930 . S
C912 C911 1.394 . S
C912 C913 1.383 . S
C912 H920 0.929 . S
C913 C912 1.383 . S
C913 C914 1.377 . S
C914 H898 0.930 . S
C914 C913 1.377 . S
C914 C915 1.379 . S
C915 H899 0.931 . S
C915 C909 1.383 . S
C915 C914 1.379 . S
H916 C910 0.959 . S
H917 C910 0.961 . S
H918 C910 0.960 . S
H919 C911 0.930 . S
H920 C912 0.929 . S
H921 C929 0.929 . S
H922 C931 0.930 . S
H923 C933 0.930 . S
H924 C936 0.929 . S
H925 C939 0.930 . S
H926 C941 0.960 . S
H927 C941 0.960 . S
H928 C941 0.960 . S
C929 H921 0.929 . S
C929 C930 1.377 . S
C929 C931 1.384 . S
C930 C929 1.377 . S
C930 C936 1.390 . S
C931 H922 0.930 . S
C931 C929 1.384 . S
C931 C932 1.372 . S
C932 C931 1.372 . S
C932 C933 1.400 . S
C932 C937 1.490 . S
C933 H923 0.930 . S
C933 C932 1.400 . S
C933 C936 1.386 . S
H934 C950 0.930 . S
H935 C951 0.931 . S
C936 H924 0.929 . S
C936 C930 1.390 . S
C936 C933 1.386 . S
C937 C932 1.490 . S
C937 C939 1.395 . S
C937 C940 1.403 . S
H938 C944 0.930 . S
C939 H925 0.930 . S
C939 C937 1.395 . S
C939 C942 1.403 . S
C940 C937 1.403 . S
C940 C941 1.524 . S
C940 C944 1.400 . S
C941 H926 0.960 . S
C941 H927 0.960 . S
C941 H928 0.960 . S
C941 C940 1.524 . S
C942 C939 1.403 . S
C942 C943 1.392 . S
C942 C946 1.495 . S
C943 C942 1.392 . S
C943 C944 1.385 . S
C943 C945 1.478 . S
C944 H938 0.930 . S
C944 C940 1.400 . S
C944 C943 1.385 . S
C945 C943 1.478 . S
C945 C947 1.381 . S
C945 C951 1.383 . S
C946 C942 1.495 . S
C946 H952 0.959 . S
C946 H953 0.961 . S
C946 H954 0.960 . S
C947 C945 1.381 . S
C947 C948 1.394 . S
C947 H955 0.930 . S
C948 C947 1.394 . S
C948 C949 1.383 . S
C948 H956 0.929 . S
C949 C948 1.383 . S
C949 C950 1.377 . S
C950 H934 0.930 . S
C950 C949 1.377 . S
C950 C951 1.379 . S
C951 H935 0.931 . S
C951 C945 1.383 . S
C951 C950 1.379 . S
H952 C946 0.959 . S
H953 C946 0.961 . S
H954 C946 0.960 . S
H955 C947 0.930 . S
H956 C948 0.929 . S
H957 C965 0.929 . S
H958 C967 0.930 . S
H959 C969 0.930 . S
H960 C972 0.929 . S
H961 C975 0.930 . S
H962 C977 0.960 . S
H963 C977 0.960 . S
H964 C977 0.960 . S
C965 H957 0.929 . S
C965 C966 1.377 . S
C965 C967 1.384 . S
C966 C965 1.377 . S
C966 C972 1.390 . S
C967 H958 0.930 . S
C967 C965 1.384 . S
C967 C968 1.372 . S
C968 C967 1.372 . S
C968 C969 1.400 . S
C968 C973 1.490 . S
C969 H959 0.930 . S
C969 C968 1.400 . S
C969 C972 1.386 . S
H970 C986 0.930 . S
H971 C987 0.931 . S
C972 H960 0.929 . S
C972 C966 1.390 . S
C972 C969 1.386 . S
C973 C968 1.490 . S
C973 C975 1.395 . S
C973 C976 1.403 . S
H974 C980 0.930 . S
C975 H961 0.930 . S
C975 C973 1.395 . S
C975 C978 1.403 . S
C976 C973 1.403 . S
C976 C977 1.524 . S
C976 C980 1.400 . S
C977 H962 0.960 . S
C977 H963 0.960 . S
C977 H964 0.960 . S
C977 C976 1.524 . S
C978 C975 1.403 . S
C978 C979 1.392 . S
C978 C982 1.495 . S
C979 C978 1.392 . S
C979 C980 1.385 . S
C979 C981 1.478 . S
C980 H974 0.930 . S
C980 C976 1.400 . S
C980 C979 1.385 . S
C981 C979 1.478 . S
C981 C983 1.381 . S
C981 C987 1.383 . S
C982 C978 1.495 . S
C982 H988 0.959 . S
C982 H989 0.961 . S
C982 H990 0.960 . S
C983 C981 1.381 . S
C983 C984 1.394 . S
C983 H991 0.930 . S
C984 C983 1.394 . S
C984 C985 1.383 . S
C984 H992 0.929 . S
C985 C984 1.383 . S
C985 C986 1.377 . S
C986 H970 0.930 . S
C986 C985 1.377 . S
C986 C987 1.379 . S
C987 H971 0.931 . S
C987 C981 1.383 . S
C987 C986 1.379 . S
H988 C982 0.959 . S
H989 C982 0.961 . S
H990 C982 0.960 . S
H991 C983 0.930 . S
H992 C984 0.929 . S
H993 C1001 0.929 . S
H994 C1003 0.930 . S
H995 C1005 0.930 . S
H996 C1008 0.929 . S
H997 C1011 0.930 . S
H998 C1013 0.960 . S
H999 C1013 0.960 . S
H1000 C1013 0.960 . S
C1001 H993 0.929 . S
C1001 C1002 1.377 . S
C1001 C1003 1.384 . S
C1002 C1001 1.377 . S
C1002 C1008 1.390 . S
C1003 H994 0.930 . S
C1003 C1001 1.384 . S
C1003 C1004 1.372 . S
C1004 C1003 1.372 . S
C1004 C1005 1.400 . S
C1004 C1009 1.490 . S
C1005 H995 0.930 . S
C1005 C1004 1.400 . S
C1005 C1008 1.386 . S
H1006 C1022 0.930 . S
H1007 C1023 0.931 . S
C1008 H996 0.929 . S
C1008 C1002 1.390 . S
C1008 C1005 1.386 . S
C1009 C1004 1.490 . S
C1009 C1011 1.395 . S
C1009 C1012 1.403 . S
H1010 C1016 0.930 . S
C1011 H997 0.930 . S
C1011 C1009 1.395 . S
C1011 C1014 1.403 . S
C1012 C1009 1.403 . S
C1012 C1013 1.524 . S
C1012 C1016 1.400 . S
C1013 H998 0.960 . S
C1013 H999 0.960 . S
C1013 H1000 0.960 . S
C1013 C1012 1.524 . S
C1014 C1011 1.403 . S
C1014 C1015 1.392 . S
C1014 C1018 1.495 . S
C1015 C1014 1.392 . S
C1015 C1016 1.385 . S
C1015 C1017 1.478 . S
C1016 H1010 0.930 . S
C1016 C1012 1.400 . S
C1016 C1015 1.385 . S
C1017 C1015 1.478 . S
C1017 C1019 1.381 . S
C1017 C1023 1.383 . S
C1018 C1014 1.495 . S
C1018 H1024 0.959 . S
C1018 H1025 0.961 . S
C1018 H1026 0.960 . S
C1019 C1017 1.381 . S
C1019 C1020 1.394 . S
C1019 H1027 0.930 . S
C1020 C1019 1.394 . S
C1020 C1021 1.383 . S
C1020 H1028 0.929 . S
C1021 C1020 1.383 . S
C1021 C1022 1.377 . S
C1022 H1006 0.930 . S
C1022 C1021 1.377 . S
C1022 C1023 1.379 . S
C1023 H1007 0.931 . S
C1023 C1017 1.383 . S
C1023 C1022 1.379 . S
H1024 C1018 0.959 . S
H1025 C1018 0.961 . S
H1026 C1018 0.960 . S
H1027 C1019 0.930 . S
H1028 C1020 0.929 . S
H1029 C1037 0.929 . S
H1030 C1039 0.930 . S
H1031 C1041 0.930 . S
H1032 C1044 0.929 . S
H1033 C1047 0.930 . S
H1034 C1049 0.960 . S
H1035 C1049 0.960 . S
H1036 C1049 0.960 . S
C1037 H1029 0.929 . S
C1037 C1038 1.377 . S
C1037 C1039 1.384 . S
C1038 C1037 1.377 . S
C1038 C1044 1.390 . S
C1039 H1030 0.930 . S
C1039 C1037 1.384 . S
C1039 C1040 1.372 . S
C1040 C1039 1.372 . S
C1040 C1041 1.400 . S
C1040 C1045 1.490 . S
C1041 H1031 0.930 . S
C1041 C1040 1.400 . S
C1041 C1044 1.386 . S
H1042 C1058 0.930 . S
H1043 C1059 0.931 . S
C1044 H1032 0.929 . S
C1044 C1038 1.390 . S
C1044 C1041 1.386 . S
C1045 C1040 1.490 . S
C1045 C1047 1.395 . S
C1045 C1048 1.403 . S
H1046 C1052 0.930 . S
C1047 H1033 0.930 . S
C1047 C1045 1.395 . S
C1047 C1050 1.403 . S
C1048 C1045 1.403 . S
C1048 C1049 1.524 . S
C1048 C1052 1.400 . S
C1049 H1034 0.960 . S
C1049 H1035 0.960 . S
C1049 H1036 0.960 . S
C1049 C1048 1.524 . S
C1050 C1047 1.403 . S
C1050 C1051 1.392 . S
C1050 C1054 1.495 . S
C1051 C1050 1.392 . S
C1051 C1052 1.385 . S
C1051 C1053 1.478 . S
C1052 H1046 0.930 . S
C1052 C1048 1.400 . S
C1052 C1051 1.385 . S
C1053 C1051 1.478 . S
C1053 C1055 1.381 . S
C1053 C1059 1.383 . S
C1054 C1050 1.495 . S
C1054 H1060 0.959 . S
C1054 H1061 0.961 . S
C1054 H1062 0.960 . S
C1055 C1053 1.381 . S
C1055 C1056 1.394 . S
C1055 H1063 0.930 . S
C1056 C1055 1.394 . S
C1056 C1057 1.383 . S
C1056 H1064 0.929 . S
C1057 C1056 1.383 . S
C1057 C1058 1.377 . S
C1058 H1042 0.930 . S
C1058 C1057 1.377 . S
C1058 C1059 1.379 . S
C1059 H1043 0.931 . S
C1059 C1053 1.383 . S
C1059 C1058 1.379 . S
H1060 C1054 0.959 . S
H1061 C1054 0.961 . S
H1062 C1054 0.960 . S
H1063 C1055 0.930 . S
H1064 C1056 0.929 . S
C210 C16 1.716 . S
C229 C108 1.745 . S
C246 C26 1.584 . S
C265 C140 1.619 . S
C301 C199 1.969 . S
C282 C52 1.968 . S
C337 C128 1.463 . S
C318 C62 1.477 . S
C354 C80 1.625 . S
C373 C158 1.604 . S
C409 C180 1.198 . S
C390 C98 1.191 . S
C445 C149 1.697 . S
C426 C43 1.657 . S
C462 C68 1.274 . S
C481 C189 1.281 . S
C517 C138 1.579 . S
C498 C86 1.571 1_556 S
C534 C104 1.566 . S
C553 C168 1.564 . S
C570 C7 1.905 . S
C589 C171 1.928 . S
C625 C110 1.670 . S
C606 C32 1.658 1_556 S
C661 C118 1.629 . S
C642 C61 1.607 . S
C697 C159 1.584 . S
C678 C79 1.552 . S
C733 C172 1.966 . S
C714 C97 1.992 . S
C769 C109 1.488 . S
C750 C14 1.498 . S
C805 C169 1.490 . S
C786 C25 1.525 1_556 S
C822 C50 1.186 . S
C841 C170 1.214 . S
C877 C139 1.591 . S
C858 C106 1.632 . S
C913 C200 1.162 . S
C894 C8 1.178 . S
C949 C127 1.495 . S
C930 C34 1.545 . S
C985 C141 1.565 . S
C966 C44 1.581 . S
C1002 C70 1.895 . S
C1021 C190 1.872 . S
C1038 C88 1.648 . S
C1057 C137 1.679 . S
