# Generated by pormake.
# Topology rtl, (3,6)-cn, num edge types: 1
# Building blocks:
#     Node 0, Type 0, BuildingBlock: VETTIZ_charged_linker_0, # of connection points: 3
#     Node 1, Type 0, BuildingBlock: VETTIZ_charged_linker_0, # of connection points: 3
#     Node 2, Type 0, BuildingBlock: VETTIZ_charged_linker_0, # of connection points: 3
#     Node 3, Type 0, BuildingBlock: VETTIZ_charged_linker_0, # of connection points: 3
#     Node 4, Type 1, BuildingBlock: KUMBUR_clean_sbu_1, # of connection points: 6
#     Node 5, Type 1, BuildingBlock: KUMBUR_clean_sbu_1, # of connection points: 6
#     Edge 6, Type (0, 1), BuildingBlock: KIFKEQ_clean_linker_1, # of connection points: 2
#     Edge 7, Type (0, 1), BuildingBlock: KIFKEQ_clean_linker_1, # of connection points: 2
#     Edge 8, Type (0, 1), BuildingBlock: KIFKEQ_clean_linker_1, # of connection points: 2
#     Edge 9, Type (0, 1), BuildingBlock: KIFKEQ_clean_linker_1, # of connection points: 2
#     Edge 10, Type (0, 1), BuildingBlock: KIFKEQ_clean_linker_1, # of connection points: 2
#     Edge 11, Type (0, 1), BuildingBlock: KIFKEQ_clean_linker_1, # of connection points: 2
#     Edge 12, Type (0, 1), BuildingBlock: KIFKEQ_clean_linker_1, # of connection points: 2
#     Edge 13, Type (0, 1), BuildingBlock: KIFKEQ_clean_linker_1, # of connection points: 2
#     Edge 14, Type (0, 1), BuildingBlock: KIFKEQ_clean_linker_1, # of connection points: 2
#     Edge 15, Type (0, 1), BuildingBlock: KIFKEQ_clean_linker_1, # of connection points: 2
#     Edge 16, Type (0, 1), BuildingBlock: KIFKEQ_clean_linker_1, # of connection points: 2
#     Edge 17, Type (0, 1), BuildingBlock: KIFKEQ_clean_linker_1, # of connection points: 2
# Relax obj value: 0.017
# Max RMSD: 0.096
# Mean RMSD: 0.057
data_MOF--net-rtl--node1-KUMBUR_clean_sbu_1--node2-VETTIZ_charged_linker_0--edge1-KIFKEQ_clean_linker_1
_symmetry_space_group_name_H-M    P1
_symmetry_Int_Tables_number       1
_symmetry_cell_setting            triclinic
loop_
_symmetry_equiv_pos_as_xyz
'x, y, z'
_cell_length_a     39.90566
_cell_length_b     40.632862
_cell_length_c     35.362198
_cell_angle_alpha  80.166368
_cell_angle_beta   99.110102
_cell_angle_gamma 90.516247
loop_
_atom_site_label
_atom_site_type_symbol
_atom_site_fract_x
_atom_site_fract_y
_atom_site_fract_z
_atom_type_partial_charge
C0 C 0.15732 0.89316 0.89297 0.0
C1 C 0.12918 0.91493 0.88699 0.0
C2 C 0.11474 0.92046 0.91934 0.0
C3 C 0.1565 0.88262 0.96257 0.0
C4 C 0.17025 0.87718 0.9306 0.0
C5 C 0.19865 0.85173 0.94104 0.0
H6 H 0.29424 0.73789 0.0748 0.0
C7 C 0.17563 0.86123 0.99738 0.0
C8 C 0.20013 0.84296 0.98466 0.0
H9 H 0.29544 0.76167 0.95099 0.0
H10 H 0.25307 0.80465 0.94473 0.0
H11 H 0.29258 0.81435 0.0872 0.0
H12 H 0.21341 0.74322 0.07065 0.0
H13 H 0.20568 0.76397 0.10829 0.0
H14 H 0.24433 0.73983 0.11402 0.0
H15 H 0.28459 0.78203 0.12591 0.0
H16 H 0.26254 0.82196 0.11609 0.0
C17 C 0.23142 0.86905 0.93012 0.0
C18 C 0.18784 0.82164 0.92033 0.0
C19 C 0.14817 0.86451 0.13286 0.0
C20 C 0.16224 0.84765 0.17017 0.0
C21 C 0.18909 0.82443 0.17355 0.0
C22 C 0.20174 0.81813 0.1407 0.0
C23 C 0.18748 0.8351 0.10374 0.0
C24 C 0.16124 0.85797 0.10019 0.0
C25 C 0.14947 0.87369 0.0584 0.0
C26 C 0.17326 0.85679 0.03768 0.0
C27 C 0.1953 0.83401 0.06448 0.0
C28 C 0.15528 0.91174 0.05434 0.0
C29 C 0.11202 0.86418 0.04696 0.0
C30 C 0.28556 0.75257 0.04641 0.0
C31 C 0.29793 0.74592 0.01324 0.0
C32 C 0.28584 0.76565 0.97687 0.0
C33 C 0.26129 0.7908 0.9733 0.0
C34 C 0.24847 0.7965 0.00643 0.0
C35 C 0.26092 0.77791 0.04231 0.0
C36 C 0.2445 0.78799 0.07426 0.0
C37 C 0.21954 0.81503 0.05136 0.0
C38 C 0.22202 0.81975 0.01171 0.0
C39 C 0.27232 0.80214 0.10266 0.0
C40 C 0.22611 0.75725 0.09318 0.0
H41 H 0.11642 0.90982 0.98064 0.0
H42 H 0.16847 0.88779 0.86862 0.0
H43 H 0.15983 0.81855 0.91649 0.0
H44 H 0.19816 0.79747 0.93724 0.0
H45 H 0.19543 0.82505 0.89104 0.0
H46 H 0.23207 0.89531 0.93535 0.0
H47 H 0.23296 0.86967 0.89892 0.0
H48 H 0.2548 0.85716 0.948 0.0
H49 H 0.1277 0.88266 0.12917 0.0
H50 H 0.20006 0.81065 0.20172 0.0
H51 H 0.22206 0.80007 0.14538 0.0
H52 H 0.18038 0.91682 0.07082 0.0
H53 H 0.13545 0.92421 0.06599 0.0
H54 H 0.15573 0.92393 0.02408 0.0
H55 H 0.10719 0.8385 0.06162 0.0
H56 H 0.1051 0.86358 0.0156 0.0
H57 H 0.09441 0.88158 0.05551 0.0
H58 H 0.09296 0.93713 0.91534 0.0
C59 C 0.1284 0.9046 0.95715 0.0
C60 C 0.65542 0.65662 0.73498 0.0
C61 C 0.63276 0.62992 0.73922 0.0
C62 C 0.62183 0.61396 0.70713 0.0
C63 C 0.65612 0.65058 0.66781 0.0
C64 C 0.66696 0.66631 0.69921 0.0
C65 C 0.69219 0.6932 0.68997 0.0
H66 H 0.78751 0.77356 0.56047 0.0
C67 C 0.67311 0.66609 0.63508 0.0
C68 C 0.6945 0.69106 0.64792 0.0
H69 H 0.78599 0.79069 0.67738 0.0
H70 H 0.74243 0.74897 0.68517 0.0
H71 H 0.78439 0.69446 0.57821 0.0
H72 H 0.70923 0.77256 0.53734 0.0
H73 H 0.69438 0.73955 0.51355 0.0
H74 H 0.73446 0.75826 0.50549 0.0
H75 H 0.7792 0.71883 0.53024 0.0
H76 H 0.75599 0.68101 0.54096 0.0
C77 C 0.72622 0.6835 0.71723 0.0
C78 C 0.67691 0.72711 0.69379 0.0
C79 C 0.64847 0.62591 0.50431 0.0
C80 C 0.66055 0.63609 0.46883 0.0
C81 C 0.68438 0.66187 0.46631 0.0
C82 C 0.69589 0.67736 0.49818 0.0
C83 C 0.68364 0.66708 0.53333 0.0
C84 C 0.66024 0.64187 0.53606 0.0
C85 C 0.6501 0.63463 0.57595 0.0
C86 C 0.67119 0.65981 0.59641 0.0
C87 C 0.69083 0.67848 0.57122 0.0
C88 C 0.6609 0.59812 0.5943 0.0
C89 C 0.61156 0.64207 0.57155 0.0
C90 C 0.77809 0.7681 0.58794 0.0
C91 C 0.79056 0.78496 0.61855 0.0
C92 C 0.77684 0.77785 0.65341 0.0
C93 C 0.75169 0.75356 0.65789 0.0
C94 C 0.73995 0.73642 0.62706 0.0
C95 C 0.75294 0.7443 0.59269 0.0
C96 C 0.73705 0.72484 0.56234 0.0
C97 C 0.71287 0.70322 0.58426 0.0
C98 C 0.71462 0.7098 0.62227 0.0
C99 C 0.76544 0.70376 0.55197 0.0
C100 C 0.71793 0.74988 0.52765 0.0
H101 H 0.62391 0.61097 0.64836 0.0
H102 H 0.66453 0.66917 0.7592 0.0
H103 H 0.64924 0.72863 0.68232 0.0
H104 H 0.68793 0.7486 0.67671 0.0
H105 H 0.6802 0.73045 0.72469 0.0
H106 H 0.73159 0.65625 0.72055 0.0
H107 H 0.72548 0.68941 0.74663 0.0
H108 H 0.74822 0.69584 0.70596 0.0
H109 H 0.63008 0.60624 0.50719 0.0
H110 H 0.69466 0.66979 0.4397 0.0
H111 H 0.71414 0.69663 0.49415 0.0
H112 H 0.68461 0.59084 0.5847 0.0
H113 H 0.64095 0.58036 0.58574 0.0
H114 H 0.66703 0.59432 0.62633 0.0
H115 H 0.60412 0.66481 0.54943 0.0
H116 H 0.60372 0.64747 0.59845 0.0
H117 H 0.59647 0.621 0.56204 0.0
H118 H 0.60413 0.59363 0.70948 0.0
C119 C 0.63326 0.62417 0.67156 0.0
C120 C 0.84353 0.12412 0.1876 0.0
C121 C 0.86757 0.09773 0.1957 0.0
C122 C 0.87683 0.08442 0.16436 0.0
C123 C 0.83935 0.1243 0.11833 0.0
C124 C 0.82966 0.13669 0.14904 0.0
C125 C 0.80339 0.1642 0.13587 0.0
H126 H 0.70344 0.2646 0.99059 0.0
C127 C 0.82062 0.14353 0.08193 0.0
C128 C 0.79927 0.16667 0.09209 0.0
H129 H 0.71054 0.25957 0.11489 0.0
H130 H 0.75272 0.21595 0.12629 0.0
H131 H 0.78518 0.25902 0.99246 0.0
H132 H 0.70758 0.1844 0.99168 0.0
H133 H 0.73462 0.17774 0.9588 0.0
H134 H 0.71041 0.21625 0.95037 0.0
H135 H 0.75459 0.25666 0.94998 0.0
H136 H 0.79338 0.23204 0.961 0.0
C137 C 0.81857 0.19638 0.14924 0.0
C138 C 0.77052 0.1523 0.152 0.0
C139 C 0.84653 0.12316 0.95186 0.0
C140 C 0.83473 0.13795 0.91314 0.0
C141 C 0.80919 0.16308 0.90575 0.0
C142 C 0.79599 0.1735 0.9364 0.0
C143 C 0.8085 0.15878 0.97496 0.0
C144 C 0.8332 0.13388 0.98207 0.0
C145 C 0.8438 0.12114 0.02474 0.0
C146 C 0.82176 0.14278 0.04217 0.0
C147 C 0.80106 0.16482 0.01295 0.0
C148 C 0.88206 0.12814 0.03543 0.0
C149 C 0.83457 0.08373 0.03312 0.0
C150 C 0.71422 0.25414 0.02023 0.0
C151 C 0.70316 0.26535 0.05188 0.0
C152 C 0.71787 0.25096 0.08997 0.0
C153 C 0.74264 0.22569 0.09659 0.0
C154 C 0.75321 0.21455 0.06486 0.0
C155 C 0.73921 0.22874 0.02742 0.0
C156 C 0.7542 0.21374 0.99748 0.0
C157 C 0.77894 0.18789 0.02329 0.0
C158 C 0.77818 0.1887 0.06266 0.0
C159 C 0.77268 0.24167 0.97363 0.0
C160 C 0.72533 0.19728 0.97295 0.0
H161 H 0.87119 0.0865 0.10333 0.0
H162 H 0.83596 0.13532 0.21068 0.0
H163 H 0.76824 0.12467 0.15527 0.0
H164 H 0.74716 0.16214 0.13225 0.0
H165 H 0.77021 0.1592 0.18101 0.0
H166 H 0.84613 0.19787 0.14736 0.0
H167 H 0.81574 0.19691 0.17988 0.0
H168 H 0.80727 0.21952 0.13075 0.0
H169 H 0.86645 0.10415 0.95873 0.0
H170 H 0.79933 0.17465 0.8762 0.0
H171 H 0.77667 0.19274 0.9289 0.0
H172 H 0.88835 0.15313 0.02011 0.0
H173 H 0.89799 0.10923 0.02692 0.0
H174 H 0.88996 0.12884 0.0666 0.0
H175 H 0.81159 0.07831 0.01301 0.0
H176 H 0.82794 0.07605 0.0625 0.0
H177 H 0.85558 0.06741 0.02942 0.0
H178 H 0.89471 0.06364 0.16956 0.0
C179 C 0.86294 0.09759 0.12582 0.0
C180 C 0.35018 0.34735 0.32015 0.0
C181 C 0.37278 0.37373 0.31373 0.0
C182 C 0.38643 0.38988 0.34469 0.0
C183 C 0.35486 0.35396 0.38788 0.0
C184 C 0.34135 0.33806 0.35743 0.0
C185 C 0.31639 0.31172 0.36946 0.0
H186 H 0.23229 0.23247 0.51092 0.0
C187 C 0.34011 0.33918 0.42255 0.0
C188 C 0.31734 0.31445 0.41202 0.0
H189 H 0.22242 0.2164 0.39195 0.0
H190 H 0.26529 0.25771 0.37957 0.0
H191 H 0.31304 0.2363 0.52539 0.0
H192 H 0.23316 0.31069 0.49193 0.0
H193 H 0.26462 0.32701 0.52375 0.0
H194 H 0.24403 0.28888 0.5409 0.0
H195 H 0.2873 0.24702 0.5589 0.0
H196 H 0.32559 0.26915 0.55061 0.0
C197 C 0.33011 0.27743 0.36471 0.0
C198 C 0.28117 0.32176 0.34497 0.0
C199 C 0.37469 0.38249 0.54978 0.0
C200 C 0.36399 0.37481 0.58626 0.0
C201 C 0.34002 0.34954 0.59218 0.0
C202 C 0.32661 0.33243 0.56221 0.0
C203 C 0.33706 0.34072 0.52569 0.0
C204 C 0.36078 0.3653 0.51996 0.0
C205 C 0.36812 0.3713 0.4789 0.0
C206 C 0.34505 0.3461 0.46108 0.0
C207 C 0.32703 0.32829 0.48867 0.0
C208 C 0.40611 0.3628 0.4803 0.0
C209 C 0.35746 0.40784 0.46021 0.0
C210 C 0.239 0.23802 0.48203 0.0
C211 C 0.22362 0.2213 0.45233 0.0
C212 C 0.23393 0.2288 0.41545 0.0
C213 C 0.25869 0.25295 0.40824 0.0
C214 C 0.27337 0.26982 0.43822 0.0
C215 C 0.26352 0.26197 0.4744 0.0
C216 C 0.2816 0.28204 0.50303 0.0
C217 C 0.30383 0.30351 0.47814 0.0
C218 C 0.29902 0.29642 0.44012 0.0
C219 C 0.30289 0.25757 0.5365 0.0
C220 C 0.25467 0.30317 0.51598 0.0
H221 H 0.38905 0.3934 0.40403 0.0
H222 H 0.33916 0.33481 0.29658 0.0
H223 H 0.27685 0.34925 0.34076 0.0
H224 H 0.25996 0.31078 0.35911 0.0
H225 H 0.27912 0.3146 0.31576 0.0
H226 H 0.35806 0.27537 0.37431 0.0
H227 H 0.32492 0.27399 0.33384 0.0
H228 H 0.31952 0.25627 0.38277 0.0
H229 H 0.3928 0.40205 0.54424 0.0
H230 H 0.3317 0.34293 0.62017 0.0
H231 H 0.30842 0.31355 0.56864 0.0
H232 H 0.41406 0.34012 0.50233 0.0
H233 H 0.42244 0.38361 0.48833 0.0
H234 H 0.41179 0.3568 0.45267 0.0
H235 H 0.33637 0.41685 0.47319 0.0
H236 H 0.34735 0.41059 0.42884 0.0
H237 H 0.37896 0.42508 0.46449 0.0
H238 H 0.40387 0.41025 0.3401 0.0
C239 C 0.37777 0.38005 0.38172 0.0
Tb240 Tb 0.03572 0.96842 0.52086 0.0
C241 C 0.95467 0.09724 0.4874 0.0
N242 N 0.98227 0.08925 0.51532 0.0
C243 C 0.00682 0.14198 0.49382 0.0
C244 C 0.95292 0.12706 0.4601 0.0
C245 C 0.00698 0.1123 0.52057 0.0
C246 C 0.98003 0.14905 0.46287 0.0
C247 C 0.89691 0.08475 0.46154 0.0
C248 C 0.92702 0.07661 0.48815 0.0
C249 C 0.89565 0.11344 0.43281 0.0
C250 C 0.92364 0.13455 0.43206 0.0
Tb251 Tb 0.98084 0.03836 0.55494 0.0
N252 N 0.92955 0.0487 0.51573 0.0
C253 C 0.8689 0.06408 0.46512 0.0
C254 C 0.90179 0.02953 0.52095 0.0
C255 C 0.8712 0.03664 0.49536 0.0
H256 H 0.02666 0.10818 0.54567 0.0
H257 H 0.84948 0.02095 0.49888 0.0
H258 H 0.00524 0.89814 0.56267 0.0
H259 H 0.16434 0.01438 0.53115 0.0
H260 H 0.90361 0.00831 0.54428 0.0
H261 H 0.84525 0.06946 0.44526 0.0
H262 H 0.1053 0.01043 0.49981 0.0
H263 H 0.02706 0.15963 0.4975 0.0
H264 H 0.87291 0.11993 0.41167 0.0
H265 H 0.92198 0.15713 0.41049 0.0
H266 H 0.02433 0.85248 0.61754 0.0
H267 H 0.97974 0.17224 0.44247 0.0
H268 H 0.1866 0.97538 0.59148 0.0
N269 N 0.05161 0.92424 0.56959 0.0
C270 C 0.08401 0.92392 0.58845 0.0
C271 C 0.04129 0.87257 0.60984 0.0
C272 C 0.09603 0.89851 0.61992 0.0
C273 C 0.03048 0.89851 0.57892 0.0
C274 C 0.07408 0.87277 0.63075 0.0
N275 N 0.09237 0.97259 0.54455 0.0
C276 C 0.11383 0.99461 0.52732 0.0
C277 C 0.13902 0.94971 0.594 0.0
C278 C 0.10495 0.94932 0.57586 0.0
C279 C 0.16024 0.97421 0.57845 0.0
C280 C 0.14774 0.99634 0.5445 0.0
H281 H 0.08235 0.85272 0.65477 0.0
H282 H 0.13924 0.88035 0.66366 0.0
H283 H 0.17702 0.92512 0.64079 0.0
O284 O 0.06617 0.95067 0.48495 0.0
O285 O 0.03036 0.96625 0.58221 0.0
O286 O 0.02996 0.0211 0.58912 0.0
O287 O 0.01419 0.93615 0.48316 0.0
O288 O 0.04718 0.02147 0.50289 0.0
O289 O 0.03484 0.04892 0.55145 0.0
O290 O 0.95986 0.02697 0.60654 0.0
O291 O 0.9635 0.01771 0.50182 0.0
O292 O 0.01234 0.01041 0.47825 0.0
O293 O 0.96743 0.07773 0.58163 0.0
O294 O 0.96644 0.98613 0.57143 0.0
O295 O 0.98265 0.95563 0.52653 0.0
C296 C 0.03754 0.98966 0.60339 0.0
C297 C 0.05174 0.90044 0.46195 0.0
C298 C 0.07356 0.86779 0.4187 0.0
C299 C 0.07092 0.83865 0.44594 0.0
C300 C 0.0492 0.87113 0.48861 0.0
C301 C 0.05881 0.84039 0.48058 0.0
C302 C 0.06388 0.89865 0.42714 0.0
C303 C 0.05188 0.04613 0.52298 0.0
C304 C 0.04208 0.9334 0.46916 0.0
C305 C 0.12954 0.8995 0.63918 0.0
C306 C 0.15101 0.92506 0.62623 0.0
C307 C 0.98025 0.01921 0.47266 0.0
C308 C 0.97382 0.06474 0.64967 0.0
C309 C 0.96681 0.07684 0.71328 0.0
C310 C 1.00236 0.07663 0.72365 0.0
C311 C 0.00916 0.06521 0.66031 0.0
C312 C 0.95273 0.07069 0.67608 0.0
C313 C 0.02333 0.07089 0.69725 0.0
C314 C 0.964 0.96008 0.55323 0.0
C315 C 0.95876 0.05793 0.61118 0.0
H316 H 0.07777 0.81444 0.44026 0.0
H317 H 0.03976 0.87192 0.51542 0.0
H318 H 0.05674 0.81778 0.50121 0.0
H319 H 0.06618 0.92146 0.40681 0.0
H320 H 0.01398 0.08158 0.75189 0.0
H321 H 0.02572 0.06135 0.63997 0.0
H322 H 0.9254 0.07024 0.66777 0.0
H323 H 0.05064 0.0711 0.70536 0.0
Tb324 Tb 0.46853 0.49141 0.98843 0.0
C325 C 0.59537 0.56699 0.03743 0.0
N326 N 0.58805 0.53463 0.04973 0.0
C327 C 0.64231 0.51712 0.03843 0.0
C328 C 0.62599 0.57566 0.02353 0.0
C329 C 0.6114 0.50976 0.05165 0.0
C330 C 0.64948 0.55018 0.02385 0.0
C331 C 0.57862 0.62529 0.0272 0.0
C332 C 0.57189 0.59129 0.03901 0.0
C333 C 0.60858 0.63417 0.01203 0.0
C334 C 0.63224 0.60939 0.01022 0.0
Tb335 Tb 0.53663 0.525 0.0697 0.0
N336 N 0.54335 0.58164 0.05408 0.0
C337 C 0.55557 0.64934 0.03214 0.0
C338 C 0.52243 0.60516 0.06204 0.0
C339 C 0.52769 0.63922 0.05033 0.0
H340 H 0.60599 0.48423 0.063 0.0
H341 H 0.51055 0.65765 0.05595 0.0
H342 H 0.4061 0.54974 0.9647 0.0
H343 H 0.46057 0.35808 0.02911 0.0
H344 H 0.50202 0.59795 0.07822 0.0
H345 H 0.55978 0.67574 0.02346 0.0
H346 H 0.48706 0.41106 1.00405 0.0
H347 H 0.66054 0.49731 0.03941 0.0
H348 H 0.61405 0.66016 1.00247 0.0
H349 H 0.6555 0.61661 0.99909 0.0
H350 H 0.34884 0.55657 0.98006 0.0
H351 H 0.67337 0.5558 0.01347 0.0
H352 H 0.40403 0.35921 0.04945 0.0
N353 N 0.41366 0.50033 0.99689 0.0
C354 C 0.39793 0.4731 0.0136 0.0
C355 C 0.36261 0.5331 0.99041 0.0
C356 C 0.36446 0.47522 0.02121 0.0
C357 C 0.39558 0.52944 0.98273 0.0
C358 C 0.34722 0.50605 0.0105 0.0
N359 N 0.4464 0.44149 0.01156 0.0
C360 C 0.46249 0.41164 0.0131 0.0
C361 C 0.39847 0.41307 0.03475 0.0
C362 C 0.41455 0.44247 0.02028 0.0
C363 C 0.41554 0.38242 0.03851 0.0
C364 C 0.44749 0.38168 0.02711 0.0
H365 H 0.32148 0.50878 0.01586 0.0
H366 H 0.32327 0.44747 0.04407 0.0
H367 H 0.35311 0.39297 0.05595 0.0
O368 O 0.4848 0.47247 0.94244 0.0
O369 O 0.4758 0.46603 0.04965 0.0
O370 O 0.4868 0.50919 0.08315 0.0
O371 O 0.43364 0.49013 0.93749 0.0
O372 O 0.5193 0.46807 1.00057 0.0
O373 O 0.54203 0.47223 0.06452 0.0
O374 O 0.55258 0.5461 0.11981 0.0
O375 O 0.54743 0.52478 0.01055 0.0
O376 O 0.49624 0.53699 0.97147 0.0
O377 O 0.55909 0.49356 0.12095 0.0
O378 O 0.4847 0.54632 0.05807 0.0
O379 O 0.46465 0.54464 0.99332 0.0
C380 C 0.4737 0.47991 0.08009 0.0
C381 C 0.45721 0.49606 0.88002 0.0
C382 C 0.4484 0.49501 0.81029 0.0
C383 C 0.45798 0.5287 0.80366 0.0
C384 C 0.46622 0.52968 0.87281 0.0
C385 C 0.46693 0.5458 0.83479 0.0
C386 C 0.44858 0.4788 0.84887 0.0
C387 C 0.54006 0.45781 0.03343 0.0
C388 C 0.45587 0.47873 0.9197 0.0
C389 C 0.34885 0.44628 0.03763 0.0
C390 C 0.36579 0.41522 0.04428 0.0
C391 C 0.52941 0.53939 0.97781 0.0
C392 C 0.59711 0.51885 0.16599 0.0
C393 C 0.62861 0.53266 0.22628 0.0
C394 C 0.65863 0.5211 0.21628 0.0
C395 C 0.62724 0.50711 0.15682 0.0
C396 C 0.59792 0.53142 0.20073 0.0
C397 C 0.65785 0.50838 0.18184 0.0
C398 C 0.46527 0.55814 0.02481 0.0
C399 C 0.56424 0.51793 0.14059 0.0
H400 H 0.45776 0.54212 0.7744 0.0
H401 H 0.47232 0.54345 0.89649 0.0
H402 H 0.47392 0.57179 0.82937 0.0
H403 H 0.44191 0.45271 0.85482 0.0
H404 H 0.68281 0.5222 0.23483 0.0
H405 H 0.62717 0.49679 0.13063 0.0
H406 H 0.5744 0.53975 0.20807 0.0
H407 H 0.68108 0.49947 0.17452 0.0
H408 H 0.1721 0.22559 0.49398 0.0
H409 H 0.21477 0.16039 0.42869 0.0
H410 H 0.13054 0.18353 0.51056 0.0
H411 H 0.17296 0.11825 0.44521 0.0
H412 H 0.07132 0.06488 0.45208 0.0
H413 H 0.11197 0.10749 0.43364 0.0
H414 H 0.12907 0.12839 0.55085 0.0
H415 H 0.08826 0.08575 0.56922 0.0
C416 C 0.17273 0.20219 0.4833 0.0
C417 C 0.19699 0.19628 0.46024 0.0
C418 C 0.1489 0.17806 0.49285 0.0
C419 C 0.14858 0.1474 0.47951 0.0
C420 C 0.17231 0.14173 0.4557 0.0
C421 C 0.19625 0.1659 0.44616 0.0
C422 C 0.08387 0.07852 0.47394 0.0
C423 C 0.07655 0.07208 0.51208 0.0
C424 C 0.10723 0.10286 0.46339 0.0
C425 C 0.12377 0.12139 0.49073 0.0
C426 C 0.11642 0.1149 0.52893 0.0
C427 C 0.09311 0.09046 0.5395 0.0
H428 H 0.29861 0.70163 0.96329 0.0
H429 H 0.35337 0.72739 0.06947 0.0
H430 H 0.33992 0.65716 0.96638 0.0
H431 H 0.39468 0.68255 0.07269 0.0
H432 H 0.43812 0.5752 0.08493 0.0
H433 H 0.39823 0.6209 0.08284 0.0
H434 H 0.39992 0.65072 0.9599 0.0
H435 H 0.43988 0.60495 0.96206 0.0
C436 C 0.31965 0.69801 0.98714 0.0
C437 C 0.32281 0.71826 0.01599 0.0
C438 C 0.34332 0.6725 0.98889 0.0
C439 C 0.37069 0.66648 0.01962 0.0
C440 C 0.37368 0.6864 0.0488 0.0
C441 C 0.35 0.71204 0.047 0.0
C442 C 0.43016 0.5917 0.05753 0.0
C443 C 0.44192 0.58645 0.02359 0.0
C444 C 0.40739 0.61791 0.05636 0.0
C445 C 0.39583 0.63935 0.02119 0.0
C446 C 0.40797 0.63431 0.98733 0.0
C447 C 0.43087 0.60819 0.98855 0.0
H448 H 0.84921 0.77727 0.5906 0.0
H449 H 0.79296 0.84876 0.63428 0.0
H450 H 0.89164 0.81905 0.57644 0.0
H451 H 0.83489 0.89119 0.61903 0.0
H452 H 0.93168 0.95171 0.6168 0.0
H453 H 0.89136 0.90901 0.63516 0.0
H454 H 0.89841 0.86793 0.53164 0.0
H455 H 0.93965 0.90999 0.514 0.0
C456 C 0.84595 0.80203 0.59713 0.0
C457 C 0.81771 0.80982 0.61338 0.0
C458 C 0.87015 0.8261 0.58875 0.0
C459 C 0.86659 0.85875 0.59605 0.0
C460 C 0.83873 0.86626 0.61333 0.0
C461 C 0.81464 0.842 0.62208 0.0
C462 C 0.92462 0.93359 0.59789 0.0
C463 C 0.93897 0.9343 0.56389 0.0
C464 C 0.90131 0.90914 0.60837 0.0
C465 C 0.89153 0.88486 0.58499 0.0
C466 C 0.90576 0.88577 0.55082 0.0
C467 C 0.92929 0.91006 0.54051 0.0
H468 H 0.69557 0.32281 0.99742 0.0
H469 H 0.65109 0.26869 0.09291 0.0
H470 H 0.655 0.36885 0.99165 0.0
H471 H 0.61119 0.31487 0.08757 0.0
H472 H 0.57798 0.42092 0.09767 0.0
H473 H 0.61609 0.37377 0.10001 0.0
H474 H 0.59221 0.38226 0.97526 0.0
H475 H 0.55417 0.42953 0.97271 0.0
C476 C 0.6769 0.32052 0.01682 0.0
C477 C 0.67684 0.29221 0.0459 0.0
C478 C 0.65376 0.34692 0.01359 0.0
C479 C 0.63023 0.34559 0.03948 0.0
C480 C 0.62949 0.31688 0.06773 0.0
C481 C 0.65239 0.29046 0.07078 0.0
C482 C 0.5808 0.41275 0.07072 0.0
C483 C 0.56295 0.42897 0.03503 0.0
C484 C 0.6025 0.38563 0.0721 0.0
C485 C 0.60704 0.3743 0.03781 0.0
C486 C 0.58937 0.3906 1.00211 0.0
C487 C 0.56743 0.41754 1.00074 0.0
H488 H 0.19867 0.85365 0.24098 0.0
H489 H 0.09593 0.85526 0.17969 0.0
H490 H 0.17726 0.85972 0.30025 0.0
H491 H 0.07445 0.86136 0.23912 0.0
H492 H 0.04969 0.90175 0.34549 0.0
H493 H 0.07124 0.89925 0.28514 0.0
H494 H 0.14741 0.82653 0.34765 0.0
H495 H 0.12665 0.82991 0.4081 0.0
C496 C 0.17148 0.85516 0.24018 0.0
C497 C 0.14903 0.85366 0.2056 0.0
C498 C 0.15919 0.85862 0.27421 0.0
C499 C 0.1241 0.86071 0.27463 0.0
C500 C 0.10163 0.86012 0.23979 0.0
C501 C 0.11395 0.85665 0.20568 0.0
C502 C 0.07125 0.88547 0.34642 0.0
C503 C 0.08645 0.86606 0.38172 0.0
C504 C 0.08338 0.88378 0.31172 0.0
C505 C 0.1111 0.86272 0.31148 0.0
C506 C 0.12629 0.84334 0.3468 0.0
C507 C 0.11411 0.84496 0.38143 0.0
H508 H 0.62987 0.56576 0.77683 0.0
H509 H 0.60797 0.66757 0.78642 0.0
H510 H 0.6068 0.54583 0.83639 0.0
H511 H 0.58492 0.64757 0.84639 0.0
H512 H 0.50643 0.59104 0.91959 0.0
H513 H 0.53365 0.61454 0.86383 0.0
H514 H 0.61924 0.54702 0.90795 0.0
H515 H 0.59172 0.52318 0.96317 0.0
C516 C 0.62021 0.58389 0.79179 0.0
C517 C 0.62059 0.61823 0.77684 0.0
C518 C 0.60725 0.57249 0.82608 0.0
C519 C 0.59401 0.59512 0.84611 0.0
C520 C 0.59474 0.62952 0.83146 0.0
C521 C 0.60815 0.64098 0.79734 0.0
C522 C 0.53109 0.58131 0.91733 0.0
C523 C 0.54685 0.55513 0.94553 0.0
C524 C 0.54682 0.59496 0.88563 0.0
C525 C 0.57855 0.58255 0.88139 0.0
C526 C 0.59465 0.5569 0.91019 0.0
C527 C 0.57902 0.54344 0.94198 0.0
H528 H 0.83786 0.09037 0.2616 0.0
H529 H 0.93319 0.07574 0.22267 0.0
H530 H 0.86475 0.07304 0.32859 0.0
H531 H 0.9593 0.05577 0.28933 0.0
H532 H 0.00707 0.05603 0.41379 0.0
H533 H 0.97917 0.07533 0.34734 0.0
H534 H 0.887 0.02685 0.3751 0.0
H535 H 0.91485 0.00879 0.442 0.0
C536 C 0.86453 0.08334 0.26723 0.0
C537 C 0.88336 0.08475 0.23654 0.0
C538 C 0.87985 0.07289 0.30573 0.0
C539 C 0.91429 0.06308 0.31455 0.0
C540 C 0.9329 0.06374 0.2838 0.0
C541 C 0.91771 0.07465 0.24536 0.0
C542 C 0.98084 0.04956 0.40551 0.0
C543 C 0.96302 0.03096 0.43277 0.0
C544 C 0.96486 0.06043 0.36742 0.0
C545 C 0.93086 0.05241 0.35558 0.0
C546 C 0.91304 0.03389 0.38318 0.0
C547 C 0.92896 0.02341 0.42146 0.0
H548 H 0.32743 0.40174 0.63256 0.0
H549 H 0.42985 0.39007 0.61128 0.0
H550 H 0.34836 0.43126 0.68568 0.0
H551 H 0.45116 0.41886 0.66533 0.0
H552 H 0.47392 0.49939 0.74178 0.0
H553 H 0.45364 0.47167 0.68676 0.0
H554 H 0.37836 0.42098 0.74981 0.0
H555 H 0.39707 0.45022 0.80352 0.0
C556 C 0.35451 0.40526 0.63955 0.0
C557 C 0.37703 0.39344 0.61798 0.0
C558 C 0.36656 0.42208 0.6701 0.0
C559 C 0.40153 0.42721 0.68015 0.0
C560 C 0.42405 0.41571 0.65817 0.0
C561 C 0.4119 0.39914 0.62728 0.0
C562 C 0.45278 0.48262 0.74371 0.0
C563 C 0.43713 0.47714 0.77716 0.0
C564 C 0.44143 0.46637 0.71233 0.0
C565 C 0.41425 0.44413 0.7137 0.0
C566 C 0.39896 0.43834 0.74737 0.0
C567 C 0.4101 0.45475 0.77854 0.0
H568 H 0.64376 0.66626 0.39313 0.0
H569 H 0.65238 0.56926 0.46659 0.0
H570 H 0.63317 0.63994 0.33578 0.0
H571 H 0.64022 0.54271 0.40896 0.0
H572 H 0.66613 0.50975 0.29785 0.0
H573 H 0.6695 0.53363 0.35694 0.0
H574 H 0.59454 0.60888 0.29781 0.0
H575 H 0.59258 0.58616 0.23816 0.0
C576 C 0.643 0.63926 0.39703 0.0
C577 C 0.64938 0.61985 0.43442 0.0
C578 C 0.63652 0.62413 0.36409 0.0
C579 C 0.63605 0.58914 0.36763 0.0
C580 C 0.64094 0.56971 0.40514 0.0
C581 C 0.64749 0.58491 0.43819 0.0
C582 C 0.65056 0.53155 0.29733 0.0
C583 C 0.62931 0.54616 0.26304 0.0
C584 C 0.65209 0.54495 0.33146 0.0
C585 C 0.63232 0.57325 0.33223 0.0
C586 C 0.61044 0.58734 0.2982 0.0
C587 C 0.60904 0.57405 0.26404 0.0
H588 H 0.85183 0.17818 0.84881 0.0
H589 H 0.85245 0.07492 0.90474 0.0
H590 H 0.88112 0.16213 0.79901 0.0
H591 H 0.88196 0.05896 0.85511 0.0
H592 H 0.9734 0.05255 0.79117 0.0
H593 H 0.93892 0.06661 0.83746 0.0
H594 H 0.87511 0.13089 0.74444 0.0
H595 H 0.91021 0.11747 0.69822 0.0
C596 C 0.85769 0.15199 0.85014 0.0
C597 C 0.84998 0.12788 0.88095 0.0
C598 C 0.87453 0.1428 0.82161 0.0
C599 C 0.8841 0.10929 0.82326 0.0
C600 C 0.87549 0.08506 0.8534 0.0
C601 C 0.85858 0.09422 0.88185 0.0
C602 C 0.95206 0.06974 0.78061 0.0
C603 C 0.94463 0.084 0.74106 0.0
C604 C 0.93207 0.07753 0.80707 0.0
C605 C 0.90425 0.09987 0.79464 0.0
C606 C 0.89654 0.11381 0.75498 0.0
C607 C 0.91644 0.10587 0.72846 0.0
H608 H 0.41593 0.34402 0.27684 0.0
H609 H 0.35113 0.43066 0.26451 0.0
H610 H 0.43825 0.36844 0.21784 0.0
H611 H 0.37192 0.45466 0.20461 0.0
H612 H 0.44905 0.5077 0.13508 0.0
H613 H 0.42185 0.48008 0.18832 0.0
H614 H 0.43019 0.38568 0.14934 0.0
H615 H 0.45969 0.41329 0.09749 0.0
C616 C 0.40586 0.36791 0.26074 0.0
C617 C 0.3819 0.38555 0.2749 0.0
C618 C 0.41851 0.38193 0.22691 0.0
C619 C 0.40724 0.41381 0.20653 0.0
C620 C 0.38186 0.43049 0.21993 0.0
C621 C 0.3696 0.41666 0.25395 0.0
C622 C 0.44514 0.48103 0.13786 0.0
C623 C 0.45614 0.46275 0.11166 0.0
C624 C 0.42909 0.46518 0.16819 0.0
C625 C 0.42334 0.43058 0.17308 0.0
C626 C 0.43428 0.41229 0.14671 0.0
C627 C 0.45072 0.42819 0.11656 0.0
H628 H 0.06281 0.91633 0.85244 0.0
H629 H 0.16264 0.94762 0.83062 0.0
H630 H 0.03988 0.93605 0.78385 0.0
H631 H 0.1398 0.96729 0.7622 0.0
H632 H 0.07799 0.0261 0.64965 0.0
H633 H 0.09877 0.01097 0.71941 0.0
H634 H 0.04819 0.91646 0.72087 0.0
H635 H 0.02708 0.9318 0.65131 0.0
C636 C 0.07969 0.92794 0.83311 0.0
C637 C 0.11448 0.93042 0.84677 0.0
C638 C 0.06667 0.93891 0.79386 0.0
C639 C 0.08812 0.953 0.76769 0.0
C640 C 0.12265 0.95668 0.78173 0.0
C641 C 0.13573 0.94532 0.8208 0.0
C642 C 0.07115 0.00221 0.66501 0.0
C643 C 0.05081 0.98019 0.64521 0.0
C644 C 0.0832 0.99348 0.7048 0.0
C645 C 0.07489 0.96264 0.7256 0.0
C646 C 0.0546 0.94058 0.7057 0.0
C647 C 0.04284 0.9492 0.66584 0.0
loop_
_geom_bond_atom_site_label_1
_geom_bond_atom_site_label_2
_geom_bond_distance
_geom_bond_site_symmetry_2
_ccdc_geom_bond_type
C0 C1 1.391 . S
C0 C4 1.391 . S
C0 H42 0.948 . S
C1 C0 1.391 . S
C1 C2 1.391 . S
C2 C1 1.391 . S
C2 H58 0.947 . S
C2 C59 1.392 . S
C3 C4 1.391 . S
C3 C7 1.397 . S
C3 C59 1.419 . S
C4 C0 1.391 . S
C4 C3 1.391 . S
C4 C5 1.399 . S
C5 C4 1.399 . S
C5 C8 1.396 . S
C5 C17 1.453 . S
C5 C18 1.684 . S
H6 C30 0.948 . S
C7 C3 1.397 . S
C7 C8 1.394 . S
C7 C26 1.723 1_556 S
C8 C5 1.396 . S
C8 C7 1.394 . S
C8 C38 1.723 1_556 S
H9 C32 0.947 . S
H10 C33 0.948 . S
H11 C39 0.982 . S
H12 C40 0.979 . S
H13 C40 0.980 . S
H14 C40 0.983 . S
H15 C39 0.979 . S
H16 C39 0.977 . S
C17 C5 1.453 . S
C17 H46 0.982 . S
C17 H47 0.979 . S
C17 H48 0.977 . S
C18 C5 1.684 . S
C18 H43 0.979 . S
C18 H44 0.980 . S
C18 H45 0.983 . S
C19 C20 1.391 . S
C19 C24 1.391 . S
C19 H49 0.948 . S
C20 C19 1.391 . S
C20 C21 1.391 . S
C21 C20 1.391 . S
C21 C22 1.392 . S
C21 H50 0.947 . S
C22 C21 1.392 . S
C22 C23 1.419 . S
C22 H51 0.948 . S
C23 C22 1.419 . S
C23 C24 1.391 . S
C23 C27 1.397 . S
C24 C19 1.391 . S
C24 C23 1.391 . S
C24 C25 1.399 . S
C25 C24 1.399 . S
C25 C26 1.396 . S
C25 C28 1.453 . S
C25 C29 1.684 . S
C26 C7 1.723 1_554 S
C26 C25 1.396 . S
C26 C27 1.394 . S
C27 C23 1.397 . S
C27 C26 1.394 . S
C27 C37 1.723 . S
C28 C25 1.453 . S
C28 H52 0.982 . S
C28 H53 0.979 . S
C28 H54 0.977 1_554 S
C29 C25 1.684 . S
C29 H55 0.979 . S
C29 H56 0.980 1_554 S
C29 H57 0.983 . S
C30 H6 0.948 . S
C30 C31 1.391 . S
C30 C35 1.391 . S
C31 C30 1.391 . S
C31 C32 1.391 1_554 S
C32 H9 0.947 . S
C32 C31 1.391 1_556 S
C32 C33 1.392 . S
C33 H10 0.948 . S
C33 C32 1.392 . S
C33 C34 1.419 1_556 S
C34 C33 1.419 1_554 S
C34 C35 1.391 . S
C34 C38 1.397 . S
C35 C30 1.391 . S
C35 C34 1.391 . S
C35 C36 1.399 . S
C36 C35 1.399 . S
C36 C37 1.396 . S
C36 C39 1.453 . S
C36 C40 1.684 . S
C37 C27 1.723 . S
C37 C36 1.396 . S
C37 C38 1.394 . S
C38 C8 1.723 1_554 S
C38 C34 1.397 . S
C38 C37 1.394 . S
C39 H11 0.982 . S
C39 H15 0.979 . S
C39 H16 0.977 . S
C39 C36 1.453 . S
C40 H12 0.979 . S
C40 H13 0.980 . S
C40 H14 0.983 . S
C40 C36 1.684 . S
H41 C59 0.948 . S
H42 C0 0.948 . S
H43 C18 0.979 . S
H44 C18 0.980 . S
H45 C18 0.983 . S
H46 C17 0.982 . S
H47 C17 0.979 . S
H48 C17 0.977 . S
H49 C19 0.948 . S
H50 C21 0.947 . S
H51 C22 0.948 . S
H52 C28 0.982 . S
H53 C28 0.979 . S
H54 C28 0.977 1_556 S
H55 C29 0.979 . S
H56 C29 0.980 1_556 S
H57 C29 0.983 . S
H58 C2 0.947 . S
C59 C2 1.392 . S
C59 C3 1.419 . S
C59 H41 0.948 . S
C60 C61 1.391 . S
C60 C64 1.391 . S
C60 H102 0.948 . S
C61 C60 1.391 . S
C61 C62 1.391 . S
C62 C61 1.391 . S
C62 H118 0.947 . S
C62 C119 1.392 . S
C63 C64 1.391 . S
C63 C67 1.397 . S
C63 C119 1.419 . S
C64 C60 1.391 . S
C64 C63 1.391 . S
C64 C65 1.399 . S
C65 C64 1.399 . S
C65 C68 1.396 . S
C65 C77 1.453 . S
C65 C78 1.684 . S
H66 C90 0.948 . S
C67 C63 1.397 . S
C67 C68 1.394 . S
C67 C86 1.723 . S
C68 C65 1.396 . S
C68 C67 1.394 . S
C68 C98 1.723 . S
H69 C92 0.947 . S
H70 C93 0.948 . S
H71 C99 0.982 . S
H72 C100 0.979 . S
H73 C100 0.980 . S
H74 C100 0.983 . S
H75 C99 0.979 . S
H76 C99 0.977 . S
C77 C65 1.453 . S
C77 H106 0.982 . S
C77 H107 0.979 . S
C77 H108 0.977 . S
C78 C65 1.684 . S
C78 H103 0.979 . S
C78 H104 0.980 . S
C78 H105 0.983 . S
C79 C80 1.391 . S
C79 C84 1.391 . S
C79 H109 0.948 . S
C80 C79 1.391 . S
C80 C81 1.391 . S
C81 C80 1.391 . S
C81 C82 1.392 . S
C81 H110 0.947 . S
C82 C81 1.392 . S
C82 C83 1.419 . S
C82 H111 0.948 . S
C83 C82 1.419 . S
C83 C84 1.391 . S
C83 C87 1.397 . S
C84 C79 1.391 . S
C84 C83 1.391 . S
C84 C85 1.399 . S
C85 C84 1.399 . S
C85 C86 1.396 . S
C85 C88 1.453 . S
C85 C89 1.684 . S
C86 C67 1.723 . S
C86 C85 1.396 . S
C86 C87 1.394 . S
C87 C83 1.397 . S
C87 C86 1.394 . S
C87 C97 1.723 . S
C88 C85 1.453 . S
C88 H112 0.982 . S
C88 H113 0.979 . S
C88 H114 0.977 . S
C89 C85 1.684 . S
C89 H115 0.979 . S
C89 H116 0.980 . S
C89 H117 0.983 . S
C90 H66 0.948 . S
C90 C91 1.391 . S
C90 C95 1.391 . S
C91 C90 1.391 . S
C91 C92 1.391 . S
C92 H69 0.947 . S
C92 C91 1.391 . S
C92 C93 1.392 . S
C93 H70 0.948 . S
C93 C92 1.392 . S
C93 C94 1.419 . S
C94 C93 1.419 . S
C94 C95 1.391 . S
C94 C98 1.397 . S
C95 C90 1.391 . S
C95 C94 1.391 . S
C95 C96 1.399 . S
C96 C95 1.399 . S
C96 C97 1.396 . S
C96 C99 1.453 . S
C96 C100 1.684 . S
C97 C87 1.723 . S
C97 C96 1.396 . S
C97 C98 1.394 . S
C98 C68 1.723 . S
C98 C94 1.397 . S
C98 C97 1.394 . S
C99 H71 0.982 . S
C99 H75 0.979 . S
C99 H76 0.977 . S
C99 C96 1.453 . S
C100 H72 0.979 . S
C100 H73 0.980 . S
C100 H74 0.983 . S
C100 C96 1.684 . S
H101 C119 0.948 . S
H102 C60 0.948 . S
H103 C78 0.979 . S
H104 C78 0.980 . S
H105 C78 0.983 . S
H106 C77 0.982 . S
H107 C77 0.979 . S
H108 C77 0.977 . S
H109 C79 0.948 . S
H110 C81 0.947 . S
H111 C82 0.948 . S
H112 C88 0.982 . S
H113 C88 0.979 . S
H114 C88 0.977 . S
H115 C89 0.979 . S
H116 C89 0.980 . S
H117 C89 0.983 . S
H118 C62 0.947 . S
C119 C62 1.392 . S
C119 C63 1.419 . S
C119 H101 0.948 . S
C120 C121 1.391 . S
C120 C124 1.391 . S
C120 H162 0.948 . S
C121 C120 1.391 . S
C121 C122 1.391 . S
C122 C121 1.391 . S
C122 H178 0.947 . S
C122 C179 1.392 . S
C123 C124 1.391 . S
C123 C127 1.397 . S
C123 C179 1.419 . S
C124 C120 1.391 . S
C124 C123 1.391 . S
C124 C125 1.399 . S
C125 C124 1.399 . S
C125 C128 1.396 . S
C125 C137 1.453 . S
C125 C138 1.684 . S
H126 C150 0.948 . S
C127 C123 1.397 . S
C127 C128 1.394 . S
C127 C146 1.723 . S
C128 C125 1.396 . S
C128 C127 1.394 . S
C128 C158 1.723 . S
H129 C152 0.947 . S
H130 C153 0.948 . S
H131 C159 0.982 . S
H132 C160 0.979 . S
H133 C160 0.980 . S
H134 C160 0.983 . S
H135 C159 0.979 . S
H136 C159 0.977 . S
C137 C125 1.453 . S
C137 H166 0.982 . S
C137 H167 0.979 . S
C137 H168 0.977 . S
C138 C125 1.684 . S
C138 H163 0.979 . S
C138 H164 0.980 . S
C138 H165 0.983 . S
C139 C140 1.391 . S
C139 C144 1.391 . S
C139 H169 0.948 . S
C140 C139 1.391 . S
C140 C141 1.391 . S
C141 C140 1.391 . S
C141 C142 1.392 . S
C141 H170 0.947 . S
C142 C141 1.392 . S
C142 C143 1.419 . S
C142 H171 0.948 . S
C143 C142 1.419 . S
C143 C144 1.391 . S
C143 C147 1.397 1_556 S
C144 C139 1.391 . S
C144 C143 1.391 . S
C144 C145 1.399 1_556 S
C145 C144 1.399 1_554 S
C145 C146 1.396 . S
C145 C148 1.453 . S
C145 C149 1.684 . S
C146 C127 1.723 . S
C146 C145 1.396 . S
C146 C147 1.394 . S
C147 C143 1.397 1_554 S
C147 C146 1.394 . S
C147 C157 1.723 . S
C148 C145 1.453 . S
C148 H172 0.982 . S
C148 H173 0.979 . S
C148 H174 0.977 . S
C149 C145 1.684 . S
C149 H175 0.979 . S
C149 H176 0.980 . S
C149 H177 0.983 . S
C150 H126 0.948 . S
C150 C151 1.391 1_556 S
C150 C155 1.391 1_556 S
C151 C150 1.391 1_554 S
C151 C152 1.391 . S
C152 H129 0.947 . S
C152 C151 1.391 . S
C152 C153 1.392 . S
C153 H130 0.948 . S
C153 C152 1.392 . S
C153 C154 1.419 . S
C154 C153 1.419 . S
C154 C155 1.391 . S
C154 C158 1.397 . S
C155 C150 1.391 1_554 S
C155 C154 1.391 . S
C155 C156 1.399 1_554 S
C156 C155 1.399 1_556 S
C156 C157 1.396 1_556 S
C156 C159 1.453 . S
C156 C160 1.684 . S
C157 C147 1.723 . S
C157 C156 1.396 1_554 S
C157 C158 1.394 . S
C158 C128 1.723 . S
C158 C154 1.397 . S
C158 C157 1.394 . S
C159 H131 0.982 . S
C159 H135 0.979 . S
C159 H136 0.977 . S
C159 C156 1.453 . S
C160 H132 0.979 . S
C160 H133 0.980 . S
C160 H134 0.983 . S
C160 C156 1.684 . S
H161 C179 0.948 . S
H162 C120 0.948 . S
H163 C138 0.979 . S
H164 C138 0.980 . S
H165 C138 0.983 . S
H166 C137 0.982 . S
H167 C137 0.979 . S
H168 C137 0.977 . S
H169 C139 0.948 . S
H170 C141 0.947 . S
H171 C142 0.948 . S
H172 C148 0.982 . S
H173 C148 0.979 . S
H174 C148 0.977 . S
H175 C149 0.979 . S
H176 C149 0.980 . S
H177 C149 0.983 . S
H178 C122 0.947 . S
C179 C122 1.392 . S
C179 C123 1.419 . S
C179 H161 0.948 . S
C180 C181 1.391 . S
C180 C184 1.391 . S
C180 H222 0.948 . S
C181 C180 1.391 . S
C181 C182 1.391 . S
C182 C181 1.391 . S
C182 H238 0.947 . S
C182 C239 1.392 . S
C183 C184 1.391 . S
C183 C187 1.397 . S
C183 C239 1.419 . S
C184 C180 1.391 . S
C184 C183 1.391 . S
C184 C185 1.399 . S
C185 C184 1.399 . S
C185 C188 1.396 . S
C185 C197 1.453 . S
C185 C198 1.684 . S
H186 C210 0.948 . S
C187 C183 1.397 . S
C187 C188 1.394 . S
C187 C206 1.723 . S
C188 C185 1.396 . S
C188 C187 1.394 . S
C188 C218 1.723 . S
H189 C212 0.947 . S
H190 C213 0.948 . S
H191 C219 0.982 . S
H192 C220 0.979 . S
H193 C220 0.980 . S
H194 C220 0.983 . S
H195 C219 0.979 . S
H196 C219 0.977 . S
C197 C185 1.453 . S
C197 H226 0.982 . S
C197 H227 0.979 . S
C197 H228 0.977 . S
C198 C185 1.684 . S
C198 H223 0.979 . S
C198 H224 0.980 . S
C198 H225 0.983 . S
C199 C200 1.391 . S
C199 C204 1.391 . S
C199 H229 0.948 . S
C200 C199 1.391 . S
C200 C201 1.391 . S
C201 C200 1.391 . S
C201 C202 1.392 . S
C201 H230 0.947 . S
C202 C201 1.392 . S
C202 C203 1.419 . S
C202 H231 0.948 . S
C203 C202 1.419 . S
C203 C204 1.391 . S
C203 C207 1.397 . S
C204 C199 1.391 . S
C204 C203 1.391 . S
C204 C205 1.399 . S
C205 C204 1.399 . S
C205 C206 1.396 . S
C205 C208 1.453 . S
C205 C209 1.684 . S
C206 C187 1.723 . S
C206 C205 1.396 . S
C206 C207 1.394 . S
C207 C203 1.397 . S
C207 C206 1.394 . S
C207 C217 1.723 . S
C208 C205 1.453 . S
C208 H232 0.982 . S
C208 H233 0.979 . S
C208 H234 0.977 . S
C209 C205 1.684 . S
C209 H235 0.979 . S
C209 H236 0.980 . S
C209 H237 0.983 . S
C210 H186 0.948 . S
C210 C211 1.391 . S
C210 C215 1.391 . S
C211 C210 1.391 . S
C211 C212 1.391 . S
C212 H189 0.947 . S
C212 C211 1.391 . S
C212 C213 1.392 . S
C213 H190 0.948 . S
C213 C212 1.392 . S
C213 C214 1.419 . S
C214 C213 1.419 . S
C214 C215 1.391 . S
C214 C218 1.397 . S
C215 C210 1.391 . S
C215 C214 1.391 . S
C215 C216 1.399 . S
C216 C215 1.399 . S
C216 C217 1.396 . S
C216 C219 1.453 . S
C216 C220 1.684 . S
C217 C207 1.723 . S
C217 C216 1.396 . S
C217 C218 1.394 . S
C218 C188 1.723 . S
C218 C214 1.397 . S
C218 C217 1.394 . S
C219 H191 0.982 . S
C219 H195 0.979 . S
C219 H196 0.977 . S
C219 C216 1.453 . S
C220 H192 0.979 . S
C220 H193 0.980 . S
C220 H194 0.983 . S
C220 C216 1.684 . S
H221 C239 0.948 . S
H222 C180 0.948 . S
H223 C198 0.979 . S
H224 C198 0.980 . S
H225 C198 0.983 . S
H226 C197 0.982 . S
H227 C197 0.979 . S
H228 C197 0.977 . S
H229 C199 0.948 . S
H230 C201 0.947 . S
H231 C202 0.948 . S
H232 C208 0.982 . S
H233 C208 0.979 . S
H234 C208 0.977 . S
H235 C209 0.979 . S
H236 C209 0.980 . S
H237 C209 0.983 . S
H238 C182 0.947 . S
C239 C182 1.392 . S
C239 C183 1.419 . S
C239 H221 0.948 . S
Tb240 N269 2.617 . S
Tb240 N275 2.572 . S
Tb240 O284 2.465 . S
Tb240 O285 2.387 . S
Tb240 O287 2.428 . S
Tb240 O288 2.308 1_565 S
Tb240 O292 2.349 1_455 S
Tb240 O295 2.393 1_455 S
Tb240 C304 2.802 . S
C241 N242 1.379 . S
C241 C244 1.416 . S
C241 C248 1.424 . S
N242 C241 1.379 . S
N242 C245 1.313 1_655 S
N242 Tb251 2.617 . S
C243 C245 1.390 1_655 S
C243 C246 1.339 . S
C243 H263 0.930 1_655 S
C244 C241 1.416 . S
C244 C246 1.416 . S
C244 C250 1.448 . S
C245 N242 1.313 1_455 S
C245 C243 1.390 1_455 S
C245 H256 0.953 . S
C246 C243 1.339 . S
C246 C244 1.416 . S
C246 H267 0.930 . S
C247 C248 1.413 . S
C247 C249 1.427 . S
C247 C253 1.416 . S
C248 C241 1.424 . S
C248 C247 1.413 . S
C248 N252 1.361 . S
C249 C247 1.427 . S
C249 C250 1.328 . S
C249 H264 0.929 . S
C250 C244 1.448 . S
C250 C249 1.328 . S
C250 H265 0.930 . S
Tb251 N242 2.617 . S
Tb251 N252 2.572 . S
Tb251 O286 2.349 1_655 S
Tb251 O289 2.393 1_655 S
Tb251 O290 2.465 . S
Tb251 O291 2.387 . S
Tb251 O293 2.428 . S
Tb251 O294 2.308 1_545 S
Tb251 C315 2.802 . S
N252 C248 1.361 . S
N252 Tb251 2.572 . S
N252 C254 1.340 . S
C253 C247 1.416 . S
C253 C255 1.332 . S
C253 H261 0.931 . S
C254 N252 1.340 . S
C254 C255 1.407 . S
C254 H260 0.930 . S
C255 C253 1.332 . S
C255 C254 1.407 . S
C255 H257 0.929 . S
H256 C245 0.953 . S
H257 C255 0.929 . S
H258 C273 0.930 1_655 S
H259 C280 0.929 . S
H260 C254 0.930 . S
H261 C253 0.931 . S
H262 C276 0.930 . S
H263 C243 0.930 1_455 S
H264 C249 0.929 . S
H265 C250 0.930 . S
H266 C271 0.930 1_655 S
H267 C246 0.930 . S
H268 C279 0.931 . S
N269 Tb240 2.617 . S
N269 C270 1.379 . S
N269 C273 1.334 . S
C270 N269 1.379 . S
C270 C272 1.416 . S
C270 C278 1.424 . S
C271 H266 0.930 1_455 S
C271 C273 1.390 . S
C271 C274 1.339 . S
C272 C270 1.416 . S
C272 C274 1.416 . S
C272 C305 1.448 . S
C273 H258 0.930 1_455 S
C273 N269 1.334 . S
C273 C271 1.390 . S
C274 C271 1.339 . S
C274 C272 1.416 . S
C274 H281 0.930 . S
N275 Tb240 2.572 . S
N275 C276 1.340 . S
N275 C278 1.361 . S
C276 H262 0.930 . S
C276 N275 1.340 . S
C276 C280 1.407 . S
C277 C278 1.413 . S
C277 C279 1.416 . S
C277 C306 1.427 . S
C278 C270 1.424 . S
C278 N275 1.361 . S
C278 C277 1.413 . S
C279 H268 0.931 . S
C279 C277 1.416 . S
C279 C280 1.332 . S
C280 H259 0.929 . S
C280 C276 1.407 . S
C280 C279 1.332 . S
H281 C274 0.930 . S
H282 C305 0.930 . S
H283 C306 0.929 . S
O284 Tb240 2.465 . S
O284 C304 1.264 . S
O285 Tb240 2.387 . S
O285 C296 1.264 . S
O286 Tb251 2.349 1_455 S
O286 C296 1.243 1_545 S
O287 Tb240 2.428 . S
O287 C304 1.256 . S
O288 Tb240 2.308 1_545 S
O288 C303 1.266 . S
O289 Tb251 2.393 1_455 S
O289 C303 1.248 . S
O290 Tb251 2.465 . S
O290 C315 1.264 . S
O291 Tb251 2.387 . S
O291 C307 1.264 . S
O292 Tb240 2.349 1_655 S
O292 C307 1.243 1_565 S
O293 Tb251 2.428 . S
O293 C315 1.256 . S
O294 Tb251 2.308 1_565 S
O294 C314 1.266 . S
O295 Tb240 2.393 1_655 S
O295 C314 1.248 . S
C296 O285 1.264 . S
C296 O286 1.243 1_565 S
C297 C300 1.399 . S
C297 C302 1.383 . S
C297 C304 1.496 . S
C298 C299 1.399 . S
C298 C302 1.389 . S
C299 C298 1.399 . S
C299 C301 1.380 . S
C299 H316 0.929 . S
C300 C297 1.399 . S
C300 C301 1.392 . S
C300 H317 0.929 . S
C301 C299 1.380 . S
C301 C300 1.392 . S
C301 H318 0.929 . S
C302 C297 1.383 . S
C302 C298 1.389 . S
C302 H319 0.931 . S
C303 O288 1.266 . S
C303 O289 1.248 . S
C304 Tb240 2.802 . S
C304 O284 1.264 . S
C304 O287 1.256 . S
C304 C297 1.496 . S
C305 C272 1.448 . S
C305 H282 0.930 . S
C305 C306 1.328 . S
C306 C277 1.427 . S
C306 H283 0.929 . S
C306 C305 1.328 . S
C307 O291 1.264 . S
C307 O292 1.243 1_545 S
C308 C311 1.399 . S
C308 C312 1.383 . S
C308 C315 1.496 . S
C309 C310 1.399 . S
C309 C312 1.389 . S
C310 C309 1.399 . S
C310 C313 1.380 . S
C310 H320 0.929 . S
C311 C308 1.399 . S
C311 C313 1.392 . S
C311 H321 0.929 . S
C312 C308 1.383 . S
C312 C309 1.389 . S
C312 H322 0.931 . S
C313 C310 1.380 . S
C313 C311 1.392 . S
C313 H323 0.929 . S
C314 O294 1.266 . S
C314 O295 1.248 . S
C315 Tb251 2.802 . S
C315 O290 1.264 . S
C315 O293 1.256 . S
C315 C308 1.496 . S
H316 C299 0.929 . S
H317 C300 0.929 . S
H318 C301 0.929 . S
H319 C302 0.931 . S
H320 C310 0.929 . S
H321 C311 0.929 . S
H322 C312 0.931 . S
H323 C313 0.929 . S
Tb324 N353 2.617 . S
Tb324 N359 2.572 1_556 S
Tb324 O368 2.465 . S
Tb324 O369 2.387 1_556 S
Tb324 O371 2.428 . S
Tb324 O372 2.308 1_556 S
Tb324 O376 2.349 . S
Tb324 O379 2.393 . S
Tb324 C388 2.802 . S
C325 N326 1.379 . S
C325 C328 1.416 . S
C325 C332 1.424 . S
N326 C325 1.379 . S
N326 C329 1.334 . S
N326 Tb335 2.617 . S
C327 C329 1.390 . S
C327 C330 1.339 . S
C327 H347 0.930 . S
C328 C325 1.416 . S
C328 C330 1.416 . S
C328 C334 1.448 . S
C329 N326 1.334 . S
C329 C327 1.390 . S
C329 H340 0.930 . S
C330 C327 1.339 . S
C330 C328 1.416 . S
C330 H351 0.930 . S
C331 C332 1.413 . S
C331 C333 1.427 . S
C331 C337 1.416 . S
C332 C325 1.424 . S
C332 C331 1.413 . S
C332 N336 1.361 . S
C333 C331 1.427 . S
C333 C334 1.328 . S
C333 H348 0.929 . S
C334 C328 1.448 . S
C334 C333 1.328 . S
C334 H349 0.930 . S
Tb335 N326 2.617 . S
Tb335 N336 2.572 . S
Tb335 O370 2.349 . S
Tb335 O373 2.393 . S
Tb335 O374 2.465 . S
Tb335 O375 2.387 1_554 S
Tb335 O377 2.428 . S
Tb335 O378 2.308 . S
Tb335 C399 2.802 . S
N336 C332 1.361 . S
N336 Tb335 2.572 . S
N336 C338 1.340 . S
C337 C331 1.416 . S
C337 C339 1.332 . S
C337 H345 0.931 . S
C338 N336 1.340 . S
C338 C339 1.407 . S
C338 H344 0.930 . S
C339 C337 1.332 . S
C339 C338 1.407 . S
C339 H341 0.929 . S
H340 C329 0.930 . S
H341 C339 0.929 . S
H342 C357 0.930 . S
H343 C364 0.929 . S
H344 C338 0.930 . S
H345 C337 0.931 . S
H346 C360 0.930 . S
H347 C327 0.930 . S
H348 C333 0.929 . S
H349 C334 0.930 . S
H350 C355 0.930 . S
H351 C330 0.930 . S
H352 C363 0.931 . S
N353 Tb324 2.617 . S
N353 C354 1.379 1_556 S
N353 C357 1.334 . S
C354 N353 1.379 1_554 S
C354 C356 1.416 . S
C354 C362 1.424 . S
C355 H350 0.930 . S
C355 C357 1.390 . S
C355 C358 1.339 1_556 S
C356 C354 1.416 . S
C356 C358 1.416 . S
C356 C389 1.448 . S
C357 H342 0.930 . S
C357 N353 1.334 . S
C357 C355 1.390 . S
C358 C355 1.339 1_554 S
C358 C356 1.416 . S
C358 H365 0.930 . S
N359 Tb324 2.572 1_554 S
N359 C360 1.340 . S
N359 C362 1.361 . S
C360 H346 0.930 . S
C360 N359 1.340 . S
C360 C364 1.407 . S
C361 C362 1.413 . S
C361 C363 1.416 . S
C361 C390 1.427 . S
C362 C354 1.424 . S
C362 N359 1.361 . S
C362 C361 1.413 . S
C363 H352 0.931 . S
C363 C361 1.416 . S
C363 C364 1.332 . S
C364 H343 0.929 . S
C364 C360 1.407 . S
C364 C363 1.332 . S
H365 C358 0.930 . S
H366 C389 0.930 . S
H367 C390 0.929 . S
O368 Tb324 2.465 . S
O368 C388 1.264 . S
O369 Tb324 2.387 1_554 S
O369 C380 1.264 . S
O370 Tb335 2.349 . S
O370 C380 1.243 . S
O371 Tb324 2.428 . S
O371 C388 1.256 . S
O372 Tb324 2.308 1_554 S
O372 C387 1.266 . S
O373 Tb335 2.393 . S
O373 C387 1.248 . S
O374 Tb335 2.465 . S
O374 C399 1.264 . S
O375 Tb335 2.387 1_556 S
O375 C391 1.264 . S
O376 Tb324 2.349 . S
O376 C391 1.243 . S
O377 Tb335 2.428 . S
O377 C399 1.256 . S
O378 Tb335 2.308 . S
O378 C398 1.266 . S
O379 Tb324 2.393 . S
O379 C398 1.248 1_556 S
C380 O369 1.264 . S
C380 O370 1.243 . S
C381 C384 1.399 . S
C381 C386 1.383 . S
C381 C388 1.496 . S
C382 C383 1.399 . S
C382 C386 1.389 . S
C383 C382 1.399 . S
C383 C385 1.380 . S
C383 H400 0.929 . S
C384 C381 1.399 . S
C384 C385 1.392 . S
C384 H401 0.929 . S
C385 C383 1.380 . S
C385 C384 1.392 . S
C385 H402 0.929 . S
C386 C381 1.383 . S
C386 C382 1.389 . S
C386 H403 0.931 . S
C387 O372 1.266 . S
C387 O373 1.248 . S
C388 Tb324 2.802 . S
C388 O368 1.264 . S
C388 O371 1.256 . S
C388 C381 1.496 . S
C389 C356 1.448 . S
C389 H366 0.930 . S
C389 C390 1.328 . S
C390 C361 1.427 . S
C390 H367 0.929 . S
C390 C389 1.328 . S
C391 O375 1.264 . S
C391 O376 1.243 . S
C392 C395 1.399 . S
C392 C396 1.383 . S
C392 C399 1.496 . S
C393 C394 1.399 . S
C393 C396 1.389 . S
C394 C393 1.399 . S
C394 C397 1.380 . S
C394 H404 0.929 . S
C395 C392 1.399 . S
C395 C397 1.392 . S
C395 H405 0.929 . S
C396 C392 1.383 . S
C396 C393 1.389 . S
C396 H406 0.931 . S
C397 C394 1.380 . S
C397 C395 1.392 . S
C397 H407 0.929 . S
C398 O378 1.266 . S
C398 O379 1.248 1_554 S
C399 Tb335 2.802 . S
C399 O374 1.264 . S
C399 O377 1.256 . S
C399 C392 1.496 . S
H400 C383 0.929 . S
H401 C384 0.929 . S
H402 C385 0.929 . S
H403 C386 0.931 . S
H404 C394 0.929 . S
H405 C395 0.929 . S
H406 C396 0.931 . S
H407 C397 0.929 . S
H408 C416 0.950 . S
H409 C421 0.950 . S
H410 C418 0.950 . S
H411 C420 0.950 . S
H412 C422 0.950 . S
H413 C424 0.950 . S
H414 C426 0.950 . S
H415 C427 0.950 . S
C416 H408 0.950 . S
C416 C417 1.386 . S
C416 C418 1.391 . S
C417 C416 1.386 . S
C417 C421 1.393 . S
C418 H410 0.950 . S
C418 C416 1.391 . S
C418 C419 1.400 . S
C419 C418 1.400 . S
C419 C420 1.398 . S
C419 C425 1.491 . S
C420 H411 0.950 . S
C420 C419 1.398 . S
C420 C421 1.391 . S
C421 H409 0.950 . S
C421 C417 1.393 . S
C421 C420 1.391 . S
C422 H412 0.950 . S
C422 C423 1.386 . S
C422 C424 1.391 . S
C423 C422 1.386 . S
C423 C427 1.393 . S
C424 H413 0.950 . S
C424 C422 1.391 . S
C424 C425 1.400 . S
C425 C419 1.491 . S
C425 C424 1.400 . S
C425 C426 1.398 . S
C426 H414 0.950 . S
C426 C425 1.398 . S
C426 C427 1.391 . S
C427 H415 0.950 . S
C427 C423 1.393 . S
C427 C426 1.391 . S
H428 C436 0.950 . S
H429 C441 0.950 . S
H430 C438 0.950 . S
H431 C440 0.950 . S
H432 C442 0.950 . S
H433 C444 0.950 . S
H434 C446 0.950 . S
H435 C447 0.950 . S
C436 H428 0.950 . S
C436 C437 1.386 . S
C436 C438 1.391 . S
C437 C436 1.386 . S
C437 C441 1.393 . S
C438 H430 0.950 . S
C438 C436 1.391 . S
C438 C439 1.400 . S
C439 C438 1.400 . S
C439 C440 1.398 . S
C439 C445 1.491 . S
C440 H431 0.950 . S
C440 C439 1.398 . S
C440 C441 1.391 . S
C441 H429 0.950 . S
C441 C437 1.393 . S
C441 C440 1.391 . S
C442 H432 0.950 . S
C442 C443 1.386 . S
C442 C444 1.391 . S
C443 C442 1.386 . S
C443 C447 1.393 . S
C444 H433 0.950 . S
C444 C442 1.391 . S
C444 C445 1.400 . S
C445 C439 1.491 . S
C445 C444 1.400 . S
C445 C446 1.398 . S
C446 H434 0.950 . S
C446 C445 1.398 . S
C446 C447 1.391 . S
C447 H435 0.950 . S
C447 C443 1.393 . S
C447 C446 1.391 . S
H448 C456 0.950 . S
H449 C461 0.950 . S
H450 C458 0.950 . S
H451 C460 0.950 . S
H452 C462 0.950 . S
H453 C464 0.950 . S
H454 C466 0.950 . S
H455 C467 0.950 . S
C456 H448 0.950 . S
C456 C457 1.386 . S
C456 C458 1.391 . S
C457 C456 1.386 . S
C457 C461 1.393 . S
C458 H450 0.950 . S
C458 C456 1.391 . S
C458 C459 1.400 . S
C459 C458 1.400 . S
C459 C460 1.398 . S
C459 C465 1.491 . S
C460 H451 0.950 . S
C460 C459 1.398 . S
C460 C461 1.391 . S
C461 H449 0.950 . S
C461 C457 1.393 . S
C461 C460 1.391 . S
C462 H452 0.950 . S
C462 C463 1.386 . S
C462 C464 1.391 . S
C463 C462 1.386 . S
C463 C467 1.393 . S
C464 H453 0.950 . S
C464 C462 1.391 . S
C464 C465 1.400 . S
C465 C459 1.491 . S
C465 C464 1.400 . S
C465 C466 1.398 . S
C466 H454 0.950 . S
C466 C465 1.398 . S
C466 C467 1.391 . S
C467 H455 0.950 . S
C467 C463 1.393 . S
C467 C466 1.391 . S
H468 C476 0.950 . S
H469 C481 0.950 . S
H470 C478 0.950 . S
H471 C480 0.950 . S
H472 C482 0.950 . S
H473 C484 0.950 . S
H474 C486 0.950 1_556 S
H475 C487 0.950 1_556 S
C476 H468 0.950 . S
C476 C477 1.386 1_556 S
C476 C478 1.391 . S
C477 C476 1.386 1_554 S
C477 C481 1.393 . S
C478 H470 0.950 . S
C478 C476 1.391 . S
C478 C479 1.400 1_556 S
C479 C478 1.400 1_554 S
C479 C480 1.398 . S
C479 C485 1.491 . S
C480 H471 0.950 . S
C480 C479 1.398 . S
C480 C481 1.391 . S
C481 H469 0.950 . S
C481 C477 1.393 . S
C481 C480 1.391 . S
C482 H472 0.950 . S
C482 C483 1.386 . S
C482 C484 1.391 . S
C483 C482 1.386 . S
C483 C487 1.393 . S
C484 H473 0.950 . S
C484 C482 1.391 . S
C484 C485 1.400 . S
C485 C479 1.491 . S
C485 C484 1.400 . S
C485 C486 1.398 . S
C486 H474 0.950 1_554 S
C486 C485 1.398 . S
C486 C487 1.391 . S
C487 H475 0.950 1_554 S
C487 C483 1.393 . S
C487 C486 1.391 . S
H488 C496 0.950 . S
H489 C501 0.950 . S
H490 C498 0.950 . S
H491 C500 0.950 . S
H492 C502 0.950 . S
H493 C504 0.950 . S
H494 C506 0.950 . S
H495 C507 0.950 . S
C496 H488 0.950 . S
C496 C497 1.386 . S
C496 C498 1.391 . S
C497 C496 1.386 . S
C497 C501 1.393 . S
C498 H490 0.950 . S
C498 C496 1.391 . S
C498 C499 1.400 . S
C499 C498 1.400 . S
C499 C500 1.398 . S
C499 C505 1.491 . S
C500 H491 0.950 . S
C500 C499 1.398 . S
C500 C501 1.391 . S
C501 H489 0.950 . S
C501 C497 1.393 . S
C501 C500 1.391 . S
C502 H492 0.950 . S
C502 C503 1.386 . S
C502 C504 1.391 . S
C503 C502 1.386 . S
C503 C507 1.393 . S
C504 H493 0.950 . S
C504 C502 1.391 . S
C504 C505 1.400 . S
C505 C499 1.491 . S
C505 C504 1.400 . S
C505 C506 1.398 . S
C506 H494 0.950 . S
C506 C505 1.398 . S
C506 C507 1.391 . S
C507 H495 0.950 . S
C507 C503 1.393 . S
C507 C506 1.391 . S
H508 C516 0.950 . S
H509 C521 0.950 . S
H510 C518 0.950 . S
H511 C520 0.950 . S
H512 C522 0.950 . S
H513 C524 0.950 . S
H514 C526 0.950 . S
H515 C527 0.950 . S
C516 H508 0.950 . S
C516 C517 1.386 . S
C516 C518 1.391 . S
C517 C516 1.386 . S
C517 C521 1.393 . S
C518 H510 0.950 . S
C518 C516 1.391 . S
C518 C519 1.400 . S
C519 C518 1.400 . S
C519 C520 1.398 . S
C519 C525 1.491 . S
C520 H511 0.950 . S
C520 C519 1.398 . S
C520 C521 1.391 . S
C521 H509 0.950 . S
C521 C517 1.393 . S
C521 C520 1.391 . S
C522 H512 0.950 . S
C522 C523 1.386 . S
C522 C524 1.391 . S
C523 C522 1.386 . S
C523 C527 1.393 . S
C524 H513 0.950 . S
C524 C522 1.391 . S
C524 C525 1.400 . S
C525 C519 1.491 . S
C525 C524 1.400 . S
C525 C526 1.398 . S
C526 H514 0.950 . S
C526 C525 1.398 . S
C526 C527 1.391 . S
C527 H515 0.950 . S
C527 C523 1.393 . S
C527 C526 1.391 . S
H528 C536 0.950 . S
H529 C541 0.950 . S
H530 C538 0.950 . S
H531 C540 0.950 . S
H532 C542 0.950 . S
H533 C544 0.950 . S
H534 C546 0.950 . S
H535 C547 0.950 . S
C536 H528 0.950 . S
C536 C537 1.386 . S
C536 C538 1.391 . S
C537 C536 1.386 . S
C537 C541 1.393 . S
C538 H530 0.950 . S
C538 C536 1.391 . S
C538 C539 1.400 . S
C539 C538 1.400 . S
C539 C540 1.398 . S
C539 C545 1.491 . S
C540 H531 0.950 . S
C540 C539 1.398 . S
C540 C541 1.391 . S
C541 H529 0.950 . S
C541 C537 1.393 . S
C541 C540 1.391 . S
C542 H532 0.950 . S
C542 C543 1.386 . S
C542 C544 1.391 . S
C543 C542 1.386 . S
C543 C547 1.393 . S
C544 H533 0.950 . S
C544 C542 1.391 . S
C544 C545 1.400 . S
C545 C539 1.491 . S
C545 C544 1.400 . S
C545 C546 1.398 . S
C546 H534 0.950 . S
C546 C545 1.398 . S
C546 C547 1.391 . S
C547 H535 0.950 . S
C547 C543 1.393 . S
C547 C546 1.391 . S
H548 C556 0.950 . S
H549 C561 0.950 . S
H550 C558 0.950 . S
H551 C560 0.950 . S
H552 C562 0.950 . S
H553 C564 0.950 . S
H554 C566 0.950 . S
H555 C567 0.950 . S
C556 H548 0.950 . S
C556 C557 1.386 . S
C556 C558 1.391 . S
C557 C556 1.386 . S
C557 C561 1.393 . S
C558 H550 0.950 . S
C558 C556 1.391 . S
C558 C559 1.400 . S
C559 C558 1.400 . S
C559 C560 1.398 . S
C559 C565 1.491 . S
C560 H551 0.950 . S
C560 C559 1.398 . S
C560 C561 1.391 . S
C561 H549 0.950 . S
C561 C557 1.393 . S
C561 C560 1.391 . S
C562 H552 0.950 . S
C562 C563 1.386 . S
C562 C564 1.391 . S
C563 C562 1.386 . S
C563 C567 1.393 . S
C564 H553 0.950 . S
C564 C562 1.391 . S
C564 C565 1.400 . S
C565 C559 1.491 . S
C565 C564 1.400 . S
C565 C566 1.398 . S
C566 H554 0.950 . S
C566 C565 1.398 . S
C566 C567 1.391 . S
C567 H555 0.950 . S
C567 C563 1.393 . S
C567 C566 1.391 . S
H568 C576 0.950 . S
H569 C581 0.950 . S
H570 C578 0.950 . S
H571 C580 0.950 . S
H572 C582 0.950 . S
H573 C584 0.950 . S
H574 C586 0.950 . S
H575 C587 0.950 . S
C576 H568 0.950 . S
C576 C577 1.386 . S
C576 C578 1.391 . S
C577 C576 1.386 . S
C577 C581 1.393 . S
C578 H570 0.950 . S
C578 C576 1.391 . S
C578 C579 1.400 . S
C579 C578 1.400 . S
C579 C580 1.398 . S
C579 C585 1.491 . S
C580 H571 0.950 . S
C580 C579 1.398 . S
C580 C581 1.391 . S
C581 H569 0.950 . S
C581 C577 1.393 . S
C581 C580 1.391 . S
C582 H572 0.950 . S
C582 C583 1.386 . S
C582 C584 1.391 . S
C583 C582 1.386 . S
C583 C587 1.393 . S
C584 H573 0.950 . S
C584 C582 1.391 . S
C584 C585 1.400 . S
C585 C579 1.491 . S
C585 C584 1.400 . S
C585 C586 1.398 . S
C586 H574 0.950 . S
C586 C585 1.398 . S
C586 C587 1.391 . S
C587 H575 0.950 . S
C587 C583 1.393 . S
C587 C586 1.391 . S
H588 C596 0.950 . S
H589 C601 0.950 . S
H590 C598 0.950 . S
H591 C600 0.950 . S
H592 C602 0.950 . S
H593 C604 0.950 . S
H594 C606 0.950 . S
H595 C607 0.950 . S
C596 H588 0.950 . S
C596 C597 1.386 . S
C596 C598 1.391 . S
C597 C596 1.386 . S
C597 C601 1.393 . S
C598 H590 0.950 . S
C598 C596 1.391 . S
C598 C599 1.400 . S
C599 C598 1.400 . S
C599 C600 1.398 . S
C599 C605 1.491 . S
C600 H591 0.950 . S
C600 C599 1.398 . S
C600 C601 1.391 . S
C601 H589 0.950 . S
C601 C597 1.393 . S
C601 C600 1.391 . S
C602 H592 0.950 . S
C602 C603 1.386 . S
C602 C604 1.391 . S
C603 C602 1.386 . S
C603 C607 1.393 . S
C604 H593 0.950 . S
C604 C602 1.391 . S
C604 C605 1.400 . S
C605 C599 1.491 . S
C605 C604 1.400 . S
C605 C606 1.398 . S
C606 H594 0.950 . S
C606 C605 1.398 . S
C606 C607 1.391 . S
C607 H595 0.950 . S
C607 C603 1.393 . S
C607 C606 1.391 . S
H608 C616 0.950 . S
H609 C621 0.950 . S
H610 C618 0.950 . S
H611 C620 0.950 . S
H612 C622 0.950 . S
H613 C624 0.950 . S
H614 C626 0.950 . S
H615 C627 0.950 . S
C616 H608 0.950 . S
C616 C617 1.386 . S
C616 C618 1.391 . S
C617 C616 1.386 . S
C617 C621 1.393 . S
C618 H610 0.950 . S
C618 C616 1.391 . S
C618 C619 1.400 . S
C619 C618 1.400 . S
C619 C620 1.398 . S
C619 C625 1.491 . S
C620 H611 0.950 . S
C620 C619 1.398 . S
C620 C621 1.391 . S
C621 H609 0.950 . S
C621 C617 1.393 . S
C621 C620 1.391 . S
C622 H612 0.950 . S
C622 C623 1.386 . S
C622 C624 1.391 . S
C623 C622 1.386 . S
C623 C627 1.393 . S
C624 H613 0.950 . S
C624 C622 1.391 . S
C624 C625 1.400 . S
C625 C619 1.491 . S
C625 C624 1.400 . S
C625 C626 1.398 . S
C626 H614 0.950 . S
C626 C625 1.398 . S
C626 C627 1.391 . S
C627 H615 0.950 . S
C627 C623 1.393 . S
C627 C626 1.391 . S
H628 C636 0.950 . S
H629 C641 0.950 . S
H630 C638 0.950 . S
H631 C640 0.950 . S
H632 C642 0.950 1_545 S
H633 C644 0.950 1_545 S
H634 C646 0.950 . S
H635 C647 0.950 . S
C636 H628 0.950 . S
C636 C637 1.386 . S
C636 C638 1.391 . S
C637 C636 1.386 . S
C637 C641 1.393 . S
C638 H630 0.950 . S
C638 C636 1.391 . S
C638 C639 1.400 . S
C639 C638 1.400 . S
C639 C640 1.398 . S
C639 C645 1.491 . S
C640 H631 0.950 . S
C640 C639 1.398 . S
C640 C641 1.391 . S
C641 H629 0.950 . S
C641 C637 1.393 . S
C641 C640 1.391 . S
C642 H632 0.950 1_565 S
C642 C643 1.386 . S
C642 C644 1.391 . S
C643 C642 1.386 . S
C643 C647 1.393 . S
C644 H633 0.950 1_565 S
C644 C642 1.391 . S
C644 C645 1.400 . S
C645 C639 1.491 . S
C645 C644 1.400 . S
C645 C646 1.398 . S
C646 H634 0.950 . S
C646 C645 1.398 . S
C646 C647 1.391 . S
C647 H635 0.950 . S
C647 C643 1.393 . S
C647 C646 1.391 . S
C423 C303 1.618 . S
C417 C211 1.612 . S
C437 C31 1.545 . S
C443 C398 1.623 . S
C457 C91 1.645 . S
C463 C314 1.631 . S
C477 C151 1.601 . S
C483 C387 1.614 . S
C503 C298 1.401 . S
C497 C20 1.532 . S
C523 C391 1.608 . S
C517 C61 1.574 . S
C537 C121 1.598 . S
C543 C307 1.618 . S
C557 C200 1.492 . S
C563 C382 1.384 . S
C583 C393 1.420 . S
C577 C80 1.511 . S
C603 C309 1.418 . S
C597 C140 1.555 . S
C623 C380 1.609 . S
C617 C181 1.527 . S
C637 C1 1.552 . S
C643 C296 1.618 . S
