# Generated by pormake.
# Topology dag, (6,3)-cn, num edge types: 1
# Building blocks:
#     Node 0, Type 0, BuildingBlock: OJICUG_clean_sbu_0, # of connection points: 6
#     Node 1, Type 0, BuildingBlock: OJICUG_clean_sbu_0, # of connection points: 6
#     Node 2, Type 0, BuildingBlock: OJICUG_clean_sbu_0, # of connection points: 6
#     Node 3, Type 0, BuildingBlock: OJICUG_clean_sbu_0, # of connection points: 6
#     Node 4, Type 1, BuildingBlock: VETTIZ_charged_linker_0, # of connection points: 3
#     Node 5, Type 1, BuildingBlock: VETTIZ_charged_linker_0, # of connection points: 3
#     Node 6, Type 1, BuildingBlock: VETTIZ_charged_linker_0, # of connection points: 3
#     Node 7, Type 1, BuildingBlock: VETTIZ_charged_linker_0, # of connection points: 3
#     Node 8, Type 1, BuildingBlock: VETTIZ_charged_linker_0, # of connection points: 3
#     Node 9, Type 1, BuildingBlock: VETTIZ_charged_linker_0, # of connection points: 3
#     Node 10, Type 1, BuildingBlock: VETTIZ_charged_linker_0, # of connection points: 3
#     Node 11, Type 1, BuildingBlock: VETTIZ_charged_linker_0, # of connection points: 3
#     Edge 12, Type (0, 1), BuildingBlock: UVAHIK_clean_linker_0, # of connection points: 2
#     Edge 13, Type (0, 1), BuildingBlock: UVAHIK_clean_linker_0, # of connection points: 2
#     Edge 14, Type (0, 1), BuildingBlock: UVAHIK_clean_linker_0, # of connection points: 2
#     Edge 15, Type (0, 1), BuildingBlock: UVAHIK_clean_linker_0, # of connection points: 2
#     Edge 16, Type (0, 1), BuildingBlock: UVAHIK_clean_linker_0, # of connection points: 2
#     Edge 17, Type (0, 1), BuildingBlock: UVAHIK_clean_linker_0, # of connection points: 2
#     Edge 18, Type (0, 1), BuildingBlock: UVAHIK_clean_linker_0, # of connection points: 2
#     Edge 19, Type (0, 1), BuildingBlock: UVAHIK_clean_linker_0, # of connection points: 2
#     Edge 20, Type (0, 1), BuildingBlock: UVAHIK_clean_linker_0, # of connection points: 2
#     Edge 21, Type (0, 1), BuildingBlock: UVAHIK_clean_linker_0, # of connection points: 2
#     Edge 22, Type (0, 1), BuildingBlock: UVAHIK_clean_linker_0, # of connection points: 2
#     Edge 23, Type (0, 1), BuildingBlock: UVAHIK_clean_linker_0, # of connection points: 2
#     Edge 24, Type (0, 1), BuildingBlock: UVAHIK_clean_linker_0, # of connection points: 2
#     Edge 25, Type (0, 1), BuildingBlock: UVAHIK_clean_linker_0, # of connection points: 2
#     Edge 26, Type (0, 1), BuildingBlock: UVAHIK_clean_linker_0, # of connection points: 2
#     Edge 27, Type (0, 1), BuildingBlock: UVAHIK_clean_linker_0, # of connection points: 2
#     Edge 28, Type (0, 1), BuildingBlock: UVAHIK_clean_linker_0, # of connection points: 2
#     Edge 29, Type (0, 1), BuildingBlock: UVAHIK_clean_linker_0, # of connection points: 2
#     Edge 30, Type (0, 1), BuildingBlock: UVAHIK_clean_linker_0, # of connection points: 2
#     Edge 31, Type (0, 1), BuildingBlock: UVAHIK_clean_linker_0, # of connection points: 2
#     Edge 32, Type (0, 1), BuildingBlock: UVAHIK_clean_linker_0, # of connection points: 2
#     Edge 33, Type (0, 1), BuildingBlock: UVAHIK_clean_linker_0, # of connection points: 2
#     Edge 34, Type (0, 1), BuildingBlock: UVAHIK_clean_linker_0, # of connection points: 2
#     Edge 35, Type (0, 1), BuildingBlock: UVAHIK_clean_linker_0, # of connection points: 2
# Relax obj value: 0.268
# Max RMSD: 0.196
# Mean RMSD: 0.162
data_MOF--net-dag--node1-OJICUG_clean_sbu_0--node2-VETTIZ_charged_linker_0--edge1-UVAHIK_clean_linker_0
_symmetry_space_group_name_H-M    P1
_symmetry_Int_Tables_number       1
_symmetry_cell_setting            triclinic
loop_
_symmetry_equiv_pos_as_xyz
'x, y, z'
_cell_length_a     56.262526
_cell_length_b     56.245278
_cell_length_c     58.838542
_cell_angle_alpha  89.999472
_cell_angle_beta   89.928961
_cell_angle_gamma 89.98675
loop_
_atom_site_label
_atom_site_type_symbol
_atom_site_fract_x
_atom_site_fract_y
_atom_site_fract_z
_atom_type_partial_charge
Sc0 Sc 0.16989 0.83012 0.00073 0.0
Sc1 Sc 0.17515 0.76862 0.99192 0.0
Sc2 Sc 0.22643 0.80519 0.99145 0.0
O3 O 0.19051 0.80131 -0.00531 0.0
C4 C 0.2069 0.85034 0.9645 0.0
C5 C 0.13748 0.80061 0.96605 0.0
C6 C 0.21474 0.76701 0.95308 0.0
C7 C 0.1453 0.79177 0.03261 0.0
C8 C 0.21556 0.84194 0.0311 0.0
C9 C 0.22154 0.75803 0.02129 0.0
O10 O 0.18659 0.85008 0.974 0.0
O11 O 0.14803 0.78087 0.96895 0.0
O12 O 0.22755 0.78327 0.96165 0.0
O13 O 0.15117 0.81303 0.02796 0.0
O14 O 0.22963 0.82807 0.02062 0.0
O15 O 0.20047 0.75328 0.01498 0.0
O16 O 0.19387 0.84442 0.0256 0.0
O17 O 0.15201 0.77406 0.02079 0.0
O18 O 0.23327 0.77563 0.01366 0.0
O19 O 0.14316 0.81941 0.97672 0.0
O20 O 0.22331 0.83562 0.96932 0.0
O21 O 0.1958 0.75952 0.96239 0.0
Sc22 Sc 0.71816 0.67952 0.49712 0.0
Sc23 Sc 0.67647 0.72672 0.4945 0.0
Sc24 Sc 0.65731 0.66843 0.50512 0.0
O25 O 0.68399 0.6916 0.49891 0.0
C26 C 0.69057 0.63882 0.47104 0.0
C27 C 0.71705 0.71834 0.45761 0.0
C28 C 0.63456 0.70168 0.46705 0.0
C29 C 0.72283 0.72714 0.52596 0.0
C30 C 0.69709 0.64875 0.53815 0.0
C31 C 0.63985 0.71353 0.53368 0.0
O32 O 0.70906 0.65151 0.47365 0.0
O33 O 0.6988 0.72913 0.465 0.0
O34 O 0.63658 0.6819 0.47733 0.0
O35 O 0.72997 0.70646 0.52045 0.0
O36 O 0.6755 0.65299 0.53345 0.0
O37 O 0.65256 0.72856 0.52309 0.0
O38 O 0.7143 0.6559 0.52591 0.0
O39 O 0.70457 0.73692 0.51729 0.0
O40 O 0.63975 0.69154 0.52881 0.0
O41 O 0.72652 0.70097 0.46798 0.0
O42 O 0.67147 0.64234 0.48209 0.0
O43 O 0.64726 0.71974 0.47172 0.0
Sc44 Sc 0.82743 0.21167 -0.00235 0.0
Sc45 Sc 0.77503 0.17665 -0.00057 0.0
Sc46 Sc 0.83041 0.15011 0.98831 0.0
O47 O 0.81094 0.1795 -0.00486 0.0
C48 C 0.85578 0.18839 0.95642 0.0
C49 C 0.78044 0.22355 0.96942 0.0
C50 C 0.78432 0.14074 0.95838 0.0
C51 C 0.7892 0.2145 0.03753 0.0
C52 C 0.86386 0.17757 0.0233 0.0
C53 C 0.79345 0.13072 0.02539 0.0
O54 O 0.84876 0.20641 0.96759 0.0
O55 O 0.76864 0.20573 0.97649 0.0
O56 O 0.8064 0.13867 0.96234 0.0
O57 O 0.80862 0.22066 0.02825 0.0
O58 O 0.85653 0.15875 0.01362 0.0
O59 O 0.77815 0.14713 0.02269 0.0
O60 O 0.85531 0.19803 0.01908 0.0
O61 O 0.77512 0.19948 0.0287 0.0
O62 O 0.81245 0.12948 0.01375 0.0
O63 O 0.80141 0.22824 0.97611 0.0
O64 O 0.85058 0.16723 0.96205 0.0
O65 O 0.77044 0.15299 0.97078 0.0
Sc66 Sc 0.33318 0.33459 0.49299 0.0
Sc67 Sc 0.27383 0.3156 0.49677 0.0
Sc68 Sc 0.32073 0.27343 0.49472 0.0
O69 O 0.30921 0.30785 0.49482 0.0
C70 C 0.35529 0.29679 0.45825 0.0
C71 C 0.29195 0.35352 0.46045 0.0
C72 C 0.27443 0.27079 0.46359 0.0
C73 C 0.29572 0.35591 0.52835 0.0
C74 C 0.35947 0.29854 0.52618 0.0
C75 C 0.27973 0.27293 0.53216 0.0
O76 O 0.35326 0.31746 0.46671 0.0
O77 O 0.27552 0.34157 0.46993 0.0
O78 O 0.29399 0.2626 0.47095 0.0
O79 O 0.31609 0.35481 0.51914 0.0
O80 O 0.34916 0.28014 0.51845 0.0
O81 O 0.26866 0.29073 0.52407 0.0
O82 O 0.35506 0.3194 0.51906 0.0
O83 O 0.27842 0.34286 0.52227 0.0
O84 O 0.29866 0.26464 0.52337 0.0
O85 O 0.31355 0.35253 0.46675 0.0
O86 O 0.34417 0.27886 0.46605 0.0
O87 O 0.26504 0.28976 0.47115 0.0
C88 C 0.22961 0.07331 0.14301 0.0
C89 C 0.22118 0.05843 0.12561 0.0
C90 C 0.19947 0.06402 0.1149 0.0
C91 C 0.19399 0.0975 0.14017 0.0
C92 C 0.21579 0.09272 0.14995 0.0
C93 C 0.2216 0.10975 0.16884 0.0
H94 H 0.18403 0.19381 0.24215 0.0
C95 C 0.18317 0.11763 0.1525 0.0
C96 C 0.19938 0.1251 0.16914 0.0
H97 H 0.25309 0.16008 0.23887 0.0
H98 H 0.24166 0.13971 0.20456 0.0
H99 H 0.18164 0.20584 0.18852 0.0
H100 H 0.15341 0.14882 0.22914 0.0
H101 H 0.13096 0.1582 0.21042 0.0
H102 H 0.14277 0.17887 0.23079 0.0
H103 H 0.15541 0.20951 0.20552 0.0
H104 H 0.15397 0.19851 0.17669 0.0
C105 C 0.24398 0.12414 0.16194 0.0
C106 C 0.22439 0.09515 0.19102 0.0
C107 C 0.09796 0.14142 0.13572 0.0
C108 C 0.08259 0.15843 0.14525 0.0
C109 C 0.0911 0.17343 0.1626 0.0
C110 C 0.11443 0.17119 0.17064 0.0
C111 C 0.12941 0.15372 0.16127 0.0
C112 C 0.12117 0.13941 0.14392 0.0
C113 C 0.13961 0.12203 0.13579 0.0
C114 C 0.16033 0.12826 0.15116 0.0
C115 C 0.15414 0.14663 0.16619 0.0
C116 C 0.14514 0.12737 0.11048 0.0
C117 C 0.13007 0.09662 0.14038 0.0
C118 C 0.19687 0.18236 0.23386 0.0
C119 C 0.21937 0.17826 0.24348 0.0
C120 C 0.23545 0.16311 0.23212 0.0
C121 C 0.22881 0.15133 0.21216 0.0
C122 C 0.20581 0.15464 0.20348 0.0
C123 C 0.19054 0.17048 0.21391 0.0
C124 C 0.167 0.17215 0.20196 0.0
C125 C 0.17051 0.15426 0.18296 0.0
C126 C 0.19315 0.14383 0.18415 0.0
C127 C 0.1641 0.19782 0.19277 0.0
C128 C 0.14735 0.16428 0.21885 0.0
H129 H 0.16933 0.0865 0.1135 0.0
H130 H 0.24637 0.06965 0.15135 0.0
H131 H 0.21027 0.08137 0.19227 0.0
H132 H 0.22259 0.10591 0.20657 0.0
H133 H 0.24185 0.08593 0.19147 0.0
H134 H 0.24555 0.1257 0.14314 0.0
H135 H 0.26047 0.11551 0.16824 0.0
H136 H 0.24336 0.14273 0.16807 0.0
H137 H 0.09209 0.12995 0.12204 0.0
H138 H 0.07957 0.18663 0.17024 0.0
H139 H 0.1198 0.18294 0.18404 0.0
H140 H 0.1428 0.1466 0.10661 0.0
H141 H 0.13317 0.11725 0.09903 0.0
H142 H 0.16382 0.12353 0.1059 0.0
H143 H 0.12082 0.0958 0.1571 0.0
H144 H 0.14417 0.08306 0.14142 0.0
H145 H 0.11712 0.0912 0.12712 0.0
H146 H 0.19245 0.05274 0.10158 0.0
C147 C 0.18591 0.0835 0.12202 0.0
C148 C 0.30294 0.5963 0.6361 0.0
C149 C 0.31656 0.58236 0.62117 0.0
C150 C 0.33712 0.59226 0.61121 0.0
C151 C 0.33077 0.629 0.63184 0.0
C152 C 0.31036 0.61941 0.6412 0.0
C153 C 0.29854 0.63605 0.65767 0.0
H154 H 0.30191 0.73786 0.71793 0.0
C155 C 0.33407 0.653 0.64155 0.0
C156 C 0.31516 0.65725 0.65659 0.0
H157 H 0.25161 0.67987 0.72306 0.0
H158 H 0.26965 0.66081 0.69087 0.0
H159 H 0.34555 0.70611 0.71376 0.0
H160 H 0.30424 0.73969 0.6613 0.0
H161 H 0.33434 0.74262 0.65373 0.0
H162 H 0.32373 0.75597 0.67974 0.0
H163 H 0.34764 0.73734 0.70789 0.0
H164 H 0.36573 0.71588 0.69308 0.0
C165 C 0.29857 0.62408 0.68145 0.0
C166 C 0.27353 0.64217 0.64836 0.0
C167 C 0.40791 0.70091 0.62225 0.0
C168 C 0.41659 0.72294 0.62991 0.0
C169 C 0.40264 0.73658 0.64493 0.0
C170 C 0.38053 0.72824 0.65248 0.0
C171 C 0.3724 0.70586 0.64518 0.0
C172 C 0.38592 0.69272 0.63012 0.0
C173 C 0.3747 0.66915 0.62455 0.0
C174 C 0.35223 0.6703 0.63879 0.0
C175 C 0.35106 0.69179 0.6509 0.0
C176 C 0.39172 0.64921 0.63267 0.0
C177 C 0.36916 0.66867 0.59877 0.0
C178 C 0.29467 0.72113 0.71205 0.0
C179 C 0.27539 0.71033 0.72328 0.0
C180 C 0.26628 0.68877 0.7147 0.0
C181 C 0.27701 0.67751 0.69614 0.0
C182 C 0.29729 0.6877 0.68618 0.0
C183 C 0.30547 0.70941 0.69381 0.0
C184 C 0.32787 0.71702 0.68189 0.0
C185 C 0.33197 0.69606 0.66613 0.0
C186 C 0.31402 0.67897 0.66877 0.0
C187 C 0.34782 0.71943 0.69994 0.0
C188 C 0.3225 0.74013 0.66853 0.0
H189 H 0.36012 0.62196 0.6084 0.0
H190 H 0.28723 0.58912 0.64425 0.0
H191 H 0.27389 0.6438 0.62951 0.0
H192 H 0.26684 0.6595 0.65446 0.0
H193 H 0.26047 0.6281 0.65277 0.0
H194 H 0.31429 0.61229 0.6836 0.0
H195 H 0.28243 0.61301 0.68398 0.0
H196 H 0.29999 0.63696 0.69555 0.0
H197 H 0.41837 0.68988 0.61094 0.0
H198 H 0.40889 0.75369 0.65089 0.0
H199 H 0.37081 0.73937 0.66402 0.0
H200 H 0.40071 0.65435 0.64878 0.0
H201 H 0.40576 0.64563 0.61982 0.0
H202 H 0.38249 0.63242 0.63669 0.0
H203 H 0.36357 0.68655 0.59269 0.0
H204 H 0.35419 0.6568 0.59448 0.0
H205 H 0.38504 0.6633 0.58878 0.0
H206 H 0.34773 0.58197 0.59939 0.0
C207 C 0.34424 0.61551 0.6164 0.0
C208 C 0.78533 0.7947 0.22564 0.0
C209 C 0.7934 0.77186 0.2317 0.0
C210 C 0.81237 0.76172 0.21935 0.0
C211 C 0.81751 0.79844 0.1985 0.0
C212 C 0.79753 0.80757 0.20898 0.0
C213 C 0.79211 0.83253 0.20138 0.0
H214 H 0.82925 0.93278 0.14919 0.0
C215 C 0.82813 0.81745 0.18457 0.0
C216 C 0.81315 0.83737 0.18588 0.0
H217 H 0.76079 0.91963 0.17992 0.0
H218 H 0.77239 0.87896 0.18817 0.0
H219 H 0.8616 0.90238 0.18575 0.0
H220 H 0.82993 0.886 0.12106 0.0
H221 H 0.85719 0.87085 0.1219 0.0
H222 H 0.85686 0.90294 0.1232 0.0
H223 H 0.87148 0.91518 0.15943 0.0
H224 H 0.88279 0.88709 0.16932 0.0
C225 C 0.79216 0.84895 0.22251 0.0
C226 C 0.76826 0.8323 0.18818 0.0
C227 C 0.91115 0.80616 0.15246 0.0
C228 C 0.92685 0.82141 0.14093 0.0
C229 C 0.9193 0.84464 0.13551 0.0
C230 C 0.89666 0.85267 0.14179 0.0
C231 C 0.88135 0.83735 0.1537 0.0
C232 C 0.88861 0.81447 0.15864 0.0
C233 C 0.87009 0.80074 0.17156 0.0
C234 C 0.85044 0.81914 0.17342 0.0
C235 C 0.85723 0.8406 0.16313 0.0
C236 C 0.88076 0.79429 0.19504 0.0
C237 C 0.86246 0.77903 0.15705 0.0
C238 C 0.81695 0.92115 0.15801 0.0
C239 C 0.79434 0.92928 0.16442 0.0
C240 C 0.77839 0.91361 0.17513 0.0
C241 C 0.78514 0.8901 0.17979 0.0
C242 C 0.80793 0.88222 0.17341 0.0
C243 C 0.82324 0.89756 0.16236 0.0
C244 C 0.84603 0.88567 0.15533 0.0
C245 C 0.84192 0.86064 0.16406 0.0
C246 C 0.81982 0.85888 0.17504 0.0
C247 C 0.86671 0.8982 0.16791 0.0
C248 C 0.84785 0.88646 0.12904 0.0
H249 H 0.83923 0.7665 0.19453 0.0
H250 H 0.77074 0.80306 0.23459 0.0
H251 H 0.76411 0.81434 0.18133 0.0
H252 H 0.76871 0.844 0.17303 0.0
H253 H 0.75319 0.83766 0.19926 0.0
H254 H 0.80792 0.84522 0.23334 0.0
H255 H 0.77598 0.8461 0.233 0.0
H256 H 0.79313 0.86799 0.2182 0.0
H257 H 0.91644 0.78828 0.15705 0.0
H258 H 0.93088 0.85661 0.12627 0.0
H259 H 0.89202 0.87054 0.13724 0.0
H260 H 0.8906 0.80969 0.20227 0.0
H261 H 0.89344 0.77923 0.19355 0.0
H262 H 0.86731 0.7897 0.20791 0.0
H263 H 0.8647 0.78261 0.13857 0.0
H264 H 0.84337 0.77474 0.15905 0.0
H265 H 0.87323 0.76307 0.16123 0.0
H266 H 0.81846 0.74388 0.22307 0.0
C267 C 0.82444 0.77489 0.20279 0.0
C268 C 0.69476 0.28987 0.73491 0.0
C269 C 0.71425 0.29919 0.74695 0.0
C270 C 0.72545 0.31991 0.73871 0.0
C271 C 0.69567 0.32362 0.70932 0.0
C272 C 0.68558 0.3025 0.71641 0.0
C273 C 0.66296 0.29691 0.70387 0.0
H274 H 0.57357 0.3366 0.63757 0.0
C275 C 0.67991 0.33425 0.69211 0.0
C276 C 0.66069 0.31868 0.68879 0.0
H277 H 0.57943 0.26782 0.66976 0.0
H278 H 0.61925 0.27763 0.68257 0.0
H279 H 0.59476 0.3664 0.67694 0.0
H280 H 0.62671 0.33671 0.61699 0.0
H281 H 0.63978 0.36476 0.62083 0.0
H282 H 0.60813 0.36261 0.61617 0.0
H283 H 0.59042 0.37892 0.64921 0.0
H284 H 0.61496 0.38772 0.66701 0.0
C285 C 0.64253 0.29523 0.7215 0.0
C286 C 0.6669 0.27397 0.68981 0.0
C287 C 0.69598 0.41837 0.66437 0.0
C288 C 0.68228 0.43424 0.65148 0.0
C289 C 0.66077 0.4265 0.64183 0.0
C290 C 0.65266 0.40331 0.64532 0.0
C291 C 0.66602 0.38779 0.65896 0.0
C292 C 0.68739 0.39529 0.66807 0.0
C293 C 0.69841 0.37672 0.68314 0.0
C294 C 0.68024 0.3568 0.68129 0.0
C295 C 0.66138 0.36344 0.66713 0.0
C296 C 0.70007 0.387 0.70762 0.0
C297 C 0.72258 0.36943 0.67267 0.0
C298 C 0.58339 0.32369 0.6475 0.0
C299 C 0.57329 0.30166 0.65316 0.0
C300 C 0.58686 0.285 0.66543 0.0
C301 C 0.60986 0.29078 0.67289 0.0
C302 C 0.61926 0.31342 0.66801 0.0
C303 C 0.60626 0.32913 0.65496 0.0
C304 C 0.61911 0.35209 0.65078 0.0
C305 C 0.64193 0.3478 0.66378 0.0
C306 C 0.6418 0.32532 0.67414 0.0
C307 C 0.60412 0.37249 0.66132 0.0
C308 C 0.62361 0.35443 0.62487 0.0
H309 H 0.72522 0.3481 0.7149 0.0
H310 H 0.68603 0.27373 0.74047 0.0
H311 H 0.68562 0.27265 0.68382 0.0
H312 H 0.65609 0.27358 0.67414 0.0
H313 H 0.66303 0.25786 0.70009 0.0
H314 H 0.64419 0.30953 0.73447 0.0
H315 H 0.64291 0.27788 0.73052 0.0
H316 H 0.62475 0.29762 0.71405 0.0
H317 H 0.71247 0.42409 0.67214 0.0
H318 H 0.65011 0.43855 0.63171 0.0
H319 H 0.63602 0.39858 0.6377 0.0
H320 H 0.68699 0.40156 0.71043 0.0
H321 H 0.71801 0.39439 0.71107 0.0
H322 H 0.69567 0.37373 0.72084 0.0
H323 H 0.72108 0.3676 0.65389 0.0
H324 H 0.7289 0.35197 0.67878 0.0
H325 H 0.7364 0.38303 0.67622 0.0
H326 H 0.7404 0.32765 0.74761 0.0
C327 C 0.71639 0.33202 0.71985 0.0
C328 C 0.67281 0.4247 0.31607 0.0
C329 C 0.65665 0.44098 0.32551 0.0
C330 C 0.63268 0.43428 0.32824 0.0
C331 C 0.64159 0.395 0.31371 0.0
C332 C 0.66488 0.40193 0.31017 0.0
C333 C 0.67961 0.38251 0.29967 0.0
H334 H 0.68629 0.27013 0.25978 0.0
C335 C 0.63948 0.36976 0.30717 0.0
C336 C 0.66168 0.36234 0.29892 0.0
H337 H 0.73733 0.32718 0.25209 0.0
H338 H 0.71353 0.35225 0.27611 0.0
H339 H 0.67215 0.28005 0.31275 0.0
H340 H 0.64231 0.30205 0.24879 0.0
H341 H 0.61891 0.29275 0.26654 0.0
H342 H 0.64168 0.27189 0.2588 0.0
H343 H 0.65366 0.26066 0.29625 0.0
H344 H 0.64122 0.28123 0.31666 0.0
C345 C 0.70054 0.37681 0.31583 0.0
C346 C 0.6873 0.39066 0.27553 0.0
C347 C 0.56153 0.32601 0.31917 0.0
C348 C 0.55519 0.30194 0.31754 0.0
C349 C 0.57222 0.28517 0.3105 0.0
C350 C 0.59532 0.2924 0.30479 0.0
C351 C 0.60143 0.3166 0.3064 0.0
C352 C 0.58476 0.33288 0.31385 0.0
C353 C 0.59501 0.35741 0.31652 0.0
C354 C 0.62044 0.3533 0.30885 0.0
C355 C 0.62396 0.32947 0.30263 0.0
C356 C 0.59348 0.36439 0.34199 0.0
C357 C 0.58156 0.37436 0.30026 0.0
C358 C 0.69244 0.28799 0.2633 0.0
C359 C 0.71365 0.29665 0.25367 0.0
C360 C 0.72121 0.31985 0.25929 0.0
C361 C 0.70712 0.33461 0.27293 0.0
C362 C 0.68505 0.32631 0.28076 0.0
C363 C 0.67821 0.30321 0.27625 0.0
C364 C 0.65344 0.29797 0.28448 0.0
C365 C 0.64623 0.32205 0.29382 0.0
C366 C 0.66493 0.33844 0.29189 0.0
C367 C 0.655 0.27888 0.30342 0.0
C368 C 0.63816 0.29063 0.26372 0.0
H369 H 0.60671 0.4072 0.32528 0.0
H370 H 0.69124 0.42956 0.31347 0.0
H371 H 0.67562 0.405 0.26884 0.0
H372 H 0.68588 0.37621 0.26282 0.0
H373 H 0.70577 0.39763 0.27553 0.0
H374 H 0.69421 0.37565 0.33371 0.0
H375 H 0.71434 0.39091 0.31499 0.0
H376 H 0.70903 0.35954 0.31212 0.0
H377 H 0.54887 0.33909 0.32523 0.0
H378 H 0.56763 0.2665 0.30945 0.0
H379 H 0.60755 0.27887 0.29946 0.0
H380 H 0.5952 0.34849 0.35313 0.0
H381 H 0.57619 0.37297 0.34598 0.0
H382 H 0.60805 0.37623 0.34741 0.0
H383 H 0.57773 0.3654 0.28381 0.0
H384 H 0.59197 0.39031 0.2957 0.0
H385 H 0.56432 0.38003 0.30772 0.0
H386 H 0.61997 0.44654 0.33561 0.0
C387 C 0.62508 0.41137 0.32244 0.0
C388 C 0.19899 0.20432 0.76523 0.0
C389 C 0.22217 0.1982 0.75836 0.0
C390 C 0.23537 0.18216 0.77177 0.0
C391 C 0.20143 0.17636 0.79646 0.0
C392 C 0.18906 0.19331 0.7843 0.0
C393 C 0.16431 0.19703 0.7933 0.0
H394 H 0.07415 0.15758 0.85881 0.0
C395 C 0.18527 0.1665 0.81378 0.0
C396 C 0.16361 0.1788 0.81231 0.0
H397 H 0.07454 0.21886 0.81459 0.0
H398 H 0.11642 0.21268 0.80672 0.0
H399 H 0.10757 0.12321 0.82717 0.0
H400 H 0.1215 0.1699 0.88352 0.0
H401 H 0.14204 0.14653 0.88587 0.0
H402 H 0.11059 0.14028 0.88781 0.0
H403 H 0.09678 0.11825 0.85552 0.0
H404 H 0.12568 0.10815 0.84686 0.0
C405 C 0.14652 0.19102 0.77405 0.0
C406 C 0.16235 0.22281 0.80243 0.0
C407 C 0.2091 0.0917 0.8563 0.0
C408 C 0.19706 0.07723 0.87199 0.0
C409 C 0.17455 0.08434 0.88003 0.0
C410 C 0.16374 0.10505 0.87183 0.0
C411 C 0.1755 0.11875 0.85534 0.0
C412 C 0.19807 0.11238 0.84833 0.0
C413 C 0.20807 0.12941 0.83112 0.0
C414 C 0.18755 0.14678 0.82865 0.0
C415 C 0.1684 0.14018 0.84258 0.0
C416 C 0.21276 0.11532 0.80892 0.0
C417 C 0.23044 0.14139 0.84139 0.0
C418 C 0.08329 0.16952 0.84729 0.0
C419 C 0.07114 0.18841 0.83689 0.0
C420 C 0.08364 0.20409 0.82259 0.0
C421 C 0.10786 0.20043 0.81805 0.0
C422 C 0.11962 0.18097 0.82803 0.0
C423 C 0.10746 0.16628 0.84282 0.0
C424 C 0.12302 0.14723 0.85276 0.0
C425 C 0.14652 0.15265 0.8412 0.0
C426 C 0.14428 0.17212 0.82642 0.0
C427 C 0.11282 0.12283 0.8454 0.0
C428 C 0.12433 0.15093 0.87886 0.0
H429 H 0.23588 0.15881 0.79999 0.0
H430 H 0.18829 0.21654 0.75538 0.0
H431 H 0.17996 0.22981 0.80781 0.0
H432 H 0.15114 0.22401 0.81787 0.0
H433 H 0.15524 0.23505 0.78927 0.0
H434 H 0.15186 0.17434 0.76524 0.0
H435 H 0.14596 0.20546 0.76118 0.0
H436 H 0.12828 0.1879 0.78019 0.0
H437 H 0.22657 0.08682 0.85011 0.0
H438 H 0.1649 0.0734 0.89206 0.0
H439 H 0.14639 0.10925 0.87823 0.0
H440 H 0.19757 0.10329 0.80511 0.0
H441 H 0.22898 0.10418 0.8105 0.0
H442 H 0.21468 0.12669 0.7938 0.0
H443 H 0.22971 0.14168 0.86029 0.0
H444 H 0.23205 0.16032 0.83644 0.0
H445 H 0.24691 0.13181 0.83642 0.0
H446 H 0.25348 0.17762 0.76726 0.0
C447 C 0.22514 0.17127 0.7908 0.0
C448 C 0.28514 0.68441 0.25691 0.0
C449 C 0.29456 0.70508 0.24693 0.0
C450 C 0.31289 0.7174 0.25824 0.0
C451 C 0.31399 0.68697 0.28735 0.0
C452 C 0.29503 0.67576 0.27703 0.0
C453 C 0.28809 0.65316 0.28889 0.0
H454 H 0.31585 0.56713 0.36381 0.0
C455 C 0.32177 0.67198 0.30652 0.0
C456 C 0.30644 0.65232 0.30771 0.0
H457 H 0.25578 0.56978 0.31818 0.0
H458 H 0.26659 0.60972 0.30697 0.0
H459 H 0.35335 0.59054 0.32959 0.0
H460 H 0.31008 0.61949 0.38315 0.0
H461 H 0.33666 0.63583 0.38346 0.0
H462 H 0.33739 0.60423 0.38901 0.0
H463 H 0.35786 0.58408 0.35915 0.0
H464 H 0.37129 0.60954 0.34592 0.0
C465 C 0.29109 0.63236 0.27181 0.0
C466 C 0.26253 0.65616 0.29835 0.0
C467 C 0.39991 0.68998 0.34613 0.0
C468 C 0.41298 0.67764 0.36271 0.0
C469 C 0.40278 0.65756 0.37323 0.0
C470 C 0.38043 0.6492 0.36659 0.0
C471 C 0.36819 0.66088 0.34907 0.0
C472 C 0.37762 0.68128 0.33957 0.0
C473 C 0.36198 0.69131 0.32121 0.0
C474 C 0.34182 0.67334 0.32108 0.0
C475 C 0.34577 0.6554 0.33722 0.0
C476 C 0.37631 0.69106 0.29869 0.0
C477 C 0.35343 0.71629 0.32874 0.0
C478 C 0.30508 0.57633 0.35135 0.0
C479 C 0.28521 0.56523 0.34152 0.0
C480 C 0.27121 0.57798 0.32589 0.0
C481 C 0.27761 0.60108 0.31934 0.0
C482 C 0.29826 0.61146 0.32845 0.0
C483 C 0.31122 0.59933 0.34463 0.0
C484 C 0.33242 0.61319 0.35274 0.0
C485 C 0.33025 0.63555 0.33847 0.0
C486 C 0.31045 0.63425 0.32405 0.0
C487 C 0.35502 0.59869 0.34675 0.0
C488 C 0.32922 0.6184 0.37845 0.0
H489 H 0.33685 0.71836 0.286 0.0
H490 H 0.2712 0.67436 0.24865 0.0
H491 H 0.25867 0.67507 0.30249 0.0
H492 H 0.2598 0.64653 0.31455 0.0
H493 H 0.24905 0.65019 0.28581 0.0
H494 H 0.30753 0.63471 0.26152 0.0
H495 H 0.27582 0.63148 0.2599 0.0
H496 H 0.29309 0.61488 0.28003 0.0
H497 H 0.40728 0.70545 0.33774 0.0
H498 H 0.41228 0.64808 0.38643 0.0
H499 H 0.37384 0.63361 0.37497 0.0
H500 H 0.38665 0.67427 0.29707 0.0
H501 H 0.38909 0.70609 0.29805 0.0
H502 H 0.36508 0.69174 0.28339 0.0
H503 H 0.3519 0.71746 0.34757 0.0
H504 H 0.33543 0.72056 0.32241 0.0
H505 H 0.36602 0.73033 0.32314 0.0
H506 H 0.3201 0.73366 0.25119 0.0
C507 C 0.32257 0.70851 0.27846 0.0
C508 C 0.78284 0.91998 0.833 0.0
C509 C 0.79389 0.937 0.84685 0.0
C510 C 0.81564 0.93141 0.85744 0.0
C511 C 0.81548 0.89259 0.83975 0.0
C512 C 0.79401 0.898 0.82957 0.0
C513 C 0.78557 0.87849 0.81412 0.0
H514 H 0.80876 0.77519 0.76045 0.0
C515 C 0.82265 0.86861 0.8322 0.0
C516 C 0.80516 0.86019 0.81728 0.0
H517 H 0.75227 0.82579 0.74783 0.0
H518 H 0.76359 0.84789 0.78088 0.0
H519 H 0.84822 0.81437 0.76832 0.0
H520 H 0.80516 0.775 0.81577 0.0
H521 H 0.83275 0.77968 0.829 0.0
H522 H 0.83129 0.76229 0.80319 0.0
H523 H 0.85027 0.78275 0.77223 0.0
H524 H 0.8666 0.80285 0.78988 0.0
C525 C 0.78468 0.8884 0.78946 0.0
C526 C 0.76144 0.86928 0.82322 0.0
C527 C 0.90256 0.83502 0.8559 0.0
C528 C 0.9137 0.81306 0.85205 0.0
C529 C 0.90136 0.79497 0.84053 0.0
C530 C 0.87848 0.79913 0.83197 0.0
C531 C 0.86797 0.8216 0.83501 0.0
C532 C 0.87963 0.83878 0.84753 0.0
C533 C 0.865 0.86092 0.85051 0.0
C534 C 0.84297 0.85453 0.83698 0.0
C535 C 0.84506 0.8317 0.82752 0.0
C536 C 0.87877 0.88192 0.83967 0.0
C537 C 0.8595 0.86401 0.87617 0.0
C538 C 0.79877 0.791 0.76481 0.0
C539 C 0.77978 0.79879 0.75116 0.0
C540 C 0.76686 0.81911 0.75795 0.0
C541 C 0.77372 0.83226 0.77702 0.0
C542 C 0.79399 0.8254 0.78922 0.0
C543 C 0.80582 0.80474 0.78344 0.0
C544 C 0.82778 0.80097 0.79758 0.0
C545 C 0.82763 0.82333 0.81206 0.0
C546 C 0.80775 0.83748 0.8071 0.0
C547 C 0.84946 0.80005 0.78131 0.0
C548 C 0.82429 0.77824 0.81208 0.0
H549 H 0.84302 0.90615 0.8625 0.0
H550 H 0.76627 0.92395 0.82444 0.0
H551 H 0.76193 0.86751 0.84205 0.0
H552 H 0.75689 0.85142 0.81675 0.0
H553 H 0.74683 0.88176 0.81887 0.0
H554 H 0.79616 0.90436 0.78737 0.0
H555 H 0.76633 0.89365 0.78464 0.0
H556 H 0.7916 0.87561 0.77678 0.0
H557 H 0.91155 0.84897 0.86524 0.0
H558 H 0.90968 0.77786 0.83766 0.0
H559 H 0.87004 0.78489 0.82294 0.0
H560 H 0.88725 0.87635 0.82342 0.0
H561 H 0.89306 0.88832 0.85115 0.0
H562 H 0.86728 0.89708 0.83515 0.0
H563 H 0.85885 0.84653 0.88503 0.0
H564 H 0.84183 0.87198 0.8793 0.0
H565 H 0.8733 0.87495 0.88469 0.0
H566 H 0.82431 0.94423 0.8684 0.0
C567 C 0.82642 0.90927 0.85407 0.0
C568 C 0.24954 0.86304 0.04989 0.0
C569 C 0.22514 0.85767 0.04901 0.0
C570 C 0.2578 0.88137 0.06388 0.0
C571 C 0.23966 0.92346 0.10966 0.0
H572 H 0.27386 0.96997 0.0736 0.0
C573 C 0.24171 0.02081 0.13717 0.0
C574 C 0.23368 0.03603 0.11984 0.0
C575 C 0.2496 -0.00213 0.13199 0.0
C576 C 0.26454 0.9571 0.08402 0.0
H577 H 0.19065 0.86573 0.06364 0.0
H578 H 0.20495 0.89756 0.08783 0.0
H579 H 0.27016 0.9293 0.05984 0.0
H580 H 0.2296 0.03999 0.08343 0.0
H581 H 0.24286 -6e-05 0.0744 0.0
H582 H 0.23236 0.95166 0.13292 0.0
C583 C 0.21778 0.88774 0.0778 0.0
C584 C 0.26264 0.93371 0.07626 0.0
C585 C 0.20952 0.86961 0.06374 0.0
C586 C 0.23536 0.02852 0.09715 0.0
C587 C 0.24326 0.00564 0.09197 0.0
C588 C 0.24152 0.94684 0.11739 0.0
C589 C 0.24185 0.89443 0.0774 0.0
C590 C 0.24919 0.91695 0.08848 0.0
C591 C 0.24966 0.98976 0.1094 0.0
C592 C 0.253 0.96417 0.10411 0.0
H593 H 0.26205 0.8541 0.0388 0.0
H594 H 0.27648 0.886 0.06339 0.0
H595 H 0.22949 0.91082 0.1196 0.0
H596 H 0.24055 0.02607 0.15484 0.0
H597 H 0.25466 0.98614 0.14576 0.0
C598 C 0.61523 0.74591 0.55119 0.0
C599 C 0.62266 0.72204 0.5509 0.0
C600 C 0.5958 0.75285 0.56449 0.0
C601 C 0.5543 0.73277 0.60991 0.0
H602 H 0.50635 0.76362 0.57291 0.0
C603 C 0.45672 0.73962 0.63923 0.0
C604 C 0.44056 0.73105 0.62297 0.0
C605 C 0.48014 0.74488 0.63307 0.0
C606 C 0.51961 0.75519 0.58353 0.0
H607 H 0.61698 0.68724 0.56589 0.0
H608 H 0.58324 0.69929 0.58894 0.0
H609 H 0.5471 0.761 0.55906 0.0
H610 H 0.4358 0.72248 0.58737 0.0
H611 H 0.47665 0.7315 0.5766 0.0
H612 H 0.52645 0.72568 0.63375 0.0
C613 C 0.5923 0.71268 0.57893 0.0
C614 C 0.54302 0.75392 0.57573 0.0
C615 C 0.61154 0.70572 0.56554 0.0
C616 C 0.44795 0.72885 0.60028 0.0
C617 C 0.47127 0.73427 0.59409 0.0
C618 C 0.53089 0.73412 0.61775 0.0
C619 C 0.58367 0.7361 0.57792 0.0
C620 C 0.56042 0.74191 0.58846 0.0
C621 C 0.48775 0.74189 0.61049 0.0
C622 C 0.51314 0.74456 0.60424 0.0
H623 H 0.62349 0.75895 0.54018 0.0
H624 H 0.58969 0.77108 0.56358 0.0
H625 H 0.5674 0.72363 0.62018 0.0
H626 H 0.45153 0.74133 0.65689 0.0
H627 H 0.49243 0.75083 0.64603 0.0
C628 C 0.77085 0.11437 0.05895 0.0
C629 C 0.78957 0.11247 0.04316 0.0
C630 C 0.76826 0.09749 0.0763 0.0
C631 C 0.80318 0.05247 0.10741 0.0
H632 H 0.74243 0.02348 0.1215 0.0
C633 C 0.76925 0.95776 0.14269 0.0
C634 C 0.78731 0.95375 0.15862 0.0
C635 C 0.76589 0.98046 0.13358 0.0
C636 C 0.75952 0.03145 0.1178 0.0
H637 H 0.81975 0.09087 0.03286 0.0
H638 H 0.81504 0.06159 0.06264 0.0
H639 H 0.74426 0.05656 0.09456 0.0
H640 H 0.81458 0.97019 0.17916 0.0
H641 H 0.80805 0.01012 0.16415 0.0
H642 H 0.81881 0.0267 0.12923 0.0
C643 C 0.80268 0.07636 0.06203 0.0
C644 C 0.76052 0.05053 0.10254 0.0
C645 C 0.80528 0.09311 0.04482 0.0
C646 C 0.80067 0.97297 0.16672 0.0
C647 C 0.79702 0.99574 0.15797 0.0
C648 C 0.80222 0.0334 0.12246 0.0
C649 C 0.78439 0.0785 0.07816 0.0
C650 C 0.78249 0.0607 0.09667 0.0
C651 C 0.78038 -0.00045 0.14049 0.0
C652 C 0.78048 0.0222 0.12742 0.0
H653 H 0.75844 0.12907 0.05816 0.0
H654 H 0.754 0.09957 0.08851 0.0
H655 H 0.82033 0.06026 0.10357 0.0
H656 H 0.75887 0.94306 0.13615 0.0
H657 H 0.75307 0.98261 0.12003 0.0
C658 C 0.39072 0.27432 0.54584 0.0
C659 C 0.37798 0.29571 0.54374 0.0
C660 C 0.40984 0.27266 0.56094 0.0
C661 C 0.45292 0.31192 0.58943 0.0
H662 H 0.47095 0.25501 0.62243 0.0
C663 C 0.53098 0.31407 0.65019 0.0
C664 C 0.54849 0.29673 0.64641 0.0
C665 C 0.50841 0.31155 0.64086 0.0
C666 C 0.46608 0.27096 0.61324 0.0
H667 H 0.37407 0.3315 0.55694 0.0
H668 H 0.40678 0.32839 0.5837 0.0
H669 H 0.43411 0.25537 0.60017 0.0
H670 H 0.55574 0.26235 0.63134 0.0
H671 H 0.51596 0.25794 0.61474 0.0
H672 H 0.48471 0.32754 0.60232 0.0
C673 C 0.40267 0.31316 0.57315 0.0
C674 C 0.44508 0.27118 0.60047 0.0
C675 C 0.38385 0.31493 0.55787 0.0
C676 C 0.54251 0.27595 0.63446 0.0
C677 C 0.5198 0.27344 0.62502 0.0
C678 C 0.47367 0.31176 0.60225 0.0
C679 C 0.41636 0.29228 0.57438 0.0
C680 C 0.43825 0.29173 0.58847 0.0
C681 C 0.50287 0.29165 0.62748 0.0
C682 C 0.48045 0.29135 0.61434 0.0
H683 H 0.38657 0.25921 0.53515 0.0
H684 H 0.42008 0.25637 0.56136 0.0
H685 H 0.44865 0.32782 0.57988 0.0
H686 H 0.53504 0.33003 0.65975 0.0
H687 H 0.49553 0.32562 0.64342 0.0
C688 C 0.70798 0.61858 0.43669 0.0
C689 C 0.69064 0.61956 0.45391 0.0
C690 C 0.70667 0.60126 0.41963 0.0
C691 C 0.66316 0.56075 0.39271 0.0
H692 H 0.71862 0.5265 0.37133 0.0
C693 C 0.6843 0.46553 0.34891 0.0
C694 C 0.66488 0.46429 0.33401 0.0
C695 C 0.69003 0.48691 0.35963 0.0
C696 C 0.70295 0.53589 0.37714 0.0
H697 H 0.65896 0.60246 0.46726 0.0
H698 H 0.65703 0.57218 0.43805 0.0
H699 H 0.72335 0.55852 0.39899 0.0
H700 H 0.63737 0.48462 0.31718 0.0
H701 H 0.64781 0.52224 0.33529 0.0
H702 H 0.64254 0.53747 0.3721 0.0
C703 C 0.67123 0.58515 0.43722 0.0
C704 C 0.7057 0.55441 0.39281 0.0
C705 C 0.67245 0.60245 0.4541 0.0
C706 C 0.65222 0.48509 0.32888 0.0
C707 C 0.65816 0.50657 0.33934 0.0
C708 C 0.66039 0.54221 0.37725 0.0
C709 C 0.68804 0.58459 0.41955 0.0
C710 C 0.68574 0.56663 0.40119 0.0
C711 C 0.67661 0.50756 0.35546 0.0
C712 C 0.68018 0.5292 0.3696 0.0
H713 H 0.72219 0.63155 0.43604 0.0
H714 H 0.71986 0.60131 0.40622 0.0
H715 H 0.64745 0.57016 0.39844 0.0
H716 H 0.69422 0.44966 0.35325 0.0
H717 H 0.70414 0.48687 0.37212 0.0
C718 C 0.87601 0.17309 0.92158 0.0
C719 C 0.87206 0.1918 0.93695 0.0
C720 C 0.89392 0.17472 0.90527 0.0
C721 C 0.93766 0.21493 0.87772 0.0
H722 H 0.9772 0.15848 0.87911 0.0
C723 C 0.03657 0.21278 0.85008 0.0
C724 C 0.04548 0.19143 0.84116 0.0
C725 C 0.01287 0.21426 0.85718 0.0
C726 C 0.96618 0.17423 0.87803 0.0
H727 H 0.88267 0.22761 0.94618 0.0
H728 H 0.91437 0.23024 0.91792 0.0
H729 H 0.93979 0.15869 0.89938 0.0
H730 H 0.03653 0.15561 0.83083 0.0
H731 H 0.99503 0.15833 0.84249 0.0
H732 H 0.96462 0.23059 0.85671 0.0
C733 C 0.90343 0.2144 0.91837 0.0
C734 C 0.94467 0.17435 0.88972 0.0
C735 C 0.88533 0.21285 0.93463 0.0
C736 C 0.03007 0.17214 0.838 0.0
C737 C 0.00638 0.17369 0.84477 0.0
C738 C 0.95928 0.21478 0.86589 0.0
C739 C 0.90843 0.195 0.90407 0.0
C740 C 0.93024 0.19473 0.88989 0.0
C741 C -0.00228 0.19445 0.85524 0.0
C742 C 0.97387 0.19446 0.8661 0.0
H743 H 0.86578 0.15681 0.92262 0.0
H744 H 0.897 0.15969 0.89413 0.0
H745 H 0.92684 0.23085 0.87747 0.0
H746 H 0.04823 0.22786 0.85268 0.0
H747 H 0.00684 0.23045 0.8653 0.0
C748 C 0.30351 0.37997 0.42815 0.0
C749 C 0.28563 0.37005 0.44187 0.0
C750 C 0.29795 0.39715 0.41194 0.0
C751 C 0.25571 0.44464 0.40253 0.0
H752 H 0.28932 0.45054 0.34522 0.0
C753 C 0.25676 0.5328 0.35257 0.0
C754 C 0.27991 0.54012 0.34698 0.0
C755 C 0.25245 0.50934 0.35934 0.0
C756 C 0.27968 0.44909 0.36111 0.0
H757 H 0.24768 0.36965 0.44862 0.0
H758 H 0.23803 0.4 0.42036 0.0
H759 H 0.29085 0.41308 0.36614 0.0
H760 H 0.31637 0.52849 0.3427 0.0
H761 H 0.30901 0.48786 0.35478 0.0
H762 H 0.24566 0.48102 0.3982 0.0
C763 C 0.25635 0.3944 0.42225 0.0
C764 C 0.28055 0.42767 0.37305 0.0
C765 C 0.26189 0.37701 0.43837 0.0
C766 C 0.29842 0.52339 0.34726 0.0
C767 C 0.29412 0.50002 0.35387 0.0
C768 C 0.25491 0.4661 0.39062 0.0
C769 C 0.27439 0.40492 0.40916 0.0
C770 C 0.26936 0.42556 0.3943 0.0
C771 C 0.27119 0.49282 0.36038 0.0
C772 C 0.26769 0.46883 0.37026 0.0
H773 H 0.32195 0.37488 0.43028 0.0
H774 H 0.31229 0.40515 0.40231 0.0
H775 H 0.24704 0.44359 0.41895 0.0
H776 H 0.24219 0.54539 0.35245 0.0
H777 H 0.23458 0.50424 0.36417 0.0
C778 C 0.10055 0.82043 0.95214 0.0
C779 C 0.11687 0.80161 0.95049 0.0
C780 C 0.08026 0.82085 0.93859 0.0
C781 C 0.04131 0.78162 0.90451 0.0
H782 H 0.01471 0.84214 0.886 0.0
C783 C 0.94398 0.79131 0.87507 0.0
C784 C 0.93838 0.80941 0.85963 0.0
C785 C 0.96711 0.78915 0.88347 0.0
C786 C 0.02199 0.82499 0.8906 0.0
H787 H 0.12503 0.76876 0.9328 0.0
H788 H 0.08989 0.76988 0.90853 0.0
H789 H 0.05316 0.84109 0.90431 0.0
H790 H 0.95236 0.83862 0.83978 0.0
H791 H 0.99298 0.83426 0.85349 0.0
H792 H 0.01043 0.76547 0.89004 0.0
C793 C 0.09249 0.78402 0.92076 0.0
C794 C 0.04396 0.82444 0.90151 0.0
C795 C 0.1127 0.78345 0.93457 0.0
C796 C 0.95633 0.82471 0.85194 0.0
C797 C 0.97952 0.82227 0.85994 0.0
C798 C 0.01946 0.78214 0.89323 0.0
C799 C 0.07589 0.80263 0.92277 0.0
C800 C 0.05367 0.80283 0.90909 0.0
C801 C 0.98514 0.80482 0.87622 0.0
C802 C 0.00929 0.80388 0.88651 0.0
H803 H 0.10307 0.83459 0.96438 0.0
H804 H 0.06768 0.83519 0.94103 0.0
H805 H 0.04813 0.76464 0.91022 0.0
H806 H 0.93029 0.77939 0.88125 0.0
H807 H 0.9706 0.77572 0.89622 0.0
C808 C 0.78952 0.12068 0.92104 0.0
C809 C 0.77454 0.1271 0.93911 0.0
C810 C 0.7819 0.10458 0.90463 0.0
C811 C 0.74491 0.05252 0.90206 0.0
H812 H 0.77038 0.05001 0.84084 0.0
C813 C 0.75932 0.96329 0.85655 0.0
C814 C 0.78322 0.96079 0.85001 0.0
C815 C 0.75011 0.98577 0.86171 0.0
C816 C 0.76285 0.05051 0.85779 0.0
H817 H 0.73918 0.12313 0.95329 0.0
H818 H 0.72587 0.09449 0.92461 0.0
H819 H 0.76778 0.08813 0.86055 0.0
H820 H 0.81574 0.97969 0.84218 0.0
H821 H 0.79982 0.0188 0.85121 0.0
H822 H 0.74148 0.01473 0.89991 0.0
C823 C 0.74354 0.10199 0.92322 0.0
C824 C 0.76135 0.07231 0.86905 0.0
C825 C 0.75112 0.11841 0.93957 0.0
C826 C 0.79734 0.98116 0.84746 0.0
C827 C 0.7881 0.00357 0.85234 0.0
C828 C 0.74636 0.03072 0.89077 0.0
C829 C 0.75915 0.09436 0.906 0.0
C830 C 0.75367 0.07331 0.89177 0.0
C831 C 0.76458 0.00608 0.86005 0.0
C832 C 0.75661 0.02937 0.86902 0.0
H833 H 0.80759 0.12732 0.92011 0.0
H834 H 0.79449 0.09891 0.8918 0.0
H835 H 0.73902 0.05264 0.91959 0.0
H836 H 0.7481 0.94779 0.85861 0.0
H837 H 0.73192 0.98722 0.8676 0.0
C838 C 0.38646 0.31275 0.4322 0.0
C839 C 0.37178 0.29374 0.43881 0.0
C840 C 0.40258 0.31016 0.41443 0.0
C841 C 0.43641 0.2652 0.38268 0.0
H842 H 0.45207 0.32054 0.3464 0.0
C843 C 0.51106 0.30418 0.3145 0.0
C844 C 0.53128 0.29436 0.32474 0.0
C845 C 0.4885 0.29956 0.32337 0.0
C846 C 0.44774 0.30462 0.35587 0.0
H847 H 0.3623 0.25713 0.43152 0.0
H848 H 0.39044 0.25272 0.40003 0.0
H849 H 0.41732 0.32132 0.37055 0.0
H850 H 0.54407 0.2714 0.35154 0.0
H851 H 0.50494 0.26422 0.36785 0.0
H852 H 0.46671 0.24838 0.36768 0.0
C853 C 0.38957 0.26954 0.40893 0.0
C854 C 0.42793 0.30525 0.37009 0.0
C855 C 0.37342 0.2721 0.42692 0.0
C856 C 0.52862 0.27901 0.34332 0.0
C857 C 0.50612 0.2748 0.35253 0.0
C858 C 0.45609 0.26442 0.36814 0.0
C859 C 0.40439 0.28857 0.40254 0.0
C860 C 0.42262 0.28597 0.38441 0.0
C861 C 0.48579 0.28556 0.34306 0.0
C862 C 0.46255 0.28448 0.35521 0.0
H863 H 0.38586 0.32964 0.441 0.0
H864 H 0.4141 0.32502 0.41043 0.0
H865 H 0.43281 0.24999 0.39343 0.0
H866 H 0.5128 0.31592 0.29999 0.0
H867 H 0.47327 0.30764 0.31521 0.0
C868 C 0.19324 0.88166 0.93749 0.0
C869 C 0.21201 0.86977 0.94835 0.0
C870 C 0.19758 0.90204 0.92467 0.0
C871 C 0.23703 0.95238 0.92418 0.0
H872 H 0.20312 0.96861 0.86896 0.0
C873 C 0.20632 0.04667 0.90161 0.0
C874 C 0.20704 0.05396 0.8788 0.0
C875 C 0.21316 0.02366 0.9076 0.0
C876 C 0.21308 0.96426 0.88415 0.0
H877 H 0.2502 0.86922 0.95342 0.0
H878 H 0.2577 0.90527 0.93124 0.0
H879 H 0.20334 0.9275 0.8823 0.0
H880 H 0.21621 0.04328 0.84448 0.0
H881 H 0.22804 0.00292 0.85499 0.0
H882 H 0.24579 0.98936 0.92662 0.0
C883 C 0.23968 0.89866 0.93264 0.0
C884 C 0.21306 0.94079 0.89184 0.0
C885 C 0.23538 0.87801 0.94522 0.0
C886 C 0.21564 0.03815 0.86222 0.0
C887 C 0.22225 0.01505 0.86818 0.0
C888 C 0.23685 0.97591 0.9166 0.0
C889 C 0.22074 0.91111 0.92265 0.0
C890 C 0.22445 0.93477 0.91226 0.0
C891 C 0.22062 0.00745 0.89087 0.0
C892 C 0.2243 0.98217 0.89687 0.0
H893 H 0.17506 0.87564 0.93948 0.0
H894 H 0.18261 0.91142 0.91733 0.0
H895 H 0.24581 0.94825 0.94007 0.0
H896 H 0.19992 0.05859 0.91472 0.0
H897 H 0.2115 0.01821 0.92519 0.0
C898 C 0.60603 0.68335 0.43976 0.0
C899 C 0.61584 0.70388 0.44959 0.0
C900 C 0.5868 0.68505 0.42495 0.0
C901 C 0.55129 0.69401 0.38739 0.0
H902 H 0.49771 0.72841 0.41276 0.0
C903 C 0.44382 0.7087 0.37136 0.0
C904 C 0.43767 0.68471 0.36818 0.0
C905 C 0.46715 0.71498 0.37695 0.0
C906 C 0.5126 0.71917 0.40511 0.0
H907 H 0.6138 0.74238 0.45088 0.0
H908 H 0.57979 0.74527 0.42512 0.0
H909 H 0.53693 0.73273 0.42986 0.0
H910 H 0.45125 0.64863 0.3674 0.0
H911 H 0.49164 0.65946 0.37757 0.0
H912 H 0.52682 0.67975 0.36317 0.0
C913 C 0.58711 0.72791 0.42893 0.0
C914 C 0.53507 0.72165 0.41491 0.0
C915 C 0.6066 0.72624 0.44358 0.0
C916 C 0.45537 0.66723 0.37012 0.0
C917 C 0.47861 0.67349 0.3756 0.0
C918 C 0.52887 0.6916 0.37755 0.0
C919 C 0.57681 0.70728 0.41978 0.0
C920 C 0.55442 0.7084 0.40665 0.0
C921 C 0.48476 0.69739 0.37924 0.0
C922 C 0.50912 0.70344 0.38686 0.0
H923 H 0.61287 0.66587 0.4439 0.0
H924 H 0.57907 0.66881 0.41838 0.0
H925 H 0.56601 0.6839 0.38047 0.0
H926 H 0.4305 0.72253 0.36998 0.0
H927 H 0.4714 0.73356 0.37958 0.0
C928 C 0.31173 0.38361 0.55756 0.0
C929 C 0.29204 0.3743 0.54593 0.0
C930 C 0.30925 0.40344 0.57154 0.0
C931 C 0.27362 0.45692 0.57504 0.0
H932 H 0.31282 0.46873 0.62803 0.0
C933 C 0.28596 0.55115 0.61256 0.0
C934 C 0.3098 0.55736 0.61659 0.0
C935 C 0.27972 0.52754 0.60817 0.0
C936 C 0.30173 0.46569 0.61328 0.0
H937 H 0.25399 0.3775 0.54094 0.0
H938 H 0.24967 0.4125 0.5654 0.0
H939 H 0.3082 0.42819 0.6139 0.0
H940 H 0.34564 0.54364 0.61987 0.0
H941 H 0.33486 0.50257 0.61184 0.0
H942 H 0.26799 0.49452 0.57381 0.0
C943 C 0.26704 0.40441 0.56355 0.0
C944 C 0.29903 0.44249 0.60524 0.0
C945 C 0.26949 0.38434 0.54967 0.0
C946 C 0.32718 0.53945 0.61652 0.0
C947 C 0.32094 0.51587 0.61226 0.0
C948 C 0.2763 0.48013 0.5831 0.0
C949 C 0.28704 0.41452 0.57413 0.0
C950 C 0.28567 0.43799 0.58554 0.0
C951 C 0.29717 0.50966 0.60791 0.0
C952 C 0.29109 0.48483 0.6018 0.0
H953 H 0.3293 0.37612 0.5552 0.0
H954 H 0.32506 0.4109 0.57924 0.0
H955 H 0.26341 0.45408 0.55969 0.0
H956 H 0.27219 0.56462 0.61243 0.0
H957 H 0.26126 0.52327 0.60495 0.0
C958 C 0.11514 0.76656 0.05277 0.0
C959 C 0.12796 0.78796 0.0512 0.0
C960 C 0.09579 0.76466 0.06758 0.0
C961 C 0.0454 0.77584 0.0826 0.0
H962 H 0.04054 0.80696 0.14123 0.0
C963 C 0.97065 0.82852 0.13725 0.0
C964 C 0.95108 0.81323 0.13477 0.0
C965 C 0.99338 0.82114 0.13087 0.0
C966 C 0.04163 0.79821 0.12486 0.0
H967 H 0.13186 0.82335 0.06543 0.0
H968 H 0.09816 0.82007 0.09105 0.0
H969 H 0.07961 0.80076 0.12406 0.0
H970 H 0.9401 0.77802 0.12402 0.0
H971 H 0.9799 0.76498 0.11319 0.0
H972 H 0.00747 0.77423 0.08283 0.0
C973 C 0.10298 0.80475 0.08088 0.0
C974 C 0.06398 0.79459 0.11509 0.0
C975 C 0.1222 0.8067 0.06602 0.0
C976 C 0.95484 0.79018 0.12625 0.0
C977 C 0.9776 0.78277 0.11989 0.0
C978 C 0.02307 0.7795 0.09234 0.0
C979 C 0.08903 0.78404 0.08122 0.0
C980 C 0.06604 0.78398 0.09355 0.0
C981 C 0.99708 0.79826 0.12191 0.0
C982 C 0.02089 0.79135 0.11327 0.0
H983 H 0.11919 0.75171 0.04169 0.0
H984 H 0.08554 0.74836 0.06771 0.0
H985 H 0.04635 0.76792 0.06584 0.0
H986 H 0.96841 0.84626 0.14409 0.0
H987 H 0.00793 0.83363 0.13237 0.0
C988 C 0.72132 0.6174 0.55748 0.0
C989 C 0.70195 0.63317 0.55776 0.0
C990 C 0.72306 0.59943 0.57383 0.0
C991 C 0.72476 0.56416 0.61345 0.0
H992 H 0.66312 0.53432 0.62074 0.0
C993 C 0.67435 0.47732 0.65624 0.0
C994 C 0.68951 0.45921 0.64867 0.0
C995 C 0.67908 0.50094 0.65079 0.0
C996 C 0.68044 0.54261 0.61942 0.0
H997 H 0.67079 0.64432 0.57666 0.0
H998 H 0.67425 0.61354 0.60555 0.0
H999 H 0.66595 0.57207 0.60146 0.0
H1000 H 0.72214 0.45127 0.63074 0.0
H1001 H 0.73013 0.49272 0.62037 0.0
H1002 H 0.7392 0.53387 0.63081 0.0
C1003 C 0.68759 0.61441 0.59229 0.0
C1004 C 0.68207 0.56437 0.60832 0.0
C1005 C 0.68564 0.63208 0.5758 0.0
C1006 C 0.71026 0.46509 0.63672 0.0
C1007 C 0.71485 0.48879 0.63093 0.0
C1008 C 0.72312 0.54223 0.62464 0.0
C1009 C 0.70562 0.59716 0.59084 0.0
C1010 C 0.70423 0.57532 0.60494 0.0
C1011 C 0.69882 0.50686 0.63724 0.0
C1012 C 0.70092 0.53111 0.6275 0.0
H1013 H 0.73416 0.61788 0.54376 0.0
H1014 H 0.73713 0.58639 0.57218 0.0
H1015 H 0.74208 0.57222 0.6112 0.0
H1016 H 0.6584 0.47308 0.66576 0.0
H1017 H 0.66671 0.5145 0.65639 0.0
C1018 C 0.8917 0.15306 0.04677 0.0
C1019 C 0.88368 0.17555 0.03971 0.0
C1020 C 0.91131 0.151 0.06111 0.0
C1021 C 0.95048 0.18448 0.10027 0.0
H1022 H 0.99652 0.13644 0.08296 0.0
C1023 C 0.04767 0.18276 0.13254 0.0
C1024 C 0.05782 0.16041 0.13699 0.0
C1025 C 0.0249 0.18441 0.1232 0.0
C1026 C 0.9837 0.1497 0.08826 0.0
H1027 H 0.88953 0.21356 0.04287 0.0
H1028 H 0.92406 0.20989 0.06759 0.0
H1029 H 0.95942 0.13965 0.06213 0.0
H1030 H 0.05162 0.12237 0.13644 0.0
H1031 H 0.0119 0.12524 0.12019 0.0
H1032 H 0.97517 0.19477 0.12619 0.0
C1033 C 0.91497 0.19388 0.06223 0.0
C1034 C 0.9624 0.15154 0.07632 0.0
C1035 C 0.89526 0.19596 0.04794 0.0
C1036 C 0.04443 0.13981 0.13274 0.0
C1037 C 0.02171 0.14146 0.12346 0.0
C1038 C 0.97187 0.18266 0.11223 0.0
C1039 C 0.92344 0.17135 0.06865 0.0
C1040 C 0.94558 0.16899 0.08212 0.0
C1041 C 0.01187 0.16375 0.11818 0.0
C1042 C 0.98872 0.16529 0.10628 0.0
H1043 H 0.88302 0.13696 0.04102 0.0
H1044 H 0.91713 0.1334 0.06612 0.0
H1045 H 0.93775 0.19795 0.10529 0.0
H1046 H 0.05765 0.19893 0.13551 0.0
H1047 H 0.01788 0.20183 0.11911 0.0
C1048 C 0.21638 0.7312 0.05476 0.0
C1049 C 0.23144 0.74491 0.04088 0.0
C1050 C 0.22399 0.72366 0.07613 0.0
C1051 C 0.27537 0.71591 0.11386 0.0
H1052 H 0.23209 0.73801 0.16072 0.0
C1053 C 0.30352 0.71964 0.20762 0.0
C1054 C 0.28674 0.71226 0.22387 0.0
C1055 C 0.29679 0.72333 0.18509 0.0
C1056 C 0.24424 0.73139 0.14791 0.0
H1057 H 0.26711 0.75925 0.03754 0.0
H1058 H 0.2804 0.74579 0.07479 0.0
H1059 H 0.22079 0.74125 0.12094 0.0
H1060 H 0.24946 0.70424 0.22943 0.0
H1061 H 0.23788 0.70984 0.19001 0.0
H1062 H 0.29876 0.70581 0.14079 0.0
C1063 C 0.26265 0.74116 0.0692 0.0
C1064 C 0.23773 0.73323 0.12513 0.0
C1065 C 0.25499 0.74892 0.0479 0.0
C1066 C 0.2629 0.70959 0.21726 0.0
C1067 C 0.25621 0.71304 0.19468 0.0
C1068 C 0.28178 0.7138 0.1367 0.0
C1069 C 0.24686 0.7294 0.08386 0.0
C1070 C 0.25328 0.72562 0.10791 0.0
C1071 C 0.27317 0.71953 0.17824 0.0
C1072 C 0.26635 0.72169 0.15398 0.0
H1073 H 0.19817 0.72766 0.04986 0.0
H1074 H 0.21162 0.71428 0.08704 0.0
H1075 H 0.28762 0.70987 0.10086 0.0
H1076 H 0.32209 0.72163 0.21206 0.0
H1077 H 0.3102 0.72882 0.17296 0.0
C1078 C 0.72154 0.75629 0.55785 0.0
C1079 C 0.73411 0.73886 0.54567 0.0
C1080 C 0.72955 0.76389 0.57902 0.0
C1081 C 0.76687 0.74249 0.62645 0.0
H1082 H 0.75103 0.80423 0.65161 0.0
C1083 C 0.79446 0.77981 0.71515 0.0
C1084 C 0.77529 0.78777 0.72859 0.0
C1085 C 0.79083 0.77267 0.69272 0.0
C1086 C 0.75546 0.78692 0.64473 0.0
H1087 H 0.76609 0.71731 0.54522 0.0
H1088 H 0.78069 0.73144 0.5818 0.0
H1089 H 0.74491 0.79682 0.61121 0.0
H1090 H 0.73701 0.79287 0.72921 0.0
H1091 H 0.73099 0.78141 0.6896 0.0
H1092 H 0.77809 0.73308 0.66012 0.0
C1093 C 0.7641 0.73851 0.57539 0.0
C1094 C 0.75193 0.7826 0.62164 0.0
C1095 C 0.75587 0.73058 0.55432 0.0
C1096 C 0.75227 0.7874 0.71927 0.0
C1097 C 0.74875 0.78074 0.69667 0.0
C1098 C 0.77087 0.74702 0.64946 0.0
C1099 C 0.75057 0.75459 0.58839 0.0
C1100 C 0.7571 0.76016 0.61228 0.0
C1101 C 0.76809 0.77377 0.68318 0.0
C1102 C 0.76473 0.76909 0.6588 0.0
H1103 H 0.70464 0.76297 0.55177 0.0
H1104 H 0.71843 0.77605 0.58855 0.0
H1105 H 0.77069 0.72487 0.62001 0.0
H1106 H 0.81251 0.78023 0.72148 0.0
H1107 H 0.80597 0.76741 0.68248 0.0
C1108 C 0.80107 0.23567 0.07326 0.0
C1109 C 0.7837 0.22356 0.06055 0.0
C1110 C 0.79677 0.24182 0.0959 0.0
C1111 C 0.75828 0.22556 0.14439 0.0
H1112 H 0.77594 0.28741 0.1681 0.0
C1113 C 0.71241 0.26993 0.2197 0.0
C1114 C 0.72592 0.28298 0.23549 0.0
C1115 C 0.72315 0.25962 0.20081 0.0
C1116 C 0.77136 0.26988 0.16185 0.0
H1117 H 0.74784 0.20933 0.06141 0.0
H1118 H 0.7402 0.22057 0.10061 0.0
H1119 H 0.78698 0.27664 0.1293 0.0
H1120 H 0.76168 0.29427 0.24421 0.0
H1121 H 0.78033 0.27678 0.21053 0.0
H1122 H 0.74178 0.21926 0.17662 0.0
C1123 C 0.75737 0.22472 0.09329 0.0
C1124 C 0.77761 0.26374 0.13963 0.0
C1125 C 0.76168 0.21849 0.07073 0.0
C1126 C 0.75067 0.28467 0.23225 0.0
C1127 C 0.76138 0.2746 0.21306 0.0
C1128 C 0.75194 0.23176 0.16652 0.0
C1129 C 0.77502 0.23606 0.10625 0.0
C1130 C 0.77056 0.24176 0.13048 0.0
C1131 C 0.7476 0.26233 0.197 0.0
C1132 C 0.75789 0.2542 0.17524 0.0
H1133 H 0.81828 0.23974 0.06599 0.0
H1134 H 0.81074 0.25048 0.10546 0.0
H1135 H 0.75314 0.20825 0.13802 0.0
H1136 H 0.69327 0.26868 0.22117 0.0
H1137 H 0.71203 0.25061 0.1885 0.0
C1138 C 0.25561 0.27585 0.56774 0.0
C1139 C 0.27157 0.26295 0.55405 0.0
C1140 C 0.25042 0.26824 0.58973 0.0
C1141 C 0.25065 0.21714 0.62788 0.0
H1142 H 0.2584 0.26435 0.67537 0.0
C1143 C 0.24439 0.1914 0.72204 0.0
C1144 C 0.2316 0.20686 0.73631 0.0
C1145 C 0.25086 0.19844 0.70017 0.0
C1146 C 0.25588 0.25102 0.66232 0.0
H1147 H 0.29354 0.23127 0.5523 0.0
H1148 H 0.28407 0.21781 0.59072 0.0
H1149 H 0.26463 0.27554 0.63578 0.0
H1150 H 0.21672 0.24232 0.73917 0.0
H1151 H 0.22714 0.25428 0.70072 0.0
H1152 H 0.24131 0.19272 0.65421 0.0
C1153 C 0.27581 0.2339 0.58438 0.0
C1154 C 0.25948 0.25744 0.63968 0.0
C1155 C 0.28125 0.24164 0.56244 0.0
C1156 C 0.22623 0.22985 0.7285 0.0
C1157 C 0.23248 0.2368 0.70652 0.0
C1158 C 0.24678 0.21077 0.6505 0.0
C1159 C 0.26082 0.24746 0.59838 0.0
C1160 C 0.25684 0.24056 0.62228 0.0
C1161 C 0.24447 0.22101 0.69195 0.0
C1162 C 0.24934 0.22765 0.66799 0.0
H1163 H 0.24784 0.29235 0.56184 0.0
H1164 H 0.23854 0.27882 0.60015 0.0
H1165 H 0.24836 0.20387 0.61471 0.0
H1166 H 0.24861 0.17346 0.72737 0.0
H1167 H 0.2605 0.18601 0.68955 0.0
C1168 C 0.7483 0.71583 0.42737 0.0
C1169 C 0.7263 0.72472 0.43491 0.0
C1170 C 0.75576 0.71963 0.40503 0.0
C1171 C 0.73233 0.73003 0.3482 0.0
H1172 H 0.79582 0.75237 0.33414 0.0
C1173 C 0.76028 0.763 0.2592 0.0
C1174 C 0.78412 0.76014 0.25252 0.0
C1175 C 0.75281 0.75584 0.28078 0.0
C1176 C 0.77817 0.74564 0.3377 0.0
H1177 H 0.69516 0.74507 0.42503 0.0
H1178 H 0.70824 0.75157 0.38601 0.0
H1179 H 0.78416 0.74669 0.37361 0.0
H1180 H 0.81838 0.74599 0.2629 0.0
H1181 H 0.80503 0.73239 0.29983 0.0
H1182 H 0.72634 0.72871 0.31232 0.0
C1183 C 0.71958 0.74159 0.39742 0.0
C1184 C 0.77149 0.74257 0.36034 0.0
C1185 C 0.71224 0.73805 0.41981 0.0
C1186 C 0.79984 0.74836 0.26729 0.0
C1187 C 0.79229 0.74092 0.28871 0.0
C1188 C 0.73909 0.73285 0.32552 0.0
C1189 C 0.74124 0.73214 0.38977 0.0
C1190 C 0.74846 0.73495 0.36578 0.0
C1191 C 0.76895 0.7454 0.29604 0.0
C1192 C 0.76205 0.74087 0.32001 0.0
H1193 H 0.75955 0.70551 0.43858 0.0
H1194 H 0.77253 0.71213 0.39949 0.0
H1195 H 0.71455 0.72379 0.352 0.0
H1196 H 0.74757 0.77158 0.24809 0.0
H1197 H 0.73469 0.75959 0.28586 0.0
C1198 C 0.7471 0.23416 0.94315 0.0
C1199 C 0.77077 0.23731 0.95012 0.0
C1200 C 0.7394 0.24318 0.92232 0.0
C1201 C 0.75686 0.28227 0.87386 0.0
H1202 H 0.71882 0.23768 0.83915 0.0
C1203 C 0.74474 0.28954 0.77682 0.0
C1204 C 0.72097 0.28925 0.76942 0.0
C1205 C 0.75042 0.2832 0.79912 0.0
C1206 C 0.72935 0.25032 0.84871 0.0
H1207 H 0.80443 0.25388 0.9414 0.0
H1208 H 0.79122 0.26903 0.90501 0.0
H1209 H 0.7282 0.22901 0.87869 0.0
H1210 H 0.68465 0.28147 0.77967 0.0
H1211 H 0.69479 0.26961 0.81816 0.0
H1212 H 0.75854 0.30316 0.84346 0.0
C1213 C 0.77844 0.2599 0.91567 0.0
C1214 C 0.73455 0.24551 0.87142 0.0
C1215 C 0.78606 0.25112 0.93659 0.0
C1216 C 0.7032 0.28145 0.78454 0.0
C1217 C 0.70894 0.27482 0.80669 0.0
C1218 C 0.75189 0.28692 0.85105 0.0
C1219 C 0.75526 0.25533 0.90793 0.0
C1220 C 0.74842 0.2614 0.88427 0.0
C1221 C 0.7325 0.27613 0.8143 0.0
C1222 C 0.73815 0.27095 0.83829 0.0
H1223 H 0.73478 0.22383 0.95331 0.0
H1224 H 0.72123 0.23992 0.91714 0.0
H1225 H 0.76731 0.29504 0.88332 0.0
H1226 H 0.7589 0.29508 0.76553 0.0
H1227 H 0.76879 0.28401 0.80455 0.0
C1228 C 0.27093 0.23607 0.43739 0.0
C1229 C 0.26365 0.25904 0.44368 0.0
C1230 C 0.26401 0.22646 0.41659 0.0
C1231 C 0.22326 0.23418 0.36765 0.0
H1232 H 0.27465 0.20353 0.33476 0.0
C1233 C 0.21809 0.21152 0.27196 0.0
C1234 C 0.22538 0.18843 0.26599 0.0
C1235 C 0.22226 0.22028 0.2938 0.0
C1236 C 0.26009 0.21188 0.34381 0.0
H1237 H 0.24226 0.2894 0.43368 0.0
H1238 H 0.23051 0.27277 0.39718 0.0
H1239 H 0.28129 0.2175 0.37337 0.0
H1240 H 0.24273 0.15645 0.27831 0.0
H1241 H 0.2504 0.17194 0.31619 0.0
H1242 H 0.20223 0.22881 0.33775 0.0
C1243 C 0.24136 0.26207 0.40843 0.0
C1244 C 0.26382 0.21977 0.36596 0.0
C1245 C 0.24812 0.27162 0.42935 0.0
C1246 C 0.23732 0.17448 0.28218 0.0
C1247 C 0.24162 0.18329 0.30392 0.0
C1248 C 0.21957 0.22638 0.34538 0.0
C1249 C 0.24984 0.23969 0.40154 0.0
C1250 C 0.24543 0.23089 0.37818 0.0
C1251 C 0.23394 0.20617 0.31 0.0
C1252 C 0.23794 0.21508 0.33332 0.0
H1253 H 0.28265 0.22579 0.44819 0.0
H1254 H 0.27032 0.2089 0.41202 0.0
H1255 H 0.2087 0.24252 0.37668 0.0
H1256 H 0.20912 0.22281 0.25977 0.0
H1257 H 0.21646 0.23811 0.29799 0.0
C1258 C 0.20366 0.74702 0.91661 0.0
C1259 C 0.2209 0.75827 0.93014 0.0
C1260 C 0.20833 0.742 0.8938 0.0
C1261 C 0.24735 0.76175 0.84704 0.0
H1262 H 0.22531 0.70446 0.81706 0.0
C1263 C 0.28291 0.72918 0.7611 0.0
C1264 C 0.26665 0.71993 0.74526 0.0
C1265 C 0.27543 0.73572 0.78278 0.0
C1266 C 0.23124 0.7207 0.82517 0.0
H1267 H 0.25705 0.77168 0.93077 0.0
H1268 H 0.26543 0.76226 0.89121 0.0
H1269 H 0.21694 0.71037 0.8574 0.0
H1270 H 0.22952 0.71133 0.73956 0.0
H1271 H 0.21658 0.72229 0.77784 0.0
H1272 H 0.26222 0.77172 0.81493 0.0
C1273 C 0.24804 0.75803 0.89801 0.0
C1274 C 0.22651 0.72407 0.84825 0.0
C1275 C 0.24331 0.76323 0.92073 0.0
C1276 C 0.24256 0.71806 0.75145 0.0
C1277 C 0.23513 0.72436 0.7733 0.0
C1278 C 0.25223 0.75829 0.82405 0.0
C1279 C 0.23039 0.74795 0.88413 0.0
C1280 C 0.23478 0.7445 0.8595 0.0
C1281 C 0.25159 0.73292 0.78923 0.0
C1282 C 0.24445 0.73763 0.81297 0.0
H1283 H 0.18616 0.74309 0.9233 0.0
H1284 H 0.19432 0.73434 0.88354 0.0
H1285 H 0.25345 0.77797 0.85506 0.0
H1286 H 0.30168 0.73039 0.75718 0.0
H1287 H 0.28855 0.74197 0.79485 0.0
loop_
_geom_bond_atom_site_label_1
_geom_bond_atom_site_label_2
_geom_bond_distance
_geom_bond_site_symmetry_2
_ccdc_geom_bond_type
Sc0 O3 2.025 . S
Sc0 O10 2.105 1_554 S
Sc0 O13 2.105 . S
Sc0 O16 2.105 . S
Sc0 O19 2.105 1_554 S
Sc1 O3 2.025 . S
Sc1 O11 2.105 1_554 S
Sc1 O15 2.105 . S
Sc1 O17 2.105 . S
Sc1 O21 2.105 1_554 S
Sc2 O3 2.025 . S
Sc2 O12 2.105 1_554 S
Sc2 O14 2.105 . S
Sc2 O18 2.105 . S
Sc2 O20 2.105 1_554 S
O3 Sc0 2.025 . S
O3 Sc1 2.025 . S
O3 Sc2 2.025 . S
C4 O10 1.268 . S
C4 O20 1.268 . S
C5 O11 1.268 . S
C5 O19 1.268 . S
C6 O12 1.268 . S
C6 O21 1.268 . S
C7 O13 1.268 . S
C7 O17 1.268 . S
C8 O14 1.268 . S
C8 O16 1.268 . S
C9 O15 1.268 . S
C9 O18 1.268 . S
O10 Sc0 2.105 1_556 S
O10 C4 1.268 . S
O11 Sc1 2.105 1_556 S
O11 C5 1.268 . S
O12 Sc2 2.105 1_556 S
O12 C6 1.268 . S
O13 Sc0 2.105 . S
O13 C7 1.268 . S
O14 Sc2 2.105 . S
O14 C8 1.268 . S
O15 Sc1 2.105 . S
O15 C9 1.268 . S
O16 Sc0 2.105 . S
O16 C8 1.268 . S
O17 Sc1 2.105 . S
O17 C7 1.268 . S
O18 Sc2 2.105 . S
O18 C9 1.268 . S
O19 Sc0 2.105 1_556 S
O19 C5 1.268 . S
O20 Sc2 2.105 1_556 S
O20 C4 1.268 . S
O21 Sc1 2.105 1_556 S
O21 C6 1.268 . S
Sc22 O25 2.025 . S
Sc22 O32 2.105 . S
Sc22 O35 2.105 . S
Sc22 O38 2.105 . S
Sc22 O41 2.105 . S
Sc23 O25 2.025 . S
Sc23 O33 2.105 . S
Sc23 O37 2.105 . S
Sc23 O39 2.105 . S
Sc23 O43 2.105 . S
Sc24 O25 2.025 . S
Sc24 O34 2.105 . S
Sc24 O36 2.105 . S
Sc24 O40 2.105 . S
Sc24 O42 2.105 . S
O25 Sc22 2.025 . S
O25 Sc23 2.025 . S
O25 Sc24 2.025 . S
C26 O32 1.268 . S
C26 O42 1.268 . S
C27 O33 1.268 . S
C27 O41 1.268 . S
C28 O34 1.268 . S
C28 O43 1.268 . S
C29 O35 1.268 . S
C29 O39 1.268 . S
C30 O36 1.268 . S
C30 O38 1.268 . S
C31 O37 1.268 . S
C31 O40 1.268 . S
O32 Sc22 2.105 . S
O32 C26 1.268 . S
O33 Sc23 2.105 . S
O33 C27 1.268 . S
O34 Sc24 2.105 . S
O34 C28 1.268 . S
O35 Sc22 2.105 . S
O35 C29 1.268 . S
O36 Sc24 2.105 . S
O36 C30 1.268 . S
O37 Sc23 2.105 . S
O37 C31 1.268 . S
O38 Sc22 2.105 . S
O38 C30 1.268 . S
O39 Sc23 2.105 . S
O39 C29 1.268 . S
O40 Sc24 2.105 . S
O40 C31 1.268 . S
O41 Sc22 2.105 . S
O41 C27 1.268 . S
O42 Sc24 2.105 . S
O42 C26 1.268 . S
O43 Sc23 2.105 . S
O43 C28 1.268 . S
Sc44 O47 2.025 . S
Sc44 O54 2.105 1_554 S
Sc44 O57 2.105 . S
Sc44 O60 2.105 . S
Sc44 O63 2.105 1_554 S
Sc45 O47 2.025 . S
Sc45 O55 2.105 1_554 S
Sc45 O59 2.105 . S
Sc45 O61 2.105 . S
Sc45 O65 2.105 1_554 S
Sc46 O47 2.025 . S
Sc46 O56 2.105 1_554 S
Sc46 O58 2.105 . S
Sc46 O62 2.105 . S
Sc46 O64 2.105 1_554 S
O47 Sc44 2.025 . S
O47 Sc45 2.025 . S
O47 Sc46 2.025 . S
C48 O54 1.268 . S
C48 O64 1.268 . S
C49 O55 1.268 . S
C49 O63 1.268 . S
C50 O56 1.268 . S
C50 O65 1.268 . S
C51 O57 1.268 . S
C51 O61 1.268 . S
C52 O58 1.268 . S
C52 O60 1.268 . S
C53 O59 1.268 . S
C53 O62 1.268 . S
O54 Sc44 2.105 1_556 S
O54 C48 1.268 . S
O55 Sc45 2.105 1_556 S
O55 C49 1.268 . S
O56 Sc46 2.105 1_556 S
O56 C50 1.268 . S
O57 Sc44 2.105 . S
O57 C51 1.268 . S
O58 Sc46 2.105 . S
O58 C52 1.268 . S
O59 Sc45 2.105 . S
O59 C53 1.268 . S
O60 Sc44 2.105 . S
O60 C52 1.268 . S
O61 Sc45 2.105 . S
O61 C51 1.268 . S
O62 Sc46 2.105 . S
O62 C53 1.268 . S
O63 Sc44 2.105 1_556 S
O63 C49 1.268 . S
O64 Sc46 2.105 1_556 S
O64 C48 1.268 . S
O65 Sc45 2.105 1_556 S
O65 C50 1.268 . S
Sc66 O69 2.025 . S
Sc66 O76 2.105 . S
Sc66 O79 2.105 . S
Sc66 O82 2.105 . S
Sc66 O85 2.105 . S
Sc67 O69 2.025 . S
Sc67 O77 2.105 . S
Sc67 O81 2.105 . S
Sc67 O83 2.105 . S
Sc67 O87 2.105 . S
Sc68 O69 2.025 . S
Sc68 O78 2.105 . S
Sc68 O80 2.105 . S
Sc68 O84 2.105 . S
Sc68 O86 2.105 . S
O69 Sc66 2.025 . S
O69 Sc67 2.025 . S
O69 Sc68 2.025 . S
C70 O76 1.268 . S
C70 O86 1.268 . S
C71 O77 1.268 . S
C71 O85 1.268 . S
C72 O78 1.268 . S
C72 O87 1.268 . S
C73 O79 1.268 . S
C73 O83 1.268 . S
C74 O80 1.268 . S
C74 O82 1.268 . S
C75 O81 1.268 . S
C75 O84 1.268 . S
O76 Sc66 2.105 . S
O76 C70 1.268 . S
O77 Sc67 2.105 . S
O77 C71 1.268 . S
O78 Sc68 2.105 . S
O78 C72 1.268 . S
O79 Sc66 2.105 . S
O79 C73 1.268 . S
O80 Sc68 2.105 . S
O80 C74 1.268 . S
O81 Sc67 2.105 . S
O81 C75 1.268 . S
O82 Sc66 2.105 . S
O82 C74 1.268 . S
O83 Sc67 2.105 . S
O83 C73 1.268 . S
O84 Sc68 2.105 . S
O84 C75 1.268 . S
O85 Sc66 2.105 . S
O85 C71 1.268 . S
O86 Sc68 2.105 . S
O86 C70 1.268 . S
O87 Sc67 2.105 . S
O87 C72 1.268 . S
C88 C89 1.391 . S
C88 C92 1.391 . S
C88 H130 0.948 . S
C89 C88 1.391 . S
C89 C90 1.391 . S
C90 C89 1.391 . S
C90 H146 0.947 . S
C90 C147 1.392 . S
C91 C92 1.391 . S
C91 C95 1.397 . S
C91 C147 1.419 . S
C92 C88 1.391 . S
C92 C91 1.391 . S
C92 C93 1.399 . S
C93 C92 1.399 . S
C93 C96 1.396 . S
C93 C105 1.453 . S
C93 C106 1.684 . S
H94 C118 0.948 . S
C95 C91 1.397 . S
C95 C96 1.394 . S
C95 C114 1.723 . S
C96 C93 1.396 . S
C96 C95 1.394 . S
C96 C126 1.723 . S
H97 C120 0.947 . S
H98 C121 0.948 . S
H99 C127 0.982 . S
H100 C128 0.979 . S
H101 C128 0.980 . S
H102 C128 0.983 . S
H103 C127 0.979 . S
H104 C127 0.977 . S
C105 C93 1.453 . S
C105 H134 0.982 . S
C105 H135 0.979 . S
C105 H136 0.977 . S
C106 C93 1.684 . S
C106 H131 0.979 . S
C106 H132 0.980 . S
C106 H133 0.983 . S
C107 C108 1.391 . S
C107 C112 1.391 . S
C107 H137 0.948 . S
C108 C107 1.391 . S
C108 C109 1.391 . S
C109 C108 1.391 . S
C109 C110 1.392 . S
C109 H138 0.947 . S
C110 C109 1.392 . S
C110 C111 1.419 . S
C110 H139 0.948 . S
C111 C110 1.419 . S
C111 C112 1.391 . S
C111 C115 1.397 . S
C112 C107 1.391 . S
C112 C111 1.391 . S
C112 C113 1.399 . S
C113 C112 1.399 . S
C113 C114 1.396 . S
C113 C116 1.453 . S
C113 C117 1.684 . S
C114 C95 1.723 . S
C114 C113 1.396 . S
C114 C115 1.394 . S
C115 C111 1.397 . S
C115 C114 1.394 . S
C115 C125 1.723 . S
C116 C113 1.453 . S
C116 H140 0.982 . S
C116 H141 0.979 . S
C116 H142 0.977 . S
C117 C113 1.684 . S
C117 H143 0.979 . S
C117 H144 0.980 . S
C117 H145 0.983 . S
C118 H94 0.948 . S
C118 C119 1.391 . S
C118 C123 1.391 . S
C119 C118 1.391 . S
C119 C120 1.391 . S
C120 H97 0.947 . S
C120 C119 1.391 . S
C120 C121 1.392 . S
C121 H98 0.948 . S
C121 C120 1.392 . S
C121 C122 1.419 . S
C122 C121 1.419 . S
C122 C123 1.391 . S
C122 C126 1.397 . S
C123 C118 1.391 . S
C123 C122 1.391 . S
C123 C124 1.399 . S
C124 C123 1.399 . S
C124 C125 1.396 . S
C124 C127 1.453 . S
C124 C128 1.684 . S
C125 C115 1.723 . S
C125 C124 1.396 . S
C125 C126 1.394 . S
C126 C96 1.723 . S
C126 C122 1.397 . S
C126 C125 1.394 . S
C127 H99 0.982 . S
C127 H103 0.979 . S
C127 H104 0.977 . S
C127 C124 1.453 . S
C128 H100 0.979 . S
C128 H101 0.980 . S
C128 H102 0.983 . S
C128 C124 1.684 . S
H129 C147 0.948 . S
H130 C88 0.948 . S
H131 C106 0.979 . S
H132 C106 0.980 . S
H133 C106 0.983 . S
H134 C105 0.982 . S
H135 C105 0.979 . S
H136 C105 0.977 . S
H137 C107 0.948 . S
H138 C109 0.947 . S
H139 C110 0.948 . S
H140 C116 0.982 . S
H141 C116 0.979 . S
H142 C116 0.977 . S
H143 C117 0.979 . S
H144 C117 0.980 . S
H145 C117 0.983 . S
H146 C90 0.947 . S
C147 C90 1.392 . S
C147 C91 1.419 . S
C147 H129 0.948 . S
C148 C149 1.391 . S
C148 C152 1.391 . S
C148 H190 0.948 . S
C149 C148 1.391 . S
C149 C150 1.391 . S
C150 C149 1.391 . S
C150 H206 0.947 . S
C150 C207 1.392 . S
C151 C152 1.391 . S
C151 C155 1.397 . S
C151 C207 1.419 . S
C152 C148 1.391 . S
C152 C151 1.391 . S
C152 C153 1.399 . S
C153 C152 1.399 . S
C153 C156 1.396 . S
C153 C165 1.453 . S
C153 C166 1.684 . S
H154 C178 0.948 . S
C155 C151 1.397 . S
C155 C156 1.394 . S
C155 C174 1.723 . S
C156 C153 1.396 . S
C156 C155 1.394 . S
C156 C186 1.723 . S
H157 C180 0.947 . S
H158 C181 0.948 . S
H159 C187 0.982 . S
H160 C188 0.979 . S
H161 C188 0.980 . S
H162 C188 0.983 . S
H163 C187 0.979 . S
H164 C187 0.977 . S
C165 C153 1.453 . S
C165 H194 0.982 . S
C165 H195 0.979 . S
C165 H196 0.977 . S
C166 C153 1.684 . S
C166 H191 0.979 . S
C166 H192 0.980 . S
C166 H193 0.983 . S
C167 C168 1.391 . S
C167 C172 1.391 . S
C167 H197 0.948 . S
C168 C167 1.391 . S
C168 C169 1.391 . S
C169 C168 1.391 . S
C169 C170 1.392 . S
C169 H198 0.947 . S
C170 C169 1.392 . S
C170 C171 1.419 . S
C170 H199 0.948 . S
C171 C170 1.419 . S
C171 C172 1.391 . S
C171 C175 1.397 . S
C172 C167 1.391 . S
C172 C171 1.391 . S
C172 C173 1.399 . S
C173 C172 1.399 . S
C173 C174 1.396 . S
C173 C176 1.453 . S
C173 C177 1.684 . S
C174 C155 1.723 . S
C174 C173 1.396 . S
C174 C175 1.394 . S
C175 C171 1.397 . S
C175 C174 1.394 . S
C175 C185 1.723 . S
C176 C173 1.453 . S
C176 H200 0.982 . S
C176 H201 0.979 . S
C176 H202 0.977 . S
C177 C173 1.684 . S
C177 H203 0.979 . S
C177 H204 0.980 . S
C177 H205 0.983 . S
C178 H154 0.948 . S
C178 C179 1.391 . S
C178 C183 1.391 . S
C179 C178 1.391 . S
C179 C180 1.391 . S
C180 H157 0.947 . S
C180 C179 1.391 . S
C180 C181 1.392 . S
C181 H158 0.948 . S
C181 C180 1.392 . S
C181 C182 1.419 . S
C182 C181 1.419 . S
C182 C183 1.391 . S
C182 C186 1.397 . S
C183 C178 1.391 . S
C183 C182 1.391 . S
C183 C184 1.399 . S
C184 C183 1.399 . S
C184 C185 1.396 . S
C184 C187 1.453 . S
C184 C188 1.684 . S
C185 C175 1.723 . S
C185 C184 1.396 . S
C185 C186 1.394 . S
C186 C156 1.723 . S
C186 C182 1.397 . S
C186 C185 1.394 . S
C187 H159 0.982 . S
C187 H163 0.979 . S
C187 H164 0.977 . S
C187 C184 1.453 . S
C188 H160 0.979 . S
C188 H161 0.980 . S
C188 H162 0.983 . S
C188 C184 1.684 . S
H189 C207 0.948 . S
H190 C148 0.948 . S
H191 C166 0.979 . S
H192 C166 0.980 . S
H193 C166 0.983 . S
H194 C165 0.982 . S
H195 C165 0.979 . S
H196 C165 0.977 . S
H197 C167 0.948 . S
H198 C169 0.947 . S
H199 C170 0.948 . S
H200 C176 0.982 . S
H201 C176 0.979 . S
H202 C176 0.977 . S
H203 C177 0.979 . S
H204 C177 0.980 . S
H205 C177 0.983 . S
H206 C150 0.947 . S
C207 C150 1.392 . S
C207 C151 1.419 . S
C207 H189 0.948 . S
C208 C209 1.391 . S
C208 C212 1.391 . S
C208 H250 0.948 . S
C209 C208 1.391 . S
C209 C210 1.391 . S
C210 C209 1.391 . S
C210 H266 0.947 . S
C210 C267 1.392 . S
C211 C212 1.391 . S
C211 C215 1.397 . S
C211 C267 1.419 . S
C212 C208 1.391 . S
C212 C211 1.391 . S
C212 C213 1.399 . S
C213 C212 1.399 . S
C213 C216 1.396 . S
C213 C225 1.453 . S
C213 C226 1.684 . S
H214 C238 0.948 . S
C215 C211 1.397 . S
C215 C216 1.394 . S
C215 C234 1.723 . S
C216 C213 1.396 . S
C216 C215 1.394 . S
C216 C246 1.723 . S
H217 C240 0.947 . S
H218 C241 0.948 . S
H219 C247 0.982 . S
H220 C248 0.979 . S
H221 C248 0.980 . S
H222 C248 0.983 . S
H223 C247 0.979 . S
H224 C247 0.977 . S
C225 C213 1.453 . S
C225 H254 0.982 . S
C225 H255 0.979 . S
C225 H256 0.977 . S
C226 C213 1.684 . S
C226 H251 0.979 . S
C226 H252 0.980 . S
C226 H253 0.983 . S
C227 C228 1.391 . S
C227 C232 1.391 . S
C227 H257 0.948 . S
C228 C227 1.391 . S
C228 C229 1.391 . S
C229 C228 1.391 . S
C229 C230 1.392 . S
C229 H258 0.947 . S
C230 C229 1.392 . S
C230 C231 1.419 . S
C230 H259 0.948 . S
C231 C230 1.419 . S
C231 C232 1.391 . S
C231 C235 1.397 . S
C232 C227 1.391 . S
C232 C231 1.391 . S
C232 C233 1.399 . S
C233 C232 1.399 . S
C233 C234 1.396 . S
C233 C236 1.453 . S
C233 C237 1.684 . S
C234 C215 1.723 . S
C234 C233 1.396 . S
C234 C235 1.394 . S
C235 C231 1.397 . S
C235 C234 1.394 . S
C235 C245 1.723 . S
C236 C233 1.453 . S
C236 H260 0.982 . S
C236 H261 0.979 . S
C236 H262 0.977 . S
C237 C233 1.684 . S
C237 H263 0.979 . S
C237 H264 0.980 . S
C237 H265 0.983 . S
C238 H214 0.948 . S
C238 C239 1.391 . S
C238 C243 1.391 . S
C239 C238 1.391 . S
C239 C240 1.391 . S
C240 H217 0.947 . S
C240 C239 1.391 . S
C240 C241 1.392 . S
C241 H218 0.948 . S
C241 C240 1.392 . S
C241 C242 1.419 . S
C242 C241 1.419 . S
C242 C243 1.391 . S
C242 C246 1.397 . S
C243 C238 1.391 . S
C243 C242 1.391 . S
C243 C244 1.399 . S
C244 C243 1.399 . S
C244 C245 1.396 . S
C244 C247 1.453 . S
C244 C248 1.684 . S
C245 C235 1.723 . S
C245 C244 1.396 . S
C245 C246 1.394 . S
C246 C216 1.723 . S
C246 C242 1.397 . S
C246 C245 1.394 . S
C247 H219 0.982 . S
C247 H223 0.979 . S
C247 H224 0.977 . S
C247 C244 1.453 . S
C248 H220 0.979 . S
C248 H221 0.980 . S
C248 H222 0.983 . S
C248 C244 1.684 . S
H249 C267 0.948 . S
H250 C208 0.948 . S
H251 C226 0.979 . S
H252 C226 0.980 . S
H253 C226 0.983 . S
H254 C225 0.982 . S
H255 C225 0.979 . S
H256 C225 0.977 . S
H257 C227 0.948 . S
H258 C229 0.947 . S
H259 C230 0.948 . S
H260 C236 0.982 . S
H261 C236 0.979 . S
H262 C236 0.977 . S
H263 C237 0.979 . S
H264 C237 0.980 . S
H265 C237 0.983 . S
H266 C210 0.947 . S
C267 C210 1.392 . S
C267 C211 1.419 . S
C267 H249 0.948 . S
C268 C269 1.391 . S
C268 C272 1.391 . S
C268 H310 0.948 . S
C269 C268 1.391 . S
C269 C270 1.391 . S
C270 C269 1.391 . S
C270 H326 0.947 . S
C270 C327 1.392 . S
C271 C272 1.391 . S
C271 C275 1.397 . S
C271 C327 1.419 . S
C272 C268 1.391 . S
C272 C271 1.391 . S
C272 C273 1.399 . S
C273 C272 1.399 . S
C273 C276 1.396 . S
C273 C285 1.453 . S
C273 C286 1.684 . S
H274 C298 0.948 . S
C275 C271 1.397 . S
C275 C276 1.394 . S
C275 C294 1.723 . S
C276 C273 1.396 . S
C276 C275 1.394 . S
C276 C306 1.723 . S
H277 C300 0.947 . S
H278 C301 0.948 . S
H279 C307 0.982 . S
H280 C308 0.979 . S
H281 C308 0.980 . S
H282 C308 0.983 . S
H283 C307 0.979 . S
H284 C307 0.977 . S
C285 C273 1.453 . S
C285 H314 0.982 . S
C285 H315 0.979 . S
C285 H316 0.977 . S
C286 C273 1.684 . S
C286 H311 0.979 . S
C286 H312 0.980 . S
C286 H313 0.983 . S
C287 C288 1.391 . S
C287 C292 1.391 . S
C287 H317 0.948 . S
C288 C287 1.391 . S
C288 C289 1.391 . S
C289 C288 1.391 . S
C289 C290 1.392 . S
C289 H318 0.947 . S
C290 C289 1.392 . S
C290 C291 1.419 . S
C290 H319 0.948 . S
C291 C290 1.419 . S
C291 C292 1.391 . S
C291 C295 1.397 . S
C292 C287 1.391 . S
C292 C291 1.391 . S
C292 C293 1.399 . S
C293 C292 1.399 . S
C293 C294 1.396 . S
C293 C296 1.453 . S
C293 C297 1.684 . S
C294 C275 1.723 . S
C294 C293 1.396 . S
C294 C295 1.394 . S
C295 C291 1.397 . S
C295 C294 1.394 . S
C295 C305 1.723 . S
C296 C293 1.453 . S
C296 H320 0.982 . S
C296 H321 0.979 . S
C296 H322 0.977 . S
C297 C293 1.684 . S
C297 H323 0.979 . S
C297 H324 0.980 . S
C297 H325 0.983 . S
C298 H274 0.948 . S
C298 C299 1.391 . S
C298 C303 1.391 . S
C299 C298 1.391 . S
C299 C300 1.391 . S
C300 H277 0.947 . S
C300 C299 1.391 . S
C300 C301 1.392 . S
C301 H278 0.948 . S
C301 C300 1.392 . S
C301 C302 1.419 . S
C302 C301 1.419 . S
C302 C303 1.391 . S
C302 C306 1.397 . S
C303 C298 1.391 . S
C303 C302 1.391 . S
C303 C304 1.399 . S
C304 C303 1.399 . S
C304 C305 1.396 . S
C304 C307 1.453 . S
C304 C308 1.684 . S
C305 C295 1.723 . S
C305 C304 1.396 . S
C305 C306 1.394 . S
C306 C276 1.723 . S
C306 C302 1.397 . S
C306 C305 1.394 . S
C307 H279 0.982 . S
C307 H283 0.979 . S
C307 H284 0.977 . S
C307 C304 1.453 . S
C308 H280 0.979 . S
C308 H281 0.980 . S
C308 H282 0.983 . S
C308 C304 1.684 . S
H309 C327 0.948 . S
H310 C268 0.948 . S
H311 C286 0.979 . S
H312 C286 0.980 . S
H313 C286 0.983 . S
H314 C285 0.982 . S
H315 C285 0.979 . S
H316 C285 0.977 . S
H317 C287 0.948 . S
H318 C289 0.947 . S
H319 C290 0.948 . S
H320 C296 0.982 . S
H321 C296 0.979 . S
H322 C296 0.977 . S
H323 C297 0.979 . S
H324 C297 0.980 . S
H325 C297 0.983 . S
H326 C270 0.947 . S
C327 C270 1.392 . S
C327 C271 1.419 . S
C327 H309 0.948 . S
C328 C329 1.391 . S
C328 C332 1.391 . S
C328 H370 0.948 . S
C329 C328 1.391 . S
C329 C330 1.391 . S
C330 C329 1.391 . S
C330 H386 0.947 . S
C330 C387 1.392 . S
C331 C332 1.391 . S
C331 C335 1.397 . S
C331 C387 1.419 . S
C332 C328 1.391 . S
C332 C331 1.391 . S
C332 C333 1.399 . S
C333 C332 1.399 . S
C333 C336 1.396 . S
C333 C345 1.453 . S
C333 C346 1.684 . S
H334 C358 0.948 . S
C335 C331 1.397 . S
C335 C336 1.394 . S
C335 C354 1.723 . S
C336 C333 1.396 . S
C336 C335 1.394 . S
C336 C366 1.723 . S
H337 C360 0.947 . S
H338 C361 0.948 . S
H339 C367 0.982 . S
H340 C368 0.979 . S
H341 C368 0.980 . S
H342 C368 0.983 . S
H343 C367 0.979 . S
H344 C367 0.977 . S
C345 C333 1.453 . S
C345 H374 0.982 . S
C345 H375 0.979 . S
C345 H376 0.977 . S
C346 C333 1.684 . S
C346 H371 0.979 . S
C346 H372 0.980 . S
C346 H373 0.983 . S
C347 C348 1.391 . S
C347 C352 1.391 . S
C347 H377 0.948 . S
C348 C347 1.391 . S
C348 C349 1.391 . S
C349 C348 1.391 . S
C349 C350 1.392 . S
C349 H378 0.947 . S
C350 C349 1.392 . S
C350 C351 1.419 . S
C350 H379 0.948 . S
C351 C350 1.419 . S
C351 C352 1.391 . S
C351 C355 1.397 . S
C352 C347 1.391 . S
C352 C351 1.391 . S
C352 C353 1.399 . S
C353 C352 1.399 . S
C353 C354 1.396 . S
C353 C356 1.453 . S
C353 C357 1.684 . S
C354 C335 1.723 . S
C354 C353 1.396 . S
C354 C355 1.394 . S
C355 C351 1.397 . S
C355 C354 1.394 . S
C355 C365 1.723 . S
C356 C353 1.453 . S
C356 H380 0.982 . S
C356 H381 0.979 . S
C356 H382 0.977 . S
C357 C353 1.684 . S
C357 H383 0.979 . S
C357 H384 0.980 . S
C357 H385 0.983 . S
C358 H334 0.948 . S
C358 C359 1.391 . S
C358 C363 1.391 . S
C359 C358 1.391 . S
C359 C360 1.391 . S
C360 H337 0.947 . S
C360 C359 1.391 . S
C360 C361 1.392 . S
C361 H338 0.948 . S
C361 C360 1.392 . S
C361 C362 1.419 . S
C362 C361 1.419 . S
C362 C363 1.391 . S
C362 C366 1.397 . S
C363 C358 1.391 . S
C363 C362 1.391 . S
C363 C364 1.399 . S
C364 C363 1.399 . S
C364 C365 1.396 . S
C364 C367 1.453 . S
C364 C368 1.684 . S
C365 C355 1.723 . S
C365 C364 1.396 . S
C365 C366 1.394 . S
C366 C336 1.723 . S
C366 C362 1.397 . S
C366 C365 1.394 . S
C367 H339 0.982 . S
C367 H343 0.979 . S
C367 H344 0.977 . S
C367 C364 1.453 . S
C368 H340 0.979 . S
C368 H341 0.980 . S
C368 H342 0.983 . S
C368 C364 1.684 . S
H369 C387 0.948 . S
H370 C328 0.948 . S
H371 C346 0.979 . S
H372 C346 0.980 . S
H373 C346 0.983 . S
H374 C345 0.982 . S
H375 C345 0.979 . S
H376 C345 0.977 . S
H377 C347 0.948 . S
H378 C349 0.947 . S
H379 C350 0.948 . S
H380 C356 0.982 . S
H381 C356 0.979 . S
H382 C356 0.977 . S
H383 C357 0.979 . S
H384 C357 0.980 . S
H385 C357 0.983 . S
H386 C330 0.947 . S
C387 C330 1.392 . S
C387 C331 1.419 . S
C387 H369 0.948 . S
C388 C389 1.391 . S
C388 C392 1.391 . S
C388 H430 0.948 . S
C389 C388 1.391 . S
C389 C390 1.391 . S
C390 C389 1.391 . S
C390 H446 0.947 . S
C390 C447 1.392 . S
C391 C392 1.391 . S
C391 C395 1.397 . S
C391 C447 1.419 . S
C392 C388 1.391 . S
C392 C391 1.391 . S
C392 C393 1.399 . S
C393 C392 1.399 . S
C393 C396 1.396 . S
C393 C405 1.453 . S
C393 C406 1.684 . S
H394 C418 0.948 . S
C395 C391 1.397 . S
C395 C396 1.394 . S
C395 C414 1.723 . S
C396 C393 1.396 . S
C396 C395 1.394 . S
C396 C426 1.723 . S
H397 C420 0.947 . S
H398 C421 0.948 . S
H399 C427 0.982 . S
H400 C428 0.979 . S
H401 C428 0.980 . S
H402 C428 0.983 . S
H403 C427 0.979 . S
H404 C427 0.977 . S
C405 C393 1.453 . S
C405 H434 0.982 . S
C405 H435 0.979 . S
C405 H436 0.977 . S
C406 C393 1.684 . S
C406 H431 0.979 . S
C406 H432 0.980 . S
C406 H433 0.983 . S
C407 C408 1.391 . S
C407 C412 1.391 . S
C407 H437 0.948 . S
C408 C407 1.391 . S
C408 C409 1.391 . S
C409 C408 1.391 . S
C409 C410 1.392 . S
C409 H438 0.947 . S
C410 C409 1.392 . S
C410 C411 1.419 . S
C410 H439 0.948 . S
C411 C410 1.419 . S
C411 C412 1.391 . S
C411 C415 1.397 . S
C412 C407 1.391 . S
C412 C411 1.391 . S
C412 C413 1.399 . S
C413 C412 1.399 . S
C413 C414 1.396 . S
C413 C416 1.453 . S
C413 C417 1.684 . S
C414 C395 1.723 . S
C414 C413 1.396 . S
C414 C415 1.394 . S
C415 C411 1.397 . S
C415 C414 1.394 . S
C415 C425 1.723 . S
C416 C413 1.453 . S
C416 H440 0.982 . S
C416 H441 0.979 . S
C416 H442 0.977 . S
C417 C413 1.684 . S
C417 H443 0.979 . S
C417 H444 0.980 . S
C417 H445 0.983 . S
C418 H394 0.948 . S
C418 C419 1.391 . S
C418 C423 1.391 . S
C419 C418 1.391 . S
C419 C420 1.391 . S
C420 H397 0.947 . S
C420 C419 1.391 . S
C420 C421 1.392 . S
C421 H398 0.948 . S
C421 C420 1.392 . S
C421 C422 1.419 . S
C422 C421 1.419 . S
C422 C423 1.391 . S
C422 C426 1.397 . S
C423 C418 1.391 . S
C423 C422 1.391 . S
C423 C424 1.399 . S
C424 C423 1.399 . S
C424 C425 1.396 . S
C424 C427 1.453 . S
C424 C428 1.684 . S
C425 C415 1.723 . S
C425 C424 1.396 . S
C425 C426 1.394 . S
C426 C396 1.723 . S
C426 C422 1.397 . S
C426 C425 1.394 . S
C427 H399 0.982 . S
C427 H403 0.979 . S
C427 H404 0.977 . S
C427 C424 1.453 . S
C428 H400 0.979 . S
C428 H401 0.980 . S
C428 H402 0.983 . S
C428 C424 1.684 . S
H429 C447 0.948 . S
H430 C388 0.948 . S
H431 C406 0.979 . S
H432 C406 0.980 . S
H433 C406 0.983 . S
H434 C405 0.982 . S
H435 C405 0.979 . S
H436 C405 0.977 . S
H437 C407 0.948 . S
H438 C409 0.947 . S
H439 C410 0.948 . S
H440 C416 0.982 . S
H441 C416 0.979 . S
H442 C416 0.977 . S
H443 C417 0.979 . S
H444 C417 0.980 . S
H445 C417 0.983 . S
H446 C390 0.947 . S
C447 C390 1.392 . S
C447 C391 1.419 . S
C447 H429 0.948 . S
C448 C449 1.391 . S
C448 C452 1.391 . S
C448 H490 0.948 . S
C449 C448 1.391 . S
C449 C450 1.391 . S
C450 C449 1.391 . S
C450 H506 0.947 . S
C450 C507 1.392 . S
C451 C452 1.391 . S
C451 C455 1.397 . S
C451 C507 1.419 . S
C452 C448 1.391 . S
C452 C451 1.391 . S
C452 C453 1.399 . S
C453 C452 1.399 . S
C453 C456 1.396 . S
C453 C465 1.453 . S
C453 C466 1.684 . S
H454 C478 0.948 . S
C455 C451 1.397 . S
C455 C456 1.394 . S
C455 C474 1.723 . S
C456 C453 1.396 . S
C456 C455 1.394 . S
C456 C486 1.723 . S
H457 C480 0.947 . S
H458 C481 0.948 . S
H459 C487 0.982 . S
H460 C488 0.979 . S
H461 C488 0.980 . S
H462 C488 0.983 . S
H463 C487 0.979 . S
H464 C487 0.977 . S
C465 C453 1.453 . S
C465 H494 0.982 . S
C465 H495 0.979 . S
C465 H496 0.977 . S
C466 C453 1.684 . S
C466 H491 0.979 . S
C466 H492 0.980 . S
C466 H493 0.983 . S
C467 C468 1.391 . S
C467 C472 1.391 . S
C467 H497 0.948 . S
C468 C467 1.391 . S
C468 C469 1.391 . S
C469 C468 1.391 . S
C469 C470 1.392 . S
C469 H498 0.947 . S
C470 C469 1.392 . S
C470 C471 1.419 . S
C470 H499 0.948 . S
C471 C470 1.419 . S
C471 C472 1.391 . S
C471 C475 1.397 . S
C472 C467 1.391 . S
C472 C471 1.391 . S
C472 C473 1.399 . S
C473 C472 1.399 . S
C473 C474 1.396 . S
C473 C476 1.453 . S
C473 C477 1.684 . S
C474 C455 1.723 . S
C474 C473 1.396 . S
C474 C475 1.394 . S
C475 C471 1.397 . S
C475 C474 1.394 . S
C475 C485 1.723 . S
C476 C473 1.453 . S
C476 H500 0.982 . S
C476 H501 0.979 . S
C476 H502 0.977 . S
C477 C473 1.684 . S
C477 H503 0.979 . S
C477 H504 0.980 . S
C477 H505 0.983 . S
C478 H454 0.948 . S
C478 C479 1.391 . S
C478 C483 1.391 . S
C479 C478 1.391 . S
C479 C480 1.391 . S
C480 H457 0.947 . S
C480 C479 1.391 . S
C480 C481 1.392 . S
C481 H458 0.948 . S
C481 C480 1.392 . S
C481 C482 1.419 . S
C482 C481 1.419 . S
C482 C483 1.391 . S
C482 C486 1.397 . S
C483 C478 1.391 . S
C483 C482 1.391 . S
C483 C484 1.399 . S
C484 C483 1.399 . S
C484 C485 1.396 . S
C484 C487 1.453 . S
C484 C488 1.684 . S
C485 C475 1.723 . S
C485 C484 1.396 . S
C485 C486 1.394 . S
C486 C456 1.723 . S
C486 C482 1.397 . S
C486 C485 1.394 . S
C487 H459 0.982 . S
C487 H463 0.979 . S
C487 H464 0.977 . S
C487 C484 1.453 . S
C488 H460 0.979 . S
C488 H461 0.980 . S
C488 H462 0.983 . S
C488 C484 1.684 . S
H489 C507 0.948 . S
H490 C448 0.948 . S
H491 C466 0.979 . S
H492 C466 0.980 . S
H493 C466 0.983 . S
H494 C465 0.982 . S
H495 C465 0.979 . S
H496 C465 0.977 . S
H497 C467 0.948 . S
H498 C469 0.947 . S
H499 C470 0.948 . S
H500 C476 0.982 . S
H501 C476 0.979 . S
H502 C476 0.977 . S
H503 C477 0.979 . S
H504 C477 0.980 . S
H505 C477 0.983 . S
H506 C450 0.947 . S
C507 C450 1.392 . S
C507 C451 1.419 . S
C507 H489 0.948 . S
C508 C509 1.391 . S
C508 C512 1.391 . S
C508 H550 0.948 . S
C509 C508 1.391 . S
C509 C510 1.391 . S
C510 C509 1.391 . S
C510 H566 0.947 . S
C510 C567 1.392 . S
C511 C512 1.391 . S
C511 C515 1.397 . S
C511 C567 1.419 . S
C512 C508 1.391 . S
C512 C511 1.391 . S
C512 C513 1.399 . S
C513 C512 1.399 . S
C513 C516 1.396 . S
C513 C525 1.453 . S
C513 C526 1.684 . S
H514 C538 0.948 . S
C515 C511 1.397 . S
C515 C516 1.394 . S
C515 C534 1.723 . S
C516 C513 1.396 . S
C516 C515 1.394 . S
C516 C546 1.723 . S
H517 C540 0.947 . S
H518 C541 0.948 . S
H519 C547 0.982 . S
H520 C548 0.979 . S
H521 C548 0.980 . S
H522 C548 0.983 . S
H523 C547 0.979 . S
H524 C547 0.977 . S
C525 C513 1.453 . S
C525 H554 0.982 . S
C525 H555 0.979 . S
C525 H556 0.977 . S
C526 C513 1.684 . S
C526 H551 0.979 . S
C526 H552 0.980 . S
C526 H553 0.983 . S
C527 C528 1.391 . S
C527 C532 1.391 . S
C527 H557 0.948 . S
C528 C527 1.391 . S
C528 C529 1.391 . S
C529 C528 1.391 . S
C529 C530 1.392 . S
C529 H558 0.947 . S
C530 C529 1.392 . S
C530 C531 1.419 . S
C530 H559 0.948 . S
C531 C530 1.419 . S
C531 C532 1.391 . S
C531 C535 1.397 . S
C532 C527 1.391 . S
C532 C531 1.391 . S
C532 C533 1.399 . S
C533 C532 1.399 . S
C533 C534 1.396 . S
C533 C536 1.453 . S
C533 C537 1.684 . S
C534 C515 1.723 . S
C534 C533 1.396 . S
C534 C535 1.394 . S
C535 C531 1.397 . S
C535 C534 1.394 . S
C535 C545 1.723 . S
C536 C533 1.453 . S
C536 H560 0.982 . S
C536 H561 0.979 . S
C536 H562 0.977 . S
C537 C533 1.684 . S
C537 H563 0.979 . S
C537 H564 0.980 . S
C537 H565 0.983 . S
C538 H514 0.948 . S
C538 C539 1.391 . S
C538 C543 1.391 . S
C539 C538 1.391 . S
C539 C540 1.391 . S
C540 H517 0.947 . S
C540 C539 1.391 . S
C540 C541 1.392 . S
C541 H518 0.948 . S
C541 C540 1.392 . S
C541 C542 1.419 . S
C542 C541 1.419 . S
C542 C543 1.391 . S
C542 C546 1.397 . S
C543 C538 1.391 . S
C543 C542 1.391 . S
C543 C544 1.399 . S
C544 C543 1.399 . S
C544 C545 1.396 . S
C544 C547 1.453 . S
C544 C548 1.684 . S
C545 C535 1.723 . S
C545 C544 1.396 . S
C545 C546 1.394 . S
C546 C516 1.723 . S
C546 C542 1.397 . S
C546 C545 1.394 . S
C547 H519 0.982 . S
C547 H523 0.979 . S
C547 H524 0.977 . S
C547 C544 1.453 . S
C548 H520 0.979 . S
C548 H521 0.980 . S
C548 H522 0.983 . S
C548 C544 1.684 . S
H549 C567 0.948 . S
H550 C508 0.948 . S
H551 C526 0.979 . S
H552 C526 0.980 . S
H553 C526 0.983 . S
H554 C525 0.982 . S
H555 C525 0.979 . S
H556 C525 0.977 . S
H557 C527 0.948 . S
H558 C529 0.947 . S
H559 C530 0.948 . S
H560 C536 0.982 . S
H561 C536 0.979 . S
H562 C536 0.977 . S
H563 C537 0.979 . S
H564 C537 0.980 . S
H565 C537 0.983 . S
H566 C510 0.947 . S
C567 C510 1.392 . S
C567 C511 1.419 . S
C567 H549 0.948 . S
C568 C569 1.349 . S
C568 C570 1.327 . S
C568 H593 0.950 . S
C569 C568 1.349 . S
C569 C585 1.349 . S
C570 C568 1.327 . S
C570 C589 1.429 . S
C570 H594 0.950 . S
C571 C588 1.574 . S
C571 C590 1.368 . S
C571 H595 0.949 . S
H572 C576 0.949 1_545 S
C573 C574 1.349 . S
C573 C575 1.327 . S
C573 H596 0.950 . S
C574 C573 1.349 . S
C574 C586 1.349 . S
C575 C573 1.327 . S
C575 C591 1.429 . S
C575 H597 0.950 1_545 S
C576 H572 0.949 1_565 S
C576 C584 1.574 . S
C576 C592 1.368 . S
H577 C585 0.950 . S
H578 C583 0.950 . S
H579 C584 0.949 . S
H580 C586 0.950 . S
H581 C587 0.950 . S
H582 C588 0.949 . S
C583 H578 0.950 . S
C583 C585 1.327 . S
C583 C589 1.429 . S
C584 C576 1.574 . S
C584 H579 0.949 . S
C584 C590 1.368 . S
C585 C569 1.349 . S
C585 H577 0.950 . S
C585 C583 1.327 . S
C586 C574 1.349 . S
C586 H580 0.950 . S
C586 C587 1.327 . S
C587 H581 0.950 . S
C587 C586 1.327 . S
C587 C591 1.429 . S
C588 C571 1.574 . S
C588 H582 0.949 . S
C588 C592 1.368 . S
C589 C570 1.429 . S
C589 C583 1.429 . S
C589 C590 1.523 . S
C590 C571 1.368 . S
C590 C584 1.368 . S
C590 C589 1.523 . S
C591 C575 1.429 . S
C591 C587 1.429 . S
C591 C592 1.523 1_545 S
C592 C576 1.368 . S
C592 C588 1.368 . S
C592 C591 1.523 1_565 S
H593 C568 0.950 . S
H594 C570 0.950 . S
H595 C571 0.949 . S
H596 C573 0.950 . S
H597 C575 0.950 1_565 S
C598 C599 1.349 . S
C598 C600 1.327 . S
C598 H623 0.950 . S
C599 C598 1.349 . S
C599 C615 1.349 . S
C600 C598 1.327 . S
C600 C619 1.429 . S
C600 H624 0.950 . S
C601 C618 1.574 . S
C601 C620 1.368 . S
C601 H625 0.949 . S
H602 C606 0.949 . S
C603 C604 1.349 . S
C603 C605 1.327 . S
C603 H626 0.950 . S
C604 C603 1.349 . S
C604 C616 1.349 . S
C605 C603 1.327 . S
C605 C621 1.429 . S
C605 H627 0.950 . S
C606 H602 0.949 . S
C606 C614 1.574 . S
C606 C622 1.368 . S
H607 C615 0.950 . S
H608 C613 0.950 . S
H609 C614 0.949 . S
H610 C616 0.950 . S
H611 C617 0.950 . S
H612 C618 0.949 . S
C613 H608 0.950 . S
C613 C615 1.327 . S
C613 C619 1.429 . S
C614 C606 1.574 . S
C614 H609 0.949 . S
C614 C620 1.368 . S
C615 C599 1.349 . S
C615 H607 0.950 . S
C615 C613 1.327 . S
C616 C604 1.349 . S
C616 H610 0.950 . S
C616 C617 1.327 . S
C617 H611 0.950 . S
C617 C616 1.327 . S
C617 C621 1.429 . S
C618 C601 1.574 . S
C618 H612 0.949 . S
C618 C622 1.368 . S
C619 C600 1.429 . S
C619 C613 1.429 . S
C619 C620 1.523 . S
C620 C601 1.368 . S
C620 C614 1.368 . S
C620 C619 1.523 . S
C621 C605 1.429 . S
C621 C617 1.429 . S
C621 C622 1.523 . S
C622 C606 1.368 . S
C622 C618 1.368 . S
C622 C621 1.523 . S
H623 C598 0.950 . S
H624 C600 0.950 . S
H625 C601 0.949 . S
H626 C603 0.950 . S
H627 C605 0.950 . S
C628 C629 1.349 . S
C628 C630 1.327 . S
C628 H653 0.950 . S
C629 C628 1.349 . S
C629 C645 1.349 . S
C630 C628 1.327 . S
C630 C649 1.429 . S
C630 H654 0.950 . S
C631 C648 1.574 . S
C631 C650 1.368 . S
C631 H655 0.949 . S
H632 C636 0.949 . S
C633 C634 1.349 . S
C633 C635 1.327 . S
C633 H656 0.950 . S
C634 C633 1.349 . S
C634 C646 1.349 . S
C635 C633 1.327 . S
C635 C651 1.429 . S
C635 H657 0.950 . S
C636 H632 0.949 . S
C636 C644 1.574 . S
C636 C652 1.368 . S
H637 C645 0.950 . S
H638 C643 0.950 . S
H639 C644 0.949 . S
H640 C646 0.950 . S
H641 C647 0.950 1_545 S
H642 C648 0.949 1_565 S
C643 H638 0.950 . S
C643 C645 1.327 . S
C643 C649 1.429 . S
C644 C636 1.574 . S
C644 H639 0.949 . S
C644 C650 1.368 . S
C645 C629 1.349 . S
C645 H637 0.950 . S
C645 C643 1.327 . S
C646 C634 1.349 . S
C646 H640 0.950 . S
C646 C647 1.327 . S
C647 H641 0.950 1_565 S
C647 C646 1.327 . S
C647 C651 1.429 . S
C648 C631 1.574 . S
C648 H642 0.949 1_545 S
C648 C652 1.368 . S
C649 C630 1.429 . S
C649 C643 1.429 . S
C649 C650 1.523 . S
C650 C631 1.368 . S
C650 C644 1.368 . S
C650 C649 1.523 . S
C651 C635 1.429 . S
C651 C647 1.429 . S
C651 C652 1.523 1_565 S
C652 C636 1.368 . S
C652 C648 1.368 . S
C652 C651 1.523 1_545 S
H653 C628 0.950 . S
H654 C630 0.950 . S
H655 C631 0.949 . S
H656 C633 0.950 . S
H657 C635 0.950 . S
C658 C659 1.349 . S
C658 C660 1.327 . S
C658 H683 0.950 . S
C659 C658 1.349 . S
C659 C675 1.349 . S
C660 C658 1.327 . S
C660 C679 1.429 . S
C660 H684 0.950 . S
C661 C678 1.574 . S
C661 C680 1.368 . S
C661 H685 0.949 . S
H662 C666 0.949 . S
C663 C664 1.349 . S
C663 C665 1.327 . S
C663 H686 0.950 . S
C664 C663 1.349 . S
C664 C676 1.349 . S
C665 C663 1.327 . S
C665 C681 1.429 . S
C665 H687 0.950 . S
C666 H662 0.949 . S
C666 C674 1.574 . S
C666 C682 1.368 . S
H667 C675 0.950 . S
H668 C673 0.950 . S
H669 C674 0.949 . S
H670 C676 0.950 . S
H671 C677 0.950 . S
H672 C678 0.949 . S
C673 H668 0.950 . S
C673 C675 1.327 . S
C673 C679 1.429 . S
C674 C666 1.574 . S
C674 H669 0.949 . S
C674 C680 1.368 . S
C675 C659 1.349 . S
C675 H667 0.950 . S
C675 C673 1.327 . S
C676 C664 1.349 . S
C676 H670 0.950 . S
C676 C677 1.327 . S
C677 H671 0.950 . S
C677 C676 1.327 . S
C677 C681 1.429 . S
C678 C661 1.574 . S
C678 H672 0.949 . S
C678 C682 1.368 . S
C679 C660 1.429 . S
C679 C673 1.429 . S
C679 C680 1.523 . S
C680 C661 1.368 . S
C680 C674 1.368 . S
C680 C679 1.523 . S
C681 C665 1.429 . S
C681 C677 1.429 . S
C681 C682 1.523 . S
C682 C666 1.368 . S
C682 C678 1.368 . S
C682 C681 1.523 . S
H683 C658 0.950 . S
H684 C660 0.950 . S
H685 C661 0.949 . S
H686 C663 0.950 . S
H687 C665 0.950 . S
C688 C689 1.349 . S
C688 C690 1.327 . S
C688 H713 0.950 . S
C689 C688 1.349 . S
C689 C705 1.349 . S
C690 C688 1.327 . S
C690 C709 1.429 . S
C690 H714 0.950 . S
C691 C708 1.574 . S
C691 C710 1.368 . S
C691 H715 0.949 . S
H692 C696 0.949 . S
C693 C694 1.349 . S
C693 C695 1.327 . S
C693 H716 0.950 . S
C694 C693 1.349 . S
C694 C706 1.349 . S
C695 C693 1.327 . S
C695 C711 1.429 . S
C695 H717 0.950 . S
C696 H692 0.949 . S
C696 C704 1.574 . S
C696 C712 1.368 . S
H697 C705 0.950 . S
H698 C703 0.950 . S
H699 C704 0.949 . S
H700 C706 0.950 . S
H701 C707 0.950 . S
H702 C708 0.949 . S
C703 H698 0.950 . S
C703 C705 1.327 . S
C703 C709 1.429 . S
C704 C696 1.574 . S
C704 H699 0.949 . S
C704 C710 1.368 . S
C705 C689 1.349 . S
C705 H697 0.950 . S
C705 C703 1.327 . S
C706 C694 1.349 . S
C706 H700 0.950 . S
C706 C707 1.327 . S
C707 H701 0.950 . S
C707 C706 1.327 . S
C707 C711 1.429 . S
C708 C691 1.574 . S
C708 H702 0.949 . S
C708 C712 1.368 . S
C709 C690 1.429 . S
C709 C703 1.429 . S
C709 C710 1.523 . S
C710 C691 1.368 . S
C710 C704 1.368 . S
C710 C709 1.523 . S
C711 C695 1.429 . S
C711 C707 1.429 . S
C711 C712 1.523 . S
C712 C696 1.368 . S
C712 C708 1.368 . S
C712 C711 1.523 . S
H713 C688 0.950 . S
H714 C690 0.950 . S
H715 C691 0.949 . S
H716 C693 0.950 . S
H717 C695 0.950 . S
C718 C719 1.349 . S
C718 C720 1.327 . S
C718 H743 0.950 . S
C719 C718 1.349 . S
C719 C735 1.349 . S
C720 C718 1.327 . S
C720 C739 1.429 . S
C720 H744 0.950 . S
C721 C738 1.574 . S
C721 C740 1.368 . S
C721 H745 0.949 . S
H722 C726 0.949 . S
C723 C724 1.349 . S
C723 C725 1.327 . S
C723 H746 0.950 . S
C724 C723 1.349 . S
C724 C736 1.349 . S
C725 C723 1.327 . S
C725 C741 1.429 . S
C725 H747 0.950 . S
C726 H722 0.949 . S
C726 C734 1.574 . S
C726 C742 1.368 . S
H727 C735 0.950 . S
H728 C733 0.950 . S
H729 C734 0.949 . S
H730 C736 0.950 . S
H731 C737 0.950 1_655 S
H732 C738 0.949 . S
C733 H728 0.950 . S
C733 C735 1.327 . S
C733 C739 1.429 . S
C734 C726 1.574 . S
C734 H729 0.949 . S
C734 C740 1.368 . S
C735 C719 1.349 . S
C735 H727 0.950 . S
C735 C733 1.327 . S
C736 C724 1.349 . S
C736 H730 0.950 . S
C736 C737 1.327 . S
C737 H731 0.950 1_455 S
C737 C736 1.327 . S
C737 C741 1.429 . S
C738 C721 1.574 . S
C738 H732 0.949 . S
C738 C742 1.368 . S
C739 C720 1.429 . S
C739 C733 1.429 . S
C739 C740 1.523 . S
C740 C721 1.368 . S
C740 C734 1.368 . S
C740 C739 1.523 . S
C741 C725 1.429 . S
C741 C737 1.429 . S
C741 C742 1.523 1_455 S
C742 C726 1.368 . S
C742 C738 1.368 . S
C742 C741 1.523 1_655 S
H743 C718 0.950 . S
H744 C720 0.950 . S
H745 C721 0.949 . S
H746 C723 0.950 . S
H747 C725 0.950 . S
C748 C749 1.349 . S
C748 C750 1.327 . S
C748 H773 0.950 . S
C749 C748 1.349 . S
C749 C765 1.349 . S
C750 C748 1.327 . S
C750 C769 1.429 . S
C750 H774 0.950 . S
C751 C768 1.574 . S
C751 C770 1.368 . S
C751 H775 0.949 . S
H752 C756 0.949 . S
C753 C754 1.349 . S
C753 C755 1.327 . S
C753 H776 0.950 . S
C754 C753 1.349 . S
C754 C766 1.349 . S
C755 C753 1.327 . S
C755 C771 1.429 . S
C755 H777 0.950 . S
C756 H752 0.949 . S
C756 C764 1.574 . S
C756 C772 1.368 . S
H757 C765 0.950 . S
H758 C763 0.950 . S
H759 C764 0.949 . S
H760 C766 0.950 . S
H761 C767 0.950 . S
H762 C768 0.949 . S
C763 H758 0.950 . S
C763 C765 1.327 . S
C763 C769 1.429 . S
C764 C756 1.574 . S
C764 H759 0.949 . S
C764 C770 1.368 . S
C765 C749 1.349 . S
C765 H757 0.950 . S
C765 C763 1.327 . S
C766 C754 1.349 . S
C766 H760 0.950 . S
C766 C767 1.327 . S
C767 H761 0.950 . S
C767 C766 1.327 . S
C767 C771 1.429 . S
C768 C751 1.574 . S
C768 H762 0.949 . S
C768 C772 1.368 . S
C769 C750 1.429 . S
C769 C763 1.429 . S
C769 C770 1.523 . S
C770 C751 1.368 . S
C770 C764 1.368 . S
C770 C769 1.523 . S
C771 C755 1.429 . S
C771 C767 1.429 . S
C771 C772 1.523 . S
C772 C756 1.368 . S
C772 C768 1.368 . S
C772 C771 1.523 . S
H773 C748 0.950 . S
H774 C750 0.950 . S
H775 C751 0.949 . S
H776 C753 0.950 . S
H777 C755 0.950 . S
C778 C779 1.349 . S
C778 C780 1.327 . S
C778 H803 0.950 . S
C779 C778 1.349 . S
C779 C795 1.349 . S
C780 C778 1.327 . S
C780 C799 1.429 . S
C780 H804 0.950 . S
C781 C798 1.574 . S
C781 C800 1.368 . S
C781 H805 0.949 . S
H782 C786 0.949 . S
C783 C784 1.349 . S
C783 C785 1.327 . S
C783 H806 0.950 . S
C784 C783 1.349 . S
C784 C796 1.349 . S
C785 C783 1.327 . S
C785 C801 1.429 . S
C785 H807 0.950 . S
C786 H782 0.949 . S
C786 C794 1.574 . S
C786 C802 1.368 . S
H787 C795 0.950 . S
H788 C793 0.950 . S
H789 C794 0.949 . S
H790 C796 0.950 . S
H791 C797 0.950 1_455 S
H792 C798 0.949 . S
C793 H788 0.950 . S
C793 C795 1.327 . S
C793 C799 1.429 . S
C794 C786 1.574 . S
C794 H789 0.949 . S
C794 C800 1.368 . S
C795 C779 1.349 . S
C795 H787 0.950 . S
C795 C793 1.327 . S
C796 C784 1.349 . S
C796 H790 0.950 . S
C796 C797 1.327 . S
C797 H791 0.950 1_655 S
C797 C796 1.327 . S
C797 C801 1.429 . S
C798 C781 1.574 . S
C798 H792 0.949 . S
C798 C802 1.368 . S
C799 C780 1.429 . S
C799 C793 1.429 . S
C799 C800 1.523 . S
C800 C781 1.368 . S
C800 C794 1.368 . S
C800 C799 1.523 . S
C801 C785 1.429 . S
C801 C797 1.429 . S
C801 C802 1.523 1_655 S
C802 C786 1.368 . S
C802 C798 1.368 . S
C802 C801 1.523 1_455 S
H803 C778 0.950 . S
H804 C780 0.950 . S
H805 C781 0.949 . S
H806 C783 0.950 . S
H807 C785 0.950 . S
C808 C809 1.349 . S
C808 C810 1.327 . S
C808 H833 0.950 . S
C809 C808 1.349 . S
C809 C825 1.349 . S
C810 C808 1.327 . S
C810 C829 1.429 . S
C810 H834 0.950 . S
C811 C828 1.574 . S
C811 C830 1.368 . S
C811 H835 0.949 . S
H812 C816 0.949 . S
C813 C814 1.349 . S
C813 C815 1.327 . S
C813 H836 0.950 . S
C814 C813 1.349 . S
C814 C826 1.349 . S
C815 C813 1.327 . S
C815 C831 1.429 . S
C815 H837 0.950 . S
C816 H812 0.949 . S
C816 C824 1.574 . S
C816 C832 1.368 . S
H817 C825 0.950 . S
H818 C823 0.950 . S
H819 C824 0.949 . S
H820 C826 0.950 . S
H821 C827 0.950 1_545 S
H822 C828 0.949 1_565 S
C823 H818 0.950 . S
C823 C825 1.327 . S
C823 C829 1.429 . S
C824 C816 1.574 . S
C824 H819 0.949 . S
C824 C830 1.368 . S
C825 C809 1.349 . S
C825 H817 0.950 . S
C825 C823 1.327 . S
C826 C814 1.349 . S
C826 H820 0.950 . S
C826 C827 1.327 . S
C827 H821 0.950 1_565 S
C827 C826 1.327 . S
C827 C831 1.429 . S
C828 C811 1.574 . S
C828 H822 0.949 1_545 S
C828 C832 1.368 . S
C829 C810 1.429 . S
C829 C823 1.429 . S
C829 C830 1.523 . S
C830 C811 1.368 . S
C830 C824 1.368 . S
C830 C829 1.523 . S
C831 C815 1.429 . S
C831 C827 1.429 . S
C831 C832 1.523 1_565 S
C832 C816 1.368 . S
C832 C828 1.368 . S
C832 C831 1.523 1_545 S
H833 C808 0.950 . S
H834 C810 0.950 . S
H835 C811 0.949 . S
H836 C813 0.950 . S
H837 C815 0.950 . S
C838 C839 1.349 . S
C838 C840 1.327 . S
C838 H863 0.950 . S
C839 C838 1.349 . S
C839 C855 1.349 . S
C840 C838 1.327 . S
C840 C859 1.429 . S
C840 H864 0.950 . S
C841 C858 1.574 . S
C841 C860 1.368 . S
C841 H865 0.949 . S
H842 C846 0.949 . S
C843 C844 1.349 . S
C843 C845 1.327 . S
C843 H866 0.950 . S
C844 C843 1.349 . S
C844 C856 1.349 . S
C845 C843 1.327 . S
C845 C861 1.429 . S
C845 H867 0.950 . S
C846 H842 0.949 . S
C846 C854 1.574 . S
C846 C862 1.368 . S
H847 C855 0.950 . S
H848 C853 0.950 . S
H849 C854 0.949 . S
H850 C856 0.950 . S
H851 C857 0.950 . S
H852 C858 0.949 . S
C853 H848 0.950 . S
C853 C855 1.327 . S
C853 C859 1.429 . S
C854 C846 1.574 . S
C854 H849 0.949 . S
C854 C860 1.368 . S
C855 C839 1.349 . S
C855 H847 0.950 . S
C855 C853 1.327 . S
C856 C844 1.349 . S
C856 H850 0.950 . S
C856 C857 1.327 . S
C857 H851 0.950 . S
C857 C856 1.327 . S
C857 C861 1.429 . S
C858 C841 1.574 . S
C858 H852 0.949 . S
C858 C862 1.368 . S
C859 C840 1.429 . S
C859 C853 1.429 . S
C859 C860 1.523 . S
C860 C841 1.368 . S
C860 C854 1.368 . S
C860 C859 1.523 . S
C861 C845 1.429 . S
C861 C857 1.429 . S
C861 C862 1.523 . S
C862 C846 1.368 . S
C862 C858 1.368 . S
C862 C861 1.523 . S
H863 C838 0.950 . S
H864 C840 0.950 . S
H865 C841 0.949 . S
H866 C843 0.950 . S
H867 C845 0.950 . S
C868 C869 1.349 . S
C868 C870 1.327 . S
C868 H893 0.950 . S
C869 C868 1.349 . S
C869 C885 1.349 . S
C870 C868 1.327 . S
C870 C889 1.429 . S
C870 H894 0.950 . S
C871 C888 1.574 . S
C871 C890 1.368 . S
C871 H895 0.949 . S
H872 C876 0.949 . S
C873 C874 1.349 . S
C873 C875 1.327 . S
C873 H896 0.950 . S
C874 C873 1.349 . S
C874 C886 1.349 . S
C875 C873 1.327 . S
C875 C891 1.429 . S
C875 H897 0.950 . S
C876 H872 0.949 . S
C876 C884 1.574 . S
C876 C892 1.368 . S
H877 C885 0.950 . S
H878 C883 0.950 . S
H879 C884 0.949 . S
H880 C886 0.950 . S
H881 C887 0.950 1_565 S
H882 C888 0.955 . S
C883 H878 0.950 . S
C883 C885 1.327 . S
C883 C889 1.429 . S
C884 C876 1.574 . S
C884 H879 0.949 . S
C884 C890 1.368 . S
C885 C869 1.349 . S
C885 H877 0.950 . S
C885 C883 1.327 . S
C886 C874 1.349 . S
C886 H880 0.950 . S
C886 C887 1.327 . S
C887 H881 0.950 1_545 S
C887 C886 1.327 . S
C887 C891 1.429 . S
C888 C871 1.574 . S
C888 H882 0.955 . S
C888 C892 1.368 . S
C889 C870 1.429 . S
C889 C883 1.429 . S
C889 C890 1.523 . S
C890 C871 1.368 . S
C890 C884 1.368 . S
C890 C889 1.523 . S
C891 C875 1.429 . S
C891 C887 1.429 . S
C891 C892 1.523 1_545 S
C892 C876 1.368 . S
C892 C888 1.368 . S
C892 C891 1.523 1_565 S
H893 C868 0.950 . S
H894 C870 0.950 . S
H895 C871 0.949 . S
H896 C873 0.950 . S
H897 C875 0.950 . S
C898 C899 1.349 . S
C898 C900 1.327 . S
C898 H923 0.950 . S
C899 C898 1.349 . S
C899 C915 1.349 . S
C900 C898 1.327 . S
C900 C919 1.429 . S
C900 H924 0.950 . S
C901 C918 1.574 . S
C901 C920 1.368 . S
C901 H925 0.949 . S
H902 C906 0.949 . S
C903 C904 1.349 . S
C903 C905 1.327 . S
C903 H926 0.950 . S
C904 C903 1.349 . S
C904 C916 1.349 . S
C905 C903 1.327 . S
C905 C921 1.429 . S
C905 H927 0.950 . S
C906 H902 0.949 . S
C906 C914 1.574 . S
C906 C922 1.368 . S
H907 C915 0.950 . S
H908 C913 0.950 . S
H909 C914 0.949 . S
H910 C916 0.950 . S
H911 C917 0.950 . S
H912 C918 0.949 . S
C913 H908 0.950 . S
C913 C915 1.327 . S
C913 C919 1.429 . S
C914 C906 1.574 . S
C914 H909 0.949 . S
C914 C920 1.368 . S
C915 C899 1.349 . S
C915 H907 0.950 . S
C915 C913 1.327 . S
C916 C904 1.349 . S
C916 H910 0.950 . S
C916 C917 1.327 . S
C917 H911 0.950 . S
C917 C916 1.327 . S
C917 C921 1.429 . S
C918 C901 1.574 . S
C918 H912 0.949 . S
C918 C922 1.368 . S
C919 C900 1.429 . S
C919 C913 1.429 . S
C919 C920 1.523 . S
C920 C901 1.368 . S
C920 C914 1.368 . S
C920 C919 1.523 . S
C921 C905 1.429 . S
C921 C917 1.429 . S
C921 C922 1.523 . S
C922 C906 1.368 . S
C922 C918 1.368 . S
C922 C921 1.523 . S
H923 C898 0.950 . S
H924 C900 0.950 . S
H925 C901 0.949 . S
H926 C903 0.950 . S
H927 C905 0.950 . S
C928 C929 1.349 . S
C928 C930 1.327 . S
C928 H953 0.950 . S
C929 C928 1.349 . S
C929 C945 1.349 . S
C930 C928 1.327 . S
C930 C949 1.429 . S
C930 H954 0.950 . S
C931 C948 1.574 . S
C931 C950 1.368 . S
C931 H955 0.949 . S
H932 C936 0.949 . S
C933 C934 1.349 . S
C933 C935 1.327 . S
C933 H956 0.950 . S
C934 C933 1.349 . S
C934 C946 1.349 . S
C935 C933 1.327 . S
C935 C951 1.429 . S
C935 H957 0.950 . S
C936 H932 0.949 . S
C936 C944 1.574 . S
C936 C952 1.368 . S
H937 C945 0.950 . S
H938 C943 0.950 . S
H939 C944 0.949 . S
H940 C946 0.950 . S
H941 C947 0.950 . S
H942 C948 0.949 . S
C943 H938 0.950 . S
C943 C945 1.327 . S
C943 C949 1.429 . S
C944 C936 1.574 . S
C944 H939 0.949 . S
C944 C950 1.368 . S
C945 C929 1.349 . S
C945 H937 0.950 . S
C945 C943 1.327 . S
C946 C934 1.349 . S
C946 H940 0.950 . S
C946 C947 1.327 . S
C947 H941 0.950 . S
C947 C946 1.327 . S
C947 C951 1.429 . S
C948 C931 1.574 . S
C948 H942 0.949 . S
C948 C952 1.368 . S
C949 C930 1.429 . S
C949 C943 1.429 . S
C949 C950 1.523 . S
C950 C931 1.368 . S
C950 C944 1.368 . S
C950 C949 1.523 . S
C951 C935 1.429 . S
C951 C947 1.429 . S
C951 C952 1.523 . S
C952 C936 1.368 . S
C952 C948 1.368 . S
C952 C951 1.523 . S
H953 C928 0.950 . S
H954 C930 0.950 . S
H955 C931 0.949 . S
H956 C933 0.950 . S
H957 C935 0.950 . S
C958 C959 1.349 . S
C958 C960 1.327 . S
C958 H983 0.950 . S
C959 C958 1.349 . S
C959 C975 1.349 . S
C960 C958 1.327 . S
C960 C979 1.429 . S
C960 H984 0.950 . S
C961 C978 1.574 . S
C961 C980 1.368 . S
C961 H985 0.949 . S
H962 C966 0.949 . S
C963 C964 1.349 . S
C963 C965 1.327 . S
C963 H986 0.950 . S
C964 C963 1.349 . S
C964 C976 1.349 . S
C965 C963 1.327 . S
C965 C981 1.429 . S
C965 H987 0.950 . S
C966 H962 0.949 . S
C966 C974 1.574 . S
C966 C982 1.368 . S
H967 C975 0.950 . S
H968 C973 0.950 . S
H969 C974 0.949 . S
H970 C976 0.950 . S
H971 C977 0.929 1_455 S
H972 C978 0.949 . S
C973 H968 0.950 . S
C973 C975 1.327 . S
C973 C979 1.429 . S
C974 C966 1.574 . S
C974 H969 0.949 . S
C974 C980 1.368 . S
C975 C959 1.349 . S
C975 H967 0.950 . S
C975 C973 1.327 . S
C976 C964 1.349 . S
C976 H970 0.950 . S
C976 C977 1.327 . S
C977 H971 0.929 1_655 S
C977 C976 1.327 . S
C977 C981 1.429 . S
C978 C961 1.574 . S
C978 H972 0.949 . S
C978 C982 1.368 . S
C979 C960 1.429 . S
C979 C973 1.429 . S
C979 C980 1.523 . S
C980 C961 1.368 . S
C980 C974 1.368 . S
C980 C979 1.523 . S
C981 C965 1.429 . S
C981 C977 1.429 . S
C981 C982 1.523 1_655 S
C982 C966 1.368 . S
C982 C978 1.368 . S
C982 C981 1.523 1_455 S
H983 C958 0.950 . S
H984 C960 0.950 . S
H985 C961 0.949 . S
H986 C963 0.950 . S
H987 C965 0.950 . S
C988 C989 1.349 . S
C988 C990 1.327 . S
C988 H1013 0.950 . S
C989 C988 1.349 . S
C989 C1005 1.349 . S
C990 C988 1.327 . S
C990 C1009 1.429 . S
C990 H1014 0.950 . S
C991 C1008 1.574 . S
C991 C1010 1.368 . S
C991 H1015 0.949 . S
H992 C996 0.949 . S
C993 C994 1.349 . S
C993 C995 1.327 . S
C993 H1016 0.950 . S
C994 C993 1.349 . S
C994 C1006 1.349 . S
C995 C993 1.327 . S
C995 C1011 1.429 . S
C995 H1017 0.950 . S
C996 H992 0.949 . S
C996 C1004 1.574 . S
C996 C1012 1.368 . S
H997 C1005 0.950 . S
H998 C1003 0.950 . S
H999 C1004 0.949 . S
H1000 C1006 0.950 . S
H1001 C1007 0.950 . S
H1002 C1008 0.949 . S
C1003 H998 0.950 . S
C1003 C1005 1.327 . S
C1003 C1009 1.429 . S
C1004 C996 1.574 . S
C1004 H999 0.949 . S
C1004 C1010 1.368 . S
C1005 C989 1.349 . S
C1005 H997 0.950 . S
C1005 C1003 1.327 . S
C1006 C994 1.349 . S
C1006 H1000 0.950 . S
C1006 C1007 1.327 . S
C1007 H1001 0.950 . S
C1007 C1006 1.327 . S
C1007 C1011 1.429 . S
C1008 C991 1.574 . S
C1008 H1002 0.949 . S
C1008 C1012 1.368 . S
C1009 C990 1.429 . S
C1009 C1003 1.429 . S
C1009 C1010 1.523 . S
C1010 C991 1.368 . S
C1010 C1004 1.368 . S
C1010 C1009 1.523 . S
C1011 C995 1.429 . S
C1011 C1007 1.429 . S
C1011 C1012 1.523 . S
C1012 C996 1.368 . S
C1012 C1008 1.368 . S
C1012 C1011 1.523 . S
H1013 C988 0.950 . S
H1014 C990 0.950 . S
H1015 C991 0.949 . S
H1016 C993 0.950 . S
H1017 C995 0.950 . S
C1018 C1019 1.349 . S
C1018 C1020 1.327 . S
C1018 H1043 0.950 . S
C1019 C1018 1.349 . S
C1019 C1035 1.349 . S
C1020 C1018 1.327 . S
C1020 C1039 1.429 . S
C1020 H1044 0.950 . S
C1021 C1038 1.574 . S
C1021 C1040 1.368 . S
C1021 H1045 0.949 . S
H1022 C1026 0.949 . S
C1023 C1024 1.349 . S
C1023 C1025 1.327 . S
C1023 H1046 0.950 . S
C1024 C1023 1.349 . S
C1024 C1036 1.349 . S
C1025 C1023 1.327 . S
C1025 C1041 1.429 . S
C1025 H1047 0.950 . S
C1026 H1022 0.949 . S
C1026 C1034 1.574 . S
C1026 C1042 1.368 . S
H1027 C1035 0.950 . S
H1028 C1033 0.950 . S
H1029 C1034 0.949 . S
H1030 C1036 0.950 . S
H1031 C1037 0.950 . S
H1032 C1038 0.949 . S
C1033 H1028 0.950 . S
C1033 C1035 1.327 . S
C1033 C1039 1.429 . S
C1034 C1026 1.574 . S
C1034 H1029 0.949 . S
C1034 C1040 1.368 . S
C1035 C1019 1.349 . S
C1035 H1027 0.950 . S
C1035 C1033 1.327 . S
C1036 C1024 1.349 . S
C1036 H1030 0.950 . S
C1036 C1037 1.327 . S
C1037 H1031 0.950 . S
C1037 C1036 1.327 . S
C1037 C1041 1.429 . S
C1038 C1021 1.574 . S
C1038 H1032 0.949 . S
C1038 C1042 1.368 . S
C1039 C1020 1.429 . S
C1039 C1033 1.429 . S
C1039 C1040 1.523 . S
C1040 C1021 1.368 . S
C1040 C1034 1.368 . S
C1040 C1039 1.523 . S
C1041 C1025 1.429 . S
C1041 C1037 1.429 . S
C1041 C1042 1.523 1_455 S
C1042 C1026 1.368 . S
C1042 C1038 1.368 . S
C1042 C1041 1.523 1_655 S
H1043 C1018 0.950 . S
H1044 C1020 0.950 . S
H1045 C1021 0.949 . S
H1046 C1023 0.950 . S
H1047 C1025 0.950 . S
C1048 C1049 1.349 . S
C1048 C1050 1.327 . S
C1048 H1073 0.950 . S
C1049 C1048 1.349 . S
C1049 C1065 1.349 . S
C1050 C1048 1.327 . S
C1050 C1069 1.429 . S
C1050 H1074 0.950 . S
C1051 C1068 1.574 . S
C1051 C1070 1.368 . S
C1051 H1075 0.949 . S
H1052 C1056 0.949 . S
C1053 C1054 1.349 . S
C1053 C1055 1.327 . S
C1053 H1076 0.950 . S
C1054 C1053 1.349 . S
C1054 C1066 1.349 . S
C1055 C1053 1.327 . S
C1055 C1071 1.429 . S
C1055 H1077 0.950 . S
C1056 H1052 0.949 . S
C1056 C1064 1.574 . S
C1056 C1072 1.368 . S
H1057 C1065 0.950 . S
H1058 C1063 0.950 . S
H1059 C1064 0.949 . S
H1060 C1066 0.950 . S
H1061 C1067 0.950 . S
H1062 C1068 0.949 . S
C1063 H1058 0.950 . S
C1063 C1065 1.327 . S
C1063 C1069 1.429 . S
C1064 C1056 1.574 . S
C1064 H1059 0.949 . S
C1064 C1070 1.368 . S
C1065 C1049 1.349 . S
C1065 H1057 0.950 . S
C1065 C1063 1.327 . S
C1066 C1054 1.349 . S
C1066 H1060 0.950 . S
C1066 C1067 1.327 . S
C1067 H1061 0.950 . S
C1067 C1066 1.327 . S
C1067 C1071 1.429 . S
C1068 C1051 1.574 . S
C1068 H1062 0.949 . S
C1068 C1072 1.368 . S
C1069 C1050 1.429 . S
C1069 C1063 1.429 . S
C1069 C1070 1.523 . S
C1070 C1051 1.368 . S
C1070 C1064 1.368 . S
C1070 C1069 1.523 . S
C1071 C1055 1.429 . S
C1071 C1067 1.429 . S
C1071 C1072 1.523 . S
C1072 C1056 1.368 . S
C1072 C1068 1.368 . S
C1072 C1071 1.523 . S
H1073 C1048 0.950 . S
H1074 C1050 0.950 . S
H1075 C1051 0.949 . S
H1076 C1053 0.950 . S
H1077 C1055 0.950 . S
C1078 C1079 1.349 . S
C1078 C1080 1.327 . S
C1078 H1103 0.950 . S
C1079 C1078 1.349 . S
C1079 C1095 1.349 . S
C1080 C1078 1.327 . S
C1080 C1099 1.429 . S
C1080 H1104 0.950 . S
C1081 C1098 1.574 . S
C1081 C1100 1.368 . S
C1081 H1105 0.949 . S
H1082 C1086 0.949 . S
C1083 C1084 1.349 . S
C1083 C1085 1.327 . S
C1083 H1106 0.950 . S
C1084 C1083 1.349 . S
C1084 C1096 1.349 . S
C1085 C1083 1.327 . S
C1085 C1101 1.429 . S
C1085 H1107 0.950 . S
C1086 H1082 0.949 . S
C1086 C1094 1.574 . S
C1086 C1102 1.368 . S
H1087 C1095 0.950 . S
H1088 C1093 0.950 . S
H1089 C1094 0.949 . S
H1090 C1096 0.950 . S
H1091 C1097 0.950 . S
H1092 C1098 0.949 . S
C1093 H1088 0.950 . S
C1093 C1095 1.327 . S
C1093 C1099 1.429 . S
C1094 C1086 1.574 . S
C1094 H1089 0.949 . S
C1094 C1100 1.368 . S
C1095 C1079 1.349 . S
C1095 H1087 0.950 . S
C1095 C1093 1.327 . S
C1096 C1084 1.349 . S
C1096 H1090 0.950 . S
C1096 C1097 1.327 . S
C1097 H1091 0.950 . S
C1097 C1096 1.327 . S
C1097 C1101 1.429 . S
C1098 C1081 1.574 . S
C1098 H1092 0.949 . S
C1098 C1102 1.368 . S
C1099 C1080 1.429 . S
C1099 C1093 1.429 . S
C1099 C1100 1.523 . S
C1100 C1081 1.368 . S
C1100 C1094 1.368 . S
C1100 C1099 1.523 . S
C1101 C1085 1.429 . S
C1101 C1097 1.429 . S
C1101 C1102 1.523 . S
C1102 C1086 1.368 . S
C1102 C1098 1.368 . S
C1102 C1101 1.523 . S
H1103 C1078 0.950 . S
H1104 C1080 0.950 . S
H1105 C1081 0.949 . S
H1106 C1083 0.950 . S
H1107 C1085 0.950 . S
C1108 C1109 1.349 . S
C1108 C1110 1.327 . S
C1108 H1133 0.950 . S
C1109 C1108 1.349 . S
C1109 C1125 1.349 . S
C1110 C1108 1.327 . S
C1110 C1129 1.429 . S
C1110 H1134 0.950 . S
C1111 C1128 1.574 . S
C1111 C1130 1.368 . S
C1111 H1135 0.949 . S
H1112 C1116 0.949 . S
C1113 C1114 1.349 . S
C1113 C1115 1.327 . S
C1113 H1136 0.950 . S
C1114 C1113 1.349 . S
C1114 C1126 1.349 . S
C1115 C1113 1.327 . S
C1115 C1131 1.429 . S
C1115 H1137 0.950 . S
C1116 H1112 0.949 . S
C1116 C1124 1.574 . S
C1116 C1132 1.368 . S
H1117 C1125 0.950 . S
H1118 C1123 0.950 . S
H1119 C1124 0.949 . S
H1120 C1126 0.950 . S
H1121 C1127 0.950 . S
H1122 C1128 0.949 . S
C1123 H1118 0.950 . S
C1123 C1125 1.327 . S
C1123 C1129 1.429 . S
C1124 C1116 1.574 . S
C1124 H1119 0.949 . S
C1124 C1130 1.368 . S
C1125 C1109 1.349 . S
C1125 H1117 0.950 . S
C1125 C1123 1.327 . S
C1126 C1114 1.349 . S
C1126 H1120 0.950 . S
C1126 C1127 1.327 . S
C1127 H1121 0.950 . S
C1127 C1126 1.327 . S
C1127 C1131 1.429 . S
C1128 C1111 1.574 . S
C1128 H1122 0.949 . S
C1128 C1132 1.368 . S
C1129 C1110 1.429 . S
C1129 C1123 1.429 . S
C1129 C1130 1.523 . S
C1130 C1111 1.368 . S
C1130 C1124 1.368 . S
C1130 C1129 1.523 . S
C1131 C1115 1.429 . S
C1131 C1127 1.429 . S
C1131 C1132 1.523 . S
C1132 C1116 1.368 . S
C1132 C1128 1.368 . S
C1132 C1131 1.523 . S
H1133 C1108 0.950 . S
H1134 C1110 0.950 . S
H1135 C1111 0.949 . S
H1136 C1113 0.950 . S
H1137 C1115 0.950 . S
C1138 C1139 1.349 . S
C1138 C1140 1.327 . S
C1138 H1163 0.950 . S
C1139 C1138 1.349 . S
C1139 C1155 1.349 . S
C1140 C1138 1.327 . S
C1140 C1159 1.429 . S
C1140 H1164 0.950 . S
C1141 C1158 1.574 . S
C1141 C1160 1.368 . S
C1141 H1165 0.949 . S
H1142 C1146 0.949 . S
C1143 C1144 1.349 . S
C1143 C1145 1.327 . S
C1143 H1166 0.950 . S
C1144 C1143 1.349 . S
C1144 C1156 1.349 . S
C1145 C1143 1.327 . S
C1145 C1161 1.429 . S
C1145 H1167 0.950 . S
C1146 H1142 0.949 . S
C1146 C1154 1.574 . S
C1146 C1162 1.368 . S
H1147 C1155 0.950 . S
H1148 C1153 0.950 . S
H1149 C1154 0.949 . S
H1150 C1156 0.950 . S
H1151 C1157 0.950 . S
H1152 C1158 0.949 . S
C1153 H1148 0.950 . S
C1153 C1155 1.327 . S
C1153 C1159 1.429 . S
C1154 C1146 1.574 . S
C1154 H1149 0.949 . S
C1154 C1160 1.368 . S
C1155 C1139 1.349 . S
C1155 H1147 0.950 . S
C1155 C1153 1.327 . S
C1156 C1144 1.349 . S
C1156 H1150 0.950 . S
C1156 C1157 1.327 . S
C1157 H1151 0.950 . S
C1157 C1156 1.327 . S
C1157 C1161 1.429 . S
C1158 C1141 1.574 . S
C1158 H1152 0.949 . S
C1158 C1162 1.368 . S
C1159 C1140 1.429 . S
C1159 C1153 1.429 . S
C1159 C1160 1.523 . S
C1160 C1141 1.368 . S
C1160 C1154 1.368 . S
C1160 C1159 1.523 . S
C1161 C1145 1.429 . S
C1161 C1157 1.429 . S
C1161 C1162 1.523 . S
C1162 C1146 1.368 . S
C1162 C1158 1.368 . S
C1162 C1161 1.523 . S
H1163 C1138 0.950 . S
H1164 C1140 0.950 . S
H1165 C1141 0.949 . S
H1166 C1143 0.950 . S
H1167 C1145 0.950 . S
C1168 C1169 1.349 . S
C1168 C1170 1.327 . S
C1168 H1193 0.950 . S
C1169 C1168 1.349 . S
C1169 C1185 1.349 . S
C1170 C1168 1.327 . S
C1170 C1189 1.429 . S
C1170 H1194 0.950 . S
C1171 C1188 1.574 . S
C1171 C1190 1.368 . S
C1171 H1195 0.949 . S
H1172 C1176 0.949 . S
C1173 C1174 1.349 . S
C1173 C1175 1.327 . S
C1173 H1196 0.950 . S
C1174 C1173 1.349 . S
C1174 C1186 1.349 . S
C1175 C1173 1.327 . S
C1175 C1191 1.429 . S
C1175 H1197 0.950 . S
C1176 H1172 0.949 . S
C1176 C1184 1.574 . S
C1176 C1192 1.368 . S
H1177 C1185 0.950 . S
H1178 C1183 0.950 . S
H1179 C1184 0.949 . S
H1180 C1186 0.950 . S
H1181 C1187 0.950 . S
H1182 C1188 0.949 . S
C1183 H1178 0.950 . S
C1183 C1185 1.327 . S
C1183 C1189 1.429 . S
C1184 C1176 1.574 . S
C1184 H1179 0.949 . S
C1184 C1190 1.368 . S
C1185 C1169 1.349 . S
C1185 H1177 0.950 . S
C1185 C1183 1.327 . S
C1186 C1174 1.349 . S
C1186 H1180 0.950 . S
C1186 C1187 1.327 . S
C1187 H1181 0.950 . S
C1187 C1186 1.327 . S
C1187 C1191 1.429 . S
C1188 C1171 1.574 . S
C1188 H1182 0.949 . S
C1188 C1192 1.368 . S
C1189 C1170 1.429 . S
C1189 C1183 1.429 . S
C1189 C1190 1.523 . S
C1190 C1171 1.368 . S
C1190 C1184 1.368 . S
C1190 C1189 1.523 . S
C1191 C1175 1.429 . S
C1191 C1187 1.429 . S
C1191 C1192 1.523 . S
C1192 C1176 1.368 . S
C1192 C1188 1.368 . S
C1192 C1191 1.523 . S
H1193 C1168 0.950 . S
H1194 C1170 0.950 . S
H1195 C1171 0.949 . S
H1196 C1173 0.950 . S
H1197 C1175 0.950 . S
C1198 C1199 1.349 . S
C1198 C1200 1.327 . S
C1198 H1223 0.950 . S
C1199 C1198 1.349 . S
C1199 C1215 1.349 . S
C1200 C1198 1.327 . S
C1200 C1219 1.429 . S
C1200 H1224 0.950 . S
C1201 C1218 1.574 . S
C1201 C1220 1.368 . S
C1201 H1225 0.949 . S
H1202 C1206 0.949 . S
C1203 C1204 1.349 . S
C1203 C1205 1.327 . S
C1203 H1226 0.950 . S
C1204 C1203 1.349 . S
C1204 C1216 1.349 . S
C1205 C1203 1.327 . S
C1205 C1221 1.429 . S
C1205 H1227 0.950 . S
C1206 H1202 0.949 . S
C1206 C1214 1.574 . S
C1206 C1222 1.368 . S
H1207 C1215 0.950 . S
H1208 C1213 0.950 . S
H1209 C1214 0.949 . S
H1210 C1216 0.950 . S
H1211 C1217 0.950 . S
H1212 C1218 0.949 . S
C1213 H1208 0.950 . S
C1213 C1215 1.327 . S
C1213 C1219 1.429 . S
C1214 C1206 1.574 . S
C1214 H1209 0.949 . S
C1214 C1220 1.368 . S
C1215 C1199 1.349 . S
C1215 H1207 0.950 . S
C1215 C1213 1.327 . S
C1216 C1204 1.349 . S
C1216 H1210 0.950 . S
C1216 C1217 1.327 . S
C1217 H1211 0.950 . S
C1217 C1216 1.327 . S
C1217 C1221 1.429 . S
C1218 C1201 1.574 . S
C1218 H1212 0.949 . S
C1218 C1222 1.368 . S
C1219 C1200 1.429 . S
C1219 C1213 1.429 . S
C1219 C1220 1.523 . S
C1220 C1201 1.368 . S
C1220 C1214 1.368 . S
C1220 C1219 1.523 . S
C1221 C1205 1.429 . S
C1221 C1217 1.429 . S
C1221 C1222 1.523 . S
C1222 C1206 1.368 . S
C1222 C1218 1.368 . S
C1222 C1221 1.523 . S
H1223 C1198 0.950 . S
H1224 C1200 0.950 . S
H1225 C1201 0.949 . S
H1226 C1203 0.950 . S
H1227 C1205 0.950 . S
C1228 C1229 1.349 . S
C1228 C1230 1.327 . S
C1228 H1253 0.950 . S
C1229 C1228 1.349 . S
C1229 C1245 1.349 . S
C1230 C1228 1.327 . S
C1230 C1249 1.429 . S
C1230 H1254 0.950 . S
C1231 C1248 1.574 . S
C1231 C1250 1.368 . S
C1231 H1255 0.949 . S
H1232 C1236 0.949 . S
C1233 C1234 1.349 . S
C1233 C1235 1.327 . S
C1233 H1256 0.950 . S
C1234 C1233 1.349 . S
C1234 C1246 1.349 . S
C1235 C1233 1.327 . S
C1235 C1251 1.429 . S
C1235 H1257 0.950 . S
C1236 H1232 0.949 . S
C1236 C1244 1.574 . S
C1236 C1252 1.368 . S
H1237 C1245 0.950 . S
H1238 C1243 0.950 . S
H1239 C1244 0.949 . S
H1240 C1246 0.950 . S
H1241 C1247 0.950 . S
H1242 C1248 0.949 . S
C1243 H1238 0.950 . S
C1243 C1245 1.327 . S
C1243 C1249 1.429 . S
C1244 C1236 1.574 . S
C1244 H1239 0.949 . S
C1244 C1250 1.368 . S
C1245 C1229 1.349 . S
C1245 H1237 0.950 . S
C1245 C1243 1.327 . S
C1246 C1234 1.349 . S
C1246 H1240 0.950 . S
C1246 C1247 1.327 . S
C1247 H1241 0.950 . S
C1247 C1246 1.327 . S
C1247 C1251 1.429 . S
C1248 C1231 1.574 . S
C1248 H1242 0.949 . S
C1248 C1252 1.368 . S
C1249 C1230 1.429 . S
C1249 C1243 1.429 . S
C1249 C1250 1.523 . S
C1250 C1231 1.368 . S
C1250 C1244 1.368 . S
C1250 C1249 1.523 . S
C1251 C1235 1.429 . S
C1251 C1247 1.429 . S
C1251 C1252 1.523 . S
C1252 C1236 1.368 . S
C1252 C1248 1.368 . S
C1252 C1251 1.523 . S
H1253 C1228 0.950 . S
H1254 C1230 0.950 . S
H1255 C1231 0.949 . S
H1256 C1233 0.950 . S
H1257 C1235 0.950 . S
C1258 C1259 1.349 . S
C1258 C1260 1.327 . S
C1258 H1283 0.950 . S
C1259 C1258 1.349 . S
C1259 C1275 1.349 . S
C1260 C1258 1.327 . S
C1260 C1279 1.429 . S
C1260 H1284 0.950 . S
C1261 C1278 1.574 . S
C1261 C1280 1.368 . S
C1261 H1285 0.949 . S
H1262 C1266 0.949 . S
C1263 C1264 1.349 . S
C1263 C1265 1.327 . S
C1263 H1286 0.950 . S
C1264 C1263 1.349 . S
C1264 C1276 1.349 . S
C1265 C1263 1.327 . S
C1265 C1281 1.429 . S
C1265 H1287 0.950 . S
C1266 H1262 0.949 . S
C1266 C1274 1.574 . S
C1266 C1282 1.368 . S
H1267 C1275 0.950 . S
H1268 C1273 0.950 . S
H1269 C1274 0.949 . S
H1270 C1276 0.950 . S
H1271 C1277 0.950 . S
H1272 C1278 0.949 . S
C1273 H1268 0.950 . S
C1273 C1275 1.327 . S
C1273 C1279 1.429 . S
C1274 C1266 1.574 . S
C1274 H1269 0.949 . S
C1274 C1280 1.368 . S
C1275 C1259 1.349 . S
C1275 H1267 0.950 . S
C1275 C1273 1.327 . S
C1276 C1264 1.349 . S
C1276 H1270 0.950 . S
C1276 C1277 1.327 . S
C1277 H1271 0.950 . S
C1277 C1276 1.327 . S
C1277 C1281 1.429 . S
C1278 C1261 1.574 . S
C1278 H1272 0.949 . S
C1278 C1282 1.368 . S
C1279 C1260 1.429 . S
C1279 C1273 1.429 . S
C1279 C1280 1.523 . S
C1280 C1261 1.368 . S
C1280 C1274 1.368 . S
C1280 C1279 1.523 . S
C1281 C1265 1.429 . S
C1281 C1277 1.429 . S
C1281 C1282 1.523 . S
C1282 C1266 1.368 . S
C1282 C1278 1.368 . S
C1282 C1281 1.523 . S
H1283 C1258 0.950 . S
H1284 C1260 0.950 . S
H1285 C1261 0.949 . S
H1286 C1263 0.950 . S
H1287 C1265 0.950 . S
C569 C8 1.225 . S
C574 C89 1.152 . S
C599 C31 1.225 . S
C604 C168 1.241 . S
C629 C53 1.225 . S
C634 C239 1.239 . S
C664 C299 1.241 . S
C659 C74 1.225 . S
C694 C329 1.154 . S
C689 C26 1.225 . S
C719 C48 1.225 . S
C724 C419 1.244 . S
C749 C71 1.225 . S
C754 C479 1.241 . S
C779 C5 1.225 . S
C784 C528 1.244 . S
C809 C50 1.225 . S
C814 C509 1.157 . S
C844 C348 1.241 . S
C839 C70 1.225 . S
C874 C408 1.155 . S
C869 C4 1.230 . S
C899 C28 1.225 . S
C904 C468 1.155 . S
C934 C149 1.155 . S
C929 C73 1.225 . S
C959 C7 1.225 . S
C964 C228 1.153 . S
C994 C288 1.155 . S
C989 C30 1.225 . S
C1024 C108 1.241 . S
C1019 C52 1.221 . S
C1054 C449 0.907 . S
C1049 C9 0.908 . S
C1084 C539 0.907 . S
C1079 C29 0.913 . S
C1109 C51 0.913 . S
C1114 C359 0.900 . S
C1144 C389 0.907 . S
C1139 C75 0.913 . S
C1174 C209 0.907 . S
C1169 C27 0.913 . S
C1199 C49 0.913 . S
C1204 C269 0.912 . S
C1234 C119 0.904 . S
C1229 C72 0.913 . S
C1264 C179 0.907 . S
C1259 C6 0.918 . S
