# Generated by pormake.
# Topology pth, (4,4)-cn, num edge types: 1
# Building blocks:
#     Node 0, Type 0, BuildingBlock: GALJAG_clean_sbu_0, # of connection points: 4
#     Node 1, Type 0, BuildingBlock: GALJAG_clean_sbu_0, # of connection points: 4
#     Node 2, Type 0, BuildingBlock: GALJAG_clean_sbu_0, # of connection points: 4
#     Node 3, Type 1, BuildingBlock: MUDLON_clean_linker_0, # of connection points: 4
#     Node 4, Type 1, BuildingBlock: MUDLON_clean_linker_0, # of connection points: 4
#     Node 5, Type 1, BuildingBlock: MUDLON_clean_linker_0, # of connection points: 4
#     Edge 6, Type (0, 1), BuildingBlock: EZIPEK_clean_linker_0, # of connection points: 2
#     Edge 7, Type (0, 1), BuildingBlock: EZIPEK_clean_linker_0, # of connection points: 2
#     Edge 8, Type (0, 1), BuildingBlock: EZIPEK_clean_linker_0, # of connection points: 2
#     Edge 9, Type (0, 1), BuildingBlock: EZIPEK_clean_linker_0, # of connection points: 2
#     Edge 10, Type (0, 1), BuildingBlock: EZIPEK_clean_linker_0, # of connection points: 2
#     Edge 11, Type (0, 1), BuildingBlock: EZIPEK_clean_linker_0, # of connection points: 2
#     Edge 12, Type (0, 1), BuildingBlock: EZIPEK_clean_linker_0, # of connection points: 2
#     Edge 13, Type (0, 1), BuildingBlock: EZIPEK_clean_linker_0, # of connection points: 2
#     Edge 14, Type (0, 1), BuildingBlock: EZIPEK_clean_linker_0, # of connection points: 2
#     Edge 15, Type (0, 1), BuildingBlock: EZIPEK_clean_linker_0, # of connection points: 2
#     Edge 16, Type (0, 1), BuildingBlock: EZIPEK_clean_linker_0, # of connection points: 2
#     Edge 17, Type (0, 1), BuildingBlock: EZIPEK_clean_linker_0, # of connection points: 2
# Relax obj value: 0.017
# Max RMSD: 0.066
# Mean RMSD: 0.062
data_MOF--net-pth--node1-GALJAG_clean_sbu_0--node2-MUDLON_clean_linker_0--edge1-EZIPEK_clean_linker_0
_symmetry_space_group_name_H-M    P1
_symmetry_Int_Tables_number       1
_symmetry_cell_setting            triclinic
loop_
_symmetry_equiv_pos_as_xyz
'x, y, z'
_cell_length_a     27.431975
_cell_length_b     27.427885
_cell_length_c     52.875192
_cell_angle_alpha  90.139315
_cell_angle_beta   90.169981
_cell_angle_gamma 120.02615
loop_
_atom_site_label
_atom_site_type_symbol
_atom_site_fract_x
_atom_site_fract_y
_atom_site_fract_z
_atom_type_partial_charge
In0 In 0.99955 0.98755 0.02775 0.0
O1 O 0.95758 0.03488 0.04397 0.0
O2 O 0.03578 0.05054 0.05986 0.0
C3 C 0.90922 0.92004 0.99871 0.0
C4 C 0.0825 0.06398 0.99858 0.0
C5 C 0.0144 0.91259 0.05482 0.0
O6 O 0.90481 0.92713 0.022 0.0
O7 O 0.95865 0.94682 0.99029 0.0
O8 O 0.02835 0.92232 0.03186 0.0
O9 O 0.99305 0.9402 0.06378 0.0
C10 C 0.99646 0.06173 0.05993 0.0
O11 O 0.08914 0.02937 0.01179 0.0
O12 O 0.03475 0.05983 9e-05 0.0
In13 In 0.98805 0.98243 0.36019 0.0
O14 O 0.03671 0.07269 0.34572 0.0
O15 O 0.95825 0.01652 0.32807 0.0
C16 C 0.06692 0.98889 0.39264 0.0
C17 C 0.90789 0.97904 0.39058 0.0
C18 C 0.98165 0.90196 0.3288 0.0
O19 O 0.0168 0.94861 0.39286 0.0
O20 O 0.07763 0.02565 0.37595 0.0
O21 O 0.94548 0.89105 0.34583 0.0
O22 O 0.02008 0.9527 0.32759 0.0
C23 C 0.00077 0.06532 0.32897 0.0
O24 O 0.89629 0.94316 0.3732 0.0
O25 O 0.95917 0.01577 0.39262 0.0
In26 In 0.98708 0.98737 0.69665 0.0
O27 O 0.9396 0.8959 0.7106 0.0
O28 O 0.92551 0.95656 0.72926 0.0
C29 C 0.06452 0.98513 0.66624 0.0
C30 C 0.9143 0.99265 0.66405 0.0
C31 C 0.05564 0.07119 0.72819 0.0
O32 O 0.04758 0.01986 0.66361 0.0
O33 O 0.04233 0.95075 0.68418 0.0
O34 O 0.02403 0.07651 0.71243 0.0
O35 O 0.05305 0.02398 0.72804 0.0
C36 C 0.91406 0.90609 0.72778 0.0
O37 O 0.94267 0.03131 0.67982 0.0
O38 O 0.92199 0.95101 0.66484 0.0
H39 H 0.9685 0.68461 0.20304 0.0
N40 N 0.07783 0.71126 0.19576 0.0
H41 H 0.93414 0.72014 0.23729 0.0
H42 H 0.1345 0.769 0.23637 0.0
H43 H 0.10045 0.80547 0.27037 0.0
H44 H 0.13714 0.81648 0.17976 0.0
H45 H 0.11941 0.85786 0.14225 0.0
H46 H 0.99851 0.65349 0.15891 0.0
H47 H 0.98243 0.69441 0.1207 0.0
H48 H 0.98678 0.60719 0.2064 0.0
H49 H 0.16068 0.69283 0.18351 0.0
H50 H 0.9857 0.51788 0.20681 0.0
H51 H 0.15931 0.60317 0.18246 0.0
H52 H 0.9862 0.30528 0.22387 0.0
H53 H 0.9647 0.23911 0.25906 0.0
H54 H 0.12667 0.2514 0.25012 0.0
H55 H 0.14778 0.31689 0.21479 0.0
H56 H 0.97122 0.26584 0.18125 0.0
H57 H 0.94379 0.19772 0.14655 0.0
H58 H 0.11584 0.27961 0.12105 0.0
H59 H 0.14346 0.34828 0.15583 0.0
H60 H 0.98857 0.35958 0.18139 0.0
H61 H 0.98697 0.44756 0.18136 0.0
H62 H 0.15811 0.53518 0.20971 0.0
N63 N 0.07922 0.34681 0.19357 0.0
H64 H 0.16012 0.44725 0.2083 0.0
C65 C 0.05421 0.72419 0.2173 0.0
C66 C 0.99718 0.70963 0.21803 0.0
C67 C 0.97762 0.72997 0.23747 0.0
C68 C 0.01495 0.76566 0.25617 0.0
C69 C 0.07112 0.77797 0.25607 0.0
C70 C 0.09049 0.75723 0.23679 0.0
C71 C 0.0696 0.73209 0.17206 0.0
C72 C 0.1037 0.78952 0.1668 0.0
C73 C 0.09358 0.813 0.14548 0.0
C74 C 0.04951 0.7792 0.12879 0.0
C75 C 0.01658 0.72113 0.13341 0.0
C76 C 0.02592 0.69781 0.15514 0.0
C77 C 0.07442 0.65709 0.19536 0.0
C78 C 0.02478 0.6069 0.2014 0.0
C79 C 0.02405 0.55552 0.20135 0.0
C80 C 0.07258 0.55314 0.1949 0.0
C81 C 0.12154 0.60337 0.18818 0.0
C82 C 0.12239 0.65465 0.18855 0.0
C83 C 0.06869 0.31575 0.21673 0.0
C84 C 0.01745 0.29457 0.22979 0.0
C85 C 0.00522 0.25698 0.24983 0.0
C86 C 0.04417 0.24056 0.25704 0.0
C87 C 0.0963 0.26387 0.24481 0.0
C88 C 0.10836 0.30114 0.22479 0.0
C89 C 0.05969 0.31237 0.1711 0.0
C90 C 0.00291 0.27031 0.16789 0.0
C91 C 0.98716 0.23133 0.14812 0.0
C92 C 0.02791 0.23372 0.13142 0.0
C93 C 0.08391 0.27736 0.13377 0.0
C94 C 0.0996 0.31642 0.15349 0.0
C95 C 0.07509 0.39709 0.19444 0.0
C96 C 0.02588 0.39764 0.18742 0.0
C97 C 0.02485 0.44815 0.18765 0.0
C98 C 0.07263 0.49884 0.19528 0.0
C99 C 0.12101 0.49745 0.20307 0.0
C100 C 0.12217 0.44719 0.20251 0.0
H101 H 0.80609 0.12773 0.54623 0.0
N102 N 0.70719 0.05843 0.52533 0.0
H103 H 0.85099 0.10823 0.58203 0.0
H104 H 0.65721 0.96537 0.55564 0.0
H105 H 0.70233 0.94557 0.59139 0.0
H106 H 0.67938 0.95063 0.51241 0.0
H107 H 0.71878 0.9236 0.47717 0.0
H108 H 0.76989 0.12348 0.48785 0.0
H109 H 0.81006 0.09642 0.45267 0.0
H110 H 0.68835 0.13942 0.5404 0.0
H111 H 0.60323 0.96775 0.51365 0.0
H112 H 0.59847 0.1373 0.54268 0.0
H113 H 0.51357 0.96602 0.51449 0.0
H114 H 0.34339 0.12635 0.56662 0.0
H115 H 0.27722 0.10226 0.60196 0.0
H116 H 0.19919 0.92666 0.58153 0.0
H117 H 0.26419 0.95074 0.54601 0.0
H118 H 0.29355 0.96108 0.50241 0.0
H119 H 0.22788 0.94054 0.46683 0.0
H120 H 0.25247 0.10827 0.47252 0.0
H121 H 0.31732 0.12839 0.50828 0.0
H122 H 0.44247 0.1399 0.51793 0.0
H123 H 0.53053 0.13831 0.51596 0.0
H124 H 0.44309 0.96493 0.5407 0.0
N125 N 0.34192 0.05745 0.53099 0.0
H126 H 0.35494 0.96631 0.54125 0.0
C127 C 0.72861 0.04817 0.54835 0.0
C128 C 0.78283 0.08841 0.55636 0.0
C129 C 0.80832 0.07727 0.57664 0.0
C130 C 0.77983 0.02554 0.58922 0.0
C131 C 0.7247 0.9858 0.58189 0.0
C132 C 0.6991 0.99707 0.56155 0.0
C133 C 0.72165 0.03932 0.50267 0.0
C134 C 0.70647 0.98255 0.49911 0.0
C135 C 0.72902 0.96705 0.47905 0.0
C136 C 0.76743 0.00813 0.46249 0.0
C137 C 0.78036 0.06422 0.46527 0.0
C138 C 0.7575 0.0796 0.48522 0.0
C139 C 0.65284 0.05434 0.52653 0.0
C140 C 0.6502 0.10144 0.53481 0.0
C141 C 0.59879 0.1002 0.53588 0.0
C142 C 0.54862 0.05173 0.5284 0.0
C143 C 0.55119 0.00396 0.52055 0.0
C144 C 0.60274 0.00507 0.51981 0.0
C145 C 0.30912 0.04059 0.55381 0.0
C146 C 0.31289 0.08259 0.57017 0.0
C147 C 0.27523 0.06889 0.59021 0.0
C148 C 0.23338 0.01276 0.5942 0.0
C149 C 0.2314 0.97017 0.57872 0.0
C150 C 0.26873 0.98398 0.55852 0.0
C151 C 0.30997 0.04633 0.50798 0.0
C152 C 0.28541 0.99362 0.49577 0.0
C153 C 0.24817 0.98196 0.47549 0.0
C154 C 0.23554 0.02298 0.46718 0.0
C155 C 0.26198 0.07628 0.47868 0.0
C156 C 0.29885 0.08775 0.49895 0.0
C157 C 0.3924 0.05378 0.53005 0.0
C158 C 0.4425 0.1016 0.52285 0.0
C159 C 0.49282 0.10064 0.52196 0.0
C160 C 0.49428 0.05169 0.52853 0.0
C161 C 0.44361 0.00327 0.53536 0.0
C162 C 0.39303 0.00414 0.53593 0.0
H163 H 0.67692 0.82022 0.87527 0.0
N164 N 0.63133 0.71361 0.86087 0.0
H165 H 0.74011 0.8663 0.91138 0.0
H166 H 0.65633 0.66043 0.89878 0.0
H167 H 0.71718 0.70602 0.93533 0.0
H168 H 0.71322 0.68619 0.8529 0.0
H169 H 0.78239 0.72165 0.81848 0.0
H170 H 0.63045 0.76976 0.82033 0.0
H171 H 0.70009 0.80599 0.78614 0.0
H172 H 0.52762 0.69657 0.86253 0.0
H173 H 0.62093 0.60873 0.86018 0.0
H174 H 0.43944 0.60687 0.86331 0.0
H175 H 0.53347 0.51876 0.86265 0.0
H176 H 0.17098 0.3091 0.8909 0.0
H177 H 0.1383 0.24182 0.92603 0.0
H178 H 0.29574 0.24232 0.92538 0.0
H179 H 0.32843 0.3097 0.89009 0.0
H180 H 0.287 0.26622 0.8479 0.0
H181 H 0.23911 0.20241 0.8123 0.0
H182 H 0.15229 0.293 0.79524 0.0
H183 H 0.19966 0.35662 0.83127 0.0
H184 H 0.29276 0.44364 0.88892 0.0
H185 H 0.38289 0.53131 0.88913 0.0
H186 H 0.45251 0.45407 0.84078 0.0
N187 N 0.26622 0.34815 0.86548 0.0
H188 H 0.3635 0.36577 0.8422 0.0
C189 C 0.66145 0.73695 0.88425 0.0
C190 C 0.68486 0.79492 0.88852 0.0
C191 C 0.72083 0.82112 0.90904 0.0
C192 C 0.73337 0.78953 0.92593 0.0
C193 C 0.70796 0.73104 0.92245 0.0
C194 C 0.67296 0.705 0.90156 0.0
C195 C 0.6666 0.72539 0.83903 0.0
C196 C 0.70897 0.71076 0.83799 0.0
C197 C 0.74851 0.73113 0.81846 0.0
C198 C 0.74638 0.76668 0.79997 0.0
C199 C 0.7023 0.77862 0.80027 0.0
C200 C 0.66268 0.75799 0.81966 0.0
C201 C 0.58068 0.65947 0.86161 0.0
C202 C 0.52893 0.65775 0.86252 0.0
C203 C 0.47863 0.60633 0.8632 0.0
C204 C 0.47901 0.55517 0.86338 0.0
C205 C 0.53124 0.55706 0.86228 0.0
C206 C 0.58155 0.60867 0.86114 0.0
C207 C 0.25189 0.31435 0.88798 0.0
C208 C 0.19874 0.29541 0.89863 0.0
C209 C 0.18016 0.25708 0.91852 0.0
C210 C 0.21455 0.23705 0.92806 0.0
C211 C 0.26872 0.2574 0.91813 0.0
C212 C 0.28731 0.2958 0.89812 0.0
C213 C 0.24645 0.31606 0.84234 0.0
C214 C 0.25849 0.27313 0.83632 0.0
C215 C 0.23133 0.23678 0.816 0.0
C216 C 0.19226 0.24315 0.80132 0.0
C217 C 0.18256 0.28779 0.80638 0.0
C218 C 0.20948 0.32393 0.82682 0.0
C219 C 0.32083 0.39843 0.86529 0.0
C220 C 0.32771 0.44574 0.87851 0.0
C221 C 0.3792 0.49597 0.87838 0.0
C222 C 0.42508 0.50041 0.86461 0.0
C223 C 0.41846 0.45237 0.85176 0.0
C224 C 0.36708 0.40171 0.85231 0.0
C225 C 0.00409 0.15513 0.06915 0.0
C226 C 0.99637 0.10289 0.07794 0.0
C227 C 0.00788 0.13592 0.12175 0.0
C228 C 0.0134 0.18741 0.11309 0.0
N229 N 0.00618 0.24248 0.07943 0.0
N230 N 0.97802 0.03842 0.11225 0.0
C231 C 0.00808 0.19586 0.08701 0.0
C232 C 0.99427 0.09172 0.10417 0.0
N233 N 0.01054 0.16695 0.04386 0.0
N234 N 0.01811 0.13013 0.14659 0.0
H235 H 0.96712 0.00487 0.09982 0.0
H236 H 0.9701 0.02618 0.13111 0.0
H237 H 0.02796 0.16132 0.1602 0.0
H238 H 0.02124 0.0962 0.15339 0.0
H239 H 0.02296 0.20666 0.03654 0.0
H240 H 0.00737 0.13804 0.03018 0.0
H241 H 0.99669 0.24837 0.061 0.0
H242 H 0.00948 0.27327 0.09207 0.0
C243 C 0.87175 0.97028 0.43437 0.0
C244 C 0.8656 0.9775 0.40828 0.0
C245 C 0.78667 0.99264 0.41761 0.0
C246 C 0.79859 0.99379 0.4438 0.0
N247 N 0.85736 0.99095 0.47727 0.0
N248 N 0.82047 0.99978 0.37466 0.0
C249 C 0.84222 0.98417 0.45228 0.0
C250 C 0.82348 0.9892 0.39969 0.0
N251 N 0.90488 0.9488 0.44196 0.0
N252 N 0.73982 0.99415 0.40994 0.0
H253 H 0.84631 0.99708 0.36097 0.0
H254 H 0.79507 0.01494 0.36768 0.0
H255 H 0.71222 0.99686 0.42264 0.0
H256 H 0.72571 0.98789 0.39127 0.0
H257 H 0.90701 0.93765 0.46058 0.0
H258 H 0.92565 0.93651 0.42917 0.0
H259 H 0.89303 0.99083 0.48399 0.0
H260 H 0.83721 0.00154 0.49111 0.0
C261 C 0.82276 0.81792 0.73741 0.0
C262 C 0.87511 0.86328 0.74581 0.0
C263 C 0.84495 0.84233 0.78986 0.0
C264 C 0.79291 0.79616 0.7816 0.0
N265 N 0.73691 0.732 0.74842 0.0
N266 N 0.94215 0.9085 0.77957 0.0
C267 C 0.78339 0.78129 0.75561 0.0
C268 C 0.88812 0.87218 0.77194 0.0
N269 N 0.80939 0.81168 0.71224 0.0
N270 N 0.85219 0.8597 0.81455 0.0
H271 H 0.97504 0.92973 0.76679 0.0
H272 H 0.95545 0.91299 0.79833 0.0
H273 H 0.82166 0.83938 0.82839 0.0
H274 H 0.88671 0.89704 0.82091 0.0
H275 H 0.76942 0.78355 0.70524 0.0
H276 H 0.83726 0.83734 0.69834 0.0
H277 H 0.73021 0.71604 0.73006 0.0
H278 H 0.7074 0.70444 0.76138 0.0
C279 C 0.07313 0.87222 0.07183 0.0
C280 C 0.02095 0.87133 0.07045 0.0
C281 C 0.98604 0.80753 0.10665 0.0
C282 C 0.03695 0.80593 0.10721 0.0
N283 N 0.12217 0.82426 0.08606 0.0
N284 N 0.9223 0.82386 0.08118 0.0
C285 C 0.07826 0.83415 0.08832 0.0
C286 C 0.97562 0.83434 0.08616 0.0
N287 N 0.11893 0.9116 0.05884 0.0
N288 N 0.94897 0.78649 0.1263 0.0
H289 H 0.91262 0.84082 0.06561 0.0
H290 H 0.88699 0.79339 0.09073 0.0
H291 H 0.95551 0.76809 0.14221 0.0
H292 H 0.91433 0.79224 0.12792 0.0
H293 H 0.15929 0.91777 0.06147 0.0
H294 H 0.11807 0.94169 0.04717 0.0
H295 H 0.15064 0.8396 0.07114 0.0
H296 H 0.12665 0.79599 0.09766 0.0
C297 C 0.09941 0.99931 0.43762 0.0
C298 C 0.10913 0.99452 0.41163 0.0
C299 C 0.20245 0.00818 0.42186 0.0
C300 C 0.19099 0.00922 0.44794 0.0
N301 N 0.12438 0.99354 0.48102 0.0
N302 N 0.16475 0.98385 0.3792 0.0
C303 C 0.13804 0.00085 0.45592 0.0
C304 C 0.15925 0.99595 0.40377 0.0
N305 N 0.05501 0.00566 0.44475 0.0
N306 N 0.25508 0.02067 0.41437 0.0
H307 H 0.13373 0.97425 0.36551 0.0
H308 H 0.19768 0.9785 0.37287 0.0
H309 H 0.2874 0.02885 0.42713 0.0
H310 H 0.26793 0.02683 0.39557 0.0
H311 H 0.04923 0.01528 0.46316 0.0
H312 H 0.0269 0.00697 0.43185 0.0
H313 H 0.08421 0.98143 0.48769 0.0
H314 H 0.15164 0.99438 0.49503 0.0
C315 C 0.07308 0.1092 0.77231 0.0
C316 C 0.09043 0.11575 0.74668 0.0
C317 C 0.17592 0.20492 0.75697 0.0
C318 C 0.15726 0.1996 0.78233 0.0
N319 N 0.08623 0.15104 0.81406 0.0
N320 N 0.15433 0.17099 0.71357 0.0
C321 C 0.10533 0.15284 0.78999 0.0
C322 C 0.14069 0.16408 0.73868 0.0
N323 N 0.02589 0.06093 0.77973 0.0
N324 N 0.22796 0.24831 0.75061 0.0
H325 H 0.13086 0.14074 0.69986 0.0
H326 H 0.18696 0.2078 0.70596 0.0
H327 H 0.25404 0.27971 0.7634 0.0
H328 H 0.247 0.25173 0.73321 0.0
H329 H 0.01467 0.04991 0.79851 0.0
H330 H 0.9988 0.02997 0.76704 0.0
H331 H 0.04598 0.12181 0.82013 0.0
H332 H 0.10947 0.18112 0.82787 0.0
C333 C 0.8884 0.99637 0.61891 0.0
C334 C 0.87724 0.99743 0.64504 0.0
C335 C 0.80114 0.01652 0.63474 0.0
C336 C 0.81011 0.01181 0.60867 0.0
N337 N 0.85354 0.9853 0.57593 0.0
N338 N 0.81664 0.99764 0.67794 0.0
C339 C 0.85096 0.99782 0.60077 0.0
C340 C 0.83173 0.00441 0.65302 0.0
N341 N 0.93658 0.99746 0.61138 0.0
N342 N 0.76475 0.03427 0.642 0.0
H343 H 0.83765 0.98803 0.69179 0.0
H344 H 0.7804 0.99656 0.68456 0.0
H345 H 0.7408 0.04237 0.62912 0.0
H346 H 0.76118 0.04475 0.66057 0.0
H347 H 0.94984 0.00271 0.59264 0.0
H348 H 0.96641 0.99887 0.62405 0.0
H349 H 0.87843 0.96905 0.56953 0.0
H350 H 0.82688 0.98614 0.56204 0.0
C351 C 0.86683 0.84461 0.96569 0.0
C352 C 0.86094 0.88203 0.9823 0.0
C353 C 0.76587 0.84848 0.96558 0.0
C354 C 0.77594 0.81862 0.94626 0.0
N355 N 0.84126 0.79727 0.92521 0.0
N356 N 0.80751 0.92607 0.99533 0.0
C357 C 0.82779 0.81892 0.94559 0.0
C358 C 0.81096 0.88548 0.98172 0.0
N359 N 0.90868 0.83214 0.96954 0.0
N360 N 0.71309 0.84086 0.96874 0.0
H361 H 0.8401 0.9555 0.0067 0.0
H362 H 0.77431 0.93402 0.99341 0.0
H363 H 0.67893 0.81345 0.95746 0.0
H364 H 0.70213 0.85735 0.98405 0.0
H365 H 0.91153 0.80115 0.95931 0.0
H366 H 0.93652 0.8479 0.98484 0.0
H367 H 0.88105 0.8019 0.92274 0.0
H368 H 0.81492 0.77976 0.90953 0.0
C369 C 0.97434 0.86796 0.28459 0.0
C370 C 0.97902 0.85959 0.31068 0.0
C371 C 0.99234 0.77976 0.30064 0.0
C372 C 0.99711 0.7944 0.27468 0.0
N373 N 0.999 0.85679 0.24197 0.0
N374 N 0.99576 0.80997 0.3441 0.0
C375 C 0.98925 0.83933 0.26658 0.0
C376 C 0.98813 0.81561 0.31894 0.0
N377 N 0.9546 0.90258 0.27707 0.0
N378 N 0.99135 0.73138 0.30769 0.0
H379 H 0.99237 0.83501 0.35806 0.0
H380 H 0.00911 0.78304 0.35101 0.0
H381 H 0.9943 0.70433 0.29466 0.0
H382 H 0.98261 0.71552 0.32601 0.0
H383 H 0.94539 0.90651 0.25832 0.0
H384 H 0.94171 0.92276 0.28994 0.0
H385 H 0.00021 0.89338 0.23574 0.0
H386 H 0.0106 0.83754 0.22809 0.0
C387 C 0.16116 0.00079 0.65711 0.0
C388 C 0.10582 0.98414 0.64871 0.0
C389 C 0.13378 0.98531 0.60474 0.0
C390 C 0.1886 0.99953 0.61311 0.0
N391 N 0.25164 0.00978 0.64718 0.0
N392 N 0.03559 0.9462 0.61576 0.0
C393 C 0.2014 0.00377 0.63933 0.0
C394 C 0.09095 0.97192 0.62287 0.0
N395 N 0.17597 0.01628 0.68179 0.0
N396 N 0.12323 0.98728 0.57958 0.0
H397 H 0.00306 0.93428 0.62876 0.0
H398 H 0.02155 0.93142 0.59749 0.0
H399 H 0.1535 0.99761 0.56558 0.0
H400 H 0.08583 0.98351 0.57275 0.0
H401 H 0.21727 0.03504 0.68841 0.0
H402 H 0.14747 0.014 0.6954 0.0
H403 H 0.26129 0.0076 0.66605 0.0
H404 H 0.28196 0.01212 0.63459 0.0
C405 C 0.1513 0.16511 0.99009 0.0
C406 C 0.12725 0.10778 0.98283 0.0
C407 C 0.16876 0.13539 0.94071 0.0
C408 C 0.1918 0.1928 0.94777 0.0
N409 N 0.21701 0.26306 0.98026 0.0
N410 N 0.12287 0.03765 0.95395 0.0
C411 C 0.187 0.20786 0.97291 0.0
C412 C 0.13968 0.09274 0.95906 0.0
N413 N 0.13857 0.17851 0.01314 0.0
N414 N 0.1717 0.12161 0.9161 0.0
H415 H 0.10007 0.00525 0.96674 0.0
H416 H 0.13531 0.02447 0.93799 0.0
H417 H 0.19335 0.15158 0.90218 0.0
H418 H 0.14992 0.08068 0.90901 0.0
H419 H 0.14869 0.2191 0.01841 0.0
H420 H 0.11548 0.14829 0.02679 0.0
H421 H 0.21947 0.27664 0.99886 0.0
H422 H 0.24357 0.29513 0.96799 0.0
C423 C 0.0116 0.10002 0.28447 0.0
C424 C 0.00946 0.1097 0.31071 0.0
C425 C 0.0308 0.20621 0.30199 0.0
C426 C 0.02883 0.19492 0.2757 0.0
N427 N 0.00551 0.12788 0.2417 0.0
N428 N 0.00661 0.16778 0.34434 0.0
C429 C 0.01543 0.14073 0.26688 0.0
C430 C 0.01616 0.16167 0.31948 0.0
N431 N 0.01326 0.05348 0.27638 0.0
N432 N 0.04829 0.25976 0.31023 0.0
H433 H 0.99516 0.13582 0.35762 0.0
H434 H 0.00516 0.20252 0.35137 0.0
H435 H 0.05836 0.29314 0.29792 0.0
H436 H 0.05671 0.27199 0.32913 0.0
H437 H 0.0207 0.04721 0.25768 0.0
H438 H 0.01301 0.02378 0.28871 0.0
H439 H 0.98977 0.0873 0.23454 0.0
H440 H 0.00793 0.15666 0.22818 0.0
loop_
_geom_bond_atom_site_label_1
_geom_bond_atom_site_label_2
_geom_bond_distance
_geom_bond_site_symmetry_2
_ccdc_geom_bond_type
In0 O1 2.294 1_455 S
In0 O2 2.326 . S
In0 O6 2.266 1_445 S
In0 O7 2.326 1_444 S
In0 O8 2.266 1_545 S
In0 O9 2.326 1_445 S
In0 O11 2.294 . S
In0 O12 2.302 1_554 S
O1 In0 2.294 1_655 S
O1 C10 1.240 1_655 S
O2 In0 2.326 . S
O2 C10 1.252 . S
C3 O6 1.252 1_556 S
C3 O7 1.260 . S
C4 O11 1.240 1_556 S
C4 O12 1.255 . S
C5 O8 1.253 . S
C5 O9 1.258 1_455 S
O6 In0 2.266 1_665 S
O6 C3 1.252 1_554 S
O7 In0 2.326 1_666 S
O7 C3 1.260 . S
O8 In0 2.266 1_565 S
O8 C5 1.253 . S
O9 In0 2.326 1_665 S
O9 C5 1.258 1_655 S
C10 O1 1.240 1_455 S
C10 O2 1.252 . S
O11 In0 2.294 . S
O11 C4 1.240 1_554 S
O12 In0 2.302 1_556 S
O12 C4 1.255 . S
In13 O14 2.294 . S
In13 O15 2.326 1_455 S
In13 O19 2.266 . S
In13 O20 2.326 1_545 S
In13 O21 2.266 1_445 S
In13 O22 2.326 1_545 S
In13 O24 2.294 1_445 S
In13 O25 2.326 1_455 S
O14 In13 2.294 . S
O14 C23 1.240 1_455 S
O15 In13 2.326 1_655 S
O15 C23 1.252 . S
C16 O19 1.236 1_565 S
C16 O20 1.268 . S
C17 O24 1.240 1_545 S
C17 O25 1.252 . S
C18 O21 1.252 1_455 S
C18 O22 1.260 . S
O19 In13 2.266 . S
O19 C16 1.236 1_545 S
O20 In13 2.326 1_565 S
O20 C16 1.268 . S
O21 In13 2.266 1_665 S
O21 C18 1.252 1_655 S
O22 In13 2.326 1_565 S
O22 C18 1.260 . S
C23 O14 1.240 1_655 S
C23 O15 1.252 . S
O24 In13 2.294 1_665 S
O24 C17 1.240 1_565 S
O25 In13 2.326 1_655 S
O25 C17 1.252 . S
In26 O27 2.294 1_445 S
In26 O28 2.326 1_445 S
In26 O32 2.266 1_545 S
In26 O33 2.326 . S
In26 O34 2.266 . S
In26 O35 2.326 . S
In26 O37 2.294 1_455 S
In26 O38 2.326 1_445 S
O27 In26 2.294 1_665 S
O27 C36 1.240 . S
O28 In26 2.326 1_665 S
O28 C36 1.252 . S
C29 O32 1.252 1_545 S
C29 O33 1.260 . S
C30 O37 1.240 1_565 S
C30 O38 1.252 . S
C31 O34 1.252 . S
C31 O35 1.260 . S
O32 In26 2.266 1_565 S
O32 C29 1.252 1_565 S
O33 In26 2.326 . S
O33 C29 1.260 . S
O34 In26 2.266 . S
O34 C31 1.252 . S
O35 In26 2.326 . S
O35 C31 1.260 . S
C36 O27 1.240 . S
C36 O28 1.252 . S
O37 In26 2.294 1_655 S
O37 C30 1.240 1_545 S
O38 In26 2.326 1_665 S
O38 C30 1.252 . S
H39 C66 0.929 . S
N40 C65 1.433 . S
N40 C71 1.435 . S
N40 C77 1.423 . S
H41 C67 0.930 . S
H42 C70 0.931 . S
H43 C69 0.929 . S
H44 C72 0.930 . S
H45 C73 0.932 . S
H46 C76 0.929 . S
H47 C75 0.931 . S
H48 C78 0.929 . S
H49 C82 0.932 . S
H50 C79 0.931 . S
H51 C81 0.929 1_455 S
H52 C84 0.929 . S
H53 C85 0.930 . S
H54 C87 0.929 . S
H55 C88 0.931 . S
H56 C90 0.930 . S
H57 C91 0.932 . S
H58 C93 0.931 . S
H59 C94 0.929 . S
H60 C96 0.929 . S
H61 C97 0.931 . S
H62 C99 0.929 1_455 S
N63 C83 1.433 . S
N63 C89 1.435 . S
N63 C95 1.423 . S
H64 C100 0.932 . S
C65 N40 1.433 . S
C65 C66 1.363 . S
C65 C70 1.370 1_655 S
C66 H39 0.929 . S
C66 C65 1.363 . S
C66 C67 1.385 . S
C67 H41 0.930 . S
C67 C66 1.385 . S
C67 C68 1.357 . S
C68 C67 1.357 . S
C68 C69 1.406 1_655 S
C69 H43 0.929 . S
C69 C68 1.406 1_455 S
C69 C70 1.391 . S
C70 H42 0.931 . S
C70 C65 1.370 1_455 S
C70 C69 1.391 . S
C71 N40 1.435 . S
C71 C72 1.358 1_655 S
C71 C76 1.371 . S
C72 H44 0.930 . S
C72 C71 1.358 1_455 S
C72 C73 1.405 . S
C73 H45 0.932 . S
C73 C72 1.405 . S
C73 C74 1.383 . S
C74 C73 1.383 . S
C74 C75 1.393 1_455 S
C75 H47 0.931 . S
C75 C74 1.393 1_655 S
C75 C76 1.382 . S
C76 H46 0.929 . S
C76 C71 1.371 . S
C76 C75 1.382 . S
C77 N40 1.423 . S
C77 C78 1.362 . S
C77 C82 1.388 1_655 S
C78 H48 0.929 . S
C78 C77 1.362 . S
C78 C79 1.376 . S
C79 H50 0.931 . S
C79 C78 1.376 . S
C79 C80 1.396 . S
C80 C79 1.396 . S
C80 C81 1.348 . S
C80 C98 1.472 . S
C81 H51 0.929 1_655 S
C81 C80 1.348 . S
C81 C82 1.443 1_655 S
C82 H49 0.932 . S
C82 C77 1.388 1_455 S
C82 C81 1.443 1_455 S
C83 N63 1.433 . S
C83 C84 1.363 . S
C83 C88 1.370 1_655 S
C84 H52 0.929 . S
C84 C83 1.363 . S
C84 C85 1.385 . S
C85 H53 0.930 . S
C85 C84 1.385 . S
C85 C86 1.357 . S
C86 C85 1.357 . S
C86 C87 1.406 1_655 S
C87 H54 0.929 . S
C87 C86 1.406 1_455 S
C87 C88 1.391 . S
C88 H55 0.931 . S
C88 C83 1.370 1_455 S
C88 C87 1.391 . S
C89 N63 1.435 . S
C89 C90 1.358 1_655 S
C89 C94 1.371 . S
C90 H56 0.930 . S
C90 C89 1.358 1_455 S
C90 C91 1.405 . S
C91 H57 0.932 . S
C91 C90 1.405 . S
C91 C92 1.383 . S
C92 C91 1.383 . S
C92 C93 1.393 1_455 S
C93 H58 0.931 . S
C93 C92 1.393 1_655 S
C93 C94 1.382 . S
C94 H59 0.929 . S
C94 C89 1.371 . S
C94 C93 1.382 . S
C95 N63 1.423 . S
C95 C96 1.362 . S
C95 C100 1.388 1_655 S
C96 H60 0.929 . S
C96 C95 1.362 . S
C96 C97 1.376 . S
C97 H61 0.931 . S
C97 C96 1.376 . S
C97 C98 1.396 . S
C98 C80 1.472 . S
C98 C97 1.396 . S
C98 C99 1.348 . S
C99 H62 0.929 1_655 S
C99 C98 1.348 . S
C99 C100 1.443 1_655 S
C100 H64 0.932 . S
C100 C95 1.388 1_455 S
C100 C99 1.443 1_455 S
H101 C128 0.929 . S
N102 C127 1.433 . S
N102 C133 1.435 . S
N102 C139 1.423 . S
H103 C129 0.930 . S
H104 C132 0.931 . S
H105 C131 0.929 . S
H106 C134 0.930 . S
H107 C135 0.932 . S
H108 C138 0.929 . S
H109 C137 0.931 . S
H110 C140 0.929 . S
H111 C144 0.932 1_565 S
H112 C141 0.931 . S
H113 C143 0.929 1_565 S
H114 C146 0.929 . S
H115 C147 0.930 . S
H116 C149 0.929 . S
H117 C150 0.931 . S
H118 C152 0.930 . S
H119 C153 0.932 . S
H120 C155 0.931 . S
H121 C156 0.929 . S
H122 C158 0.929 . S
H123 C159 0.931 . S
H124 C161 0.929 1_565 S
N125 C145 1.433 . S
N125 C151 1.435 . S
N125 C157 1.423 . S
H126 C162 0.932 1_565 S
C127 N102 1.433 . S
C127 C128 1.363 . S
C127 C132 1.370 1_545 S
C128 H101 0.929 . S
C128 C127 1.363 . S
C128 C129 1.385 . S
C129 H103 0.930 . S
C129 C128 1.385 . S
C129 C130 1.357 . S
C130 C129 1.357 . S
C130 C131 1.406 1_545 S
C131 H105 0.929 . S
C131 C130 1.406 1_565 S
C131 C132 1.391 . S
C132 H104 0.931 . S
C132 C127 1.370 1_565 S
C132 C131 1.391 . S
C133 N102 1.435 . S
C133 C134 1.358 1_545 S
C133 C138 1.371 . S
C134 H106 0.930 . S
C134 C133 1.358 1_565 S
C134 C135 1.405 . S
C135 H107 0.932 . S
C135 C134 1.405 . S
C135 C136 1.383 1_565 S
C136 C135 1.383 1_545 S
C136 C137 1.393 . S
C137 H109 0.931 . S
C137 C136 1.393 . S
C137 C138 1.382 . S
C138 H108 0.929 . S
C138 C133 1.371 . S
C138 C137 1.382 . S
C139 N102 1.423 . S
C139 C140 1.362 . S
C139 C144 1.388 . S
C140 H110 0.929 . S
C140 C139 1.362 . S
C140 C141 1.376 . S
C141 H112 0.931 . S
C141 C140 1.376 . S
C141 C142 1.396 . S
C142 C141 1.396 . S
C142 C143 1.348 . S
C142 C160 1.472 . S
C143 H113 0.929 1_545 S
C143 C142 1.348 . S
C143 C144 1.443 . S
C144 H111 0.932 1_545 S
C144 C139 1.388 . S
C144 C143 1.443 . S
C145 N125 1.433 . S
C145 C146 1.363 . S
C145 C150 1.370 1_545 S
C146 H114 0.929 . S
C146 C145 1.363 . S
C146 C147 1.385 . S
C147 H115 0.930 . S
C147 C146 1.385 . S
C147 C148 1.357 . S
C148 C147 1.357 . S
C148 C149 1.406 1_545 S
C149 H116 0.929 . S
C149 C148 1.406 1_565 S
C149 C150 1.391 . S
C150 H117 0.931 . S
C150 C145 1.370 1_565 S
C150 C149 1.391 . S
C151 N125 1.435 . S
C151 C152 1.358 1_545 S
C151 C156 1.371 . S
C152 H118 0.930 . S
C152 C151 1.358 1_565 S
C152 C153 1.405 . S
C153 H119 0.932 . S
C153 C152 1.405 . S
C153 C154 1.383 1_565 S
C154 C153 1.383 1_545 S
C154 C155 1.393 . S
C155 H120 0.931 . S
C155 C154 1.393 . S
C155 C156 1.382 . S
C156 H121 0.929 . S
C156 C151 1.371 . S
C156 C155 1.382 . S
C157 N125 1.423 . S
C157 C158 1.362 . S
C157 C162 1.388 . S
C158 H122 0.929 . S
C158 C157 1.362 . S
C158 C159 1.376 . S
C159 H123 0.931 . S
C159 C158 1.376 . S
C159 C160 1.396 . S
C160 C142 1.472 . S
C160 C159 1.396 . S
C160 C161 1.348 . S
C161 H124 0.929 1_545 S
C161 C160 1.348 . S
C161 C162 1.443 . S
C162 H126 0.932 1_545 S
C162 C157 1.388 . S
C162 C161 1.443 . S
H163 C190 0.929 . S
N164 C189 1.433 . S
N164 C195 1.435 . S
N164 C201 1.423 . S
H165 C191 0.930 . S
H166 C194 0.931 . S
H167 C193 0.929 . S
H168 C196 0.930 . S
H169 C197 0.932 . S
H170 C200 0.929 . S
H171 C199 0.931 . S
H172 C202 0.929 . S
H173 C206 0.932 . S
H174 C203 0.931 . S
H175 C205 0.929 . S
H176 C208 0.929 . S
H177 C209 0.930 . S
H178 C211 0.929 . S
H179 C212 0.931 . S
H180 C214 0.930 . S
H181 C215 0.932 . S
H182 C217 0.931 . S
H183 C218 0.929 . S
H184 C220 0.929 . S
H185 C221 0.931 . S
H186 C223 0.929 . S
N187 C207 1.433 . S
N187 C213 1.435 . S
N187 C219 1.423 . S
H188 C224 0.932 . S
C189 N164 1.433 . S
C189 C190 1.363 . S
C189 C194 1.370 . S
C190 H163 0.929 . S
C190 C189 1.363 . S
C190 C191 1.385 . S
C191 H165 0.930 . S
C191 C190 1.385 . S
C191 C192 1.357 . S
C192 C191 1.357 . S
C192 C193 1.406 . S
C193 H167 0.929 . S
C193 C192 1.406 . S
C193 C194 1.391 . S
C194 H166 0.931 . S
C194 C189 1.370 . S
C194 C193 1.391 . S
C195 N164 1.435 . S
C195 C196 1.358 . S
C195 C200 1.371 . S
C196 H168 0.930 . S
C196 C195 1.358 . S
C196 C197 1.405 . S
C197 H169 0.932 . S
C197 C196 1.405 . S
C197 C198 1.383 . S
C198 C197 1.383 . S
C198 C199 1.393 . S
C199 H171 0.931 . S
C199 C198 1.393 . S
C199 C200 1.382 . S
C200 H170 0.929 . S
C200 C195 1.371 . S
C200 C199 1.382 . S
C201 N164 1.423 . S
C201 C202 1.362 . S
C201 C206 1.388 . S
C202 H172 0.929 . S
C202 C201 1.362 . S
C202 C203 1.376 . S
C203 H174 0.931 . S
C203 C202 1.376 . S
C203 C204 1.396 . S
C204 C203 1.396 . S
C204 C205 1.348 . S
C204 C222 1.472 . S
C205 H175 0.929 . S
C205 C204 1.348 . S
C205 C206 1.443 . S
C206 H173 0.932 . S
C206 C201 1.388 . S
C206 C205 1.443 . S
C207 N187 1.433 . S
C207 C208 1.363 . S
C207 C212 1.370 . S
C208 H176 0.929 . S
C208 C207 1.363 . S
C208 C209 1.385 . S
C209 H177 0.930 . S
C209 C208 1.385 . S
C209 C210 1.357 . S
C210 C209 1.357 . S
C210 C211 1.406 . S
C211 H178 0.929 . S
C211 C210 1.406 . S
C211 C212 1.391 . S
C212 H179 0.931 . S
C212 C207 1.370 . S
C212 C211 1.391 . S
C213 N187 1.435 . S
C213 C214 1.358 . S
C213 C218 1.371 . S
C214 H180 0.930 . S
C214 C213 1.358 . S
C214 C215 1.405 . S
C215 H181 0.932 . S
C215 C214 1.405 . S
C215 C216 1.383 . S
C216 C215 1.383 . S
C216 C217 1.393 . S
C217 H182 0.931 . S
C217 C216 1.393 . S
C217 C218 1.382 . S
C218 H183 0.929 . S
C218 C213 1.371 . S
C218 C217 1.382 . S
C219 N187 1.423 . S
C219 C220 1.362 . S
C219 C224 1.388 . S
C220 H184 0.929 . S
C220 C219 1.362 . S
C220 C221 1.376 . S
C221 H185 0.931 . S
C221 C220 1.376 . S
C221 C222 1.396 . S
C222 C204 1.472 . S
C222 C221 1.396 . S
C222 C223 1.348 . S
C223 H186 0.929 . S
C223 C222 1.348 . S
C223 C224 1.443 . S
C224 H188 0.932 . S
C224 C219 1.388 . S
C224 C223 1.443 . S
C225 C226 1.363 1_655 S
C225 C231 1.379 . S
C225 N233 1.356 . S
C226 C225 1.363 1_455 S
C226 C232 1.363 . S
C227 C228 1.363 . S
C227 C232 1.379 . S
C227 N234 1.356 . S
C228 C227 1.363 . S
C228 C231 1.363 1_455 S
N229 C231 1.356 . S
N229 H241 0.984 . S
N229 H242 0.985 . S
N230 C232 1.356 . S
N230 H235 0.984 . S
N230 H236 0.985 . S
C231 C225 1.379 . S
C231 C228 1.363 1_655 S
C231 N229 1.356 . S
C232 C226 1.363 . S
C232 C227 1.379 . S
C232 N230 1.356 . S
N233 C225 1.356 . S
N233 H239 0.984 . S
N233 H240 0.984 . S
N234 C227 1.356 . S
N234 H237 0.984 . S
N234 H238 0.985 . S
H235 N230 0.984 . S
H236 N230 0.985 . S
H237 N234 0.984 . S
H238 N234 0.985 . S
H239 N233 0.984 . S
H240 N233 0.984 . S
H241 N229 0.984 . S
H242 N229 0.985 . S
C243 C244 1.363 . S
C243 C249 1.379 . S
C243 N251 1.356 . S
C244 C243 1.363 . S
C244 C250 1.363 1_545 S
C245 C246 1.363 1_565 S
C245 C250 1.379 . S
C245 N252 1.356 . S
C246 C245 1.363 1_545 S
C246 C249 1.363 . S
N247 C249 1.356 . S
N247 H259 0.984 . S
N247 H260 0.985 . S
N248 C250 1.356 . S
N248 H253 0.984 . S
N248 H254 0.985 . S
C249 C243 1.379 . S
C249 C246 1.363 . S
C249 N247 1.356 . S
C250 C244 1.363 1_565 S
C250 C245 1.379 . S
C250 N248 1.356 . S
N251 C243 1.356 . S
N251 H257 0.984 . S
N251 H258 0.984 . S
N252 C245 1.356 . S
N252 H255 0.984 . S
N252 H256 0.985 . S
H253 N248 0.984 . S
H254 N248 0.985 . S
H255 N252 0.984 . S
H256 N252 0.985 . S
H257 N251 0.984 . S
H258 N251 0.984 . S
H259 N247 0.984 . S
H260 N247 0.985 . S
C261 C262 1.363 . S
C261 C267 1.379 . S
C261 N269 1.356 . S
C262 C261 1.363 . S
C262 C268 1.363 . S
C263 C264 1.363 . S
C263 C268 1.379 . S
C263 N270 1.356 . S
C264 C263 1.363 . S
C264 C267 1.363 . S
N265 C267 1.356 . S
N265 H277 0.984 . S
N265 H278 0.985 . S
N266 C268 1.356 . S
N266 H271 0.984 . S
N266 H272 0.985 . S
C267 C261 1.379 . S
C267 C264 1.363 . S
C267 N265 1.356 . S
C268 C262 1.363 . S
C268 C263 1.379 . S
C268 N266 1.356 . S
N269 C261 1.356 . S
N269 H275 0.984 . S
N269 H276 0.984 . S
N270 C263 1.356 . S
N270 H273 0.984 . S
N270 H274 0.985 . S
H271 N266 0.984 . S
H272 N266 0.985 . S
H273 N270 0.984 . S
H274 N270 0.985 . S
H275 N269 0.984 . S
H276 N269 0.984 . S
H277 N265 0.984 . S
H278 N265 0.985 . S
C279 C280 1.363 . S
C279 C285 1.379 . S
C279 N287 1.356 . S
C280 C279 1.363 . S
C280 C286 1.363 1_455 S
C281 C282 1.363 1_655 S
C281 C286 1.379 . S
C281 N288 1.356 . S
C282 C281 1.363 1_455 S
C282 C285 1.363 . S
N283 C285 1.356 . S
N283 H295 0.984 . S
N283 H296 0.985 . S
N284 C286 1.356 . S
N284 H289 0.984 . S
N284 H290 0.985 . S
C285 C279 1.379 . S
C285 C282 1.363 . S
C285 N283 1.356 . S
C286 C280 1.363 1_655 S
C286 C281 1.379 . S
C286 N284 1.356 . S
N287 C279 1.356 . S
N287 H293 0.984 . S
N287 H294 0.984 . S
N288 C281 1.356 . S
N288 H291 0.984 . S
N288 H292 0.985 . S
H289 N284 0.984 . S
H290 N284 0.985 . S
H291 N288 0.984 . S
H292 N288 0.985 . S
H293 N287 0.984 . S
H294 N287 0.984 . S
H295 N283 0.984 . S
H296 N283 0.985 . S
C297 C298 1.363 . S
C297 C303 1.379 . S
C297 N305 1.356 . S
C298 C297 1.363 . S
C298 C304 1.363 1_545 S
C299 C300 1.363 1_565 S
C299 C304 1.379 . S
C299 N306 1.356 . S
C300 C299 1.363 1_545 S
C300 C303 1.363 . S
N301 C303 1.356 . S
N301 H313 0.984 . S
N301 H314 0.985 . S
N302 C304 1.356 . S
N302 H307 0.984 . S
N302 H308 0.985 . S
C303 C297 1.379 . S
C303 C300 1.363 . S
C303 N301 1.356 . S
C304 C298 1.363 1_565 S
C304 C299 1.379 . S
C304 N302 1.356 . S
N305 C297 1.356 . S
N305 H311 0.984 . S
N305 H312 0.984 . S
N306 C299 1.356 . S
N306 H309 0.984 . S
N306 H310 0.985 . S
H307 N302 0.984 . S
H308 N302 0.985 . S
H309 N306 0.984 . S
H310 N306 0.985 . S
H311 N305 0.984 . S
H312 N305 0.984 . S
H313 N301 0.984 . S
H314 N301 0.985 . S
C315 C316 1.363 . S
C315 C321 1.379 . S
C315 N323 1.356 . S
C316 C315 1.363 . S
C316 C322 1.363 . S
C317 C318 1.363 . S
C317 C322 1.379 . S
C317 N324 1.356 . S
C318 C317 1.363 . S
C318 C321 1.363 . S
N319 C321 1.356 . S
N319 H331 0.984 . S
N319 H332 0.985 . S
N320 C322 1.356 . S
N320 H325 0.984 . S
N320 H326 0.985 . S
C321 C315 1.379 . S
C321 C318 1.363 . S
C321 N319 1.356 . S
C322 C316 1.363 . S
C322 C317 1.379 . S
C322 N320 1.356 . S
N323 C315 1.356 . S
N323 H329 0.984 . S
N323 H330 0.984 . S
N324 C317 1.356 . S
N324 H327 0.984 . S
N324 H328 0.985 . S
H325 N320 0.984 . S
H326 N320 0.985 . S
H327 N324 0.984 . S
H328 N324 0.985 . S
H329 N323 0.984 . S
H330 N323 0.984 . S
H331 N319 0.984 . S
H332 N319 0.985 . S
C333 C334 1.363 . S
C333 C339 1.379 . S
C333 N341 1.356 . S
C334 C333 1.363 . S
C334 C340 1.363 1_565 S
C335 C336 1.363 . S
C335 C340 1.379 . S
C335 N342 1.356 . S
C336 C335 1.363 . S
C336 C339 1.363 1_545 S
N337 C339 1.356 . S
N337 H349 0.984 . S
N337 H350 0.985 . S
N338 C340 1.356 . S
N338 H343 0.984 . S
N338 H344 0.985 . S
C339 C333 1.379 . S
C339 C336 1.363 1_565 S
C339 N337 1.356 . S
C340 C334 1.363 1_545 S
C340 C335 1.379 . S
C340 N338 1.356 . S
N341 C333 1.356 . S
N341 H347 0.984 . S
N341 H348 0.984 . S
N342 C335 1.356 . S
N342 H345 0.984 . S
N342 H346 0.985 . S
H343 N338 0.984 . S
H344 N338 0.985 . S
H345 N342 0.984 . S
H346 N342 0.985 . S
H347 N341 0.984 . S
H348 N341 0.984 . S
H349 N337 0.984 . S
H350 N337 0.985 . S
C351 C352 1.363 . S
C351 C357 1.379 . S
C351 N359 1.356 1_556 S
C352 C351 1.363 . S
C352 C358 1.363 . S
C353 C354 1.363 . S
C353 C358 1.379 . S
C353 N360 1.356 . S
C354 C353 1.363 . S
C354 C357 1.363 . S
N355 C357 1.356 . S
N355 H367 0.984 . S
N355 H368 0.985 . S
N356 C358 1.356 . S
N356 H361 0.984 . S
N356 H362 0.985 . S
C357 C351 1.379 . S
C357 C354 1.363 . S
C357 N355 1.356 . S
C358 C352 1.363 . S
C358 C353 1.379 . S
C358 N356 1.356 . S
N359 C351 1.356 1_554 S
N359 H365 0.984 . S
N359 H366 0.984 . S
N360 C353 1.356 . S
N360 H363 0.984 . S
N360 H364 0.985 . S
H361 N356 0.984 . S
H362 N356 0.985 . S
H363 N360 0.984 . S
H364 N360 0.985 . S
H365 N359 0.984 . S
H366 N359 0.984 . S
H367 N355 0.984 . S
H368 N355 0.985 . S
C369 C370 1.363 1_655 S
C369 C375 1.379 . S
C369 N377 1.356 . S
C370 C369 1.363 1_455 S
C370 C376 1.363 . S
C371 C372 1.363 . S
C371 C376 1.379 . S
C371 N378 1.356 . S
C372 C371 1.363 . S
C372 C375 1.363 1_455 S
N373 C375 1.356 . S
N373 H385 0.984 . S
N373 H386 0.985 . S
N374 C376 1.356 . S
N374 H379 0.984 . S
N374 H380 0.985 . S
C375 C369 1.379 . S
C375 C372 1.363 1_655 S
C375 N373 1.356 . S
C376 C370 1.363 . S
C376 C371 1.379 . S
C376 N374 1.356 . S
N377 C369 1.356 . S
N377 H383 0.984 . S
N377 H384 0.984 . S
N378 C371 1.356 . S
N378 H381 0.984 . S
N378 H382 0.985 . S
H379 N374 0.984 . S
H380 N374 0.985 . S
H381 N378 0.984 . S
H382 N378 0.985 . S
H383 N377 0.984 . S
H384 N377 0.984 . S
H385 N373 0.984 . S
H386 N373 0.985 . S
C387 C388 1.363 . S
C387 C393 1.379 . S
C387 N395 1.356 . S
C388 C387 1.363 . S
C388 C394 1.363 1_545 S
C389 C390 1.363 1_565 S
C389 C394 1.379 . S
C389 N396 1.356 . S
C390 C389 1.363 1_545 S
C390 C393 1.363 . S
N391 C393 1.356 . S
N391 H403 0.984 . S
N391 H404 0.985 . S
N392 C394 1.356 . S
N392 H397 0.984 . S
N392 H398 0.985 . S
C393 C387 1.379 . S
C393 C390 1.363 . S
C393 N391 1.356 . S
C394 C388 1.363 1_565 S
C394 C389 1.379 . S
C394 N392 1.356 . S
N395 C387 1.356 . S
N395 H401 0.984 . S
N395 H402 0.984 . S
N396 C389 1.356 . S
N396 H399 0.984 . S
N396 H400 0.985 . S
H397 N392 0.984 . S
H398 N392 0.985 . S
H399 N396 0.984 . S
H400 N396 0.985 . S
H401 N395 0.984 . S
H402 N395 0.984 . S
H403 N391 0.984 . S
H404 N391 0.985 . S
C405 C406 1.363 . S
C405 C411 1.379 . S
C405 N413 1.356 . S
C406 C405 1.363 . S
C406 C412 1.363 . S
C407 C408 1.363 . S
C407 C412 1.379 . S
C407 N414 1.356 . S
C408 C407 1.363 . S
C408 C411 1.363 . S
N409 C411 1.356 . S
N409 H421 0.984 . S
N409 H422 0.985 . S
N410 C412 1.356 . S
N410 H415 0.984 . S
N410 H416 0.985 . S
C411 C405 1.379 . S
C411 C408 1.363 . S
C411 N409 1.356 . S
C412 C406 1.363 . S
C412 C407 1.379 . S
C412 N410 1.356 . S
N413 C405 1.356 . S
N413 H419 0.984 . S
N413 H420 0.984 . S
N414 C407 1.356 . S
N414 H417 0.984 . S
N414 H418 0.985 . S
H415 N410 0.984 . S
H416 N410 0.985 . S
H417 N414 0.984 . S
H418 N414 0.985 . S
H419 N413 0.984 . S
H420 N413 0.984 . S
H421 N409 0.984 . S
H422 N409 0.985 . S
C423 C424 1.359 1_455 S
C423 C429 1.379 . S
C423 N431 1.356 . S
C424 C423 1.359 1_655 S
C424 C430 1.373 . S
C425 C426 1.363 1_655 S
C425 C430 1.379 . S
C425 N432 1.356 . S
C426 C425 1.363 1_455 S
C426 C429 1.363 . S
N427 C429 1.356 . S
N427 H439 0.984 . S
N427 H440 0.985 . S
N428 C430 1.356 . S
N428 H433 0.984 . S
N428 H434 0.985 . S
C429 C423 1.379 . S
C429 C426 1.363 . S
C429 N427 1.356 . S
C430 C424 1.373 . S
C430 C425 1.379 . S
C430 N428 1.356 . S
N431 C423 1.356 . S
N431 H437 0.984 . S
N431 H438 0.984 . S
N432 C425 1.356 . S
N432 H435 0.984 . S
N432 H436 0.985 . S
H433 N428 0.984 . S
H434 N428 0.985 . S
H435 N432 0.984 . S
H436 N432 0.985 . S
H437 N431 0.984 . S
H438 N431 0.984 . S
H439 N427 0.984 . S
H440 N427 0.985 . S
C228 C92 1.425 . S
C226 C10 1.428 . S
C244 C17 1.428 . S
C246 C136 1.423 . S
C262 C36 1.430 . S
C264 C198 1.425 . S
C280 C5 1.429 . S
C282 C74 1.425 . S
C300 C154 1.426 . S
C298 C16 1.435 1_545 S
C316 C31 1.426 . S
C318 C216 1.424 . S
C336 C130 1.604 . S
C334 C30 1.733 . S
C352 C3 1.736 . S
C354 C192 1.603 . S
C372 C68 1.605 1_455 S
C370 C18 1.736 . S
C390 C148 1.601 . S
C388 C29 1.736 . S
C408 C210 1.600 . S
C406 C4 1.734 . S
C424 C23 1.728 . S
C426 C86 1.600 1_455 S
