# Generated by pormake.
# Topology pto, (3,4)-cn, num edge types: 1
# Building blocks:
#     Node 0, Type 0, BuildingBlock: KAKCAD_clean_linker_0, # of connection points: 3
#     Node 1, Type 0, BuildingBlock: KAKCAD_clean_linker_0, # of connection points: 3
#     Node 2, Type 0, BuildingBlock: KAKCAD_clean_linker_0, # of connection points: 3
#     Node 3, Type 0, BuildingBlock: KAKCAD_clean_linker_0, # of connection points: 3
#     Node 4, Type 0, BuildingBlock: KAKCAD_clean_linker_0, # of connection points: 3
#     Node 5, Type 0, BuildingBlock: KAKCAD_clean_linker_0, # of connection points: 3
#     Node 6, Type 0, BuildingBlock: KAKCAD_clean_linker_0, # of connection points: 3
#     Node 7, Type 0, BuildingBlock: KAKCAD_clean_linker_0, # of connection points: 3
#     Node 8, Type 1, BuildingBlock: KOZSID_clean_sbu_0, # of connection points: 4
#     Node 9, Type 1, BuildingBlock: KOZSID_clean_sbu_0, # of connection points: 4
#     Node 10, Type 1, BuildingBlock: KOZSID_clean_sbu_0, # of connection points: 4
#     Node 11, Type 1, BuildingBlock: KOZSID_clean_sbu_0, # of connection points: 4
#     Node 12, Type 1, BuildingBlock: KOZSID_clean_sbu_0, # of connection points: 4
#     Node 13, Type 1, BuildingBlock: KOZSID_clean_sbu_0, # of connection points: 4
#     Edge 14, Type (0, 1), BuildingBlock: KIFKEQ_clean_linker_1, # of connection points: 2
#     Edge 15, Type (0, 1), BuildingBlock: KIFKEQ_clean_linker_1, # of connection points: 2
#     Edge 16, Type (0, 1), BuildingBlock: KIFKEQ_clean_linker_1, # of connection points: 2
#     Edge 17, Type (0, 1), BuildingBlock: KIFKEQ_clean_linker_1, # of connection points: 2
#     Edge 18, Type (0, 1), BuildingBlock: KIFKEQ_clean_linker_1, # of connection points: 2
#     Edge 19, Type (0, 1), BuildingBlock: KIFKEQ_clean_linker_1, # of connection points: 2
#     Edge 20, Type (0, 1), BuildingBlock: KIFKEQ_clean_linker_1, # of connection points: 2
#     Edge 21, Type (0, 1), BuildingBlock: KIFKEQ_clean_linker_1, # of connection points: 2
#     Edge 22, Type (0, 1), BuildingBlock: KIFKEQ_clean_linker_1, # of connection points: 2
#     Edge 23, Type (0, 1), BuildingBlock: KIFKEQ_clean_linker_1, # of connection points: 2
#     Edge 24, Type (0, 1), BuildingBlock: KIFKEQ_clean_linker_1, # of connection points: 2
#     Edge 25, Type (0, 1), BuildingBlock: KIFKEQ_clean_linker_1, # of connection points: 2
#     Edge 26, Type (0, 1), BuildingBlock: KIFKEQ_clean_linker_1, # of connection points: 2
#     Edge 27, Type (0, 1), BuildingBlock: KIFKEQ_clean_linker_1, # of connection points: 2
#     Edge 28, Type (0, 1), BuildingBlock: KIFKEQ_clean_linker_1, # of connection points: 2
#     Edge 29, Type (0, 1), BuildingBlock: KIFKEQ_clean_linker_1, # of connection points: 2
#     Edge 30, Type (0, 1), BuildingBlock: KIFKEQ_clean_linker_1, # of connection points: 2
#     Edge 31, Type (0, 1), BuildingBlock: KIFKEQ_clean_linker_1, # of connection points: 2
#     Edge 32, Type (0, 1), BuildingBlock: KIFKEQ_clean_linker_1, # of connection points: 2
#     Edge 33, Type (0, 1), BuildingBlock: KIFKEQ_clean_linker_1, # of connection points: 2
#     Edge 34, Type (0, 1), BuildingBlock: KIFKEQ_clean_linker_1, # of connection points: 2
#     Edge 35, Type (0, 1), BuildingBlock: KIFKEQ_clean_linker_1, # of connection points: 2
#     Edge 36, Type (0, 1), BuildingBlock: KIFKEQ_clean_linker_1, # of connection points: 2
#     Edge 37, Type (0, 1), BuildingBlock: KIFKEQ_clean_linker_1, # of connection points: 2
# Relax obj value: 0.000
# Max RMSD: 0.024
# Mean RMSD: 0.010
data_MOF--net-pto--node1-KOZSID_clean_sbu_0--node2-KAKCAD_clean_linker_0--edge1-KIFKEQ_clean_linker_1
_symmetry_space_group_name_H-M    P1
_symmetry_Int_Tables_number       1
_symmetry_cell_setting            triclinic
loop_
_symmetry_equiv_pos_as_xyz
'x, y, z'
_cell_length_a     47.497078
_cell_length_b     64.068564
_cell_length_c     55.842281
_cell_angle_alpha  88.073537
_cell_angle_beta   88.18004
_cell_angle_gamma 92.90898
loop_
_atom_site_label
_atom_site_type_symbol
_atom_site_fract_x
_atom_site_fract_y
_atom_site_fract_z
_atom_type_partial_charge
C0 C 0.28108 0.18942 0.35027 0.0
C1 C 0.25466 0.18229 0.36027 0.0
C2 C 0.28362 0.20726 0.3351 0.0
C3 C 0.25978 0.21839 0.3295 0.0
C4 C 0.23338 0.21136 0.33969 0.0
C5 C 0.23086 0.19354 0.35492 0.0
C6 C 0.26236 0.23701 0.31274 0.0
C7 C 0.27994 0.23696 0.29201 0.0
C8 C 0.28224 0.25428 0.27583 0.0
C9 C 0.26658 0.27179 0.28052 0.0
C10 C 0.24892 0.27224 0.30119 0.0
C11 C 0.24704 0.25477 0.31722 0.0
C12 C 0.23227 0.29086 0.30585 0.0
C13 C 0.24401 0.31119 0.30081 0.0
C14 C 0.20432 0.28844 0.31499 0.0
C15 C 0.1884 0.30589 0.3187 0.0
C16 C 0.19998 0.32621 0.31328 0.0
C17 C 0.30087 0.25397 0.25394 0.0
C18 C 0.32794 0.24616 0.25514 0.0
C19 C 0.29175 0.26147 0.2317 0.0
C20 C 0.30928 0.26115 0.21114 0.0
C21 C 0.33639 0.25336 0.21233 0.0
C22 C 0.34549 0.24588 0.2346 0.0
C23 C 0.22805 0.32863 0.30442 0.0
H24 H 0.2999 0.18131 0.35435 0.0
H25 H 0.30434 0.21244 0.3279 0.0
H26 H 0.21452 0.21938 0.33549 0.0
H27 H 0.21014 0.18831 0.36209 0.0
H28 H 0.29128 0.22316 0.28808 0.0
H29 H 0.23404 0.25515 0.33348 0.0
H30 H 0.2681 0.28511 0.26798 0.0
H31 H 0.26559 0.31367 0.29408 0.0
H32 H 0.19449 0.27303 0.31887 0.0
H33 H 0.16699 0.30342 0.32586 0.0
H34 H 0.33574 0.24055 0.27207 0.0
H35 H 0.27085 0.26729 0.2301 0.0
H36 H 0.2376 0.34401 0.29979 0.0
H37 H 0.3664 0.24009 0.23625 0.0
H38 H 0.30142 0.26673 0.19422 0.0
C39 C 0.30168 0.78891 0.80196 0.0
C40 C 0.32081 0.77322 0.80595 0.0
C41 C 0.28417 0.78822 0.78231 0.0
C42 C 0.2852 0.77171 0.76642 0.0
C43 C 0.3043 0.75601 0.77043 0.0
C44 C 0.32203 0.75682 0.78992 0.0
C45 C 0.26623 0.77073 0.74583 0.0
C46 C 0.26293 0.78853 0.73104 0.0
C47 C 0.24509 0.78769 0.71144 0.0
C48 C 0.23027 0.76874 0.70688 0.0
C49 C 0.23316 0.75079 0.72162 0.0
C50 C 0.25131 0.75195 0.74099 0.0
C51 C 0.21685 0.73091 0.71724 0.0
C52 C 0.18829 0.73102 0.71135 0.0
C53 C 0.22948 0.71161 0.71971 0.0
C54 C 0.2138 0.69286 0.71685 0.0
C55 C 0.18511 0.69294 0.71142 0.0
C56 C 0.24224 0.80658 0.69566 0.0
C57 C 0.23978 0.82632 0.70555 0.0
C58 C 0.24246 0.80508 0.6706 0.0
C59 C 0.24062 0.82295 0.65576 0.0
C60 C 0.23844 0.84274 0.66564 0.0
C61 C 0.23787 0.84417 0.69073 0.0
C62 C 0.17261 0.71225 0.70846 0.0
H63 H 0.30044 0.80181 0.81393 0.0
H64 H 0.26951 0.80046 0.77973 0.0
H65 H 0.30568 0.74318 0.75837 0.0
H66 H 0.33643 0.74444 0.79265 0.0
H67 H 0.27488 0.80293 0.73444 0.0
H68 H 0.25322 0.73836 0.7528 0.0
H69 H 0.2164 0.76799 0.69186 0.0
H70 H 0.17781 0.74559 0.70964 0.0
H71 H 0.25156 0.71099 0.72383 0.0
H72 H 0.2242 0.67827 0.71884 0.0
H73 H 0.23911 0.82795 0.7248 0.0
H74 H 0.24472 0.79014 0.66241 0.0
H75 H 0.15046 0.71286 0.70457 0.0
H76 H 0.2357 0.8591 0.69896 0.0
H77 H 0.24154 0.82131 0.63652 0.0
C78 C 0.70145 0.74838 0.23563 0.0
C79 C 0.70192 0.76618 0.22018 0.0
C80 C 0.71879 0.74785 0.25538 0.0
C81 C 0.73678 0.76519 0.26023 0.0
C82 C 0.73708 0.78305 0.24489 0.0
C83 C 0.71993 0.78351 0.22502 0.0
C84 C 0.75538 0.76458 0.2811 0.0
C85 C 0.771 0.74699 0.28585 0.0
C86 C 0.78886 0.74623 0.30544 0.0
C87 C 0.79115 0.7636 0.32019 0.0
C88 C 0.77569 0.78143 0.31571 0.0
C89 C 0.75771 0.78163 0.29616 0.0
C90 C 0.77819 0.79984 0.33136 0.0
C91 C 0.78164 0.79717 0.35622 0.0
C92 C 0.77692 0.8203 0.32155 0.0
C93 C 0.77849 0.83754 0.33621 0.0
C94 C 0.78192 0.83479 0.36095 0.0
C95 C 0.80523 0.72736 0.31021 0.0
C96 C 0.79323 0.70723 0.30648 0.0
C97 C 0.83307 0.72925 0.3181 0.0
C98 C 0.84858 0.71151 0.32186 0.0
C99 C 0.83672 0.69151 0.31756 0.0
C100 C 0.80885 0.68955 0.30995 0.0
C101 C 0.78372 0.81448 0.37081 0.0
H102 H 0.68795 0.73473 0.23225 0.0
H103 H 0.71797 0.73393 0.26699 0.0
H104 H 0.75089 0.79659 0.24808 0.0
H105 H 0.72056 0.79751 0.21355 0.0
H106 H 0.76978 0.73408 0.27382 0.0
H107 H 0.74496 0.79491 0.29287 0.0
H108 H 0.80505 0.76321 0.33518 0.0
H109 H 0.78221 0.78171 0.36456 0.0
H110 H 0.77494 0.82308 0.30246 0.0
H111 H 0.77739 0.85308 0.32814 0.0
H112 H 0.77167 0.70509 0.30093 0.0
H113 H 0.84319 0.74448 0.32082 0.0
H114 H 0.78612 0.81196 0.3899 0.0
H115 H 0.79905 0.67429 0.30683 0.0
H116 H 0.87013 0.71348 0.32752 0.0
C117 C 0.80451 0.20756 0.69063 0.0
C118 C 0.77993 0.19786 0.68163 0.0
C119 C 0.80289 0.22488 0.70511 0.0
C120 C 0.77666 0.2327 0.71126 0.0
C121 C 0.75209 0.22309 0.7024 0.0
C122 C 0.75372 0.20601 0.68759 0.0
C123 C 0.77485 0.25066 0.72717 0.0
C124 C 0.79151 0.26914 0.72221 0.0
C125 C 0.78967 0.28629 0.73714 0.0
C126 C 0.77146 0.28452 0.75754 0.0
C127 C 0.75489 0.26606 0.7629 0.0
C128 C 0.75647 0.24929 0.74744 0.0
C129 C 0.73624 0.26427 0.78484 0.0
C130 C 0.74599 0.27146 0.80674 0.0
C131 C 0.70861 0.25542 0.78406 0.0
C132 C 0.69104 0.25398 0.8047 0.0
C133 C 0.70074 0.26128 0.8266 0.0
C134 C 0.8065 0.30615 0.73146 0.0
C135 C 0.83498 0.30599 0.72384 0.0
C136 C 0.7942 0.32549 0.73396 0.0
C137 C 0.81009 0.34422 0.72936 0.0
C138 C 0.83872 0.3441 0.72216 0.0
C139 C 0.85092 0.32475 0.71926 0.0
C140 C 0.72849 0.26995 0.82737 0.0
H141 H 0.82504 0.20158 0.68689 0.0
H142 H 0.82212 0.23191 0.71193 0.0
H143 H 0.73162 0.22899 0.70669 0.0
H144 H 0.73437 0.19935 0.68063 0.0
H145 H 0.80528 0.27036 0.70631 0.0
H146 H 0.74404 0.23488 0.75155 0.0
H147 H 0.77017 0.29757 0.76931 0.0
H148 H 0.76734 0.27803 0.80801 0.0
H149 H 0.70039 0.24995 0.76739 0.0
H150 H 0.66967 0.24749 0.80336 0.0
H151 H 0.84515 0.29135 0.72197 0.0
H152 H 0.77216 0.32617 0.73934 0.0
H153 H 0.73685 0.27536 0.84401 0.0
H154 H 0.873 0.32409 0.71401 0.0
H155 H 0.79987 0.35883 0.73132 0.0
C156 C 0.77369 0.82602 0.6632 0.0
C157 C 0.77557 0.84609 0.67271 0.0
C158 C 0.77141 0.80815 0.67838 0.0
C159 C 0.77089 0.80995 0.70341 0.0
C160 C 0.77295 0.83 0.7129 0.0
C161 C 0.77529 0.84783 0.69775 0.0
C162 C 0.76829 0.79107 0.71969 0.0
C163 C 0.78398 0.77355 0.715 0.0
C164 C 0.78262 0.75614 0.73104 0.0
C165 C 0.76503 0.75619 0.75173 0.0
C166 C 0.74876 0.77338 0.7565 0.0
C167 C 0.75057 0.79074 0.74036 0.0
C168 C 0.73005 0.77328 0.77837 0.0
C169 C 0.71382 0.75515 0.78595 0.0
C170 C 0.72822 0.79135 0.79184 0.0
C171 C 0.71053 0.79132 0.81232 0.0
C172 C 0.69429 0.7732 0.81987 0.0
C173 C 0.80025 0.73814 0.72663 0.0
C174 C 0.80046 0.72863 0.70431 0.0
C175 C 0.817 0.73035 0.74483 0.0
C176 C 0.83375 0.71344 0.74078 0.0
C177 C 0.8338 0.7038 0.71855 0.0
C178 C 0.8169 0.71148 0.70038 0.0
C179 C 0.69617 0.7551 0.80647 0.0
H180 H 0.77348 0.82412 0.64401 0.0
H181 H 0.76958 0.79293 0.67053 0.0
H182 H 0.77314 0.83191 0.73209 0.0
H183 H 0.77724 0.86301 0.70569 0.0
H184 H 0.7981 0.77375 0.69934 0.0
H185 H 0.73776 0.80394 0.74367 0.0
H186 H 0.76417 0.74282 0.76421 0.0
H187 H 0.71441 0.74106 0.77579 0.0
H188 H 0.74077 0.80548 0.78673 0.0
H189 H 0.70988 0.80542 0.82245 0.0
H190 H 0.78763 0.73431 0.69003 0.0
H191 H 0.81736 0.73749 0.76213 0.0
H192 H 0.68363 0.74098 0.81161 0.0
H193 H 0.81667 0.70436 0.68306 0.0
H194 H 0.84643 0.70773 0.75514 0.0
C195 C 0.70168 0.24663 0.2495 0.0
C196 C 0.71055 0.2562 0.2273 0.0
C197 C 0.71919 0.24743 0.26915 0.0
C198 C 0.74606 0.25773 0.26707 0.0
C199 C 0.75495 0.26724 0.24486 0.0
C200 C 0.73739 0.26655 0.22526 0.0
C201 C 0.76483 0.25849 0.28792 0.0
C202 C 0.76647 0.24095 0.30353 0.0
C203 C 0.78441 0.24144 0.32307 0.0
C204 C 0.80103 0.25975 0.32683 0.0
C205 C 0.79977 0.27744 0.3114 0.0
C206 C 0.78144 0.27669 0.29213 0.0
C207 C 0.81775 0.29667 0.31513 0.0
C208 C 0.82145 0.3042 0.33825 0.0
C209 C 0.83132 0.30769 0.29547 0.0
C210 C 0.84808 0.32583 0.2988 0.0
C211 C 0.85174 0.33343 0.32188 0.0
C212 C 0.78596 0.22269 0.33929 0.0
C213 C 0.76126 0.21105 0.347 0.0
C214 C 0.81211 0.21611 0.34693 0.0
C215 C 0.81353 0.19819 0.36175 0.0
C216 C 0.78882 0.18644 0.3693 0.0
C217 C 0.76266 0.19316 0.36184 0.0
C218 C 0.83822 0.3224 0.34158 0.0
H219 H 0.68129 0.23831 0.25167 0.0
H220 H 0.71152 0.24012 0.28604 0.0
H221 H 0.77564 0.27508 0.2425 0.0
H222 H 0.74481 0.27432 0.20856 0.0
H223 H 0.75436 0.22664 0.30007 0.0
H224 H 0.77975 0.29049 0.28062 0.0
H225 H 0.81508 0.26018 0.34174 0.0
H226 H 0.81109 0.29618 0.35375 0.0
H227 H 0.82918 0.30219 0.27745 0.0
H228 H 0.8579 0.33407 0.2832 0.0
H229 H 0.74076 0.21589 0.34173 0.0
H230 H 0.83155 0.22458 0.34104 0.0
H231 H 0.8408 0.32772 0.35962 0.0
H232 H 0.74319 0.18471 0.36767 0.0
H233 H 0.83404 0.1933 0.36689 0.0
C234 C 0.30874 0.27234 0.81171 0.0
C235 C 0.33484 0.26307 0.80969 0.0
C236 C 0.29091 0.27294 0.79232 0.0
C237 C 0.29883 0.26444 0.77034 0.0
C238 C 0.3251 0.25532 0.76829 0.0
C239 C 0.34284 0.25456 0.78779 0.0
C240 C 0.27937 0.26471 0.74995 0.0
C241 C 0.26298 0.28202 0.74561 0.0
C242 C 0.24284 0.28188 0.72765 0.0
C243 C 0.23984 0.26421 0.71346 0.0
C244 C 0.25682 0.24711 0.71691 0.0
C245 C 0.27637 0.24742 0.73524 0.0
C246 C 0.25407 0.22877 0.70152 0.0
C247 C 0.22753 0.21899 0.69777 0.0
C248 C 0.27813 0.22084 0.69063 0.0
C249 C 0.27573 0.20347 0.67623 0.0
C250 C 0.24923 0.19339 0.67266 0.0
C251 C 0.2248 0.30007 0.72407 0.0
C252 C 0.21559 0.31133 0.74378 0.0
C253 C 0.21663 0.30638 0.70103 0.0
C254 C 0.19962 0.32339 0.69785 0.0
C255 C 0.19063 0.33476 0.71758 0.0
C256 C 0.19904 0.32853 0.74056 0.0
C257 C 0.22514 0.20141 0.68364 0.0
H258 H 0.30182 0.27875 0.82848 0.0
H259 H 0.27061 0.27969 0.79476 0.0
H260 H 0.33207 0.24889 0.75156 0.0
H261 H 0.36299 0.24752 0.78565 0.0
H262 H 0.26619 0.29576 0.75616 0.0
H263 H 0.28858 0.23384 0.73849 0.0
H264 H 0.22429 0.26367 0.69968 0.0
H265 H 0.20868 0.2247 0.70617 0.0
H266 H 0.2988 0.22826 0.69302 0.0
H267 H 0.29469 0.19811 0.66769 0.0
H268 H 0.22095 0.30681 0.76186 0.0
H269 H 0.22357 0.29831 0.68535 0.0
H270 H 0.20444 0.19392 0.68169 0.0
H271 H 0.19306 0.33703 0.7562 0.0
H272 H 0.19333 0.32747 0.6799 0.0
C273 C 0.25409 0.83497 0.32557 0.0
C274 C 0.24865 0.83179 0.3503 0.0
C275 C 0.25566 0.81796 0.31067 0.0
C276 C 0.25233 0.79732 0.32021 0.0
C277 C 0.24682 0.79421 0.34504 0.0
C278 C 0.24478 0.81127 0.35988 0.0
C279 C 0.25484 0.77919 0.30432 0.0
C280 C 0.2743 0.78033 0.28472 0.0
C281 C 0.27653 0.76356 0.26932 0.0
C282 C 0.25939 0.74528 0.27393 0.0
C283 C 0.24 0.74368 0.29351 0.0
C284 C 0.23777 0.76073 0.30854 0.0
C285 C 0.22202 0.7242 0.29809 0.0
C286 C 0.20929 0.71398 0.27902 0.0
C287 C 0.21797 0.71541 0.32143 0.0
C288 C 0.20196 0.69662 0.32554 0.0
C289 C 0.18958 0.68623 0.3064 0.0
C290 C 0.29648 0.76525 0.2482 0.0
C291 C 0.29884 0.78361 0.23362 0.0
C292 C 0.31287 0.74841 0.24219 0.0
C293 C 0.33103 0.74984 0.22195 0.0
C294 C 0.33316 0.76812 0.20721 0.0
C295 C 0.31694 0.78502 0.21334 0.0
C296 C 0.19325 0.69525 0.28313 0.0
H297 H 0.25679 0.85067 0.31771 0.0
H298 H 0.25925 0.82105 0.29161 0.0
H299 H 0.24457 0.7786 0.35315 0.0
H300 H 0.24081 0.80841 0.37895 0.0
H301 H 0.2882 0.79415 0.28162 0.0
H302 H 0.22216 0.75977 0.32316 0.0
H303 H 0.26109 0.73226 0.26217 0.0
H304 H 0.21158 0.72054 0.26089 0.0
H305 H 0.22776 0.7228 0.33645 0.0
H306 H 0.19981 0.69 0.34364 0.0
H307 H 0.28631 0.7968 0.23765 0.0
H308 H 0.31173 0.73412 0.25319 0.0
H309 H 0.18354 0.6879 0.26804 0.0
H310 H 0.31832 0.7994 0.20251 0.0
H311 H 0.34305 0.73647 0.21761 0.0
C312 C 0.06396 0.54039 0.34913 0.0
C313 C 0.0754 0.54639 0.37056 0.0
C314 C 0.06144 0.53449 0.38833 0.0
C315 C 0.04247 0.52189 0.37677 0.0
N316 N 0.0436 0.5249 0.35266 0.0
Co317 Co 0.01989 0.50982 0.32894 0.0
N318 N 0.99747 0.49386 0.35523 0.0
C319 C 0.99966 0.49612 0.3791 0.0
C320 C 0.9815 0.48291 0.39273 0.0
C321 C 0.96699 0.47139 0.37661 0.0
C322 C 0.97727 0.47824 0.35401 0.0
N323 N 0.99699 0.49407 0.30518 0.0
C324 C 0.97758 0.47794 0.30876 0.0
C325 C 0.96786 0.47058 0.28727 0.0
C326 C 0.98193 0.4823 0.26942 0.0
C327 C 0.99939 0.49603 0.28099 0.0
N328 N 0.04153 0.52641 0.30266 0.0
C329 C 0.03759 0.52548 0.27881 0.0
C330 C 0.05441 0.53962 0.26523 0.0
C331 C 0.06975 0.55049 0.28134 0.0
C332 C 0.06145 0.54223 0.30393 0.0
N333 N 0.04751 0.48757 0.32794 0.0
C334 C 0.08312 0.45367 0.32591 0.0
C335 C 0.07675 0.46502 0.30515 0.0
C336 C 0.05908 0.48173 0.30655 0.0
C337 C 0.0721 0.46008 0.34783 0.0
C338 C 0.05462 0.47698 0.34843 0.0
N339 N 0.9922 0.53208 0.3299 0.0
C340 C 0.96028 0.55443 0.30959 0.0
C341 C 0.95541 0.56525 0.33046 0.0
C342 C 0.96878 0.55896 0.35119 0.0
C343 C 0.9867 0.54232 0.35059 0.0
C344 C 0.9787 0.53813 0.30966 0.0
H345 H 0.99602 0.53816 0.36706 0.0
H346 H 0.98191 0.53089 0.29301 0.0
H347 H 0.05481 0.4895 0.29002 0.0
H348 H 0.04671 0.48096 0.36567 0.0
C349 C 0.02127 0.50886 0.38813 0.0
C350 C 0.07229 0.55048 0.32605 0.0
C351 C 0.96837 0.46865 0.33204 0.0
C352 C 0.01815 0.51099 0.26971 0.0
H353 H 0.09167 0.55849 0.3731 0.0
H354 H 0.06408 0.53546 0.40745 0.0
H355 H 0.97984 0.48125 0.41208 0.0
H356 H 0.95122 0.45893 0.38097 0.0
H357 H 0.95245 0.45788 0.28476 0.0
H358 H 0.97993 0.48082 0.25029 0.0
H359 H 0.05519 0.5419 0.24592 0.0
H360 H 0.08502 0.56327 0.27696 0.0
H361 H 0.08528 0.46105 0.28777 0.0
H362 H 0.07627 0.45178 0.36445 0.0
H363 H 0.95049 0.55888 0.29305 0.0
H364 H 0.96531 0.56676 0.36787 0.0
C365 C 0.0545 0.54862 0.72739 0.0
C366 C 0.06393 0.55467 0.74952 0.0
C367 C 0.0485 0.54282 0.76646 0.0
C368 C 0.03058 0.53029 0.75379 0.0
N369 N 0.03382 0.53322 0.72973 0.0
Co370 Co 0.01139 0.51888 0.7046 0.0
N371 N 0.98708 0.50272 0.72965 0.0
C372 C 0.98857 0.50389 0.75375 0.0
C373 C 0.96975 0.49045 0.76633 0.0
C374 C 0.95557 0.47984 0.7493 0.0
C375 C 0.96659 0.48751 0.7272 0.0
N376 N 0.98914 0.5044 0.6795 0.0
C377 C 0.9687 0.48883 0.68186 0.0
C378 C 0.95935 0.48265 0.65976 0.0
C379 C 0.97477 0.49449 0.64279 0.0
C380 C 0.99253 0.50718 0.65544 0.0
N381 N 0.03554 0.53516 0.67958 0.0
C382 C 0.03392 0.53411 0.6555 0.0
C383 C 0.05269 0.54764 0.64294 0.0
C384 C 0.0669 0.55821 0.66001 0.0
C385 C 0.05586 0.55049 0.68206 0.0
N386 N 0.03804 0.49593 0.70439 0.0
C387 C 0.07224 0.46131 0.70415 0.0
C388 C 0.06661 0.47202 0.68283 0.0
C389 C 0.04936 0.48908 0.68333 0.0
C390 C 0.0613 0.46852 0.72561 0.0
C391 C 0.04474 0.48588 0.72535 0.0
N392 N 0.98474 0.54182 0.70483 0.0
C393 C 0.96 0.56867 0.68391 0.0
C394 C 0.95026 0.57646 0.70559 0.0
C395 C 0.95735 0.56608 0.7268 0.0
C396 C 0.97454 0.54909 0.72602 0.0
C397 C 0.97686 0.55139 0.68395 0.0
H398 H 0.97952 0.54227 0.74287 0.0
H399 H 0.98363 0.54628 0.66686 0.0
H400 H 0.04514 0.49623 0.66644 0.0
H401 H 0.03733 0.49069 0.74235 0.0
C402 C 0.00923 0.51672 0.76401 0.0
C403 C 0.06474 0.55873 0.70477 0.0
C404 C 0.95809 0.47899 0.70449 0.0
C405 C 0.0136 0.521 0.64524 0.0
H406 H 0.07981 0.56677 0.75309 0.0
H407 H 0.04962 0.5437 0.78573 0.0
H408 H 0.96727 0.48816 0.78559 0.0
H409 H 0.93947 0.46746 0.7528 0.0
H410 H 0.94338 0.47057 0.6563 0.0
H411 H 0.97366 0.49358 0.62352 0.0
H412 H 0.05526 0.54989 0.62368 0.0
H413 H 0.0832 0.57048 0.65664 0.0
H414 H 0.07477 0.46689 0.6658 0.0
H415 H 0.06558 0.4608 0.74258 0.0
H416 H 0.95527 0.57613 0.66693 0.0
H417 H 0.94978 0.57104 0.7441 0.0
C418 C 0.26358 0.98089 0.54774 0.0
C419 C 0.28915 0.97383 0.55518 0.0
C420 C 0.30977 0.98537 0.54243 0.0
C421 C 0.29568 0.99872 0.52797 0.0
N422 N 0.26729 0.99666 0.53096 0.0
Co423 Co 0.23877 0.01184 0.51224 0.0
N424 N 0.26913 0.02877 0.49343 0.0
C425 C 0.29728 0.02829 0.49621 0.0
C426 C 0.31284 0.04254 0.48173 0.0
C427 C 0.29346 0.05303 0.46921 0.0
C428 C 0.26711 0.04447 0.47679 0.0
N429 N 0.21029 0.02613 0.49259 0.0
C430 C 0.21393 0.04134 0.47514 0.0
C431 C 0.18842 0.04668 0.46582 0.0
C432 C 0.16789 0.03454 0.47798 0.0
C433 C 0.18198 0.0225 0.49392 0.0
N434 N 0.2084 0.99581 0.53201 0.0
C435 C 0.18025 0.9977 0.5307 0.0
C436 C 0.16463 0.98484 0.54674 0.0
C437 C 0.18393 0.974 0.55898 0.0
C438 C 0.21032 0.98089 0.54959 0.0
N439 N 0.23825 0.03434 0.53585 0.0
C440 C 0.23825 0.06766 0.56751 0.0
C441 C 0.21377 0.0613 0.55601 0.0
C442 C 0.21414 0.04459 0.54058 0.0
C443 C 0.26259 0.05685 0.56327 0.0
C444 C 0.26219 0.04047 0.54738 0.0
N445 N 0.23932 0.98931 0.48864 0.0
C446 C 0.21562 0.96066 0.46889 0.0
C447 C 0.24077 0.95567 0.45722 0.0
C448 C 0.26503 0.96821 0.4612 0.0
C449 C 0.26389 0.98468 0.47691 0.0
C450 C 0.21531 0.97749 0.48415 0.0
H451 H 0.28326 0.99331 0.47938 0.0
H452 H 0.19541 0.98044 0.49234 0.0
H453 H 0.19469 0.04037 0.53258 0.0
H454 H 0.28163 0.0332 0.54452 0.0
C455 C 0.30846 0.01383 0.51204 0.0
C456 C 0.23641 0.97193 0.55696 0.0
C457 C 0.24083 0.05197 0.46784 0.0
C458 C 0.16915 0.00972 0.5123 0.0
H459 H 0.29252 0.96153 0.5684 0.0
H460 H 0.33235 0.98417 0.54355 0.0
H461 H 0.33556 0.04505 0.48048 0.0
H462 H 0.29815 0.06563 0.45606 0.0
H463 H 0.18496 0.05855 0.45213 0.0
H464 H 0.14532 0.03506 0.47612 0.0
H465 H 0.14188 0.98295 0.54865 0.0
H466 H 0.17912 0.96197 0.57278 0.0
H467 H 0.19432 0.0691 0.55904 0.0
H468 H 0.2821 0.06136 0.57171 0.0
H469 H 0.19621 0.95141 0.46672 0.0
H470 H 0.28496 0.96545 0.45222 0.0
C471 C 0.47045 0.79225 0.04677 0.0
C472 C 0.46136 0.81153 0.05345 0.0
C473 C 0.47715 0.82632 0.0401 0.0
C474 C 0.49477 0.81528 0.02599 0.0
N475 N 0.49108 0.7943 0.02939 0.0
Co476 Co 0.51197 0.77239 0.01239 0.0
N477 N 0.53711 0.79418 0.99456 0.0
C478 C 0.53739 0.81512 0.9971 0.0
C479 C 0.55731 0.82608 0.98275 0.0
C480 C 0.57047 0.81128 0.97016 0.0
C481 C 0.55759 0.79209 0.97748 0.0
N482 N 0.53217 0.75051 0.99469 0.0
C483 C 0.55238 0.75259 0.97694 0.0
C484 C 0.55931 0.73332 0.96842 0.0
C485 C 0.54293 0.71854 0.98123 0.0
C486 C 0.52685 0.72956 0.99663 0.0
N487 N 0.48755 0.75058 0.03093 0.0
C488 C 0.48866 0.72958 0.0297 0.0
C489 C 0.47043 0.71858 0.04554 0.0
C490 C 0.45709 0.73341 0.0579 0.0
C491 C 0.46791 0.75269 0.04873 0.0
N492 N 0.48437 0.77325 0.98639 0.0
C493 C 0.44715 0.77419 0.94807 0.0
C494 C 0.45139 0.75554 0.96077 0.0
C495 C 0.47002 0.75541 0.97964 0.0
C496 C 0.46146 0.79243 0.9551 0.0
C497 C 0.47963 0.79164 0.97426 0.0
N498 N 0.53956 0.77153 0.03837 0.0
C499 C 0.56854 0.75197 0.06499 0.0
C500 C 0.57675 0.77009 0.07678 0.0
C501 C 0.56634 0.78899 0.06868 0.0
C502 C 0.54807 0.78937 0.04958 0.0
C503 C 0.55007 0.75303 0.04605 0.0
H504 H 0.54089 0.80427 0.0444 0.0
H505 H 0.5445 0.73863 0.03801 0.0
H506 H 0.47266 0.74061 0.98828 0.0
H507 H 0.48973 0.80612 0.97878 0.0
C508 C 0.51691 0.82411 0.01135 0.0
C509 C 0.45954 0.77252 0.05806 0.0
C510 C 0.56492 0.77243 0.96707 0.0
C511 C 0.50686 0.72068 0.01332 0.0
H512 H 0.4454 0.81459 0.06697 0.0
H513 H 0.47651 0.84313 0.04114 0.0
H514 H 0.56124 0.84286 0.98112 0.0
H515 H 0.58727 0.81431 0.95675 0.0
H516 H 0.57439 0.73023 0.95422 0.0
H517 H 0.54258 0.70177 0.97937 0.0
H518 H 0.46742 0.70177 0.04797 0.0
H519 H 0.44144 0.73035 0.07225 0.0
H520 H 0.44088 0.74098 0.95584 0.0
H521 H 0.45851 0.80731 0.94598 0.0
H522 H 0.57639 0.73697 0.07022 0.0
H523 H 0.57174 0.80347 0.07732 0.0
C524 C 0.81506 0.98715 0.55809 0.0
C525 C 0.8406 0.98181 0.56736 0.0
C526 C 0.8611 0.99389 0.55509 0.0
C527 C 0.84698 0.0059 0.53915 0.0
N528 N 0.81866 0.00232 0.54059 0.0
Co529 Co 0.79012 0.01653 0.52093 0.0
N530 N 0.82045 0.03238 0.50095 0.0
C531 C 0.84859 0.0304 0.50211 0.0
C532 C 0.86416 0.04315 0.48592 0.0
C533 C 0.84482 0.05401 0.47374 0.0
C534 C 0.81848 0.04727 0.48336 0.0
N535 N 0.76155 0.03164 0.50221 0.0
C536 C 0.76523 0.04728 0.48527 0.0
C537 C 0.73965 0.0544 0.47792 0.0
C538 C 0.71905 0.04298 0.49085 0.0
C539 C 0.73317 0.02967 0.50534 0.0
N540 N 0.7598 0.99977 0.53997 0.0
C541 C 0.73163 1.00029 0.53731 0.0
C542 C 0.71611 0.9861 0.55191 0.0
C543 C 0.73554 0.9756 0.56436 0.0
C544 C 0.76187 0.98408 0.55662 0.0
N545 N 0.78981 0.03921 0.54437 0.0
C546 C 0.78885 0.07276 0.5757 0.0
C547 C 0.76449 0.06034 0.57207 0.0
C548 C 0.76536 0.04388 0.55632 0.0
C549 C 0.81382 0.06792 0.56379 0.0
C550 C 0.81391 0.05106 0.54856 0.0
N551 N 0.79041 0.99385 0.49753 0.0
C552 C 0.76585 0.97121 0.47036 0.0
C553 C 0.79002 0.96014 0.46641 0.0
C554 C 0.81454 0.96644 0.47787 0.0
C555 C 0.81438 0.98336 0.493 0.0
C556 C 0.76643 0.98777 0.48601 0.0
H557 H 0.83387 0.98755 0.50095 0.0
H558 H 0.7471 0.99523 0.48871 0.0
H559 H 0.74589 0.03534 0.55392 0.0
H560 H 0.83373 0.04804 0.54029 0.0
C561 C 0.85976 0.01849 0.52057 0.0
C562 C 0.78818 0.9765 0.56538 0.0
C563 C 0.7924 0.05621 0.47602 0.0
C564 C 0.72043 0.01468 0.52143 0.0
H565 H 0.84409 0.96994 0.58104 0.0
H566 H 0.88368 0.99332 0.55685 0.0
H567 H 0.8869 0.04496 0.48387 0.0
H568 H 0.84955 0.06595 0.45982 0.0
H569 H 0.73625 0.06668 0.46471 0.0
H570 H 0.69648 0.04426 0.48985 0.0
H571 H 0.69339 0.98364 0.55325 0.0
H572 H 0.73089 0.96302 0.57755 0.0
H573 H 0.74463 0.06363 0.5809 0.0
H574 H 0.83328 0.07701 0.56636 0.0
H575 H 0.74634 0.96676 0.46188 0.0
H576 H 0.83385 0.95843 0.47502 0.0
C577 C 0.47821 0.27376 0.05543 0.0
C578 C 0.47061 0.2929 0.06388 0.0
C579 C 0.48669 0.30792 0.05117 0.0
C580 C 0.50327 0.29717 0.03589 0.0
N581 N 0.49855 0.27616 0.0378 0.0
Co582 Co 0.51969 0.25463 0.02031 0.0
N583 N 0.54377 0.27679 0.00199 0.0
C584 C 0.54195 0.29774 0.00318 0.0
C585 C 0.55992 0.30903 0.9874 0.0
C586 C 0.57385 0.29445 0.97512 0.0
C587 C 0.56367 0.275 0.98431 0.0
N588 N 0.5415 0.23308 0.00352 0.0
C589 C 0.56237 0.23544 0.98637 0.0
C590 C 0.57219 0.21631 0.97988 0.0
C591 C 0.55659 0.20131 0.99306 0.0
C592 C 0.53836 0.21207 0.00691 0.0
N593 N 0.49492 0.23248 0.03792 0.0
C594 C 0.49529 0.21157 0.03538 0.0
C595 C 0.47551 0.20031 0.04959 0.0
C596 C 0.46178 0.21487 0.06209 0.0
C597 C 0.47419 0.23424 0.05488 0.0
N598 N 0.49249 0.25504 0.99402 0.0
C599 C 0.45663 0.25606 0.95479 0.0
C600 C 0.46732 0.23731 0.96296 0.0
C601 C 0.48489 0.23713 0.98254 0.0
C602 C 0.46366 0.27421 0.96691 0.0
C603 C 0.48153 0.27337 0.98626 0.0
N604 N 0.54693 0.25422 0.04659 0.0
C605 C 0.57034 0.2354 0.07786 0.0
C606 C 0.58384 0.25387 0.08516 0.0
C607 C 0.57888 0.27247 0.07261 0.0
C608 C 0.56046 0.2723 0.0536 0.0
C609 C 0.55227 0.23591 0.05862 0.0
H610 H 0.55732 0.28705 0.04503 0.0
H611 H 0.54276 0.22127 0.05393 0.0
H612 H 0.49224 0.22232 0.98792 0.0
H613 H 0.48643 0.28781 0.99444 0.0
C614 C 0.52322 0.30634 0.01937 0.0
C615 C 0.46616 0.25375 0.06525 0.0
C616 C 0.57285 0.25531 0.9751 0.0
C617 C 0.51623 0.20291 0.02132 0.0
H618 H 0.45529 0.29576 0.07799 0.0
H619 H 0.48653 0.32468 0.05303 0.0
H620 H 0.56234 0.32586 0.9849 0.0
H621 H 0.58943 0.29781 0.96078 0.0
H622 H 0.58854 0.21349 0.96661 0.0
H623 H 0.55777 0.18453 0.99208 0.0
H624 H 0.47207 0.18348 0.0512 0.0
H625 H 0.44493 0.21158 0.0754 0.0
H626 H 0.46206 0.22279 0.95436 0.0
H627 H 0.45598 0.28913 0.96113 0.0
H628 H 0.57386 0.22055 0.08683 0.0
H629 H 0.5887 0.28722 0.07773 0.0
H630 H 0.14417 0.32975 0.30368 0.0
H631 H 0.2165 0.36478 0.32956 0.0
H632 H 0.11595 0.3601 0.308 0.0
H633 H 0.18862 0.39553 0.33262 0.0
H634 H 0.12319 0.44099 0.35697 0.0
H635 H 0.15069 0.40993 0.35503 0.0
H636 H 0.11083 0.39358 0.28925 0.0
H637 H 0.08232 0.4239 0.29188 0.0
C638 C 0.15406 0.34389 0.3104 0.0
C639 C 0.18266 0.34476 0.31628 0.0
C640 C 0.13794 0.36142 0.31255 0.0
C641 C 0.15001 0.38035 0.3205 0.0
C642 C 0.17854 0.38118 0.32663 0.0
C643 C 0.19464 0.3636 0.32458 0.0
C644 C 0.12006 0.43064 0.34224 0.0
C645 C 0.10051 0.435 0.32457 0.0
C646 C 0.13609 0.41295 0.34097 0.0
C647 C 0.13301 0.3992 0.32199 0.0
C648 C 0.11352 0.40363 0.30431 0.0
C649 C 0.09744 0.42124 0.30562 0.0
H650 H 0.18608 0.65767 0.74027 0.0
H651 H 0.14555 0.68303 0.67838 0.0
H652 H 0.15754 0.62518 0.73789 0.0
H653 H 0.11703 0.65045 0.67589 0.0
H654 H 0.04921 0.5984 0.69647 0.0
H655 H 0.0787 0.63083 0.69741 0.0
H656 H 0.15079 0.59488 0.7136 0.0
H657 H 0.12088 0.56259 0.7131 0.0
C658 C 0.17132 0.65621 0.72596 0.0
C659 C 0.16812 0.67295 0.70951 0.0
C660 C 0.15495 0.63757 0.72458 0.0
C661 C 0.13498 0.63518 0.70669 0.0
C662 C 0.13191 0.65187 0.69012 0.0
C663 C 0.14827 0.67054 0.69153 0.0
C664 C 0.0714 0.59759 0.70018 0.0
C665 C 0.08293 0.57823 0.70485 0.0
C666 C 0.08832 0.61606 0.70058 0.0
C667 C 0.11713 0.61547 0.70561 0.0
C668 C 0.12862 0.59593 0.71001 0.0
C669 C 0.11165 0.57747 0.70962 0.0
H670 H 0.86897 0.68056 0.35524 0.0
H671 H 0.8425 0.66025 0.2862 0.0
H672 H 0.89645 0.64956 0.35984 0.0
H673 H 0.87068 0.62972 0.29021 0.0
H674 H 0.90298 0.56727 0.31222 0.0
H675 H 0.87346 0.59727 0.31046 0.0
H676 H 0.93756 0.63419 0.34575 0.0
H677 H 0.96645 0.60384 0.34827 0.0
C678 C 0.86925 0.66952 0.34097 0.0
C679 C 0.85354 0.67275 0.32041 0.0
C680 C 0.88507 0.65178 0.34353 0.0
C681 C 0.88583 0.63702 0.32542 0.0
C682 C 0.87017 0.64043 0.30479 0.0
C683 C 0.8541 0.658 0.3024 0.0
C684 C 0.91063 0.58181 0.31966 0.0
C685 C 0.93699 0.58326 0.33034 0.0
C686 C 0.89381 0.59907 0.31855 0.0
C687 C 0.90313 0.61831 0.32778 0.0
C688 C 0.92942 0.61961 0.33877 0.0
C689 C 0.94606 0.60224 0.34016 0.0
H690 H 0.87851 0.35451 0.68645 0.0
H691 H 0.83781 0.37893 0.74909 0.0
H692 H 0.90675 0.38731 0.6804 0.0
H693 H 0.86592 0.41162 0.74304 0.0
H694 H 0.9014 0.47465 0.71321 0.0
H695 H 0.8718 0.44214 0.71591 0.0
H696 H 0.94492 0.40712 0.69917 0.0
H697 H 0.97417 0.43979 0.69612 0.0
C698 C 0.87569 0.36682 0.699 0.0
C699 C 0.85583 0.3641 0.71822 0.0
C700 C 0.89185 0.38562 0.69552 0.0
C701 C 0.88851 0.40213 0.71118 0.0
C702 C 0.86864 0.39939 0.73036 0.0
C703 C 0.85252 0.38063 0.73384 0.0
C704 C 0.91089 0.45994 0.70993 0.0
C705 C 0.93986 0.4595 0.70455 0.0
C706 C 0.89411 0.44136 0.71161 0.0
C707 C 0.90603 0.422 0.70792 0.0
C708 C 0.93501 0.42175 0.70189 0.0
C709 C 0.95178 0.44036 0.70023 0.0
H710 H 0.22321 0.17576 0.40208 0.0
H711 H 0.27987 0.14531 0.35408 0.0
H712 H 0.21861 0.1441 0.42779 0.0
H713 H 0.27593 0.11391 0.38013 0.0
H714 H 0.23898 0.05414 0.41922 0.0
H715 H 0.24141 0.08567 0.39293 0.0
H716 H 0.24736 0.12395 0.45505 0.0
H717 H 0.24453 0.0923 0.48112 0.0
C718 C 0.23462 0.16229 0.39699 0.0
C719 C 0.25192 0.16306 0.37604 0.0
C720 C 0.23221 0.14423 0.41184 0.0
C721 C 0.24692 0.12648 0.40602 0.0
C722 C 0.26409 0.12723 0.38501 0.0
C723 C 0.26661 0.14531 0.37022 0.0
C724 C 0.24067 0.06936 0.42707 0.0
C725 C 0.2415 0.07102 0.45199 0.0
C726 C 0.24223 0.08737 0.41213 0.0
C727 C 0.24461 0.10733 0.42191 0.0
C728 C 0.24519 0.10884 0.44697 0.0
C729 C 0.24372 0.09082 0.46188 0.0
H730 H 0.37727 0.76706 0.80661 0.0
H731 H 0.30611 0.78079 0.85243 0.0
H732 H 0.40764 0.76758 0.84115 0.0
H733 H 0.33655 0.78148 0.88695 0.0
H734 H 0.39439 0.75549 0.94524 0.0
H735 H 0.36376 0.75558 0.91084 0.0
H736 H 0.42673 0.79389 0.86989 0.0
H737 H 0.45745 0.79366 0.9042 0.0
C738 C 0.36814 0.77015 0.82408 0.0
C739 C 0.33933 0.77387 0.82685 0.0
C740 C 0.38555 0.77062 0.84379 0.0
C741 C 0.37445 0.77458 0.86673 0.0
C742 C 0.34563 0.77825 0.86951 0.0
C743 C 0.32828 0.77802 0.84974 0.0
C744 C 0.40168 0.76387 0.92886 0.0
C745 C 0.42829 0.77457 0.92739 0.0
C746 C 0.38408 0.76406 0.90926 0.0
C747 C 0.39288 0.77474 0.8877 0.0
C748 C 0.4195 0.78541 0.88623 0.0
C749 C 0.43696 0.78542 0.90591 0.0
H750 H 0.82176 0.84476 0.39337 0.0
H751 H 0.74526 0.86601 0.36337 0.0
H752 H 0.82468 0.87533 0.41824 0.0
H753 H 0.7471 0.89603 0.38903 0.0
H754 H 0.77114 0.95814 0.42091 0.0
H755 H 0.77012 0.92817 0.39513 0.0
H756 H 0.80533 0.89076 0.45163 0.0
H757 H 0.8076 0.92115 0.47674 0.0
C758 C 0.8054 0.85591 0.39235 0.0
C759 C 0.78335 0.85311 0.37644 0.0
C760 C 0.80692 0.8734 0.40669 0.0
C761 C 0.78612 0.8883 0.40576 0.0
C762 C 0.76388 0.88524 0.38994 0.0
C763 C 0.76266 0.86796 0.37532 0.0
C764 C 0.77869 0.94348 0.42769 0.0
C765 C 0.7895 0.94193 0.45074 0.0
C766 C 0.77796 0.92622 0.41301 0.0
C767 C 0.78753 0.90687 0.42122 0.0
C768 C 0.79827 0.90542 0.44441 0.0
C769 C 0.79946 0.9228 0.4589 0.0
H770 H 0.69585 0.2904 0.8611 0.0
H771 H 0.6631 0.2293 0.84182 0.0
H772 H 0.66543 0.28829 0.89715 0.0
H773 H 0.63241 0.22733 0.8778 0.0
H774 H 0.55986 0.24323 0.93046 0.0
H775 H 0.5909 0.24422 0.89448 0.0
H776 H 0.65991 0.26849 0.93577 0.0
H777 H 0.62862 0.26754 0.9716 0.0
C778 C 0.68236 0.27643 0.86464 0.0
C779 C 0.682 0.26 0.84855 0.0
C780 C 0.6649 0.27524 0.88531 0.0
C781 C 0.64655 0.25763 0.89036 0.0
C782 C 0.64607 0.24122 0.87426 0.0
C783 C 0.66363 0.24237 0.85362 0.0
C784 C 0.58172 0.24868 0.9317 0.0
C785 C 0.59198 0.25544 0.95355 0.0
C786 C 0.59949 0.24918 0.91123 0.0
C787 C 0.62784 0.25651 0.91226 0.0
C788 C 0.63809 0.26304 0.93432 0.0
C789 C 0.62033 0.26243 0.9548 0.0
H790 H 0.26464 0.88127 0.67124 0.0
H791 H 0.2095 0.8475 0.62424 0.0
H792 H 0.26307 0.91246 0.64522 0.0
H793 H 0.20811 0.87871 0.59811 0.0
H794 H 0.23974 0.93168 0.54414 0.0
H795 H 0.23958 0.90033 0.57055 0.0
H796 H 0.23044 0.93872 0.63224 0.0
H797 H 0.23102 0.96999 0.60561 0.0
C798 C 0.25193 0.88054 0.65549 0.0
C799 C 0.23718 0.86185 0.64986 0.0
C800 C 0.25105 0.89844 0.64057 0.0
C801 C 0.23546 0.89808 0.61959 0.0
C802 C 0.22064 0.87942 0.61397 0.0
C803 C 0.22146 0.86153 0.62893 0.0
C804 C 0.23759 0.93324 0.56336 0.0
C805 C 0.23535 0.95301 0.57302 0.0
C806 C 0.23735 0.91538 0.57846 0.0
C807 C 0.23499 0.91703 0.60351 0.0
C808 C 0.23261 0.93694 0.61306 0.0
C809 C 0.23276 0.95479 0.59792 0.0
H810 H 0.64626 0.75348 0.21823 0.0
H811 H 0.71656 0.77992 0.1744 0.0
H812 H 0.6163 0.75444 0.18361 0.0
H813 H 0.68686 0.78048 0.13959 0.0
H814 H 0.61888 0.7986 0.08819 0.0
H815 H 0.64852 0.79786 0.12291 0.0
H816 H 0.60827 0.73836 0.14646 0.0
H817 H 0.57747 0.73972 0.11253 0.0
C818 C 0.65536 0.75931 0.20111 0.0
C819 C 0.68374 0.76665 0.19904 0.0
C820 C 0.63823 0.75981 0.18123 0.0
C821 C 0.64912 0.76752 0.15873 0.0
C822 C 0.67759 0.77478 0.15669 0.0
C823 C 0.69465 0.77442 0.17662 0.0
C824 C 0.6161 0.78547 0.10091 0.0
C825 C 0.59567 0.76926 0.09753 0.0
C826 C 0.6334 0.7849 0.12069 0.0
C827 C 0.63085 0.76804 0.13754 0.0
C828 C 0.6106 0.75173 0.13404 0.0
C829 C 0.59318 0.75236 0.11435 0.0
H830 H 0.74231 0.16391 0.67999 0.0
H831 H 0.82136 0.18955 0.64823 0.0
H832 H 0.74424 0.13434 0.65414 0.0
H833 H 0.82453 0.15903 0.62392 0.0
H834 H 0.80869 0.11277 0.56535 0.0
H835 H 0.80631 0.1429 0.59068 0.0
H836 H 0.76608 0.10332 0.64749 0.0
H837 H 0.76728 0.07352 0.6215 0.0
C838 C 0.76016 0.16329 0.66753 0.0
C839 C 0.78159 0.17932 0.66622 0.0
C840 C 0.76152 0.14604 0.65294 0.0
C841 C 0.7846 0.14411 0.63687 0.0
C842 C 0.80619 0.16003 0.63575 0.0
C843 C 0.8046 0.17745 0.65007 0.0
C844 C 0.79942 0.11059 0.58329 0.0
C845 C 0.78813 0.09087 0.59148 0.0
C846 C 0.79817 0.12783 0.59792 0.0
C847 C 0.78602 0.12568 0.62127 0.0
C848 C 0.77507 0.10577 0.62949 0.0
C849 C 0.77588 0.08863 0.61469 0.0
H850 H 0.37103 0.22262 0.19872 0.0
H851 H 0.34418 0.2835 0.1764 0.0
H852 H 0.40201 0.22234 0.16308 0.0
H853 H 0.37503 0.28313 0.14069 0.0
H854 H 0.41182 0.26542 0.06754 0.0
H855 H 0.37989 0.26493 0.10294 0.0
H856 H 0.44529 0.24032 0.1462 0.0
H857 H 0.47689 0.24069 0.11064 0.0
C858 C 0.37187 0.23602 0.18631 0.0
C859 C 0.35511 0.25309 0.19046 0.0
C860 C 0.38962 0.23584 0.16586 0.0
C861 C 0.39098 0.25271 0.14904 0.0
C862 C 0.37415 0.26974 0.15312 0.0
C863 C 0.35645 0.26995 0.17359 0.0
C864 C 0.41917 0.25992 0.08469 0.0
C865 C 0.44665 0.25317 0.08659 0.0
C866 C 0.40105 0.25971 0.10493 0.0
C867 C 0.41007 0.25263 0.12741 0.0
C868 C 0.43758 0.24565 0.12913 0.0
C869 C 0.4557 0.24593 0.10889 0.0
H870 H 0.88941 0.70075 0.72771 0.0
H871 H 0.81779 0.66612 0.70041 0.0
H872 H 0.91809 0.67063 0.72281 0.0
H873 H 0.84602 0.63554 0.69637 0.0
H874 H 0.91017 0.58893 0.67428 0.0
H875 H 0.88332 0.62029 0.67542 0.0
H876 H 0.92401 0.63765 0.74052 0.0
H877 H 0.95226 0.60732 0.73837 0.0
C878 C 0.8798 0.68659 0.72078 0.0
C879 C 0.85139 0.6857 0.71454 0.0
C880 C 0.89616 0.66926 0.71808 0.0
C881 C 0.88437 0.65048 0.70943 0.0
C882 C 0.85598 0.64977 0.70279 0.0
C883 C 0.83973 0.66724 0.70518 0.0
C884 C 0.91373 0.59961 0.68863 0.0
C885 C 0.93341 0.59547 0.70626 0.0
C886 C 0.898 0.61749 0.68947 0.0
C887 C 0.9014 0.6316 0.70808 0.0
C888 C 0.92107 0.6274 0.72569 0.0
C889 C 0.93698 0.60971 0.72469 0.0
H890 H 0.90241 0.34538 0.29962 0.0
H891 H 0.84122 0.36545 0.35174 0.0
H892 H 0.93041 0.37789 0.30358 0.0
H893 H 0.86987 0.39768 0.35642 0.0
H894 H 0.91122 0.463 0.33448 0.0
H895 H 0.88314 0.42987 0.3335 0.0
H896 H 0.95991 0.39636 0.33129 0.0
H897 H 0.98767 0.42962 0.33177 0.0
C898 C 0.89496 0.35671 0.31198 0.0
C899 C 0.86948 0.35285 0.32526 0.0
C900 C 0.91121 0.37525 0.31447 0.0
C901 C 0.90241 0.3904 0.33034 0.0
C902 C 0.87711 0.38644 0.34387 0.0
C903 C 0.86085 0.36786 0.34138 0.0
C904 C 0.92186 0.44845 0.33399 0.0
C905 C 0.95137 0.44861 0.33321 0.0
C906 C 0.90591 0.42952 0.33354 0.0
C907 C 0.91929 0.41045 0.33225 0.0
C908 C 0.94895 0.41076 0.33194 0.0
C909 C 0.96484 0.42969 0.33239 0.0
H910 H 0.14841 0.34712 0.74783 0.0
H911 H 0.19152 0.36381 0.67999 0.0
H912 H 0.1207 0.37759 0.74385 0.0
H913 H 0.16181 0.39331 0.67492 0.0
H914 H 0.1254 0.45741 0.68544 0.0
H915 H 0.15382 0.42672 0.68798 0.0
H916 H 0.08372 0.39172 0.72431 0.0
H917 H 0.0563 0.4228 0.72293 0.0
C918 C 0.152 0.35723 0.73198 0.0
C919 C 0.17252 0.35296 0.71436 0.0
C920 C 0.1356 0.3746 0.72946 0.0
C921 C 0.13876 0.38801 0.70897 0.0
C922 C 0.15896 0.38357 0.69112 0.0
C923 C 0.17575 0.36637 0.69385 0.0
C924 C 0.11622 0.44307 0.69389 0.0
C925 C 0.08886 0.44242 0.70418 0.0
C926 C 0.13237 0.42542 0.69524 0.0
C927 C 0.12126 0.40664 0.70653 0.0
C928 C 0.0934 0.40597 0.71608 0.0
C929 C 0.07754 0.42371 0.71515 0.0
H930 H 0.19016 0.65173 0.27887 0.0
H931 H 0.1519 0.67479 0.34335 0.0
H932 H 0.16225 0.61894 0.28477 0.0
H933 H 0.12483 0.64157 0.34984 0.0
H934 H 0.0568 0.58943 0.33629 0.0
H935 H 0.08577 0.62218 0.33262 0.0
H936 H 0.15756 0.58778 0.31038 0.0
H937 H 0.12813 0.5552 0.31362 0.0
C938 C 0.1758 0.6498 0.29433 0.0
C939 C 0.17315 0.66596 0.31055 0.0
C940 C 0.16006 0.63088 0.29789 0.0
C941 C 0.14132 0.62759 0.31781 0.0
C942 C 0.13886 0.64366 0.33418 0.0
C943 C 0.15461 0.66262 0.3306 0.0
C944 C 0.07884 0.58902 0.33077 0.0
C945 C 0.0904 0.57004 0.32512 0.0
C946 C 0.09547 0.60767 0.32878 0.0
C947 C 0.12399 0.60763 0.32112 0.0
C948 C 0.13559 0.58842 0.31596 0.0
C949 C 0.11891 0.56979 0.31794 0.0
H950 H 0.74946 0.88277 0.67854 0.0
H951 H 0.80648 0.8526 0.63056 0.0
H952 H 0.75339 0.91423 0.65265 0.0
H953 H 0.81023 0.88408 0.60455 0.0
H954 H 0.78404 0.93628 0.55176 0.0
H955 H 0.78125 0.90448 0.57758 0.0
H956 H 0.7882 0.94235 0.63996 0.0
H957 H 0.79058 0.97404 0.61394 0.0
C958 C 0.76303 0.8829 0.66257 0.0
C959 C 0.77772 0.86516 0.65668 0.0
C960 C 0.76527 0.90094 0.64773 0.0
C961 C 0.78219 0.90168 0.62659 0.0
C962 C 0.79676 0.88392 0.62058 0.0
C963 C 0.79457 0.86587 0.63547 0.0
C964 C 0.78507 0.93763 0.57101 0.0
C965 C 0.78756 0.95736 0.58105 0.0
C966 C 0.78362 0.91952 0.58576 0.0
C967 C 0.78448 0.92089 0.61083 0.0
C968 C 0.78714 0.94078 0.62076 0.0
C969 C 0.78868 0.95887 0.60597 0.0
H970 H 0.7256 0.25108 0.18012 0.0
H971 H 0.65321 0.25958 0.227 0.0
H972 H 0.69516 0.25041 0.14578 0.0
H973 H 0.62278 0.25848 0.19266 0.0
H974 H 0.57483 0.23312 0.12849 0.0
H975 H 0.60559 0.23321 0.16274 0.0
H976 H 0.66582 0.27489 0.12304 0.0
H977 H 0.6353 0.2745 0.08864 0.0
C978 C 0.70325 0.25295 0.18312 0.0
C979 C 0.69191 0.25543 0.20637 0.0
C980 C 0.68581 0.25251 0.16342 0.0
C981 C 0.65659 0.2544 0.16652 0.0
C982 C 0.64518 0.25672 0.18975 0.0
C983 C 0.66263 0.2573 0.20943 0.0
C984 C 0.59476 0.24215 0.12702 0.0
C985 C 0.60267 0.25379 0.10587 0.0
C986 C 0.61223 0.24236 0.1467 0.0
C987 C 0.6381 0.25407 0.14558 0.0
C988 C 0.64612 0.26558 0.12437 0.0
C989 C 0.62854 0.2655 0.10476 0.0
H990 H 0.2069 0.18208 0.64243 0.0
H991 H 0.28604 0.16189 0.66881 0.0
H992 H 0.20281 0.15121 0.61842 0.0
H993 H 0.2831 0.13199 0.64335 0.0
H994 H 0.25869 0.06961 0.61252 0.0
H995 H 0.26001 0.09942 0.63855 0.0
H996 H 0.22107 0.13647 0.5838 0.0
H997 H 0.21871 0.10629 0.55837 0.0
C998 C 0.22346 0.17109 0.64316 0.0
C999 C 0.24681 0.17459 0.65766 0.0
C1000 C 0.22133 0.1535 0.62904 0.0
C1001 C 0.24266 0.13903 0.62879 0.0
C1002 C 0.26601 0.14255 0.64327 0.0
C1003 C 0.26795 0.15998 0.65762 0.0
C1004 C 0.25038 0.08415 0.60615 0.0
C1005 C 0.23859 0.08567 0.58347 0.0
C1006 C 0.25126 0.1013 0.62099 0.0
C1007 C 0.24078 0.1205 0.61332 0.0
C1008 C 0.22889 0.1219 0.59057 0.0
C1009 C 0.22763 0.10464 0.57591 0.0
H1010 H 0.38674 0.75463 0.20212 0.0
H1011 H 0.32204 0.78453 0.16284 0.0
H1012 H 0.41707 0.75599 0.16595 0.0
H1013 H 0.35274 0.78652 0.12689 0.0
H1014 H 0.40291 0.76371 0.06156 0.0
H1015 H 0.37227 0.76301 0.09777 0.0
H1016 H 0.44406 0.78135 0.13941 0.0
H1017 H 0.47454 0.78164 0.10313 0.0
C1018 C 0.379 0.7615 0.18577 0.0
C1019 C 0.35196 0.76944 0.18535 0.0
C1020 C 0.39649 0.76249 0.16511 0.0
C1021 C 0.38732 0.77138 0.14354 0.0
C1022 C 0.36032 0.77939 0.14316 0.0
C1023 C 0.34286 0.77846 0.16383 0.0
C1024 C 0.41193 0.7676 0.07853 0.0
C1025 C 0.44088 0.77264 0.07982 0.0
C1026 C 0.39449 0.76733 0.09919 0.0
C1027 C 0.40575 0.7721 0.12149 0.0
C1028 C 0.43481 0.77733 0.12259 0.0
C1029 C 0.4522 0.77764 0.1019 0.0
H1030 H 0.82276 0.1799 0.40737 0.0
H1031 H 0.75823 0.14931 0.36618 0.0
H1032 H 0.82519 0.14824 0.43254 0.0
H1033 H 0.75979 0.118 0.39196 0.0
H1034 H 0.78942 0.0582 0.4275 0.0
H1035 H 0.78981 0.08965 0.40122 0.0
H1036 H 0.79728 0.12813 0.4631 0.0
H1037 H 0.79751 0.09654 0.48906 0.0
C1038 C 0.80914 0.16641 0.40364 0.0
C1039 C 0.79029 0.16717 0.38475 0.0
C1040 C 0.8103 0.14833 0.41825 0.0
C1041 C 0.79266 0.13057 0.4143 0.0
C1042 C 0.77391 0.1313 0.39534 0.0
C1043 C 0.77276 0.14936 0.38075 0.0
C1044 C 0.7913 0.07346 0.43528 0.0
C1045 C 0.79347 0.07519 0.46009 0.0
C1046 C 0.79134 0.09143 0.42036 0.0
C1047 C 0.7935 0.11143 0.43006 0.0
C1048 C 0.79596 0.113 0.455 0.0
C1049 C 0.79594 0.09501 0.46988 0.0
H1050 H 0.34872 0.29429 0.83995 0.0
H1051 H 0.36272 0.22961 0.82654 0.0
H1052 H 0.37836 0.29255 0.87473 0.0
H1053 H 0.39184 0.22762 0.86166 0.0
H1054 H 0.46487 0.23735 0.91208 0.0
H1055 H 0.43609 0.23919 0.87677 0.0
H1056 H 0.37867 0.27791 0.91445 0.0
H1057 H 0.4079 0.27643 0.94951 0.0
C1058 C 0.358 0.27965 0.84457 0.0
C1059 C 0.3534 0.26209 0.83054 0.0
C1060 C 0.3749 0.27861 0.86456 0.0
C1061 C 0.38743 0.25991 0.87112 0.0
C1062 C 0.38291 0.24237 0.85696 0.0
C1063 C 0.36618 0.24348 0.83685 0.0
C1064 C 0.44598 0.24613 0.91283 0.0
C1065 C 0.43865 0.25676 0.93355 0.0
C1066 C 0.42944 0.24716 0.89261 0.0
C1067 C 0.40503 0.25872 0.89269 0.0
C1068 C 0.39759 0.26919 0.91355 0.0
C1069 C 0.41428 0.26829 0.93369 0.0
H1070 H 0.28695 0.86472 0.35253 0.0
H1071 H 0.20744 0.83958 0.38352 0.0
H1072 H 0.28492 0.89469 0.3785 0.0
H1073 H 0.20526 0.8697 0.40935 0.0
H1074 H 0.19989 0.94047 0.42753 0.0
H1075 H 0.20147 0.91017 0.40231 0.0
H1076 H 0.2858 0.8996 0.4247 0.0
H1077 H 0.28396 0.9292 0.45087 0.0
C1078 C 0.26901 0.86568 0.36484 0.0
C1079 C 0.24734 0.84988 0.36606 0.0
C1080 C 0.26793 0.88273 0.37976 0.0
C1081 C 0.24493 0.88447 0.39587 0.0
C1082 C 0.22313 0.86876 0.39696 0.0
C1083 C 0.22446 0.85151 0.38234 0.0
C1084 C 0.21864 0.93156 0.42745 0.0
C1085 C 0.2418 0.93742 0.44134 0.0
C1086 C 0.21955 0.91425 0.41288 0.0
C1087 C 0.24377 0.90262 0.41156 0.0
C1088 C 0.26698 0.90847 0.42522 0.0
C1089 C 0.26594 0.92555 0.44009 0.0
H1090 H 0.6864 0.74269 0.8553 0.0
H1091 H 0.65949 0.80369 0.83362 0.0
H1092 H 0.65504 0.74255 0.89078 0.0
H1093 H 0.6288 0.80383 0.86948 0.0
H1094 H 0.55401 0.78567 0.9218 0.0
H1095 H 0.58536 0.78592 0.88609 0.0
H1096 H 0.65055 0.76037 0.92884 0.0
H1097 H 0.61887 0.76 0.9644 0.0
C1098 C 0.67376 0.75605 0.85809 0.0
C1099 C 0.67541 0.77319 0.84162 0.0
C1100 C 0.65602 0.75607 0.87855 0.0
C1101 C 0.63946 0.77319 0.88297 0.0
C1102 C 0.64109 0.79032 0.86648 0.0
C1103 C 0.6589 0.79034 0.84607 0.0
C1104 C 0.57508 0.78016 0.9234 0.0
C1105 C 0.58417 0.77273 0.9456 0.0
C1106 C 0.59306 0.78038 0.90308 0.0
C1107 C 0.62044 0.77314 0.90463 0.0
C1108 C 0.62947 0.76579 0.92699 0.0
C1109 C 0.6115 0.76565 0.94732 0.0
loop_
_geom_bond_atom_site_label_1
_geom_bond_atom_site_label_2
_geom_bond_distance
_geom_bond_site_symmetry_2
_ccdc_geom_bond_type
C0 C1 1.386 . S
C0 C2 1.397 . S
C0 H24 0.931 . S
C1 C0 1.386 . S
C1 C5 1.397 . S
C2 C0 1.397 . S
C2 C3 1.384 . S
C2 H25 0.930 . S
C3 C2 1.384 . S
C3 C4 1.377 . S
C3 C6 1.481 . S
C4 C3 1.377 . S
C4 C5 1.389 . S
C4 H26 0.929 . S
C5 C1 1.397 . S
C5 C4 1.389 . S
C5 H27 0.931 . S
C6 C3 1.481 . S
C6 C7 1.387 . S
C6 C11 1.390 . S
C7 C6 1.387 . S
C7 C8 1.401 . S
C7 H28 0.930 . S
C8 C7 1.401 . S
C8 C9 1.376 . S
C8 C17 1.511 . S
C9 C8 1.376 . S
C9 C10 1.392 . S
C9 H30 0.931 . S
C10 C9 1.392 . S
C10 C11 1.361 . S
C10 C12 1.500 . S
C11 C6 1.390 . S
C11 C10 1.361 . S
C11 H29 0.931 . S
C12 C10 1.500 . S
C12 C13 1.371 . S
C12 C14 1.365 . S
C13 C12 1.371 . S
C13 C23 1.386 . S
C13 H31 0.931 . S
C14 C12 1.365 . S
C14 C15 1.409 . S
C14 H32 0.929 . S
C15 C14 1.409 . S
C15 C16 1.380 . S
C15 H33 0.930 . S
C16 C15 1.380 . S
C16 C23 1.357 . S
C17 C8 1.511 . S
C17 C18 1.341 . S
C17 C19 1.371 . S
C18 C17 1.341 . S
C18 C22 1.394 . S
C18 H34 0.930 . S
C19 C17 1.371 . S
C19 C20 1.392 . S
C19 H35 0.931 . S
C20 C19 1.392 . S
C20 C21 1.331 . S
C20 H38 0.932 . S
C21 C20 1.331 . S
C21 C22 1.336 . S
C22 C18 1.394 . S
C22 C21 1.336 . S
C22 H37 0.929 . S
C23 C13 1.386 . S
C23 C16 1.357 . S
C23 H36 0.928 . S
H24 C0 0.931 . S
H25 C2 0.930 . S
H26 C4 0.929 . S
H27 C5 0.931 . S
H28 C7 0.930 . S
H29 C11 0.931 . S
H30 C9 0.931 . S
H31 C13 0.931 . S
H32 C14 0.929 . S
H33 C15 0.930 . S
H34 C18 0.930 . S
H35 C19 0.931 . S
H36 C23 0.928 . S
H37 C22 0.929 . S
H38 C20 0.932 . S
C39 C40 1.386 . S
C39 C41 1.397 . S
C39 H63 0.931 . S
C40 C39 1.386 . S
C40 C44 1.397 . S
C41 C39 1.397 . S
C41 C42 1.384 . S
C41 H64 0.930 . S
C42 C41 1.384 . S
C42 C43 1.377 . S
C42 C45 1.481 . S
C43 C42 1.377 . S
C43 C44 1.389 . S
C43 H65 0.929 . S
C44 C40 1.397 . S
C44 C43 1.389 . S
C44 H66 0.931 . S
C45 C42 1.481 . S
C45 C46 1.387 . S
C45 C50 1.390 . S
C46 C45 1.387 . S
C46 C47 1.401 . S
C46 H67 0.930 . S
C47 C46 1.401 . S
C47 C48 1.376 . S
C47 C56 1.511 . S
C48 C47 1.376 . S
C48 C49 1.392 . S
C48 H69 0.931 . S
C49 C48 1.392 . S
C49 C50 1.361 . S
C49 C51 1.500 . S
C50 C45 1.390 . S
C50 C49 1.361 . S
C50 H68 0.931 . S
C51 C49 1.500 . S
C51 C52 1.371 . S
C51 C53 1.365 . S
C52 C51 1.371 . S
C52 C62 1.386 . S
C52 H70 0.931 . S
C53 C51 1.365 . S
C53 C54 1.409 . S
C53 H71 0.929 . S
C54 C53 1.409 . S
C54 C55 1.380 . S
C54 H72 0.930 . S
C55 C54 1.380 . S
C55 C62 1.357 . S
C56 C47 1.511 . S
C56 C57 1.341 . S
C56 C58 1.371 . S
C57 C56 1.341 . S
C57 C61 1.394 . S
C57 H73 0.930 . S
C58 C56 1.371 . S
C58 C59 1.392 . S
C58 H74 0.931 . S
C59 C58 1.392 . S
C59 C60 1.331 . S
C59 H77 0.932 . S
C60 C59 1.331 . S
C60 C61 1.336 . S
C61 C57 1.394 . S
C61 C60 1.336 . S
C61 H76 0.929 . S
C62 C52 1.386 . S
C62 C55 1.357 . S
C62 H75 0.928 . S
H63 C39 0.931 . S
H64 C41 0.930 . S
H65 C43 0.929 . S
H66 C44 0.931 . S
H67 C46 0.930 . S
H68 C50 0.931 . S
H69 C48 0.931 . S
H70 C52 0.931 . S
H71 C53 0.929 . S
H72 C54 0.930 . S
H73 C57 0.930 . S
H74 C58 0.931 . S
H75 C62 0.928 . S
H76 C61 0.929 . S
H77 C59 0.932 . S
C78 C79 1.386 . S
C78 C80 1.397 . S
C78 H102 0.931 . S
C79 C78 1.386 . S
C79 C83 1.397 . S
C80 C78 1.397 . S
C80 C81 1.384 . S
C80 H103 0.930 . S
C81 C80 1.384 . S
C81 C82 1.377 . S
C81 C84 1.481 . S
C82 C81 1.377 . S
C82 C83 1.389 . S
C82 H104 0.929 . S
C83 C79 1.397 . S
C83 C82 1.389 . S
C83 H105 0.931 . S
C84 C81 1.481 . S
C84 C85 1.387 . S
C84 C89 1.390 . S
C85 C84 1.387 . S
C85 C86 1.401 . S
C85 H106 0.930 . S
C86 C85 1.401 . S
C86 C87 1.376 . S
C86 C95 1.511 . S
C87 C86 1.376 . S
C87 C88 1.392 . S
C87 H108 0.931 . S
C88 C87 1.392 . S
C88 C89 1.361 . S
C88 C90 1.500 . S
C89 C84 1.390 . S
C89 C88 1.361 . S
C89 H107 0.931 . S
C90 C88 1.500 . S
C90 C91 1.371 . S
C90 C92 1.365 . S
C91 C90 1.371 . S
C91 C101 1.386 . S
C91 H109 0.931 . S
C92 C90 1.365 . S
C92 C93 1.409 . S
C92 H110 0.929 . S
C93 C92 1.409 . S
C93 C94 1.380 . S
C93 H111 0.930 . S
C94 C93 1.380 . S
C94 C101 1.357 . S
C95 C86 1.511 . S
C95 C96 1.341 . S
C95 C97 1.371 . S
C96 C95 1.341 . S
C96 C100 1.394 . S
C96 H112 0.930 . S
C97 C95 1.371 . S
C97 C98 1.392 . S
C97 H113 0.931 . S
C98 C97 1.392 . S
C98 C99 1.331 . S
C98 H116 0.932 . S
C99 C98 1.331 . S
C99 C100 1.336 . S
C100 C96 1.394 . S
C100 C99 1.336 . S
C100 H115 0.929 . S
C101 C91 1.386 . S
C101 C94 1.357 . S
C101 H114 0.928 . S
H102 C78 0.931 . S
H103 C80 0.930 . S
H104 C82 0.929 . S
H105 C83 0.931 . S
H106 C85 0.930 . S
H107 C89 0.931 . S
H108 C87 0.931 . S
H109 C91 0.931 . S
H110 C92 0.929 . S
H111 C93 0.930 . S
H112 C96 0.930 . S
H113 C97 0.931 . S
H114 C101 0.928 . S
H115 C100 0.929 . S
H116 C98 0.932 . S
C117 C118 1.386 . S
C117 C119 1.397 . S
C117 H141 0.931 . S
C118 C117 1.386 . S
C118 C122 1.397 . S
C119 C117 1.397 . S
C119 C120 1.384 . S
C119 H142 0.930 . S
C120 C119 1.384 . S
C120 C121 1.377 . S
C120 C123 1.481 . S
C121 C120 1.377 . S
C121 C122 1.389 . S
C121 H143 0.929 . S
C122 C118 1.397 . S
C122 C121 1.389 . S
C122 H144 0.931 . S
C123 C120 1.481 . S
C123 C124 1.387 . S
C123 C128 1.390 . S
C124 C123 1.387 . S
C124 C125 1.401 . S
C124 H145 0.930 . S
C125 C124 1.401 . S
C125 C126 1.376 . S
C125 C134 1.511 . S
C126 C125 1.376 . S
C126 C127 1.392 . S
C126 H147 0.931 . S
C127 C126 1.392 . S
C127 C128 1.361 . S
C127 C129 1.500 . S
C128 C123 1.390 . S
C128 C127 1.361 . S
C128 H146 0.931 . S
C129 C127 1.500 . S
C129 C130 1.371 . S
C129 C131 1.365 . S
C130 C129 1.371 . S
C130 C140 1.386 . S
C130 H148 0.931 . S
C131 C129 1.365 . S
C131 C132 1.409 . S
C131 H149 0.929 . S
C132 C131 1.409 . S
C132 C133 1.380 . S
C132 H150 0.930 . S
C133 C132 1.380 . S
C133 C140 1.357 . S
C134 C125 1.511 . S
C134 C135 1.341 . S
C134 C136 1.371 . S
C135 C134 1.341 . S
C135 C139 1.394 . S
C135 H151 0.930 . S
C136 C134 1.371 . S
C136 C137 1.392 . S
C136 H152 0.931 . S
C137 C136 1.392 . S
C137 C138 1.331 . S
C137 H155 0.932 . S
C138 C137 1.331 . S
C138 C139 1.336 . S
C139 C135 1.394 . S
C139 C138 1.336 . S
C139 H154 0.929 . S
C140 C130 1.386 . S
C140 C133 1.357 . S
C140 H153 0.928 . S
H141 C117 0.931 . S
H142 C119 0.930 . S
H143 C121 0.929 . S
H144 C122 0.931 . S
H145 C124 0.930 . S
H146 C128 0.931 . S
H147 C126 0.931 . S
H148 C130 0.931 . S
H149 C131 0.929 . S
H150 C132 0.930 . S
H151 C135 0.930 . S
H152 C136 0.931 . S
H153 C140 0.928 . S
H154 C139 0.929 . S
H155 C137 0.932 . S
C156 C157 1.386 . S
C156 C158 1.397 . S
C156 H180 0.931 . S
C157 C156 1.386 . S
C157 C161 1.397 . S
C158 C156 1.397 . S
C158 C159 1.384 . S
C158 H181 0.930 . S
C159 C158 1.384 . S
C159 C160 1.377 . S
C159 C162 1.481 . S
C160 C159 1.377 . S
C160 C161 1.389 . S
C160 H182 0.929 . S
C161 C157 1.397 . S
C161 C160 1.389 . S
C161 H183 0.931 . S
C162 C159 1.481 . S
C162 C163 1.387 . S
C162 C167 1.390 . S
C163 C162 1.387 . S
C163 C164 1.401 . S
C163 H184 0.930 . S
C164 C163 1.401 . S
C164 C165 1.376 . S
C164 C173 1.511 . S
C165 C164 1.376 . S
C165 C166 1.392 . S
C165 H186 0.931 . S
C166 C165 1.392 . S
C166 C167 1.361 . S
C166 C168 1.500 . S
C167 C162 1.390 . S
C167 C166 1.361 . S
C167 H185 0.931 . S
C168 C166 1.500 . S
C168 C169 1.371 . S
C168 C170 1.365 . S
C169 C168 1.371 . S
C169 C179 1.386 . S
C169 H187 0.931 . S
C170 C168 1.365 . S
C170 C171 1.409 . S
C170 H188 0.929 . S
C171 C170 1.409 . S
C171 C172 1.380 . S
C171 H189 0.930 . S
C172 C171 1.380 . S
C172 C179 1.357 . S
C173 C164 1.511 . S
C173 C174 1.341 . S
C173 C175 1.371 . S
C174 C173 1.341 . S
C174 C178 1.394 . S
C174 H190 0.930 . S
C175 C173 1.371 . S
C175 C176 1.392 . S
C175 H191 0.931 . S
C176 C175 1.392 . S
C176 C177 1.331 . S
C176 H194 0.932 . S
C177 C176 1.331 . S
C177 C178 1.336 . S
C178 C174 1.394 . S
C178 C177 1.336 . S
C178 H193 0.929 . S
C179 C169 1.386 . S
C179 C172 1.357 . S
C179 H192 0.928 . S
H180 C156 0.931 . S
H181 C158 0.930 . S
H182 C160 0.929 . S
H183 C161 0.931 . S
H184 C163 0.930 . S
H185 C167 0.931 . S
H186 C165 0.931 . S
H187 C169 0.931 . S
H188 C170 0.929 . S
H189 C171 0.930 . S
H190 C174 0.930 . S
H191 C175 0.931 . S
H192 C179 0.928 . S
H193 C178 0.929 . S
H194 C176 0.932 . S
C195 C196 1.386 . S
C195 C197 1.397 . S
C195 H219 0.931 . S
C196 C195 1.386 . S
C196 C200 1.397 . S
C197 C195 1.397 . S
C197 C198 1.384 . S
C197 H220 0.930 . S
C198 C197 1.384 . S
C198 C199 1.377 . S
C198 C201 1.481 . S
C199 C198 1.377 . S
C199 C200 1.389 . S
C199 H221 0.929 . S
C200 C196 1.397 . S
C200 C199 1.389 . S
C200 H222 0.931 . S
C201 C198 1.481 . S
C201 C202 1.387 . S
C201 C206 1.390 . S
C202 C201 1.387 . S
C202 C203 1.401 . S
C202 H223 0.930 . S
C203 C202 1.401 . S
C203 C204 1.376 . S
C203 C212 1.511 . S
C204 C203 1.376 . S
C204 C205 1.392 . S
C204 H225 0.931 . S
C205 C204 1.392 . S
C205 C206 1.361 . S
C205 C207 1.500 . S
C206 C201 1.390 . S
C206 C205 1.361 . S
C206 H224 0.931 . S
C207 C205 1.500 . S
C207 C208 1.371 . S
C207 C209 1.365 . S
C208 C207 1.371 . S
C208 C218 1.386 . S
C208 H226 0.931 . S
C209 C207 1.365 . S
C209 C210 1.409 . S
C209 H227 0.929 . S
C210 C209 1.409 . S
C210 C211 1.380 . S
C210 H228 0.930 . S
C211 C210 1.380 . S
C211 C218 1.357 . S
C212 C203 1.511 . S
C212 C213 1.341 . S
C212 C214 1.371 . S
C213 C212 1.341 . S
C213 C217 1.394 . S
C213 H229 0.930 . S
C214 C212 1.371 . S
C214 C215 1.392 . S
C214 H230 0.931 . S
C215 C214 1.392 . S
C215 C216 1.331 . S
C215 H233 0.932 . S
C216 C215 1.331 . S
C216 C217 1.336 . S
C217 C213 1.394 . S
C217 C216 1.336 . S
C217 H232 0.929 . S
C218 C208 1.386 . S
C218 C211 1.357 . S
C218 H231 0.928 . S
H219 C195 0.931 . S
H220 C197 0.930 . S
H221 C199 0.929 . S
H222 C200 0.931 . S
H223 C202 0.930 . S
H224 C206 0.931 . S
H225 C204 0.931 . S
H226 C208 0.931 . S
H227 C209 0.929 . S
H228 C210 0.930 . S
H229 C213 0.930 . S
H230 C214 0.931 . S
H231 C218 0.928 . S
H232 C217 0.929 . S
H233 C215 0.932 . S
C234 C235 1.386 . S
C234 C236 1.397 . S
C234 H258 0.931 . S
C235 C234 1.386 . S
C235 C239 1.397 . S
C236 C234 1.397 . S
C236 C237 1.384 . S
C236 H259 0.930 . S
C237 C236 1.384 . S
C237 C238 1.377 . S
C237 C240 1.481 . S
C238 C237 1.377 . S
C238 C239 1.389 . S
C238 H260 0.929 . S
C239 C235 1.397 . S
C239 C238 1.389 . S
C239 H261 0.931 . S
C240 C237 1.481 . S
C240 C241 1.387 . S
C240 C245 1.390 . S
C241 C240 1.387 . S
C241 C242 1.401 . S
C241 H262 0.930 . S
C242 C241 1.401 . S
C242 C243 1.376 . S
C242 C251 1.511 . S
C243 C242 1.376 . S
C243 C244 1.392 . S
C243 H264 0.931 . S
C244 C243 1.392 . S
C244 C245 1.361 . S
C244 C246 1.500 . S
C245 C240 1.390 . S
C245 C244 1.361 . S
C245 H263 0.931 . S
C246 C244 1.500 . S
C246 C247 1.371 . S
C246 C248 1.365 . S
C247 C246 1.371 . S
C247 C257 1.386 . S
C247 H265 0.931 . S
C248 C246 1.365 . S
C248 C249 1.409 . S
C248 H266 0.929 . S
C249 C248 1.409 . S
C249 C250 1.380 . S
C249 H267 0.930 . S
C250 C249 1.380 . S
C250 C257 1.357 . S
C251 C242 1.511 . S
C251 C252 1.341 . S
C251 C253 1.371 . S
C252 C251 1.341 . S
C252 C256 1.394 . S
C252 H268 0.930 . S
C253 C251 1.371 . S
C253 C254 1.392 . S
C253 H269 0.931 . S
C254 C253 1.392 . S
C254 C255 1.331 . S
C254 H272 0.932 . S
C255 C254 1.331 . S
C255 C256 1.336 . S
C256 C252 1.394 . S
C256 C255 1.336 . S
C256 H271 0.929 . S
C257 C247 1.386 . S
C257 C250 1.357 . S
C257 H270 0.928 . S
H258 C234 0.931 . S
H259 C236 0.930 . S
H260 C238 0.929 . S
H261 C239 0.931 . S
H262 C241 0.930 . S
H263 C245 0.931 . S
H264 C243 0.931 . S
H265 C247 0.931 . S
H266 C248 0.929 . S
H267 C249 0.930 . S
H268 C252 0.930 . S
H269 C253 0.931 . S
H270 C257 0.928 . S
H271 C256 0.929 . S
H272 C254 0.932 . S
C273 C274 1.386 . S
C273 C275 1.397 . S
C273 H297 0.931 . S
C274 C273 1.386 . S
C274 C278 1.397 . S
C275 C273 1.397 . S
C275 C276 1.384 . S
C275 H298 0.930 . S
C276 C275 1.384 . S
C276 C277 1.377 . S
C276 C279 1.481 . S
C277 C276 1.377 . S
C277 C278 1.389 . S
C277 H299 0.929 . S
C278 C274 1.397 . S
C278 C277 1.389 . S
C278 H300 0.931 . S
C279 C276 1.481 . S
C279 C280 1.387 . S
C279 C284 1.390 . S
C280 C279 1.387 . S
C280 C281 1.401 . S
C280 H301 0.930 . S
C281 C280 1.401 . S
C281 C282 1.376 . S
C281 C290 1.511 . S
C282 C281 1.376 . S
C282 C283 1.392 . S
C282 H303 0.931 . S
C283 C282 1.392 . S
C283 C284 1.361 . S
C283 C285 1.500 . S
C284 C279 1.390 . S
C284 C283 1.361 . S
C284 H302 0.931 . S
C285 C283 1.500 . S
C285 C286 1.371 . S
C285 C287 1.365 . S
C286 C285 1.371 . S
C286 C296 1.386 . S
C286 H304 0.931 . S
C287 C285 1.365 . S
C287 C288 1.409 . S
C287 H305 0.929 . S
C288 C287 1.409 . S
C288 C289 1.380 . S
C288 H306 0.930 . S
C289 C288 1.380 . S
C289 C296 1.357 . S
C290 C281 1.511 . S
C290 C291 1.341 . S
C290 C292 1.371 . S
C291 C290 1.341 . S
C291 C295 1.394 . S
C291 H307 0.930 . S
C292 C290 1.371 . S
C292 C293 1.392 . S
C292 H308 0.931 . S
C293 C292 1.392 . S
C293 C294 1.331 . S
C293 H311 0.932 . S
C294 C293 1.331 . S
C294 C295 1.336 . S
C295 C291 1.394 . S
C295 C294 1.336 . S
C295 H310 0.929 . S
C296 C286 1.386 . S
C296 C289 1.357 . S
C296 H309 0.928 . S
H297 C273 0.931 . S
H298 C275 0.930 . S
H299 C277 0.929 . S
H300 C278 0.931 . S
H301 C280 0.930 . S
H302 C284 0.931 . S
H303 C282 0.931 . S
H304 C286 0.931 . S
H305 C287 0.929 . S
H306 C288 0.930 . S
H307 C291 0.930 . S
H308 C292 0.931 . S
H309 C296 0.928 . S
H310 C295 0.929 . S
H311 C293 0.932 . S
C312 C313 1.443 . S
C312 N316 1.376 . S
C312 C350 1.389 . S
C313 C312 1.443 . S
C313 C314 1.340 . S
C313 H353 0.951 . S
C314 C313 1.340 . S
C314 C315 1.439 . S
C314 H354 0.950 . S
C315 C314 1.439 . S
C315 N316 1.374 . S
C315 C349 1.395 . S
N316 C312 1.376 . S
N316 C315 1.374 . S
N316 Co317 2.008 . S
Co317 N316 2.008 . S
Co317 N318 1.995 1_455 S
Co317 N323 2.008 . S
Co317 N328 1.995 . S
Co317 N333 2.282 . S
Co317 N339 2.282 1_455 S
N318 Co317 1.995 1_655 S
N318 C319 1.376 1_655 S
N318 C322 1.383 . S
C319 N318 1.376 1_455 S
C319 C320 1.439 1_455 S
C319 C349 1.398 . S
C320 C319 1.439 1_655 S
C320 C321 1.339 . S
C320 H355 0.949 . S
C321 C320 1.339 . S
C321 C322 1.439 . S
C321 H356 0.950 . S
C322 N318 1.383 . S
C322 C321 1.439 . S
C322 C351 1.392 . S
N323 Co317 2.008 . S
N323 C324 1.376 1_455 S
N323 C327 1.374 . S
C324 N323 1.376 1_655 S
C324 C325 1.443 . S
C324 C351 1.389 . S
C325 C324 1.443 . S
C325 C326 1.340 . S
C325 H357 0.951 . S
C326 C325 1.340 . S
C326 C327 1.439 1_655 S
C326 H358 0.950 . S
C327 N323 1.374 . S
C327 C326 1.439 1_455 S
C327 C352 1.395 . S
N328 Co317 1.995 . S
N328 C329 1.376 . S
N328 C332 1.383 . S
C329 N328 1.376 . S
C329 C330 1.446 . S
C329 C352 1.391 . S
C330 C329 1.446 . S
C330 C331 1.339 . S
C330 H359 0.949 . S
C331 C330 1.339 . S
C331 C332 1.439 . S
C331 H360 0.950 . S
C332 N328 1.383 . S
C332 C331 1.439 . S
C332 C350 1.392 . S
N333 Co317 2.282 . S
N333 C336 1.332 . S
N333 C338 1.332 . S
C334 C335 1.386 . S
C334 C337 1.388 . S
C335 C334 1.386 . S
C335 C336 1.382 . S
C335 H361 0.950 . S
C336 N333 1.332 . S
C336 C335 1.382 . S
C336 H347 0.952 . S
C337 C334 1.388 . S
C337 C338 1.382 . S
C337 H362 0.950 . S
C338 N333 1.332 . S
C338 C337 1.382 . S
C338 H348 0.948 . S
N339 Co317 2.282 1_655 S
N339 C343 1.332 . S
N339 C344 1.332 . S
C340 C341 1.388 . S
C340 C344 1.382 . S
C340 H363 0.950 . S
C341 C340 1.388 . S
C341 C342 1.386 . S
C342 C341 1.386 . S
C342 C343 1.382 . S
C342 H364 0.950 . S
C343 N339 1.332 . S
C343 C342 1.382 . S
C343 H345 0.952 . S
C344 N339 1.332 . S
C344 C340 1.382 . S
C344 H346 0.948 . S
H345 C343 0.952 . S
H346 C344 0.948 . S
H347 C336 0.952 . S
H348 C338 0.948 . S
C349 C315 1.395 . S
C349 C319 1.398 . S
C350 C312 1.389 . S
C350 C332 1.392 . S
C351 C322 1.392 . S
C351 C324 1.389 . S
C352 C327 1.395 . S
C352 C329 1.391 . S
H353 C313 0.951 . S
H354 C314 0.950 . S
H355 C320 0.949 . S
H356 C321 0.950 . S
H357 C325 0.951 . S
H358 C326 0.950 . S
H359 C330 0.949 . S
H360 C331 0.950 . S
H361 C335 0.950 . S
H362 C337 0.950 . S
H363 C340 0.950 . S
H364 C342 0.950 . S
C365 C366 1.443 . S
C365 N369 1.376 . S
C365 C403 1.389 . S
C366 C365 1.443 . S
C366 C367 1.340 . S
C366 H406 0.951 . S
C367 C366 1.340 . S
C367 C368 1.439 . S
C367 H407 0.950 . S
C368 C367 1.439 . S
C368 N369 1.374 . S
C368 C402 1.395 . S
N369 C365 1.376 . S
N369 C368 1.374 . S
N369 Co370 2.008 . S
Co370 N369 2.008 . S
Co370 N371 1.995 1_455 S
Co370 N376 2.008 1_455 S
Co370 N381 1.995 . S
Co370 N386 2.282 . S
Co370 N392 2.282 1_455 S
N371 Co370 1.995 1_655 S
N371 C372 1.376 . S
N371 C375 1.383 . S
C372 N371 1.376 . S
C372 C373 1.446 . S
C372 C402 1.391 1_655 S
C373 C372 1.446 . S
C373 C374 1.339 . S
C373 H408 0.949 . S
C374 C373 1.339 . S
C374 C375 1.439 . S
C374 H409 0.950 . S
C375 N371 1.383 . S
C375 C374 1.439 . S
C375 C404 1.392 . S
N376 Co370 2.008 1_655 S
N376 C377 1.376 . S
N376 C380 1.374 . S
C377 N376 1.376 . S
C377 C378 1.443 . S
C377 C404 1.389 . S
C378 C377 1.443 . S
C378 C379 1.340 . S
C378 H410 0.951 . S
C379 C378 1.340 . S
C379 C380 1.439 . S
C379 H411 0.950 . S
C380 N376 1.374 . S
C380 C379 1.439 . S
C380 C405 1.395 1_655 S
N381 Co370 1.995 . S
N381 C382 1.376 . S
N381 C385 1.383 . S
C382 N381 1.376 . S
C382 C383 1.446 . S
C382 C405 1.391 . S
C383 C382 1.446 . S
C383 C384 1.339 . S
C383 H412 0.949 . S
C384 C383 1.339 . S
C384 C385 1.439 . S
C384 H413 0.950 . S
C385 N381 1.383 . S
C385 C384 1.439 . S
C385 C403 1.392 . S
N386 Co370 2.282 . S
N386 C389 1.332 . S
N386 C391 1.332 . S
C387 C388 1.386 . S
C387 C390 1.388 . S
C388 C387 1.386 . S
C388 C389 1.382 . S
C388 H414 0.950 . S
C389 N386 1.332 . S
C389 C388 1.382 . S
C389 H400 0.952 . S
C390 C387 1.388 . S
C390 C391 1.382 . S
C390 H415 0.950 . S
C391 N386 1.332 . S
C391 C390 1.382 . S
C391 H401 0.948 . S
N392 Co370 2.282 1_655 S
N392 C396 1.332 . S
N392 C397 1.332 . S
C393 C394 1.388 . S
C393 C397 1.382 . S
C393 H416 0.950 . S
C394 C393 1.388 . S
C394 C395 1.386 . S
C395 C394 1.386 . S
C395 C396 1.382 . S
C395 H417 0.950 . S
C396 N392 1.332 . S
C396 C395 1.382 . S
C396 H398 0.952 . S
C397 N392 1.332 . S
C397 C393 1.382 . S
C397 H399 0.948 . S
H398 C396 0.952 . S
H399 C397 0.948 . S
H400 C389 0.952 . S
H401 C391 0.948 . S
C402 C368 1.395 . S
C402 C372 1.391 1_455 S
C403 C365 1.389 . S
C403 C385 1.392 . S
C404 C375 1.392 . S
C404 C377 1.389 . S
C405 C380 1.395 1_455 S
C405 C382 1.391 . S
H406 C366 0.951 . S
H407 C367 0.950 . S
H408 C373 0.949 . S
H409 C374 0.950 . S
H410 C378 0.951 . S
H411 C379 0.950 . S
H412 C383 0.949 . S
H413 C384 0.950 . S
H414 C388 0.950 . S
H415 C390 0.950 . S
H416 C393 0.950 . S
H417 C395 0.950 . S
C418 C419 1.443 . S
C418 N422 1.376 . S
C418 C456 1.389 . S
C419 C418 1.443 . S
C419 C420 1.340 . S
C419 H459 0.951 . S
C420 C419 1.340 . S
C420 C421 1.439 . S
C420 H460 0.950 . S
C421 C420 1.439 . S
C421 N422 1.374 . S
C421 C455 1.395 1_565 S
N422 C418 1.376 . S
N422 C421 1.374 . S
N422 Co423 2.008 1_565 S
Co423 N422 2.008 1_545 S
Co423 N424 1.995 . S
Co423 N429 2.008 . S
Co423 N434 1.995 1_545 S
Co423 N439 2.282 . S
Co423 N445 2.282 1_545 S
N424 Co423 1.995 . S
N424 C425 1.376 . S
N424 C428 1.383 . S
C425 N424 1.376 . S
C425 C426 1.446 . S
C425 C455 1.391 . S
C426 C425 1.446 . S
C426 C427 1.339 . S
C426 H461 0.949 . S
C427 C426 1.339 . S
C427 C428 1.439 . S
C427 H462 0.950 . S
C428 N424 1.383 . S
C428 C427 1.439 . S
C428 C457 1.392 . S
N429 Co423 2.008 . S
N429 C430 1.376 . S
N429 C433 1.374 . S
C430 N429 1.376 . S
C430 C431 1.443 . S
C430 C457 1.389 . S
C431 C430 1.443 . S
C431 C432 1.340 . S
C431 H463 0.951 . S
C432 C431 1.340 . S
C432 C433 1.439 . S
C432 H464 0.950 . S
C433 N429 1.374 . S
C433 C432 1.439 . S
C433 C458 1.395 . S
N434 Co423 1.995 1_565 S
N434 C435 1.376 . S
N434 C438 1.383 . S
C435 N434 1.376 . S
C435 C436 1.446 . S
C435 C458 1.391 1_565 S
C436 C435 1.446 . S
C436 C437 1.339 . S
C436 H465 0.949 . S
C437 C436 1.339 . S
C437 C438 1.439 . S
C437 H466 0.950 . S
C438 N434 1.383 . S
C438 C437 1.439 . S
C438 C456 1.392 . S
N439 Co423 2.282 . S
N439 C442 1.332 . S
N439 C444 1.332 . S
C440 C441 1.386 . S
C440 C443 1.388 . S
C441 C440 1.386 . S
C441 C442 1.382 . S
C441 H467 0.950 . S
C442 N439 1.332 . S
C442 C441 1.382 . S
C442 H453 0.952 . S
C443 C440 1.388 . S
C443 C444 1.382 . S
C443 H468 0.950 . S
C444 N439 1.332 . S
C444 C443 1.382 . S
C444 H454 0.948 . S
N445 Co423 2.282 1_565 S
N445 C449 1.332 . S
N445 C450 1.332 . S
C446 C447 1.388 . S
C446 C450 1.382 . S
C446 H469 0.950 . S
C447 C446 1.388 . S
C447 C448 1.386 . S
C448 C447 1.386 . S
C448 C449 1.382 . S
C448 H470 0.950 . S
C449 N445 1.332 . S
C449 C448 1.382 . S
C449 H451 0.952 . S
C450 N445 1.332 . S
C450 C446 1.382 . S
C450 H452 0.948 . S
H451 C449 0.952 . S
H452 C450 0.948 . S
H453 C442 0.952 . S
H454 C444 0.948 . S
C455 C421 1.395 1_545 S
C455 C425 1.391 . S
C456 C418 1.389 . S
C456 C438 1.392 . S
C457 C428 1.392 . S
C457 C430 1.389 . S
C458 C433 1.395 . S
C458 C435 1.391 1_545 S
H459 C419 0.951 . S
H460 C420 0.950 . S
H461 C426 0.949 . S
H462 C427 0.950 . S
H463 C431 0.951 . S
H464 C432 0.950 . S
H465 C436 0.949 . S
H466 C437 0.950 . S
H467 C441 0.950 . S
H468 C443 0.950 . S
H469 C446 0.950 . S
H470 C448 0.950 . S
C471 C472 1.443 . S
C471 N475 1.376 . S
C471 C509 1.389 . S
C472 C471 1.443 . S
C472 C473 1.340 . S
C472 H512 0.951 . S
C473 C472 1.340 . S
C473 C474 1.439 . S
C473 H513 0.950 . S
C474 C473 1.439 . S
C474 N475 1.374 . S
C474 C508 1.395 . S
N475 C471 1.376 . S
N475 C474 1.374 . S
N475 Co476 2.008 . S
Co476 N475 2.008 . S
Co476 N477 1.995 1_554 S
Co476 N482 2.008 1_554 S
Co476 N487 1.995 . S
Co476 N492 2.282 1_554 S
Co476 N498 2.282 . S
N477 Co476 1.995 1_556 S
N477 C478 1.376 . S
N477 C481 1.383 . S
C478 N477 1.376 . S
C478 C479 1.446 . S
C478 C508 1.391 1_556 S
C479 C478 1.446 . S
C479 C480 1.339 . S
C479 H514 0.949 . S
C480 C479 1.339 . S
C480 C481 1.439 . S
C480 H515 0.950 . S
C481 N477 1.383 . S
C481 C480 1.439 . S
C481 C510 1.392 . S
N482 Co476 2.008 1_556 S
N482 C483 1.376 . S
N482 C486 1.374 . S
C483 N482 1.376 . S
C483 C484 1.443 . S
C483 C510 1.389 . S
C484 C483 1.443 . S
C484 C485 1.340 . S
C484 H516 0.951 . S
C485 C484 1.340 . S
C485 C486 1.439 . S
C485 H517 0.950 . S
C486 N482 1.374 . S
C486 C485 1.439 . S
C486 C511 1.395 1_556 S
N487 Co476 1.995 . S
N487 C488 1.376 . S
N487 C491 1.383 . S
C488 N487 1.376 . S
C488 C489 1.446 . S
C488 C511 1.391 . S
C489 C488 1.446 . S
C489 C490 1.339 . S
C489 H518 0.949 . S
C490 C489 1.339 . S
C490 C491 1.439 . S
C490 H519 0.950 . S
C491 N487 1.383 . S
C491 C490 1.439 . S
C491 C509 1.392 . S
N492 Co476 2.282 1_556 S
N492 C495 1.332 . S
N492 C497 1.332 . S
C493 C494 1.386 . S
C493 C496 1.388 . S
C494 C493 1.386 . S
C494 C495 1.382 . S
C494 H520 0.950 . S
C495 N492 1.332 . S
C495 C494 1.382 . S
C495 H506 0.952 . S
C496 C493 1.388 . S
C496 C497 1.382 . S
C496 H521 0.950 . S
C497 N492 1.332 . S
C497 C496 1.382 . S
C497 H507 0.948 . S
N498 Co476 2.282 . S
N498 C502 1.332 . S
N498 C503 1.332 . S
C499 C500 1.388 . S
C499 C503 1.382 . S
C499 H522 0.950 . S
C500 C499 1.388 . S
C500 C501 1.386 . S
C501 C500 1.386 . S
C501 C502 1.382 . S
C501 H523 0.950 . S
C502 N498 1.332 . S
C502 C501 1.382 . S
C502 H504 0.952 . S
C503 N498 1.332 . S
C503 C499 1.382 . S
C503 H505 0.948 . S
H504 C502 0.952 . S
H505 C503 0.948 . S
H506 C495 0.952 . S
H507 C497 0.948 . S
C508 C474 1.395 . S
C508 C478 1.391 1_554 S
C509 C471 1.389 . S
C509 C491 1.392 . S
C510 C481 1.392 . S
C510 C483 1.389 . S
C511 C486 1.395 1_554 S
C511 C488 1.391 . S
H512 C472 0.951 . S
H513 C473 0.950 . S
H514 C479 0.949 . S
H515 C480 0.950 . S
H516 C484 0.951 . S
H517 C485 0.950 . S
H518 C489 0.949 . S
H519 C490 0.950 . S
H520 C494 0.950 . S
H521 C496 0.950 . S
H522 C499 0.950 . S
H523 C501 0.950 . S
C524 C525 1.443 . S
C524 N528 1.401 . S
C524 C562 1.389 . S
C525 C524 1.443 . S
C525 C526 1.340 . S
C525 H565 0.951 . S
C526 C525 1.340 . S
C526 C527 1.411 1_565 S
C526 H566 0.950 . S
C527 C526 1.411 1_545 S
C527 N528 1.375 1_545 S
C527 C561 1.419 . S
N528 C524 1.401 . S
N528 C527 1.375 1_565 S
N528 Co529 1.991 1_565 S
Co529 N528 1.991 1_545 S
Co529 N530 1.995 . S
Co529 N535 2.008 . S
Co529 N540 1.999 . S
Co529 N545 2.282 . S
Co529 N551 2.282 1_545 S
N530 Co529 1.995 . S
N530 C531 1.376 . S
N530 C534 1.383 . S
C531 N530 1.376 . S
C531 C532 1.446 . S
C531 C561 1.391 . S
C532 C531 1.446 . S
C532 C533 1.339 . S
C532 H567 0.949 . S
C533 C532 1.339 . S
C533 C534 1.439 . S
C533 H568 0.950 . S
C534 N530 1.383 . S
C534 C533 1.439 . S
C534 C563 1.392 . S
N535 Co529 2.008 . S
N535 C536 1.376 . S
N535 C539 1.374 . S
C536 N535 1.376 . S
C536 C537 1.443 . S
C536 C563 1.389 . S
C537 C536 1.443 . S
C537 C538 1.340 . S
C537 H569 0.951 . S
C538 C537 1.340 . S
C538 C539 1.439 . S
C538 H570 0.950 . S
C539 N535 1.374 . S
C539 C538 1.439 . S
C539 C564 1.395 . S
N540 Co529 1.999 . S
N540 C541 1.377 . S
N540 C544 1.376 1_545 S
C541 N540 1.377 . S
C541 C542 1.446 1_545 S
C541 C564 1.391 . S
C542 C541 1.446 1_565 S
C542 C543 1.339 . S
C542 H571 0.949 . S
C543 C542 1.339 . S
C543 C544 1.439 . S
C543 H572 0.950 . S
C544 N540 1.376 1_565 S
C544 C543 1.439 . S
C544 C562 1.392 . S
N545 Co529 2.282 . S
N545 C548 1.332 . S
N545 C550 1.332 . S
C546 C547 1.386 . S
C546 C549 1.388 . S
C547 C546 1.386 . S
C547 C548 1.382 . S
C547 H573 0.950 . S
C548 N545 1.332 . S
C548 C547 1.382 . S
C548 H559 0.952 . S
C549 C546 1.388 . S
C549 C550 1.382 . S
C549 H574 0.950 . S
C550 N545 1.332 . S
C550 C549 1.382 . S
C550 H560 0.948 . S
N551 Co529 2.282 1_565 S
N551 C555 1.332 . S
N551 C556 1.332 . S
C552 C553 1.388 . S
C552 C556 1.382 . S
C552 H575 0.950 . S
C553 C552 1.388 . S
C553 C554 1.386 . S
C554 C553 1.386 . S
C554 C555 1.382 . S
C554 H576 0.950 . S
C555 N551 1.332 . S
C555 C554 1.382 . S
C555 H557 0.952 . S
C556 N551 1.332 . S
C556 C552 1.382 . S
C556 H558 0.948 . S
H557 C555 0.952 . S
H558 C556 0.948 . S
H559 C548 0.952 . S
H560 C550 0.948 . S
C561 C527 1.419 . S
C561 C531 1.391 . S
C562 C524 1.389 . S
C562 C544 1.392 . S
C563 C534 1.392 . S
C563 C536 1.389 . S
C564 C539 1.395 . S
C564 C541 1.391 . S
H565 C525 0.951 . S
H566 C526 0.950 . S
H567 C532 0.949 . S
H568 C533 0.950 . S
H569 C537 0.951 . S
H570 C538 0.950 . S
H571 C542 0.949 . S
H572 C543 0.950 . S
H573 C547 0.950 . S
H574 C549 0.950 . S
H575 C552 0.950 . S
H576 C554 0.950 . S
C577 C578 1.443 . S
C577 N581 1.376 . S
C577 C615 1.389 . S
C578 C577 1.443 . S
C578 C579 1.340 . S
C578 H618 0.951 . S
C579 C578 1.340 . S
C579 C580 1.439 . S
C579 H619 0.950 . S
C580 C579 1.439 . S
C580 N581 1.374 . S
C580 C614 1.395 . S
N581 C577 1.376 . S
N581 C580 1.374 . S
N581 Co582 2.008 . S
Co582 N581 2.008 . S
Co582 N583 1.995 . S
Co582 N588 2.007 1_554 S
Co582 N593 1.995 . S
Co582 N598 2.282 1_554 S
Co582 N604 2.282 . S
N583 Co582 1.995 . S
N583 C584 1.376 . S
N583 C587 1.383 1_554 S
C584 N583 1.376 . S
C584 C585 1.446 1_554 S
C584 C614 1.391 . S
C585 C584 1.446 1_556 S
C585 C586 1.339 . S
C585 H620 0.949 . S
C586 C585 1.339 . S
C586 C587 1.439 . S
C586 H621 0.950 . S
C587 N583 1.383 1_556 S
C587 C586 1.439 . S
C587 C616 1.392 . S
N588 Co582 2.007 1_556 S
N588 C589 1.378 . S
N588 C592 1.374 1_556 S
C589 N588 1.378 . S
C589 C590 1.443 . S
C589 C616 1.389 . S
C590 C589 1.443 . S
C590 C591 1.340 . S
C590 H622 0.951 . S
C591 C590 1.340 . S
C591 C592 1.411 1_556 S
C591 H623 0.950 . S
C592 N588 1.374 1_554 S
C592 C591 1.411 1_554 S
C592 C617 1.419 . S
N593 Co582 1.995 . S
N593 C594 1.376 . S
N593 C597 1.383 . S
C594 N593 1.376 . S
C594 C595 1.446 . S
C594 C617 1.391 . S
C595 C594 1.446 . S
C595 C596 1.339 . S
C595 H624 0.949 . S
C596 C595 1.339 . S
C596 C597 1.439 . S
C596 H625 0.950 . S
C597 N593 1.383 . S
C597 C596 1.439 . S
C597 C615 1.392 . S
N598 Co582 2.282 1_556 S
N598 C601 1.332 . S
N598 C603 1.332 . S
C599 C600 1.386 . S
C599 C602 1.388 . S
C600 C599 1.386 . S
C600 C601 1.382 . S
C600 H626 0.950 . S
C601 N598 1.332 . S
C601 C600 1.382 . S
C601 H612 0.952 . S
C602 C599 1.388 . S
C602 C603 1.382 . S
C602 H627 0.950 . S
C603 N598 1.332 . S
C603 C602 1.382 . S
C603 H613 0.948 . S
N604 Co582 2.282 . S
N604 C608 1.332 . S
N604 C609 1.332 . S
C605 C606 1.388 . S
C605 C609 1.382 . S
C605 H628 0.950 . S
C606 C605 1.388 . S
C606 C607 1.386 . S
C607 C606 1.386 . S
C607 C608 1.382 . S
C607 H629 0.950 . S
C608 N604 1.332 . S
C608 C607 1.382 . S
C608 H610 0.952 . S
C609 N604 1.332 . S
C609 C605 1.382 . S
C609 H611 0.948 . S
H610 C608 0.952 . S
H611 C609 0.948 . S
H612 C601 0.952 . S
H613 C603 0.948 . S
C614 C580 1.395 . S
C614 C584 1.391 . S
C615 C577 1.389 . S
C615 C597 1.392 . S
C616 C587 1.392 . S
C616 C589 1.389 . S
C617 C592 1.419 . S
C617 C594 1.391 . S
H618 C578 0.951 . S
H619 C579 0.950 . S
H620 C585 0.949 . S
H621 C586 0.950 . S
H622 C590 0.951 . S
H623 C591 0.950 . S
H624 C595 0.949 . S
H625 C596 0.950 . S
H626 C600 0.950 . S
H627 C602 0.950 . S
H628 C605 0.950 . S
H629 C607 0.950 . S
H630 C638 0.950 . S
H631 C643 0.950 . S
H632 C640 0.950 . S
H633 C642 0.950 . S
H634 C644 0.950 . S
H635 C646 0.950 . S
H636 C648 0.950 . S
H637 C649 0.950 . S
C638 H630 0.950 . S
C638 C639 1.386 . S
C638 C640 1.391 . S
C639 C638 1.386 . S
C639 C643 1.393 . S
C640 H632 0.950 . S
C640 C638 1.391 . S
C640 C641 1.400 . S
C641 C640 1.400 . S
C641 C642 1.398 . S
C641 C647 1.491 . S
C642 H633 0.950 . S
C642 C641 1.398 . S
C642 C643 1.391 . S
C643 H631 0.950 . S
C643 C639 1.393 . S
C643 C642 1.391 . S
C644 H634 0.950 . S
C644 C645 1.386 . S
C644 C646 1.391 . S
C645 C644 1.386 . S
C645 C649 1.393 . S
C646 H635 0.950 . S
C646 C644 1.391 . S
C646 C647 1.400 . S
C647 C641 1.491 . S
C647 C646 1.400 . S
C647 C648 1.398 . S
C648 H636 0.950 . S
C648 C647 1.398 . S
C648 C649 1.391 . S
C649 H637 0.950 . S
C649 C645 1.393 . S
C649 C648 1.391 . S
H650 C658 0.950 . S
H651 C663 0.950 . S
H652 C660 0.950 . S
H653 C662 0.950 . S
H654 C664 0.950 . S
H655 C666 0.950 . S
H656 C668 0.950 . S
H657 C669 0.950 . S
C658 H650 0.950 . S
C658 C659 1.386 . S
C658 C660 1.391 . S
C659 C658 1.386 . S
C659 C663 1.393 . S
C660 H652 0.950 . S
C660 C658 1.391 . S
C660 C661 1.400 . S
C661 C660 1.400 . S
C661 C662 1.398 . S
C661 C667 1.491 . S
C662 H653 0.950 . S
C662 C661 1.398 . S
C662 C663 1.391 . S
C663 H651 0.950 . S
C663 C659 1.393 . S
C663 C662 1.391 . S
C664 H654 0.950 . S
C664 C665 1.386 . S
C664 C666 1.391 . S
C665 C664 1.386 . S
C665 C669 1.393 . S
C666 H655 0.950 . S
C666 C664 1.391 . S
C666 C667 1.400 . S
C667 C661 1.491 . S
C667 C666 1.400 . S
C667 C668 1.398 . S
C668 H656 0.950 . S
C668 C667 1.398 . S
C668 C669 1.391 . S
C669 H657 0.950 . S
C669 C665 1.393 . S
C669 C668 1.391 . S
H670 C678 0.950 . S
H671 C683 0.950 . S
H672 C680 0.950 . S
H673 C682 0.950 . S
H674 C684 0.950 . S
H675 C686 0.950 . S
H676 C688 0.950 . S
H677 C689 0.950 . S
C678 H670 0.950 . S
C678 C679 1.386 . S
C678 C680 1.391 . S
C679 C678 1.386 . S
C679 C683 1.393 . S
C680 H672 0.950 . S
C680 C678 1.391 . S
C680 C681 1.400 . S
C681 C680 1.400 . S
C681 C682 1.398 . S
C681 C687 1.491 . S
C682 H673 0.950 . S
C682 C681 1.398 . S
C682 C683 1.391 . S
C683 H671 0.950 . S
C683 C679 1.393 . S
C683 C682 1.391 . S
C684 H674 0.950 . S
C684 C685 1.386 . S
C684 C686 1.391 . S
C685 C684 1.386 . S
C685 C689 1.393 . S
C686 H675 0.950 . S
C686 C684 1.391 . S
C686 C687 1.400 . S
C687 C681 1.491 . S
C687 C686 1.400 . S
C687 C688 1.398 . S
C688 H676 0.950 . S
C688 C687 1.398 . S
C688 C689 1.391 . S
C689 H677 0.950 . S
C689 C685 1.393 . S
C689 C688 1.391 . S
H690 C698 0.950 . S
H691 C703 0.950 . S
H692 C700 0.950 . S
H693 C702 0.950 . S
H694 C704 0.950 . S
H695 C706 0.950 . S
H696 C708 0.950 . S
H697 C709 0.950 . S
C698 H690 0.950 . S
C698 C699 1.386 . S
C698 C700 1.391 . S
C699 C698 1.386 . S
C699 C703 1.393 . S
C700 H692 0.950 . S
C700 C698 1.391 . S
C700 C701 1.400 . S
C701 C700 1.400 . S
C701 C702 1.398 . S
C701 C707 1.491 . S
C702 H693 0.950 . S
C702 C701 1.398 . S
C702 C703 1.391 . S
C703 H691 0.950 . S
C703 C699 1.393 . S
C703 C702 1.391 . S
C704 H694 0.950 . S
C704 C705 1.386 . S
C704 C706 1.391 . S
C705 C704 1.386 . S
C705 C709 1.393 . S
C706 H695 0.950 . S
C706 C704 1.391 . S
C706 C707 1.400 . S
C707 C701 1.491 . S
C707 C706 1.400 . S
C707 C708 1.398 . S
C708 H696 0.950 . S
C708 C707 1.398 . S
C708 C709 1.391 . S
C709 H697 0.950 . S
C709 C705 1.393 . S
C709 C708 1.391 . S
H710 C718 0.950 . S
H711 C723 0.950 . S
H712 C720 0.950 . S
H713 C722 0.950 . S
H714 C724 0.950 . S
H715 C726 0.950 . S
H716 C728 0.950 . S
H717 C729 0.950 . S
C718 H710 0.950 . S
C718 C719 1.386 . S
C718 C720 1.391 . S
C719 C718 1.386 . S
C719 C723 1.393 . S
C720 H712 0.950 . S
C720 C718 1.391 . S
C720 C721 1.400 . S
C721 C720 1.400 . S
C721 C722 1.398 . S
C721 C727 1.491 . S
C722 H713 0.950 . S
C722 C721 1.398 . S
C722 C723 1.391 . S
C723 H711 0.950 . S
C723 C719 1.393 . S
C723 C722 1.391 . S
C724 H714 0.950 . S
C724 C725 1.386 . S
C724 C726 1.391 . S
C725 C724 1.386 . S
C725 C729 1.393 . S
C726 H715 0.950 . S
C726 C724 1.391 . S
C726 C727 1.400 . S
C727 C721 1.491 . S
C727 C726 1.400 . S
C727 C728 1.398 . S
C728 H716 0.950 . S
C728 C727 1.398 . S
C728 C729 1.391 . S
C729 H717 0.950 . S
C729 C725 1.393 . S
C729 C728 1.391 . S
H730 C738 0.950 . S
H731 C743 0.950 . S
H732 C740 0.950 . S
H733 C742 0.950 . S
H734 C744 0.950 . S
H735 C746 0.950 . S
H736 C748 0.950 . S
H737 C749 0.950 . S
C738 H730 0.950 . S
C738 C739 1.386 . S
C738 C740 1.391 . S
C739 C738 1.386 . S
C739 C743 1.393 . S
C740 H732 0.950 . S
C740 C738 1.391 . S
C740 C741 1.400 . S
C741 C740 1.400 . S
C741 C742 1.398 . S
C741 C747 1.491 . S
C742 H733 0.950 . S
C742 C741 1.398 . S
C742 C743 1.391 . S
C743 H731 0.950 . S
C743 C739 1.393 . S
C743 C742 1.391 . S
C744 H734 0.950 . S
C744 C745 1.386 . S
C744 C746 1.391 . S
C745 C744 1.386 . S
C745 C749 1.393 . S
C746 H735 0.950 . S
C746 C744 1.391 . S
C746 C747 1.400 . S
C747 C741 1.491 . S
C747 C746 1.400 . S
C747 C748 1.398 . S
C748 H736 0.950 . S
C748 C747 1.398 . S
C748 C749 1.391 . S
C749 H737 0.950 . S
C749 C745 1.393 . S
C749 C748 1.391 . S
H750 C758 0.950 . S
H751 C763 0.950 . S
H752 C760 0.950 . S
H753 C762 0.950 . S
H754 C764 0.950 . S
H755 C766 0.950 . S
H756 C768 0.950 . S
H757 C769 0.950 . S
C758 H750 0.950 . S
C758 C759 1.386 . S
C758 C760 1.391 . S
C759 C758 1.386 . S
C759 C763 1.393 . S
C760 H752 0.950 . S
C760 C758 1.391 . S
C760 C761 1.400 . S
C761 C760 1.400 . S
C761 C762 1.398 . S
C761 C767 1.491 . S
C762 H753 0.950 . S
C762 C761 1.398 . S
C762 C763 1.391 . S
C763 H751 0.950 . S
C763 C759 1.393 . S
C763 C762 1.391 . S
C764 H754 0.950 . S
C764 C765 1.386 . S
C764 C766 1.391 . S
C765 C764 1.386 . S
C765 C769 1.393 . S
C766 H755 0.950 . S
C766 C764 1.391 . S
C766 C767 1.400 . S
C767 C761 1.491 . S
C767 C766 1.400 . S
C767 C768 1.398 . S
C768 H756 0.950 . S
C768 C767 1.398 . S
C768 C769 1.391 . S
C769 H757 0.950 . S
C769 C765 1.393 . S
C769 C768 1.391 . S
H770 C778 0.950 . S
H771 C783 0.950 . S
H772 C780 0.950 . S
H773 C782 0.950 . S
H774 C784 0.950 . S
H775 C786 0.950 . S
H776 C788 0.950 . S
H777 C789 0.950 . S
C778 H770 0.950 . S
C778 C779 1.386 . S
C778 C780 1.391 . S
C779 C778 1.386 . S
C779 C783 1.393 . S
C780 H772 0.950 . S
C780 C778 1.391 . S
C780 C781 1.400 . S
C781 C780 1.400 . S
C781 C782 1.398 . S
C781 C787 1.491 . S
C782 H773 0.950 . S
C782 C781 1.398 . S
C782 C783 1.391 . S
C783 H771 0.950 . S
C783 C779 1.393 . S
C783 C782 1.391 . S
C784 H774 0.950 . S
C784 C785 1.386 . S
C784 C786 1.391 . S
C785 C784 1.386 . S
C785 C789 1.393 . S
C786 H775 0.950 . S
C786 C784 1.391 . S
C786 C787 1.400 . S
C787 C781 1.491 . S
C787 C786 1.400 . S
C787 C788 1.398 . S
C788 H776 0.950 . S
C788 C787 1.398 . S
C788 C789 1.391 . S
C789 H777 0.950 . S
C789 C785 1.393 . S
C789 C788 1.391 . S
H790 C798 0.950 . S
H791 C803 0.950 . S
H792 C800 0.950 . S
H793 C802 0.950 . S
H794 C804 0.950 . S
H795 C806 0.950 . S
H796 C808 0.950 . S
H797 C809 0.950 . S
C798 H790 0.950 . S
C798 C799 1.386 . S
C798 C800 1.391 . S
C799 C798 1.386 . S
C799 C803 1.393 . S
C800 H792 0.950 . S
C800 C798 1.391 . S
C800 C801 1.400 . S
C801 C800 1.400 . S
C801 C802 1.398 . S
C801 C807 1.491 . S
C802 H793 0.950 . S
C802 C801 1.398 . S
C802 C803 1.391 . S
C803 H791 0.950 . S
C803 C799 1.393 . S
C803 C802 1.391 . S
C804 H794 0.950 . S
C804 C805 1.386 . S
C804 C806 1.391 . S
C805 C804 1.386 . S
C805 C809 1.393 . S
C806 H795 0.950 . S
C806 C804 1.391 . S
C806 C807 1.400 . S
C807 C801 1.491 . S
C807 C806 1.400 . S
C807 C808 1.398 . S
C808 H796 0.950 . S
C808 C807 1.398 . S
C808 C809 1.391 . S
C809 H797 0.950 . S
C809 C805 1.393 . S
C809 C808 1.391 . S
H810 C818 0.950 . S
H811 C823 0.950 . S
H812 C820 0.950 . S
H813 C822 0.950 . S
H814 C824 0.950 . S
H815 C826 0.950 . S
H816 C828 0.950 . S
H817 C829 0.950 . S
C818 H810 0.950 . S
C818 C819 1.386 . S
C818 C820 1.391 . S
C819 C818 1.386 . S
C819 C823 1.393 . S
C820 H812 0.950 . S
C820 C818 1.391 . S
C820 C821 1.400 . S
C821 C820 1.400 . S
C821 C822 1.398 . S
C821 C827 1.491 . S
C822 H813 0.950 . S
C822 C821 1.398 . S
C822 C823 1.391 . S
C823 H811 0.950 . S
C823 C819 1.393 . S
C823 C822 1.391 . S
C824 H814 0.950 . S
C824 C825 1.386 . S
C824 C826 1.391 . S
C825 C824 1.386 . S
C825 C829 1.393 . S
C826 H815 0.950 . S
C826 C824 1.391 . S
C826 C827 1.400 . S
C827 C821 1.491 . S
C827 C826 1.400 . S
C827 C828 1.398 . S
C828 H816 0.950 . S
C828 C827 1.398 . S
C828 C829 1.391 . S
C829 H817 0.950 . S
C829 C825 1.393 . S
C829 C828 1.391 . S
H830 C838 0.950 . S
H831 C843 0.950 . S
H832 C840 0.950 . S
H833 C842 0.950 . S
H834 C844 0.950 . S
H835 C846 0.950 . S
H836 C848 0.950 . S
H837 C849 0.950 . S
C838 H830 0.950 . S
C838 C839 1.386 . S
C838 C840 1.391 . S
C839 C838 1.386 . S
C839 C843 1.393 . S
C840 H832 0.950 . S
C840 C838 1.391 . S
C840 C841 1.400 . S
C841 C840 1.400 . S
C841 C842 1.398 . S
C841 C847 1.491 . S
C842 H833 0.950 . S
C842 C841 1.398 . S
C842 C843 1.391 . S
C843 H831 0.950 . S
C843 C839 1.393 . S
C843 C842 1.391 . S
C844 H834 0.950 . S
C844 C845 1.386 . S
C844 C846 1.391 . S
C845 C844 1.386 . S
C845 C849 1.393 . S
C846 H835 0.950 . S
C846 C844 1.391 . S
C846 C847 1.400 . S
C847 C841 1.491 . S
C847 C846 1.400 . S
C847 C848 1.398 . S
C848 H836 0.950 . S
C848 C847 1.398 . S
C848 C849 1.391 . S
C849 H837 0.950 . S
C849 C845 1.393 . S
C849 C848 1.391 . S
H850 C858 0.950 . S
H851 C863 0.950 . S
H852 C860 0.950 . S
H853 C862 0.950 . S
H854 C864 0.950 . S
H855 C866 0.950 . S
H856 C868 0.950 . S
H857 C869 0.950 . S
C858 H850 0.950 . S
C858 C859 1.386 . S
C858 C860 1.391 . S
C859 C858 1.386 . S
C859 C863 1.393 . S
C860 H852 0.950 . S
C860 C858 1.391 . S
C860 C861 1.400 . S
C861 C860 1.400 . S
C861 C862 1.398 . S
C861 C867 1.491 . S
C862 H853 0.950 . S
C862 C861 1.398 . S
C862 C863 1.391 . S
C863 H851 0.950 . S
C863 C859 1.393 . S
C863 C862 1.391 . S
C864 H854 0.950 . S
C864 C865 1.386 . S
C864 C866 1.391 . S
C865 C864 1.386 . S
C865 C869 1.393 . S
C866 H855 0.950 . S
C866 C864 1.391 . S
C866 C867 1.400 . S
C867 C861 1.491 . S
C867 C866 1.400 . S
C867 C868 1.398 . S
C868 H856 0.950 . S
C868 C867 1.398 . S
C868 C869 1.391 . S
C869 H857 0.950 . S
C869 C865 1.393 . S
C869 C868 1.391 . S
H870 C878 0.950 . S
H871 C883 0.950 . S
H872 C880 0.950 . S
H873 C882 0.950 . S
H874 C884 0.950 . S
H875 C886 0.950 . S
H876 C888 0.950 . S
H877 C889 0.950 . S
C878 H870 0.950 . S
C878 C879 1.386 . S
C878 C880 1.391 . S
C879 C878 1.386 . S
C879 C883 1.393 . S
C880 H872 0.950 . S
C880 C878 1.391 . S
C880 C881 1.400 . S
C881 C880 1.400 . S
C881 C882 1.398 . S
C881 C887 1.491 . S
C882 H873 0.950 . S
C882 C881 1.398 . S
C882 C883 1.391 . S
C883 H871 0.950 . S
C883 C879 1.393 . S
C883 C882 1.391 . S
C884 H874 0.950 . S
C884 C885 1.386 . S
C884 C886 1.391 . S
C885 C884 1.386 . S
C885 C889 1.393 . S
C886 H875 0.950 . S
C886 C884 1.391 . S
C886 C887 1.400 . S
C887 C881 1.491 . S
C887 C886 1.400 . S
C887 C888 1.398 . S
C888 H876 0.950 . S
C888 C887 1.398 . S
C888 C889 1.391 . S
C889 H877 0.950 . S
C889 C885 1.393 . S
C889 C888 1.391 . S
H890 C898 0.950 . S
H891 C903 0.950 . S
H892 C900 0.950 . S
H893 C902 0.950 . S
H894 C904 0.950 . S
H895 C906 0.950 . S
H896 C908 0.950 . S
H897 C909 0.950 . S
C898 H890 0.950 . S
C898 C899 1.386 . S
C898 C900 1.391 . S
C899 C898 1.386 . S
C899 C903 1.393 . S
C900 H892 0.950 . S
C900 C898 1.391 . S
C900 C901 1.400 . S
C901 C900 1.400 . S
C901 C902 1.398 . S
C901 C907 1.491 . S
C902 H893 0.950 . S
C902 C901 1.398 . S
C902 C903 1.391 . S
C903 H891 0.950 . S
C903 C899 1.393 . S
C903 C902 1.391 . S
C904 H894 0.950 . S
C904 C905 1.386 . S
C904 C906 1.391 . S
C905 C904 1.386 . S
C905 C909 1.393 . S
C906 H895 0.950 . S
C906 C904 1.391 . S
C906 C907 1.400 . S
C907 C901 1.491 . S
C907 C906 1.400 . S
C907 C908 1.398 . S
C908 H896 0.950 . S
C908 C907 1.398 . S
C908 C909 1.391 . S
C909 H897 0.950 . S
C909 C905 1.393 . S
C909 C908 1.391 . S
H910 C918 0.950 . S
H911 C923 0.950 . S
H912 C920 0.950 . S
H913 C922 0.950 . S
H914 C924 0.950 . S
H915 C926 0.950 . S
H916 C928 0.950 . S
H917 C929 0.950 . S
C918 H910 0.950 . S
C918 C919 1.386 . S
C918 C920 1.391 . S
C919 C918 1.386 . S
C919 C923 1.393 . S
C920 H912 0.950 . S
C920 C918 1.391 . S
C920 C921 1.400 . S
C921 C920 1.400 . S
C921 C922 1.398 . S
C921 C927 1.491 . S
C922 H913 0.950 . S
C922 C921 1.398 . S
C922 C923 1.391 . S
C923 H911 0.950 . S
C923 C919 1.393 . S
C923 C922 1.391 . S
C924 H914 0.950 . S
C924 C925 1.386 . S
C924 C926 1.391 . S
C925 C924 1.386 . S
C925 C929 1.393 . S
C926 H915 0.950 . S
C926 C924 1.391 . S
C926 C927 1.400 . S
C927 C921 1.491 . S
C927 C926 1.400 . S
C927 C928 1.398 . S
C928 H916 0.950 . S
C928 C927 1.398 . S
C928 C929 1.391 . S
C929 H917 0.950 . S
C929 C925 1.393 . S
C929 C928 1.391 . S
H930 C938 0.950 . S
H931 C943 0.950 . S
H932 C940 0.950 . S
H933 C942 0.950 . S
H934 C944 0.950 . S
H935 C946 0.950 . S
H936 C948 0.950 . S
H937 C949 0.950 . S
C938 H930 0.950 . S
C938 C939 1.386 . S
C938 C940 1.391 . S
C939 C938 1.386 . S
C939 C943 1.393 . S
C940 H932 0.950 . S
C940 C938 1.391 . S
C940 C941 1.400 . S
C941 C940 1.400 . S
C941 C942 1.398 . S
C941 C947 1.491 . S
C942 H933 0.950 . S
C942 C941 1.398 . S
C942 C943 1.391 . S
C943 H931 0.950 . S
C943 C939 1.393 . S
C943 C942 1.391 . S
C944 H934 0.950 . S
C944 C945 1.386 . S
C944 C946 1.391 . S
C945 C944 1.386 . S
C945 C949 1.393 . S
C946 H935 0.950 . S
C946 C944 1.391 . S
C946 C947 1.400 . S
C947 C941 1.491 . S
C947 C946 1.400 . S
C947 C948 1.398 . S
C948 H936 0.950 . S
C948 C947 1.398 . S
C948 C949 1.391 . S
C949 H937 0.950 . S
C949 C945 1.393 . S
C949 C948 1.391 . S
H950 C958 0.950 . S
H951 C963 0.950 . S
H952 C960 0.950 . S
H953 C962 0.950 . S
H954 C964 0.950 . S
H955 C966 0.950 . S
H956 C968 0.950 . S
H957 C969 0.950 . S
C958 H950 0.950 . S
C958 C959 1.386 . S
C958 C960 1.391 . S
C959 C958 1.386 . S
C959 C963 1.393 . S
C960 H952 0.950 . S
C960 C958 1.391 . S
C960 C961 1.400 . S
C961 C960 1.400 . S
C961 C962 1.398 . S
C961 C967 1.491 . S
C962 H953 0.950 . S
C962 C961 1.398 . S
C962 C963 1.391 . S
C963 H951 0.950 . S
C963 C959 1.393 . S
C963 C962 1.391 . S
C964 H954 0.950 . S
C964 C965 1.386 . S
C964 C966 1.391 . S
C965 C964 1.386 . S
C965 C969 1.393 . S
C966 H955 0.950 . S
C966 C964 1.391 . S
C966 C967 1.400 . S
C967 C961 1.491 . S
C967 C966 1.400 . S
C967 C968 1.398 . S
C968 H956 0.950 . S
C968 C967 1.398 . S
C968 C969 1.391 . S
C969 H957 0.950 . S
C969 C965 1.393 . S
C969 C968 1.391 . S
H970 C978 0.950 . S
H971 C983 0.950 . S
H972 C980 0.950 . S
H973 C982 0.950 . S
H974 C984 0.950 . S
H975 C986 0.950 . S
H976 C988 0.950 . S
H977 C989 0.950 . S
C978 H970 0.950 . S
C978 C979 1.386 . S
C978 C980 1.391 . S
C979 C978 1.386 . S
C979 C983 1.393 . S
C980 H972 0.950 . S
C980 C978 1.391 . S
C980 C981 1.400 . S
C981 C980 1.400 . S
C981 C982 1.398 . S
C981 C987 1.491 . S
C982 H973 0.950 . S
C982 C981 1.398 . S
C982 C983 1.391 . S
C983 H971 0.950 . S
C983 C979 1.393 . S
C983 C982 1.391 . S
C984 H974 0.950 . S
C984 C985 1.386 . S
C984 C986 1.391 . S
C985 C984 1.386 . S
C985 C989 1.393 . S
C986 H975 0.950 . S
C986 C984 1.391 . S
C986 C987 1.400 . S
C987 C981 1.491 . S
C987 C986 1.400 . S
C987 C988 1.398 . S
C988 H976 0.950 . S
C988 C987 1.398 . S
C988 C989 1.391 . S
C989 H977 0.950 . S
C989 C985 1.393 . S
C989 C988 1.391 . S
H990 C998 0.950 . S
H991 C1003 0.950 . S
H992 C1000 0.950 . S
H993 C1002 0.950 . S
H994 C1004 0.950 . S
H995 C1006 0.950 . S
H996 C1008 0.950 . S
H997 C1009 0.950 . S
C998 H990 0.950 . S
C998 C999 1.386 . S
C998 C1000 1.391 . S
C999 C998 1.386 . S
C999 C1003 1.393 . S
C1000 H992 0.950 . S
C1000 C998 1.391 . S
C1000 C1001 1.400 . S
C1001 C1000 1.400 . S
C1001 C1002 1.398 . S
C1001 C1007 1.491 . S
C1002 H993 0.950 . S
C1002 C1001 1.398 . S
C1002 C1003 1.391 . S
C1003 H991 0.950 . S
C1003 C999 1.393 . S
C1003 C1002 1.391 . S
C1004 H994 0.950 . S
C1004 C1005 1.386 . S
C1004 C1006 1.391 . S
C1005 C1004 1.386 . S
C1005 C1009 1.393 . S
C1006 H995 0.950 . S
C1006 C1004 1.391 . S
C1006 C1007 1.400 . S
C1007 C1001 1.491 . S
C1007 C1006 1.400 . S
C1007 C1008 1.398 . S
C1008 H996 0.950 . S
C1008 C1007 1.398 . S
C1008 C1009 1.391 . S
C1009 H997 0.950 . S
C1009 C1005 1.393 . S
C1009 C1008 1.391 . S
H1010 C1018 0.950 . S
H1011 C1023 0.950 . S
H1012 C1020 0.950 . S
H1013 C1022 0.950 . S
H1014 C1024 0.950 . S
H1015 C1026 0.950 . S
H1016 C1028 0.950 . S
H1017 C1029 0.950 . S
C1018 H1010 0.950 . S
C1018 C1019 1.386 . S
C1018 C1020 1.391 . S
C1019 C1018 1.386 . S
C1019 C1023 1.393 . S
C1020 H1012 0.950 . S
C1020 C1018 1.391 . S
C1020 C1021 1.400 . S
C1021 C1020 1.400 . S
C1021 C1022 1.398 . S
C1021 C1027 1.491 . S
C1022 H1013 0.950 . S
C1022 C1021 1.398 . S
C1022 C1023 1.391 . S
C1023 H1011 0.950 . S
C1023 C1019 1.393 . S
C1023 C1022 1.391 . S
C1024 H1014 0.950 . S
C1024 C1025 1.386 . S
C1024 C1026 1.391 . S
C1025 C1024 1.386 . S
C1025 C1029 1.393 . S
C1026 H1015 0.950 . S
C1026 C1024 1.391 . S
C1026 C1027 1.400 . S
C1027 C1021 1.491 . S
C1027 C1026 1.400 . S
C1027 C1028 1.398 . S
C1028 H1016 0.950 . S
C1028 C1027 1.398 . S
C1028 C1029 1.391 . S
C1029 H1017 0.950 . S
C1029 C1025 1.393 . S
C1029 C1028 1.391 . S
H1030 C1038 0.950 . S
H1031 C1043 0.950 . S
H1032 C1040 0.950 . S
H1033 C1042 0.950 . S
H1034 C1044 0.950 . S
H1035 C1046 0.950 . S
H1036 C1048 0.950 . S
H1037 C1049 0.950 . S
C1038 H1030 0.950 . S
C1038 C1039 1.386 . S
C1038 C1040 1.391 . S
C1039 C1038 1.386 . S
C1039 C1043 1.393 . S
C1040 H1032 0.950 . S
C1040 C1038 1.391 . S
C1040 C1041 1.400 . S
C1041 C1040 1.400 . S
C1041 C1042 1.398 . S
C1041 C1047 1.491 . S
C1042 H1033 0.950 . S
C1042 C1041 1.398 . S
C1042 C1043 1.391 . S
C1043 H1031 0.950 . S
C1043 C1039 1.393 . S
C1043 C1042 1.391 . S
C1044 H1034 0.950 . S
C1044 C1045 1.386 . S
C1044 C1046 1.391 . S
C1045 C1044 1.386 . S
C1045 C1049 1.393 . S
C1046 H1035 0.950 . S
C1046 C1044 1.391 . S
C1046 C1047 1.400 . S
C1047 C1041 1.491 . S
C1047 C1046 1.400 . S
C1047 C1048 1.398 . S
C1048 H1036 0.950 . S
C1048 C1047 1.398 . S
C1048 C1049 1.391 . S
C1049 H1037 0.950 . S
C1049 C1045 1.393 . S
C1049 C1048 1.391 . S
H1050 C1058 0.950 . S
H1051 C1063 0.950 . S
H1052 C1060 0.950 . S
H1053 C1062 0.950 . S
H1054 C1064 0.950 . S
H1055 C1066 0.950 . S
H1056 C1068 0.950 . S
H1057 C1069 0.950 . S
C1058 H1050 0.950 . S
C1058 C1059 1.386 . S
C1058 C1060 1.391 . S
C1059 C1058 1.386 . S
C1059 C1063 1.393 . S
C1060 H1052 0.950 . S
C1060 C1058 1.391 . S
C1060 C1061 1.400 . S
C1061 C1060 1.400 . S
C1061 C1062 1.398 . S
C1061 C1067 1.491 . S
C1062 H1053 0.950 . S
C1062 C1061 1.398 . S
C1062 C1063 1.391 . S
C1063 H1051 0.950 . S
C1063 C1059 1.393 . S
C1063 C1062 1.391 . S
C1064 H1054 0.950 . S
C1064 C1065 1.386 . S
C1064 C1066 1.391 . S
C1065 C1064 1.386 . S
C1065 C1069 1.393 . S
C1066 H1055 0.950 . S
C1066 C1064 1.391 . S
C1066 C1067 1.400 . S
C1067 C1061 1.491 . S
C1067 C1066 1.400 . S
C1067 C1068 1.398 . S
C1068 H1056 0.950 . S
C1068 C1067 1.398 . S
C1068 C1069 1.391 . S
C1069 H1057 0.950 . S
C1069 C1065 1.393 . S
C1069 C1068 1.391 . S
H1070 C1078 0.950 . S
H1071 C1083 0.950 . S
H1072 C1080 0.950 . S
H1073 C1082 0.950 . S
H1074 C1084 0.950 . S
H1075 C1086 0.950 . S
H1076 C1088 0.950 . S
H1077 C1089 0.950 . S
C1078 H1070 0.950 . S
C1078 C1079 1.386 . S
C1078 C1080 1.391 . S
C1079 C1078 1.386 . S
C1079 C1083 1.393 . S
C1080 H1072 0.950 . S
C1080 C1078 1.391 . S
C1080 C1081 1.400 . S
C1081 C1080 1.400 . S
C1081 C1082 1.398 . S
C1081 C1087 1.491 . S
C1082 H1073 0.950 . S
C1082 C1081 1.398 . S
C1082 C1083 1.391 . S
C1083 H1071 0.950 . S
C1083 C1079 1.393 . S
C1083 C1082 1.391 . S
C1084 H1074 0.950 . S
C1084 C1085 1.386 . S
C1084 C1086 1.391 . S
C1085 C1084 1.386 . S
C1085 C1089 1.393 . S
C1086 H1075 0.950 . S
C1086 C1084 1.391 . S
C1086 C1087 1.400 . S
C1087 C1081 1.491 . S
C1087 C1086 1.400 . S
C1087 C1088 1.398 . S
C1088 H1076 0.950 . S
C1088 C1087 1.398 . S
C1088 C1089 1.391 . S
C1089 H1077 0.950 . S
C1089 C1085 1.393 . S
C1089 C1088 1.391 . S
H1090 C1098 0.950 . S
H1091 C1103 0.950 . S
H1092 C1100 0.950 . S
H1093 C1102 0.950 . S
H1094 C1104 0.950 . S
H1095 C1106 0.950 . S
H1096 C1108 0.950 . S
H1097 C1109 0.950 . S
C1098 H1090 0.950 . S
C1098 C1099 1.386 . S
C1098 C1100 1.391 . S
C1099 C1098 1.386 . S
C1099 C1103 1.393 . S
C1100 H1092 0.950 . S
C1100 C1098 1.391 . S
C1100 C1101 1.400 . S
C1101 C1100 1.400 . S
C1101 C1102 1.398 . S
C1101 C1107 1.491 . S
C1102 H1093 0.950 . S
C1102 C1101 1.398 . S
C1102 C1103 1.391 . S
C1103 H1091 0.950 . S
C1103 C1099 1.393 . S
C1103 C1102 1.391 . S
C1104 H1094 0.950 . S
C1104 C1105 1.386 . S
C1104 C1106 1.391 . S
C1105 C1104 1.386 . S
C1105 C1109 1.393 . S
C1106 H1095 0.950 . S
C1106 C1104 1.391 . S
C1106 C1107 1.400 . S
C1107 C1101 1.491 . S
C1107 C1106 1.400 . S
C1107 C1108 1.398 . S
C1108 H1096 0.950 . S
C1108 C1107 1.398 . S
C1108 C1109 1.391 . S
C1109 H1097 0.950 . S
C1109 C1105 1.393 . S
C1109 C1108 1.391 . S
C645 C334 1.566 . S
C639 C16 1.573 . S
C665 C403 1.537 . S
C659 C55 1.543 . S
C685 C341 1.553 . S
C679 C99 1.561 . S
C705 C404 1.533 . S
C699 C138 1.540 . S
C725 C457 1.566 . S
C719 C1 1.571 . S
C745 C493 1.522 . S
C739 C40 1.520 . S
C759 C94 1.550 . S
C765 C553 1.547 . S
C785 C616 1.522 . S
C779 C133 1.523 . S
C805 C456 1.546 . S
C799 C60 1.550 . S
C819 C79 1.532 . S
C825 C500 1.527 . S
C845 C546 1.542 . S
C839 C118 1.543 . S
C865 C615 1.531 . S
C859 C21 1.533 . S
C879 C177 1.548 . S
C885 C394 1.546 . S
C905 C351 1.554 . S
C899 C211 1.561 . S
C919 C255 1.550 . S
C925 C387 1.546 . S
C939 C289 1.568 . S
C945 C350 1.561 . S
C965 C562 1.541 . S
C959 C157 1.542 . S
C985 C606 1.527 . S
C979 C196 1.528 . S
C1005 C440 1.562 . S
C999 C250 1.567 . S
C1019 C294 1.520 . S
C1025 C509 1.526 . S
C1045 C563 1.545 . S
C1039 C216 1.550 . S
C1065 C599 1.526 . S
C1059 C235 1.525 . S
C1085 C447 1.567 . S
C1079 C274 1.567 . S
C1099 C172 1.525 . S
C1105 C510 1.527 . S
