# Generated by pormake.
# Topology ptr, (4,4)-cn, num edge types: 1
# Building blocks:
#     Node 0, Type 0, BuildingBlock: CEKHIL_clean_sbu_0, # of connection points: 4
#     Node 1, Type 0, BuildingBlock: CEKHIL_clean_sbu_0, # of connection points: 4
#     Node 2, Type 0, BuildingBlock: CEKHIL_clean_sbu_0, # of connection points: 4
#     Node 3, Type 0, BuildingBlock: CEKHIL_clean_sbu_0, # of connection points: 4
#     Node 4, Type 0, BuildingBlock: CEKHIL_clean_sbu_0, # of connection points: 4
#     Node 5, Type 0, BuildingBlock: CEKHIL_clean_sbu_0, # of connection points: 4
#     Node 6, Type 0, BuildingBlock: CEKHIL_clean_sbu_0, # of connection points: 4
#     Node 7, Type 0, BuildingBlock: CEKHIL_clean_sbu_0, # of connection points: 4
#     Node 8, Type 0, BuildingBlock: CEKHIL_clean_sbu_0, # of connection points: 4
#     Node 9, Type 0, BuildingBlock: CEKHIL_clean_sbu_0, # of connection points: 4
#     Node 10, Type 0, BuildingBlock: CEKHIL_clean_sbu_0, # of connection points: 4
#     Node 11, Type 0, BuildingBlock: CEKHIL_clean_sbu_0, # of connection points: 4
#     Node 12, Type 0, BuildingBlock: CEKHIL_clean_sbu_0, # of connection points: 4
#     Node 13, Type 0, BuildingBlock: CEKHIL_clean_sbu_0, # of connection points: 4
#     Node 14, Type 0, BuildingBlock: CEKHIL_clean_sbu_0, # of connection points: 4
#     Node 15, Type 0, BuildingBlock: CEKHIL_clean_sbu_0, # of connection points: 4
#     Node 16, Type 0, BuildingBlock: CEKHIL_clean_sbu_0, # of connection points: 4
#     Node 17, Type 0, BuildingBlock: CEKHIL_clean_sbu_0, # of connection points: 4
#     Node 18, Type 1, BuildingBlock: MUDLON_clean_linker_0, # of connection points: 4
#     Node 19, Type 1, BuildingBlock: MUDLON_clean_linker_0, # of connection points: 4
#     Node 20, Type 1, BuildingBlock: MUDLON_clean_linker_0, # of connection points: 4
#     Node 21, Type 1, BuildingBlock: MUDLON_clean_linker_0, # of connection points: 4
#     Node 22, Type 1, BuildingBlock: MUDLON_clean_linker_0, # of connection points: 4
#     Node 23, Type 1, BuildingBlock: MUDLON_clean_linker_0, # of connection points: 4
#     Node 24, Type 1, BuildingBlock: MUDLON_clean_linker_0, # of connection points: 4
#     Node 25, Type 1, BuildingBlock: MUDLON_clean_linker_0, # of connection points: 4
#     Node 26, Type 1, BuildingBlock: MUDLON_clean_linker_0, # of connection points: 4
#     Node 27, Type 1, BuildingBlock: MUDLON_clean_linker_0, # of connection points: 4
#     Node 28, Type 1, BuildingBlock: MUDLON_clean_linker_0, # of connection points: 4
#     Node 29, Type 1, BuildingBlock: MUDLON_clean_linker_0, # of connection points: 4
#     Node 30, Type 1, BuildingBlock: MUDLON_clean_linker_0, # of connection points: 4
#     Node 31, Type 1, BuildingBlock: MUDLON_clean_linker_0, # of connection points: 4
#     Node 32, Type 1, BuildingBlock: MUDLON_clean_linker_0, # of connection points: 4
#     Node 33, Type 1, BuildingBlock: MUDLON_clean_linker_0, # of connection points: 4
#     Node 34, Type 1, BuildingBlock: MUDLON_clean_linker_0, # of connection points: 4
#     Node 35, Type 1, BuildingBlock: MUDLON_clean_linker_0, # of connection points: 4
#     Edge 36, Type (0, 1), BuildingBlock: MIFKUJ_clean_linker_0, # of connection points: 2
#     Edge 37, Type (0, 1), BuildingBlock: MIFKUJ_clean_linker_0, # of connection points: 2
#     Edge 38, Type (0, 1), BuildingBlock: MIFKUJ_clean_linker_0, # of connection points: 2
#     Edge 39, Type (0, 1), BuildingBlock: MIFKUJ_clean_linker_0, # of connection points: 2
#     Edge 40, Type (0, 1), BuildingBlock: MIFKUJ_clean_linker_0, # of connection points: 2
#     Edge 41, Type (0, 1), BuildingBlock: MIFKUJ_clean_linker_0, # of connection points: 2
#     Edge 42, Type (0, 1), BuildingBlock: MIFKUJ_clean_linker_0, # of connection points: 2
#     Edge 43, Type (0, 1), BuildingBlock: MIFKUJ_clean_linker_0, # of connection points: 2
#     Edge 44, Type (0, 1), BuildingBlock: MIFKUJ_clean_linker_0, # of connection points: 2
#     Edge 45, Type (0, 1), BuildingBlock: MIFKUJ_clean_linker_0, # of connection points: 2
#     Edge 46, Type (0, 1), BuildingBlock: MIFKUJ_clean_linker_0, # of connection points: 2
#     Edge 47, Type (0, 1), BuildingBlock: MIFKUJ_clean_linker_0, # of connection points: 2
#     Edge 48, Type (0, 1), BuildingBlock: MIFKUJ_clean_linker_0, # of connection points: 2
#     Edge 49, Type (0, 1), BuildingBlock: MIFKUJ_clean_linker_0, # of connection points: 2
#     Edge 50, Type (0, 1), BuildingBlock: MIFKUJ_clean_linker_0, # of connection points: 2
#     Edge 51, Type (0, 1), BuildingBlock: MIFKUJ_clean_linker_0, # of connection points: 2
#     Edge 52, Type (0, 1), BuildingBlock: MIFKUJ_clean_linker_0, # of connection points: 2
#     Edge 53, Type (0, 1), BuildingBlock: MIFKUJ_clean_linker_0, # of connection points: 2
#     Edge 54, Type (0, 1), BuildingBlock: MIFKUJ_clean_linker_0, # of connection points: 2
#     Edge 55, Type (0, 1), BuildingBlock: MIFKUJ_clean_linker_0, # of connection points: 2
#     Edge 56, Type (0, 1), BuildingBlock: MIFKUJ_clean_linker_0, # of connection points: 2
#     Edge 57, Type (0, 1), BuildingBlock: MIFKUJ_clean_linker_0, # of connection points: 2
#     Edge 58, Type (0, 1), BuildingBlock: MIFKUJ_clean_linker_0, # of connection points: 2
#     Edge 59, Type (0, 1), BuildingBlock: MIFKUJ_clean_linker_0, # of connection points: 2
#     Edge 60, Type (0, 1), BuildingBlock: MIFKUJ_clean_linker_0, # of connection points: 2
#     Edge 61, Type (0, 1), BuildingBlock: MIFKUJ_clean_linker_0, # of connection points: 2
#     Edge 62, Type (0, 1), BuildingBlock: MIFKUJ_clean_linker_0, # of connection points: 2
#     Edge 63, Type (0, 1), BuildingBlock: MIFKUJ_clean_linker_0, # of connection points: 2
#     Edge 64, Type (0, 1), BuildingBlock: MIFKUJ_clean_linker_0, # of connection points: 2
#     Edge 65, Type (0, 1), BuildingBlock: MIFKUJ_clean_linker_0, # of connection points: 2
#     Edge 66, Type (0, 1), BuildingBlock: MIFKUJ_clean_linker_0, # of connection points: 2
#     Edge 67, Type (0, 1), BuildingBlock: MIFKUJ_clean_linker_0, # of connection points: 2
#     Edge 68, Type (0, 1), BuildingBlock: MIFKUJ_clean_linker_0, # of connection points: 2
#     Edge 69, Type (0, 1), BuildingBlock: MIFKUJ_clean_linker_0, # of connection points: 2
#     Edge 70, Type (0, 1), BuildingBlock: MIFKUJ_clean_linker_0, # of connection points: 2
#     Edge 71, Type (0, 1), BuildingBlock: MIFKUJ_clean_linker_0, # of connection points: 2
#     Edge 72, Type (0, 1), BuildingBlock: MIFKUJ_clean_linker_0, # of connection points: 2
#     Edge 73, Type (0, 1), BuildingBlock: MIFKUJ_clean_linker_0, # of connection points: 2
#     Edge 74, Type (0, 1), BuildingBlock: MIFKUJ_clean_linker_0, # of connection points: 2
#     Edge 75, Type (0, 1), BuildingBlock: MIFKUJ_clean_linker_0, # of connection points: 2
#     Edge 76, Type (0, 1), BuildingBlock: MIFKUJ_clean_linker_0, # of connection points: 2
#     Edge 77, Type (0, 1), BuildingBlock: MIFKUJ_clean_linker_0, # of connection points: 2
#     Edge 78, Type (0, 1), BuildingBlock: MIFKUJ_clean_linker_0, # of connection points: 2
#     Edge 79, Type (0, 1), BuildingBlock: MIFKUJ_clean_linker_0, # of connection points: 2
#     Edge 80, Type (0, 1), BuildingBlock: MIFKUJ_clean_linker_0, # of connection points: 2
#     Edge 81, Type (0, 1), BuildingBlock: MIFKUJ_clean_linker_0, # of connection points: 2
#     Edge 82, Type (0, 1), BuildingBlock: MIFKUJ_clean_linker_0, # of connection points: 2
#     Edge 83, Type (0, 1), BuildingBlock: MIFKUJ_clean_linker_0, # of connection points: 2
#     Edge 84, Type (0, 1), BuildingBlock: MIFKUJ_clean_linker_0, # of connection points: 2
#     Edge 85, Type (0, 1), BuildingBlock: MIFKUJ_clean_linker_0, # of connection points: 2
#     Edge 86, Type (0, 1), BuildingBlock: MIFKUJ_clean_linker_0, # of connection points: 2
#     Edge 87, Type (0, 1), BuildingBlock: MIFKUJ_clean_linker_0, # of connection points: 2
#     Edge 88, Type (0, 1), BuildingBlock: MIFKUJ_clean_linker_0, # of connection points: 2
#     Edge 89, Type (0, 1), BuildingBlock: MIFKUJ_clean_linker_0, # of connection points: 2
#     Edge 90, Type (0, 1), BuildingBlock: MIFKUJ_clean_linker_0, # of connection points: 2
#     Edge 91, Type (0, 1), BuildingBlock: MIFKUJ_clean_linker_0, # of connection points: 2
#     Edge 92, Type (0, 1), BuildingBlock: MIFKUJ_clean_linker_0, # of connection points: 2
#     Edge 93, Type (0, 1), BuildingBlock: MIFKUJ_clean_linker_0, # of connection points: 2
#     Edge 94, Type (0, 1), BuildingBlock: MIFKUJ_clean_linker_0, # of connection points: 2
#     Edge 95, Type (0, 1), BuildingBlock: MIFKUJ_clean_linker_0, # of connection points: 2
#     Edge 96, Type (0, 1), BuildingBlock: MIFKUJ_clean_linker_0, # of connection points: 2
#     Edge 97, Type (0, 1), BuildingBlock: MIFKUJ_clean_linker_0, # of connection points: 2
#     Edge 98, Type (0, 1), BuildingBlock: MIFKUJ_clean_linker_0, # of connection points: 2
#     Edge 99, Type (0, 1), BuildingBlock: MIFKUJ_clean_linker_0, # of connection points: 2
#     Edge 100, Type (0, 1), BuildingBlock: MIFKUJ_clean_linker_0, # of connection points: 2
#     Edge 101, Type (0, 1), BuildingBlock: MIFKUJ_clean_linker_0, # of connection points: 2
#     Edge 102, Type (0, 1), BuildingBlock: MIFKUJ_clean_linker_0, # of connection points: 2
#     Edge 103, Type (0, 1), BuildingBlock: MIFKUJ_clean_linker_0, # of connection points: 2
#     Edge 104, Type (0, 1), BuildingBlock: MIFKUJ_clean_linker_0, # of connection points: 2
#     Edge 105, Type (0, 1), BuildingBlock: MIFKUJ_clean_linker_0, # of connection points: 2
#     Edge 106, Type (0, 1), BuildingBlock: MIFKUJ_clean_linker_0, # of connection points: 2
#     Edge 107, Type (0, 1), BuildingBlock: MIFKUJ_clean_linker_0, # of connection points: 2
# Relax obj value: 0.034
# Max RMSD: 0.095
# Mean RMSD: 0.063
data_MOF--net-ptr--node1-CEKHIL_clean_sbu_0--node2-MUDLON_clean_linker_0--edge1-MIFKUJ_clean_linker_0
_symmetry_space_group_name_H-M    P1
_symmetry_Int_Tables_number       1
_symmetry_cell_setting            triclinic
loop_
_symmetry_equiv_pos_as_xyz
'x, y, z'
_cell_length_a     128.60412
_cell_length_b     127.40385
_cell_length_c     78.611778
_cell_angle_alpha  90.799494
_cell_angle_beta   89.588065
_cell_angle_gamma 120.83648
loop_
_atom_site_label
_atom_site_type_symbol
_atom_site_fract_x
_atom_site_fract_y
_atom_site_fract_z
_atom_type_partial_charge
Co0 Co 0.00332 0.35524 0.01378 0.0
O1 O 0.00909 0.34778 0.02923 0.0
O2 O 0.02087 0.36422 0.01404 0.0
C3 C 0.98937 0.33773 0.00084 0.0
O4 O 1.00065 0.36523 0.99615 0.0
Co5 Co 0.97666 0.34918 0.0163 0.0
O6 O 0.98109 0.36016 0.99652 0.0
C7 C 0.99436 0.36529 0.04196 0.0
C8 C 0.01995 0.3562 0.02494 0.0
C9 C 0.99182 0.36628 0.99064 0.0
O10 O 0.00298 0.36589 0.03279 0.0
O11 O 0.98314 0.35808 0.03852 0.0
O12 O 1.00067 0.34306 0.99631 0.0
O13 O 0.9871 0.34245 0.01394 0.0
Co14 Co 0.64972 0.64896 0.01396 0.0
O15 O 0.66198 0.65668 0.99673 0.0
O16 O 0.65865 0.64059 0.01157 0.0
C17 C 0.65375 0.66641 0.02737 0.0
O18 O 0.63839 0.63876 0.03311 0.0
Co19 Co 0.62839 0.65366 0.01734 0.0
O20 O 0.62532 0.64503 0.03923 0.0
C21 C 0.62784 0.63693 0.99039 0.0
C22 C 0.66503 0.64867 0.00012 0.0
C23 C 0.62995 0.6385 0.04236 0.0
O24 O 0.63761 0.6379 0.99629 0.0
O25 O 0.6232 0.64304 0.99634 0.0
O26 O 0.66019 0.66146 0.03047 0.0
O27 O 0.64579 0.66126 0.01544 0.0
Co28 Co 0.35664 0.00276 0.01311 0.0
O29 O 0.34904 0.0072 0.99597 0.0
O30 O 0.36539 0.02034 0.01053 0.0
C31 C 0.3393 0.98962 0.02656 0.0
O32 O 0.36671 0.00176 0.03228 0.0
Co33 Co 0.35113 0.97616 0.01651 0.0
O34 O 0.35939 0.98207 0.03877 0.0
C35 C 0.36756 0.99186 0.98931 0.0
C36 C 0.35722 0.01848 0.99929 0.0
C37 C 0.36635 0.99344 0.04183 0.0
O38 O 0.36718 0.00109 0.99544 0.0
O39 O 0.36117 0.98104 0.99519 0.0
O40 O 0.34455 0.00128 0.0296 0.0
O41 O 0.34411 0.98637 0.0147 0.0
Co42 Co 0.99892 0.6488 0.01183 0.0
O43 O 0.99314 0.65654 0.99695 0.0
O44 O 0.98135 0.6399 0.01178 0.0
C45 C 0.013 0.66618 0.02491 0.0
O46 O 0.00164 0.63856 0.02897 0.0
Co47 Co 0.02548 0.65471 0.00933 0.0
O48 O 0.02155 0.64536 0.03075 0.0
C49 C 0.00768 0.63876 0.98345 0.0
C50 C 0.98227 0.64814 0.00126 0.0
C51 C 0.01069 0.6385 0.03583 0.0
O52 O 0.99909 0.6384 0.99239 0.0
O53 O 0.01891 0.6456 0.98724 0.0
O54 O 0.00176 0.66075 0.02975 0.0
O55 O 0.01515 0.66156 0.01158 0.0
Co56 Co 0.35416 0.35483 0.0145 0.0
O57 O 0.34178 0.34754 0.03157 0.0
O58 O 0.34537 0.36342 0.01604 0.0
C59 C 0.3498 0.33697 0.00207 0.0
O60 O 0.36578 0.36454 0.99525 0.0
Co61 Co 0.37506 0.34942 0.01229 0.0
O62 O 0.37815 0.3573 0.98984 0.0
C63 C 0.37625 0.36743 0.03758 0.0
C64 C 0.33883 0.35553 0.02762 0.0
C65 C 0.37398 0.36416 0.9862 0.0
O66 O 0.36622 0.36606 0.03212 0.0
O67 O 0.38099 0.36138 0.03182 0.0
O68 O 0.34369 0.34215 0.99819 0.0
O69 O 0.35772 0.34225 0.01404 0.0
Co70 Co 0.64652 0.99914 0.01209 0.0
O71 O 0.6533 0.99342 0.02875 0.0
O72 O 0.63781 0.98145 0.01196 0.0
C73 C 0.66434 0.01335 0.00069 0.0
O74 O 0.63729 0.00164 0.99312 0.0
Co75 Co 0.65211 0.02594 0.0133 0.0
O76 O 0.64297 0.0215 0.99159 0.0
C77 C 0.63551 0.00824 0.03843 0.0
C78 C 0.6453 0.98244 0.02378 0.0
C79 C 0.63687 0.0105 0.9861 0.0
O80 O 0.63519 0.99942 0.02979 0.0
O81 O 0.64264 0.01952 0.03494 0.0
O82 O 0.65934 0.00195 0.99602 0.0
O83 O 0.65902 0.01557 0.013 0.0
Co84 Co 0.67062 0.68993 0.34549 0.0
O85 O 0.67543 0.68173 0.36112 0.0
O86 O 0.68813 0.69848 0.34709 0.0
C87 C 0.65679 0.67278 0.33161 0.0
O88 O 0.66906 0.70057 0.32777 0.0
Co89 Co 0.64421 0.68467 0.34499 0.0
O90 O 0.64943 0.69438 0.32381 0.0
C91 C 0.66076 0.69953 0.37276 0.0
C92 C 0.68653 0.69 0.35765 0.0
C93 C 0.66057 0.70102 0.31982 0.0
O94 O 0.66981 0.70024 0.36459 0.0
O95 O 0.64975 0.69278 0.36791 0.0
O96 O 0.6682 0.678 0.32766 0.0
O97 O 0.65431 0.67751 0.34446 0.0
Co98 Co 0.31408 0.98017 0.34825 0.0
O99 O 0.32607 0.98735 0.33053 0.0
O100 O 0.3229 0.9717 0.34629 0.0
C101 C 0.31825 0.99794 0.36076 0.0
O102 O 0.30312 0.97053 0.36803 0.0
Co103 Co 0.29269 0.98474 0.35169 0.0
O104 O 0.29015 0.97691 0.37413 0.0
C105 C 0.29172 0.96729 0.32563 0.0
C106 C 0.32907 0.97935 0.33431 0.0
C107 C 0.2949 0.97052 0.37749 0.0
O108 O 0.30171 0.96863 0.33121 0.0
O109 O 0.287 0.97335 0.33147 0.0
O110 O 0.3248 0.99313 0.36403 0.0
O111 O 0.31008 0.99244 0.34914 0.0
Co112 Co 0.02442 0.33614 0.34844 0.0
O113 O 0.01753 0.3411 0.3308 0.0
O114 O 0.03336 0.35374 0.34659 0.0
C115 C 0.00666 0.32279 0.36085 0.0
O116 O 0.03388 0.3347 0.36813 0.0
Co117 Co 0.01857 0.30936 0.35157 0.0
O118 O 0.02704 0.31497 0.37371 0.0
C119 C 0.03578 0.32539 0.32524 0.0
C120 C 0.02575 0.35227 0.33468 0.0
C121 C 0.03375 0.32631 0.37724 0.0
O122 O 0.03538 0.33463 0.33129 0.0
O123 O 0.02915 0.31451 0.33083 0.0
O124 O 0.01184 0.33441 0.36425 0.0
O125 O 0.0118 0.31975 0.34923 0.0
Co126 Co 0.66638 0.9785 0.3466 0.0
O127 O 0.66136 0.98513 0.32869 0.0
O128 O 0.64897 0.96916 0.34437 0.0
C129 C 0.67916 0.9966 0.35932 0.0
O130 O 0.66787 0.96918 0.3664 0.0
Co131 Co 0.69297 0.98499 0.35103 0.0
O132 O 0.68735 0.97638 0.37298 0.0
C133 C 0.67774 0.96758 0.32389 0.0
C134 C 0.65035 0.97671 0.33242 0.0
C135 C 0.67609 0.96946 0.37597 0.0
O136 O 0.66835 0.96765 0.32953 0.0
O137 O 0.68839 0.97442 0.33002 0.0
O138 O 0.66762 0.99102 0.36244 0.0
O139 O 0.68249 0.99156 0.34785 0.0
Co140 Co 0.01899 0.6869 0.34835 0.0
O141 O 0.00605 0.67883 0.3645 0.0
O142 O 0.01023 0.6955 0.35047 0.0
C143 C 0.0151 0.66969 0.3343 0.0
O144 O 0.0312 0.69748 0.33031 0.0
Co145 Co 0.03992 0.68147 0.34639 0.0
O146 O 0.04372 0.69044 0.32461 0.0
C147 C 0.03922 0.69683 0.37439 0.0
C148 C 0.0033 0.68708 0.36122 0.0
C149 C 0.03962 0.69743 0.32142 0.0
O150 O 0.03052 0.69722 0.36704 0.0
O151 O 0.04343 0.6902 0.369 0.0
O152 O 0.00904 0.67499 0.33077 0.0
O153 O 0.02257 0.67439 0.34687 0.0
Co154 Co 0.31273 0.33459 0.34623 0.0
O155 O 0.32028 0.33033 0.36371 0.0
O156 O 0.30435 0.31701 0.34863 0.0
C157 C 0.33024 0.34808 0.33334 0.0
O158 O 0.30271 0.33533 0.32675 0.0
Co159 Co 0.31775 0.36095 0.3419 0.0
O160 O 0.31041 0.35488 0.31916 0.0
C161 C 0.3007 0.34502 0.36856 0.0
C162 C 0.31236 0.31899 0.36018 0.0
C163 C 0.30337 0.34347 0.31654 0.0
O164 O 0.30185 0.33599 0.3636 0.0
O165 O 0.30661 0.3557 0.36207 0.0
O166 O 0.32515 0.33645 0.33007 0.0
O167 O 0.32505 0.35109 0.34493 0.0
Co168 Co 0.33648 0.02397 0.67843 0.0
O169 O 0.34137 0.01671 0.69555 0.0
O170 O 0.35392 0.03316 0.68088 0.0
C171 C 0.3235 0.00628 0.66494 0.0
O172 O 0.33495 0.03384 0.65942 0.0
Co173 Co 0.30979 0.01766 0.6755 0.0
O174 O 0.31536 0.02725 0.65429 0.0
C175 C 0.32526 0.03368 0.70342 0.0
C176 C 0.35243 0.02522 0.69231 0.0
C177 C 0.32657 0.03403 0.65078 0.0
O178 O 0.33468 0.03445 0.6963 0.0
O179 O 0.31447 0.02657 0.69796 0.0
O180 O 0.33504 0.01175 0.66175 0.0
O181 O 0.32037 0.0111 0.67695 0.0
Co182 Co 0.98195 0.31409 0.67766 0.0
O183 O 0.9943 0.32177 0.66057 0.0
O184 O 0.99133 0.30615 0.67625 0.0
C185 C 0.98527 0.33157 0.69023 0.0
O186 O 0.97061 0.30408 0.69691 0.0
Co187 Co 0.9601 0.31811 0.67956 0.0
O188 O 0.95693 0.30976 0.7017 0.0
C189 C 0.96045 0.3013 0.65354 0.0
C190 C 0.99761 0.31405 0.66456 0.0
C191 C 0.96188 0.30366 0.70562 0.0
O192 O 0.97018 0.30251 0.66001 0.0
O193 O 0.95555 0.30732 0.65882 0.0
O194 O 0.99199 0.32704 0.694 0.0
O195 O 0.97753 0.32601 0.67816 0.0
Co196 Co 0.69039 0.66771 0.67994 0.0
O197 O 0.68208 0.6714 0.6629 0.0
O198 O 0.69863 0.68519 0.6765 0.0
C199 C 0.67351 0.6545 0.69429 0.0
O200 O 0.70114 0.66767 0.69893 0.0
Co201 Co 0.68597 0.64161 0.68479 0.0
O202 O 0.69473 0.64836 0.70649 0.0
C203 C 0.70173 0.65688 0.65678 0.0
C204 C 0.69013 0.68283 0.66559 0.0
C205 C 0.7014 0.65985 0.70887 0.0
O206 O 0.70072 0.66596 0.66192 0.0
O207 O 0.69614 0.64634 0.66366 0.0
O208 O 0.6785 0.6662 0.69683 0.0
O209 O 0.67831 0.65121 0.68245 0.0
Co210 Co 0.33516 0.31464 0.6782 0.0
O211 O 0.33058 0.32205 0.66093 0.0
O212 O 0.31775 0.30556 0.67531 0.0
C213 C 0.34786 0.33227 0.69205 0.0
O214 O 0.33634 0.3046 0.69731 0.0
Co215 Co 0.36181 0.32099 0.68215 0.0
O216 O 0.35585 0.31102 0.70291 0.0
C217 C 0.34651 0.30403 0.65472 0.0
C218 C 0.31945 0.31366 0.66403 0.0
C219 C 0.34459 0.30423 0.70604 0.0
O220 O 0.33719 0.30421 0.66041 0.0
O221 O 0.35716 0.31067 0.66094 0.0
O222 O 0.33628 0.32669 0.69485 0.0
O223 O 0.35127 0.32757 0.68019 0.0
Co224 Co 0.68839 0.02189 0.67973 0.0
O225 O 0.67545 0.0146 0.69606 0.0
O226 O 0.67967 0.03057 0.68029 0.0
C227 C 0.68469 0.00421 0.66738 0.0
O228 O 0.70056 0.0316 0.66113 0.0
Co229 Co 0.70948 0.01667 0.6802 0.0
O230 O 0.71422 0.02567 0.65844 0.0
C231 C 0.70865 0.03328 0.70595 0.0
C232 C 0.67279 0.02273 0.6917 0.0
C233 C 0.70964 0.03194 0.65357 0.0
O234 O 0.6999 0.03313 0.69787 0.0
O235 O 0.71294 0.02648 0.70184 0.0
O236 O 0.67848 0.00919 0.66302 0.0
O237 O 0.69208 0.00944 0.67993 0.0
Co238 Co 0.97743 0.66914 0.68107 0.0
O239 O 0.98529 0.66511 0.69842 0.0
O240 O 0.96874 0.65168 0.68453 0.0
C241 C 0.99466 0.68204 0.66709 0.0
O242 O 0.96694 0.66945 0.66193 0.0
Co243 Co 0.98255 0.69534 0.67502 0.0
O244 O 0.97496 0.68864 0.65254 0.0
C245 C 0.96614 0.68054 0.703 0.0
C246 C 0.97701 0.65376 0.69569 0.0
C247 C 0.96764 0.6772 0.65097 0.0
O248 O 0.9672 0.67134 0.69872 0.0
O249 O 0.9718 0.6909 0.69558 0.0
O250 O 0.98933 0.67031 0.66443 0.0
O251 O 0.98984 0.68551 0.67865 0.0
H252 H 0.21231 0.34176 0.15834 0.0
N253 N 0.19928 0.32085 0.13939 0.0
H254 H 0.22414 0.34396 0.18379 0.0
H255 H 0.19842 0.30297 0.15741 0.0
H256 H 0.21007 0.30505 0.18312 0.0
H257 H 0.2016 0.30566 0.11853 0.0
H258 H 0.21796 0.31083 0.09809 0.0
H259 H 0.21609 0.34398 0.12902 0.0
H260 H 0.23243 0.3492 0.10885 0.0
H261 H 0.19835 0.3419 0.13783 0.0
H262 H 0.17656 0.30261 0.13864 0.0
H263 H 0.18014 0.34318 0.1356 0.0
H264 H 0.15821 0.30373 0.1374 0.0
H265 H 0.12783 0.34438 0.15364 0.0
H266 H 0.11877 0.34637 0.17994 0.0
H267 H 0.09922 0.30712 0.18538 0.0
H268 H 0.10826 0.3052 0.15882 0.0
H269 H 0.10198 0.31011 0.12084 0.0
H270 H 0.09308 0.31769 0.10069 0.0
H271 H 0.12542 0.35351 0.10342 0.0
H272 H 0.13418 0.34576 0.12382 0.0
H273 H 0.14437 0.34082 0.1511 0.0
H274 H 0.16325 0.34072 0.15086 0.0
H275 H 0.14634 0.30788 0.11966 0.0
N276 N 0.12257 0.32295 0.1377 0.0
H277 H 0.12726 0.30767 0.12095 0.0
C278 C 0.20458 0.32218 0.15591 0.0
C279 C 0.21165 0.33369 0.16375 0.0
C280 C 0.21843 0.33494 0.17828 0.0
C281 C 0.2181 0.32468 0.18532 0.0
C282 C 0.21044 0.31309 0.17803 0.0
C283 C 0.2038 0.31189 0.16339 0.0
C284 C 0.20754 0.32437 0.12527 0.0
C285 C 0.20812 0.31518 0.11609 0.0
C286 C 0.21753 0.31816 0.10457 0.0
C287 C 0.22656 0.33043 0.102 0.0
C288 C 0.22556 0.33967 0.11044 0.0
C289 C 0.21616 0.33667 0.12202 0.0
C290 C 0.18881 0.3221 0.13813 0.0
C291 C 0.18966 0.33353 0.13748 0.0
C292 C 0.17917 0.33425 0.13639 0.0
C293 C 0.16762 0.32356 0.13618 0.0
C294 C 0.16689 0.31217 0.13707 0.0
C295 C 0.17736 0.31148 0.13793 0.0
C296 C 0.1187 0.32459 0.15427 0.0
C297 C 0.12177 0.33621 0.16061 0.0
C298 C 0.1166 0.33735 0.1757 0.0
C299 C 0.10821 0.3269 0.18467 0.0
C300 C 0.10552 0.31533 0.17863 0.0
C301 C 0.11074 0.31421 0.16357 0.0
C302 C 0.11867 0.32735 0.12381 0.0
C303 C 0.10724 0.31952 0.11676 0.0
C304 C 0.10219 0.32388 0.10521 0.0
C305 C 0.10851 0.33624 0.10047 0.0
C306 C 0.12026 0.34398 0.10697 0.0
C307 C 0.12531 0.33956 0.11854 0.0
C308 C 0.13428 0.32405 0.13632 0.0
C309 C 0.14468 0.33358 0.14425 0.0
C310 C 0.15557 0.33358 0.14394 0.0
C311 C 0.15635 0.32418 0.13545 0.0
C312 C 0.14605 0.31507 0.12676 0.0
C313 C 0.13515 0.31498 0.12732 0.0
H314 H 0.70689 0.80377 0.15844 0.0
N315 N 0.69131 0.80856 0.14389 0.0
H316 H 0.70396 0.79225 0.18432 0.0
H317 H 0.67291 0.80202 0.1669 0.0
H318 H 0.6701 0.79095 0.19329 0.0
H319 H 0.66854 0.78854 0.14013 0.0
H320 H 0.66278 0.77127 0.12086 0.0
H321 H 0.70441 0.80735 0.11852 0.0
H322 H 0.69868 0.79003 0.09903 0.0
H323 H 0.70741 0.832 0.14873 0.0
H324 H 0.67006 0.80752 0.13508 0.0
H325 H 0.70463 0.84944 0.1456 0.0
H326 H 0.66733 0.82487 0.13107 0.0
H327 H 0.69948 0.89841 0.15392 0.0
H328 H 0.69716 0.90734 0.1804 0.0
H329 H 0.65838 0.88292 0.17773 0.0
H330 H 0.66078 0.87438 0.15112 0.0
H331 H 0.65895 0.87 0.12175 0.0
H332 H 0.65118 0.87842 0.10082 0.0
H333 H 0.68742 0.90905 0.0935 0.0
H334 H 0.69501 0.9007 0.11463 0.0
H335 H 0.70037 0.87923 0.12371 0.0
H336 H 0.70213 0.86105 0.12481 0.0
H337 H 0.66587 0.84056 0.1454 0.0
N338 N 0.68208 0.88158 0.13425 0.0
H339 H 0.66403 0.85862 0.14331 0.0
C340 C 0.6902 0.8038 0.16076 0.0
C341 C 0.69898 0.80122 0.16623 0.0
C342 C 0.69728 0.79465 0.18108 0.0
C343 C 0.68675 0.79058 0.19093 0.0
C344 C 0.67822 0.79374 0.18588 0.0
C345 C 0.67988 0.80022 0.17088 0.0
C346 C 0.68694 0.7993 0.13069 0.0
C347 C 0.67508 0.78913 0.13088 0.0
C348 C 0.67179 0.77923 0.11984 0.0
C349 C 0.68031 0.77926 0.10852 0.0
C350 C 0.69197 0.7897 0.10775 0.0
C351 C 0.69522 0.79963 0.11874 0.0
C352 C 0.68906 0.81847 0.14198 0.0
C353 C 0.69864 0.83041 0.14491 0.0
C354 C 0.69704 0.84037 0.14294 0.0
C355 C 0.68579 0.83862 0.13782 0.0
C356 C 0.6761 0.82659 0.13511 0.0
C357 C 0.67769 0.81661 0.13727 0.0
C358 C 0.68037 0.88573 0.15057 0.0
C359 C 0.69051 0.89492 0.15921 0.0
C360 C 0.68915 0.89995 0.17436 0.0
C361 C 0.67757 0.89585 0.18119 0.0
C362 C 0.66741 0.8864 0.17271 0.0
C363 C 0.66879 0.88141 0.15753 0.0
C364 C 0.67756 0.88485 0.11984 0.0
C365 C 0.66522 0.87843 0.11547 0.0
C366 C 0.6608 0.88325 0.10353 0.0
C367 C 0.66869 0.89443 0.0956 0.0
C368 C 0.68113 0.90037 0.09924 0.0
C369 C 0.68549 0.89564 0.11131 0.0
C370 C 0.68218 0.87035 0.13359 0.0
C371 C 0.69276 0.87074 0.12821 0.0
C372 C 0.69378 0.86037 0.12906 0.0
C373 C 0.68423 0.84934 0.13553 0.0
C374 C 0.6734 0.84884 0.14029 0.0
C375 C 0.67235 0.85923 0.13923 0.0
H376 H 0.12506 0.78953 0.15879 0.0
N377 N 0.11934 0.80574 0.14564 0.0
H378 H 0.11677 0.77766 0.18447 0.0
H379 H 0.1057 0.80828 0.16897 0.0
H380 H 0.09677 0.79592 0.19438 0.0
H381 H 0.09873 0.8005 0.13099 0.0
H382 H 0.08678 0.78393 0.11074 0.0
H383 H 0.12716 0.79211 0.12888 0.0
H384 H 0.11502 0.77503 0.10925 0.0
H385 H 0.14113 0.80968 0.15828 0.0
H386 H 0.12503 0.82497 0.12666 0.0
H387 H 0.16075 0.82809 0.15527 0.0
H388 H 0.14489 0.84324 0.12265 0.0
H389 H 0.21579 0.87638 0.15128 0.0
H390 H 0.22772 0.88253 0.17752 0.0
H391 H 0.20924 0.90113 0.19454 0.0
H392 H 0.19724 0.89473 0.16841 0.0
H393 H 0.20769 0.90581 0.13257 0.0
H394 H 0.22405 0.91792 0.11278 0.0
H395 H 0.22577 0.88581 0.09924 0.0
H396 H 0.20977 0.87396 0.11975 0.0
H397 H 0.19673 0.86021 0.14011 0.0
H398 H 0.17753 0.84083 0.13834 0.0
H399 H 0.1584 0.86057 0.1382 0.0
N400 N 0.1996 0.88307 0.14188 0.0
H401 H 0.1777 0.87984 0.13895 0.0
C402 C 0.11613 0.79996 0.16205 0.0
C403 C 0.11919 0.79127 0.16671 0.0
C404 C 0.11427 0.78432 0.18133 0.0
C405 C 0.10595 0.78568 0.19143 0.0
C406 C 0.10325 0.7947 0.18707 0.0
C407 C 0.10833 0.80178 0.17254 0.0
C408 C 0.11369 0.79739 0.13157 0.0
C409 C 0.10243 0.79514 0.12593 0.0
C410 C 0.09558 0.78558 0.11454 0.0
C411 C 0.0998 0.77794 0.10869 0.0
C412 C 0.11148 0.78071 0.11351 0.0
C413 C 0.1184 0.79041 0.12482 0.0
C414 C 0.13142 0.81597 0.14294 0.0
C415 C 0.14176 0.81688 0.15048 0.0
C416 C 0.15312 0.82747 0.14857 0.0
C417 C 0.15447 0.8373 0.13885 0.0
C418 C 0.14421 0.83604 0.13061 0.0
C419 C 0.13284 0.82556 0.13276 0.0
C420 C 0.20562 0.88512 0.15798 0.0
C421 C 0.21414 0.88155 0.16082 0.0
C422 C 0.22103 0.88516 0.17576 0.0
C423 C 0.21948 0.89236 0.18809 0.0
C424 C 0.21057 0.89545 0.18544 0.0
C425 C 0.20372 0.89186 0.17052 0.0
C426 C 0.20745 0.88901 0.12762 0.0
C427 C 0.21142 0.90135 0.12501 0.0
C428 C 0.22078 0.90824 0.11361 0.0
C429 C 0.22635 0.90289 0.10439 0.0
C430 C 0.22188 0.8903 0.10633 0.0
C431 C 0.21258 0.88344 0.11794 0.0
C432 C 0.18862 0.87149 0.1394 0.0
C433 C 0.18843 0.86036 0.13924 0.0
C434 C 0.17739 0.84925 0.13847 0.0
C435 C 0.16633 0.84905 0.13815 0.0
C436 C 0.16666 0.86027 0.13805 0.0
C437 C 0.17768 0.87133 0.13858 0.0
H438 H 0.35323 0.22227 0.85924 0.0
N439 N 0.33623 0.2068 0.88024 0.0
H440 H 0.35044 0.23117 0.8336 0.0
H441 H 0.31454 0.19945 0.86453 0.0
H442 H 0.31163 0.20798 0.83871 0.0
H443 H 0.31536 0.20395 0.89387 0.0
H444 H 0.31403 0.21762 0.91487 0.0
H445 H 0.35423 0.22413 0.89847 0.0
H446 H 0.35301 0.2377 0.91969 0.0
H447 H 0.3531 0.20118 0.88537 0.0
H448 H 0.3145 0.18527 0.88165 0.0
H449 H 0.35031 0.18099 0.89009 0.0
H450 H 0.31156 0.16495 0.88503 0.0
H451 H 0.34272 0.12347 0.87795 0.0
H452 H 0.34454 0.11424 0.85167 0.0
H453 H 0.30737 0.10231 0.83929 0.0
H454 H 0.30551 0.11128 0.86608 0.0
H455 H 0.30899 0.10068 0.90462 0.0
H456 H 0.31577 0.09096 0.9245 0.0
H457 H 0.35055 0.12445 0.92824 0.0
H458 H 0.3438 0.13387 0.90762 0.0
H459 H 0.34234 0.14259 0.87777 0.0
H460 H 0.34549 0.163 0.87602 0.0
H461 H 0.31208 0.1511 0.90354 0.0
N462 N 0.32214 0.12227 0.89031 0.0
H463 H 0.30861 0.13036 0.90415 0.0
C464 C 0.33416 0.21016 0.86376 0.0
C465 C 0.34414 0.21894 0.85457 0.0
C466 C 0.34251 0.22399 0.83991 0.0
C467 C 0.33079 0.22033 0.8341 0.0
C468 C 0.32077 0.21113 0.84295 0.0
C469 C 0.32243 0.20611 0.85767 0.0
C470 C 0.33494 0.21317 0.89454 0.0
C471 C 0.32359 0.21118 0.89962 0.0
C472 C 0.32284 0.219 0.91159 0.0
C473 C 0.33342 0.22876 0.91882 0.0
C474 C 0.34469 0.2302 0.91445 0.0
C475 C 0.34543 0.22249 0.90235 0.0
C476 C 0.33407 0.1947 0.88279 0.0
C477 C 0.34402 0.19326 0.88534 0.0
C478 C 0.34238 0.18169 0.88791 0.0
C479 C 0.3307 0.17122 0.88775 0.0
C480 C 0.32069 0.17275 0.88543 0.0
C481 C 0.32235 0.1844 0.88317 0.0
C482 C 0.32388 0.11795 0.87407 0.0
C483 C 0.33496 0.11894 0.86958 0.0
C484 C 0.33603 0.11372 0.85443 0.0
C485 C 0.32608 0.10746 0.8434 0.0
C486 C 0.31515 0.10688 0.84764 0.0
C487 C 0.31408 0.11207 0.86285 0.0
C488 C 0.3258 0.11796 0.90464 0.0
C489 C 0.31797 0.10599 0.91007 0.0
C490 C 0.32189 0.10048 0.92152 0.0
C491 C 0.33377 0.10688 0.928 0.0
C492 C 0.34142 0.11917 0.92331 0.0
C493 C 0.33751 0.12464 0.91166 0.0
C494 C 0.32507 0.13483 0.89085 0.0
C495 C 0.33566 0.14431 0.88341 0.0
C496 C 0.33752 0.1561 0.88258 0.0
C497 C 0.329 0.15878 0.8895 0.0
C498 C 0.3187 0.14937 0.89767 0.0
C499 C 0.31676 0.13753 0.89823 0.0
H500 H 0.77455 0.13607 0.87083 0.0
N501 N 0.79343 0.13706 0.88595 0.0
H502 H 0.76433 0.12483 0.8448 0.0
H503 H 0.80174 0.12621 0.8635 0.0
H504 H 0.79183 0.1153 0.83743 0.0
H505 H 0.78958 0.11394 0.88947 0.0
H506 H 0.77539 0.09864 0.90904 0.0
H507 H 0.78378 0.14115 0.91338 0.0
H508 H 0.77026 0.12614 0.93407 0.0
H509 H 0.80424 0.16117 0.8858 0.0
H510 H 0.81147 0.13186 0.89019 0.0
H511 H 0.82588 0.17609 0.88699 0.0
H512 H 0.8332 0.14658 0.88997 0.0
H513 H 0.88397 0.2184 0.87425 0.0
H514 H 0.89394 0.23045 0.84928 0.0
H515 H 0.90176 0.20287 0.83189 0.0
H516 H 0.89208 0.191 0.85755 0.0
H517 H 0.9048 0.20462 0.89563 0.0
H518 H 0.91633 0.22106 0.91602 0.0
H519 H 0.88474 0.22402 0.92552 0.0
H520 H 0.87357 0.20813 0.90421 0.0
H521 H 0.86427 0.19887 0.86884 0.0
H522 H 0.84292 0.18405 0.87037 0.0
H523 H 0.85025 0.16191 0.90379 0.0
N524 N 0.88286 0.19722 0.88365 0.0
H525 H 0.87195 0.17655 0.90112 0.0
C526 C 0.78891 0.13206 0.86919 0.0
C527 C 0.77848 0.13176 0.86338 0.0
C528 C 0.77268 0.12535 0.84849 0.0
C529 C 0.77722 0.11908 0.83911 0.0
C530 C 0.788 0.11988 0.84451 0.0
C531 C 0.79377 0.12626 0.85941 0.0
C532 C 0.78748 0.12865 0.89968 0.0
C533 C 0.7855 0.11672 0.89925 0.0
C534 C 0.77741 0.10795 0.91064 0.0
C535 C 0.77136 0.11101 0.92299 0.0
C536 C 0.77435 0.12328 0.92439 0.0
C537 C 0.78223 0.13196 0.91274 0.0
C538 C 0.80626 0.14545 0.88757 0.0
C539 C 0.81056 0.15798 0.88689 0.0
C540 C 0.82297 0.16648 0.88737 0.0
C541 C 0.83143 0.16261 0.88821 0.0
C542 C 0.82704 0.14998 0.88942 0.0
C543 C 0.81458 0.14149 0.88932 0.0
C544 C 0.88732 0.20376 0.86785 0.0
C545 C 0.88774 0.21486 0.86505 0.0
C546 C 0.89338 0.22173 0.85062 0.0
C547 C 0.89869 0.21766 0.83853 0.0
C548 C 0.89792 0.20636 0.84105 0.0
C549 C 0.89229 0.1995 0.85559 0.0
C550 C 0.88834 0.20507 0.89836 0.0
C551 C 0.90031 0.20865 0.90242 0.0
C552 C 0.90687 0.21806 0.91417 0.0
C553 C 0.90154 0.22402 0.92244 0.0
C554 C 0.88926 0.21986 0.91918 0.0
C555 C 0.88276 0.21059 0.90714 0.0
C556 C 0.86991 0.18878 0.88467 0.0
C557 C 0.86144 0.19083 0.87638 0.0
C558 C 0.84906 0.18233 0.87748 0.0
C559 C 0.84471 0.1717 0.88726 0.0
C560 C 0.85318 0.16982 0.89585 0.0
C561 C 0.86561 0.17823 0.89446 0.0
H562 H 0.80055 0.70618 0.87604 0.0
N563 N 0.80612 0.69026 0.88784 0.0
H564 H 0.78959 0.70452 0.84992 0.0
H565 H 0.80061 0.67336 0.86235 0.0
H566 H 0.78988 0.67173 0.83594 0.0
H567 H 0.78785 0.66627 0.88847 0.0
H568 H 0.77021 0.65756 0.90721 0.0
H569 H 0.80294 0.70078 0.91522 0.0
H570 H 0.78525 0.69215 0.93403 0.0
H571 H 0.82787 0.70542 0.87511 0.0
H572 H 0.80788 0.67128 0.90178 0.0
H573 H 0.8459 0.70379 0.87582 0.0
H574 H 0.82602 0.67002 0.90355 0.0
H575 H 0.90458 0.69987 0.88268 0.0
H576 H 0.91423 0.69793 0.85674 0.0
H577 H 0.87973 0.66816 0.83946 0.0
H578 H 0.8702 0.6698 0.86558 0.0
H579 H 0.87568 0.66191 0.89466 0.0
H580 H 0.88453 0.65408 0.91467 0.0
H581 H 0.9025 0.68907 0.94076 0.0
H582 H 0.89385 0.69687 0.92041 0.0
H583 H 0.87948 0.70522 0.89444 0.0
H584 H 0.8609 0.70595 0.89399 0.0
H585 H 0.83998 0.6665 0.88939 0.0
N586 N 0.88173 0.68575 0.8923 0.0
H587 H 0.85866 0.66594 0.89111 0.0
C588 C 0.80138 0.68993 0.87114 0.0
C589 C 0.79844 0.69879 0.86714 0.0
C590 C 0.79222 0.69783 0.85218 0.0
C591 C 0.78879 0.68794 0.84085 0.0
C592 C 0.79222 0.67935 0.84451 0.0
C593 C 0.79844 0.68031 0.85953 0.0
C594 C 0.79672 0.68424 0.90044 0.0
C595 C 0.78746 0.67192 0.89855 0.0
C596 C 0.77735 0.66697 0.90923 0.0
C597 C 0.77627 0.6742 0.92199 0.0
C598 C 0.78584 0.6863 0.92442 0.0
C599 C 0.79595 0.69126 0.9137 0.0
C600 C 0.81644 0.68858 0.88836 0.0
C601 C 0.82738 0.69761 0.8812 0.0
C602 C 0.83774 0.69671 0.88182 0.0
C603 C 0.83755 0.68685 0.88998 0.0
C604 C 0.82654 0.67769 0.89699 0.0
C605 C 0.81608 0.67848 0.89608 0.0
C606 C 0.88667 0.68515 0.87604 0.0
C607 C 0.89908 0.69303 0.87319 0.0
C608 C 0.90457 0.69187 0.85849 0.0
C609 C 0.89768 0.6829 0.8462 0.0
C610 C 0.88518 0.67519 0.84875 0.0
C611 C 0.87973 0.67618 0.86367 0.0
C612 C 0.88422 0.68003 0.90604 0.0
C613 C 0.88123 0.66776 0.90499 0.0
C614 C 0.88631 0.6633 0.91645 0.0
C615 C 0.89441 0.67104 0.92911 0.0
C616 C 0.89651 0.68297 0.93093 0.0
C617 C 0.89148 0.68741 0.91946 0.0
C618 C 0.87046 0.68559 0.89257 0.0
C619 C 0.87084 0.69675 0.89346 0.0
C620 C 0.86019 0.69712 0.893 0.0
C621 C 0.84885 0.68629 0.89131 0.0
C622 C 0.84848 0.67504 0.89078 0.0
C623 C 0.85919 0.67468 0.89159 0.0
H624 H 0.76327 0.63691 0.4764 0.0
N625 N 0.78634 0.65126 0.46797 0.0
H626 H 0.75289 0.63852 0.50172 0.0
H627 H 0.79719 0.66652 0.49558 0.0
H628 H 0.78693 0.66794 0.52099 0.0
H629 H 0.79139 0.67487 0.46772 0.0
H630 H 0.78273 0.683 0.44806 0.0
H631 H 0.77633 0.64158 0.43806 0.0
H632 H 0.76816 0.64986 0.41772 0.0
H633 H 0.78909 0.6321 0.46583 0.0
H634 H 0.80921 0.67136 0.47014 0.0
H635 H 0.80789 0.6318 0.4666 0.0
H636 H 0.82812 0.67121 0.47211 0.0
H637 H 0.86889 0.63252 0.48329 0.0
H638 H 0.88092 0.63479 0.50862 0.0
H639 H 0.88103 0.66774 0.52259 0.0
H640 H 0.86917 0.66553 0.49696 0.0
H641 H 0.88107 0.67164 0.46838 0.0
H642 H 0.898 0.67868 0.44843 0.0
H643 H 0.88093 0.64261 0.42557 0.0
H644 H 0.86403 0.63565 0.44562 0.0
H645 H 0.84107 0.6327 0.48521 0.0
H646 H 0.82289 0.63411 0.48496 0.0
H647 H 0.8424 0.66817 0.45777 0.0
N648 N 0.8626 0.64801 0.47208 0.0
H649 H 0.86069 0.66708 0.45911 0.0
C650 C 0.781 0.65144 0.4841 0.0
C651 C 0.7685 0.64356 0.48624 0.0
C652 C 0.76259 0.64455 0.50059 0.0
C653 C 0.76913 0.65337 0.51323 0.0
C654 C 0.78172 0.661 0.51145 0.0
C655 C 0.7876 0.66015 0.49692 0.0
C656 C 0.78428 0.6575 0.45447 0.0
C657 C 0.78657 0.66948 0.45663 0.0
C658 C 0.78164 0.67414 0.44529 0.0
C659 C 0.77448 0.66697 0.43148 0.0
C660 C 0.77331 0.65549 0.42848 0.0
C661 C 0.77809 0.65079 0.43994 0.0
C662 C 0.79774 0.65168 0.46814 0.0
C663 C 0.79762 0.64066 0.46711 0.0
C664 C 0.80839 0.64053 0.46775 0.0
C665 C 0.81961 0.65147 0.46974 0.0
C666 C 0.81972 0.6626 0.47048 0.0
C667 C 0.80889 0.66271 0.46953 0.0
C668 C 0.86809 0.64878 0.48833 0.0
C669 C 0.87133 0.6401 0.49199 0.0
C670 C 0.87824 0.64145 0.50635 0.0
C671 C 0.88191 0.65146 0.51746 0.0
C672 C 0.87823 0.6599 0.51424 0.0
C673 C 0.87146 0.65865 0.49966 0.0
C674 C 0.87126 0.65309 0.4584 0.0
C675 C 0.8808 0.66536 0.45875 0.0
C676 C 0.89047 0.66937 0.44734 0.0
C677 C 0.89083 0.66115 0.43557 0.0
C678 C 0.88094 0.6491 0.43463 0.0
C679 C 0.87125 0.64514 0.44594 0.0
C680 C 0.85226 0.64964 0.4721 0.0
C681 C 0.84144 0.64052 0.47935 0.0
C682 C 0.831 0.6413 0.479 0.0
C683 C 0.83103 0.65116 0.47105 0.0
C684 C 0.84199 0.66048 0.46411 0.0
C685 C 0.85252 0.6598 0.46475 0.0
H686 H 0.37268 0.13561 0.48749 0.0
N687 N 0.35735 0.14137 0.47441 0.0
H688 H 0.37013 0.12417 0.51327 0.0
H689 H 0.34002 0.13593 0.49882 0.0
H690 H 0.33772 0.1251 0.52526 0.0
H691 H 0.33441 0.12152 0.47185 0.0
H692 H 0.32801 0.10388 0.45301 0.0
H693 H 0.36959 0.13979 0.44812 0.0
H694 H 0.36322 0.12215 0.42903 0.0
H695 H 0.37367 0.16468 0.47986 0.0
H696 H 0.33629 0.14079 0.4658 0.0
H697 H 0.3712 0.18234 0.47735 0.0
H698 H 0.33388 0.1584 0.46232 0.0
H699 H 0.36714 0.23162 0.48826 0.0
H700 H 0.36486 0.24058 0.51474 0.0
H701 H 0.32599 0.21694 0.51137 0.0
H702 H 0.32839 0.20831 0.48478 0.0
H703 H 0.32705 0.20666 0.45484 0.0
H704 H 0.32126 0.21787 0.43576 0.0
H705 H 0.35902 0.24555 0.4298 0.0
H706 H 0.36456 0.23459 0.44959 0.0
H707 H 0.36781 0.21295 0.45717 0.0
H708 H 0.36913 0.19451 0.4573 0.0
H709 H 0.33252 0.17402 0.4767 0.0
N710 N 0.34963 0.21543 0.46804 0.0
H711 H 0.33111 0.1924 0.47545 0.0
C712 C 0.35662 0.13668 0.49125 0.0
C713 C 0.36516 0.13354 0.49589 0.0
C714 C 0.36369 0.12702 0.51072 0.0
C715 C 0.35366 0.1236 0.52144 0.0
C716 C 0.34542 0.12734 0.51719 0.0
C717 C 0.34681 0.1337 0.50217 0.0
C718 C 0.35251 0.13201 0.46134 0.0
C719 C 0.34064 0.1219 0.46221 0.0
C720 C 0.33699 0.1118 0.45142 0.0
C721 C 0.34516 0.11158 0.43965 0.0
C722 C 0.35678 0.122 0.43813 0.0
C723 C 0.3604 0.13211 0.44888 0.0
C724 C 0.35529 0.15143 0.47284 0.0
C725 C 0.36496 0.16327 0.47606 0.0
C726 C 0.36353 0.17336 0.47443 0.0
C727 C 0.35237 0.17187 0.46934 0.0
C728 C 0.34259 0.15993 0.46634 0.0
C729 C 0.344 0.1498 0.4682 0.0
C730 C 0.34799 0.2193 0.4846 0.0
C731 C 0.35817 0.22826 0.49344 0.0
C732 C 0.35682 0.23332 0.50857 0.0
C733 C 0.34523 0.2295 0.51515 0.0
C734 C 0.33504 0.2202 0.50653 0.0
C735 C 0.3364 0.21516 0.49138 0.0
C736 C 0.34623 0.21997 0.45381 0.0
C737 C 0.33406 0.21505 0.44921 0.0
C738 C 0.33078 0.22144 0.4382 0.0
C739 C 0.33966 0.23277 0.43154 0.0
C740 C 0.35192 0.23704 0.43506 0.0
C741 C 0.35514 0.23073 0.44617 0.0
C742 C 0.34947 0.20409 0.4665 0.0
C743 C 0.36002 0.20441 0.46116 0.0
C744 C 0.36079 0.19387 0.46147 0.0
C745 C 0.35103 0.18277 0.4674 0.0
C746 C 0.34022 0.18236 0.47203 0.0
C747 C 0.33941 0.19291 0.47145 0.0
H748 H 0.78957 0.12113 0.48697 0.0
N749 N 0.78531 0.13879 0.47555 0.0
H750 H 0.78157 0.1095 0.51295 0.0
H751 H 0.77492 0.14375 0.5012 0.0
H752 H 0.76728 0.13249 0.52775 0.0
H753 H 0.76353 0.13216 0.46378 0.0
H754 H 0.75111 0.11521 0.44427 0.0
H755 H 0.79326 0.12604 0.4564 0.0
H756 H 0.78102 0.10926 0.43672 0.0
H757 H 0.80698 0.13942 0.47635 0.0
H758 H 0.79071 0.16133 0.4692 0.0
H759 H 0.82703 0.15733 0.47215 0.0
H760 H 0.81071 0.17952 0.46623 0.0
H761 H 0.8827 0.21078 0.4817 0.0
H762 H 0.89543 0.21879 0.50703 0.0
H763 H 0.8753 0.23578 0.52344 0.0
H764 H 0.86276 0.22793 0.49778 0.0
H765 H 0.87389 0.23854 0.46143 0.0
H766 H 0.89056 0.25012 0.44188 0.0
H767 H 0.89191 0.21751 0.43046 0.0
H768 H 0.87549 0.20615 0.45086 0.0
H769 H 0.86061 0.19424 0.48646 0.0
H770 H 0.84146 0.17514 0.4856 0.0
H771 H 0.82773 0.19053 0.44967 0.0
N772 N 0.86549 0.21596 0.47183 0.0
H773 H 0.84674 0.21005 0.45168 0.0
C774 C 0.78271 0.13326 0.49207 0.0
C775 C 0.7849 0.12381 0.4959 0.0
C776 C 0.78034 0.11718 0.51087 0.0
C777 C 0.77362 0.11993 0.5224 0.0
C778 C 0.77216 0.12992 0.519 0.0
C779 C 0.77663 0.13647 0.50395 0.0
C780 C 0.77929 0.1304 0.4616 0.0
C781 C 0.76748 0.12738 0.45756 0.0
C782 C 0.76042 0.1177 0.44639 0.0
C783 C 0.76505 0.11082 0.43904 0.0
C784 C 0.77714 0.11428 0.44238 0.0
C785 C 0.7842 0.12397 0.45356 0.0
C786 C 0.79732 0.14904 0.47281 0.0
C787 C 0.80771 0.14807 0.47374 0.0
C788 C 0.81922 0.15842 0.47156 0.0
C789 C 0.8206 0.16998 0.46878 0.0
C790 C 0.81011 0.1708 0.46788 0.0
C791 C 0.79863 0.16044 0.46975 0.0
C792 C 0.8718 0.21883 0.48787 0.0
C793 C 0.88092 0.21608 0.49087 0.0
C794 C 0.88815 0.22061 0.50541 0.0
C795 C 0.88644 0.22801 0.51715 0.0
C796 C 0.87695 0.23026 0.51449 0.0
C797 C 0.86972 0.2257 0.49996 0.0
C798 C 0.87346 0.22154 0.45755 0.0
C799 C 0.8776 0.23385 0.45436 0.0
C800 C 0.88714 0.24043 0.4431 0.0
C801 C 0.89269 0.2348 0.43455 0.0
C802 C 0.88801 0.22221 0.43701 0.0
C803 C 0.87852 0.21565 0.4485 0.0
C804 C 0.85511 0.20381 0.46937 0.0
C805 C 0.85357 0.19361 0.47832 0.0
C806 C 0.84254 0.18252 0.47768 0.0
C807 C 0.83286 0.18125 0.4678 0.0
C808 C 0.83478 0.19121 0.45787 0.0
C809 C 0.84572 0.20236 0.45881 0.0
H810 H 0.01199 0.55571 0.20136 0.0
N811 N 0.99202 0.53421 0.21138 0.0
H812 H 0.01382 0.56695 0.17586 0.0
H813 H 0.97729 0.52614 0.18453 0.0
H814 H 0.97938 0.53704 0.15813 0.0
H815 H 0.97442 0.53738 0.22312 0.0
H816 H 0.97634 0.55323 0.24298 0.0
H817 H 0.01199 0.5491 0.23083 0.0
H818 H 0.01414 0.56524 0.25023 0.0
H819 H 0.01405 0.53736 0.20133 0.0
H820 H 0.98107 0.51337 0.22827 0.0
H821 H 0.02088 0.52297 0.20501 0.0
H822 H 0.98819 0.49919 0.23308 0.0
H823 H 0.0358 0.47901 0.19237 0.0
H824 H 0.03223 0.46582 0.16755 0.0
H825 H 0.9953 0.44197 0.18418 0.0
H826 H 0.99931 0.45457 0.20943 0.0
H827 H 0.00278 0.45914 0.23965 0.0
H828 H 0.00411 0.44497 0.25904 0.0
H829 H 0.04237 0.46214 0.24846 0.0
H830 H 0.04091 0.47612 0.22895 0.0
H831 H 0.03464 0.49896 0.22229 0.0
H832 H 0.02823 0.514 0.22308 0.0
H833 H 0.99088 0.48467 0.21905 0.0
N834 N 0.02089 0.47493 0.21828 0.0
H835 H 0.99735 0.46986 0.21952 0.0
C836 C 0.99436 0.54008 0.19503 0.0
C837 C 0.00484 0.55149 0.19201 0.0
C838 C 0.00593 0.5579 0.1772 0.0
C839 C 0.9967 0.553 0.16486 0.0
C840 C 0.98656 0.54126 0.16748 0.0
C841 C 0.9854 0.53493 0.18246 0.0
C842 C 0.99302 0.54208 0.22543 0.0
C843 C 0.98302 0.54324 0.22937 0.0
C844 C 0.98419 0.55239 0.24055 0.0
C845 C 0.99546 0.56066 0.24795 0.0
C846 C 0.00532 0.559 0.24482 0.0
C847 C 0.00412 0.54978 0.23369 0.0
C848 C 0.99684 0.52633 0.21421 0.0
C849 C 0.00828 0.52905 0.20817 0.0
C850 C 0.01227 0.52081 0.21051 0.0
C851 C 0.00508 0.50979 0.21928 0.0
C852 C 0.99388 0.50739 0.2259 0.0
C853 C 0.98981 0.51553 0.22329 0.0
C854 C 0.01782 0.46797 0.20262 0.0
C855 C 0.0269 0.47102 0.19044 0.0
C856 C 0.0248 0.46347 0.17622 0.0
C857 C 0.01347 0.45273 0.1738 0.0
C858 C 0.00422 0.45 0.18571 0.0
C859 C 0.00642 0.45741 0.20008 0.0
C860 C 0.02178 0.46867 0.23279 0.0
C861 C 0.0115 0.46008 0.24185 0.0
C862 C 0.01228 0.45198 0.25295 0.0
C863 C 0.02331 0.45232 0.25503 0.0
C864 C 0.03371 0.46152 0.2469 0.0
C865 C 0.03293 0.4696 0.23591 0.0
C866 C 0.01656 0.48329 0.22061 0.0
C867 C 0.02507 0.49582 0.2219 0.0
C868 C 0.02136 0.50441 0.22213 0.0
C869 C 0.00901 0.50064 0.22082 0.0
C870 C 1.00046 0.488 0.22022 0.0
C871 C 0.00418 0.47943 0.22028 0.0
H872 H 0.57392 0.53537 0.20351 0.0
N873 N 0.55279 0.5294 0.21755 0.0
H874 H 0.58282 0.54721 0.17775 0.0
H875 H 0.54104 0.53562 0.19455 0.0
H876 H 0.54975 0.54725 0.16849 0.0
H877 H 0.54686 0.54707 0.22179 0.0
H878 H 0.55727 0.56507 0.24037 0.0
H879 H 0.56814 0.53295 0.24248 0.0
H880 H 0.57864 0.55095 0.26115 0.0
H881 H 0.54481 0.50843 0.20076 0.0
H882 H 0.53299 0.52637 0.2363 0.0
H883 H 0.52481 0.49013 0.20165 0.0
H884 H 0.51327 0.50789 0.238 0.0
H885 H 0.46282 0.43066 0.20665 0.0
H886 H 0.44971 0.42245 0.18152 0.0
H887 H 0.45256 0.45733 0.17433 0.0
H888 H 0.46528 0.4654 0.19976 0.0
H889 H 0.45467 0.45866 0.23023 0.0
H890 H 0.43801 0.44739 0.25026 0.0
H891 H 0.45351 0.42565 0.26442 0.0
H892 H 0.47004 0.43689 0.24419 0.0
H893 H 0.49302 0.45495 0.21924 0.0
H894 H 0.51268 0.47384 0.21924 0.0
H895 H 0.49477 0.49467 0.22416 0.0
N896 N 0.47136 0.45246 0.2211 0.0
H897 H 0.4752 0.47559 0.22529 0.0
C898 C 0.55688 0.53463 0.20093 0.0
C899 C 0.56853 0.53774 0.1957 0.0
C900 C 0.57357 0.54447 0.18095 0.0
C901 C 0.56702 0.54824 0.17108 0.0
C902 C 0.5551 0.54465 0.17594 0.0
C903 C 0.55007 0.53792 0.19075 0.0
C904 C 0.55678 0.53867 0.23073 0.0
C905 C 0.55361 0.54772 0.23058 0.0
C906 C 0.55961 0.55804 0.24114 0.0
C907 C 0.56888 0.55949 0.25207 0.0
C908 C 0.57148 0.55006 0.25297 0.0
C909 C 0.5655 0.53977 0.24234 0.0
C910 C 0.54058 0.51893 0.21828 0.0
C911 C 0.53792 0.50844 0.20878 0.0
C912 C 0.52649 0.4979 0.20948 0.0
C913 C 0.51739 0.49741 0.22008 0.0
C914 C 0.51997 0.50794 0.22954 0.0
C915 C 0.5314 0.51859 0.22861 0.0
C916 C 0.46517 0.44865 0.20499 0.0
C917 C 0.46076 0.43658 0.1995 0.0
C918 C 0.45324 0.43189 0.18528 0.0
C919 C 0.45015 0.43928 0.17615 0.0
C920 C 0.45489 0.45151 0.18121 0.0
C921 C 0.46222 0.45613 0.19569 0.0
C922 C 0.46357 0.44855 0.23575 0.0
C923 C 0.45472 0.45179 0.23811 0.0
C924 C 0.44518 0.44531 0.24953 0.0
C925 C 0.44436 0.4355 0.25869 0.0
C926 C 0.45381 0.43303 0.25733 0.0
C927 C 0.46332 0.43951 0.24595 0.0
C928 C 0.48269 0.46386 0.22201 0.0
C929 C 0.4934 0.46362 0.22046 0.0
C930 C 0.50461 0.47445 0.22027 0.0
C931 C 0.50538 0.48587 0.22134 0.0
C932 C 0.49459 0.48608 0.22336 0.0
C933 C 0.48334 0.47517 0.22384 0.0
H934 H 0.53137 0.98347 0.19564 0.0
N935 N 0.53996 0.00176 0.21976 0.0
H936 H 0.54203 0.98325 0.17005 0.0
H937 H 0.55934 0.02067 0.20618 0.0
H938 H 0.56965 0.02097 0.17982 0.0
H939 H 0.55262 0.01378 0.24726 0.0
H940 H 0.56397 0.00793 0.266 0.0
H941 H 0.53746 0.97899 0.22114 0.0
H942 H 0.54887 0.97328 0.23948 0.0
H943 H 0.51937 0.97921 0.22415 0.0
H944 H 0.53241 0.0174 0.21629 0.0
H945 H 0.49858 0.97481 0.22384 0.0
H946 H 0.51158 0.01304 0.2152 0.0
H947 H 0.43742 0.96875 0.19035 0.0
H948 H 0.43044 0.97486 0.1656 0.0
H949 H 0.45835 0.01249 0.17458 0.0
H950 H 0.46528 0.00625 0.19933 0.0
H951 H 0.45566 0.00366 0.22651 0.0
H952 H 0.44175 0.004 0.24731 0.0
H953 H 0.42342 0.96465 0.25077 0.0
H954 H 0.43775 0.96446 0.2303 0.0
H955 H 0.4631 0.96932 0.20226 0.0
H956 H 0.48383 0.97354 0.20477 0.0
H957 H 0.49393 0.00745 0.2312 0.0
N958 N 0.45436 0.98317 0.21247 0.0
H959 H 0.47339 0.0034 0.22792 0.0
C960 C 0.54474 0.00204 0.20302 0.0
C961 C 0.53971 0.99169 0.19226 0.0
C962 C 0.54579 0.99164 0.17746 0.0
C963 C 0.55688 0.00203 0.17292 0.0
C964 C 0.56137 0.01265 0.18313 0.0
C965 C 0.55541 0.01259 0.19809 0.0
C966 C 0.54425 0.99695 0.23269 0.0
C967 C 0.55146 0.00478 0.24587 0.0
C968 C 0.55794 0.00143 0.25653 0.0
C969 C 0.55739 0.99022 0.254 0.0
C970 C 0.54955 0.98204 0.24155 0.0
C971 C 0.54297 0.98531 0.23107 0.0
C972 C 0.52751 0.99872 0.22041 0.0
C973 C 0.5178 0.98668 0.22242 0.0
C974 C 0.50585 0.98415 0.22207 0.0
C975 C 0.50333 0.99356 0.21948 0.0
C976 C 0.51311 0.00558 0.21755 0.0
C977 C 0.52503 0.0081 0.21806 0.0
C978 C 0.4518 0.98699 0.19667 0.0
C979 C 0.44218 0.97827 0.18672 0.0
C980 C 0.43823 0.98179 0.1726 0.0
C981 C 0.44382 0.99418 0.16817 0.0
C982 C 0.45379 0.0029 0.17779 0.0
C983 C 0.45779 0.99934 0.19189 0.0
C984 C 0.44781 0.98399 0.2269 0.0
C985 C 0.44894 0.99513 0.23211 0.0
C986 C 0.44084 0.9953 0.24389 0.0
C987 C 0.43135 0.98434 0.25056 0.0
C988 C 0.43067 0.97328 0.24603 0.0
C989 C 0.43883 0.97314 0.23432 0.0
C990 C 0.46661 0.98593 0.21496 0.0
C991 C 0.46981 0.97764 0.20864 0.0
C992 C 0.48165 0.98004 0.21022 0.0
C993 C 0.4906 0.99083 0.21828 0.0
C994 C 0.48734 0.99912 0.22473 0.0
C995 C 0.4755 0.99675 0.22299 0.0
H996 H 0.43836 0.98026 0.81676 0.0
N997 N 0.45971 0.99687 0.80443 0.0
H998 H 0.42909 0.98118 0.84357 0.0
H999 H 0.4707 0.01434 0.8293 0.0
H1000 H 0.46158 0.01531 0.85634 0.0
H1001 H 0.46562 0.02076 0.8027 0.0
H1002 H 0.45613 0.02865 0.78404 0.0
H1003 H 0.44625 0.98574 0.7772 0.0
H1004 H 0.43669 0.99354 0.75845 0.0
H1005 H 0.46311 0.97834 0.80872 0.0
H1006 H 0.48232 0.01701 0.79915 0.0
H1007 H 0.48217 0.97859 0.80914 0.0
H1008 H 0.5015 0.01732 0.79861 0.0
H1009 H 0.53376 0.9765 0.82484 0.0
H1010 H 0.54466 0.97668 0.85039 0.0
H1011 H 0.56228 0.01607 0.85291 0.0
H1012 H 0.55157 0.01577 0.82729 0.0
H1013 H 0.55377 0.01878 0.7977 0.0
H1014 H 0.57057 0.02407 0.77805 0.0
H1015 H 0.55531 0.98571 0.7659 0.0
H1016 H 0.53904 0.98058 0.78636 0.0
H1017 H 0.51596 0.97913 0.7942 0.0
H1018 H 0.49753 0.98002 0.79178 0.0
H1019 H 0.51589 0.01591 0.81551 0.0
N1020 N 0.53696 0.99573 0.8076 0.0
H1021 H 0.53449 0.01516 0.81682 0.0
C1022 C 0.45516 0.99718 0.8211 0.0
C1023 C 0.44352 0.98783 0.8255 0.0
C1024 C 0.43827 0.98837 0.84083 0.0
C1025 C 0.4446 0.99832 0.85211 0.0
C1026 C 0.45643 0.00759 0.84785 0.0
C1027 C 0.46168 0.00702 0.83247 0.0
C1028 C 0.45659 0.0026 0.79135 0.0
C1029 C 0.45959 0.01486 0.79278 0.0
C1030 C 0.45408 0.01934 0.78219 0.0
C1031 C 0.44556 0.01168 0.7699 0.0
C1032 C 0.44329 0.99971 0.76769 0.0
C1033 C 0.44874 0.99523 0.77836 0.0
C1034 C 0.47124 0.99755 0.80369 0.0
C1035 C 0.47148 0.98685 0.80643 0.0
C1036 C 0.48241 0.98703 0.80653 0.0
C1037 C 0.49346 0.99796 0.80368 0.0
C1038 C 0.49321 0.00875 0.80097 0.0
C1039 C 0.48221 0.00857 0.8011 0.0
C1040 C 0.54178 0.99606 0.8242 0.0
C1041 C 0.53976 0.98512 0.83119 0.0
C1042 C 0.546 0.98526 0.84577 0.0
C1043 C 0.55443 0.99641 0.8536 0.0
C1044 C 0.55599 0.00734 0.84703 0.0
C1045 C 0.54974 0.00718 0.83245 0.0
C1046 C 0.54533 0.99926 0.79366 0.0
C1047 C 0.55403 0.01156 0.79068 0.0
C1048 C 0.56358 0.01455 0.77933 0.0
C1049 C 0.56446 0.00529 0.77063 0.0
C1050 C 0.55514 0.99306 0.77273 0.0
C1051 C 0.54574 0.9901 0.78422 0.0
C1052 C 0.52649 0.99693 0.80595 0.0
C1053 C 0.51599 0.98721 0.79876 0.0
C1054 C 0.50544 0.98772 0.79754 0.0
C1055 C 0.50508 0.99795 0.80376 0.0
C1056 C 0.51579 0.0079 0.81052 0.0
C1057 C 0.52644 0.00743 0.81148 0.0
H1058 H 0.98255 0.53972 0.81678 0.0
N1059 N 0.00378 0.54264 0.80433 0.0
H1060 H 0.98031 0.54946 0.84239 0.0
H1061 H 0.02032 0.55463 0.82822 0.0
H1062 H 0.01814 0.56427 0.8541 0.0
H1063 H 0.01908 0.56441 0.79196 0.0
H1064 H 0.01447 0.57646 0.7731 0.0
H1065 H 0.98298 0.53358 0.78505 0.0
H1066 H 0.97843 0.54531 0.7655 0.0
H1067 H 0.98167 0.52152 0.80728 0.0
H1068 H 0.01979 0.53567 0.79997 0.0
H1069 H 0.97799 0.50083 0.80798 0.0
H1070 H 0.0164 0.51504 0.80194 0.0
H1071 H 0.97242 0.44176 0.83647 0.0
H1072 H 0.97676 0.43419 0.86234 0.0
H1073 H 0.01506 0.45873 0.8545 0.0
H1074 H 0.01058 0.46671 0.82899 0.0
H1075 H 0.009 0.45948 0.80133 0.0
H1076 H 0.01013 0.44542 0.78121 0.0
H1077 H 0.97113 0.42543 0.77658 0.0
H1078 H 0.97013 0.43983 0.7965 0.0
H1079 H 0.97675 0.46741 0.82927 0.0
H1080 H 0.98035 0.48799 0.82593 0.0
H1081 H 0.00892 0.49576 0.78987 0.0
N1082 N 0.98824 0.45744 0.81444 0.0
H1083 H 0.0058 0.47553 0.79419 0.0
C1084 C 0.00166 0.54652 0.82061 0.0
C1085 C 0.99029 0.54482 0.82505 0.0
C1086 C 0.98902 0.55039 0.83972 0.0
C1087 C 0.99908 0.55774 0.85016 0.0
C1088 C 0.01026 0.55882 0.84615 0.0
C1089 C 0.01152 0.55326 0.8315 0.0
C1090 C 0.00147 0.5481 0.79 0.0
C1091 C 0.0103 0.5601 0.78584 0.0
C1092 C 0.00762 0.56697 0.775 0.0
C1093 C 0.996 0.56194 0.76783 0.0
C1094 C 0.98738 0.5496 0.77107 0.0
C1095 C 0.99004 0.54278 0.78214 0.0
C1096 C 1.00102 0.53017 0.80319 0.0
C1097 C 0.98925 0.52019 0.80555 0.0
C1098 C 0.9872 0.50831 0.80629 0.0
C1099 C 0.9969 0.50616 0.80519 0.0
C1100 C 0.00865 0.51621 0.80256 0.0
C1101 C 0.01063 0.52804 0.80149 0.0
C1102 C 0.99115 0.45463 0.83076 0.0
C1103 C 0.98172 0.4457 0.84059 0.0
C1104 C 0.98422 0.4414 0.8553 0.0
C1105 C 0.99625 0.44583 0.86029 0.0
C1106 C 0.00572 0.45511 0.85079 0.0
C1107 C 0.00318 0.45963 0.83624 0.0
C1108 C 0.98943 0.45074 0.80038 0.0
C1109 C 1.0007 0.45228 0.79571 0.0
C1110 C 0.00134 0.44414 0.78429 0.0
C1111 C 0.99072 0.4342 0.77743 0.0
C1112 C 0.9795 0.43305 0.78148 0.0
C1113 C 0.97889 0.44125 0.79285 0.0
C1114 C 0.99091 0.4698 0.81203 0.0
C1115 C 0.98385 0.47361 0.82074 0.0
C1116 C 0.98583 0.48536 0.81861 0.0
C1117 C 0.99485 0.4936 0.80744 0.0
C1118 C 0.00198 0.48978 0.79874 0.0
C1119 C 1.00013 0.47807 0.80113 0.0
H1120 H 0.45257 0.45303 0.81799 0.0
N1121 N 0.45174 0.47362 0.81145 0.0
H1122 H 0.44469 0.44053 0.84327 0.0
H1123 H 0.44608 0.48009 0.84079 0.0
H1124 H 0.43902 0.46813 0.8668 0.0
H1125 H 0.42825 0.46348 0.80574 0.0
H1126 H 0.41586 0.44703 0.78585 0.0
H1127 H 0.46039 0.4654 0.78537 0.0
H1128 H 0.44822 0.44963 0.76454 0.0
H1129 H 0.4729 0.47334 0.81122 0.0
H1130 H 0.45785 0.49651 0.80603 0.0
H1131 H 0.49331 0.49099 0.80746 0.0
H1132 H 0.47812 0.51432 0.80334 0.0
H1133 H 0.54974 0.54407 0.82033 0.0
H1134 H 0.56185 0.55225 0.84622 0.0
H1135 H 0.54157 0.56963 0.85998 0.0
H1136 H 0.52966 0.56157 0.83381 0.0
H1137 H 0.54149 0.57184 0.79779 0.0
H1138 H 0.55829 0.58324 0.77836 0.0
H1139 H 0.5601 0.55068 0.76873 0.0
H1140 H 0.54351 0.53952 0.78901 0.0
H1141 H 0.52765 0.52737 0.82263 0.0
H1142 H 0.50819 0.50849 0.82146 0.0
H1143 H 0.4951 0.52505 0.7865 0.0
N1144 N 0.533 0.54939 0.80876 0.0
H1145 H 0.51438 0.54426 0.78882 0.0
C1146 C 0.44964 0.46738 0.8274 0.0
C1147 C 0.44975 0.45644 0.82866 0.0
C1148 C 0.44529 0.44932 0.84326 0.0
C1149 C 0.44093 0.45314 0.85707 0.0
C1150 C 0.44188 0.46464 0.85625 0.0
C1151 C 0.44608 0.47161 0.8415 0.0
C1152 C 0.44524 0.46573 0.79718 0.0
C1153 C 0.43266 0.46063 0.79655 0.0
C1154 C 0.42559 0.45123 0.78504 0.0
C1155 C 0.43096 0.44683 0.77353 0.0
C1156 C 0.44368 0.45251 0.77345 0.0
C1157 C 0.45073 0.46173 0.78528 0.0
C1158 C 0.46387 0.48366 0.80869 0.0
C1159 C 0.47401 0.48225 0.8092 0.0
C1160 C 0.48569 0.49239 0.80721 0.0
C1161 C 0.48747 0.50417 0.80501 0.0
C1162 C 0.47721 0.50543 0.80452 0.0
C1163 C 0.46558 0.49528 0.80622 0.0
C1164 C 0.53882 0.55228 0.82517 0.0
C1165 C 0.54776 0.54946 0.82907 0.0
C1166 C 0.55465 0.5541 0.84391 0.0
C1167 C 0.55274 0.56169 0.85505 0.0
C1168 C 0.54337 0.56396 0.85151 0.0
C1169 C 0.53649 0.55929 0.83669 0.0
C1170 C 0.54126 0.5549 0.79477 0.0
C1171 C 0.54535 0.56713 0.79116 0.0
C1172 C 0.55495 0.5736 0.77996 0.0
C1173 C 0.56065 0.56793 0.77191 0.0
C1174 C 0.55609 0.55542 0.77488 0.0
C1175 C 0.54651 0.54897 0.78631 0.0
C1176 C 0.52243 0.53743 0.80609 0.0
C1177 C 0.52066 0.527 0.81465 0.0
C1178 C 0.50947 0.51607 0.81383 0.0
C1179 C 0.49989 0.51523 0.80415 0.0
C1180 C 0.50207 0.52541 0.79456 0.0
C1181 C 0.51315 0.53639 0.79568 0.0
H1182 H 0.66986 0.87919 0.53365 0.0
N1183 N 0.64918 0.86302 0.55059 0.0
H1184 H 0.67092 0.89018 0.50789 0.0
H1185 H 0.63089 0.85879 0.53048 0.0
H1186 H 0.6319 0.87008 0.50484 0.0
H1187 H 0.63533 0.86988 0.56633 0.0
H1188 H 0.64182 0.88745 0.58537 0.0
H1189 H 0.67179 0.87683 0.56434 0.0
H1190 H 0.67843 0.89437 0.58374 0.0
H1191 H 0.66654 0.85942 0.535 0.0
H1192 H 0.63755 0.84456 0.57177 0.0
H1193 H 0.66895 0.84189 0.53833 0.0
H1194 H 0.64039 0.82726 0.57597 0.0
H1195 H 0.67797 0.79533 0.54128 0.0
H1196 H 0.68035 0.78609 0.51512 0.0
H1197 H 0.64143 0.76498 0.50937 0.0
H1198 H 0.63921 0.77402 0.5358 0.0
H1199 H 0.6425 0.76774 0.57205 0.0
H1200 H 0.64864 0.75706 0.59118 0.0
H1201 H 0.68485 0.78875 0.59286 0.0
H1202 H 0.67863 0.7991 0.57299 0.0
H1203 H 0.67596 0.81217 0.55478 0.0
H1204 H 0.67516 0.83096 0.55523 0.0
H1205 H 0.63627 0.8094 0.56169 0.0
N1206 N 0.65663 0.78888 0.55709 0.0
H1207 H 0.63738 0.79087 0.56214 0.0
C1208 C 0.65025 0.86794 0.53383 0.0
C1209 C 0.66154 0.87677 0.52712 0.0
C1210 C 0.66214 0.88311 0.51243 0.0
C1211 C 0.65149 0.88098 0.50443 0.0
C1212 C 0.64024 0.87189 0.5108 0.0
C1213 C 0.63965 0.86538 0.52531 0.0
C1214 C 0.65305 0.87208 0.56397 0.0
C1215 C 0.64469 0.87505 0.57042 0.0
C1216 C 0.64844 0.88508 0.58132 0.0
C1217 C 0.66068 0.89238 0.58604 0.0
C1218 C 0.66898 0.88904 0.58016 0.0
C1219 C 0.6652 0.87898 0.56919 0.0
C1220 C 0.65163 0.85325 0.55293 0.0
C1221 C 0.66074 0.8525 0.54395 0.0
C1222 C 0.66223 0.84244 0.54602 0.0
C1223 C 0.6548 0.83301 0.55731 0.0
C1224 C 0.64609 0.83413 0.56683 0.0
C1225 C 0.64449 0.84406 0.56455 0.0
C1226 C 0.65838 0.78524 0.54046 0.0
C1227 C 0.66999 0.78887 0.53421 0.0
C1228 C 0.67133 0.7836 0.51923 0.0
C1229 C 0.66107 0.77466 0.5103 0.0
C1230 C 0.6495 0.77164 0.51614 0.0
C1231 C 0.6482 0.77686 0.5311 0.0
C1232 C 0.66004 0.78419 0.57117 0.0
C1233 C 0.65167 0.77247 0.57694 0.0
C1234 C 0.65524 0.7664 0.58794 0.0
C1235 C 0.66731 0.77198 0.59359 0.0
C1236 C 0.67554 0.78406 0.58856 0.0
C1237 C 0.67196 0.79009 0.57735 0.0
C1238 C 0.65671 0.80016 0.55871 0.0
C1239 C 0.66734 0.81157 0.55673 0.0
C1240 C 0.66682 0.82229 0.55675 0.0
C1241 C 0.65564 0.82178 0.5585 0.0
C1242 C 0.64509 0.81028 0.56069 0.0
C1243 C 0.64566 0.79964 0.56087 0.0
H1244 H 0.23974 0.86736 0.53937 0.0
N1245 N 0.21891 0.86182 0.55386 0.0
H1246 H 0.24885 0.87968 0.51408 0.0
H1247 H 0.20745 0.86894 0.53161 0.0
H1248 H 0.21631 0.88097 0.50594 0.0
H1249 H 0.21538 0.88108 0.55899 0.0
H1250 H 0.2268 0.89818 0.57852 0.0
H1251 H 0.23282 0.86274 0.57931 0.0
H1252 H 0.24417 0.87979 0.5993 0.0
H1253 H 0.21239 0.83892 0.54682 0.0
H1254 H 0.19791 0.86137 0.56291 0.0
H1255 H 0.19217 0.82081 0.54786 0.0
H1256 H 0.17772 0.84325 0.56482 0.0
H1257 H 0.13911 0.77124 0.53195 0.0
H1258 H 0.1276 0.76247 0.50564 0.0
H1259 H 0.11087 0.78425 0.51251 0.0
H1260 H 0.12261 0.79314 0.53839 0.0
H1261 H 0.12285 0.79405 0.56822 0.0
H1262 H 0.10525 0.78182 0.5864 0.0
H1263 H 0.11527 0.75427 0.58958 0.0
H1264 H 0.13232 0.76624 0.57052 0.0
H1265 H 0.15753 0.78881 0.56534 0.0
H1266 H 0.17727 0.80761 0.56706 0.0
H1267 H 0.16127 0.82797 0.54849 0.0
N1268 N 0.137 0.7861 0.55384 0.0
H1269 H 0.14145 0.80917 0.54781 0.0
C1270 C 0.22295 0.8672 0.53734 0.0
C1271 C 0.2345 0.87009 0.53188 0.0
C1272 C 0.23967 0.87712 0.5174 0.0
C1273 C 0.23335 0.88139 0.50799 0.0
C1274 C 0.22151 0.87799 0.51304 0.0
C1275 C 0.21636 0.871 0.52762 0.0
C1276 C 0.22329 0.87061 0.56767 0.0
C1277 C 0.22136 0.88053 0.56806 0.0
C1278 C 0.22791 0.89034 0.57929 0.0
C1279 C 0.23651 0.89042 0.59034 0.0
C1280 C 0.23776 0.88009 0.59074 0.0
C1281 C 0.23121 0.87029 0.57949 0.0
C1282 C 0.20675 0.85146 0.55495 0.0
C1283 C 0.20484 0.8399 0.55077 0.0
C1284 C 0.19327 0.82955 0.55154 0.0
C1285 C 0.18327 0.83049 0.55669 0.0
C1286 C 0.18517 0.84216 0.56073 0.0
C1287 C 0.19678 0.85256 0.55977 0.0
C1288 C 0.13173 0.7828 0.53712 0.0
C1289 C 0.13318 0.77432 0.52748 0.0
C1290 C 0.12651 0.76925 0.51258 0.0
C1291 C 0.11818 0.77255 0.5071 0.0
C1292 C 0.11726 0.78158 0.51629 0.0
C1293 C 0.12397 0.78666 0.53117 0.0
C1294 C 0.1287 0.78087 0.5678 0.0
C1295 C 0.1213 0.78545 0.57303 0.0
C1296 C 0.11129 0.77846 0.58353 0.0
C1297 C 0.10864 0.76689 0.58913 0.0
C1298 C 0.11678 0.76294 0.58508 0.0
C1299 C 0.12664 0.76983 0.57442 0.0
C1300 C 0.14811 0.79756 0.55622 0.0
C1301 C 0.15829 0.79739 0.5619 0.0
C1302 C 0.16958 0.80813 0.56267 0.0
C1303 C 0.17096 0.81932 0.55754 0.0
C1304 C 0.16058 0.81956 0.55257 0.0
C1305 C 0.14922 0.80877 0.55203 0.0
H1306 H 0.20963 0.32665 0.54175 0.0
N1307 N 0.21445 0.34851 0.55565 0.0
H1308 H 0.21784 0.32375 0.51518 0.0
H1309 H 0.22702 0.36528 0.53231 0.0
H1310 H 0.23527 0.36246 0.50557 0.0
H1311 H 0.23523 0.36389 0.57074 0.0
H1312 H 0.24676 0.35883 0.59008 0.0
H1313 H 0.20567 0.32658 0.57153 0.0
H1314 H 0.21736 0.3212 0.59029 0.0
H1315 H 0.19316 0.33194 0.5394 0.0
H1316 H 0.20853 0.36087 0.57713 0.0
H1317 H 0.17436 0.332 0.54024 0.0
H1318 H 0.18933 0.36033 0.5791 0.0
H1319 H 0.12117 0.33012 0.53959 0.0
H1320 H 0.10959 0.32776 0.51386 0.0
H1321 H 0.13228 0.36637 0.50428 0.0
H1322 H 0.14372 0.36873 0.53036 0.0
H1323 H 0.13308 0.36696 0.56876 0.0
H1324 H 0.11624 0.36163 0.5883 0.0
H1325 H 0.10818 0.32427 0.58862 0.0
H1326 H 0.12519 0.32977 0.5696 0.0
H1327 H 0.13901 0.33051 0.54996 0.0
H1328 H 0.15656 0.32817 0.55336 0.0
H1329 H 0.17893 0.36706 0.56323 0.0
N1330 N 0.1387 0.35183 0.5536 0.0
H1331 H 0.16112 0.36902 0.56103 0.0
C1332 C 0.2178 0.34625 0.53906 0.0
C1333 C 0.21514 0.3345 0.5339 0.0
C1334 C 0.21985 0.33286 0.51871 0.0
C1335 C 0.22727 0.34289 0.50836 0.0
C1336 C 0.2295 0.35454 0.5132 0.0
C1337 C 0.22482 0.35618 0.52845 0.0
C1338 C 0.21973 0.34561 0.56956 0.0
C1339 C 0.23117 0.35464 0.57537 0.0
C1340 C 0.23778 0.35168 0.58624 0.0
C1341 C 0.23312 0.33954 0.59139 0.0
C1342 C 0.22124 0.33063 0.58655 0.0
C1343 C 0.21456 0.33366 0.57576 0.0
C1344 C 0.20246 0.34663 0.55799 0.0
C1345 C 0.19247 0.33815 0.54817 0.0
C1346 C 0.18157 0.33811 0.54879 0.0
C1347 C 0.1803 0.34634 0.5595 0.0
C1348 C 0.19003 0.35414 0.57025 0.0
C1349 C 0.20099 0.35435 0.56934 0.0
C1350 C 0.13327 0.34968 0.53699 0.0
C1351 C 0.12382 0.33805 0.53186 0.0
C1352 C 0.11716 0.33671 0.51718 0.0
C1353 C 0.11998 0.34691 0.50721 0.0
C1354 C 0.12996 0.35836 0.51171 0.0
C1355 C 0.13649 0.35972 0.52655 0.0
C1356 C 0.13039 0.34882 0.56761 0.0
C1357 C 0.12788 0.35772 0.57346 0.0
C1358 C 0.11818 0.35461 0.58446 0.0
C1359 C 0.11073 0.34247 0.58978 0.0
C1360 C 0.11376 0.33372 0.58483 0.0
C1361 C 0.12351 0.33686 0.57385 0.0
C1362 C 0.14875 0.34996 0.55554 0.0
C1363 C 0.14763 0.33846 0.55324 0.0
C1364 C 0.15776 0.33718 0.55497 0.0
C1365 C 0.16926 0.3474 0.55868 0.0
C1366 C 0.17025 0.35888 0.56085 0.0
C1367 C 0.1601 0.36009 0.55942 0.0
H1368 H 0.01449 0.38795 0.04588 0.0
H1369 H 0.01831 0.40308 0.06814 0.0
H1370 H 0.98515 0.37706 0.09329 0.0
H1371 H 0.98101 0.36216 0.07056 0.0
H1372 H 0.98577 0.39708 0.09277 0.0
H1373 H 0.01497 0.38659 0.10922 0.0
H1374 H 0.03208 0.38315 0.10619 0.0
H1375 H 0.05542 0.42061 0.09197 0.0
H1376 H 0.03841 0.42425 0.09486 0.0
H1377 H 0.99973 0.42766 0.1739 0.0
H1378 H 0.99679 0.41344 0.15082 0.0
H1379 H 0.02045 0.44355 0.11867 0.0
H1380 H 0.02292 0.45801 0.14134 0.0
H1381 H 0.02504 0.4224 0.12243 0.0
H1382 H 0.99429 0.43203 0.10831 0.0
H1383 H 0.97677 0.43433 0.11478 0.0
H1384 H 0.9557 0.39643 0.1281 0.0
H1385 H 0.97317 0.39395 0.12196 0.0
C1386 C 0.00811 0.38541 0.05629 0.0
C1387 C 0.99744 0.37388 0.05647 0.0
C1388 C 0.01032 0.39406 0.06907 0.0
C1389 C 0.00208 0.39122 0.08255 0.0
C1390 C 0.99162 0.37953 0.083 0.0
C1391 C 0.98928 0.37099 0.07004 0.0
C1392 C 0.00397 0.40059 0.09565 0.0
C1393 C 0.99433 0.40247 0.09937 0.0
C1394 C 0.01519 0.40786 0.10413 0.0
C1395 C 0.02539 0.40566 0.10208 0.0
C1396 C 0.02373 0.39406 0.10529 0.0
C1397 C 0.03342 0.39209 0.10364 0.0
C1398 C 0.04483 0.40165 0.09882 0.0
C1399 C 0.04658 0.41321 0.09568 0.0
C1400 C 0.03692 0.41524 0.09735 0.0
C1401 C 0.0041 0.43135 0.16183 0.0
C1402 C 0.01151 0.44407 0.15953 0.0
C1403 C 0.0025 0.42317 0.14871 0.0
C1404 C 0.0084 0.42748 0.13311 0.0
C1405 C 0.01586 0.44009 0.1307 0.0
C1406 C 0.01731 0.44832 0.14372 0.0
C1407 C 0.00686 0.41871 0.11945 0.0
C1408 C 0.01654 0.41698 0.11569 0.0
C1409 C 0.99561 0.41138 0.11125 0.0
C1410 C 0.98508 0.41284 0.11483 0.0
C1411 C 0.98596 0.42421 0.11277 0.0
C1412 C 0.97603 0.42554 0.11634 0.0
C1413 C 0.96514 0.41554 0.12189 0.0
C1414 C 0.96415 0.40418 0.12383 0.0
C1415 C 0.97406 0.4028 0.12028 0.0
H1416 H 0.95746 0.41659 0.12465 0.0
H1417 H 0.05235 0.40012 0.09759 0.0
H1418 H 0.63407 0.61996 0.04994 0.0
H1419 H 0.62407 0.60439 0.0718 0.0
H1420 H 0.60396 0.62128 0.08835 0.0
H1421 H 0.61393 0.63691 0.06672 0.0
H1422 H 0.61246 0.61461 0.11508 0.0
H1423 H 0.59111 0.59637 0.06256 0.0
H1424 H 0.58904 0.58947 0.03265 0.0
H1425 H 0.60255 0.56597 0.04547 0.0
H1426 H 0.60488 0.57287 0.07542 0.0
H1427 H 0.56531 0.56801 0.16237 0.0
H1428 H 0.57642 0.58287 0.14018 0.0
H1429 H 0.59385 0.56287 0.12537 0.0
H1430 H 0.58237 0.54765 0.14713 0.0
H1431 H 0.58782 0.5709 0.09795 0.0
H1432 H 0.60851 0.58834 0.1504 0.0
H1433 H 0.61043 0.59484 0.18047 0.0
H1434 H 0.59852 0.61972 0.16798 0.0
H1435 H 0.59636 0.61323 0.13786 0.0
C1436 C 0.62761 0.62045 0.05834 0.0
C1437 C 0.62476 0.62966 0.05649 0.0
C1438 C 0.62185 0.61149 0.07075 0.0
C1439 C 0.61315 0.61159 0.08154 0.0
C1440 C 0.61061 0.62101 0.08012 0.0
C1441 C 0.61632 0.62993 0.0677 0.0
C1442 C 0.60647 0.60178 0.09411 0.0
C1443 C 0.60698 0.60506 0.11132 0.0
C1444 C 0.59958 0.58929 0.08924 0.0
C1445 C 0.59829 0.58524 0.0712 0.0
C1446 C 0.59376 0.58982 0.05897 0.0
C1447 C 0.59251 0.58589 0.04201 0.0
C1448 C 0.59568 0.57731 0.03716 0.0
C1449 C 0.60011 0.57264 0.04925 0.0
C1450 C 0.60139 0.57655 0.06621 0.0
C1451 C 0.5713 0.56661 0.15418 0.0
C1452 C 0.57298 0.55665 0.15659 0.0
C1453 C 0.57777 0.57521 0.14163 0.0
C1454 C 0.58615 0.57412 0.13135 0.0
C1455 C 0.58751 0.56395 0.13325 0.0
C1456 C 0.581 0.55531 0.14578 0.0
C1457 C 0.59368 0.58375 0.1189 0.0
C1458 C 0.59335 0.58043 0.10173 0.0
C1459 C 0.60079 0.59621 0.12381 0.0
C1460 C 0.60217 0.60021 0.14189 0.0
C1461 C 0.60622 0.59513 0.15409 0.0
C1462 C 0.60736 0.59883 0.17114 0.0
C1463 C 0.60458 0.60767 0.17614 0.0
C1464 C 0.60067 0.61286 0.16409 0.0
C1465 C 0.59949 0.60918 0.14702 0.0
H1466 H 0.60546 0.61051 0.18935 0.0
H1467 H 0.59466 0.57422 0.02407 0.0
H1468 H 0.36454 0.97985 0.06939 0.0
H1469 H 0.37967 0.98479 0.09144 0.0
H1470 H 0.40292 0.01996 0.0688 0.0
H1471 H 0.38773 0.0151 0.04661 0.0
H1472 H 0.41468 0.00729 0.07487 0.0
H1473 H 0.39083 0.01954 0.10581 0.0
H1474 H 0.37216 0.01789 0.11725 0.0
H1475 H 0.36491 0.98632 0.14572 0.0
H1476 H 0.38345 0.98766 0.13425 0.0
H1477 H 0.43976 0.01325 0.16832 0.0
H1478 H 0.42916 0.01799 0.14677 0.0
H1479 H 0.42513 0.98799 0.1156 0.0
H1480 H 0.43595 0.9834 0.13687 0.0
H1481 H 0.40624 0.00369 0.13686 0.0
H1482 H 0.42421 0.99371 0.07415 0.0
H1483 H 0.44335 0.99643 0.06277 0.0
H1484 H 0.46353 0.02604 0.09805 0.0
H1485 H 0.44453 0.02363 0.10948 0.0
C1486 C 0.3728 0.98871 0.06919 0.0
C1487 C 0.37495 0.99707 0.05621 0.0
C1488 C 0.38142 0.99154 0.08186 0.0
C1489 C 0.3924 0.00276 0.08179 0.0
C1490 C 0.39449 0.01126 0.06908 0.0
C1491 C 0.38578 0.00849 0.05648 0.0
C1492 C 0.40191 0.00512 0.09437 0.0
C1493 C 0.41291 0.00663 0.08844 0.0
C1494 C 0.39967 0.00451 0.11208 0.0
C1495 C 0.38851 0.00366 0.11908 0.0
C1496 C 0.38522 0.01219 0.11441 0.0
C1497 C 0.37466 0.01132 0.12092 0.0
C1498 C 0.36735 0.002 0.13218 0.0
C1499 C 0.37059 0.99354 0.13699 0.0
C1500 C 0.38113 0.99436 0.1305 0.0
C1501 C 0.43688 0.00786 0.15668 0.0
C1502 C 0.43868 0.99794 0.1543 0.0
C1503 C 0.43074 0.01052 0.14445 0.0
C1504 C 0.4264 0.00339 0.12954 0.0
C1505 C 0.42853 0.99373 0.12689 0.0
C1506 C 0.43463 0.99104 0.13912 0.0
C1507 C 0.41882 0.00536 0.11732 0.0
C1508 C 0.40815 0.0046 0.12333 0.0
C1509 C 0.42143 0.00681 0.0997 0.0
C1510 C 0.43292 0.00843 0.09275 0.0
C1511 C 0.43273 0.00085 0.07942 0.0
C1512 C 0.44356 0.00233 0.07297 0.0
C1513 C 0.45465 0.01138 0.07971 0.0
C1514 C 0.45493 0.01901 0.09288 0.0
C1515 C 0.44414 0.01758 0.09936 0.0
H1516 H 0.46302 0.0125 0.07471 0.0
H1517 H 0.35918 0.00134 0.13721 0.0
H1518 H 0.37137 0.97485 0.97355 0.0
H1519 H 0.38603 0.97811 0.95144 0.0
H1520 H 0.39798 0.01651 0.95091 0.0
H1521 H 0.38319 0.01334 0.97309 0.0
H1522 H 0.39536 0.00686 0.91872 0.0
H1523 H 0.41514 0.00752 0.97018 0.0
H1524 H 0.41712 1.00011 0.99808 0.0
H1525 H 0.41218 0.96725 0.97451 0.0
H1526 H 0.41 0.97439 0.94648 0.0
H1527 H 0.44515 0.01856 0.86557 0.0
H1528 H 0.43389 0.01954 0.89017 0.0
H1529 H 0.41885 0.98099 0.89835 0.0
H1530 H 0.43039 0.98003 0.87419 0.0
H1531 H 0.42486 0.99337 0.92798 0.0
H1532 H 0.403 0.99176 0.87725 0.0
H1533 H 0.40068 0.99889 0.84931 0.0
H1534 H 0.40941 0.03342 0.87161 0.0
H1535 H 0.41194 0.02654 0.89966 0.0
C1536 C 0.37706 0.984 0.96877 0.0
C1537 C 0.37611 0.99384 0.97523 0.0
C1538 C 0.3855 0.98586 0.95615 0.0
C1539 C 0.39324 0.99759 0.94974 0.0
C1540 C 0.39214 0.0074 0.95577 0.0
C1541 C 0.38368 0.00555 0.96846 0.0
C1542 C 0.40242 0.99948 0.93671 0.0
C1543 C 0.40198 0.00414 0.92085 0.0
C1544 C 0.41093 0.99576 0.93942 0.0
C1545 C 0.41232 0.99146 0.95624 0.0
C1546 C 0.41439 0.99868 0.97096 0.0
C1547 C 0.41556 0.99453 0.98679 0.0
C1548 C 0.41475 0.98321 0.98807 0.0
C1549 C 0.4128 0.97602 0.9735 0.0
C1550 C 0.41161 0.98012 0.95763 0.0
C1551 C 0.43963 0.01034 0.87281 0.0
C1552 C 0.4386 0.9992 0.86785 0.0
C1553 C 0.4331 0.01089 0.88676 0.0
C1554 C 0.42538 1.00029 0.89593 0.0
C1555 C 0.42471 0.98927 0.89141 0.0
C1556 C 0.43123 0.98872 0.87751 0.0
C1557 C 0.41764 0.0005 0.90987 0.0
C1558 C 0.41836 0.99624 0.92593 0.0
C1559 C 0.40938 0.00458 0.90733 0.0
C1560 C 0.4078 0.00869 0.8905 0.0
C1561 C 0.40451 0.0009 0.87617 0.0
C1562 C 0.40315 0.00489 0.86032 0.0
C1563 C 0.40493 0.01661 0.85868 0.0
C1564 C 0.40805 0.02435 0.87289 0.0
C1565 C 0.40945 0.02041 0.88877 0.0
H1566 H 0.40387 0.01969 0.84639 0.0
H1567 H 0.41566 0.98001 0.00035 0.0
H1568 H 0.98242 0.38096 0.98935 0.0
H1569 H 0.98555 0.39576 0.96764 0.0
H1570 H 0.00929 0.38684 0.94027 0.0
H1571 H 0.00674 0.37246 0.96276 0.0
H1572 H 0.01765 0.4102 0.93768 0.0
H1573 H 0.97844 0.37471 0.92879 0.0
H1574 H 0.95796 0.35829 0.93693 0.0
H1575 H 0.94843 0.38503 0.9507 0.0
H1576 H 0.9689 0.40161 0.94284 0.0
H1577 H 0.01059 0.43584 0.86038 0.0
H1578 H 0.01201 0.4234 0.88271 0.0
H1579 H 0.98886 0.43042 0.91494 0.0
H1580 H 0.98709 0.44245 0.89239 0.0
H1581 H 0.9807 0.40718 0.91341 0.0
H1582 H 0.02063 0.44281 0.92217 0.0
H1583 H 0.0411 0.45876 0.91316 0.0
H1584 H 0.04915 0.43115 0.89811 0.0
H1585 H 0.02868 0.41504 0.90685 0.0
C1586 C 0.98833 0.38217 0.97871 0.0
C1587 C 0.99419 0.37544 0.97756 0.0
C1588 C 0.99008 0.3906 0.96626 0.0
C1589 C 0.99735 0.39216 0.95199 0.0
C1590 C 0.00355 0.38573 0.95107 0.0
C1591 C 0.00207 0.3775 0.96386 0.0
C1592 C 0.99814 0.40027 0.93795 0.0
C1593 C 0.00957 0.40944 0.93221 0.0
C1594 C 0.98761 0.39937 0.93084 0.0
C1595 C 0.97523 0.3894 0.93532 0.0
C1596 C 0.97199 0.37709 0.93362 0.0
C1597 C 0.96038 0.36775 0.93818 0.0
C1598 C 0.95191 0.37062 0.94435 0.0
C1599 C 0.955 0.38283 0.94592 0.0
C1600 C 0.9666 0.39219 0.94139 0.0
C1601 C 0.00604 0.43492 0.8724 0.0
C1602 C 0.99873 0.44007 0.87471 0.0
C1603 C 0.00687 0.42783 0.88517 0.0
C1604 C 1.00059 0.426 0.90059 0.0
C1605 C 0.99375 0.43165 0.90315 0.0
C1606 C 0.99276 0.43855 0.8903 0.0
C1607 C 1.00021 0.41738 0.9135 0.0
C1608 C 0.98881 0.40798 0.9189 0.0
C1609 C 0.01075 0.41803 0.92011 0.0
C1610 C 0.02309 0.42773 0.91502 0.0
C1611 C 0.02674 0.44015 0.91684 0.0
C1612 C 0.03835 0.44921 0.9118 0.0
C1613 C 0.04641 0.44597 0.90503 0.0
C1614 C 0.04289 0.43365 0.90334 0.0
C1615 C 0.0313 0.42455 0.90835 0.0
H1616 H 0.05538 0.453 0.90112 0.0
H1617 H 0.94293 0.36338 0.94789 0.0
H1618 H 0.60444 0.62773 0.98045 0.0
H1619 H 0.59348 0.6129 0.95782 0.0
H1620 H 0.62531 0.61109 0.94592 0.0
H1621 H 0.63644 0.62596 0.96878 0.0
H1622 H 0.61377 0.61367 0.91718 0.0
H1623 H 0.60408 0.5879 0.96469 0.0
H1624 H 0.59787 0.58123 0.99416 0.0
H1625 H 0.56306 0.57696 0.98459 0.0
H1626 H 0.56916 0.58384 0.95509 0.0
H1627 H 0.56178 0.55219 0.87781 0.0
H1628 H 0.5764 0.56315 0.90077 0.0
H1629 H 0.5771 0.5963 0.88782 0.0
H1630 H 0.56277 0.58554 0.86478 0.0
H1631 H 0.57507 0.57529 0.92897 0.0
H1632 H 0.60551 0.62024 0.89199 0.0
H1633 H 0.61242 0.62657 0.86255 0.0
H1634 H 0.60716 0.59113 0.85104 0.0
H1635 H 0.6004 0.58464 0.88047 0.0
C1636 C 0.60917 0.62423 0.97304 0.0
C1637 C 0.62134 0.62805 0.97642 0.0
C1638 C 0.60285 0.61569 0.96017 0.0
C1639 C 0.60856 0.61083 0.95034 0.0
C1640 C 0.62075 0.61471 0.95346 0.0
C1641 C 0.62707 0.62318 0.96652 0.0
C1642 C 0.60172 0.6019 0.9366 0.0
C1643 C 0.60537 0.60522 0.91972 0.0
C1644 C 0.59092 0.59075 0.94001 0.0
C1645 C 0.58711 0.58646 0.95769 0.0
C1646 C 0.59513 0.58563 0.96889 0.0
C1647 C 0.59162 0.5818 0.98561 0.0
C1648 C 0.58008 0.57868 0.99127 0.0
C1649 C 0.57201 0.57938 0.98019 0.0
C1650 C 0.57548 0.58323 0.96346 0.0
C1651 C 0.56509 0.56183 0.87986 0.0
C1652 C 0.5611 0.568 0.86953 0.0
C1653 C 0.57339 0.56805 0.89299 0.0
C1654 C 0.57794 0.58056 0.89584 0.0
C1655 C 0.57383 0.58668 0.88569 0.0
C1656 C 0.56553 0.58048 0.87266 0.0
C1657 C 0.58686 0.58733 0.90952 0.0
C1658 C 0.58358 0.58362 0.9264 0.0
C1659 C 0.59811 0.59803 0.90609 0.0
C1660 C 0.60237 0.60194 0.88843 0.0
C1661 C 0.6059 0.61382 0.88321 0.0
C1662 C 0.60977 0.61743 0.86652 0.0
C1663 C 0.6102 0.60925 0.85492 0.0
C1664 C 0.60679 0.59745 0.86002 0.0
C1665 C 0.60292 0.59379 0.8767 0.0
H1666 H 0.61319 0.61206 0.842 0.0
H1667 H 0.57738 0.57571 0.00422 0.0
H1668 H 0.98627 0.61752 0.97712 0.0
H1669 H 0.98189 0.60278 0.95389 0.0
H1670 H 0.01746 0.62641 0.93304 0.0
H1671 H 0.02199 0.64109 0.95626 0.0
H1672 H 0.99819 0.61576 0.90833 0.0
H1673 H 0.01404 0.60444 0.95623 0.0
H1674 H 0.01402 0.59873 0.98608 0.0
H1675 H 0.97823 0.56757 0.97971 0.0
H1676 H 0.97798 0.57321 0.94986 0.0
H1677 H 0.0151 0.58159 0.85798 0.0
H1678 H 0.01349 0.59416 0.88028 0.0
H1679 H 0.97931 0.56347 0.89617 0.0
H1680 H 0.981 0.55067 0.87396 0.0
H1681 H 0.99402 0.57604 0.92327 0.0
H1682 H 0.97905 0.58528 0.87448 0.0
H1683 H 0.97862 0.59062 0.8446 0.0
H1684 H 0.01143 0.62511 0.85227 0.0
H1685 H 0.01218 0.61989 0.88216 0.0
C1686 C 0.9931 0.61965 0.96746 0.0
C1687 C 0.00451 0.63043 0.96858 0.0
C1688 C 0.99059 0.61121 0.95425 0.0
C1689 C 0.99938 0.61351 0.94185 0.0
C1690 C 0.01056 0.62449 0.94251 0.0
C1691 C 0.01315 0.63283 0.95582 0.0
C1692 C 0.9973 0.60421 0.9287 0.0
C1693 C 0.99731 0.60709 0.91155 0.0
C1694 C 0.99576 0.59275 0.933 0.0
C1695 C 0.99593 0.58934 0.9509 0.0
C1696 C 0.00612 0.59644 0.96124 0.0
C1697 C 0.00617 0.5932 0.97815 0.0
C1698 C 0.99611 0.58281 0.98481 0.0
C1699 C 0.986 0.57562 0.97455 0.0
C1700 C 0.9859 0.57884 0.95764 0.0
C1701 C 0.00731 0.57744 0.86635 0.0
C1702 C 0.9982 0.56512 0.86426 0.0
C1703 C 0.00634 0.58468 0.87896 0.0
C1704 C 0.9962 0.57979 0.8897 0.0
C1705 C 0.98717 0.56743 0.88792 0.0
C1706 C 0.98812 0.56015 0.87521 0.0
C1707 C 0.99523 0.5877 0.90283 0.0
C1708 C 0.99465 0.58459 0.91999 0.0
C1709 C 0.99613 0.5989 0.89853 0.0
C1710 C 0.99571 0.60215 0.88056 0.0
C1711 C 0.98623 0.59397 0.86978 0.0
C1712 C 0.98592 0.59698 0.85283 0.0
C1713 C 0.995 0.60819 0.84653 0.0
C1714 C 0.0044 0.61643 0.85717 0.0
C1715 C 0.00477 0.61345 0.87413 0.0
H1716 H 0.99473 0.61051 0.83341 0.0
H1717 H 0.99617 0.58032 0.9979 0.0
H1718 H 0.37002 0.38242 0.97612 0.0
H1719 H 0.38101 0.39773 0.95423 0.0
H1720 H 0.40177 0.3807 0.94202 0.0
H1721 H 0.39095 0.36545 0.96381 0.0
H1722 H 0.41616 0.40526 0.94681 0.0
H1723 H 0.3797 0.37772 0.91558 0.0
H1724 H 0.35763 0.36592 0.91079 0.0
H1725 H 0.35655 0.39904 0.91242 0.0
H1726 H 0.3786 0.41103 0.91745 0.0
H1727 H 0.44557 0.43633 0.87153 0.0
H1728 H 0.4338 0.4214 0.89325 0.0
H1729 H 0.41056 0.43648 0.89816 0.0
H1730 H 0.42157 0.45069 0.87544 0.0
H1731 H 0.39723 0.41339 0.89794 0.0
H1732 H 0.43317 0.4412 0.92877 0.0
H1733 H 0.4551 0.45353 0.93445 0.0
H1734 H 0.45714 0.42094 0.93504 0.0
H1735 H 0.43524 0.40842 0.92914 0.0
C1736 C 0.37682 0.38183 0.96864 0.0
C1737 C 0.37962 0.37271 0.97182 0.0
C1738 C 0.38309 0.3906 0.95613 0.0
C1739 C 0.39222 0.39036 0.94651 0.0
C1740 C 0.39481 0.3811 0.94936 0.0
C1741 C 0.38856 0.37235 0.96181 0.0
C1742 C 0.39943 0.39999 0.93391 0.0
C1743 C 0.41205 0.40697 0.93601 0.0
C1744 C 0.39402 0.40246 0.92016 0.0
C1745 C 0.38078 0.39526 0.91706 0.0
C1746 C 0.37474 0.38248 0.91505 0.0
C1747 C 0.36224 0.37576 0.91227 0.0
C1748 C 0.35569 0.38172 0.91135 0.0
C1749 C 0.36163 0.39443 0.91316 0.0
C1750 C 0.37413 0.40119 0.91596 0.0
C1751 C 0.43791 0.43645 0.87709 0.0
C1752 C 0.4346 0.44481 0.87161 0.0
C1753 C 0.43127 0.42799 0.88976 0.0
C1754 C 0.42137 0.42789 0.89759 0.0
C1755 C 0.41817 0.43636 0.89238 0.0
C1756 C 0.42464 0.44465 0.8795 0.0
C1757 C 0.41404 0.41869 0.91073 0.0
C1758 C 0.40138 0.41177 0.90877 0.0
C1759 C 0.41941 0.41638 0.92476 0.0
C1760 C 0.43258 0.42388 0.92836 0.0
C1761 C 0.43831 0.43667 0.92999 0.0
C1762 C 0.45073 0.44369 0.93327 0.0
C1763 C 0.45752 0.43803 0.93506 0.0
C1764 C 0.45188 0.42532 0.93363 0.0
C1765 C 0.43946 0.41825 0.93034 0.0
H1766 H 0.46714 0.44348 0.9376 0.0
H1767 H 0.34601 0.3765 0.90919 0.0
H1768 H 0.6293 0.02527 0.97327 0.0
H1769 H 0.61435 0.02044 0.95101 0.0
H1770 H 0.61017 0.98486 0.944 0.0
H1771 H 0.6251 0.98954 0.96652 0.0
H1772 H 0.61211 0.99745 0.913 0.0
H1773 H 0.58905 0.98517 0.96425 0.0
H1774 H 0.58412 0.98745 0.99393 0.0
H1775 H 0.58034 0.01777 0.97987 0.0
H1776 H 0.58544 0.0158 0.95014 0.0
H1777 H 0.54784 0.98113 0.88102 0.0
H1778 H 0.56103 0.98115 0.90341 0.0
H1779 H 0.59167 0.01241 0.88064 0.0
H1780 H 0.57867 0.01226 0.85806 0.0
H1781 H 0.57478 0.99815 0.92716 0.0
H1782 H 0.61666 0.01026 0.88508 0.0
H1783 H 0.62112 0.00697 0.85558 0.0
H1784 H 0.58604 0.97446 0.85161 0.0
H1785 H 0.58142 0.97745 0.88116 0.0
C1786 C 0.6253 0.01643 0.96695 0.0
C1787 C 0.6284 0.00778 0.97174 0.0
C1788 C 0.6167 0.01368 0.95428 0.0
C1789 C 0.61109 0.00226 0.94599 0.0
C1790 C 0.61439 0.99371 0.9503 0.0
C1791 C 0.6229 0.9964 0.96319 0.0
C1792 C 0.60165 0.99932 0.93302 0.0
C1793 C 0.60392 0.99754 0.91607 0.0
C1794 C 0.59086 0.9992 0.93714 0.0
C1795 C 0.58772 0.0004 0.95499 0.0
C1796 C 0.58726 0.99239 0.96751 0.0
C1797 C 0.58442 0.99361 0.98434 0.0
C1798 C 0.58194 0.00276 0.98879 0.0
C1799 C 0.58227 0.01069 0.97641 0.0
C1800 C 0.58513 0.00952 0.95956 0.0
C1801 C 0.5574 0.98797 0.88075 0.0
C1802 C 0.5622 0.9967 0.86776 0.0
C1803 C 0.56491 0.98801 0.89359 0.0
C1804 C 0.57736 0.99669 0.89358 0.0
C1805 C 0.58212 0.00552 0.88078 0.0
C1806 C 0.57464 0.00551 0.86799 0.0
C1807 C 0.58541 0.99667 0.90701 0.0
C1808 C 0.5829 0.99793 0.92406 0.0
C1809 C 0.5959 0.99615 0.903 0.0
C1810 C 0.59867 0.99414 0.8853 0.0
C1811 C 0.60992 0.00237 0.87795 0.0
C1812 C 0.61247 0.00057 0.86121 0.0
C1813 C 0.60386 0.99053 0.85171 0.0
C1814 C 0.59269 0.98225 0.85896 0.0
C1815 C 0.59009 0.98401 0.8757 0.0
H1816 H 0.60584 0.98916 0.83875 0.0
H1817 H 0.57974 0.0037 0.00183 0.0
H1818 H 0.6387 0.022 0.06684 0.0
H1819 H 0.624 0.01809 0.08942 0.0
H1820 H 0.59803 0.9844 0.06448 0.0
H1821 H 0.61286 0.98808 0.04197 0.0
H1822 H 0.59049 0.00289 0.07433 0.0
H1823 H 0.60719 0.97969 0.09672 0.0
H1824 H 0.62376 0.97646 0.10514 0.0
H1825 H 0.63646 0.00611 0.14125 0.0
H1826 H 0.62006 0.00964 0.13285 0.0
H1827 H 0.54871 0.98937 0.14245 0.0
H1828 H 0.56075 0.98778 0.11955 0.0
H1829 H 0.59351 0.01262 0.14678 0.0
H1830 H 0.5816 0.01342 0.17028 0.0
H1831 H 0.59606 0.99562 0.13452 0.0
H1832 H 0.58205 0.0209 0.11108 0.0
H1833 H 0.56693 0.02619 0.10234 0.0
H1834 H 0.55078 0.99527 0.06818 0.0
H1835 H 0.56573 0.98971 0.07688 0.0
C1836 C 0.62991 0.01369 0.06624 0.0
C1837 C 0.62691 0.00534 0.05266 0.0
C1838 C 0.62154 0.01147 0.07914 0.0
C1839 C 0.60997 0.00097 0.07855 0.0
C1840 C 0.60695 0.99254 0.06511 0.0
C1841 C 0.61543 0.99463 0.05235 0.0
C1842 C 0.60099 0.99917 0.09177 0.0
C1843 C 0.59151 0.00104 0.08746 0.0
C1844 C 0.60262 0.99714 0.1089 0.0
C1845 C 0.61245 0.99499 0.11405 0.0
C1846 C 0.61357 0.9856 0.10634 0.0
C1847 C 0.62293 0.98369 0.11114 0.0
C1848 C 0.63117 0.99109 0.1237 0.0
C1849 C 0.63007 0.00039 0.13152 0.0
C1850 C 0.62074 0.00234 0.12676 0.0
C1851 C 0.55847 0.99439 0.14369 0.0
C1852 C 0.56412 0.00159 0.15829 0.0
C1853 C 0.56537 0.9936 0.13044 0.0
C1854 C 0.57808 1.00022 0.13128 0.0
C1855 C 0.58373 0.00743 0.14577 0.0
C1856 C 0.57686 0.00804 0.15914 0.0
C1857 C 0.5856 0.9996 0.11725 0.0
C1858 C 0.59486 0.9973 0.12139 0.0
C1859 C 0.58391 0.0015 0.1 0.0
C1860 C 0.57491 0.00481 0.09478 0.0
C1861 C 0.57521 0.01518 0.1018 0.0
C1862 C 0.56668 0.01823 0.09684 0.0
C1863 C 0.55787 0.01105 0.08476 0.0
C1864 C 0.55759 0.00081 0.07757 0.0
C1865 C 0.56609 0.99771 0.08251 0.0
H1866 H 0.55128 0.01343 0.08093 0.0
H1867 H 0.63841 0.98961 0.12739 0.0
H1868 H 0.98881 0.62016 0.04794 0.0
H1869 H 0.98537 0.60483 0.06918 0.0
H1870 H 0.02393 0.62152 0.07601 0.0
H1871 H 0.02748 0.63674 0.05475 0.0
H1872 H 0.01318 0.59714 0.07208 0.0
H1873 H 0.00619 0.62511 0.10557 0.0
H1874 H 0.99627 0.63689 0.11223 0.0
H1875 H 0.96168 0.60364 0.11406 0.0
H1876 H 0.97138 0.59168 0.1072 0.0
H1877 H 0.01689 0.56946 0.14688 0.0
H1878 H 0.01817 0.58319 0.12471 0.0
H1879 H 0.97933 0.56679 0.12581 0.0
H1880 H 0.97806 0.55372 0.14905 0.0
H1881 H 0.98881 0.5899 0.12446 0.0
H1882 H 0.99539 0.56166 0.09235 0.0
H1883 H 0.00485 0.54952 0.08521 0.0
H1884 H 0.03939 0.58247 0.07978 0.0
H1885 H 0.03017 0.5948 0.0871 0.0
C1886 C 0.99656 0.62064 0.05406 0.0
C1887 C 0.00843 0.62969 0.04956 0.0
C1888 C 0.99457 0.61187 0.06622 0.0
C1889 C 0.0044 0.61205 0.07422 0.0
C1890 C 0.01622 0.62117 0.06995 0.0
C1891 C 0.01822 0.6299 0.0578 0.0
C1892 C 0.00248 0.60258 0.08672 0.0
C1893 C 0.00795 0.59563 0.08363 0.0
C1894 C 0.99531 0.60032 0.10148 0.0
C1895 C 0.98949 0.60751 0.1057 0.0
C1896 C 0.99645 0.62032 0.10727 0.0
C1897 C 0.99087 0.62703 0.1111 0.0
C1898 C 0.97835 0.62102 0.11352 0.0
C1899 C 0.97138 0.60829 0.11216 0.0
C1900 C 0.97691 0.60154 0.10832 0.0
C1901 C 0.0086 0.56879 0.14255 0.0
C1902 C 0.99737 0.56045 0.14992 0.0
C1903 C 0.00933 0.57656 0.12961 0.0
C1904 C 0.99883 0.57594 0.12333 0.0
C1905 C 0.98758 0.56744 0.13037 0.0
C1906 C 0.98685 0.55983 0.14355 0.0
C1907 C 0.99965 0.58451 0.10996 0.0
C1908 C 0.99396 0.5913 0.11286 0.0
C1909 C 0.00654 0.58655 0.09492 0.0
C1910 C 0.0121 0.57915 0.0904 0.0
C1911 C 0.00502 0.56631 0.08974 0.0
C1912 C 0.01034 0.5594 0.08564 0.0
C1913 C 0.02272 0.56522 0.08208 0.0
C1914 C 0.0298 0.57797 0.08255 0.0
C1915 C 0.02453 0.58493 0.08665 0.0
H1916 H 0.02682 0.55985 0.07892 0.0
H1917 H 0.97404 0.62623 0.11649 0.0
H1918 H 0.36771 0.37086 0.06774 0.0
H1919 H 0.37967 0.38494 0.09088 0.0
H1920 H 0.41178 0.39941 0.05959 0.0
H1921 H 0.39999 0.3847 0.03713 0.0
H1922 H 0.41747 0.3959 0.08783 0.0
H1923 H 0.39591 0.41551 0.07113 0.0
H1924 H 0.37804 0.417 0.06425 0.0
H1925 H 0.36444 0.40612 0.11495 0.0
H1926 H 0.38216 0.40441 0.12208 0.0
H1927 H 0.45442 0.44632 0.14305 0.0
H1928 H 0.44094 0.43602 0.11864 0.0
H1929 H 0.4134 0.41028 0.15254 0.0
H1930 H 0.42697 0.42033 0.17687 0.0
H1931 H 0.40569 0.42078 0.12304 0.0
H1932 H 0.4275 0.39992 0.13753 0.0
H1933 H 0.44623 0.39978 0.14348 0.0
H1934 H 0.46033 0.41518 0.09447 0.0
H1935 H 0.44175 0.4156 0.08837 0.0
C1936 C 0.3773 0.37716 0.06586 0.0
C1937 C 0.38299 0.37671 0.05081 0.0
C1938 C 0.38413 0.38528 0.079 0.0
C1939 C 0.39666 0.39339 0.07699 0.0
C1940 C 0.40218 0.39322 0.06157 0.0
C1941 C 0.39544 0.38485 0.04872 0.0
C1942 C 0.40425 0.40142 0.09127 0.0
C1943 C 0.41493 0.40149 0.09524 0.0
C1944 C 0.40094 0.40861 0.10129 0.0
C1945 C 0.39032 0.40973 0.09709 0.0
C1946 C 0.38907 0.41336 0.08078 0.0
C1947 C 0.37897 0.41425 0.07684 0.0
C1948 C 0.37009 0.41162 0.08914 0.0
C1949 C 0.37132 0.40814 0.10543 0.0
C1950 C 0.3814 0.40722 0.10944 0.0
C1951 C 0.44541 0.43858 0.14524 0.0
C1952 C 0.44169 0.43402 0.1617 0.0
C1953 C 0.43775 0.43274 0.13137 0.0
C1954 C 0.4262 0.42244 0.13388 0.0
C1955 C 0.42225 0.41828 0.15042 0.0
C1956 C 0.43 0.42394 0.16423 0.0
C1957 C 0.41877 0.41523 0.11918 0.0
C1958 C 0.40816 0.41526 0.11532 0.0
C1959 C 0.42222 0.40832 0.10899 0.0
C1960 C 0.43332 0.40793 0.11258 0.0
C1961 C 0.43465 0.40339 0.1281 0.0
C1962 C 0.44523 0.40323 0.13148 0.0
C1963 C 0.45448 0.4075 0.11938 0.0
C1964 C 0.45317 0.4119 0.10385 0.0
C1965 C 0.44261 0.41209 0.10042 0.0
H1966 H 0.46267 0.40737 0.12202 0.0
H1967 H 0.36227 0.41231 0.08606 0.0
H1968 H 0.64684 0.69399 0.40111 0.0
H1969 H 0.64894 0.70774 0.4245 0.0
H1970 H 0.6814 0.73678 0.4015 0.0
H1971 H 0.67966 0.72278 0.37844 0.0
H1972 H 0.6837 0.7387 0.43471 0.0
H1973 H 0.65317 0.7341 0.39592 0.0
H1974 H 0.63482 0.72287 0.37823 0.0
H1975 H 0.61342 0.70642 0.42288 0.0
H1976 H 0.63168 0.71743 0.44082 0.0
H1977 H 0.67755 0.78358 0.48405 0.0
H1978 H 0.67938 0.77195 0.46025 0.0
H1979 H 0.64929 0.73874 0.48003 0.0
H1980 H 0.64749 0.75019 0.50377 0.0
H1981 H 0.64696 0.74103 0.44631 0.0
H1982 H 0.67844 0.74545 0.4847 0.0
H1983 H 0.69705 0.75737 0.50171 0.0
H1984 H 0.71692 0.77538 0.45664 0.0
H1985 H 0.69839 0.76368 0.43939 0.0
C1986 C 0.65453 0.70326 0.40119 0.0
C1987 C 0.66302 0.70738 0.38791 0.0
C1988 C 0.65569 0.71113 0.4145 0.0
C1989 C 0.66511 0.72342 0.41448 0.0
C1990 C 0.67399 0.72738 0.40171 0.0
C1991 C 0.673 0.71938 0.38856 0.0
C1992 C 0.66525 0.73217 0.42731 0.0
C1993 C 0.67573 0.73934 0.43708 0.0
C1994 C 0.65484 0.73304 0.43044 0.0
C1995 C 0.64381 0.72653 0.4197 0.0
C1996 C 0.64456 0.72804 0.40196 0.0
C1997 C 0.63417 0.72172 0.39188 0.0
C1998 C 0.62296 0.71392 0.39942 0.0
C1999 C 0.62211 0.71246 0.41706 0.0
C2000 C 0.63247 0.71875 0.42718 0.0
C2001 C 0.67139 0.77379 0.48335 0.0
C2002 C 0.6623 0.76783 0.49571 0.0
C2003 C 0.67244 0.76716 0.46977 0.0
C2004 C 0.66449 0.75447 0.46841 0.0
C2005 C 0.65547 0.74853 0.48077 0.0
C2006 C 0.65441 0.75512 0.49428 0.0
C2007 C 0.66526 0.74726 0.45402 0.0
C2008 C 0.65496 0.74044 0.44386 0.0
C2009 C 0.67586 0.74685 0.45044 0.0
C2010 C 0.68701 0.75379 0.46079 0.0
C2011 C 0.68676 0.75202 0.47844 0.0
C2012 C 0.6973 0.75872 0.48812 0.0
C2013 C 0.70815 0.76715 0.48027 0.0
C2014 C 0.70851 0.76886 0.46271 0.0
C2015 C 0.69799 0.76219 0.45297 0.0
H2016 H 0.7163 0.77233 0.48778 0.0
H2017 H 0.61493 0.70903 0.3916 0.0
H2018 H 0.27909 0.96925 0.40201 0.0
H2019 H 0.2698 0.95425 0.42456 0.0
H2020 H 0.29033 0.93765 0.40878 0.0
H2021 H 0.29965 0.95258 0.38601 0.0
H2022 H 0.26633 0.92078 0.41298 0.0
H2023 H 0.29757 0.95418 0.44495 0.0
H2024 H 0.30961 0.97554 0.45512 0.0
H2025 H 0.27784 0.9728 0.47775 0.0
H2026 H 0.26556 0.95148 0.46748 0.0
H2027 H 0.24875 0.88104 0.48389 0.0
H2028 H 0.26012 0.89632 0.46224 0.0
H2029 H 0.24294 0.91641 0.47783 0.0
H2030 H 0.23201 0.90153 0.50007 0.0
H2031 H 0.26635 0.93152 0.47388 0.0
H2032 H 0.2349 0.89877 0.44068 0.0
H2033 H 0.22251 0.8776 0.4299 0.0
H2034 H 0.25431 0.87925 0.40925 0.0
H2035 H 0.26692 0.90038 0.4201 0.0
C2036 C 0.28174 0.96249 0.40339 0.0
C2037 C 0.29011 0.96212 0.39214 0.0
C2038 C 0.27644 0.95394 0.41635 0.0
C2039 C 0.27942 0.94487 0.4184 0.0
C2040 C 0.28791 0.94458 0.40741 0.0
C2041 C 0.29327 0.95316 0.39445 0.0
C2042 C 0.27324 0.9354 0.43157 0.0
C2043 C 0.2665 0.9231 0.42635 0.0
C2044 C 0.27323 0.93847 0.44893 0.0
C2045 C 0.28062 0.95125 0.45531 0.0
C2046 C 0.29313 0.95816 0.45199 0.0
C2047 C 0.3 0.97026 0.45779 0.0
C2048 C 0.29449 0.97553 0.46704 0.0
C2049 C 0.28209 0.96871 0.47057 0.0
C2050 C 0.27518 0.95661 0.46477 0.0
C2051 C 0.24741 0.88873 0.48276 0.0
C2052 C 0.23944 0.89003 0.49374 0.0
C2053 C 0.25384 0.8974 0.47025 0.0
C2054 C 0.25231 0.90747 0.46829 0.0
C2055 C 0.24425 0.90871 0.47908 0.0
C2056 C 0.23789 0.9001 0.49167 0.0
C2057 C 0.25931 0.91688 0.45528 0.0
C2058 C 0.26622 0.92918 0.46053 0.0
C2059 C 0.25944 0.91381 0.43793 0.0
C2060 C 0.25187 0.90111 0.43136 0.0
C2061 C 0.23926 0.89459 0.43396 0.0
C2062 C 0.2322 0.8826 0.42781 0.0
C2063 C 0.23763 0.87707 0.41894 0.0
C2064 C 0.25012 0.88353 0.41615 0.0
C2065 C 0.25723 0.89552 0.42228 0.0
H2066 H 0.23214 0.86779 0.41419 0.0
H2067 H 0.29982 0.98491 0.47151 0.0
H2068 H 0.05161 0.3494 0.38714 0.0
H2069 H 0.06733 0.35479 0.40863 0.0
H2070 H 0.05135 0.31674 0.42114 0.0
H2071 H 0.03571 0.31123 0.39976 0.0
H2072 H 0.06711 0.3512 0.44335 0.0
H2073 H 0.07382 0.31068 0.42655 0.0
H2074 H 0.07155 0.29757 0.40178 0.0
H2075 H 0.07722 0.32624 0.36801 0.0
H2076 H 0.0797 0.33959 0.39256 0.0
H2077 H 0.09552 0.33646 0.50809 0.0
H2078 H 0.08212 0.33522 0.48519 0.0
H2079 H 0.11278 0.35365 0.45153 0.0
H2080 H 0.12631 0.35507 0.47457 0.0
H2081 H 0.09214 0.33191 0.43757 0.0
H2082 H 0.10235 0.3697 0.46466 0.0
H2083 H 0.10517 0.38346 0.48883 0.0
H2084 H 0.06726 0.36197 0.50052 0.0
H2085 H 0.06424 0.34796 0.47657 0.0
C2086 C 0.05135 0.34218 0.39459 0.0
C2087 C 0.04245 0.32986 0.39155 0.0
C2088 C 0.06034 0.34529 0.40687 0.0
C2089 C 0.06062 0.33614 0.41625 0.0
C2090 C 0.05143 0.32392 0.41382 0.0
C2091 C 0.04246 0.3208 0.4016 0.0
C2092 C 0.07071 0.33922 0.42816 0.0
C2093 C 0.07261 0.34702 0.44206 0.0
C2094 C 0.07805 0.33395 0.42628 0.0
C2095 C 0.07685 0.3261 0.41141 0.0
C2096 C 0.07465 0.31421 0.41384 0.0
C2097 C 0.07332 0.30673 0.39984 0.0
C2098 C 0.07421 0.31106 0.38333 0.0
C2099 C 0.07649 0.32289 0.3808 0.0
C2100 C 0.07785 0.33041 0.39475 0.0
C2101 C 0.09939 0.34017 0.49577 0.0
C2102 C 0.11193 0.34579 0.49303 0.0
C2103 C 0.09175 0.33954 0.48277 0.0
C2104 C 0.09649 0.34441 0.46674 0.0
C2105 C 0.10898 0.34987 0.46385 0.0
C2106 C 0.11668 0.35069 0.47698 0.0
C2107 C 0.08827 0.34358 0.45301 0.0
C2108 C 0.08671 0.33617 0.43877 0.0
C2109 C 0.08134 0.34931 0.45451 0.0
C2110 C 0.08309 0.35772 0.4689 0.0
C2111 C 0.09463 0.36784 0.47248 0.0
C2112 C 0.09627 0.3757 0.48612 0.0
C2113 C 0.08641 0.37357 0.49623 0.0
C2114 C 0.07489 0.3636 0.49269 0.0
C2115 C 0.07321 0.3557 0.47907 0.0
H2116 H 0.08769 0.37967 0.50678 0.0
H2117 H 0.07316 0.30525 0.37251 0.0
H2118 H 0.04849 0.34553 0.30491 0.0
H2119 H 0.06238 0.34809 0.2816 0.0
H2120 H 0.0565 0.31218 0.29105 0.0
H2121 H 0.04274 0.30953 0.3142 0.0
H2122 H 0.08047 0.32895 0.28584 0.0
H2123 H 0.04161 0.31603 0.25965 0.0
H2124 H 0.02387 0.31787 0.25323 0.0
H2125 H 0.04708 0.35296 0.23088 0.0
H2126 H 0.06498 0.35138 0.23738 0.0
H2127 H 0.08413 0.31297 0.19196 0.0
H2128 H 0.0733 0.31486 0.21634 0.0
H2129 H 0.10662 0.34545 0.2354 0.0
H2130 H 0.1176 0.34346 0.21113 0.0
H2131 H 0.07027 0.33359 0.22673 0.0
H2132 H 0.105 0.34382 0.27954 0.0
H2133 H 0.12176 0.34034 0.28594 0.0
H2134 H 0.10516 0.30787 0.2547 0.0
H2135 H 0.08825 0.31108 0.2483 0.0
C2136 C 0.05021 0.33821 0.30207 0.0
C2137 C 0.04442 0.32729 0.31136 0.0
C2138 C 0.05813 0.33968 0.28875 0.0
C2139 C 0.06043 0.3303 0.2846 0.0
C2140 C 0.05488 0.31954 0.29409 0.0
C2141 C 0.04693 0.31802 0.30725 0.0
C2142 C 0.06825 0.33134 0.26999 0.0
C2143 C 0.07833 0.33011 0.27293 0.0
C2144 C 0.06538 0.33273 0.25315 0.0
C2145 C 0.05463 0.33365 0.24918 0.0
C2146 C 0.04293 0.32418 0.25349 0.0
C2147 C 0.03285 0.32516 0.24981 0.0
C2148 C 0.03435 0.33554 0.2417 0.0
C2149 C 0.04593 0.34494 0.2372 0.0
C2150 C 0.05605 0.344 0.24086 0.0
C2151 C 0.08919 0.32002 0.20143 0.0
C2152 C 0.10174 0.328 0.19969 0.0
C2153 C 0.08296 0.32117 0.21526 0.0
C2154 C 0.08915 0.33027 0.22769 0.0
C2155 C 0.10168 0.33832 0.22599 0.0
C2156 C 0.10793 0.3372 0.21209 0.0
C2157 C 0.08244 0.33111 0.24255 0.0
C2158 C 0.07257 0.33269 0.23966 0.0
C2159 C 0.0854 0.32988 0.25942 0.0
C2160 C 0.09545 0.32778 0.26328 0.0
C2161 C 0.10493 0.33593 0.27407 0.0
C2162 C 0.11445 0.334 0.2777 0.0
C2163 C 0.11455 0.32391 0.27067 0.0
C2164 C 0.1051 0.31571 0.26007 0.0
C2165 C 0.09556 0.31759 0.25642 0.0
H2166 H 0.12193 0.32244 0.27349 0.0
H2167 H 0.02653 0.33629 0.23886 0.0
H2168 H 0.6833 0.71892 0.30977 0.0
H2169 H 0.68848 0.73431 0.28789 0.0
H2170 H 0.65058 0.71896 0.27674 0.0
H2171 H 0.64529 0.7035 0.29841 0.0
H2172 H 0.66429 0.7244 0.24782 0.0
H2173 H 0.66559 0.74437 0.30135 0.0
H2174 H 0.67263 0.75134 0.33071 0.0
H2175 H 0.7093 0.77263 0.31296 0.0
H2176 H 0.70249 0.76565 0.28352 0.0
H2177 H 0.66497 0.77101 0.20082 0.0
H2178 H 0.66123 0.75641 0.22312 0.0
H2179 H 0.69925 0.77604 0.23573 0.0
H2180 H 0.70297 0.79119 0.21416 0.0
H2181 H 0.68664 0.76846 0.26361 0.0
H2182 H 0.68603 0.74959 0.21043 0.0
H2183 H 0.67977 0.74265 0.18084 0.0
H2184 H 0.64307 0.71918 0.19728 0.0
H2185 H 0.64908 0.72613 0.22695 0.0
C2186 C 0.67606 0.71875 0.3026 0.0
C2187 C 0.66386 0.70999 0.30595 0.0
C2188 C 0.67904 0.7276 0.29014 0.0
C2189 C 0.66991 0.72786 0.28083 0.0
C2190 C 0.65777 0.71894 0.28381 0.0
C2191 C 0.65477 0.71012 0.29626 0.0
C2192 C 0.6729 0.73754 0.26815 0.0
C2193 C 0.66907 0.73403 0.25129 0.0
C2194 C 0.67947 0.75011 0.27259 0.0
C2195 C 0.68354 0.75439 0.29027 0.0
C2196 C 0.67516 0.75047 0.30373 0.0
C2197 C 0.67911 0.75443 0.32038 0.0
C2198 C 0.69141 0.7624 0.32371 0.0
C2199 C 0.69978 0.76645 0.31038 0.0
C2200 C 0.69588 0.7625 0.2937 0.0
C2201 C 0.67252 0.77244 0.20857 0.0
C2202 C 0.6843 0.78229 0.20555 0.0
C2203 C 0.67038 0.76394 0.22118 0.0
C2204 C 0.68 0.76493 0.23082 0.0
C2205 C 0.69169 0.775 0.22833 0.0
C2206 C 0.69382 0.7836 0.21587 0.0
C2207 C 0.67789 0.75534 0.24326 0.0
C2208 C 0.68191 0.75884 0.26008 0.0
C2209 C 0.67162 0.74275 0.23872 0.0
C2210 C 0.66799 0.73847 0.2209 0.0
C2211 C 0.67661 0.74301 0.20772 0.0
C2212 C 0.67311 0.73906 0.19094 0.0
C2213 C 0.66102 0.73049 0.18718 0.0
C2214 C 0.65243 0.72583 0.20021 0.0
C2215 C 0.65588 0.72976 0.21702 0.0
H2216 H 0.65832 0.72744 0.17418 0.0
H2217 H 0.69445 0.76546 0.33661 0.0
H2218 H 0.30114 0.95891 0.30129 0.0
H2219 H 0.29015 0.94428 0.27811 0.0
H2220 H 0.25662 0.9403 0.29629 0.0
H2221 H 0.2675 0.95506 0.31918 0.0
H2222 H 0.25615 0.91745 0.28749 0.0
H2223 H 0.26799 0.9576 0.26559 0.0
H2224 H 0.28281 0.97903 0.25862 0.0
H2225 H 0.30191 0.96721 0.22607 0.0
H2226 H 0.28728 0.9457 0.23307 0.0
H2227 H 0.21349 0.89451 0.22093 0.0
H2228 H 0.22726 0.90524 0.24457 0.0
H2229 H 0.25769 0.91226 0.21298 0.0
H2230 H 0.24399 0.90194 0.18905 0.0
H2231 H 0.26197 0.93249 0.22828 0.0
H2232 H 0.24879 0.89229 0.24648 0.0
H2233 H 0.23437 0.87074 0.2533 0.0
H2234 H 0.21856 0.88193 0.29251 0.0
H2235 H 0.23276 0.90357 0.28576 0.0
C2236 C 0.29142 0.95487 0.30037 0.0
C2237 C 0.28518 0.95819 0.31196 0.0
C2238 C 0.28518 0.94653 0.28716 0.0
C2239 C 0.2726 0.94124 0.28557 0.0
C2240 C 0.26632 0.94428 0.29738 0.0
C2241 C 0.27257 0.95277 0.31036 0.0
C2242 C 0.26596 0.93294 0.27116 0.0
C2243 C 0.25735 0.9207 0.27452 0.0
C2244 C 0.26786 0.93715 0.25426 0.0
C2245 C 0.27665 0.95006 0.25004 0.0
C2246 C 0.27542 0.95958 0.25709 0.0
C2247 C 0.28377 0.97174 0.2531 0.0
C2248 C 0.29333 0.97448 0.24196 0.0
C2249 C 0.29453 0.96507 0.23474 0.0
C2250 C 0.28621 0.9529 0.23871 0.0
C2251 C 0.22311 0.89827 0.21904 0.0
C2252 C 0.22764 0.89741 0.20308 0.0
C2253 C 0.23097 0.90429 0.23262 0.0
C2254 C 0.24352 0.90948 0.2306 0.0
C2255 C 0.24804 0.9083 0.21485 0.0
C2256 C 0.24018 0.9023 0.20122 0.0
C2257 C 0.2519 0.91694 0.24454 0.0
C2258 C 0.26086 0.92909 0.24114 0.0
C2259 C 0.25039 0.91258 0.26139 0.0
C2260 C 0.2418 0.89957 0.26552 0.0
C2261 C 0.24218 0.89017 0.25647 0.0
C2262 C 0.23405 0.87793 0.26033 0.0
C2263 C 0.22554 0.87496 0.27331 0.0
C2264 C 0.22515 0.88424 0.28246 0.0
C2265 C 0.23325 0.89649 0.27863 0.0
H2266 H 0.21926 0.86548 0.27628 0.0
H2267 H 0.29978 0.9839 0.23887 0.0
H2268 H 0.65904 0.95613 0.30094 0.0
H2269 H 0.65753 0.94306 0.27676 0.0
H2270 H 0.69162 0.94677 0.29102 0.0
H2271 H 0.69335 0.96004 0.31473 0.0
H2272 H 0.69163 0.95014 0.25865 0.0
H2273 H 0.66343 0.92007 0.29783 0.0
H2274 H 0.64562 0.91057 0.31675 0.0
H2275 H 0.62247 0.90603 0.2747 0.0
H2276 H 0.64018 0.91566 0.25557 0.0
H2277 H 0.69156 0.90337 0.20997 0.0
H2278 H 0.69009 0.91468 0.23433 0.0
H2279 H 0.65873 0.91298 0.21202 0.0
H2280 H 0.66025 0.90186 0.18743 0.0
H2281 H 0.65637 0.90873 0.24713 0.0
H2282 H 0.68487 0.93825 0.20794 0.0
H2283 H 0.70282 0.94732 0.18927 0.0
H2284 H 0.72561 0.95257 0.23209 0.0
H2285 H 0.70776 0.94335 0.25098 0.0
C2286 C 0.66617 0.95409 0.29895 0.0
C2287 C 0.67634 0.95918 0.30971 0.0
C2288 C 0.66528 0.94658 0.28517 0.0
C2289 C 0.67444 0.94386 0.28211 0.0
C2290 C 0.68447 0.94878 0.29303 0.0
C2291 C 0.68544 0.95637 0.30662 0.0
C2292 C 0.67392 0.93627 0.26725 0.0
C2293 C 0.68396 0.94103 0.25629 0.0
C2294 C 0.66379 0.92451 0.26384 0.0
C2295 C 0.65314 0.91871 0.27531 0.0
C2296 C 0.65455 0.91714 0.29265 0.0
C2297 C 0.64447 0.91171 0.3034 0.0
C2298 C 0.63293 0.90773 0.29694 0.0
C2299 C 0.63143 0.90914 0.2797 0.0
C2300 C 0.64148 0.91457 0.26889 0.0
C2301 C 0.68436 0.90541 0.21022 0.0
C2302 C 0.67609 0.9018 0.19667 0.0
C2303 C 0.6835 0.91182 0.22418 0.0
C2304 C 0.67438 0.91477 0.22486 0.0
C2305 C 0.66582 0.91077 0.21172 0.0
C2306 C 0.66669 0.90439 0.19771 0.0
C2307 C 0.67417 0.92253 0.2389 0.0
C2308 C 0.664 0.91785 0.24957 0.0
C2309 C 0.6842 0.93435 0.24216 0.0
C2310 C 0.69497 0.94001 0.23085 0.0
C2311 C 0.6937 0.94126 0.21336 0.0
C2312 C 0.70385 0.94644 0.20274 0.0
C2313 C 0.71534 0.9505 0.20948 0.0
C2314 C 0.7167 0.94941 0.22688 0.0
C2315 C 0.70657 0.94422 0.23755 0.0
H2316 H 0.72319 0.95451 0.20124 0.0
H2317 H 0.62513 0.90353 0.30529 0.0
H2318 H 0.05023 0.69516 0.29257 0.0
H2319 H 0.0611 0.71057 0.27086 0.0
H2320 H 0.0536 0.73565 0.298 0.0
H2321 H 0.04214 0.71999 0.31926 0.0
H2322 H 0.05213 0.73851 0.26623 0.0
H2323 H 0.08195 0.73702 0.30021 0.0
H2324 H 0.09193 0.72744 0.31461 0.0
H2325 H 0.09789 0.71511 0.26641 0.0
H2326 H 0.08781 0.72449 0.25173 0.0
H2327 H 0.0992 0.79071 0.22243 0.0
H2328 H 0.08771 0.77628 0.24507 0.0
H2329 H 0.08681 0.74704 0.21558 0.0
H2330 H 0.09786 0.7612 0.19271 0.0
H2331 H 0.09324 0.74759 0.24985 0.0
H2332 H 0.06257 0.74943 0.21659 0.0
H2333 H 0.05329 0.76012 0.2034 0.0
H2334 H 0.05012 0.77349 0.25245 0.0
H2335 H 0.05954 0.763 0.26591 0.0
C2336 C 0.05083 0.70393 0.29382 0.0
C2337 C 0.04542 0.70641 0.30765 0.0
C2338 C 0.05712 0.71278 0.28147 0.0
C2339 C 0.05849 0.72443 0.28301 0.0
C2340 C 0.05274 0.72677 0.29655 0.0
C2341 C 0.04619 0.71782 0.3087 0.0
C2342 C 0.06605 0.73419 0.27065 0.0
C2343 C 0.06119 0.7406 0.26287 0.0
C2344 C 0.07788 0.73694 0.26612 0.0
C2345 C 0.08404 0.73137 0.27489 0.0
C2346 C 0.08533 0.7322 0.29269 0.0
C2347 C 0.09101 0.72682 0.3009 0.0
C2348 C 0.09551 0.72065 0.29143 0.0
C2349 C 0.09438 0.71988 0.27373 0.0
C2350 C 0.0887 0.72525 0.26545 0.0
C2351 C 0.09649 0.7812 0.22069 0.0
C2352 C 0.09951 0.77716 0.20571 0.0
C2353 C 0.08997 0.77298 0.23368 0.0
C2354 C 0.08639 0.7606 0.23195 0.0
C2355 C 0.08955 0.75658 0.21719 0.0
C2356 C 0.09596 0.76474 0.20417 0.0
C2357 C 0.07924 0.75171 0.24539 0.0
C2358 C 0.08421 0.7455 0.25335 0.0
C2359 C 0.06763 0.74933 0.25031 0.0
C2360 C 0.06187 0.75554 0.24223 0.0
C2361 C 0.05998 0.75472 0.22455 0.0
C2362 C 0.05468 0.76074 0.21702 0.0
C2363 C 0.05115 0.76751 0.22707 0.0
C2364 C 0.05288 0.76825 0.24468 0.0
C2365 C 0.05819 0.76227 0.25226 0.0
H2366 H 0.04705 0.77216 0.22122 0.0
H2367 H 0.0999 0.71648 0.29781 0.0
H2368 H 0.28031 0.32384 0.31462 0.0
H2369 H 0.26531 0.31946 0.29244 0.0
H2370 H 0.29233 0.35002 0.26356 0.0
H2371 H 0.30711 0.35477 0.28612 0.0
H2372 H 0.27329 0.35136 0.26499 0.0
H2373 H 0.28009 0.31811 0.25227 0.0
H2374 H 0.28113 0.29979 0.25883 0.0
H2375 H 0.24363 0.2807 0.27333 0.0
H2376 H 0.24241 0.29896 0.26705 0.0
H2377 H 0.24225 0.34114 0.18754 0.0
H2378 H 0.25625 0.34312 0.20989 0.0
H2379 H 0.22678 0.31356 0.23717 0.0
H2380 H 0.21275 0.31133 0.21449 0.0
H2381 H 0.24598 0.31111 0.23764 0.0
H2382 H 0.23911 0.34414 0.24962 0.0
H2383 H 0.238 0.36239 0.24287 0.0
H2384 H 0.27574 0.38188 0.22975 0.0
H2385 H 0.27705 0.36369 0.23622 0.0
C2386 C 0.28308 0.32948 0.30338 0.0
C2387 C 0.29486 0.33966 0.30209 0.0
C2388 C 0.27451 0.32695 0.29067 0.0
C2389 C 0.27767 0.33436 0.2762 0.0
C2390 C 0.28962 0.34421 0.27462 0.0
C2391 C 0.29808 0.34689 0.28747 0.0
C2392 C 0.26844 0.33247 0.26328 0.0
C2393 C 0.26746 0.34258 0.25884 0.0
C2394 C 0.26047 0.32094 0.25567 0.0
C2395 C 0.26119 0.30994 0.25934 0.0
C2396 C 0.27209 0.31003 0.25697 0.0
C2397 C 0.27271 0.29965 0.26062 0.0
C2398 C 0.26246 0.2891 0.26654 0.0
C2399 C 0.25157 0.28889 0.26877 0.0
C2400 C 0.2509 0.29924 0.26514 0.0
C2401 C 0.23873 0.33516 0.19841 0.0
C2402 C 0.22639 0.32618 0.19939 0.0
C2403 C 0.24674 0.33629 0.21118 0.0
C2404 C 0.24255 0.32863 0.22539 0.0
C2405 C 0.23022 0.31959 0.22636 0.0
C2406 C 0.22222 0.31835 0.21344 0.0
C2407 C 0.25108 0.33006 0.23913 0.0
C2408 C 0.25185 0.31987 0.2438 0.0
C2409 C 0.25889 0.34153 0.24697 0.0
C2410 C 0.25815 0.35252 0.2433 0.0
C2411 C 0.24716 0.3523 0.24521 0.0
C2412 C 0.24649 0.36263 0.24144 0.0
C2413 C 0.25679 0.37328 0.23585 0.0
C2414 C 0.26778 0.37362 0.23407 0.0
C2415 C 0.26849 0.36331 0.23781 0.0
H2416 H 0.25625 0.38126 0.23293 0.0
H2417 H 0.26296 0.28108 0.26936 0.0
H2418 H 0.29427 0.32976 0.39587 0.0
H2419 H 0.28088 0.32796 0.41944 0.0
H2420 H 0.27371 0.35376 0.39499 0.0
H2421 H 0.28753 0.35605 0.37204 0.0
H2422 H 0.27804 0.35976 0.42606 0.0
H2423 H 0.25259 0.32119 0.39714 0.0
H2424 H 0.24754 0.30122 0.38476 0.0
H2425 H 0.25264 0.28965 0.43345 0.0
H2426 H 0.25787 0.30961 0.44607 0.0
H2427 H 0.22955 0.35263 0.47678 0.0
H2428 H 0.24086 0.35138 0.45244 0.0
H2429 H 0.25002 0.32869 0.48131 0.0
H2430 H 0.23863 0.3298 0.50561 0.0
H2431 H 0.24475 0.32069 0.44882 0.0
H2432 H 0.27004 0.3593 0.47748 0.0
H2433 H 0.27486 0.37922 0.48978 0.0
H2434 H 0.26979 0.39064 0.44094 0.0
H2435 H 0.26478 0.37072 0.4284 0.0
C2436 C 0.28975 0.33496 0.39553 0.0
C2437 C 0.29198 0.3431 0.38222 0.0
C2438 C 0.28204 0.33389 0.40894 0.0
C2439 C 0.27616 0.34065 0.40896 0.0
C2440 C 0.27818 0.34851 0.39537 0.0
C2441 C 0.28607 0.3498 0.38224 0.0
C2442 C 0.26839 0.34011 0.42343 0.0
C2443 C 0.27065 0.35119 0.43082 0.0
C2444 C 0.25895 0.32895 0.43007 0.0
C2445 C 0.25573 0.31693 0.42251 0.0
C2446 C 0.25271 0.31441 0.40518 0.0
C2447 C 0.24981 0.30309 0.39812 0.0
C2448 C 0.2498 0.29419 0.4083 0.0
C2449 C 0.25267 0.29657 0.42557 0.0
C2450 C 0.25559 0.30787 0.43269 0.0
C2451 C 0.23394 0.34734 0.4779 0.0
C2452 C 0.23326 0.34137 0.49312 0.0
C2453 C 0.24039 0.34663 0.464 0.0
C2454 C 0.24644 0.3401 0.46516 0.0
C2455 C 0.24542 0.33377 0.48013 0.0
C2456 C 0.23889 0.3344 0.49399 0.0
C2457 C 0.25429 0.34032 0.45107 0.0
C2458 C 0.25211 0.32922 0.44391 0.0
C2459 C 0.26378 0.35145 0.44454 0.0
C2460 C 0.26693 0.36348 0.45204 0.0
C2461 C 0.26988 0.36604 0.46939 0.0
C2462 C 0.27265 0.37732 0.4764 0.0
C2463 C 0.2726 0.38618 0.46616 0.0
C2464 C 0.26981 0.38377 0.44887 0.0
C2465 C 0.26702 0.37249 0.4418 0.0
H2466 H 0.27475 0.39491 0.47161 0.0
H2467 H 0.24755 0.28543 0.40281 0.0
H2468 H 0.65312 0.95139 0.38463 0.0
H2469 H 0.64725 0.93625 0.40704 0.0
H2470 H 0.68465 0.95252 0.42194 0.0
H2471 H 0.69062 0.96775 0.39973 0.0
H2472 H 0.65361 0.91912 0.41082 0.0
H2473 H 0.68607 0.94936 0.46457 0.0
H2474 H 0.69602 0.97072 0.47491 0.0
H2475 H 0.66743 0.97441 0.45357 0.0
H2476 H 0.65723 0.95303 0.44331 0.0
H2477 H 0.66502 0.88679 0.47534 0.0
H2478 H 0.66717 0.90139 0.4535 0.0
H2479 H 0.64203 0.90827 0.48084 0.0
H2480 H 0.63968 0.89354 0.50251 0.0
H2481 H 0.66473 0.92977 0.47158 0.0
H2482 H 0.63182 0.89312 0.44736 0.0
H2483 H 0.62127 0.87172 0.43718 0.0
H2484 H 0.64916 0.88076 0.4 0.0
H2485 H 0.65998 0.90219 0.41014 0.0
C2486 C 0.6601 0.95185 0.39278 0.0
C2487 C 0.67236 0.96082 0.39034 0.0
C2488 C 0.65672 0.94314 0.40553 0.0
C2489 C 0.6655 0.94329 0.41621 0.0
C2490 C 0.67771 0.95232 0.41398 0.0
C2491 C 0.6811 0.96101 0.40123 0.0
C2492 C 0.66198 0.93377 0.42932 0.0
C2493 C 0.656 0.92145 0.42411 0.0
C2494 C 0.665 0.93681 0.44669 0.0
C2495 C 0.67095 0.94962 0.45305 0.0
C2496 C 0.68188 0.95471 0.46216 0.0
C2497 C 0.68757 0.96683 0.46799 0.0
C2498 C 0.68237 0.97393 0.46485 0.0
C2499 C 0.67146 0.96891 0.45593 0.0
C2500 C 0.66573 0.9568 0.45009 0.0
C2501 C 0.65987 0.89133 0.47655 0.0
C2502 C 0.65214 0.88901 0.49052 0.0
C2503 C 0.66109 0.89963 0.4641 0.0
C2504 C 0.65475 0.90587 0.4656 0.0
C2505 C 0.64697 0.90351 0.47948 0.0
C2506 C 0.64558 0.89506 0.49175 0.0
C2507 C 0.65658 0.91519 0.45299 0.0
C2508 C 0.66229 0.92747 0.45829 0.0
C2509 C 0.65324 0.91211 0.43575 0.0
C2510 C 0.64677 0.89923 0.42963 0.0
C2511 C 0.63577 0.89052 0.43713 0.0
C2512 C 0.62972 0.87839 0.43134 0.0
C2513 C 0.63456 0.87487 0.41798 0.0
C2514 C 0.64543 0.88349 0.41036 0.0
C2515 C 0.65152 0.89563 0.41611 0.0
H2516 H 0.62986 0.86547 0.41351 0.0
H2517 H 0.6868 0.98331 0.46936 0.0
H2518 H 0.04202 0.71923 0.38131 0.0
H2519 H 0.05406 0.73348 0.40434 0.0
H2520 H 0.06181 0.70678 0.42397 0.0
H2521 H 0.0501 0.69265 0.40083 0.0
H2522 H 0.05503 0.71986 0.44924 0.0
H2523 H 0.08199 0.72631 0.40142 0.0
H2524 H 0.08829 0.73098 0.37145 0.0
H2525 H 0.09 0.76542 0.37679 0.0
H2526 H 0.08351 0.76085 0.40676 0.0
H2527 H 0.10639 0.74804 0.50048 0.0
H2528 H 0.0917 0.73668 0.47812 0.0
H2529 H 0.09557 0.7702 0.45952 0.0
H2530 H 0.11069 0.78176 0.48165 0.0
H2531 H 0.0948 0.75571 0.43363 0.0
H2532 H 0.0709 0.75112 0.48214 0.0
H2533 H 0.06427 0.74688 0.51203 0.0
H2534 H 0.05596 0.70984 0.50567 0.0
H2535 H 0.06273 0.7139 0.47579 0.0
C2536 C 0.04615 0.71635 0.3907 0.0
C2537 C 0.04519 0.70487 0.38927 0.0
C2538 C 0.05303 0.72449 0.40377 0.0
C2539 C 0.05882 0.72115 0.41575 0.0
C2540 C 0.05738 0.70948 0.41482 0.0
C2541 C 0.05074 0.70146 0.40158 0.0
C2542 C 0.067 0.73 0.42871 0.0
C2543 C 0.06374 0.72768 0.44589 0.0
C2544 C 0.07816 0.7404 0.42421 0.0
C2545 C 0.08211 0.74317 0.40624 0.0
C2546 C 0.08359 0.73482 0.39615 0.0
C2547 C 0.08722 0.73746 0.37918 0.0
C2548 C 0.0895 0.74847 0.3722 0.0
C2549 C 0.08819 0.75688 0.3822 0.0
C2550 C 0.08454 0.75427 0.39918 0.0
C2551 C 0.1043 0.75305 0.49148 0.0
C2552 C 0.10975 0.76582 0.49283 0.0
C2553 C 0.09576 0.74651 0.47883 0.0
C2554 C 0.09237 0.75256 0.46735 0.0
C2555 C 0.09799 0.76534 0.46834 0.0
C2556 C 0.10657 0.77192 0.48103 0.0
C2557 C 0.083 0.74542 0.4543 0.0
C2558 C 0.08601 0.74804 0.43706 0.0
C2559 C 0.07154 0.73537 0.45877 0.0
C2560 C 0.06742 0.73285 0.47674 0.0
C2561 C 0.06775 0.74209 0.48714 0.0
C2562 C 0.06395 0.73972 0.50408 0.0
C2563 C 0.05971 0.72811 0.51075 0.0
C2564 C 0.05925 0.71884 0.50048 0.0
C2565 C 0.06306 0.72117 0.48354 0.0
H2566 H 0.05677 0.72629 0.52387 0.0
H2567 H 0.09231 0.75051 0.35905 0.0
H2568 H 0.34577 0.05489 0.7134 0.0
H2569 H 0.34759 0.06886 0.73647 0.0
H2570 H 0.31022 0.04432 0.75005 0.0
H2571 H 0.30825 0.03057 0.72684 0.0
H2572 H 0.31444 0.0666 0.74837 0.0
H2573 H 0.33478 0.04757 0.7739 0.0
H2574 H 0.35021 0.04159 0.77519 0.0
H2575 H 0.37847 0.07933 0.77341 0.0
H2576 H 0.36319 0.08552 0.7719 0.0
H2577 H 0.30906 0.085 0.831 0.0
H2578 H 0.3106 0.07413 0.80624 0.0
H2579 H 0.34668 0.10418 0.79645 0.0
H2580 H 0.34514 0.11528 0.82112 0.0
H2581 H 0.34508 0.08162 0.79449 0.0
H2582 H 0.32449 0.10057 0.77158 0.0
H2583 H 0.30893 0.10638 0.7705 0.0
H2584 H 0.281 0.06853 0.76745 0.0
H2585 H 0.29638 0.06248 0.76875 0.0
C2586 C 0.33799 0.05243 0.72142 0.0
C2587 C 0.32685 0.04166 0.71823 0.0
C2588 C 0.33904 0.06041 0.73462 0.0
C2589 C 0.32904 0.05763 0.74503 0.0
C2590 C 0.31803 0.04671 0.74212 0.0
C2591 C 0.31693 0.03884 0.72885 0.0
C2592 C 0.32974 0.06619 0.75859 0.0
C2593 C 0.32108 0.06977 0.75854 0.0
C2594 C 0.33867 0.07071 0.77152 0.0
C2595 C 0.34785 0.067 0.7726 0.0
C2596 C 0.34429 0.05459 0.77367 0.0
C2597 C 0.353 0.05116 0.77446 0.0
C2598 C 0.36531 0.06007 0.77433 0.0
C2599 C 0.36893 0.07243 0.77348 0.0
C2600 C 0.36025 0.07591 0.77267 0.0
C2601 C 0.31725 0.08941 0.82344 0.0
C2602 C 0.32694 0.10106 0.82798 0.0
C2603 C 0.31814 0.08315 0.80934 0.0
C2604 C 0.32872 0.0884 0.79945 0.0
C2605 C 0.33845 0.09997 0.80395 0.0
C2606 C 0.33755 0.10628 0.81806 0.0
C2607 C 0.32954 0.08165 0.7845 0.0
C2608 C 0.33852 0.0785 0.78423 0.0
C2609 C 0.32088 0.07747 0.77128 0.0
C2610 C 0.31159 0.08107 0.77039 0.0
C2611 C 0.31503 0.09348 0.7708 0.0
C2612 C 0.30624 0.09682 0.77013 0.0
C2613 C 0.29399 0.08783 0.76894 0.0
C2614 C 0.2905 0.07548 0.76838 0.0
C2615 C 0.29925 0.0721 0.76906 0.0
H2616 H 0.2872 0.09043 0.76842 0.0
H2617 H 0.37205 0.0574 0.77494 0.0
H2618 H 0.94248 0.29902 0.72547 0.0
H2619 H 0.93342 0.28437 0.74834 0.0
H2620 H 0.96071 0.27451 0.74213 0.0
H2621 H 0.96975 0.28903 0.71878 0.0
H2622 H 0.93892 0.25456 0.74532 0.0
H2623 H 0.96144 0.29171 0.7764 0.0
H2624 H 0.969 0.31327 0.78395 0.0
H2625 H 0.93287 0.30455 0.7963 0.0
H2626 H 0.92505 0.28293 0.78861 0.0
H2627 H 0.91999 0.22154 0.8245 0.0
H2628 H 0.93188 0.23576 0.8019 0.0
H2629 H 0.905 0.2462 0.79726 0.0
H2630 H 0.89286 0.23175 0.81941 0.0
H2631 H 0.92883 0.2661 0.80088 0.0
H2632 H 0.90665 0.22877 0.76759 0.0
H2633 H 0.89985 0.20733 0.76016 0.0
H2634 H 0.93676 0.21675 0.7529 0.0
H2635 H 0.9438 0.23823 0.76053 0.0
C2636 C 0.94665 0.29383 0.72898 0.0
C2637 C 0.95688 0.29525 0.72026 0.0
C2638 C 0.94147 0.28547 0.74215 0.0
C2639 C 0.94647 0.27845 0.74712 0.0
C2640 C 0.95671 0.27985 0.73853 0.0
C2641 C 0.96189 0.2882 0.72524 0.0
C2642 C 0.94071 0.26943 0.76097 0.0
C2643 C 0.93693 0.25713 0.75759 0.0
C2644 C 0.93799 0.27274 0.77693 0.0
C2645 C 0.94265 0.28571 0.7818 0.0
C2646 C 0.95509 0.2944 0.78063 0.0
C2647 C 0.95943 0.30663 0.78494 0.0
C2648 C 0.95142 0.31029 0.79056 0.0
C2649 C 0.93906 0.30171 0.79194 0.0
C2650 C 0.93468 0.28945 0.78763 0.0
C2651 C 0.91646 0.22666 0.81843 0.0
C2652 C 0.90547 0.22552 0.82386 0.0
C2653 C 0.92332 0.23484 0.80559 0.0
C2654 C 0.91933 0.24205 0.79798 0.0
C2655 C 0.90828 0.24077 0.80309 0.0
C2656 C 0.90137 0.23254 0.8158 0.0
C2657 C 0.92682 0.25124 0.78506 0.0
C2658 C 0.93095 0.26358 0.78867 0.0
C2659 C 0.92998 0.24798 0.76943 0.0
C2660 C 0.92575 0.23507 0.76483 0.0
C2661 C 0.91332 0.22625 0.76457 0.0
C2662 C 0.90942 0.21409 0.76029 0.0
C2663 C 0.91787 0.21067 0.75612 0.0
C2664 C 0.93023 0.21941 0.75617 0.0
C2665 C 0.93418 0.23158 0.76046 0.0
H2666 H 0.91483 0.20126 0.7528 0.0
H2667 H 0.95479 0.31978 0.79388 0.0
H2668 H 0.71918 0.68347 0.71678 0.0
H2669 H 0.73444 0.69022 0.73932 0.0
H2670 H 0.71901 0.6529 0.75542 0.0
H2671 H 0.70371 0.64611 0.73326 0.0
H2672 H 0.72443 0.66795 0.78224 0.0
H2673 H 0.74446 0.66703 0.73017 0.0
H2674 H 0.75162 0.67294 0.70071 0.0
H2675 H 0.7727 0.71061 0.71636 0.0
H2676 H 0.76553 0.70493 0.74589 0.0
H2677 H 0.76954 0.6665 0.82909 0.0
H2678 H 0.75544 0.66366 0.80646 0.0
H2679 H 0.77541 0.70241 0.79699 0.0
H2680 H 0.7899 0.7053 0.81926 0.0
H2681 H 0.76811 0.68934 0.76749 0.0
H2682 H 0.74968 0.69019 0.81995 0.0
H2683 H 0.74272 0.68443 0.84949 0.0
H2684 H 0.71863 0.64732 0.83333 0.0
H2685 H 0.72558 0.65282 0.80371 0.0
C2686 C 0.71898 0.67671 0.7252 0.0
C2687 C 0.71024 0.66423 0.72311 0.0
C2688 C 0.72774 0.68058 0.73803 0.0
C2689 C 0.72795 0.67205 0.74893 0.0
C2690 C 0.71904 0.65966 0.74715 0.0
C2691 C 0.7103 0.65579 0.7344 0.0
C2692 C 0.73752 0.67582 0.76204 0.0
C2693 C 0.73397 0.67256 0.77899 0.0
C2694 C 0.75001 0.68217 0.7579 0.0
C2695 C 0.75435 0.68557 0.74018 0.0
C2696 C 0.75055 0.67658 0.7273 0.0
C2697 C 0.75462 0.67989 0.7106 0.0
C2698 C 0.76258 0.69214 0.70666 0.0
C2699 C 0.76651 0.70112 0.71942 0.0
C2700 C 0.76246 0.69786 0.73614 0.0
C2701 C 0.77112 0.67441 0.82198 0.0
C2702 C 0.78085 0.68614 0.82606 0.0
C2703 C 0.76294 0.67279 0.80917 0.0
C2704 C 0.76423 0.68286 0.80026 0.0
C2705 C 0.77419 0.69453 0.8038 0.0
C2706 C 0.78241 0.69616 0.81661 0.0
C2707 C 0.75497 0.68116 0.78758 0.0
C2708 C 0.75858 0.68485 0.77076 0.0
C2709 C 0.74252 0.67524 0.79184 0.0
C2710 C 0.73822 0.67191 0.80962 0.0
C2711 C 0.74296 0.68079 0.82271 0.0
C2712 C 0.73901 0.67757 0.83947 0.0
C2713 C 0.73026 0.66551 0.84329 0.0
C2714 C 0.72541 0.65665 0.83035 0.0
C2715 C 0.72935 0.65982 0.81357 0.0
H2716 H 0.72721 0.66303 0.85628 0.0
H2717 H 0.76572 0.69469 0.69372 0.0
H2718 H 0.70689 0.67167 0.62917 0.0
H2719 H 0.71918 0.673 0.60422 0.0
H2720 H 0.72735 0.64755 0.62724 0.0
H2721 H 0.71483 0.64585 0.65182 0.0
H2722 H 0.74788 0.67446 0.60838 0.0
H2723 H 0.7112 0.63228 0.60438 0.0
H2724 H 0.68895 0.61888 0.60455 0.0
H2725 H 0.68601 0.64023 0.56514 0.0
H2726 H 0.70825 0.65385 0.56495 0.0
H2727 H 0.77427 0.65414 0.54701 0.0
H2728 H 0.76346 0.65654 0.5711 0.0
H2729 H 0.73909 0.65918 0.53628 0.0
H2730 H 0.74958 0.65623 0.51228 0.0
H2731 H 0.72653 0.64568 0.56043 0.0
H2732 H 0.76258 0.6847 0.55884 0.0
H2733 H 0.78453 0.69954 0.55795 0.0
H2734 H 0.78893 0.68711 0.60637 0.0
H2735 H 0.76702 0.67206 0.60744 0.0
C2736 C 0.71139 0.66645 0.62893 0.0
C2737 C 0.70983 0.65858 0.64233 0.0
C2738 C 0.71839 0.66722 0.61473 0.0
C2739 C 0.7241 0.66034 0.61398 0.0
C2740 C 0.72297 0.65289 0.62764 0.0
C2741 C 0.71578 0.6519 0.6416 0.0
C2742 C 0.73072 0.66032 0.59858 0.0
C2743 C 0.74329 0.66816 0.59788 0.0
C2744 C 0.72462 0.65236 0.58478 0.0
C2745 C 0.71132 0.64414 0.5848 0.0
C2746 C 0.70578 0.63417 0.59588 0.0
C2747 C 0.69319 0.62652 0.59595 0.0
C2748 C 0.68606 0.62872 0.5849 0.0
C2749 C 0.69153 0.63855 0.57372 0.0
C2750 C 0.70412 0.64623 0.57362 0.0
C2751 C 0.76662 0.65527 0.54457 0.0
C2752 C 0.76273 0.65498 0.52784 0.0
C2753 C 0.76049 0.65672 0.5583 0.0
C2754 C 0.75056 0.65826 0.55555 0.0
C2755 C 0.74671 0.65801 0.53878 0.0
C2756 C 0.75269 0.65632 0.52508 0.0
C2757 C 0.74392 0.65971 0.57012 0.0
C2758 C 0.73126 0.65212 0.57074 0.0
C2759 C 0.74998 0.6681 0.58369 0.0
C2760 C 0.76316 0.67718 0.58314 0.0
C2761 C 0.76824 0.68507 0.56924 0.0
C2762 C 0.78067 0.69353 0.56872 0.0
C2763 C 0.78812 0.69425 0.58208 0.0
C2764 C 0.78315 0.68653 0.59602 0.0
C2765 C 0.77072 0.67804 0.5966 0.0
H2766 H 0.79775 0.70081 0.58165 0.0
H2767 H 0.67632 0.62279 0.58497 0.0
H2768 H 0.31156 0.03791 0.6308 0.0
H2769 H 0.31716 0.05332 0.60904 0.0
H2770 H 0.35493 0.06582 0.61702 0.0
H2771 H 0.34941 0.05051 0.63916 0.0
H2772 H 0.35119 0.08476 0.61546 0.0
H2773 H 0.34002 0.04893 0.58159 0.0
H2774 H 0.32685 0.02751 0.57219 0.0
H2775 H 0.29906 0.03505 0.55862 0.0
H2776 H 0.312 0.05647 0.56816 0.0
H2777 H 0.37035 0.12302 0.54264 0.0
H2778 H 0.36662 0.108 0.56432 0.0
H2779 H 0.32813 0.09098 0.55616 0.0
H2780 H 0.3318 0.1053 0.53352 0.0
H2781 H 0.33346 0.07423 0.5575 0.0
H2782 H 0.34399 0.10967 0.59258 0.0
H2783 H 0.35686 0.13103 0.60239 0.0
H2784 H 0.38548 0.12428 0.61402 0.0
H2785 H 0.37283 0.10291 0.60408 0.0
C2786 C 0.32107 0.04385 0.62789 0.0
C2787 C 0.33003 0.04292 0.63676 0.0
C2788 C 0.32426 0.05265 0.61537 0.0
C2789 C 0.33646 0.06064 0.61125 0.0
C2790 C 0.34545 0.05973 0.61998 0.0
C2791 C 0.34227 0.05093 0.63258 0.0
C2792 C 0.33977 0.07013 0.59813 0.0
C2793 C 0.34747 0.08246 0.60269 0.0
C2794 C 0.33471 0.06715 0.58159 0.0
C2795 C 0.32695 0.05429 0.57571 0.0
C2796 C 0.33107 0.046 0.57671 0.0
C2797 C 0.32365 0.03386 0.57134 0.0
C2798 C 0.31212 0.02992 0.56485 0.0
C2799 C 0.30799 0.03812 0.56367 0.0
C2800 C 0.31537 0.05026 0.56903 0.0
C2801 C 0.36108 0.11605 0.54535 0.0
C2802 C 0.35139 0.11541 0.53617 0.0
C2803 C 0.35895 0.10755 0.55797 0.0
C2804 C 0.34708 0.09839 0.56206 0.0
C2805 C 0.33739 0.09794 0.55327 0.0
C2806 C 0.33951 0.10629 0.54044 0.0
C2807 C 0.34471 0.08893 0.57489 0.0
C2808 C 0.33722 0.07657 0.57025 0.0
C2809 C 0.34992 0.0919 0.59137 0.0
C2810 C 0.3575 0.10473 0.59743 0.0
C2811 C 0.35305 0.11277 0.59712 0.0
C2812 C 0.3603 0.12487 0.60272 0.0
C2813 C 0.37199 0.12902 0.60878 0.0
C2814 C 0.37643 0.12106 0.6093 0.0
C2815 C 0.36922 0.10895 0.6037 0.0
H2816 H 0.37759 0.1384 0.61311 0.0
H2817 H 0.30639 0.02052 0.56071 0.0
H2818 H 0.937 0.29115 0.64344 0.0
H2819 H 0.92667 0.27646 0.62047 0.0
H2820 H 0.95938 0.27623 0.60887 0.0
H2821 H 0.96989 0.291 0.63214 0.0
H2822 H 0.94769 0.27906 0.58007 0.0
H2823 H 0.93833 0.25205 0.62629 0.0
H2824 H 0.93186 0.24438 0.65537 0.0
H2825 H 0.8968 0.23947 0.64579 0.0
H2826 H 0.90312 0.24729 0.61672 0.0
H2827 H 0.89599 0.21817 0.53841 0.0
H2828 H 0.9109 0.22869 0.56117 0.0
H2829 H 0.91109 0.26196 0.5509 0.0
H2830 H 0.8965 0.25165 0.52799 0.0
H2831 H 0.90952 0.23977 0.59021 0.0
H2832 H 0.9391 0.28611 0.55599 0.0
H2833 H 0.94555 0.29348 0.52677 0.0
H2834 H 0.94107 0.25881 0.51209 0.0
H2835 H 0.93477 0.25129 0.54128 0.0
C2836 C 0.94205 0.28801 0.63605 0.0
C2837 C 0.9543 0.29228 0.63961 0.0
C2838 C 0.93609 0.27954 0.62299 0.0
C2839 C 0.94224 0.2752 0.6131 0.0
C2840 C 0.95448 0.27946 0.61646 0.0
C2841 C 0.96045 0.28785 0.62975 0.0
C2842 C 0.93577 0.2665 0.59896 0.0
C2843 C 0.93943 0.27039 0.58224 0.0
C2844 C 0.92513 0.25511 0.60188 0.0
C2845 C 0.92123 0.25032 0.61933 0.0
C2846 C 0.92927 0.24942 0.63041 0.0
C2847 C 0.92562 0.24503 0.6469 0.0
C2848 C 0.91393 0.24145 0.65243 0.0
C2849 C 0.90585 0.24224 0.64148 0.0
C2850 C 0.90946 0.24663 0.62499 0.0
C2851 C 0.89927 0.22775 0.54097 0.0
C2852 C 0.89505 0.23408 0.53144 0.0
C2853 C 0.90774 0.23371 0.55399 0.0
C2854 C 0.91221 0.24613 0.55754 0.0
C2855 C 0.9079 0.25242 0.54818 0.0
C2856 C 0.89944 0.24647 0.53524 0.0
C2857 C 0.92115 0.25257 0.57132 0.0
C2858 C 0.91793 0.24828 0.58799 0.0
C2859 C 0.93226 0.26354 0.56833 0.0
C2860 C 0.9364 0.26812 0.55084 0.0
C2861 C 0.93958 0.28009 0.54657 0.0
C2862 C 0.94319 0.28428 0.53 0.0
C2863 C 0.94369 0.27661 0.51757 0.0
C2864 C 0.94064 0.26473 0.52172 0.0
C2865 C 0.93704 0.2605 0.53828 0.0
H2866 H 0.94645 0.27986 0.50473 0.0
H2867 H 0.91112 0.23806 0.6652 0.0
H2868 H 0.36101 0.29489 0.64717 0.0
H2869 H 0.35914 0.28142 0.62368 0.0
H2870 H 0.32692 0.28058 0.60649 0.0
H2871 H 0.32851 0.29383 0.63056 0.0
H2872 H 0.32422 0.25853 0.60328 0.0
H2873 H 0.35465 0.29872 0.58683 0.0
H2874 H 0.37316 0.31896 0.59005 0.0
H2875 H 0.39445 0.30196 0.59469 0.0
H2876 H 0.37604 0.2816 0.59172 0.0
H2877 H 0.32847 0.2364 0.52032 0.0
H2878 H 0.3271 0.24798 0.54438 0.0
H2879 H 0.3575 0.24855 0.56819 0.0
H2880 H 0.35884 0.23682 0.54428 0.0
H2881 H 0.36024 0.2712 0.56666 0.0
H2882 H 0.32909 0.23077 0.58357 0.0
H2883 H 0.31035 0.21081 0.57961 0.0
H2884 H 0.29014 0.22877 0.57275 0.0
H2885 H 0.3088 0.24886 0.57644 0.0
C2886 C 0.35352 0.29187 0.6384 0.0
C2887 C 0.345 0.29557 0.64059 0.0
C2888 C 0.35248 0.28418 0.62493 0.0
C2889 C 0.34307 0.28023 0.61305 0.0
C2890 C 0.33431 0.28359 0.61544 0.0
C2891 C 0.33524 0.29118 0.62915 0.0
C2892 C 0.34259 0.27273 0.59811 0.0
C2893 C 0.33202 0.26139 0.5951 0.0
C2894 C 0.35282 0.27638 0.58753 0.0
C2895 C 0.36394 0.28863 0.58917 0.0
C2896 C 0.36327 0.29929 0.58864 0.0
C2897 C 0.37375 0.31079 0.59041 0.0
C2898 C 0.38497 0.31174 0.59261 0.0
C2899 C 0.38575 0.3012 0.59299 0.0
C2900 C 0.37529 0.28968 0.59124 0.0
C2901 C 0.33471 0.23876 0.53084 0.0
C2902 C 0.34378 0.23569 0.53037 0.0
C2903 C 0.33393 0.24541 0.54456 0.0
C2904 C 0.34217 0.24909 0.55809 0.0
C2905 C 0.35107 0.24584 0.55783 0.0
C2906 C 0.35185 0.23917 0.54414 0.0
C2907 C 0.34198 0.25691 0.57207 0.0
C2908 C 0.35242 0.26837 0.57482 0.0
C2909 C 0.3316 0.2534 0.58224 0.0
C2910 C 0.32037 0.24133 0.58011 0.0
C2911 C 0.32067 0.23047 0.58108 0.0
C2912 C 0.31005 0.21913 0.57891 0.0
C2913 C 0.29906 0.21852 0.57588 0.0
C2914 C 0.29866 0.22926 0.57507 0.0
C2915 C 0.30925 0.24062 0.57722 0.0
H2916 H 0.29086 0.20973 0.57421 0.0
H2917 H 0.39308 0.32065 0.59398 0.0
H2918 H 0.73103 0.03807 0.63784 0.0
H2919 H 0.74143 0.05321 0.61571 0.0
H2920 H 0.71212 0.06037 0.61458 0.0
H2921 H 0.70159 0.04522 0.63684 0.0
H2922 H 0.72067 0.05849 0.58188 0.0
H2923 H 0.73618 0.0795 0.63516 0.0
H2924 H 0.74505 0.08234 0.66373 0.0
H2925 H 0.77674 0.08434 0.64201 0.0
H2926 H 0.76793 0.08126 0.61329 0.0
H2927 H 0.75104 0.11278 0.5349 0.0
H2928 H 0.74017 0.09843 0.55765 0.0
H2929 H 0.77068 0.09368 0.56538 0.0
H2930 H 0.78191 0.10858 0.54317 0.0
H2931 H 0.76113 0.09445 0.59509 0.0
H2932 H 0.74573 0.07285 0.54214 0.0
H2933 H 0.73688 0.06936 0.51342 0.0
H2934 H 0.70522 0.06795 0.53419 0.0
H2935 H 0.71397 0.07161 0.56302 0.0
C2936 C 0.72671 0.04277 0.63283 0.0
C2937 C 0.71549 0.04047 0.63923 0.0
C2938 C 0.7327 0.05145 0.62021 0.0
C2939 C 0.7276 0.05798 0.61366 0.0
C2940 C 0.71621 0.05543 0.61952 0.0
C2941 C 0.71023 0.0468 0.63228 0.0
C2942 C 0.73437 0.06774 0.60108 0.0
C2943 C 0.72943 0.06645 0.58481 0.0
C2944 C 0.74592 0.07796 0.60485 0.0
C2945 C 0.75134 0.08003 0.62208 0.0
C2946 C 0.745 0.08046 0.63648 0.0
C2947 C 0.75002 0.08212 0.65271 0.0
C2948 C 0.76145 0.08351 0.6547 0.0
C2949 C 0.76789 0.08326 0.64045 0.0
C2950 C 0.76288 0.08155 0.62419 0.0
C2951 C 0.75558 0.10892 0.54165 0.0
C2952 C 0.76737 0.11184 0.53712 0.0
C2953 C 0.74927 0.10057 0.55453 0.0
C2954 C 0.75451 0.09478 0.56299 0.0
C2955 C 0.76642 0.09797 0.55893 0.0
C2956 C 0.77279 0.10641 0.54613 0.0
C2957 C 0.74747 0.08521 0.57578 0.0
C2958 C 0.75235 0.08653 0.59212 0.0
C2959 C 0.7359 0.07496 0.57203 0.0
C2960 C 0.73056 0.07263 0.55472 0.0
C2961 C 0.73691 0.07188 0.54057 0.0
C2962 C 0.73191 0.06986 0.52427 0.0
C2963 C 0.7205 0.06846 0.52197 0.0
C2964 C 0.71406 0.06905 0.53598 0.0
C2965 C 0.71903 0.07109 0.55231 0.0
H2966 H 0.71665 0.06691 0.50934 0.0
H2967 H 0.76533 0.08479 0.66728 0.0
H2968 H 0.94339 0.66146 0.65296 0.0
H2969 H 0.92835 0.6563 0.63063 0.0
H2970 H 0.95703 0.6777 0.59491 0.0
H2971 H 0.97195 0.68366 0.61771 0.0
H2972 H 0.94127 0.6826 0.58961 0.0
H2973 H 0.93842 0.64395 0.5957 0.0
H2974 H 0.9359 0.62585 0.61051 0.0
H2975 H 0.90035 0.61681 0.62685 0.0
H2976 H 0.90272 0.63495 0.61231 0.0
H2977 H 0.90335 0.65217 0.51577 0.0
H2978 H 0.91739 0.65574 0.53911 0.0
H2979 H 0.89318 0.65853 0.57458 0.0
H2980 H 0.87919 0.65526 0.55114 0.0
H2981 H 0.90595 0.64099 0.57957 0.0
H2982 H 0.91123 0.68207 0.57293 0.0
H2983 H 0.91473 0.69924 0.55479 0.0
H2984 H 0.94745 0.70213 0.53563 0.0
H2985 H 0.94402 0.68484 0.55348 0.0
C2986 C 0.94644 0.66491 0.64027 0.0
C2987 C 0.95879 0.67289 0.63697 0.0
C2988 C 0.93785 0.66191 0.62744 0.0
C2989 C 0.94148 0.66642 0.61087 0.0
C2990 C 0.95392 0.67412 0.60753 0.0
C2991 C 0.96247 0.67747 0.62051 0.0
C2992 C 0.93235 0.66371 0.5973 0.0
C2993 C 0.93365 0.67344 0.58742 0.0
C2994 C 0.92226 0.6518 0.5943 0.0
C2995 C 0.9208 0.64088 0.60305 0.0
C2996 C 0.9301 0.63815 0.60255 0.0
C2997 C 0.92869 0.62788 0.61088 0.0
C2998 C 0.91799 0.62021 0.61965 0.0
C2999 C 0.90865 0.62277 0.62007 0.0
C3000 C 0.91001 0.63304 0.61177 0.0
C3001 C 0.90101 0.65349 0.52857 0.0
C3002 C 0.8902 0.65343 0.53172 0.0
C3003 C 0.90902 0.65554 0.54183 0.0
C3004 C 0.90627 0.65737 0.55848 0.0
C3005 C 0.8954 0.65712 0.56176 0.0
C3006 C 0.88748 0.65531 0.54842 0.0
C3007 C 0.91498 0.65985 0.57232 0.0
C3008 C 0.9136 0.65009 0.58205 0.0
C3009 C 0.92517 0.67162 0.57489 0.0
C3010 C 0.9273 0.68209 0.56437 0.0
C3011 C 0.9191 0.68629 0.56472 0.0
C3012 C 0.92109 0.69606 0.55452 0.0
C3013 C 0.93129 0.70175 0.54402 0.0
C3014 C 0.93954 0.6977 0.54375 0.0
C3015 C 0.93759 0.68793 0.5539 0.0
H3016 H 0.93281 0.7093 0.53614 0.0
H3017 H 0.91692 0.61226 0.62609 0.0
H3018 H 0.95203 0.6906 0.70533 0.0
H3019 H 0.93915 0.68946 0.72901 0.0
H3020 H 0.94925 0.6669 0.75647 0.0
H3021 H 0.96161 0.66742 0.7322 0.0
H3022 H 0.92704 0.6592 0.76287 0.0
H3023 H 0.9624 0.69894 0.76428 0.0
H3024 H 0.97806 0.71894 0.75321 0.0
H3025 H 0.95095 0.72817 0.74316 0.0
H3026 H 0.9351 0.70815 0.75397 0.0
H3027 H 0.91623 0.67851 0.84552 0.0
H3028 H 0.92657 0.67649 0.82039 0.0
H3029 H 0.90317 0.68224 0.78777 0.0
H3030 H 0.89254 0.6839 0.8129 0.0
H3031 H 0.93183 0.69819 0.78465 0.0
H3032 H 0.89655 0.65703 0.78476 0.0
H3033 H 0.88242 0.63745 0.79843 0.0
H3034 H 0.91186 0.63172 0.80898 0.0
H3035 H 0.9262 0.65138 0.7956 0.0
C3036 C 0.95145 0.68534 0.7164 0.0
C3037 C 0.95792 0.67922 0.71706 0.0
C3038 C 0.94413 0.68475 0.72997 0.0
C3039 C 0.94349 0.67841 0.74479 0.0
C3040 C 0.94965 0.67193 0.74525 0.0
C3041 C 0.95673 0.67225 0.73142 0.0
C3042 C 0.9366 0.67877 0.75985 0.0
C3043 C 0.92821 0.66776 0.76769 0.0
C3044 C 0.93804 0.68992 0.76623 0.0
C3045 C 0.94755 0.702 0.75979 0.0
C3046 C 0.95977 0.7052 0.75961 0.0
C3047 C 0.96868 0.71655 0.75339 0.0
C3048 C 0.9655 0.72481 0.74745 0.0
C3049 C 0.9534 0.72175 0.74775 0.0
C3050 C 0.94445 0.71041 0.75393 0.0
C3051 C 0.91327 0.67926 0.83296 0.0
C3052 C 0.90364 0.68137 0.83104 0.0
C3053 C 0.91913 0.67807 0.81868 0.0
C3054 C 0.91557 0.67919 0.80232 0.0
C3055 C 0.90597 0.68131 0.80035 0.0
C3056 C 0.89992 0.68223 0.81463 0.0
C3057 C 0.92227 0.67867 0.78732 0.0
C3058 C 0.93068 0.68967 0.77965 0.0
C3059 C 0.92108 0.66758 0.78142 0.0
C3060 C 0.91246 0.65574 0.78936 0.0
C3061 C 0.90003 0.65166 0.79016 0.0
C3062 C 0.89198 0.64053 0.79781 0.0
C3063 C 0.89624 0.63336 0.80462 0.0
C3064 C 0.90857 0.63729 0.80373 0.0
C3065 C 0.91666 0.64842 0.7961 0.0
H3066 H 0.89 0.62475 0.81054 0.0
H3067 H 0.97241 0.73359 0.74264 0.0
H3068 H 0.32308 0.29227 0.72368 0.0
H3069 H 0.3172 0.27629 0.74513 0.0
H3070 H 0.35182 0.27892 0.73941 0.0
H3071 H 0.35785 0.29495 0.71845 0.0
H3072 H 0.32996 0.25403 0.7375 0.0
H3073 H 0.34933 0.29178 0.77158 0.0
H3074 H 0.35118 0.31097 0.7822 0.0
H3075 H 0.31493 0.29096 0.80186 0.0
H3076 H 0.31282 0.27165 0.79112 0.0
H3077 H 0.34396 0.22799 0.8046 0.0
H3078 H 0.34263 0.24037 0.78234 0.0
H3079 H 0.31228 0.23918 0.80801 0.0
H3080 H 0.31396 0.22729 0.83083 0.0
H3081 H 0.32742 0.26148 0.79908 0.0
H3082 H 0.30866 0.22356 0.76984 0.0
H3083 H 0.30566 0.20393 0.75907 0.0
H3084 H 0.33835 0.22298 0.72975 0.0
H3085 H 0.34166 0.24273 0.74053 0.0
C3086 C 0.32944 0.28947 0.72708 0.0
C3087 C 0.34095 0.29492 0.71943 0.0
C3088 C 0.32607 0.28036 0.73929 0.0
C3089 C 0.33407 0.27644 0.74373 0.0
C3090 C 0.34551 0.28182 0.73607 0.0
C3091 C 0.34896 0.29104 0.72418 0.0
C3092 C 0.33075 0.26677 0.75644 0.0
C3093 C 0.32941 0.25562 0.75098 0.0
C3094 C 0.32957 0.26872 0.7739 0.0
C3095 C 0.33086 0.28031 0.78034 0.0
C3096 C 0.34171 0.29149 0.77801 0.0
C3097 C 0.34282 0.30239 0.78409 0.0
C3098 C 0.33316 0.30219 0.79264 0.0
C3099 C 0.32239 0.2911 0.79519 0.0
C3100 C 0.32124 0.28018 0.78911 0.0
C3101 C 0.33699 0.23034 0.80553 0.0
C3102 C 0.3291 0.22667 0.81956 0.0
C3103 C 0.33613 0.2373 0.79266 0.0
C3104 C 0.32725 0.2406 0.79336 0.0
C3105 C 0.31917 0.23671 0.80714 0.0
C3106 C 0.32007 0.2298 0.8201 0.0
C3107 C 0.32701 0.24878 0.78026 0.0
C3108 C 0.32768 0.25969 0.7856 0.0
C3109 C 0.32736 0.2465 0.76264 0.0
C3110 C 0.32544 0.23464 0.75609 0.0
C3111 C 0.31526 0.22357 0.76119 0.0
C3112 C 0.3135 0.21242 0.75507 0.0
C3113 C 0.32182 0.21221 0.74376 0.0
C3114 C 0.33191 0.22316 0.73852 0.0
C3115 C 0.33373 0.23434 0.74462 0.0
H3116 H 0.32044 0.20357 0.73903 0.0
H3117 H 0.33404 0.31063 0.79735 0.0
H3118 H 0.70837 0.05432 0.71244 0.0
H3119 H 0.71934 0.06956 0.73492 0.0
H3120 H 0.73299 0.04736 0.75409 0.0
H3121 H 0.7222 0.03219 0.73163 0.0
H3122 H 0.72423 0.05671 0.77958 0.0
H3123 H 0.75073 0.07035 0.73077 0.0
H3124 H 0.75646 0.07678 0.70105 0.0
H3125 H 0.75024 0.10652 0.70921 0.0
H3126 H 0.74427 0.10013 0.73892 0.0
H3127 H 0.77318 0.09631 0.83159 0.0
H3128 H 0.76088 0.0825 0.80867 0.0
H3129 H 0.75267 0.10938 0.79113 0.0
H3130 H 0.76533 0.12348 0.81382 0.0
H3131 H 0.75741 0.09838 0.76473 0.0
H3132 H 0.73207 0.08566 0.81387 0.0
H3133 H 0.72654 0.07951 0.84371 0.0
H3134 H 0.73027 0.04825 0.83507 0.0
H3135 H 0.73601 0.05431 0.80522 0.0
C3136 C 0.71362 0.05264 0.72154 0.0
C3137 C 0.71446 0.04207 0.72022 0.0
C3138 C 0.71992 0.06137 0.7343 0.0
C3139 C 0.72703 0.0596 0.74605 0.0
C3140 C 0.72756 0.04889 0.74511 0.0
C3141 C 0.72142 0.04025 0.73224 0.0
C3142 C 0.73413 0.06898 0.7592 0.0
C3143 C 0.73155 0.06579 0.77636 0.0
C3144 C 0.74345 0.08092 0.75493 0.0
C3145 C 0.7469 0.08467 0.73701 0.0
C3146 C 0.75044 0.07817 0.72617 0.0
C3147 C 0.75377 0.08183 0.70934 0.0
C3148 C 0.75369 0.09204 0.70324 0.0
C3149 C 0.75028 0.0986 0.71395 0.0
C3150 C 0.74692 0.09496 0.73078 0.0
C3151 C 0.76895 0.0994 0.8227 0.0
C3152 C 0.77025 0.11101 0.82454 0.0
C3153 C 0.7618 0.09143 0.80971 0.0
C3154 C 0.7557 0.09484 0.79837 0.0
C3155 C 0.75724 0.10654 0.79983 0.0
C3156 C 0.76441 0.11455 0.81285 0.0
C3157 C 0.74763 0.08606 0.78515 0.0
C3158 C 0.75002 0.08935 0.76798 0.0
C3159 C 0.73808 0.07422 0.78941 0.0
C3160 C 0.73457 0.0705 0.80734 0.0
C3161 C 0.73181 0.07752 0.81836 0.0
C3162 C 0.72862 0.07405 0.83528 0.0
C3163 C 0.72808 0.06351 0.84129 0.0
C3164 C 0.7307 0.05641 0.83039 0.0
C3165 C 0.73391 0.05986 0.81347 0.0
H3166 H 0.72561 0.06083 0.85439 0.0
H3167 H 0.75633 0.0949 0.69025 0.0
H3168 H 0.02013 0.34057 0.048 0.0
H3169 H 0.03756 0.34024 0.05926 0.0
H3170 H 0.0615 0.37165 0.0292 0.0
H3171 H 0.04397 0.37196 0.01763 0.0
H3172 H 0.06795 0.35438 0.02774 0.0
H3173 H 0.05927 0.37518 0.07099 0.0
H3174 H 0.04641 0.37852 0.09097 0.0
H3175 H 0.03763 0.34567 0.11728 0.0
H3176 H 0.05027 0.34197 0.09717 0.0
H3177 H 0.10902 0.35785 0.10477 0.0
H3178 H 0.09692 0.36463 0.08987 0.0
H3179 H 0.0814 0.33208 0.05836 0.0
H3180 H 0.09383 0.3255 0.07271 0.0
H3181 H 0.07338 0.354 0.09011 0.0
H3182 H 0.07206 0.33677 0.02076 0.0
H3183 H 0.08568 0.33475 0.00049 0.0
H3184 H 0.11661 0.36363 0.02648 0.0
H3185 H 0.10318 0.36594 0.04676 0.0
C3186 C 0.02909 0.34745 0.04379 0.0
C3187 C 0.03067 0.35633 0.03197 0.0
C3188 C 0.03906 0.34727 0.05029 0.0
C3189 C 0.05085 0.356 0.04522 0.0
C3190 C 0.05248 0.36484 0.0333 0.0
C3191 C 0.04247 0.36503 0.02677 0.0
C3192 C 0.06137 0.35576 0.05243 0.0
C3193 C 0.0692 0.35437 0.04137 0.0
C3194 C 0.06316 0.35602 0.07021 0.0
C3195 C 0.05566 0.35826 0.0825 0.0
C3196 C 0.05454 0.36862 0.08097 0.0
C3197 C 0.04729 0.37058 0.09233 0.0
C3198 C 0.0412 0.36232 0.10541 0.0
C3199 C 0.04236 0.35207 0.10715 0.0
C3200 C 0.04957 0.35003 0.09577 0.0
C3201 C 0.1033 0.35231 0.09433 0.0
C3202 C 0.10238 0.34111 0.08996 0.0
C3203 C 0.0963 0.35614 0.08593 0.0
C3204 C 0.08826 0.3489 0.07296 0.0
C3205 C 0.08764 0.33793 0.06816 0.0
C3206 C 0.09467 0.33411 0.07651 0.0
C3207 C 0.07978 0.35224 0.06544 0.0
C3208 C 0.07227 0.35417 0.07647 0.0
C3209 C 0.07844 0.35267 0.04764 0.0
C3210 C 0.0866 0.35146 0.03536 0.0
C3211 C 0.08176 0.34273 0.0221 0.0
C3212 C 0.08945 0.34153 0.01062 0.0
C3213 C 0.102 0.34904 0.01222 0.0
C3214 C 0.10689 0.35779 0.02529 0.0
C3215 C 0.09924 0.35904 0.03679 0.0
H3216 H 0.10794 0.34808 0.00333 0.0
H3217 H 0.03559 0.36387 0.1142 0.0
H3218 H 0.6394 0.6764 0.02671 0.0
H3219 H 0.64305 0.69525 0.04072 0.0
H3220 H 0.67619 0.70043 0.06215 0.0
H3221 H 0.67236 0.68136 0.04863 0.0
H3222 H 0.66488 0.70606 0.08495 0.0
H3223 H 0.67578 0.71619 0.0263 0.0
H3224 H 0.67257 0.71402 0.99525 0.0
H3225 H 0.64303 0.72046 0.00057 0.0
H3226 H 0.64597 0.72251 0.03169 0.0
H3227 H 0.69434 0.76905 0.10468 0.0
H3228 H 0.68899 0.74969 0.09069 0.0
H3229 H 0.65422 0.74441 0.07685 0.0
H3230 H 0.65958 0.76393 0.09069 0.0
H3231 H 0.6654 0.73867 0.0505 0.0
H3232 H 0.65559 0.72958 0.10958 0.0
H3233 H 0.65961 0.73224 0.14043 0.0
H3234 H 0.6881 0.72433 0.13398 0.0
H3235 H 0.68438 0.72183 0.10304 0.0
C3236 C 0.64743 0.68153 0.03449 0.0
C3237 C 0.65564 0.67746 0.0365 0.0
C3238 C 0.64954 0.69233 0.04241 0.0
C3239 C 0.66002 0.69939 0.05223 0.0
C3240 C 0.66806 0.69516 0.0546 0.0
C3241 C 0.66588 0.68427 0.04685 0.0
C3242 C 0.6627 0.71125 0.05986 0.0
C3243 C 0.66512 0.71323 0.07736 0.0
C3244 C 0.66277 0.72054 0.05005 0.0
C3245 C 0.66102 0.71937 0.03133 0.0
C3246 C 0.66855 0.71705 0.02086 0.0
C3247 C 0.66678 0.71586 0.00325 0.0
C3248 C 0.65758 0.71707 0.99595 0.0
C3249 C 0.65014 0.71951 0.00624 0.0
C3250 C 0.65186 0.72069 0.02387 0.0
C3251 C 0.68564 0.76389 0.0984 0.0
C3252 C 0.67738 0.76802 0.09876 0.0
C3253 C 0.68255 0.75277 0.09056 0.0
C3254 C 0.67116 0.74557 0.08294 0.0
C3255 C 0.66304 0.74983 0.08275 0.0
C3256 C 0.66609 0.76094 0.0907 0.0
C3257 C 0.66768 0.73346 0.07549 0.0
C3258 C 0.6651 0.73145 0.05805 0.0
C3259 C 0.66757 0.72419 0.08532 0.0
C3260 C 0.66978 0.72562 0.10396 0.0
C3261 C 0.66278 0.72851 0.11471 0.0
C3262 C 0.66499 0.72997 0.13223 0.0
C3263 C 0.67412 0.72848 0.13916 0.0
C3264 C 0.68104 0.7255 0.12859 0.0
C3265 C 0.67888 0.72404 0.11107 0.0
H3266 H 0.67582 0.7296 0.15271 0.0
H3267 H 0.65623 0.71614 0.98231 0.0
H3268 H 0.32156 0.99317 0.03894 0.0
H3269 H 0.30224 0.97797 0.05134 0.0
H3270 H 0.31276 0.95082 0.04702 0.0
H3271 H 0.33171 0.96585 0.03339 0.0
H3272 H 0.29114 0.94049 0.03858 0.0
H3273 H 0.31194 0.96567 0.08668 0.0
H3274 H 0.32353 0.98475 0.10339 0.0
H3275 H 0.29425 0.99159 0.09915 0.0
H3276 H 0.28255 0.97262 0.08222 0.0
H3277 H 0.24646 0.90081 0.10018 0.0
H3278 H 0.26532 0.91485 0.08563 0.0
H3279 H 0.25058 0.93717 0.07144 0.0
H3280 H 0.23141 0.92285 0.08514 0.0
H3281 H 0.27413 0.94941 0.08982 0.0
H3282 H 0.25357 0.92269 0.04156 0.0
H3283 H 0.24264 0.90266 0.02689 0.0
H3284 H 0.2728 0.89763 0.03474 0.0
H3285 H 0.28385 0.91756 0.04968 0.0
C3286 C 0.31976 0.98397 0.04078 0.0
C3287 C 0.32811 0.98067 0.03531 0.0
C3288 C 0.30873 0.97528 0.04797 0.0
C3289 C 0.30606 0.96324 0.0505 0.0
C3290 C 0.31454 0.96001 0.04523 0.0
C3291 C 0.3254 0.96861 0.03752 0.0
C3292 C 0.29428 0.95391 0.05807 0.0
C3293 C 0.28756 0.94243 0.04995 0.0
C3294 C 0.28942 0.95638 0.07282 0.0
C3295 C 0.29642 0.96778 0.08305 0.0
C3296 C 0.30801 0.97128 0.08922 0.0
C3297 C 0.31459 0.98207 0.09874 0.0
C3298 C 0.30964 0.98939 0.1023 0.0
C3299 C 0.29808 0.98592 0.09637 0.0
C3300 C 0.29146 0.97514 0.08683 0.0
C3301 C 0.24704 0.90848 0.09357 0.0
C3302 C 0.23736 0.91068 0.09396 0.0
C3303 C 0.25789 0.91656 0.08538 0.0
C3304 C 0.25933 0.92705 0.07758 0.0
C3305 C 0.24964 0.92914 0.07752 0.0
C3306 C 0.23872 0.92097 0.08545 0.0
C3307 C 0.27115 0.93618 0.07027 0.0
C3308 C 0.27783 0.94757 0.07849 0.0
C3309 C 0.27611 0.93351 0.05594 0.0
C3310 C 0.26949 0.92156 0.04689 0.0
C3311 C 0.25783 0.91726 0.0403 0.0
C3312 C 0.25162 0.90594 0.03191 0.0
C3313 C 0.25701 0.89886 0.02993 0.0
C3314 C 0.26863 0.90311 0.0363 0.0
C3315 C 0.27487 0.91442 0.04472 0.0
H3316 H 0.25219 0.8901 0.02342 0.0
H3317 H 0.31475 0.99774 0.10967 0.0
H3318 H 0.37522 0.04255 0.99684 0.0
H3319 H 0.37353 0.05933 0.98503 0.0
H3320 H 0.33579 0.0341 0.97381 0.0
H3321 H 0.33765 0.01734 0.98462 0.0
H3322 H 0.34427 0.0482 0.94924 0.0
H3323 H 0.3469 0.05511 0.00977 0.0
H3324 H 0.35595 0.05858 0.03836 0.0
H3325 H 0.3875 0.09136 0.02118 0.0
H3326 H 0.37869 0.088 0.99242 0.0
H3327 H 0.32149 0.08901 0.95179 0.0
H3328 H 0.32793 0.07587 0.96456 0.0
H3329 H 0.36296 0.09694 0.94103 0.0
H3330 H 0.35645 0.10972 0.92733 0.0
H3331 H 0.35769 0.08657 0.98216 0.0
H3332 H 0.35331 0.07745 0.91999 0.0
H3333 H 0.34174 0.07344 0.89337 0.0
H3334 H 0.31045 0.04367 0.91692 0.0
H3335 H 0.32181 0.04766 0.94376 0.0
C3336 C 0.36661 0.04062 0.99171 0.0
C3337 C 0.35658 0.02865 0.99161 0.0
C3338 C 0.36561 0.05022 0.98509 0.0
C3339 C 0.35446 0.04807 0.97875 0.0
C3340 C 0.34451 0.03605 0.97854 0.0
C3341 C 0.34557 0.02645 0.98475 0.0
C3342 C 0.35302 0.05819 0.97229 0.0
C3343 C 0.34723 0.05655 0.95655 0.0
C3344 C 0.35689 0.0692 0.98164 0.0
C3345 C 0.3622 0.07122 0.9989 0.0
C3346 C 0.3558 0.06301 0.01206 0.0
C3347 C 0.36088 0.06496 0.0283 0.0
C3348 C 0.37231 0.07516 0.03157 0.0
C3349 C 0.37867 0.08345 0.01862 0.0
C3350 C 0.37363 0.08153 0.00235 0.0
C3351 C 0.33058 0.09091 0.94932 0.0
C3352 C 0.33837 0.10035 0.93828 0.0
C3353 C 0.33427 0.08346 0.95678 0.0
C3354 C 0.34588 0.08545 0.95364 0.0
C3355 C 0.35398 0.09533 0.94362 0.0
C3356 C 0.35024 0.10267 0.93589 0.0
C3357 C 0.349 0.07641 0.95936 0.0
C3358 C 0.35499 0.07826 0.9749 0.0
C3359 C 0.34509 0.06546 0.95008 0.0
C3360 C 0.33836 0.06293 0.93389 0.0
C3361 C 0.34393 0.07013 0.91952 0.0
C3362 C 0.33742 0.06784 0.90439 0.0
C3363 C 0.32536 0.05833 0.90347 0.0
C3364 C 0.31979 0.05105 0.91766 0.0
C3365 C 0.32626 0.05331 0.93282 0.0
H3366 H 0.32033 0.05658 0.89175 0.0
H3367 H 0.37622 0.07666 0.04415 0.0
H3368 H 0.96534 0.32982 0.99781 0.0
H3369 H 0.9496 0.31067 0.98482 0.0
H3370 H 0.97634 0.30067 0.97338 0.0
H3371 H 0.99216 0.3202 0.98519 0.0
H3372 H 0.9624 0.29373 0.94881 0.0
H3373 H 0.95476 0.28881 0.00876 0.0
H3374 H 0.95085 0.29401 0.03752 0.0
H3375 H 0.91814 0.2915 0.01977 0.0
H3376 H 0.92194 0.28643 0.99085 0.0
H3377 H 0.92069 0.22898 0.94335 0.0
H3378 H 0.93477 0.2484 0.95733 0.0
H3379 H 0.91341 0.26358 0.94076 0.0
H3380 H 0.8997 0.24454 0.92575 0.0
H3381 H 0.9238 0.26744 0.97934 0.0
H3382 H 0.9333 0.27263 0.91822 0.0
H3383 H 0.93767 0.26573 0.89106 0.0
H3384 H 0.96795 0.26586 0.91398 0.0
H3385 H 0.96362 0.27258 0.94136 0.0
C3386 C 0.96782 0.32354 0.9924 0.0
C3387 C 0.97992 0.32643 0.99251 0.0
C3388 C 0.95881 0.31254 0.98512 0.0
C3389 C 0.96167 0.304 0.97846 0.0
C3390 C 0.97384 0.30704 0.9784 0.0
C3391 C 0.98289 0.3182 0.98518 0.0
C3392 C 0.95207 0.29196 0.97149 0.0
C3393 C 0.95405 0.28799 0.95566 0.0
C3394 C 0.94103 0.28437 0.98023 0.0
C3395 C 0.9387 0.28737 0.99761 0.0
C3396 C 0.94678 0.28945 0.01097 0.0
C3397 C 0.94458 0.29236 0.0273 0.0
C3398 C 0.93427 0.29312 0.03046 0.0
C3399 C 0.92613 0.29093 0.0173 0.0
C3400 C 0.92829 0.28803 0.00094 0.0
C3401 C 0.91896 0.23642 0.94257 0.0
C3402 C 0.90907 0.23514 0.93318 0.0
C3403 C 0.92696 0.24747 0.95073 0.0
C3404 C 0.9251 0.25737 0.94998 0.0
C3405 C 0.91492 0.25598 0.94151 0.0
C3406 C 0.90704 0.24502 0.93304 0.0
C3407 C 0.93429 0.26943 0.95693 0.0
C3408 C 0.9322 0.27332 0.97265 0.0
C3409 C 0.94534 0.27681 0.94837 0.0
C3410 C 0.94805 0.27297 0.93186 0.0
C3411 C 0.94082 0.27107 0.9175 0.0
C3412 C 0.9433 0.26722 0.90207 0.0
C3413 C 0.95306 0.26532 0.90081 0.0
C3414 C 0.96038 0.26732 0.91498 0.0
C3415 C 0.95792 0.27115 0.93045 0.0
H3416 H 0.95498 0.26234 0.88885 0.0
H3417 H 0.93259 0.29538 0.0431 0.0
H3418 H 0.67532 0.63497 0.0072 0.0
H3419 H 0.69429 0.63762 0.99573 0.0
H3420 H 0.69786 0.66636 0.96337 0.0
H3421 H 0.67909 0.66391 0.97491 0.0
H3422 H 0.70232 0.63602 0.96453 0.0
H3423 H 0.72699 0.68896 0.96187 0.0
H3424 H 0.72673 0.70594 0.97696 0.0
H3425 H 0.71288 0.68405 0.02175 0.0
H3426 H 0.71323 0.66702 0.00702 0.0
H3427 H 0.75316 0.66105 0.90986 0.0
H3428 H 0.73436 0.65476 0.92523 0.0
H3429 H 0.75459 0.67057 0.97151 0.0
H3430 H 0.77351 0.67699 0.9561 0.0
H3431 H 0.7389 0.67754 0.96746 0.0
H3432 H 0.73684 0.6392 0.96574 0.0
H3433 H 0.73754 0.62185 0.95273 0.0
H3434 H 0.70724 0.61374 0.92095 0.0
H3435 H 0.70646 0.63115 0.93359 0.0
C3436 C 0.6801 0.64177 0.99753 0.0
C3437 C 0.67577 0.6493 0.99207 0.0
C3438 C 0.69093 0.64327 0.99098 0.0
C3439 C 0.6976 0.65233 0.97892 0.0
C3440 C 0.69299 0.65947 0.97292 0.0
C3441 C 0.68222 0.65802 0.97948 0.0
C3442 C 0.70956 0.65465 0.97292 0.0
C3443 C 0.71034 0.64508 0.9652 0.0
C3444 C 0.72009 0.6664 0.97421 0.0
C3445 C 0.72004 0.67668 0.98328 0.0
C3446 C 0.72395 0.6878 0.97497 0.0
C3447 C 0.72377 0.69742 0.98345 0.0
C3448 C 0.71976 0.69606 0.00029 0.0
C3449 C 0.71595 0.68508 0.00869 0.0
C3450 C 0.71612 0.67543 0.00027 0.0
C3451 C 0.7536 0.66297 0.92339 0.0
C3452 C 0.76483 0.66948 0.93178 0.0
C3453 C 0.74283 0.65937 0.93217 0.0
C3454 C 0.74303 0.66207 0.94958 0.0
C3455 C 0.75421 0.66839 0.95808 0.0
C3456 C 0.76501 0.67206 0.94927 0.0
C3457 C 0.73163 0.65899 0.95859 0.0
C3458 C 0.73094 0.66844 0.96689 0.0
C3459 C 0.72126 0.64707 0.95812 0.0
C3460 C 0.72165 0.63654 0.95054 0.0
C3461 C 0.73038 0.63377 0.95589 0.0
C3462 C 0.73078 0.62391 0.94859 0.0
C3463 C 0.72245 0.61671 0.936 0.0
C3464 C 0.71368 0.61933 0.9307 0.0
C3465 C 0.71325 0.62918 0.93795 0.0
H3466 H 0.72278 0.60908 0.93036 0.0
H3467 H 0.71962 0.70352 0.00682 0.0
H3468 H 0.98238 0.66585 0.98232 0.0
H3469 H 0.9651 0.66723 0.97299 0.0
H3470 H 0.94071 0.63264 0.99631 0.0
H3471 H 0.95811 0.6312 0.00591 0.0
H3472 H 0.93402 0.63596 0.96206 0.0
H3473 H 0.94433 0.65589 0.01668 0.0
H3474 H 0.95823 0.67003 0.03865 0.0
H3475 H 0.9687 0.70041 0.00558 0.0
H3476 H 0.955 0.68643 0.98331 0.0
H3477 H 0.8869 0.64892 0.94438 0.0
H3478 H 0.89951 0.6427 0.95944 0.0
H3479 H 0.93099 0.67826 0.95071 0.0
H3480 H 0.91852 0.68449 0.93591 0.0
H3481 H 0.93139 0.67168 0.9819 0.0
H3482 H 0.92427 0.65246 0.92627 0.0
H3483 H 0.91165 0.63902 0.90277 0.0
H3484 H 0.89634 0.60817 0.93601 0.0
H3485 H 0.90877 0.62146 0.95978 0.0
C3486 C 0.97336 0.65848 0.98543 0.0
C3487 C 0.97162 0.64843 0.99494 0.0
C3488 C 0.96349 0.65931 0.98011 0.0
C3489 C 0.95165 0.6501 0.98411 0.0
C3490 C 0.9498 0.63985 0.99315 0.0
C3491 C 0.95973 0.63906 0.99865 0.0
C3492 C 0.94137 0.65153 0.97904 0.0
C3493 C 0.93323 0.64359 0.96666 0.0
C3494 C 0.94054 0.66163 0.98483 0.0
C3495 C 0.94868 0.67009 0.99829 0.0
C3496 C 0.94966 0.66558 0.01405 0.0
C3497 C 0.95749 0.67357 0.02657 0.0
C3498 C 0.96436 0.68611 0.02351 0.0
C3499 C 0.96338 0.69069 0.00794 0.0
C3500 C 0.95556 0.68274 0.99537 0.0
C3501 C 0.89651 0.6554 0.94575 0.0
C3502 C 0.90169 0.66723 0.93907 0.0
C3503 C 0.9037 0.65184 0.95433 0.0
C3504 C 0.91623 0.65999 0.95613 0.0
C3505 C 0.92135 0.67183 0.94962 0.0
C3506 C 0.91418 0.6754 0.9412 0.0
C3507 C 0.92422 0.65633 0.96448 0.0
C3508 C 0.93196 0.66387 0.97752 0.0
C3509 C 0.92478 0.64596 0.95911 0.0
C3510 C 0.91732 0.63797 0.94484 0.0
C3511 C 0.91814 0.64282 0.9286 0.0
C3512 C 0.91103 0.63523 0.91522 0.0
C3513 C 0.90317 0.62276 0.91791 0.0
C3514 C 0.90242 0.61784 0.93396 0.0
C3515 C 0.90949 0.62539 0.94739 0.0
H3516 H 0.89768 0.61689 0.90754 0.0
H3517 H 0.97042 0.69228 0.03321 0.0
H3518 H 0.35936 0.32304 0.01072 0.0
H3519 H 0.35542 0.3039 0.99749 0.0
H3520 H 0.33171 0.30616 0.96106 0.0
H3521 H 0.33536 0.3252 0.97461 0.0
H3522 H 0.32189 0.28347 0.97257 0.0
H3523 H 0.36063 0.31337 0.95029 0.0
H3524 H 0.38184 0.33035 0.95192 0.0
H3525 H 0.39123 0.30805 0.98085 0.0
H3526 H 0.37004 0.29099 0.97961 0.0
H3527 H 0.32086 0.24023 0.9128 0.0
H3528 H 0.32239 0.25774 0.92823 0.0
H3529 H 0.34657 0.2561 0.96445 0.0
H3530 H 0.34523 0.23869 0.94883 0.0
H3531 H 0.35587 0.27841 0.95311 0.0
H3532 H 0.31685 0.24823 0.97476 0.0
H3533 H 0.29559 0.23142 0.97278 0.0
H3534 H 0.28665 0.25428 0.94438 0.0
H3535 H 0.3079 0.27118 0.94599 0.0
C3536 C 0.35334 0.31949 -0.00014 0.0
C3537 C 0.34771 0.32563 0.99364 0.0
C3538 C 0.35112 0.30856 0.99228 0.0
C3539 C 0.34339 0.30368 0.97814 0.0
C3540 C 0.33771 0.30977 0.97195 0.0
C3541 C 0.33984 0.32067 0.97964 0.0
C3542 C 0.34125 0.2922 0.96987 0.0
C3543 C 0.32931 0.2824 0.96811 0.0
C3544 C 0.35094 0.29073 0.96438 0.0
C3545 C 0.36372 0.30094 0.96498 0.0
C3546 C 0.36721 0.31212 0.95709 0.0
C3547 C 0.37922 0.32175 0.95794 0.0
C3548 C 0.38787 0.32029 0.96651 0.0
C3549 C 0.38452 0.30917 0.97422 0.0
C3550 C 0.37251 0.29952 0.97344 0.0
C3551 C 0.32627 0.24342 0.92429 0.0
C3552 C 0.33293 0.23811 0.92963 0.0
C3553 C 0.32714 0.25344 0.9331 0.0
C3554 C 0.33455 0.25821 0.94757 0.0
C3555 C 0.34083 0.2526 0.95329 0.0
C3556 C 0.34005 0.24266 0.94439 0.0
C3557 C 0.3365 0.2696 0.95593 0.0
C3558 C 0.34843 0.27943 0.95764 0.0
C3559 C 0.32679 0.27109 0.96129 0.0
C3560 C 0.314 0.26094 0.96037 0.0
C3561 C 0.31037 0.24965 0.96798 0.0
C3562 C 0.29832 0.24011 0.96695 0.0
C3563 C 0.28978 0.24177 0.95842 0.0
C3564 C 0.29328 0.253 0.95096 0.0
C3565 C 0.30532 0.26256 0.95195 0.0
H3566 H 0.28046 0.23437 0.95764 0.0
H3567 H 0.39717 0.32776 0.96716 0.0
H3568 H 0.67274 0.03781 0.001 0.0
H3569 H 0.6914 0.05404 0.98806 0.0
H3570 H 0.7 0.02726 0.97002 0.0
H3571 H 0.68114 0.0109 0.98251 0.0
H3572 H 0.71961 0.05064 0.9893 0.0
H3573 H 0.69164 0.03576 0.94164 0.0
H3574 H 0.67221 0.02989 0.92785 0.0
H3575 H 0.6786 0.0661 0.93639 0.0
H3576 H 0.69799 0.07212 0.9505 0.0
H3577 H 0.76887 0.0896 0.93527 0.0
H3578 H 0.75112 0.07277 0.94874 0.0
H3579 H 0.73333 0.09372 0.94828 0.0
H3580 H 0.75052 0.11008 0.93352 0.0
H3581 H 0.71819 0.07238 0.93832 0.0
H3582 H 0.74537 0.08797 0.98569 0.0
H3583 H 0.76425 0.09466 0.0016 0.0
H3584 H 0.75919 0.05873 0.99632 0.0
H3585 H 0.74035 0.05187 0.98018 0.0
C3586 C 0.67858 0.03537 0.99424 0.0
C3587 C 0.67549 0.0231 0.9927 0.0
C3588 C 0.68922 0.04464 0.98689 0.0
C3589 C 0.69704 0.0418 0.97816 0.0
C3590 C 0.69406 0.02959 0.97676 0.0
C3591 C 0.68328 0.02028 0.9838 0.0
C3592 C 0.70823 0.05164 0.97029 0.0
C3593 C 0.71939 0.05531 0.97801 0.0
C3594 C 0.70779 0.05792 0.95592 0.0
C3595 C 0.6962 0.05435 0.94729 0.0
C3596 C 0.68885 0.04244 0.94073 0.0
C3597 C 0.67785 0.03909 0.93282 0.0
C3598 C 0.67415 0.04761 0.93129 0.0
C3599 C 0.68146 0.0595 0.93761 0.0
C3600 C 0.69246 0.06289 0.94555 0.0
C3601 C 0.76118 0.09063 0.93792 0.0
C3602 C 0.76123 0.10129 0.9332 0.0
C3603 C 0.75106 0.08103 0.94589 0.0
C3604 C 0.74087 0.08198 0.94972 0.0
C3605 C 0.74105 0.09273 0.94548 0.0
C3606 C 0.75103 0.10221 0.93723 0.0
C3607 C 0.72979 0.0716 0.95736 0.0
C3608 C 0.71855 0.06777 0.9496 0.0
C3609 C 0.73017 0.06535 0.97191 0.0
C3610 C 0.74151 0.06945 0.98156 0.0
C3611 C 0.74833 0.08153 0.9878 0.0
C3612 C 0.75902 0.08534 0.99688 0.0
C3613 C 0.76294 0.07714 -8e-05 0.0
C3614 C 0.75616 0.06509 0.99392 0.0
C3615 C 0.74547 0.06123 0.98482 0.0
H3616 H 0.77121 0.08011 0.00696 0.0
H3617 H 0.66564 0.045 0.92517 0.0
H3618 H 0.65549 0.9812 0.05329 0.0
H3619 H 0.65746 0.96426 0.06332 0.0
H3620 H 0.63768 0.94267 0.01943 0.0
H3621 H 0.63525 0.9595 0.00969 0.0
H3622 H 0.63174 0.9284 0.04581 0.0
H3623 H 0.66913 0.95821 0.02087 0.0
H3624 H 0.68682 0.97879 0.01621 0.0
H3625 H 0.69776 0.98055 0.06815 0.0
H3626 H 0.68004 0.96005 0.07319 0.0
H3627 H 0.67745 0.90564 0.06503 0.0
H3628 H 0.67149 0.91829 0.04961 0.0
H3629 H 0.64376 0.91028 0.08707 0.0
H3630 H 0.64954 0.89746 0.10228 0.0
H3631 H 0.67343 0.93839 0.05977 0.0
H3632 H 0.62128 0.9134 0.07105 0.0
H3633 H 0.60391 0.89228 0.07255 0.0
H3634 H 0.62314 0.87958 0.04193 0.0
H3635 H 0.64055 0.90063 0.04005 0.0
C3636 C 0.65144 0.9728 0.04587 0.0
C3637 C 0.64532 0.97171 0.03062 0.0
C3638 C 0.65262 0.96313 0.05157 0.0
C3639 C 0.648 0.95229 0.04191 0.0
C3640 C 0.64139 0.95097 0.02706 0.0
C3641 C 0.64002 0.96059 0.02149 0.0
C3642 C 0.65053 0.94262 0.047 0.0
C3643 C 0.64085 0.93056 0.04884 0.0
C3644 C 0.66247 0.94534 0.05045 0.0
C3645 C 0.67321 0.95763 0.04743 0.0
C3646 C 0.67527 0.96302 0.03132 0.0
C3647 C 0.68531 0.97466 0.02861 0.0
C3648 C 0.69339 0.98098 0.04188 0.0
C3649 C 0.69148 0.97565 0.05789 0.0
C3650 C 0.68145 0.96401 0.06067 0.0
C3651 C 0.66995 0.90642 0.06978 0.0
C3652 C 0.66396 0.90056 0.08485 0.0
C3653 C 0.66655 0.91366 0.06099 0.0
C3654 C 0.65714 0.91523 0.06711 0.0
C3655 C 0.65089 0.90904 0.08186 0.0
C3656 C 0.6542 0.9017 0.09057 0.0
C3657 C 0.65461 0.92418 0.05902 0.0
C3658 C 0.66431 0.93615 0.05663 0.0
C3659 C 0.64275 0.92127 0.05461 0.0
C3660 C 0.63226 0.90859 0.05554 0.0
C3661 C 0.62178 0.90611 0.06457 0.0
C3662 C 0.61193 0.89415 0.0655 0.0
C3663 C 0.61244 0.88459 0.05738 0.0
C3664 C 0.62278 0.88698 0.04827 0.0
C3665 C 0.63265 0.89893 0.04729 0.0
H3666 H 0.60481 0.87534 0.05813 0.0
H3667 H 0.70115 0.99 0.03976 0.0
H3668 H 0.03718 0.67885 0.01759 0.0
H3669 H 0.05288 0.69791 0.03083 0.0
H3670 H 0.02629 0.69764 0.06487 0.0
H3671 H 0.01053 0.67864 0.05162 0.0
H3672 H 0.04023 0.71978 0.05028 0.0
H3673 H 0.04655 0.69033 0.07885 0.0
H3674 H 0.05031 0.67324 0.0805 0.0
H3675 H 0.08404 0.69442 0.05408 0.0
H3676 H 0.08038 0.71158 0.05204 0.0
H3677 H 0.07564 0.76225 0.11361 0.0
H3678 H 0.06209 0.7437 0.09768 0.0
H3679 H 0.09179 0.74896 0.06582 0.0
H3680 H 0.1055 0.76783 0.0816 0.0
H3681 H 0.0775 0.72499 0.07687 0.0
H3682 H 0.07175 0.75489 0.04975 0.0
H3683 H 0.068 0.77198 0.04817 0.0
H3684 H 0.03324 0.74998 0.07169 0.0
H3685 H 0.03686 0.7328 0.07365 0.0
C3686 C 0.0347 0.68281 0.02798 0.0
C3687 C 0.02262 0.67727 0.03357 0.0
C3688 C 0.04369 0.69368 0.03555 0.0
C3689 C 0.04076 0.69917 0.04888 0.0
C3690 C 0.02873 0.69357 0.05459 0.0
C3691 C 0.01975 0.68269 0.04705 0.0
C3692 C 0.05015 0.71093 0.05657 0.0
C3693 C 0.04832 0.72088 0.05626 0.0
C3694 C 0.06089 0.71247 0.06385 0.0
C3695 C 0.06313 0.70219 0.06513 0.0
C3696 C 0.05472 0.6913 0.07326 0.0
C3697 C 0.05684 0.68161 0.07429 0.0
C3698 C 0.06739 0.68273 0.06735 0.0
C3699 C 0.07586 0.69356 0.05942 0.0
C3700 C 0.07377 0.70328 0.05833 0.0
C3701 C 0.07931 0.75963 0.10303 0.0
C3702 C 0.09165 0.76666 0.09872 0.0
C3703 C 0.07154 0.74896 0.09399 0.0
C3704 C 0.0759 0.74504 0.08043 0.0
C3705 C 0.08825 0.75187 0.07623 0.0
C3706 C 0.09606 0.76262 0.08527 0.0
C3707 C 0.06746 0.73375 0.07085 0.0
C3708 C 0.06946 0.72391 0.07077 0.0
C3709 C 0.05687 0.73229 0.06318 0.0
C3710 C 0.05462 0.74258 0.06197 0.0
C3711 C 0.06335 0.75372 0.05471 0.0
C3712 C 0.06124 0.76342 0.05372 0.0
C3713 C 0.0504 0.76208 0.05986 0.0
C3714 C 0.04164 0.75101 0.06695 0.0
C3715 C 0.04371 0.74129 0.06799 0.0
H3716 H 0.04878 0.7696 0.05908 0.0
H3717 H 0.06902 0.67522 0.06817 0.0
H3718 H 0.32882 0.36951 0.02013 0.0
H3719 H 0.30958 0.36674 0.03081 0.0
H3720 H 0.30506 0.3373 0.06248 0.0
H3721 H 0.3241 0.33996 0.05193 0.0
H3722 H 0.28496 0.33089 0.0435 0.0
H3723 H 0.31293 0.36482 0.07948 0.0
H3724 H 0.33008 0.38567 0.08498 0.0
H3725 H 0.31183 0.4007 0.05805 0.0
H3726 H 0.29464 0.37991 0.05218 0.0
H3727 H 0.23977 0.31925 0.10295 0.0
H3728 H 0.25849 0.32484 0.08789 0.0
H3729 H 0.25727 0.35432 0.06349 0.0
H3730 H 0.23847 0.34881 0.07879 0.0
H3731 H 0.27957 0.3619 0.07469 0.0
H3732 H 0.25071 0.3282 0.0411 0.0
H3733 H 0.23352 0.30742 0.03537 0.0
H3734 H 0.25329 0.29201 0.05685 0.0
H3735 H 0.27054 0.31269 0.06293 0.0
C3736 C 0.32378 0.36256 0.02953 0.0
C3737 C 0.32795 0.35492 0.03514 0.0
C3738 C 0.31281 0.36099 0.03561 0.0
C3739 C 0.30588 0.35178 0.0474 0.0
C3740 C 0.31022 0.3444 0.05331 0.0
C3741 C 0.32114 0.34597 0.0473 0.0
C3742 C 0.29385 0.34937 0.05319 0.0
C3743 C 0.28379 0.33764 0.05042 0.0
C3744 C 0.29226 0.35833 0.06164 0.0
C3745 C 0.30257 0.37081 0.06521 0.0
C3746 C 0.31263 0.37257 0.0746 0.0
C3747 C 0.32234 0.38438 0.07781 0.0
C3748 C 0.32206 0.3945 0.07182 0.0
C3749 C 0.31205 0.39285 0.06265 0.0
C3750 C 0.30232 0.38106 0.05939 0.0
C3751 C 0.24335 0.32679 0.09415 0.0
C3752 C 0.23755 0.3335 0.09191 0.0
C3753 C 0.25408 0.33 0.08556 0.0
C3754 C 0.2592 0.33988 0.07433 0.0
C3755 C 0.25346 0.34663 0.07205 0.0
C3756 C 0.24273 0.34347 0.08077 0.0
C3757 C 0.27073 0.34327 0.06546 0.0
C3758 C 0.28069 0.35518 0.06757 0.0
C3759 C 0.27224 0.33449 0.0563 0.0
C3760 C 0.2619 0.32201 0.05256 0.0
C3761 C 0.25137 0.32038 0.0447 0.0
C3762 C 0.24162 0.30862 0.04138 0.0
C3763 C 0.24231 0.2984 0.04577 0.0
C3764 C 0.25277 0.29993 0.05346 0.0
C3765 C 0.26254 0.31167 0.05682 0.0
H3766 H 0.23474 0.2893 0.04319 0.0
H3767 H 0.3296 0.40364 0.07432 0.0
H3768 H 0.71046 0.70815 0.36005 0.0
H3769 H 0.72708 0.70659 0.37247 0.0
H3770 H 0.70216 0.66851 0.38313 0.0
H3771 H 0.68558 0.6702 0.3716 0.0
H3772 H 0.71563 0.67814 0.40895 0.0
H3773 H 0.72363 0.6797 0.34832 0.0
H3774 H 0.72788 0.68894 0.31986 0.0
H3775 H 0.76 0.7206 0.33903 0.0
H3776 H 0.75585 0.7116 0.36765 0.0
H3777 H 0.75128 0.65242 0.42014 0.0
H3778 H 0.73829 0.65855 0.40673 0.0
H3779 H 0.76733 0.6962 0.40797 0.0
H3780 H 0.7807 0.69006 0.42086 0.0
H3781 H 0.75374 0.68988 0.37793 0.0
H3782 H 0.74632 0.68655 0.43814 0.0
H3783 H 0.74197 0.67633 0.4659 0.0
H3784 H 0.70824 0.6469 0.44661 0.0
H3785 H 0.71247 0.65685 0.41866 0.0
C3786 C 0.70858 0.69947 0.36509 0.0
C3787 C 0.69673 0.68931 0.36492 0.0
C3788 C 0.71808 0.69856 0.37209 0.0
C3789 C 0.71594 0.68739 0.3786 0.0
C3790 C 0.70408 0.67726 0.3783 0.0
C3791 C 0.69459 0.67823 0.37166 0.0
C3792 C 0.72583 0.68607 0.38602 0.0
C3793 C 0.7239 0.68063 0.40205 0.0
C3794 C 0.73685 0.68967 0.37736 0.0
C3795 C 0.73936 0.69505 0.36015 0.0
C3796 C 0.73155 0.68867 0.34648 0.0
C3797 C 0.73395 0.69386 0.33032 0.0
C3798 C 0.74419 0.70537 0.32765 0.0
C3799 C 0.75206 0.7117 0.34112 0.0
C3800 C 0.7497 0.70656 0.35731 0.0
C3801 C 0.75508 0.66198 0.41718 0.0
C3802 C 0.76709 0.67074 0.42162 0.0
C3803 C 0.74756 0.66549 0.40968 0.0
C3804 C 0.75177 0.67785 0.40665 0.0
C3805 C 0.76388 0.68661 0.41033 0.0
C3806 C 0.77147 0.68309 0.4178 0.0
C3807 C 0.74324 0.68154 0.40045 0.0
C3808 C 0.74548 0.6875 0.38481 0.0
C3809 C 0.73242 0.67831 0.40936 0.0
C3810 C 0.72975 0.67242 0.42627 0.0
C3811 C 0.73801 0.67787 0.43979 0.0
C3812 C 0.73556 0.67213 0.45556 0.0
C3813 C 0.72484 0.66097 0.45801 0.0
C3814 C 0.71653 0.65555 0.4447 0.0
C3815 C 0.71895 0.66124 0.4289 0.0
H3816 H 0.72297 0.65653 0.47022 0.0
H3817 H 0.74603 0.70937 0.31513 0.0
H3818 H 0.33722 0.01362 0.38094 0.0
H3819 H 0.34071 0.03254 0.39443 0.0
H3820 H 0.30674 0.02614 0.37442 0.0
H3821 H 0.30344 0.00742 0.36037 0.0
H3822 H 0.32308 0.04883 0.37014 0.0
H3823 H 0.31067 0.02205 0.41744 0.0
H3824 H 0.31066 0.00703 0.43689 0.0
H3825 H 0.34744 0.03281 0.45099 0.0
H3826 H 0.34774 0.04794 0.43145 0.0
H3827 H 0.32384 0.09565 0.42341 0.0
H3828 H 0.31826 0.07595 0.40996 0.0
H3829 H 0.35364 0.0819 0.42154 0.0
H3830 H 0.35919 0.10143 0.43517 0.0
H3831 H 0.33508 0.05896 0.43071 0.0
H3832 H 0.34699 0.08535 0.38176 0.0
H3833 H 0.34604 0.10004 0.36267 0.0
H3834 H 0.30853 0.07423 0.35255 0.0
H3835 H 0.30921 0.05945 0.37178 0.0
C3836 C 0.33047 0.01621 0.37951 0.0
C3837 C 0.32005 0.00904 0.36964 0.0
C3838 C 0.33244 0.027 0.3873 0.0
C3839 C 0.32391 0.0307 0.38566 0.0
C3840 C 0.31345 0.02348 0.37589 0.0
C3841 C 0.31156 0.01277 0.3679 0.0
C3842 C 0.32611 0.0423 0.39368 0.0
C3843 C 0.3255 0.05094 0.38347 0.0
C3844 C 0.32941 0.04516 0.41102 0.0
C3845 C 0.32926 0.0361 0.42286 0.0
C3846 C 0.31879 0.02449 0.4246 0.0
C3847 C 0.31873 0.01596 0.43565 0.0
C3848 C 0.32905 0.01895 0.44514 0.0
C3849 C 0.33945 0.0305 0.44362 0.0
C3850 C 0.33957 0.03906 0.43257 0.0
C3851 C 0.33043 0.09276 0.42301 0.0
C3852 C 0.34198 0.10012 0.43025 0.0
C3853 C 0.32726 0.08155 0.41528 0.0
C3854 C 0.33556 0.0775 0.41472 0.0
C3855 C 0.34711 0.08487 0.42183 0.0
C3856 C 0.3503 0.09609 0.42945 0.0
C3857 C 0.33219 0.06546 0.4071 0.0
C3858 C 0.33257 0.05676 0.41742 0.0
C3859 C 0.32851 0.06248 0.38994 0.0
C3860 C 0.32812 0.07135 0.37834 0.0
C3861 C 0.33851 0.08285 0.37558 0.0
C3862 C 0.33803 0.09118 0.36471 0.0
C3863 C 0.32722 0.08809 0.35644 0.0
C3864 C 0.31688 0.07663 0.35899 0.0
C3865 C 0.31732 0.06827 0.36985 0.0
H3866 H 0.32687 0.09455 0.34803 0.0
H3867 H 0.32898 0.01233 0.45369 0.0
H3868 H 0.99898 0.2988 0.36584 0.0
H3869 H 0.97989 0.28326 0.37844 0.0
H3870 H 0.96957 0.31031 0.38645 0.0
H3871 H 0.98905 0.32603 0.37485 0.0
H3872 H 0.96229 0.29646 0.41179 0.0
H3873 H 0.95875 0.28819 0.35175 0.0
H3874 H 0.96467 0.28406 0.32367 0.0
H3875 H 0.96202 0.25135 0.34275 0.0
H3876 H 0.95623 0.25537 0.37101 0.0
H3877 H 0.89836 0.25459 0.41454 0.0
H3878 H 0.91798 0.26885 0.40193 0.0
H3879 H 0.932 0.24631 0.41809 0.0
H3880 H 0.91267 0.23234 0.4317 0.0
H3881 H 0.93707 0.25718 0.38079 0.0
H3882 H 0.94075 0.26673 0.44158 0.0
H3883 H 0.93373 0.27122 0.46849 0.0
H3884 H 0.93476 0.30218 0.44574 0.0
H3885 H 0.94163 0.29776 0.41861 0.0
C3886 C 0.99266 0.30143 0.37042 0.0
C3887 C 0.99543 0.31358 0.3693 0.0
C3888 C 0.9817 0.29252 0.37749 0.0
C3889 C 0.97308 0.29549 0.38298 0.0
C3890 C 0.97601 0.30773 0.38225 0.0
C3891 C 0.98713 0.31672 0.37561 0.0
C3892 C 0.96102 0.28587 0.38941 0.0
C3893 C 0.95677 0.28795 0.40485 0.0
C3894 C 0.95377 0.27463 0.38055 0.0
C3895 C 0.95717 0.27214 0.36353 0.0
C3896 C 0.9595 0.28016 0.34998 0.0
C3897 C 0.96282 0.27783 0.33403 0.0
C3898 C 0.96375 0.26747 0.33144 0.0
C3899 C 0.96132 0.25939 0.34478 0.0
C3900 C 0.958 0.26168 0.36076 0.0
C3901 C 0.90559 0.25263 0.4155 0.0
C3902 C 0.90391 0.24235 0.4244 0.0
C3903 C 0.91676 0.26076 0.40815 0.0
C3904 C 0.9264 0.25864 0.40923 0.0
C3905 C 0.92462 0.24805 0.41714 0.0
C3906 C 0.91351 0.24003 0.4248 0.0
C3907 C 0.93852 0.26789 0.40298 0.0
C3908 C 0.94271 0.26571 0.38762 0.0
C3909 C 0.94561 0.27912 0.41171 0.0
C3910 C 0.94156 0.28183 0.42803 0.0
C3911 C 0.93936 0.27442 0.44227 0.0
C3912 C 0.93544 0.27697 0.45757 0.0
C3913 C 0.93376 0.28695 0.45881 0.0
C3914 C 0.93604 0.29444 0.44475 0.0
C3915 C 0.93996 0.29192 0.42942 0.0
H3916 H 0.93073 0.28891 0.47067 0.0
H3917 H 0.96633 0.26569 0.31908 0.0
H3918 H 0.01216 0.35177 0.30782 0.0
H3919 H 0.01209 0.36904 0.29478 0.0
H3920 H 0.03948 0.39375 0.33025 0.0
H3921 H 0.03982 0.37654 0.34305 0.0
H3922 H 0.00629 0.38464 0.30632 0.0
H3923 H 0.05731 0.42132 0.31194 0.0
H3924 H 0.07709 0.42254 0.31204 0.0
H3925 H 0.06192 0.38896 0.28334 0.0
H3926 H 0.04211 0.38762 0.28288 0.0
H3927 H 0.01359 0.44249 0.28619 0.0
H3928 H 0.01427 0.42588 0.3006 0.0
H3929 H 0.03438 0.42302 0.25841 0.0
H3930 H 0.03398 0.43971 0.24429 0.0
H3931 H 0.0438 0.42121 0.28593 0.0
H3932 H 0.00321 0.40256 0.26451 0.0
H3933 H 0.98303 0.40005 0.26069 0.0
H3934 H 0.97665 0.39532 0.31449 0.0
H3935 H 0.99686 0.39795 0.31865 0.0
C3936 C 0.01824 0.36089 0.31277 0.0
C3937 C 0.02604 0.3628 0.32641 0.0
C3938 C 0.01814 0.37075 0.30536 0.0
C3939 C 0.02582 0.38272 0.31144 0.0
C3940 C 0.0336 0.38464 0.32513 0.0
C3941 C 0.03377 0.37478 0.33247 0.0
C3942 C 0.02563 0.39316 0.30349 0.0
C3943 C 0.0145 0.39265 0.3019 0.0
C3944 C 0.03629 0.40355 0.29746 0.0
C3945 C 0.0482 0.40431 0.29756 0.0
C3946 C 0.05821 0.41422 0.30562 0.0
C3947 C 0.06942 0.41493 0.30573 0.0
C3948 C 0.07075 0.40581 0.29775 0.0
C3949 C 0.06087 0.39599 0.28958 0.0
C3950 C 0.04964 0.39524 0.28941 0.0
C3951 C 0.01817 0.43831 0.28006 0.0
C3952 C 0.02381 0.44246 0.26418 0.0
C3953 C 0.01853 0.4288 0.28825 0.0
C3954 C 0.0243 0.4231 0.28054 0.0
C3955 C 0.02995 0.4273 0.26471 0.0
C3956 C 0.02973 0.43687 0.25665 0.0
C3957 C 0.02445 0.4127 0.28874 0.0
C3958 C 0.03559 0.41324 0.29045 0.0
C3959 C 0.01374 0.40217 0.29438 0.0
C3960 C 0.00159 0.40058 0.29191 0.0
C3961 C 0.99753 0.40107 0.27554 0.0
C3962 C 0.98609 0.39962 0.27331 0.0
C3963 C 0.97858 0.39756 0.28734 0.0
C3964 C 0.98249 0.39693 0.30363 0.0
C3965 C 0.99393 0.3984 0.30593 0.0
H3966 H 0.96972 0.39644 0.28559 0.0
H3967 H 0.07944 0.40637 0.29787 0.0
H3968 H 0.63264 0.66014 0.33854 0.0
H3969 H 0.61705 0.64107 0.32541 0.0
H3970 H 0.64367 0.6415 0.29124 0.0
H3971 H 0.65941 0.66052 0.30459 0.0
H3972 H 0.6078 0.63437 0.29461 0.0
H3973 H 0.63713 0.61231 0.28436 0.0
H3974 H 0.65502 0.61309 0.29699 0.0
H3975 H 0.64747 0.62426 0.34502 0.0
H3976 H 0.62945 0.62339 0.33274 0.0
H3977 H 0.57837 0.58256 0.23983 0.0
H3978 H 0.59233 0.60187 0.25406 0.0
H3979 H 0.59095 0.58238 0.29928 0.0
H3980 H 0.57701 0.56296 0.285 0.0
H3981 H 0.61349 0.59869 0.29216 0.0
H3982 H 0.57675 0.59919 0.2973 0.0
H3983 H 0.5579 0.59778 0.28747 0.0
H3984 H 0.5784 0.62845 0.2548 0.0
H3985 H 0.59737 0.62994 0.26427 0.0
C3986 C 0.63518 0.65622 0.32816 0.0
C3987 C 0.64727 0.66178 0.32267 0.0
C3988 C 0.62624 0.64533 0.32064 0.0
C3989 C 0.62921 0.63976 0.30749 0.0
C3990 C 0.64121 0.64552 0.30156 0.0
C3991 C 0.65018 0.65642 0.30914 0.0
C3992 C 0.61978 0.62776 0.30037 0.0
C3993 C 0.60905 0.62657 0.29403 0.0
C3994 C 0.62128 0.6175 0.3 0.0
C3995 C 0.63202 0.61791 0.30757 0.0
C3996 C 0.63927 0.61489 0.29763 0.0
C3997 C 0.64943 0.61535 0.30472 0.0
C3998 C 0.65241 0.61876 0.32178 0.0
C3999 C 0.64519 0.62167 0.33179 0.0
C4000 C 0.635 0.6212 0.32477 0.0
C4001 C 0.58084 0.58239 0.25292 0.0
C4002 C 0.57653 0.57123 0.26134 0.0
C4003 C 0.58886 0.59344 0.26103 0.0
C4004 C 0.59262 0.5936 0.2778 0.0
C4005 C 0.58819 0.58248 0.28633 0.0
C4006 C 0.58023 0.5714 0.27817 0.0
C4007 C 0.60156 0.60532 0.28615 0.0
C4008 C 0.61222 0.60648 0.29271 0.0
C4009 C 0.59986 0.61546 0.28709 0.0
C4010 C 0.58847 0.61461 0.28139 0.0
C4011 C 0.57723 0.60558 0.28792 0.0
C4012 C 0.56653 0.60478 0.28243 0.0
C4013 C 0.56695 0.61301 0.27049 0.0
C4014 C 0.57809 0.62208 0.26404 0.0
C4015 C 0.58882 0.62291 0.26948 0.0
H4016 H 0.55866 0.61237 0.26625 0.0
H4017 H 0.66029 0.61912 0.32724 0.0
H4018 H 0.33874 0.96515 0.34156 0.0
H4019 H 0.35623 0.9657 0.32808 0.0
H4020 H 0.3601 0.99396 0.29444 0.0
H4021 H 0.3426 0.99341 0.30777 0.0
H4022 H 0.36234 0.97648 0.27753 0.0
H4023 H 0.37858 0.00111 0.32815 0.0
H4024 H 0.37987 0.00554 0.35895 0.0
H4025 H 0.38634 0.97627 0.36849 0.0
H4026 H 0.38492 0.97154 0.33774 0.0
H4027 H 0.42083 0.99803 0.2457 0.0
H4028 H 0.40378 0.99697 0.26102 0.0
H4029 H 0.40214 0.96913 0.29345 0.0
H4030 H 0.41957 0.97046 0.27854 0.0
H4031 H 0.39849 0.98546 0.31136 0.0
H4032 H 0.3828 0.96122 0.26053 0.0
H4033 H 0.38169 0.95699 0.22969 0.0
H4034 H 0.37417 0.9856 0.22053 0.0
H4035 H 0.37541 0.99012 0.25131 0.0
C4036 C 0.34328 0.97144 0.33124 0.0
C4037 C 0.33931 0.97926 0.32575 0.0
C4038 C 0.35331 0.97179 0.32361 0.0
C4039 C 0.35955 0.97997 0.31038 0.0
C4040 C 0.35544 0.98759 0.30465 0.0
C4041 C 0.34545 0.98729 0.3123 0.0
C4042 C 0.37038 0.98061 0.30249 0.0
C4043 C 0.3703 0.97858 0.2849 0.0
C4044 C 0.38063 0.98305 0.31218 0.0
C4045 C 0.38151 0.98589 0.33066 0.0
C4046 C 0.38017 0.99555 0.33683 0.0
C4047 C 0.38095 0.99813 0.35427 0.0
C4048 C 0.38315 0.99117 0.36567 0.0
C4049 C 0.38462 0.98164 0.35964 0.0
C4050 C 0.38384 0.97901 0.34221 0.0
C4051 C 0.41704 0.99186 0.25632 0.0
C4052 C 0.42158 0.98432 0.26087 0.0
C4053 C 0.40719 0.99116 0.26494 0.0
C4054 C 0.40155 0.98281 0.27818 0.0
C4055 C 0.40631 0.97558 0.28319 0.0
C4056 C 0.41621 0.97629 0.27458 0.0
C4057 C 0.39049 0.98143 0.28638 0.0
C4058 C 0.39052 0.98331 0.30402 0.0
C4059 C 0.38017 0.97885 0.27674 0.0
C4060 C 0.37931 0.97608 0.25822 0.0
C4061 C 0.381 0.96667 0.25193 0.0
C4062 C 0.38033 0.96421 0.23446 0.0
C4063 C 0.37789 0.97104 0.22315 0.0
C4064 C 0.37607 0.98032 0.2293 0.0
C4065 C 0.37675 0.98283 0.24676 0.0
H4066 H 0.37738 0.96912 0.20963 0.0
H4067 H 0.38375 0.99318 0.37917 0.0
H4068 H 0.64832 0.98161 0.29946 0.0
H4069 H 0.6316 0.98256 0.28648 0.0
H4070 H 0.61269 0.97316 0.33461 0.0
H4071 H 0.62898 0.97121 0.34713 0.0
H4072 H 0.59688 0.96329 0.31248 0.0
H4073 H 0.63023 0.00416 0.31776 0.0
H4074 H 0.6512 0.02133 0.31441 0.0
H4075 H 0.64737 0.01799 0.26007 0.0
H4076 H 0.62642 0.00069 0.26309 0.0
H4077 H 0.56182 0.99137 0.28828 0.0
H4078 H 0.57683 0.98797 0.30248 0.0
H4079 H 0.58753 0.98048 0.25385 0.0
H4080 H 0.57244 0.98358 0.23969 0.0
H4081 H 0.60698 0.99936 0.27735 0.0
H4082 H 0.57242 0.95761 0.27461 0.0
H4083 H 0.5512 0.94188 0.28049 0.0
H4084 H 0.55737 0.94931 0.33407 0.0
H4085 H 0.5786 0.96523 0.32848 0.0
C4086 C 0.6405 0.9796 0.30715 0.0
C4087 C 0.63991 0.97638 0.32427 0.0
C4088 C 0.631 0.98027 0.29981 0.0
C4089 C 0.62099 0.97834 0.30967 0.0
C4090 C 0.62029 0.97476 0.32669 0.0
C4091 C 0.6296 0.97366 0.33386 0.0
C4092 C 0.61139 0.9802 0.30234 0.0
C4093 C 0.59916 0.97129 0.30501 0.0
C4094 C 0.61422 0.99062 0.29254 0.0
C4095 C 0.62679 0.00106 0.29066 0.0
C4096 C 0.63388 0.00704 0.3051 0.0
C4097 C 0.64576 0.0168 0.30325 0.0
C4098 C 0.65062 0.02072 0.28703 0.0
C4099 C 0.6436 0.01493 0.27262 0.0
C4100 C 0.63172 0.00515 0.27439 0.0
C4101 C 0.56732 0.98889 0.28069 0.0
C4102 C 0.56593 0.98764 0.26293 0.0
C4103 C 0.57585 0.98695 0.28878 0.0
C4104 C 0.58324 0.98396 0.27917 0.0
C4105 C 0.58188 0.98274 0.26146 0.0
C4106 C 0.57322 0.98444 0.25342 0.0
C4107 C 0.59268 0.98244 0.28742 0.0
C4108 C 0.60483 0.99144 0.28492 0.0
C4109 C 0.58977 0.97233 0.29778 0.0
C4110 C 0.57705 0.9627 0.30111 0.0
C4111 C 0.56922 0.95597 0.28763 0.0
C4112 C 0.5572 0.947 0.29091 0.0
C4113 C 0.55292 0.94462 0.30764 0.0
C4114 C 0.56068 0.95118 0.32112 0.0
C4115 C 0.57271 0.96017 0.31791 0.0
H4116 H 0.54361 0.93767 0.31015 0.0
H4117 H 0.65982 0.02828 0.28563 0.0
H4118 H 0.02568 0.65635 0.34093 0.0
H4119 H 0.02238 0.63789 0.32626 0.0
H4120 H 0.99772 0.64007 0.29156 0.0
H4121 H 1.00078 0.65845 0.3065 0.0
H4122 H 0.9885 0.61735 0.30246 0.0
H4123 H 0.02656 0.64783 0.27938 0.0
H4124 H 0.04768 0.66501 0.28041 0.0
H4125 H 0.05821 0.64275 0.30715 0.0
H4126 H 0.0371 0.62548 0.30651 0.0
H4127 H 0.98608 0.57507 0.24074 0.0
H4128 H 0.98935 0.59332 0.25592 0.0
H4129 H 0.01222 0.58948 0.29205 0.0
H4130 H 0.00886 0.57101 0.277 0.0
H4131 H 0.02237 0.61292 0.28061 0.0
H4132 H 0.98404 0.58237 0.30333 0.0
H4133 H 0.96285 0.56534 0.30196 0.0
H4134 H 0.95286 0.588 0.27513 0.0
H4135 H 0.97403 0.60511 0.27614 0.0
C4136 C 0.0196 0.65295 0.33011 0.0
C4137 C 0.01349 0.65886 0.32483 0.0
C4138 C 0.01776 0.64241 0.32169 0.0
C4139 C 0.00991 0.63766 0.30768 0.0
C4140 C 0.00383 0.64358 0.30234 0.0
C4141 C 0.00561 0.6541 0.31083 0.0
C4142 C 0.00782 0.62635 0.29891 0.0
C4143 C 0.9959 0.61645 0.29745 0.0
C4144 C 0.01749 0.62506 0.29276 0.0
C4145 C 0.03022 0.6354 0.29303 0.0
C4146 C 0.03336 0.64662 0.28559 0.0
C4147 C 0.04533 0.65637 0.28609 0.0
C4148 C 0.05428 0.65498 0.29388 0.0
C4149 C 0.05127 0.64382 0.30114 0.0
C4150 C 0.0393 0.63404 0.3007 0.0
C4151 C 0.99162 0.57794 0.25211 0.0
C4152 C 0.99711 0.57148 0.25775 0.0
C4153 C 0.99352 0.58843 0.26072 0.0
C4154 C 1.00093 0.59269 0.27521 0.0
C4155 C 0.00647 0.58633 0.28089 0.0
C4156 C 0.00456 0.5758 0.27227 0.0
C4157 C 0.00307 0.60396 0.28415 0.0
C4158 C 0.01499 0.61384 0.28563 0.0
C4159 C 0.9934 0.60525 0.29024 0.0
C4160 C 0.98064 0.59499 0.28968 0.0
C4161 C 0.97734 0.58369 0.29702 0.0
C4162 C 0.96533 0.57403 0.29633 0.0
C4163 C 0.95652 0.57558 0.28843 0.0
C4164 C 0.95969 0.5868 0.28123 0.0
C4165 C 0.9717 0.59649 0.28188 0.0
H4166 H 0.94722 0.56809 0.28791 0.0
H4167 H 0.06354 0.66253 0.29425 0.0
H4168 H 0.34368 0.34424 0.30971 0.0
H4169 H 0.36303 0.35955 0.29726 0.0
H4170 H 0.36159 0.38802 0.32559 0.0
H4171 H 0.34219 0.37281 0.3379 0.0
H4172 H 0.3693 0.3949 0.29313 0.0
H4173 H 0.37883 0.3769 0.33951 0.0
H4174 H 0.37734 0.35973 0.35567 0.0
H4175 H 0.39087 0.34923 0.31263 0.0
H4176 H 0.39228 0.36625 0.29613 0.0
H4177 H 0.43097 0.44098 0.28053 0.0
H4178 H 0.41162 0.42657 0.29403 0.0
H4179 H 0.41275 0.3964 0.27035 0.0
H4180 H 0.43208 0.41067 0.2572 0.0
H4181 H 0.40522 0.39074 0.30147 0.0
H4182 H 0.39513 0.40782 0.25464 0.0
H4183 H 0.39604 0.42435 0.23752 0.0
H4184 H 0.38315 0.43594 0.28013 0.0
H4185 H 0.38232 0.41957 0.29758 0.0
C4186 C 0.34745 0.35377 0.31317 0.0
C4187 C 0.34147 0.35732 0.32486 0.0
C4188 C 0.35852 0.3625 0.30611 0.0
C4189 C 0.36383 0.3749 0.3107 0.0
C4190 C 0.35767 0.3785 0.32192 0.0
C4191 C 0.3466 0.36979 0.32897 0.0
C4192 C 0.37596 0.38409 0.30417 0.0
C4193 C 0.37719 0.39409 0.29513 0.0
C4194 C 0.3862 0.38289 0.30652 0.0
C4195 C 0.38557 0.37279 0.31654 0.0
C4196 C 0.38143 0.37089 0.33346 0.0
C4197 C 0.3806 0.36119 0.34269 0.0
C4198 C 0.38398 0.35337 0.33517 0.0
C4199 C 0.38824 0.35528 0.31843 0.0
C4200 C 0.38907 0.36496 0.30914 0.0
C4201 C 0.42709 0.43126 0.27831 0.0
C4202 C 0.43307 0.42695 0.26789 0.0
C4203 C 0.41603 0.42304 0.28597 0.0
C4204 C 0.41064 0.41038 0.28304 0.0
C4205 C 0.41673 0.40609 0.27288 0.0
C4206 C 0.42781 0.41427 0.2654 0.0
C4207 C 0.39859 0.40154 0.29026 0.0
C4208 C 0.39735 0.3916 0.29949 0.0
C4209 C 0.38833 0.40274 0.28795 0.0
C4210 C 0.38879 0.41256 0.27747 0.0
C4211 C 0.39257 0.41395 0.2604 0.0
C4212 C 0.39306 0.42328 0.25063 0.0
C4213 C 0.38969 0.43121 0.25775 0.0
C4214 C 0.38578 0.42981 0.27464 0.0
C4215 C 0.38529 0.4205 0.28447 0.0
H4216 H 0.39007 0.43843 0.25016 0.0
H4217 H 0.38332 0.34586 0.34232 0.0
H4218 H 0.32811 0.32088 0.38469 0.0
H4219 H 0.33124 0.30479 0.39518 0.0
H4220 H 0.302 0.27828 0.36357 0.0
H4221 H 0.29871 0.29441 0.35305 0.0
H4222 H 0.30206 0.26928 0.39556 0.0
H4223 H 0.33016 0.28928 0.35024 0.0
H4224 H 0.34591 0.30697 0.33446 0.0
H4225 H 0.37006 0.3171 0.37704 0.0
H4226 H 0.3544 0.29957 0.39318 0.0
H4227 H 0.32147 0.22604 0.40792 0.0
H4228 H 0.31547 0.23929 0.39411 0.0
H4229 H 0.34394 0.27057 0.42078 0.0
H4230 H 0.34985 0.25748 0.43471 0.0
H4231 H 0.34324 0.27564 0.38788 0.0
H4232 H 0.31472 0.257 0.43399 0.0
H4233 H 0.29897 0.23969 0.45035 0.0
H4234 H 0.27572 0.22718 0.40657 0.0
H4235 H 0.29141 0.24434 0.38987 0.0
C4236 C 0.32223 0.31161 0.38009 0.0
C4237 C 0.31322 0.30894 0.36793 0.0
C4238 C 0.32408 0.30243 0.38605 0.0
C4239 C 0.31701 0.29038 0.37992 0.0
C4240 C 0.3076 0.28754 0.3684 0.0
C4241 C 0.30574 0.29676 0.3624 0.0
C4242 C 0.31984 0.28096 0.38511 0.0
C4243 C 0.31099 0.27054 0.39362 0.0
C4244 C 0.33154 0.28269 0.38273 0.0
C4245 C 0.34106 0.29315 0.37297 0.0
C4246 C 0.33881 0.29532 0.35628 0.0
C4247 C 0.34772 0.30532 0.34727 0.0
C4248 C 0.35897 0.31317 0.35476 0.0
C4249 C 0.36134 0.31101 0.37126 0.0
C4250 C 0.35245 0.30104 0.38034 0.0
C4251 C 0.32643 0.23573 0.41085 0.0
C4252 C 0.3362 0.24069 0.42235 0.0
C4253 C 0.323 0.24329 0.40294 0.0
C4254 C 0.32924 0.25592 0.40647 0.0
C4255 C 0.33906 0.26088 0.41776 0.0
C4256 C 0.34247 0.25336 0.42565 0.0
C4257 C 0.32555 0.26408 0.39869 0.0
C4258 C 0.33425 0.27428 0.38964 0.0
C4259 C 0.31373 0.26215 0.4006 0.0
C4260 C 0.30429 0.25186 0.41064 0.0
C4261 C 0.30629 0.2505 0.42782 0.0
C4262 C 0.29737 0.24073 0.43716 0.0
C4263 C 0.28637 0.23231 0.42949 0.0
C4264 C 0.28425 0.23369 0.41248 0.0
C4265 C 0.29315 0.24344 0.40307 0.0
H4266 H 0.27947 0.22475 0.43674 0.0
H4267 H 0.36585 0.32091 0.34776 0.0
H4268 H 0.67459 0.00936 0.38348 0.0
H4269 H 0.68915 0.02901 0.39669 0.0
H4270 H 0.71812 0.02937 0.36818 0.0
H4271 H 0.70363 0.00984 0.35482 0.0
H4272 H 0.70882 0.03631 0.41637 0.0
H4273 H 0.73829 0.05863 0.35666 0.0
H4274 H 0.73608 0.05757 0.32543 0.0
H4275 H 0.6983 0.04537 0.33062 0.0
H4276 H 0.70032 0.04652 0.36187 0.0
H4277 H 0.76371 0.08875 0.4408 0.0
H4278 H 0.74922 0.0696 0.42663 0.0
H4279 H 0.73322 0.08782 0.40151 0.0
H4280 H 0.74796 0.10715 0.41526 0.0
H4281 H 0.73498 0.07203 0.38019 0.0
H4282 H 0.72014 0.07123 0.43655 0.0
H4283 H 0.72126 0.07275 0.46787 0.0
H4284 H 0.72756 0.04279 0.46958 0.0
H4285 H 0.72665 0.0412 0.43825 0.0
C4286 C 0.68407 0.01361 0.38009 0.0
C4287 C 0.68797 0.0081 0.36804 0.0
C4288 C 0.69237 0.02482 0.38766 0.0
C4289 C 0.70468 0.03072 0.38325 0.0
C4290 C 0.70863 0.02507 0.37156 0.0
C4291 C 0.70034 0.01388 0.36399 0.0
C4292 C 0.7134 0.04287 0.39071 0.0
C4293 C 0.71455 0.04412 0.40846 0.0
C4294 C 0.72072 0.05311 0.38039 0.0
C4295 C 0.71944 0.05255 0.3616 0.0
C4296 C 0.72952 0.05577 0.35113 0.0
C4297 C 0.7283 0.05514 0.33343 0.0
C4298 C 0.71705 0.05137 0.32605 0.0
C4299 C 0.707 0.04825 0.33636 0.0
C4300 C 0.70818 0.04887 0.35406 0.0
C4301 C 0.75728 0.08876 0.43199 0.0
C4302 C 0.75697 0.09948 0.42918 0.0
C4303 C 0.74891 0.07777 0.42405 0.0
C4304 C 0.74002 0.07725 0.41324 0.0
C4305 C 0.73997 0.08801 0.40989 0.0
C4306 C 0.74834 0.09903 0.41783 0.0
C4307 C 0.73057 0.06541 0.40583 0.0
C4308 C 0.72927 0.06422 0.38809 0.0
C4309 C 0.72296 0.05528 0.41618 0.0
C4310 C 0.72343 0.05617 0.43504 0.0
C4311 C 0.72185 0.06502 0.4436 0.0
C4312 C 0.72243 0.06589 0.46135 0.0
C4313 C 0.72451 0.05789 0.4707 0.0
C4314 C 0.72597 0.04899 0.46232 0.0
C4315 C 0.72541 0.04809 0.44456 0.0
H4316 H 0.72495 0.05857 0.48445 0.0
H4317 H 0.71613 0.05088 0.31234 0.0
H4318 H 0.99456 0.70252 0.35648 0.0
H4319 H 0.97539 0.69992 0.36718 0.0
H4320 H 0.96809 0.6672 0.3931 0.0
H4321 H 0.98708 0.66971 0.38256 0.0
H4322 H 0.94889 0.66386 0.37354 0.0
H4323 H 0.97698 0.69319 0.415 0.0
H4324 H 0.99468 0.7129 0.42385 0.0
H4325 H 0.97892 0.73208 0.40143 0.0
H4326 H 0.96119 0.71248 0.39225 0.0
H4327 H 0.90246 0.6485 0.43205 0.0
H4328 H 0.92136 0.65459 0.41718 0.0
H4329 H 0.92351 0.68805 0.40181 0.0
H4330 H 0.90461 0.68207 0.41722 0.0
H4331 H 0.94485 0.69282 0.41189 0.0
H4332 H 0.91585 0.66389 0.37304 0.0
H4333 H 0.89806 0.64445 0.36363 0.0
H4334 H 0.91528 0.6249 0.37943 0.0
H4335 H 0.93311 0.6442 0.38916 0.0
C4336 C 0.98891 0.69485 0.3646 0.0
C4337 C 0.99232 0.6863 0.36864 0.0
C4338 C 0.97798 0.69338 0.37071 0.0
C4339 C 0.97031 0.68335 0.3809 0.0
C4340 C 0.97384 0.67497 0.38518 0.0
C4341 C 0.98474 0.67645 0.37919 0.0
C4342 C 0.95839 0.68118 0.38675 0.0
C4343 C 0.94799 0.67015 0.382 0.0
C4344 C 0.9572 0.68962 0.39722 0.0
C4345 C 0.96784 0.70139 0.40276 0.0
C4346 C 0.97735 0.70162 0.41182 0.0
C4347 C 0.98737 0.71277 0.41693 0.0
C4348 C 0.98794 0.72374 0.41315 0.0
C4349 C 0.97847 0.72358 0.40431 0.0
C4350 C 0.96844 0.71246 0.39916 0.0
C4351 C 0.90685 0.65707 0.42528 0.0
C4352 C 0.90197 0.66473 0.42559 0.0
C4353 C 0.91766 0.66055 0.41676 0.0
C4354 C 0.92376 0.67167 0.40803 0.0
C4355 C 0.91894 0.67939 0.40836 0.0
C4356 C 0.90815 0.67597 0.41712 0.0
C4357 C 0.93534 0.67528 0.39913 0.0
C4358 C 0.94567 0.68659 0.40322 0.0
C4359 C 0.93648 0.66714 0.38788 0.0
C4360 C 0.9258 0.6555 0.38192 0.0
C4361 C 0.91582 0.65544 0.3746 0.0
C4362 C 0.90573 0.64444 0.3692 0.0
C4363 C 0.90553 0.63345 0.37095 0.0
C4364 C 0.91544 0.63342 0.37808 0.0
C4365 C 0.92555 0.64439 0.38351 0.0
H4366 H 0.89771 0.62494 0.36676 0.0
H4367 H 0.99571 0.73236 0.41712 0.0
H4368 H 0.35157 0.01025 0.71739 0.0
H4369 H 0.36845 0.00971 0.73038 0.0
H4370 H 0.39359 0.0398 0.69916 0.0
H4371 H 0.37668 0.04053 0.68626 0.0
H4372 H 0.3841 0.00477 0.7167 0.0
H4373 H 0.42055 0.05636 0.7208 0.0
H4374 H 0.42168 0.07618 0.72463 0.0
H4375 H 0.38744 0.05841 0.7505 0.0
H4376 H 0.38619 0.03853 0.74705 0.0
H4377 H 0.43923 0.00839 0.73613 0.0
H4378 H 0.4248 0.0126 0.72219 0.0
H4379 H 0.42021 0.02762 0.76923 0.0
H4380 H 0.43473 0.02362 0.78311 0.0
H4381 H 0.4196 0.04041 0.74379 0.0
H4382 H 0.40031 0.99781 0.757 0.0
H4383 H 0.39772 0.97724 0.75673 0.0
H4384 H 0.39499 0.97575 0.70224 0.0
H4385 H 0.39773 0.99639 0.70217 0.0
C4386 C 0.36069 0.01683 0.71337 0.0
C4387 C 0.36279 0.02544 0.70079 0.0
C4388 C 0.37034 0.01647 0.72077 0.0
C4389 C 0.38231 0.02472 0.71579 0.0
C4390 C 0.38445 0.03343 0.70336 0.0
C4391 C 0.37478 0.03382 0.69597 0.0
C4392 C 0.39244 0.02388 0.72329 0.0
C4393 C 0.39188 0.01259 0.72255 0.0
C4394 C 0.40251 0.03401 0.7312 0.0
C4395 C 0.40322 0.04594 0.73348 0.0
C4396 C 0.41329 0.05669 0.72735 0.0
C4397 C 0.41394 0.06793 0.72945 0.0
C4398 C 0.40462 0.06855 0.73775 0.0
C4399 C 0.39463 0.05792 0.74402 0.0
C4400 C 0.39394 0.04666 0.74197 0.0
C4401 C 0.43524 0.01272 0.74343 0.0
C4402 C 0.43809 0.01563 0.76074 0.0
C4403 C 0.42698 0.01511 0.73546 0.0
C4404 C 0.42125 0.02024 0.74473 0.0
C4405 C 0.42451 0.02367 0.7618 0.0
C4406 C 0.43285 0.0214 0.76972 0.0
C4407 C 0.4113 0.02132 0.73706 0.0
C4408 C 0.41188 0.03264 0.73776 0.0
C4409 C 0.40105 0.01112 0.72957 0.0
C4410 C 0.39936 0.99869 0.72957 0.0
C4411 C 0.39925 0.99313 0.74495 0.0
C4412 C 0.39774 0.98145 0.74486 0.0
C4413 C 0.39623 0.97521 0.72947 0.0
C4414 C 0.39619 0.98061 0.71415 0.0
C4415 C 0.39771 0.99229 0.71416 0.0
H4416 H 0.39506 0.96617 0.72943 0.0
H4417 H 0.40514 0.07726 0.73935 0.0
H4418 H 1.00051 0.34482 0.71638 0.0
H4419 H 0.00208 0.36268 0.73101 0.0
H4420 H 0.97356 0.36009 0.69937 0.0
H4421 H 0.97204 0.34236 0.6846 0.0
H4422 H 0.99232 0.38333 0.70174 0.0
H4423 H 0.96815 0.35046 0.74036 0.0
H4424 H 0.96357 0.33303 0.7587 0.0
H4425 H 0.99516 0.35608 0.78879 0.0
H4426 H 1.00003 0.3736 0.7705 0.0
H4427 H 0.97752 0.42195 0.74902 0.0
H4428 H 0.97737 0.40496 0.7339 0.0
H4429 H 0.00504 0.40775 0.7676 0.0
H4430 H 0.00491 0.42439 0.78315 0.0
H4431 H 0.98736 0.38468 0.76422 0.0
H4432 H 0.01157 0.41751 0.72645 0.0
H4433 H 0.01666 0.43515 0.70833 0.0
H4434 H 0.98579 0.41256 0.67675 0.0
H4435 H 0.98041 0.3948 0.69483 0.0
C4436 C 0.99456 0.34804 0.71259 0.0
C4437 C 0.98614 0.34219 0.69938 0.0
C4438 C 0.99544 0.35822 0.72098 0.0
C4439 C 0.98787 0.36265 0.71635 0.0
C4440 C 0.97949 0.35683 0.70313 0.0
C4441 C 0.97861 0.34667 0.69475 0.0
C4442 C 0.98872 0.37344 0.72514 0.0
C4443 C 0.99109 0.38358 0.71538 0.0
C4444 C 0.98745 0.37387 0.74298 0.0
C4445 C 0.98452 0.36332 0.75396 0.0
C4446 C 0.97418 0.35179 0.7508 0.0
C4447 C 0.97152 0.3419 0.7612 0.0
C4448 C 0.97909 0.34345 0.77487 0.0
C4449 C 0.98932 0.35489 0.77818 0.0
C4450 C 0.99203 0.3648 0.76781 0.0
C4451 C 0.98358 0.41895 0.7532 0.0
C4452 C 0.99125 0.42457 0.76726 0.0
C4453 C 0.98356 0.40931 0.74446 0.0
C4454 C 0.99127 0.40515 0.74954 0.0
C4455 C 0.99903 0.41083 0.76344 0.0
C4456 C 0.99904 0.42044 0.77219 0.0
C4457 C 0.99091 0.39457 0.74081 0.0
C4458 C 0.98863 0.38446 0.75058 0.0
C4459 C 0.99233 0.39419 0.72299 0.0
C4460 C 0.99552 0.40485 0.7121 0.0
C4461 C 0.00581 0.41632 0.71573 0.0
C4462 C 0.00876 0.42634 0.70545 0.0
C4463 C 0.00154 0.42498 0.69142 0.0
C4464 C 0.99137 0.4136 0.68763 0.0
C4465 C 0.98837 0.40355 0.69789 0.0
H4466 H 0.00384 0.43275 0.68347 0.0
H4467 H 0.97702 0.33581 0.78293 0.0
H4468 H 0.65628 0.65797 0.709 0.0
H4469 H 0.63729 0.64256 0.72199 0.0
H4470 H 0.64745 0.61538 0.71408 0.0
H4471 H 0.66608 0.63063 0.70006 0.0
H4472 H 0.62564 0.60549 0.70628 0.0
H4473 H 0.64742 0.62874 0.755 0.0
H4474 H 0.65954 0.6471 0.7729 0.0
H4475 H 0.63066 0.65472 0.7725 0.0
H4476 H 0.61842 0.6365 0.7544 0.0
H4477 H 0.58083 0.56576 0.76966 0.0
H4478 H 0.60002 0.57954 0.75553 0.0
H4479 H 0.58549 0.60129 0.73786 0.0
H4480 H 0.56602 0.5872 0.75098 0.0
H4481 H 0.60959 0.61303 0.75968 0.0
H4482 H 0.58853 0.58875 0.70919 0.0
H4483 H 0.57709 0.56929 0.69327 0.0
H4484 H 0.60611 0.56235 0.70025 0.0
H4485 H 0.61765 0.5817 0.71645 0.0
C4486 C 0.65449 0.64872 0.71021 0.0
C4487 C 0.66263 0.64548 0.70359 0.0
C4488 C 0.64366 0.63992 0.71773 0.0
C4489 C 0.64095 0.62778 0.71933 0.0
C4490 C 0.64926 0.62463 0.713 0.0
C4491 C 0.65994 0.63337 0.70506 0.0
C4492 C 0.62926 0.61829 0.72692 0.0
C4493 C 0.62228 0.60713 0.7181 0.0
C4494 C 0.62472 0.62034 0.74231 0.0
C4495 C 0.63204 0.63131 0.75322 0.0
C4496 C 0.64368 0.63438 0.75863 0.0
C4497 C 0.65057 0.64476 0.76883 0.0
C4498 C 0.64588 0.65209 0.7738 0.0
C4499 C 0.63428 0.64904 0.76862 0.0
C4500 C 0.62736 0.63868 0.75841 0.0
C4501 C 0.58154 0.57324 0.76235 0.0
C4502 C 0.57183 0.57538 0.76163 0.0
C4503 C 0.59257 0.58117 0.75443 0.0
C4504 C 0.59414 0.59144 0.74582 0.0
C4505 C 0.58443 0.59343 0.74458 0.0
C4506 C 0.57334 0.5854 0.7522 0.0
C4507 C 0.60612 0.6005 0.7389 0.0
C4508 C 0.6131 0.6115 0.7479 0.0
C4509 C 0.6108 0.59819 0.72397 0.0
C4510 C 0.60388 0.58659 0.71422 0.0
C4511 C 0.59241 0.58301 0.7075 0.0
C4512 C 0.58592 0.57201 0.69838 0.0
C4513 C 0.59085 0.56456 0.6958 0.0
C4514 C 0.60229 0.56811 0.70229 0.0
C4515 C 0.60881 0.5791 0.71143 0.0
H4516 H 0.58581 0.55606 0.68873 0.0
H4517 H 0.65123 0.66011 0.7817 0.0
H4518 H 0.66957 0.68154 0.65467 0.0
H4519 H 0.66728 0.69786 0.64307 0.0
H4520 H 0.70596 0.72253 0.64614 0.0
H4521 H 0.70815 0.70631 0.65897 0.0
H4522 H 0.69633 0.73458 0.65489 0.0
H4523 H 0.68961 0.70888 0.60685 0.0
H4524 H 0.68089 0.68974 0.59002 0.0
H4525 H 0.64541 0.68481 0.59552 0.0
H4526 H 0.65389 0.70383 0.61258 0.0
H4527 H 0.68914 0.7729 0.59154 0.0
H4528 H 0.69474 0.75929 0.60494 0.0
H4529 H 0.66014 0.74047 0.63017 0.0
H4530 H 0.65468 0.75445 0.61772 0.0
H4531 H 0.66946 0.72668 0.60539 0.0
H4532 H 0.67815 0.75329 0.65545 0.0
H4533 H 0.68865 0.77345 0.66981 0.0
H4534 H 0.72306 0.77778 0.65646 0.0
H4535 H 0.71274 0.7577 0.64178 0.0
C4536 C 0.6776 0.69042 0.65275 0.0
C4537 C 0.68905 0.69264 0.65756 0.0
C4538 C 0.6763 0.69976 0.646 0.0
C4539 C 0.68647 0.71141 0.64325 0.0
C4540 C 0.69796 0.71363 0.64804 0.0
C4541 C 0.69922 0.70435 0.65529 0.0
C4542 C 0.68499 0.72129 0.63583 0.0
C4543 C 0.69059 0.73284 0.6439 0.0
C4544 C 0.67753 0.71918 0.62144 0.0
C4545 C 0.67238 0.70774 0.61111 0.0
C4546 C 0.67994 0.70367 0.60456 0.0
C4547 C 0.67504 0.69285 0.59497 0.0
C4548 C 0.6626 0.68605 0.59173 0.0
C4549 C 0.65504 0.69008 0.59804 0.0
C4550 C 0.65989 0.70089 0.60766 0.0
C4551 C 0.68284 0.76615 0.60035 0.0
C4552 C 0.67138 0.76476 0.60339 0.0
C4553 C 0.68604 0.75831 0.60788 0.0
C4554 C 0.67782 0.74887 0.61843 0.0
C4555 C 0.66658 0.74769 0.62198 0.0
C4556 C 0.66345 0.75564 0.61473 0.0
C4557 C 0.68053 0.73965 0.62473 0.0
C4558 C 0.67522 0.7283 0.61632 0.0
C4559 C 0.6885 0.74207 0.63844 0.0
C4560 C 0.69468 0.75408 0.64734 0.0
C4561 C 0.68795 0.7586 0.65541 0.0
C4562 C 0.69387 0.77 0.66365 0.0
C4563 C 0.70651 0.77691 0.664 0.0
C4564 C 0.71327 0.77242 0.65615 0.0
C4565 C 0.70739 0.76104 0.64788 0.0
H4566 H 0.71108 0.78573 0.67039 0.0
H4567 H 0.65883 0.67768 0.5843 0.0
H4568 H 0.29902 0.99609 0.66444 0.0
H4569 H 0.28399 0.9766 0.6516 0.0
H4570 H 0.31257 0.97106 0.63332 0.0
H4571 H 0.32769 0.99084 0.64559 0.0
H4572 H 0.29583 0.96377 0.61011 0.0
H4573 H 0.29551 0.95694 0.67018 0.0
H4574 H 0.29394 0.96081 0.70065 0.0
H4575 H 0.25788 0.95374 0.69284 0.0
H4576 H 0.25929 0.94998 0.66227 0.0
H4577 H 0.26086 0.90041 0.59447 0.0
H4578 H 0.27523 0.91999 0.60768 0.0
H4579 H 0.24601 0.92604 0.62038 0.0
H4580 H 0.23146 0.90621 0.60757 0.0
H4581 H 0.26265 0.93304 0.6463 0.0
H4582 H 0.26306 0.93939 0.58611 0.0
H4583 H 0.26476 0.93516 0.55583 0.0
H4584 H 0.30096 0.94279 0.56423 0.0
H4585 H 0.29941 0.94689 0.59463 0.0
C4586 C 0.30211 0.99076 0.65757 0.0
C4587 C 0.31452 0.99493 0.65611 0.0
C4588 C 0.2935 0.97958 0.65033 0.0
C4589 C 0.29712 0.9722 0.64184 0.0
C4590 C 0.30955 0.97655 0.63989 0.0
C4591 C 0.31818 0.98785 0.64691 0.0
C4592 C 0.28797 0.9599 0.6352 0.0
C4593 C 0.28868 0.95701 0.6181 0.0
C4594 C 0.27845 0.95113 0.64551 0.0
C4595 C 0.27755 0.95329 0.66391 0.0
C4596 C 0.28727 0.95629 0.67494 0.0
C4597 C 0.28641 0.95845 0.69223 0.0
C4598 C 0.27582 0.95755 0.69867 0.0
C4599 C 0.26607 0.95445 0.68783 0.0
C4600 C 0.2669 0.95229 0.67053 0.0
C4601 C 0.25743 0.90575 0.60041 0.0
C4602 C 0.245 0.90174 0.59995 0.0
C4603 C 0.26568 0.91702 0.60778 0.0
C4604 C 0.26171 0.92456 0.61474 0.0
C4605 C 0.24927 0.92039 0.61496 0.0
C4606 C 0.24098 0.9091 0.60757 0.0
C4607 C 0.27059 0.93693 0.6213 0.0
C4608 C 0.26981 0.93983 0.63835 0.0
C4609 C 0.28009 0.94568 0.61099 0.0
C4610 C 0.28108 0.94334 0.59268 0.0
C4611 C 0.27136 0.94008 0.58152 0.0
C4612 C 0.2723 0.93772 0.56433 0.0
C4613 C 0.28295 0.93868 0.55812 0.0
C4614 C 0.29271 0.94204 0.56907 0.0
C4615 C 0.29181 0.94439 0.58627 0.0
H4616 H 0.28366 0.93685 0.5448 0.0
H4617 H 0.27517 0.95923 0.71205 0.0
H4618 H 0.01073 0.32808 0.63788 0.0
H4619 H 0.02929 0.33032 0.6259 0.0
H4620 H 0.02762 0.30394 0.66132 0.0
H4621 H 0.00895 0.30166 0.6735 0.0
H4622 H 0.05026 0.32468 0.65998 0.0
H4623 H 0.02153 0.29591 0.62054 0.0
H4624 H 0.00421 0.28732 0.60076 0.0
H4625 H 0.02335 0.31867 0.5688 0.0
H4626 H 0.04072 0.32754 0.58851 0.0
H4627 H 0.10062 0.32641 0.61631 0.0
H4628 H 0.0809 0.31935 0.62979 0.0
H4629 H 0.07519 0.34302 0.59746 0.0
H4630 H 0.0946 0.34981 0.58365 0.0
H4631 H 0.05554 0.32048 0.59817 0.0
H4632 H 0.08308 0.35022 0.6392 0.0
H4633 H 0.10033 0.35917 0.65913 0.0
H4634 H 0.08337 0.32612 0.68806 0.0
H4635 H 0.06609 0.31691 0.66815 0.0
C4636 C 0.01423 0.32266 0.64305 0.0
C4637 C 0.00837 0.31468 0.65663 0.0
C4638 C 0.02483 0.32392 0.63614 0.0
C4639 C 0.02978 0.31722 0.64263 0.0
C4640 C 0.02392 0.30917 0.65611 0.0
C4641 C 0.01324 0.30784 0.663 0.0
C4642 C 0.04134 0.31909 0.63563 0.0
C4643 C 0.05137 0.32352 0.64652 0.0
C4644 C 0.04282 0.31775 0.61804 0.0
C4645 C 0.0324 0.31243 0.60608 0.0
C4646 C 0.02201 0.30102 0.60936 0.0
C4647 C 0.01219 0.29609 0.59815 0.0
C4648 C 0.01267 0.30245 0.58355 0.0
C4649 C 0.02299 0.31375 0.58011 0.0
C4650 C 0.03283 0.31872 0.5913 0.0
C4651 C 0.09516 0.33011 0.6121 0.0
C4652 C 0.09923 0.33874 0.59898 0.0
C4653 C 0.08393 0.32612 0.61988 0.0
C4654 C 0.0766 0.3307 0.61467 0.0
C4655 C 0.08069 0.33936 0.60168 0.0
C4656 C 0.09187 0.34334 0.59393 0.0
C4657 C 0.06454 0.32639 0.62242 0.0
C4658 C 0.0544 0.32147 0.61167 0.0
C4659 C 0.06298 0.3273 0.64012 0.0
C4660 C 0.07337 0.33283 0.65207 0.0
C4661 C 0.08308 0.34482 0.64972 0.0
C4662 C 0.09285 0.34995 0.66103 0.0
C4663 C 0.09296 0.34321 0.67482 0.0
C4664 C 0.08329 0.33133 0.67735 0.0
C4665 C 0.0735 0.32615 0.66607 0.0
H4666 H 0.10053 0.3472 0.68357 0.0
H4667 H 0.00506 0.29862 0.57488 0.0
H4668 H 0.32056 0.32755 0.63733 0.0
H4669 H 0.30445 0.33035 0.62644 0.0
H4670 H 0.27932 0.30397 0.66213 0.0
H4671 H 0.29543 0.3009 0.6729 0.0
H4672 H 0.26858 0.30179 0.63152 0.0
H4673 H 0.29237 0.33413 0.67102 0.0
H4674 H 0.31122 0.35094 0.68352 0.0
H4675 H 0.31909 0.37092 0.63702 0.0
H4676 H 0.30038 0.35415 0.62414 0.0
H4677 H 0.22725 0.32334 0.61771 0.0
H4678 H 0.24054 0.31753 0.63173 0.0
H4679 H 0.27008 0.34205 0.59932 0.0
H4680 H 0.25695 0.34776 0.58522 0.0
H4681 H 0.27723 0.34449 0.63195 0.0
H4682 H 0.25432 0.31131 0.59186 0.0
H4683 H 0.23557 0.2944 0.57928 0.0
H4684 H 0.22593 0.27609 0.62729 0.0
H4685 H 0.24456 0.29298 0.64022 0.0
C4686 C 0.31158 0.32222 0.64274 0.0
C4687 C 0.30929 0.31409 0.65609 0.0
C4688 C 0.30238 0.32388 0.63655 0.0
C4689 C 0.29075 0.31759 0.64375 0.0
C4690 C 0.28826 0.30898 0.65648 0.0
C4691 C 0.29746 0.30724 0.66261 0.0
C4692 C 0.28145 0.32048 0.63841 0.0
C4693 C 0.27037 0.31109 0.63188 0.0
C4694 C 0.28382 0.33264 0.63878 0.0
C4695 C 0.295 0.34284 0.64657 0.0
C4696 C 0.29815 0.34208 0.66342 0.0
C4697 C 0.30881 0.3516 0.67058 0.0
C4698 C 0.31636 0.36198 0.66106 0.0
C4699 C 0.31324 0.36287 0.64438 0.0
C4700 C 0.3026 0.35337 0.63715 0.0
C4701 C 0.23657 0.32745 0.61356 0.0
C4702 C 0.24105 0.3361 0.60044 0.0
C4703 C 0.24415 0.32413 0.62158 0.0
C4704 C 0.2563 0.32934 0.61653 0.0
C4705 C 0.26077 0.33799 0.60352 0.0
C4706 C 0.25324 0.34129 0.59553 0.0
C4707 C 0.26449 0.32587 0.62462 0.0
C4708 C 0.27537 0.33517 0.63176 0.0
C4709 C 0.2619 0.31364 0.62484 0.0
C4710 C 0.25075 0.30347 0.61705 0.0
C4711 C 0.24815 0.30372 0.59977 0.0
C4712 C 0.23755 0.29414 0.59257 0.0
C4713 C 0.22954 0.2842 0.60249 0.0
C4714 C 0.23213 0.28381 0.61963 0.0
C4715 C 0.24271 0.29338 0.6269 0.0
H4716 H 0.22134 0.27678 0.5969 0.0
H4717 H 0.32461 0.36934 0.66662 0.0
H4718 H 0.69793 0.99335 0.67268 0.0
H4719 H 0.69551 0.97492 0.65887 0.0
H4720 H 0.66591 0.97165 0.62908 0.0
H4721 H 0.66848 0.99025 0.64258 0.0
H4722 H 0.67745 0.95223 0.65909 0.0
H4723 H 0.66484 0.9585 0.59081 0.0
H4724 H 0.66909 0.97523 0.57128 0.0
H4725 H 0.70282 0.99871 0.59678 0.0
H4726 H 0.69886 0.98207 0.61631 0.0
H4727 H 0.64924 0.89625 0.61287 0.0
H4728 H 0.65486 0.91566 0.6269 0.0
H4729 H 0.68716 0.93389 0.59616 0.0
H4730 H 0.6813 0.91461 0.58149 0.0
H4731 H 0.67635 0.94656 0.59643 0.0
H4732 H 0.68826 0.92841 0.63901 0.0
H4733 H 0.68581 0.91234 0.65859 0.0
H4734 H 0.65711 0.91389 0.68449 0.0
H4735 H 0.65927 0.92986 0.66492 0.0
C4736 C 0.69096 0.98875 0.6631 0.0
C4737 C 0.68341 0.99326 0.65867 0.0
C4738 C 0.68956 0.97819 0.65527 0.0
C4739 C 0.6806 0.97194 0.64285 0.0
C4740 C 0.67303 0.97642 0.63842 0.0
C4741 C 0.67447 0.98703 0.64618 0.0
C4742 C 0.679 0.96058 0.63483 0.0
C4743 C 0.67724 0.951 0.64539 0.0
C4744 C 0.67893 0.95904 0.61695 0.0
C4745 C 0.68149 0.96906 0.60512 0.0
C4746 C 0.67319 0.96721 0.5922 0.0
C4747 C 0.67554 0.97669 0.58114 0.0
C4748 C 0.6862 0.98804 0.58282 0.0
C4749 C 0.69455 0.98993 0.59553 0.0
C4750 C 0.69224 0.98048 0.60661 0.0
C4751 C 0.65755 0.90438 0.6091 0.0
C4752 C 0.6648 0.90386 0.59602 0.0
C4753 C 0.66081 0.91546 0.61725 0.0
C4754 C 0.67148 0.92624 0.61268 0.0
C4755 C 0.67889 0.9257 0.59991 0.0
C4756 C 0.6756 0.91463 0.59167 0.0
C4757 C 0.67463 0.93814 0.6207 0.0
C4758 C 0.67663 0.9478 0.61014 0.0
C4759 C 0.67517 0.93985 0.63857 0.0
C4760 C 0.67387 0.93027 0.65041 0.0
C4761 C 0.68137 0.92527 0.64881 0.0
C4762 C 0.68004 0.91618 0.65991 0.0
C4763 C 0.67129 0.91208 0.67275 0.0
C4764 C 0.66387 0.91707 0.67453 0.0
C4765 C 0.66516 0.92615 0.66344 0.0
H4766 H 0.67028 0.90504 0.68134 0.0
H4767 H 0.688 0.99536 0.57425 0.0
H4768 H 0.00684 0.70684 0.67028 0.0
H4769 H 0.02575 0.72163 0.65646 0.0
H4770 H 0.02661 0.69227 0.62976 0.0
H4771 H 0.00756 0.67739 0.64342 0.0
H4772 H 0.04765 0.72407 0.65873 0.0
H4773 H 0.04063 0.70273 0.59126 0.0
H4774 H 0.02394 0.69027 0.57126 0.0
H4775 H 0.00261 0.70378 0.59423 0.0
H4776 H 0.01923 0.71648 0.61418 0.0
H4777 H 0.09424 0.74218 0.58453 0.0
H4778 H 0.07495 0.72833 0.598 0.0
H4779 H 0.07661 0.75861 0.62574 0.0
H4780 H 0.09634 0.77252 0.61296 0.0
H4781 H 0.05402 0.72689 0.59627 0.0
H4782 H 0.06145 0.74861 0.66337 0.0
H4783 H 0.0781 0.76071 0.6836 0.0
H4784 H 0.09858 0.74589 0.66159 0.0
H4785 H 0.08199 0.7336 0.64138 0.0
C4786 C 0.011 0.70353 0.66135 0.0
C4787 C 0.00572 0.69095 0.65792 0.0
C4788 C 0.02183 0.712 0.65352 0.0
C4789 C 0.02757 0.70808 0.64203 0.0
C4790 C 0.02225 0.69552 0.63842 0.0
C4791 C 0.01139 0.68703 0.64626 0.0
C4792 C 0.03932 0.71712 0.63426 0.0
C4793 C 0.049 0.72481 0.64505 0.0
C4794 C 0.04114 0.71791 0.61644 0.0
C4795 C 0.03114 0.71046 0.60433 0.0
C4796 C 0.0324 0.70309 0.59199 0.0
C4797 C 0.02294 0.69597 0.58067 0.0
C4798 C 0.0122 0.6962 0.58151 0.0
C4799 C 0.01091 0.70358 0.59363 0.0
C4800 C 0.02035 0.71073 0.60497 0.0
C4801 C 0.09068 0.74591 0.5938 0.0
C4802 C 0.09698 0.75849 0.59782 0.0
C4803 C 0.07954 0.73796 0.60132 0.0
C4804 C 0.07435 0.74238 0.61299 0.0
C4805 C 0.08051 0.75494 0.61696 0.0
C4806 C 0.09175 0.76291 0.60952 0.0
C4807 C 0.0624 0.73378 0.62074 0.0
C4808 C 0.05267 0.72618 0.60994 0.0
C4809 C 0.06053 0.73303 0.63856 0.0
C4810 C 0.07053 0.7403 0.65074 0.0
C4811 C 0.06949 0.74792 0.66288 0.0
C4812 C 0.07892 0.75481 0.67434 0.0
C4813 C 0.08941 0.75411 0.67384 0.0
C4814 C 0.09047 0.74647 0.66192 0.0
C4815 C 0.08107 0.73955 0.65044 0.0
H4816 H 0.0967 0.75945 0.68272 0.0
H4817 H 0.00489 0.69068 0.57275 0.0
H4818 H 0.99621 0.65501 0.71207 0.0
H4819 H 0.9977 0.6381 0.72368 0.0
H4820 H 0.96053 0.61288 0.70996 0.0
H4821 H 0.95904 0.62972 0.69782 0.0
H4822 H 0.97395 0.61483 0.7487 0.0
H4823 H 0.97122 0.60635 0.68658 0.0
H4824 H 0.97765 0.6133 0.65718 0.0
H4825 H 0.01467 0.62652 0.67079 0.0
H4826 H 0.00845 0.6198 0.70035 0.0
H4827 H 0.97418 0.56108 0.76773 0.0
H4828 H 0.96939 0.57523 0.75445 0.0
H4829 H 0.00568 0.59565 0.73433 0.0
H4830 H 0.01026 0.58097 0.74641 0.0
H4831 H 0.99153 0.59573 0.71215 0.0
H4832 H 0.9961 0.6042 0.77194 0.0
H4833 H 0.99225 0.59982 0.80255 0.0
H4834 H 0.95512 0.58964 0.79568 0.0
H4835 H 0.95871 0.59379 0.76497 0.0
C4836 C 0.98831 0.64589 0.71164 0.0
C4837 C 0.97751 0.64368 0.704 0.0
C4838 C 0.98919 0.63625 0.71826 0.0
C4839 C 0.97924 0.62428 0.71758 0.0
C4840 C 0.96831 0.62208 0.71052 0.0
C4841 C 0.96748 0.63169 0.7036 0.0
C4842 C 0.98051 0.61409 0.72375 0.0
C4843 C 0.97756 0.61043 0.74068 0.0
C4844 C 0.98568 0.6088 0.71343 0.0
C4845 C 0.98939 0.61271 0.69567 0.0
C4846 C 0.98074 0.61085 0.68333 0.0
C4847 C 0.98434 0.61472 0.66664 0.0
C4848 C 0.99657 0.62039 0.66213 0.0
C4849 C 0.0052 0.62216 0.6743 0.0
C4850 C 0.00165 0.61831 0.69102 0.0
C4851 C 0.98108 0.56836 0.76011 0.0
C4852 C 0.99268 0.56988 0.75832 0.0
C4853 C 0.97837 0.57661 0.75274 0.0
C4854 C 0.98726 0.58674 0.74376 0.0
C4855 C 0.99867 0.58799 0.74133 0.0
C4856 C 0.00133 0.57963 0.74843 0.0
C4857 C 0.98482 0.59619 0.73722 0.0
C4858 C 0.9877 0.59987 0.72022 0.0
C4859 C 0.97984 0.60171 0.74767 0.0
C4860 C 0.97764 0.59917 0.76612 0.0
C4861 C 0.98709 0.60093 0.77693 0.0
C4862 C 0.98496 0.59851 0.79431 0.0
C4863 C 0.97344 0.59443 0.80105 0.0
C4864 C 0.96404 0.59278 0.79044 0.0
C4865 C 0.96611 0.59517 0.77305 0.0
H4866 H 0.97181 0.59257 0.8145 0.0
H4867 H 0.99934 0.62338 0.6492 0.0
H4868 H 0.34298 0.34775 0.7099 0.0
H4869 H 0.35762 0.36744 0.72302 0.0
H4870 H 0.38687 0.36207 0.70785 0.0
H4871 H 0.37233 0.34251 0.69437 0.0
H4872 H 0.387 0.37047 0.74371 0.0
H4873 H 0.38381 0.37971 0.68488 0.0
H4874 H 0.37227 0.37911 0.6596 0.0
H4875 H 0.35781 0.39801 0.68747 0.0
H4876 H 0.36914 0.39856 0.71301 0.0
H4877 H 0.43556 0.42883 0.76326 0.0
H4878 H 0.42221 0.40998 0.74791 0.0
H4879 H 0.39495 0.42006 0.74539 0.0
H4880 H 0.40872 0.43956 0.75915 0.0
H4881 H 0.39363 0.40885 0.7182 0.0
H4882 H 0.39526 0.39977 0.7766 0.0
H4883 H 0.40486 0.39967 0.8036 0.0
H4884 H 0.41976 0.37985 0.77941 0.0
H4885 H 0.41038 0.37997 0.75219 0.0
C4886 C 0.35252 0.35072 0.70949 0.0
C4887 C 0.35654 0.34363 0.7011 0.0
C4888 C 0.36085 0.36197 0.71692 0.0
C4889 C 0.37329 0.36618 0.71629 0.0
C4890 C 0.37729 0.35894 0.70843 0.0
C4891 C 0.36899 0.3478 0.70072 0.0
C4892 C 0.38215 0.37831 0.72345 0.0
C4893 C 0.3886 0.37889 0.73806 0.0
C4894 C 0.38388 0.38921 0.71632 0.0
C4895 C 0.37723 0.38907 0.7009 0.0
C4896 C 0.3781 0.38365 0.68566 0.0
C4897 C 0.37161 0.38334 0.67128 0.0
C4898 C 0.36428 0.38849 0.67194 0.0
C4899 C 0.36348 0.39401 0.68698 0.0
C4900 C 0.36994 0.39434 0.7014 0.0
C4901 C 0.42689 0.42729 0.75904 0.0
C4902 C 0.42324 0.43578 0.76274 0.0
C4903 C 0.41913 0.41632 0.75051 0.0
C4904 C 0.40738 0.41336 0.74599 0.0
C4905 C 0.4039 0.42203 0.74893 0.0
C4906 C 0.41177 0.43314 0.75706 0.0
C4907 C 0.39861 0.40113 0.73862 0.0
C4908 C 0.39212 0.40049 0.72394 0.0
C4909 C 0.39662 0.39013 0.74596 0.0
C4910 C 0.40222 0.38999 0.76232 0.0
C4911 C 0.40065 0.39546 0.77701 0.0
C4912 C 0.40604 0.39539 0.79236 0.0
C4913 C 0.41294 0.38978 0.79321 0.0
C4914 C 0.41443 0.3842 0.77872 0.0
C4915 C 0.40907 0.38426 0.76334 0.0
H4916 H 0.4171 0.38974 0.8051 0.0
H4917 H 0.35925 0.38823 0.6608 0.0
H4918 H 0.65599 0.00601 0.71322 0.0
H4919 H 0.6377 0.00499 0.72409 0.0
H4920 H 0.64689 0.03808 0.69765 0.0
H4921 H 0.66534 0.03918 0.68659 0.0
H4922 H 0.63844 0.03722 0.73149 0.0
H4923 H 0.62595 0.01281 0.68082 0.0
H4924 H 0.6244 0.99708 0.66064 0.0
H4925 H 0.60607 0.96947 0.69841 0.0
H4926 H 0.60768 0.98507 0.71892 0.0
H4927 H 0.57804 0.02495 0.74968 0.0
H4928 H 0.59656 0.02979 0.73413 0.0
H4929 H 0.5942 0.99706 0.7532 0.0
H4930 H 0.57602 0.99234 0.76902 0.0
H4931 H 0.59895 0.99971 0.71912 0.0
H4932 H 0.61359 0.02427 0.77055 0.0
H4933 H 0.61542 0.03984 0.79126 0.0
H4934 H 0.62971 0.06703 0.7523 0.0
H4935 H 0.62781 0.05155 0.73129 0.0
C4936 C 0.65419 0.01313 0.70975 0.0
C4937 C 0.66209 0.02264 0.69896 0.0
C4938 C 0.6437 0.0125 0.71594 0.0
C4939 C 0.64087 0.02138 0.7115 0.0
C4940 C 0.6489 0.03112 0.70116 0.0
C4941 C 0.65941 0.03171 0.69484 0.0
C4942 C 0.62936 0.02018 0.71751 0.0
C4943 C 0.62976 0.02915 0.72851 0.0
C4944 C 0.61807 0.00958 0.71377 0.0
C4945 C 0.61701 1.00014 0.70145 0.0
C4946 C 0.62167 0.0034 0.68487 0.0
C4947 C 0.62077 0.99451 0.67336 0.0
C4948 C 0.61516 0.98229 0.67825 0.0
C4949 C 0.61042 0.97894 0.69464 0.0
C4950 C 0.61131 0.9878 0.70621 0.0
C4951 C 0.5815 0.01882 0.75062 0.0
C4952 C 0.57545 0.00819 0.76052 0.0
C4953 C 0.59206 0.02158 0.74169 0.0
C4954 C 0.59675 0.01378 0.74252 0.0
C4955 C 0.59068 0.00315 0.75225 0.0
C4956 C 0.58022 0.00043 0.76122 0.0
C4957 C 0.60804 0.01659 0.73347 0.0
C4958 C 0.60758 0.0079 0.72186 0.0
C4959 C 0.61925 0.02743 0.73669 0.0
C4960 C 0.62041 0.03673 0.7493 0.0
C4961 C 0.61702 0.03354 0.76636 0.0
C4962 C 0.61809 0.04235 0.77816 0.0
C4963 C 0.62264 0.05441 0.77309 0.0
C4964 C 0.62616 0.05768 0.75621 0.0
C4965 C 0.62509 0.0489 0.74435 0.0
H4966 H 0.62347 0.06122 0.78224 0.0
H4967 H 0.61447 0.97542 0.66932 0.0
loop_
_geom_bond_atom_site_label_1
_geom_bond_atom_site_label_2
_geom_bond_distance
_geom_bond_site_symmetry_2
_ccdc_geom_bond_type
Co0 O1 2.216 . S
Co0 O2 2.091 . S
Co0 O4 2.004 1_554 S
Co0 O10 2.021 . S
Co0 O12 2.137 1_454 S
Co0 O13 2.244 1_455 S
O1 Co0 2.216 . S
O1 C8 1.247 . S
O2 Co0 2.091 . S
O2 C8 1.261 . S
C3 O12 1.247 1_554 S
C3 O13 1.272 . S
O4 Co0 2.004 1_556 S
O4 C9 1.269 1_455 S
Co5 O6 2.061 1_554 S
Co5 O11 2.052 . S
Co5 O13 2.135 . S
O6 Co5 2.061 1_556 S
O6 C9 1.226 . S
C7 O10 1.238 1_655 S
C7 O11 1.241 . S
C8 O1 1.247 . S
C8 O2 1.261 . S
C9 O4 1.269 1_655 S
C9 O6 1.226 . S
O10 Co0 2.021 . S
O10 C7 1.238 1_455 S
O11 Co5 2.052 . S
O11 C7 1.241 . S
O12 Co0 2.137 1_656 S
O12 C3 1.247 1_556 S
O13 Co0 2.244 1_655 S
O13 C3 1.272 . S
O13 Co5 2.135 . S
Co14 O15 2.216 1_554 S
Co14 O16 2.091 . S
Co14 O18 2.004 . S
Co14 O24 1.980 1_554 S
Co14 O26 2.137 . S
Co14 O27 2.244 . S
O15 Co14 2.216 1_556 S
O15 C22 1.247 1_556 S
O16 Co14 2.091 . S
O16 C22 1.261 . S
C17 O26 1.247 . S
C17 O27 1.272 . S
O18 Co14 2.004 . S
O18 C23 1.259 . S
Co19 O20 2.061 . S
Co19 O25 2.052 1_554 S
Co19 O27 2.135 . S
O20 Co19 2.061 . S
O20 C23 1.235 . S
C21 O24 1.267 . S
C21 O25 1.241 . S
C22 O15 1.247 1_554 S
C22 O16 1.261 . S
C23 O18 1.259 . S
C23 O20 1.235 . S
O24 Co14 1.980 1_556 S
O24 C21 1.267 . S
O25 Co19 2.052 1_556 S
O25 C21 1.241 . S
O26 Co14 2.137 . S
O26 C17 1.247 . S
O27 Co14 2.244 . S
O27 C17 1.272 . S
O27 Co19 2.135 . S
Co28 O29 2.216 1_554 S
Co28 O30 2.091 . S
Co28 O32 2.004 . S
Co28 O38 2.008 1_554 S
Co28 O40 2.143 1_545 S
Co28 O41 2.244 1_545 S
O29 Co28 2.216 1_556 S
O29 C36 1.247 1_556 S
O30 Co28 2.091 . S
O30 C36 1.261 . S
C31 O40 1.354 . S
C31 O41 1.272 . S
O32 Co28 2.004 . S
O32 C37 1.259 . S
Co33 O34 2.061 . S
Co33 O39 2.052 1_554 S
Co33 O41 2.135 . S
O34 Co33 2.061 . S
O34 C37 1.235 1_565 S
C35 O38 1.274 . S
C35 O39 1.215 1_545 S
C36 O29 1.247 1_554 S
C36 O30 1.261 . S
C37 O32 1.259 . S
C37 O34 1.235 1_545 S
O38 Co28 2.008 1_556 S
O38 C35 1.274 . S
O39 Co33 2.052 1_556 S
O39 C35 1.215 1_565 S
O40 Co28 2.143 1_565 S
O40 C31 1.354 . S
O41 Co28 2.244 1_565 S
O41 C31 1.272 . S
O41 Co33 2.135 . S
Co42 O43 2.216 1_554 S
Co42 O44 2.091 . S
Co42 O46 2.004 . S
Co42 O52 2.021 1_554 S
Co42 O54 2.137 1_655 S
Co42 O55 2.244 1_655 S
O43 Co42 2.216 1_556 S
O43 C50 1.244 1_556 S
O44 Co42 2.091 . S
O44 C50 1.266 . S
C45 O54 1.247 . S
C45 O55 1.272 . S
O46 Co42 2.004 . S
O46 C51 1.259 1_655 S
Co47 O48 2.061 . S
Co47 O53 2.052 1_554 S
Co47 O55 2.135 . S
O48 Co47 2.061 . S
O48 C51 1.235 . S
C49 O52 1.238 1_455 S
C49 O53 1.241 . S
C50 O43 1.244 1_554 S
C50 O44 1.266 . S
C51 O46 1.259 1_455 S
C51 O48 1.235 . S
O52 Co42 2.021 1_556 S
O52 C49 1.238 1_655 S
O53 Co47 2.052 1_556 S
O53 C49 1.241 . S
O54 Co42 2.137 1_455 S
O54 C45 1.247 . S
O55 Co42 2.244 1_455 S
O55 C45 1.272 . S
O55 Co47 2.135 . S
Co56 O57 2.216 . S
Co56 O58 2.091 . S
Co56 O60 2.004 1_554 S
Co56 O66 2.021 . S
Co56 O68 2.137 1_554 S
Co56 O69 2.244 . S
O57 Co56 2.216 . S
O57 C64 1.247 . S
O58 Co56 2.091 . S
O58 C64 1.261 . S
C59 O68 1.263 . S
C59 O69 1.238 1_556 S
O60 Co56 2.004 1_556 S
O60 C65 1.259 . S
Co61 O62 2.061 1_554 S
Co61 O67 2.052 . S
Co61 O69 2.135 . S
O62 Co61 2.061 1_556 S
O62 C65 1.235 . S
C63 O66 1.238 . S
C63 O67 1.241 . S
C64 O57 1.247 . S
C64 O58 1.261 . S
C65 O60 1.259 . S
C65 O62 1.235 . S
O66 Co56 2.021 . S
O66 C63 1.238 . S
O67 Co61 2.052 . S
O67 C63 1.241 . S
O68 Co56 2.137 1_556 S
O68 C59 1.263 . S
O69 Co56 2.244 . S
O69 C59 1.238 1_554 S
O69 Co61 2.135 . S
Co70 O71 2.216 . S
Co70 O72 2.091 . S
Co70 O74 2.004 1_554 S
Co70 O80 2.021 . S
Co70 O82 2.137 1_564 S
Co70 O83 2.244 1_565 S
O71 Co70 2.216 . S
O71 C78 1.247 . S
O72 Co70 2.091 . S
O72 C78 1.261 . S
C73 O82 1.247 1_554 S
C73 O83 1.272 . S
O74 Co70 2.004 1_556 S
O74 C79 1.259 1_565 S
Co75 O76 2.061 1_554 S
Co75 O81 2.052 . S
Co75 O83 2.135 . S
O76 Co75 2.061 1_556 S
O76 C79 1.235 . S
C77 O80 1.238 1_545 S
C77 O81 1.241 . S
C78 O71 1.247 . S
C78 O72 1.261 . S
C79 O74 1.259 1_545 S
C79 O76 1.235 . S
O80 Co70 2.021 . S
O80 C77 1.238 1_565 S
O81 Co75 2.052 . S
O81 C77 1.241 . S
O82 Co70 2.137 1_546 S
O82 C73 1.247 1_556 S
O83 Co70 2.244 1_545 S
O83 C73 1.272 . S
O83 Co75 2.135 . S
Co84 O85 2.216 . S
Co84 O86 2.091 . S
Co84 O88 2.004 . S
Co84 O94 2.021 . S
Co84 O96 2.137 . S
Co84 O97 2.244 . S
O85 Co84 2.216 . S
O85 C92 1.247 . S
O86 Co84 2.091 . S
O86 C92 1.261 . S
C87 O96 1.247 . S
C87 O97 1.272 . S
O88 Co84 2.004 . S
O88 C93 1.259 . S
Co89 O90 2.061 . S
Co89 O95 2.052 . S
Co89 O97 2.135 . S
O90 Co89 2.061 . S
O90 C93 1.235 . S
C91 O94 1.238 . S
C91 O95 1.241 . S
C92 O85 1.247 . S
C92 O86 1.261 . S
C93 O88 1.259 . S
C93 O90 1.235 . S
O94 Co84 2.021 . S
O94 C91 1.238 . S
O95 Co89 2.052 . S
O95 C91 1.241 . S
O96 Co84 2.137 . S
O96 C87 1.247 . S
O97 Co84 2.244 . S
O97 C87 1.272 . S
O97 Co89 2.135 . S
Co98 O99 2.216 . S
Co98 O100 2.091 . S
Co98 O102 2.004 . S
Co98 O108 2.021 . S
Co98 O110 2.137 . S
Co98 O111 2.244 . S
O99 Co98 2.216 . S
O99 C106 1.247 . S
O100 Co98 2.091 . S
O100 C106 1.261 . S
C101 O110 1.247 . S
C101 O111 1.272 . S
O102 Co98 2.004 . S
O102 C107 1.259 . S
Co103 O104 2.061 . S
Co103 O109 2.052 . S
Co103 O111 2.135 . S
O104 Co103 2.061 . S
O104 C107 1.235 . S
C105 O108 1.238 . S
C105 O109 1.241 . S
C106 O99 1.247 . S
C106 O100 1.261 . S
C107 O102 1.259 . S
C107 O104 1.235 . S
O108 Co98 2.021 . S
O108 C105 1.238 . S
O109 Co103 2.052 . S
O109 C105 1.241 . S
O110 Co98 2.137 . S
O110 C101 1.247 . S
O111 Co98 2.244 . S
O111 C101 1.272 . S
O111 Co103 2.135 . S
Co112 O113 2.216 . S
Co112 O114 2.091 . S
Co112 O116 2.004 . S
Co112 O122 2.021 . S
Co112 O124 2.137 . S
Co112 O125 2.244 . S
O113 Co112 2.216 . S
O113 C120 1.247 . S
O114 Co112 2.091 . S
O114 C120 1.261 . S
C115 O124 1.247 . S
C115 O125 1.272 . S
O116 Co112 2.004 . S
O116 C121 1.259 . S
Co117 O118 2.061 . S
Co117 O123 2.052 . S
Co117 O125 2.135 . S
O118 Co117 2.061 . S
O118 C121 1.235 . S
C119 O122 1.238 . S
C119 O123 1.241 . S
C120 O113 1.247 . S
C120 O114 1.261 . S
C121 O116 1.259 . S
C121 O118 1.235 . S
O122 Co112 2.021 . S
O122 C119 1.238 . S
O123 Co117 2.052 . S
O123 C119 1.241 . S
O124 Co112 2.137 . S
O124 C115 1.247 . S
O125 Co112 2.244 . S
O125 C115 1.272 . S
O125 Co117 2.135 . S
Co126 O127 2.216 . S
Co126 O128 2.091 . S
Co126 O130 2.004 . S
Co126 O136 2.021 . S
Co126 O138 2.137 . S
Co126 O139 2.244 . S
O127 Co126 2.216 . S
O127 C134 1.247 . S
O128 Co126 2.091 . S
O128 C134 1.261 . S
C129 O138 1.247 . S
C129 O139 1.272 . S
O130 Co126 2.004 . S
O130 C135 1.259 . S
Co131 O132 2.061 . S
Co131 O137 2.052 . S
Co131 O139 2.135 . S
O132 Co131 2.061 . S
O132 C135 1.235 . S
C133 O136 1.238 . S
C133 O137 1.241 . S
C134 O127 1.247 . S
C134 O128 1.261 . S
C135 O130 1.259 . S
C135 O132 1.235 . S
O136 Co126 2.021 . S
O136 C133 1.238 . S
O137 Co131 2.052 . S
O137 C133 1.241 . S
O138 Co126 2.137 . S
O138 C129 1.247 . S
O139 Co126 2.244 . S
O139 C129 1.272 . S
O139 Co131 2.135 . S
Co140 O141 2.216 . S
Co140 O142 2.091 . S
Co140 O144 2.004 . S
Co140 O150 2.021 . S
Co140 O152 2.137 . S
Co140 O153 2.244 . S
O141 Co140 2.216 . S
O141 C148 1.254 1_455 S
O142 Co140 2.091 . S
O142 C148 1.261 1_455 S
C143 O152 1.247 . S
C143 O153 1.272 . S
O144 Co140 2.004 . S
O144 C149 1.259 . S
Co145 O146 2.061 . S
Co145 O151 2.052 . S
Co145 O153 2.135 . S
O146 Co145 2.061 . S
O146 C149 1.235 . S
C147 O150 1.238 . S
C147 O151 1.241 . S
C148 O141 1.254 1_655 S
C148 O142 1.261 1_655 S
C149 O144 1.259 . S
C149 O146 1.235 . S
O150 Co140 2.021 . S
O150 C147 1.238 . S
O151 Co145 2.052 . S
O151 C147 1.241 . S
O152 Co140 2.137 . S
O152 C143 1.247 . S
O153 Co140 2.244 . S
O153 C143 1.272 . S
O153 Co145 2.135 . S
Co154 O155 2.216 . S
Co154 O156 2.091 . S
Co154 O158 2.004 . S
Co154 O164 2.021 . S
Co154 O166 2.137 . S
Co154 O167 2.244 . S
O155 Co154 2.216 . S
O155 C162 1.247 . S
O156 Co154 2.091 . S
O156 C162 1.261 . S
C157 O166 1.247 . S
C157 O167 1.272 . S
O158 Co154 2.004 . S
O158 C163 1.259 . S
Co159 O160 2.061 . S
Co159 O165 2.052 . S
Co159 O167 2.135 . S
O160 Co159 2.061 . S
O160 C163 1.235 . S
C161 O164 1.238 . S
C161 O165 1.241 . S
C162 O155 1.247 . S
C162 O156 1.261 . S
C163 O158 1.259 . S
C163 O160 1.235 . S
O164 Co154 2.021 . S
O164 C161 1.238 . S
O165 Co159 2.052 . S
O165 C161 1.241 . S
O166 Co154 2.137 . S
O166 C157 1.247 . S
O167 Co154 2.244 . S
O167 C157 1.272 . S
O167 Co159 2.135 . S
Co168 O169 2.216 . S
Co168 O170 2.091 . S
Co168 O172 2.004 . S
Co168 O178 2.021 . S
Co168 O180 2.137 . S
Co168 O181 2.244 . S
O169 Co168 2.216 . S
O169 C176 1.247 . S
O170 Co168 2.091 . S
O170 C176 1.261 . S
C171 O180 1.247 . S
C171 O181 1.272 . S
O172 Co168 2.004 . S
O172 C177 1.259 . S
Co173 O174 2.061 . S
Co173 O179 2.052 . S
Co173 O181 2.135 . S
O174 Co173 2.061 . S
O174 C177 1.235 . S
C175 O178 1.238 . S
C175 O179 1.241 . S
C176 O169 1.247 . S
C176 O170 1.261 . S
C177 O172 1.259 . S
C177 O174 1.235 . S
O178 Co168 2.021 . S
O178 C175 1.238 . S
O179 Co173 2.052 . S
O179 C175 1.241 . S
O180 Co168 2.137 . S
O180 C171 1.247 . S
O181 Co168 2.244 . S
O181 C171 1.272 . S
O181 Co173 2.135 . S
Co182 O183 2.216 . S
Co182 O184 2.091 . S
Co182 O186 2.004 . S
Co182 O192 2.021 . S
Co182 O194 2.137 . S
Co182 O195 2.244 . S
O183 Co182 2.216 . S
O183 C190 1.210 1_655 S
O184 Co182 2.091 . S
O184 C190 1.263 1_655 S
C185 O194 1.247 . S
C185 O195 1.272 . S
O186 Co182 2.004 . S
O186 C191 1.259 . S
Co187 O188 2.061 . S
Co187 O193 2.052 . S
Co187 O195 2.135 . S
O188 Co187 2.061 . S
O188 C191 1.235 . S
C189 O192 1.238 . S
C189 O193 1.241 . S
C190 O183 1.210 1_455 S
C190 O184 1.263 1_455 S
C191 O186 1.259 . S
C191 O188 1.235 . S
O192 Co182 2.021 . S
O192 C189 1.238 . S
O193 Co187 2.052 . S
O193 C189 1.241 . S
O194 Co182 2.137 . S
O194 C185 1.247 . S
O195 Co182 2.244 . S
O195 C185 1.272 . S
O195 Co187 2.135 . S
Co196 O197 2.216 . S
Co196 O198 2.091 . S
Co196 O200 2.004 . S
Co196 O206 2.021 . S
Co196 O208 2.137 . S
Co196 O209 2.244 . S
O197 Co196 2.216 . S
O197 C204 1.247 . S
O198 Co196 2.091 . S
O198 C204 1.261 . S
C199 O208 1.247 . S
C199 O209 1.272 . S
O200 Co196 2.004 . S
O200 C205 1.259 . S
Co201 O202 2.061 . S
Co201 O207 2.052 . S
Co201 O209 2.135 . S
O202 Co201 2.061 . S
O202 C205 1.235 . S
C203 O206 1.238 . S
C203 O207 1.241 . S
C204 O197 1.247 . S
C204 O198 1.261 . S
C205 O200 1.259 . S
C205 O202 1.235 . S
O206 Co196 2.021 . S
O206 C203 1.238 . S
O207 Co201 2.052 . S
O207 C203 1.241 . S
O208 Co196 2.137 . S
O208 C199 1.247 . S
O209 Co196 2.244 . S
O209 C199 1.272 . S
O209 Co201 2.135 . S
Co210 O211 2.216 . S
Co210 O212 2.091 . S
Co210 O214 2.004 . S
Co210 O220 2.021 . S
Co210 O222 2.137 . S
Co210 O223 2.244 . S
O211 Co210 2.216 . S
O211 C218 1.247 . S
O212 Co210 2.091 . S
O212 C218 1.261 . S
C213 O222 1.247 . S
C213 O223 1.272 . S
O214 Co210 2.004 . S
O214 C219 1.259 . S
Co215 O216 2.061 . S
Co215 O221 2.052 . S
Co215 O223 2.135 . S
O216 Co215 2.061 . S
O216 C219 1.235 . S
C217 O220 1.238 . S
C217 O221 1.241 . S
C218 O211 1.247 . S
C218 O212 1.261 . S
C219 O214 1.259 . S
C219 O216 1.235 . S
O220 Co210 2.021 . S
O220 C217 1.238 . S
O221 Co215 2.052 . S
O221 C217 1.241 . S
O222 Co210 2.137 . S
O222 C213 1.247 . S
O223 Co210 2.244 . S
O223 C213 1.272 . S
O223 Co215 2.135 . S
Co224 O225 2.216 . S
Co224 O226 2.091 . S
Co224 O228 2.004 . S
Co224 O234 2.021 . S
Co224 O236 2.137 . S
Co224 O237 2.244 . S
O225 Co224 2.216 . S
O225 C232 1.247 . S
O226 Co224 2.091 . S
O226 C232 1.261 . S
C227 O236 1.247 . S
C227 O237 1.272 . S
O228 Co224 2.004 . S
O228 C233 1.259 . S
Co229 O230 2.061 . S
Co229 O235 2.052 . S
Co229 O237 2.135 . S
O230 Co229 2.061 . S
O230 C233 1.235 . S
C231 O234 1.238 . S
C231 O235 1.241 . S
C232 O225 1.247 . S
C232 O226 1.261 . S
C233 O228 1.259 . S
C233 O230 1.235 . S
O234 Co224 2.021 . S
O234 C231 1.238 . S
O235 Co229 2.052 . S
O235 C231 1.241 . S
O236 Co224 2.137 . S
O236 C227 1.247 . S
O237 Co224 2.244 . S
O237 C227 1.272 . S
O237 Co229 2.135 . S
Co238 O239 2.216 . S
Co238 O240 2.091 . S
Co238 O242 2.004 . S
Co238 O248 2.021 . S
Co238 O250 2.137 . S
Co238 O251 2.244 . S
O239 Co238 2.216 . S
O239 C246 1.247 . S
O240 Co238 2.091 . S
O240 C246 1.261 . S
C241 O250 1.247 . S
C241 O251 1.272 . S
O242 Co238 2.004 . S
O242 C247 1.259 . S
Co243 O244 2.061 . S
Co243 O249 2.052 . S
Co243 O251 2.135 . S
O244 Co243 2.061 . S
O244 C247 1.235 . S
C245 O248 1.238 . S
C245 O249 1.241 . S
C246 O239 1.247 . S
C246 O240 1.261 . S
C247 O242 1.259 . S
C247 O244 1.235 . S
O248 Co238 2.021 . S
O248 C245 1.238 . S
O249 Co243 2.052 . S
O249 C245 1.241 . S
O250 Co238 2.137 . S
O250 C241 1.247 . S
O251 Co238 2.244 . S
O251 C241 1.272 . S
O251 Co243 2.135 . S
H252 C279 0.929 . S
N253 C278 1.433 . S
N253 C284 1.435 . S
N253 C290 1.423 . S
H254 C280 0.930 . S
H255 C283 0.931 . S
H256 C282 0.929 . S
H257 C285 0.930 . S
H258 C286 0.932 . S
H259 C289 0.929 . S
H260 C288 0.931 . S
H261 C291 0.929 . S
H262 C295 0.932 . S
H263 C292 0.931 . S
H264 C294 0.929 . S
H265 C297 0.929 . S
H266 C298 0.930 . S
H267 C300 0.929 . S
H268 C301 0.931 . S
H269 C303 0.930 . S
H270 C304 0.932 . S
H271 C306 0.931 . S
H272 C307 0.929 . S
H273 C309 0.929 . S
H274 C310 0.931 . S
H275 C312 0.929 . S
N276 C296 1.433 . S
N276 C302 1.435 . S
N276 C308 1.423 . S
H277 C313 0.932 . S
C278 N253 1.433 . S
C278 C279 1.363 . S
C278 C283 1.370 . S
C279 H252 0.929 . S
C279 C278 1.363 . S
C279 C280 1.385 . S
C280 H254 0.930 . S
C280 C279 1.385 . S
C280 C281 1.357 . S
C281 C280 1.357 . S
C281 C282 1.406 . S
C282 H256 0.929 . S
C282 C281 1.406 . S
C282 C283 1.391 . S
C283 H255 0.931 . S
C283 C278 1.370 . S
C283 C282 1.391 . S
C284 N253 1.435 . S
C284 C285 1.358 . S
C284 C289 1.371 . S
C285 H257 0.930 . S
C285 C284 1.358 . S
C285 C286 1.405 . S
C286 H258 0.932 . S
C286 C285 1.405 . S
C286 C287 1.383 . S
C287 C286 1.383 . S
C287 C288 1.393 . S
C288 H260 0.931 . S
C288 C287 1.393 . S
C288 C289 1.382 . S
C289 H259 0.929 . S
C289 C284 1.371 . S
C289 C288 1.382 . S
C290 N253 1.423 . S
C290 C291 1.362 . S
C290 C295 1.388 . S
C291 H261 0.929 . S
C291 C290 1.362 . S
C291 C292 1.376 . S
C292 H263 0.931 . S
C292 C291 1.376 . S
C292 C293 1.396 . S
C293 C292 1.396 . S
C293 C294 1.348 . S
C293 C311 1.472 . S
C294 H264 0.929 . S
C294 C293 1.348 . S
C294 C295 1.443 . S
C295 H262 0.932 . S
C295 C290 1.388 . S
C295 C294 1.443 . S
C296 N276 1.433 . S
C296 C297 1.363 . S
C296 C301 1.370 . S
C297 H265 0.929 . S
C297 C296 1.363 . S
C297 C298 1.385 . S
C298 H266 0.930 . S
C298 C297 1.385 . S
C298 C299 1.357 . S
C299 C298 1.357 . S
C299 C300 1.406 . S
C300 H267 0.929 . S
C300 C299 1.406 . S
C300 C301 1.391 . S
C301 H268 0.931 . S
C301 C296 1.370 . S
C301 C300 1.391 . S
C302 N276 1.435 . S
C302 C303 1.358 . S
C302 C307 1.371 . S
C303 H269 0.930 . S
C303 C302 1.358 . S
C303 C304 1.405 . S
C304 H270 0.932 . S
C304 C303 1.405 . S
C304 C305 1.383 . S
C305 C304 1.383 . S
C305 C306 1.393 . S
C306 H271 0.931 . S
C306 C305 1.393 . S
C306 C307 1.382 . S
C307 H272 0.929 . S
C307 C302 1.371 . S
C307 C306 1.382 . S
C308 N276 1.423 . S
C308 C309 1.362 . S
C308 C313 1.388 . S
C309 H273 0.929 . S
C309 C308 1.362 . S
C309 C310 1.376 . S
C310 H274 0.931 . S
C310 C309 1.376 . S
C310 C311 1.396 . S
C311 C293 1.472 . S
C311 C310 1.396 . S
C311 C312 1.348 . S
C312 H275 0.929 . S
C312 C311 1.348 . S
C312 C313 1.443 . S
C313 H277 0.932 . S
C313 C308 1.388 . S
C313 C312 1.443 . S
H314 C341 0.929 . S
N315 C340 1.433 . S
N315 C346 1.435 . S
N315 C352 1.423 . S
H316 C342 0.930 . S
H317 C345 0.931 . S
H318 C344 0.929 . S
H319 C347 0.930 . S
H320 C348 0.932 . S
H321 C351 0.929 . S
H322 C350 0.931 . S
H323 C353 0.929 . S
H324 C357 0.932 . S
H325 C354 0.931 . S
H326 C356 0.929 . S
H327 C359 0.929 . S
H328 C360 0.930 . S
H329 C362 0.929 . S
H330 C363 0.931 . S
H331 C365 0.930 . S
H332 C366 0.932 . S
H333 C368 0.931 . S
H334 C369 0.929 . S
H335 C371 0.929 . S
H336 C372 0.931 . S
H337 C374 0.929 . S
N338 C358 1.433 . S
N338 C364 1.435 . S
N338 C370 1.423 . S
H339 C375 0.932 . S
C340 N315 1.433 . S
C340 C341 1.363 . S
C340 C345 1.370 . S
C341 H314 0.929 . S
C341 C340 1.363 . S
C341 C342 1.385 . S
C342 H316 0.930 . S
C342 C341 1.385 . S
C342 C343 1.357 . S
C343 C342 1.357 . S
C343 C344 1.406 . S
C344 H318 0.929 . S
C344 C343 1.406 . S
C344 C345 1.391 . S
C345 H317 0.931 . S
C345 C340 1.370 . S
C345 C344 1.391 . S
C346 N315 1.435 . S
C346 C347 1.358 . S
C346 C351 1.371 . S
C347 H319 0.930 . S
C347 C346 1.358 . S
C347 C348 1.405 . S
C348 H320 0.932 . S
C348 C347 1.405 . S
C348 C349 1.383 . S
C349 C348 1.383 . S
C349 C350 1.393 . S
C350 H322 0.931 . S
C350 C349 1.393 . S
C350 C351 1.382 . S
C351 H321 0.929 . S
C351 C346 1.371 . S
C351 C350 1.382 . S
C352 N315 1.423 . S
C352 C353 1.362 . S
C352 C357 1.388 . S
C353 H323 0.929 . S
C353 C352 1.362 . S
C353 C354 1.376 . S
C354 H325 0.931 . S
C354 C353 1.376 . S
C354 C355 1.396 . S
C355 C354 1.396 . S
C355 C356 1.348 . S
C355 C373 1.472 . S
C356 H326 0.929 . S
C356 C355 1.348 . S
C356 C357 1.443 . S
C357 H324 0.932 . S
C357 C352 1.388 . S
C357 C356 1.443 . S
C358 N338 1.433 . S
C358 C359 1.363 . S
C358 C363 1.370 . S
C359 H327 0.929 . S
C359 C358 1.363 . S
C359 C360 1.385 . S
C360 H328 0.930 . S
C360 C359 1.385 . S
C360 C361 1.357 . S
C361 C360 1.357 . S
C361 C362 1.406 . S
C362 H329 0.929 . S
C362 C361 1.406 . S
C362 C363 1.391 . S
C363 H330 0.931 . S
C363 C358 1.370 . S
C363 C362 1.391 . S
C364 N338 1.435 . S
C364 C365 1.358 . S
C364 C369 1.371 . S
C365 H331 0.930 . S
C365 C364 1.358 . S
C365 C366 1.405 . S
C366 H332 0.932 . S
C366 C365 1.405 . S
C366 C367 1.383 . S
C367 C366 1.383 . S
C367 C368 1.393 . S
C368 H333 0.931 . S
C368 C367 1.393 . S
C368 C369 1.382 . S
C369 H334 0.929 . S
C369 C364 1.371 . S
C369 C368 1.382 . S
C370 N338 1.423 . S
C370 C371 1.362 . S
C370 C375 1.388 . S
C371 H335 0.929 . S
C371 C370 1.362 . S
C371 C372 1.376 . S
C372 H336 0.931 . S
C372 C371 1.376 . S
C372 C373 1.396 . S
C373 C355 1.472 . S
C373 C372 1.396 . S
C373 C374 1.348 . S
C374 H337 0.929 . S
C374 C373 1.348 . S
C374 C375 1.443 . S
C375 H339 0.932 . S
C375 C370 1.388 . S
C375 C374 1.443 . S
H376 C403 0.929 . S
N377 C402 1.433 . S
N377 C408 1.435 . S
N377 C414 1.423 . S
H378 C404 0.930 . S
H379 C407 0.931 . S
H380 C406 0.929 . S
H381 C409 0.930 . S
H382 C410 0.932 . S
H383 C413 0.929 . S
H384 C412 0.931 . S
H385 C415 0.929 . S
H386 C419 0.932 . S
H387 C416 0.931 . S
H388 C418 0.929 . S
H389 C421 0.929 . S
H390 C422 0.930 . S
H391 C424 0.929 . S
H392 C425 0.931 . S
H393 C427 0.930 . S
H394 C428 0.932 . S
H395 C430 0.931 . S
H396 C431 0.929 . S
H397 C433 0.929 . S
H398 C434 0.931 . S
H399 C436 0.929 . S
N400 C420 1.433 . S
N400 C426 1.435 . S
N400 C432 1.423 . S
H401 C437 0.932 . S
C402 N377 1.433 . S
C402 C403 1.363 . S
C402 C407 1.370 . S
C403 H376 0.929 . S
C403 C402 1.363 . S
C403 C404 1.385 . S
C404 H378 0.930 . S
C404 C403 1.385 . S
C404 C405 1.357 . S
C405 C404 1.357 . S
C405 C406 1.406 . S
C406 H380 0.929 . S
C406 C405 1.406 . S
C406 C407 1.391 . S
C407 H379 0.931 . S
C407 C402 1.370 . S
C407 C406 1.391 . S
C408 N377 1.435 . S
C408 C409 1.358 . S
C408 C413 1.371 . S
C409 H381 0.930 . S
C409 C408 1.358 . S
C409 C410 1.405 . S
C410 H382 0.932 . S
C410 C409 1.405 . S
C410 C411 1.383 . S
C411 C410 1.383 . S
C411 C412 1.393 . S
C412 H384 0.931 . S
C412 C411 1.393 . S
C412 C413 1.382 . S
C413 H383 0.929 . S
C413 C408 1.371 . S
C413 C412 1.382 . S
C414 N377 1.423 . S
C414 C415 1.362 . S
C414 C419 1.388 . S
C415 H385 0.929 . S
C415 C414 1.362 . S
C415 C416 1.376 . S
C416 H387 0.931 . S
C416 C415 1.376 . S
C416 C417 1.396 . S
C417 C416 1.396 . S
C417 C418 1.348 . S
C417 C435 1.472 . S
C418 H388 0.929 . S
C418 C417 1.348 . S
C418 C419 1.443 . S
C419 H386 0.932 . S
C419 C414 1.388 . S
C419 C418 1.443 . S
C420 N400 1.433 . S
C420 C421 1.363 . S
C420 C425 1.370 . S
C421 H389 0.929 . S
C421 C420 1.363 . S
C421 C422 1.385 . S
C422 H390 0.930 . S
C422 C421 1.385 . S
C422 C423 1.357 . S
C423 C422 1.357 . S
C423 C424 1.406 . S
C424 H391 0.929 . S
C424 C423 1.406 . S
C424 C425 1.391 . S
C425 H392 0.931 . S
C425 C420 1.370 . S
C425 C424 1.391 . S
C426 N400 1.435 . S
C426 C427 1.358 . S
C426 C431 1.371 . S
C427 H393 0.930 . S
C427 C426 1.358 . S
C427 C428 1.405 . S
C428 H394 0.932 . S
C428 C427 1.405 . S
C428 C429 1.383 . S
C429 C428 1.383 . S
C429 C430 1.393 . S
C430 H395 0.931 . S
C430 C429 1.393 . S
C430 C431 1.382 . S
C431 H396 0.929 . S
C431 C426 1.371 . S
C431 C430 1.382 . S
C432 N400 1.423 . S
C432 C433 1.362 . S
C432 C437 1.388 . S
C433 H397 0.929 . S
C433 C432 1.362 . S
C433 C434 1.376 . S
C434 H398 0.931 . S
C434 C433 1.376 . S
C434 C435 1.396 . S
C435 C417 1.472 . S
C435 C434 1.396 . S
C435 C436 1.348 . S
C436 H399 0.929 . S
C436 C435 1.348 . S
C436 C437 1.443 . S
C437 H401 0.932 . S
C437 C432 1.388 . S
C437 C436 1.443 . S
H438 C465 0.929 . S
N439 C464 1.433 . S
N439 C470 1.435 . S
N439 C476 1.423 . S
H440 C466 0.930 . S
H441 C469 0.931 . S
H442 C468 0.929 . S
H443 C471 0.930 . S
H444 C472 0.932 . S
H445 C475 0.929 . S
H446 C474 0.931 . S
H447 C477 0.929 . S
H448 C481 0.932 . S
H449 C478 0.931 . S
H450 C480 0.929 . S
H451 C483 0.929 . S
H452 C484 0.930 . S
H453 C486 0.929 . S
H454 C487 0.931 . S
H455 C489 0.930 . S
H456 C490 0.932 . S
H457 C492 0.931 . S
H458 C493 0.929 . S
H459 C495 0.929 . S
H460 C496 0.931 . S
H461 C498 0.929 . S
N462 C482 1.433 . S
N462 C488 1.435 . S
N462 C494 1.423 . S
H463 C499 0.932 . S
C464 N439 1.433 . S
C464 C465 1.363 . S
C464 C469 1.370 . S
C465 H438 0.929 . S
C465 C464 1.363 . S
C465 C466 1.385 . S
C466 H440 0.930 . S
C466 C465 1.385 . S
C466 C467 1.357 . S
C467 C466 1.357 . S
C467 C468 1.406 . S
C468 H442 0.929 . S
C468 C467 1.406 . S
C468 C469 1.391 . S
C469 H441 0.931 . S
C469 C464 1.370 . S
C469 C468 1.391 . S
C470 N439 1.435 . S
C470 C471 1.358 . S
C470 C475 1.371 . S
C471 H443 0.930 . S
C471 C470 1.358 . S
C471 C472 1.405 . S
C472 H444 0.932 . S
C472 C471 1.405 . S
C472 C473 1.383 . S
C473 C472 1.383 . S
C473 C474 1.393 . S
C474 H446 0.931 . S
C474 C473 1.393 . S
C474 C475 1.382 . S
C475 H445 0.929 . S
C475 C470 1.371 . S
C475 C474 1.382 . S
C476 N439 1.423 . S
C476 C477 1.362 . S
C476 C481 1.388 . S
C477 H447 0.929 . S
C477 C476 1.362 . S
C477 C478 1.376 . S
C478 H449 0.931 . S
C478 C477 1.376 . S
C478 C479 1.396 . S
C479 C478 1.396 . S
C479 C480 1.348 . S
C479 C497 1.472 . S
C480 H450 0.929 . S
C480 C479 1.348 . S
C480 C481 1.443 . S
C481 H448 0.932 . S
C481 C476 1.388 . S
C481 C480 1.443 . S
C482 N462 1.433 . S
C482 C483 1.363 . S
C482 C487 1.370 . S
C483 H451 0.929 . S
C483 C482 1.363 . S
C483 C484 1.385 . S
C484 H452 0.930 . S
C484 C483 1.385 . S
C484 C485 1.357 . S
C485 C484 1.357 . S
C485 C486 1.406 . S
C486 H453 0.929 . S
C486 C485 1.406 . S
C486 C487 1.391 . S
C487 H454 0.931 . S
C487 C482 1.370 . S
C487 C486 1.391 . S
C488 N462 1.435 . S
C488 C489 1.358 . S
C488 C493 1.371 . S
C489 H455 0.930 . S
C489 C488 1.358 . S
C489 C490 1.405 . S
C490 H456 0.932 . S
C490 C489 1.405 . S
C490 C491 1.383 . S
C491 C490 1.383 . S
C491 C492 1.393 . S
C492 H457 0.931 . S
C492 C491 1.393 . S
C492 C493 1.382 . S
C493 H458 0.929 . S
C493 C488 1.371 . S
C493 C492 1.382 . S
C494 N462 1.423 . S
C494 C495 1.362 . S
C494 C499 1.388 . S
C495 H459 0.929 . S
C495 C494 1.362 . S
C495 C496 1.376 . S
C496 H460 0.931 . S
C496 C495 1.376 . S
C496 C497 1.396 . S
C497 C479 1.472 . S
C497 C496 1.396 . S
C497 C498 1.348 . S
C498 H461 0.929 . S
C498 C497 1.348 . S
C498 C499 1.443 . S
C499 H463 0.932 . S
C499 C494 1.388 . S
C499 C498 1.443 . S
H500 C527 0.929 . S
N501 C526 1.433 . S
N501 C532 1.435 . S
N501 C538 1.423 . S
H502 C528 0.930 . S
H503 C531 0.931 . S
H504 C530 0.929 . S
H505 C533 0.930 . S
H506 C534 0.932 . S
H507 C537 0.929 . S
H508 C536 0.931 . S
H509 C539 0.929 . S
H510 C543 0.932 . S
H511 C540 0.931 . S
H512 C542 0.929 . S
H513 C545 0.929 . S
H514 C546 0.930 . S
H515 C548 0.929 . S
H516 C549 0.931 . S
H517 C551 0.930 . S
H518 C552 0.932 . S
H519 C554 0.931 . S
H520 C555 0.929 . S
H521 C557 0.929 . S
H522 C558 0.931 . S
H523 C560 0.929 . S
N524 C544 1.433 . S
N524 C550 1.435 . S
N524 C556 1.423 . S
H525 C561 0.932 . S
C526 N501 1.433 . S
C526 C527 1.363 . S
C526 C531 1.370 . S
C527 H500 0.929 . S
C527 C526 1.363 . S
C527 C528 1.385 . S
C528 H502 0.930 . S
C528 C527 1.385 . S
C528 C529 1.357 . S
C529 C528 1.357 . S
C529 C530 1.406 . S
C530 H504 0.929 . S
C530 C529 1.406 . S
C530 C531 1.391 . S
C531 H503 0.931 . S
C531 C526 1.370 . S
C531 C530 1.391 . S
C532 N501 1.435 . S
C532 C533 1.358 . S
C532 C537 1.371 . S
C533 H505 0.930 . S
C533 C532 1.358 . S
C533 C534 1.405 . S
C534 H506 0.932 . S
C534 C533 1.405 . S
C534 C535 1.383 . S
C535 C534 1.383 . S
C535 C536 1.393 . S
C536 H508 0.931 . S
C536 C535 1.393 . S
C536 C537 1.382 . S
C537 H507 0.929 . S
C537 C532 1.371 . S
C537 C536 1.382 . S
C538 N501 1.423 . S
C538 C539 1.362 . S
C538 C543 1.388 . S
C539 H509 0.929 . S
C539 C538 1.362 . S
C539 C540 1.376 . S
C540 H511 0.931 . S
C540 C539 1.376 . S
C540 C541 1.396 . S
C541 C540 1.396 . S
C541 C542 1.348 . S
C541 C559 1.472 . S
C542 H512 0.929 . S
C542 C541 1.348 . S
C542 C543 1.443 . S
C543 H510 0.932 . S
C543 C538 1.388 . S
C543 C542 1.443 . S
C544 N524 1.433 . S
C544 C545 1.363 . S
C544 C549 1.370 . S
C545 H513 0.929 . S
C545 C544 1.363 . S
C545 C546 1.385 . S
C546 H514 0.930 . S
C546 C545 1.385 . S
C546 C547 1.357 . S
C547 C546 1.357 . S
C547 C548 1.406 . S
C548 H515 0.929 . S
C548 C547 1.406 . S
C548 C549 1.391 . S
C549 H516 0.931 . S
C549 C544 1.370 . S
C549 C548 1.391 . S
C550 N524 1.435 . S
C550 C551 1.358 . S
C550 C555 1.371 . S
C551 H517 0.930 . S
C551 C550 1.358 . S
C551 C552 1.405 . S
C552 H518 0.932 . S
C552 C551 1.405 . S
C552 C553 1.383 . S
C553 C552 1.383 . S
C553 C554 1.393 . S
C554 H519 0.931 . S
C554 C553 1.393 . S
C554 C555 1.382 . S
C555 H520 0.929 . S
C555 C550 1.371 . S
C555 C554 1.382 . S
C556 N524 1.423 . S
C556 C557 1.362 . S
C556 C561 1.388 . S
C557 H521 0.929 . S
C557 C556 1.362 . S
C557 C558 1.376 . S
C558 H522 0.931 . S
C558 C557 1.376 . S
C558 C559 1.396 . S
C559 C541 1.472 . S
C559 C558 1.396 . S
C559 C560 1.348 . S
C560 H523 0.929 . S
C560 C559 1.348 . S
C560 C561 1.443 . S
C561 H525 0.932 . S
C561 C556 1.388 . S
C561 C560 1.443 . S
H562 C589 0.929 . S
N563 C588 1.433 . S
N563 C594 1.435 . S
N563 C600 1.423 . S
H564 C590 0.930 . S
H565 C593 0.931 . S
H566 C592 0.929 . S
H567 C595 0.930 . S
H568 C596 0.932 . S
H569 C599 0.929 . S
H570 C598 0.931 . S
H571 C601 0.929 . S
H572 C605 0.932 . S
H573 C602 0.931 . S
H574 C604 0.929 . S
H575 C607 0.929 . S
H576 C608 0.930 . S
H577 C610 0.929 . S
H578 C611 0.931 . S
H579 C613 0.930 . S
H580 C614 0.932 . S
H581 C616 0.931 . S
H582 C617 0.929 . S
H583 C619 0.929 . S
H584 C620 0.931 . S
H585 C622 0.929 . S
N586 C606 1.433 . S
N586 C612 1.435 . S
N586 C618 1.423 . S
H587 C623 0.932 . S
C588 N563 1.433 . S
C588 C589 1.363 . S
C588 C593 1.370 . S
C589 H562 0.929 . S
C589 C588 1.363 . S
C589 C590 1.385 . S
C590 H564 0.930 . S
C590 C589 1.385 . S
C590 C591 1.357 . S
C591 C590 1.357 . S
C591 C592 1.406 . S
C592 H566 0.929 . S
C592 C591 1.406 . S
C592 C593 1.391 . S
C593 H565 0.931 . S
C593 C588 1.370 . S
C593 C592 1.391 . S
C594 N563 1.435 . S
C594 C595 1.358 . S
C594 C599 1.371 . S
C595 H567 0.930 . S
C595 C594 1.358 . S
C595 C596 1.405 . S
C596 H568 0.932 . S
C596 C595 1.405 . S
C596 C597 1.383 . S
C597 C596 1.383 . S
C597 C598 1.393 . S
C598 H570 0.931 . S
C598 C597 1.393 . S
C598 C599 1.382 . S
C599 H569 0.929 . S
C599 C594 1.371 . S
C599 C598 1.382 . S
C600 N563 1.423 . S
C600 C601 1.362 . S
C600 C605 1.388 . S
C601 H571 0.929 . S
C601 C600 1.362 . S
C601 C602 1.376 . S
C602 H573 0.931 . S
C602 C601 1.376 . S
C602 C603 1.396 . S
C603 C602 1.396 . S
C603 C604 1.348 . S
C603 C621 1.472 . S
C604 H574 0.929 . S
C604 C603 1.348 . S
C604 C605 1.443 . S
C605 H572 0.932 . S
C605 C600 1.388 . S
C605 C604 1.443 . S
C606 N586 1.433 . S
C606 C607 1.363 . S
C606 C611 1.370 . S
C607 H575 0.929 . S
C607 C606 1.363 . S
C607 C608 1.385 . S
C608 H576 0.930 . S
C608 C607 1.385 . S
C608 C609 1.357 . S
C609 C608 1.357 . S
C609 C610 1.406 . S
C610 H577 0.929 . S
C610 C609 1.406 . S
C610 C611 1.391 . S
C611 H578 0.931 . S
C611 C606 1.370 . S
C611 C610 1.391 . S
C612 N586 1.435 . S
C612 C613 1.358 . S
C612 C617 1.371 . S
C613 H579 0.930 . S
C613 C612 1.358 . S
C613 C614 1.405 . S
C614 H580 0.932 . S
C614 C613 1.405 . S
C614 C615 1.383 . S
C615 C614 1.383 . S
C615 C616 1.393 . S
C616 H581 0.931 . S
C616 C615 1.393 . S
C616 C617 1.382 . S
C617 H582 0.929 . S
C617 C612 1.371 . S
C617 C616 1.382 . S
C618 N586 1.423 . S
C618 C619 1.362 . S
C618 C623 1.388 . S
C619 H583 0.929 . S
C619 C618 1.362 . S
C619 C620 1.376 . S
C620 H584 0.931 . S
C620 C619 1.376 . S
C620 C621 1.396 . S
C621 C603 1.472 . S
C621 C620 1.396 . S
C621 C622 1.348 . S
C622 H585 0.929 . S
C622 C621 1.348 . S
C622 C623 1.443 . S
C623 H587 0.932 . S
C623 C618 1.388 . S
C623 C622 1.443 . S
H624 C651 0.929 . S
N625 C650 1.433 . S
N625 C656 1.435 . S
N625 C662 1.423 . S
H626 C652 0.930 . S
H627 C655 0.931 . S
H628 C654 0.929 . S
H629 C657 0.930 . S
H630 C658 0.932 . S
H631 C661 0.929 . S
H632 C660 0.931 . S
H633 C663 0.929 . S
H634 C667 0.932 . S
H635 C664 0.931 . S
H636 C666 0.929 . S
H637 C669 0.929 . S
H638 C670 0.930 . S
H639 C672 0.929 . S
H640 C673 0.931 . S
H641 C675 0.930 . S
H642 C676 0.932 . S
H643 C678 0.931 . S
H644 C679 0.929 . S
H645 C681 0.929 . S
H646 C682 0.931 . S
H647 C684 0.929 . S
N648 C668 1.433 . S
N648 C674 1.435 . S
N648 C680 1.423 . S
H649 C685 0.932 . S
C650 N625 1.433 . S
C650 C651 1.363 . S
C650 C655 1.370 . S
C651 H624 0.929 . S
C651 C650 1.363 . S
C651 C652 1.385 . S
C652 H626 0.930 . S
C652 C651 1.385 . S
C652 C653 1.357 . S
C653 C652 1.357 . S
C653 C654 1.406 . S
C654 H628 0.929 . S
C654 C653 1.406 . S
C654 C655 1.391 . S
C655 H627 0.931 . S
C655 C650 1.370 . S
C655 C654 1.391 . S
C656 N625 1.435 . S
C656 C657 1.358 . S
C656 C661 1.371 . S
C657 H629 0.930 . S
C657 C656 1.358 . S
C657 C658 1.405 . S
C658 H630 0.932 . S
C658 C657 1.405 . S
C658 C659 1.383 . S
C659 C658 1.383 . S
C659 C660 1.393 . S
C660 H632 0.931 . S
C660 C659 1.393 . S
C660 C661 1.382 . S
C661 H631 0.929 . S
C661 C656 1.371 . S
C661 C660 1.382 . S
C662 N625 1.423 . S
C662 C663 1.362 . S
C662 C667 1.388 . S
C663 H633 0.929 . S
C663 C662 1.362 . S
C663 C664 1.376 . S
C664 H635 0.931 . S
C664 C663 1.376 . S
C664 C665 1.396 . S
C665 C664 1.396 . S
C665 C666 1.348 . S
C665 C683 1.472 . S
C666 H636 0.929 . S
C666 C665 1.348 . S
C666 C667 1.443 . S
C667 H634 0.932 . S
C667 C662 1.388 . S
C667 C666 1.443 . S
C668 N648 1.433 . S
C668 C669 1.363 . S
C668 C673 1.370 . S
C669 H637 0.929 . S
C669 C668 1.363 . S
C669 C670 1.385 . S
C670 H638 0.930 . S
C670 C669 1.385 . S
C670 C671 1.357 . S
C671 C670 1.357 . S
C671 C672 1.406 . S
C672 H639 0.929 . S
C672 C671 1.406 . S
C672 C673 1.391 . S
C673 H640 0.931 . S
C673 C668 1.370 . S
C673 C672 1.391 . S
C674 N648 1.435 . S
C674 C675 1.358 . S
C674 C679 1.371 . S
C675 H641 0.930 . S
C675 C674 1.358 . S
C675 C676 1.405 . S
C676 H642 0.932 . S
C676 C675 1.405 . S
C676 C677 1.383 . S
C677 C676 1.383 . S
C677 C678 1.393 . S
C678 H643 0.931 . S
C678 C677 1.393 . S
C678 C679 1.382 . S
C679 H644 0.929 . S
C679 C674 1.371 . S
C679 C678 1.382 . S
C680 N648 1.423 . S
C680 C681 1.362 . S
C680 C685 1.388 . S
C681 H645 0.929 . S
C681 C680 1.362 . S
C681 C682 1.376 . S
C682 H646 0.931 . S
C682 C681 1.376 . S
C682 C683 1.396 . S
C683 C665 1.472 . S
C683 C682 1.396 . S
C683 C684 1.348 . S
C684 H647 0.929 . S
C684 C683 1.348 . S
C684 C685 1.443 . S
C685 H649 0.932 . S
C685 C680 1.388 . S
C685 C684 1.443 . S
H686 C713 0.929 . S
N687 C712 1.433 . S
N687 C718 1.435 . S
N687 C724 1.423 . S
H688 C714 0.930 . S
H689 C717 0.931 . S
H690 C716 0.929 . S
H691 C719 0.930 . S
H692 C720 0.932 . S
H693 C723 0.929 . S
H694 C722 0.931 . S
H695 C725 0.929 . S
H696 C729 0.932 . S
H697 C726 0.931 . S
H698 C728 0.929 . S
H699 C731 0.929 . S
H700 C732 0.930 . S
H701 C734 0.929 . S
H702 C735 0.931 . S
H703 C737 0.930 . S
H704 C738 0.932 . S
H705 C740 0.931 . S
H706 C741 0.929 . S
H707 C743 0.929 . S
H708 C744 0.931 . S
H709 C746 0.929 . S
N710 C730 1.433 . S
N710 C736 1.435 . S
N710 C742 1.423 . S
H711 C747 0.932 . S
C712 N687 1.433 . S
C712 C713 1.363 . S
C712 C717 1.370 . S
C713 H686 0.929 . S
C713 C712 1.363 . S
C713 C714 1.385 . S
C714 H688 0.930 . S
C714 C713 1.385 . S
C714 C715 1.357 . S
C715 C714 1.357 . S
C715 C716 1.406 . S
C716 H690 0.929 . S
C716 C715 1.406 . S
C716 C717 1.391 . S
C717 H689 0.931 . S
C717 C712 1.370 . S
C717 C716 1.391 . S
C718 N687 1.435 . S
C718 C719 1.358 . S
C718 C723 1.371 . S
C719 H691 0.930 . S
C719 C718 1.358 . S
C719 C720 1.405 . S
C720 H692 0.932 . S
C720 C719 1.405 . S
C720 C721 1.383 . S
C721 C720 1.383 . S
C721 C722 1.393 . S
C722 H694 0.931 . S
C722 C721 1.393 . S
C722 C723 1.382 . S
C723 H693 0.929 . S
C723 C718 1.371 . S
C723 C722 1.382 . S
C724 N687 1.423 . S
C724 C725 1.362 . S
C724 C729 1.388 . S
C725 H695 0.929 . S
C725 C724 1.362 . S
C725 C726 1.376 . S
C726 H697 0.931 . S
C726 C725 1.376 . S
C726 C727 1.396 . S
C727 C726 1.396 . S
C727 C728 1.348 . S
C727 C745 1.472 . S
C728 H698 0.929 . S
C728 C727 1.348 . S
C728 C729 1.443 . S
C729 H696 0.932 . S
C729 C724 1.388 . S
C729 C728 1.443 . S
C730 N710 1.433 . S
C730 C731 1.363 . S
C730 C735 1.370 . S
C731 H699 0.929 . S
C731 C730 1.363 . S
C731 C732 1.385 . S
C732 H700 0.930 . S
C732 C731 1.385 . S
C732 C733 1.357 . S
C733 C732 1.357 . S
C733 C734 1.406 . S
C734 H701 0.929 . S
C734 C733 1.406 . S
C734 C735 1.391 . S
C735 H702 0.931 . S
C735 C730 1.370 . S
C735 C734 1.391 . S
C736 N710 1.435 . S
C736 C737 1.358 . S
C736 C741 1.371 . S
C737 H703 0.930 . S
C737 C736 1.358 . S
C737 C738 1.405 . S
C738 H704 0.932 . S
C738 C737 1.405 . S
C738 C739 1.383 . S
C739 C738 1.383 . S
C739 C740 1.393 . S
C740 H705 0.931 . S
C740 C739 1.393 . S
C740 C741 1.382 . S
C741 H706 0.929 . S
C741 C736 1.371 . S
C741 C740 1.382 . S
C742 N710 1.423 . S
C742 C743 1.362 . S
C742 C747 1.388 . S
C743 H707 0.929 . S
C743 C742 1.362 . S
C743 C744 1.376 . S
C744 H708 0.931 . S
C744 C743 1.376 . S
C744 C745 1.396 . S
C745 C727 1.472 . S
C745 C744 1.396 . S
C745 C746 1.348 . S
C746 H709 0.929 . S
C746 C745 1.348 . S
C746 C747 1.443 . S
C747 H711 0.932 . S
C747 C742 1.388 . S
C747 C746 1.443 . S
H748 C775 0.929 . S
N749 C774 1.433 . S
N749 C780 1.435 . S
N749 C786 1.423 . S
H750 C776 0.930 . S
H751 C779 0.931 . S
H752 C778 0.929 . S
H753 C781 0.930 . S
H754 C782 0.932 . S
H755 C785 0.929 . S
H756 C784 0.931 . S
H757 C787 0.929 . S
H758 C791 0.932 . S
H759 C788 0.931 . S
H760 C790 0.929 . S
H761 C793 0.929 . S
H762 C794 0.930 . S
H763 C796 0.929 . S
H764 C797 0.931 . S
H765 C799 0.930 . S
H766 C800 0.932 . S
H767 C802 0.931 . S
H768 C803 0.929 . S
H769 C805 0.929 . S
H770 C806 0.931 . S
H771 C808 0.929 . S
N772 C792 1.433 . S
N772 C798 1.435 . S
N772 C804 1.423 . S
H773 C809 0.932 . S
C774 N749 1.433 . S
C774 C775 1.363 . S
C774 C779 1.370 . S
C775 H748 0.929 . S
C775 C774 1.363 . S
C775 C776 1.385 . S
C776 H750 0.930 . S
C776 C775 1.385 . S
C776 C777 1.357 . S
C777 C776 1.357 . S
C777 C778 1.406 . S
C778 H752 0.929 . S
C778 C777 1.406 . S
C778 C779 1.391 . S
C779 H751 0.931 . S
C779 C774 1.370 . S
C779 C778 1.391 . S
C780 N749 1.435 . S
C780 C781 1.358 . S
C780 C785 1.371 . S
C781 H753 0.930 . S
C781 C780 1.358 . S
C781 C782 1.405 . S
C782 H754 0.932 . S
C782 C781 1.405 . S
C782 C783 1.383 . S
C783 C782 1.383 . S
C783 C784 1.393 . S
C784 H756 0.931 . S
C784 C783 1.393 . S
C784 C785 1.382 . S
C785 H755 0.929 . S
C785 C780 1.371 . S
C785 C784 1.382 . S
C786 N749 1.423 . S
C786 C787 1.362 . S
C786 C791 1.388 . S
C787 H757 0.929 . S
C787 C786 1.362 . S
C787 C788 1.376 . S
C788 H759 0.931 . S
C788 C787 1.376 . S
C788 C789 1.396 . S
C789 C788 1.396 . S
C789 C790 1.348 . S
C789 C807 1.472 . S
C790 H760 0.929 . S
C790 C789 1.348 . S
C790 C791 1.443 . S
C791 H758 0.932 . S
C791 C786 1.388 . S
C791 C790 1.443 . S
C792 N772 1.433 . S
C792 C793 1.363 . S
C792 C797 1.370 . S
C793 H761 0.929 . S
C793 C792 1.363 . S
C793 C794 1.385 . S
C794 H762 0.930 . S
C794 C793 1.385 . S
C794 C795 1.357 . S
C795 C794 1.357 . S
C795 C796 1.406 . S
C796 H763 0.929 . S
C796 C795 1.406 . S
C796 C797 1.391 . S
C797 H764 0.931 . S
C797 C792 1.370 . S
C797 C796 1.391 . S
C798 N772 1.435 . S
C798 C799 1.358 . S
C798 C803 1.371 . S
C799 H765 0.930 . S
C799 C798 1.358 . S
C799 C800 1.405 . S
C800 H766 0.932 . S
C800 C799 1.405 . S
C800 C801 1.383 . S
C801 C800 1.383 . S
C801 C802 1.393 . S
C802 H767 0.931 . S
C802 C801 1.393 . S
C802 C803 1.382 . S
C803 H768 0.929 . S
C803 C798 1.371 . S
C803 C802 1.382 . S
C804 N772 1.423 . S
C804 C805 1.362 . S
C804 C809 1.388 . S
C805 H769 0.929 . S
C805 C804 1.362 . S
C805 C806 1.376 . S
C806 H770 0.931 . S
C806 C805 1.376 . S
C806 C807 1.396 . S
C807 C789 1.472 . S
C807 C806 1.396 . S
C807 C808 1.348 . S
C808 H771 0.929 . S
C808 C807 1.348 . S
C808 C809 1.443 . S
C809 H773 0.932 . S
C809 C804 1.388 . S
C809 C808 1.443 . S
H810 C837 0.929 . S
N811 C836 1.433 . S
N811 C842 1.435 . S
N811 C848 1.423 . S
H812 C838 0.930 . S
H813 C841 0.931 . S
H814 C840 0.929 . S
H815 C843 0.930 . S
H816 C844 0.932 . S
H817 C847 0.929 . S
H818 C846 0.931 . S
H819 C849 0.929 . S
H820 C853 0.932 1_655 S
H821 C850 0.931 . S
H822 C852 0.935 . S
H823 C855 0.929 . S
H824 C856 0.930 . S
H825 C858 0.929 . S
H826 C859 0.931 . S
H827 C861 0.930 . S
H828 C862 0.932 . S
H829 C864 0.931 . S
H830 C865 0.929 . S
H831 C867 0.929 . S
H832 C868 0.931 . S
H833 C870 0.971 . S
N834 C854 1.433 . S
N834 C860 1.435 . S
N834 C866 1.423 . S
H835 C871 0.932 1_655 S
C836 N811 1.433 . S
C836 C837 1.363 . S
C836 C841 1.370 1_455 S
C837 H810 0.929 . S
C837 C836 1.363 . S
C837 C838 1.385 . S
C838 H812 0.930 . S
C838 C837 1.385 . S
C838 C839 1.357 1_455 S
C839 C838 1.357 1_655 S
C839 C840 1.406 . S
C840 H814 0.929 . S
C840 C839 1.406 . S
C840 C841 1.391 . S
C841 H813 0.931 . S
C841 C836 1.370 1_655 S
C841 C840 1.391 . S
C842 N811 1.435 . S
C842 C843 1.358 1_455 S
C842 C847 1.371 . S
C843 H815 0.930 . S
C843 C842 1.358 1_655 S
C843 C844 1.405 . S
C844 H816 0.932 . S
C844 C843 1.405 . S
C844 C845 1.383 1_655 S
C845 C844 1.383 1_455 S
C845 C846 1.393 . S
C846 H818 0.931 . S
C846 C845 1.393 . S
C846 C847 1.382 . S
C847 H817 0.929 . S
C847 C842 1.371 . S
C847 C846 1.382 . S
C848 N811 1.423 . S
C848 C849 1.362 . S
C848 C853 1.388 . S
C849 H819 0.929 . S
C849 C848 1.362 . S
C849 C850 1.376 . S
C850 H821 0.931 . S
C850 C849 1.376 . S
C850 C851 1.396 . S
C851 C850 1.396 . S
C851 C852 1.348 . S
C851 C869 1.472 . S
C852 H822 0.935 . S
C852 C851 1.348 . S
C852 C853 1.443 . S
C853 H820 0.932 1_455 S
C853 C848 1.388 . S
C853 C852 1.443 . S
C854 N834 1.433 . S
C854 C855 1.363 . S
C854 C859 1.370 1_455 S
C855 H823 0.929 . S
C855 C854 1.363 . S
C855 C856 1.385 . S
C856 H824 0.930 . S
C856 C855 1.385 . S
C856 C857 1.357 1_455 S
C857 C856 1.357 1_655 S
C857 C858 1.406 . S
C858 H825 0.929 . S
C858 C857 1.406 . S
C858 C859 1.391 . S
C859 H826 0.931 . S
C859 C854 1.370 1_655 S
C859 C858 1.391 . S
C860 N834 1.435 . S
C860 C861 1.358 1_455 S
C860 C865 1.371 . S
C861 H827 0.930 . S
C861 C860 1.358 1_655 S
C861 C862 1.405 . S
C862 H828 0.932 . S
C862 C861 1.405 . S
C862 C863 1.383 1_655 S
C863 C862 1.383 1_455 S
C863 C864 1.393 . S
C864 H829 0.931 . S
C864 C863 1.393 . S
C864 C865 1.382 . S
C865 H830 0.929 . S
C865 C860 1.371 . S
C865 C864 1.382 . S
C866 N834 1.423 . S
C866 C867 1.362 . S
C866 C871 1.388 . S
C867 H831 0.929 . S
C867 C866 1.362 . S
C867 C868 1.376 . S
C868 H832 0.931 . S
C868 C867 1.376 . S
C868 C869 1.396 . S
C869 C851 1.472 . S
C869 C868 1.396 . S
C869 C870 1.348 . S
C870 H833 0.971 . S
C870 C869 1.348 . S
C870 C871 1.443 . S
C871 H835 0.932 1_455 S
C871 C866 1.388 . S
C871 C870 1.443 . S
H872 C899 0.929 . S
N873 C898 1.433 . S
N873 C904 1.435 . S
N873 C910 1.423 . S
H874 C900 0.930 . S
H875 C903 0.931 . S
H876 C902 0.929 . S
H877 C905 0.930 . S
H878 C906 0.932 . S
H879 C909 0.929 . S
H880 C908 0.931 . S
H881 C911 0.929 . S
H882 C915 0.932 . S
H883 C912 0.931 . S
H884 C914 0.929 . S
H885 C917 0.929 . S
H886 C918 0.930 . S
H887 C920 0.929 . S
H888 C921 0.931 . S
H889 C923 0.930 . S
H890 C924 0.932 . S
H891 C926 0.931 . S
H892 C927 0.929 . S
H893 C929 0.929 . S
H894 C930 0.931 . S
H895 C932 0.929 . S
N896 C916 1.433 . S
N896 C922 1.435 . S
N896 C928 1.423 . S
H897 C933 0.932 . S
C898 N873 1.433 . S
C898 C899 1.363 . S
C898 C903 1.370 . S
C899 H872 0.929 . S
C899 C898 1.363 . S
C899 C900 1.385 . S
C900 H874 0.930 . S
C900 C899 1.385 . S
C900 C901 1.357 . S
C901 C900 1.357 . S
C901 C902 1.406 . S
C902 H876 0.929 . S
C902 C901 1.406 . S
C902 C903 1.391 . S
C903 H875 0.931 . S
C903 C898 1.370 . S
C903 C902 1.391 . S
C904 N873 1.435 . S
C904 C905 1.358 . S
C904 C909 1.371 . S
C905 H877 0.930 . S
C905 C904 1.358 . S
C905 C906 1.405 . S
C906 H878 0.932 . S
C906 C905 1.405 . S
C906 C907 1.383 . S
C907 C906 1.383 . S
C907 C908 1.393 . S
C908 H880 0.931 . S
C908 C907 1.393 . S
C908 C909 1.382 . S
C909 H879 0.929 . S
C909 C904 1.371 . S
C909 C908 1.382 . S
C910 N873 1.423 . S
C910 C911 1.362 . S
C910 C915 1.388 . S
C911 H881 0.929 . S
C911 C910 1.362 . S
C911 C912 1.376 . S
C912 H883 0.931 . S
C912 C911 1.376 . S
C912 C913 1.396 . S
C913 C912 1.396 . S
C913 C914 1.348 . S
C913 C931 1.472 . S
C914 H884 0.929 . S
C914 C913 1.348 . S
C914 C915 1.443 . S
C915 H882 0.932 . S
C915 C910 1.388 . S
C915 C914 1.443 . S
C916 N896 1.433 . S
C916 C917 1.363 . S
C916 C921 1.370 . S
C917 H885 0.929 . S
C917 C916 1.363 . S
C917 C918 1.385 . S
C918 H886 0.930 . S
C918 C917 1.385 . S
C918 C919 1.357 . S
C919 C918 1.357 . S
C919 C920 1.406 . S
C920 H887 0.929 . S
C920 C919 1.406 . S
C920 C921 1.391 . S
C921 H888 0.931 . S
C921 C916 1.370 . S
C921 C920 1.391 . S
C922 N896 1.435 . S
C922 C923 1.358 . S
C922 C927 1.371 . S
C923 H889 0.930 . S
C923 C922 1.358 . S
C923 C924 1.405 . S
C924 H890 0.932 . S
C924 C923 1.405 . S
C924 C925 1.383 . S
C925 C924 1.383 . S
C925 C926 1.393 . S
C926 H891 0.931 . S
C926 C925 1.393 . S
C926 C927 1.382 . S
C927 H892 0.929 . S
C927 C922 1.371 . S
C927 C926 1.382 . S
C928 N896 1.423 . S
C928 C929 1.362 . S
C928 C933 1.388 . S
C929 H893 0.929 . S
C929 C928 1.362 . S
C929 C930 1.376 . S
C930 H894 0.931 . S
C930 C929 1.376 . S
C930 C931 1.396 . S
C931 C913 1.472 . S
C931 C930 1.396 . S
C931 C932 1.348 . S
C932 H895 0.929 . S
C932 C931 1.348 . S
C932 C933 1.443 . S
C933 H897 0.932 . S
C933 C928 1.388 . S
C933 C932 1.443 . S
H934 C961 0.929 . S
N935 C960 1.433 . S
N935 C966 1.435 . S
N935 C972 1.423 . S
H936 C962 0.930 . S
H937 C965 0.931 . S
H938 C964 0.929 . S
H939 C967 0.930 . S
H940 C968 0.932 . S
H941 C971 0.929 . S
H942 C970 0.931 . S
H943 C973 0.929 . S
H944 C977 0.932 1_545 S
H945 C974 0.931 . S
H946 C976 0.978 . S
H947 C979 0.929 . S
H948 C980 0.930 . S
H949 C982 0.929 . S
H950 C983 0.931 . S
H951 C985 0.930 . S
H952 C986 0.932 . S
H953 C988 0.931 . S
H954 C989 0.929 . S
H955 C991 0.929 . S
H956 C992 0.931 . S
H957 C994 0.936 . S
N958 C978 1.433 . S
N958 C984 1.435 . S
N958 C990 1.423 . S
H959 C995 0.932 1_545 S
C960 N935 1.433 . S
C960 C961 1.363 . S
C960 C965 1.370 1_565 S
C961 H934 0.929 . S
C961 C960 1.363 . S
C961 C962 1.385 . S
C962 H936 0.930 . S
C962 C961 1.385 . S
C962 C963 1.357 1_565 S
C963 C962 1.357 1_545 S
C963 C964 1.406 . S
C964 H938 0.929 . S
C964 C963 1.406 . S
C964 C965 1.391 . S
C965 H937 0.931 . S
C965 C960 1.370 1_545 S
C965 C964 1.391 . S
C966 N935 1.435 . S
C966 C967 1.358 1_565 S
C966 C971 1.371 . S
C967 H939 0.930 . S
C967 C966 1.358 1_545 S
C967 C968 1.405 . S
C968 H940 0.932 . S
C968 C967 1.405 . S
C968 C969 1.383 1_545 S
C969 C968 1.383 1_565 S
C969 C970 1.393 . S
C970 H942 0.931 . S
C970 C969 1.393 . S
C970 C971 1.382 . S
C971 H941 0.929 . S
C971 C966 1.371 . S
C971 C970 1.382 . S
C972 N935 1.423 . S
C972 C973 1.362 . S
C972 C977 1.388 . S
C973 H943 0.929 . S
C973 C972 1.362 . S
C973 C974 1.376 . S
C974 H945 0.931 . S
C974 C973 1.376 . S
C974 C975 1.396 . S
C975 C974 1.396 . S
C975 C976 1.348 . S
C975 C993 1.472 . S
C976 H946 0.978 . S
C976 C975 1.348 . S
C976 C977 1.443 . S
C977 H944 0.932 1_565 S
C977 C972 1.388 . S
C977 C976 1.443 . S
C978 N958 1.433 . S
C978 C979 1.363 . S
C978 C983 1.370 1_565 S
C979 H947 0.929 . S
C979 C978 1.363 . S
C979 C980 1.385 . S
C980 H948 0.930 . S
C980 C979 1.385 . S
C980 C981 1.357 1_565 S
C981 C980 1.357 1_545 S
C981 C982 1.406 . S
C982 H949 0.929 . S
C982 C981 1.406 . S
C982 C983 1.391 . S
C983 H950 0.931 . S
C983 C978 1.370 1_545 S
C983 C982 1.391 . S
C984 N958 1.435 . S
C984 C985 1.358 1_565 S
C984 C989 1.371 . S
C985 H951 0.930 . S
C985 C984 1.358 1_545 S
C985 C986 1.405 . S
C986 H952 0.932 . S
C986 C985 1.405 . S
C986 C987 1.383 1_545 S
C987 C986 1.383 1_565 S
C987 C988 1.393 . S
C988 H953 0.931 . S
C988 C987 1.393 . S
C988 C989 1.382 . S
C989 H954 0.929 . S
C989 C984 1.371 . S
C989 C988 1.382 . S
C990 N958 1.423 . S
C990 C991 1.362 . S
C990 C995 1.388 . S
C991 H955 0.929 . S
C991 C990 1.362 . S
C991 C992 1.376 . S
C992 H956 0.931 . S
C992 C991 1.376 . S
C992 C993 1.396 . S
C993 C975 1.472 . S
C993 C992 1.396 . S
C993 C994 1.348 . S
C994 H957 0.936 . S
C994 C993 1.348 . S
C994 C995 1.443 . S
C995 H959 0.932 1_565 S
C995 C990 1.388 . S
C995 C994 1.443 . S
H996 C1023 0.929 . S
N997 C1022 1.433 . S
N997 C1028 1.435 . S
N997 C1034 1.423 . S
H998 C1024 0.930 . S
H999 C1027 0.931 . S
H1000 C1026 0.929 . S
H1001 C1029 0.930 . S
H1002 C1030 0.932 . S
H1003 C1033 0.929 . S
H1004 C1032 0.931 . S
H1005 C1035 0.929 . S
H1006 C1039 1.011 . S
H1007 C1036 0.931 . S
H1008 C1038 0.918 1_545 S
H1009 C1041 0.929 . S
H1010 C1042 0.930 . S
H1011 C1044 0.929 . S
H1012 C1045 0.995 . S
H1013 C1047 0.930 . S
H1014 C1048 0.932 . S
H1015 C1050 0.931 . S
H1016 C1051 0.929 . S
H1017 C1053 0.929 . S
H1018 C1054 0.931 . S
H1019 C1056 0.874 1_545 S
N1020 C1040 1.433 . S
N1020 C1046 1.435 . S
N1020 C1052 1.423 . S
H1021 C1057 0.953 . S
C1022 N997 1.433 . S
C1022 C1023 1.363 . S
C1022 C1027 1.370 1_565 S
C1023 H996 0.929 . S
C1023 C1022 1.363 . S
C1023 C1024 1.385 . S
C1024 H998 0.930 . S
C1024 C1023 1.385 . S
C1024 C1025 1.357 . S
C1025 C1024 1.357 . S
C1025 C1026 1.406 1_565 S
C1026 H1000 0.929 . S
C1026 C1025 1.406 1_545 S
C1026 C1027 1.391 . S
C1027 H999 0.931 . S
C1027 C1022 1.370 1_545 S
C1027 C1026 1.391 . S
C1028 N997 1.435 . S
C1028 C1029 1.358 1_565 S
C1028 C1033 1.371 . S
C1029 H1001 0.930 . S
C1029 C1028 1.358 1_545 S
C1029 C1030 1.405 . S
C1030 H1002 0.932 . S
C1030 C1029 1.405 . S
C1030 C1031 1.383 . S
C1031 C1030 1.383 . S
C1031 C1032 1.393 1_545 S
C1032 H1004 0.931 . S
C1032 C1031 1.393 1_565 S
C1032 C1033 1.382 . S
C1033 H1003 0.929 . S
C1033 C1028 1.371 . S
C1033 C1032 1.382 . S
C1034 N997 1.423 . S
C1034 C1035 1.362 . S
C1034 C1039 1.367 1_565 S
C1035 H1005 0.929 . S
C1035 C1034 1.362 . S
C1035 C1036 1.376 . S
C1036 H1007 0.931 . S
C1036 C1035 1.376 . S
C1036 C1037 1.396 . S
C1037 C1036 1.396 . S
C1037 C1038 1.399 . S
C1037 C1055 1.472 . S
C1038 H1008 0.918 1_565 S
C1038 C1037 1.399 . S
C1038 C1039 1.355 1_565 S
C1039 H1006 1.011 . S
C1039 C1034 1.367 1_545 S
C1039 C1038 1.355 1_545 S
C1040 N1020 1.433 . S
C1040 C1041 1.363 . S
C1040 C1045 1.321 1_565 S
C1041 H1009 0.929 . S
C1041 C1040 1.363 . S
C1041 C1042 1.385 . S
C1042 H1010 0.930 . S
C1042 C1041 1.385 . S
C1042 C1043 1.357 . S
C1043 C1042 1.357 . S
C1043 C1044 1.406 1_565 S
C1044 H1011 0.929 . S
C1044 C1043 1.406 1_545 S
C1044 C1045 1.381 . S
C1045 H1012 0.995 . S
C1045 C1040 1.321 1_545 S
C1045 C1044 1.381 . S
C1046 N1020 1.435 . S
C1046 C1047 1.358 1_565 S
C1046 C1051 1.371 . S
C1047 H1013 0.930 . S
C1047 C1046 1.358 1_545 S
C1047 C1048 1.405 . S
C1048 H1014 0.932 . S
C1048 C1047 1.405 . S
C1048 C1049 1.383 . S
C1049 C1048 1.383 . S
C1049 C1050 1.393 1_545 S
C1050 H1015 0.931 . S
C1050 C1049 1.393 1_565 S
C1050 C1051 1.382 . S
C1051 H1016 0.929 . S
C1051 C1046 1.371 . S
C1051 C1050 1.382 . S
C1052 N1020 1.423 . S
C1052 C1053 1.362 . S
C1052 C1057 1.343 1_565 S
C1053 H1017 0.929 . S
C1053 C1052 1.362 . S
C1053 C1054 1.376 . S
C1054 H1018 0.931 . S
C1054 C1053 1.376 . S
C1054 C1055 1.396 . S
C1055 C1037 1.472 . S
C1055 C1054 1.396 . S
C1055 C1056 1.371 . S
C1056 H1019 0.874 1_565 S
C1056 C1055 1.371 . S
C1056 C1057 1.507 1_565 S
C1057 H1021 0.953 . S
C1057 C1052 1.343 1_545 S
C1057 C1056 1.507 1_545 S
H1058 C1085 0.929 . S
N1059 C1084 1.433 . S
N1059 C1090 1.435 . S
N1059 C1096 1.423 . S
H1060 C1086 0.930 . S
H1061 C1089 0.931 . S
H1062 C1088 0.929 . S
H1063 C1091 0.930 . S
H1064 C1092 0.932 . S
H1065 C1095 0.929 . S
H1066 C1094 0.931 . S
H1067 C1097 0.929 . S
H1068 C1101 0.932 1_455 S
H1069 C1098 0.931 . S
H1070 C1100 0.977 . S
H1071 C1103 0.929 . S
H1072 C1104 0.930 . S
H1073 C1106 0.929 . S
H1074 C1107 0.931 . S
H1075 C1109 0.930 . S
H1076 C1110 0.932 . S
H1077 C1112 0.931 . S
H1078 C1113 0.929 . S
H1079 C1115 0.929 . S
H1080 C1116 0.931 . S
H1081 C1118 0.936 . S
N1082 C1102 1.433 . S
N1082 C1108 1.435 . S
N1082 C1114 1.423 . S
H1083 C1119 0.932 1_455 S
C1084 N1059 1.433 . S
C1084 C1085 1.363 . S
C1084 C1089 1.370 1_655 S
C1085 H1058 0.929 . S
C1085 C1084 1.363 . S
C1085 C1086 1.385 . S
C1086 H1060 0.930 . S
C1086 C1085 1.385 . S
C1086 C1087 1.357 1_655 S
C1087 C1086 1.357 1_455 S
C1087 C1088 1.406 . S
C1088 H1062 0.929 . S
C1088 C1087 1.406 . S
C1088 C1089 1.391 . S
C1089 H1061 0.931 . S
C1089 C1084 1.370 1_455 S
C1089 C1088 1.391 . S
C1090 N1059 1.435 . S
C1090 C1091 1.358 1_655 S
C1090 C1095 1.371 . S
C1091 H1063 0.930 . S
C1091 C1090 1.358 1_455 S
C1091 C1092 1.405 . S
C1092 H1064 0.932 . S
C1092 C1091 1.405 . S
C1092 C1093 1.383 1_455 S
C1093 C1092 1.383 1_655 S
C1093 C1094 1.393 . S
C1094 H1066 0.931 . S
C1094 C1093 1.393 . S
C1094 C1095 1.382 . S
C1095 H1065 0.929 . S
C1095 C1090 1.371 . S
C1095 C1094 1.382 . S
C1096 N1059 1.423 . S
C1096 C1097 1.362 . S
C1096 C1101 1.388 . S
C1097 H1067 0.929 . S
C1097 C1096 1.362 . S
C1097 C1098 1.376 . S
C1098 H1069 0.931 . S
C1098 C1097 1.376 . S
C1098 C1099 1.396 . S
C1099 C1098 1.396 . S
C1099 C1100 1.348 . S
C1099 C1117 1.472 . S
C1100 H1070 0.977 . S
C1100 C1099 1.348 . S
C1100 C1101 1.443 . S
C1101 H1068 0.932 1_655 S
C1101 C1096 1.388 . S
C1101 C1100 1.443 . S
C1102 N1082 1.433 . S
C1102 C1103 1.363 . S
C1102 C1107 1.370 1_655 S
C1103 H1071 0.929 . S
C1103 C1102 1.363 . S
C1103 C1104 1.385 . S
C1104 H1072 0.930 . S
C1104 C1103 1.385 . S
C1104 C1105 1.357 1_655 S
C1105 C1104 1.357 1_455 S
C1105 C1106 1.406 . S
C1106 H1073 0.929 . S
C1106 C1105 1.406 . S
C1106 C1107 1.391 . S
C1107 H1074 0.931 . S
C1107 C1102 1.370 1_455 S
C1107 C1106 1.391 . S
C1108 N1082 1.435 . S
C1108 C1109 1.358 1_655 S
C1108 C1113 1.371 . S
C1109 H1075 0.930 . S
C1109 C1108 1.358 1_455 S
C1109 C1110 1.405 . S
C1110 H1076 0.932 . S
C1110 C1109 1.405 . S
C1110 C1111 1.383 1_455 S
C1111 C1110 1.383 1_655 S
C1111 C1112 1.393 . S
C1112 H1077 0.931 . S
C1112 C1111 1.393 . S
C1112 C1113 1.382 . S
C1113 H1078 0.929 . S
C1113 C1108 1.371 . S
C1113 C1112 1.382 . S
C1114 N1082 1.423 . S
C1114 C1115 1.362 . S
C1114 C1119 1.388 . S
C1115 H1079 0.929 . S
C1115 C1114 1.362 . S
C1115 C1116 1.376 . S
C1116 H1080 0.931 . S
C1116 C1115 1.376 . S
C1116 C1117 1.396 . S
C1117 C1099 1.472 . S
C1117 C1116 1.396 . S
C1117 C1118 1.348 . S
C1118 H1081 0.936 . S
C1118 C1117 1.348 . S
C1118 C1119 1.443 . S
C1119 H1083 0.932 1_655 S
C1119 C1114 1.388 . S
C1119 C1118 1.443 . S
H1120 C1147 0.929 . S
N1121 C1146 1.433 . S
N1121 C1152 1.435 . S
N1121 C1158 1.423 . S
H1122 C1148 0.930 . S
H1123 C1151 0.931 . S
H1124 C1150 0.929 . S
H1125 C1153 0.930 . S
H1126 C1154 0.932 . S
H1127 C1157 0.929 . S
H1128 C1156 0.931 . S
H1129 C1159 0.929 . S
H1130 C1163 0.932 . S
H1131 C1160 0.931 . S
H1132 C1162 0.929 . S
H1133 C1165 0.929 . S
H1134 C1166 0.930 . S
H1135 C1168 0.929 . S
H1136 C1169 0.931 . S
H1137 C1171 0.930 . S
H1138 C1172 0.932 . S
H1139 C1174 0.931 . S
H1140 C1175 0.929 . S
H1141 C1177 0.929 . S
H1142 C1178 0.931 . S
H1143 C1180 0.929 . S
N1144 C1164 1.433 . S
N1144 C1170 1.435 . S
N1144 C1176 1.423 . S
H1145 C1181 0.932 . S
C1146 N1121 1.433 . S
C1146 C1147 1.363 . S
C1146 C1151 1.370 . S
C1147 H1120 0.929 . S
C1147 C1146 1.363 . S
C1147 C1148 1.385 . S
C1148 H1122 0.930 . S
C1148 C1147 1.385 . S
C1148 C1149 1.357 . S
C1149 C1148 1.357 . S
C1149 C1150 1.406 . S
C1150 H1124 0.929 . S
C1150 C1149 1.406 . S
C1150 C1151 1.391 . S
C1151 H1123 0.931 . S
C1151 C1146 1.370 . S
C1151 C1150 1.391 . S
C1152 N1121 1.435 . S
C1152 C1153 1.358 . S
C1152 C1157 1.371 . S
C1153 H1125 0.930 . S
C1153 C1152 1.358 . S
C1153 C1154 1.405 . S
C1154 H1126 0.932 . S
C1154 C1153 1.405 . S
C1154 C1155 1.383 . S
C1155 C1154 1.383 . S
C1155 C1156 1.393 . S
C1156 H1128 0.931 . S
C1156 C1155 1.393 . S
C1156 C1157 1.382 . S
C1157 H1127 0.929 . S
C1157 C1152 1.371 . S
C1157 C1156 1.382 . S
C1158 N1121 1.423 . S
C1158 C1159 1.362 . S
C1158 C1163 1.388 . S
C1159 H1129 0.929 . S
C1159 C1158 1.362 . S
C1159 C1160 1.376 . S
C1160 H1131 0.931 . S
C1160 C1159 1.376 . S
C1160 C1161 1.396 . S
C1161 C1160 1.396 . S
C1161 C1162 1.348 . S
C1161 C1179 1.472 . S
C1162 H1132 0.929 . S
C1162 C1161 1.348 . S
C1162 C1163 1.443 . S
C1163 H1130 0.932 . S
C1163 C1158 1.388 . S
C1163 C1162 1.443 . S
C1164 N1144 1.433 . S
C1164 C1165 1.363 . S
C1164 C1169 1.370 . S
C1165 H1133 0.929 . S
C1165 C1164 1.363 . S
C1165 C1166 1.385 . S
C1166 H1134 0.930 . S
C1166 C1165 1.385 . S
C1166 C1167 1.357 . S
C1167 C1166 1.357 . S
C1167 C1168 1.406 . S
C1168 H1135 0.929 . S
C1168 C1167 1.406 . S
C1168 C1169 1.391 . S
C1169 H1136 0.931 . S
C1169 C1164 1.370 . S
C1169 C1168 1.391 . S
C1170 N1144 1.435 . S
C1170 C1171 1.358 . S
C1170 C1175 1.371 . S
C1171 H1137 0.930 . S
C1171 C1170 1.358 . S
C1171 C1172 1.405 . S
C1172 H1138 0.932 . S
C1172 C1171 1.405 . S
C1172 C1173 1.383 . S
C1173 C1172 1.383 . S
C1173 C1174 1.393 . S
C1174 H1139 0.931 . S
C1174 C1173 1.393 . S
C1174 C1175 1.382 . S
C1175 H1140 0.929 . S
C1175 C1170 1.371 . S
C1175 C1174 1.382 . S
C1176 N1144 1.423 . S
C1176 C1177 1.362 . S
C1176 C1181 1.388 . S
C1177 H1141 0.929 . S
C1177 C1176 1.362 . S
C1177 C1178 1.376 . S
C1178 H1142 0.931 . S
C1178 C1177 1.376 . S
C1178 C1179 1.396 . S
C1179 C1161 1.472 . S
C1179 C1178 1.396 . S
C1179 C1180 1.348 . S
C1180 H1143 0.929 . S
C1180 C1179 1.348 . S
C1180 C1181 1.443 . S
C1181 H1145 0.932 . S
C1181 C1176 1.388 . S
C1181 C1180 1.443 . S
H1182 C1209 0.929 . S
N1183 C1208 1.433 . S
N1183 C1214 1.435 . S
N1183 C1220 1.423 . S
H1184 C1210 0.930 . S
H1185 C1213 0.931 . S
H1186 C1212 0.929 . S
H1187 C1215 0.930 . S
H1188 C1216 0.932 . S
H1189 C1219 0.929 . S
H1190 C1218 0.931 . S
H1191 C1221 0.929 . S
H1192 C1225 0.932 . S
H1193 C1222 0.931 . S
H1194 C1224 0.929 . S
H1195 C1227 0.929 . S
H1196 C1228 0.930 . S
H1197 C1230 0.929 . S
H1198 C1231 0.931 . S
H1199 C1233 0.930 . S
H1200 C1234 0.932 . S
H1201 C1236 0.931 . S
H1202 C1237 0.929 . S
H1203 C1239 0.929 . S
H1204 C1240 0.931 . S
H1205 C1242 0.929 . S
N1206 C1226 1.433 . S
N1206 C1232 1.435 . S
N1206 C1238 1.423 . S
H1207 C1243 0.932 . S
C1208 N1183 1.433 . S
C1208 C1209 1.363 . S
C1208 C1213 1.370 . S
C1209 H1182 0.929 . S
C1209 C1208 1.363 . S
C1209 C1210 1.385 . S
C1210 H1184 0.930 . S
C1210 C1209 1.385 . S
C1210 C1211 1.357 . S
C1211 C1210 1.357 . S
C1211 C1212 1.406 . S
C1212 H1186 0.929 . S
C1212 C1211 1.406 . S
C1212 C1213 1.391 . S
C1213 H1185 0.931 . S
C1213 C1208 1.370 . S
C1213 C1212 1.391 . S
C1214 N1183 1.435 . S
C1214 C1215 1.358 . S
C1214 C1219 1.371 . S
C1215 H1187 0.930 . S
C1215 C1214 1.358 . S
C1215 C1216 1.405 . S
C1216 H1188 0.932 . S
C1216 C1215 1.405 . S
C1216 C1217 1.383 . S
C1217 C1216 1.383 . S
C1217 C1218 1.393 . S
C1218 H1190 0.931 . S
C1218 C1217 1.393 . S
C1218 C1219 1.382 . S
C1219 H1189 0.929 . S
C1219 C1214 1.371 . S
C1219 C1218 1.382 . S
C1220 N1183 1.423 . S
C1220 C1221 1.362 . S
C1220 C1225 1.388 . S
C1221 H1191 0.929 . S
C1221 C1220 1.362 . S
C1221 C1222 1.376 . S
C1222 H1193 0.931 . S
C1222 C1221 1.376 . S
C1222 C1223 1.396 . S
C1223 C1222 1.396 . S
C1223 C1224 1.348 . S
C1223 C1241 1.472 . S
C1224 H1194 0.929 . S
C1224 C1223 1.348 . S
C1224 C1225 1.443 . S
C1225 H1192 0.932 . S
C1225 C1220 1.388 . S
C1225 C1224 1.443 . S
C1226 N1206 1.433 . S
C1226 C1227 1.363 . S
C1226 C1231 1.370 . S
C1227 H1195 0.929 . S
C1227 C1226 1.363 . S
C1227 C1228 1.385 . S
C1228 H1196 0.930 . S
C1228 C1227 1.385 . S
C1228 C1229 1.357 . S
C1229 C1228 1.357 . S
C1229 C1230 1.406 . S
C1230 H1197 0.929 . S
C1230 C1229 1.406 . S
C1230 C1231 1.391 . S
C1231 H1198 0.931 . S
C1231 C1226 1.370 . S
C1231 C1230 1.391 . S
C1232 N1206 1.435 . S
C1232 C1233 1.358 . S
C1232 C1237 1.371 . S
C1233 H1199 0.930 . S
C1233 C1232 1.358 . S
C1233 C1234 1.405 . S
C1234 H1200 0.932 . S
C1234 C1233 1.405 . S
C1234 C1235 1.383 . S
C1235 C1234 1.383 . S
C1235 C1236 1.393 . S
C1236 H1201 0.931 . S
C1236 C1235 1.393 . S
C1236 C1237 1.382 . S
C1237 H1202 0.929 . S
C1237 C1232 1.371 . S
C1237 C1236 1.382 . S
C1238 N1206 1.423 . S
C1238 C1239 1.362 . S
C1238 C1243 1.388 . S
C1239 H1203 0.929 . S
C1239 C1238 1.362 . S
C1239 C1240 1.376 . S
C1240 H1204 0.931 . S
C1240 C1239 1.376 . S
C1240 C1241 1.396 . S
C1241 C1223 1.472 . S
C1241 C1240 1.396 . S
C1241 C1242 1.348 . S
C1242 H1205 0.929 . S
C1242 C1241 1.348 . S
C1242 C1243 1.443 . S
C1243 H1207 0.932 . S
C1243 C1238 1.388 . S
C1243 C1242 1.443 . S
H1244 C1271 0.929 . S
N1245 C1270 1.433 . S
N1245 C1276 1.435 . S
N1245 C1282 1.423 . S
H1246 C1272 0.930 . S
H1247 C1275 0.931 . S
H1248 C1274 0.929 . S
H1249 C1277 0.930 . S
H1250 C1278 0.932 . S
H1251 C1281 0.929 . S
H1252 C1280 0.931 . S
H1253 C1283 0.929 . S
H1254 C1287 0.932 . S
H1255 C1284 0.931 . S
H1256 C1286 0.929 . S
H1257 C1289 0.929 . S
H1258 C1290 0.930 . S
H1259 C1292 0.929 . S
H1260 C1293 0.931 . S
H1261 C1295 0.930 . S
H1262 C1296 0.932 . S
H1263 C1298 0.931 . S
H1264 C1299 0.929 . S
H1265 C1301 0.929 . S
H1266 C1302 0.931 . S
H1267 C1304 0.929 . S
N1268 C1288 1.433 . S
N1268 C1294 1.435 . S
N1268 C1300 1.423 . S
H1269 C1305 0.932 . S
C1270 N1245 1.433 . S
C1270 C1271 1.363 . S
C1270 C1275 1.370 . S
C1271 H1244 0.929 . S
C1271 C1270 1.363 . S
C1271 C1272 1.385 . S
C1272 H1246 0.930 . S
C1272 C1271 1.385 . S
C1272 C1273 1.357 . S
C1273 C1272 1.357 . S
C1273 C1274 1.406 . S
C1274 H1248 0.929 . S
C1274 C1273 1.406 . S
C1274 C1275 1.391 . S
C1275 H1247 0.931 . S
C1275 C1270 1.370 . S
C1275 C1274 1.391 . S
C1276 N1245 1.435 . S
C1276 C1277 1.358 . S
C1276 C1281 1.371 . S
C1277 H1249 0.930 . S
C1277 C1276 1.358 . S
C1277 C1278 1.405 . S
C1278 H1250 0.932 . S
C1278 C1277 1.405 . S
C1278 C1279 1.383 . S
C1279 C1278 1.383 . S
C1279 C1280 1.393 . S
C1280 H1252 0.931 . S
C1280 C1279 1.393 . S
C1280 C1281 1.382 . S
C1281 H1251 0.929 . S
C1281 C1276 1.371 . S
C1281 C1280 1.382 . S
C1282 N1245 1.423 . S
C1282 C1283 1.362 . S
C1282 C1287 1.388 . S
C1283 H1253 0.929 . S
C1283 C1282 1.362 . S
C1283 C1284 1.376 . S
C1284 H1255 0.931 . S
C1284 C1283 1.376 . S
C1284 C1285 1.396 . S
C1285 C1284 1.396 . S
C1285 C1286 1.348 . S
C1285 C1303 1.472 . S
C1286 H1256 0.929 . S
C1286 C1285 1.348 . S
C1286 C1287 1.443 . S
C1287 H1254 0.932 . S
C1287 C1282 1.388 . S
C1287 C1286 1.443 . S
C1288 N1268 1.433 . S
C1288 C1289 1.363 . S
C1288 C1293 1.370 . S
C1289 H1257 0.929 . S
C1289 C1288 1.363 . S
C1289 C1290 1.385 . S
C1290 H1258 0.930 . S
C1290 C1289 1.385 . S
C1290 C1291 1.357 . S
C1291 C1290 1.357 . S
C1291 C1292 1.406 . S
C1292 H1259 0.929 . S
C1292 C1291 1.406 . S
C1292 C1293 1.391 . S
C1293 H1260 0.931 . S
C1293 C1288 1.370 . S
C1293 C1292 1.391 . S
C1294 N1268 1.435 . S
C1294 C1295 1.358 . S
C1294 C1299 1.371 . S
C1295 H1261 0.930 . S
C1295 C1294 1.358 . S
C1295 C1296 1.405 . S
C1296 H1262 0.932 . S
C1296 C1295 1.405 . S
C1296 C1297 1.383 . S
C1297 C1296 1.383 . S
C1297 C1298 1.393 . S
C1298 H1263 0.931 . S
C1298 C1297 1.393 . S
C1298 C1299 1.382 . S
C1299 H1264 0.929 . S
C1299 C1294 1.371 . S
C1299 C1298 1.382 . S
C1300 N1268 1.423 . S
C1300 C1301 1.362 . S
C1300 C1305 1.388 . S
C1301 H1265 0.929 . S
C1301 C1300 1.362 . S
C1301 C1302 1.376 . S
C1302 H1266 0.931 . S
C1302 C1301 1.376 . S
C1302 C1303 1.396 . S
C1303 C1285 1.472 . S
C1303 C1302 1.396 . S
C1303 C1304 1.348 . S
C1304 H1267 0.929 . S
C1304 C1303 1.348 . S
C1304 C1305 1.443 . S
C1305 H1269 0.932 . S
C1305 C1300 1.388 . S
C1305 C1304 1.443 . S
H1306 C1333 0.929 . S
N1307 C1332 1.433 . S
N1307 C1338 1.435 . S
N1307 C1344 1.423 . S
H1308 C1334 0.930 . S
H1309 C1337 0.931 . S
H1310 C1336 0.929 . S
H1311 C1339 0.930 . S
H1312 C1340 0.932 . S
H1313 C1343 0.929 . S
H1314 C1342 0.931 . S
H1315 C1345 0.929 . S
H1316 C1349 0.932 . S
H1317 C1346 0.931 . S
H1318 C1348 0.929 . S
H1319 C1351 0.929 . S
H1320 C1352 0.930 . S
H1321 C1354 0.929 . S
H1322 C1355 0.931 . S
H1323 C1357 0.930 . S
H1324 C1358 0.932 . S
H1325 C1360 0.931 . S
H1326 C1361 0.929 . S
H1327 C1363 0.929 . S
H1328 C1364 0.931 . S
H1329 C1366 0.929 . S
N1330 C1350 1.433 . S
N1330 C1356 1.435 . S
N1330 C1362 1.423 . S
H1331 C1367 0.932 . S
C1332 N1307 1.433 . S
C1332 C1333 1.363 . S
C1332 C1337 1.370 . S
C1333 H1306 0.929 . S
C1333 C1332 1.363 . S
C1333 C1334 1.385 . S
C1334 H1308 0.930 . S
C1334 C1333 1.385 . S
C1334 C1335 1.357 . S
C1335 C1334 1.357 . S
C1335 C1336 1.406 . S
C1336 H1310 0.929 . S
C1336 C1335 1.406 . S
C1336 C1337 1.391 . S
C1337 H1309 0.931 . S
C1337 C1332 1.370 . S
C1337 C1336 1.391 . S
C1338 N1307 1.435 . S
C1338 C1339 1.358 . S
C1338 C1343 1.371 . S
C1339 H1311 0.930 . S
C1339 C1338 1.358 . S
C1339 C1340 1.405 . S
C1340 H1312 0.932 . S
C1340 C1339 1.405 . S
C1340 C1341 1.383 . S
C1341 C1340 1.383 . S
C1341 C1342 1.393 . S
C1342 H1314 0.931 . S
C1342 C1341 1.393 . S
C1342 C1343 1.382 . S
C1343 H1313 0.929 . S
C1343 C1338 1.371 . S
C1343 C1342 1.382 . S
C1344 N1307 1.423 . S
C1344 C1345 1.362 . S
C1344 C1349 1.388 . S
C1345 H1315 0.929 . S
C1345 C1344 1.362 . S
C1345 C1346 1.376 . S
C1346 H1317 0.931 . S
C1346 C1345 1.376 . S
C1346 C1347 1.396 . S
C1347 C1346 1.396 . S
C1347 C1348 1.348 . S
C1347 C1365 1.472 . S
C1348 H1318 0.929 . S
C1348 C1347 1.348 . S
C1348 C1349 1.443 . S
C1349 H1316 0.932 . S
C1349 C1344 1.388 . S
C1349 C1348 1.443 . S
C1350 N1330 1.433 . S
C1350 C1351 1.363 . S
C1350 C1355 1.370 . S
C1351 H1319 0.929 . S
C1351 C1350 1.363 . S
C1351 C1352 1.385 . S
C1352 H1320 0.930 . S
C1352 C1351 1.385 . S
C1352 C1353 1.357 . S
C1353 C1352 1.357 . S
C1353 C1354 1.406 . S
C1354 H1321 0.929 . S
C1354 C1353 1.406 . S
C1354 C1355 1.391 . S
C1355 H1322 0.931 . S
C1355 C1350 1.370 . S
C1355 C1354 1.391 . S
C1356 N1330 1.435 . S
C1356 C1357 1.358 . S
C1356 C1361 1.371 . S
C1357 H1323 0.930 . S
C1357 C1356 1.358 . S
C1357 C1358 1.405 . S
C1358 H1324 0.932 . S
C1358 C1357 1.405 . S
C1358 C1359 1.383 . S
C1359 C1358 1.383 . S
C1359 C1360 1.393 . S
C1360 H1325 0.931 . S
C1360 C1359 1.393 . S
C1360 C1361 1.382 . S
C1361 H1326 0.929 . S
C1361 C1356 1.371 . S
C1361 C1360 1.382 . S
C1362 N1330 1.423 . S
C1362 C1363 1.362 . S
C1362 C1367 1.388 . S
C1363 H1327 0.929 . S
C1363 C1362 1.362 . S
C1363 C1364 1.376 . S
C1364 H1328 0.931 . S
C1364 C1363 1.376 . S
C1364 C1365 1.396 . S
C1365 C1347 1.472 . S
C1365 C1364 1.396 . S
C1365 C1366 1.348 . S
C1366 H1329 0.929 . S
C1366 C1365 1.348 . S
C1366 C1367 1.443 . S
C1367 H1331 0.932 . S
C1367 C1362 1.388 . S
C1367 C1366 1.443 . S
H1368 C1386 0.951 . S
H1369 C1388 0.951 . S
H1370 C1390 0.950 . S
H1371 C1391 0.950 . S
H1372 C1393 0.950 . S
H1373 C1396 0.950 . S
H1374 C1397 0.950 . S
H1375 C1399 0.950 . S
H1376 C1400 0.950 . S
H1377 C1401 0.951 . S
H1378 C1403 0.951 . S
H1379 C1405 0.950 . S
H1380 C1406 0.950 . S
H1381 C1408 0.950 . S
H1382 C1411 0.950 . S
H1383 C1412 0.950 . S
H1384 C1414 0.950 . S
H1385 C1415 0.950 . S
C1386 H1368 0.951 . S
C1386 C1387 1.368 1_455 S
C1386 C1388 1.388 . S
C1387 C1386 1.368 1_655 S
C1387 C1391 1.392 . S
C1388 H1369 0.951 . S
C1388 C1386 1.388 . S
C1388 C1389 1.351 1_455 S
C1389 C1388 1.351 1_655 S
C1389 C1390 1.412 . S
C1389 C1392 1.519 . S
C1390 H1370 0.950 . S
C1390 C1389 1.412 . S
C1390 C1391 1.374 . S
C1391 H1371 0.950 . S
C1391 C1387 1.392 . S
C1391 C1390 1.374 . S
C1392 C1389 1.519 . S
C1392 C1393 1.373 . S
C1392 C1394 1.389 1_655 S
C1393 H1372 0.950 . S
C1393 C1392 1.373 . S
C1393 C1409 1.377 . S
C1394 C1392 1.389 1_455 S
C1394 C1395 1.524 . S
C1394 C1408 1.377 . S
C1395 C1394 1.524 . S
C1395 C1396 1.397 . S
C1395 C1400 1.363 . S
C1396 H1373 0.950 . S
C1396 C1395 1.397 . S
C1396 C1397 1.334 . S
C1397 H1374 0.950 . S
C1397 C1396 1.334 . S
C1397 C1398 1.287 . S
C1398 C1397 1.287 . S
C1398 C1399 1.524 . S
C1398 H1417 0.913 . S
C1399 H1375 0.950 . S
C1399 C1398 1.524 . S
C1399 C1400 1.415 . S
C1400 H1376 0.950 . S
C1400 C1395 1.363 . S
C1400 C1399 1.415 . S
C1401 H1377 0.951 . S
C1401 C1402 1.366 . S
C1401 C1403 1.388 . S
C1402 C1401 1.366 . S
C1402 C1406 1.385 1_655 S
C1403 H1378 0.951 . S
C1403 C1401 1.388 . S
C1403 C1404 1.366 . S
C1404 C1403 1.366 . S
C1404 C1405 1.414 1_655 S
C1404 C1407 1.499 . S
C1405 H1379 0.950 . S
C1405 C1404 1.414 1_455 S
C1405 C1406 1.374 . S
C1406 H1380 0.950 . S
C1406 C1402 1.385 1_455 S
C1406 C1405 1.374 . S
C1407 C1404 1.499 . S
C1407 C1408 1.373 1_655 S
C1407 C1409 1.389 . S
C1408 H1381 0.950 . S
C1408 C1394 1.377 . S
C1408 C1407 1.373 1_455 S
C1409 C1393 1.377 . S
C1409 C1407 1.389 . S
C1409 C1410 1.524 . S
C1410 C1409 1.524 . S
C1410 C1411 1.397 . S
C1410 C1415 1.363 . S
C1411 H1382 0.950 . S
C1411 C1410 1.397 . S
C1411 C1412 1.334 . S
C1412 H1383 0.950 . S
C1412 C1411 1.334 . S
C1412 C1413 1.287 . S
C1413 C1412 1.287 . S
C1413 C1414 1.524 . S
C1413 H1416 0.999 . S
C1414 H1384 0.950 . S
C1414 C1413 1.524 . S
C1414 C1415 1.415 . S
C1415 H1385 0.950 . S
C1415 C1410 1.363 . S
C1415 C1414 1.415 . S
H1416 C1413 0.999 . S
H1417 C1398 0.913 . S
H1418 C1436 0.951 . S
H1419 C1438 0.951 . S
H1420 C1440 0.950 . S
H1421 C1441 0.950 . S
H1422 C1443 0.950 . S
H1423 C1446 0.950 . S
H1424 C1447 0.950 . S
H1425 C1449 0.950 . S
H1426 C1450 0.950 . S
H1427 C1451 0.951 . S
H1428 C1453 0.951 . S
H1429 C1455 0.950 . S
H1430 C1456 0.950 . S
H1431 C1458 0.950 . S
H1432 C1461 0.950 . S
H1433 C1462 0.950 . S
H1434 C1464 0.950 . S
H1435 C1465 0.950 . S
C1436 H1418 0.951 . S
C1436 C1437 1.366 . S
C1436 C1438 1.388 . S
C1437 C1436 1.366 . S
C1437 C1441 1.385 . S
C1438 H1419 0.951 . S
C1438 C1436 1.388 . S
C1438 C1439 1.366 . S
C1439 C1438 1.366 . S
C1439 C1440 1.414 . S
C1439 C1442 1.499 . S
C1440 H1420 0.950 . S
C1440 C1439 1.414 . S
C1440 C1441 1.374 . S
C1441 H1421 0.950 . S
C1441 C1437 1.385 . S
C1441 C1440 1.374 . S
C1442 C1439 1.499 . S
C1442 C1443 1.373 . S
C1442 C1444 1.389 . S
C1443 H1422 0.950 . S
C1443 C1442 1.373 . S
C1443 C1459 1.377 . S
C1444 C1442 1.389 . S
C1444 C1445 1.524 . S
C1444 C1458 1.377 . S
C1445 C1444 1.524 . S
C1445 C1446 1.397 . S
C1445 C1450 1.363 . S
C1446 H1423 0.950 . S
C1446 C1445 1.397 . S
C1446 C1447 1.334 . S
C1447 H1424 0.950 . S
C1447 C1446 1.334 . S
C1447 C1448 1.287 . S
C1448 C1447 1.287 . S
C1448 C1449 1.524 . S
C1448 H1467 0.913 . S
C1449 H1425 0.950 . S
C1449 C1448 1.524 . S
C1449 C1450 1.415 . S
C1450 H1426 0.950 . S
C1450 C1445 1.363 . S
C1450 C1449 1.415 . S
C1451 H1427 0.951 . S
C1451 C1452 1.366 . S
C1451 C1453 1.388 . S
C1452 C1451 1.366 . S
C1452 C1456 1.385 . S
C1453 H1428 0.951 . S
C1453 C1451 1.388 . S
C1453 C1454 1.366 . S
C1454 C1453 1.366 . S
C1454 C1455 1.414 . S
C1454 C1457 1.499 . S
C1455 H1429 0.950 . S
C1455 C1454 1.414 . S
C1455 C1456 1.374 . S
C1456 H1430 0.950 . S
C1456 C1452 1.385 . S
C1456 C1455 1.374 . S
C1457 C1454 1.499 . S
C1457 C1458 1.373 . S
C1457 C1459 1.389 . S
C1458 H1431 0.950 . S
C1458 C1444 1.377 . S
C1458 C1457 1.373 . S
C1459 C1443 1.377 . S
C1459 C1457 1.389 . S
C1459 C1460 1.524 . S
C1460 C1459 1.524 . S
C1460 C1461 1.397 . S
C1460 C1465 1.363 . S
C1461 H1432 0.950 . S
C1461 C1460 1.397 . S
C1461 C1462 1.334 . S
C1462 H1433 0.950 . S
C1462 C1461 1.334 . S
C1462 C1463 1.287 . S
C1463 C1462 1.287 . S
C1463 C1464 1.524 . S
C1463 H1466 0.999 . S
C1464 H1434 0.950 . S
C1464 C1463 1.524 . S
C1464 C1465 1.415 . S
C1465 H1435 0.950 . S
C1465 C1460 1.363 . S
C1465 C1464 1.415 . S
H1466 C1463 0.999 . S
H1467 C1448 0.913 . S
H1468 C1486 0.951 . S
H1469 C1488 0.951 . S
H1470 C1490 0.950 . S
H1471 C1491 0.950 . S
H1472 C1493 0.950 . S
H1473 C1496 0.950 . S
H1474 C1497 0.950 . S
H1475 C1499 0.950 . S
H1476 C1500 0.950 . S
H1477 C1501 0.951 . S
H1478 C1503 0.951 . S
H1479 C1505 0.950 . S
H1480 C1506 0.950 . S
H1481 C1508 0.950 . S
H1482 C1511 0.950 . S
H1483 C1512 0.950 . S
H1484 C1514 0.950 . S
H1485 C1515 0.950 . S
C1486 H1468 0.951 . S
C1486 C1487 1.366 1_565 S
C1486 C1488 1.388 . S
C1487 C1486 1.366 1_545 S
C1487 C1491 1.385 . S
C1488 H1469 0.951 . S
C1488 C1486 1.388 . S
C1488 C1489 1.366 1_565 S
C1489 C1488 1.366 1_545 S
C1489 C1490 1.414 . S
C1489 C1492 1.499 . S
C1490 H1470 0.950 . S
C1490 C1489 1.414 . S
C1490 C1491 1.374 . S
C1491 H1471 0.950 . S
C1491 C1487 1.385 . S
C1491 C1490 1.374 . S
C1492 C1489 1.499 . S
C1492 C1493 1.373 . S
C1492 C1494 1.389 . S
C1493 H1472 0.950 . S
C1493 C1492 1.373 . S
C1493 C1509 1.377 . S
C1494 C1492 1.389 . S
C1494 C1495 1.524 . S
C1494 C1508 1.377 . S
C1495 C1494 1.524 . S
C1495 C1496 1.397 . S
C1495 C1500 1.363 1_545 S
C1496 H1473 0.950 . S
C1496 C1495 1.397 . S
C1496 C1497 1.334 . S
C1497 H1474 0.950 . S
C1497 C1496 1.334 . S
C1497 C1498 1.287 . S
C1498 C1497 1.287 . S
C1498 C1499 1.524 1_545 S
C1498 H1517 0.913 . S
C1499 H1475 0.950 . S
C1499 C1498 1.524 1_565 S
C1499 C1500 1.415 . S
C1500 H1476 0.950 . S
C1500 C1495 1.363 1_565 S
C1500 C1499 1.415 . S
C1501 H1477 0.951 . S
C1501 C1502 1.366 . S
C1501 C1503 1.388 . S
C1502 C1501 1.366 . S
C1502 C1506 1.385 1_545 S
C1503 H1478 0.951 . S
C1503 C1501 1.388 . S
C1503 C1504 1.366 . S
C1504 C1503 1.366 . S
C1504 C1505 1.414 1_545 S
C1504 C1507 1.499 . S
C1505 H1479 0.950 . S
C1505 C1504 1.414 1_565 S
C1505 C1506 1.374 . S
C1506 H1480 0.950 . S
C1506 C1502 1.385 1_565 S
C1506 C1505 1.374 . S
C1507 C1504 1.499 . S
C1507 C1508 1.373 . S
C1507 C1509 1.389 . S
C1508 H1481 0.950 . S
C1508 C1494 1.377 . S
C1508 C1507 1.373 . S
C1509 C1493 1.377 . S
C1509 C1507 1.389 . S
C1509 C1510 1.524 . S
C1510 C1509 1.524 . S
C1510 C1511 1.397 1_545 S
C1510 C1515 1.363 . S
C1511 H1482 0.950 . S
C1511 C1510 1.397 1_565 S
C1511 C1512 1.334 . S
C1512 H1483 0.950 . S
C1512 C1511 1.334 . S
C1512 C1513 1.326 . S
C1513 C1512 1.326 . S
C1513 C1514 1.435 1_565 S
C1513 H1516 1.052 . S
C1514 H1484 0.950 . S
C1514 C1513 1.435 1_545 S
C1514 C1515 1.415 . S
C1515 H1485 0.950 . S
C1515 C1510 1.363 . S
C1515 C1514 1.415 . S
H1516 C1513 1.052 . S
H1517 C1498 0.913 . S
H1518 C1536 0.951 . S
H1519 C1538 0.951 . S
H1520 C1540 0.950 . S
H1521 C1541 0.950 . S
H1522 C1543 0.950 . S
H1523 C1546 0.881 1_545 S
H1524 C1547 0.950 . S
H1525 C1549 0.950 . S
H1526 C1550 0.950 . S
H1527 C1551 0.951 . S
H1528 C1553 0.951 . S
H1529 C1555 0.950 . S
H1530 C1556 0.950 . S
H1531 C1558 0.950 . S
H1532 C1561 0.950 1_565 S
H1533 C1562 0.950 . S
H1534 C1564 0.950 . S
H1535 C1565 0.950 . S
C1536 H1518 0.951 . S
C1536 C1537 1.366 1_565 S
C1536 C1538 1.388 . S
C1537 C1536 1.366 1_545 S
C1537 C1541 1.385 . S
C1538 H1519 0.951 . S
C1538 C1536 1.388 . S
C1538 C1539 1.340 1_565 S
C1539 C1538 1.340 1_545 S
C1539 C1540 1.464 . S
C1539 C1542 1.485 . S
C1540 H1520 0.950 . S
C1540 C1539 1.464 . S
C1540 C1541 1.374 . S
C1541 H1521 0.950 . S
C1541 C1537 1.385 . S
C1541 C1540 1.374 . S
C1542 C1539 1.485 . S
C1542 C1543 1.381 . S
C1542 C1544 1.375 1_545 S
C1543 H1522 0.950 . S
C1543 C1542 1.381 . S
C1543 C1559 1.377 . S
C1544 C1542 1.375 1_565 S
C1544 C1545 1.524 . S
C1544 C1558 1.377 . S
C1545 C1544 1.524 . S
C1545 C1546 1.397 . S
C1545 C1550 1.363 . S
C1546 H1523 0.881 1_565 S
C1546 C1545 1.397 . S
C1546 C1547 1.334 . S
C1547 H1524 0.950 . S
C1547 C1546 1.334 . S
C1547 C1548 1.287 . S
C1548 C1547 1.287 . S
C1548 C1549 1.524 . S
C1548 H1567 0.913 . S
C1549 H1525 0.950 . S
C1549 C1548 1.524 . S
C1549 C1550 1.415 . S
C1550 H1526 0.950 . S
C1550 C1545 1.363 . S
C1550 C1549 1.415 . S
C1551 H1527 0.951 . S
C1551 C1552 1.366 1_545 S
C1551 C1553 1.388 . S
C1552 C1551 1.366 1_565 S
C1552 C1556 1.385 . S
C1553 H1528 0.951 . S
C1553 C1551 1.388 . S
C1553 C1554 1.366 1_545 S
C1554 C1553 1.366 1_565 S
C1554 C1555 1.414 . S
C1554 C1557 1.499 . S
C1555 H1529 0.950 . S
C1555 C1554 1.414 . S
C1555 C1556 1.374 . S
C1556 H1530 0.950 . S
C1556 C1552 1.385 . S
C1556 C1555 1.374 . S
C1557 C1554 1.499 . S
C1557 C1558 1.373 . S
C1557 C1559 1.389 1_565 S
C1558 H1531 0.950 . S
C1558 C1544 1.377 . S
C1558 C1557 1.373 . S
C1559 C1543 1.377 . S
C1559 C1557 1.389 1_545 S
C1559 C1560 1.524 . S
C1560 C1559 1.524 . S
C1560 C1561 1.397 . S
C1560 C1565 1.363 . S
C1561 H1532 0.950 1_545 S
C1561 C1560 1.397 . S
C1561 C1562 1.334 . S
C1562 H1533 0.950 . S
C1562 C1561 1.334 . S
C1562 C1563 1.287 . S
C1563 C1562 1.287 . S
C1563 C1564 1.524 . S
C1563 H1566 0.999 . S
C1564 H1534 0.950 . S
C1564 C1563 1.524 . S
C1564 C1565 1.415 . S
C1565 H1535 0.950 . S
C1565 C1560 1.363 . S
C1565 C1564 1.415 . S
H1566 C1563 0.999 . S
H1567 C1548 0.913 . S
H1568 C1586 0.949 1_655 S
H1569 C1588 0.947 1_655 S
H1570 C1590 0.950 . S
H1571 C1591 0.950 . S
H1572 C1593 0.950 . S
H1573 C1596 0.950 . S
H1574 C1597 0.950 . S
H1575 C1599 0.950 . S
H1576 C1600 0.950 . S
H1577 C1601 0.951 . S
H1578 C1603 0.951 . S
H1579 C1605 0.965 . S
H1580 C1606 1.016 . S
H1581 C1608 0.950 . S
H1582 C1611 0.950 . S
H1583 C1612 0.950 . S
H1584 C1614 0.950 . S
H1585 C1615 0.950 . S
C1586 H1568 0.949 1_455 S
C1586 C1587 1.371 . S
C1586 C1588 1.387 . S
C1587 C1586 1.371 . S
C1587 C1591 1.385 . S
C1588 H1569 0.947 1_455 S
C1588 C1586 1.387 . S
C1588 C1589 1.367 . S
C1589 C1588 1.367 . S
C1589 C1590 1.414 . S
C1589 C1592 1.499 . S
C1590 H1570 0.950 . S
C1590 C1589 1.414 . S
C1590 C1591 1.374 . S
C1591 H1571 0.950 . S
C1591 C1587 1.385 . S
C1591 C1590 1.374 . S
C1592 C1589 1.499 . S
C1592 C1593 1.373 . S
C1592 C1594 1.389 1_455 S
C1593 H1572 0.950 . S
C1593 C1592 1.373 . S
C1593 C1609 1.377 . S
C1594 C1592 1.389 1_655 S
C1594 C1595 1.524 . S
C1594 C1608 1.377 . S
C1595 C1594 1.524 . S
C1595 C1596 1.397 . S
C1595 C1600 1.363 . S
C1596 H1573 0.950 . S
C1596 C1595 1.397 . S
C1596 C1597 1.334 . S
C1597 H1574 0.950 . S
C1597 C1596 1.334 . S
C1597 C1598 1.287 . S
C1598 C1597 1.287 . S
C1598 C1599 1.524 . S
C1598 H1617 0.913 . S
C1599 H1575 0.950 . S
C1599 C1598 1.524 . S
C1599 C1600 1.415 . S
C1600 H1576 0.950 . S
C1600 C1595 1.363 . S
C1600 C1599 1.415 . S
C1601 H1577 0.951 . S
C1601 C1602 1.366 . S
C1601 C1603 1.388 . S
C1602 C1601 1.366 . S
C1602 C1606 1.385 . S
C1603 H1578 0.951 . S
C1603 C1601 1.388 . S
C1603 C1604 1.366 . S
C1604 C1603 1.366 . S
C1604 C1605 1.414 . S
C1604 C1607 1.499 . S
C1605 H1579 0.965 . S
C1605 C1604 1.414 . S
C1605 C1606 1.374 . S
C1606 H1580 1.016 . S
C1606 C1602 1.385 . S
C1606 C1605 1.374 . S
C1607 C1604 1.499 . S
C1607 C1608 1.373 1_455 S
C1607 C1609 1.389 . S
C1608 H1581 0.950 . S
C1608 C1594 1.377 . S
C1608 C1607 1.373 1_655 S
C1609 C1593 1.377 . S
C1609 C1607 1.389 . S
C1609 C1610 1.524 . S
C1610 C1609 1.524 . S
C1610 C1611 1.397 . S
C1610 C1615 1.363 . S
C1611 H1582 0.950 . S
C1611 C1610 1.397 . S
C1611 C1612 1.334 . S
C1612 H1583 0.950 . S
C1612 C1611 1.334 . S
C1612 C1613 1.287 . S
C1613 C1612 1.287 . S
C1613 C1614 1.524 . S
C1613 H1616 0.999 . S
C1614 H1584 0.950 . S
C1614 C1613 1.524 . S
C1614 C1615 1.415 . S
C1615 H1585 0.950 . S
C1615 C1610 1.363 . S
C1615 C1614 1.415 . S
H1616 C1613 0.999 . S
H1617 C1598 0.913 . S
H1618 C1636 0.951 . S
H1619 C1638 0.951 . S
H1620 C1640 0.950 . S
H1621 C1641 0.950 . S
H1622 C1643 0.950 . S
H1623 C1646 0.950 . S
H1624 C1647 0.950 . S
H1625 C1649 0.950 . S
H1626 C1650 0.950 . S
H1627 C1651 0.951 . S
H1628 C1653 0.951 . S
H1629 C1655 0.950 . S
H1630 C1656 0.950 . S
H1631 C1658 0.950 . S
H1632 C1661 0.950 . S
H1633 C1662 0.950 . S
H1634 C1664 0.950 . S
H1635 C1665 0.950 . S
C1636 H1618 0.951 . S
C1636 C1637 1.366 . S
C1636 C1638 1.388 . S
C1637 C1636 1.366 . S
C1637 C1641 1.385 . S
C1638 H1619 0.951 . S
C1638 C1636 1.388 . S
C1638 C1639 1.366 . S
C1639 C1638 1.366 . S
C1639 C1640 1.414 . S
C1639 C1642 1.499 . S
C1640 H1620 0.950 . S
C1640 C1639 1.414 . S
C1640 C1641 1.374 . S
C1641 H1621 0.950 . S
C1641 C1637 1.385 . S
C1641 C1640 1.374 . S
C1642 C1639 1.499 . S
C1642 C1643 1.373 . S
C1642 C1644 1.389 . S
C1643 H1622 0.950 . S
C1643 C1642 1.373 . S
C1643 C1659 1.377 . S
C1644 C1642 1.389 . S
C1644 C1645 1.524 . S
C1644 C1658 1.377 . S
C1645 C1644 1.524 . S
C1645 C1646 1.397 . S
C1645 C1650 1.363 . S
C1646 H1623 0.950 . S
C1646 C1645 1.397 . S
C1646 C1647 1.334 . S
C1647 H1624 0.950 . S
C1647 C1646 1.334 . S
C1647 C1648 1.287 . S
C1648 C1647 1.287 . S
C1648 C1649 1.524 . S
C1648 H1667 0.896 1_556 S
C1649 H1625 0.950 . S
C1649 C1648 1.524 . S
C1649 C1650 1.415 . S
C1650 H1626 0.950 . S
C1650 C1645 1.363 . S
C1650 C1649 1.415 . S
C1651 H1627 0.951 . S
C1651 C1652 1.366 . S
C1651 C1653 1.388 . S
C1652 C1651 1.366 . S
C1652 C1656 1.385 . S
C1653 H1628 0.951 . S
C1653 C1651 1.388 . S
C1653 C1654 1.366 . S
C1654 C1653 1.366 . S
C1654 C1655 1.414 . S
C1654 C1657 1.499 . S
C1655 H1629 0.950 . S
C1655 C1654 1.414 . S
C1655 C1656 1.374 . S
C1656 H1630 0.950 . S
C1656 C1652 1.385 . S
C1656 C1655 1.374 . S
C1657 C1654 1.499 . S
C1657 C1658 1.373 . S
C1657 C1659 1.389 . S
C1658 H1631 0.950 . S
C1658 C1644 1.377 . S
C1658 C1657 1.373 . S
C1659 C1643 1.377 . S
C1659 C1657 1.389 . S
C1659 C1660 1.524 . S
C1660 C1659 1.524 . S
C1660 C1661 1.397 . S
C1660 C1665 1.363 . S
C1661 H1632 0.950 . S
C1661 C1660 1.397 . S
C1661 C1662 1.334 . S
C1662 H1633 0.950 . S
C1662 C1661 1.334 . S
C1662 C1663 1.287 . S
C1663 C1662 1.287 . S
C1663 C1664 1.524 . S
C1663 H1666 0.999 . S
C1664 H1634 0.950 . S
C1664 C1663 1.524 . S
C1664 C1665 1.415 . S
C1665 H1635 0.950 . S
C1665 C1660 1.363 . S
C1665 C1664 1.415 . S
H1666 C1663 0.999 . S
H1667 C1648 0.896 1_554 S
H1668 C1686 0.951 . S
H1669 C1688 0.951 . S
H1670 C1690 0.950 . S
H1671 C1691 0.950 . S
H1672 C1693 0.995 . S
H1673 C1696 0.950 . S
H1674 C1697 0.950 . S
H1675 C1699 0.950 . S
H1676 C1700 0.993 . S
H1677 C1701 0.951 . S
H1678 C1703 0.951 . S
H1679 C1705 0.950 . S
H1680 C1706 0.950 . S
H1681 C1708 0.950 . S
H1682 C1711 0.950 . S
H1683 C1712 0.950 . S
H1684 C1714 0.950 . S
H1685 C1715 0.950 1_455 S
C1686 H1668 0.951 . S
C1686 C1687 1.366 1_655 S
C1686 C1688 1.388 . S
C1687 C1686 1.366 1_455 S
C1687 C1691 1.385 . S
C1688 H1669 0.951 . S
C1688 C1686 1.388 . S
C1688 C1689 1.366 1_655 S
C1689 C1688 1.366 1_455 S
C1689 C1690 1.414 . S
C1689 C1692 1.499 . S
C1690 H1670 0.950 . S
C1690 C1689 1.414 . S
C1690 C1691 1.374 . S
C1691 H1671 0.950 . S
C1691 C1687 1.385 . S
C1691 C1690 1.374 . S
C1692 C1689 1.499 . S
C1692 C1693 1.352 1_455 S
C1692 C1694 1.389 . S
C1693 H1672 0.995 . S
C1693 C1692 1.352 1_655 S
C1693 C1709 1.357 . S
C1694 C1692 1.389 . S
C1694 C1695 1.524 . S
C1694 C1708 1.377 . S
C1695 C1694 1.524 . S
C1695 C1696 1.397 . S
C1695 C1700 1.363 . S
C1696 H1673 0.950 . S
C1696 C1695 1.397 . S
C1696 C1697 1.334 . S
C1697 H1674 0.950 . S
C1697 C1696 1.334 . S
C1697 C1698 1.287 . S
C1698 C1697 1.287 . S
C1698 C1699 1.524 . S
C1698 H1717 0.913 . S
C1699 H1675 0.950 . S
C1699 C1698 1.524 . S
C1699 C1700 1.415 . S
C1700 H1676 0.993 . S
C1700 C1695 1.363 . S
C1700 C1699 1.415 . S
C1701 H1677 0.951 . S
C1701 C1702 1.366 . S
C1701 C1703 1.388 . S
C1702 C1701 1.366 . S
C1702 C1706 1.385 1_455 S
C1703 H1678 0.951 . S
C1703 C1701 1.388 . S
C1703 C1704 1.366 . S
C1704 C1703 1.366 . S
C1704 C1705 1.414 1_455 S
C1704 C1707 1.499 . S
C1705 H1679 0.950 . S
C1705 C1704 1.414 1_655 S
C1705 C1706 1.374 . S
C1706 H1680 0.950 . S
C1706 C1702 1.385 1_655 S
C1706 C1705 1.374 . S
C1707 C1704 1.499 . S
C1707 C1708 1.373 . S
C1707 C1709 1.389 1_455 S
C1708 H1681 0.950 . S
C1708 C1694 1.377 . S
C1708 C1707 1.373 . S
C1709 C1693 1.357 . S
C1709 C1707 1.389 1_655 S
C1709 C1710 1.524 . S
C1710 C1709 1.524 . S
C1710 C1711 1.397 . S
C1710 C1715 1.363 . S
C1711 H1682 0.950 . S
C1711 C1710 1.397 . S
C1711 C1712 1.334 . S
C1712 H1683 0.950 . S
C1712 C1711 1.334 . S
C1712 C1713 1.287 . S
C1713 C1712 1.287 . S
C1713 C1714 1.524 . S
C1713 H1716 0.999 . S
C1714 H1684 0.950 . S
C1714 C1713 1.524 . S
C1714 C1715 1.415 . S
C1715 H1685 0.950 1_655 S
C1715 C1710 1.363 . S
C1715 C1714 1.415 . S
H1716 C1713 0.999 . S
H1717 C1698 0.913 . S
H1718 C1736 0.951 . S
H1719 C1738 0.951 . S
H1720 C1740 0.950 . S
H1721 C1741 0.950 . S
H1722 C1743 0.950 . S
H1723 C1746 0.950 . S
H1724 C1747 0.950 . S
H1725 C1749 0.950 . S
H1726 C1750 0.950 . S
H1727 C1751 0.951 . S
H1728 C1753 0.951 . S
H1729 C1755 0.950 . S
H1730 C1756 0.950 . S
H1731 C1758 0.950 . S
H1732 C1761 0.950 . S
H1733 C1762 0.950 . S
H1734 C1764 0.950 . S
H1735 C1765 0.950 . S
C1736 H1718 0.951 . S
C1736 C1737 1.366 . S
C1736 C1738 1.388 . S
C1737 C1736 1.366 . S
C1737 C1741 1.385 . S
C1738 H1719 0.951 . S
C1738 C1736 1.388 . S
C1738 C1739 1.366 . S
C1739 C1738 1.366 . S
C1739 C1740 1.414 . S
C1739 C1742 1.499 . S
C1740 H1720 0.950 . S
C1740 C1739 1.414 . S
C1740 C1741 1.374 . S
C1741 H1721 0.950 . S
C1741 C1737 1.385 . S
C1741 C1740 1.374 . S
C1742 C1739 1.499 . S
C1742 C1743 1.373 . S
C1742 C1744 1.389 . S
C1743 H1722 0.950 . S
C1743 C1742 1.373 . S
C1743 C1759 1.377 . S
C1744 C1742 1.389 . S
C1744 C1745 1.524 . S
C1744 C1758 1.377 . S
C1745 C1744 1.524 . S
C1745 C1746 1.397 . S
C1745 C1750 1.363 . S
C1746 H1723 0.950 . S
C1746 C1745 1.397 . S
C1746 C1747 1.334 . S
C1747 H1724 0.950 . S
C1747 C1746 1.334 . S
C1747 C1748 1.287 . S
C1748 C1747 1.287 . S
C1748 C1749 1.524 . S
C1748 H1767 0.913 . S
C1749 H1725 0.950 . S
C1749 C1748 1.524 . S
C1749 C1750 1.415 . S
C1750 H1726 0.950 . S
C1750 C1745 1.363 . S
C1750 C1749 1.415 . S
C1751 H1727 0.951 . S
C1751 C1752 1.366 . S
C1751 C1753 1.388 . S
C1752 C1751 1.366 . S
C1752 C1756 1.385 . S
C1753 H1728 0.951 . S
C1753 C1751 1.388 . S
C1753 C1754 1.366 . S
C1754 C1753 1.366 . S
C1754 C1755 1.414 . S
C1754 C1757 1.499 . S
C1755 H1729 0.950 . S
C1755 C1754 1.414 . S
C1755 C1756 1.374 . S
C1756 H1730 0.950 . S
C1756 C1752 1.385 . S
C1756 C1755 1.374 . S
C1757 C1754 1.499 . S
C1757 C1758 1.373 . S
C1757 C1759 1.389 . S
C1758 H1731 0.950 . S
C1758 C1744 1.377 . S
C1758 C1757 1.373 . S
C1759 C1743 1.377 . S
C1759 C1757 1.389 . S
C1759 C1760 1.524 . S
C1760 C1759 1.524 . S
C1760 C1761 1.397 . S
C1760 C1765 1.363 . S
C1761 H1732 0.950 . S
C1761 C1760 1.397 . S
C1761 C1762 1.334 . S
C1762 H1733 0.950 . S
C1762 C1761 1.334 . S
C1762 C1763 1.287 . S
C1763 C1762 1.287 . S
C1763 C1764 1.524 . S
C1763 H1766 0.999 . S
C1764 H1734 0.950 . S
C1764 C1763 1.524 . S
C1764 C1765 1.415 . S
C1765 H1735 0.950 . S
C1765 C1760 1.363 . S
C1765 C1764 1.415 . S
H1766 C1763 0.999 . S
H1767 C1748 0.913 . S
H1768 C1786 0.951 . S
H1769 C1788 0.951 . S
H1770 C1790 0.950 . S
H1771 C1791 0.950 . S
H1772 C1793 0.950 . S
H1773 C1796 0.950 . S
H1774 C1797 0.950 . S
H1775 C1799 0.933 1_545 S
H1776 C1800 0.950 . S
H1777 C1801 0.951 . S
H1778 C1803 0.951 . S
H1779 C1805 0.950 . S
H1780 C1806 0.950 . S
H1781 C1808 0.950 . S
H1782 C1811 0.950 . S
H1783 C1812 0.950 . S
H1784 C1814 0.950 . S
H1785 C1815 0.950 . S
C1786 H1768 0.951 . S
C1786 C1787 1.273 1_545 S
C1786 C1788 1.388 . S
C1787 C1786 1.273 1_565 S
C1787 C1791 1.445 . S
C1788 H1769 0.951 . S
C1788 C1786 1.388 . S
C1788 C1789 1.366 1_545 S
C1789 C1788 1.366 1_565 S
C1789 C1790 1.414 . S
C1789 C1792 1.499 . S
C1790 H1770 0.950 . S
C1790 C1789 1.414 . S
C1790 C1791 1.374 . S
C1791 H1771 0.950 . S
C1791 C1787 1.445 . S
C1791 C1790 1.374 . S
C1792 C1789 1.499 . S
C1792 C1793 1.373 . S
C1792 C1794 1.389 . S
C1793 H1772 0.950 . S
C1793 C1792 1.373 . S
C1793 C1809 1.377 . S
C1794 C1792 1.389 . S
C1794 C1795 1.524 . S
C1794 C1808 1.377 . S
C1795 C1794 1.524 . S
C1795 C1796 1.397 . S
C1795 C1800 1.363 1_565 S
C1796 H1773 0.950 . S
C1796 C1795 1.397 . S
C1796 C1797 1.334 . S
C1797 H1774 0.950 . S
C1797 C1796 1.334 . S
C1797 C1798 1.287 . S
C1798 C1797 1.287 . S
C1798 C1799 1.543 . S
C1798 H1817 0.891 1_556 S
C1799 H1775 0.933 1_565 S
C1799 C1798 1.543 . S
C1799 C1800 1.415 1_565 S
C1800 H1776 0.950 . S
C1800 C1795 1.363 1_545 S
C1800 C1799 1.415 1_545 S
C1801 H1777 0.951 . S
C1801 C1802 1.366 . S
C1801 C1803 1.388 . S
C1802 C1801 1.366 . S
C1802 C1806 1.385 1_565 S
C1803 H1778 0.951 . S
C1803 C1801 1.388 . S
C1803 C1804 1.366 . S
C1804 C1803 1.366 . S
C1804 C1805 1.414 1_565 S
C1804 C1807 1.499 . S
C1805 H1779 0.950 . S
C1805 C1804 1.414 1_545 S
C1805 C1806 1.374 . S
C1806 H1780 0.950 . S
C1806 C1802 1.385 1_545 S
C1806 C1805 1.374 . S
C1807 C1804 1.499 . S
C1807 C1808 1.373 . S
C1807 C1809 1.389 . S
C1808 H1781 0.950 . S
C1808 C1794 1.377 . S
C1808 C1807 1.373 . S
C1809 C1793 1.377 . S
C1809 C1807 1.389 . S
C1809 C1810 1.526 1_565 S
C1810 C1809 1.526 1_545 S
C1810 C1811 1.427 . S
C1810 C1815 1.333 1_545 S
C1811 H1782 0.950 . S
C1811 C1810 1.427 . S
C1811 C1812 1.334 . S
C1812 H1783 0.950 . S
C1812 C1811 1.334 . S
C1812 C1813 1.287 . S
C1813 C1812 1.287 . S
C1813 C1814 1.524 1_545 S
C1813 H1816 0.999 . S
C1814 H1784 0.950 . S
C1814 C1813 1.524 1_565 S
C1814 C1815 1.415 . S
C1815 H1785 0.950 . S
C1815 C1810 1.333 1_565 S
C1815 C1814 1.415 . S
H1816 C1813 0.999 . S
H1817 C1798 0.891 1_554 S
H1818 C1836 0.951 . S
H1819 C1838 0.951 . S
H1820 C1840 0.950 . S
H1821 C1841 0.950 . S
H1822 C1843 0.950 . S
H1823 C1846 0.950 . S
H1824 C1847 0.950 . S
H1825 C1849 0.950 1_545 S
H1826 C1850 0.950 . S
H1827 C1851 0.951 . S
H1828 C1853 0.951 . S
H1829 C1855 0.950 . S
H1830 C1856 0.950 . S
H1831 C1858 0.956 . S
H1832 C1861 0.950 . S
H1833 C1862 0.950 . S
H1834 C1864 0.950 . S
H1835 C1865 0.950 1_565 S
C1836 H1818 0.951 . S
C1836 C1837 1.366 . S
C1836 C1838 1.388 . S
C1837 C1836 1.366 . S
C1837 C1841 1.385 1_545 S
C1838 H1819 0.951 . S
C1838 C1836 1.388 . S
C1838 C1839 1.366 . S
C1839 C1838 1.366 . S
C1839 C1840 1.414 1_545 S
C1839 C1842 1.499 . S
C1840 H1820 0.950 . S
C1840 C1839 1.414 1_565 S
C1840 C1841 1.374 . S
C1841 H1821 0.950 . S
C1841 C1837 1.385 1_565 S
C1841 C1840 1.374 . S
C1842 C1839 1.499 . S
C1842 C1843 1.373 . S
C1842 C1844 1.393 . S
C1843 H1822 0.950 . S
C1843 C1842 1.373 . S
C1843 C1859 1.377 . S
C1844 C1842 1.393 . S
C1844 C1845 1.514 1_545 S
C1844 C1858 1.383 . S
C1845 C1844 1.514 1_565 S
C1845 C1846 1.397 . S
C1845 C1850 1.363 1_565 S
C1846 H1823 0.950 . S
C1846 C1845 1.397 . S
C1846 C1847 1.334 . S
C1847 H1824 0.950 . S
C1847 C1846 1.334 . S
C1847 C1848 1.287 . S
C1848 C1847 1.287 . S
C1848 C1849 1.524 . S
C1848 H1867 0.913 . S
C1849 H1825 0.950 1_565 S
C1849 C1848 1.524 . S
C1849 C1850 1.415 1_565 S
C1850 H1826 0.950 . S
C1850 C1845 1.363 1_545 S
C1850 C1849 1.415 1_545 S
C1851 H1827 0.951 . S
C1851 C1852 1.366 1_565 S
C1851 C1853 1.388 . S
C1852 C1851 1.366 1_545 S
C1852 C1856 1.385 . S
C1853 H1828 0.951 . S
C1853 C1851 1.388 . S
C1853 C1854 1.366 1_565 S
C1854 C1853 1.366 1_545 S
C1854 C1855 1.414 . S
C1854 C1857 1.499 . S
C1855 H1829 0.950 . S
C1855 C1854 1.414 . S
C1855 C1856 1.374 . S
C1856 H1830 0.950 . S
C1856 C1852 1.385 . S
C1856 C1855 1.374 . S
C1857 C1854 1.499 . S
C1857 C1858 1.373 . S
C1857 C1859 1.389 . S
C1858 H1831 0.956 . S
C1858 C1844 1.383 . S
C1858 C1857 1.373 . S
C1859 C1843 1.377 . S
C1859 C1857 1.389 . S
C1859 C1860 1.524 . S
C1860 C1859 1.524 . S
C1860 C1861 1.397 . S
C1860 C1865 1.363 . S
C1861 H1832 0.950 . S
C1861 C1860 1.397 . S
C1861 C1862 1.334 . S
C1862 H1833 0.950 . S
C1862 C1861 1.334 . S
C1862 C1863 1.287 . S
C1863 C1862 1.287 . S
C1863 C1864 1.524 . S
C1863 H1866 0.999 . S
C1864 H1834 0.950 . S
C1864 C1863 1.524 . S
C1864 C1865 1.415 . S
C1865 H1835 0.950 1_545 S
C1865 C1860 1.363 . S
C1865 C1864 1.415 . S
H1866 C1863 0.999 . S
H1867 C1848 0.913 . S
H1868 C1886 0.951 . S
H1869 C1888 0.951 . S
H1870 C1890 0.950 . S
H1871 C1891 0.950 . S
H1872 C1893 0.950 . S
H1873 C1896 0.950 . S
H1874 C1897 0.950 . S
H1875 C1899 0.950 . S
H1876 C1900 0.950 . S
H1877 C1901 0.951 . S
H1878 C1903 0.951 . S
H1879 C1905 0.950 . S
H1880 C1906 0.950 . S
H1881 C1908 0.950 . S
H1882 C1911 0.950 . S
H1883 C1912 0.950 . S
H1884 C1914 0.950 . S
H1885 C1915 0.950 . S
C1886 H1868 0.951 . S
C1886 C1887 1.379 . S
C1886 C1888 1.388 . S
C1887 C1886 1.379 . S
C1887 C1891 1.344 1_655 S
C1888 H1869 0.951 . S
C1888 C1886 1.388 . S
C1888 C1889 1.366 . S
C1889 C1888 1.366 . S
C1889 C1890 1.414 1_655 S
C1889 C1892 1.499 . S
C1890 H1870 0.950 . S
C1890 C1889 1.414 1_455 S
C1890 C1891 1.374 . S
C1891 H1871 0.950 . S
C1891 C1887 1.344 1_455 S
C1891 C1890 1.374 . S
C1892 C1889 1.499 . S
C1892 C1893 1.373 1_655 S
C1892 C1894 1.389 . S
C1893 H1872 0.950 . S
C1893 C1892 1.373 1_455 S
C1893 C1909 1.377 . S
C1894 C1892 1.389 . S
C1894 C1895 1.524 . S
C1894 C1908 1.377 . S
C1895 C1894 1.524 . S
C1895 C1896 1.397 . S
C1895 C1900 1.363 . S
C1896 H1873 0.950 . S
C1896 C1895 1.397 . S
C1896 C1897 1.334 . S
C1897 H1874 0.950 . S
C1897 C1896 1.334 . S
C1897 C1898 1.287 . S
C1898 C1897 1.287 . S
C1898 C1899 1.524 . S
C1898 H1917 0.913 . S
C1899 H1875 0.950 . S
C1899 C1898 1.524 . S
C1899 C1900 1.415 . S
C1900 H1876 0.950 . S
C1900 C1895 1.363 . S
C1900 C1899 1.415 . S
C1901 H1877 0.951 . S
C1901 C1902 1.366 1_455 S
C1901 C1903 1.388 . S
C1902 C1901 1.366 1_655 S
C1902 C1906 1.385 . S
C1903 H1878 0.951 . S
C1903 C1901 1.388 . S
C1903 C1904 1.366 1_455 S
C1904 C1903 1.366 1_655 S
C1904 C1905 1.414 . S
C1904 C1907 1.499 . S
C1905 H1879 0.950 . S
C1905 C1904 1.414 . S
C1905 C1906 1.374 . S
C1906 H1880 0.950 . S
C1906 C1902 1.385 . S
C1906 C1905 1.374 . S
C1907 C1904 1.499 . S
C1907 C1908 1.373 . S
C1907 C1909 1.389 1_655 S
C1908 H1881 0.950 . S
C1908 C1894 1.377 . S
C1908 C1907 1.373 . S
C1909 C1893 1.377 . S
C1909 C1907 1.389 1_455 S
C1909 C1910 1.524 . S
C1910 C1909 1.524 . S
C1910 C1911 1.397 . S
C1910 C1915 1.363 . S
C1911 H1882 0.950 . S
C1911 C1910 1.397 . S
C1911 C1912 1.334 . S
C1912 H1883 0.950 . S
C1912 C1911 1.334 . S
C1912 C1913 1.287 . S
C1913 C1912 1.287 . S
C1913 C1914 1.524 . S
C1913 H1916 0.999 . S
C1914 H1884 0.950 . S
C1914 C1913 1.524 . S
C1914 C1915 1.415 . S
C1915 H1885 0.950 . S
C1915 C1910 1.363 . S
C1915 C1914 1.415 . S
H1916 C1913 0.999 . S
H1917 C1898 0.913 . S
H1918 C1936 0.951 . S
H1919 C1938 0.951 . S
H1920 C1940 0.950 . S
H1921 C1941 0.950 . S
H1922 C1943 0.950 . S
H1923 C1946 0.950 . S
H1924 C1947 0.950 . S
H1925 C1949 0.950 . S
H1926 C1950 0.950 . S
H1927 C1951 0.951 . S
H1928 C1953 0.951 . S
H1929 C1955 0.950 . S
H1930 C1956 0.950 . S
H1931 C1958 0.950 . S
H1932 C1961 0.950 . S
H1933 C1962 0.950 . S
H1934 C1964 0.950 . S
H1935 C1965 0.950 . S
C1936 H1918 0.951 . S
C1936 C1937 1.366 . S
C1936 C1938 1.388 . S
C1937 C1936 1.366 . S
C1937 C1941 1.385 . S
C1938 H1919 0.951 . S
C1938 C1936 1.388 . S
C1938 C1939 1.366 . S
C1939 C1938 1.366 . S
C1939 C1940 1.414 . S
C1939 C1942 1.499 . S
C1940 H1920 0.950 . S
C1940 C1939 1.414 . S
C1940 C1941 1.374 . S
C1941 H1921 0.950 . S
C1941 C1937 1.385 . S
C1941 C1940 1.374 . S
C1942 C1939 1.499 . S
C1942 C1943 1.373 . S
C1942 C1944 1.389 . S
C1943 H1922 0.950 . S
C1943 C1942 1.373 . S
C1943 C1959 1.377 . S
C1944 C1942 1.389 . S
C1944 C1945 1.524 . S
C1944 C1958 1.377 . S
C1945 C1944 1.524 . S
C1945 C1946 1.397 . S
C1945 C1950 1.363 . S
C1946 H1923 0.950 . S
C1946 C1945 1.397 . S
C1946 C1947 1.334 . S
C1947 H1924 0.950 . S
C1947 C1946 1.334 . S
C1947 C1948 1.287 . S
C1948 C1947 1.287 . S
C1948 C1949 1.524 . S
C1948 H1967 0.913 . S
C1949 H1925 0.950 . S
C1949 C1948 1.524 . S
C1949 C1950 1.415 . S
C1950 H1926 0.950 . S
C1950 C1945 1.363 . S
C1950 C1949 1.415 . S
C1951 H1927 0.951 . S
C1951 C1952 1.366 . S
C1951 C1953 1.388 . S
C1952 C1951 1.366 . S
C1952 C1956 1.385 . S
C1953 H1928 0.951 . S
C1953 C1951 1.388 . S
C1953 C1954 1.366 . S
C1954 C1953 1.366 . S
C1954 C1955 1.414 . S
C1954 C1957 1.499 . S
C1955 H1929 0.950 . S
C1955 C1954 1.414 . S
C1955 C1956 1.374 . S
C1956 H1930 0.950 . S
C1956 C1952 1.385 . S
C1956 C1955 1.374 . S
C1957 C1954 1.499 . S
C1957 C1958 1.373 . S
C1957 C1959 1.389 . S
C1958 H1931 0.950 . S
C1958 C1944 1.377 . S
C1958 C1957 1.373 . S
C1959 C1943 1.377 . S
C1959 C1957 1.389 . S
C1959 C1960 1.524 . S
C1960 C1959 1.524 . S
C1960 C1961 1.397 . S
C1960 C1965 1.363 . S
C1961 H1932 0.950 . S
C1961 C1960 1.397 . S
C1961 C1962 1.334 . S
C1962 H1933 0.950 . S
C1962 C1961 1.334 . S
C1962 C1963 1.287 . S
C1963 C1962 1.287 . S
C1963 C1964 1.524 . S
C1963 H1966 0.999 . S
C1964 H1934 0.950 . S
C1964 C1963 1.524 . S
C1964 C1965 1.415 . S
C1965 H1935 0.950 . S
C1965 C1960 1.363 . S
C1965 C1964 1.415 . S
H1966 C1963 0.999 . S
H1967 C1948 0.913 . S
H1968 C1986 0.951 . S
H1969 C1988 0.951 . S
H1970 C1990 0.950 . S
H1971 C1991 0.950 . S
H1972 C1993 0.950 . S
H1973 C1996 0.950 . S
H1974 C1997 0.950 . S
H1975 C1999 0.950 . S
H1976 C2000 0.950 . S
H1977 C2001 0.951 . S
H1978 C2003 0.951 . S
H1979 C2005 0.950 . S
H1980 C2006 0.950 . S
H1981 C2008 0.950 . S
H1982 C2011 0.950 . S
H1983 C2012 0.950 . S
H1984 C2014 0.950 . S
H1985 C2015 0.950 . S
C1986 H1968 0.951 . S
C1986 C1987 1.366 . S
C1986 C1988 1.388 . S
C1987 C1986 1.366 . S
C1987 C1991 1.385 . S
C1988 H1969 0.951 . S
C1988 C1986 1.388 . S
C1988 C1989 1.366 . S
C1989 C1988 1.366 . S
C1989 C1990 1.414 . S
C1989 C1992 1.499 . S
C1990 H1970 0.950 . S
C1990 C1989 1.414 . S
C1990 C1991 1.374 . S
C1991 H1971 0.950 . S
C1991 C1987 1.385 . S
C1991 C1990 1.374 . S
C1992 C1989 1.499 . S
C1992 C1993 1.373 . S
C1992 C1994 1.389 . S
C1993 H1972 0.950 . S
C1993 C1992 1.373 . S
C1993 C2009 1.377 . S
C1994 C1992 1.389 . S
C1994 C1995 1.524 . S
C1994 C2008 1.377 . S
C1995 C1994 1.524 . S
C1995 C1996 1.397 . S
C1995 C2000 1.363 . S
C1996 H1973 0.950 . S
C1996 C1995 1.397 . S
C1996 C1997 1.334 . S
C1997 H1974 0.950 . S
C1997 C1996 1.334 . S
C1997 C1998 1.287 . S
C1998 C1997 1.287 . S
C1998 C1999 1.524 . S
C1998 H2017 0.913 . S
C1999 H1975 0.950 . S
C1999 C1998 1.524 . S
C1999 C2000 1.415 . S
C2000 H1976 0.950 . S
C2000 C1995 1.363 . S
C2000 C1999 1.415 . S
C2001 H1977 0.951 . S
C2001 C2002 1.366 . S
C2001 C2003 1.388 . S
C2002 C2001 1.366 . S
C2002 C2006 1.385 . S
C2003 H1978 0.951 . S
C2003 C2001 1.388 . S
C2003 C2004 1.366 . S
C2004 C2003 1.366 . S
C2004 C2005 1.414 . S
C2004 C2007 1.499 . S
C2005 H1979 0.950 . S
C2005 C2004 1.414 . S
C2005 C2006 1.374 . S
C2006 H1980 0.950 . S
C2006 C2002 1.385 . S
C2006 C2005 1.374 . S
C2007 C2004 1.499 . S
C2007 C2008 1.373 . S
C2007 C2009 1.389 . S
C2008 H1981 0.950 . S
C2008 C1994 1.377 . S
C2008 C2007 1.373 . S
C2009 C1993 1.377 . S
C2009 C2007 1.389 . S
C2009 C2010 1.524 . S
C2010 C2009 1.524 . S
C2010 C2011 1.397 . S
C2010 C2015 1.363 . S
C2011 H1982 0.950 . S
C2011 C2010 1.397 . S
C2011 C2012 1.334 . S
C2012 H1983 0.950 . S
C2012 C2011 1.334 . S
C2012 C2013 1.287 . S
C2013 C2012 1.287 . S
C2013 C2014 1.524 . S
C2013 H2016 0.999 . S
C2014 H1984 0.950 . S
C2014 C2013 1.524 . S
C2014 C2015 1.415 . S
C2015 H1985 0.950 . S
C2015 C2010 1.363 . S
C2015 C2014 1.415 . S
H2016 C2013 0.999 . S
H2017 C1998 0.913 . S
H2018 C2036 0.951 . S
H2019 C2038 0.951 . S
H2020 C2040 0.950 . S
H2021 C2041 0.950 . S
H2022 C2043 0.950 . S
H2023 C2046 0.950 . S
H2024 C2047 0.950 . S
H2025 C2049 0.950 . S
H2026 C2050 0.950 . S
H2027 C2051 0.951 . S
H2028 C2053 0.951 . S
H2029 C2055 0.950 . S
H2030 C2056 0.950 . S
H2031 C2058 0.950 . S
H2032 C2061 0.950 . S
H2033 C2062 0.950 . S
H2034 C2064 0.950 . S
H2035 C2065 0.950 . S
C2036 H2018 0.951 . S
C2036 C2037 1.366 . S
C2036 C2038 1.388 . S
C2037 C2036 1.366 . S
C2037 C2041 1.385 . S
C2038 H2019 0.951 . S
C2038 C2036 1.388 . S
C2038 C2039 1.366 . S
C2039 C2038 1.366 . S
C2039 C2040 1.414 . S
C2039 C2042 1.499 . S
C2040 H2020 0.950 . S
C2040 C2039 1.414 . S
C2040 C2041 1.374 . S
C2041 H2021 0.950 . S
C2041 C2037 1.385 . S
C2041 C2040 1.374 . S
C2042 C2039 1.499 . S
C2042 C2043 1.373 . S
C2042 C2044 1.389 . S
C2043 H2022 0.950 . S
C2043 C2042 1.373 . S
C2043 C2059 1.377 . S
C2044 C2042 1.389 . S
C2044 C2045 1.524 . S
C2044 C2058 1.377 . S
C2045 C2044 1.524 . S
C2045 C2046 1.397 . S
C2045 C2050 1.363 . S
C2046 H2023 0.950 . S
C2046 C2045 1.397 . S
C2046 C2047 1.334 . S
C2047 H2024 0.950 . S
C2047 C2046 1.334 . S
C2047 C2048 1.287 . S
C2048 C2047 1.287 . S
C2048 C2049 1.524 . S
C2048 H2067 0.913 . S
C2049 H2025 0.950 . S
C2049 C2048 1.524 . S
C2049 C2050 1.415 . S
C2050 H2026 0.950 . S
C2050 C2045 1.363 . S
C2050 C2049 1.415 . S
C2051 H2027 0.951 . S
C2051 C2052 1.366 . S
C2051 C2053 1.388 . S
C2052 C2051 1.366 . S
C2052 C2056 1.385 . S
C2053 H2028 0.951 . S
C2053 C2051 1.388 . S
C2053 C2054 1.366 . S
C2054 C2053 1.366 . S
C2054 C2055 1.414 . S
C2054 C2057 1.499 . S
C2055 H2029 0.950 . S
C2055 C2054 1.414 . S
C2055 C2056 1.374 . S
C2056 H2030 0.950 . S
C2056 C2052 1.385 . S
C2056 C2055 1.374 . S
C2057 C2054 1.499 . S
C2057 C2058 1.373 . S
C2057 C2059 1.389 . S
C2058 H2031 0.950 . S
C2058 C2044 1.377 . S
C2058 C2057 1.373 . S
C2059 C2043 1.377 . S
C2059 C2057 1.389 . S
C2059 C2060 1.524 . S
C2060 C2059 1.524 . S
C2060 C2061 1.397 . S
C2060 C2065 1.363 . S
C2061 H2032 0.950 . S
C2061 C2060 1.397 . S
C2061 C2062 1.334 . S
C2062 H2033 0.950 . S
C2062 C2061 1.334 . S
C2062 C2063 1.287 . S
C2063 C2062 1.287 . S
C2063 C2064 1.524 . S
C2063 H2066 0.999 . S
C2064 H2034 0.950 . S
C2064 C2063 1.524 . S
C2064 C2065 1.415 . S
C2065 H2035 0.950 . S
C2065 C2060 1.363 . S
C2065 C2064 1.415 . S
H2066 C2063 0.999 . S
H2067 C2048 0.913 . S
H2068 C2086 0.951 . S
H2069 C2088 0.951 . S
H2070 C2090 0.950 . S
H2071 C2091 0.950 . S
H2072 C2093 0.950 . S
H2073 C2096 0.950 . S
H2074 C2097 0.950 . S
H2075 C2099 0.950 . S
H2076 C2100 0.950 . S
H2077 C2101 0.951 . S
H2078 C2103 0.951 . S
H2079 C2105 0.950 . S
H2080 C2106 0.950 . S
H2081 C2108 0.950 . S
H2082 C2111 0.950 . S
H2083 C2112 0.950 . S
H2084 C2114 0.950 . S
H2085 C2115 0.950 . S
C2086 H2068 0.951 . S
C2086 C2087 1.366 . S
C2086 C2088 1.388 . S
C2087 C2086 1.366 . S
C2087 C2091 1.385 . S
C2088 H2069 0.951 . S
C2088 C2086 1.388 . S
C2088 C2089 1.366 . S
C2089 C2088 1.366 . S
C2089 C2090 1.414 . S
C2089 C2092 1.499 . S
C2090 H2070 0.950 . S
C2090 C2089 1.414 . S
C2090 C2091 1.374 . S
C2091 H2071 0.950 . S
C2091 C2087 1.385 . S
C2091 C2090 1.374 . S
C2092 C2089 1.499 . S
C2092 C2093 1.373 . S
C2092 C2094 1.389 . S
C2093 H2072 0.950 . S
C2093 C2092 1.373 . S
C2093 C2109 1.377 . S
C2094 C2092 1.389 . S
C2094 C2095 1.524 . S
C2094 C2108 1.377 . S
C2095 C2094 1.524 . S
C2095 C2096 1.397 . S
C2095 C2100 1.363 . S
C2096 H2073 0.950 . S
C2096 C2095 1.397 . S
C2096 C2097 1.334 . S
C2097 H2074 0.950 . S
C2097 C2096 1.334 . S
C2097 C2098 1.287 . S
C2098 C2097 1.287 . S
C2098 C2099 1.524 . S
C2098 H2117 0.913 . S
C2099 H2075 0.950 . S
C2099 C2098 1.524 . S
C2099 C2100 1.415 . S
C2100 H2076 0.950 . S
C2100 C2095 1.363 . S
C2100 C2099 1.415 . S
C2101 H2077 0.951 . S
C2101 C2102 1.366 . S
C2101 C2103 1.388 . S
C2102 C2101 1.366 . S
C2102 C2106 1.385 . S
C2103 H2078 0.951 . S
C2103 C2101 1.388 . S
C2103 C2104 1.366 . S
C2104 C2103 1.366 . S
C2104 C2105 1.414 . S
C2104 C2107 1.499 . S
C2105 H2079 0.950 . S
C2105 C2104 1.414 . S
C2105 C2106 1.374 . S
C2106 H2080 0.950 . S
C2106 C2102 1.385 . S
C2106 C2105 1.374 . S
C2107 C2104 1.499 . S
C2107 C2108 1.373 . S
C2107 C2109 1.389 . S
C2108 H2081 0.950 . S
C2108 C2094 1.377 . S
C2108 C2107 1.373 . S
C2109 C2093 1.377 . S
C2109 C2107 1.389 . S
C2109 C2110 1.524 . S
C2110 C2109 1.524 . S
C2110 C2111 1.397 . S
C2110 C2115 1.363 . S
C2111 H2082 0.950 . S
C2111 C2110 1.397 . S
C2111 C2112 1.334 . S
C2112 H2083 0.950 . S
C2112 C2111 1.334 . S
C2112 C2113 1.287 . S
C2113 C2112 1.287 . S
C2113 C2114 1.524 . S
C2113 H2116 0.999 . S
C2114 H2084 0.950 . S
C2114 C2113 1.524 . S
C2114 C2115 1.415 . S
C2115 H2085 0.950 . S
C2115 C2110 1.363 . S
C2115 C2114 1.415 . S
H2116 C2113 0.999 . S
H2117 C2098 0.913 . S
H2118 C2136 0.951 . S
H2119 C2138 0.951 . S
H2120 C2140 0.950 . S
H2121 C2141 0.950 . S
H2122 C2143 0.950 . S
H2123 C2146 0.950 . S
H2124 C2147 0.950 . S
H2125 C2149 0.950 . S
H2126 C2150 0.950 . S
H2127 C2151 0.951 . S
H2128 C2153 0.951 . S
H2129 C2155 0.950 . S
H2130 C2156 0.950 . S
H2131 C2158 0.950 . S
H2132 C2161 0.950 . S
H2133 C2162 0.950 . S
H2134 C2164 0.950 . S
H2135 C2165 0.950 . S
C2136 H2118 0.951 . S
C2136 C2137 1.366 . S
C2136 C2138 1.388 . S
C2137 C2136 1.366 . S
C2137 C2141 1.385 . S
C2138 H2119 0.951 . S
C2138 C2136 1.388 . S
C2138 C2139 1.366 . S
C2139 C2138 1.366 . S
C2139 C2140 1.414 . S
C2139 C2142 1.499 . S
C2140 H2120 0.950 . S
C2140 C2139 1.414 . S
C2140 C2141 1.374 . S
C2141 H2121 0.950 . S
C2141 C2137 1.385 . S
C2141 C2140 1.374 . S
C2142 C2139 1.499 . S
C2142 C2143 1.373 . S
C2142 C2144 1.389 . S
C2143 H2122 0.950 . S
C2143 C2142 1.373 . S
C2143 C2159 1.377 . S
C2144 C2142 1.389 . S
C2144 C2145 1.524 . S
C2144 C2158 1.377 . S
C2145 C2144 1.524 . S
C2145 C2146 1.397 . S
C2145 C2150 1.363 . S
C2146 H2123 0.950 . S
C2146 C2145 1.397 . S
C2146 C2147 1.334 . S
C2147 H2124 0.950 . S
C2147 C2146 1.334 . S
C2147 C2148 1.287 . S
C2148 C2147 1.287 . S
C2148 C2149 1.524 . S
C2148 H2167 0.913 . S
C2149 H2125 0.950 . S
C2149 C2148 1.524 . S
C2149 C2150 1.415 . S
C2150 H2126 0.950 . S
C2150 C2145 1.363 . S
C2150 C2149 1.415 . S
C2151 H2127 0.951 . S
C2151 C2152 1.366 . S
C2151 C2153 1.388 . S
C2152 C2151 1.366 . S
C2152 C2156 1.385 . S
C2153 H2128 0.951 . S
C2153 C2151 1.388 . S
C2153 C2154 1.366 . S
C2154 C2153 1.366 . S
C2154 C2155 1.414 . S
C2154 C2157 1.499 . S
C2155 H2129 0.950 . S
C2155 C2154 1.414 . S
C2155 C2156 1.374 . S
C2156 H2130 0.950 . S
C2156 C2152 1.385 . S
C2156 C2155 1.374 . S
C2157 C2154 1.499 . S
C2157 C2158 1.373 . S
C2157 C2159 1.389 . S
C2158 H2131 0.950 . S
C2158 C2144 1.377 . S
C2158 C2157 1.373 . S
C2159 C2143 1.377 . S
C2159 C2157 1.389 . S
C2159 C2160 1.524 . S
C2160 C2159 1.524 . S
C2160 C2161 1.397 . S
C2160 C2165 1.363 . S
C2161 H2132 0.950 . S
C2161 C2160 1.397 . S
C2161 C2162 1.334 . S
C2162 H2133 0.950 . S
C2162 C2161 1.334 . S
C2162 C2163 1.287 . S
C2163 C2162 1.287 . S
C2163 C2164 1.524 . S
C2163 H2166 0.999 . S
C2164 H2134 0.950 . S
C2164 C2163 1.524 . S
C2164 C2165 1.415 . S
C2165 H2135 0.950 . S
C2165 C2160 1.363 . S
C2165 C2164 1.415 . S
H2166 C2163 0.999 . S
H2167 C2148 0.913 . S
H2168 C2186 0.951 . S
H2169 C2188 0.951 . S
H2170 C2190 0.950 . S
H2171 C2191 0.950 . S
H2172 C2193 0.950 . S
H2173 C2196 0.950 . S
H2174 C2197 0.950 . S
H2175 C2199 0.950 . S
H2176 C2200 0.950 . S
H2177 C2201 0.951 . S
H2178 C2203 0.951 . S
H2179 C2205 0.950 . S
H2180 C2206 0.950 . S
H2181 C2208 0.950 . S
H2182 C2211 0.950 . S
H2183 C2212 0.950 . S
H2184 C2214 0.950 . S
H2185 C2215 0.950 . S
C2186 H2168 0.951 . S
C2186 C2187 1.366 . S
C2186 C2188 1.388 . S
C2187 C2186 1.366 . S
C2187 C2191 1.385 . S
C2188 H2169 0.951 . S
C2188 C2186 1.388 . S
C2188 C2189 1.366 . S
C2189 C2188 1.366 . S
C2189 C2190 1.414 . S
C2189 C2192 1.499 . S
C2190 H2170 0.950 . S
C2190 C2189 1.414 . S
C2190 C2191 1.374 . S
C2191 H2171 0.950 . S
C2191 C2187 1.385 . S
C2191 C2190 1.374 . S
C2192 C2189 1.499 . S
C2192 C2193 1.373 . S
C2192 C2194 1.389 . S
C2193 H2172 0.950 . S
C2193 C2192 1.373 . S
C2193 C2209 1.377 . S
C2194 C2192 1.389 . S
C2194 C2195 1.524 . S
C2194 C2208 1.377 . S
C2195 C2194 1.524 . S
C2195 C2196 1.397 . S
C2195 C2200 1.363 . S
C2196 H2173 0.950 . S
C2196 C2195 1.397 . S
C2196 C2197 1.334 . S
C2197 H2174 0.950 . S
C2197 C2196 1.334 . S
C2197 C2198 1.287 . S
C2198 C2197 1.287 . S
C2198 C2199 1.524 . S
C2198 H2217 0.913 . S
C2199 H2175 0.950 . S
C2199 C2198 1.524 . S
C2199 C2200 1.415 . S
C2200 H2176 0.950 . S
C2200 C2195 1.363 . S
C2200 C2199 1.415 . S
C2201 H2177 0.951 . S
C2201 C2202 1.366 . S
C2201 C2203 1.388 . S
C2202 C2201 1.366 . S
C2202 C2206 1.385 . S
C2203 H2178 0.951 . S
C2203 C2201 1.388 . S
C2203 C2204 1.366 . S
C2204 C2203 1.366 . S
C2204 C2205 1.414 . S
C2204 C2207 1.499 . S
C2205 H2179 0.950 . S
C2205 C2204 1.414 . S
C2205 C2206 1.374 . S
C2206 H2180 0.950 . S
C2206 C2202 1.385 . S
C2206 C2205 1.374 . S
C2207 C2204 1.499 . S
C2207 C2208 1.373 . S
C2207 C2209 1.389 . S
C2208 H2181 0.950 . S
C2208 C2194 1.377 . S
C2208 C2207 1.373 . S
C2209 C2193 1.377 . S
C2209 C2207 1.389 . S
C2209 C2210 1.524 . S
C2210 C2209 1.524 . S
C2210 C2211 1.397 . S
C2210 C2215 1.363 . S
C2211 H2182 0.950 . S
C2211 C2210 1.397 . S
C2211 C2212 1.334 . S
C2212 H2183 0.950 . S
C2212 C2211 1.334 . S
C2212 C2213 1.287 . S
C2213 C2212 1.287 . S
C2213 C2214 1.524 . S
C2213 H2216 0.999 . S
C2214 H2184 0.950 . S
C2214 C2213 1.524 . S
C2214 C2215 1.415 . S
C2215 H2185 0.950 . S
C2215 C2210 1.363 . S
C2215 C2214 1.415 . S
H2216 C2213 0.999 . S
H2217 C2198 0.913 . S
H2218 C2236 0.951 . S
H2219 C2238 0.951 . S
H2220 C2240 0.950 . S
H2221 C2241 0.950 . S
H2222 C2243 0.950 . S
H2223 C2246 0.950 . S
H2224 C2247 0.950 . S
H2225 C2249 0.950 . S
H2226 C2250 0.950 . S
H2227 C2251 0.951 . S
H2228 C2253 0.951 . S
H2229 C2255 0.950 . S
H2230 C2256 0.950 . S
H2231 C2258 0.950 . S
H2232 C2261 0.950 . S
H2233 C2262 0.950 . S
H2234 C2264 0.950 . S
H2235 C2265 0.950 . S
C2236 H2218 0.951 . S
C2236 C2237 1.366 . S
C2236 C2238 1.388 . S
C2237 C2236 1.366 . S
C2237 C2241 1.385 . S
C2238 H2219 0.951 . S
C2238 C2236 1.388 . S
C2238 C2239 1.366 . S
C2239 C2238 1.366 . S
C2239 C2240 1.414 . S
C2239 C2242 1.499 . S
C2240 H2220 0.950 . S
C2240 C2239 1.414 . S
C2240 C2241 1.374 . S
C2241 H2221 0.950 . S
C2241 C2237 1.385 . S
C2241 C2240 1.374 . S
C2242 C2239 1.499 . S
C2242 C2243 1.373 . S
C2242 C2244 1.389 . S
C2243 H2222 0.950 . S
C2243 C2242 1.373 . S
C2243 C2259 1.377 . S
C2244 C2242 1.389 . S
C2244 C2245 1.524 . S
C2244 C2258 1.377 . S
C2245 C2244 1.524 . S
C2245 C2246 1.397 . S
C2245 C2250 1.363 . S
C2246 H2223 0.950 . S
C2246 C2245 1.397 . S
C2246 C2247 1.334 . S
C2247 H2224 0.950 . S
C2247 C2246 1.334 . S
C2247 C2248 1.287 . S
C2248 C2247 1.287 . S
C2248 C2249 1.524 . S
C2248 H2267 0.913 . S
C2249 H2225 0.950 . S
C2249 C2248 1.524 . S
C2249 C2250 1.415 . S
C2250 H2226 0.950 . S
C2250 C2245 1.363 . S
C2250 C2249 1.415 . S
C2251 H2227 0.951 . S
C2251 C2252 1.366 . S
C2251 C2253 1.388 . S
C2252 C2251 1.366 . S
C2252 C2256 1.385 . S
C2253 H2228 0.951 . S
C2253 C2251 1.388 . S
C2253 C2254 1.366 . S
C2254 C2253 1.366 . S
C2254 C2255 1.414 . S
C2254 C2257 1.499 . S
C2255 H2229 0.950 . S
C2255 C2254 1.414 . S
C2255 C2256 1.374 . S
C2256 H2230 0.950 . S
C2256 C2252 1.385 . S
C2256 C2255 1.374 . S
C2257 C2254 1.499 . S
C2257 C2258 1.373 . S
C2257 C2259 1.389 . S
C2258 H2231 0.950 . S
C2258 C2244 1.377 . S
C2258 C2257 1.373 . S
C2259 C2243 1.377 . S
C2259 C2257 1.389 . S
C2259 C2260 1.524 . S
C2260 C2259 1.524 . S
C2260 C2261 1.397 . S
C2260 C2265 1.363 . S
C2261 H2232 0.950 . S
C2261 C2260 1.397 . S
C2261 C2262 1.334 . S
C2262 H2233 0.950 . S
C2262 C2261 1.334 . S
C2262 C2263 1.287 . S
C2263 C2262 1.287 . S
C2263 C2264 1.524 . S
C2263 H2266 0.999 . S
C2264 H2234 0.950 . S
C2264 C2263 1.524 . S
C2264 C2265 1.415 . S
C2265 H2235 0.950 . S
C2265 C2260 1.363 . S
C2265 C2264 1.415 . S
H2266 C2263 0.999 . S
H2267 C2248 0.913 . S
H2268 C2286 0.951 . S
H2269 C2288 0.951 . S
H2270 C2290 0.950 . S
H2271 C2291 0.950 . S
H2272 C2293 0.950 . S
H2273 C2296 0.950 . S
H2274 C2297 0.950 . S
H2275 C2299 0.950 . S
H2276 C2300 0.950 . S
H2277 C2301 0.951 . S
H2278 C2303 0.951 . S
H2279 C2305 0.950 . S
H2280 C2306 0.950 . S
H2281 C2308 0.950 . S
H2282 C2311 0.950 . S
H2283 C2312 0.950 . S
H2284 C2314 0.950 . S
H2285 C2315 0.950 . S
C2286 H2268 0.951 . S
C2286 C2287 1.366 . S
C2286 C2288 1.388 . S
C2287 C2286 1.366 . S
C2287 C2291 1.385 . S
C2288 H2269 0.951 . S
C2288 C2286 1.388 . S
C2288 C2289 1.366 . S
C2289 C2288 1.366 . S
C2289 C2290 1.414 . S
C2289 C2292 1.499 . S
C2290 H2270 0.950 . S
C2290 C2289 1.414 . S
C2290 C2291 1.374 . S
C2291 H2271 0.950 . S
C2291 C2287 1.385 . S
C2291 C2290 1.374 . S
C2292 C2289 1.499 . S
C2292 C2293 1.373 . S
C2292 C2294 1.389 . S
C2293 H2272 0.950 . S
C2293 C2292 1.373 . S
C2293 C2309 1.377 . S
C2294 C2292 1.389 . S
C2294 C2295 1.524 . S
C2294 C2308 1.377 . S
C2295 C2294 1.524 . S
C2295 C2296 1.397 . S
C2295 C2300 1.363 . S
C2296 H2273 0.950 . S
C2296 C2295 1.397 . S
C2296 C2297 1.334 . S
C2297 H2274 0.950 . S
C2297 C2296 1.334 . S
C2297 C2298 1.287 . S
C2298 C2297 1.287 . S
C2298 C2299 1.524 . S
C2298 H2317 0.913 . S
C2299 H2275 0.950 . S
C2299 C2298 1.524 . S
C2299 C2300 1.415 . S
C2300 H2276 0.950 . S
C2300 C2295 1.363 . S
C2300 C2299 1.415 . S
C2301 H2277 0.951 . S
C2301 C2302 1.366 . S
C2301 C2303 1.388 . S
C2302 C2301 1.366 . S
C2302 C2306 1.385 . S
C2303 H2278 0.951 . S
C2303 C2301 1.388 . S
C2303 C2304 1.366 . S
C2304 C2303 1.366 . S
C2304 C2305 1.414 . S
C2304 C2307 1.499 . S
C2305 H2279 0.950 . S
C2305 C2304 1.414 . S
C2305 C2306 1.374 . S
C2306 H2280 0.950 . S
C2306 C2302 1.385 . S
C2306 C2305 1.374 . S
C2307 C2304 1.499 . S
C2307 C2308 1.373 . S
C2307 C2309 1.389 . S
C2308 H2281 0.950 . S
C2308 C2294 1.377 . S
C2308 C2307 1.373 . S
C2309 C2293 1.377 . S
C2309 C2307 1.389 . S
C2309 C2310 1.524 . S
C2310 C2309 1.524 . S
C2310 C2311 1.397 . S
C2310 C2315 1.363 . S
C2311 H2282 0.950 . S
C2311 C2310 1.397 . S
C2311 C2312 1.334 . S
C2312 H2283 0.950 . S
C2312 C2311 1.334 . S
C2312 C2313 1.287 . S
C2313 C2312 1.287 . S
C2313 C2314 1.524 . S
C2313 H2316 0.999 . S
C2314 H2284 0.950 . S
C2314 C2313 1.524 . S
C2314 C2315 1.415 . S
C2315 H2285 0.950 . S
C2315 C2310 1.363 . S
C2315 C2314 1.415 . S
H2316 C2313 0.999 . S
H2317 C2298 0.913 . S
H2318 C2336 0.951 . S
H2319 C2338 0.951 . S
H2320 C2340 0.950 . S
H2321 C2341 0.950 . S
H2322 C2343 0.950 . S
H2323 C2346 0.950 . S
H2324 C2347 0.950 . S
H2325 C2349 0.950 . S
H2326 C2350 0.950 . S
H2327 C2351 0.951 . S
H2328 C2353 0.951 . S
H2329 C2355 0.950 . S
H2330 C2356 0.950 . S
H2331 C2358 0.950 . S
H2332 C2361 0.950 . S
H2333 C2362 0.950 . S
H2334 C2364 0.950 . S
H2335 C2365 0.950 . S
C2336 H2318 0.951 . S
C2336 C2337 1.366 . S
C2336 C2338 1.388 . S
C2337 C2336 1.366 . S
C2337 C2341 1.385 . S
C2338 H2319 0.951 . S
C2338 C2336 1.388 . S
C2338 C2339 1.366 . S
C2339 C2338 1.366 . S
C2339 C2340 1.414 . S
C2339 C2342 1.499 . S
C2340 H2320 0.950 . S
C2340 C2339 1.414 . S
C2340 C2341 1.374 . S
C2341 H2321 0.950 . S
C2341 C2337 1.385 . S
C2341 C2340 1.374 . S
C2342 C2339 1.499 . S
C2342 C2343 1.373 . S
C2342 C2344 1.389 . S
C2343 H2322 0.950 . S
C2343 C2342 1.373 . S
C2343 C2359 1.377 . S
C2344 C2342 1.389 . S
C2344 C2345 1.524 . S
C2344 C2358 1.377 . S
C2345 C2344 1.524 . S
C2345 C2346 1.397 . S
C2345 C2350 1.363 . S
C2346 H2323 0.950 . S
C2346 C2345 1.397 . S
C2346 C2347 1.334 . S
C2347 H2324 0.950 . S
C2347 C2346 1.334 . S
C2347 C2348 1.287 . S
C2348 C2347 1.287 . S
C2348 C2349 1.524 . S
C2348 H2367 0.913 . S
C2349 H2325 0.950 . S
C2349 C2348 1.524 . S
C2349 C2350 1.415 . S
C2350 H2326 0.950 . S
C2350 C2345 1.363 . S
C2350 C2349 1.415 . S
C2351 H2327 0.951 . S
C2351 C2352 1.366 . S
C2351 C2353 1.388 . S
C2352 C2351 1.366 . S
C2352 C2356 1.385 . S
C2353 H2328 0.951 . S
C2353 C2351 1.388 . S
C2353 C2354 1.366 . S
C2354 C2353 1.366 . S
C2354 C2355 1.414 . S
C2354 C2357 1.499 . S
C2355 H2329 0.950 . S
C2355 C2354 1.414 . S
C2355 C2356 1.374 . S
C2356 H2330 0.950 . S
C2356 C2352 1.385 . S
C2356 C2355 1.374 . S
C2357 C2354 1.499 . S
C2357 C2358 1.373 . S
C2357 C2359 1.389 . S
C2358 H2331 0.950 . S
C2358 C2344 1.377 . S
C2358 C2357 1.373 . S
C2359 C2343 1.377 . S
C2359 C2357 1.389 . S
C2359 C2360 1.524 . S
C2360 C2359 1.524 . S
C2360 C2361 1.397 . S
C2360 C2365 1.363 . S
C2361 H2332 0.950 . S
C2361 C2360 1.397 . S
C2361 C2362 1.334 . S
C2362 H2333 0.950 . S
C2362 C2361 1.334 . S
C2362 C2363 1.287 . S
C2363 C2362 1.287 . S
C2363 C2364 1.524 . S
C2363 H2366 0.999 . S
C2364 H2334 0.950 . S
C2364 C2363 1.524 . S
C2364 C2365 1.415 . S
C2365 H2335 0.950 . S
C2365 C2360 1.363 . S
C2365 C2364 1.415 . S
H2366 C2363 0.999 . S
H2367 C2348 0.913 . S
H2368 C2386 0.951 . S
H2369 C2388 0.951 . S
H2370 C2390 0.950 . S
H2371 C2391 0.950 . S
H2372 C2393 0.950 . S
H2373 C2396 0.950 . S
H2374 C2397 0.950 . S
H2375 C2399 0.950 . S
H2376 C2400 0.950 . S
H2377 C2401 0.951 . S
H2378 C2403 0.951 . S
H2379 C2405 0.950 . S
H2380 C2406 0.950 . S
H2381 C2408 0.950 . S
H2382 C2411 0.950 . S
H2383 C2412 0.950 . S
H2384 C2414 0.950 . S
H2385 C2415 0.950 . S
C2386 H2368 0.951 . S
C2386 C2387 1.366 . S
C2386 C2388 1.388 . S
C2387 C2386 1.366 . S
C2387 C2391 1.385 . S
C2388 H2369 0.951 . S
C2388 C2386 1.388 . S
C2388 C2389 1.366 . S
C2389 C2388 1.366 . S
C2389 C2390 1.414 . S
C2389 C2392 1.499 . S
C2390 H2370 0.950 . S
C2390 C2389 1.414 . S
C2390 C2391 1.374 . S
C2391 H2371 0.950 . S
C2391 C2387 1.385 . S
C2391 C2390 1.374 . S
C2392 C2389 1.499 . S
C2392 C2393 1.373 . S
C2392 C2394 1.389 . S
C2393 H2372 0.950 . S
C2393 C2392 1.373 . S
C2393 C2409 1.377 . S
C2394 C2392 1.389 . S
C2394 C2395 1.524 . S
C2394 C2408 1.377 . S
C2395 C2394 1.524 . S
C2395 C2396 1.397 . S
C2395 C2400 1.363 . S
C2396 H2373 0.950 . S
C2396 C2395 1.397 . S
C2396 C2397 1.334 . S
C2397 H2374 0.950 . S
C2397 C2396 1.334 . S
C2397 C2398 1.287 . S
C2398 C2397 1.287 . S
C2398 C2399 1.524 . S
C2398 H2417 0.913 . S
C2399 H2375 0.950 . S
C2399 C2398 1.524 . S
C2399 C2400 1.415 . S
C2400 H2376 0.950 . S
C2400 C2395 1.363 . S
C2400 C2399 1.415 . S
C2401 H2377 0.951 . S
C2401 C2402 1.366 . S
C2401 C2403 1.388 . S
C2402 C2401 1.366 . S
C2402 C2406 1.385 . S
C2403 H2378 0.951 . S
C2403 C2401 1.388 . S
C2403 C2404 1.366 . S
C2404 C2403 1.366 . S
C2404 C2405 1.414 . S
C2404 C2407 1.499 . S
C2405 H2379 0.950 . S
C2405 C2404 1.414 . S
C2405 C2406 1.374 . S
C2406 H2380 0.950 . S
C2406 C2402 1.385 . S
C2406 C2405 1.374 . S
C2407 C2404 1.499 . S
C2407 C2408 1.373 . S
C2407 C2409 1.389 . S
C2408 H2381 0.950 . S
C2408 C2394 1.377 . S
C2408 C2407 1.373 . S
C2409 C2393 1.377 . S
C2409 C2407 1.389 . S
C2409 C2410 1.524 . S
C2410 C2409 1.524 . S
C2410 C2411 1.397 . S
C2410 C2415 1.363 . S
C2411 H2382 0.950 . S
C2411 C2410 1.397 . S
C2411 C2412 1.334 . S
C2412 H2383 0.950 . S
C2412 C2411 1.334 . S
C2412 C2413 1.287 . S
C2413 C2412 1.287 . S
C2413 C2414 1.524 . S
C2413 H2416 0.999 . S
C2414 H2384 0.950 . S
C2414 C2413 1.524 . S
C2414 C2415 1.415 . S
C2415 H2385 0.950 . S
C2415 C2410 1.363 . S
C2415 C2414 1.415 . S
H2416 C2413 0.999 . S
H2417 C2398 0.913 . S
H2418 C2436 0.951 . S
H2419 C2438 0.951 . S
H2420 C2440 0.950 . S
H2421 C2441 0.950 . S
H2422 C2443 0.950 . S
H2423 C2446 0.950 . S
H2424 C2447 0.950 . S
H2425 C2449 0.950 . S
H2426 C2450 0.950 . S
H2427 C2451 0.951 . S
H2428 C2453 0.951 . S
H2429 C2455 0.950 . S
H2430 C2456 0.950 . S
H2431 C2458 0.950 . S
H2432 C2461 0.950 . S
H2433 C2462 0.950 . S
H2434 C2464 0.950 . S
H2435 C2465 0.950 . S
C2436 H2418 0.951 . S
C2436 C2437 1.366 . S
C2436 C2438 1.388 . S
C2437 C2436 1.366 . S
C2437 C2441 1.385 . S
C2438 H2419 0.951 . S
C2438 C2436 1.388 . S
C2438 C2439 1.366 . S
C2439 C2438 1.366 . S
C2439 C2440 1.414 . S
C2439 C2442 1.499 . S
C2440 H2420 0.950 . S
C2440 C2439 1.414 . S
C2440 C2441 1.374 . S
C2441 H2421 0.950 . S
C2441 C2437 1.385 . S
C2441 C2440 1.374 . S
C2442 C2439 1.499 . S
C2442 C2443 1.373 . S
C2442 C2444 1.389 . S
C2443 H2422 0.950 . S
C2443 C2442 1.373 . S
C2443 C2459 1.377 . S
C2444 C2442 1.389 . S
C2444 C2445 1.524 . S
C2444 C2458 1.377 . S
C2445 C2444 1.524 . S
C2445 C2446 1.397 . S
C2445 C2450 1.363 . S
C2446 H2423 0.950 . S
C2446 C2445 1.397 . S
C2446 C2447 1.334 . S
C2447 H2424 0.950 . S
C2447 C2446 1.334 . S
C2447 C2448 1.287 . S
C2448 C2447 1.287 . S
C2448 C2449 1.524 . S
C2448 H2467 0.913 . S
C2449 H2425 0.950 . S
C2449 C2448 1.524 . S
C2449 C2450 1.415 . S
C2450 H2426 0.950 . S
C2450 C2445 1.363 . S
C2450 C2449 1.415 . S
C2451 H2427 0.951 . S
C2451 C2452 1.366 . S
C2451 C2453 1.388 . S
C2452 C2451 1.366 . S
C2452 C2456 1.385 . S
C2453 H2428 0.951 . S
C2453 C2451 1.388 . S
C2453 C2454 1.366 . S
C2454 C2453 1.366 . S
C2454 C2455 1.414 . S
C2454 C2457 1.499 . S
C2455 H2429 0.950 . S
C2455 C2454 1.414 . S
C2455 C2456 1.374 . S
C2456 H2430 0.950 . S
C2456 C2452 1.385 . S
C2456 C2455 1.374 . S
C2457 C2454 1.499 . S
C2457 C2458 1.373 . S
C2457 C2459 1.389 . S
C2458 H2431 0.950 . S
C2458 C2444 1.377 . S
C2458 C2457 1.373 . S
C2459 C2443 1.377 . S
C2459 C2457 1.389 . S
C2459 C2460 1.524 . S
C2460 C2459 1.524 . S
C2460 C2461 1.397 . S
C2460 C2465 1.363 . S
C2461 H2432 0.950 . S
C2461 C2460 1.397 . S
C2461 C2462 1.334 . S
C2462 H2433 0.950 . S
C2462 C2461 1.334 . S
C2462 C2463 1.287 . S
C2463 C2462 1.287 . S
C2463 C2464 1.524 . S
C2463 H2466 0.999 . S
C2464 H2434 0.950 . S
C2464 C2463 1.524 . S
C2464 C2465 1.415 . S
C2465 H2435 0.950 . S
C2465 C2460 1.363 . S
C2465 C2464 1.415 . S
H2466 C2463 0.999 . S
H2467 C2448 0.913 . S
H2468 C2486 0.951 . S
H2469 C2488 0.951 . S
H2470 C2490 0.950 . S
H2471 C2491 0.950 . S
H2472 C2493 0.950 . S
H2473 C2496 0.950 . S
H2474 C2497 0.950 . S
H2475 C2499 0.950 . S
H2476 C2500 0.950 . S
H2477 C2501 0.951 . S
H2478 C2503 0.951 . S
H2479 C2505 0.950 . S
H2480 C2506 0.950 . S
H2481 C2508 0.950 . S
H2482 C2511 0.950 . S
H2483 C2512 0.950 . S
H2484 C2514 0.950 . S
H2485 C2515 0.950 . S
C2486 H2468 0.951 . S
C2486 C2487 1.366 . S
C2486 C2488 1.388 . S
C2487 C2486 1.366 . S
C2487 C2491 1.385 . S
C2488 H2469 0.951 . S
C2488 C2486 1.388 . S
C2488 C2489 1.366 . S
C2489 C2488 1.366 . S
C2489 C2490 1.414 . S
C2489 C2492 1.499 . S
C2490 H2470 0.950 . S
C2490 C2489 1.414 . S
C2490 C2491 1.374 . S
C2491 H2471 0.950 . S
C2491 C2487 1.385 . S
C2491 C2490 1.374 . S
C2492 C2489 1.499 . S
C2492 C2493 1.373 . S
C2492 C2494 1.389 . S
C2493 H2472 0.950 . S
C2493 C2492 1.373 . S
C2493 C2509 1.377 . S
C2494 C2492 1.389 . S
C2494 C2495 1.524 . S
C2494 C2508 1.377 . S
C2495 C2494 1.524 . S
C2495 C2496 1.397 . S
C2495 C2500 1.363 . S
C2496 H2473 0.950 . S
C2496 C2495 1.397 . S
C2496 C2497 1.334 . S
C2497 H2474 0.950 . S
C2497 C2496 1.334 . S
C2497 C2498 1.287 . S
C2498 C2497 1.287 . S
C2498 C2499 1.524 . S
C2498 H2517 0.913 . S
C2499 H2475 0.950 . S
C2499 C2498 1.524 . S
C2499 C2500 1.415 . S
C2500 H2476 0.950 . S
C2500 C2495 1.363 . S
C2500 C2499 1.415 . S
C2501 H2477 0.951 . S
C2501 C2502 1.366 . S
C2501 C2503 1.388 . S
C2502 C2501 1.366 . S
C2502 C2506 1.385 . S
C2503 H2478 0.951 . S
C2503 C2501 1.388 . S
C2503 C2504 1.366 . S
C2504 C2503 1.366 . S
C2504 C2505 1.414 . S
C2504 C2507 1.499 . S
C2505 H2479 0.950 . S
C2505 C2504 1.414 . S
C2505 C2506 1.374 . S
C2506 H2480 0.950 . S
C2506 C2502 1.385 . S
C2506 C2505 1.374 . S
C2507 C2504 1.499 . S
C2507 C2508 1.373 . S
C2507 C2509 1.389 . S
C2508 H2481 0.950 . S
C2508 C2494 1.377 . S
C2508 C2507 1.373 . S
C2509 C2493 1.377 . S
C2509 C2507 1.389 . S
C2509 C2510 1.524 . S
C2510 C2509 1.524 . S
C2510 C2511 1.397 . S
C2510 C2515 1.363 . S
C2511 H2482 0.950 . S
C2511 C2510 1.397 . S
C2511 C2512 1.334 . S
C2512 H2483 0.950 . S
C2512 C2511 1.334 . S
C2512 C2513 1.287 . S
C2513 C2512 1.287 . S
C2513 C2514 1.524 . S
C2513 H2516 0.999 . S
C2514 H2484 0.950 . S
C2514 C2513 1.524 . S
C2514 C2515 1.415 . S
C2515 H2485 0.950 . S
C2515 C2510 1.363 . S
C2515 C2514 1.415 . S
H2516 C2513 0.999 . S
H2517 C2498 0.913 . S
H2518 C2536 0.951 . S
H2519 C2538 0.951 . S
H2520 C2540 0.950 . S
H2521 C2541 0.950 . S
H2522 C2543 0.950 . S
H2523 C2546 0.950 . S
H2524 C2547 0.950 . S
H2525 C2549 0.950 . S
H2526 C2550 0.950 . S
H2527 C2551 0.951 . S
H2528 C2553 0.951 . S
H2529 C2555 0.950 . S
H2530 C2556 0.950 . S
H2531 C2558 0.950 . S
H2532 C2561 0.950 . S
H2533 C2562 0.950 . S
H2534 C2564 0.950 . S
H2535 C2565 0.950 . S
C2536 H2518 0.951 . S
C2536 C2537 1.366 . S
C2536 C2538 1.388 . S
C2537 C2536 1.366 . S
C2537 C2541 1.385 . S
C2538 H2519 0.951 . S
C2538 C2536 1.388 . S
C2538 C2539 1.366 . S
C2539 C2538 1.366 . S
C2539 C2540 1.414 . S
C2539 C2542 1.499 . S
C2540 H2520 0.950 . S
C2540 C2539 1.414 . S
C2540 C2541 1.374 . S
C2541 H2521 0.950 . S
C2541 C2537 1.385 . S
C2541 C2540 1.374 . S
C2542 C2539 1.499 . S
C2542 C2543 1.373 . S
C2542 C2544 1.389 . S
C2543 H2522 0.950 . S
C2543 C2542 1.373 . S
C2543 C2559 1.377 . S
C2544 C2542 1.389 . S
C2544 C2545 1.524 . S
C2544 C2558 1.377 . S
C2545 C2544 1.524 . S
C2545 C2546 1.397 . S
C2545 C2550 1.363 . S
C2546 H2523 0.950 . S
C2546 C2545 1.397 . S
C2546 C2547 1.334 . S
C2547 H2524 0.950 . S
C2547 C2546 1.334 . S
C2547 C2548 1.287 . S
C2548 C2547 1.287 . S
C2548 C2549 1.524 . S
C2548 H2567 0.913 . S
C2549 H2525 0.950 . S
C2549 C2548 1.524 . S
C2549 C2550 1.415 . S
C2550 H2526 0.950 . S
C2550 C2545 1.363 . S
C2550 C2549 1.415 . S
C2551 H2527 0.951 . S
C2551 C2552 1.366 . S
C2551 C2553 1.388 . S
C2552 C2551 1.366 . S
C2552 C2556 1.385 . S
C2553 H2528 0.951 . S
C2553 C2551 1.388 . S
C2553 C2554 1.366 . S
C2554 C2553 1.366 . S
C2554 C2555 1.414 . S
C2554 C2557 1.499 . S
C2555 H2529 0.950 . S
C2555 C2554 1.414 . S
C2555 C2556 1.374 . S
C2556 H2530 0.950 . S
C2556 C2552 1.385 . S
C2556 C2555 1.374 . S
C2557 C2554 1.499 . S
C2557 C2558 1.373 . S
C2557 C2559 1.389 . S
C2558 H2531 0.950 . S
C2558 C2544 1.377 . S
C2558 C2557 1.373 . S
C2559 C2543 1.377 . S
C2559 C2557 1.389 . S
C2559 C2560 1.524 . S
C2560 C2559 1.524 . S
C2560 C2561 1.397 . S
C2560 C2565 1.363 . S
C2561 H2532 0.950 . S
C2561 C2560 1.397 . S
C2561 C2562 1.334 . S
C2562 H2533 0.950 . S
C2562 C2561 1.334 . S
C2562 C2563 1.287 . S
C2563 C2562 1.287 . S
C2563 C2564 1.524 . S
C2563 H2566 0.999 . S
C2564 H2534 0.950 . S
C2564 C2563 1.524 . S
C2564 C2565 1.415 . S
C2565 H2535 0.950 . S
C2565 C2560 1.363 . S
C2565 C2564 1.415 . S
H2566 C2563 0.999 . S
H2567 C2548 0.913 . S
H2568 C2586 0.951 . S
H2569 C2588 0.951 . S
H2570 C2590 0.950 . S
H2571 C2591 0.950 . S
H2572 C2593 0.950 . S
H2573 C2596 0.950 . S
H2574 C2597 0.950 . S
H2575 C2599 0.950 . S
H2576 C2600 0.950 . S
H2577 C2601 0.951 . S
H2578 C2603 0.951 . S
H2579 C2605 0.950 . S
H2580 C2606 0.950 . S
H2581 C2608 0.950 . S
H2582 C2611 0.950 . S
H2583 C2612 0.950 . S
H2584 C2614 0.950 . S
H2585 C2615 0.950 . S
C2586 H2568 0.951 . S
C2586 C2587 1.366 . S
C2586 C2588 1.388 . S
C2587 C2586 1.366 . S
C2587 C2591 1.385 . S
C2588 H2569 0.951 . S
C2588 C2586 1.388 . S
C2588 C2589 1.366 . S
C2589 C2588 1.366 . S
C2589 C2590 1.414 . S
C2589 C2592 1.499 . S
C2590 H2570 0.950 . S
C2590 C2589 1.414 . S
C2590 C2591 1.374 . S
C2591 H2571 0.950 . S
C2591 C2587 1.385 . S
C2591 C2590 1.374 . S
C2592 C2589 1.499 . S
C2592 C2593 1.373 . S
C2592 C2594 1.389 . S
C2593 H2572 0.950 . S
C2593 C2592 1.373 . S
C2593 C2609 1.377 . S
C2594 C2592 1.389 . S
C2594 C2595 1.524 . S
C2594 C2608 1.377 . S
C2595 C2594 1.524 . S
C2595 C2596 1.397 . S
C2595 C2600 1.363 . S
C2596 H2573 0.950 . S
C2596 C2595 1.397 . S
C2596 C2597 1.334 . S
C2597 H2574 0.950 . S
C2597 C2596 1.334 . S
C2597 C2598 1.287 . S
C2598 C2597 1.287 . S
C2598 C2599 1.524 . S
C2598 H2617 0.913 . S
C2599 H2575 0.950 . S
C2599 C2598 1.524 . S
C2599 C2600 1.415 . S
C2600 H2576 0.950 . S
C2600 C2595 1.363 . S
C2600 C2599 1.415 . S
C2601 H2577 0.951 . S
C2601 C2602 1.366 . S
C2601 C2603 1.388 . S
C2602 C2601 1.366 . S
C2602 C2606 1.385 . S
C2603 H2578 0.951 . S
C2603 C2601 1.388 . S
C2603 C2604 1.366 . S
C2604 C2603 1.366 . S
C2604 C2605 1.414 . S
C2604 C2607 1.499 . S
C2605 H2579 0.950 . S
C2605 C2604 1.414 . S
C2605 C2606 1.374 . S
C2606 H2580 0.950 . S
C2606 C2602 1.385 . S
C2606 C2605 1.374 . S
C2607 C2604 1.499 . S
C2607 C2608 1.373 . S
C2607 C2609 1.389 . S
C2608 H2581 0.950 . S
C2608 C2594 1.377 . S
C2608 C2607 1.373 . S
C2609 C2593 1.377 . S
C2609 C2607 1.389 . S
C2609 C2610 1.524 . S
C2610 C2609 1.524 . S
C2610 C2611 1.397 . S
C2610 C2615 1.363 . S
C2611 H2582 0.950 . S
C2611 C2610 1.397 . S
C2611 C2612 1.334 . S
C2612 H2583 0.950 . S
C2612 C2611 1.334 . S
C2612 C2613 1.287 . S
C2613 C2612 1.287 . S
C2613 C2614 1.524 . S
C2613 H2616 0.999 . S
C2614 H2584 0.950 . S
C2614 C2613 1.524 . S
C2614 C2615 1.415 . S
C2615 H2585 0.950 . S
C2615 C2610 1.363 . S
C2615 C2614 1.415 . S
H2616 C2613 0.999 . S
H2617 C2598 0.913 . S
H2618 C2636 0.951 . S
H2619 C2638 0.951 . S
H2620 C2640 0.950 . S
H2621 C2641 0.950 . S
H2622 C2643 0.950 . S
H2623 C2646 0.950 . S
H2624 C2647 0.950 . S
H2625 C2649 0.950 . S
H2626 C2650 0.950 . S
H2627 C2651 0.951 . S
H2628 C2653 0.951 . S
H2629 C2655 0.950 . S
H2630 C2656 0.950 . S
H2631 C2658 0.950 . S
H2632 C2661 0.950 . S
H2633 C2662 0.950 . S
H2634 C2664 0.950 . S
H2635 C2665 0.950 . S
C2636 H2618 0.951 . S
C2636 C2637 1.366 . S
C2636 C2638 1.388 . S
C2637 C2636 1.366 . S
C2637 C2641 1.385 . S
C2638 H2619 0.951 . S
C2638 C2636 1.388 . S
C2638 C2639 1.366 . S
C2639 C2638 1.366 . S
C2639 C2640 1.414 . S
C2639 C2642 1.499 . S
C2640 H2620 0.950 . S
C2640 C2639 1.414 . S
C2640 C2641 1.374 . S
C2641 H2621 0.950 . S
C2641 C2637 1.385 . S
C2641 C2640 1.374 . S
C2642 C2639 1.499 . S
C2642 C2643 1.373 . S
C2642 C2644 1.389 . S
C2643 H2622 0.950 . S
C2643 C2642 1.373 . S
C2643 C2659 1.377 . S
C2644 C2642 1.389 . S
C2644 C2645 1.524 . S
C2644 C2658 1.377 . S
C2645 C2644 1.524 . S
C2645 C2646 1.397 . S
C2645 C2650 1.363 . S
C2646 H2623 0.950 . S
C2646 C2645 1.397 . S
C2646 C2647 1.334 . S
C2647 H2624 0.950 . S
C2647 C2646 1.334 . S
C2647 C2648 1.287 . S
C2648 C2647 1.287 . S
C2648 C2649 1.524 . S
C2648 H2667 0.913 . S
C2649 H2625 0.950 . S
C2649 C2648 1.524 . S
C2649 C2650 1.415 . S
C2650 H2626 0.950 . S
C2650 C2645 1.363 . S
C2650 C2649 1.415 . S
C2651 H2627 0.951 . S
C2651 C2652 1.366 . S
C2651 C2653 1.388 . S
C2652 C2651 1.366 . S
C2652 C2656 1.385 . S
C2653 H2628 0.951 . S
C2653 C2651 1.388 . S
C2653 C2654 1.366 . S
C2654 C2653 1.366 . S
C2654 C2655 1.414 . S
C2654 C2657 1.499 . S
C2655 H2629 0.950 . S
C2655 C2654 1.414 . S
C2655 C2656 1.374 . S
C2656 H2630 0.950 . S
C2656 C2652 1.385 . S
C2656 C2655 1.374 . S
C2657 C2654 1.499 . S
C2657 C2658 1.373 . S
C2657 C2659 1.389 . S
C2658 H2631 0.950 . S
C2658 C2644 1.377 . S
C2658 C2657 1.373 . S
C2659 C2643 1.377 . S
C2659 C2657 1.389 . S
C2659 C2660 1.524 . S
C2660 C2659 1.524 . S
C2660 C2661 1.397 . S
C2660 C2665 1.363 . S
C2661 H2632 0.950 . S
C2661 C2660 1.397 . S
C2661 C2662 1.334 . S
C2662 H2633 0.950 . S
C2662 C2661 1.334 . S
C2662 C2663 1.287 . S
C2663 C2662 1.287 . S
C2663 C2664 1.524 . S
C2663 H2666 0.999 . S
C2664 H2634 0.950 . S
C2664 C2663 1.524 . S
C2664 C2665 1.415 . S
C2665 H2635 0.950 . S
C2665 C2660 1.363 . S
C2665 C2664 1.415 . S
H2666 C2663 0.999 . S
H2667 C2648 0.913 . S
H2668 C2686 0.951 . S
H2669 C2688 0.951 . S
H2670 C2690 0.950 . S
H2671 C2691 0.950 . S
H2672 C2693 0.950 . S
H2673 C2696 0.950 . S
H2674 C2697 0.950 . S
H2675 C2699 0.950 . S
H2676 C2700 0.950 . S
H2677 C2701 0.951 . S
H2678 C2703 0.951 . S
H2679 C2705 0.950 . S
H2680 C2706 0.950 . S
H2681 C2708 0.950 . S
H2682 C2711 0.950 . S
H2683 C2712 0.950 . S
H2684 C2714 0.950 . S
H2685 C2715 0.950 . S
C2686 H2668 0.951 . S
C2686 C2687 1.366 . S
C2686 C2688 1.388 . S
C2687 C2686 1.366 . S
C2687 C2691 1.385 . S
C2688 H2669 0.951 . S
C2688 C2686 1.388 . S
C2688 C2689 1.366 . S
C2689 C2688 1.366 . S
C2689 C2690 1.414 . S
C2689 C2692 1.499 . S
C2690 H2670 0.950 . S
C2690 C2689 1.414 . S
C2690 C2691 1.374 . S
C2691 H2671 0.950 . S
C2691 C2687 1.385 . S
C2691 C2690 1.374 . S
C2692 C2689 1.499 . S
C2692 C2693 1.373 . S
C2692 C2694 1.389 . S
C2693 H2672 0.950 . S
C2693 C2692 1.373 . S
C2693 C2709 1.377 . S
C2694 C2692 1.389 . S
C2694 C2695 1.524 . S
C2694 C2708 1.377 . S
C2695 C2694 1.524 . S
C2695 C2696 1.397 . S
C2695 C2700 1.363 . S
C2696 H2673 0.950 . S
C2696 C2695 1.397 . S
C2696 C2697 1.334 . S
C2697 H2674 0.950 . S
C2697 C2696 1.334 . S
C2697 C2698 1.287 . S
C2698 C2697 1.287 . S
C2698 C2699 1.524 . S
C2698 H2717 0.913 . S
C2699 H2675 0.950 . S
C2699 C2698 1.524 . S
C2699 C2700 1.415 . S
C2700 H2676 0.950 . S
C2700 C2695 1.363 . S
C2700 C2699 1.415 . S
C2701 H2677 0.951 . S
C2701 C2702 1.366 . S
C2701 C2703 1.388 . S
C2702 C2701 1.366 . S
C2702 C2706 1.385 . S
C2703 H2678 0.951 . S
C2703 C2701 1.388 . S
C2703 C2704 1.366 . S
C2704 C2703 1.366 . S
C2704 C2705 1.414 . S
C2704 C2707 1.499 . S
C2705 H2679 0.950 . S
C2705 C2704 1.414 . S
C2705 C2706 1.374 . S
C2706 H2680 0.950 . S
C2706 C2702 1.385 . S
C2706 C2705 1.374 . S
C2707 C2704 1.499 . S
C2707 C2708 1.373 . S
C2707 C2709 1.389 . S
C2708 H2681 0.950 . S
C2708 C2694 1.377 . S
C2708 C2707 1.373 . S
C2709 C2693 1.377 . S
C2709 C2707 1.389 . S
C2709 C2710 1.524 . S
C2710 C2709 1.524 . S
C2710 C2711 1.397 . S
C2710 C2715 1.363 . S
C2711 H2682 0.950 . S
C2711 C2710 1.397 . S
C2711 C2712 1.334 . S
C2712 H2683 0.950 . S
C2712 C2711 1.334 . S
C2712 C2713 1.287 . S
C2713 C2712 1.287 . S
C2713 C2714 1.524 . S
C2713 H2716 0.999 . S
C2714 H2684 0.950 . S
C2714 C2713 1.524 . S
C2714 C2715 1.415 . S
C2715 H2685 0.950 . S
C2715 C2710 1.363 . S
C2715 C2714 1.415 . S
H2716 C2713 0.999 . S
H2717 C2698 0.913 . S
H2718 C2736 0.951 . S
H2719 C2738 0.951 . S
H2720 C2740 0.950 . S
H2721 C2741 0.950 . S
H2722 C2743 0.950 . S
H2723 C2746 0.950 . S
H2724 C2747 0.950 . S
H2725 C2749 0.950 . S
H2726 C2750 0.950 . S
H2727 C2751 0.951 . S
H2728 C2753 0.951 . S
H2729 C2755 0.950 . S
H2730 C2756 0.950 . S
H2731 C2758 0.950 . S
H2732 C2761 0.950 . S
H2733 C2762 0.950 . S
H2734 C2764 0.950 . S
H2735 C2765 0.950 . S
C2736 H2718 0.951 . S
C2736 C2737 1.366 . S
C2736 C2738 1.388 . S
C2737 C2736 1.366 . S
C2737 C2741 1.385 . S
C2738 H2719 0.951 . S
C2738 C2736 1.388 . S
C2738 C2739 1.366 . S
C2739 C2738 1.366 . S
C2739 C2740 1.414 . S
C2739 C2742 1.499 . S
C2740 H2720 0.950 . S
C2740 C2739 1.414 . S
C2740 C2741 1.374 . S
C2741 H2721 0.950 . S
C2741 C2737 1.385 . S
C2741 C2740 1.374 . S
C2742 C2739 1.499 . S
C2742 C2743 1.373 . S
C2742 C2744 1.389 . S
C2743 H2722 0.950 . S
C2743 C2742 1.373 . S
C2743 C2759 1.377 . S
C2744 C2742 1.389 . S
C2744 C2745 1.524 . S
C2744 C2758 1.377 . S
C2745 C2744 1.524 . S
C2745 C2746 1.397 . S
C2745 C2750 1.363 . S
C2746 H2723 0.950 . S
C2746 C2745 1.397 . S
C2746 C2747 1.334 . S
C2747 H2724 0.950 . S
C2747 C2746 1.334 . S
C2747 C2748 1.287 . S
C2748 C2747 1.287 . S
C2748 C2749 1.524 . S
C2748 H2767 0.913 . S
C2749 H2725 0.950 . S
C2749 C2748 1.524 . S
C2749 C2750 1.415 . S
C2750 H2726 0.950 . S
C2750 C2745 1.363 . S
C2750 C2749 1.415 . S
C2751 H2727 0.951 . S
C2751 C2752 1.366 . S
C2751 C2753 1.388 . S
C2752 C2751 1.366 . S
C2752 C2756 1.385 . S
C2753 H2728 0.951 . S
C2753 C2751 1.388 . S
C2753 C2754 1.366 . S
C2754 C2753 1.366 . S
C2754 C2755 1.414 . S
C2754 C2757 1.499 . S
C2755 H2729 0.950 . S
C2755 C2754 1.414 . S
C2755 C2756 1.374 . S
C2756 H2730 0.950 . S
C2756 C2752 1.385 . S
C2756 C2755 1.374 . S
C2757 C2754 1.499 . S
C2757 C2758 1.373 . S
C2757 C2759 1.389 . S
C2758 H2731 0.950 . S
C2758 C2744 1.377 . S
C2758 C2757 1.373 . S
C2759 C2743 1.377 . S
C2759 C2757 1.389 . S
C2759 C2760 1.524 . S
C2760 C2759 1.524 . S
C2760 C2761 1.397 . S
C2760 C2765 1.363 . S
C2761 H2732 0.950 . S
C2761 C2760 1.397 . S
C2761 C2762 1.334 . S
C2762 H2733 0.950 . S
C2762 C2761 1.334 . S
C2762 C2763 1.287 . S
C2763 C2762 1.287 . S
C2763 C2764 1.524 . S
C2763 H2766 0.999 . S
C2764 H2734 0.950 . S
C2764 C2763 1.524 . S
C2764 C2765 1.415 . S
C2765 H2735 0.950 . S
C2765 C2760 1.363 . S
C2765 C2764 1.415 . S
H2766 C2763 0.999 . S
H2767 C2748 0.913 . S
H2768 C2786 0.951 . S
H2769 C2788 0.951 . S
H2770 C2790 0.950 . S
H2771 C2791 0.950 . S
H2772 C2793 0.950 . S
H2773 C2796 0.950 . S
H2774 C2797 0.950 . S
H2775 C2799 0.950 . S
H2776 C2800 0.950 . S
H2777 C2801 0.951 . S
H2778 C2803 0.951 . S
H2779 C2805 0.950 . S
H2780 C2806 0.950 . S
H2781 C2808 0.950 . S
H2782 C2811 0.950 . S
H2783 C2812 0.950 . S
H2784 C2814 0.950 . S
H2785 C2815 0.950 . S
C2786 H2768 0.951 . S
C2786 C2787 1.366 . S
C2786 C2788 1.388 . S
C2787 C2786 1.366 . S
C2787 C2791 1.385 . S
C2788 H2769 0.951 . S
C2788 C2786 1.388 . S
C2788 C2789 1.366 . S
C2789 C2788 1.366 . S
C2789 C2790 1.414 . S
C2789 C2792 1.499 . S
C2790 H2770 0.950 . S
C2790 C2789 1.414 . S
C2790 C2791 1.374 . S
C2791 H2771 0.950 . S
C2791 C2787 1.385 . S
C2791 C2790 1.374 . S
C2792 C2789 1.499 . S
C2792 C2793 1.373 . S
C2792 C2794 1.389 . S
C2793 H2772 0.950 . S
C2793 C2792 1.373 . S
C2793 C2809 1.377 . S
C2794 C2792 1.389 . S
C2794 C2795 1.524 . S
C2794 C2808 1.377 . S
C2795 C2794 1.524 . S
C2795 C2796 1.397 . S
C2795 C2800 1.363 . S
C2796 H2773 0.950 . S
C2796 C2795 1.397 . S
C2796 C2797 1.334 . S
C2797 H2774 0.950 . S
C2797 C2796 1.334 . S
C2797 C2798 1.287 . S
C2798 C2797 1.287 . S
C2798 C2799 1.524 . S
C2798 H2817 0.913 . S
C2799 H2775 0.950 . S
C2799 C2798 1.524 . S
C2799 C2800 1.415 . S
C2800 H2776 0.950 . S
C2800 C2795 1.363 . S
C2800 C2799 1.415 . S
C2801 H2777 0.951 . S
C2801 C2802 1.366 . S
C2801 C2803 1.388 . S
C2802 C2801 1.366 . S
C2802 C2806 1.385 . S
C2803 H2778 0.951 . S
C2803 C2801 1.388 . S
C2803 C2804 1.366 . S
C2804 C2803 1.366 . S
C2804 C2805 1.414 . S
C2804 C2807 1.499 . S
C2805 H2779 0.950 . S
C2805 C2804 1.414 . S
C2805 C2806 1.374 . S
C2806 H2780 0.950 . S
C2806 C2802 1.385 . S
C2806 C2805 1.374 . S
C2807 C2804 1.499 . S
C2807 C2808 1.373 . S
C2807 C2809 1.389 . S
C2808 H2781 0.950 . S
C2808 C2794 1.377 . S
C2808 C2807 1.373 . S
C2809 C2793 1.377 . S
C2809 C2807 1.389 . S
C2809 C2810 1.524 . S
C2810 C2809 1.524 . S
C2810 C2811 1.397 . S
C2810 C2815 1.363 . S
C2811 H2782 0.950 . S
C2811 C2810 1.397 . S
C2811 C2812 1.334 . S
C2812 H2783 0.950 . S
C2812 C2811 1.334 . S
C2812 C2813 1.287 . S
C2813 C2812 1.287 . S
C2813 C2814 1.524 . S
C2813 H2816 0.999 . S
C2814 H2784 0.950 . S
C2814 C2813 1.524 . S
C2814 C2815 1.415 . S
C2815 H2785 0.950 . S
C2815 C2810 1.363 . S
C2815 C2814 1.415 . S
H2816 C2813 0.999 . S
H2817 C2798 0.913 . S
H2818 C2836 0.951 . S
H2819 C2838 0.951 . S
H2820 C2840 0.950 . S
H2821 C2841 0.950 . S
H2822 C2843 0.950 . S
H2823 C2846 0.950 . S
H2824 C2847 0.950 . S
H2825 C2849 0.950 . S
H2826 C2850 0.950 . S
H2827 C2851 0.951 . S
H2828 C2853 0.951 . S
H2829 C2855 0.950 . S
H2830 C2856 0.950 . S
H2831 C2858 0.950 . S
H2832 C2861 0.950 . S
H2833 C2862 0.950 . S
H2834 C2864 0.950 . S
H2835 C2865 0.950 . S
C2836 H2818 0.951 . S
C2836 C2837 1.366 . S
C2836 C2838 1.388 . S
C2837 C2836 1.366 . S
C2837 C2841 1.385 . S
C2838 H2819 0.951 . S
C2838 C2836 1.388 . S
C2838 C2839 1.366 . S
C2839 C2838 1.366 . S
C2839 C2840 1.414 . S
C2839 C2842 1.499 . S
C2840 H2820 0.950 . S
C2840 C2839 1.414 . S
C2840 C2841 1.374 . S
C2841 H2821 0.950 . S
C2841 C2837 1.385 . S
C2841 C2840 1.374 . S
C2842 C2839 1.499 . S
C2842 C2843 1.373 . S
C2842 C2844 1.389 . S
C2843 H2822 0.950 . S
C2843 C2842 1.373 . S
C2843 C2859 1.377 . S
C2844 C2842 1.389 . S
C2844 C2845 1.524 . S
C2844 C2858 1.377 . S
C2845 C2844 1.524 . S
C2845 C2846 1.397 . S
C2845 C2850 1.363 . S
C2846 H2823 0.950 . S
C2846 C2845 1.397 . S
C2846 C2847 1.334 . S
C2847 H2824 0.950 . S
C2847 C2846 1.334 . S
C2847 C2848 1.287 . S
C2848 C2847 1.287 . S
C2848 C2849 1.524 . S
C2848 H2867 0.913 . S
C2849 H2825 0.950 . S
C2849 C2848 1.524 . S
C2849 C2850 1.415 . S
C2850 H2826 0.950 . S
C2850 C2845 1.363 . S
C2850 C2849 1.415 . S
C2851 H2827 0.951 . S
C2851 C2852 1.366 . S
C2851 C2853 1.388 . S
C2852 C2851 1.366 . S
C2852 C2856 1.385 . S
C2853 H2828 0.951 . S
C2853 C2851 1.388 . S
C2853 C2854 1.366 . S
C2854 C2853 1.366 . S
C2854 C2855 1.414 . S
C2854 C2857 1.499 . S
C2855 H2829 0.950 . S
C2855 C2854 1.414 . S
C2855 C2856 1.374 . S
C2856 H2830 0.950 . S
C2856 C2852 1.385 . S
C2856 C2855 1.374 . S
C2857 C2854 1.499 . S
C2857 C2858 1.373 . S
C2857 C2859 1.389 . S
C2858 H2831 0.950 . S
C2858 C2844 1.377 . S
C2858 C2857 1.373 . S
C2859 C2843 1.377 . S
C2859 C2857 1.389 . S
C2859 C2860 1.524 . S
C2860 C2859 1.524 . S
C2860 C2861 1.397 . S
C2860 C2865 1.363 . S
C2861 H2832 0.950 . S
C2861 C2860 1.397 . S
C2861 C2862 1.334 . S
C2862 H2833 0.950 . S
C2862 C2861 1.334 . S
C2862 C2863 1.287 . S
C2863 C2862 1.287 . S
C2863 C2864 1.524 . S
C2863 H2866 0.999 . S
C2864 H2834 0.950 . S
C2864 C2863 1.524 . S
C2864 C2865 1.415 . S
C2865 H2835 0.950 . S
C2865 C2860 1.363 . S
C2865 C2864 1.415 . S
H2866 C2863 0.999 . S
H2867 C2848 0.913 . S
H2868 C2886 0.951 . S
H2869 C2888 0.951 . S
H2870 C2890 0.950 . S
H2871 C2891 0.950 . S
H2872 C2893 0.950 . S
H2873 C2896 0.950 . S
H2874 C2897 0.950 . S
H2875 C2899 0.950 . S
H2876 C2900 0.950 . S
H2877 C2901 0.951 . S
H2878 C2903 0.951 . S
H2879 C2905 0.950 . S
H2880 C2906 0.950 . S
H2881 C2908 0.950 . S
H2882 C2911 0.950 . S
H2883 C2912 0.950 . S
H2884 C2914 0.950 . S
H2885 C2915 0.950 . S
C2886 H2868 0.951 . S
C2886 C2887 1.366 . S
C2886 C2888 1.388 . S
C2887 C2886 1.366 . S
C2887 C2891 1.385 . S
C2888 H2869 0.951 . S
C2888 C2886 1.388 . S
C2888 C2889 1.366 . S
C2889 C2888 1.366 . S
C2889 C2890 1.414 . S
C2889 C2892 1.499 . S
C2890 H2870 0.950 . S
C2890 C2889 1.414 . S
C2890 C2891 1.374 . S
C2891 H2871 0.950 . S
C2891 C2887 1.385 . S
C2891 C2890 1.374 . S
C2892 C2889 1.499 . S
C2892 C2893 1.373 . S
C2892 C2894 1.389 . S
C2893 H2872 0.950 . S
C2893 C2892 1.373 . S
C2893 C2909 1.377 . S
C2894 C2892 1.389 . S
C2894 C2895 1.524 . S
C2894 C2908 1.377 . S
C2895 C2894 1.524 . S
C2895 C2896 1.397 . S
C2895 C2900 1.363 . S
C2896 H2873 0.950 . S
C2896 C2895 1.397 . S
C2896 C2897 1.334 . S
C2897 H2874 0.950 . S
C2897 C2896 1.334 . S
C2897 C2898 1.287 . S
C2898 C2897 1.287 . S
C2898 C2899 1.524 . S
C2898 H2917 0.913 . S
C2899 H2875 0.950 . S
C2899 C2898 1.524 . S
C2899 C2900 1.415 . S
C2900 H2876 0.950 . S
C2900 C2895 1.363 . S
C2900 C2899 1.415 . S
C2901 H2877 0.951 . S
C2901 C2902 1.366 . S
C2901 C2903 1.388 . S
C2902 C2901 1.366 . S
C2902 C2906 1.385 . S
C2903 H2878 0.951 . S
C2903 C2901 1.388 . S
C2903 C2904 1.366 . S
C2904 C2903 1.366 . S
C2904 C2905 1.414 . S
C2904 C2907 1.499 . S
C2905 H2879 0.950 . S
C2905 C2904 1.414 . S
C2905 C2906 1.374 . S
C2906 H2880 0.950 . S
C2906 C2902 1.385 . S
C2906 C2905 1.374 . S
C2907 C2904 1.499 . S
C2907 C2908 1.373 . S
C2907 C2909 1.389 . S
C2908 H2881 0.950 . S
C2908 C2894 1.377 . S
C2908 C2907 1.373 . S
C2909 C2893 1.377 . S
C2909 C2907 1.389 . S
C2909 C2910 1.524 . S
C2910 C2909 1.524 . S
C2910 C2911 1.397 . S
C2910 C2915 1.363 . S
C2911 H2882 0.950 . S
C2911 C2910 1.397 . S
C2911 C2912 1.334 . S
C2912 H2883 0.950 . S
C2912 C2911 1.334 . S
C2912 C2913 1.287 . S
C2913 C2912 1.287 . S
C2913 C2914 1.524 . S
C2913 H2916 0.999 . S
C2914 H2884 0.950 . S
C2914 C2913 1.524 . S
C2914 C2915 1.415 . S
C2915 H2885 0.950 . S
C2915 C2910 1.363 . S
C2915 C2914 1.415 . S
H2916 C2913 0.999 . S
H2917 C2898 0.913 . S
H2918 C2936 0.951 . S
H2919 C2938 0.951 . S
H2920 C2940 0.950 . S
H2921 C2941 0.950 . S
H2922 C2943 0.950 . S
H2923 C2946 0.950 . S
H2924 C2947 0.950 . S
H2925 C2949 0.950 . S
H2926 C2950 0.950 . S
H2927 C2951 0.951 . S
H2928 C2953 0.951 . S
H2929 C2955 0.950 . S
H2930 C2956 0.950 . S
H2931 C2958 0.950 . S
H2932 C2961 0.950 . S
H2933 C2962 0.950 . S
H2934 C2964 0.950 . S
H2935 C2965 0.950 . S
C2936 H2918 0.951 . S
C2936 C2937 1.366 . S
C2936 C2938 1.388 . S
C2937 C2936 1.366 . S
C2937 C2941 1.385 . S
C2938 H2919 0.951 . S
C2938 C2936 1.388 . S
C2938 C2939 1.366 . S
C2939 C2938 1.366 . S
C2939 C2940 1.414 . S
C2939 C2942 1.499 . S
C2940 H2920 0.950 . S
C2940 C2939 1.414 . S
C2940 C2941 1.374 . S
C2941 H2921 0.950 . S
C2941 C2937 1.385 . S
C2941 C2940 1.374 . S
C2942 C2939 1.499 . S
C2942 C2943 1.373 . S
C2942 C2944 1.389 . S
C2943 H2922 0.950 . S
C2943 C2942 1.373 . S
C2943 C2959 1.377 . S
C2944 C2942 1.389 . S
C2944 C2945 1.524 . S
C2944 C2958 1.377 . S
C2945 C2944 1.524 . S
C2945 C2946 1.397 . S
C2945 C2950 1.363 . S
C2946 H2923 0.950 . S
C2946 C2945 1.397 . S
C2946 C2947 1.334 . S
C2947 H2924 0.950 . S
C2947 C2946 1.334 . S
C2947 C2948 1.287 . S
C2948 C2947 1.287 . S
C2948 C2949 1.524 . S
C2948 H2967 0.913 . S
C2949 H2925 0.950 . S
C2949 C2948 1.524 . S
C2949 C2950 1.415 . S
C2950 H2926 0.950 . S
C2950 C2945 1.363 . S
C2950 C2949 1.415 . S
C2951 H2927 0.951 . S
C2951 C2952 1.366 . S
C2951 C2953 1.388 . S
C2952 C2951 1.366 . S
C2952 C2956 1.385 . S
C2953 H2928 0.951 . S
C2953 C2951 1.388 . S
C2953 C2954 1.366 . S
C2954 C2953 1.366 . S
C2954 C2955 1.414 . S
C2954 C2957 1.499 . S
C2955 H2929 0.950 . S
C2955 C2954 1.414 . S
C2955 C2956 1.374 . S
C2956 H2930 0.950 . S
C2956 C2952 1.385 . S
C2956 C2955 1.374 . S
C2957 C2954 1.499 . S
C2957 C2958 1.373 . S
C2957 C2959 1.389 . S
C2958 H2931 0.950 . S
C2958 C2944 1.377 . S
C2958 C2957 1.373 . S
C2959 C2943 1.377 . S
C2959 C2957 1.389 . S
C2959 C2960 1.524 . S
C2960 C2959 1.524 . S
C2960 C2961 1.397 . S
C2960 C2965 1.363 . S
C2961 H2932 0.950 . S
C2961 C2960 1.397 . S
C2961 C2962 1.334 . S
C2962 H2933 0.950 . S
C2962 C2961 1.334 . S
C2962 C2963 1.287 . S
C2963 C2962 1.287 . S
C2963 C2964 1.524 . S
C2963 H2966 0.999 . S
C2964 H2934 0.950 . S
C2964 C2963 1.524 . S
C2964 C2965 1.415 . S
C2965 H2935 0.950 . S
C2965 C2960 1.363 . S
C2965 C2964 1.415 . S
H2966 C2963 0.999 . S
H2967 C2948 0.913 . S
H2968 C2986 0.951 . S
H2969 C2988 0.951 . S
H2970 C2990 0.950 . S
H2971 C2991 0.950 . S
H2972 C2993 0.950 . S
H2973 C2996 0.950 . S
H2974 C2997 0.950 . S
H2975 C2999 0.950 . S
H2976 C3000 0.950 . S
H2977 C3001 0.951 . S
H2978 C3003 0.951 . S
H2979 C3005 0.950 . S
H2980 C3006 0.950 . S
H2981 C3008 0.950 . S
H2982 C3011 0.950 . S
H2983 C3012 0.950 . S
H2984 C3014 0.950 . S
H2985 C3015 0.950 . S
C2986 H2968 0.951 . S
C2986 C2987 1.366 . S
C2986 C2988 1.388 . S
C2987 C2986 1.366 . S
C2987 C2991 1.385 . S
C2988 H2969 0.951 . S
C2988 C2986 1.388 . S
C2988 C2989 1.366 . S
C2989 C2988 1.366 . S
C2989 C2990 1.414 . S
C2989 C2992 1.499 . S
C2990 H2970 0.950 . S
C2990 C2989 1.414 . S
C2990 C2991 1.374 . S
C2991 H2971 0.950 . S
C2991 C2987 1.385 . S
C2991 C2990 1.374 . S
C2992 C2989 1.499 . S
C2992 C2993 1.373 . S
C2992 C2994 1.389 . S
C2993 H2972 0.950 . S
C2993 C2992 1.373 . S
C2993 C3009 1.377 . S
C2994 C2992 1.389 . S
C2994 C2995 1.524 . S
C2994 C3008 1.377 . S
C2995 C2994 1.524 . S
C2995 C2996 1.397 . S
C2995 C3000 1.363 . S
C2996 H2973 0.950 . S
C2996 C2995 1.397 . S
C2996 C2997 1.334 . S
C2997 H2974 0.950 . S
C2997 C2996 1.334 . S
C2997 C2998 1.287 . S
C2998 C2997 1.287 . S
C2998 C2999 1.524 . S
C2998 H3017 0.913 . S
C2999 H2975 0.950 . S
C2999 C2998 1.524 . S
C2999 C3000 1.415 . S
C3000 H2976 0.950 . S
C3000 C2995 1.363 . S
C3000 C2999 1.415 . S
C3001 H2977 0.951 . S
C3001 C3002 1.366 . S
C3001 C3003 1.388 . S
C3002 C3001 1.366 . S
C3002 C3006 1.385 . S
C3003 H2978 0.951 . S
C3003 C3001 1.388 . S
C3003 C3004 1.366 . S
C3004 C3003 1.366 . S
C3004 C3005 1.414 . S
C3004 C3007 1.499 . S
C3005 H2979 0.950 . S
C3005 C3004 1.414 . S
C3005 C3006 1.374 . S
C3006 H2980 0.950 . S
C3006 C3002 1.385 . S
C3006 C3005 1.374 . S
C3007 C3004 1.499 . S
C3007 C3008 1.373 . S
C3007 C3009 1.389 . S
C3008 H2981 0.950 . S
C3008 C2994 1.377 . S
C3008 C3007 1.373 . S
C3009 C2993 1.377 . S
C3009 C3007 1.389 . S
C3009 C3010 1.524 . S
C3010 C3009 1.524 . S
C3010 C3011 1.397 . S
C3010 C3015 1.363 . S
C3011 H2982 0.950 . S
C3011 C3010 1.397 . S
C3011 C3012 1.334 . S
C3012 H2983 0.950 . S
C3012 C3011 1.334 . S
C3012 C3013 1.287 . S
C3013 C3012 1.287 . S
C3013 C3014 1.524 . S
C3013 H3016 0.999 . S
C3014 H2984 0.950 . S
C3014 C3013 1.524 . S
C3014 C3015 1.415 . S
C3015 H2985 0.950 . S
C3015 C3010 1.363 . S
C3015 C3014 1.415 . S
H3016 C3013 0.999 . S
H3017 C2998 0.913 . S
H3018 C3036 0.951 . S
H3019 C3038 0.951 . S
H3020 C3040 0.950 . S
H3021 C3041 0.950 . S
H3022 C3043 0.950 . S
H3023 C3046 0.950 . S
H3024 C3047 0.950 . S
H3025 C3049 0.950 . S
H3026 C3050 0.950 . S
H3027 C3051 0.951 . S
H3028 C3053 0.951 . S
H3029 C3055 0.950 . S
H3030 C3056 0.950 . S
H3031 C3058 0.950 . S
H3032 C3061 0.950 . S
H3033 C3062 0.950 . S
H3034 C3064 0.950 . S
H3035 C3065 0.950 . S
C3036 H3018 0.951 . S
C3036 C3037 1.366 . S
C3036 C3038 1.388 . S
C3037 C3036 1.366 . S
C3037 C3041 1.385 . S
C3038 H3019 0.951 . S
C3038 C3036 1.388 . S
C3038 C3039 1.366 . S
C3039 C3038 1.366 . S
C3039 C3040 1.414 . S
C3039 C3042 1.499 . S
C3040 H3020 0.950 . S
C3040 C3039 1.414 . S
C3040 C3041 1.374 . S
C3041 H3021 0.950 . S
C3041 C3037 1.385 . S
C3041 C3040 1.374 . S
C3042 C3039 1.499 . S
C3042 C3043 1.373 . S
C3042 C3044 1.389 . S
C3043 H3022 0.950 . S
C3043 C3042 1.373 . S
C3043 C3059 1.377 . S
C3044 C3042 1.389 . S
C3044 C3045 1.524 . S
C3044 C3058 1.377 . S
C3045 C3044 1.524 . S
C3045 C3046 1.397 . S
C3045 C3050 1.363 . S
C3046 H3023 0.950 . S
C3046 C3045 1.397 . S
C3046 C3047 1.334 . S
C3047 H3024 0.950 . S
C3047 C3046 1.334 . S
C3047 C3048 1.287 . S
C3048 C3047 1.287 . S
C3048 C3049 1.524 . S
C3048 H3067 0.913 . S
C3049 H3025 0.950 . S
C3049 C3048 1.524 . S
C3049 C3050 1.415 . S
C3050 H3026 0.950 . S
C3050 C3045 1.363 . S
C3050 C3049 1.415 . S
C3051 H3027 0.951 . S
C3051 C3052 1.366 . S
C3051 C3053 1.388 . S
C3052 C3051 1.366 . S
C3052 C3056 1.385 . S
C3053 H3028 0.951 . S
C3053 C3051 1.388 . S
C3053 C3054 1.366 . S
C3054 C3053 1.366 . S
C3054 C3055 1.414 . S
C3054 C3057 1.499 . S
C3055 H3029 0.950 . S
C3055 C3054 1.414 . S
C3055 C3056 1.374 . S
C3056 H3030 0.950 . S
C3056 C3052 1.385 . S
C3056 C3055 1.374 . S
C3057 C3054 1.499 . S
C3057 C3058 1.373 . S
C3057 C3059 1.389 . S
C3058 H3031 0.950 . S
C3058 C3044 1.377 . S
C3058 C3057 1.373 . S
C3059 C3043 1.377 . S
C3059 C3057 1.389 . S
C3059 C3060 1.524 . S
C3060 C3059 1.524 . S
C3060 C3061 1.397 . S
C3060 C3065 1.363 . S
C3061 H3032 0.950 . S
C3061 C3060 1.397 . S
C3061 C3062 1.334 . S
C3062 H3033 0.950 . S
C3062 C3061 1.334 . S
C3062 C3063 1.287 . S
C3063 C3062 1.287 . S
C3063 C3064 1.524 . S
C3063 H3066 0.999 . S
C3064 H3034 0.950 . S
C3064 C3063 1.524 . S
C3064 C3065 1.415 . S
C3065 H3035 0.950 . S
C3065 C3060 1.363 . S
C3065 C3064 1.415 . S
H3066 C3063 0.999 . S
H3067 C3048 0.913 . S
H3068 C3086 0.951 . S
H3069 C3088 0.951 . S
H3070 C3090 0.950 . S
H3071 C3091 0.950 . S
H3072 C3093 0.950 . S
H3073 C3096 0.950 . S
H3074 C3097 0.950 . S
H3075 C3099 0.950 . S
H3076 C3100 0.950 . S
H3077 C3101 0.951 . S
H3078 C3103 0.951 . S
H3079 C3105 0.950 . S
H3080 C3106 0.950 . S
H3081 C3108 0.950 . S
H3082 C3111 0.950 . S
H3083 C3112 0.950 . S
H3084 C3114 0.950 . S
H3085 C3115 0.950 . S
C3086 H3068 0.951 . S
C3086 C3087 1.366 . S
C3086 C3088 1.388 . S
C3087 C3086 1.366 . S
C3087 C3091 1.385 . S
C3088 H3069 0.951 . S
C3088 C3086 1.388 . S
C3088 C3089 1.366 . S
C3089 C3088 1.366 . S
C3089 C3090 1.414 . S
C3089 C3092 1.499 . S
C3090 H3070 0.950 . S
C3090 C3089 1.414 . S
C3090 C3091 1.374 . S
C3091 H3071 0.950 . S
C3091 C3087 1.385 . S
C3091 C3090 1.374 . S
C3092 C3089 1.499 . S
C3092 C3093 1.373 . S
C3092 C3094 1.389 . S
C3093 H3072 0.950 . S
C3093 C3092 1.373 . S
C3093 C3109 1.377 . S
C3094 C3092 1.389 . S
C3094 C3095 1.524 . S
C3094 C3108 1.377 . S
C3095 C3094 1.524 . S
C3095 C3096 1.397 . S
C3095 C3100 1.363 . S
C3096 H3073 0.950 . S
C3096 C3095 1.397 . S
C3096 C3097 1.334 . S
C3097 H3074 0.950 . S
C3097 C3096 1.334 . S
C3097 C3098 1.287 . S
C3098 C3097 1.287 . S
C3098 C3099 1.524 . S
C3098 H3117 0.913 . S
C3099 H3075 0.950 . S
C3099 C3098 1.524 . S
C3099 C3100 1.415 . S
C3100 H3076 0.950 . S
C3100 C3095 1.363 . S
C3100 C3099 1.415 . S
C3101 H3077 0.951 . S
C3101 C3102 1.366 . S
C3101 C3103 1.388 . S
C3102 C3101 1.366 . S
C3102 C3106 1.385 . S
C3103 H3078 0.951 . S
C3103 C3101 1.388 . S
C3103 C3104 1.366 . S
C3104 C3103 1.366 . S
C3104 C3105 1.414 . S
C3104 C3107 1.499 . S
C3105 H3079 0.950 . S
C3105 C3104 1.414 . S
C3105 C3106 1.374 . S
C3106 H3080 0.950 . S
C3106 C3102 1.385 . S
C3106 C3105 1.374 . S
C3107 C3104 1.499 . S
C3107 C3108 1.373 . S
C3107 C3109 1.389 . S
C3108 H3081 0.950 . S
C3108 C3094 1.377 . S
C3108 C3107 1.373 . S
C3109 C3093 1.377 . S
C3109 C3107 1.389 . S
C3109 C3110 1.524 . S
C3110 C3109 1.524 . S
C3110 C3111 1.397 . S
C3110 C3115 1.363 . S
C3111 H3082 0.950 . S
C3111 C3110 1.397 . S
C3111 C3112 1.334 . S
C3112 H3083 0.950 . S
C3112 C3111 1.334 . S
C3112 C3113 1.287 . S
C3113 C3112 1.287 . S
C3113 C3114 1.524 . S
C3113 H3116 0.999 . S
C3114 H3084 0.950 . S
C3114 C3113 1.524 . S
C3114 C3115 1.415 . S
C3115 H3085 0.950 . S
C3115 C3110 1.363 . S
C3115 C3114 1.415 . S
H3116 C3113 0.999 . S
H3117 C3098 0.913 . S
H3118 C3136 0.951 . S
H3119 C3138 0.951 . S
H3120 C3140 0.950 . S
H3121 C3141 0.950 . S
H3122 C3143 0.950 . S
H3123 C3146 0.950 . S
H3124 C3147 0.950 . S
H3125 C3149 0.950 . S
H3126 C3150 0.950 . S
H3127 C3151 0.951 . S
H3128 C3153 0.951 . S
H3129 C3155 0.950 . S
H3130 C3156 0.950 . S
H3131 C3158 0.950 . S
H3132 C3161 0.950 . S
H3133 C3162 0.950 . S
H3134 C3164 0.950 . S
H3135 C3165 0.950 . S
C3136 H3118 0.951 . S
C3136 C3137 1.366 . S
C3136 C3138 1.388 . S
C3137 C3136 1.366 . S
C3137 C3141 1.385 . S
C3138 H3119 0.951 . S
C3138 C3136 1.388 . S
C3138 C3139 1.366 . S
C3139 C3138 1.366 . S
C3139 C3140 1.414 . S
C3139 C3142 1.499 . S
C3140 H3120 0.950 . S
C3140 C3139 1.414 . S
C3140 C3141 1.374 . S
C3141 H3121 0.950 . S
C3141 C3137 1.385 . S
C3141 C3140 1.374 . S
C3142 C3139 1.499 . S
C3142 C3143 1.373 . S
C3142 C3144 1.389 . S
C3143 H3122 0.950 . S
C3143 C3142 1.373 . S
C3143 C3159 1.377 . S
C3144 C3142 1.389 . S
C3144 C3145 1.524 . S
C3144 C3158 1.377 . S
C3145 C3144 1.524 . S
C3145 C3146 1.397 . S
C3145 C3150 1.363 . S
C3146 H3123 0.950 . S
C3146 C3145 1.397 . S
C3146 C3147 1.334 . S
C3147 H3124 0.950 . S
C3147 C3146 1.334 . S
C3147 C3148 1.287 . S
C3148 C3147 1.287 . S
C3148 C3149 1.524 . S
C3148 H3167 0.913 . S
C3149 H3125 0.950 . S
C3149 C3148 1.524 . S
C3149 C3150 1.415 . S
C3150 H3126 0.950 . S
C3150 C3145 1.363 . S
C3150 C3149 1.415 . S
C3151 H3127 0.951 . S
C3151 C3152 1.366 . S
C3151 C3153 1.388 . S
C3152 C3151 1.366 . S
C3152 C3156 1.385 . S
C3153 H3128 0.951 . S
C3153 C3151 1.388 . S
C3153 C3154 1.366 . S
C3154 C3153 1.366 . S
C3154 C3155 1.414 . S
C3154 C3157 1.499 . S
C3155 H3129 0.950 . S
C3155 C3154 1.414 . S
C3155 C3156 1.374 . S
C3156 H3130 0.950 . S
C3156 C3152 1.385 . S
C3156 C3155 1.374 . S
C3157 C3154 1.499 . S
C3157 C3158 1.373 . S
C3157 C3159 1.389 . S
C3158 H3131 0.950 . S
C3158 C3144 1.377 . S
C3158 C3157 1.373 . S
C3159 C3143 1.377 . S
C3159 C3157 1.389 . S
C3159 C3160 1.524 . S
C3160 C3159 1.524 . S
C3160 C3161 1.397 . S
C3160 C3165 1.363 . S
C3161 H3132 0.950 . S
C3161 C3160 1.397 . S
C3161 C3162 1.334 . S
C3162 H3133 0.950 . S
C3162 C3161 1.334 . S
C3162 C3163 1.287 . S
C3163 C3162 1.287 . S
C3163 C3164 1.524 . S
C3163 H3166 0.999 . S
C3164 H3134 0.950 . S
C3164 C3163 1.524 . S
C3164 C3165 1.415 . S
C3165 H3135 0.950 . S
C3165 C3160 1.363 . S
C3165 C3164 1.415 . S
H3166 C3163 0.999 . S
H3167 C3148 0.913 . S
H3168 C3186 0.951 . S
H3169 C3188 0.951 . S
H3170 C3190 0.950 . S
H3171 C3191 0.950 . S
H3172 C3193 0.950 . S
H3173 C3196 0.950 . S
H3174 C3197 0.950 . S
H3175 C3199 0.950 . S
H3176 C3200 0.950 . S
H3177 C3201 0.951 . S
H3178 C3203 0.951 . S
H3179 C3205 0.950 . S
H3180 C3206 0.950 . S
H3181 C3208 0.950 . S
H3182 C3211 0.950 . S
H3183 C3212 0.950 . S
H3184 C3214 0.950 . S
H3185 C3215 0.950 . S
C3186 H3168 0.951 . S
C3186 C3187 1.366 . S
C3186 C3188 1.388 . S
C3187 C3186 1.366 . S
C3187 C3191 1.385 . S
C3188 H3169 0.951 . S
C3188 C3186 1.388 . S
C3188 C3189 1.366 . S
C3189 C3188 1.366 . S
C3189 C3190 1.414 . S
C3189 C3192 1.499 . S
C3190 H3170 0.950 . S
C3190 C3189 1.414 . S
C3190 C3191 1.374 . S
C3191 H3171 0.950 . S
C3191 C3187 1.385 . S
C3191 C3190 1.374 . S
C3192 C3189 1.499 . S
C3192 C3193 1.373 . S
C3192 C3194 1.389 . S
C3193 H3172 0.950 . S
C3193 C3192 1.373 . S
C3193 C3209 1.377 . S
C3194 C3192 1.389 . S
C3194 C3195 1.524 . S
C3194 C3208 1.377 . S
C3195 C3194 1.524 . S
C3195 C3196 1.397 . S
C3195 C3200 1.363 . S
C3196 H3173 0.950 . S
C3196 C3195 1.397 . S
C3196 C3197 1.334 . S
C3197 H3174 0.950 . S
C3197 C3196 1.334 . S
C3197 C3198 1.287 . S
C3198 C3197 1.287 . S
C3198 C3199 1.524 . S
C3198 H3217 0.913 . S
C3199 H3175 0.950 . S
C3199 C3198 1.524 . S
C3199 C3200 1.415 . S
C3200 H3176 0.950 . S
C3200 C3195 1.363 . S
C3200 C3199 1.415 . S
C3201 H3177 0.951 . S
C3201 C3202 1.366 . S
C3201 C3203 1.388 . S
C3202 C3201 1.366 . S
C3202 C3206 1.385 . S
C3203 H3178 0.951 . S
C3203 C3201 1.388 . S
C3203 C3204 1.366 . S
C3204 C3203 1.366 . S
C3204 C3205 1.414 . S
C3204 C3207 1.499 . S
C3205 H3179 0.950 . S
C3205 C3204 1.414 . S
C3205 C3206 1.374 . S
C3206 H3180 0.950 . S
C3206 C3202 1.385 . S
C3206 C3205 1.374 . S
C3207 C3204 1.499 . S
C3207 C3208 1.373 . S
C3207 C3209 1.389 . S
C3208 H3181 0.950 . S
C3208 C3194 1.377 . S
C3208 C3207 1.373 . S
C3209 C3193 1.377 . S
C3209 C3207 1.389 . S
C3209 C3210 1.524 . S
C3210 C3209 1.524 . S
C3210 C3211 1.397 . S
C3210 C3215 1.363 . S
C3211 H3182 0.950 . S
C3211 C3210 1.397 . S
C3211 C3212 1.334 . S
C3212 H3183 0.950 . S
C3212 C3211 1.334 . S
C3212 C3213 1.287 . S
C3213 C3212 1.287 . S
C3213 C3214 1.524 . S
C3213 H3216 0.999 . S
C3214 H3184 0.950 . S
C3214 C3213 1.524 . S
C3214 C3215 1.415 . S
C3215 H3185 0.950 . S
C3215 C3210 1.363 . S
C3215 C3214 1.415 . S
H3216 C3213 0.999 . S
H3217 C3198 0.913 . S
H3218 C3236 0.951 . S
H3219 C3238 0.951 . S
H3220 C3240 0.950 . S
H3221 C3241 0.950 . S
H3222 C3243 0.950 . S
H3223 C3246 0.950 . S
H3224 C3247 0.957 . S
H3225 C3249 0.950 . S
H3226 C3250 0.950 . S
H3227 C3251 0.951 . S
H3228 C3253 0.951 . S
H3229 C3255 0.950 . S
H3230 C3256 0.950 . S
H3231 C3258 0.950 . S
H3232 C3261 0.950 . S
H3233 C3262 0.950 . S
H3234 C3264 0.950 . S
H3235 C3265 0.950 . S
C3236 H3218 0.951 . S
C3236 C3237 1.366 . S
C3236 C3238 1.388 . S
C3237 C3236 1.366 . S
C3237 C3241 1.385 . S
C3238 H3219 0.951 . S
C3238 C3236 1.388 . S
C3238 C3239 1.366 . S
C3239 C3238 1.366 . S
C3239 C3240 1.414 . S
C3239 C3242 1.499 . S
C3240 H3220 0.950 . S
C3240 C3239 1.414 . S
C3240 C3241 1.374 . S
C3241 H3221 0.950 . S
C3241 C3237 1.385 . S
C3241 C3240 1.374 . S
C3242 C3239 1.499 . S
C3242 C3243 1.373 . S
C3242 C3244 1.389 . S
C3243 H3222 0.950 . S
C3243 C3242 1.373 . S
C3243 C3259 1.377 . S
C3244 C3242 1.389 . S
C3244 C3245 1.524 . S
C3244 C3258 1.377 . S
C3245 C3244 1.524 . S
C3245 C3246 1.397 . S
C3245 C3250 1.363 . S
C3246 H3223 0.950 . S
C3246 C3245 1.397 . S
C3246 C3247 1.326 1_554 S
C3247 H3224 0.957 . S
C3247 C3246 1.326 1_556 S
C3247 C3248 1.288 . S
C3248 C3247 1.288 . S
C3248 C3249 1.524 1_556 S
C3248 H3267 0.913 . S
C3249 H3225 0.950 . S
C3249 C3248 1.524 1_554 S
C3249 C3250 1.415 . S
C3250 H3226 0.950 . S
C3250 C3245 1.363 . S
C3250 C3249 1.415 . S
C3251 H3227 0.951 . S
C3251 C3252 1.366 . S
C3251 C3253 1.388 . S
C3252 C3251 1.366 . S
C3252 C3256 1.385 . S
C3253 H3228 0.951 . S
C3253 C3251 1.388 . S
C3253 C3254 1.366 . S
C3254 C3253 1.366 . S
C3254 C3255 1.414 . S
C3254 C3257 1.499 . S
C3255 H3229 0.950 . S
C3255 C3254 1.414 . S
C3255 C3256 1.374 . S
C3256 H3230 0.950 . S
C3256 C3252 1.385 . S
C3256 C3255 1.374 . S
C3257 C3254 1.499 . S
C3257 C3258 1.373 . S
C3257 C3259 1.389 . S
C3258 H3231 0.950 . S
C3258 C3244 1.377 . S
C3258 C3257 1.373 . S
C3259 C3243 1.377 . S
C3259 C3257 1.389 . S
C3259 C3260 1.524 . S
C3260 C3259 1.524 . S
C3260 C3261 1.397 . S
C3260 C3265 1.363 . S
C3261 H3232 0.950 . S
C3261 C3260 1.397 . S
C3261 C3262 1.334 . S
C3262 H3233 0.950 . S
C3262 C3261 1.334 . S
C3262 C3263 1.287 . S
C3263 C3262 1.287 . S
C3263 C3264 1.524 . S
C3263 H3266 0.999 . S
C3264 H3234 0.950 . S
C3264 C3263 1.524 . S
C3264 C3265 1.415 . S
C3265 H3235 0.950 . S
C3265 C3260 1.363 . S
C3265 C3264 1.415 . S
H3266 C3263 0.999 . S
H3267 C3248 0.913 . S
H3268 C3286 0.951 . S
H3269 C3288 0.951 . S
H3270 C3290 0.950 . S
H3271 C3291 0.950 . S
H3272 C3293 0.950 . S
H3273 C3296 0.950 . S
H3274 C3297 0.950 . S
H3275 C3299 0.950 . S
H3276 C3300 0.950 . S
H3277 C3301 0.951 . S
H3278 C3303 0.951 . S
H3279 C3305 0.950 . S
H3280 C3306 0.950 . S
H3281 C3308 0.950 . S
H3282 C3311 0.950 . S
H3283 C3312 0.950 . S
H3284 C3314 0.950 . S
H3285 C3315 0.950 . S
C3286 H3268 0.951 . S
C3286 C3287 1.366 . S
C3286 C3288 1.388 . S
C3287 C3286 1.366 . S
C3287 C3291 1.385 . S
C3288 H3269 0.951 . S
C3288 C3286 1.388 . S
C3288 C3289 1.366 . S
C3289 C3288 1.366 . S
C3289 C3290 1.414 . S
C3289 C3292 1.499 . S
C3290 H3270 0.950 . S
C3290 C3289 1.414 . S
C3290 C3291 1.374 . S
C3291 H3271 0.950 . S
C3291 C3287 1.385 . S
C3291 C3290 1.374 . S
C3292 C3289 1.499 . S
C3292 C3293 1.373 . S
C3292 C3294 1.389 . S
C3293 H3272 0.950 . S
C3293 C3292 1.373 . S
C3293 C3309 1.377 . S
C3294 C3292 1.389 . S
C3294 C3295 1.524 . S
C3294 C3308 1.377 . S
C3295 C3294 1.524 . S
C3295 C3296 1.397 . S
C3295 C3300 1.363 . S
C3296 H3273 0.950 . S
C3296 C3295 1.397 . S
C3296 C3297 1.334 . S
C3297 H3274 0.950 . S
C3297 C3296 1.334 . S
C3297 C3298 1.287 . S
C3298 C3297 1.287 . S
C3298 C3299 1.524 . S
C3298 H3317 0.962 . S
C3299 H3275 0.950 . S
C3299 C3298 1.524 . S
C3299 C3300 1.415 . S
C3300 H3276 0.950 . S
C3300 C3295 1.363 . S
C3300 C3299 1.415 . S
C3301 H3277 0.951 . S
C3301 C3302 1.366 . S
C3301 C3303 1.388 . S
C3302 C3301 1.366 . S
C3302 C3306 1.385 . S
C3303 H3278 0.951 . S
C3303 C3301 1.388 . S
C3303 C3304 1.366 . S
C3304 C3303 1.366 . S
C3304 C3305 1.414 . S
C3304 C3307 1.499 . S
C3305 H3279 0.950 . S
C3305 C3304 1.414 . S
C3305 C3306 1.374 . S
C3306 H3280 0.950 . S
C3306 C3302 1.385 . S
C3306 C3305 1.374 . S
C3307 C3304 1.499 . S
C3307 C3308 1.373 . S
C3307 C3309 1.389 . S
C3308 H3281 0.950 . S
C3308 C3294 1.377 . S
C3308 C3307 1.373 . S
C3309 C3293 1.377 . S
C3309 C3307 1.389 . S
C3309 C3310 1.524 . S
C3310 C3309 1.524 . S
C3310 C3311 1.397 . S
C3310 C3315 1.363 . S
C3311 H3282 0.950 . S
C3311 C3310 1.397 . S
C3311 C3312 1.334 . S
C3312 H3283 0.950 . S
C3312 C3311 1.334 . S
C3312 C3313 1.287 . S
C3313 C3312 1.287 . S
C3313 C3314 1.524 . S
C3313 H3316 0.999 . S
C3314 H3284 0.950 . S
C3314 C3313 1.524 . S
C3314 C3315 1.415 . S
C3315 H3285 0.950 . S
C3315 C3310 1.363 . S
C3315 C3314 1.415 . S
H3316 C3313 0.999 . S
H3317 C3298 0.962 . S
H3318 C3336 0.951 . S
H3319 C3338 0.951 . S
H3320 C3340 0.950 . S
H3321 C3341 0.950 . S
H3322 C3343 0.950 . S
H3323 C3346 0.950 . S
H3324 C3347 0.950 . S
H3325 C3349 0.950 . S
H3326 C3350 0.950 . S
H3327 C3351 0.951 . S
H3328 C3353 0.951 . S
H3329 C3355 0.950 . S
H3330 C3356 0.950 . S
H3331 C3358 0.950 . S
H3332 C3361 0.950 . S
H3333 C3362 0.950 . S
H3334 C3364 0.950 . S
H3335 C3365 0.950 . S
C3336 H3318 0.951 . S
C3336 C3337 1.366 . S
C3336 C3338 1.388 . S
C3337 C3336 1.366 . S
C3337 C3341 1.385 . S
C3338 H3319 0.951 . S
C3338 C3336 1.388 . S
C3338 C3339 1.366 . S
C3339 C3338 1.366 . S
C3339 C3340 1.414 . S
C3339 C3342 1.499 . S
C3340 H3320 0.950 . S
C3340 C3339 1.414 . S
C3340 C3341 1.374 . S
C3341 H3321 0.950 . S
C3341 C3337 1.385 . S
C3341 C3340 1.374 . S
C3342 C3339 1.499 . S
C3342 C3343 1.373 . S
C3342 C3344 1.389 . S
C3343 H3322 0.950 . S
C3343 C3342 1.373 . S
C3343 C3359 1.377 . S
C3344 C3342 1.389 . S
C3344 C3345 1.524 . S
C3344 C3358 1.377 . S
C3345 C3344 1.524 . S
C3345 C3346 1.397 1_556 S
C3345 C3350 1.363 . S
C3346 H3323 0.950 . S
C3346 C3345 1.397 1_554 S
C3346 C3347 1.334 . S
C3347 H3324 0.950 . S
C3347 C3346 1.334 . S
C3347 C3348 1.287 . S
C3348 C3347 1.287 . S
C3348 C3349 1.524 . S
C3348 H3367 0.913 . S
C3349 H3325 0.950 . S
C3349 C3348 1.524 . S
C3349 C3350 1.415 1_554 S
C3350 H3326 0.950 . S
C3350 C3345 1.363 . S
C3350 C3349 1.415 1_556 S
C3351 H3327 0.951 . S
C3351 C3352 1.366 . S
C3351 C3353 1.388 . S
C3352 C3351 1.366 . S
C3352 C3356 1.385 . S
C3353 H3328 0.951 . S
C3353 C3351 1.388 . S
C3353 C3354 1.366 . S
C3354 C3353 1.366 . S
C3354 C3355 1.414 . S
C3354 C3357 1.499 . S
C3355 H3329 0.950 . S
C3355 C3354 1.414 . S
C3355 C3356 1.374 . S
C3356 H3330 0.950 . S
C3356 C3352 1.385 . S
C3356 C3355 1.374 . S
C3357 C3354 1.499 . S
C3357 C3358 1.373 . S
C3357 C3359 1.389 . S
C3358 H3331 0.950 . S
C3358 C3344 1.377 . S
C3358 C3357 1.373 . S
C3359 C3343 1.377 . S
C3359 C3357 1.389 . S
C3359 C3360 1.524 . S
C3360 C3359 1.524 . S
C3360 C3361 1.397 . S
C3360 C3365 1.363 . S
C3361 H3332 0.950 . S
C3361 C3360 1.397 . S
C3361 C3362 1.334 . S
C3362 H3333 0.950 . S
C3362 C3361 1.334 . S
C3362 C3363 1.287 . S
C3363 C3362 1.287 . S
C3363 C3364 1.524 . S
C3363 H3366 0.999 . S
C3364 H3334 0.950 . S
C3364 C3363 1.524 . S
C3364 C3365 1.415 . S
C3365 H3335 0.950 . S
C3365 C3360 1.363 . S
C3365 C3364 1.415 . S
H3366 C3363 0.999 . S
H3367 C3348 0.913 . S
H3368 C3386 0.951 . S
H3369 C3388 0.951 . S
H3370 C3390 0.950 . S
H3371 C3391 0.973 . S
H3372 C3393 0.950 . S
H3373 C3396 0.950 . S
H3374 C3397 0.950 . S
H3375 C3399 0.950 . S
H3376 C3400 0.950 . S
H3377 C3401 0.951 . S
H3378 C3403 0.951 . S
H3379 C3405 0.950 . S
H3380 C3406 0.950 . S
H3381 C3408 0.950 . S
H3382 C3411 0.950 . S
H3383 C3412 0.950 . S
H3384 C3414 0.950 . S
H3385 C3415 0.950 . S
C3386 H3368 0.951 . S
C3386 C3387 1.366 . S
C3386 C3388 1.388 . S
C3387 C3386 1.366 . S
C3387 C3391 1.385 . S
C3388 H3369 0.951 . S
C3388 C3386 1.388 . S
C3388 C3389 1.366 . S
C3389 C3388 1.366 . S
C3389 C3390 1.414 . S
C3389 C3392 1.499 . S
C3390 H3370 0.950 . S
C3390 C3389 1.414 . S
C3390 C3391 1.374 . S
C3391 H3371 0.973 . S
C3391 C3387 1.385 . S
C3391 C3390 1.374 . S
C3392 C3389 1.499 . S
C3392 C3393 1.373 . S
C3392 C3394 1.389 . S
C3393 H3372 0.950 . S
C3393 C3392 1.373 . S
C3393 C3409 1.377 . S
C3394 C3392 1.389 . S
C3394 C3395 1.524 . S
C3394 C3408 1.377 . S
C3395 C3394 1.524 . S
C3395 C3396 1.397 1_556 S
C3395 C3400 1.363 . S
C3396 H3373 0.950 . S
C3396 C3395 1.397 1_554 S
C3396 C3397 1.334 . S
C3397 H3374 0.950 . S
C3397 C3396 1.334 . S
C3397 C3398 1.287 . S
C3398 C3397 1.287 . S
C3398 C3399 1.524 . S
C3398 H3417 0.913 . S
C3399 H3375 0.950 . S
C3399 C3398 1.524 . S
C3399 C3400 1.415 1_554 S
C3400 H3376 0.950 . S
C3400 C3395 1.363 . S
C3400 C3399 1.415 1_556 S
C3401 H3377 0.951 . S
C3401 C3402 1.366 . S
C3401 C3403 1.388 . S
C3402 C3401 1.366 . S
C3402 C3406 1.385 . S
C3403 H3378 0.951 . S
C3403 C3401 1.388 . S
C3403 C3404 1.366 . S
C3404 C3403 1.366 . S
C3404 C3405 1.414 . S
C3404 C3407 1.499 . S
C3405 H3379 0.950 . S
C3405 C3404 1.414 . S
C3405 C3406 1.374 . S
C3406 H3380 0.950 . S
C3406 C3402 1.385 . S
C3406 C3405 1.374 . S
C3407 C3404 1.499 . S
C3407 C3408 1.373 . S
C3407 C3409 1.389 . S
C3408 H3381 0.950 . S
C3408 C3394 1.377 . S
C3408 C3407 1.373 . S
C3409 C3393 1.377 . S
C3409 C3407 1.389 . S
C3409 C3410 1.524 . S
C3410 C3409 1.524 . S
C3410 C3411 1.397 . S
C3410 C3415 1.363 . S
C3411 H3382 0.950 . S
C3411 C3410 1.397 . S
C3411 C3412 1.334 . S
C3412 H3383 0.950 . S
C3412 C3411 1.334 . S
C3412 C3413 1.287 . S
C3413 C3412 1.287 . S
C3413 C3414 1.524 . S
C3413 H3416 0.999 . S
C3414 H3384 0.950 . S
C3414 C3413 1.524 . S
C3414 C3415 1.415 . S
C3415 H3385 0.950 . S
C3415 C3410 1.363 . S
C3415 C3414 1.415 . S
H3416 C3413 0.999 . S
H3417 C3398 0.913 . S
H3418 C3436 0.951 . S
H3419 C3438 0.951 1_554 S
H3420 C3440 0.950 . S
H3421 C3441 0.950 . S
H3422 C3443 0.950 . S
H3423 C3446 0.950 . S
H3424 C3447 0.950 . S
H3425 C3449 0.950 . S
H3426 C3450 0.950 1_554 S
H3427 C3451 0.951 . S
H3428 C3453 0.951 . S
H3429 C3455 0.950 . S
H3430 C3456 0.950 . S
H3431 C3458 0.950 . S
H3432 C3461 0.950 . S
H3433 C3462 0.950 . S
H3434 C3464 0.950 . S
H3435 C3465 0.950 . S
C3436 H3418 0.951 . S
C3436 C3437 1.366 1_554 S
C3436 C3438 1.388 1_554 S
C3437 C3436 1.366 1_556 S
C3437 C3441 1.385 . S
C3438 H3419 0.951 1_556 S
C3438 C3436 1.388 1_556 S
C3438 C3439 1.366 . S
C3439 C3438 1.366 . S
C3439 C3440 1.414 . S
C3439 C3442 1.499 . S
C3440 H3420 0.950 . S
C3440 C3439 1.414 . S
C3440 C3441 1.374 . S
C3441 H3421 0.950 . S
C3441 C3437 1.385 . S
C3441 C3440 1.374 . S
C3442 C3439 1.499 . S
C3442 C3443 1.373 . S
C3442 C3444 1.389 . S
C3443 H3422 0.950 . S
C3443 C3442 1.373 . S
C3443 C3459 1.377 . S
C3444 C3442 1.389 . S
C3444 C3445 1.524 . S
C3444 C3458 1.377 . S
C3445 C3444 1.524 . S
C3445 C3446 1.397 . S
C3445 C3450 1.363 . S
C3446 H3423 0.950 . S
C3446 C3445 1.397 . S
C3446 C3447 1.334 . S
C3447 H3424 0.950 . S
C3447 C3446 1.334 . S
C3447 C3448 1.287 . S
C3448 C3447 1.287 . S
C3448 C3449 1.524 1_556 S
C3448 H3467 0.913 1_556 S
C3449 H3425 0.950 . S
C3449 C3448 1.524 1_554 S
C3449 C3450 1.415 1_554 S
C3450 H3426 0.950 1_556 S
C3450 C3445 1.363 . S
C3450 C3449 1.415 1_556 S
C3451 H3427 0.951 . S
C3451 C3452 1.366 . S
C3451 C3453 1.388 . S
C3452 C3451 1.366 . S
C3452 C3456 1.385 . S
C3453 H3428 0.951 . S
C3453 C3451 1.388 . S
C3453 C3454 1.366 . S
C3454 C3453 1.366 . S
C3454 C3455 1.414 . S
C3454 C3457 1.499 . S
C3455 H3429 0.950 . S
C3455 C3454 1.414 . S
C3455 C3456 1.374 . S
C3456 H3430 0.950 . S
C3456 C3452 1.385 . S
C3456 C3455 1.374 . S
C3457 C3454 1.499 . S
C3457 C3458 1.373 . S
C3457 C3459 1.389 . S
C3458 H3431 0.950 . S
C3458 C3444 1.377 . S
C3458 C3457 1.373 . S
C3459 C3443 1.377 . S
C3459 C3457 1.389 . S
C3459 C3460 1.524 . S
C3460 C3459 1.524 . S
C3460 C3461 1.397 . S
C3460 C3465 1.363 . S
C3461 H3432 0.950 . S
C3461 C3460 1.397 . S
C3461 C3462 1.334 . S
C3462 H3433 0.950 . S
C3462 C3461 1.334 . S
C3462 C3463 1.287 . S
C3463 C3462 1.287 . S
C3463 C3464 1.524 . S
C3463 H3466 0.999 . S
C3464 H3434 0.950 . S
C3464 C3463 1.524 . S
C3464 C3465 1.415 . S
C3465 H3435 0.950 . S
C3465 C3460 1.363 . S
C3465 C3464 1.415 . S
H3466 C3463 0.999 . S
H3467 C3448 0.913 1_554 S
H3468 C3486 0.951 . S
H3469 C3488 0.951 . S
H3470 C3490 0.950 . S
H3471 C3491 0.950 . S
H3472 C3493 0.950 . S
H3473 C3496 0.950 . S
H3474 C3497 0.950 . S
H3475 C3499 0.955 . S
H3476 C3500 0.950 . S
H3477 C3501 0.951 . S
H3478 C3503 0.951 . S
H3479 C3505 0.950 . S
H3480 C3506 0.950 . S
H3481 C3508 0.950 . S
H3482 C3511 0.950 . S
H3483 C3512 0.950 . S
H3484 C3514 0.950 . S
H3485 C3515 0.950 . S
C3486 H3468 0.951 . S
C3486 C3487 1.366 . S
C3486 C3488 1.388 . S
C3487 C3486 1.366 . S
C3487 C3491 1.385 . S
C3488 H3469 0.951 . S
C3488 C3486 1.388 . S
C3488 C3489 1.366 . S
C3489 C3488 1.366 . S
C3489 C3490 1.414 . S
C3489 C3492 1.499 . S
C3490 H3470 0.950 . S
C3490 C3489 1.414 . S
C3490 C3491 1.374 . S
C3491 H3471 0.950 . S
C3491 C3487 1.385 . S
C3491 C3490 1.374 . S
C3492 C3489 1.499 . S
C3492 C3493 1.373 . S
C3492 C3494 1.389 . S
C3493 H3472 0.950 . S
C3493 C3492 1.373 . S
C3493 C3509 1.377 . S
C3494 C3492 1.389 . S
C3494 C3495 1.524 . S
C3494 C3508 1.377 . S
C3495 C3494 1.524 . S
C3495 C3496 1.397 1_556 S
C3495 C3500 1.363 . S
C3496 H3473 0.950 . S
C3496 C3495 1.397 1_554 S
C3496 C3497 1.334 . S
C3497 H3474 0.950 . S
C3497 C3496 1.334 . S
C3497 C3498 1.287 . S
C3498 C3497 1.287 . S
C3498 C3499 1.524 . S
C3498 H3517 0.913 . S
C3499 H3475 0.955 . S
C3499 C3498 1.524 . S
C3499 C3500 1.415 1_554 S
C3500 H3476 0.950 . S
C3500 C3495 1.363 . S
C3500 C3499 1.415 1_556 S
C3501 H3477 0.951 . S
C3501 C3502 1.366 . S
C3501 C3503 1.388 . S
C3502 C3501 1.366 . S
C3502 C3506 1.385 . S
C3503 H3478 0.951 . S
C3503 C3501 1.388 . S
C3503 C3504 1.366 . S
C3504 C3503 1.366 . S
C3504 C3505 1.414 . S
C3504 C3507 1.499 . S
C3505 H3479 0.950 . S
C3505 C3504 1.414 . S
C3505 C3506 1.374 . S
C3506 H3480 0.950 . S
C3506 C3502 1.385 . S
C3506 C3505 1.374 . S
C3507 C3504 1.499 . S
C3507 C3508 1.373 . S
C3507 C3509 1.389 . S
C3508 H3481 0.950 . S
C3508 C3494 1.377 . S
C3508 C3507 1.373 . S
C3509 C3493 1.377 . S
C3509 C3507 1.389 . S
C3509 C3510 1.524 . S
C3510 C3509 1.524 . S
C3510 C3511 1.397 . S
C3510 C3515 1.363 . S
C3511 H3482 0.950 . S
C3511 C3510 1.397 . S
C3511 C3512 1.334 . S
C3512 H3483 0.950 . S
C3512 C3511 1.334 . S
C3512 C3513 1.287 . S
C3513 C3512 1.287 . S
C3513 C3514 1.524 . S
C3513 H3516 0.999 . S
C3514 H3484 0.950 . S
C3514 C3513 1.524 . S
C3514 C3515 1.415 . S
C3515 H3485 0.950 . S
C3515 C3510 1.363 . S
C3515 C3514 1.415 . S
H3516 C3513 0.999 . S
H3517 C3498 0.913 . S
H3518 C3536 0.951 . S
H3519 C3538 0.951 1_554 S
H3520 C3540 0.950 . S
H3521 C3541 0.950 . S
H3522 C3543 0.950 . S
H3523 C3546 0.950 . S
H3524 C3547 0.950 . S
H3525 C3549 0.950 . S
H3526 C3550 0.950 . S
H3527 C3551 0.951 . S
H3528 C3553 0.951 . S
H3529 C3555 0.950 . S
H3530 C3556 0.950 . S
H3531 C3558 0.950 . S
H3532 C3561 0.950 . S
H3533 C3562 0.950 . S
H3534 C3564 0.950 . S
H3535 C3565 0.950 . S
C3536 H3518 0.951 . S
C3536 C3537 1.366 1_554 S
C3536 C3538 1.388 1_554 S
C3537 C3536 1.366 1_556 S
C3537 C3541 1.385 . S
C3538 H3519 0.951 1_556 S
C3538 C3536 1.388 1_556 S
C3538 C3539 1.366 . S
C3539 C3538 1.366 . S
C3539 C3540 1.414 . S
C3539 C3542 1.499 . S
C3540 H3520 0.950 . S
C3540 C3539 1.414 . S
C3540 C3541 1.374 . S
C3541 H3521 0.950 . S
C3541 C3537 1.385 . S
C3541 C3540 1.374 . S
C3542 C3539 1.499 . S
C3542 C3543 1.373 . S
C3542 C3544 1.389 . S
C3543 H3522 0.950 . S
C3543 C3542 1.373 . S
C3543 C3559 1.377 . S
C3544 C3542 1.389 . S
C3544 C3545 1.524 . S
C3544 C3558 1.377 . S
C3545 C3544 1.524 . S
C3545 C3546 1.397 . S
C3545 C3550 1.363 1_556 S
C3546 H3523 0.950 . S
C3546 C3545 1.397 . S
C3546 C3547 1.334 . S
C3547 H3524 0.950 . S
C3547 C3546 1.334 . S
C3547 C3548 1.287 1_556 S
C3548 C3547 1.287 1_554 S
C3548 C3549 1.524 . S
C3548 H3567 0.913 . S
C3549 H3525 0.950 . S
C3549 C3548 1.524 . S
C3549 C3550 1.415 . S
C3550 H3526 0.950 . S
C3550 C3545 1.363 1_554 S
C3550 C3549 1.415 . S
C3551 H3527 0.951 . S
C3551 C3552 1.366 . S
C3551 C3553 1.388 . S
C3552 C3551 1.366 . S
C3552 C3556 1.385 . S
C3553 H3528 0.951 . S
C3553 C3551 1.388 . S
C3553 C3554 1.366 . S
C3554 C3553 1.366 . S
C3554 C3555 1.414 . S
C3554 C3557 1.499 . S
C3555 H3529 0.950 . S
C3555 C3554 1.414 . S
C3555 C3556 1.374 . S
C3556 H3530 0.950 . S
C3556 C3552 1.385 . S
C3556 C3555 1.374 . S
C3557 C3554 1.499 . S
C3557 C3558 1.373 . S
C3557 C3559 1.389 . S
C3558 H3531 0.950 . S
C3558 C3544 1.377 . S
C3558 C3557 1.373 . S
C3559 C3543 1.377 . S
C3559 C3557 1.389 . S
C3559 C3560 1.524 . S
C3560 C3559 1.524 . S
C3560 C3561 1.397 . S
C3560 C3565 1.363 . S
C3561 H3532 0.950 . S
C3561 C3560 1.397 . S
C3561 C3562 1.334 . S
C3562 H3533 0.950 . S
C3562 C3561 1.334 . S
C3562 C3563 1.287 . S
C3563 C3562 1.287 . S
C3563 C3564 1.524 . S
C3563 H3566 0.999 . S
C3564 H3534 0.950 . S
C3564 C3563 1.524 . S
C3564 C3565 1.415 . S
C3565 H3535 0.950 . S
C3565 C3560 1.363 . S
C3565 C3564 1.415 . S
H3566 C3563 0.999 . S
H3567 C3548 0.913 . S
H3568 C3586 0.951 . S
H3569 C3588 0.951 . S
H3570 C3590 0.950 . S
H3571 C3591 0.950 . S
H3572 C3593 0.950 . S
H3573 C3596 0.950 . S
H3574 C3597 0.950 . S
H3575 C3599 0.950 . S
H3576 C3600 0.950 . S
H3577 C3601 0.951 . S
H3578 C3603 0.951 . S
H3579 C3605 0.950 . S
H3580 C3606 0.950 . S
H3581 C3608 0.950 . S
H3582 C3611 0.950 . S
H3583 C3612 0.950 . S
H3584 C3614 0.950 . S
H3585 C3615 0.950 . S
C3586 H3568 0.951 . S
C3586 C3587 1.366 . S
C3586 C3588 1.388 . S
C3587 C3586 1.366 . S
C3587 C3591 1.385 . S
C3588 H3569 0.951 . S
C3588 C3586 1.388 . S
C3588 C3589 1.366 . S
C3589 C3588 1.366 . S
C3589 C3590 1.414 . S
C3589 C3592 1.499 . S
C3590 H3570 0.950 . S
C3590 C3589 1.414 . S
C3590 C3591 1.374 . S
C3591 H3571 0.950 . S
C3591 C3587 1.385 . S
C3591 C3590 1.374 . S
C3592 C3589 1.499 . S
C3592 C3593 1.373 . S
C3592 C3594 1.389 . S
C3593 H3572 0.950 . S
C3593 C3592 1.373 . S
C3593 C3609 1.377 . S
C3594 C3592 1.389 . S
C3594 C3595 1.524 . S
C3594 C3608 1.377 . S
C3595 C3594 1.524 . S
C3595 C3596 1.397 . S
C3595 C3600 1.363 . S
C3596 H3573 0.950 . S
C3596 C3595 1.397 . S
C3596 C3597 1.334 . S
C3597 H3574 0.950 . S
C3597 C3596 1.334 . S
C3597 C3598 1.287 . S
C3598 C3597 1.287 . S
C3598 C3599 1.524 . S
C3598 H3617 0.913 . S
C3599 H3575 0.950 . S
C3599 C3598 1.524 . S
C3599 C3600 1.415 . S
C3600 H3576 0.950 . S
C3600 C3595 1.363 . S
C3600 C3599 1.415 . S
C3601 H3577 0.951 . S
C3601 C3602 1.366 . S
C3601 C3603 1.388 . S
C3602 C3601 1.366 . S
C3602 C3606 1.385 . S
C3603 H3578 0.951 . S
C3603 C3601 1.388 . S
C3603 C3604 1.366 . S
C3604 C3603 1.366 . S
C3604 C3605 1.414 . S
C3604 C3607 1.499 . S
C3605 H3579 0.950 . S
C3605 C3604 1.414 . S
C3605 C3606 1.374 . S
C3606 H3580 0.950 . S
C3606 C3602 1.385 . S
C3606 C3605 1.374 . S
C3607 C3604 1.499 . S
C3607 C3608 1.373 . S
C3607 C3609 1.389 . S
C3608 H3581 0.950 . S
C3608 C3594 1.377 . S
C3608 C3607 1.373 . S
C3609 C3593 1.377 . S
C3609 C3607 1.389 . S
C3609 C3610 1.524 . S
C3610 C3609 1.524 . S
C3610 C3611 1.397 . S
C3610 C3615 1.363 . S
C3611 H3582 0.950 . S
C3611 C3610 1.397 . S
C3611 C3612 1.334 1_556 S
C3612 H3583 0.950 . S
C3612 C3611 1.334 1_554 S
C3612 C3613 1.287 . S
C3613 C3612 1.287 . S
C3613 C3614 1.524 . S
C3613 H3616 0.999 . S
C3614 H3584 0.950 . S
C3614 C3613 1.524 . S
C3614 C3615 1.415 1_554 S
C3615 H3585 0.950 . S
C3615 C3610 1.363 . S
C3615 C3614 1.415 1_556 S
H3616 C3613 0.999 . S
H3617 C3598 0.913 . S
H3618 C3636 0.951 . S
H3619 C3638 0.951 . S
H3620 C3640 0.950 . S
H3621 C3641 0.950 . S
H3622 C3643 0.950 . S
H3623 C3646 0.950 . S
H3624 C3647 0.950 . S
H3625 C3649 0.950 . S
H3626 C3650 0.950 . S
H3627 C3651 0.951 . S
H3628 C3653 0.951 . S
H3629 C3655 0.950 . S
H3630 C3656 0.950 . S
H3631 C3658 0.950 . S
H3632 C3661 0.950 . S
H3633 C3662 0.950 . S
H3634 C3664 0.950 . S
H3635 C3665 0.950 . S
C3636 H3618 0.951 . S
C3636 C3637 1.366 . S
C3636 C3638 1.388 . S
C3637 C3636 1.366 . S
C3637 C3641 1.385 . S
C3638 H3619 0.951 . S
C3638 C3636 1.388 . S
C3638 C3639 1.366 . S
C3639 C3638 1.366 . S
C3639 C3640 1.414 . S
C3639 C3642 1.499 . S
C3640 H3620 0.950 . S
C3640 C3639 1.414 . S
C3640 C3641 1.374 . S
C3641 H3621 0.950 . S
C3641 C3637 1.385 . S
C3641 C3640 1.374 . S
C3642 C3639 1.499 . S
C3642 C3643 1.373 . S
C3642 C3644 1.389 . S
C3643 H3622 0.950 . S
C3643 C3642 1.373 . S
C3643 C3659 1.377 . S
C3644 C3642 1.389 . S
C3644 C3645 1.524 . S
C3644 C3658 1.377 . S
C3645 C3644 1.524 . S
C3645 C3646 1.397 . S
C3645 C3650 1.363 . S
C3646 H3623 0.950 . S
C3646 C3645 1.397 . S
C3646 C3647 1.334 . S
C3647 H3624 0.950 . S
C3647 C3646 1.334 . S
C3647 C3648 1.287 . S
C3648 C3647 1.287 . S
C3648 C3649 1.524 . S
C3648 H3667 0.913 . S
C3649 H3625 0.950 . S
C3649 C3648 1.524 . S
C3649 C3650 1.415 . S
C3650 H3626 0.950 . S
C3650 C3645 1.363 . S
C3650 C3649 1.415 . S
C3651 H3627 0.951 . S
C3651 C3652 1.366 . S
C3651 C3653 1.388 . S
C3652 C3651 1.366 . S
C3652 C3656 1.385 . S
C3653 H3628 0.951 . S
C3653 C3651 1.388 . S
C3653 C3654 1.366 . S
C3654 C3653 1.366 . S
C3654 C3655 1.414 . S
C3654 C3657 1.499 . S
C3655 H3629 0.950 . S
C3655 C3654 1.414 . S
C3655 C3656 1.374 . S
C3656 H3630 0.950 . S
C3656 C3652 1.385 . S
C3656 C3655 1.374 . S
C3657 C3654 1.499 . S
C3657 C3658 1.373 . S
C3657 C3659 1.389 . S
C3658 H3631 0.950 . S
C3658 C3644 1.377 . S
C3658 C3657 1.373 . S
C3659 C3643 1.377 . S
C3659 C3657 1.389 . S
C3659 C3660 1.524 . S
C3660 C3659 1.524 . S
C3660 C3661 1.397 . S
C3660 C3665 1.363 . S
C3661 H3632 0.950 . S
C3661 C3660 1.397 . S
C3661 C3662 1.334 . S
C3662 H3633 0.950 . S
C3662 C3661 1.334 . S
C3662 C3663 1.287 . S
C3663 C3662 1.287 . S
C3663 C3664 1.524 . S
C3663 H3666 0.999 . S
C3664 H3634 0.950 . S
C3664 C3663 1.524 . S
C3664 C3665 1.415 . S
C3665 H3635 0.950 . S
C3665 C3660 1.363 . S
C3665 C3664 1.415 . S
H3666 C3663 0.999 . S
H3667 C3648 0.913 . S
H3668 C3686 0.951 . S
H3669 C3688 0.951 . S
H3670 C3690 0.950 . S
H3671 C3691 0.950 . S
H3672 C3693 0.950 . S
H3673 C3696 0.950 . S
H3674 C3697 0.950 . S
H3675 C3699 0.950 . S
H3676 C3700 0.950 . S
H3677 C3701 0.951 . S
H3678 C3703 0.951 . S
H3679 C3705 0.950 . S
H3680 C3706 0.950 . S
H3681 C3708 0.950 . S
H3682 C3711 0.950 . S
H3683 C3712 0.950 . S
H3684 C3714 0.950 . S
H3685 C3715 0.950 . S
C3686 H3668 0.951 . S
C3686 C3687 1.366 . S
C3686 C3688 1.388 . S
C3687 C3686 1.366 . S
C3687 C3691 1.385 . S
C3688 H3669 0.951 . S
C3688 C3686 1.388 . S
C3688 C3689 1.366 . S
C3689 C3688 1.366 . S
C3689 C3690 1.414 . S
C3689 C3692 1.499 . S
C3690 H3670 0.950 . S
C3690 C3689 1.414 . S
C3690 C3691 1.374 . S
C3691 H3671 0.950 . S
C3691 C3687 1.385 . S
C3691 C3690 1.374 . S
C3692 C3689 1.499 . S
C3692 C3693 1.373 . S
C3692 C3694 1.389 . S
C3693 H3672 0.950 . S
C3693 C3692 1.373 . S
C3693 C3709 1.377 . S
C3694 C3692 1.389 . S
C3694 C3695 1.524 . S
C3694 C3708 1.377 . S
C3695 C3694 1.524 . S
C3695 C3696 1.397 . S
C3695 C3700 1.363 . S
C3696 H3673 0.950 . S
C3696 C3695 1.397 . S
C3696 C3697 1.334 . S
C3697 H3674 0.950 . S
C3697 C3696 1.334 . S
C3697 C3698 1.287 . S
C3698 C3697 1.287 . S
C3698 C3699 1.524 . S
C3698 H3717 0.913 . S
C3699 H3675 0.950 . S
C3699 C3698 1.524 . S
C3699 C3700 1.415 . S
C3700 H3676 0.950 . S
C3700 C3695 1.363 . S
C3700 C3699 1.415 . S
C3701 H3677 0.951 . S
C3701 C3702 1.366 . S
C3701 C3703 1.388 . S
C3702 C3701 1.366 . S
C3702 C3706 1.385 . S
C3703 H3678 0.951 . S
C3703 C3701 1.388 . S
C3703 C3704 1.366 . S
C3704 C3703 1.366 . S
C3704 C3705 1.414 . S
C3704 C3707 1.499 . S
C3705 H3679 0.950 . S
C3705 C3704 1.414 . S
C3705 C3706 1.374 . S
C3706 H3680 0.950 . S
C3706 C3702 1.385 . S
C3706 C3705 1.374 . S
C3707 C3704 1.499 . S
C3707 C3708 1.373 . S
C3707 C3709 1.389 . S
C3708 H3681 0.950 . S
C3708 C3694 1.377 . S
C3708 C3707 1.373 . S
C3709 C3693 1.377 . S
C3709 C3707 1.389 . S
C3709 C3710 1.524 . S
C3710 C3709 1.524 . S
C3710 C3711 1.397 . S
C3710 C3715 1.363 . S
C3711 H3682 0.950 . S
C3711 C3710 1.397 . S
C3711 C3712 1.334 . S
C3712 H3683 0.950 . S
C3712 C3711 1.334 . S
C3712 C3713 1.287 . S
C3713 C3712 1.287 . S
C3713 C3714 1.524 . S
C3713 H3716 0.999 . S
C3714 H3684 0.950 . S
C3714 C3713 1.524 . S
C3714 C3715 1.415 . S
C3715 H3685 0.950 . S
C3715 C3710 1.363 . S
C3715 C3714 1.415 . S
H3716 C3713 0.999 . S
H3717 C3698 0.913 . S
H3718 C3736 0.951 . S
H3719 C3738 0.951 . S
H3720 C3740 0.950 . S
H3721 C3741 0.950 . S
H3722 C3743 0.950 . S
H3723 C3746 0.950 . S
H3724 C3747 0.950 . S
H3725 C3749 0.950 . S
H3726 C3750 0.950 . S
H3727 C3751 0.951 . S
H3728 C3753 0.951 . S
H3729 C3755 0.950 . S
H3730 C3756 0.950 . S
H3731 C3758 0.950 . S
H3732 C3761 0.950 . S
H3733 C3762 0.950 . S
H3734 C3764 0.950 . S
H3735 C3765 0.950 . S
C3736 H3718 0.951 . S
C3736 C3737 1.366 . S
C3736 C3738 1.388 . S
C3737 C3736 1.366 . S
C3737 C3741 1.385 . S
C3738 H3719 0.951 . S
C3738 C3736 1.388 . S
C3738 C3739 1.366 . S
C3739 C3738 1.366 . S
C3739 C3740 1.414 . S
C3739 C3742 1.499 . S
C3740 H3720 0.950 . S
C3740 C3739 1.414 . S
C3740 C3741 1.374 . S
C3741 H3721 0.950 . S
C3741 C3737 1.385 . S
C3741 C3740 1.374 . S
C3742 C3739 1.499 . S
C3742 C3743 1.373 . S
C3742 C3744 1.389 . S
C3743 H3722 0.950 . S
C3743 C3742 1.373 . S
C3743 C3759 1.377 . S
C3744 C3742 1.389 . S
C3744 C3745 1.524 . S
C3744 C3758 1.377 . S
C3745 C3744 1.524 . S
C3745 C3746 1.397 . S
C3745 C3750 1.363 . S
C3746 H3723 0.950 . S
C3746 C3745 1.397 . S
C3746 C3747 1.334 . S
C3747 H3724 0.950 . S
C3747 C3746 1.334 . S
C3747 C3748 1.287 . S
C3748 C3747 1.287 . S
C3748 C3749 1.524 . S
C3748 H3767 0.913 . S
C3749 H3725 0.950 . S
C3749 C3748 1.524 . S
C3749 C3750 1.415 . S
C3750 H3726 0.950 . S
C3750 C3745 1.363 . S
C3750 C3749 1.415 . S
C3751 H3727 0.951 . S
C3751 C3752 1.366 . S
C3751 C3753 1.388 . S
C3752 C3751 1.366 . S
C3752 C3756 1.385 . S
C3753 H3728 0.951 . S
C3753 C3751 1.388 . S
C3753 C3754 1.366 . S
C3754 C3753 1.366 . S
C3754 C3755 1.414 . S
C3754 C3757 1.499 . S
C3755 H3729 0.950 . S
C3755 C3754 1.414 . S
C3755 C3756 1.374 . S
C3756 H3730 0.950 . S
C3756 C3752 1.385 . S
C3756 C3755 1.374 . S
C3757 C3754 1.499 . S
C3757 C3758 1.373 . S
C3757 C3759 1.389 . S
C3758 H3731 0.950 . S
C3758 C3744 1.377 . S
C3758 C3757 1.373 . S
C3759 C3743 1.377 . S
C3759 C3757 1.389 . S
C3759 C3760 1.524 . S
C3760 C3759 1.524 . S
C3760 C3761 1.397 . S
C3760 C3765 1.363 . S
C3761 H3732 0.950 . S
C3761 C3760 1.397 . S
C3761 C3762 1.334 . S
C3762 H3733 0.950 . S
C3762 C3761 1.334 . S
C3762 C3763 1.287 . S
C3763 C3762 1.287 . S
C3763 C3764 1.524 . S
C3763 H3766 0.999 . S
C3764 H3734 0.950 . S
C3764 C3763 1.524 . S
C3764 C3765 1.415 . S
C3765 H3735 0.950 . S
C3765 C3760 1.363 . S
C3765 C3764 1.415 . S
H3766 C3763 0.999 . S
H3767 C3748 0.913 . S
H3768 C3786 0.951 . S
H3769 C3788 0.951 . S
H3770 C3790 0.950 . S
H3771 C3791 0.950 . S
H3772 C3793 0.950 . S
H3773 C3796 0.950 . S
H3774 C3797 0.950 . S
H3775 C3799 0.950 . S
H3776 C3800 0.950 . S
H3777 C3801 0.951 . S
H3778 C3803 0.951 . S
H3779 C3805 0.950 . S
H3780 C3806 0.950 . S
H3781 C3808 0.950 . S
H3782 C3811 0.950 . S
H3783 C3812 0.950 . S
H3784 C3814 0.950 . S
H3785 C3815 0.950 . S
C3786 H3768 0.951 . S
C3786 C3787 1.366 . S
C3786 C3788 1.388 . S
C3787 C3786 1.366 . S
C3787 C3791 1.385 . S
C3788 H3769 0.951 . S
C3788 C3786 1.388 . S
C3788 C3789 1.366 . S
C3789 C3788 1.366 . S
C3789 C3790 1.414 . S
C3789 C3792 1.499 . S
C3790 H3770 0.950 . S
C3790 C3789 1.414 . S
C3790 C3791 1.374 . S
C3791 H3771 0.950 . S
C3791 C3787 1.385 . S
C3791 C3790 1.374 . S
C3792 C3789 1.499 . S
C3792 C3793 1.373 . S
C3792 C3794 1.389 . S
C3793 H3772 0.950 . S
C3793 C3792 1.373 . S
C3793 C3809 1.377 . S
C3794 C3792 1.389 . S
C3794 C3795 1.524 . S
C3794 C3808 1.377 . S
C3795 C3794 1.524 . S
C3795 C3796 1.397 . S
C3795 C3800 1.363 . S
C3796 H3773 0.950 . S
C3796 C3795 1.397 . S
C3796 C3797 1.334 . S
C3797 H3774 0.950 . S
C3797 C3796 1.334 . S
C3797 C3798 1.287 . S
C3798 C3797 1.287 . S
C3798 C3799 1.524 . S
C3798 H3817 0.913 . S
C3799 H3775 0.950 . S
C3799 C3798 1.524 . S
C3799 C3800 1.415 . S
C3800 H3776 0.950 . S
C3800 C3795 1.363 . S
C3800 C3799 1.415 . S
C3801 H3777 0.951 . S
C3801 C3802 1.366 . S
C3801 C3803 1.388 . S
C3802 C3801 1.366 . S
C3802 C3806 1.385 . S
C3803 H3778 0.951 . S
C3803 C3801 1.388 . S
C3803 C3804 1.366 . S
C3804 C3803 1.366 . S
C3804 C3805 1.414 . S
C3804 C3807 1.499 . S
C3805 H3779 0.950 . S
C3805 C3804 1.414 . S
C3805 C3806 1.374 . S
C3806 H3780 0.950 . S
C3806 C3802 1.385 . S
C3806 C3805 1.374 . S
C3807 C3804 1.499 . S
C3807 C3808 1.373 . S
C3807 C3809 1.389 . S
C3808 H3781 0.950 . S
C3808 C3794 1.377 . S
C3808 C3807 1.373 . S
C3809 C3793 1.377 . S
C3809 C3807 1.389 . S
C3809 C3810 1.524 . S
C3810 C3809 1.524 . S
C3810 C3811 1.397 . S
C3810 C3815 1.363 . S
C3811 H3782 0.950 . S
C3811 C3810 1.397 . S
C3811 C3812 1.334 . S
C3812 H3783 0.950 . S
C3812 C3811 1.334 . S
C3812 C3813 1.287 . S
C3813 C3812 1.287 . S
C3813 C3814 1.524 . S
C3813 H3816 0.999 . S
C3814 H3784 0.950 . S
C3814 C3813 1.524 . S
C3814 C3815 1.415 . S
C3815 H3785 0.950 . S
C3815 C3810 1.363 . S
C3815 C3814 1.415 . S
H3816 C3813 0.999 . S
H3817 C3798 0.913 . S
H3818 C3836 0.951 . S
H3819 C3838 0.951 . S
H3820 C3840 0.950 . S
H3821 C3841 0.950 . S
H3822 C3843 0.950 . S
H3823 C3846 0.950 . S
H3824 C3847 0.950 . S
H3825 C3849 0.950 . S
H3826 C3850 0.950 . S
H3827 C3851 0.951 . S
H3828 C3853 0.951 . S
H3829 C3855 0.950 . S
H3830 C3856 0.950 . S
H3831 C3858 0.950 . S
H3832 C3861 0.950 . S
H3833 C3862 0.950 . S
H3834 C3864 0.950 . S
H3835 C3865 0.950 . S
C3836 H3818 0.951 . S
C3836 C3837 1.366 . S
C3836 C3838 1.388 . S
C3837 C3836 1.366 . S
C3837 C3841 1.385 . S
C3838 H3819 0.951 . S
C3838 C3836 1.388 . S
C3838 C3839 1.366 . S
C3839 C3838 1.366 . S
C3839 C3840 1.414 . S
C3839 C3842 1.499 . S
C3840 H3820 0.950 . S
C3840 C3839 1.414 . S
C3840 C3841 1.374 . S
C3841 H3821 0.950 . S
C3841 C3837 1.385 . S
C3841 C3840 1.374 . S
C3842 C3839 1.499 . S
C3842 C3843 1.373 . S
C3842 C3844 1.389 . S
C3843 H3822 0.950 . S
C3843 C3842 1.373 . S
C3843 C3859 1.377 . S
C3844 C3842 1.389 . S
C3844 C3845 1.524 . S
C3844 C3858 1.377 . S
C3845 C3844 1.524 . S
C3845 C3846 1.397 . S
C3845 C3850 1.363 . S
C3846 H3823 0.950 . S
C3846 C3845 1.397 . S
C3846 C3847 1.334 . S
C3847 H3824 0.950 . S
C3847 C3846 1.334 . S
C3847 C3848 1.287 . S
C3848 C3847 1.287 . S
C3848 C3849 1.524 . S
C3848 H3867 0.913 . S
C3849 H3825 0.950 . S
C3849 C3848 1.524 . S
C3849 C3850 1.415 . S
C3850 H3826 0.950 . S
C3850 C3845 1.363 . S
C3850 C3849 1.415 . S
C3851 H3827 0.951 . S
C3851 C3852 1.366 . S
C3851 C3853 1.388 . S
C3852 C3851 1.366 . S
C3852 C3856 1.385 . S
C3853 H3828 0.951 . S
C3853 C3851 1.388 . S
C3853 C3854 1.366 . S
C3854 C3853 1.366 . S
C3854 C3855 1.414 . S
C3854 C3857 1.499 . S
C3855 H3829 0.950 . S
C3855 C3854 1.414 . S
C3855 C3856 1.374 . S
C3856 H3830 0.950 . S
C3856 C3852 1.385 . S
C3856 C3855 1.374 . S
C3857 C3854 1.499 . S
C3857 C3858 1.373 . S
C3857 C3859 1.389 . S
C3858 H3831 0.950 . S
C3858 C3844 1.377 . S
C3858 C3857 1.373 . S
C3859 C3843 1.377 . S
C3859 C3857 1.389 . S
C3859 C3860 1.524 . S
C3860 C3859 1.524 . S
C3860 C3861 1.397 . S
C3860 C3865 1.363 . S
C3861 H3832 0.950 . S
C3861 C3860 1.397 . S
C3861 C3862 1.334 . S
C3862 H3833 0.950 . S
C3862 C3861 1.334 . S
C3862 C3863 1.287 . S
C3863 C3862 1.287 . S
C3863 C3864 1.524 . S
C3863 H3866 0.999 . S
C3864 H3834 0.950 . S
C3864 C3863 1.524 . S
C3864 C3865 1.415 . S
C3865 H3835 0.950 . S
C3865 C3860 1.363 . S
C3865 C3864 1.415 . S
H3866 C3863 0.999 . S
H3867 C3848 0.913 . S
H3868 C3886 1.053 . S
H3869 C3888 0.951 . S
H3870 C3890 0.950 . S
H3871 C3891 0.950 . S
H3872 C3893 0.950 . S
H3873 C3896 0.950 . S
H3874 C3897 0.950 . S
H3875 C3899 0.950 . S
H3876 C3900 0.950 . S
H3877 C3901 0.951 . S
H3878 C3903 0.951 . S
H3879 C3905 0.950 . S
H3880 C3906 0.950 . S
H3881 C3908 0.950 . S
H3882 C3911 0.950 . S
H3883 C3912 0.950 . S
H3884 C3914 0.950 . S
H3885 C3915 0.950 . S
C3886 H3868 1.053 . S
C3886 C3887 1.366 . S
C3886 C3888 1.388 . S
C3887 C3886 1.366 . S
C3887 C3891 1.385 . S
C3888 H3869 0.951 . S
C3888 C3886 1.388 . S
C3888 C3889 1.366 . S
C3889 C3888 1.366 . S
C3889 C3890 1.414 . S
C3889 C3892 1.499 . S
C3890 H3870 0.950 . S
C3890 C3889 1.414 . S
C3890 C3891 1.374 . S
C3891 H3871 0.950 . S
C3891 C3887 1.385 . S
C3891 C3890 1.374 . S
C3892 C3889 1.499 . S
C3892 C3893 1.373 . S
C3892 C3894 1.389 . S
C3893 H3872 0.950 . S
C3893 C3892 1.373 . S
C3893 C3909 1.377 . S
C3894 C3892 1.389 . S
C3894 C3895 1.524 . S
C3894 C3908 1.377 . S
C3895 C3894 1.524 . S
C3895 C3896 1.397 . S
C3895 C3900 1.363 . S
C3896 H3873 0.950 . S
C3896 C3895 1.397 . S
C3896 C3897 1.334 . S
C3897 H3874 0.950 . S
C3897 C3896 1.334 . S
C3897 C3898 1.287 . S
C3898 C3897 1.287 . S
C3898 C3899 1.524 . S
C3898 H3917 0.913 . S
C3899 H3875 0.950 . S
C3899 C3898 1.524 . S
C3899 C3900 1.415 . S
C3900 H3876 0.950 . S
C3900 C3895 1.363 . S
C3900 C3899 1.415 . S
C3901 H3877 0.951 . S
C3901 C3902 1.366 . S
C3901 C3903 1.388 . S
C3902 C3901 1.366 . S
C3902 C3906 1.385 . S
C3903 H3878 0.951 . S
C3903 C3901 1.388 . S
C3903 C3904 1.366 . S
C3904 C3903 1.366 . S
C3904 C3905 1.414 . S
C3904 C3907 1.499 . S
C3905 H3879 0.950 . S
C3905 C3904 1.414 . S
C3905 C3906 1.374 . S
C3906 H3880 0.950 . S
C3906 C3902 1.385 . S
C3906 C3905 1.374 . S
C3907 C3904 1.499 . S
C3907 C3908 1.373 . S
C3907 C3909 1.389 . S
C3908 H3881 0.950 . S
C3908 C3894 1.377 . S
C3908 C3907 1.373 . S
C3909 C3893 1.377 . S
C3909 C3907 1.389 . S
C3909 C3910 1.524 . S
C3910 C3909 1.524 . S
C3910 C3911 1.397 . S
C3910 C3915 1.363 . S
C3911 H3882 0.950 . S
C3911 C3910 1.397 . S
C3911 C3912 1.334 . S
C3912 H3883 0.950 . S
C3912 C3911 1.334 . S
C3912 C3913 1.287 . S
C3913 C3912 1.287 . S
C3913 C3914 1.524 . S
C3913 H3916 0.999 . S
C3914 H3884 0.950 . S
C3914 C3913 1.524 . S
C3914 C3915 1.415 . S
C3915 H3885 0.950 . S
C3915 C3910 1.363 . S
C3915 C3914 1.415 . S
H3916 C3913 0.999 . S
H3917 C3898 0.913 . S
H3918 C3936 0.951 . S
H3919 C3938 0.951 . S
H3920 C3940 0.950 . S
H3921 C3941 0.950 . S
H3922 C3943 0.950 1_655 S
H3923 C3946 0.950 . S
H3924 C3947 0.950 . S
H3925 C3949 0.950 . S
H3926 C3950 0.950 . S
H3927 C3951 0.951 1_655 S
H3928 C3953 0.966 . S
H3929 C3955 0.950 . S
H3930 C3956 0.950 . S
H3931 C3958 0.950 . S
H3932 C3961 0.950 . S
H3933 C3962 0.950 . S
H3934 C3964 0.950 . S
H3935 C3965 0.950 . S
C3936 H3918 0.951 . S
C3936 C3937 1.366 . S
C3936 C3938 1.388 . S
C3937 C3936 1.366 . S
C3937 C3941 1.385 . S
C3938 H3919 0.951 . S
C3938 C3936 1.388 . S
C3938 C3939 1.366 . S
C3939 C3938 1.366 . S
C3939 C3940 1.414 . S
C3939 C3942 1.499 . S
C3940 H3920 0.950 . S
C3940 C3939 1.414 . S
C3940 C3941 1.374 . S
C3941 H3921 0.950 . S
C3941 C3937 1.385 . S
C3941 C3940 1.374 . S
C3942 C3939 1.499 . S
C3942 C3943 1.373 . S
C3942 C3944 1.389 . S
C3943 H3922 0.950 1_455 S
C3943 C3942 1.373 . S
C3943 C3959 1.377 . S
C3944 C3942 1.389 . S
C3944 C3945 1.524 . S
C3944 C3958 1.377 . S
C3945 C3944 1.524 . S
C3945 C3946 1.397 . S
C3945 C3950 1.363 . S
C3946 H3923 0.950 . S
C3946 C3945 1.397 . S
C3946 C3947 1.334 . S
C3947 H3924 0.950 . S
C3947 C3946 1.334 . S
C3947 C3948 1.287 . S
C3948 C3947 1.287 . S
C3948 C3949 1.524 . S
C3948 H3967 0.913 . S
C3949 H3925 0.950 . S
C3949 C3948 1.524 . S
C3949 C3950 1.415 . S
C3950 H3926 0.950 . S
C3950 C3945 1.363 . S
C3950 C3949 1.415 . S
C3951 H3927 0.951 1_455 S
C3951 C3952 1.366 . S
C3951 C3953 1.388 . S
C3952 C3951 1.366 . S
C3952 C3956 1.385 . S
C3953 H3928 0.966 . S
C3953 C3951 1.388 . S
C3953 C3954 1.366 . S
C3954 C3953 1.366 . S
C3954 C3955 1.414 . S
C3954 C3957 1.499 . S
C3955 H3929 0.950 . S
C3955 C3954 1.414 . S
C3955 C3956 1.374 . S
C3956 H3930 0.950 . S
C3956 C3952 1.385 . S
C3956 C3955 1.374 . S
C3957 C3954 1.499 . S
C3957 C3958 1.373 . S
C3957 C3959 1.389 . S
C3958 H3931 0.950 . S
C3958 C3944 1.377 . S
C3958 C3957 1.373 . S
C3959 C3943 1.377 . S
C3959 C3957 1.389 . S
C3959 C3960 1.524 1_455 S
C3960 C3959 1.524 1_655 S
C3960 C3961 1.397 . S
C3960 C3965 1.363 . S
C3961 H3932 0.950 . S
C3961 C3960 1.397 . S
C3961 C3962 1.334 . S
C3962 H3933 0.950 . S
C3962 C3961 1.334 . S
C3962 C3963 1.287 . S
C3963 C3962 1.287 . S
C3963 C3964 1.524 . S
C3963 H3966 0.999 . S
C3964 H3934 0.950 . S
C3964 C3963 1.524 . S
C3964 C3965 1.415 . S
C3965 H3935 0.950 . S
C3965 C3960 1.363 . S
C3965 C3964 1.415 . S
H3966 C3963 0.999 . S
H3967 C3948 0.913 . S
H3968 C3986 0.951 . S
H3969 C3988 0.951 . S
H3970 C3990 0.950 . S
H3971 C3991 0.950 . S
H3972 C3993 0.950 . S
H3973 C3996 0.950 . S
H3974 C3997 0.950 . S
H3975 C3999 0.950 . S
H3976 C4000 0.950 . S
H3977 C4001 0.951 . S
H3978 C4003 0.951 . S
H3979 C4005 0.950 . S
H3980 C4006 0.950 . S
H3981 C4008 0.950 . S
H3982 C4011 0.950 . S
H3983 C4012 0.950 . S
H3984 C4014 0.950 . S
H3985 C4015 0.950 . S
C3986 H3968 0.951 . S
C3986 C3987 1.366 . S
C3986 C3988 1.388 . S
C3987 C3986 1.366 . S
C3987 C3991 1.385 . S
C3988 H3969 0.951 . S
C3988 C3986 1.388 . S
C3988 C3989 1.366 . S
C3989 C3988 1.366 . S
C3989 C3990 1.414 . S
C3989 C3992 1.499 . S
C3990 H3970 0.950 . S
C3990 C3989 1.414 . S
C3990 C3991 1.374 . S
C3991 H3971 0.950 . S
C3991 C3987 1.385 . S
C3991 C3990 1.374 . S
C3992 C3989 1.499 . S
C3992 C3993 1.373 . S
C3992 C3994 1.389 . S
C3993 H3972 0.950 . S
C3993 C3992 1.373 . S
C3993 C4009 1.377 . S
C3994 C3992 1.389 . S
C3994 C3995 1.524 . S
C3994 C4008 1.377 . S
C3995 C3994 1.524 . S
C3995 C3996 1.397 . S
C3995 C4000 1.363 . S
C3996 H3973 0.950 . S
C3996 C3995 1.397 . S
C3996 C3997 1.334 . S
C3997 H3974 0.950 . S
C3997 C3996 1.334 . S
C3997 C3998 1.287 . S
C3998 C3997 1.287 . S
C3998 C3999 1.524 . S
C3998 H4017 0.913 . S
C3999 H3975 0.950 . S
C3999 C3998 1.524 . S
C3999 C4000 1.415 . S
C4000 H3976 0.950 . S
C4000 C3995 1.363 . S
C4000 C3999 1.415 . S
C4001 H3977 0.951 . S
C4001 C4002 1.366 . S
C4001 C4003 1.388 . S
C4002 C4001 1.366 . S
C4002 C4006 1.385 . S
C4003 H3978 0.951 . S
C4003 C4001 1.388 . S
C4003 C4004 1.366 . S
C4004 C4003 1.366 . S
C4004 C4005 1.414 . S
C4004 C4007 1.499 . S
C4005 H3979 0.950 . S
C4005 C4004 1.414 . S
C4005 C4006 1.374 . S
C4006 H3980 0.950 . S
C4006 C4002 1.385 . S
C4006 C4005 1.374 . S
C4007 C4004 1.499 . S
C4007 C4008 1.373 . S
C4007 C4009 1.389 . S
C4008 H3981 0.950 . S
C4008 C3994 1.377 . S
C4008 C4007 1.373 . S
C4009 C3993 1.377 . S
C4009 C4007 1.389 . S
C4009 C4010 1.524 . S
C4010 C4009 1.524 . S
C4010 C4011 1.397 . S
C4010 C4015 1.363 . S
C4011 H3982 0.950 . S
C4011 C4010 1.397 . S
C4011 C4012 1.334 . S
C4012 H3983 0.950 . S
C4012 C4011 1.334 . S
C4012 C4013 1.287 . S
C4013 C4012 1.287 . S
C4013 C4014 1.524 . S
C4013 H4016 0.999 . S
C4014 H3984 0.950 . S
C4014 C4013 1.524 . S
C4014 C4015 1.415 . S
C4015 H3985 0.950 . S
C4015 C4010 1.363 . S
C4015 C4014 1.415 . S
H4016 C4013 0.999 . S
H4017 C3998 0.913 . S
H4018 C4036 0.951 . S
H4019 C4038 0.951 . S
H4020 C4040 0.950 . S
H4021 C4041 0.950 . S
H4022 C4043 0.950 . S
H4023 C4046 0.950 . S
H4024 C4047 0.950 . S
H4025 C4049 0.950 . S
H4026 C4050 0.950 . S
H4027 C4051 0.960 . S
H4028 C4053 0.951 1_545 S
H4029 C4055 0.950 . S
H4030 C4056 0.950 . S
H4031 C4058 0.950 . S
H4032 C4061 0.950 . S
H4033 C4062 0.950 . S
H4034 C4064 0.950 . S
H4035 C4065 0.950 . S
C4036 H4018 0.951 . S
C4036 C4037 1.366 . S
C4036 C4038 1.388 . S
C4037 C4036 1.366 . S
C4037 C4041 1.385 . S
C4038 H4019 0.951 . S
C4038 C4036 1.388 . S
C4038 C4039 1.366 . S
C4039 C4038 1.366 . S
C4039 C4040 1.414 . S
C4039 C4042 1.499 . S
C4040 H4020 0.950 . S
C4040 C4039 1.414 . S
C4040 C4041 1.374 . S
C4041 H4021 0.950 . S
C4041 C4037 1.385 . S
C4041 C4040 1.374 . S
C4042 C4039 1.499 . S
C4042 C4043 1.373 . S
C4042 C4044 1.389 . S
C4043 H4022 0.950 . S
C4043 C4042 1.373 . S
C4043 C4059 1.377 . S
C4044 C4042 1.389 . S
C4044 C4045 1.524 . S
C4044 C4058 1.377 . S
C4045 C4044 1.524 . S
C4045 C4046 1.397 1_565 S
C4045 C4050 1.363 . S
C4046 H4023 0.950 . S
C4046 C4045 1.397 1_545 S
C4046 C4047 1.334 . S
C4047 H4024 0.950 . S
C4047 C4046 1.334 . S
C4047 C4048 1.287 . S
C4048 C4047 1.287 . S
C4048 C4049 1.524 1_545 S
C4048 H4067 0.913 . S
C4049 H4025 0.950 . S
C4049 C4048 1.524 1_565 S
C4049 C4050 1.415 . S
C4050 H4026 0.950 . S
C4050 C4045 1.363 . S
C4050 C4049 1.415 . S
C4051 H4027 0.960 . S
C4051 C4052 1.350 1_545 S
C4051 C4053 1.395 1_545 S
C4052 C4051 1.350 1_565 S
C4052 C4056 1.385 . S
C4053 H4028 0.951 1_565 S
C4053 C4051 1.395 1_565 S
C4053 C4054 1.366 . S
C4054 C4053 1.366 . S
C4054 C4055 1.414 . S
C4054 C4057 1.499 . S
C4055 H4029 0.950 . S
C4055 C4054 1.414 . S
C4055 C4056 1.374 . S
C4056 H4030 0.950 . S
C4056 C4052 1.385 . S
C4056 C4055 1.374 . S
C4057 C4054 1.499 . S
C4057 C4058 1.373 . S
C4057 C4059 1.389 . S
C4058 H4031 0.950 . S
C4058 C4044 1.377 . S
C4058 C4057 1.373 . S
C4059 C4043 1.377 . S
C4059 C4057 1.389 . S
C4059 C4060 1.524 . S
C4060 C4059 1.524 . S
C4060 C4061 1.397 . S
C4060 C4065 1.363 . S
C4061 H4032 0.950 . S
C4061 C4060 1.397 . S
C4061 C4062 1.334 . S
C4062 H4033 0.950 . S
C4062 C4061 1.334 . S
C4062 C4063 1.287 . S
C4063 C4062 1.287 . S
C4063 C4064 1.524 . S
C4063 H4066 0.999 . S
C4064 H4034 0.950 . S
C4064 C4063 1.524 . S
C4064 C4065 1.415 . S
C4065 H4035 0.950 . S
C4065 C4060 1.363 . S
C4065 C4064 1.415 . S
H4066 C4063 0.999 . S
H4067 C4048 0.913 . S
H4068 C4086 0.951 . S
H4069 C4088 0.951 . S
H4070 C4090 0.950 . S
H4071 C4091 0.950 . S
H4072 C4093 0.950 . S
H4073 C4096 0.950 . S
H4074 C4097 0.950 . S
H4075 C4099 0.950 . S
H4076 C4100 0.961 . S
H4077 C4101 0.945 1_545 S
H4078 C4103 0.951 . S
H4079 C4105 0.950 . S
H4080 C4106 0.950 . S
H4081 C4108 0.950 . S
H4082 C4111 0.950 . S
H4083 C4112 0.950 . S
H4084 C4114 0.950 . S
H4085 C4115 0.950 . S
C4086 H4068 0.951 . S
C4086 C4087 1.366 . S
C4086 C4088 1.388 . S
C4087 C4086 1.366 . S
C4087 C4091 1.385 . S
C4088 H4069 0.951 . S
C4088 C4086 1.388 . S
C4088 C4089 1.366 . S
C4089 C4088 1.366 . S
C4089 C4090 1.414 . S
C4089 C4092 1.499 . S
C4090 H4070 0.950 . S
C4090 C4089 1.414 . S
C4090 C4091 1.374 . S
C4091 H4071 0.950 . S
C4091 C4087 1.385 . S
C4091 C4090 1.374 . S
C4092 C4089 1.499 . S
C4092 C4093 1.373 . S
C4092 C4094 1.389 . S
C4093 H4072 0.950 . S
C4093 C4092 1.373 . S
C4093 C4109 1.377 . S
C4094 C4092 1.389 . S
C4094 C4095 1.524 1_565 S
C4094 C4108 1.377 . S
C4095 C4094 1.524 1_545 S
C4095 C4096 1.397 . S
C4095 C4100 1.358 1_545 S
C4096 H4073 0.950 . S
C4096 C4095 1.397 . S
C4096 C4097 1.334 . S
C4097 H4074 0.950 . S
C4097 C4096 1.334 . S
C4097 C4098 1.287 . S
C4098 C4097 1.287 . S
C4098 C4099 1.524 . S
C4098 H4117 0.913 . S
C4099 H4075 0.950 . S
C4099 C4098 1.524 . S
C4099 C4100 1.411 1_545 S
C4100 H4076 0.961 . S
C4100 C4095 1.358 1_565 S
C4100 C4099 1.411 1_565 S
C4101 H4077 0.945 1_565 S
C4101 C4102 1.366 . S
C4101 C4103 1.388 . S
C4102 C4101 1.366 . S
C4102 C4106 1.385 . S
C4103 H4078 0.951 . S
C4103 C4101 1.388 . S
C4103 C4104 1.366 . S
C4104 C4103 1.366 . S
C4104 C4105 1.414 . S
C4104 C4107 1.499 . S
C4105 H4079 0.950 . S
C4105 C4104 1.414 . S
C4105 C4106 1.374 . S
C4106 H4080 0.950 . S
C4106 C4102 1.385 . S
C4106 C4105 1.374 . S
C4107 C4104 1.499 . S
C4107 C4108 1.373 . S
C4107 C4109 1.389 . S
C4108 H4081 0.950 . S
C4108 C4094 1.377 . S
C4108 C4107 1.373 . S
C4109 C4093 1.377 . S
C4109 C4107 1.389 . S
C4109 C4110 1.524 . S
C4110 C4109 1.524 . S
C4110 C4111 1.397 . S
C4110 C4115 1.363 . S
C4111 H4082 0.950 . S
C4111 C4110 1.397 . S
C4111 C4112 1.334 . S
C4112 H4083 0.950 . S
C4112 C4111 1.334 . S
C4112 C4113 1.287 . S
C4113 C4112 1.287 . S
C4113 C4114 1.524 . S
C4113 H4116 0.999 . S
C4114 H4084 0.950 . S
C4114 C4113 1.524 . S
C4114 C4115 1.415 . S
C4115 H4085 0.950 . S
C4115 C4110 1.363 . S
C4115 C4114 1.415 . S
H4116 C4113 0.999 . S
H4117 C4098 0.913 . S
H4118 C4136 0.951 . S
H4119 C4138 0.951 . S
H4120 C4140 0.950 . S
H4121 C4141 0.950 . S
H4122 C4143 0.950 1_655 S
H4123 C4146 0.950 . S
H4124 C4147 0.950 . S
H4125 C4149 0.950 . S
H4126 C4150 0.950 . S
H4127 C4151 0.951 1_655 S
H4128 C4153 0.957 . S
H4129 C4155 0.950 . S
H4130 C4156 0.950 . S
H4131 C4158 0.950 . S
H4132 C4161 0.950 . S
H4133 C4162 0.950 . S
H4134 C4164 0.950 . S
H4135 C4165 0.950 . S
C4136 H4118 0.951 . S
C4136 C4137 1.366 . S
C4136 C4138 1.388 . S
C4137 C4136 1.366 . S
C4137 C4141 1.385 . S
C4138 H4119 0.951 . S
C4138 C4136 1.388 . S
C4138 C4139 1.366 . S
C4139 C4138 1.366 . S
C4139 C4140 1.414 . S
C4139 C4142 1.499 . S
C4140 H4120 0.950 . S
C4140 C4139 1.414 . S
C4140 C4141 1.374 . S
C4141 H4121 0.950 . S
C4141 C4137 1.385 . S
C4141 C4140 1.374 . S
C4142 C4139 1.499 . S
C4142 C4143 1.373 . S
C4142 C4144 1.389 . S
C4143 H4122 0.950 1_455 S
C4143 C4142 1.373 . S
C4143 C4159 1.390 1_455 S
C4144 C4142 1.389 . S
C4144 C4145 1.524 . S
C4144 C4158 1.377 . S
C4145 C4144 1.524 . S
C4145 C4146 1.397 . S
C4145 C4150 1.363 . S
C4146 H4123 0.950 . S
C4146 C4145 1.397 . S
C4146 C4147 1.334 . S
C4147 H4124 0.950 . S
C4147 C4146 1.334 . S
C4147 C4148 1.287 . S
C4148 C4147 1.287 . S
C4148 C4149 1.524 . S
C4148 H4167 0.913 . S
C4149 H4125 0.950 . S
C4149 C4148 1.524 . S
C4149 C4150 1.415 . S
C4150 H4126 0.950 . S
C4150 C4145 1.363 . S
C4150 C4149 1.415 . S
C4151 H4127 0.951 1_455 S
C4151 C4152 1.366 . S
C4151 C4153 1.388 . S
C4152 C4151 1.366 . S
C4152 C4156 1.385 . S
C4153 H4128 0.957 . S
C4153 C4151 1.388 . S
C4153 C4154 1.366 . S
C4154 C4153 1.366 . S
C4154 C4155 1.414 . S
C4154 C4157 1.499 . S
C4155 H4129 0.950 . S
C4155 C4154 1.414 . S
C4155 C4156 1.374 . S
C4156 H4130 0.950 . S
C4156 C4152 1.385 . S
C4156 C4155 1.374 . S
C4157 C4154 1.499 . S
C4157 C4158 1.373 . S
C4157 C4159 1.351 1_455 S
C4158 H4131 0.950 . S
C4158 C4144 1.377 . S
C4158 C4157 1.373 . S
C4159 C4143 1.390 1_655 S
C4159 C4157 1.351 1_655 S
C4159 C4160 1.553 . S
C4160 C4159 1.553 . S
C4160 C4161 1.397 . S
C4160 C4165 1.363 . S
C4161 H4132 0.950 . S
C4161 C4160 1.397 . S
C4161 C4162 1.334 . S
C4162 H4133 0.950 . S
C4162 C4161 1.334 . S
C4162 C4163 1.287 . S
C4163 C4162 1.287 . S
C4163 C4164 1.524 . S
C4163 H4166 0.999 . S
C4164 H4134 0.950 . S
C4164 C4163 1.524 . S
C4164 C4165 1.415 . S
C4165 H4135 0.950 . S
C4165 C4160 1.363 . S
C4165 C4164 1.415 . S
H4166 C4163 0.999 . S
H4167 C4148 0.913 . S
H4168 C4186 0.951 . S
H4169 C4188 0.951 . S
H4170 C4190 0.950 . S
H4171 C4191 0.950 . S
H4172 C4193 0.950 . S
H4173 C4196 0.950 . S
H4174 C4197 0.950 . S
H4175 C4199 0.950 . S
H4176 C4200 0.950 . S
H4177 C4201 0.951 . S
H4178 C4203 0.951 . S
H4179 C4205 0.950 . S
H4180 C4206 0.950 . S
H4181 C4208 0.950 . S
H4182 C4211 0.950 . S
H4183 C4212 0.950 . S
H4184 C4214 0.950 . S
H4185 C4215 0.950 . S
C4186 H4168 0.951 . S
C4186 C4187 1.366 . S
C4186 C4188 1.388 . S
C4187 C4186 1.366 . S
C4187 C4191 1.385 . S
C4188 H4169 0.951 . S
C4188 C4186 1.388 . S
C4188 C4189 1.366 . S
C4189 C4188 1.366 . S
C4189 C4190 1.414 . S
C4189 C4192 1.499 . S
C4190 H4170 0.950 . S
C4190 C4189 1.414 . S
C4190 C4191 1.374 . S
C4191 H4171 0.950 . S
C4191 C4187 1.385 . S
C4191 C4190 1.374 . S
C4192 C4189 1.499 . S
C4192 C4193 1.373 . S
C4192 C4194 1.389 . S
C4193 H4172 0.950 . S
C4193 C4192 1.373 . S
C4193 C4209 1.377 . S
C4194 C4192 1.389 . S
C4194 C4195 1.524 . S
C4194 C4208 1.377 . S
C4195 C4194 1.524 . S
C4195 C4196 1.397 . S
C4195 C4200 1.363 . S
C4196 H4173 0.950 . S
C4196 C4195 1.397 . S
C4196 C4197 1.334 . S
C4197 H4174 0.950 . S
C4197 C4196 1.334 . S
C4197 C4198 1.287 . S
C4198 C4197 1.287 . S
C4198 C4199 1.524 . S
C4198 H4217 0.913 . S
C4199 H4175 0.950 . S
C4199 C4198 1.524 . S
C4199 C4200 1.415 . S
C4200 H4176 0.950 . S
C4200 C4195 1.363 . S
C4200 C4199 1.415 . S
C4201 H4177 0.951 . S
C4201 C4202 1.366 . S
C4201 C4203 1.388 . S
C4202 C4201 1.366 . S
C4202 C4206 1.385 . S
C4203 H4178 0.951 . S
C4203 C4201 1.388 . S
C4203 C4204 1.366 . S
C4204 C4203 1.366 . S
C4204 C4205 1.414 . S
C4204 C4207 1.499 . S
C4205 H4179 0.950 . S
C4205 C4204 1.414 . S
C4205 C4206 1.374 . S
C4206 H4180 0.950 . S
C4206 C4202 1.385 . S
C4206 C4205 1.374 . S
C4207 C4204 1.499 . S
C4207 C4208 1.373 . S
C4207 C4209 1.389 . S
C4208 H4181 0.950 . S
C4208 C4194 1.377 . S
C4208 C4207 1.373 . S
C4209 C4193 1.377 . S
C4209 C4207 1.389 . S
C4209 C4210 1.524 . S
C4210 C4209 1.524 . S
C4210 C4211 1.397 . S
C4210 C4215 1.363 . S
C4211 H4182 0.950 . S
C4211 C4210 1.397 . S
C4211 C4212 1.334 . S
C4212 H4183 0.950 . S
C4212 C4211 1.334 . S
C4212 C4213 1.287 . S
C4213 C4212 1.287 . S
C4213 C4214 1.524 . S
C4213 H4216 0.999 . S
C4214 H4184 0.950 . S
C4214 C4213 1.524 . S
C4214 C4215 1.415 . S
C4215 H4185 0.950 . S
C4215 C4210 1.363 . S
C4215 C4214 1.415 . S
H4216 C4213 0.999 . S
H4217 C4198 0.913 . S
H4218 C4236 0.951 . S
H4219 C4238 0.951 . S
H4220 C4240 0.950 . S
H4221 C4241 0.950 . S
H4222 C4243 0.950 . S
H4223 C4246 0.950 . S
H4224 C4247 0.950 . S
H4225 C4249 0.950 . S
H4226 C4250 0.950 . S
H4227 C4251 0.951 . S
H4228 C4253 0.951 . S
H4229 C4255 0.950 . S
H4230 C4256 0.950 . S
H4231 C4258 0.950 . S
H4232 C4261 0.950 . S
H4233 C4262 0.950 . S
H4234 C4264 0.950 . S
H4235 C4265 0.950 . S
C4236 H4218 0.951 . S
C4236 C4237 1.366 . S
C4236 C4238 1.388 . S
C4237 C4236 1.366 . S
C4237 C4241 1.385 . S
C4238 H4219 0.951 . S
C4238 C4236 1.388 . S
C4238 C4239 1.366 . S
C4239 C4238 1.366 . S
C4239 C4240 1.414 . S
C4239 C4242 1.499 . S
C4240 H4220 0.950 . S
C4240 C4239 1.414 . S
C4240 C4241 1.374 . S
C4241 H4221 0.950 . S
C4241 C4237 1.385 . S
C4241 C4240 1.374 . S
C4242 C4239 1.499 . S
C4242 C4243 1.373 . S
C4242 C4244 1.389 . S
C4243 H4222 0.950 . S
C4243 C4242 1.373 . S
C4243 C4259 1.377 . S
C4244 C4242 1.389 . S
C4244 C4245 1.524 . S
C4244 C4258 1.377 . S
C4245 C4244 1.524 . S
C4245 C4246 1.397 . S
C4245 C4250 1.363 . S
C4246 H4223 0.950 . S
C4246 C4245 1.397 . S
C4246 C4247 1.334 . S
C4247 H4224 0.950 . S
C4247 C4246 1.334 . S
C4247 C4248 1.287 . S
C4248 C4247 1.287 . S
C4248 C4249 1.524 . S
C4248 H4267 0.913 . S
C4249 H4225 0.950 . S
C4249 C4248 1.524 . S
C4249 C4250 1.415 . S
C4250 H4226 0.950 . S
C4250 C4245 1.363 . S
C4250 C4249 1.415 . S
C4251 H4227 0.951 . S
C4251 C4252 1.366 . S
C4251 C4253 1.388 . S
C4252 C4251 1.366 . S
C4252 C4256 1.385 . S
C4253 H4228 0.951 . S
C4253 C4251 1.388 . S
C4253 C4254 1.366 . S
C4254 C4253 1.366 . S
C4254 C4255 1.414 . S
C4254 C4257 1.499 . S
C4255 H4229 0.950 . S
C4255 C4254 1.414 . S
C4255 C4256 1.374 . S
C4256 H4230 0.950 . S
C4256 C4252 1.385 . S
C4256 C4255 1.374 . S
C4257 C4254 1.499 . S
C4257 C4258 1.373 . S
C4257 C4259 1.389 . S
C4258 H4231 0.950 . S
C4258 C4244 1.377 . S
C4258 C4257 1.373 . S
C4259 C4243 1.377 . S
C4259 C4257 1.389 . S
C4259 C4260 1.524 . S
C4260 C4259 1.524 . S
C4260 C4261 1.397 . S
C4260 C4265 1.363 . S
C4261 H4232 0.950 . S
C4261 C4260 1.397 . S
C4261 C4262 1.334 . S
C4262 H4233 0.950 . S
C4262 C4261 1.334 . S
C4262 C4263 1.287 . S
C4263 C4262 1.287 . S
C4263 C4264 1.524 . S
C4263 H4266 0.999 . S
C4264 H4234 0.950 . S
C4264 C4263 1.524 . S
C4264 C4265 1.415 . S
C4265 H4235 0.950 . S
C4265 C4260 1.363 . S
C4265 C4264 1.415 . S
H4266 C4263 0.999 . S
H4267 C4248 0.913 . S
H4268 C4286 0.951 . S
H4269 C4288 0.951 . S
H4270 C4290 0.950 . S
H4271 C4291 0.950 . S
H4272 C4293 0.950 . S
H4273 C4296 0.950 . S
H4274 C4297 0.950 . S
H4275 C4299 0.950 . S
H4276 C4300 0.950 . S
H4277 C4301 0.951 . S
H4278 C4303 0.951 . S
H4279 C4305 0.950 . S
H4280 C4306 0.950 . S
H4281 C4308 0.950 . S
H4282 C4311 0.950 . S
H4283 C4312 0.950 . S
H4284 C4314 0.950 . S
H4285 C4315 0.950 . S
C4286 H4268 0.951 . S
C4286 C4287 1.366 . S
C4286 C4288 1.388 . S
C4287 C4286 1.366 . S
C4287 C4291 1.385 . S
C4288 H4269 0.951 . S
C4288 C4286 1.388 . S
C4288 C4289 1.366 . S
C4289 C4288 1.366 . S
C4289 C4290 1.414 . S
C4289 C4292 1.499 . S
C4290 H4270 0.950 . S
C4290 C4289 1.414 . S
C4290 C4291 1.374 . S
C4291 H4271 0.950 . S
C4291 C4287 1.385 . S
C4291 C4290 1.374 . S
C4292 C4289 1.499 . S
C4292 C4293 1.373 . S
C4292 C4294 1.389 . S
C4293 H4272 0.950 . S
C4293 C4292 1.373 . S
C4293 C4309 1.377 . S
C4294 C4292 1.389 . S
C4294 C4295 1.524 . S
C4294 C4308 1.377 . S
C4295 C4294 1.524 . S
C4295 C4296 1.397 . S
C4295 C4300 1.363 . S
C4296 H4273 0.950 . S
C4296 C4295 1.397 . S
C4296 C4297 1.334 . S
C4297 H4274 0.950 . S
C4297 C4296 1.334 . S
C4297 C4298 1.287 . S
C4298 C4297 1.287 . S
C4298 C4299 1.524 . S
C4298 H4317 0.913 . S
C4299 H4275 0.950 . S
C4299 C4298 1.524 . S
C4299 C4300 1.415 . S
C4300 H4276 0.950 . S
C4300 C4295 1.363 . S
C4300 C4299 1.415 . S
C4301 H4277 0.951 . S
C4301 C4302 1.366 . S
C4301 C4303 1.388 . S
C4302 C4301 1.366 . S
C4302 C4306 1.385 . S
C4303 H4278 0.951 . S
C4303 C4301 1.388 . S
C4303 C4304 1.366 . S
C4304 C4303 1.366 . S
C4304 C4305 1.414 . S
C4304 C4307 1.499 . S
C4305 H4279 0.950 . S
C4305 C4304 1.414 . S
C4305 C4306 1.374 . S
C4306 H4280 0.950 . S
C4306 C4302 1.385 . S
C4306 C4305 1.374 . S
C4307 C4304 1.499 . S
C4307 C4308 1.373 . S
C4307 C4309 1.389 . S
C4308 H4281 0.950 . S
C4308 C4294 1.377 . S
C4308 C4307 1.373 . S
C4309 C4293 1.377 . S
C4309 C4307 1.389 . S
C4309 C4310 1.524 . S
C4310 C4309 1.524 . S
C4310 C4311 1.397 . S
C4310 C4315 1.363 . S
C4311 H4282 0.950 . S
C4311 C4310 1.397 . S
C4311 C4312 1.334 . S
C4312 H4283 0.950 . S
C4312 C4311 1.334 . S
C4312 C4313 1.287 . S
C4313 C4312 1.287 . S
C4313 C4314 1.524 . S
C4313 H4316 0.999 . S
C4314 H4284 0.950 . S
C4314 C4313 1.524 . S
C4314 C4315 1.415 . S
C4315 H4285 0.950 . S
C4315 C4310 1.363 . S
C4315 C4314 1.415 . S
H4316 C4313 0.999 . S
H4317 C4298 0.913 . S
H4318 C4336 0.951 . S
H4319 C4338 0.951 . S
H4320 C4340 0.950 . S
H4321 C4341 0.950 . S
H4322 C4343 0.950 . S
H4323 C4346 0.950 . S
H4324 C4347 0.950 . S
H4325 C4349 0.950 . S
H4326 C4350 0.950 . S
H4327 C4351 0.951 . S
H4328 C4353 0.951 . S
H4329 C4355 0.950 . S
H4330 C4356 0.950 . S
H4331 C4358 0.950 . S
H4332 C4361 0.950 . S
H4333 C4362 0.950 . S
H4334 C4364 0.950 . S
H4335 C4365 0.950 . S
C4336 H4318 0.951 . S
C4336 C4337 1.366 . S
C4336 C4338 1.388 . S
C4337 C4336 1.366 . S
C4337 C4341 1.385 . S
C4338 H4319 0.951 . S
C4338 C4336 1.388 . S
C4338 C4339 1.366 . S
C4339 C4338 1.366 . S
C4339 C4340 1.414 . S
C4339 C4342 1.499 . S
C4340 H4320 0.950 . S
C4340 C4339 1.414 . S
C4340 C4341 1.374 . S
C4341 H4321 0.950 . S
C4341 C4337 1.385 . S
C4341 C4340 1.374 . S
C4342 C4339 1.499 . S
C4342 C4343 1.373 . S
C4342 C4344 1.389 . S
C4343 H4322 0.950 . S
C4343 C4342 1.373 . S
C4343 C4359 1.377 . S
C4344 C4342 1.389 . S
C4344 C4345 1.524 . S
C4344 C4358 1.377 . S
C4345 C4344 1.524 . S
C4345 C4346 1.397 . S
C4345 C4350 1.363 . S
C4346 H4323 0.950 . S
C4346 C4345 1.397 . S
C4346 C4347 1.334 . S
C4347 H4324 0.950 . S
C4347 C4346 1.334 . S
C4347 C4348 1.287 . S
C4348 C4347 1.287 . S
C4348 C4349 1.524 . S
C4348 H4367 0.913 . S
C4349 H4325 0.950 . S
C4349 C4348 1.524 . S
C4349 C4350 1.415 . S
C4350 H4326 0.950 . S
C4350 C4345 1.363 . S
C4350 C4349 1.415 . S
C4351 H4327 0.951 . S
C4351 C4352 1.366 . S
C4351 C4353 1.388 . S
C4352 C4351 1.366 . S
C4352 C4356 1.385 . S
C4353 H4328 0.951 . S
C4353 C4351 1.388 . S
C4353 C4354 1.366 . S
C4354 C4353 1.366 . S
C4354 C4355 1.414 . S
C4354 C4357 1.499 . S
C4355 H4329 0.950 . S
C4355 C4354 1.414 . S
C4355 C4356 1.374 . S
C4356 H4330 0.950 . S
C4356 C4352 1.385 . S
C4356 C4355 1.374 . S
C4357 C4354 1.499 . S
C4357 C4358 1.373 . S
C4357 C4359 1.389 . S
C4358 H4331 0.950 . S
C4358 C4344 1.377 . S
C4358 C4357 1.373 . S
C4359 C4343 1.377 . S
C4359 C4357 1.389 . S
C4359 C4360 1.524 . S
C4360 C4359 1.524 . S
C4360 C4361 1.397 . S
C4360 C4365 1.363 . S
C4361 H4332 0.950 . S
C4361 C4360 1.397 . S
C4361 C4362 1.334 . S
C4362 H4333 0.950 . S
C4362 C4361 1.334 . S
C4362 C4363 1.287 . S
C4363 C4362 1.287 . S
C4363 C4364 1.524 . S
C4363 H4366 0.999 . S
C4364 H4334 0.950 . S
C4364 C4363 1.524 . S
C4364 C4365 1.415 . S
C4365 H4335 0.950 . S
C4365 C4360 1.363 . S
C4365 C4364 1.415 . S
H4366 C4363 0.999 . S
H4367 C4348 0.913 . S
H4368 C4386 0.951 . S
H4369 C4388 0.951 . S
H4370 C4390 0.950 . S
H4371 C4391 0.950 . S
H4372 C4393 0.950 1_565 S
H4373 C4396 0.950 . S
H4374 C4397 0.950 . S
H4375 C4399 0.950 . S
H4376 C4400 0.950 . S
H4377 C4401 0.897 1_565 S
H4378 C4403 0.951 . S
H4379 C4405 0.950 . S
H4380 C4406 0.950 . S
H4381 C4408 0.950 . S
H4382 C4411 0.950 . S
H4383 C4412 0.950 . S
H4384 C4414 0.950 . S
H4385 C4415 0.950 . S
C4386 H4368 0.951 . S
C4386 C4387 1.366 . S
C4386 C4388 1.388 . S
C4387 C4386 1.366 . S
C4387 C4391 1.385 . S
C4388 H4369 0.951 . S
C4388 C4386 1.388 . S
C4388 C4389 1.366 . S
C4389 C4388 1.366 . S
C4389 C4390 1.414 . S
C4389 C4392 1.499 . S
C4390 H4370 0.950 . S
C4390 C4389 1.414 . S
C4390 C4391 1.374 . S
C4391 H4371 0.950 . S
C4391 C4387 1.385 . S
C4391 C4390 1.374 . S
C4392 C4389 1.499 . S
C4392 C4393 1.373 . S
C4392 C4394 1.389 . S
C4393 H4372 0.950 1_545 S
C4393 C4392 1.373 . S
C4393 C4409 1.377 . S
C4394 C4392 1.389 . S
C4394 C4395 1.524 . S
C4394 C4408 1.377 . S
C4395 C4394 1.524 . S
C4395 C4396 1.397 . S
C4395 C4400 1.363 . S
C4396 H4373 0.950 . S
C4396 C4395 1.397 . S
C4396 C4397 1.334 . S
C4397 H4374 0.950 . S
C4397 C4396 1.334 . S
C4397 C4398 1.287 . S
C4398 C4397 1.287 . S
C4398 C4399 1.524 . S
C4398 H4417 0.913 . S
C4399 H4375 0.950 . S
C4399 C4398 1.524 . S
C4399 C4400 1.415 . S
C4400 H4376 0.950 . S
C4400 C4395 1.363 . S
C4400 C4399 1.415 . S
C4401 H4377 0.897 1_545 S
C4401 C4402 1.366 . S
C4401 C4403 1.388 . S
C4402 C4401 1.366 . S
C4402 C4406 1.385 . S
C4403 H4378 0.951 . S
C4403 C4401 1.388 . S
C4403 C4404 1.366 . S
C4404 C4403 1.366 . S
C4404 C4405 1.414 . S
C4404 C4407 1.499 . S
C4405 H4379 0.950 . S
C4405 C4404 1.414 . S
C4405 C4406 1.374 . S
C4406 H4380 0.950 . S
C4406 C4402 1.385 . S
C4406 C4405 1.374 . S
C4407 C4404 1.499 . S
C4407 C4408 1.373 . S
C4407 C4409 1.389 . S
C4408 H4381 0.950 . S
C4408 C4394 1.377 . S
C4408 C4407 1.373 . S
C4409 C4393 1.377 . S
C4409 C4407 1.389 . S
C4409 C4410 1.524 1_545 S
C4410 C4409 1.524 1_565 S
C4410 C4411 1.397 . S
C4410 C4415 1.363 . S
C4411 H4382 0.950 . S
C4411 C4410 1.397 . S
C4411 C4412 1.334 . S
C4412 H4383 0.950 . S
C4412 C4411 1.334 . S
C4412 C4413 1.287 . S
C4413 C4412 1.287 . S
C4413 C4414 1.524 . S
C4413 H4416 0.999 . S
C4414 H4384 0.950 . S
C4414 C4413 1.524 . S
C4414 C4415 1.415 . S
C4415 H4385 0.950 . S
C4415 C4410 1.363 . S
C4415 C4414 1.415 . S
H4416 C4413 0.999 . S
H4417 C4398 0.913 . S
H4418 C4436 0.951 . S
H4419 C4438 0.952 1_455 S
H4420 C4440 0.950 . S
H4421 C4441 0.950 . S
H4422 C4443 0.950 . S
H4423 C4446 0.950 . S
H4424 C4447 0.950 . S
H4425 C4449 0.938 1_455 S
H4426 C4450 0.950 1_455 S
H4427 C4451 0.951 . S
H4428 C4453 0.951 . S
H4429 C4455 0.950 . S
H4430 C4456 0.950 . S
H4431 C4458 0.950 . S
H4432 C4461 0.950 . S
H4433 C4462 0.950 . S
H4434 C4464 0.950 . S
H4435 C4465 0.950 . S
C4436 H4418 0.951 . S
C4436 C4437 1.366 . S
C4436 C4438 1.388 . S
C4437 C4436 1.366 . S
C4437 C4441 1.385 . S
C4438 H4419 0.952 1_655 S
C4438 C4436 1.388 . S
C4438 C4439 1.366 . S
C4439 C4438 1.366 . S
C4439 C4440 1.414 . S
C4439 C4442 1.499 . S
C4440 H4420 0.950 . S
C4440 C4439 1.414 . S
C4440 C4441 1.374 . S
C4441 H4421 0.950 . S
C4441 C4437 1.385 . S
C4441 C4440 1.374 . S
C4442 C4439 1.499 . S
C4442 C4443 1.373 . S
C4442 C4444 1.389 . S
C4443 H4422 0.950 . S
C4443 C4442 1.373 . S
C4443 C4459 1.377 . S
C4444 C4442 1.389 . S
C4444 C4445 1.524 . S
C4444 C4458 1.377 . S
C4445 C4444 1.524 . S
C4445 C4446 1.397 . S
C4445 C4450 1.363 . S
C4446 H4423 0.950 . S
C4446 C4445 1.397 . S
C4446 C4447 1.334 . S
C4447 H4424 0.950 . S
C4447 C4446 1.334 . S
C4447 C4448 1.287 . S
C4448 C4447 1.287 . S
C4448 C4449 1.524 . S
C4448 H4467 0.913 . S
C4449 H4425 0.938 1_655 S
C4449 C4448 1.524 . S
C4449 C4450 1.415 . S
C4450 H4426 0.950 1_655 S
C4450 C4445 1.363 . S
C4450 C4449 1.415 . S
C4451 H4427 0.951 . S
C4451 C4452 1.366 . S
C4451 C4453 1.388 . S
C4452 C4451 1.366 . S
C4452 C4456 1.385 1_655 S
C4453 H4428 0.951 . S
C4453 C4451 1.388 . S
C4453 C4454 1.366 . S
C4454 C4453 1.366 . S
C4454 C4455 1.414 1_655 S
C4454 C4457 1.499 . S
C4455 H4429 0.950 . S
C4455 C4454 1.414 1_455 S
C4455 C4456 1.374 . S
C4456 H4430 0.950 . S
C4456 C4452 1.385 1_455 S
C4456 C4455 1.374 . S
C4457 C4454 1.499 . S
C4457 C4458 1.373 . S
C4457 C4459 1.389 . S
C4458 H4431 0.950 . S
C4458 C4444 1.377 . S
C4458 C4457 1.373 . S
C4459 C4443 1.377 . S
C4459 C4457 1.389 . S
C4459 C4460 1.524 . S
C4460 C4459 1.524 . S
C4460 C4461 1.397 1_655 S
C4460 C4465 1.363 . S
C4461 H4432 0.950 . S
C4461 C4460 1.397 1_455 S
C4461 C4462 1.334 . S
C4462 H4433 0.950 . S
C4462 C4461 1.334 . S
C4462 C4463 1.287 1_455 S
C4463 C4462 1.287 1_655 S
C4463 C4464 1.524 . S
C4463 H4466 0.999 . S
C4464 H4434 0.950 . S
C4464 C4463 1.524 . S
C4464 C4465 1.415 . S
C4465 H4435 0.950 . S
C4465 C4460 1.363 . S
C4465 C4464 1.415 . S
H4466 C4463 0.999 . S
H4467 C4448 0.913 . S
H4468 C4486 0.951 . S
H4469 C4488 0.951 . S
H4470 C4490 0.950 . S
H4471 C4491 0.950 . S
H4472 C4493 0.950 . S
H4473 C4496 0.950 . S
H4474 C4497 0.950 . S
H4475 C4499 0.950 . S
H4476 C4500 0.950 . S
H4477 C4501 0.951 . S
H4478 C4503 0.951 . S
H4479 C4505 0.950 . S
H4480 C4506 0.950 . S
H4481 C4508 0.950 . S
H4482 C4511 0.950 . S
H4483 C4512 0.950 . S
H4484 C4514 0.950 . S
H4485 C4515 0.950 . S
C4486 H4468 0.951 . S
C4486 C4487 1.366 . S
C4486 C4488 1.388 . S
C4487 C4486 1.366 . S
C4487 C4491 1.385 . S
C4488 H4469 0.951 . S
C4488 C4486 1.388 . S
C4488 C4489 1.366 . S
C4489 C4488 1.366 . S
C4489 C4490 1.414 . S
C4489 C4492 1.499 . S
C4490 H4470 0.950 . S
C4490 C4489 1.414 . S
C4490 C4491 1.374 . S
C4491 H4471 0.950 . S
C4491 C4487 1.385 . S
C4491 C4490 1.374 . S
C4492 C4489 1.499 . S
C4492 C4493 1.373 . S
C4492 C4494 1.389 . S
C4493 H4472 0.950 . S
C4493 C4492 1.373 . S
C4493 C4509 1.377 . S
C4494 C4492 1.389 . S
C4494 C4495 1.524 . S
C4494 C4508 1.377 . S
C4495 C4494 1.524 . S
C4495 C4496 1.397 . S
C4495 C4500 1.363 . S
C4496 H4473 0.950 . S
C4496 C4495 1.397 . S
C4496 C4497 1.334 . S
C4497 H4474 0.950 . S
C4497 C4496 1.334 . S
C4497 C4498 1.287 . S
C4498 C4497 1.287 . S
C4498 C4499 1.524 . S
C4498 H4517 0.913 . S
C4499 H4475 0.950 . S
C4499 C4498 1.524 . S
C4499 C4500 1.415 . S
C4500 H4476 0.950 . S
C4500 C4495 1.363 . S
C4500 C4499 1.415 . S
C4501 H4477 0.951 . S
C4501 C4502 1.366 . S
C4501 C4503 1.388 . S
C4502 C4501 1.366 . S
C4502 C4506 1.385 . S
C4503 H4478 0.951 . S
C4503 C4501 1.388 . S
C4503 C4504 1.366 . S
C4504 C4503 1.366 . S
C4504 C4505 1.414 . S
C4504 C4507 1.499 . S
C4505 H4479 0.950 . S
C4505 C4504 1.414 . S
C4505 C4506 1.374 . S
C4506 H4480 0.950 . S
C4506 C4502 1.385 . S
C4506 C4505 1.374 . S
C4507 C4504 1.499 . S
C4507 C4508 1.373 . S
C4507 C4509 1.389 . S
C4508 H4481 0.950 . S
C4508 C4494 1.377 . S
C4508 C4507 1.373 . S
C4509 C4493 1.377 . S
C4509 C4507 1.389 . S
C4509 C4510 1.524 . S
C4510 C4509 1.524 . S
C4510 C4511 1.397 . S
C4510 C4515 1.363 . S
C4511 H4482 0.950 . S
C4511 C4510 1.397 . S
C4511 C4512 1.334 . S
C4512 H4483 0.950 . S
C4512 C4511 1.334 . S
C4512 C4513 1.287 . S
C4513 C4512 1.287 . S
C4513 C4514 1.524 . S
C4513 H4516 0.999 . S
C4514 H4484 0.950 . S
C4514 C4513 1.524 . S
C4514 C4515 1.415 . S
C4515 H4485 0.950 . S
C4515 C4510 1.363 . S
C4515 C4514 1.415 . S
H4516 C4513 0.999 . S
H4517 C4498 0.913 . S
H4518 C4536 0.951 . S
H4519 C4538 0.951 . S
H4520 C4540 0.950 . S
H4521 C4541 0.950 . S
H4522 C4543 0.950 . S
H4523 C4546 0.950 . S
H4524 C4547 0.950 . S
H4525 C4549 0.950 . S
H4526 C4550 0.950 . S
H4527 C4551 0.951 . S
H4528 C4553 0.951 . S
H4529 C4555 0.950 . S
H4530 C4556 0.950 . S
H4531 C4558 0.950 . S
H4532 C4561 0.950 . S
H4533 C4562 0.950 . S
H4534 C4564 0.950 . S
H4535 C4565 0.950 . S
C4536 H4518 0.951 . S
C4536 C4537 1.366 . S
C4536 C4538 1.388 . S
C4537 C4536 1.366 . S
C4537 C4541 1.385 . S
C4538 H4519 0.951 . S
C4538 C4536 1.388 . S
C4538 C4539 1.366 . S
C4539 C4538 1.366 . S
C4539 C4540 1.414 . S
C4539 C4542 1.499 . S
C4540 H4520 0.950 . S
C4540 C4539 1.414 . S
C4540 C4541 1.374 . S
C4541 H4521 0.950 . S
C4541 C4537 1.385 . S
C4541 C4540 1.374 . S
C4542 C4539 1.499 . S
C4542 C4543 1.373 . S
C4542 C4544 1.389 . S
C4543 H4522 0.950 . S
C4543 C4542 1.373 . S
C4543 C4559 1.377 . S
C4544 C4542 1.389 . S
C4544 C4545 1.524 . S
C4544 C4558 1.377 . S
C4545 C4544 1.524 . S
C4545 C4546 1.397 . S
C4545 C4550 1.363 . S
C4546 H4523 0.950 . S
C4546 C4545 1.397 . S
C4546 C4547 1.334 . S
C4547 H4524 0.950 . S
C4547 C4546 1.334 . S
C4547 C4548 1.287 . S
C4548 C4547 1.287 . S
C4548 C4549 1.524 . S
C4548 H4567 0.913 . S
C4549 H4525 0.950 . S
C4549 C4548 1.524 . S
C4549 C4550 1.415 . S
C4550 H4526 0.950 . S
C4550 C4545 1.363 . S
C4550 C4549 1.415 . S
C4551 H4527 0.951 . S
C4551 C4552 1.366 . S
C4551 C4553 1.388 . S
C4552 C4551 1.366 . S
C4552 C4556 1.385 . S
C4553 H4528 0.951 . S
C4553 C4551 1.388 . S
C4553 C4554 1.366 . S
C4554 C4553 1.366 . S
C4554 C4555 1.414 . S
C4554 C4557 1.499 . S
C4555 H4529 0.950 . S
C4555 C4554 1.414 . S
C4555 C4556 1.374 . S
C4556 H4530 0.950 . S
C4556 C4552 1.385 . S
C4556 C4555 1.374 . S
C4557 C4554 1.499 . S
C4557 C4558 1.373 . S
C4557 C4559 1.389 . S
C4558 H4531 0.950 . S
C4558 C4544 1.377 . S
C4558 C4557 1.373 . S
C4559 C4543 1.377 . S
C4559 C4557 1.389 . S
C4559 C4560 1.524 . S
C4560 C4559 1.524 . S
C4560 C4561 1.397 . S
C4560 C4565 1.363 . S
C4561 H4532 0.950 . S
C4561 C4560 1.397 . S
C4561 C4562 1.334 . S
C4562 H4533 0.950 . S
C4562 C4561 1.334 . S
C4562 C4563 1.287 . S
C4563 C4562 1.287 . S
C4563 C4564 1.524 . S
C4563 H4566 0.999 . S
C4564 H4534 0.950 . S
C4564 C4563 1.524 . S
C4564 C4565 1.415 . S
C4565 H4535 0.950 . S
C4565 C4560 1.363 . S
C4565 C4564 1.415 . S
H4566 C4563 0.999 . S
H4567 C4548 0.913 . S
H4568 C4586 0.951 . S
H4569 C4588 0.951 . S
H4570 C4590 0.950 . S
H4571 C4591 0.950 . S
H4572 C4593 0.950 . S
H4573 C4596 0.950 . S
H4574 C4597 0.950 . S
H4575 C4599 0.950 . S
H4576 C4600 0.950 . S
H4577 C4601 0.951 . S
H4578 C4603 0.951 . S
H4579 C4605 0.950 . S
H4580 C4606 0.950 . S
H4581 C4608 0.950 . S
H4582 C4611 0.950 . S
H4583 C4612 0.950 . S
H4584 C4614 0.950 . S
H4585 C4615 0.950 . S
C4586 H4568 0.951 . S
C4586 C4587 1.366 . S
C4586 C4588 1.388 . S
C4587 C4586 1.366 . S
C4587 C4591 1.385 . S
C4588 H4569 0.951 . S
C4588 C4586 1.388 . S
C4588 C4589 1.366 . S
C4589 C4588 1.366 . S
C4589 C4590 1.414 . S
C4589 C4592 1.499 . S
C4590 H4570 0.950 . S
C4590 C4589 1.414 . S
C4590 C4591 1.374 . S
C4591 H4571 0.950 . S
C4591 C4587 1.385 . S
C4591 C4590 1.374 . S
C4592 C4589 1.499 . S
C4592 C4593 1.373 . S
C4592 C4594 1.389 . S
C4593 H4572 0.950 . S
C4593 C4592 1.373 . S
C4593 C4609 1.377 . S
C4594 C4592 1.389 . S
C4594 C4595 1.524 . S
C4594 C4608 1.377 . S
C4595 C4594 1.524 . S
C4595 C4596 1.397 . S
C4595 C4600 1.363 . S
C4596 H4573 0.950 . S
C4596 C4595 1.397 . S
C4596 C4597 1.334 . S
C4597 H4574 0.950 . S
C4597 C4596 1.334 . S
C4597 C4598 1.287 . S
C4598 C4597 1.287 . S
C4598 C4599 1.524 . S
C4598 H4617 0.913 . S
C4599 H4575 0.950 . S
C4599 C4598 1.524 . S
C4599 C4600 1.415 . S
C4600 H4576 0.950 . S
C4600 C4595 1.363 . S
C4600 C4599 1.415 . S
C4601 H4577 0.951 . S
C4601 C4602 1.366 . S
C4601 C4603 1.388 . S
C4602 C4601 1.366 . S
C4602 C4606 1.385 . S
C4603 H4578 0.951 . S
C4603 C4601 1.388 . S
C4603 C4604 1.366 . S
C4604 C4603 1.366 . S
C4604 C4605 1.414 . S
C4604 C4607 1.499 . S
C4605 H4579 0.950 . S
C4605 C4604 1.414 . S
C4605 C4606 1.374 . S
C4606 H4580 0.950 . S
C4606 C4602 1.385 . S
C4606 C4605 1.374 . S
C4607 C4604 1.499 . S
C4607 C4608 1.373 . S
C4607 C4609 1.389 . S
C4608 H4581 0.950 . S
C4608 C4594 1.377 . S
C4608 C4607 1.373 . S
C4609 C4593 1.377 . S
C4609 C4607 1.389 . S
C4609 C4610 1.524 . S
C4610 C4609 1.524 . S
C4610 C4611 1.397 . S
C4610 C4615 1.363 . S
C4611 H4582 0.950 . S
C4611 C4610 1.397 . S
C4611 C4612 1.334 . S
C4612 H4583 0.950 . S
C4612 C4611 1.334 . S
C4612 C4613 1.287 . S
C4613 C4612 1.287 . S
C4613 C4614 1.524 . S
C4613 H4616 0.999 . S
C4614 H4584 0.950 . S
C4614 C4613 1.524 . S
C4614 C4615 1.415 . S
C4615 H4585 0.950 . S
C4615 C4610 1.363 . S
C4615 C4614 1.415 . S
H4616 C4613 0.999 . S
H4617 C4598 0.913 . S
H4618 C4636 0.951 . S
H4619 C4638 0.951 . S
H4620 C4640 0.950 . S
H4621 C4641 0.950 . S
H4622 C4643 0.950 . S
H4623 C4646 0.950 . S
H4624 C4647 0.950 . S
H4625 C4649 0.950 . S
H4626 C4650 0.950 . S
H4627 C4651 0.951 . S
H4628 C4653 0.951 . S
H4629 C4655 0.950 . S
H4630 C4656 0.950 . S
H4631 C4658 0.950 . S
H4632 C4661 0.950 . S
H4633 C4662 0.950 . S
H4634 C4664 0.950 . S
H4635 C4665 0.950 . S
C4636 H4618 0.951 . S
C4636 C4637 1.366 . S
C4636 C4638 1.388 . S
C4637 C4636 1.366 . S
C4637 C4641 1.385 . S
C4638 H4619 0.951 . S
C4638 C4636 1.388 . S
C4638 C4639 1.366 . S
C4639 C4638 1.366 . S
C4639 C4640 1.414 . S
C4639 C4642 1.499 . S
C4640 H4620 0.950 . S
C4640 C4639 1.414 . S
C4640 C4641 1.374 . S
C4641 H4621 0.950 . S
C4641 C4637 1.385 . S
C4641 C4640 1.374 . S
C4642 C4639 1.499 . S
C4642 C4643 1.373 . S
C4642 C4644 1.389 . S
C4643 H4622 0.950 . S
C4643 C4642 1.373 . S
C4643 C4659 1.377 . S
C4644 C4642 1.389 . S
C4644 C4645 1.524 . S
C4644 C4658 1.377 . S
C4645 C4644 1.524 . S
C4645 C4646 1.397 . S
C4645 C4650 1.363 . S
C4646 H4623 0.950 . S
C4646 C4645 1.397 . S
C4646 C4647 1.334 . S
C4647 H4624 0.950 . S
C4647 C4646 1.334 . S
C4647 C4648 1.287 . S
C4648 C4647 1.287 . S
C4648 C4649 1.524 . S
C4648 H4667 0.913 . S
C4649 H4625 0.950 . S
C4649 C4648 1.524 . S
C4649 C4650 1.415 . S
C4650 H4626 0.950 . S
C4650 C4645 1.363 . S
C4650 C4649 1.415 . S
C4651 H4627 0.951 . S
C4651 C4652 1.366 . S
C4651 C4653 1.388 . S
C4652 C4651 1.366 . S
C4652 C4656 1.385 . S
C4653 H4628 0.951 . S
C4653 C4651 1.388 . S
C4653 C4654 1.366 . S
C4654 C4653 1.366 . S
C4654 C4655 1.414 . S
C4654 C4657 1.499 . S
C4655 H4629 0.950 . S
C4655 C4654 1.414 . S
C4655 C4656 1.374 . S
C4656 H4630 0.950 . S
C4656 C4652 1.385 . S
C4656 C4655 1.374 . S
C4657 C4654 1.499 . S
C4657 C4658 1.373 . S
C4657 C4659 1.389 . S
C4658 H4631 0.950 . S
C4658 C4644 1.377 . S
C4658 C4657 1.373 . S
C4659 C4643 1.377 . S
C4659 C4657 1.389 . S
C4659 C4660 1.524 . S
C4660 C4659 1.524 . S
C4660 C4661 1.397 . S
C4660 C4665 1.363 . S
C4661 H4632 0.950 . S
C4661 C4660 1.397 . S
C4661 C4662 1.334 . S
C4662 H4633 0.950 . S
C4662 C4661 1.334 . S
C4662 C4663 1.287 . S
C4663 C4662 1.287 . S
C4663 C4664 1.524 . S
C4663 H4666 0.999 . S
C4664 H4634 0.950 . S
C4664 C4663 1.524 . S
C4664 C4665 1.415 . S
C4665 H4635 0.950 . S
C4665 C4660 1.363 . S
C4665 C4664 1.415 . S
H4666 C4663 0.999 . S
H4667 C4648 0.913 . S
H4668 C4686 0.951 . S
H4669 C4688 0.951 . S
H4670 C4690 0.950 . S
H4671 C4691 0.950 . S
H4672 C4693 0.950 . S
H4673 C4696 0.950 . S
H4674 C4697 0.950 . S
H4675 C4699 0.950 . S
H4676 C4700 0.950 . S
H4677 C4701 0.951 . S
H4678 C4703 0.951 . S
H4679 C4705 0.950 . S
H4680 C4706 0.950 . S
H4681 C4708 0.950 . S
H4682 C4711 0.950 . S
H4683 C4712 0.950 . S
H4684 C4714 0.950 . S
H4685 C4715 0.950 . S
C4686 H4668 0.951 . S
C4686 C4687 1.366 . S
C4686 C4688 1.388 . S
C4687 C4686 1.366 . S
C4687 C4691 1.385 . S
C4688 H4669 0.951 . S
C4688 C4686 1.388 . S
C4688 C4689 1.366 . S
C4689 C4688 1.366 . S
C4689 C4690 1.414 . S
C4689 C4692 1.499 . S
C4690 H4670 0.950 . S
C4690 C4689 1.414 . S
C4690 C4691 1.374 . S
C4691 H4671 0.950 . S
C4691 C4687 1.385 . S
C4691 C4690 1.374 . S
C4692 C4689 1.499 . S
C4692 C4693 1.373 . S
C4692 C4694 1.389 . S
C4693 H4672 0.950 . S
C4693 C4692 1.373 . S
C4693 C4709 1.377 . S
C4694 C4692 1.389 . S
C4694 C4695 1.524 . S
C4694 C4708 1.377 . S
C4695 C4694 1.524 . S
C4695 C4696 1.397 . S
C4695 C4700 1.363 . S
C4696 H4673 0.950 . S
C4696 C4695 1.397 . S
C4696 C4697 1.334 . S
C4697 H4674 0.950 . S
C4697 C4696 1.334 . S
C4697 C4698 1.287 . S
C4698 C4697 1.287 . S
C4698 C4699 1.524 . S
C4698 H4717 0.913 . S
C4699 H4675 0.950 . S
C4699 C4698 1.524 . S
C4699 C4700 1.415 . S
C4700 H4676 0.950 . S
C4700 C4695 1.363 . S
C4700 C4699 1.415 . S
C4701 H4677 0.951 . S
C4701 C4702 1.366 . S
C4701 C4703 1.388 . S
C4702 C4701 1.366 . S
C4702 C4706 1.385 . S
C4703 H4678 0.951 . S
C4703 C4701 1.388 . S
C4703 C4704 1.366 . S
C4704 C4703 1.366 . S
C4704 C4705 1.414 . S
C4704 C4707 1.499 . S
C4705 H4679 0.950 . S
C4705 C4704 1.414 . S
C4705 C4706 1.374 . S
C4706 H4680 0.950 . S
C4706 C4702 1.385 . S
C4706 C4705 1.374 . S
C4707 C4704 1.499 . S
C4707 C4708 1.373 . S
C4707 C4709 1.389 . S
C4708 H4681 0.950 . S
C4708 C4694 1.377 . S
C4708 C4707 1.373 . S
C4709 C4693 1.377 . S
C4709 C4707 1.389 . S
C4709 C4710 1.524 . S
C4710 C4709 1.524 . S
C4710 C4711 1.397 . S
C4710 C4715 1.363 . S
C4711 H4682 0.950 . S
C4711 C4710 1.397 . S
C4711 C4712 1.334 . S
C4712 H4683 0.950 . S
C4712 C4711 1.334 . S
C4712 C4713 1.287 . S
C4713 C4712 1.287 . S
C4713 C4714 1.524 . S
C4713 H4716 0.999 . S
C4714 H4684 0.950 . S
C4714 C4713 1.524 . S
C4714 C4715 1.415 . S
C4715 H4685 0.950 . S
C4715 C4710 1.363 . S
C4715 C4714 1.415 . S
H4716 C4713 0.999 . S
H4717 C4698 0.913 . S
H4718 C4736 0.975 . S
H4719 C4738 0.951 . S
H4720 C4740 0.950 . S
H4721 C4741 0.950 . S
H4722 C4743 0.950 . S
H4723 C4746 0.950 . S
H4724 C4747 0.950 . S
H4725 C4749 0.950 . S
H4726 C4750 0.950 . S
H4727 C4751 0.951 . S
H4728 C4753 0.951 . S
H4729 C4755 0.950 . S
H4730 C4756 0.950 . S
H4731 C4758 0.950 . S
H4732 C4761 0.950 . S
H4733 C4762 0.950 . S
H4734 C4764 0.950 . S
H4735 C4765 0.950 . S
C4736 H4718 0.975 . S
C4736 C4737 1.366 . S
C4736 C4738 1.388 . S
C4737 C4736 1.366 . S
C4737 C4741 1.385 . S
C4738 H4719 0.951 . S
C4738 C4736 1.388 . S
C4738 C4739 1.366 . S
C4739 C4738 1.366 . S
C4739 C4740 1.414 . S
C4739 C4742 1.499 . S
C4740 H4720 0.950 . S
C4740 C4739 1.414 . S
C4740 C4741 1.374 . S
C4741 H4721 0.950 . S
C4741 C4737 1.385 . S
C4741 C4740 1.374 . S
C4742 C4739 1.499 . S
C4742 C4743 1.373 . S
C4742 C4744 1.389 . S
C4743 H4722 0.950 . S
C4743 C4742 1.373 . S
C4743 C4759 1.377 . S
C4744 C4742 1.389 . S
C4744 C4745 1.524 . S
C4744 C4758 1.377 . S
C4745 C4744 1.524 . S
C4745 C4746 1.397 . S
C4745 C4750 1.363 . S
C4746 H4723 0.950 . S
C4746 C4745 1.397 . S
C4746 C4747 1.334 . S
C4747 H4724 0.950 . S
C4747 C4746 1.334 . S
C4747 C4748 1.287 . S
C4748 C4747 1.287 . S
C4748 C4749 1.524 . S
C4748 H4767 0.913 . S
C4749 H4725 0.950 . S
C4749 C4748 1.524 . S
C4749 C4750 1.415 . S
C4750 H4726 0.950 . S
C4750 C4745 1.363 . S
C4750 C4749 1.415 . S
C4751 H4727 0.951 . S
C4751 C4752 1.366 . S
C4751 C4753 1.388 . S
C4752 C4751 1.366 . S
C4752 C4756 1.385 . S
C4753 H4728 0.951 . S
C4753 C4751 1.388 . S
C4753 C4754 1.366 . S
C4754 C4753 1.366 . S
C4754 C4755 1.414 . S
C4754 C4757 1.499 . S
C4755 H4729 0.950 . S
C4755 C4754 1.414 . S
C4755 C4756 1.374 . S
C4756 H4730 0.950 . S
C4756 C4752 1.385 . S
C4756 C4755 1.374 . S
C4757 C4754 1.499 . S
C4757 C4758 1.373 . S
C4757 C4759 1.389 . S
C4758 H4731 0.950 . S
C4758 C4744 1.377 . S
C4758 C4757 1.373 . S
C4759 C4743 1.377 . S
C4759 C4757 1.389 . S
C4759 C4760 1.524 . S
C4760 C4759 1.524 . S
C4760 C4761 1.397 . S
C4760 C4765 1.363 . S
C4761 H4732 0.950 . S
C4761 C4760 1.397 . S
C4761 C4762 1.334 . S
C4762 H4733 0.950 . S
C4762 C4761 1.334 . S
C4762 C4763 1.287 . S
C4763 C4762 1.287 . S
C4763 C4764 1.524 . S
C4763 H4766 0.999 . S
C4764 H4734 0.950 . S
C4764 C4763 1.524 . S
C4764 C4765 1.415 . S
C4765 H4735 0.950 . S
C4765 C4760 1.363 . S
C4765 C4764 1.415 . S
H4766 C4763 0.999 . S
H4767 C4748 0.913 . S
H4768 C4786 0.961 . S
H4769 C4788 0.951 . S
H4770 C4790 0.950 . S
H4771 C4791 0.950 . S
H4772 C4793 0.950 . S
H4773 C4796 0.950 . S
H4774 C4797 0.950 . S
H4775 C4799 0.950 . S
H4776 C4800 0.950 . S
H4777 C4801 0.951 . S
H4778 C4803 0.951 . S
H4779 C4805 0.950 . S
H4780 C4806 0.950 . S
H4781 C4808 0.950 . S
H4782 C4811 0.950 . S
H4783 C4812 0.950 . S
H4784 C4814 0.950 . S
H4785 C4815 0.950 . S
C4786 H4768 0.961 . S
C4786 C4787 1.366 . S
C4786 C4788 1.388 . S
C4787 C4786 1.366 . S
C4787 C4791 1.385 . S
C4788 H4769 0.951 . S
C4788 C4786 1.388 . S
C4788 C4789 1.366 . S
C4789 C4788 1.366 . S
C4789 C4790 1.414 . S
C4789 C4792 1.499 . S
C4790 H4770 0.950 . S
C4790 C4789 1.414 . S
C4790 C4791 1.374 . S
C4791 H4771 0.950 . S
C4791 C4787 1.385 . S
C4791 C4790 1.374 . S
C4792 C4789 1.499 . S
C4792 C4793 1.373 . S
C4792 C4794 1.389 . S
C4793 H4772 0.950 . S
C4793 C4792 1.373 . S
C4793 C4809 1.377 . S
C4794 C4792 1.389 . S
C4794 C4795 1.524 . S
C4794 C4808 1.377 . S
C4795 C4794 1.524 . S
C4795 C4796 1.397 . S
C4795 C4800 1.363 . S
C4796 H4773 0.950 . S
C4796 C4795 1.397 . S
C4796 C4797 1.334 . S
C4797 H4774 0.950 . S
C4797 C4796 1.334 . S
C4797 C4798 1.287 . S
C4798 C4797 1.287 . S
C4798 C4799 1.524 . S
C4798 H4817 0.913 . S
C4799 H4775 0.950 . S
C4799 C4798 1.524 . S
C4799 C4800 1.415 . S
C4800 H4776 0.950 . S
C4800 C4795 1.363 . S
C4800 C4799 1.415 . S
C4801 H4777 0.951 . S
C4801 C4802 1.366 . S
C4801 C4803 1.388 . S
C4802 C4801 1.366 . S
C4802 C4806 1.385 . S
C4803 H4778 0.951 . S
C4803 C4801 1.388 . S
C4803 C4804 1.366 . S
C4804 C4803 1.366 . S
C4804 C4805 1.414 . S
C4804 C4807 1.499 . S
C4805 H4779 0.950 . S
C4805 C4804 1.414 . S
C4805 C4806 1.374 . S
C4806 H4780 0.950 . S
C4806 C4802 1.385 . S
C4806 C4805 1.374 . S
C4807 C4804 1.499 . S
C4807 C4808 1.373 . S
C4807 C4809 1.389 . S
C4808 H4781 0.950 . S
C4808 C4794 1.377 . S
C4808 C4807 1.373 . S
C4809 C4793 1.377 . S
C4809 C4807 1.389 . S
C4809 C4810 1.524 . S
C4810 C4809 1.524 . S
C4810 C4811 1.397 . S
C4810 C4815 1.363 . S
C4811 H4782 0.950 . S
C4811 C4810 1.397 . S
C4811 C4812 1.334 . S
C4812 H4783 0.950 . S
C4812 C4811 1.334 . S
C4812 C4813 1.287 . S
C4813 C4812 1.287 . S
C4813 C4814 1.524 . S
C4813 H4816 0.999 . S
C4814 H4784 0.950 . S
C4814 C4813 1.524 . S
C4814 C4815 1.415 . S
C4815 H4785 0.950 . S
C4815 C4810 1.363 . S
C4815 C4814 1.415 . S
H4816 C4813 0.999 . S
H4817 C4798 0.913 . S
H4818 C4836 0.951 . S
H4819 C4838 0.951 1_455 S
H4820 C4840 0.950 . S
H4821 C4841 0.950 . S
H4822 C4843 0.950 . S
H4823 C4846 0.950 . S
H4824 C4847 0.950 . S
H4825 C4849 0.950 . S
H4826 C4850 0.950 . S
H4827 C4851 0.951 . S
H4828 C4853 0.951 . S
H4829 C4855 0.950 . S
H4830 C4856 0.950 . S
H4831 C4858 0.950 1_455 S
H4832 C4861 0.950 . S
H4833 C4862 0.950 . S
H4834 C4864 0.950 . S
H4835 C4865 0.950 . S
C4836 H4818 0.951 . S
C4836 C4837 1.366 . S
C4836 C4838 1.388 . S
C4837 C4836 1.366 . S
C4837 C4841 1.385 . S
C4838 H4819 0.951 1_655 S
C4838 C4836 1.388 . S
C4838 C4839 1.366 . S
C4839 C4838 1.366 . S
C4839 C4840 1.414 . S
C4839 C4842 1.499 . S
C4840 H4820 0.950 . S
C4840 C4839 1.414 . S
C4840 C4841 1.374 . S
C4841 H4821 0.950 . S
C4841 C4837 1.385 . S
C4841 C4840 1.374 . S
C4842 C4839 1.499 . S
C4842 C4843 1.373 . S
C4842 C4844 1.389 . S
C4843 H4822 0.950 . S
C4843 C4842 1.373 . S
C4843 C4859 1.377 . S
C4844 C4842 1.389 . S
C4844 C4845 1.511 1_655 S
C4844 C4858 1.377 . S
C4845 C4844 1.511 1_455 S
C4845 C4846 1.373 1_455 S
C4845 C4850 1.400 . S
C4846 H4823 0.950 . S
C4846 C4845 1.373 1_655 S
C4846 C4847 1.334 . S
C4847 H4824 0.950 . S
C4847 C4846 1.334 . S
C4847 C4848 1.287 1_655 S
C4848 C4847 1.287 1_455 S
C4848 C4849 1.524 . S
C4848 H4867 0.913 . S
C4849 H4825 0.950 . S
C4849 C4848 1.524 . S
C4849 C4850 1.415 . S
C4850 H4826 0.950 . S
C4850 C4845 1.400 . S
C4850 C4849 1.415 . S
C4851 H4827 0.951 . S
C4851 C4852 1.366 . S
C4851 C4853 1.388 . S
C4852 C4851 1.366 . S
C4852 C4856 1.385 1_655 S
C4853 H4828 0.951 . S
C4853 C4851 1.388 . S
C4853 C4854 1.366 . S
C4854 C4853 1.366 . S
C4854 C4855 1.414 1_655 S
C4854 C4857 1.499 . S
C4855 H4829 0.950 . S
C4855 C4854 1.414 1_455 S
C4855 C4856 1.374 . S
C4856 H4830 0.950 . S
C4856 C4852 1.385 1_455 S
C4856 C4855 1.374 . S
C4857 C4854 1.499 . S
C4857 C4858 1.373 . S
C4857 C4859 1.389 . S
C4858 H4831 0.950 1_655 S
C4858 C4844 1.377 . S
C4858 C4857 1.373 . S
C4859 C4843 1.377 . S
C4859 C4857 1.389 . S
C4859 C4860 1.524 . S
C4860 C4859 1.524 . S
C4860 C4861 1.397 . S
C4860 C4865 1.363 . S
C4861 H4832 0.950 . S
C4861 C4860 1.397 . S
C4861 C4862 1.334 . S
C4862 H4833 0.950 . S
C4862 C4861 1.334 . S
C4862 C4863 1.287 . S
C4863 C4862 1.287 . S
C4863 C4864 1.524 . S
C4863 H4866 0.999 . S
C4864 H4834 0.950 . S
C4864 C4863 1.524 . S
C4864 C4865 1.415 . S
C4865 H4835 0.950 . S
C4865 C4860 1.363 . S
C4865 C4864 1.415 . S
H4866 C4863 0.999 . S
H4867 C4848 0.913 . S
H4868 C4886 0.951 . S
H4869 C4888 0.951 . S
H4870 C4890 0.950 . S
H4871 C4891 0.950 . S
H4872 C4893 0.950 . S
H4873 C4896 0.950 . S
H4874 C4897 0.950 . S
H4875 C4899 0.950 . S
H4876 C4900 0.950 . S
H4877 C4901 0.951 . S
H4878 C4903 0.951 . S
H4879 C4905 0.950 . S
H4880 C4906 0.950 . S
H4881 C4908 0.950 . S
H4882 C4911 0.950 . S
H4883 C4912 0.950 . S
H4884 C4914 0.950 . S
H4885 C4915 0.950 . S
C4886 H4868 0.951 . S
C4886 C4887 1.366 . S
C4886 C4888 1.388 . S
C4887 C4886 1.366 . S
C4887 C4891 1.385 . S
C4888 H4869 0.951 . S
C4888 C4886 1.388 . S
C4888 C4889 1.366 . S
C4889 C4888 1.366 . S
C4889 C4890 1.414 . S
C4889 C4892 1.499 . S
C4890 H4870 0.950 . S
C4890 C4889 1.414 . S
C4890 C4891 1.374 . S
C4891 H4871 0.950 . S
C4891 C4887 1.385 . S
C4891 C4890 1.374 . S
C4892 C4889 1.499 . S
C4892 C4893 1.373 . S
C4892 C4894 1.389 . S
C4893 H4872 0.950 . S
C4893 C4892 1.373 . S
C4893 C4909 1.377 . S
C4894 C4892 1.389 . S
C4894 C4895 1.524 . S
C4894 C4908 1.377 . S
C4895 C4894 1.524 . S
C4895 C4896 1.397 . S
C4895 C4900 1.363 . S
C4896 H4873 0.950 . S
C4896 C4895 1.397 . S
C4896 C4897 1.334 . S
C4897 H4874 0.950 . S
C4897 C4896 1.334 . S
C4897 C4898 1.287 . S
C4898 C4897 1.287 . S
C4898 C4899 1.524 . S
C4898 H4917 0.913 . S
C4899 H4875 0.950 . S
C4899 C4898 1.524 . S
C4899 C4900 1.415 . S
C4900 H4876 0.950 . S
C4900 C4895 1.363 . S
C4900 C4899 1.415 . S
C4901 H4877 0.951 . S
C4901 C4902 1.366 . S
C4901 C4903 1.388 . S
C4902 C4901 1.366 . S
C4902 C4906 1.385 . S
C4903 H4878 0.951 . S
C4903 C4901 1.388 . S
C4903 C4904 1.366 . S
C4904 C4903 1.366 . S
C4904 C4905 1.414 . S
C4904 C4907 1.499 . S
C4905 H4879 0.950 . S
C4905 C4904 1.414 . S
C4905 C4906 1.374 . S
C4906 H4880 0.950 . S
C4906 C4902 1.385 . S
C4906 C4905 1.374 . S
C4907 C4904 1.499 . S
C4907 C4908 1.373 . S
C4907 C4909 1.389 . S
C4908 H4881 0.950 . S
C4908 C4894 1.377 . S
C4908 C4907 1.373 . S
C4909 C4893 1.377 . S
C4909 C4907 1.389 . S
C4909 C4910 1.524 . S
C4910 C4909 1.524 . S
C4910 C4911 1.397 . S
C4910 C4915 1.363 . S
C4911 H4882 0.950 . S
C4911 C4910 1.397 . S
C4911 C4912 1.334 . S
C4912 H4883 0.950 . S
C4912 C4911 1.334 . S
C4912 C4913 1.287 . S
C4913 C4912 1.287 . S
C4913 C4914 1.524 . S
C4913 H4916 0.999 . S
C4914 H4884 0.950 . S
C4914 C4913 1.524 . S
C4914 C4915 1.415 . S
C4915 H4885 0.950 . S
C4915 C4910 1.363 . S
C4915 C4914 1.415 . S
H4916 C4913 0.999 . S
H4917 C4898 0.913 . S
H4918 C4936 0.951 . S
H4919 C4938 0.951 1_565 S
H4920 C4940 0.950 . S
H4921 C4941 0.950 . S
H4922 C4943 0.950 . S
H4923 C4946 0.950 1_545 S
H4924 C4947 0.950 . S
H4925 C4949 0.950 . S
H4926 C4950 0.950 . S
H4927 C4951 0.951 . S
H4928 C4953 0.951 . S
H4929 C4955 0.950 . S
H4930 C4956 0.950 . S
H4931 C4958 0.950 1_565 S
H4932 C4961 0.950 . S
H4933 C4962 0.950 . S
H4934 C4964 0.950 . S
H4935 C4965 0.950 . S
C4936 H4918 0.951 . S
C4936 C4937 1.366 . S
C4936 C4938 1.388 . S
C4937 C4936 1.366 . S
C4937 C4941 1.385 . S
C4938 H4919 0.951 1_545 S
C4938 C4936 1.388 . S
C4938 C4939 1.366 . S
C4939 C4938 1.366 . S
C4939 C4940 1.414 . S
C4939 C4942 1.499 . S
C4940 H4920 0.950 . S
C4940 C4939 1.414 . S
C4940 C4941 1.374 . S
C4941 H4921 0.950 . S
C4941 C4937 1.385 . S
C4941 C4940 1.374 . S
C4942 C4939 1.499 . S
C4942 C4943 1.373 . S
C4942 C4944 1.389 . S
C4943 H4922 0.950 . S
C4943 C4942 1.373 . S
C4943 C4959 1.377 . S
C4944 C4942 1.389 . S
C4944 C4945 1.524 1_545 S
C4944 C4958 1.377 . S
C4945 C4944 1.524 1_565 S
C4945 C4946 1.397 . S
C4945 C4950 1.363 . S
C4946 H4923 0.950 1_565 S
C4946 C4945 1.397 . S
C4946 C4947 1.334 . S
C4947 H4924 0.950 . S
C4947 C4946 1.334 . S
C4947 C4948 1.287 . S
C4948 C4947 1.287 . S
C4948 C4949 1.524 . S
C4948 H4967 0.913 . S
C4949 H4925 0.950 . S
C4949 C4948 1.524 . S
C4949 C4950 1.415 . S
C4950 H4926 0.950 . S
C4950 C4945 1.363 . S
C4950 C4949 1.415 . S
C4951 H4927 0.951 . S
C4951 C4952 1.366 . S
C4951 C4953 1.388 . S
C4952 C4951 1.366 . S
C4952 C4956 1.385 1_545 S
C4953 H4928 0.951 . S
C4953 C4951 1.388 . S
C4953 C4954 1.366 . S
C4954 C4953 1.366 . S
C4954 C4955 1.414 1_545 S
C4954 C4957 1.499 . S
C4955 H4929 0.950 . S
C4955 C4954 1.414 1_565 S
C4955 C4956 1.374 . S
C4956 H4930 0.950 . S
C4956 C4952 1.385 1_565 S
C4956 C4955 1.374 . S
C4957 C4954 1.499 . S
C4957 C4958 1.373 . S
C4957 C4959 1.389 . S
C4958 H4931 0.950 1_545 S
C4958 C4944 1.377 . S
C4958 C4957 1.373 . S
C4959 C4943 1.377 . S
C4959 C4957 1.389 . S
C4959 C4960 1.524 . S
C4960 C4959 1.524 . S
C4960 C4961 1.397 . S
C4960 C4965 1.363 . S
C4961 H4932 0.950 . S
C4961 C4960 1.397 . S
C4961 C4962 1.334 . S
C4962 H4933 0.950 . S
C4962 C4961 1.334 . S
C4962 C4963 1.287 . S
C4963 C4962 1.287 . S
C4963 C4964 1.524 . S
C4963 H4966 0.999 . S
C4964 H4934 0.950 . S
C4964 C4963 1.524 . S
C4964 C4965 1.415 . S
C4965 H4935 0.950 . S
C4965 C4960 1.363 . S
C4965 C4964 1.415 . S
H4966 C4963 0.999 . S
H4967 C4948 0.913 . S
C1387 C7 1.538 . S
C1402 C857 1.514 . S
C1437 C23 1.622 . S
C1452 C901 1.586 . S
C1502 C981 1.531 . S
C1487 C37 1.577 . S
C1537 C35 1.555 . S
C1552 C1025 1.545 . S
C1587 C9 1.579 1_455 S
C1602 C1105 1.539 . S
C1637 C21 1.598 . S
C1652 C1167 1.568 . S
C1687 C49 1.537 . S
C1702 C1087 1.507 . S
C1752 C1149 1.561 . S
C1737 C65 1.621 . S
C1802 C1043 1.567 . S
C1787 C79 1.626 1_565 S
C1837 C77 1.540 . S
C1852 C963 1.507 . S
C1902 C839 1.545 . S
C1887 C51 1.617 1_655 S
C1937 C63 1.594 . S
C1952 C919 1.592 . S
C1987 C91 1.649 . S
C2002 C1229 1.618 . S
C2037 C107 1.665 . S
C2052 C1273 1.628 . S
C2102 C1353 1.616 . S
C2087 C121 1.690 . S
C2137 C119 1.645 . S
C2152 C299 1.607 . S
C2187 C93 1.688 . S
C2202 C343 1.650 . S
C2237 C105 1.630 . S
C2252 C423 1.597 . S
C2287 C133 1.598 . S
C2302 C361 1.594 . S
C2337 C149 1.656 . S
C2352 C405 1.594 . S
C2402 C281 1.618 . S
C2387 C163 1.690 . S
C2452 C1335 1.653 . S
C2437 C161 1.690 . S
C2502 C1211 1.602 . S
C2487 C135 1.674 . S
C2552 C1291 1.652 . S
C2537 C147 1.650 . S
C2587 C175 1.602 . S
C2602 C485 1.569 . S
C2637 C191 1.648 . S
C2652 C547 1.586 . S
C2687 C205 1.687 . S
C2702 C591 1.647 . S
C2737 C203 1.688 . S
C2752 C653 1.687 . S
C2802 C715 1.644 . S
C2787 C177 1.684 . S
C2852 C795 1.626 . S
C2837 C189 1.653 . S
C2902 C733 1.656 . S
C2887 C217 1.657 . S
C2952 C777 1.608 . S
C2937 C233 1.673 . S
C2987 C247 1.685 . S
C3002 C671 1.644 . S
C3052 C609 1.634 . S
C3037 C245 1.638 . S
C3087 C219 1.684 . S
C3102 C467 1.614 . S
C3152 C529 1.604 . S
C3137 C231 1.636 . S
C3202 C305 1.509 . S
C3187 C8 1.579 . S
C3237 C17 1.525 . S
C3252 C349 1.470 . S
C3302 C429 1.509 . S
C3287 C31 1.576 . S
C3352 C491 1.522 . S
C3337 C36 1.592 1_556 S
C3402 C553 1.485 . S
C3387 C3 1.554 1_556 S
C3452 C597 1.479 . S
C3437 C22 1.534 1_556 S
C3487 C50 1.583 1_556 S
C3502 C615 1.541 . S
C3537 C59 1.541 . S
C3552 C473 1.451 . S
C3587 C73 1.550 1_556 S
C3602 C535 1.481 . S
C3637 C78 1.616 . S
C3652 C367 1.569 . S
C3702 C411 1.478 . S
C3687 C45 1.544 . S
C3737 C64 1.535 . S
C3752 C287 1.464 . S
C3802 C659 1.520 . S
C3787 C92 1.574 . S
C3837 C101 1.616 1_545 S
C3852 C721 1.556 . S
C3887 C115 1.631 1_655 S
C3902 C801 1.558 . S
C3952 C863 1.435 . S
C3937 C120 1.486 . S
C3987 C87 1.557 . S
C4002 C907 1.500 . S
C4037 C106 1.440 . S
C4052 C987 1.390 . S
C4087 C134 1.460 . S
C4102 C969 1.400 . S
C4137 C143 1.470 . S
C4152 C845 1.414 . S
C4202 C925 1.518 . S
C4187 C157 1.573 . S
C4237 C162 1.588 . S
C4252 C739 1.532 . S
C4287 C129 1.625 1_545 S
C4302 C783 1.549 . S
C4352 C677 1.553 . S
C4337 C148 1.604 . S
C4402 C1031 1.427 . S
C4387 C176 1.469 . S
C4437 C185 1.464 . S
C4452 C1111 1.409 . S
C4487 C199 1.569 . S
C4502 C1173 1.501 . S
C4552 C1235 1.502 . S
C4537 C204 1.573 . S
C4602 C1279 1.564 . S
C4587 C171 1.626 1_565 S
C4637 C190 1.653 . S
C4652 C1359 1.540 . S
C4687 C218 1.581 . S
C4702 C1341 1.512 . S
C4737 C227 1.611 1_565 S
C4752 C1217 1.537 . S
C4802 C1297 1.559 . S
C4787 C241 1.619 1_455 S
C4852 C1093 1.426 . S
C4837 C246 1.475 . S
C4902 C1155 1.492 . S
C4887 C213 1.562 . S
C4937 C232 1.456 . S
C4952 C1049 1.410 . S
