# Generated by pormake.
# Topology anh, (6,3)-cn, num edge types: 1
# Building blocks:
#     Node 0, Type 0, BuildingBlock: BETFAJ_clean_sbu_0, # of connection points: 6
#     Node 1, Type 0, BuildingBlock: BETFAJ_clean_sbu_0, # of connection points: 6
#     Node 2, Type 0, BuildingBlock: BETFAJ_clean_sbu_0, # of connection points: 6
#     Node 3, Type 1, BuildingBlock: BETDAH_clean_linker_0, # of connection points: 3
#     Node 4, Type 1, BuildingBlock: BETDAH_clean_linker_0, # of connection points: 3
#     Node 5, Type 1, BuildingBlock: BETDAH_clean_linker_0, # of connection points: 3
#     Node 6, Type 1, BuildingBlock: BETDAH_clean_linker_0, # of connection points: 3
#     Node 7, Type 1, BuildingBlock: BETDAH_clean_linker_0, # of connection points: 3
#     Node 8, Type 1, BuildingBlock: BETDAH_clean_linker_0, # of connection points: 3
#     Edge 9, Type (0, 1), BuildingBlock: XIVTED_clean_linker_0, # of connection points: 2
#     Edge 10, Type (0, 1), BuildingBlock: XIVTED_clean_linker_0, # of connection points: 2
#     Edge 11, Type (0, 1), BuildingBlock: XIVTED_clean_linker_0, # of connection points: 2
#     Edge 12, Type (0, 1), BuildingBlock: XIVTED_clean_linker_0, # of connection points: 2
#     Edge 13, Type (0, 1), BuildingBlock: XIVTED_clean_linker_0, # of connection points: 2
#     Edge 14, Type (0, 1), BuildingBlock: XIVTED_clean_linker_0, # of connection points: 2
#     Edge 15, Type (0, 1), BuildingBlock: XIVTED_clean_linker_0, # of connection points: 2
#     Edge 16, Type (0, 1), BuildingBlock: XIVTED_clean_linker_0, # of connection points: 2
#     Edge 17, Type (0, 1), BuildingBlock: XIVTED_clean_linker_0, # of connection points: 2
#     Edge 18, Type (0, 1), BuildingBlock: XIVTED_clean_linker_0, # of connection points: 2
#     Edge 19, Type (0, 1), BuildingBlock: XIVTED_clean_linker_0, # of connection points: 2
#     Edge 20, Type (0, 1), BuildingBlock: XIVTED_clean_linker_0, # of connection points: 2
#     Edge 21, Type (0, 1), BuildingBlock: XIVTED_clean_linker_0, # of connection points: 2
#     Edge 22, Type (0, 1), BuildingBlock: XIVTED_clean_linker_0, # of connection points: 2
#     Edge 23, Type (0, 1), BuildingBlock: XIVTED_clean_linker_0, # of connection points: 2
#     Edge 24, Type (0, 1), BuildingBlock: XIVTED_clean_linker_0, # of connection points: 2
#     Edge 25, Type (0, 1), BuildingBlock: XIVTED_clean_linker_0, # of connection points: 2
#     Edge 26, Type (0, 1), BuildingBlock: XIVTED_clean_linker_0, # of connection points: 2
# Relax obj value: 0.150
# Max RMSD: 0.184
# Mean RMSD: 0.111
data_MOF--net-anh--node1-BETFAJ_clean_sbu_0--node2-BETDAH_clean_linker_0--edge1-XIVTED_clean_linker_0
_symmetry_space_group_name_H-M    P1
_symmetry_Int_Tables_number       1
_symmetry_cell_setting            triclinic
loop_
_symmetry_equiv_pos_as_xyz
'x, y, z'
_cell_length_a     30.756045
_cell_length_b     38.853315
_cell_length_c     49.093258
_cell_angle_alpha  93.463246
_cell_angle_beta   89.594913
_cell_angle_gamma 129.91913
loop_
_atom_site_label
_atom_site_type_symbol
_atom_site_fract_x
_atom_site_fract_y
_atom_site_fract_z
_atom_type_partial_charge
Sm0 Sm 0.19158 0.56044 0.1482 0.0
Sm1 Sm 0.10747 0.5769 0.17276 0.0
C2 C 0.25712 0.55086 0.12033 0.0
C3 C 0.25746 0.51334 0.11526 0.0
C4 C 0.3088 0.52145 0.11726 0.0
C5 C 0.30933 0.48576 0.11408 0.0
C6 C 0.2585 0.4414 0.10867 0.0
C7 C 0.20716 0.43339 0.10636 0.0
C8 C 0.20656 0.46902 0.10983 0.0
C9 C 0.17887 0.55824 0.20358 0.0
C10 C 0.23758 0.66453 0.1599 0.0
C11 C 1.04265 0.58082 0.20576 0.0
C12 C 0.98069 0.55255 0.20563 0.0
C13 C 0.95475 0.56862 0.21767 0.0
C14 C 0.89572 0.54247 0.21517 0.0
C15 C 0.8621 0.49991 0.20067 0.0
C16 C 0.88852 0.48367 0.18938 0.0
C17 C 0.94713 0.50978 0.19173 0.0
C18 C 0.0954 0.56285 0.11622 0.0
C19 C 1.06133 0.47323 0.15905 0.0
O20 O 0.27001 0.56883 0.14549 0.0
O21 O 0.2145 0.54561 0.10904 0.0
O22 O 0.18209 0.58493 0.18859 0.0
O23 O 0.18566 0.53254 0.18964 0.0
O24 O 0.24453 0.63743 0.14692 0.0
O25 O 0.19141 0.64941 0.17332 0.0
O26 O 1.06219 0.56021 0.21129 0.0
O27 O 1.06697 0.60617 0.18509 0.0
O28 O 0.12766 0.56362 0.13211 0.0
O29 O 1.06529 0.56921 0.1307 0.0
O30 O 1.05628 0.50029 0.17359 0.0
O31 O 0.10626 0.48845 0.14456 0.0
H32 H 0.3484 0.55535 0.12158 0.0
H33 H 0.34956 0.49286 0.11569 0.0
H34 H 0.16737 0.39948 0.10245 0.0
H35 H 0.16622 0.46178 0.1086 0.0
H36 H 0.98017 0.60171 0.22836 0.0
H37 H 0.87652 0.55586 0.22406 0.0
H38 H 0.86428 0.45163 0.17749 0.0
H39 H 0.96641 0.49705 0.18191 0.0
Sm40 Sm 0.71165 0.07587 0.48137 0.0
Sm41 Sm 0.63407 0.09519 0.46839 0.0
C42 C 0.76094 0.04663 0.50238 0.0
C43 C 0.74564 0.00354 0.50836 0.0
C44 C 0.77867 0.00309 0.52756 0.0
C45 C 0.76546 0.96256 0.5332 0.0
C46 C 0.71892 0.92168 0.51967 0.0
C47 C 0.68527 0.92228 0.50073 0.0
C48 C 0.69849 0.96289 0.49515 0.0
C49 C 0.70388 0.0853 0.42697 0.0
C50 C 0.57531 0.99165 0.46815 0.0
C51 C 0.58362 0.1259 0.45168 0.0
C52 C 0.59107 0.16671 0.45894 0.0
C53 C 0.64254 0.20546 0.47097 0.0
C54 C 0.64815 0.24305 0.47975 0.0
C55 C 0.60216 0.24246 0.47697 0.0
C56 C 0.55084 0.20365 0.46456 0.0
C57 C 0.5454 0.16612 0.45563 0.0
C58 C 0.64214 0.08564 0.52267 0.0
C59 C 0.77266 0.17985 0.47783 0.0
O60 O 0.73752 0.05948 0.51721 0.0
O61 O 0.76248 0.05386 0.47658 0.0
O62 O 0.66286 0.06417 0.4426 0.0
O63 O 0.75091 0.10059 0.43946 0.0
O64 O 0.62134 0.0063 0.48241 0.0
O65 O 0.57341 0.01987 0.45574 0.0
O66 O 0.62498 0.1315 0.43883 0.0
O67 O 0.56436 0.09809 0.47093 0.0
O68 O 0.6833 0.10758 0.5072 0.0
O69 O 0.59504 0.0693 0.50998 0.0
O70 O 0.72355 0.1651 0.46717 0.0
O71 O 0.77809 0.1523 0.48833 0.0
H72 H 0.81491 0.03418 0.53811 0.0
H73 H 0.79168 0.96327 0.54823 0.0
H74 H 0.6495 0.89154 0.48973 0.0
H75 H 0.67234 0.96261 0.48032 0.0
H76 H 0.67817 0.20645 0.47396 0.0
H77 H 0.68852 0.27253 0.48882 0.0
H78 H 0.51431 0.20174 0.46243 0.0
H79 H 0.50515 0.13627 0.44668 0.0
Sm80 Sm 0.63357 0.58925 0.84177 0.0
Sm81 Sm 0.54992 0.48788 0.8376 0.0
C82 C 0.69375 0.67588 0.83464 0.0
C83 C 0.68478 0.7068 0.82666 0.0
C84 C 0.72769 0.74508 0.81344 0.0
C85 C 0.72005 0.77482 0.80541 0.0
C86 C 0.66924 0.76678 0.81049 0.0
C87 C 0.62605 0.72803 0.82359 0.0
C88 C 0.63373 0.69824 0.83157 0.0
C89 C 0.60961 0.55015 0.89044 0.0
C90 C 0.49544 0.53603 0.84291 0.0
C91 C 0.4949 0.40163 0.84302 0.0
C92 C 0.50741 0.37184 0.83511 0.0
C93 C 0.48431 0.33362 0.8493 0.0
C94 C 0.4979 0.30613 0.84245 0.0
C95 C 0.53481 0.31644 0.82123 0.0
C96 C 0.55793 0.35501 0.80713 0.0
C97 C 0.5446 0.38256 0.81411 0.0
C98 C 0.57299 0.52517 0.78832 0.0
C99 C 0.68954 0.54168 0.8402 0.0
O100 O 0.68395 0.64659 0.81542 0.0
O101 O 0.67531 0.65888 0.85833 0.0
O102 O 0.57438 0.53864 0.87155 0.0
O103 O 0.66056 0.58505 0.8846 0.0
O104 O 0.54586 0.57214 0.83556 0.0
O105 O 0.4878 0.49989 0.84914 0.0
O106 O 0.52866 0.43312 0.86225 0.0
O107 O 0.48415 0.41619 0.82294 0.0
O108 O 0.60944 0.53821 0.8071 0.0
O109 O 0.52275 0.49036 0.79484 0.0
O110 O 0.63688 0.50332 0.84135 0.0
O111 O 0.7 0.58008 0.83814 0.0
H112 H 0.76716 0.75194 0.80927 0.0
H113 H 0.75379 0.8039 0.79499 0.0
H114 H 0.58667 0.72108 0.82811 0.0
H115 H 0.6 0.6687 0.84167 0.0
H116 H 0.45618 0.32527 0.86583 0.0
H117 H 0.48011 0.27719 0.85406 0.0
H118 H 0.58585 0.36371 0.79046 0.0
H119 H 0.56341 0.41231 0.80312 0.0
H120 H 0.56041 0.98478 0.23167 0.0
H121 H 0.71001 0.11552 0.21158 0.0
H122 H 0.60238 0.01173 0.14769 0.0
C123 C 0.58761 0.00803 0.21647 0.0
C124 C 0.57485 0.993 0.18872 0.0
C125 C 0.6363 0.05201 0.22494 0.0
C126 C 0.67257 0.08152 0.20516 0.0
C127 C 0.66019 0.06702 0.17719 0.0
C128 C 0.61173 0.02272 0.16922 0.0
N129 N 0.69533 0.09578 0.15647 0.0
C130 C 0.74135 0.14151 0.16092 0.0
H131 H 0.62967 0.49123 0.59217 0.0
H132 H 0.63079 0.6002 0.57898 0.0
H133 H 0.62478 0.52307 0.51033 0.0
C134 C 0.63046 0.51225 0.57827 0.0
C135 C 0.62732 0.50273 0.54993 0.0
C136 C 0.63155 0.54724 0.58888 0.0
C137 C 0.63021 0.57336 0.57085 0.0
C138 C 0.6279 0.56455 0.54244 0.0
C139 C 0.62627 0.52932 0.53226 0.0
N140 N 0.62635 0.5898 0.52336 0.0
C141 C 0.6352 0.62918 0.53002 0.0
H142 H 0.99548 0.54385 0.91533 0.0
H143 H 0.12645 0.53486 0.90102 0.0
H144 H 1.03858 0.53549 0.83326 0.0
C145 C 1.02071 0.54108 0.90136 0.0
C146 C 1.01173 0.53966 0.87322 0.0
C147 C 1.06113 0.53855 0.91169 0.0
C148 C 0.09514 0.53669 0.89331 0.0
C149 C 0.08754 0.53589 0.86492 0.0
C150 C 1.04495 0.53651 0.85507 0.0
N151 N 0.12129 0.53412 0.84568 0.0
C152 C 0.16752 0.53627 0.85169 0.0
H153 H 0.2504 0.66823 0.39815 0.0
H154 H 0.13057 0.53165 0.42029 0.0
H155 H 0.2377 0.6394 0.48236 0.0
C156 C 0.23028 0.64429 0.41376 0.0
C157 C 0.24879 0.65963 0.44114 0.0
C158 C 0.18787 0.59832 0.40604 0.0
C159 C 0.16337 0.56713 0.42619 0.0
C160 C 0.18118 0.58203 0.45385 0.0
C161 C 0.22417 0.62812 0.46106 0.0
N162 N 0.15706 0.55189 0.475 0.0
C163 C 0.11056 0.50618 0.47141 0.0
H164 H 0.63712 0.13558 0.72144 0.0
H165 H 0.63297 0.02475 0.73363 0.0
H166 H 0.59534 0.07896 0.79948 0.0
C167 C 0.63211 0.11215 0.73483 0.0
C168 C 0.61599 0.11138 0.76174 0.0
C169 C 0.63787 0.08078 0.72448 0.0
C170 C 0.62897 0.04917 0.74161 0.0
C171 C 0.61414 0.04893 0.76884 0.0
C172 C 0.60736 0.07973 0.77857 0.0
N173 N 0.60424 0.0177 0.787 0.0
C174 C 0.61523 0.98848 0.78169 0.0
H175 H 0.57655 0.39352 0.06138 0.0
H176 H 0.4184 0.28382 0.01945 0.0
H177 H 0.45564 0.27039 0.10018 0.0
C178 C 0.53658 0.35938 0.06062 0.0
C179 C 0.52118 0.33395 0.08338 0.0
C180 C 0.5002 0.34179 0.03731 0.0
C181 C 0.44792 0.29779 0.03688 0.0
C182 C 0.43233 0.27196 0.05938 0.0
C183 C 0.46914 0.28989 0.08245 0.0
N184 N 0.376 0.23144 0.06075 0.0
C185 C 0.33556 0.23515 0.06814 0.0
H186 H 0.31386 0.425 0.1414 0.0
H187 H 0.26474 0.23731 0.03751 0.0
H188 H 0.20459 0.37205 0.0689 0.0
H189 H 0.34435 0.27229 0.11765 0.0
H190 H 0.2345 0.28113 0.04988 0.0
H191 H 0.3198 0.36539 0.13434 0.0
C192 C 0.29102 0.40068 0.12402 0.0
C193 C 0.25924 0.40367 0.10552 0.0
C194 C 0.25739 0.27837 0.06501 0.0
C195 C 0.26568 0.33532 0.09728 0.0
C196 C 0.2742 0.25316 0.05799 0.0
C197 C 0.30627 0.25112 0.0768 0.0
C198 C 0.27401 0.30221 0.09078 0.0
C199 C 0.31896 0.27287 0.10282 0.0
C200 C 0.29403 0.36645 0.12009 0.0
C201 C 0.22958 0.37087 0.08361 0.0
N202 N 0.30337 0.29804 0.10897 0.0
N203 N 0.23409 0.33833 0.07989 0.0
H204 H 0.88104 0.22348 0.49773 0.0
H205 H 1.00569 0.46447 0.44946 0.0
H206 H 0.77945 0.24669 0.45627 0.0
H207 H 0.10589 0.44099 0.49163 0.0
H208 H 0.92244 0.38434 0.45074 0.0
H209 H 0.96392 0.30274 0.49518 0.0
C210 C 0.87602 0.24521 0.48817 0.0
C211 C 0.82299 0.22825 0.47725 0.0
C212 C 0.96264 0.39659 0.45961 0.0
C213 C 0.9181 0.31928 0.47415 0.0
C214 C 1.01 0.44217 0.45879 0.0
C215 C 1.0622 0.45877 0.47036 0.0
C216 C 0.96781 0.3677 0.4722 0.0
C217 C 1.06609 0.42906 0.48239 0.0
C218 C 0.92349 0.29052 0.48667 0.0
C219 C 0.81932 0.25816 0.46505 0.0
N220 N 1.01945 0.38491 0.48306 0.0
N221 N 0.86618 0.30213 0.46382 0.0
H222 H 0.57367 0.74851 0.78875 0.0
H223 H 0.71576 0.00814 0.7897 0.0
H224 H 0.74793 0.85898 0.81429 0.0
H225 H 0.5381 0.89844 0.77143 0.0
H226 H 0.7309 0.95379 0.79343 0.0
H227 H 0.56177 0.80263 0.77774 0.0
C228 C 0.60942 0.78412 0.79209 0.0
C229 C 0.66181 0.79915 0.80262 0.0
C230 C 0.68867 0.94152 0.7883 0.0
C231 C 0.64865 0.86133 0.78972 0.0
C232 C 0.68021 0.9725 0.78604 0.0
C233 C 0.62579 0.95734 0.78017 0.0
C234 C 0.64215 0.89516 0.78483 0.0
C235 C 0.58075 0.91111 0.77586 0.0
C236 C 0.60269 0.81501 0.78562 0.0
C237 C 0.70693 0.84575 0.80598 0.0
N238 N 0.58984 0.8815 0.77843 0.0
N239 N 0.69922 0.87512 0.79967 0.0
H240 H 0.8099 0.53274 0.18582 0.0
H241 H 0.55048 0.29593 0.11571 0.0
H242 H 0.77505 0.40877 0.20025 0.0
H243 H 0.57748 0.41841 0.10796 0.0
H244 H 0.6224 0.33385 0.15311 0.0
H245 H 0.71514 0.48936 0.16471 0.0
C246 C 0.78179 0.49637 0.18523 0.0
C247 C 0.80091 0.47436 0.19426 0.0
C248 C 0.61207 0.35228 0.14347 0.0
C249 C 0.69287 0.42443 0.16935 0.0
C250 C 0.57094 0.33059 0.12216 0.0
C251 C 0.55908 0.3544 0.10827 0.0
C252 C 0.64165 0.39812 0.15082 0.0
C253 C 0.58667 0.39921 0.11754 0.0
C254 C 0.72774 0.47154 0.17293 0.0
C255 C 0.76257 0.4271 0.19283 0.0
N256 N 0.62722 0.41979 0.13795 0.0
N257 N 0.71077 0.4037 0.18008 0.0
H258 H 0.47428 0.94929 0.44004 0.0
H259 H 0.3421 0.70106 0.47603 0.0
H260 H 0.56274 0.92272 0.49063 0.0
H261 H 0.25962 0.72968 0.42262 0.0
H262 H 0.42056 0.78213 0.48443 0.0
H263 H 0.39314 0.869 0.43573 0.0
C264 C 0.47671 0.92661 0.45028 0.0
C265 C 0.52563 0.94289 0.46564 0.0
C266 C 0.38515 0.77064 0.47097 0.0
C267 C 0.43241 0.85052 0.4608 0.0
C268 C 0.34018 0.72439 0.46633 0.0
C269 C 0.29444 0.70856 0.44843 0.0
C270 C 0.38421 0.80124 0.4577 0.0
C271 C 0.29444 0.74033 0.43622 0.0
C272 C 0.43022 0.88066 0.44782 0.0
C273 C 0.52605 0.91173 0.4785 0.0
N274 N 0.33863 0.78502 0.441 0.0
N275 N 0.48021 0.86705 0.47574 0.0
H276 H 0.63702 0.34139 0.80544 0.0
H277 H 0.5259 0.09014 0.79019 0.0
H278 H 0.46476 0.22423 0.81967 0.0
H279 H 0.6811 0.20188 0.75603 0.0
H280 H 0.50735 0.14036 0.80592 0.0
H281 H 0.65798 0.29211 0.79155 0.0
C282 C 0.60348 0.30533 0.80554 0.0
C283 C 0.54886 0.28701 0.81363 0.0
C284 C 0.54551 0.15393 0.79502 0.0
C285 C 0.57306 0.23047 0.79821 0.0
C286 C 0.55632 0.12537 0.78621 0.0
C287 C 0.60518 0.14193 0.77184 0.0
C288 C 0.58402 0.19952 0.78961 0.0
C289 C 0.64272 0.18772 0.76687 0.0
C290 C 0.61563 0.27725 0.79773 0.0
C291 C 0.50762 0.24001 0.81395 0.0
N292 N 0.63144 0.21498 0.77581 0.0
N293 N 0.52057 0.21342 0.80635 0.0
H294 H 0.7949 0.90788 0.5269 0.0
H295 H 0.55743 0.64066 0.53067 0.0
H296 H 0.61512 0.83768 0.52367 0.0
H297 H 0.73706 0.71225 0.53642 0.0
H298 H 0.57715 0.7128 0.5313 0.0
H299 H 0.77431 0.83711 0.53353 0.0
C300 C 0.75105 0.87768 0.52788 0.0
C301 C 0.70669 0.87886 0.52467 0.0
C302 C 0.6123 0.71284 0.53272 0.0
C303 C 0.68273 0.79726 0.53185 0.0
C304 C 0.60099 0.67177 0.53247 0.0
C305 C 0.64582 0.67107 0.5336 0.0
C306 C 0.66887 0.75321 0.5339 0.0
C307 C 0.70152 0.71181 0.53564 0.0
C308 C 0.73931 0.83716 0.53152 0.0
C309 C 0.65069 0.83835 0.52563 0.0
N310 N 0.71156 0.75135 0.53557 0.0
N311 N 0.64032 0.79921 0.52903 0.0
H312 H 0.80208 0.61425 0.85083 0.0
H313 H 0.91591 0.47705 0.84033 0.0
H314 H 0.68911 0.47011 0.83426 0.0
H315 H 1.00516 0.60569 0.88535 0.0
H316 H 0.83743 0.47709 0.83022 0.0
H317 H 0.88141 0.61464 0.85596 0.0
C318 C 0.79385 0.58264 0.84805 0.0
C319 C 0.73843 0.54206 0.84215 0.0
C320 C 0.87445 0.50547 0.84209 0.0
C321 C 0.83001 0.54241 0.84788 0.0
C322 C 0.91943 0.50565 0.84763 0.0
C323 C 0.96728 0.54154 0.86359 0.0
C324 C 0.87774 0.54181 0.85221 0.0
C325 C 0.96917 0.57742 0.87292 0.0
C326 C 0.83933 0.58291 0.8511 0.0
C327 C 0.73089 0.50221 0.83893 0.0
N328 N 0.92533 0.5767 0.86706 0.0
N329 N 0.77605 0.5034 0.84175 0.0
H330 H 0.24135 0.73121 0.18537 0.0
H331 H 0.56455 0.93212 0.15143 0.0
H332 H 0.34169 0.71094 0.13664 0.0
H333 H 0.46787 0.94668 0.20756 0.0
H334 H 0.48064 0.85286 0.14138 0.0
H335 H 0.32112 0.81175 0.18938 0.0
C336 C 0.28001 0.74361 0.17535 0.0
C337 C 0.28472 0.71395 0.16079 0.0
C338 C 0.47775 0.8735 0.15578 0.0
C339 C 0.37679 0.80672 0.16542 0.0
C340 C 0.52551 0.91879 0.16138 0.0
C341 C 0.52335 0.94597 0.18053 0.0
C342 C 0.42738 0.85534 0.16929 0.0
C343 C 0.47174 0.92681 0.19298 0.0
C344 C 0.3257 0.78976 0.1777 0.0
C345 C 0.33605 0.73237 0.14819 0.0
N346 N 0.426 0.88275 0.18722 0.0
N347 N 0.38015 0.77751 0.1509 0.0
H348 H 0.65748 0.29623 0.52418 0.0
H349 H 0.56213 0.44283 0.50608 0.0
H350 H 0.5581 0.27796 0.45442 0.0
H351 H 0.68404 0.47504 0.56834 0.0
H352 H 0.55712 0.38048 0.4879 0.0
H353 H 0.66482 0.35999 0.54163 0.0
C354 C 0.63759 0.3058 0.51237 0.0
C355 C 0.60726 0.28163 0.48769 0.0
C356 C 0.58507 0.40123 0.5055 0.0
C357 C 0.61472 0.35435 0.5079 0.0
C358 C 0.58822 0.43706 0.51583 0.0
C359 C 0.62378 0.46448 0.53875 0.0
C360 C 0.61745 0.39243 0.51822 0.0
C361 C 0.65556 0.45458 0.55084 0.0
C362 C 0.64153 0.34211 0.52247 0.0
C363 C 0.58133 0.29515 0.47368 0.0
N364 N 0.65161 0.41938 0.54045 0.0
N365 N 0.58561 0.33053 0.48399 0.0
H366 H 0.38676 0.46873 0.85833 0.0
H367 H 0.27641 0.60658 0.84115 0.0
H368 H 0.49296 0.60395 0.83243 0.0
H369 H 0.16991 0.47036 0.8648 0.0
H370 H 0.35717 0.60759 0.83966 0.0
H371 H 0.30823 0.46967 0.86214 0.0
C372 C 0.39376 0.4987 0.85341 0.0
C373 C 0.44701 0.53633 0.845 0.0
C374 C 0.31632 0.57753 0.84537 0.0
C375 C 0.35637 0.53763 0.84946 0.0
C376 C 0.2703 0.57706 0.84636 0.0
C377 C 0.21666 0.53847 0.85334 0.0
C378 C 0.30866 0.53898 0.85131 0.0
C379 C 0.21076 0.50092 0.85954 0.0
C380 C 0.34867 0.4992 0.85564 0.0
C381 C 0.45295 0.57411 0.839 0.0
N382 N 0.25605 0.50207 0.85834 0.0
N383 N 0.40838 0.57377 0.84133 0.0
H384 H 1.05418 0.40508 0.13275 0.0
H385 H 0.74989 0.20711 0.19012 0.0
H386 H 0.9626 0.42843 0.1867 0.0
H387 H 0.83985 0.18374 0.13532 0.0
H388 H 0.82898 0.28851 0.19037 0.0
H389 H 0.97747 0.32406 0.13431 0.0
C390 C 1.018 0.39329 0.14491 0.0
C391 C 1.01499 0.42385 0.15956 0.0
C392 C 0.83166 0.26565 0.17838 0.0
C393 C 0.92684 0.33083 0.16149 0.0
C394 C 0.78666 0.21932 0.17833 0.0
C395 C 0.78896 0.1892 0.16277 0.0
C396 C 0.87901 0.28172 0.16266 0.0
C397 C 0.83698 0.20623 0.14766 0.0
C398 C 0.97418 0.34693 0.14581 0.0
C399 C 0.96693 0.40634 0.175 0.0
N400 N 0.88015 0.25142 0.14792 0.0
N401 N 0.92487 0.36111 0.17553 0.0
H402 H 0.17557 0.57734 0.08178 0.0
H403 H 0.97587 0.49336 0.94774 0.0
H404 H 1.00668 0.53374 0.08243 0.0
H405 H 0.15825 0.58025 0.94435 0.0
H406 H 0.98457 0.49672 -0.00274 0.0
H407 H 0.16806 0.5679 0.03155 0.0
C408 C 0.13668 0.56514 0.07134 0.0
C409 C 0.09147 0.55588 0.08616 0.0
C410 C 1.02273 0.51503 0.98571 0.0
C411 C 0.08263 0.54526 0.02904 0.0
C412 C 1.01787 0.51333 0.95738 0.0
C413 C 1.06649 0.53733 0.94175 0.0
C414 C 1.07657 0.54051 -0.00125 0.0
C415 C 0.1196 0.56125 0.95549 0.0
C416 C 0.13259 0.56015 0.04274 0.0
C417 C 1.04248 0.54122 0.07172 0.0
N418 N 0.12327 0.56243 0.98325 0.0
N419 N 1.03927 0.53619 0.044 0.0
H420 H 0.78532 0.12121 0.38881 0.0
H421 H 0.56369 0.03729 0.26425 0.0
H422 H 0.60788 0.05365 0.39809 0.0
H423 H 0.73835 0.09748 0.25323 0.0
H424 H 0.58232 0.05094 0.3136 0.0
H425 H 0.77205 0.12017 0.33948 0.0
C426 C 0.74366 0.10636 0.38045 0.0
C427 C 0.6975 0.0871 0.39745 0.0
C428 C 0.61678 0.06152 0.30044 0.0
C429 C 0.682 0.08588 0.34119 0.0
C430 C 0.60613 0.05368 0.27225 0.0
C431 C 0.64938 0.06579 0.25462 0.0
C432 C 0.6711 0.08149 0.31122 0.0
C433 C 0.70381 0.08768 0.26608 0.0
C434 C 0.7361 0.10579 0.35233 0.0
C435 C 0.64451 0.06853 0.38566 0.0
N436 N 0.71301 0.09442 0.29369 0.0
N437 N 0.63817 0.0682 0.35826 0.0
H438 H 0.50146 0.51072 0.74827 0.0
H439 H 0.70099 0.55631 0.6285 0.0
H440 H 0.6752 0.56906 0.76408 0.0
H441 H 0.55986 0.55356 0.61721 0.0
H442 H 0.69221 0.5597 0.67809 0.0
H443 H 0.52113 0.52483 0.70002 0.0
C444 C 0.54392 0.52693 0.74157 0.0
C445 C 0.58669 0.53849 0.76004 0.0
C446 C 0.66371 0.55901 0.66477 0.0
C447 C 0.60928 0.55406 0.70491 0.0
C448 C 0.66854 0.55688 0.63653 0.0
C449 C 0.63093 0.55448 0.61882 0.0
C450 C 0.62018 0.55775 0.67532 0.0
C451 C 0.58982 0.55556 0.6302 0.0
C452 C 0.55517 0.53509 0.71408 0.0
C453 C 0.64106 0.5596 0.75041 0.0
N454 N 0.58498 0.55644 0.65773 0.0
N455 N 0.65063 0.56607 0.72336 0.0
H456 H 0.55769 0.023 0.55413 0.0
H457 H 0.72102 0.14985 0.69473 0.0
H458 H 0.73619 0.13829 0.55752 0.0
H459 H 0.57665 0.00804 0.68745 0.0
H460 H 0.72779 0.14832 0.64488 0.0
H461 H 0.56277 0.01841 0.6033 0.0
C462 C 0.59804 0.04723 0.56528 0.0
C463 C 0.64651 0.08128 0.55191 0.0
C464 C 0.69528 0.11741 0.65425 0.0
C465 C 0.65252 0.07657 0.60814 0.0
C466 C 0.69135 0.11828 0.68261 0.0
C467 C 0.64814 0.07902 0.6951 0.0
C468 C 0.65488 0.07722 0.63831 0.0
C469 C 0.61074 0.03896 0.67859 0.0
C470 C 0.60099 0.04444 0.59327 0.0
C471 C 0.69787 0.11163 0.56718 0.0
N472 N 0.61437 0.03923 0.65098 0.0
N473 N 0.6994 0.10902 0.59465 0.0
H474 H 0.68214 0.55403 0.9253 0.0
H475 H 0.43085 0.34847 0.0077 0.0
H476 H 0.50458 0.48192 0.90702 0.0
H477 H 0.60446 0.40208 0.01526 0.0
H478 H 0.45789 0.39983 0.97238 0.0
H479 H 0.65572 0.50254 0.96088 0.0
C480 C 0.63768 0.52764 0.92899 0.0
C481 C 0.59543 0.52212 0.91332 0.0
C482 C 0.49006 0.40025 0.98169 0.0
C483 C 0.56492 0.46317 0.95363 0.0
C484 C 0.47453 0.3706 0.00171 0.0
C485 C 0.51539 0.37081 0.0145 0.0
C486 C 0.54696 0.43064 0.97445 0.0
C487 C 0.57164 0.4011 0.00624 0.0
C488 C 0.6226 0.49811 0.94912 0.0
C489 C 0.53844 0.48725 0.91869 0.0
N490 N 0.5858 0.42989 0.98682 0.0
N491 N 0.52485 0.4591 0.93839 0.0
H492 H 0.16811 0.50177 0.23922 0.0
H493 H 0.16202 0.63314 0.36925 0.0
H494 H 0.17193 0.6143 0.23534 0.0
H495 H 0.17768 0.53133 0.376 0.0
H496 H 0.15085 0.61807 0.31975 0.0
H497 H 0.15898 0.50459 0.28888 0.0
C498 C 0.16667 0.52685 0.24882 0.0
C499 C 0.1709 0.55792 0.23324 0.0
C500 C 0.1562 0.59866 0.33199 0.0
C501 C 0.16026 0.56124 0.28977 0.0
C502 C 0.16249 0.60722 0.36025 0.0
C503 C 0.1715 0.58384 0.37667 0.0
C504 C 0.15927 0.5666 0.31992 0.0
C505 C 0.17084 0.55011 0.36403 0.0
C506 C 0.16138 0.5284 0.2771 0.0
C507 C 0.1687 0.58966 0.24659 0.0
N508 N 0.16559 0.54285 0.33633 0.0
N509 N 0.16371 0.59057 0.27406 0.0
loop_
_geom_bond_atom_site_label_1
_geom_bond_atom_site_label_2
_geom_bond_distance
_geom_bond_site_symmetry_2
_ccdc_geom_bond_type
Sm0 C2 2.846 . S
Sm0 O20 2.543 . S
Sm0 O21 2.450 . S
Sm0 O22 2.681 . S
Sm0 O23 2.464 . S
Sm0 O24 2.396 . S
Sm0 O28 2.386 . S
Sm0 O31 2.408 1_455 S
Sm1 C11 2.846 1_455 S
Sm1 O22 2.386 . S
Sm1 O25 2.408 . S
Sm1 O26 2.543 1_455 S
Sm1 O27 2.450 1_455 S
Sm1 O28 2.681 . S
Sm1 O29 2.464 . S
Sm1 O30 2.396 1_455 S
C2 Sm0 2.846 . S
C2 C3 1.506 . S
C2 O20 1.261 . S
C2 O21 1.242 . S
C3 C2 1.506 . S
C3 C4 1.358 . S
C3 C8 1.382 . S
C4 C3 1.358 . S
C4 C5 1.385 . S
C4 H32 0.930 . S
C5 C4 1.385 . S
C5 C6 1.395 . S
C5 H33 0.929 . S
C6 C5 1.395 . S
C6 C7 1.335 . S
C7 C6 1.335 . S
C7 C8 1.398 . S
C7 H34 0.930 . S
C8 C3 1.382 . S
C8 C7 1.398 . S
C8 H35 0.929 . S
C9 O22 1.271 . S
C9 O23 1.251 . S
C10 O24 1.252 . S
C10 O25 1.272 . S
C11 Sm1 2.846 1_655 S
C11 C12 1.506 . S
C11 O26 1.261 . S
C11 O27 1.242 . S
C12 C11 1.506 . S
C12 C13 1.358 . S
C12 C17 1.382 . S
C13 C12 1.358 . S
C13 C14 1.385 . S
C13 H36 0.930 . S
C14 C13 1.385 . S
C14 C15 1.395 . S
C14 H37 0.929 . S
C15 C14 1.395 . S
C15 C16 1.335 . S
C16 C15 1.335 . S
C16 C17 1.398 . S
C16 H38 0.930 . S
C17 C12 1.382 . S
C17 C16 1.398 . S
C17 H39 0.929 . S
C18 O28 1.271 . S
C18 O29 1.251 . S
C19 O30 1.252 . S
C19 O31 1.272 . S
O20 Sm0 2.543 . S
O20 C2 1.261 . S
O21 Sm0 2.450 . S
O21 C2 1.242 . S
O22 Sm0 2.681 . S
O22 Sm1 2.386 . S
O22 C9 1.271 . S
O23 Sm0 2.464 . S
O23 C9 1.251 . S
O24 Sm0 2.396 . S
O24 C10 1.252 . S
O25 Sm1 2.408 . S
O25 C10 1.272 . S
O26 Sm1 2.543 1_655 S
O26 C11 1.261 . S
O27 Sm1 2.450 1_655 S
O27 C11 1.242 . S
O28 Sm0 2.386 . S
O28 Sm1 2.681 . S
O28 C18 1.271 . S
O29 Sm1 2.464 . S
O29 C18 1.251 . S
O30 Sm1 2.396 1_655 S
O30 C19 1.252 . S
O31 Sm0 2.408 1_655 S
O31 C19 1.272 . S
H32 C4 0.930 . S
H33 C5 0.929 . S
H34 C7 0.930 . S
H35 C8 0.929 . S
H36 C13 0.930 . S
H37 C14 0.929 . S
H38 C16 0.930 . S
H39 C17 0.929 . S
Sm40 C42 2.846 1_545 S
Sm40 O60 2.543 1_545 S
Sm40 O61 2.450 1_545 S
Sm40 O62 2.681 . S
Sm40 O63 2.464 . S
Sm40 O64 2.396 1_545 S
Sm40 O68 2.386 . S
Sm40 O71 2.408 . S
Sm41 C51 2.846 . S
Sm41 O62 2.386 . S
Sm41 O65 2.408 1_545 S
Sm41 O66 2.543 . S
Sm41 O67 2.450 . S
Sm41 O68 2.681 . S
Sm41 O69 2.464 . S
Sm41 O70 2.396 . S
C42 Sm40 2.846 1_565 S
C42 C43 1.506 . S
C42 O60 1.261 . S
C42 O61 1.242 . S
C43 C42 1.506 . S
C43 C44 1.358 . S
C43 C48 1.382 . S
C44 C43 1.358 . S
C44 C45 1.385 . S
C44 H72 0.930 . S
C45 C44 1.385 . S
C45 C46 1.395 . S
C45 H73 0.929 . S
C46 C45 1.395 . S
C46 C47 1.335 . S
C47 C46 1.335 . S
C47 C48 1.398 . S
C47 H74 0.930 . S
C48 C43 1.382 . S
C48 C47 1.398 . S
C48 H75 0.929 . S
C49 O62 1.271 . S
C49 O63 1.251 . S
C50 O64 1.252 . S
C50 O65 1.272 . S
C51 Sm41 2.846 . S
C51 C52 1.506 . S
C51 O66 1.261 . S
C51 O67 1.242 . S
C52 C51 1.506 . S
C52 C53 1.358 . S
C52 C57 1.382 . S
C53 C52 1.358 . S
C53 C54 1.385 . S
C53 H76 0.930 . S
C54 C53 1.385 . S
C54 C55 1.395 . S
C54 H77 0.929 . S
C55 C54 1.395 . S
C55 C56 1.335 . S
C56 C55 1.335 . S
C56 C57 1.398 . S
C56 H78 0.930 . S
C57 C52 1.382 . S
C57 C56 1.398 . S
C57 H79 0.929 . S
C58 O68 1.271 . S
C58 O69 1.251 . S
C59 O70 1.252 . S
C59 O71 1.272 . S
O60 Sm40 2.543 1_565 S
O60 C42 1.261 . S
O61 Sm40 2.450 1_565 S
O61 C42 1.242 . S
O62 Sm40 2.681 . S
O62 Sm41 2.386 . S
O62 C49 1.271 . S
O63 Sm40 2.464 . S
O63 C49 1.251 . S
O64 Sm40 2.396 1_565 S
O64 C50 1.252 . S
O65 Sm41 2.408 1_565 S
O65 C50 1.272 . S
O66 Sm41 2.543 . S
O66 C51 1.261 . S
O67 Sm41 2.450 . S
O67 C51 1.242 . S
O68 Sm40 2.386 . S
O68 Sm41 2.681 . S
O68 C58 1.271 . S
O69 Sm41 2.464 . S
O69 C58 1.251 . S
O70 Sm41 2.396 . S
O70 C59 1.252 . S
O71 Sm40 2.408 . S
O71 C59 1.272 . S
H72 C44 0.930 . S
H73 C45 0.929 . S
H74 C47 0.930 . S
H75 C48 0.929 . S
H76 C53 0.930 . S
H77 C54 0.929 . S
H78 C56 0.930 . S
H79 C57 0.929 . S
Sm80 C82 2.846 . S
Sm80 O100 2.543 . S
Sm80 O101 2.450 . S
Sm80 O102 2.681 . S
Sm80 O103 2.464 . S
Sm80 O104 2.396 . S
Sm80 O108 2.386 . S
Sm80 O111 2.408 . S
Sm81 C91 2.846 . S
Sm81 O102 2.386 . S
Sm81 O105 2.408 . S
Sm81 O106 2.543 . S
Sm81 O107 2.450 . S
Sm81 O108 2.681 . S
Sm81 O109 2.464 . S
Sm81 O110 2.396 . S
C82 Sm80 2.846 . S
C82 C83 1.506 . S
C82 O100 1.261 . S
C82 O101 1.242 . S
C83 C82 1.506 . S
C83 C84 1.358 . S
C83 C88 1.382 . S
C84 C83 1.358 . S
C84 C85 1.385 . S
C84 H112 0.930 . S
C85 C84 1.385 . S
C85 C86 1.395 . S
C85 H113 0.929 . S
C86 C85 1.395 . S
C86 C87 1.335 . S
C87 C86 1.335 . S
C87 C88 1.398 . S
C87 H114 0.930 . S
C88 C83 1.382 . S
C88 C87 1.398 . S
C88 H115 0.929 . S
C89 O102 1.271 . S
C89 O103 1.251 . S
C90 O104 1.252 . S
C90 O105 1.272 . S
C91 Sm81 2.846 . S
C91 C92 1.506 . S
C91 O106 1.261 . S
C91 O107 1.242 . S
C92 C91 1.506 . S
C92 C93 1.358 . S
C92 C97 1.382 . S
C93 C92 1.358 . S
C93 C94 1.385 . S
C93 H116 0.930 . S
C94 C93 1.385 . S
C94 C95 1.395 . S
C94 H117 0.929 . S
C95 C94 1.395 . S
C95 C96 1.335 . S
C96 C95 1.335 . S
C96 C97 1.398 . S
C96 H118 0.930 . S
C97 C92 1.382 . S
C97 C96 1.398 . S
C97 H119 0.929 . S
C98 O108 1.271 . S
C98 O109 1.251 . S
C99 O110 1.252 . S
C99 O111 1.272 . S
O100 Sm80 2.543 . S
O100 C82 1.261 . S
O101 Sm80 2.450 . S
O101 C82 1.242 . S
O102 Sm80 2.681 . S
O102 Sm81 2.386 . S
O102 C89 1.271 . S
O103 Sm80 2.464 . S
O103 C89 1.251 . S
O104 Sm80 2.396 . S
O104 C90 1.252 . S
O105 Sm81 2.408 . S
O105 C90 1.272 . S
O106 Sm81 2.543 . S
O106 C91 1.261 . S
O107 Sm81 2.450 . S
O107 C91 1.242 . S
O108 Sm80 2.386 . S
O108 Sm81 2.681 . S
O108 C98 1.271 . S
O109 Sm81 2.464 . S
O109 C98 1.251 . S
O110 Sm81 2.396 . S
O110 C99 1.252 . S
O111 Sm80 2.408 . S
O111 C99 1.272 . S
H112 C84 0.930 . S
H113 C85 0.929 . S
H114 C87 0.930 . S
H115 C88 0.929 . S
H116 C93 0.930 . S
H117 C94 0.929 . S
H118 C96 0.930 . S
H119 C97 0.929 . S
H120 C123 0.929 . S
H121 C126 0.929 . S
H122 C128 0.930 . S
C123 H120 0.929 . S
C123 C124 1.398 . S
C123 C125 1.396 1_565 S
C124 C123 1.398 . S
C124 C128 1.407 1_565 S
C125 C123 1.396 1_545 S
C125 C126 1.394 . S
C126 H121 0.929 . S
C126 C125 1.394 . S
C126 C127 1.382 . S
C127 C126 1.382 . S
C127 C128 1.392 . S
C127 N129 1.420 . S
C128 H122 0.930 . S
C128 C124 1.407 1_545 S
C128 C127 1.392 . S
N129 C127 1.420 . S
N129 C130 1.244 . S
C130 N129 1.244 . S
H131 C134 0.929 . S
H132 C137 0.929 . S
H133 C139 0.930 . S
C134 H131 0.929 . S
C134 C135 1.398 . S
C134 C136 1.396 . S
C135 C134 1.398 . S
C135 C139 1.407 . S
C136 C134 1.396 . S
C136 C137 1.394 . S
C137 H132 0.929 . S
C137 C136 1.394 . S
C137 C138 1.382 . S
C138 C137 1.382 . S
C138 C139 1.392 . S
C138 N140 1.420 . S
C139 H133 0.930 . S
C139 C135 1.407 . S
C139 C138 1.392 . S
N140 C138 1.420 . S
N140 C141 1.244 . S
C141 N140 1.244 . S
H142 C145 0.929 . S
H143 C148 0.929 . S
H144 C150 0.930 . S
C145 H142 0.929 . S
C145 C146 1.398 . S
C145 C147 1.396 . S
C146 C145 1.398 . S
C146 C150 1.407 . S
C147 C145 1.396 . S
C147 C148 1.394 . S
C148 H143 0.929 . S
C148 C147 1.394 . S
C148 C149 1.382 . S
C149 C148 1.382 . S
C149 C150 1.392 . S
C149 N151 1.420 . S
C150 H144 0.930 . S
C150 C146 1.407 . S
C150 C149 1.392 . S
N151 C149 1.420 . S
N151 C152 1.244 . S
C152 N151 1.244 . S
H153 C156 0.929 . S
H154 C159 0.929 . S
H155 C161 0.930 . S
C156 H153 0.929 . S
C156 C157 1.398 . S
C156 C158 1.396 . S
C157 C156 1.398 . S
C157 C161 1.407 . S
C158 C156 1.396 . S
C158 C159 1.394 1_455 S
C159 H154 0.929 . S
C159 C158 1.394 1_655 S
C159 C160 1.382 . S
C160 C159 1.382 . S
C160 C161 1.392 1_655 S
C160 N162 1.420 . S
C161 H155 0.930 . S
C161 C157 1.407 . S
C161 C160 1.392 1_455 S
N162 C160 1.420 . S
N162 C163 1.244 . S
C163 N162 1.244 . S
H164 C167 0.929 . S
H165 C170 0.929 1_565 S
H166 C172 0.930 . S
C167 H164 0.929 . S
C167 C168 1.398 . S
C167 C169 1.396 . S
C168 C167 1.398 . S
C168 C172 1.407 . S
C169 C167 1.396 . S
C169 C170 1.394 . S
C170 H165 0.929 1_545 S
C170 C169 1.394 . S
C170 C171 1.382 . S
C171 C170 1.382 . S
C171 C172 1.392 . S
C171 N173 1.420 . S
C172 H166 0.930 . S
C172 C168 1.407 . S
C172 C171 1.392 . S
N173 C171 1.420 . S
N173 C174 1.244 1_545 S
C174 N173 1.244 1_565 S
H175 C178 0.929 . S
H176 C181 0.929 . S
H177 C183 0.930 . S
C178 H175 0.929 . S
C178 C179 1.398 . S
C178 C180 1.396 . S
C179 C178 1.398 . S
C179 C183 1.407 . S
C180 C178 1.396 . S
C180 C181 1.394 . S
C181 H176 0.929 . S
C181 C180 1.394 . S
C181 C182 1.382 . S
C182 C181 1.382 . S
C182 C183 1.392 . S
C182 N184 1.420 . S
C183 H177 0.930 . S
C183 C179 1.407 . S
C183 C182 1.392 . S
N184 C182 1.420 . S
N184 C185 1.244 . S
C185 N184 1.244 . S
H186 C192 0.930 . S
H187 C196 0.930 . S
H188 C201 0.929 . S
H189 C199 0.929 . S
H190 C194 0.929 . S
H191 C200 0.929 . S
C192 H186 0.930 . S
C192 C193 1.367 . S
C192 C200 1.378 . S
C193 C192 1.367 . S
C193 C201 1.433 . S
C194 H190 0.929 . S
C194 C196 1.378 . S
C194 C198 1.350 . S
C195 C198 1.463 . S
C195 C200 1.350 . S
C195 N203 1.427 . S
C196 H187 0.930 . S
C196 C194 1.378 . S
C196 C197 1.367 . S
C197 C196 1.367 . S
C197 C199 1.433 . S
C198 C194 1.350 . S
C198 C195 1.463 . S
C198 N202 1.427 . S
C199 H189 0.929 . S
C199 C197 1.433 . S
C199 N202 1.384 . S
C200 H191 0.929 . S
C200 C192 1.378 . S
C200 C195 1.350 . S
C201 H188 0.929 . S
C201 C193 1.433 . S
C201 N203 1.384 . S
N202 C198 1.427 . S
N202 C199 1.384 . S
N203 C195 1.427 . S
N203 C201 1.384 . S
H204 C210 0.930 . S
H205 C214 0.930 . S
H206 C219 0.929 . S
H207 C217 0.929 . S
H208 C212 0.929 . S
H209 C218 0.929 . S
C210 H204 0.930 . S
C210 C211 1.367 . S
C210 C218 1.378 . S
C211 C210 1.367 . S
C211 C219 1.433 . S
C212 H208 0.929 . S
C212 C214 1.378 . S
C212 C216 1.350 . S
C213 C216 1.463 . S
C213 C218 1.350 . S
C213 N221 1.427 . S
C214 H205 0.930 . S
C214 C212 1.378 . S
C214 C215 1.367 . S
C215 C214 1.367 . S
C215 C217 1.433 . S
C216 C212 1.350 . S
C216 C213 1.463 . S
C216 N220 1.427 . S
C217 H207 0.929 . S
C217 C215 1.433 . S
C217 N220 1.384 . S
C218 H209 0.929 . S
C218 C210 1.378 . S
C218 C213 1.350 . S
C219 H206 0.929 . S
C219 C211 1.433 . S
C219 N221 1.384 . S
N220 C216 1.427 . S
N220 C217 1.384 . S
N221 C213 1.427 . S
N221 C219 1.384 . S
H222 C228 0.930 . S
H223 C232 0.930 . S
H224 C237 0.929 . S
H225 C235 0.929 . S
H226 C230 0.929 . S
H227 C236 0.929 . S
C228 H222 0.930 . S
C228 C229 1.367 . S
C228 C236 1.378 . S
C229 C228 1.367 . S
C229 C237 1.433 . S
C230 H226 0.929 . S
C230 C232 1.378 . S
C230 C234 1.350 . S
C231 C234 1.463 . S
C231 C236 1.350 . S
C231 N239 1.427 . S
C232 H223 0.930 . S
C232 C230 1.378 . S
C232 C233 1.367 . S
C233 C232 1.367 . S
C233 C235 1.433 . S
C234 C230 1.350 . S
C234 C231 1.463 . S
C234 N238 1.427 . S
C235 H225 0.929 . S
C235 C233 1.433 . S
C235 N238 1.384 . S
C236 H227 0.929 . S
C236 C228 1.378 . S
C236 C231 1.350 . S
C237 H224 0.929 . S
C237 C229 1.433 . S
C237 N239 1.384 . S
N238 C234 1.427 . S
N238 C235 1.384 . S
N239 C231 1.427 . S
N239 C237 1.384 . S
H240 C246 0.930 . S
H241 C250 0.930 . S
H242 C255 0.929 . S
H243 C253 0.929 . S
H244 C248 0.929 . S
H245 C254 0.929 . S
C246 H240 0.930 . S
C246 C247 1.367 . S
C246 C254 1.378 . S
C247 C246 1.367 . S
C247 C255 1.433 . S
C248 H244 0.929 . S
C248 C250 1.378 . S
C248 C252 1.350 . S
C249 C252 1.463 . S
C249 C254 1.350 . S
C249 N257 1.427 . S
C250 H241 0.930 . S
C250 C248 1.378 . S
C250 C251 1.367 . S
C251 C250 1.367 . S
C251 C253 1.433 . S
C252 C248 1.350 . S
C252 C249 1.463 . S
C252 N256 1.427 . S
C253 H243 0.929 . S
C253 C251 1.433 . S
C253 N256 1.384 . S
C254 H245 0.929 . S
C254 C246 1.378 . S
C254 C249 1.350 . S
C255 H242 0.929 . S
C255 C247 1.433 . S
C255 N257 1.384 . S
N256 C252 1.427 . S
N256 C253 1.384 . S
N257 C249 1.427 . S
N257 C255 1.384 . S
H258 C264 0.930 . S
H259 C268 0.930 . S
H260 C273 0.929 . S
H261 C271 0.929 . S
H262 C266 0.929 . S
H263 C272 0.929 . S
C264 H258 0.930 . S
C264 C265 1.367 . S
C264 C272 1.378 . S
C265 C264 1.367 . S
C265 C273 1.433 . S
C266 H262 0.929 . S
C266 C268 1.378 . S
C266 C270 1.350 . S
C267 C270 1.463 . S
C267 C272 1.350 . S
C267 N275 1.427 . S
C268 H259 0.930 . S
C268 C266 1.378 . S
C268 C269 1.367 . S
C269 C268 1.367 . S
C269 C271 1.433 . S
C270 C266 1.350 . S
C270 C267 1.463 . S
C270 N274 1.427 . S
C271 H261 0.929 . S
C271 C269 1.433 . S
C271 N274 1.384 . S
C272 H263 0.929 . S
C272 C264 1.378 . S
C272 C267 1.350 . S
C273 H260 0.929 . S
C273 C265 1.433 . S
C273 N275 1.384 . S
N274 C270 1.427 . S
N274 C271 1.384 . S
N275 C267 1.427 . S
N275 C273 1.384 . S
H276 C282 0.930 . S
H277 C286 0.930 . S
H278 C291 0.929 . S
H279 C289 0.929 . S
H280 C284 0.929 . S
H281 C290 0.929 . S
C282 H276 0.930 . S
C282 C283 1.367 . S
C282 C290 1.378 . S
C283 C282 1.367 . S
C283 C291 1.433 . S
C284 H280 0.929 . S
C284 C286 1.378 . S
C284 C288 1.350 . S
C285 C288 1.463 . S
C285 C290 1.350 . S
C285 N293 1.427 . S
C286 H277 0.930 . S
C286 C284 1.378 . S
C286 C287 1.367 . S
C287 C286 1.367 . S
C287 C289 1.433 . S
C288 C284 1.350 . S
C288 C285 1.463 . S
C288 N292 1.427 . S
C289 H279 0.929 . S
C289 C287 1.433 . S
C289 N292 1.384 . S
C290 H281 0.929 . S
C290 C282 1.378 . S
C290 C285 1.350 . S
C291 H278 0.929 . S
C291 C283 1.433 . S
C291 N293 1.384 . S
N292 C288 1.427 . S
N292 C289 1.384 . S
N293 C285 1.427 . S
N293 C291 1.384 . S
H294 C300 0.930 . S
H295 C304 0.930 . S
H296 C309 0.929 . S
H297 C307 0.929 . S
H298 C302 0.929 . S
H299 C308 0.929 . S
C300 H294 0.930 . S
C300 C301 1.367 . S
C300 C308 1.378 . S
C301 C300 1.367 . S
C301 C309 1.433 . S
C302 H298 0.929 . S
C302 C304 1.378 . S
C302 C306 1.350 . S
C303 C306 1.463 . S
C303 C308 1.350 . S
C303 N311 1.427 . S
C304 H295 0.930 . S
C304 C302 1.378 . S
C304 C305 1.367 . S
C305 C304 1.367 . S
C305 C307 1.433 . S
C306 C302 1.350 . S
C306 C303 1.463 . S
C306 N310 1.427 . S
C307 H297 0.929 . S
C307 C305 1.433 . S
C307 N310 1.384 . S
C308 H299 0.929 . S
C308 C300 1.378 . S
C308 C303 1.350 . S
C309 H296 0.929 . S
C309 C301 1.433 . S
C309 N311 1.384 . S
N310 C306 1.427 . S
N310 C307 1.384 . S
N311 C303 1.427 . S
N311 C309 1.384 . S
H312 C318 0.930 . S
H313 C322 0.930 . S
H314 C327 0.929 . S
H315 C325 0.929 . S
H316 C320 0.929 . S
H317 C326 0.929 . S
C318 H312 0.930 . S
C318 C319 1.367 . S
C318 C326 1.378 . S
C319 C318 1.367 . S
C319 C327 1.433 . S
C320 H316 0.929 . S
C320 C322 1.378 . S
C320 C324 1.350 . S
C321 C324 1.463 . S
C321 C326 1.350 . S
C321 N329 1.427 . S
C322 H313 0.930 . S
C322 C320 1.378 . S
C322 C323 1.367 . S
C323 C322 1.367 . S
C323 C325 1.433 . S
C324 C320 1.350 . S
C324 C321 1.463 . S
C324 N328 1.427 . S
C325 H315 0.929 . S
C325 C323 1.433 . S
C325 N328 1.384 . S
C326 H317 0.929 . S
C326 C318 1.378 . S
C326 C321 1.350 . S
C327 H314 0.929 . S
C327 C319 1.433 . S
C327 N329 1.384 . S
N328 C324 1.427 . S
N328 C325 1.384 . S
N329 C321 1.427 . S
N329 C327 1.384 . S
H330 C336 0.930 . S
H331 C340 0.930 . S
H332 C345 0.929 . S
H333 C343 0.929 . S
H334 C338 0.929 . S
H335 C344 0.929 . S
C336 H330 0.930 . S
C336 C337 1.367 . S
C336 C344 1.378 . S
C337 C336 1.367 . S
C337 C345 1.433 . S
C338 H334 0.929 . S
C338 C340 1.378 . S
C338 C342 1.350 . S
C339 C342 1.463 . S
C339 C344 1.350 . S
C339 N347 1.427 . S
C340 H331 0.930 . S
C340 C338 1.378 . S
C340 C341 1.367 . S
C341 C340 1.367 . S
C341 C343 1.433 . S
C342 C338 1.350 . S
C342 C339 1.463 . S
C342 N346 1.427 . S
C343 H333 0.929 . S
C343 C341 1.433 . S
C343 N346 1.384 . S
C344 H335 0.929 . S
C344 C336 1.378 . S
C344 C339 1.350 . S
C345 H332 0.929 . S
C345 C337 1.433 . S
C345 N347 1.384 . S
N346 C342 1.427 . S
N346 C343 1.384 . S
N347 C339 1.427 . S
N347 C345 1.384 . S
H348 C354 0.930 . S
H349 C358 0.930 . S
H350 C363 0.929 . S
H351 C361 0.929 . S
H352 C356 0.929 . S
H353 C362 0.929 . S
C354 H348 0.930 . S
C354 C355 1.367 . S
C354 C362 1.378 . S
C355 C354 1.367 . S
C355 C363 1.433 . S
C356 H352 0.929 . S
C356 C358 1.378 . S
C356 C360 1.350 . S
C357 C360 1.463 . S
C357 C362 1.350 . S
C357 N365 1.427 . S
C358 H349 0.930 . S
C358 C356 1.378 . S
C358 C359 1.367 . S
C359 C358 1.367 . S
C359 C361 1.433 . S
C360 C356 1.350 . S
C360 C357 1.463 . S
C360 N364 1.427 . S
C361 H351 0.929 . S
C361 C359 1.433 . S
C361 N364 1.384 . S
C362 H353 0.929 . S
C362 C354 1.378 . S
C362 C357 1.350 . S
C363 H350 0.929 . S
C363 C355 1.433 . S
C363 N365 1.384 . S
N364 C360 1.427 . S
N364 C361 1.384 . S
N365 C357 1.427 . S
N365 C363 1.384 . S
H366 C372 0.930 . S
H367 C376 0.930 . S
H368 C381 0.929 . S
H369 C379 0.929 . S
H370 C374 0.929 . S
H371 C380 0.929 . S
C372 H366 0.930 . S
C372 C373 1.367 . S
C372 C380 1.378 . S
C373 C372 1.367 . S
C373 C381 1.433 . S
C374 H370 0.929 . S
C374 C376 1.378 . S
C374 C378 1.350 . S
C375 C378 1.463 . S
C375 C380 1.350 . S
C375 N383 1.427 . S
C376 H367 0.930 . S
C376 C374 1.378 . S
C376 C377 1.367 . S
C377 C376 1.367 . S
C377 C379 1.433 . S
C378 C374 1.350 . S
C378 C375 1.463 . S
C378 N382 1.427 . S
C379 H369 0.929 . S
C379 C377 1.433 . S
C379 N382 1.384 . S
C380 H371 0.929 . S
C380 C372 1.378 . S
C380 C375 1.350 . S
C381 H368 0.929 . S
C381 C373 1.433 . S
C381 N383 1.384 . S
N382 C378 1.427 . S
N382 C379 1.384 . S
N383 C375 1.427 . S
N383 C381 1.384 . S
H384 C390 0.930 . S
H385 C394 0.930 . S
H386 C399 0.929 . S
H387 C397 0.929 . S
H388 C392 0.929 . S
H389 C398 0.929 . S
C390 H384 0.930 . S
C390 C391 1.367 . S
C390 C398 1.378 . S
C391 C390 1.367 . S
C391 C399 1.433 . S
C392 H388 0.929 . S
C392 C394 1.378 . S
C392 C396 1.350 . S
C393 C396 1.463 . S
C393 C398 1.350 . S
C393 N401 1.427 . S
C394 H385 0.930 . S
C394 C392 1.378 . S
C394 C395 1.367 . S
C395 C394 1.367 . S
C395 C397 1.433 . S
C396 C392 1.350 . S
C396 C393 1.463 . S
C396 N400 1.427 . S
C397 H387 0.929 . S
C397 C395 1.433 . S
C397 N400 1.384 . S
C398 H389 0.929 . S
C398 C390 1.378 . S
C398 C393 1.350 . S
C399 H386 0.929 . S
C399 C391 1.433 . S
C399 N401 1.384 . S
N400 C396 1.427 . S
N400 C397 1.384 . S
N401 C393 1.427 . S
N401 C399 1.384 . S
H402 C408 0.930 . S
H403 C412 0.930 1_655 S
H404 C417 0.929 . S
H405 C415 0.929 . S
H406 C410 0.929 1_655 S
H407 C416 0.929 . S
C408 H402 0.930 . S
C408 C409 1.367 . S
C408 C416 1.378 . S
C409 C408 1.367 . S
C409 C417 1.433 1_455 S
C410 H406 0.929 1_455 S
C410 C412 1.378 . S
C410 C414 1.350 . S
C411 C414 1.463 1_554 S
C411 C416 1.350 . S
C411 N419 1.427 . S
C412 H403 0.930 1_455 S
C412 C410 1.378 . S
C412 C413 1.367 . S
C413 C412 1.367 . S
C413 C415 1.433 . S
C414 C410 1.350 . S
C414 C411 1.463 1_556 S
C414 N418 1.427 . S
C415 H405 0.929 . S
C415 C413 1.433 . S
C415 N418 1.384 . S
C416 H407 0.929 . S
C416 C408 1.378 . S
C416 C411 1.350 . S
C417 H404 0.929 . S
C417 C409 1.433 1_655 S
C417 N419 1.384 1_655 S
N418 C414 1.427 . S
N418 C415 1.384 . S
N419 C411 1.427 . S
N419 C417 1.384 1_455 S
H420 C426 0.930 . S
H421 C430 0.930 1_565 S
H422 C435 0.928 1_565 S
H423 C433 0.929 . S
H424 C428 0.929 1_565 S
H425 C434 0.929 . S
C426 H420 0.930 . S
C426 C427 1.367 . S
C426 C434 1.378 . S
C427 C426 1.367 . S
C427 C435 1.434 . S
C428 H424 0.929 1_545 S
C428 C430 1.378 . S
C428 C432 1.350 . S
C429 C432 1.463 . S
C429 C434 1.350 . S
C429 N437 1.427 . S
C430 H421 0.930 1_545 S
C430 C428 1.378 . S
C430 C431 1.367 . S
C431 C430 1.367 . S
C431 C433 1.433 . S
C432 C428 1.350 . S
C432 C429 1.463 . S
C432 N436 1.427 . S
C433 H423 0.929 . S
C433 C431 1.433 . S
C433 N436 1.384 . S
C434 H425 0.929 . S
C434 C426 1.378 . S
C434 C429 1.350 . S
C435 H422 0.928 1_545 S
C435 C427 1.434 . S
C435 N437 1.384 . S
N436 C432 1.427 . S
N436 C433 1.384 . S
N437 C429 1.427 . S
N437 C435 1.384 . S
H438 C444 0.930 . S
H439 C448 0.930 . S
H440 C453 0.929 . S
H441 C451 0.929 . S
H442 C446 0.929 . S
H443 C452 0.929 . S
C444 H438 0.930 . S
C444 C445 1.367 . S
C444 C452 1.378 . S
C445 C444 1.367 . S
C445 C453 1.433 . S
C446 H442 0.929 . S
C446 C448 1.378 . S
C446 C450 1.350 . S
C447 C450 1.463 . S
C447 C452 1.350 . S
C447 N455 1.427 . S
C448 H439 0.930 . S
C448 C446 1.378 . S
C448 C449 1.367 . S
C449 C448 1.367 . S
C449 C451 1.433 . S
C450 C446 1.350 . S
C450 C447 1.463 . S
C450 N454 1.427 . S
C451 H441 0.929 . S
C451 C449 1.433 . S
C451 N454 1.384 . S
C452 H443 0.929 . S
C452 C444 1.378 . S
C452 C447 1.350 . S
C453 H440 0.929 . S
C453 C445 1.433 . S
C453 N455 1.384 . S
N454 C450 1.427 . S
N454 C451 1.384 . S
N455 C447 1.427 . S
N455 C453 1.384 . S
H456 C462 0.930 . S
H457 C466 0.930 . S
H458 C471 0.929 . S
H459 C469 0.929 . S
H460 C464 0.929 . S
H461 C470 0.929 . S
C462 H456 0.930 . S
C462 C463 1.367 1_565 S
C462 C470 1.378 . S
C463 C462 1.367 1_545 S
C463 C471 1.433 . S
C464 H460 0.929 . S
C464 C466 1.378 . S
C464 C468 1.350 . S
C465 C468 1.463 . S
C465 C470 1.350 1_545 S
C465 N473 1.427 . S
C466 H457 0.930 . S
C466 C464 1.378 . S
C466 C467 1.367 . S
C467 C466 1.367 . S
C467 C469 1.433 1_545 S
C468 C464 1.350 . S
C468 C465 1.463 . S
C468 N472 1.427 1_545 S
C469 H459 0.929 . S
C469 C467 1.433 1_565 S
C469 N472 1.384 . S
C470 H461 0.929 . S
C470 C462 1.378 . S
C470 C465 1.350 1_565 S
C471 H458 0.929 . S
C471 C463 1.433 . S
C471 N473 1.384 . S
N472 C468 1.427 1_565 S
N472 C469 1.384 . S
N473 C465 1.427 . S
N473 C471 1.384 . S
H474 C480 0.930 . S
H475 C484 0.930 . S
H476 C489 0.929 . S
H477 C487 0.929 . S
H478 C482 0.929 1_556 S
H479 C488 0.929 . S
C480 H474 0.930 . S
C480 C481 1.367 . S
C480 C488 1.378 . S
C481 C480 1.367 . S
C481 C489 1.433 . S
C482 H478 0.929 1_554 S
C482 C484 1.378 . S
C482 C486 1.350 1_554 S
C483 C486 1.463 . S
C483 C488 1.350 . S
C483 N491 1.427 . S
C484 H475 0.930 . S
C484 C482 1.378 . S
C484 C485 1.367 . S
C485 C484 1.367 . S
C485 C487 1.433 . S
C486 C482 1.350 1_556 S
C486 C483 1.463 . S
C486 N490 1.427 1_556 S
C487 H477 0.929 . S
C487 C485 1.433 . S
C487 N490 1.384 . S
C488 H479 0.929 . S
C488 C480 1.378 . S
C488 C483 1.350 . S
C489 H476 0.929 . S
C489 C481 1.433 . S
C489 N491 1.384 . S
N490 C486 1.427 1_554 S
N490 C487 1.384 . S
N491 C483 1.427 . S
N491 C489 1.384 . S
H492 C498 0.930 . S
H493 C502 0.930 . S
H494 C507 0.929 . S
H495 C505 0.929 . S
H496 C500 0.929 . S
H497 C506 0.929 . S
C498 H492 0.930 . S
C498 C499 1.367 . S
C498 C506 1.378 . S
C499 C498 1.367 . S
C499 C507 1.433 . S
C500 H496 0.929 . S
C500 C502 1.378 . S
C500 C504 1.350 . S
C501 C504 1.463 . S
C501 C506 1.350 . S
C501 N509 1.427 . S
C502 H493 0.930 . S
C502 C500 1.378 . S
C502 C503 1.367 . S
C503 C502 1.367 . S
C503 C505 1.433 . S
C504 C500 1.350 . S
C504 C501 1.463 . S
C504 N508 1.427 . S
C505 H495 0.929 . S
C505 C503 1.433 . S
C505 N508 1.384 . S
C506 H497 0.929 . S
C506 C498 1.378 . S
C506 C501 1.350 . S
C507 H494 0.929 . S
C507 C499 1.433 . S
C507 N509 1.384 . S
N508 C504 1.427 . S
N508 C505 1.384 . S
N509 C501 1.427 . S
N509 C507 1.384 . S
C193 C6 0.759 . S
C197 C185 0.752 . S
C211 C59 1.945 . S
C215 C163 1.893 . S
C229 C86 1.285 . S
C233 C174 1.282 . S
C247 C15 0.359 . S
C251 C179 0.226 . S
C269 C157 1.838 . S
C265 C50 1.873 . S
C287 C168 1.172 . S
C283 C95 1.163 . S
C301 C46 1.305 . S
C305 C141 1.312 . S
C319 C99 3.033 . S
C323 C146 2.991 1_655 S
C337 C10 1.887 . S
C341 C124 1.874 . S
C359 C135 1.159 . S
C355 C55 1.153 . S
C377 C152 3.008 . S
C373 C90 3.044 . S
C391 C19 1.951 . S
C395 C130 1.912 . S
C413 C147 1.729 . S
C409 C18 1.692 . S
C427 C49 1.404 . S
C431 C125 1.467 . S
C445 C98 1.506 . S
C449 C136 1.540 . S
C467 C169 1.516 . S
C463 C58 1.508 . S
C485 C180 1.262 . S
C481 C89 1.245 . S
C499 C9 1.381 . S
C503 C158 1.435 . S
