# Generated by pormake.
# Topology ant, (3,6)-cn, num edge types: 1
# Building blocks:
#     Node 0, Type 0, BuildingBlock: BETDAH_clean_linker_0, # of connection points: 3
#     Node 1, Type 0, BuildingBlock: BETDAH_clean_linker_0, # of connection points: 3
#     Node 2, Type 0, BuildingBlock: BETDAH_clean_linker_0, # of connection points: 3
#     Node 3, Type 0, BuildingBlock: BETDAH_clean_linker_0, # of connection points: 3
#     Node 4, Type 0, BuildingBlock: BETDAH_clean_linker_0, # of connection points: 3
#     Node 5, Type 0, BuildingBlock: BETDAH_clean_linker_0, # of connection points: 3
#     Node 6, Type 0, BuildingBlock: BETDAH_clean_linker_0, # of connection points: 3
#     Node 7, Type 0, BuildingBlock: BETDAH_clean_linker_0, # of connection points: 3
#     Node 8, Type 1, BuildingBlock: MIDCAF_clean_sbu_0, # of connection points: 6
#     Node 9, Type 1, BuildingBlock: MIDCAF_clean_sbu_0, # of connection points: 6
#     Node 10, Type 1, BuildingBlock: MIDCAF_clean_sbu_0, # of connection points: 6
#     Node 11, Type 1, BuildingBlock: MIDCAF_clean_sbu_0, # of connection points: 6
#     Edge 12, Type (0, 1), BuildingBlock: XIVTED_clean_linker_0, # of connection points: 2
#     Edge 13, Type (0, 1), BuildingBlock: XIVTED_clean_linker_0, # of connection points: 2
#     Edge 14, Type (0, 1), BuildingBlock: XIVTED_clean_linker_0, # of connection points: 2
#     Edge 15, Type (0, 1), BuildingBlock: XIVTED_clean_linker_0, # of connection points: 2
#     Edge 16, Type (0, 1), BuildingBlock: XIVTED_clean_linker_0, # of connection points: 2
#     Edge 17, Type (0, 1), BuildingBlock: XIVTED_clean_linker_0, # of connection points: 2
#     Edge 18, Type (0, 1), BuildingBlock: XIVTED_clean_linker_0, # of connection points: 2
#     Edge 19, Type (0, 1), BuildingBlock: XIVTED_clean_linker_0, # of connection points: 2
#     Edge 20, Type (0, 1), BuildingBlock: XIVTED_clean_linker_0, # of connection points: 2
#     Edge 21, Type (0, 1), BuildingBlock: XIVTED_clean_linker_0, # of connection points: 2
#     Edge 22, Type (0, 1), BuildingBlock: XIVTED_clean_linker_0, # of connection points: 2
#     Edge 23, Type (0, 1), BuildingBlock: XIVTED_clean_linker_0, # of connection points: 2
#     Edge 24, Type (0, 1), BuildingBlock: XIVTED_clean_linker_0, # of connection points: 2
#     Edge 25, Type (0, 1), BuildingBlock: XIVTED_clean_linker_0, # of connection points: 2
#     Edge 26, Type (0, 1), BuildingBlock: XIVTED_clean_linker_0, # of connection points: 2
#     Edge 27, Type (0, 1), BuildingBlock: XIVTED_clean_linker_0, # of connection points: 2
#     Edge 28, Type (0, 1), BuildingBlock: XIVTED_clean_linker_0, # of connection points: 2
#     Edge 29, Type (0, 1), BuildingBlock: XIVTED_clean_linker_0, # of connection points: 2
#     Edge 30, Type (0, 1), BuildingBlock: XIVTED_clean_linker_0, # of connection points: 2
#     Edge 31, Type (0, 1), BuildingBlock: XIVTED_clean_linker_0, # of connection points: 2
#     Edge 32, Type (0, 1), BuildingBlock: XIVTED_clean_linker_0, # of connection points: 2
#     Edge 33, Type (0, 1), BuildingBlock: XIVTED_clean_linker_0, # of connection points: 2
#     Edge 34, Type (0, 1), BuildingBlock: XIVTED_clean_linker_0, # of connection points: 2
#     Edge 35, Type (0, 1), BuildingBlock: XIVTED_clean_linker_0, # of connection points: 2
# Relax obj value: 0.057
# Max RMSD: 0.149
# Mean RMSD: 0.092
data_MOF--net-ant--node1-MIDCAF_clean_sbu_0--node2-BETDAH_clean_linker_0--edge1-XIVTED_clean_linker_0
_symmetry_space_group_name_H-M    P1
_symmetry_Int_Tables_number       1
_symmetry_cell_setting            triclinic
loop_
_symmetry_equiv_pos_as_xyz
'x, y, z'
_cell_length_a     29.209036
_cell_length_b     28.89004
_cell_length_c     70.327556
_cell_angle_alpha  94.246015
_cell_angle_beta   98.440358
_cell_angle_gamma 89.731817
loop_
_atom_site_label
_atom_site_type_symbol
_atom_site_fract_x
_atom_site_fract_y
_atom_site_fract_z
_atom_type_partial_charge
H0 H 0.1859 0.3076 0.04181 0.0
H1 H 0.23061 0.18043 0.06685 0.0
H2 H 0.25113 0.31031 0.10084 0.0
C3 C 0.20067 0.2893 0.05415 0.0
C4 C 0.21707 0.31486 0.07159 0.0
C5 C 0.20608 0.2407 0.0522 0.0
C6 C 0.22688 0.21774 0.0682 0.0
C7 C 0.2433 0.24285 0.08576 0.0
C8 C 0.23832 0.29115 0.08728 0.0
N9 N 0.26585 0.22093 0.10203 0.0
C10 C 0.2715 0.17317 0.10265 0.0
H11 H 0.1831 0.81761 0.29254 0.0
H12 H 0.04462 0.80492 0.30485 0.0
H13 H 0.15629 0.83396 0.35132 0.0
C14 C 0.1593 0.81972 0.30302 0.0
C15 C 0.17619 0.82712 0.32279 0.0
C16 C 0.11203 0.81209 0.29656 0.0
C17 C 0.08099 0.81155 0.30994 0.0
C18 C 0.09715 0.81968 0.32977 0.0
C19 C 0.14444 0.82767 0.33602 0.0
N20 N 0.06711 0.81933 0.34388 0.0
C21 C 0.01958 0.81248 0.33965 0.0
H22 H 0.67731 0.82633 0.53989 0.0
H23 H 0.72518 0.69698 0.56208 0.0
H24 H 0.74094 0.82248 0.59905 0.0
C25 C 0.69254 0.80699 0.55184 0.0
C26 C 0.70814 0.83078 0.56983 0.0
C27 C 0.69893 0.75868 0.54889 0.0
C28 C 0.72029 0.73404 0.56428 0.0
C29 C 0.73553 0.7572 0.58237 0.0
C30 C 0.72932 0.80518 0.58497 0.0
N31 N 0.75801 0.73371 0.59821 0.0
C32 C 0.76199 0.68573 0.59844 0.0
H33 H 0.6908 0.30666 0.79365 0.0
H34 H 0.5505 0.29702 0.80422 0.0
H35 H 0.66019 0.32127 0.85189 0.0
C36 C 0.66622 0.30897 0.80382 0.0
C37 C 0.68201 0.31515 0.8237 0.0
C38 C 0.61901 0.30287 0.79676 0.0
C39 C 0.58685 0.30244 0.80971 0.0
C40 C 0.60192 0.30928 0.82968 0.0
C41 C 0.64919 0.3159 0.83649 0.0
N42 N 0.57086 0.30907 0.84342 0.0
C43 C 0.5233 0.30245 0.83892 0.0
H44 H 0.03215 0.60037 0.9404 0.0
H45 H 0.06264 0.74461 0.93763 0.0
H46 H 0.00983 0.6612 0.88577 0.0
C47 C 0.03303 0.63017 0.93193 0.0
C48 C 0.01797 0.62565 0.91201 0.0
C49 C 0.04908 0.67276 0.94119 0.0
C50 C 0.05044 0.71159 0.93039 0.0
C51 C 0.03683 0.70725 0.91027 0.0
C52 C 0.02073 0.66426 0.90122 0.0
N53 N 0.03899 0.74504 0.89862 0.0
C54 C 0.05028 0.79049 0.90558 0.0
H55 H 0.59111 0.82082 0.20635 0.0
H56 H 0.73107 0.8065 0.19508 0.0
H57 H 0.62507 0.84822 0.15063 0.0
C58 C 0.6163 0.82407 0.19663 0.0
C59 C 0.60185 0.83613 0.17768 0.0
C60 C 0.66276 0.81348 0.20295 0.0
C61 C 0.69533 0.8151 0.19022 0.0
C62 C 0.68156 0.82795 0.17132 0.0
C63 C 0.6351 0.83834 0.16522 0.0
N64 N 0.71318 0.83027 0.15792 0.0
C65 C 0.76068 0.82461 0.16235 0.0
H66 H 0.48345 0.14324 0.44012 0.0
H67 H 0.55146 0.26739 0.42953 0.0
H68 H 0.52585 0.15771 0.38458 0.0
C69 C 0.49859 0.16324 0.43017 0.0
C70 C 0.50301 0.14368 0.41162 0.0
C71 C 0.51803 0.20656 0.43693 0.0
C72 C 0.53637 0.23387 0.42421 0.0
C73 C 0.53701 0.21704 0.40497 0.0
C74 C 0.52161 0.17154 0.39894 0.0
N75 N 0.55545 0.24402 0.39175 0.0
C76 C 0.56354 0.29158 0.39505 0.0
H77 H 0.08947 0.26364 0.70655 0.0
H78 H 0.22852 0.24925 0.69414 0.0
H79 H 0.1161 0.2629 0.6479 0.0
C80 C 0.11347 0.26205 0.69613 0.0
C81 C 0.09664 0.26391 0.67644 0.0
C82 C 0.16087 0.25662 0.70251 0.0
C83 C 0.19204 0.25391 0.68912 0.0
C84 C 0.17602 0.25699 0.66938 0.0
C85 C 0.12839 0.26188 0.66317 0.0
N86 N 0.20667 0.25421 0.65541 0.0
C87 C 0.25469 0.25377 0.65995 0.0
Zn88 Zn 0.2163 0.70182 0.14738 0.0
Zn89 Zn 0.11945 0.80672 0.10261 0.0
Zn90 Zn 0.16972 0.75342 0.12265 0.0
C91 C 0.11473 0.72127 0.08161 0.0
C92 C 0.20423 0.84705 0.10602 0.0
O93 O 0.13677 0.7493 0.14906 0.0
O94 O 0.17298 0.69553 0.16627 0.0
C95 C 0.20229 0.64881 0.11197 0.0
O96 O 0.14831 0.71255 0.09487 0.0
O97 O 0.09294 0.75891 0.08283 0.0
O98 O 0.16579 0.84854 0.09529 0.0
O99 O 0.21162 0.81548 0.11815 0.0
O100 O 0.2248 0.64898 0.12874 0.0
O101 O 0.1774 0.68409 0.10692 0.0
O102 O 0.23784 0.78763 0.13107 0.0
O103 O 0.26853 0.74647 0.15503 0.0
C104 C 0.27083 0.78023 0.14478 0.0
O105 O 0.10651 0.77387 0.13566 0.0
O106 O 0.07686 0.83284 0.11983 0.0
C107 C 0.14145 0.72545 0.16403 0.0
C108 C 0.07588 0.80606 0.13312 0.0
Zn109 Zn 0.56158 0.67024 0.3414 0.0
Zn110 Zn 0.65425 0.7835 0.395 0.0
Zn111 Zn 0.60692 0.72654 0.37016 0.0
C112 C 0.56714 0.8214 0.38829 0.0
C113 C 0.70303 0.77947 0.36524 0.0
O114 O 0.60095 0.65866 0.38232 0.0
O115 O 0.55932 0.61774 0.35795 0.0
C116 C 0.50371 0.74545 0.34828 0.0
O117 O 0.5623 0.78664 0.37562 0.0
O118 O 0.60424 0.82702 0.3999 0.0
O119 O 0.70178 0.80479 0.38053 0.0
O120 O 0.67157 0.74816 0.35966 0.0
O121 O 0.50585 0.71036 0.33662 0.0
O122 O 0.53765 0.75584 0.36178 0.0
O123 O 0.6428 0.72308 0.34439 0.0
O124 O 0.60674 0.67082 0.32283 0.0
C125 C 0.63847 0.70076 0.32762 0.0
O126 O 0.62349 0.69032 0.39727 0.0
O127 O 0.67351 0.73952 0.41465 0.0
C128 C 0.57984 0.62091 0.37511 0.0
C129 C 0.65168 0.70153 0.41281 0.0
Zn130 Zn 0.60209 0.32468 0.60917 0.0
Zn131 Zn 0.72741 0.15983 0.64879 0.0
Zn132 Zn 0.65736 0.26286 0.61909 0.0
C133 C 0.75223 0.25728 0.63375 0.0
C134 C 0.67882 0.17144 0.60717 0.0
O135 O 0.60465 0.26697 0.63852 0.0
O136 O 0.56559 0.32992 0.63067 0.0
C137 C 0.68887 0.36541 0.61181 0.0
O138 O 0.72885 0.28887 0.62505 0.0
O139 O 0.72927 0.2217 0.63626 0.0
O140 O 0.69631 0.18486 0.62416 0.0
O141 O 0.65558 0.20208 0.59788 0.0
O142 O 0.6467 0.3741 0.60669 0.0
O143 O 0.70117 0.3255 0.61779 0.0
O144 O 0.62583 0.23664 0.59 0.0
O145 O 0.57275 0.29085 0.58484 0.0
C146 C 0.59144 0.2538 0.57923 0.0
O147 O 0.64588 0.23828 0.64848 0.0
O148 O 0.67974 0.18068 0.66603 0.0
C149 C 0.5719 0.29578 0.64092 0.0
C150 C 0.65077 0.21405 0.6636 0.0
Zn151 Zn 0.067 0.15473 0.84625 0.0
Zn152 Zn 0.15887 0.2751 0.89808 0.0
Zn153 Zn 0.1127 0.21426 0.87348 0.0
C154 C 0.15668 0.19369 0.91674 0.0
C155 C 0.07164 0.31148 0.88916 0.0
O156 O 0.14962 0.20621 0.84817 0.0
O157 O 0.11401 0.15014 0.82841 0.0
C158 C 0.08262 0.11108 0.88124 0.0
O159 O 0.12957 0.18084 0.90111 0.0
O160 O 0.17684 0.23262 0.91853 0.0
O161 O 0.1077 0.31894 0.90126 0.0
O162 O 0.06833 0.27517 0.87729 0.0
O163 O 0.06167 0.10571 0.86418 0.0
O164 O 0.10525 0.14877 0.88727 0.0
O165 O 0.04344 0.24293 0.86409 0.0
O166 O 0.01232 0.19529 0.83953 0.0
C167 C 0.00994 0.23158 0.8505 0.0
O168 O 0.17754 0.2342 0.86277 0.0
O169 O 0.20684 0.29274 0.88282 0.0
C170 C 0.14585 0.18025 0.83229 0.0
C171 C 0.20873 0.26594 0.86796 0.0
H172 H 0.14251 0.37057 0.06029 0.0
H173 H 0.2792 0.60096 0.10659 0.0
H174 H 0.28553 0.37669 0.08658 0.0
H175 H 0.13152 0.59922 0.08905 0.0
H176 H 0.28326 0.52162 0.09273 0.0
H177 H 0.13867 0.45575 0.06516 0.0
C178 C 0.17316 0.38986 0.06692 0.0
C179 C 0.21425 0.36646 0.07329 0.0
C180 C 0.24991 0.53852 0.0916 0.0
C181 C 0.21023 0.4636 0.07871 0.0
C182 C 0.24766 0.58404 0.09938 0.0
C183 C 0.20495 0.60648 0.09905 0.0
C184 C 0.209 0.51461 0.08368 0.0
C185 C 0.16514 0.58305 0.08953 0.0
C186 C 0.17092 0.43838 0.06971 0.0
C187 C 0.25291 0.39311 0.08178 0.0
N188 N 0.16797 0.53791 0.08249 0.0
N189 N 0.24987 0.44002 0.08428 0.0
H190 H 0.97114 0.73188 0.33421 0.0
H191 H 0.74575 0.85981 0.36036 0.0
H192 H 0.9566 0.88047 0.33966 0.0
H193 H 0.74993 0.71212 0.34654 0.0
H194 H 0.81912 0.86831 0.34834 0.0
H195 H 0.88754 0.72344 0.33449 0.0
C196 C 0.94998 0.76264 0.33512 0.0
C197 C 0.97014 0.80687 0.33704 0.0
C198 C 0.80384 0.83404 0.34762 0.0
C199 C 0.87542 0.79779 0.33759 0.0
C200 C 0.76194 0.82922 0.35449 0.0
C201 C 0.74224 0.78517 0.35462 0.0
C202 C 0.82684 0.79435 0.34125 0.0
C203 C 0.76424 0.74667 0.34672 0.0
C204 C 0.90242 0.7579 0.33527 0.0
C205 C 0.94192 0.84581 0.33823 0.0
N206 N 0.80595 0.75202 0.34066 0.0
N207 N 0.89597 0.84038 0.33872 0.0
H208 H 0.7576 0.61789 0.56951 0.0
H209 H 0.74013 0.41821 0.64102 0.0
H210 H 0.77353 0.64192 0.63131 0.0
H211 H 0.70873 0.39875 0.57921 0.0
H212 H 0.77129 0.49574 0.6379 0.0
H213 H 0.75644 0.53398 0.57287 0.0
C214 C 0.76128 0.60529 0.58379 0.0
C215 C 0.76518 0.63633 0.60017 0.0
C216 C 0.75883 0.47399 0.62499 0.0
C217 C 0.76387 0.54091 0.60421 0.0
C218 C 0.74173 0.42955 0.62679 0.0
C219 C 0.72231 0.40227 0.61033 0.0
C220 C 0.756 0.49099 0.6066 0.0
C221 C 0.72386 0.41883 0.59221 0.0
C222 C 0.76073 0.5575 0.58573 0.0
C223 C 0.77015 0.6187 0.61836 0.0
N224 N 0.73977 0.46234 0.59082 0.0
N225 N 0.76892 0.57207 0.61992 0.0
H226 H 0.72917 0.28028 0.85646 0.0
H227 H 0.96109 0.25674 0.81704 0.0
H228 H 0.75149 0.35437 0.80739 0.0
H229 H 0.96126 0.26707 0.8785 0.0
H230 H 0.88357 0.29064 0.81271 0.0
H231 H 0.81282 0.27382 0.86517 0.0
C232 C 0.75138 0.29609 0.8477 0.0
C233 C 0.73276 0.31717 0.83089 0.0
C234 C 0.90093 0.28637 0.82717 0.0
C235 C 0.82874 0.30845 0.84059 0.0
C236 C 0.94498 0.26696 0.82963 0.0
C237 C 0.96724 0.25913 0.84813 0.0
C238 C 0.87843 0.29645 0.84328 0.0
C239 C 0.94509 0.27281 0.86401 0.0
C240 C 0.79926 0.29216 0.85269 0.0
C241 C 0.76389 0.33635 0.82007 0.0
N242 N 0.90128 0.28986 0.86121 0.0
N243 N 0.81024 0.33063 0.82486 0.0
H244 H 0.95968 0.56484 0.92463 0.0
H245 H 0.03959 0.35616 0.85727 0.0
H246 H 0.03888 0.58169 0.87838 0.0
H247 H 0.02733 0.35119 0.91738 0.0
H248 H 0.00418 0.4336 0.85768 0.0
H249 H 0.94953 0.4825 0.9141 0.0
C250 C 0.97413 0.5514 0.91201 0.0
C251 C 0.00157 0.57971 0.90276 0.0
C252 C 0.00768 0.4147 0.87054 0.0
C253 C 0.98934 0.486 0.89052 0.0
C254 C 0.0275 0.37058 0.87029 0.0
C255 C 0.0367 0.34804 0.8874 0.0
C256 C 0.99654 0.4355 0.88795 0.0
C257 C 0.02103 0.36797 0.90398 0.0
C258 C 0.96803 0.50457 0.90596 0.0
C259 C 0.01809 0.56093 0.8861 0.0
N260 N 0.00218 0.41094 0.90392 0.0
N261 N 0.01257 0.51486 0.88073 0.0
H262 H 0.81138 0.74602 0.16257 0.0
H263 H 0.03205 0.88458 0.144 0.0
H264 H 0.82169 0.89518 0.167 0.0
H265 H 0.03097 0.73616 0.14722 0.0
H266 H 0.95924 0.88949 0.15713 0.0
H267 H 0.89497 0.74128 0.16144 0.0
C268 C 0.83164 0.77769 0.16369 0.0
C269 C 0.81027 0.82102 0.16479 0.0
C270 C 0.97517 0.85585 0.1553 0.0
C271 C 0.90496 0.81616 0.16322 0.0
C272 C 0.01674 0.85309 0.14781 0.0
C273 C 0.03717 0.8099 0.1444 0.0
C274 C 0.95328 0.81495 0.159 0.0
C275 C 0.0162 0.77014 0.14966 0.0
C276 C 0.87919 0.77506 0.16303 0.0
C277 C 0.83734 0.86117 0.1661 0.0
N278 N 0.97487 0.77351 0.15639 0.0
N279 N 0.88329 0.85781 0.16505 0.0
H280 H 0.64294 0.34168 0.39799 0.0
H281 H 0.50421 0.57514 0.38162 0.0
H282 H 0.49593 0.35395 0.39789 0.0
H283 H 0.65314 0.57204 0.39233 0.0
H284 H 0.5016 0.49636 0.39171 0.0
H285 H 0.64921 0.42682 0.39933 0.0
C286 C 0.61215 0.36252 0.39849 0.0
C287 C 0.56883 0.34136 0.39768 0.0
C288 C 0.53497 0.51299 0.39229 0.0
C289 C 0.57546 0.43802 0.39911 0.0
C290 C 0.53639 0.5581 0.38666 0.0
C291 C 0.57891 0.57985 0.38622 0.0
C292 C 0.57646 0.48885 0.39699 0.0
C293 C 0.61969 0.55635 0.39264 0.0
C294 C 0.61569 0.41097 0.39931 0.0
C295 C 0.52988 0.36933 0.39838 0.0
N296 N 0.61752 0.51159 0.39741 0.0
N297 N 0.53402 0.41624 0.39885 0.0
H298 H 0.04833 0.31725 0.64932 0.0
H299 H 0.80452 0.20049 0.65726 0.0
H300 H 0.02907 0.21324 0.68845 0.0
H301 H 0.81471 0.3223 0.6261 0.0
H302 H 0.88768 0.20359 0.66755 0.0
H303 H 0.9641 0.31818 0.63914 0.0
C304 C 0.02645 0.29459 0.65574 0.0
C305 C 0.04581 0.26532 0.66985 0.0
C306 C 0.87191 0.22984 0.65853 0.0
C307 C 0.94965 0.26622 0.6583 0.0
C308 C 0.82427 0.22807 0.65261 0.0
C309 C 0.80254 0.26116 0.64077 0.0
C310 C 0.89853 0.26476 0.65247 0.0
C311 C 0.83008 0.29614 0.63527 0.0
C312 C 0.97841 0.29535 0.65001 0.0
C313 C 0.01575 0.2369 0.67776 0.0
N314 N 0.87677 0.29689 0.64107 0.0
N315 N 0.9694 0.23799 0.67184 0.0
H316 H 0.31368 0.18337 0.65412 0.0
H317 H 0.52472 0.35827 0.66131 0.0
H318 H 0.30844 0.32792 0.67354 0.0
H319 H 0.53589 0.21156 0.64669 0.0
H320 H 0.45053 0.34465 0.67204 0.0
H321 H 0.39824 0.18959 0.65649 0.0
C322 C 0.33063 0.21621 0.65917 0.0
C323 C 0.3046 0.25532 0.66352 0.0
C324 C 0.4695 0.31518 0.66689 0.0
C325 C 0.40067 0.26297 0.66614 0.0
C326 C 0.51205 0.32296 0.66088 0.0
C327 C 0.53607 0.28606 0.65289 0.0
C328 C 0.45029 0.27026 0.66447 0.0
C329 C 0.5183 0.24098 0.65272 0.0
C330 C 0.37878 0.21979 0.66056 0.0
C331 C 0.32765 0.29711 0.66998 0.0
N332 N 0.47587 0.23442 0.65797 0.0
N333 N 0.37437 0.3 0.67089 0.0
H334 H 0.55292 0.81086 0.14191 0.0
H335 H 0.31552 0.8153 0.17919 0.0
H336 H 0.53607 0.87789 0.19741 0.0
H337 H 0.32345 0.80695 0.11834 0.0
H338 H 0.39514 0.8441 0.1858 0.0
H339 H 0.46941 0.81413 0.1322 0.0
C340 C 0.53194 0.82716 0.15196 0.0
C341 C 0.55181 0.84343 0.17068 0.0
C342 C 0.37927 0.83709 0.17096 0.0
C343 C 0.45574 0.84627 0.15969 0.0
C344 C 0.33384 0.82074 0.1672 0.0
C345 C 0.31331 0.80857 0.14823 0.0
C346 C 0.40483 0.83981 0.15566 0.0
C347 C 0.33829 0.81605 0.13317 0.0
C348 C 0.4841 0.82889 0.14638 0.0
C349 C 0.52237 0.86361 0.18306 0.0
N350 N 0.38333 0.83012 0.13722 0.0
N351 N 0.47583 0.86371 0.17746 0.0
H352 H 0.46012 0.37055 0.83768 0.0
H353 H 0.25433 0.19735 0.84923 0.0
H354 H 0.47494 0.222 0.83605 0.0
H355 H 0.25392 0.34518 0.86326 0.0
H356 H 0.32783 0.20572 0.83667 0.0
H357 H 0.37739 0.36161 0.83931 0.0
C358 C 0.44554 0.33601 0.8373 0.0
C359 C 0.4738 0.29693 0.83679 0.0
C360 C 0.31122 0.23637 0.84223 0.0
C361 C 0.37991 0.28627 0.83895 0.0
C362 C 0.26919 0.23163 0.84926 0.0
C363 C 0.24834 0.27061 0.85739 0.0
C364 C 0.3322 0.28039 0.84332 0.0
C365 C 0.26918 0.31419 0.85728 0.0
C366 C 0.3985 0.33086 0.8383 0.0
C367 C 0.45383 0.25287 0.83644 0.0
N368 N 0.31007 0.31786 0.8505 0.0
N369 N 0.40801 0.24866 0.83771 0.0
H370 H 0.24306 0.86756 0.30541 0.0
H371 H 0.45752 0.77984 0.37728 0.0
H372 H 0.22614 0.79443 0.3554 0.0
H373 H 0.45248 0.77192 0.31555 0.0
H374 H 0.37922 0.81318 0.37346 0.0
H375 H 0.32691 0.85992 0.31346 0.0
C376 C 0.25675 0.85028 0.31816 0.0
C377 C 0.22707 0.83053 0.32943 0.0
C378 C 0.39583 0.80497 0.36084 0.0
C379 C 0.32312 0.82344 0.33904 0.0
C380 C 0.44037 0.78627 0.363 0.0
C381 C 0.46097 0.7729 0.34667 0.0
C382 C 0.37257 0.81112 0.34227 0.0
C383 C 0.43739 0.78146 0.32845 0.0
C384 C 0.30462 0.84636 0.32279 0.0
C385 C 0.24728 0.81024 0.34622 0.0
N386 N 0.39431 0.79994 0.32672 0.0
N387 N 0.29406 0.80683 0.35042 0.0
H388 H 0.63558 0.88738 0.55628 0.0
H389 H 0.74485 0.11077 0.62024 0.0
H390 H 0.77142 0.89232 0.59019 0.0
H391 H 0.62538 0.12118 0.57679 0.0
H392 H 0.75249 0.02962 0.60957 0.0
H393 H 0.62889 0.97159 0.56333 0.0
C394 C 0.66413 0.90607 0.56506 0.0
C395 C 0.70389 0.88233 0.57288 0.0
C396 C 0.72461 0.04943 0.60225 0.0
C397 C 0.69617 0.9786 0.58113 0.0
C398 C 0.72007 0.0959 0.60842 0.0
C399 C 0.68412 0.12276 0.59954 0.0
C400 C 0.69272 0.02898 0.58711 0.0
C401 C 0.65355 0.10164 0.58406 0.0
C402 C 0.66018 0.95413 0.56912 0.0
C403 C 0.73959 0.90858 0.58424 0.0
N404 N 0.65824 0.05576 0.57844 0.0
N405 N 0.73472 0.95495 0.58809 0.0
H406 H 0.27951 0.12686 0.13492 0.0
H407 H 0.22784 0.88543 0.07486 0.0
H408 H 0.27386 0.10761 0.0733 0.0
H409 H 0.25072 0.8989 0.13695 0.0
H410 H 0.25831 0.96371 0.07444 0.0
H411 H 0.28024 0.04222 0.13659 0.0
C412 C 0.27893 0.10461 0.12178 0.0
C413 C 0.27611 0.12371 0.10394 0.0
C414 C 0.2578 0.94938 0.0882 0.0
C415 C 0.27678 0.02739 0.10563 0.0
C416 C 0.24079 0.90448 0.08843 0.0
C417 C 0.2366 0.88595 0.10596 0.0
C418 C 0.26963 0.97644 0.10565 0.0
C419 C 0.25356 0.91201 0.12314 0.0
C420 C 0.2795 0.05642 0.12272 0.0
C421 C 0.27558 0.09392 0.08731 0.0
N422 N 0.26834 0.95649 0.12257 0.0
N423 N 0.2754 0.04717 0.08853 0.0
H424 H 0.51198 0.07396 0.4365 0.0
H425 H 0.52853 0.87158 0.35864 0.0
H426 H 0.47609 0.09533 0.37586 0.0
H427 H 0.52904 0.85535 0.41904 0.0
H428 H 0.49479 0.94919 0.36282 0.0
H429 H 0.50431 0.99217 0.42917 0.0
C430 C 0.50112 0.06202 0.42159 0.0
C431 C 0.49423 0.0928 0.40684 0.0
C432 C 0.50076 0.928 0.375 0.0
C433 C 0.48848 0.99642 0.39814 0.0
C434 C 0.51964 0.88365 0.37258 0.0
C435 C 0.5321 0.85781 0.38863 0.0
C436 C 0.49475 0.94601 0.3936 0.0
C437 C 0.52038 0.87471 0.4064 0.0
C438 C 0.49729 0.01447 0.41737 0.0
C439 C 0.48258 0.0734 0.38776 0.0
N440 N 0.50308 0.91804 0.40848 0.0
N441 N 0.48097 0.02639 0.38392 0.0
H442 H 0.13257 0.83539 0.90889 0.0
H443 H 0.00543 0.07174 0.88975 0.0
H444 H 0.98745 0.85633 0.91135 0.0
H445 H 0.15407 0.06222 0.89982 0.0
H446 H -0.00027 0.99627 0.90265 0.0
H447 H 0.14362 0.91993 0.91017 0.0
C448 C 0.10332 0.85802 0.91017 0.0
C449 C 0.05907 0.83945 0.90996 0.0
C450 C 0.03374 0.01088 0.9025 0.0
C451 C 0.071 0.93548 0.91107 0.0
C452 C 0.03692 0.05409 0.89522 0.0
C453 C 0.08022 0.07286 0.89373 0.0
C454 C 0.0742 0.98553 0.90776 0.0
C455 C 0.12006 0.04873 0.90084 0.0
C456 C 0.10955 0.90616 0.91088 0.0
C457 C 0.02209 0.86968 0.91146 0.0
N458 N 0.11612 0.00564 0.90716 0.0
N459 N 0.02874 0.91624 0.91169 0.0
H460 H 0.25415 0.17063 0.03559 0.0
H461 H 0.23366 0.16077 0.93746 0.0
H462 H 0.12914 0.2509 0.02517 0.0
H463 H 0.08669 0.17545 0.9365 0.0
H464 H 0.24301 0.15438 0.9721 0.0
H465 H 0.23798 0.13506 0.00274 0.0
C466 C 0.22294 0.1804 0.02649 0.0
C467 C 0.19343 0.21462 0.03308 0.0
C468 C 0.20833 0.15668 0.96435 0.0
C469 C 0.17557 0.17501 0.99513 0.0
C470 C 0.20305 0.16 0.94447 0.0
C471 C 0.15938 0.16836 0.93419 0.0
C472 C 0.16967 0.16296 0.97404 0.0
C473 C 0.12087 0.1685 0.94396 0.0
C474 C 0.21404 0.1604 0.00762 0.0
C475 C 0.15354 0.22568 0.02056 0.0
N476 N 0.12706 0.16749 0.96349 0.0
N477 N 0.14606 0.20633 0.00214 0.0
H478 H 0.07115 0.73308 0.27814 0.0
H479 H 0.11362 0.81155 0.17572 0.0
H480 H 0.11932 0.86846 0.26791 0.0
H481 H 0.11426 0.6688 0.18984 0.0
H482 H 0.088 0.83488 0.20651 0.0
H483 H 0.06062 0.71211 0.24322 0.0
C484 C 0.07823 0.75872 0.26845 0.0
C485 C 0.09641 0.80234 0.27573 0.0
C486 C 0.09263 0.79833 0.20267 0.0
C487 C 0.08461 0.77887 0.23613 0.0
C488 C 0.10668 0.78492 0.18498 0.0
C489 C 0.11583 0.73815 0.18021 0.0
C490 C 0.08819 0.76477 0.21574 0.0
C491 C 0.10769 0.70525 0.19305 0.0
C492 C 0.07247 0.74674 0.24862 0.0
C493 C 0.10551 0.83437 0.26274 0.0
N494 N 0.09486 0.71924 0.21037 0.0
N495 N 0.09988 0.82187 0.24355 0.0
H496 H 0.61818 0.76578 0.52383 0.0
H497 H 0.72595 0.66615 0.43473 0.0
H498 H 0.75003 0.69642 0.52966 0.0
H499 H 0.57947 0.68873 0.43199 0.0
H500 H 0.73296 0.66535 0.46974 0.0
H501 H 0.60066 0.73082 0.49074 0.0
C502 C 0.64326 0.74288 0.51818 0.0
C503 C 0.68581 0.73441 0.52944 0.0
C504 C 0.69892 0.6688 0.4615 0.0
C505 C 0.66608 0.69425 0.49159 0.0
C506 C 0.69486 0.66847 0.44146 0.0
C507 C 0.65208 0.67742 0.43051 0.0
C508 C 0.66014 0.67963 0.47064 0.0
C509 C 0.613 0.68135 0.43995 0.0
C510 C 0.63308 0.72255 0.49937 0.0
C511 C 0.71678 0.70391 0.5215 0.0
N512 N 0.61814 0.68397 0.45956 0.0
N513 N 0.70664 0.68558 0.50299 0.0
H514 H 0.57403 0.22716 0.77707 0.0
H515 H 0.63662 0.30298 0.67701 0.0
H516 H 0.63348 0.35917 0.76892 0.0
H517 H 0.6151 0.16081 0.68855 0.0
H518 H 0.61195 0.32854 0.70777 0.0
H519 H 0.56616 0.20751 0.74211 0.0
C520 C 0.58418 0.25244 0.76782 0.0
C521 C 0.60474 0.29462 0.77575 0.0
C522 C 0.6117 0.29178 0.70342 0.0
C523 C 0.59622 0.27252 0.73606 0.0
C524 C 0.62532 0.27719 0.68576 0.0
C525 C 0.62755 0.22972 0.68019 0.0
C526 C 0.60091 0.25864 0.71573 0.0
C527 C 0.61384 0.19774 0.69237 0.0
C528 C 0.58 0.24116 0.74795 0.0
C529 C 0.61778 0.32614 0.76328 0.0
N530 N 0.60153 0.21275 0.70968 0.0
N531 N 0.6137 0.31429 0.74407 0.0
H532 H 0.01167 0.72935 0.96724 0.0
H533 H 0.17564 0.67472 0.06084 0.0
H534 H 0.11418 0.62276 0.96291 0.0
H535 H 0.03096 0.70594 0.06029 0.0
H536 H 0.16023 0.6563 0.0257 0.0
H537 H 0.02635 0.72832 0.00239 0.0
C538 C 0.03775 0.70626 0.97377 0.0
C539 C 0.06193 0.6763 0.96234 0.0
C540 C 0.13178 0.66591 0.03344 0.0
C541 C 0.07859 0.67445 0.00232 0.0
C542 C 0.14041 0.6758 0.05347 0.0
C543 C 0.10458 0.69256 0.06332 0.0
C544 C 0.08733 0.6736 0.02351 0.0
C545 C 0.05963 0.69381 0.05312 0.0
C546 C 0.04568 0.70516 0.99374 0.0
C547 C 0.09499 0.64643 0.9714 0.0
N548 N 0.05247 0.68571 0.0337 0.0
N549 N 0.10271 0.64645 0.99096 0.0
H550 H 0.70294 0.73211 0.21389 0.0
H551 H 0.66633 0.78874 0.3235 0.0
H552 H 0.65185 0.86169 0.23668 0.0
H553 H 0.66369 0.6496 0.2965 0.0
H554 H 0.68834 0.81801 0.29446 0.0
H555 H 0.71363 0.7044 0.24651 0.0
C556 C 0.695 0.75501 0.22586 0.0
C557 C 0.67617 0.799 0.22271 0.0
C558 C 0.68411 0.78094 0.29506 0.0
C559 C 0.68852 0.76796 0.25979 0.0
C560 C 0.67225 0.76408 0.31177 0.0
C561 C 0.66348 0.71658 0.31247 0.0
C562 C 0.68687 0.75015 0.27888 0.0
C563 C 0.6701 0.68649 0.29651 0.0
C564 C 0.70092 0.7392 0.24439 0.0
C565 C 0.66609 0.82738 0.23858 0.0
N566 N 0.68086 0.70383 0.28024 0.0
N567 N 0.67217 0.81129 0.25643 0.0
H568 H 0.60052 0.22746 0.45895 0.0
H569 H 0.50513 0.25468 0.55877 0.0
H570 H 0.45575 0.20876 0.46257 0.0
H571 H 0.64541 0.21345 0.55414 0.0
H572 H 0.4854 0.24263 0.52375 0.0
H573 H 0.6174 0.23168 0.49417 0.0
C574 C 0.57218 0.22538 0.46722 0.0
C575 C 0.52663 0.21827 0.45794 0.0
C576 C 0.52028 0.23544 0.53042 0.0
C577 C 0.54576 0.22182 0.49806 0.0
C578 C 0.53148 0.24202 0.55037 0.0
C579 C 0.57696 0.23511 0.55926 0.0
C580 C 0.5551 0.22295 0.5193 0.0
C581 C 0.6099 0.21889 0.5478 0.0
C582 C 0.58191 0.22692 0.48725 0.0
C583 C 0.49126 0.21458 0.46926 0.0
N584 N 0.59853 0.21419 0.5283 0.0
N585 N 0.50155 0.21651 0.48878 0.0
H586 H 0.14866 0.31584 0.73331 0.0
H587 H 0.17469 0.12116 0.80434 0.0
H588 H 0.20802 0.18372 0.71831 0.0
H589 H 0.172 0.2659 0.82408 0.0
H590 H 0.19545 0.14336 0.77376 0.0
H591 H 0.16388 0.29992 0.76736 0.0
C592 C 0.16567 0.28383 0.7373 0.0
C593 C 0.17684 0.25085 0.72312 0.0
C594 C 0.19174 0.17023 0.78501 0.0
C595 C 0.19353 0.23189 0.76185 0.0
C596 C 0.18001 0.15753 0.80246 0.0
C597 C 0.17157 0.19175 0.8167 0.0
C598 C 0.19367 0.21746 0.78164 0.0
C599 C 0.17858 0.2384 0.81354 0.0
C600 C 0.17454 0.27478 0.75669 0.0
C601 C 0.19892 0.20993 0.72891 0.0
N602 N 0.18817 0.24996 0.79616 0.0
N603 N 0.2057 0.20111 0.74784 0.0
loop_
_geom_bond_atom_site_label_1
_geom_bond_atom_site_label_2
_geom_bond_distance
_geom_bond_site_symmetry_2
_ccdc_geom_bond_type
H0 C3 0.929 . S
H1 C6 0.929 . S
H2 C8 0.930 . S
C3 H0 0.929 . S
C3 C4 1.398 . S
C3 C5 1.396 . S
C4 C3 1.398 . S
C4 C8 1.407 . S
C5 C3 1.396 . S
C5 C6 1.394 . S
C6 H1 0.929 . S
C6 C5 1.394 . S
C6 C7 1.382 . S
C7 C6 1.382 . S
C7 C8 1.392 . S
C7 N9 1.420 . S
C8 H2 0.930 . S
C8 C4 1.407 . S
C8 C7 1.392 . S
N9 C7 1.420 . S
N9 C10 1.244 . S
C10 N9 1.244 . S
H11 C14 0.929 . S
H12 C17 0.929 . S
H13 C19 0.930 . S
C14 H11 0.929 . S
C14 C15 1.398 . S
C14 C16 1.396 . S
C15 C14 1.398 . S
C15 C19 1.407 . S
C16 C14 1.396 . S
C16 C17 1.394 . S
C17 H12 0.929 . S
C17 C16 1.394 . S
C17 C18 1.382 . S
C18 C17 1.382 . S
C18 C19 1.392 . S
C18 N20 1.420 . S
C19 H13 0.930 . S
C19 C15 1.407 . S
C19 C18 1.392 . S
N20 C18 1.420 . S
N20 C21 1.244 . S
C21 N20 1.244 . S
H22 C25 0.929 . S
H23 C28 0.929 . S
H24 C30 0.930 . S
C25 H22 0.929 . S
C25 C26 1.398 . S
C25 C27 1.396 . S
C26 C25 1.398 . S
C26 C30 1.407 . S
C27 C25 1.396 . S
C27 C28 1.394 . S
C28 H23 0.929 . S
C28 C27 1.394 . S
C28 C29 1.382 . S
C29 C28 1.382 . S
C29 C30 1.392 . S
C29 N31 1.420 . S
C30 H24 0.930 . S
C30 C26 1.407 . S
C30 C29 1.392 . S
N31 C29 1.420 . S
N31 C32 1.244 . S
C32 N31 1.244 . S
H33 C36 0.929 . S
H34 C39 0.929 . S
H35 C41 0.930 . S
C36 H33 0.929 . S
C36 C37 1.398 . S
C36 C38 1.396 . S
C37 C36 1.398 . S
C37 C41 1.407 . S
C38 C36 1.396 . S
C38 C39 1.394 . S
C39 H34 0.929 . S
C39 C38 1.394 . S
C39 C40 1.382 . S
C40 C39 1.382 . S
C40 C41 1.392 . S
C40 N42 1.420 . S
C41 H35 0.930 . S
C41 C37 1.407 . S
C41 C40 1.392 . S
N42 C40 1.420 . S
N42 C43 1.244 . S
C43 N42 1.244 . S
H44 C47 0.929 . S
H45 C50 0.929 . S
H46 C52 0.930 . S
C47 H44 0.929 . S
C47 C48 1.398 . S
C47 C49 1.396 . S
C48 C47 1.398 . S
C48 C52 1.407 . S
C49 C47 1.396 . S
C49 C50 1.394 . S
C50 H45 0.929 . S
C50 C49 1.394 . S
C50 C51 1.382 . S
C51 C50 1.382 . S
C51 C52 1.392 . S
C51 N53 1.420 . S
C52 H46 0.930 . S
C52 C48 1.407 . S
C52 C51 1.392 . S
N53 C51 1.420 . S
N53 C54 1.244 . S
C54 N53 1.244 . S
H55 C58 0.929 . S
H56 C61 0.929 . S
H57 C63 0.930 . S
C58 H55 0.929 . S
C58 C59 1.398 . S
C58 C60 1.396 . S
C59 C58 1.398 . S
C59 C63 1.407 . S
C60 C58 1.396 . S
C60 C61 1.394 . S
C61 H56 0.929 . S
C61 C60 1.394 . S
C61 C62 1.382 . S
C62 C61 1.382 . S
C62 C63 1.392 . S
C62 N64 1.420 . S
C63 H57 0.930 . S
C63 C59 1.407 . S
C63 C62 1.392 . S
N64 C62 1.420 . S
N64 C65 1.244 . S
C65 N64 1.244 . S
H66 C69 0.929 . S
H67 C72 0.929 . S
H68 C74 0.930 . S
C69 H66 0.929 . S
C69 C70 1.398 . S
C69 C71 1.396 . S
C70 C69 1.398 . S
C70 C74 1.407 . S
C71 C69 1.396 . S
C71 C72 1.394 . S
C72 H67 0.929 . S
C72 C71 1.394 . S
C72 C73 1.382 . S
C73 C72 1.382 . S
C73 C74 1.392 . S
C73 N75 1.420 . S
C74 H68 0.930 . S
C74 C70 1.407 . S
C74 C73 1.392 . S
N75 C73 1.420 . S
N75 C76 1.244 . S
C76 N75 1.244 . S
H77 C80 0.929 . S
H78 C83 0.929 . S
H79 C85 0.930 . S
C80 H77 0.929 . S
C80 C81 1.398 . S
C80 C82 1.396 . S
C81 C80 1.398 . S
C81 C85 1.407 . S
C82 C80 1.396 . S
C82 C83 1.394 . S
C83 H78 0.929 . S
C83 C82 1.394 . S
C83 C84 1.382 . S
C84 C83 1.382 . S
C84 C85 1.392 . S
C84 N86 1.420 . S
C85 H79 0.930 . S
C85 C81 1.407 . S
C85 C84 1.392 . S
N86 C84 1.420 . S
N86 C87 1.244 . S
C87 N86 1.244 . S
Zn88 O94 1.920 . S
Zn88 O100 1.898 . S
Zn88 O103 1.905 . S
Zn89 O97 1.905 . S
Zn89 O98 1.898 . S
Zn89 O106 1.920 . S
Zn90 O93 2.080 . S
Zn90 O96 2.114 . S
Zn90 O99 2.120 . S
Zn90 O101 2.120 . S
Zn90 O102 2.114 . S
Zn90 O105 2.080 . S
C91 O96 1.166 . S
C91 O97 1.182 . S
C92 O98 1.167 . S
C92 O99 1.299 . S
O93 Zn90 2.080 . S
O93 C107 1.305 . S
O94 Zn88 1.920 . S
O94 C107 1.234 . S
C95 O100 1.167 . S
C95 O101 1.299 . S
O96 Zn90 2.114 . S
O96 C91 1.166 . S
O97 Zn89 1.905 . S
O97 C91 1.182 . S
O98 Zn89 1.898 . S
O98 C92 1.167 . S
O99 Zn90 2.120 . S
O99 C92 1.299 . S
O100 Zn88 1.898 . S
O100 C95 1.167 . S
O101 Zn90 2.120 . S
O101 C95 1.299 . S
O102 Zn90 2.114 . S
O102 C104 1.166 . S
O103 Zn88 1.905 . S
O103 C104 1.182 . S
C104 O102 1.166 . S
C104 O103 1.182 . S
O105 Zn90 2.080 . S
O105 C108 1.305 . S
O106 Zn89 1.920 . S
O106 C108 1.234 . S
C107 O93 1.305 . S
C107 O94 1.234 . S
C108 O105 1.305 . S
C108 O106 1.234 . S
Zn109 O115 1.920 . S
Zn109 O121 1.898 . S
Zn109 O124 1.905 . S
Zn110 O118 1.905 . S
Zn110 O119 1.898 . S
Zn110 O127 1.920 . S
Zn111 O114 2.080 . S
Zn111 O117 2.114 . S
Zn111 O120 2.120 . S
Zn111 O122 2.120 . S
Zn111 O123 2.114 . S
Zn111 O126 2.080 . S
C112 O117 1.166 . S
C112 O118 1.182 . S
C113 O119 1.167 . S
C113 O120 1.299 . S
O114 Zn111 2.080 . S
O114 C128 1.305 . S
O115 Zn109 1.920 . S
O115 C128 1.234 . S
C116 O121 1.167 . S
C116 O122 1.299 . S
O117 Zn111 2.114 . S
O117 C112 1.166 . S
O118 Zn110 1.905 . S
O118 C112 1.182 . S
O119 Zn110 1.898 . S
O119 C113 1.167 . S
O120 Zn111 2.120 . S
O120 C113 1.299 . S
O121 Zn109 1.898 . S
O121 C116 1.167 . S
O122 Zn111 2.120 . S
O122 C116 1.299 . S
O123 Zn111 2.114 . S
O123 C125 1.166 . S
O124 Zn109 1.905 . S
O124 C125 1.182 . S
C125 O123 1.166 . S
C125 O124 1.182 . S
O126 Zn111 2.080 . S
O126 C129 1.305 . S
O127 Zn110 1.920 . S
O127 C129 1.234 . S
C128 O114 1.305 . S
C128 O115 1.234 . S
C129 O126 1.305 . S
C129 O127 1.234 . S
Zn130 O136 1.920 . S
Zn130 O142 1.898 . S
Zn130 O145 1.905 . S
Zn131 O139 1.905 . S
Zn131 O140 1.898 . S
Zn131 O148 1.920 . S
Zn132 O135 2.080 . S
Zn132 O138 2.114 . S
Zn132 O141 2.120 . S
Zn132 O143 2.120 . S
Zn132 O144 2.114 . S
Zn132 O147 2.080 . S
C133 O138 1.166 . S
C133 O139 1.182 . S
C134 O140 1.167 . S
C134 O141 1.299 . S
O135 Zn132 2.080 . S
O135 C149 1.305 . S
O136 Zn130 1.920 . S
O136 C149 1.234 . S
C137 O142 1.167 . S
C137 O143 1.299 . S
O138 Zn132 2.114 . S
O138 C133 1.166 . S
O139 Zn131 1.905 . S
O139 C133 1.182 . S
O140 Zn131 1.898 . S
O140 C134 1.167 . S
O141 Zn132 2.120 . S
O141 C134 1.299 . S
O142 Zn130 1.898 . S
O142 C137 1.167 . S
O143 Zn132 2.120 . S
O143 C137 1.299 . S
O144 Zn132 2.114 . S
O144 C146 1.166 . S
O145 Zn130 1.905 . S
O145 C146 1.182 . S
C146 O144 1.166 . S
C146 O145 1.182 . S
O147 Zn132 2.080 . S
O147 C150 1.305 . S
O148 Zn131 1.920 . S
O148 C150 1.234 . S
C149 O135 1.305 . S
C149 O136 1.234 . S
C150 O147 1.305 . S
C150 O148 1.234 . S
Zn151 O157 1.920 . S
Zn151 O163 1.898 . S
Zn151 O166 1.905 1_455 S
Zn152 O160 1.905 . S
Zn152 O161 1.898 . S
Zn152 O169 1.920 . S
Zn153 O156 2.080 . S
Zn153 O159 2.114 . S
Zn153 O162 2.120 . S
Zn153 O164 2.120 . S
Zn153 O165 2.114 . S
Zn153 O168 2.080 . S
C154 O159 1.166 . S
C154 O160 1.182 . S
C155 O161 1.167 . S
C155 O162 1.299 . S
O156 Zn153 2.080 . S
O156 C170 1.305 . S
O157 Zn151 1.920 . S
O157 C170 1.234 . S
C158 O163 1.167 . S
C158 O164 1.299 . S
O159 Zn153 2.114 . S
O159 C154 1.166 . S
O160 Zn152 1.905 . S
O160 C154 1.182 . S
O161 Zn152 1.898 . S
O161 C155 1.167 . S
O162 Zn153 2.120 . S
O162 C155 1.299 . S
O163 Zn151 1.898 . S
O163 C158 1.167 . S
O164 Zn153 2.120 . S
O164 C158 1.299 . S
O165 Zn153 2.114 . S
O165 C167 1.166 . S
O166 Zn151 1.905 1_655 S
O166 C167 1.182 1_655 S
C167 O165 1.166 . S
C167 O166 1.182 1_455 S
O168 Zn153 2.080 . S
O168 C171 1.305 . S
O169 Zn152 1.920 . S
O169 C171 1.234 . S
C170 O156 1.305 . S
C170 O157 1.234 . S
C171 O168 1.305 . S
C171 O169 1.234 . S
H172 C178 0.930 . S
H173 C182 0.930 . S
H174 C187 0.929 . S
H175 C185 0.929 . S
H176 C180 0.929 . S
H177 C186 0.929 . S
C178 H172 0.930 . S
C178 C179 1.367 . S
C178 C186 1.378 . S
C179 C178 1.367 . S
C179 C187 1.433 . S
C180 H176 0.929 . S
C180 C182 1.378 . S
C180 C184 1.350 . S
C181 C184 1.463 . S
C181 C186 1.350 . S
C181 N189 1.427 . S
C182 H173 0.930 . S
C182 C180 1.378 . S
C182 C183 1.367 . S
C183 C182 1.367 . S
C183 C185 1.433 . S
C184 C180 1.350 . S
C184 C181 1.463 . S
C184 N188 1.427 . S
C185 H175 0.929 . S
C185 C183 1.433 . S
C185 N188 1.384 . S
C186 H177 0.929 . S
C186 C178 1.378 . S
C186 C181 1.350 . S
C187 H174 0.929 . S
C187 C179 1.433 . S
C187 N189 1.384 . S
N188 C184 1.427 . S
N188 C185 1.384 . S
N189 C181 1.427 . S
N189 C187 1.384 . S
H190 C196 0.930 . S
H191 C200 0.930 . S
H192 C205 0.929 . S
H193 C203 0.929 . S
H194 C198 0.929 . S
H195 C204 0.929 . S
C196 H190 0.930 . S
C196 C197 1.367 . S
C196 C204 1.378 . S
C197 C196 1.367 . S
C197 C205 1.433 . S
C198 H194 0.929 . S
C198 C200 1.378 . S
C198 C202 1.350 . S
C199 C202 1.463 . S
C199 C204 1.350 . S
C199 N207 1.427 . S
C200 H191 0.930 . S
C200 C198 1.378 . S
C200 C201 1.367 . S
C201 C200 1.367 . S
C201 C203 1.433 . S
C202 C198 1.350 . S
C202 C199 1.463 . S
C202 N206 1.427 . S
C203 H193 0.929 . S
C203 C201 1.433 . S
C203 N206 1.384 . S
C204 H195 0.929 . S
C204 C196 1.378 . S
C204 C199 1.350 . S
C205 H192 0.929 . S
C205 C197 1.433 . S
C205 N207 1.384 . S
N206 C202 1.427 . S
N206 C203 1.384 . S
N207 C199 1.427 . S
N207 C205 1.384 . S
H208 C214 0.930 . S
H209 C218 0.930 . S
H210 C223 0.929 . S
H211 C221 0.929 . S
H212 C216 0.929 . S
H213 C222 0.929 . S
C214 H208 0.930 . S
C214 C215 1.367 . S
C214 C222 1.378 . S
C215 C214 1.367 . S
C215 C223 1.433 . S
C216 H212 0.929 . S
C216 C218 1.378 . S
C216 C220 1.350 . S
C217 C220 1.463 . S
C217 C222 1.350 . S
C217 N225 1.427 . S
C218 H209 0.930 . S
C218 C216 1.378 . S
C218 C219 1.367 . S
C219 C218 1.367 . S
C219 C221 1.433 . S
C220 C216 1.350 . S
C220 C217 1.463 . S
C220 N224 1.427 . S
C221 H211 0.929 . S
C221 C219 1.433 . S
C221 N224 1.384 . S
C222 H213 0.929 . S
C222 C214 1.378 . S
C222 C217 1.350 . S
C223 H210 0.929 . S
C223 C215 1.433 . S
C223 N225 1.384 . S
N224 C220 1.427 . S
N224 C221 1.384 . S
N225 C217 1.427 . S
N225 C223 1.384 . S
H226 C232 0.930 . S
H227 C236 0.930 . S
H228 C241 0.929 . S
H229 C239 0.929 . S
H230 C234 0.929 . S
H231 C240 0.929 . S
C232 H226 0.930 . S
C232 C233 1.367 . S
C232 C240 1.378 . S
C233 C232 1.367 . S
C233 C241 1.433 . S
C234 H230 0.929 . S
C234 C236 1.378 . S
C234 C238 1.350 . S
C235 C238 1.463 . S
C235 C240 1.350 . S
C235 N243 1.427 . S
C236 H227 0.930 . S
C236 C234 1.378 . S
C236 C237 1.367 . S
C237 C236 1.367 . S
C237 C239 1.433 . S
C238 C234 1.350 . S
C238 C235 1.463 . S
C238 N242 1.427 . S
C239 H229 0.929 . S
C239 C237 1.433 . S
C239 N242 1.384 . S
C240 H231 0.929 . S
C240 C232 1.378 . S
C240 C235 1.350 . S
C241 H228 0.929 . S
C241 C233 1.433 . S
C241 N243 1.384 . S
N242 C238 1.427 . S
N242 C239 1.384 . S
N243 C235 1.427 . S
N243 C241 1.384 . S
H244 C250 0.930 . S
H245 C254 0.930 . S
H246 C259 0.929 . S
H247 C257 0.929 . S
H248 C252 0.929 . S
H249 C258 0.929 . S
C250 H244 0.930 . S
C250 C251 1.367 . S
C250 C258 1.378 . S
C251 C250 1.367 . S
C251 C259 1.433 . S
C252 H248 0.929 . S
C252 C254 1.378 . S
C252 C256 1.350 . S
C253 C256 1.463 . S
C253 C258 1.350 . S
C253 N261 1.427 . S
C254 H245 0.930 . S
C254 C252 1.378 . S
C254 C255 1.367 . S
C255 C254 1.367 . S
C255 C257 1.433 . S
C256 C252 1.350 . S
C256 C253 1.463 . S
C256 N260 1.427 . S
C257 H247 0.929 . S
C257 C255 1.433 . S
C257 N260 1.384 . S
C258 H249 0.929 . S
C258 C250 1.378 . S
C258 C253 1.350 . S
C259 H246 0.929 . S
C259 C251 1.433 . S
C259 N261 1.384 . S
N260 C256 1.427 . S
N260 C257 1.384 . S
N261 C253 1.427 . S
N261 C259 1.384 . S
H262 C268 0.930 . S
H263 C272 0.930 1_455 S
H264 C277 0.929 . S
H265 C275 0.939 . S
H266 C270 0.929 . S
H267 C276 0.929 . S
C268 H262 0.930 . S
C268 C269 1.367 . S
C268 C276 1.378 . S
C269 C268 1.367 . S
C269 C277 1.433 . S
C270 H266 0.929 . S
C270 C272 1.378 . S
C270 C274 1.350 . S
C271 C274 1.463 . S
C271 C276 1.350 . S
C271 N279 1.427 . S
C272 H263 0.930 1_655 S
C272 C270 1.378 . S
C272 C273 1.366 1_655 S
C273 C272 1.366 1_455 S
C273 C275 1.433 1_455 S
C274 C270 1.350 . S
C274 C271 1.463 . S
C274 N278 1.427 . S
C275 H265 0.939 . S
C275 C273 1.433 1_655 S
C275 N278 1.384 . S
C276 H267 0.929 . S
C276 C268 1.378 . S
C276 C271 1.350 . S
C277 H264 0.929 . S
C277 C269 1.433 . S
C277 N279 1.384 . S
N278 C274 1.427 . S
N278 C275 1.384 . S
N279 C271 1.427 . S
N279 C277 1.384 . S
H280 C286 0.930 . S
H281 C290 0.930 . S
H282 C295 0.929 . S
H283 C293 0.929 . S
H284 C288 0.929 . S
H285 C294 0.929 . S
C286 H280 0.930 . S
C286 C287 1.367 . S
C286 C294 1.378 . S
C287 C286 1.367 . S
C287 C295 1.433 . S
C288 H284 0.929 . S
C288 C290 1.378 . S
C288 C292 1.350 . S
C289 C292 1.463 . S
C289 C294 1.350 . S
C289 N297 1.427 . S
C290 H281 0.930 . S
C290 C288 1.378 . S
C290 C291 1.367 . S
C291 C290 1.367 . S
C291 C293 1.433 . S
C292 C288 1.350 . S
C292 C289 1.463 . S
C292 N296 1.427 . S
C293 H283 0.929 . S
C293 C291 1.433 . S
C293 N296 1.384 . S
C294 H285 0.929 . S
C294 C286 1.378 . S
C294 C289 1.350 . S
C295 H282 0.929 . S
C295 C287 1.433 . S
C295 N297 1.384 . S
N296 C292 1.427 . S
N296 C293 1.384 . S
N297 C289 1.427 . S
N297 C295 1.384 . S
H298 C304 0.930 . S
H299 C308 0.930 . S
H300 C313 0.929 . S
H301 C311 0.929 . S
H302 C306 0.929 . S
H303 C312 0.929 . S
C304 H298 0.930 . S
C304 C305 1.367 . S
C304 C312 1.378 1_455 S
C305 C304 1.367 . S
C305 C313 1.433 . S
C306 H302 0.929 . S
C306 C308 1.378 . S
C306 C310 1.350 . S
C307 C310 1.463 . S
C307 C312 1.350 . S
C307 N315 1.427 . S
C308 H299 0.930 . S
C308 C306 1.378 . S
C308 C309 1.367 . S
C309 C308 1.367 . S
C309 C311 1.433 . S
C310 C306 1.350 . S
C310 C307 1.463 . S
C310 N314 1.427 . S
C311 H301 0.929 . S
C311 C309 1.433 . S
C311 N314 1.384 . S
C312 H303 0.929 . S
C312 C304 1.378 1_655 S
C312 C307 1.350 . S
C313 H300 0.929 . S
C313 C305 1.433 . S
C313 N315 1.384 1_455 S
N314 C310 1.427 . S
N314 C311 1.384 . S
N315 C307 1.427 . S
N315 C313 1.384 1_655 S
H316 C322 0.930 . S
H317 C326 0.930 . S
H318 C331 0.929 . S
H319 C329 0.929 . S
H320 C324 0.929 . S
H321 C330 0.929 . S
C322 H316 0.930 . S
C322 C323 1.367 . S
C322 C330 1.378 . S
C323 C322 1.367 . S
C323 C331 1.433 . S
C324 H320 0.929 . S
C324 C326 1.378 . S
C324 C328 1.350 . S
C325 C328 1.463 . S
C325 C330 1.350 . S
C325 N333 1.427 . S
C326 H317 0.930 . S
C326 C324 1.378 . S
C326 C327 1.367 . S
C327 C326 1.367 . S
C327 C329 1.433 . S
C328 C324 1.350 . S
C328 C325 1.463 . S
C328 N332 1.427 . S
C329 H319 0.929 . S
C329 C327 1.433 . S
C329 N332 1.384 . S
C330 H321 0.929 . S
C330 C322 1.378 . S
C330 C325 1.350 . S
C331 H318 0.929 . S
C331 C323 1.433 . S
C331 N333 1.384 . S
N332 C328 1.427 . S
N332 C329 1.384 . S
N333 C325 1.427 . S
N333 C331 1.384 . S
H334 C340 0.930 . S
H335 C344 0.930 . S
H336 C349 0.929 . S
H337 C347 0.929 . S
H338 C342 0.929 . S
H339 C348 0.929 . S
C340 H334 0.930 . S
C340 C341 1.367 . S
C340 C348 1.378 . S
C341 C340 1.367 . S
C341 C349 1.433 . S
C342 H338 0.929 . S
C342 C344 1.378 . S
C342 C346 1.350 . S
C343 C346 1.463 . S
C343 C348 1.350 . S
C343 N351 1.427 . S
C344 H335 0.930 . S
C344 C342 1.378 . S
C344 C345 1.367 . S
C345 C344 1.367 . S
C345 C347 1.433 . S
C346 C342 1.350 . S
C346 C343 1.463 . S
C346 N350 1.427 . S
C347 H337 0.929 . S
C347 C345 1.433 . S
C347 N350 1.384 . S
C348 H339 0.929 . S
C348 C340 1.378 . S
C348 C343 1.350 . S
C349 H336 0.929 . S
C349 C341 1.433 . S
C349 N351 1.384 . S
N350 C346 1.427 . S
N350 C347 1.384 . S
N351 C343 1.427 . S
N351 C349 1.384 . S
H352 C358 0.930 . S
H353 C362 0.930 . S
H354 C367 0.929 . S
H355 C365 0.929 . S
H356 C360 0.929 . S
H357 C366 0.929 . S
C358 H352 0.930 . S
C358 C359 1.367 . S
C358 C366 1.378 . S
C359 C358 1.367 . S
C359 C367 1.433 . S
C360 H356 0.929 . S
C360 C362 1.378 . S
C360 C364 1.350 . S
C361 C364 1.463 . S
C361 C366 1.350 . S
C361 N369 1.427 . S
C362 H353 0.930 . S
C362 C360 1.378 . S
C362 C363 1.367 . S
C363 C362 1.367 . S
C363 C365 1.433 . S
C364 C360 1.350 . S
C364 C361 1.463 . S
C364 N368 1.427 . S
C365 H355 0.929 . S
C365 C363 1.433 . S
C365 N368 1.384 . S
C366 H357 0.929 . S
C366 C358 1.378 . S
C366 C361 1.350 . S
C367 H354 0.929 . S
C367 C359 1.433 . S
C367 N369 1.384 . S
N368 C364 1.427 . S
N368 C365 1.384 . S
N369 C361 1.427 . S
N369 C367 1.384 . S
H370 C376 0.930 . S
H371 C380 0.930 . S
H372 C385 0.929 . S
H373 C383 0.929 . S
H374 C378 0.929 . S
H375 C384 0.929 . S
C376 H370 0.930 . S
C376 C377 1.367 . S
C376 C384 1.378 . S
C377 C376 1.367 . S
C377 C385 1.433 . S
C378 H374 0.929 . S
C378 C380 1.378 . S
C378 C382 1.350 . S
C379 C382 1.463 . S
C379 C384 1.350 . S
C379 N387 1.427 . S
C380 H371 0.930 . S
C380 C378 1.378 . S
C380 C381 1.367 . S
C381 C380 1.367 . S
C381 C383 1.433 . S
C382 C378 1.350 . S
C382 C379 1.463 . S
C382 N386 1.427 . S
C383 H373 0.929 . S
C383 C381 1.433 . S
C383 N386 1.384 . S
C384 H375 0.929 . S
C384 C376 1.378 . S
C384 C379 1.350 . S
C385 H372 0.929 . S
C385 C377 1.433 . S
C385 N387 1.384 . S
N386 C382 1.427 . S
N386 C383 1.384 . S
N387 C379 1.427 . S
N387 C385 1.384 . S
H388 C394 0.930 . S
H389 C398 0.930 . S
H390 C403 0.929 . S
H391 C401 0.929 . S
H392 C396 0.929 . S
H393 C402 0.929 . S
C394 H388 0.930 . S
C394 C395 1.367 . S
C394 C402 1.378 . S
C395 C394 1.367 . S
C395 C403 1.433 . S
C396 H392 0.929 . S
C396 C398 1.378 1_565 S
C396 C400 1.350 . S
C397 C400 1.463 . S
C397 C402 1.350 . S
C397 N405 1.427 . S
C398 H389 0.930 . S
C398 C396 1.378 1_545 S
C398 C399 1.367 . S
C399 C398 1.367 . S
C399 C401 1.433 . S
C400 C396 1.350 . S
C400 C397 1.463 . S
C400 N404 1.427 1_565 S
C401 H391 0.929 . S
C401 C399 1.433 . S
C401 N404 1.384 . S
C402 H393 0.929 . S
C402 C394 1.378 . S
C402 C397 1.350 . S
C403 H390 0.929 . S
C403 C395 1.433 . S
C403 N405 1.384 . S
N404 C400 1.427 1_545 S
N404 C401 1.384 . S
N405 C397 1.427 . S
N405 C403 1.384 . S
H406 C412 0.930 . S
H407 C416 0.930 . S
H408 C421 0.929 . S
H409 C419 0.929 . S
H410 C414 0.929 . S
H411 C420 0.929 . S
C412 H406 0.930 . S
C412 C413 1.367 . S
C412 C420 1.378 . S
C413 C412 1.367 . S
C413 C421 1.433 . S
C414 H410 0.929 . S
C414 C416 1.378 . S
C414 C418 1.350 . S
C415 C418 1.463 1_545 S
C415 C420 1.350 . S
C415 N423 1.427 . S
C416 H407 0.930 . S
C416 C414 1.378 . S
C416 C417 1.367 . S
C417 C416 1.367 . S
C417 C419 1.433 . S
C418 C414 1.350 . S
C418 C415 1.463 1_565 S
C418 N422 1.427 . S
C419 H409 0.929 . S
C419 C417 1.433 . S
C419 N422 1.384 . S
C420 H411 0.929 . S
C420 C412 1.378 . S
C420 C415 1.350 . S
C421 H408 0.929 . S
C421 C413 1.433 . S
C421 N423 1.384 . S
N422 C418 1.427 . S
N422 C419 1.384 . S
N423 C415 1.427 . S
N423 C421 1.384 . S
H424 C430 0.930 . S
H425 C434 0.930 . S
H426 C439 0.929 . S
H427 C437 0.929 . S
H428 C432 0.929 1_545 S
H429 C438 0.929 . S
C430 H424 0.930 . S
C430 C431 1.367 . S
C430 C438 1.378 . S
C431 C430 1.367 . S
C431 C439 1.433 . S
C432 H428 0.929 1_565 S
C432 C434 1.378 . S
C432 C436 1.350 . S
C433 C436 1.463 1_545 S
C433 C438 1.350 . S
C433 N441 1.427 . S
C434 H425 0.930 . S
C434 C432 1.378 . S
C434 C435 1.367 . S
C435 C434 1.367 . S
C435 C437 1.433 . S
C436 C432 1.350 . S
C436 C433 1.463 1_565 S
C436 N440 1.427 . S
C437 H427 0.929 . S
C437 C435 1.433 . S
C437 N440 1.384 . S
C438 H429 0.929 . S
C438 C430 1.378 . S
C438 C433 1.350 . S
C439 H426 0.929 . S
C439 C431 1.433 . S
C439 N441 1.384 . S
N440 C436 1.427 . S
N440 C437 1.384 . S
N441 C433 1.427 . S
N441 C439 1.384 . S
H442 C448 0.930 . S
H443 C452 0.930 . S
H444 C457 0.929 1_655 S
H445 C455 0.929 . S
H446 C450 0.929 . S
H447 C456 0.929 . S
C448 H442 0.930 . S
C448 C449 1.367 . S
C448 C456 1.378 . S
C449 C448 1.367 . S
C449 C457 1.433 . S
C450 H446 0.929 . S
C450 C452 1.378 . S
C450 C454 1.350 . S
C451 C454 1.463 1_565 S
C451 C456 1.350 . S
C451 N459 1.427 . S
C452 H443 0.930 . S
C452 C450 1.378 . S
C452 C453 1.367 . S
C453 C452 1.367 . S
C453 C455 1.433 . S
C454 C450 1.350 . S
C454 C451 1.463 1_545 S
C454 N458 1.427 . S
C455 H445 0.929 . S
C455 C453 1.433 . S
C455 N458 1.384 . S
C456 H447 0.929 . S
C456 C448 1.378 . S
C456 C451 1.350 . S
C457 H444 0.929 1_455 S
C457 C449 1.433 . S
C457 N459 1.384 . S
N458 C454 1.427 . S
N458 C455 1.384 . S
N459 C451 1.427 . S
N459 C457 1.384 . S
H460 C466 0.930 . S
H461 C470 0.930 . S
H462 C475 0.929 . S
H463 C473 0.929 . S
H464 C468 0.929 . S
H465 C474 0.949 . S
C466 H460 0.930 . S
C466 C467 1.367 . S
C466 C474 1.378 . S
C467 C466 1.367 . S
C467 C475 1.433 . S
C468 H464 0.929 . S
C468 C470 1.378 . S
C468 C472 1.350 . S
C469 C472 1.463 . S
C469 C474 1.350 1_556 S
C469 N477 1.427 1_556 S
C470 H461 0.930 . S
C470 C468 1.378 . S
C470 C471 1.367 . S
C471 C470 1.367 . S
C471 C473 1.433 . S
C472 C468 1.350 . S
C472 C469 1.463 . S
C472 N476 1.427 . S
C473 H463 0.929 . S
C473 C471 1.433 . S
C473 N476 1.384 . S
C474 H465 0.949 . S
C474 C466 1.378 . S
C474 C469 1.350 1_554 S
C475 H462 0.929 . S
C475 C467 1.433 . S
C475 N477 1.384 . S
N476 C472 1.427 . S
N476 C473 1.384 . S
N477 C469 1.427 1_554 S
N477 C475 1.384 . S
H478 C484 0.930 . S
H479 C488 0.930 . S
H480 C493 0.929 . S
H481 C491 0.929 . S
H482 C486 0.929 . S
H483 C492 0.929 . S
C484 H478 0.930 . S
C484 C485 1.367 . S
C484 C492 1.378 . S
C485 C484 1.367 . S
C485 C493 1.433 . S
C486 H482 0.929 . S
C486 C488 1.378 . S
C486 C490 1.350 . S
C487 C490 1.463 . S
C487 C492 1.350 . S
C487 N495 1.427 . S
C488 H479 0.930 . S
C488 C486 1.378 . S
C488 C489 1.367 . S
C489 C488 1.367 . S
C489 C491 1.433 . S
C490 C486 1.350 . S
C490 C487 1.463 . S
C490 N494 1.427 . S
C491 H481 0.929 . S
C491 C489 1.433 . S
C491 N494 1.384 . S
C492 H483 0.929 . S
C492 C484 1.378 . S
C492 C487 1.350 . S
C493 H480 0.929 . S
C493 C485 1.433 . S
C493 N495 1.384 . S
N494 C490 1.427 . S
N494 C491 1.384 . S
N495 C487 1.427 . S
N495 C493 1.384 . S
H496 C502 0.930 . S
H497 C506 0.930 . S
H498 C511 0.929 . S
H499 C509 0.929 . S
H500 C504 0.929 . S
H501 C510 0.929 . S
C502 H496 0.930 . S
C502 C503 1.367 . S
C502 C510 1.378 . S
C503 C502 1.367 . S
C503 C511 1.433 . S
C504 H500 0.929 . S
C504 C506 1.378 . S
C504 C508 1.350 . S
C505 C508 1.463 . S
C505 C510 1.350 . S
C505 N513 1.427 . S
C506 H497 0.930 . S
C506 C504 1.378 . S
C506 C507 1.367 . S
C507 C506 1.367 . S
C507 C509 1.433 . S
C508 C504 1.350 . S
C508 C505 1.463 . S
C508 N512 1.427 . S
C509 H499 0.929 . S
C509 C507 1.433 . S
C509 N512 1.384 . S
C510 H501 0.929 . S
C510 C502 1.378 . S
C510 C505 1.350 . S
C511 H498 0.929 . S
C511 C503 1.433 . S
C511 N513 1.384 . S
N512 C508 1.427 . S
N512 C509 1.384 . S
N513 C505 1.427 . S
N513 C511 1.384 . S
H514 C520 0.930 . S
H515 C524 0.930 . S
H516 C529 0.929 . S
H517 C527 0.929 . S
H518 C522 0.929 . S
H519 C528 0.929 . S
C520 H514 0.930 . S
C520 C521 1.367 . S
C520 C528 1.378 . S
C521 C520 1.367 . S
C521 C529 1.433 . S
C522 H518 0.929 . S
C522 C524 1.378 . S
C522 C526 1.350 . S
C523 C526 1.463 . S
C523 C528 1.350 . S
C523 N531 1.427 . S
C524 H515 0.930 . S
C524 C522 1.378 . S
C524 C525 1.367 . S
C525 C524 1.367 . S
C525 C527 1.433 . S
C526 C522 1.350 . S
C526 C523 1.463 . S
C526 N530 1.427 . S
C527 H517 0.929 . S
C527 C525 1.433 . S
C527 N530 1.384 . S
C528 H519 0.929 . S
C528 C520 1.378 . S
C528 C523 1.350 . S
C529 H516 0.929 . S
C529 C521 1.433 . S
C529 N531 1.384 . S
N530 C526 1.427 . S
N530 C527 1.384 . S
N531 C523 1.427 . S
N531 C529 1.384 . S
H532 C538 0.930 . S
H533 C542 0.930 . S
H534 C547 0.929 . S
H535 C545 0.929 . S
H536 C540 0.929 . S
H537 C546 0.929 1_554 S
C538 H532 0.930 . S
C538 C539 1.367 . S
C538 C546 1.378 . S
C539 C538 1.367 . S
C539 C547 1.433 . S
C540 H536 0.929 . S
C540 C542 1.378 . S
C540 C544 1.350 . S
C541 C544 1.463 . S
C541 C546 1.350 1_554 S
C541 N549 1.427 1_554 S
C542 H533 0.930 . S
C542 C540 1.378 . S
C542 C543 1.367 . S
C543 C542 1.367 . S
C543 C545 1.433 . S
C544 C540 1.350 . S
C544 C541 1.463 . S
C544 N548 1.427 . S
C545 H535 0.929 . S
C545 C543 1.433 . S
C545 N548 1.384 . S
C546 H537 0.929 1_556 S
C546 C538 1.378 . S
C546 C541 1.350 1_556 S
C547 H534 0.929 . S
C547 C539 1.433 . S
C547 N549 1.384 . S
N548 C544 1.427 . S
N548 C545 1.384 . S
N549 C541 1.427 1_556 S
N549 C547 1.384 . S
H550 C556 0.930 . S
H551 C560 0.930 . S
H552 C565 0.929 . S
H553 C563 0.929 . S
H554 C558 0.929 . S
H555 C564 0.929 . S
C556 H550 0.930 . S
C556 C557 1.367 . S
C556 C564 1.378 . S
C557 C556 1.367 . S
C557 C565 1.433 . S
C558 H554 0.929 . S
C558 C560 1.378 . S
C558 C562 1.350 . S
C559 C562 1.463 . S
C559 C564 1.350 . S
C559 N567 1.427 . S
C560 H551 0.930 . S
C560 C558 1.378 . S
C560 C561 1.367 . S
C561 C560 1.367 . S
C561 C563 1.433 . S
C562 C558 1.350 . S
C562 C559 1.463 . S
C562 N566 1.427 . S
C563 H553 0.929 . S
C563 C561 1.433 . S
C563 N566 1.384 . S
C564 H555 0.929 . S
C564 C556 1.378 . S
C564 C559 1.350 . S
C565 H552 0.929 . S
C565 C557 1.433 . S
C565 N567 1.384 . S
N566 C562 1.427 . S
N566 C563 1.384 . S
N567 C559 1.427 . S
N567 C565 1.384 . S
H568 C574 0.930 . S
H569 C578 0.930 . S
H570 C583 0.929 . S
H571 C581 0.929 . S
H572 C576 0.929 . S
H573 C582 0.929 . S
C574 H568 0.930 . S
C574 C575 1.367 . S
C574 C582 1.378 . S
C575 C574 1.367 . S
C575 C583 1.433 . S
C576 H572 0.929 . S
C576 C578 1.378 . S
C576 C580 1.350 . S
C577 C580 1.463 . S
C577 C582 1.350 . S
C577 N585 1.427 . S
C578 H569 0.930 . S
C578 C576 1.378 . S
C578 C579 1.367 . S
C579 C578 1.367 . S
C579 C581 1.433 . S
C580 C576 1.350 . S
C580 C577 1.463 . S
C580 N584 1.427 . S
C581 H571 0.929 . S
C581 C579 1.433 . S
C581 N584 1.384 . S
C582 H573 0.929 . S
C582 C574 1.378 . S
C582 C577 1.350 . S
C583 H570 0.929 . S
C583 C575 1.433 . S
C583 N585 1.384 . S
N584 C580 1.427 . S
N584 C581 1.384 . S
N585 C577 1.427 . S
N585 C583 1.384 . S
H586 C592 0.930 . S
H587 C596 0.930 . S
H588 C601 0.929 . S
H589 C599 0.929 . S
H590 C594 0.929 . S
H591 C600 0.929 . S
C592 H586 0.930 . S
C592 C593 1.367 . S
C592 C600 1.378 . S
C593 C592 1.367 . S
C593 C601 1.433 . S
C594 H590 0.929 . S
C594 C596 1.378 . S
C594 C598 1.350 . S
C595 C598 1.463 . S
C595 C600 1.350 . S
C595 N603 1.427 . S
C596 H587 0.930 . S
C596 C594 1.378 . S
C596 C597 1.367 . S
C597 C596 1.367 . S
C597 C599 1.433 . S
C598 C594 1.350 . S
C598 C595 1.463 . S
C598 N602 1.427 . S
C599 H589 0.929 . S
C599 C597 1.433 . S
C599 N602 1.384 . S
C600 H591 0.929 . S
C600 C592 1.378 . S
C600 C595 1.350 . S
C601 H588 0.929 . S
C601 C593 1.433 . S
C601 N603 1.384 . S
N602 C598 1.427 . S
N602 C599 1.384 . S
N603 C595 1.427 . S
N603 C601 1.384 . S
C183 C95 1.416 . S
C179 C4 1.553 . S
C201 C113 1.361 . S
C197 C21 1.443 1_655 S
C215 C32 1.390 . S
C219 C137 1.296 . S
C237 C167 1.283 1_655 S
C233 C37 1.411 . S
C255 C155 1.240 . S
C251 C48 1.339 . S
C269 C65 1.464 . S
C273 C108 1.388 . S
C287 C76 1.601 . S
C291 C128 1.501 . S
C305 C81 1.422 . S
C309 C133 1.279 . S
C323 C87 1.458 . S
C327 C149 1.383 . S
C341 C59 1.419 . S
C345 C104 1.299 . S
C363 C171 1.394 . S
C359 C43 1.457 . S
C381 C116 1.257 . S
C377 C15 1.411 . S
C395 C26 1.548 . S
C399 C134 1.412 . S
C413 C10 1.408 . S
C417 C92 1.293 . S
C435 C112 1.245 . S
C431 C70 1.330 . S
C453 C158 1.485 . S
C449 C54 1.597 . S
C471 C154 1.390 . S
C467 C5 1.517 . S
C489 C107 1.457 . S
C485 C16 1.515 . S
C503 C27 1.499 . S
C507 C129 1.367 . S
C521 C38 1.532 . S
C525 C150 1.473 . S
C543 C91 1.363 . S
C539 C49 1.577 . S
C557 C60 1.509 . S
C561 C125 1.444 . S
C579 C146 1.349 . S
C575 C71 1.585 . S
C597 C170 1.422 . S
C593 C82 1.486 . S
