# Generated by pormake.
# Topology llj, (12,3)-cn, num edge types: 1
# Building blocks:
#     Node 0, Type 0, BuildingBlock: QEWDON_clean_sbu_0, # of connection points: 12
#     Node 1, Type 0, BuildingBlock: QEWDON_clean_sbu_0, # of connection points: 12
#     Node 2, Type 1, BuildingBlock: INOVEN_clean_linker_0, # of connection points: 3
#     Node 3, Type 1, BuildingBlock: INOVEN_clean_linker_0, # of connection points: 3
#     Node 4, Type 1, BuildingBlock: INOVEN_clean_linker_0, # of connection points: 3
#     Node 5, Type 1, BuildingBlock: INOVEN_clean_linker_0, # of connection points: 3
#     Node 6, Type 1, BuildingBlock: INOVEN_clean_linker_0, # of connection points: 3
#     Node 7, Type 1, BuildingBlock: INOVEN_clean_linker_0, # of connection points: 3
#     Node 8, Type 1, BuildingBlock: INOVEN_clean_linker_0, # of connection points: 3
#     Node 9, Type 1, BuildingBlock: INOVEN_clean_linker_0, # of connection points: 3
#     Edge 10, Type (0, 1), BuildingBlock: XIVTED_clean_linker_0, # of connection points: 2
#     Edge 11, Type (0, 1), BuildingBlock: XIVTED_clean_linker_0, # of connection points: 2
#     Edge 12, Type (0, 1), BuildingBlock: XIVTED_clean_linker_0, # of connection points: 2
#     Edge 13, Type (0, 1), BuildingBlock: XIVTED_clean_linker_0, # of connection points: 2
#     Edge 14, Type (0, 1), BuildingBlock: XIVTED_clean_linker_0, # of connection points: 2
#     Edge 15, Type (0, 1), BuildingBlock: XIVTED_clean_linker_0, # of connection points: 2
#     Edge 16, Type (0, 1), BuildingBlock: XIVTED_clean_linker_0, # of connection points: 2
#     Edge 17, Type (0, 1), BuildingBlock: XIVTED_clean_linker_0, # of connection points: 2
#     Edge 18, Type (0, 1), BuildingBlock: XIVTED_clean_linker_0, # of connection points: 2
#     Edge 19, Type (0, 1), BuildingBlock: XIVTED_clean_linker_0, # of connection points: 2
#     Edge 20, Type (0, 1), BuildingBlock: XIVTED_clean_linker_0, # of connection points: 2
#     Edge 21, Type (0, 1), BuildingBlock: XIVTED_clean_linker_0, # of connection points: 2
#     Edge 22, Type (0, 1), BuildingBlock: XIVTED_clean_linker_0, # of connection points: 2
#     Edge 23, Type (0, 1), BuildingBlock: XIVTED_clean_linker_0, # of connection points: 2
#     Edge 24, Type (0, 1), BuildingBlock: XIVTED_clean_linker_0, # of connection points: 2
#     Edge 25, Type (0, 1), BuildingBlock: XIVTED_clean_linker_0, # of connection points: 2
#     Edge 26, Type (0, 1), BuildingBlock: XIVTED_clean_linker_0, # of connection points: 2
#     Edge 27, Type (0, 1), BuildingBlock: XIVTED_clean_linker_0, # of connection points: 2
#     Edge 28, Type (0, 1), BuildingBlock: XIVTED_clean_linker_0, # of connection points: 2
#     Edge 29, Type (0, 1), BuildingBlock: XIVTED_clean_linker_0, # of connection points: 2
#     Edge 30, Type (0, 1), BuildingBlock: XIVTED_clean_linker_0, # of connection points: 2
#     Edge 31, Type (0, 1), BuildingBlock: XIVTED_clean_linker_0, # of connection points: 2
#     Edge 32, Type (0, 1), BuildingBlock: XIVTED_clean_linker_0, # of connection points: 2
#     Edge 33, Type (0, 1), BuildingBlock: XIVTED_clean_linker_0, # of connection points: 2
# Relax obj value: 0.009
# Max RMSD: 0.095
# Mean RMSD: 0.082
data_MOF--net-llj--node1-QEWDON_clean_sbu_0--node2-INOVEN_clean_linker_0--edge1-XIVTED_clean_linker_0
_symmetry_space_group_name_H-M    P1
_symmetry_Int_Tables_number       1
_symmetry_cell_setting            triclinic
loop_
_symmetry_equiv_pos_as_xyz
'x, y, z'
_cell_length_a     39.400533
_cell_length_b     39.442042
_cell_length_c     24.723429
_cell_angle_alpha  91.094982
_cell_angle_beta   90.906249
_cell_angle_gamma 89.831575
loop_
_atom_site_label
_atom_site_type_symbol
_atom_site_fract_x
_atom_site_fract_y
_atom_site_fract_z
_atom_type_partial_charge
Zn0 Zn 0.94289 0.0542 0.94076 0.0
Zn1 Zn 0.94333 0.05829 0.06777 0.0
O2 O 0.97398 0.04979 0.00586 0.0
H3 H 0.99314 0.03445 0.006 0.0
C4 C 0.89034 0.99752 0.86955 0.0
O5 O 0.87908 0.00603 0.91769 0.0
Zn6 Zn 0.05188 0.94666 0.06854 0.0
Zn7 Zn 0.05154 0.94935 0.94024 0.0
O8 O 0.02178 0.95569 0.00543 0.0
H9 H 0.00265 0.97102 0.00652 0.0
Zn10 Zn 0.91633 0.94287 0.93258 0.0
O11 O 0.93026 0.97105 -0.00313 0.0
Zn12 Zn 0.92746 0.94145 0.06098 0.0
H13 H 0.94515 0.99017 0.99289 0.0
Zn14 Zn 0.08157 0.06671 0.94263 0.0
O15 O 0.06698 0.03636 0.00233 0.0
H16 H 0.05489 0.01535 -0.00389 0.0
Zn17 Zn 0.06544 0.06565 0.06861 0.0
C18 C 0.11271 0.01278 0.88018 0.0
O19 O 0.10919 0.99751 0.9265 0.0
O20 O 0.90146 0.08428 0.9564 0.0
O21 O 0.90519 0.0906 0.04604 0.0
O22 O 0.09423 0.92126 0.95636 0.0
O23 O 0.09248 0.91732 0.04586 0.0
O24 O 0.89082 0.8994 0.95125 0.0
O25 O 0.89998 0.89829 0.0404 0.0
C26 C 0.00262 0.07769 0.12884 0.0
O27 O 0.10001 0.11275 0.96937 0.0
O28 O 0.09017 0.11057 0.05767 0.0
O29 O 0.02598 0.93565 0.87014 0.0
C30 C 0.89088 0.09726 0.00066 0.0
O31 O 0.96829 0.06207 0.86988 0.0
C32 C 0.99245 0.91984 0.12243 0.0
O33 O 0.90655 0.96986 0.86348 0.0
C34 C 0.10629 0.91006 0.00065 0.0
O35 O 0.10304 0.04337 0.87601 0.0
C36 C 0.91019 4e-05 0.12235 0.0
O37 O 0.97066 0.07485 0.13345 0.0
O38 O 0.01577 0.07266 0.08293 0.0
C39 C 0.88727 0.8853 -0.00321 0.0
O40 O 0.02464 0.92245 0.12515 0.0
O41 O 0.97683 0.93264 0.08215 0.0
C42 C 0.0838 0.00795 0.13151 0.0
O43 O 0.90582 0.96817 0.1232 0.0
O44 O 0.92542 0.01223 0.08251 0.0
C45 C 0.10181 0.12587 0.01682 0.0
O46 O 0.08717 0.03999 0.13028 0.0
O47 O 0.0667 0.99357 0.09358 0.0
C48 C 0.99729 0.92159 0.87517 0.0
O49 O 0.98521 0.91748 0.92382 0.0
C50 C 0.99609 0.0781 0.87532 0.0
O51 O 0.00586 0.08862 0.92383 0.0
Zn52 Zn 0.44579 0.55419 0.46043 0.0
Zn53 Zn 0.44557 0.54847 0.58922 0.0
O54 O 0.47431 0.54007 0.52451 0.0
H55 H 0.49434 0.52598 0.52239 0.0
C56 C 0.39718 0.48816 0.3737 0.0
O57 O 0.40493 0.50487 0.41858 0.0
Zn58 Zn 0.54705 0.44609 0.58669 0.0
Zn59 Zn 0.54611 0.43809 0.45801 0.0
O60 O 0.51803 0.45308 0.52124 0.0
H61 H 0.49783 0.46688 0.51881 0.0
Zn62 Zn 0.41554 0.43299 0.44292 0.0
O63 O 0.42384 0.46333 0.50785 0.0
Zn64 Zn 0.42384 0.43314 0.57122 0.0
H65 H 0.43637 0.48427 0.50615 0.0
Zn66 Zn 0.56864 0.56685 0.44787 0.0
O67 O 0.56682 0.53366 0.50867 0.0
H68 H 0.56269 0.50961 0.50494 0.0
Zn69 Zn 0.56667 0.56225 0.57562 0.0
C70 C 0.57736 0.51635 0.36456 0.0
O71 O 0.55567 0.50108 0.39565 0.0
O72 O 0.40726 0.58679 0.48155 0.0
O73 O 0.40913 0.58414 0.5715 0.0
O74 O 0.5869 0.40843 0.47958 0.0
O75 O 0.58529 0.41202 0.56958 0.0
O76 O 0.39541 0.38718 0.4627 0.0
O77 O 0.40114 0.38749 0.55245 0.0
C78 C 0.50707 0.56808 0.64498 0.0
O79 O 0.58761 0.61306 0.47288 0.0
O80 O 0.58781 0.60825 0.56239 0.0
O81 O 0.51957 0.42775 0.38701 0.0
C82 C 0.39654 0.59618 0.52786 0.0
O83 O 0.47156 0.56244 0.38974 0.0
C84 C 0.4853 0.42685 0.63984 0.0
O85 O 0.39943 0.45604 0.37268 0.0
C86 C 0.59849 0.40036 0.52604 0.0
O87 O 0.58682 0.54626 0.37694 0.0
C88 C 0.40461 0.48939 0.63684 0.0
O89 O 0.47573 0.56306 0.65314 0.0
O90 O 0.51793 0.56585 0.59706 0.0
C91 C 0.3916 0.37302 0.50804 0.0
O92 O 0.5169 0.43158 0.64826 0.0
O93 O 0.47339 0.42847 0.59199 0.0
C94 C 0.58743 0.50621 0.63748 0.0
O95 O 0.39877 0.45784 0.63105 0.0
O96 O 0.42506 0.50278 0.60422 0.0
C97 C 0.5941 0.62505 0.52009 0.0
O98 O 0.59289 0.53777 0.63341 0.0
O99 O 0.56638 0.4925 0.60425 0.0
C100 C 0.49199 0.41133 0.3894 0.0
O101 O 0.48187 0.40071 0.43653 0.0
C102 C 0.49625 0.58308 0.39228 0.0
O103 O 0.50349 0.59843 0.43866 0.0
H104 H 0.29462 0.36499 0.9225 0.0
H105 H 0.38004 0.41104 0.00513 0.0
H106 H 0.30874 0.35193 0.09325 0.0
N107 N 0.26902 0.33561 0.00645 0.0
N108 N 0.2586 0.32107 0.04735 0.0
C109 C 0.3089 0.37055 0.95942 0.0
C110 C 0.33889 0.38961 0.95776 0.0
C111 C 0.29771 0.35729 0.00808 0.0
C112 C 0.31658 0.36342 0.05606 0.0
C113 C 0.34646 0.38286 0.05544 0.0
C114 C 0.3569 0.39636 0.0062 0.0
H115 H 0.7047 0.34977 0.09651 0.0
H116 H 0.66532 0.4308 -0.00027 0.0
H117 H 0.71075 0.34367 0.9229 0.0
N118 N 0.72619 0.31136 0.01636 0.0
N119 N 0.73422 0.29332 0.97661 0.0
C120 C 0.69984 0.36082 0.05731 0.0
C121 C 0.68409 0.39265 0.05378 0.0
C122 C 0.70958 0.34304 0.01052 0.0
C123 C 0.70333 0.3572 0.95942 0.0
C124 C 0.68795 0.38922 0.95554 0.0
C125 C 0.67846 0.40669 0.00282 0.0
H126 H 0.67623 0.65897 0.11156 0.0
H127 H 0.61151 0.59177 0.01745 0.0
H128 H 0.68992 0.64758 0.94029 0.0
N129 N 0.71319 0.67955 0.03136 0.0
N130 N 0.72924 0.68865 0.99107 0.0
C131 C 0.66919 0.64661 0.07354 0.0
C132 C 0.64174 0.62383 0.07074 0.0
C133 C 0.68686 0.65502 0.02696 0.0
C134 C 0.67682 0.64068 0.97664 0.0
C135 C 0.64932 0.61811 0.97283 0.0
C136 C 0.63264 0.60921 0.02026 0.0
H137 H 0.29209 0.65914 0.09355 0.0
H138 H 0.3338 0.57743 -0.00215 0.0
H139 H 0.28842 0.66314 0.91975 0.0
N140 N 0.27181 0.69659 0.01322 0.0
N141 N 0.2635 0.71413 0.97371 0.0
C142 C 0.29788 0.64776 0.05452 0.0
C143 C 0.31387 0.61598 0.05148 0.0
C144 C 0.28873 0.66497 0.00747 0.0
C145 C 0.29564 0.65018 0.95643 0.0
C146 C 0.31126 0.61815 0.95293 0.0
C147 C 0.32049 0.60149 0.00056 0.0
H148 H 0.8288 0.80978 0.40824 0.0
H149 H 0.91409 0.85484 0.49258 0.0
H150 H 0.83091 0.81531 0.58202 0.0
N151 N 0.7934 0.79615 0.49433 0.0
N152 N 0.77784 0.79069 0.53682 0.0
C153 C 0.84163 0.8173 0.44566 0.0
C154 C 0.8739 0.83221 0.44458 0.0
C155 C 0.82585 0.81157 0.49497 0.0
C156 C 0.84266 0.82051 0.54378 0.0
C157 C 0.87484 0.83567 0.54329 0.0
C158 C 0.88998 0.84174 0.49347 0.0
H159 H 0.20787 0.84359 0.40953 0.0
H160 H 0.16511 0.92742 0.49911 0.0
H161 H 0.21605 0.84728 0.58334 0.0
N162 N 0.23142 0.81024 0.49366 0.0
N163 N 0.24175 0.79585 0.53534 0.0
C164 C 0.20256 0.85629 0.44773 0.0
C165 C 0.1857 0.88772 0.44849 0.0
C166 C 0.21344 0.84148 0.49615 0.0
C167 C 0.2072 0.85825 0.54584 0.0
C168 C 0.19019 0.88958 0.54713 0.0
C169 C 0.1793 0.90384 0.49832 0.0
H170 H 0.17869 0.1481 0.59862 0.0
H171 H 0.10839 0.09117 0.49809 0.0
H172 H 0.19232 0.14213 0.42671 0.0
N173 N 0.21756 0.16856 0.52111 0.0
N174 N 0.23544 0.17715 0.48254 0.0
C175 C 0.17082 0.13792 0.5594 0.0
C176 C 0.14139 0.11805 0.55413 0.0
C177 C 0.18947 0.1464 0.51392 0.0
C178 C 0.1785 0.13497 0.46223 0.0
C179 C 0.14906 0.11512 0.45621 0.0
C180 C 0.13122 0.10624 0.50251 0.0
H181 H 0.8219 0.18197 0.40895 0.0
H182 H 0.86939 0.10154 0.49816 0.0
H183 H 0.81757 0.18192 0.58246 0.0
N184 N 0.795 0.21354 0.49271 0.0
N185 N 0.78264 0.22676 0.53426 0.0
C186 C 0.82858 0.1702 0.4469 0.0
C187 C 0.84822 0.14034 0.44742 0.0
C188 C 0.817 0.18497 0.49527 0.0
C189 C 0.82598 0.17029 0.54495 0.0
C190 C 0.84552 0.14049 0.54634 0.0
C191 C 0.85607 0.12558 0.4974 0.0
H192 H 0.12318 0.15691 0.11198 0.0
H193 H 0.22019 0.30395 0.95836 0.0
H194 H 0.12072 0.16981 0.93888 0.0
H195 H 0.2345 0.2853 0.12843 0.0
H196 H 0.17696 0.25985 0.95354 0.0
H197 H 0.15728 0.20862 0.12168 0.0
C198 C 0.12948 0.17077 0.0761 0.0
C199 C 0.11941 0.15876 0.02447 0.0
C200 C 0.1893 0.26549 0.99209 0.0
C201 C 0.15833 0.21782 0.03532 0.0
C202 C 0.21397 0.29073 -0.00514 0.0
C203 C 0.23104 0.29796 0.04401 0.0
C204 C 0.18171 0.24723 0.03862 0.0
C205 C 0.22186 0.2802 0.08995 0.0
C206 C 0.14902 0.20022 0.08167 0.0
C207 C 0.12823 0.17782 0.97944 0.0
N208 N 0.19796 0.25539 0.08617 0.0
N209 N 0.1473 0.20623 0.98592 0.0
H210 H 0.85414 0.11688 0.91174 0.0
H211 H 0.75575 0.26455 0.07071 0.0
H212 H 0.86324 0.13425 0.08444 0.0
H213 H 0.75313 0.25157 0.8972 0.0
H214 H 0.78976 0.21286 0.07784 0.0
H215 H 0.81163 0.16171 0.90718 0.0
C216 C 0.84706 0.12995 0.94884 0.0
C217 C 0.86269 0.12206 -0.00149 0.0
C218 C 0.78158 0.22113 0.03819 0.0
C219 C 0.81396 0.17362 0.99338 0.0
C220 C 0.76215 0.25062 0.0341 0.0
C221 C 0.75191 0.26226 0.983 0.0
C222 C 0.79084 0.20327 0.99096 0.0
C223 C 0.76077 0.24327 0.93707 0.0
C224 C 0.82275 0.1556 0.94614 0.0
C225 C 0.85214 0.13968 0.04521 0.0
N226 N 0.77992 0.21477 0.94202 0.0
N227 N 0.82862 0.16484 0.04142 0.0
H228 H 0.86422 0.85225 0.08623 0.0
H229 H 0.76443 0.71098 0.9089 0.0
H230 H 0.86415 0.8462 0.91162 0.0
H231 H 0.75176 0.72425 0.08075 0.0
H232 H 0.80615 0.75695 0.91098 0.0
H233 H 0.82792 0.80186 0.08695 0.0
C234 C 0.85678 0.84026 0.0481 0.0
C235 C 0.86706 0.8537 -0.00124 0.0
C236 C 0.7944 0.74978 0.94835 0.0
C237 C 0.82563 0.79607 -0.00063 0.0
C238 C 0.77073 0.72356 0.94707 0.0
C239 C 0.75471 0.71404 -0.00561 0.0
C240 C 0.80213 0.76666 -0.00241 0.0
C241 C 0.76353 0.73093 0.04319 0.0
C242 C 0.836 0.81155 0.04856 0.0
C243 C 0.85666 0.83701 0.95064 0.0
N244 N 0.78661 0.75656 0.04347 0.0
N245 N 0.83651 0.8092 0.95219 0.0
H246 H 0.14185 0.8892 0.91175 0.0
H247 H 0.24272 0.74388 0.06822 0.0
H248 H 0.1362 0.87523 0.08425 0.0
H249 H 0.24346 0.75501 0.89515 0.0
H250 H 0.2088 0.79566 0.07632 0.0
H251 H 0.18443 0.84452 0.90666 0.0
C252 C 0.1498 0.87703 0.94876 0.0
C253 C 0.13509 0.88587 -0.0015 0.0
C254 C 0.21654 0.78697 0.03657 0.0
C255 C 0.18381 0.83418 0.99269 0.0
C256 C 0.23591 0.7574 0.0319 0.0
C257 C 0.24564 0.74519 0.98063 0.0
C258 C 0.20681 0.80437 0.98975 0.0
C259 C 0.23625 0.76371 0.93514 0.0
C260 C 0.17411 0.85137 0.94572 0.0
C261 C 0.14663 0.86916 0.04498 0.0
N262 N 0.21718 0.7923 0.94065 0.0
N263 N 0.17008 0.8439 0.04085 0.0
H264 H 0.60858 0.6694 0.44008 0.0
H265 H 0.74422 0.77098 0.62285 0.0
H266 H 0.62234 0.65447 0.6117 0.0
H267 H 0.73879 0.77327 0.44874 0.0
H268 H 0.69186 0.73723 0.6225 0.0
H269 H 0.64781 0.71695 0.44602 0.0
C270 C 0.61949 0.67638 0.4792 0.0
C271 C 0.61272 0.65744 0.52527 0.0
C272 C 0.70193 0.74546 0.58444 0.0
C273 C 0.65795 0.71174 0.53217 0.0
C274 C 0.73165 0.76464 0.58473 0.0
C275 C 0.74588 0.77432 0.53598 0.0
C276 C 0.68643 0.73611 0.53482 0.0
C277 C 0.72884 0.76587 0.48731 0.0
C278 C 0.64197 0.70354 0.48252 0.0
C279 C 0.6272 0.66806 0.57499 0.0
N280 N 0.70014 0.74698 0.488 0.0
N281 N 0.64957 0.69423 0.57699 0.0
H282 H 0.36963 0.62723 0.61823 0.0
H283 H 0.25949 0.759 0.44556 0.0
H284 H 0.36287 0.62604 0.44363 0.0
H285 H 0.26671 0.76278 0.61967 0.0
H286 H 0.29428 0.70763 0.44481 0.0
H287 H 0.3288 0.67411 0.62053 0.0
C288 C 0.35944 0.63663 0.58041 0.0
C289 C 0.36999 0.62282 0.53065 0.0
C290 C 0.28818 0.71953 0.48328 0.0
C291 C 0.32332 0.6765 0.53302 0.0
C292 C 0.26831 0.74886 0.48368 0.0
C293 C 0.26047 0.76507 0.53298 0.0
C294 C 0.30037 0.7064 0.5324 0.0
C295 C 0.27242 0.75086 0.58107 0.0
C296 C 0.33616 0.66344 0.58176 0.0
C297 C 0.35577 0.63599 0.48297 0.0
N298 N 0.29195 0.72239 0.57969 0.0
N299 N 0.33335 0.66215 0.48537 0.0
H300 H 0.36527 0.33973 0.59479 0.0
H301 H 0.27593 0.19781 0.40541 0.0
H302 H 0.37778 0.33085 0.42186 0.0
H303 H 0.2558 0.21048 0.57539 0.0
H304 H 0.31931 0.24212 0.41347 0.0
H305 H 0.33101 0.28791 0.59144 0.0
C306 C 0.36116 0.32671 0.55628 0.0
C307 C 0.37406 0.3399 0.50846 0.0
C308 C 0.30562 0.23507 0.44917 0.0
C309 C 0.33491 0.28079 0.50433 0.0
C310 C 0.28102 0.2098 0.44447 0.0
C311 C 0.26234 0.20074 0.48946 0.0
C312 C 0.31145 0.2515 0.49943 0.0
C313 C 0.26962 0.21685 0.53952 0.0
C314 C 0.34152 0.29721 0.55436 0.0
C315 C 0.36799 0.32192 0.45969 0.0
N316 N 0.29349 0.24166 0.54306 0.0
N317 N 0.34871 0.29348 0.45888 0.0
H318 H 0.63037 0.37484 0.61659 0.0
H319 H 0.75834 0.25866 0.44454 0.0
H320 H 0.63363 0.37201 0.44198 0.0
H321 H 0.75356 0.25702 0.61847 0.0
H322 H 0.71517 0.30326 0.44365 0.0
H323 H 0.67773 0.33451 0.61911 0.0
C324 C 0.64103 0.36583 0.57881 0.0
C325 C 0.62776 0.37671 0.52899 0.0
C326 C 0.72361 0.29333 0.48212 0.0
C327 C 0.68202 0.33064 0.53163 0.0
C328 C 0.74832 0.26791 0.4826 0.0
C329 C 0.75933 0.25422 0.53188 0.0
C330 C 0.70976 0.30506 0.53114 0.0
C331 C 0.74554 0.26709 0.57988 0.0
C332 C 0.66809 0.34282 0.5803 0.0
C333 C 0.64279 0.36427 0.48138 0.0
N334 N 0.72133 0.29171 0.57842 0.0
N335 N 0.66897 0.34189 0.48392 0.0
H336 H 0.0019 0.04345 0.22324 0.0
H337 H 0.14471 0.15584 0.36774 0.0
H338 H 0.05325 0.12365 0.14186 0.0
H339 H 0.11872 0.05578 0.42141 0.0
H340 H 0.11103 0.1456 0.28536 0.0
H341 H 0.04223 0.04973 0.29948 0.0
C342 C 0.02157 0.06255 0.22182 0.0
C343 C 0.02462 0.08302 0.17656 0.0
C344 C 0.11306 0.12574 0.3149 0.0
C345 C 0.07058 0.09032 0.26277 0.0
C346 C 0.13257 0.13143 0.36175 0.0
C347 C 0.13424 0.10679 0.40196 0.0
C348 C 0.09473 0.09541 0.30857 0.0
C349 C 0.1175 0.07581 0.3921 0.0
C350 C 0.04474 0.06589 0.26486 0.0
C351 C 0.05057 0.10716 0.17598 0.0
N352 N 0.09804 0.07119 0.34678 0.0
N353 N 0.07253 0.11032 0.21864 0.0
H354 H 0.87303 0.05827 0.12018 0.0
H355 H 0.90803 0.10636 0.42891 0.0
H356 H 0.92566 0.99108 0.2285 0.0
H357 H 0.81433 0.13535 0.3489 0.0
H358 H 0.92314 0.07287 0.34886 0.0
H359 H 0.8591 0.09556 0.19767 0.0
C360 C 0.88183 0.05163 0.16029 0.0
C361 C 0.90057 0.02187 0.16836 0.0
C362 C 0.89935 0.08671 0.34895 0.0
C363 C 0.88517 0.0641 0.25632 0.0
C364 C 0.89056 0.10575 0.39466 0.0
C365 C 0.85945 0.1233 0.39636 0.0
C366 C 0.87732 0.08571 0.30394 0.0
C367 C 0.83859 0.12244 0.34965 0.0
C368 C 0.87372 0.07267 0.20431 0.0
C369 C 0.91096 0.01381 0.22098 0.0
N370 N 0.84788 0.10388 0.30531 0.0
N371 N 0.90338 0.03501 0.26306 0.0
H372 H 0.92425 0.90596 0.13024 0.0
H373 H 0.94077 0.82278 0.42041 0.0
H374 H 0.01937 0.89537 0.21664 0.0
H375 H 0.84575 0.85721 0.35129 0.0
H376 H 0.96979 0.84085 0.3394 0.0
H377 H 0.8951 0.8804 0.20454 0.0
C378 C 0.93908 0.89851 0.16463 0.0
C379 C 0.97425 0.90353 0.16695 0.0
C380 C 0.94257 0.84426 0.34184 0.0
C381 C 0.94105 0.87341 0.25276 0.0
C382 C 0.92599 0.83402 0.38804 0.0
C383 C 0.89085 0.839 0.3929 0.0
C384 C 0.92387 0.85941 0.30004 0.0
C385 C 0.87283 0.85286 0.3492 0.0
C386 C 0.92237 0.88367 0.20727 0.0
C387 C 0.99212 0.89236 0.21296 0.0
N388 N 0.88961 0.86284 0.30469 0.0
N389 N 0.9753 0.87791 0.25411 0.0
H390 H 0.08727 0.93866 0.14453 0.0
H391 H 0.19247 0.95423 0.42286 0.0
H392 H 0.11766 0.0335 0.22011 0.0
H393 H 0.15358 0.85914 0.35923 0.0
H394 H 0.16896 0.98283 0.34426 0.0
H395 H 0.11431 0.90835 0.21874 0.0
C396 C 0.09943 0.95316 0.17662 0.0
C397 C 0.09991 0.98871 0.17593 0.0
C398 C 0.16563 0.95569 0.34722 0.0
C399 C 0.13136 0.95417 0.26101 0.0
C400 C 0.17901 0.93934 0.39216 0.0
C401 C 0.17459 0.90431 0.39788 0.0
C402 C 0.14768 0.93693 0.30742 0.0
C403 C 0.15759 0.88618 0.35631 0.0
C404 C 0.11503 0.9358 0.21902 0.0
C405 C 0.11654 0.00608 0.21875 0.0
N406 N 0.14451 0.90276 0.31291 0.0
N407 N 0.13155 0.98865 0.25946 0.0
H408 H 0.13037 0.94585 0.87267 0.0
H409 H 0.19511 0.95765 0.56931 0.0
H410 H 0.12765 0.03784 0.78086 0.0
H411 H 0.16978 0.86286 0.64318 0.0
H412 H 0.17857 0.98776 0.65185 0.0
H413 H 0.1526 0.9154 0.79378 0.0
C414 C 0.13453 0.95965 0.836 0.0
C415 C 0.12703 0.99437 0.83328 0.0
C416 C 0.17674 0.96036 0.65006 0.0
C417 C 0.15266 0.95981 0.74311 0.0
C418 C 0.18606 0.94314 0.60291 0.0
C419 C 0.18336 0.90767 0.59901 0.0
C420 C 0.16487 0.94204 0.69394 0.0
C421 C 0.17239 0.89018 0.64443 0.0
C422 C 0.14719 0.94225 0.791 0.0
C423 C 0.13301 0.01105 0.78474 0.0
N424 N 0.16337 0.90757 0.68999 0.0
N425 N 0.1455 0.99359 0.74156 0.0
H426 H 0.05925 0.10638 0.87509 0.0
H427 H 0.07182 0.1166 0.55795 0.0
H428 H 0.98189 0.06403 0.76838 0.0
H429 H 0.16149 0.10535 0.65911 0.0
H430 H 0.03675 0.10538 0.63571 0.0
H431 H 0.09551 0.11455 0.79719 0.0
C432 C 0.04992 0.09868 0.83536 0.0
C433 C 0.01767 0.08411 0.82829 0.0
C434 C 0.06412 0.10518 0.64067 0.0
C435 C 0.05865 0.09424 0.73915 0.0
C436 C 0.08426 0.11135 0.59625 0.0
C437 C 0.11985 0.11149 0.60162 0.0
C438 C 0.0795 0.09987 0.69122 0.0
C439 C 0.13424 0.10578 0.65303 0.0
C440 C 0.07065 0.10335 0.79102 0.0
C441 C 0.00666 0.07517 0.7757 0.0
N442 N 0.11398 0.10037 0.69599 0.0
N443 N 0.02707 0.0806 0.73299 0.0
H444 H 0.92335 0.99651 0.77321 0.0
H445 H 0.80513 0.13408 0.63541 0.0
H446 H 0.84628 0.05099 0.86195 0.0
H447 H 0.90463 0.10835 0.5759 0.0
H448 H 0.8177 0.10204 0.71698 0.0
H449 H 0.91448 0.03469 0.69754 0.0
C450 C 0.90447 0.01644 0.77667 0.0
C451 C 0.88527 0.02042 0.82366 0.0
C452 C 0.83684 0.10369 0.68619 0.0
C453 C 0.87496 0.06404 0.7373 0.0
C454 C 0.82978 0.12214 0.63971 0.0
C455 C 0.85373 0.12371 0.59833 0.0
C456 C 0.86784 0.08632 0.69102 0.0
C457 C 0.88506 0.10722 0.60605 0.0
C458 C 0.89959 0.03834 0.73365 0.0
C459 C 0.86148 0.04694 0.82629 0.0
N460 N 0.89105 0.08892 0.65115 0.0
N461 N 0.85674 0.06758 0.78343 0.0
H462 H 0.9327 0.89668 0.87035 0.0
H463 H 0.94295 0.83162 0.56656 0.0
H464 H 0.01927 0.91634 0.77098 0.0
H465 H 0.84766 0.86261 0.63655 0.0
H466 H 0.97256 0.85272 0.64769 0.0
H467 H 0.90203 0.87472 0.7905 0.0
C468 C 0.94516 0.89659 0.83176 0.0
C469 C 0.9784 0.90871 0.82721 0.0
C470 C 0.94516 0.85483 0.64513 0.0
C471 C 0.94394 0.88277 0.73635 0.0
C472 C 0.92821 0.84293 0.59884 0.0
C473 C 0.89273 0.84577 0.59429 0.0
C474 C 0.92652 0.86907 0.68767 0.0
C475 C 0.87496 0.85966 0.63833 0.0
C476 C 0.92768 0.88401 0.78633 0.0
C477 C 0.99358 0.90747 0.77626 0.0
N478 N 0.89208 0.8708 0.68331 0.0
N479 N 0.97628 0.89447 0.73278 0.0
H480 H 0.55666 0.61546 0.65335 0.0
H481 H 0.62374 0.55537 0.94313 0.0
H482 H 0.51127 0.53374 0.73964 0.0
H483 H 0.64219 0.655 0.8805 0.0
H484 H 0.59188 0.54085 0.86012 0.0
H485 H 0.59718 0.62423 0.72847 0.0
C486 C 0.55555 0.59919 0.68802 0.0
C487 C 0.53088 0.57383 0.69053 0.0
C488 C 0.60321 0.56576 0.86451 0.0
C489 C 0.57675 0.58368 0.77646 0.0
C490 C 0.62138 0.5741 0.91182 0.0
C491 C 0.6353 0.60667 0.91929 0.0
C492 C 0.59912 0.59005 0.8242 0.0
C493 C 0.63213 0.62955 0.87664 0.0
C494 C 0.57848 0.60427 0.73089 0.0
C495 C 0.52985 0.55376 0.73662 0.0
N496 N 0.61415 0.6209 0.83116 0.0
N497 N 0.55258 0.55906 0.77787 0.0
H498 H 0.36077 0.46624 0.71213 0.0
H499 H 0.34186 0.6459 0.86535 0.0
H500 H 0.41062 0.55743 0.66248 0.0
H501 H 0.29872 0.55277 0.92136 0.0
H502 H 0.36182 0.61543 0.78444 0.0
H503 H 0.33368 0.49865 0.78452 0.0
C504 C 0.36591 0.49315 0.71605 0.0
C505 C 0.38796 0.50917 0.68056 0.0
C506 C 0.34772 0.60174 0.81424 0.0
C507 C 0.35681 0.54655 0.76348 0.0
C508 C 0.3361 0.61919 0.86009 0.0
C509 C 0.31897 0.6017 0.9002 0.0
C510 C 0.34204 0.56665 0.8086 0.0
C511 C 0.31233 0.56705 0.8917 0.0
C512 C 0.35036 0.51166 0.75743 0.0
C513 C 0.39371 0.54403 0.6881 0.0
N514 N 0.32409 0.55061 0.84707 0.0
N515 N 0.37828 0.56155 0.72868 0.0
H516 H 0.48466 0.46337 0.73439 0.0
H517 H 0.34059 0.35169 0.86386 0.0
H518 H 0.43361 0.38201 0.64779 0.0
H519 H 0.37231 0.44831 0.93221 0.0
H520 H 0.37323 0.36304 0.78345 0.0
H521 H 0.44414 0.45808 0.80809 0.0
C522 C 0.46498 0.44427 0.73123 0.0
C523 C 0.46226 0.42303 0.68534 0.0
C524 C 0.37273 0.38196 0.81575 0.0
C525 C 0.41605 0.41682 0.76883 0.0
C526 C 0.35379 0.37565 0.86159 0.0
C527 C 0.35391 0.39892 0.9053 0.0
C528 C 0.39234 0.41155 0.81374 0.0
C529 C 0.37208 0.42928 0.90009 0.0
C530 C 0.44171 0.44147 0.77288 0.0
C531 C 0.43624 0.39894 0.68254 0.0
N532 N 0.39093 0.43452 0.85548 0.0
N533 N 0.41421 0.39632 0.72391 0.0
H534 H 0.58128 0.43863 0.66238 0.0
H535 H 0.70084 0.45366 0.92416 0.0
H536 H 0.63423 0.53004 0.71106 0.0
H537 H 0.65646 0.35943 0.86745 0.0
H538 H 0.67972 0.48108 0.84258 0.0
H539 H 0.61083 0.40829 0.73371 0.0
C540 C 0.59933 0.45229 0.68742 0.0
C541 C 0.60537 0.48687 0.67998 0.0
C542 C 0.67491 0.45431 0.84752 0.0
C543 C 0.63909 0.4524 0.76287 0.0
C544 C 0.68697 0.43869 0.89405 0.0
C545 C 0.68009 0.40436 0.90258 0.0
C546 C 0.65557 0.43554 0.80941 0.0
C547 C 0.66235 0.38594 0.86222 0.0
C548 C 0.61622 0.43492 0.72845 0.0
C549 C 0.62877 0.50331 0.71492 0.0
N550 N 0.6503 0.40189 0.81757 0.0
N551 N 0.64462 0.48598 0.75494 0.0
H552 H 0.57413 0.44863 0.34076 0.0
H553 H 0.68998 0.46018 0.07935 0.0
H554 H 0.61613 0.54225 0.28439 0.0
H555 H 0.6498 0.3665 0.13867 0.0
H556 H 0.66421 0.49065 0.15527 0.0
H557 H 0.60178 0.41815 0.26698 0.0
C558 C 0.58887 0.46283 0.31251 0.0
C559 C 0.59266 0.49803 0.31853 0.0
C560 C 0.66119 0.46341 0.15189 0.0
C561 C 0.6249 0.46325 0.23438 0.0
C562 C 0.67585 0.44603 0.10857 0.0
C563 C 0.67184 0.4108 0.10263 0.0
C564 C 0.64228 0.44544 0.18947 0.0
C565 C 0.65372 0.39362 0.14199 0.0
C566 C 0.60491 0.44537 0.27061 0.0
C567 C 0.61258 0.51508 0.28123 0.0
N568 N 0.63941 0.41115 0.18358 0.0
N569 N 0.62797 0.4975 0.24068 0.0
H570 H 0.48886 0.55487 0.29063 0.0
H571 H 0.66306 0.61964 0.17752 0.0
H572 H 0.55165 0.62432 0.38469 0.0
H573 H 0.57292 0.61262 0.07582 0.0
H574 H 0.62784 0.60969 0.25647 0.0
H575 H 0.52524 0.56371 0.2127 0.0
C576 C 0.51028 0.57192 0.29499 0.0
C577 C 0.51735 0.58877 0.3444 0.0
C578 C 0.61606 0.61022 0.2166 0.0
C579 C 0.55917 0.59835 0.25592 0.0
C580 C 0.63602 0.61607 0.17152 0.0
C581 C 0.62116 0.61685 0.11945 0.0
C582 C 0.58118 0.60442 0.20947 0.0
C583 C 0.58593 0.61135 0.11457 0.0
C584 C 0.53096 0.57688 0.25059 0.0
C585 C 0.54547 0.61057 0.34762 0.0
N586 N 0.56724 0.60513 0.15889 0.0
N587 N 0.56559 0.61452 0.30408 0.0
H588 H 0.37522 0.46158 0.27619 0.0
H589 H 0.34287 0.64259 0.14445 0.0
H590 H 0.39188 0.55666 0.36203 0.0
H591 H 0.30891 0.54811 0.07124 0.0
H592 H 0.36297 0.61157 0.22341 0.0
H593 H 0.3539 0.49287 0.19833 0.0
C594 C 0.3744 0.48902 0.27865 0.0
C595 C 0.38514 0.50655 0.32573 0.0
C596 C 0.35101 0.59766 0.19011 0.0
C597 C 0.36081 0.54246 0.23694 0.0
C598 C 0.33933 0.61538 0.14521 0.0
C599 C 0.32433 0.5979 0.10107 0.0
C600 C 0.3478 0.56221 0.19077 0.0
C601 C 0.32085 0.56256 0.10395 0.0
C602 C 0.36214 0.50687 0.23427 0.0
C603 C 0.38369 0.54212 0.32662 0.0
N604 N 0.33263 0.54587 0.14791 0.0
N605 N 0.37174 0.55891 0.28285 0.0
H606 H 0.43171 0.37735 0.38 0.0
H607 H 0.41616 0.38417 0.06294 0.0
H608 H 0.50423 0.43218 0.28648 0.0
H609 H 0.32664 0.39052 0.16162 0.0
H610 H 0.45132 0.39198 0.14398 0.0
H611 H 0.39512 0.37167 0.29942 0.0
C612 C 0.43984 0.38836 0.34271 0.0
C613 C 0.47073 0.40584 0.34029 0.0
C614 C 0.42396 0.39181 0.14766 0.0
C615 C 0.42968 0.39837 0.24784 0.0
C616 C 0.40373 0.38763 0.10138 0.0
C617 C 0.36813 0.38718 0.10501 0.0
C618 C 0.40868 0.39465 0.19825 0.0
C619 C 0.35388 0.39039 0.15666 0.0
C620 C 0.419 0.38504 0.29683 0.0
C621 C 0.48051 0.41871 0.29035 0.0
N622 N 0.37423 0.39379 0.20137 0.0
N623 N 0.46011 0.41455 0.24594 0.0
loop_
_geom_bond_atom_site_label_1
_geom_bond_atom_site_label_2
_geom_bond_distance
_geom_bond_site_symmetry_2
_ccdc_geom_bond_type
Zn0 O2 1.933 1_556 S
Zn0 O20 1.985 . S
Zn0 O31 1.955 . S
Zn1 O2 1.911 . S
Zn1 O21 1.970 . S
Zn1 O37 1.945 . S
Zn1 O44 1.981 . S
O2 Zn0 1.933 1_554 S
O2 Zn1 1.911 . S
O2 H3 0.841 1_655 S
H3 O2 0.841 1_455 S
C4 O5 1.246 . S
C4 O33 1.276 1_545 S
O5 C4 1.246 . S
Zn6 O8 1.911 . S
Zn6 O23 1.970 . S
Zn6 O40 1.945 . S
Zn6 O47 1.981 . S
Zn7 O8 1.933 1_556 S
Zn7 O22 1.985 . S
Zn7 O29 1.955 . S
O8 Zn6 1.911 . S
O8 Zn7 1.933 1_554 S
O8 H9 0.841 1_455 S
H9 O8 0.841 1_655 S
Zn10 O11 1.933 1_556 S
Zn10 O24 1.985 . S
Zn10 O33 1.955 . S
O11 Zn10 1.933 1_554 S
O11 Zn12 1.911 . S
O11 H13 0.841 1_565 S
Zn12 O11 1.911 . S
Zn12 O25 1.970 . S
Zn12 O41 1.981 . S
Zn12 O43 1.945 . S
H13 O11 0.841 1_545 S
Zn14 O15 1.933 1_556 S
Zn14 O27 1.985 . S
Zn14 O35 1.955 . S
O15 Zn14 1.933 1_554 S
O15 H16 0.841 1_545 S
O15 Zn17 1.911 . S
H16 O15 0.841 1_565 S
Zn17 O15 1.911 . S
Zn17 O28 1.970 . S
Zn17 O38 1.981 . S
Zn17 O46 1.945 . S
C18 O19 1.246 . S
C18 O35 1.276 1_565 S
O19 C18 1.246 . S
O20 Zn0 1.985 . S
O20 C30 1.245 1_556 S
O21 Zn1 1.970 . S
O21 C30 1.263 . S
O22 Zn7 1.985 . S
O22 C34 1.245 1_556 S
O23 Zn6 1.970 . S
O23 C34 1.263 . S
O24 Zn10 1.985 . S
O24 C39 1.245 1_556 S
O25 Zn12 1.970 . S
O25 C39 1.263 . S
C26 O37 1.262 1_455 S
C26 O38 1.245 . S
O27 Zn14 1.985 . S
O27 C45 1.245 1_556 S
O28 Zn17 1.970 . S
O28 C45 1.263 . S
O29 Zn7 1.955 . S
O29 C48 1.276 1_455 S
C30 O20 1.245 1_554 S
C30 O21 1.263 . S
O31 Zn0 1.955 . S
O31 C50 1.276 1_655 S
C32 O40 1.262 1_655 S
C32 O41 1.245 . S
O33 C4 1.276 1_565 S
O33 Zn10 1.955 . S
C34 O22 1.245 1_554 S
C34 O23 1.263 . S
O35 Zn14 1.955 . S
O35 C18 1.276 1_545 S
C36 O43 1.262 1_545 S
C36 O44 1.245 . S
O37 Zn1 1.945 . S
O37 C26 1.262 1_655 S
O38 Zn17 1.981 . S
O38 C26 1.245 . S
C39 O24 1.245 1_554 S
C39 O25 1.263 . S
O40 Zn6 1.945 . S
O40 C32 1.262 1_455 S
O41 Zn12 1.981 . S
O41 C32 1.245 . S
C42 O46 1.262 1_565 S
C42 O47 1.245 . S
O43 Zn12 1.945 . S
O43 C36 1.262 1_565 S
O44 Zn1 1.981 . S
O44 C36 1.245 . S
C45 O27 1.245 1_554 S
C45 O28 1.263 . S
O46 Zn17 1.945 . S
O46 C42 1.262 1_545 S
O47 Zn6 1.981 . S
O47 C42 1.245 . S
C48 O29 1.276 1_655 S
C48 O49 1.246 . S
O49 C48 1.246 . S
C50 O31 1.276 1_455 S
C50 O51 1.246 . S
O51 C50 1.246 . S
Zn52 O54 1.933 . S
Zn52 O72 1.985 . S
Zn52 O83 1.955 . S
Zn53 O54 1.911 . S
Zn53 O73 1.970 . S
Zn53 O89 1.945 . S
Zn53 O96 1.981 . S
O54 Zn52 1.933 . S
O54 Zn53 1.911 . S
O54 H55 0.841 . S
H55 O54 0.841 . S
C56 O57 1.246 . S
C56 O85 1.276 . S
O57 C56 1.246 . S
Zn58 O60 1.911 . S
Zn58 O75 1.970 . S
Zn58 O92 1.945 . S
Zn58 O99 1.981 . S
Zn59 O60 1.933 . S
Zn59 O74 1.985 . S
Zn59 O81 1.955 . S
O60 Zn58 1.911 . S
O60 Zn59 1.933 . S
O60 H61 0.841 . S
H61 O60 0.841 . S
Zn62 O63 1.933 . S
Zn62 O76 1.985 . S
Zn62 O85 1.955 . S
O63 Zn62 1.933 . S
O63 Zn64 1.911 . S
O63 H65 0.841 . S
Zn64 O63 1.911 . S
Zn64 O77 1.970 . S
Zn64 O93 1.981 . S
Zn64 O95 1.945 . S
H65 O63 0.841 . S
Zn66 O67 1.933 . S
Zn66 O79 1.985 . S
Zn66 O87 1.955 . S
O67 Zn66 1.933 . S
O67 H68 0.841 . S
O67 Zn69 1.911 . S
H68 O67 0.841 . S
Zn69 O67 1.911 . S
Zn69 O80 1.970 . S
Zn69 O90 1.981 . S
Zn69 O98 1.945 . S
C70 O71 1.246 . S
C70 O87 1.276 . S
O71 C70 1.246 . S
O72 Zn52 1.985 . S
O72 C82 1.245 . S
O73 Zn53 1.970 . S
O73 C82 1.263 . S
O74 Zn59 1.985 . S
O74 C86 1.245 . S
O75 Zn58 1.970 . S
O75 C86 1.263 . S
O76 Zn62 1.985 . S
O76 C91 1.245 . S
O77 Zn64 1.970 . S
O77 C91 1.263 . S
C78 O89 1.262 . S
C78 O90 1.245 . S
O79 Zn66 1.985 . S
O79 C97 1.245 . S
O80 Zn69 1.970 . S
O80 C97 1.263 . S
O81 Zn59 1.955 . S
O81 C100 1.276 . S
C82 O72 1.245 . S
C82 O73 1.263 . S
O83 Zn52 1.955 . S
O83 C102 1.276 . S
C84 O92 1.262 . S
C84 O93 1.245 . S
O85 C56 1.276 . S
O85 Zn62 1.955 . S
C86 O74 1.245 . S
C86 O75 1.263 . S
O87 Zn66 1.955 . S
O87 C70 1.276 . S
C88 O95 1.262 . S
C88 O96 1.245 . S
O89 Zn53 1.945 . S
O89 C78 1.262 . S
O90 Zn69 1.981 . S
O90 C78 1.245 . S
C91 O76 1.245 . S
C91 O77 1.263 . S
O92 Zn58 1.945 . S
O92 C84 1.262 . S
O93 Zn64 1.981 . S
O93 C84 1.245 . S
C94 O98 1.262 . S
C94 O99 1.245 . S
O95 Zn64 1.945 . S
O95 C88 1.262 . S
O96 Zn53 1.981 . S
O96 C88 1.245 . S
C97 O79 1.245 . S
C97 O80 1.263 . S
O98 Zn69 1.945 . S
O98 C94 1.262 . S
O99 Zn58 1.981 . S
O99 C94 1.245 . S
C100 O81 1.276 . S
C100 O101 1.246 . S
O101 C100 1.246 . S
C102 O83 1.276 . S
C102 O103 1.246 . S
O103 C102 1.246 . S
H104 C109 0.929 . S
H105 C114 0.931 . S
H106 C112 0.930 . S
N107 N108 1.234 1_556 S
N107 C111 1.455 . S
N108 N107 1.234 1_554 S
C109 H104 0.929 . S
C109 C110 1.373 . S
C109 C111 1.376 . S
C110 C109 1.373 . S
C110 C114 1.397 1_556 S
C111 N107 1.455 . S
C111 C109 1.376 . S
C111 C112 1.364 1_556 S
C112 H106 0.930 . S
C112 C111 1.364 1_554 S
C112 C113 1.371 . S
C113 C112 1.371 . S
C113 C114 1.383 . S
C114 H105 0.931 . S
C114 C110 1.397 1_554 S
C114 C113 1.383 . S
H115 C120 0.929 . S
H116 C125 0.931 . S
H117 C123 0.930 . S
N118 N119 1.234 . S
N118 C122 1.453 . S
N119 N118 1.234 . S
C120 H115 0.929 . S
C120 C121 1.373 . S
C120 C122 1.368 . S
C121 C120 1.373 . S
C121 C125 1.397 . S
C122 N118 1.453 . S
C122 C120 1.368 . S
C122 C123 1.373 1_554 S
C123 H117 0.930 . S
C123 C122 1.373 1_556 S
C123 C124 1.371 . S
C124 C123 1.371 . S
C124 C125 1.383 1_556 S
C125 H116 0.931 . S
C125 C121 1.397 . S
C125 C124 1.383 1_554 S
H126 C131 0.929 . S
H127 C136 0.931 . S
H128 C134 0.930 . S
N129 N130 1.234 . S
N129 C133 1.453 . S
N130 N129 1.234 . S
C131 H126 0.929 . S
C131 C132 1.373 . S
C131 C133 1.368 . S
C132 C131 1.373 . S
C132 C136 1.397 . S
C133 N129 1.453 . S
C133 C131 1.368 . S
C133 C134 1.373 1_554 S
C134 H128 0.930 . S
C134 C133 1.373 1_556 S
C134 C135 1.371 . S
C135 C134 1.371 . S
C135 C136 1.383 1_556 S
C136 H127 0.931 . S
C136 C132 1.397 . S
C136 C135 1.383 1_554 S
H137 C142 0.929 . S
H138 C147 0.931 . S
H139 C145 0.930 . S
N140 N141 1.234 1_554 S
N140 C144 1.453 . S
N141 N140 1.234 1_556 S
C142 H137 0.929 . S
C142 C143 1.373 . S
C142 C144 1.368 . S
C143 C142 1.373 . S
C143 C147 1.397 . S
C144 N140 1.453 . S
C144 C142 1.368 . S
C144 C145 1.373 1_554 S
C145 H139 0.930 . S
C145 C144 1.373 1_556 S
C145 C146 1.371 . S
C146 C145 1.371 . S
C146 C147 1.383 1_556 S
C147 H138 0.931 . S
C147 C143 1.397 . S
C147 C146 1.383 1_554 S
H148 C153 0.929 . S
H149 C158 0.931 . S
H150 C156 0.930 . S
N151 N152 1.234 . S
N151 C155 1.453 . S
N152 N151 1.234 . S
C153 H148 0.929 . S
C153 C154 1.373 . S
C153 C155 1.368 . S
C154 C153 1.373 . S
C154 C158 1.397 . S
C155 N151 1.453 . S
C155 C153 1.368 . S
C155 C156 1.373 . S
C156 H150 0.930 . S
C156 C155 1.373 . S
C156 C157 1.371 . S
C157 C156 1.371 . S
C157 C158 1.383 . S
C158 H149 0.931 . S
C158 C154 1.397 . S
C158 C157 1.383 . S
H159 C164 0.929 . S
H160 C169 0.931 . S
H161 C167 0.930 . S
N162 N163 1.234 . S
N162 C166 1.453 . S
N163 N162 1.234 . S
C164 H159 0.929 . S
C164 C165 1.373 . S
C164 C166 1.368 . S
C165 C164 1.373 . S
C165 C169 1.397 . S
C166 N162 1.453 . S
C166 C164 1.368 . S
C166 C167 1.373 . S
C167 H161 0.930 . S
C167 C166 1.373 . S
C167 C168 1.371 . S
C168 C167 1.371 . S
C168 C169 1.383 . S
C169 H160 0.931 . S
C169 C165 1.397 . S
C169 C168 1.383 . S
H170 C175 0.929 . S
H171 C180 0.931 . S
H172 C178 0.930 . S
N173 N174 1.234 . S
N173 C177 1.453 . S
N174 N173 1.234 . S
C175 H170 0.929 . S
C175 C176 1.373 . S
C175 C177 1.368 . S
C176 C175 1.373 . S
C176 C180 1.397 . S
C177 N173 1.453 . S
C177 C175 1.368 . S
C177 C178 1.373 . S
C178 H172 0.930 . S
C178 C177 1.373 . S
C178 C179 1.371 . S
C179 C178 1.371 . S
C179 C180 1.383 . S
C180 H171 0.931 . S
C180 C176 1.397 . S
C180 C179 1.383 . S
H181 C186 0.929 . S
H182 C191 0.931 . S
H183 C189 0.930 . S
N184 N185 1.234 . S
N184 C188 1.453 . S
N185 N184 1.234 . S
C186 H181 0.929 . S
C186 C187 1.373 . S
C186 C188 1.368 . S
C187 C186 1.373 . S
C187 C191 1.397 . S
C188 N184 1.453 . S
C188 C186 1.368 . S
C188 C189 1.373 . S
C189 H183 0.930 . S
C189 C188 1.373 . S
C189 C190 1.371 . S
C190 C189 1.371 . S
C190 C191 1.383 . S
C191 H182 0.931 . S
C191 C187 1.397 . S
C191 C190 1.383 . S
H192 C198 0.930 . S
H193 C202 0.930 . S
H194 C207 0.929 . S
H195 C205 0.929 . S
H196 C200 0.929 . S
H197 C206 0.929 . S
C198 H192 0.930 . S
C198 C199 1.367 . S
C198 C206 1.378 . S
C199 C198 1.367 . S
C199 C207 1.433 1_554 S
C200 H196 0.929 . S
C200 C202 1.378 . S
C200 C204 1.350 1_556 S
C201 C204 1.463 . S
C201 C206 1.350 . S
C201 N209 1.427 1_554 S
C202 H193 0.930 . S
C202 C200 1.378 . S
C202 C203 1.367 1_556 S
C203 C202 1.367 1_554 S
C203 C205 1.433 . S
C204 C200 1.350 1_554 S
C204 C201 1.463 . S
C204 N208 1.427 . S
C205 H195 0.929 . S
C205 C203 1.433 . S
C205 N208 1.384 . S
C206 H197 0.929 . S
C206 C198 1.378 . S
C206 C201 1.350 . S
C207 H194 0.929 . S
C207 C199 1.433 1_556 S
C207 N209 1.384 . S
N208 C204 1.427 . S
N208 C205 1.384 . S
N209 C201 1.427 1_556 S
N209 C207 1.384 . S
H210 C216 0.930 . S
H211 C220 0.930 . S
H212 C225 0.929 . S
H213 C223 0.929 . S
H214 C218 0.929 . S
H215 C224 0.929 . S
C216 H210 0.930 . S
C216 C217 1.367 . S
C216 C224 1.378 . S
C217 C216 1.367 . S
C217 C225 1.433 . S
C218 H214 0.929 . S
C218 C220 1.378 . S
C218 C222 1.350 . S
C219 C222 1.463 . S
C219 C224 1.350 . S
C219 N227 1.427 . S
C220 H211 0.930 . S
C220 C218 1.378 . S
C220 C221 1.367 . S
C221 C220 1.367 . S
C221 C223 1.433 . S
C222 C218 1.350 . S
C222 C219 1.463 . S
C222 N226 1.427 . S
C223 H213 0.929 . S
C223 C221 1.433 . S
C223 N226 1.384 . S
C224 H215 0.929 . S
C224 C216 1.378 . S
C224 C219 1.350 . S
C225 H212 0.929 . S
C225 C217 1.433 . S
C225 N227 1.384 . S
N226 C222 1.427 . S
N226 C223 1.384 . S
N227 C219 1.427 . S
N227 C225 1.384 . S
H228 C234 0.930 . S
H229 C238 0.930 . S
H230 C243 0.929 . S
H231 C241 0.929 . S
H232 C236 0.929 . S
H233 C242 0.929 . S
C234 H228 0.930 . S
C234 C235 1.367 . S
C234 C242 1.378 . S
C235 C234 1.367 . S
C235 C243 1.433 1_554 S
C236 H232 0.929 . S
C236 C238 1.378 . S
C236 C240 1.350 1_556 S
C237 C240 1.463 . S
C237 C242 1.350 . S
C237 N245 1.427 1_554 S
C238 H229 0.930 . S
C238 C236 1.378 . S
C238 C239 1.367 1_556 S
C239 C238 1.367 1_554 S
C239 C241 1.433 . S
C240 C236 1.350 1_554 S
C240 C237 1.463 . S
C240 N244 1.427 . S
C241 H231 0.929 . S
C241 C239 1.433 . S
C241 N244 1.384 . S
C242 H233 0.929 . S
C242 C234 1.378 . S
C242 C237 1.350 . S
C243 H230 0.929 . S
C243 C235 1.433 1_556 S
C243 N245 1.384 . S
N244 C240 1.427 . S
N244 C241 1.384 . S
N245 C237 1.427 1_556 S
N245 C243 1.384 . S
H246 C252 0.930 . S
H247 C256 0.930 . S
H248 C261 0.929 . S
H249 C259 0.929 . S
H250 C254 0.929 . S
H251 C260 0.929 . S
C252 H246 0.930 . S
C252 C253 1.367 1_556 S
C252 C260 1.378 . S
C253 C252 1.367 1_554 S
C253 C261 1.433 . S
C254 H250 0.929 . S
C254 C256 1.378 . S
C254 C258 1.350 . S
C255 C258 1.463 . S
C255 C260 1.350 1_554 S
C255 N263 1.427 . S
C256 H247 0.930 . S
C256 C254 1.378 . S
C256 C257 1.367 . S
C257 C256 1.367 . S
C257 C259 1.433 1_554 S
C258 C254 1.350 . S
C258 C255 1.463 . S
C258 N262 1.427 1_554 S
C259 H249 0.929 . S
C259 C257 1.433 1_556 S
C259 N262 1.384 . S
C260 H251 0.929 . S
C260 C252 1.378 . S
C260 C255 1.350 1_556 S
C261 H248 0.929 . S
C261 C253 1.433 . S
C261 N263 1.384 . S
N262 C258 1.427 1_556 S
N262 C259 1.384 . S
N263 C255 1.427 . S
N263 C261 1.384 . S
H264 C270 0.930 . S
H265 C274 0.930 . S
H266 C279 0.929 . S
H267 C277 0.929 . S
H268 C272 0.929 . S
H269 C278 0.929 . S
C270 H264 0.930 . S
C270 C271 1.367 . S
C270 C278 1.378 . S
C271 C270 1.367 . S
C271 C279 1.433 . S
C272 H268 0.929 . S
C272 C274 1.378 . S
C272 C276 1.350 . S
C273 C276 1.463 . S
C273 C278 1.350 . S
C273 N281 1.427 . S
C274 H265 0.930 . S
C274 C272 1.378 . S
C274 C275 1.367 . S
C275 C274 1.367 . S
C275 C277 1.433 . S
C276 C272 1.350 . S
C276 C273 1.463 . S
C276 N280 1.427 . S
C277 H267 0.929 . S
C277 C275 1.433 . S
C277 N280 1.384 . S
C278 H269 0.929 . S
C278 C270 1.378 . S
C278 C273 1.350 . S
C279 H266 0.929 . S
C279 C271 1.433 . S
C279 N281 1.384 . S
N280 C276 1.427 . S
N280 C277 1.384 . S
N281 C273 1.427 . S
N281 C279 1.384 . S
H282 C288 0.930 . S
H283 C292 0.930 . S
H284 C297 0.929 . S
H285 C295 0.929 . S
H286 C290 0.929 . S
H287 C296 0.929 . S
C288 H282 0.930 . S
C288 C289 1.367 . S
C288 C296 1.378 . S
C289 C288 1.367 . S
C289 C297 1.433 . S
C290 H286 0.929 . S
C290 C292 1.378 . S
C290 C294 1.350 . S
C291 C294 1.463 . S
C291 C296 1.350 . S
C291 N299 1.427 . S
C292 H283 0.930 . S
C292 C290 1.378 . S
C292 C293 1.367 . S
C293 C292 1.367 . S
C293 C295 1.433 . S
C294 C290 1.350 . S
C294 C291 1.463 . S
C294 N298 1.427 . S
C295 H285 0.929 . S
C295 C293 1.433 . S
C295 N298 1.384 . S
C296 H287 0.929 . S
C296 C288 1.378 . S
C296 C291 1.350 . S
C297 H284 0.929 . S
C297 C289 1.433 . S
C297 N299 1.384 . S
N298 C294 1.427 . S
N298 C295 1.384 . S
N299 C291 1.427 . S
N299 C297 1.384 . S
H300 C306 0.930 . S
H301 C310 0.930 . S
H302 C315 0.929 . S
H303 C313 0.929 . S
H304 C308 0.929 . S
H305 C314 0.929 . S
C306 H300 0.930 . S
C306 C307 1.367 . S
C306 C314 1.378 . S
C307 C306 1.367 . S
C307 C315 1.433 . S
C308 H304 0.929 . S
C308 C310 1.378 . S
C308 C312 1.350 . S
C309 C312 1.463 . S
C309 C314 1.350 . S
C309 N317 1.427 . S
C310 H301 0.930 . S
C310 C308 1.378 . S
C310 C311 1.367 . S
C311 C310 1.367 . S
C311 C313 1.433 . S
C312 C308 1.350 . S
C312 C309 1.463 . S
C312 N316 1.427 . S
C313 H303 0.929 . S
C313 C311 1.433 . S
C313 N316 1.384 . S
C314 H305 0.929 . S
C314 C306 1.378 . S
C314 C309 1.350 . S
C315 H302 0.929 . S
C315 C307 1.433 . S
C315 N317 1.384 . S
N316 C312 1.427 . S
N316 C313 1.384 . S
N317 C309 1.427 . S
N317 C315 1.384 . S
H318 C324 0.930 . S
H319 C328 0.930 . S
H320 C333 0.929 . S
H321 C331 0.929 . S
H322 C326 0.929 . S
H323 C332 0.929 . S
C324 H318 0.930 . S
C324 C325 1.367 . S
C324 C332 1.378 . S
C325 C324 1.367 . S
C325 C333 1.433 . S
C326 H322 0.929 . S
C326 C328 1.378 . S
C326 C330 1.350 . S
C327 C330 1.463 . S
C327 C332 1.350 . S
C327 N335 1.427 . S
C328 H319 0.930 . S
C328 C326 1.378 . S
C328 C329 1.367 . S
C329 C328 1.367 . S
C329 C331 1.433 . S
C330 C326 1.350 . S
C330 C327 1.463 . S
C330 N334 1.427 . S
C331 H321 0.929 . S
C331 C329 1.433 . S
C331 N334 1.384 . S
C332 H323 0.929 . S
C332 C324 1.378 . S
C332 C327 1.350 . S
C333 H320 0.929 . S
C333 C325 1.433 . S
C333 N335 1.384 . S
N334 C330 1.427 . S
N334 C331 1.384 . S
N335 C327 1.427 . S
N335 C333 1.384 . S
H336 C342 0.930 . S
H337 C346 0.930 . S
H338 C351 0.929 . S
H339 C349 0.929 . S
H340 C344 0.929 . S
H341 C350 0.929 . S
C342 H336 0.930 . S
C342 C343 1.367 . S
C342 C350 1.378 . S
C343 C342 1.367 . S
C343 C351 1.433 . S
C344 H340 0.929 . S
C344 C346 1.378 . S
C344 C348 1.350 . S
C345 C348 1.463 . S
C345 C350 1.350 . S
C345 N353 1.427 . S
C346 H337 0.930 . S
C346 C344 1.378 . S
C346 C347 1.367 . S
C347 C346 1.367 . S
C347 C349 1.433 . S
C348 C344 1.350 . S
C348 C345 1.463 . S
C348 N352 1.427 . S
C349 H339 0.929 . S
C349 C347 1.433 . S
C349 N352 1.384 . S
C350 H341 0.929 . S
C350 C342 1.378 . S
C350 C345 1.350 . S
C351 H338 0.929 . S
C351 C343 1.433 . S
C351 N353 1.384 . S
N352 C348 1.427 . S
N352 C349 1.384 . S
N353 C345 1.427 . S
N353 C351 1.384 . S
H354 C360 0.930 . S
H355 C364 0.930 . S
H356 C369 0.929 . S
H357 C367 0.929 . S
H358 C362 0.929 . S
H359 C368 0.929 . S
C360 H354 0.930 . S
C360 C361 1.367 . S
C360 C368 1.378 . S
C361 C360 1.367 . S
C361 C369 1.433 . S
C362 H358 0.929 . S
C362 C364 1.378 . S
C362 C366 1.350 . S
C363 C366 1.463 . S
C363 C368 1.350 . S
C363 N371 1.427 . S
C364 H355 0.930 . S
C364 C362 1.378 . S
C364 C365 1.367 . S
C365 C364 1.367 . S
C365 C367 1.433 . S
C366 C362 1.350 . S
C366 C363 1.463 . S
C366 N370 1.427 . S
C367 H357 0.929 . S
C367 C365 1.433 . S
C367 N370 1.384 . S
C368 H359 0.929 . S
C368 C360 1.378 . S
C368 C363 1.350 . S
C369 H356 0.929 . S
C369 C361 1.433 . S
C369 N371 1.384 . S
N370 C366 1.427 . S
N370 C367 1.384 . S
N371 C363 1.427 . S
N371 C369 1.384 . S
H372 C378 0.930 . S
H373 C382 0.930 . S
H374 C387 0.929 1_455 S
H375 C385 0.929 . S
H376 C380 0.929 . S
H377 C386 0.929 . S
C378 H372 0.930 . S
C378 C379 1.367 . S
C378 C386 1.378 . S
C379 C378 1.367 . S
C379 C387 1.433 . S
C380 H376 0.929 . S
C380 C382 1.378 . S
C380 C384 1.350 . S
C381 C384 1.463 . S
C381 C386 1.350 . S
C381 N389 1.427 . S
C382 H373 0.930 . S
C382 C380 1.378 . S
C382 C383 1.367 . S
C383 C382 1.367 . S
C383 C385 1.433 . S
C384 C380 1.350 . S
C384 C381 1.463 . S
C384 N388 1.427 . S
C385 H375 0.929 . S
C385 C383 1.433 . S
C385 N388 1.384 . S
C386 H377 0.929 . S
C386 C378 1.378 . S
C386 C381 1.350 . S
C387 H374 0.929 1_655 S
C387 C379 1.433 . S
C387 N389 1.384 . S
N388 C384 1.427 . S
N388 C385 1.384 . S
N389 C381 1.427 . S
N389 C387 1.384 . S
H390 C396 0.930 . S
H391 C400 0.930 . S
H392 C405 0.929 1_545 S
H393 C403 0.929 . S
H394 C398 0.929 . S
H395 C404 0.929 . S
C396 H390 0.930 . S
C396 C397 1.367 . S
C396 C404 1.378 . S
C397 C396 1.367 . S
C397 C405 1.433 . S
C398 H394 0.929 . S
C398 C400 1.378 . S
C398 C402 1.350 . S
C399 C402 1.463 . S
C399 C404 1.350 . S
C399 N407 1.427 . S
C400 H391 0.930 . S
C400 C398 1.378 . S
C400 C401 1.367 . S
C401 C400 1.367 . S
C401 C403 1.433 . S
C402 C398 1.350 . S
C402 C399 1.463 . S
C402 N406 1.427 . S
C403 H393 0.929 . S
C403 C401 1.433 . S
C403 N406 1.384 . S
C404 H395 0.929 . S
C404 C396 1.378 . S
C404 C399 1.350 . S
C405 H392 0.929 1_565 S
C405 C397 1.433 . S
C405 N407 1.384 . S
N406 C402 1.427 . S
N406 C403 1.384 . S
N407 C399 1.427 . S
N407 C405 1.384 . S
H408 C414 0.930 . S
H409 C418 0.930 . S
H410 C423 0.929 1_545 S
H411 C421 0.929 . S
H412 C416 0.929 . S
H413 C422 0.929 . S
C414 H408 0.930 . S
C414 C415 1.367 . S
C414 C422 1.378 . S
C415 C414 1.367 . S
C415 C423 1.433 . S
C416 H412 0.929 . S
C416 C418 1.378 . S
C416 C420 1.350 . S
C417 C420 1.463 . S
C417 C422 1.350 . S
C417 N425 1.427 . S
C418 H409 0.930 . S
C418 C416 1.378 . S
C418 C419 1.367 . S
C419 C418 1.367 . S
C419 C421 1.433 . S
C420 C416 1.350 . S
C420 C417 1.463 . S
C420 N424 1.427 . S
C421 H411 0.929 . S
C421 C419 1.433 . S
C421 N424 1.384 . S
C422 H413 0.929 . S
C422 C414 1.378 . S
C422 C417 1.350 . S
C423 H410 0.929 1_565 S
C423 C415 1.433 . S
C423 N425 1.384 . S
N424 C420 1.427 . S
N424 C421 1.384 . S
N425 C417 1.427 . S
N425 C423 1.384 . S
H426 C432 0.930 . S
H427 C436 0.930 . S
H428 C441 0.929 1_655 S
H429 C439 0.929 . S
H430 C434 0.929 . S
H431 C440 0.929 . S
C432 H426 0.930 . S
C432 C433 1.367 . S
C432 C440 1.378 . S
C433 C432 1.367 . S
C433 C441 1.433 . S
C434 H430 0.929 . S
C434 C436 1.378 . S
C434 C438 1.350 . S
C435 C438 1.463 . S
C435 C440 1.350 . S
C435 N443 1.427 . S
C436 H427 0.930 . S
C436 C434 1.378 . S
C436 C437 1.367 . S
C437 C436 1.367 . S
C437 C439 1.433 . S
C438 C434 1.350 . S
C438 C435 1.463 . S
C438 N442 1.427 . S
C439 H429 0.929 . S
C439 C437 1.433 . S
C439 N442 1.384 . S
C440 H431 0.929 . S
C440 C432 1.378 . S
C440 C435 1.350 . S
C441 H428 0.929 1_455 S
C441 C433 1.433 . S
C441 N443 1.384 . S
N442 C438 1.427 . S
N442 C439 1.384 . S
N443 C435 1.427 . S
N443 C441 1.384 . S
H444 C450 0.930 . S
H445 C454 0.930 . S
H446 C459 0.929 . S
H447 C457 0.929 . S
H448 C452 0.929 . S
H449 C458 0.929 . S
C450 H444 0.930 . S
C450 C451 1.367 . S
C450 C458 1.378 . S
C451 C450 1.367 . S
C451 C459 1.433 . S
C452 H448 0.929 . S
C452 C454 1.378 . S
C452 C456 1.350 . S
C453 C456 1.463 . S
C453 C458 1.350 . S
C453 N461 1.427 . S
C454 H445 0.930 . S
C454 C452 1.378 . S
C454 C455 1.367 . S
C455 C454 1.367 . S
C455 C457 1.433 . S
C456 C452 1.350 . S
C456 C453 1.463 . S
C456 N460 1.427 . S
C457 H447 0.929 . S
C457 C455 1.433 . S
C457 N460 1.384 . S
C458 H449 0.929 . S
C458 C450 1.378 . S
C458 C453 1.350 . S
C459 H446 0.929 . S
C459 C451 1.433 . S
C459 N461 1.384 . S
N460 C456 1.427 . S
N460 C457 1.384 . S
N461 C453 1.427 . S
N461 C459 1.384 . S
H462 C468 0.930 . S
H463 C472 0.930 . S
H464 C477 0.929 1_455 S
H465 C475 0.929 . S
H466 C470 0.929 . S
H467 C476 0.929 . S
C468 H462 0.930 . S
C468 C469 1.367 . S
C468 C476 1.378 . S
C469 C468 1.367 . S
C469 C477 1.433 . S
C470 H466 0.929 . S
C470 C472 1.378 . S
C470 C474 1.350 . S
C471 C474 1.463 . S
C471 C476 1.350 . S
C471 N479 1.427 . S
C472 H463 0.930 . S
C472 C470 1.378 . S
C472 C473 1.367 . S
C473 C472 1.367 . S
C473 C475 1.433 . S
C474 C470 1.350 . S
C474 C471 1.463 . S
C474 N478 1.427 . S
C475 H465 0.929 . S
C475 C473 1.433 . S
C475 N478 1.384 . S
C476 H467 0.929 . S
C476 C468 1.378 . S
C476 C471 1.350 . S
C477 H464 0.929 1_655 S
C477 C469 1.433 . S
C477 N479 1.384 . S
N478 C474 1.427 . S
N478 C475 1.384 . S
N479 C471 1.427 . S
N479 C477 1.384 . S
H480 C486 0.930 . S
H481 C490 0.930 . S
H482 C495 0.929 . S
H483 C493 0.929 . S
H484 C488 0.929 . S
H485 C494 0.929 . S
C486 H480 0.930 . S
C486 C487 1.367 . S
C486 C494 1.378 . S
C487 C486 1.367 . S
C487 C495 1.433 . S
C488 H484 0.929 . S
C488 C490 1.378 . S
C488 C492 1.350 . S
C489 C492 1.463 . S
C489 C494 1.350 . S
C489 N497 1.427 . S
C490 H481 0.930 . S
C490 C488 1.378 . S
C490 C491 1.367 . S
C491 C490 1.367 . S
C491 C493 1.433 . S
C492 C488 1.350 . S
C492 C489 1.463 . S
C492 N496 1.427 . S
C493 H483 0.929 . S
C493 C491 1.433 . S
C493 N496 1.384 . S
C494 H485 0.929 . S
C494 C486 1.378 . S
C494 C489 1.350 . S
C495 H482 0.929 . S
C495 C487 1.433 . S
C495 N497 1.384 . S
N496 C492 1.427 . S
N496 C493 1.384 . S
N497 C489 1.427 . S
N497 C495 1.384 . S
H498 C504 0.930 . S
H499 C508 0.930 . S
H500 C513 0.929 . S
H501 C511 0.929 . S
H502 C506 0.929 . S
H503 C512 0.929 . S
C504 H498 0.930 . S
C504 C505 1.367 . S
C504 C512 1.378 . S
C505 C504 1.367 . S
C505 C513 1.433 . S
C506 H502 0.929 . S
C506 C508 1.378 . S
C506 C510 1.350 . S
C507 C510 1.463 . S
C507 C512 1.350 . S
C507 N515 1.427 . S
C508 H499 0.930 . S
C508 C506 1.378 . S
C508 C509 1.367 . S
C509 C508 1.367 . S
C509 C511 1.433 . S
C510 C506 1.350 . S
C510 C507 1.463 . S
C510 N514 1.427 . S
C511 H501 0.929 . S
C511 C509 1.433 . S
C511 N514 1.384 . S
C512 H503 0.929 . S
C512 C504 1.378 . S
C512 C507 1.350 . S
C513 H500 0.929 . S
C513 C505 1.433 . S
C513 N515 1.384 . S
N514 C510 1.427 . S
N514 C511 1.384 . S
N515 C507 1.427 . S
N515 C513 1.384 . S
H516 C522 0.930 . S
H517 C526 0.930 . S
H518 C531 0.929 . S
H519 C529 0.929 . S
H520 C524 0.929 . S
H521 C530 0.929 . S
C522 H516 0.930 . S
C522 C523 1.367 . S
C522 C530 1.378 . S
C523 C522 1.367 . S
C523 C531 1.433 . S
C524 H520 0.929 . S
C524 C526 1.378 . S
C524 C528 1.350 . S
C525 C528 1.463 . S
C525 C530 1.350 . S
C525 N533 1.427 . S
C526 H517 0.930 . S
C526 C524 1.378 . S
C526 C527 1.367 . S
C527 C526 1.367 . S
C527 C529 1.433 . S
C528 C524 1.350 . S
C528 C525 1.463 . S
C528 N532 1.427 . S
C529 H519 0.929 . S
C529 C527 1.433 . S
C529 N532 1.384 . S
C530 H521 0.929 . S
C530 C522 1.378 . S
C530 C525 1.350 . S
C531 H518 0.929 . S
C531 C523 1.433 . S
C531 N533 1.384 . S
N532 C528 1.427 . S
N532 C529 1.384 . S
N533 C525 1.427 . S
N533 C531 1.384 . S
H534 C540 0.930 . S
H535 C544 0.930 . S
H536 C549 0.929 . S
H537 C547 0.929 . S
H538 C542 0.929 . S
H539 C548 0.929 . S
C540 H534 0.930 . S
C540 C541 1.367 . S
C540 C548 1.378 . S
C541 C540 1.367 . S
C541 C549 1.433 . S
C542 H538 0.929 . S
C542 C544 1.378 . S
C542 C546 1.350 . S
C543 C546 1.463 . S
C543 C548 1.350 . S
C543 N551 1.427 . S
C544 H535 0.930 . S
C544 C542 1.378 . S
C544 C545 1.367 . S
C545 C544 1.367 . S
C545 C547 1.433 . S
C546 C542 1.350 . S
C546 C543 1.463 . S
C546 N550 1.427 . S
C547 H537 0.929 . S
C547 C545 1.433 . S
C547 N550 1.384 . S
C548 H539 0.929 . S
C548 C540 1.378 . S
C548 C543 1.350 . S
C549 H536 0.929 . S
C549 C541 1.433 . S
C549 N551 1.384 . S
N550 C546 1.427 . S
N550 C547 1.384 . S
N551 C543 1.427 . S
N551 C549 1.384 . S
H552 C558 0.930 . S
H553 C562 0.930 . S
H554 C567 0.929 . S
H555 C565 0.929 . S
H556 C560 0.929 . S
H557 C566 0.929 . S
C558 H552 0.930 . S
C558 C559 1.367 . S
C558 C566 1.378 . S
C559 C558 1.367 . S
C559 C567 1.433 . S
C560 H556 0.929 . S
C560 C562 1.378 . S
C560 C564 1.350 . S
C561 C564 1.463 . S
C561 C566 1.350 . S
C561 N569 1.427 . S
C562 H553 0.930 . S
C562 C560 1.378 . S
C562 C563 1.367 . S
C563 C562 1.367 . S
C563 C565 1.433 . S
C564 C560 1.350 . S
C564 C561 1.463 . S
C564 N568 1.427 . S
C565 H555 0.929 . S
C565 C563 1.433 . S
C565 N568 1.384 . S
C566 H557 0.929 . S
C566 C558 1.378 . S
C566 C561 1.350 . S
C567 H554 0.929 . S
C567 C559 1.433 . S
C567 N569 1.384 . S
N568 C564 1.427 . S
N568 C565 1.384 . S
N569 C561 1.427 . S
N569 C567 1.384 . S
H570 C576 0.930 . S
H571 C580 0.930 . S
H572 C585 0.929 . S
H573 C583 0.929 . S
H574 C578 0.929 . S
H575 C584 0.929 . S
C576 H570 0.930 . S
C576 C577 1.367 . S
C576 C584 1.378 . S
C577 C576 1.367 . S
C577 C585 1.433 . S
C578 H574 0.929 . S
C578 C580 1.378 . S
C578 C582 1.350 . S
C579 C582 1.463 . S
C579 C584 1.350 . S
C579 N587 1.427 . S
C580 H571 0.930 . S
C580 C578 1.378 . S
C580 C581 1.367 . S
C581 C580 1.367 . S
C581 C583 1.433 . S
C582 C578 1.350 . S
C582 C579 1.463 . S
C582 N586 1.427 . S
C583 H573 0.929 . S
C583 C581 1.433 . S
C583 N586 1.384 . S
C584 H575 0.929 . S
C584 C576 1.378 . S
C584 C579 1.350 . S
C585 H572 0.929 . S
C585 C577 1.433 . S
C585 N587 1.384 . S
N586 C582 1.427 . S
N586 C583 1.384 . S
N587 C579 1.427 . S
N587 C585 1.384 . S
H588 C594 0.930 . S
H589 C598 0.930 . S
H590 C603 0.929 . S
H591 C601 0.929 . S
H592 C596 0.929 . S
H593 C602 0.929 . S
C594 H588 0.930 . S
C594 C595 1.367 . S
C594 C602 1.378 . S
C595 C594 1.367 . S
C595 C603 1.433 . S
C596 H592 0.929 . S
C596 C598 1.378 . S
C596 C600 1.350 . S
C597 C600 1.463 . S
C597 C602 1.350 . S
C597 N605 1.427 . S
C598 H589 0.930 . S
C598 C596 1.378 . S
C598 C599 1.367 . S
C599 C598 1.367 . S
C599 C601 1.433 . S
C600 C596 1.350 . S
C600 C597 1.463 . S
C600 N604 1.427 . S
C601 H591 0.929 . S
C601 C599 1.433 . S
C601 N604 1.384 . S
C602 H593 0.929 . S
C602 C594 1.378 . S
C602 C597 1.350 . S
C603 H590 0.929 . S
C603 C595 1.433 . S
C603 N605 1.384 . S
N604 C600 1.427 . S
N604 C601 1.384 . S
N605 C597 1.427 . S
N605 C603 1.384 . S
H606 C612 0.930 . S
H607 C616 0.930 . S
H608 C621 0.929 . S
H609 C619 0.929 . S
H610 C614 0.929 . S
H611 C620 0.929 . S
C612 H606 0.930 . S
C612 C613 1.367 . S
C612 C620 1.378 . S
C613 C612 1.367 . S
C613 C621 1.433 . S
C614 H610 0.929 . S
C614 C616 1.378 . S
C614 C618 1.350 . S
C615 C618 1.463 . S
C615 C620 1.350 . S
C615 N623 1.427 . S
C616 H607 0.930 . S
C616 C614 1.378 . S
C616 C617 1.367 . S
C617 C616 1.367 . S
C617 C619 1.433 . S
C618 C614 1.350 . S
C618 C615 1.463 . S
C618 N622 1.427 . S
C619 H609 0.929 . S
C619 C617 1.433 . S
C619 N622 1.384 . S
C620 H611 0.929 . S
C620 C612 1.378 . S
C620 C615 1.350 . S
C621 H608 0.929 . S
C621 C613 1.433 . S
C621 N623 1.384 . S
N622 C618 1.427 . S
N622 C619 1.384 . S
N623 C615 1.427 . S
N623 C621 1.384 . S
C199 C45 1.567 . S
C203 N108 1.575 . S
C217 C30 1.560 . S
C221 N119 1.561 . S
C235 C39 1.566 . S
C239 N130 1.562 . S
C257 N141 1.568 1_554 S
C253 C34 1.567 . S
C271 C97 1.568 . S
C275 N152 1.572 . S
C293 N163 1.572 . S
C289 C82 1.561 . S
C311 N174 1.567 . S
C307 C91 1.568 . S
C329 N185 1.575 . S
C325 C86 1.565 . S
C347 C179 1.572 . S
C343 C26 1.539 . S
C365 C187 1.485 . S
C361 C36 1.445 . S
C383 C154 1.558 . S
C379 C32 1.521 . S
C401 C165 1.493 . S
C397 C42 1.461 . S
C415 C18 1.605 . S
C419 C168 1.648 . S
C437 C176 1.594 . S
C433 C50 1.530 . S
C451 C4 1.609 . S
C455 C190 1.649 . S
C469 C48 1.543 . S
C473 C157 1.582 . S
C491 C135 1.506 . S
C487 C78 1.469 . S
C505 C88 1.533 . S
C509 C146 1.576 . S
C527 C110 1.503 . S
C523 C84 1.469 . S
C545 C124 1.574 . S
C541 C94 1.539 . S
C563 C121 1.586 . S
C559 C70 1.521 . S
C581 C132 1.647 . S
C577 C102 1.578 . S
C595 C56 1.509 . S
C599 C143 1.577 . S
C613 C100 1.600 . S
C617 C113 1.638 . S
