# Generated by pormake.
# Topology eea, (3,6)-cn, num edge types: 1
# Building blocks:
#     Node 0, Type 0, BuildingBlock: VETTIZ_charged_linker_0, # of connection points: 3
#     Node 1, Type 0, BuildingBlock: VETTIZ_charged_linker_0, # of connection points: 3
#     Node 2, Type 0, BuildingBlock: VETTIZ_charged_linker_0, # of connection points: 3
#     Node 3, Type 0, BuildingBlock: VETTIZ_charged_linker_0, # of connection points: 3
#     Node 4, Type 0, BuildingBlock: VETTIZ_charged_linker_0, # of connection points: 3
#     Node 5, Type 0, BuildingBlock: VETTIZ_charged_linker_0, # of connection points: 3
#     Node 6, Type 0, BuildingBlock: VETTIZ_charged_linker_0, # of connection points: 3
#     Node 7, Type 0, BuildingBlock: VETTIZ_charged_linker_0, # of connection points: 3
#     Node 8, Type 0, BuildingBlock: VETTIZ_charged_linker_0, # of connection points: 3
#     Node 9, Type 0, BuildingBlock: VETTIZ_charged_linker_0, # of connection points: 3
#     Node 10, Type 0, BuildingBlock: VETTIZ_charged_linker_0, # of connection points: 3
#     Node 11, Type 0, BuildingBlock: VETTIZ_charged_linker_0, # of connection points: 3
#     Node 12, Type 0, BuildingBlock: VETTIZ_charged_linker_0, # of connection points: 3
#     Node 13, Type 0, BuildingBlock: VETTIZ_charged_linker_0, # of connection points: 3
#     Node 14, Type 0, BuildingBlock: VETTIZ_charged_linker_0, # of connection points: 3
#     Node 15, Type 0, BuildingBlock: VETTIZ_charged_linker_0, # of connection points: 3
#     Node 16, Type 0, BuildingBlock: VETTIZ_charged_linker_0, # of connection points: 3
#     Node 17, Type 0, BuildingBlock: VETTIZ_charged_linker_0, # of connection points: 3
#     Node 18, Type 1, BuildingBlock: HISSIN_clean_sbu_0, # of connection points: 6
#     Node 19, Type 1, BuildingBlock: HISSIN_clean_sbu_0, # of connection points: 6
#     Node 20, Type 1, BuildingBlock: HISSIN_clean_sbu_0, # of connection points: 6
#     Node 21, Type 1, BuildingBlock: HISSIN_clean_sbu_0, # of connection points: 6
#     Node 22, Type 1, BuildingBlock: HISSIN_clean_sbu_0, # of connection points: 6
#     Node 23, Type 1, BuildingBlock: HISSIN_clean_sbu_0, # of connection points: 6
#     Node 24, Type 1, BuildingBlock: HISSIN_clean_sbu_0, # of connection points: 6
#     Node 25, Type 1, BuildingBlock: HISSIN_clean_sbu_0, # of connection points: 6
#     Node 26, Type 1, BuildingBlock: HISSIN_clean_sbu_0, # of connection points: 6
#     Edge 27, Type (0, 1), BuildingBlock: CIFDUS_clean_linker_0, # of connection points: 2
#     Edge 28, Type (0, 1), BuildingBlock: CIFDUS_clean_linker_0, # of connection points: 2
#     Edge 29, Type (0, 1), BuildingBlock: CIFDUS_clean_linker_0, # of connection points: 2
#     Edge 30, Type (0, 1), BuildingBlock: CIFDUS_clean_linker_0, # of connection points: 2
#     Edge 31, Type (0, 1), BuildingBlock: CIFDUS_clean_linker_0, # of connection points: 2
#     Edge 32, Type (0, 1), BuildingBlock: CIFDUS_clean_linker_0, # of connection points: 2
#     Edge 33, Type (0, 1), BuildingBlock: CIFDUS_clean_linker_0, # of connection points: 2
#     Edge 34, Type (0, 1), BuildingBlock: CIFDUS_clean_linker_0, # of connection points: 2
#     Edge 35, Type (0, 1), BuildingBlock: CIFDUS_clean_linker_0, # of connection points: 2
#     Edge 36, Type (0, 1), BuildingBlock: CIFDUS_clean_linker_0, # of connection points: 2
#     Edge 37, Type (0, 1), BuildingBlock: CIFDUS_clean_linker_0, # of connection points: 2
#     Edge 38, Type (0, 1), BuildingBlock: CIFDUS_clean_linker_0, # of connection points: 2
#     Edge 39, Type (0, 1), BuildingBlock: CIFDUS_clean_linker_0, # of connection points: 2
#     Edge 40, Type (0, 1), BuildingBlock: CIFDUS_clean_linker_0, # of connection points: 2
#     Edge 41, Type (0, 1), BuildingBlock: CIFDUS_clean_linker_0, # of connection points: 2
#     Edge 42, Type (0, 1), BuildingBlock: CIFDUS_clean_linker_0, # of connection points: 2
#     Edge 43, Type (0, 1), BuildingBlock: CIFDUS_clean_linker_0, # of connection points: 2
#     Edge 44, Type (0, 1), BuildingBlock: CIFDUS_clean_linker_0, # of connection points: 2
#     Edge 45, Type (0, 1), BuildingBlock: CIFDUS_clean_linker_0, # of connection points: 2
#     Edge 46, Type (0, 1), BuildingBlock: CIFDUS_clean_linker_0, # of connection points: 2
#     Edge 47, Type (0, 1), BuildingBlock: CIFDUS_clean_linker_0, # of connection points: 2
#     Edge 48, Type (0, 1), BuildingBlock: CIFDUS_clean_linker_0, # of connection points: 2
#     Edge 49, Type (0, 1), BuildingBlock: CIFDUS_clean_linker_0, # of connection points: 2
#     Edge 50, Type (0, 1), BuildingBlock: CIFDUS_clean_linker_0, # of connection points: 2
#     Edge 51, Type (0, 1), BuildingBlock: CIFDUS_clean_linker_0, # of connection points: 2
#     Edge 52, Type (0, 1), BuildingBlock: CIFDUS_clean_linker_0, # of connection points: 2
#     Edge 53, Type (0, 1), BuildingBlock: CIFDUS_clean_linker_0, # of connection points: 2
#     Edge 54, Type (0, 1), BuildingBlock: CIFDUS_clean_linker_0, # of connection points: 2
#     Edge 55, Type (0, 1), BuildingBlock: CIFDUS_clean_linker_0, # of connection points: 2
#     Edge 56, Type (0, 1), BuildingBlock: CIFDUS_clean_linker_0, # of connection points: 2
#     Edge 57, Type (0, 1), BuildingBlock: CIFDUS_clean_linker_0, # of connection points: 2
#     Edge 58, Type (0, 1), BuildingBlock: CIFDUS_clean_linker_0, # of connection points: 2
#     Edge 59, Type (0, 1), BuildingBlock: CIFDUS_clean_linker_0, # of connection points: 2
#     Edge 60, Type (0, 1), BuildingBlock: CIFDUS_clean_linker_0, # of connection points: 2
#     Edge 61, Type (0, 1), BuildingBlock: CIFDUS_clean_linker_0, # of connection points: 2
#     Edge 62, Type (0, 1), BuildingBlock: CIFDUS_clean_linker_0, # of connection points: 2
#     Edge 63, Type (0, 1), BuildingBlock: CIFDUS_clean_linker_0, # of connection points: 2
#     Edge 64, Type (0, 1), BuildingBlock: CIFDUS_clean_linker_0, # of connection points: 2
#     Edge 65, Type (0, 1), BuildingBlock: CIFDUS_clean_linker_0, # of connection points: 2
#     Edge 66, Type (0, 1), BuildingBlock: CIFDUS_clean_linker_0, # of connection points: 2
#     Edge 67, Type (0, 1), BuildingBlock: CIFDUS_clean_linker_0, # of connection points: 2
#     Edge 68, Type (0, 1), BuildingBlock: CIFDUS_clean_linker_0, # of connection points: 2
#     Edge 69, Type (0, 1), BuildingBlock: CIFDUS_clean_linker_0, # of connection points: 2
#     Edge 70, Type (0, 1), BuildingBlock: CIFDUS_clean_linker_0, # of connection points: 2
#     Edge 71, Type (0, 1), BuildingBlock: CIFDUS_clean_linker_0, # of connection points: 2
#     Edge 72, Type (0, 1), BuildingBlock: CIFDUS_clean_linker_0, # of connection points: 2
#     Edge 73, Type (0, 1), BuildingBlock: CIFDUS_clean_linker_0, # of connection points: 2
#     Edge 74, Type (0, 1), BuildingBlock: CIFDUS_clean_linker_0, # of connection points: 2
#     Edge 75, Type (0, 1), BuildingBlock: CIFDUS_clean_linker_0, # of connection points: 2
#     Edge 76, Type (0, 1), BuildingBlock: CIFDUS_clean_linker_0, # of connection points: 2
#     Edge 77, Type (0, 1), BuildingBlock: CIFDUS_clean_linker_0, # of connection points: 2
#     Edge 78, Type (0, 1), BuildingBlock: CIFDUS_clean_linker_0, # of connection points: 2
#     Edge 79, Type (0, 1), BuildingBlock: CIFDUS_clean_linker_0, # of connection points: 2
#     Edge 80, Type (0, 1), BuildingBlock: CIFDUS_clean_linker_0, # of connection points: 2
# Relax obj value: 0.035
# Max RMSD: 0.134
# Mean RMSD: 0.079
data_MOF--net-eea--node1-HISSIN_clean_sbu_0--node2-VETTIZ_charged_linker_0--edge1-CIFDUS_clean_linker_0
_symmetry_space_group_name_H-M    P1
_symmetry_Int_Tables_number       1
_symmetry_cell_setting            triclinic
loop_
_symmetry_equiv_pos_as_xyz
'x, y, z'
_cell_length_a     55.546441
_cell_length_b     55.761839
_cell_length_c     82.438292
_cell_angle_alpha  93.190413
_cell_angle_beta   93.203674
_cell_angle_gamma 119.97793
loop_
_atom_site_label
_atom_site_type_symbol
_atom_site_fract_x
_atom_site_fract_y
_atom_site_fract_z
_atom_type_partial_charge
C0 C 0.26337 0.19036 0.38247 0.0
C1 C 0.25986 0.21084 0.39093 0.0
C2 C 0.269 0.21778 0.40777 0.0
C3 C 0.2837 0.18349 0.40736 0.0
C4 C 0.27472 0.17672 0.39091 0.0
C5 C 0.2766 0.15234 0.38396 0.0
H6 H 0.29421 0.04407 0.39731 0.0
C7 C 0.29329 0.16442 0.41251 0.0
C8 C 0.28885 0.14597 0.39886 0.0
H9 H 0.26067 0.05976 0.35318 0.0
H10 H 0.27327 0.10529 0.36525 0.0
H11 H 0.34806 0.10536 0.40438 0.0
H12 H 0.26696 0.06627 0.42199 0.0
H13 H 0.29224 0.084 0.43877 0.0
H14 H 0.29298 0.05682 0.42651 0.0
H15 H 0.34086 0.08525 0.42154 0.0
H16 H 0.35302 0.12209 0.42399 0.0
C17 C 0.29705 0.16215 0.37055 0.0
C18 C 0.24656 0.12842 0.37791 0.0
C19 C 0.33285 0.17265 0.47117 0.0
C20 C 0.34371 0.15785 0.47908 0.0
C21 C 0.34482 0.13626 0.47005 0.0
C22 C 0.33501 0.12925 0.45351 0.0
C23 C 0.32376 0.14381 0.44586 0.0
C24 C 0.32322 0.16543 0.45454 0.0
C25 C 0.31116 0.17895 0.44409 0.0
C26 C 0.30489 0.162 0.42772 0.0
C27 C 0.31186 0.14115 0.42898 0.0
C28 C 0.33391 0.20972 0.44349 0.0
C29 C 0.28422 0.17488 0.45115 0.0
C30 C 0.28976 0.05744 0.39024 0.0
C31 C 0.27599 0.04814 0.3744 0.0
C32 C 0.27124 0.06639 0.36541 0.0
C33 C 0.27822 0.0927 0.37252 0.0
C34 C 0.28976 0.10072 0.38885 0.0
C35 C 0.29628 0.08366 0.39725 0.0
C36 C 0.30834 0.09562 0.41453 0.0
C37 C 0.30626 0.1218 0.41537 0.0
C38 C 0.29527 0.12454 0.40032 0.0
C39 C 0.33909 0.10232 0.41634 0.0
C40 C 0.28936 0.07466 0.42617 0.0
H41 H 0.28737 0.21043 0.42877 0.0
H42 H 0.25698 0.18455 0.36954 0.0
H43 H 0.23036 0.13098 0.38383 0.0
H44 H 0.24273 0.10783 0.38102 0.0
H45 H 0.2421 0.12754 0.36452 0.0
H46 H 0.31551 0.18301 0.37447 0.0
H47 H 0.28681 0.16376 0.35903 0.0
H48 H 0.30562 0.14837 0.36796 0.0
H49 H 0.33198 0.18952 0.47775 0.0
H50 H 0.35275 0.12432 0.47588 0.0
H51 H 0.33617 0.11245 0.44739 0.0
H52 H 0.35451 0.21151 0.44194 0.0
H53 H 0.33615 0.22238 0.45496 0.0
H54 H 0.32983 0.21921 0.43308 0.0
H55 H 0.27327 0.15475 0.45663 0.0
H56 H 0.26868 0.17376 0.44171 0.0
H57 H 0.28904 0.19173 0.46083 0.0
H58 H 0.26619 0.23305 0.41477 0.0
C59 C 0.28108 0.20439 0.41597 0.0
C60 C 0.97541 0.17959 0.39845 0.0
C61 C 0.99795 0.20498 0.40579 0.0
C62 C 0.99439 0.21673 0.42047 0.0
C63 C 0.94743 0.17772 0.42051 0.0
C64 C 0.95041 0.16666 0.40586 0.0
C65 C 0.92408 0.14046 0.39917 0.0
H66 H 0.79211 0.04094 0.40914 0.0
C67 C 0.91905 0.15893 0.42508 0.0
C68 C 0.90512 0.13727 0.41246 0.0
H69 H 0.83854 0.04797 0.36751 0.0
H70 H 0.87762 0.09074 0.3805 0.0
H71 H 0.84044 0.05697 0.43549 0.0
H72 H 0.80948 0.10563 0.4137 0.0
H73 H 0.81742 0.11725 0.43458 0.0
H74 H 0.79148 0.08146 0.42824 0.0
H75 H 0.8097 0.05657 0.44147 0.0
H76 H 0.84401 0.08131 0.45122 0.0
C77 C 0.93052 0.11645 0.39788 0.0
C78 C 0.91339 0.14578 0.38274 0.0
C79 C 0.89105 0.1742 0.48098 0.0
C80 C 0.86682 0.15832 0.48882 0.0
C81 C 0.84399 0.13468 0.48012 0.0
C82 C 0.8454 0.12642 0.46408 0.0
C83 C 0.87 0.1418 0.45656 0.0
C84 C 0.89225 0.16542 0.46488 0.0
C85 C 0.91673 0.17878 0.45481 0.0
C86 C 0.90558 0.15888 0.43928 0.0
C87 C 0.87819 0.13738 0.44045 0.0
C88 C 0.94181 0.17875 0.46397 0.0
C89 C 0.9221 0.20811 0.45165 0.0
C90 C 0.81046 0.05189 0.40265 0.0
C91 C 0.81216 0.04099 0.38726 0.0
C92 C 0.83678 0.05573 0.37946 0.0
C93 C 0.85941 0.08065 0.38699 0.0
C94 C 0.85748 0.09101 0.4025 0.0
C95 C 0.83318 0.07677 0.40997 0.0
C96 C 0.83476 0.09066 0.42644 0.0
C97 C 0.86395 0.1158 0.42759 0.0
C98 C 0.87725 0.11583 0.41362 0.0
C99 C 0.83191 0.07045 0.43941 0.0
C100 C 0.81205 0.0991 0.42589 0.0
H101 H 0.96816 0.21321 0.43903 0.0
H102 H 0.97706 0.16973 0.38723 0.0
H103 H 0.91947 0.16804 0.38255 0.0
H104 H 0.89035 0.1343 0.38059 0.0
H105 H 0.92215 0.14035 0.3723 0.0
H106 H 0.94388 0.1178 0.40886 0.0
H107 H 0.94183 0.1174 0.38702 0.0
H108 H 0.91167 0.09569 0.39729 0.0
H109 H 0.90891 0.19247 0.4874 0.0
H110 H 0.82496 0.12242 0.48582 0.0
H111 H 0.82734 0.10809 0.45825 0.0
H112 H 0.93503 0.15826 0.46874 0.0
H113 H 0.95105 0.19496 0.47451 0.0
H114 H 0.95843 0.18204 0.45613 0.0
H115 H 0.90239 0.20878 0.45115 0.0
H116 H 0.93015 0.21433 0.4397 0.0
H117 H 0.93684 0.22405 0.46146 0.0
H118 H 0.01078 0.23667 0.42622 0.0
C119 C 0.96943 0.20321 0.42788 0.0
C120 C 0.96451 0.79585 0.3997 0.0
C121 C 0.98738 0.79301 0.40509 0.0
C122 C 0.98683 0.7818 0.42013 0.0
C123 C 0.94133 0.77648 0.42389 0.0
C124 C 0.94197 0.78759 0.40922 0.0
C125 C 0.91631 0.78946 0.4051 0.0
H126 H 0.7913 0.76989 0.42436 0.0
C127 C 0.91468 0.76992 0.43068 0.0
C128 C 0.90006 0.77762 0.41965 0.0
H129 H 0.83393 0.80409 0.38181 0.0
H130 H 0.8718 0.79765 0.39146 0.0
H131 H 0.80367 0.72034 0.42436 0.0
H132 H 0.84648 0.80192 0.4504 0.0
H133 H 0.84497 0.77837 0.46418 0.0
H134 H 0.81298 0.77486 0.45502 0.0
H135 H 0.79053 0.7289 0.44181 0.0
H136 H 0.81493 0.71656 0.44386 0.0
C137 C 0.90098 0.7708 0.389 0.0
C138 C 0.92549 0.82058 0.4044 0.0
C139 C 0.89008 0.72622 0.48476 0.0
C140 C 0.86669 0.71792 0.49376 0.0
C141 C 0.8447 0.72157 0.48746 0.0
C142 C 0.84594 0.73335 0.47274 0.0
C143 C 0.86938 0.74165 0.46398 0.0
C144 C 0.89097 0.738 0.46996 0.0
C145 C 0.91413 0.74801 0.45879 0.0
C146 C 0.90275 0.75809 0.44516 0.0
C147 C 0.87651 0.75432 0.44835 0.0
C148 C 0.91691 0.72288 0.45261 0.0
C149 C 0.94098 0.77214 0.46828 0.0
C150 C 0.8089 0.77617 0.41719 0.0
C151 C 0.80947 0.78744 0.40224 0.0
C152 C 0.83268 0.79498 0.39323 0.0
C153 C 0.85481 0.7914 0.39892 0.0
C154 C 0.85395 0.7801 0.41385 0.0
C155 C 0.83122 0.77263 0.4227 0.0
C156 C 0.8338 0.7606 0.43818 0.0
C157 C 0.8619 0.76234 0.43721 0.0
C158 C 0.8736 0.77384 0.42295 0.0
C159 C 0.80945 0.73007 0.43718 0.0
C160 C 0.83441 0.77967 0.45279 0.0
H161 H 0.96495 0.76524 0.44081 0.0
H162 H 0.96387 0.80397 0.38816 0.0
H163 H 0.9435 0.834 0.41359 0.0
H164 H 0.90913 0.82536 0.40745 0.0
H165 H 0.932 0.82743 0.3922 0.0
H166 H 0.90316 0.752 0.38819 0.0
H167 H 0.90966 0.78215 0.37818 0.0
H168 H 0.87822 0.76255 0.38805 0.0
H169 H 0.90746 0.72391 0.48921 0.0
H170 H 0.82616 0.7149 0.49382 0.0
H171 H 0.82844 0.73544 0.46872 0.0
H172 H 0.89595 0.70397 0.44973 0.0
H173 H 0.9287 0.71821 0.46202 0.0
H174 H 0.92708 0.72593 0.44119 0.0
H175 H 0.93599 0.78566 0.47613 0.0
H176 H 0.95598 0.78613 0.4602 0.0
H177 H 0.95151 0.7641 0.47632 0.0
H178 H 0.00423 0.77969 0.42478 0.0
C179 C 0.96402 0.77355 0.42951 0.0
C180 C 0.171 0.21092 0.61543 0.0
C181 C 0.1941 0.21136 0.60888 0.0
C182 C 0.19994 0.21973 0.59303 0.0
C183 C 0.15985 0.22625 0.59053 0.0
C184 C 0.15414 0.21814 0.60604 0.0
C185 C 0.1282 0.21755 0.61099 0.0
H186 H 0.01071 0.22056 0.58978 0.0
C187 C 0.13774 0.23152 0.58388 0.0
C188 C 0.11901 0.22623 0.59577 0.0
H189 H 0.04027 0.21003 0.63721 0.0
H190 H 0.08219 0.21694 0.6267 0.0
H191 H 0.06997 0.27521 0.58655 0.0
H192 H 0.03524 0.19043 0.56582 0.0
H193 H 0.04903 0.21343 0.55052 0.0
H194 H 0.02076 0.21193 0.56089 0.0
H195 H 0.04453 0.26115 0.56912 0.0
H196 H 0.0814 0.27625 0.56705 0.0
C197 C 0.1365 0.23923 0.62595 0.0
C198 C 0.10695 0.18728 0.61412 0.0
C199 C 0.14173 0.2644 0.52728 0.0
C200 C 0.12434 0.27074 0.51759 0.0
C201 C 0.09961 0.26719 0.52368 0.0
C202 C 0.09238 0.25751 0.53908 0.0
C203 C 0.11013 0.25145 0.54863 0.0
C204 C 0.13432 0.25493 0.54264 0.0
C205 C 0.15072 0.24745 0.55435 0.0
C206 C 0.13291 0.23977 0.56859 0.0
C207 C 0.10898 0.2419 0.56517 0.0
C208 C 0.17978 0.27364 0.55904 0.0
C209 C 0.15162 0.22218 0.54622 0.0
C210 C 0.02607 0.21979 0.59804 0.0
C211 C 0.02096 0.2134 0.61434 0.0
C212 C 0.04233 0.21326 0.62444 0.0
C213 C 0.06713 0.21769 0.61836 0.0
C214 C 0.07131 0.22298 0.60203 0.0
C215 C 0.05148 0.22499 0.5923 0.0
C216 C 0.06129 0.23412 0.57582 0.0
C217 C 0.08948 0.2356 0.57705 0.0
C218 C 0.09489 0.22851 0.59237 0.0
C219 C 0.06434 0.26309 0.57439 0.0
C220 C 0.0405 0.21144 0.56245 0.0
H221 H 0.18862 0.23328 0.57191 0.0
H222 H 0.16603 0.20507 0.62763 0.0
H223 H 0.10616 0.17234 0.60428 0.0
H224 H 0.08538 0.18314 0.61419 0.0
H225 H 0.11296 0.18205 0.62591 0.0
H226 H 0.15872 0.25604 0.62642 0.0
H227 H 0.13374 0.22939 0.63758 0.0
H228 H 0.12454 0.25023 0.62549 0.0
H229 H 0.16101 0.26711 0.52312 0.0
H230 H 0.08562 0.27153 0.51643 0.0
H231 H 0.07318 0.25498 0.54295 0.0
H232 H 0.17784 0.29249 0.56099 0.0
H233 H 0.19377 0.27707 0.54923 0.0
H234 H 0.19018 0.27272 0.57059 0.0
H235 H 0.13274 0.20891 0.53757 0.0
H236 H 0.15153 0.20802 0.55512 0.0
H237 H 0.17015 0.22901 0.53924 0.0
H238 H 0.21724 0.21992 0.58749 0.0
C239 C 0.18307 0.22724 0.58388 0.0
C240 C 0.74741 0.8003 0.63186 0.0
C241 C 0.74459 0.775 0.62551 0.0
C242 C 0.73038 0.76333 0.60984 0.0
C243 C 0.72439 0.80299 0.60669 0.0
C244 C 0.73707 0.81375 0.62233 0.0
C245 C 0.73879 0.84096 0.62721 0.0
H246 H 0.72702 0.94972 0.60566 0.0
C247 C 0.71758 0.82295 0.5997 0.0
C248 C 0.72563 0.84506 0.61177 0.0
H249 H 0.75529 0.93778 0.65289 0.0
H250 H 0.74438 0.89177 0.64282 0.0
H251 H 0.75479 0.92274 0.58434 0.0
H252 H 0.67232 0.88893 0.59991 0.0
H253 H 0.66812 0.87259 0.5803 0.0
H254 H 0.68284 0.90984 0.58308 0.0
H255 H 0.72997 0.93199 0.57658 0.0
H256 H 0.73087 0.90236 0.56753 0.0
C257 C 0.77007 0.86344 0.63083 0.0
C258 C 0.72109 0.83706 0.6418 0.0
C259 C 0.68183 0.80865 0.53971 0.0
C260 C 0.67534 0.82468 0.52971 0.0
C261 C 0.6773 0.84933 0.53672 0.0
C262 C 0.686 0.85812 0.5533 0.0
C263 C 0.69308 0.84229 0.56304 0.0
C264 C 0.69055 0.81779 0.5563 0.0
C265 C 0.69872 0.80359 0.56866 0.0
C266 C 0.70682 0.82381 0.58383 0.0
C267 C 0.70372 0.84655 0.58037 0.0
C268 C 0.72398 0.80196 0.56291 0.0
C269 C 0.6728 0.77497 0.57058 0.0
C270 C 0.73046 0.93704 0.61391 0.0
C271 C 0.74245 0.9476 0.63003 0.0
C272 C 0.74668 0.9304 0.64032 0.0
C273 C 0.74022 0.90362 0.63446 0.0
C274 C 0.72948 0.89386 0.61812 0.0
C275 C 0.72412 0.9102 0.60825 0.0
C276 C 0.71222 0.89614 0.5913 0.0
C277 C 0.71175 0.86885 0.59259 0.0
C278 C 0.72224 0.86785 0.60825 0.0
C279 C 0.73278 0.91416 0.57919 0.0
C280 C 0.6824 0.89173 0.58833 0.0
H281 H 0.71006 0.76741 0.58852 0.0
H282 H 0.75821 0.80996 0.64381 0.0
H283 H 0.7039 0.81511 0.64165 0.0
H284 H 0.71039 0.84929 0.6414 0.0
H285 H 0.73406 0.84262 0.65364 0.0
H286 H 0.78266 0.86063 0.62167 0.0
H287 H 0.77849 0.86213 0.64308 0.0
H288 H 0.77416 0.88481 0.6301 0.0
H289 H 0.68022 0.78945 0.53474 0.0
H290 H 0.67282 0.86229 0.52928 0.0
H291 H 0.68735 0.87721 0.5578 0.0
H292 H 0.73923 0.82191 0.55832 0.0
H293 H 0.71719 0.78519 0.55282 0.0
H294 H 0.73587 0.79852 0.57274 0.0
H295 H 0.65314 0.77552 0.56835 0.0
H296 H 0.67244 0.76874 0.58311 0.0
H297 H 0.67154 0.75845 0.5618 0.0
H298 H 0.72713 0.74347 0.60478 0.0
C299 C 0.72032 0.77718 0.60041 0.0
C300 C 0.0335 0.80242 0.61799 0.0
C301 C 0.01162 0.77693 0.61046 0.0
C302 C 0.01472 0.76706 0.595 0.0
C303 C 0.06025 0.8083 0.59464 0.0
C304 C 0.05743 0.8176 0.60994 0.0
C305 C 0.08217 0.84526 0.61625 0.0
H306 H 0.20754 0.955 0.60512 0.0
C307 C 0.08738 0.82958 0.5895 0.0
C308 C 0.10027 0.85118 0.60223 0.0
H309 H 0.1597 0.94248 0.64669 0.0
H310 H 0.12414 0.89763 0.634 0.0
H311 H 0.19718 0.89337 0.59979 0.0
H312 H 0.15598 0.93362 0.57863 0.0
H313 H 0.15692 0.91196 0.56274 0.0
H314 H 0.18924 0.93976 0.5731 0.0
H315 H 0.21201 0.91765 0.58483 0.0
H316 H 0.18878 0.88099 0.57903 0.0
C317 C 0.09597 0.84132 0.63197 0.0
C318 C 0.07203 0.86648 0.61864 0.0
C319 C 0.11676 0.81885 0.53307 0.0
C320 C 0.14043 0.83621 0.52512 0.0
C321 C 0.16179 0.86113 0.53369 0.0
C322 C 0.15949 0.86902 0.54966 0.0
C323 C 0.13554 0.85191 0.55731 0.0
C324 C 0.11472 0.82717 0.54913 0.0
C325 C 0.09084 0.81181 0.55941 0.0
C326 C 0.10076 0.83161 0.57496 0.0
C327 C 0.12696 0.85505 0.57356 0.0
C328 C 0.0887 0.78371 0.56246 0.0
C329 C 0.06415 0.80903 0.55053 0.0
C330 C 0.18934 0.9427 0.61147 0.0
C331 C 0.18652 0.95241 0.62696 0.0
C332 C 0.16264 0.93542 0.63486 0.0
C333 C 0.14186 0.90941 0.6274 0.0
C334 C 0.14482 0.9002 0.61181 0.0
C335 C 0.1683 0.91674 0.60414 0.0
C336 C 0.1677 0.90382 0.58751 0.0
C337 C 0.13999 0.87673 0.58648 0.0
C338 C 0.12672 0.87477 0.60072 0.0
C339 C 0.19276 0.89879 0.58762 0.0
C340 C 0.16765 0.92322 0.57474 0.0
H341 H 0.03984 0.77403 0.57531 0.0
H342 H 0.03181 0.81089 0.62973 0.0
H343 H 0.05472 0.86184 0.60923 0.0
H344 H 0.08832 0.88802 0.61716 0.0
H345 H 0.06418 0.86589 0.6308 0.0
H346 H 0.09443 0.8206 0.63108 0.0
H347 H 0.08562 0.84268 0.64285 0.0
H348 H 0.11858 0.85642 0.63416 0.0
H349 H 0.09997 0.79957 0.52683 0.0
H350 H 0.18048 0.87459 0.52803 0.0
H351 H 0.17649 0.88829 0.55539 0.0
H352 H 0.10982 0.78608 0.5642 0.0
H353 H 0.07684 0.76786 0.55196 0.0
H354 H 0.07897 0.77553 0.57372 0.0
H355 H 0.06893 0.82865 0.54518 0.0
H356 H 0.04786 0.80527 0.55874 0.0
H357 H 0.05524 0.79203 0.54042 0.0
H358 H 0.99844 0.74727 0.58899 0.0
C359 C 0.03885 0.78257 0.58707 0.0
C360 C 0.92333 0.52466 0.71871 0.0
C361 C 0.92818 0.55093 0.72465 0.0
C362 C 0.94322 0.56297 0.74006 0.0
C363 C 0.94725 0.52223 0.74361 0.0
C364 C 0.93285 0.51068 0.72839 0.0
C365 C 0.9277 0.4818 0.72433 0.0
H366 H 0.93686 0.37211 0.74743 0.0
C367 C 0.95314 0.50177 0.75078 0.0
C368 C 0.94173 0.47806 0.7395 0.0
H369 H 0.89502 0.3774 0.70307 0.0
H370 H 0.91105 0.42558 0.7112 0.0
H371 H 0.99175 0.42965 0.74774 0.0
H372 H 0.9167 0.40522 0.77109 0.0
H373 H 0.94518 0.42632 0.7856 0.0
H374 H 0.94132 0.39438 0.77651 0.0
H375 H 0.98607 0.4135 0.76645 0.0
H376 H 1.00235 0.4508 0.76629 0.0
C377 C 0.94265 0.48194 0.709 0.0
C378 C 0.89566 0.46141 0.72234 0.0
C379 C 1.00208 0.52225 0.80822 0.0
C380 C 0.01044 0.50701 0.81773 0.0
C381 C 0.00626 0.4813 0.81095 0.0
C382 C 0.99333 0.47054 0.79514 0.0
C383 C 0.98434 0.48555 0.78595 0.0
C384 C 0.98932 0.51124 0.79233 0.0
C385 C 0.97921 0.52456 0.78039 0.0
C386 C 0.96685 0.5023 0.766 0.0
C387 C 0.96958 0.47938 0.76949 0.0
C388 C 0.00482 0.5517 0.77615 0.0
C389 C 0.95663 0.52881 0.78807 0.0
C390 C 0.931 0.38359 0.73951 0.0
C391 C 0.91452 0.37084 0.72463 0.0
C392 C 0.9079 0.38676 0.71453 0.0
C393 C 0.91705 0.4147 0.71934 0.0
C394 C 0.93284 0.4269 0.73446 0.0
C395 C 0.93978 0.41145 0.74418 0.0
C396 C 0.95634 0.42769 0.75994 0.0
C397 C 0.95773 0.4553 0.75821 0.0
C398 C 0.94393 0.45469 0.74328 0.0
C399 C 0.98561 0.4305 0.76029 0.0
C400 C 0.93927 0.41272 0.77412 0.0
H401 H 0.96398 0.55896 0.76122 0.0
H402 H 0.9114 0.51467 0.70705 0.0
H403 H 0.88467 0.46922 0.72999 0.0
H404 H 0.88974 0.44085 0.72651 0.0
H405 H 0.88689 0.45854 0.70947 0.0
H406 H 0.9633 0.50135 0.70951 0.0
H407 H 0.93012 0.48083 0.69769 0.0
H408 H 0.94726 0.46485 0.70791 0.0
H409 H 0.00536 0.54224 0.81305 0.0
H410 H 0.01229 0.46906 0.81807 0.0
H411 H 0.99042 0.4507 0.7908 0.0
H412 H 0.02355 0.54935 0.77592 0.0
H413 H 0.01001 0.56937 0.78532 0.0
H414 H 1.00187 0.55731 0.76386 0.0
H415 H 0.943 0.51071 0.79473 0.0
H416 H 0.94231 0.53034 0.77892 0.0
H417 H 0.96632 0.54769 0.79692 0.0
H418 H 0.94731 0.5833 0.74483 0.0
C419 C 0.95289 0.54883 0.74954 0.0
C420 C 0.63256 0.51843 0.73012 0.0
C421 C 0.65303 0.54583 0.73594 0.0
C422 C 0.6508 0.55688 0.75127 0.0
C423 C 0.60737 0.51449 0.75396 0.0
C424 C 0.61013 0.50322 0.73929 0.0
C425 C 0.58669 0.4739 0.73477 0.0
H426 H 0.46043 0.36839 0.74884 0.0
C427 C 0.58081 0.49383 0.75992 0.0
C428 C 0.56869 0.46997 0.74869 0.0
H429 H 0.51387 0.36856 0.71248 0.0
H430 H 0.54852 0.41561 0.7223 0.0
H431 H 0.5094 0.39452 0.7775 0.0
H432 H 0.47149 0.42881 0.74696 0.0
H433 H 0.47909 0.44732 0.76624 0.0
H434 H 0.45529 0.41019 0.76394 0.0
H435 H 0.47563 0.3901 0.78015 0.0
H436 H 0.50715 0.41946 0.79019 0.0
C437 C 0.59897 0.45427 0.73481 0.0
C438 C 0.57155 0.47287 0.71817 0.0
C439 C 0.54667 0.5166 0.81178 0.0
C440 C 0.52131 0.50199 0.81886 0.0
C441 C 0.50027 0.47608 0.81121 0.0
C442 C 0.50432 0.46461 0.79688 0.0
C443 C 0.52969 0.47916 0.78996 0.0
C444 C 0.55025 0.50491 0.79719 0.0
C445 C 0.57513 0.51776 0.78735 0.0
C446 C 0.56638 0.49497 0.77345 0.0
C447 C 0.53983 0.47242 0.77523 0.0
C448 C 0.60113 0.52248 0.79811 0.0
C449 C 0.57764 0.54462 0.78126 0.0
C450 C 0.47966 0.37827 0.74304 0.0
C451 C 0.48403 0.3645 0.7297 0.0
C452 C 0.50943 0.37867 0.72251 0.0
C453 C 0.52978 0.40598 0.72835 0.0
C454 C 0.52499 0.4193 0.74168 0.0
C455 C 0.50044 0.40526 0.74892 0.0
C456 C 0.49961 0.42189 0.76361 0.0
C457 C 0.52774 0.4483 0.76398 0.0
C458 C 0.54229 0.44688 0.75096 0.0
C459 C 0.49765 0.40577 0.77871 0.0
C460 C 0.47504 0.42728 0.76019 0.0
H461 H 0.62758 0.55107 0.77176 0.0
H462 H 0.63347 0.50916 0.71845 0.0
H463 H 0.56795 0.49078 0.718 0.0
H464 H 0.55077 0.45406 0.71557 0.0
H465 H 0.58422 0.4739 0.70798 0.0
H466 H 0.619 0.46359 0.74273 0.0
H467 H 0.60315 0.44967 0.72234 0.0
H468 H 0.58518 0.43447 0.73992 0.0
H469 H 0.56308 0.5367 0.81736 0.0
H470 H 0.48071 0.46437 0.81653 0.0
H471 H 0.48748 0.44472 0.7918 0.0
H472 H 0.59573 0.50458 0.80542 0.0
H473 H 0.60955 0.5415 0.80675 0.0
H474 H 0.61794 0.52407 0.7909 0.0
H475 H 0.55662 0.54182 0.77796 0.0
H476 H 0.58835 0.55038 0.77004 0.0
H477 H 0.58865 0.56238 0.79085 0.0
H478 H 0.66661 0.57759 0.75636 0.0
C479 C 0.62813 0.54142 0.76027 0.0
C480 C 0.6431 0.12452 0.73795 0.0
C481 C 0.66345 0.11886 0.74465 0.0
C482 C 0.6586 0.10582 0.75934 0.0
C483 C 0.61463 0.1051 0.76036 0.0
C484 C 0.6189 0.11711 0.7458 0.0
C485 C 0.5946 0.11997 0.73956 0.0
H486 H 0.46566 0.10051 0.74754 0.0
C487 C 0.58726 0.09998 0.76526 0.0
C488 C 0.5753 0.10829 0.75295 0.0
H489 H 0.51708 0.13256 0.70773 0.0
H490 H 0.55338 0.12803 0.72179 0.0
H491 H 0.47954 0.05168 0.75377 0.0
H492 H 0.51709 0.13571 0.77638 0.0
H493 H 0.51417 0.11402 0.79172 0.0
H494 H 0.48299 0.10896 0.78037 0.0
H495 H 0.46155 0.06279 0.76695 0.0
H496 H 0.48446 0.05125 0.77501 0.0
C497 C 0.58189 0.1018 0.723 0.0
C498 C 0.60512 0.15132 0.73867 0.0
C499 C 0.55596 0.06392 0.82023 0.0
C500 C 0.5321 0.05783 0.8283 0.0
C501 C 0.51099 0.06114 0.82023 0.0
C502 C 0.51365 0.07051 0.8046 0.0
C503 C 0.5377 0.0767 0.79679 0.0
C504 C 0.55831 0.07326 0.8046 0.0
C505 C 0.5823 0.08055 0.79438 0.0
C506 C 0.57303 0.0896 0.77935 0.0
C507 C 0.54679 0.08721 0.78078 0.0
C508 C 0.58394 0.05396 0.7903 0.0
C509 C 0.60906 0.10485 0.80384 0.0
C510 C 0.48482 0.10666 0.74192 0.0
C511 C 0.48824 0.11655 0.72634 0.0
C512 C 0.51354 0.12429 0.7195 0.0
C513 C 0.53474 0.12176 0.72775 0.0
C514 C 0.53085 0.11133 0.74309 0.0
C515 C 0.50633 0.10414 0.75002 0.0
C516 C 0.50621 0.09356 0.76651 0.0
C517 C 0.53437 0.09496 0.76805 0.0
C518 C 0.54865 0.10549 0.75428 0.0
C519 C 0.48159 0.06328 0.76568 0.0
C520 C 0.50485 0.11387 0.77951 0.0
H521 H 0.63228 0.0894 0.77835 0.0
H522 H 0.64576 0.13463 0.72683 0.0
H523 H 0.62029 0.16396 0.74936 0.0
H524 H 0.5883 0.15638 0.73908 0.0
H525 H 0.61582 0.1587 0.72747 0.0
H526 H 0.5858 0.08406 0.72221 0.0
H527 H 0.59101 0.11411 0.71257 0.0
H528 H 0.55889 0.09185 0.72124 0.0
H529 H 0.57241 0.06122 0.8259 0.0
H530 H 0.49253 0.05695 0.82615 0.0
H531 H 0.49689 0.07267 0.79921 0.0
H532 H 0.56295 0.03493 0.78961 0.0
H533 H 0.59765 0.05186 0.79975 0.0
H534 H 0.59131 0.05333 0.77819 0.0
H535 H 0.60476 0.12093 0.80921 0.0
H536 H 0.62609 0.11577 0.79604 0.0
H537 H 0.61681 0.09741 0.81399 0.0
H538 H 0.67315 0.10027 0.7647 0.0
C539 C 0.63455 0.09916 0.76724 0.0
C540 C 0.82984 0.53956 0.95056 0.0
C541 C 0.8548 0.54344 0.94481 0.0
C542 C 0.86153 0.55354 0.92939 0.0
C543 C 0.81872 0.55528 0.9258 0.0
C544 C 0.81225 0.5455 0.94091 0.0
C545 C 0.78483 0.54198 0.94524 0.0
H546 H 0.66694 0.54533 0.92537 0.0
C547 C 0.79568 0.559 0.91887 0.0
C548 C 0.7758 0.55121 0.93023 0.0
H549 H 0.69189 0.52154 0.96951 0.0
H550 H 0.7353 0.53218 0.95939 0.0
H551 H 0.72993 0.60099 0.92284 0.0
H552 H 0.69113 0.51683 0.89982 0.0
H553 H 0.70669 0.54074 0.88526 0.0
H554 H 0.67829 0.5398 0.89526 0.0
H555 H 0.70071 0.58729 0.90757 0.0
H556 H 0.73595 0.60168 0.90208 0.0
C557 C 0.79057 0.56187 0.96075 0.0
C558 C 0.76495 0.5107 0.9471 0.0
C559 C 0.80011 0.59357 0.86278 0.0
C560 C 0.78222 0.59887 0.85279 0.0
C561 C 0.75718 0.59473 0.85875 0.0
C562 C 0.74999 0.58513 0.8742 0.0
C563 C 0.76802 0.57963 0.88392 0.0
C564 C 0.79268 0.58405 0.87812 0.0
C565 C 0.80953 0.57731 0.88996 0.0
C566 C 0.79108 0.56815 0.90386 0.0
C567 C 0.76662 0.56939 0.90033 0.0
C568 C 0.83775 0.60431 0.89514 0.0
C569 C 0.81224 0.5532 0.88172 0.0
C570 C 0.6819 0.54258 0.93283 0.0
C571 C 0.67559 0.53199 0.94818 0.0
C572 C 0.69575 0.5289 0.95751 0.0
C573 C 0.72116 0.53527 0.95162 0.0
C574 C 0.72688 0.54496 0.93616 0.0
C575 C 0.70767 0.54886 0.92705 0.0
C576 C 0.71805 0.55977 0.91093 0.0
C577 C 0.7463 0.56123 0.91188 0.0
C578 C 0.75111 0.5524 0.92673 0.0
C579 C 0.72123 0.58891 0.91067 0.0
C580 C 0.69749 0.53836 0.89699 0.0
H581 H 0.84999 0.56699 0.90827 0.0
H582 H 0.82411 0.53222 0.96241 0.0
H583 H 0.76896 0.49732 0.93845 0.0
H584 H 0.74271 0.50391 0.9441 0.0
H585 H 0.76787 0.50562 0.95963 0.0
H586 H 0.81144 0.581 0.96117 0.0
H587 H 0.79016 0.55172 0.97203 0.0
H588 H 0.77575 0.56962 0.96111 0.0
H589 H 0.81973 0.59693 0.8588 0.0
H590 H 0.74285 0.59841 0.85133 0.0
H591 H 0.73057 0.58216 0.87796 0.0
H592 H 0.83487 0.62268 0.89629 0.0
H593 H 0.85292 0.60806 0.886 0.0
H594 H 0.84723 0.60422 0.90726 0.0
H595 H 0.79292 0.53843 0.87377 0.0
H596 H 0.81485 0.54033 0.89057 0.0
H597 H 0.82992 0.56117 0.87398 0.0
H598 H 0.88041 0.55644 0.92451 0.0
C599 C 0.8437 0.5595 0.91989 0.0
C600 C 0.42386 0.14173 0.95301 0.0
C601 C 0.42103 0.1174 0.945 0.0
C602 C 0.40622 0.10766 0.92935 0.0
C603 C 0.39895 0.14703 0.92962 0.0
C604 C 0.41262 0.15605 0.94516 0.0
C605 C 0.41433 0.18252 0.95188 0.0
H606 H 0.39343 0.28986 0.9401 0.0
C607 C 0.39096 0.16737 0.92467 0.0
C608 C 0.39966 0.18804 0.93775 0.0
H609 H 0.43274 0.2771 0.98293 0.0
H610 H 0.42233 0.23247 0.97041 0.0
H611 H 0.42169 0.26985 0.9148 0.0
H612 H 0.34142 0.22704 0.93349 0.0
H613 H 0.33619 0.21534 0.91268 0.0
H614 H 0.34912 0.25168 0.91868 0.0
H615 H 0.39392 0.27623 0.90899 0.0
H616 H 0.39735 0.24921 0.89827 0.0
C617 C 0.44561 0.20522 0.95509 0.0
C618 C 0.39796 0.17646 0.96719 0.0
C619 C 0.34883 0.15861 0.86674 0.0
C620 C 0.34102 0.17541 0.85841 0.0
C621 C 0.34255 0.1987 0.86711 0.0
C622 C 0.35244 0.20564 0.88366 0.0
C623 C 0.36113 0.18926 0.89165 0.0
C624 C 0.35881 0.16592 0.88329 0.0
C625 C 0.36899 0.15098 0.89384 0.0
C626 C 0.3782 0.16949 0.90982 0.0
C627 C 0.37369 0.19195 0.9084 0.0
C628 C 0.39388 0.1511 0.88616 0.0
C629 C 0.34404 0.12157 0.89547 0.0
C630 C 0.39983 0.27748 0.94678 0.0
C631 C 0.41409 0.28715 0.9625 0.0
C632 C 0.42154 0.27008 0.97087 0.0
C633 C 0.41569 0.24424 0.96351 0.0
C634 C 0.4024 0.23539 0.94755 0.0
C635 C 0.39435 0.25174 0.93956 0.0
C636 C 0.38089 0.23926 0.92257 0.0
C637 C 0.38233 0.21276 0.92165 0.0
C638 C 0.39506 0.21069 0.93627 0.0
C639 C 0.39913 0.2596 0.91042 0.0
C640 C 0.35035 0.23311 0.92164 0.0
H641 H 0.38439 0.11397 0.90969 0.0
H642 H 0.43527 0.14997 0.96496 0.0
H643 H 0.37973 0.1549 0.96586 0.0
H644 H 0.38887 0.18993 0.96921 0.0
H645 H 0.41138 0.17861 0.97832 0.0
H646 H 0.45785 0.20285 0.94552 0.0
H647 H 0.45477 0.20382 0.96708 0.0
H648 H 0.44932 0.22652 0.9546 0.0
H649 H 0.34802 0.14064 0.86039 0.0
H650 H 0.33616 0.21166 0.86106 0.0
H651 H 0.35332 0.22375 0.88952 0.0
H652 H 0.40768 0.17161 0.88164 0.0
H653 H 0.38646 0.13496 0.87565 0.0
H654 H 0.40754 0.14792 0.89491 0.0
H655 H 0.32403 0.12166 0.89503 0.0
H656 H 0.34555 0.11382 0.90732 0.0
H657 H 0.34202 0.10637 0.88543 0.0
H658 H 0.4032 0.08866 0.92302 0.0
C659 C 0.39517 0.12231 0.92164 0.0
C660 C 0.69687 0.15903 0.94776 0.0
C661 C 0.67657 0.1318 0.9415 0.0
C662 C 0.68133 0.12015 0.9272 0.0
C663 C 0.72561 0.1624 0.92583 0.0
C664 C 0.72116 0.17364 0.93993 0.0
C665 C 0.74531 0.20202 0.94571 0.0
H666 H 0.8747 0.30722 0.93648 0.0
C667 C 0.75322 0.18297 0.92095 0.0
C668 C 0.76492 0.20608 0.93271 0.0
H669 H 0.82236 0.30082 0.97486 0.0
H670 H 0.78608 0.25623 0.96219 0.0
H671 H 0.8625 0.24621 0.93476 0.0
H672 H 0.82529 0.28452 0.90719 0.0
H673 H 0.82788 0.26116 0.89326 0.0
H674 H 0.8592 0.28958 0.90416 0.0
H675 H 0.87926 0.2675 0.91879 0.0
H676 H 0.85545 0.23054 0.91471 0.0
C677 C 0.75759 0.20053 0.96276 0.0
C678 C 0.73485 0.22308 0.94539 0.0
C679 C 0.78832 0.16483 0.86824 0.0
C680 C 0.81364 0.1803 0.86128 0.0
C681 C 0.83445 0.20591 0.86941 0.0
C682 C 0.83025 0.21613 0.88418 0.0
C683 C 0.80497 0.20061 0.89103 0.0
C684 C 0.78455 0.17529 0.88322 0.0
C685 C 0.75956 0.16136 0.89289 0.0
C686 C 0.76812 0.18299 0.90743 0.0
C687 C 0.79472 0.20589 0.90616 0.0
C688 C 0.75694 0.13391 0.89804 0.0
C689 C 0.73368 0.15741 0.88237 0.0
C690 C 0.85531 0.29635 0.94206 0.0
C691 C 0.85147 0.30752 0.95674 0.0
C692 C 0.82602 0.29248 0.96369 0.0
C693 C 0.80491 0.26662 0.95627 0.0
C694 C 0.80923 0.25555 0.94173 0.0
C695 C 0.83401 0.27047 0.93482 0.0
C696 C 0.8349 0.25553 0.91933 0.0
C697 C 0.80667 0.22901 0.91818 0.0
C698 C 0.79177 0.22915 0.93132 0.0
C699 C 0.85935 0.24971 0.92185 0.0
C700 C 0.83713 0.27354 0.90518 0.0
H701 H 0.70789 0.12531 0.90851 0.0
H702 H 0.69406 0.169 0.95854 0.0
H703 H 0.71922 0.21756 0.93473 0.0
H704 H 0.75159 0.24445 0.94398 0.0
H705 H 0.72471 0.2233 0.9566 0.0
H706 H 0.75535 0.17971 0.96382 0.0
H707 H 0.74671 0.20425 0.97264 0.0
H708 H 0.78025 0.21526 0.96516 0.0
H709 H 0.7721 0.14494 0.86231 0.0
H710 H 0.85397 0.21828 0.8642 0.0
H711 H 0.84694 0.23581 0.88966 0.0
H712 H 0.77777 0.13564 0.89982 0.0
H713 H 0.74393 0.1163 0.88861 0.0
H714 H 0.74824 0.12856 0.9099 0.0
H715 H 0.73872 0.17672 0.87657 0.0
H716 H 0.71598 0.15303 0.88953 0.0
H717 H 0.7266 0.14027 0.87248 0.0
H718 H 0.66657 0.09905 0.92219 0.0
C719 C 0.70557 0.13533 0.91931 0.0
C720 C 0.57178 0.85628 0.05229 0.0
C721 C 0.57361 0.88058 0.05958 0.0
C722 C 0.58714 0.89097 0.0755 0.0
C723 C 0.59656 0.85305 0.07653 0.0
C724 C 0.58337 0.84297 0.06092 0.0
C725 C 0.58301 0.81688 0.0549 0.0
H726 H 0.60761 0.71324 0.07063 0.0
C727 C 0.60627 0.83428 0.08206 0.0
C728 C 0.59854 0.81316 0.06936 0.0
H729 H 0.56651 0.72123 0.02688 0.0
H730 H 0.57692 0.76679 0.03773 0.0
H731 H 0.65954 0.77493 0.07389 0.0
H732 H 0.58206 0.73707 0.0957 0.0
H733 H 0.60883 0.75796 0.11121 0.0
H734 H 0.60965 0.72975 0.10012 0.0
H735 H 0.65533 0.75665 0.09168 0.0
H736 H 0.66704 0.79341 0.09319 0.0
C737 C 0.59929 0.82262 0.03956 0.0
C738 C 0.55209 0.79313 0.05201 0.0
C739 C 0.65293 0.8496 0.13969 0.0
C740 C 0.66407 0.8353 0.14788 0.0
C741 C 0.66433 0.81282 0.13938 0.0
C742 C 0.65305 0.80419 0.12314 0.0
C743 C 0.64121 0.81804 0.11525 0.0
C744 C 0.64184 0.84076 0.12334 0.0
C745 C 0.62929 0.85351 0.11261 0.0
C746 C 0.62044 0.8342 0.09694 0.0
C747 C 0.62716 0.81329 0.09873 0.0
C748 C 0.65245 0.88347 0.11026 0.0
C749 C 0.6039 0.85174 0.12053 0.0
C750 C 0.60132 0.72503 0.06327 0.0
C751 C 0.58589 0.7135 0.04799 0.0
C752 C 0.57795 0.72947 0.03883 0.0
C753 C 0.584 0.75591 0.04516 0.0
C754 C 0.59803 0.76649 0.06085 0.0
C755 C 0.60706 0.75142 0.06945 0.0
C756 C 0.62157 0.76587 0.08595 0.0
C757 C 0.61896 0.79171 0.08603 0.0
C758 C 0.605 0.79184 0.07136 0.0
C759 C 0.65243 0.773 0.08635 0.0
C760 C 0.60493 0.74678 0.09903 0.0
H761 H 0.60855 0.88623 0.09607 0.0
H762 H 0.56183 0.84793 0.04002 0.0
H763 H 0.53943 0.79563 0.06124 0.0
H764 H 0.54935 0.77235 0.05334 0.0
H765 H 0.54261 0.79303 0.03976 0.0
H766 H 0.61701 0.84444 0.04057 0.0
H767 H 0.58558 0.81945 0.02835 0.0
H768 H 0.60904 0.80967 0.03792 0.0
H769 H 0.6528 0.86719 0.14587 0.0
H770 H 0.67255 0.80132 0.14546 0.0
H771 H 0.65351 0.78668 0.11747 0.0
H772 H 0.67317 0.88494 0.11019 0.0
H773 H 0.6541 0.89857 0.12026 0.0
H774 H 0.64925 0.89029 0.0984 0.0
H775 H 0.59159 0.83129 0.12547 0.0
H776 H 0.58904 0.85327 0.11181 0.0
H777 H 0.61075 0.86824 0.13079 0.0
H778 H 0.58856 0.90949 0.08147 0.0
C779 C 0.59863 0.87737 0.08399 0.0
C780 C 0.31236 0.86793 0.07039 0.0
C781 C 0.33278 0.8942 0.07785 0.0
C782 C 0.32874 0.90335 0.09325 0.0
C783 C 0.2849 0.86008 0.09351 0.0
C784 C 0.2888 0.85139 0.07835 0.0
C785 C 0.26569 0.82277 0.07208 0.0
H786 H 0.14791 0.705 0.08409 0.0
C787 C 0.25852 0.83738 0.09855 0.0
C788 C 0.24727 0.81553 0.08599 0.0
H789 H 0.1946 0.72378 0.0417 0.0
H790 H 0.22678 0.76974 0.05432 0.0
H791 H 0.20093 0.73523 0.11133 0.0
H792 H 0.14878 0.76232 0.08785 0.0
H793 H 0.1575 0.77807 0.10796 0.0
H794 H 0.13772 0.74059 0.1043 0.0
H795 H 0.16506 0.722 0.11495 0.0
H796 H 0.19281 0.75294 0.12641 0.0
C797 C 0.27846 0.80371 0.07003 0.0
C798 C 0.25094 0.82504 0.05618 0.0
C799 C 0.22547 0.84682 0.15379 0.0
C800 C 0.20183 0.82892 0.16155 0.0
C801 C 0.18222 0.80275 0.1534 0.0
C802 C 0.18604 0.79445 0.13788 0.0
C803 C 0.20977 0.81243 0.13032 0.0
C804 C 0.22894 0.83821 0.13819 0.0
C805 C 0.25269 0.85461 0.12808 0.0
C806 C 0.24453 0.8344 0.1129 0.0
C807 C 0.21946 0.80965 0.11438 0.0
C808 C 0.28008 0.85998 0.13752 0.0
C809 C 0.25239 0.88135 0.1243 0.0
C810 C 0.16494 0.71908 0.07747 0.0
C811 C 0.16885 0.71048 0.06193 0.0
C812 C 0.19141 0.72954 0.05382 0.0
C813 C 0.21001 0.75638 0.06113 0.0
C814 C 0.20612 0.76448 0.07675 0.0
C815 C 0.18369 0.7461 0.08457 0.0
C816 C 0.18253 0.7587 0.10093 0.0
C817 C 0.20828 0.7875 0.10171 0.0
C818 C 0.22203 0.79059 0.08756 0.0
C819 C 0.18528 0.74136 0.11419 0.0
C820 C 0.1552 0.7599 0.1004 0.0
H821 H 0.3031 0.89453 0.1128 0.0
H822 H 0.31493 0.85998 0.05872 0.0
H823 H 0.25159 0.84534 0.05652 0.0
H824 H 0.22845 0.80929 0.05436 0.0
H825 H 0.26114 0.82336 0.04531 0.0
H826 H 0.29562 0.8095 0.07979 0.0
H827 H 0.28731 0.8055 0.0581 0.0
H828 H 0.26343 0.78162 0.07117 0.0
H829 H 0.24082 0.86715 0.15965 0.0
H830 H 0.16407 0.78838 0.15917 0.0
H831 H 0.17043 0.77422 0.13243 0.0
H832 H 0.2766 0.8414 0.14369 0.0
H833 H 0.28804 0.87778 0.14705 0.0
H834 H 0.29668 0.86388 0.12951 0.0
H835 H 0.23059 0.87706 0.12205 0.0
H836 H 0.26222 0.88972 0.1131 0.0
H837 H 0.26291 0.89779 0.13467 0.0
H838 H 0.34399 0.92363 0.09922 0.0
C839 C 0.30492 0.88646 0.1011 0.0
C840 C 0.29613 0.44747 0.06769 0.0
C841 C 0.31885 0.44525 0.07434 0.0
C842 C 0.31857 0.43842 0.09067 0.0
C843 C 0.27346 0.43478 0.09276 0.0
C844 C 0.27422 0.44278 0.07715 0.0
C845 C 0.25001 0.44673 0.07229 0.0
H846 H 0.12965 0.44057 0.09009 0.0
C847 C 0.24745 0.43098 0.09914 0.0
C848 C 0.23393 0.43849 0.08726 0.0
H849 H 0.17548 0.47203 0.04812 0.0
H850 H 0.20985 0.46087 0.05819 0.0
H851 H 0.13541 0.38807 0.09059 0.0
H852 H 0.18439 0.46891 0.11698 0.0
H853 H 0.17766 0.44377 0.13079 0.0
H854 H 0.14889 0.44461 0.12022 0.0
H855 H 0.12474 0.39721 0.10893 0.0
H856 H 0.14719 0.3824 0.10938 0.0
C857 C 0.23312 0.4264 0.05702 0.0
C858 C 0.26163 0.47788 0.06977 0.0
C859 C 0.21727 0.38787 0.15282 0.0
C860 C 0.19254 0.37901 0.16051 0.0
C861 C 0.17182 0.38394 0.15362 0.0
C862 C 0.17537 0.39715 0.13927 0.0
C863 C 0.19983 0.40538 0.13151 0.0
C864 C 0.2203 0.40068 0.13823 0.0
C865 C 0.24437 0.40996 0.1278 0.0
C866 C 0.23465 0.42051 0.11364 0.0
C867 C 0.20869 0.41806 0.11605 0.0
C868 C 0.24658 0.38422 0.12225 0.0
C869 C 0.27099 0.43363 0.13776 0.0
C870 C 0.14725 0.44537 0.08315 0.0
C871 C 0.14968 0.45722 0.06824 0.0
C872 C 0.17274 0.46257 0.0595 0.0
C873 C 0.19292 0.45634 0.06546 0.0
C874 C 0.1903 0.44476 0.08042 0.0
C875 C 0.16773 0.43943 0.08899 0.0
C876 C 0.16838 0.42698 0.10464 0.0
C877 C 0.19556 0.42665 0.1043 0.0
C878 C 0.20817 0.43689 0.09003 0.0
C879 C 0.14259 0.3972 0.10349 0.0
C880 C 0.16973 0.44688 0.119 0.0
H881 H 0.29714 0.42774 0.11202 0.0
H882 H 0.29505 0.45262 0.05532 0.0
H883 H 0.28235 0.49144 0.0768 0.0
H884 H 0.2483 0.48582 0.07432 0.0
H885 H 0.26429 0.48155 0.05672 0.0
H886 H 0.23052 0.40552 0.05842 0.0
H887 H 0.24398 0.43399 0.0459 0.0
H888 H 0.21178 0.42294 0.05494 0.0
H889 H 0.23346 0.38416 0.15779 0.0
H890 H 0.15274 0.37752 0.15939 0.0
H891 H 0.15876 0.40022 0.1347 0.0
H892 H 0.22557 0.36624 0.11794 0.0
H893 H 0.25548 0.37801 0.13249 0.0
H894 H 0.25936 0.38748 0.11195 0.0
H895 H 0.26582 0.4463 0.14621 0.0
H896 H 0.28583 0.44864 0.12997 0.0
H897 H 0.28179 0.42519 0.14524 0.0
H898 H 0.33593 0.43761 0.09665 0.0
C899 C 0.29603 0.43296 0.09978 0.0
C900 C 0.50558 0.88094 0.27642 0.0
C901 C 0.53074 0.88738 0.26975 0.0
C902 C 0.53666 0.90112 0.25535 0.0
C903 C 0.4928 0.90093 0.2544 0.0
C904 C 0.4872 0.88809 0.26868 0.0
C905 C 0.46017 0.88359 0.27452 0.0
H906 H 0.34527 0.8965 0.26488 0.0
C907 C 0.46925 0.90518 0.24937 0.0
C908 C 0.45017 0.89529 0.26119 0.0
H909 H 0.3716 0.86471 0.30462 0.0
H910 H 0.41179 0.87226 0.29131 0.0
H911 H 0.40772 0.94852 0.26 0.0
H912 H 0.36162 0.86514 0.23564 0.0
H913 H 0.3775 0.88891 0.22111 0.0
H914 H 0.35132 0.89046 0.23239 0.0
H915 H 0.37593 0.93631 0.24704 0.0
H916 H 0.40904 0.94968 0.23871 0.0
C917 C 0.46696 0.90079 0.29131 0.0
C918 C 0.44032 0.85189 0.27479 0.0
C919 C 0.46888 0.94615 0.19588 0.0
C920 C 0.44974 0.95146 0.18725 0.0
C921 C 0.42484 0.94542 0.19418 0.0
C922 C 0.41922 0.93442 0.2094 0.0
C923 C 0.43858 0.92914 0.21783 0.0
C924 C 0.46288 0.93496 0.21095 0.0
C925 C 0.48086 0.92747 0.22127 0.0
C926 C 0.46348 0.91616 0.23548 0.0
C927 C 0.4387 0.91725 0.23355 0.0
C928 C 0.50902 0.95446 0.2267 0.0
C929 C 0.48355 0.90471 0.21125 0.0
C930 C 0.35966 0.89105 0.27063 0.0
C931 C 0.35529 0.8803 0.28601 0.0
C932 C 0.37463 0.87354 0.29302 0.0
C933 C 0.39801 0.87785 0.28521 0.0
C934 C 0.40247 0.88912 0.27012 0.0
C935 C 0.38345 0.89542 0.26296 0.0
C936 C 0.39201 0.90732 0.24682 0.0
C937 C 0.41952 0.90766 0.24575 0.0
C938 C 0.42534 0.89679 0.25945 0.0
C939 C 0.3963 0.93699 0.24805 0.0
C940 C 0.36946 0.88713 0.23319 0.0
H941 H 0.52372 0.91813 0.23674 0.0
H942 H 0.50002 0.87027 0.28738 0.0
H943 H 0.44221 0.8402 0.26402 0.0
H944 H 0.41807 0.84584 0.27403 0.0
H945 H 0.44542 0.84433 0.28592 0.0
H946 H 0.48828 0.91942 0.29244 0.0
H947 H 0.46599 0.88824 0.30151 0.0
H948 H 0.45302 0.90934 0.29312 0.0
H949 H 0.48799 0.95006 0.19086 0.0
H950 H 0.40977 0.94945 0.18789 0.0
H951 H 0.40001 0.93042 0.21403 0.0
H952 H 0.50614 0.97281 0.22819 0.0
H953 H 0.52428 0.95868 0.21756 0.0
H954 H 0.51839 0.95396 0.23877 0.0
H955 H 0.46346 0.88979 0.20399 0.0
H956 H 0.4884 0.89179 0.21892 0.0
H957 H 0.49974 0.914 0.20259 0.0
H958 H 0.55606 0.90711 0.25006 0.0
C959 C 0.51788 0.90779 0.24766 0.0
C960 C 0.09628 0.4702 0.29318 0.0
C961 C 0.09552 0.44679 0.28544 0.0
C962 C 0.08328 0.43751 0.2692 0.0
C963 C 0.07508 0.47634 0.26841 0.0
C964 C 0.08623 0.48464 0.2845 0.0
C965 C 0.0878 0.51113 0.29081 0.0
H966 H 0.0837 0.62588 0.27549 0.0
C967 C 0.06844 0.49728 0.26272 0.0
C968 C 0.07587 0.51761 0.27585 0.0
H969 H 0.1083 0.60564 0.32112 0.0
H970 H 0.09407 0.55978 0.309 0.0
H971 H 0.10759 0.59743 0.25153 0.0
H972 H 0.02657 0.5682 0.26833 0.0
H973 H 0.02039 0.55063 0.24886 0.0
H974 H 0.03683 0.58812 0.25109 0.0
H975 H 0.08519 0.61105 0.24636 0.0
H976 H 0.0822 0.58141 0.23464 0.0
C977 C 0.11906 0.53307 0.29559 0.0
C978 C 0.06884 0.50483 0.30497 0.0
C979 C 0.0317 0.49043 0.20359 0.0
C980 C 0.02503 0.50777 0.19494 0.0
C981 C 0.02723 0.53158 0.20339 0.0
C982 C 0.03662 0.53849 0.21999 0.0
C983 C 0.04404 0.52152 0.22832 0.0
C984 C 0.04108 0.49767 0.22025 0.0
C985 C 0.04964 0.48203 0.2313 0.0
C986 C 0.05798 0.50037 0.24731 0.0
C987 C 0.05501 0.52367 0.24537 0.0
C988 C 0.07479 0.48136 0.22456 0.0
C989 C 0.0239 0.45297 0.23241 0.0
C990 C 0.08568 0.61143 0.28293 0.0
C991 C 0.09779 0.61964 0.29919 0.0
C992 C 0.09981 0.60012 0.30844 0.0
C993 C 0.0914 0.57342 0.30139 0.0
C994 C 0.081 0.56611 0.28487 0.0
C995 C 0.07735 0.58458 0.27606 0.0
C996 C 0.06501 0.57266 0.2588 0.0
C997 C 0.06317 0.5445 0.25856 0.0
C998 C 0.07294 0.54109 0.27379 0.0
C999 C 0.08588 0.59157 0.24711 0.0
C1000 C 0.03577 0.56985 0.25651 0.0
H1001 H 0.06436 0.44445 0.24823 0.0
H1002 H 0.10507 0.47755 0.30574 0.0
H1003 H 0.0509 0.48312 0.30322 0.0
H1004 H 0.0591 0.51794 0.30566 0.0
H1005 H 0.0806 0.50741 0.3169 0.0
H1006 H 0.13261 0.5303 0.28714 0.0
H1007 H 0.12591 0.5312 0.30814 0.0
H1008 H 0.12395 0.55468 0.29472 0.0
H1009 H 0.0303 0.47203 0.19746 0.0
H1010 H 0.02164 0.54494 0.19713 0.0
H1011 H 0.03806 0.557 0.22564 0.0
H1012 H 0.08903 0.5014 0.21968 0.0
H1013 H 0.06771 0.46453 0.21448 0.0
H1014 H 0.08796 0.47875 0.23399 0.0
H1015 H 0.00468 0.45438 0.23298 0.0
H1016 H 0.02547 0.44356 0.24356 0.0
H1017 H 0.02057 0.43852 0.22157 0.0
H1018 H 0.08244 0.41944 0.26298 0.0
C1019 C 0.073 0.45216 0.26065 0.0
C1020 C 0.3646 0.47768 0.28033 0.0
C1021 C 0.34198 0.45239 0.27304 0.0
C1022 C 0.34356 0.4427 0.25715 0.0
C1023 C 0.38886 0.48374 0.25589 0.0
C1024 C 0.38767 0.49289 0.27161 0.0
C1025 C 0.41323 0.52025 0.27759 0.0
H1026 H 0.53264 0.6326 0.26106 0.0
C1027 C 0.41518 0.505 0.24998 0.0
C1028 C 0.42952 0.52644 0.2627 0.0
H1029 H 0.49794 0.61496 0.30764 0.0
H1030 H 0.46004 0.57096 0.29541 0.0
H1031 H 0.52741 0.57505 0.25464 0.0
H1032 H 0.47543 0.60701 0.23781 0.0
H1033 H 0.47821 0.58802 0.22098 0.0
H1034 H 0.50928 0.61763 0.23119 0.0
H1035 H 0.53519 0.59552 0.23762 0.0
H1036 H 0.51316 0.55811 0.23504 0.0
C1037 C 0.42862 0.51568 0.29232 0.0
C1038 C 0.40395 0.54174 0.28151 0.0
C1039 C 0.43889 0.4931 0.19213 0.0
C1040 C 0.46173 0.51013 0.1835 0.0
C1041 C 0.48254 0.53628 0.19109 0.0
C1042 C 0.48107 0.54517 0.207 0.0
C1043 C 0.45851 0.52783 0.21557 0.0
C1044 C 0.43777 0.50234 0.20815 0.0
C1045 C 0.41533 0.48699 0.21929 0.0
C1046 C 0.42648 0.50725 0.23467 0.0
C1047 C 0.45171 0.53112 0.2323 0.0
C1048 C 0.41427 0.4593 0.22218 0.0
C1049 C 0.38763 0.48344 0.21142 0.0
C1050 C 0.51722 0.61931 0.26881 0.0
C1051 C 0.51849 0.62781 0.28541 0.0
C1052 C 0.49739 0.60956 0.29475 0.0
C1053 C 0.47545 0.58377 0.28767 0.0
C1054 C 0.47461 0.57579 0.27108 0.0
C1055 C 0.4956 0.59327 0.26206 0.0
C1056 C 0.49263 0.58063 0.24497 0.0
C1057 C 0.46602 0.55284 0.2451 0.0
C1058 C 0.45527 0.55031 0.2603 0.0
C1059 C 0.5184 0.57724 0.2428 0.0
C1060 C 0.48887 0.59924 0.233 0.0
H1061 H 0.36661 0.44975 0.23652 0.0
H1062 H 0.36415 0.48591 0.29245 0.0
H1063 H 0.38843 0.53997 0.27168 0.0
H1064 H 0.42123 0.56346 0.28232 0.0
H1065 H 0.39406 0.53823 0.29315 0.0
H1066 H 0.42438 0.49391 0.29167 0.0
H1067 H 0.42192 0.51992 0.30406 0.0
H1068 H 0.4516 0.52859 0.29263 0.0
H1069 H 0.42253 0.4729 0.18666 0.0
H1070 H 0.49999 0.55012 0.18464 0.0
H1071 H 0.49762 0.56529 0.21197 0.0
H1072 H 0.43567 0.46229 0.22336 0.0
H1073 H 0.40205 0.44321 0.21184 0.0
H1074 H 0.40545 0.45109 0.23364 0.0
H1075 H 0.39147 0.50224 0.20538 0.0
H1076 H 0.37276 0.48105 0.22039 0.0
H1077 H 0.37736 0.46535 0.202 0.0
H1078 H 0.32681 0.42301 0.25132 0.0
C1079 C 0.36679 0.45821 0.24856 0.0
Eu1080 Eu 0.49461 0.99212 0.99199 0.0
Eu1081 Eu 0.51556 0.03072 0.02805 0.0
C1082 C 0.48597 0.044 0.99803 0.0
C1083 C 0.48464 0.97502 0.94607 0.0
C1084 C 0.50086 0.00337 0.94382 0.0
C1085 C 0.47652 0.96413 0.91659 0.0
C1086 C 0.5049 0.01206 0.92806 0.0
C1087 C 0.47263 0.95548 0.93235 0.0
C1088 C 0.49257 0.99255 0.91421 0.0
C1089 C 0.47967 0.96581 0.96264 0.0
O1090 O 0.48096 0.98792 0.03148 0.0
O1091 O 0.45684 0.97669 0.00632 0.0
C1092 C 0.45745 0.97434 0.02209 0.0
O1093 O 0.50725 0.96933 0.00922 0.0
O1094 O 0.50489 0.04959 0.04824 0.0
O1095 O 0.5441 0.05023 0.05034 0.0
O1096 O 0.53911 0.00783 0.02604 0.0
C1097 C 0.52888 0.98181 0.02028 0.0
O1098 O 0.53947 0.02507 0.99115 0.0
O1099 O 0.5468 0.05895 0.01153 0.0
O1100 O 0.48718 0.04201 0.01383 0.0
O1101 O 0.50147 0.96972 0.97184 0.0
O1102 O 0.46404 0.97266 0.97065 0.0
O1103 O 0.49469 0.0315 0.98807 0.0
C1104 C 0.52043 0.04405 0.0742 0.0
C1105 C 0.50495 0.01535 0.07566 0.0
C1106 C 0.52277 0.05275 0.10368 0.0
C1107 C 0.49806 0.00541 0.09098 0.0
C1108 C 0.5293 0.06266 0.08832 0.0
C1109 C 0.50694 0.02399 0.10521 0.0
C1110 C 0.52652 0.05463 0.05798 0.0
C1111 C 0.55392 0.05064 0.99827 0.0
H1112 H 0.51012 0.01881 0.95427 0.0
H1113 H 0.46701 0.9485 0.90625 0.0
H1114 H 0.51711 0.0341 0.92672 0.0
H1115 H 0.46007 0.93352 0.93382 0.0
H1116 H 0.49822 0.00066 0.06494 0.0
H1117 H 0.52978 0.06764 0.11435 0.0
H1118 H 0.48618 0.98316 0.09172 0.0
H1119 H 0.54118 0.08488 0.08748 0.0
Eu1120 Eu 0.02918 0.5204 0.9902 0.0
Eu1121 Eu 0.99207 0.50163 0.02163 0.0
C1122 C 0.97402 0.46094 0.98866 0.0
C1123 C 0.05156 0.53779 0.94772 0.0
C1124 C 0.02378 0.52597 0.94105 0.0
C1125 C 0.0673 0.55169 0.92117 0.0
C1126 C 0.01776 0.52668 0.92446 0.0
C1127 C 0.07327 0.5509 0.93776 0.0
C1128 C 0.03946 0.53929 0.91429 0.0
C1129 C 0.05798 0.53623 0.96498 0.0
O1130 O 0.03213 0.50207 0.02905 0.0
O1131 O 0.04162 0.49345 1.00345 0.0
C1132 C 0.04488 0.49351 0.01934 0.0
O1133 O 0.05603 0.55072 0.01168 0.0
O1134 O 0.97249 0.47174 0.03941 0.0
O1135 O 0.96907 0.50876 0.04008 0.0
O1136 O 0.02062 0.54796 0.02574 0.0
C1137 C 0.0468 0.56132 0.02261 0.0
O1138 O 1.00098 0.53854 0.98869 0.0
O1139 O 0.96523 0.50721 1.00226 0.0
O1140 O 0.97731 0.46301 1.00465 0.0
O1141 O 0.05546 0.5532 0.97533 0.0
O1142 O 0.04729 0.51124 0.96966 0.0
O1143 O 0.98831 0.48248 0.98048 0.0
C1144 C 0.97383 0.49262 0.06512 0.0
C1145 C 1.00204 0.51037 0.0707 0.0
C1146 C 0.96295 0.48414 0.09306 0.0
C1147 C 0.01067 0.51507 0.08738 0.0
C1148 C 0.95434 0.47949 0.07635 0.0
C1149 C 0.99122 0.50203 0.09876 0.0
C1150 C 0.96497 0.48721 0.04757 0.0
C1151 C 0.97482 0.52642 0.99198 0.0
H1152 H 0.00677 0.51582 0.94863 0.0
H1153 H 0.08447 0.56188 0.91372 0.0
H1154 H 0.99611 0.51663 0.91952 0.0
H1155 H 0.09484 0.5603 0.94279 0.0
H1156 H 0.01741 0.52047 0.06214 0.0
H1157 H 0.94745 0.47404 0.10153 0.0
H1158 H 0.03263 0.52864 0.09135 0.0
H1159 H 0.93249 0.46565 0.07219 0.0
Eu1160 Eu 0.50388 0.49412 0.01814 0.0
Eu1161 Eu 0.47863 0.50792 0.98494 0.0
C1162 C 0.50774 0.55301 0.01501 0.0
C1163 C 0.5166 0.48586 0.06254 0.0
C1164 C 0.49819 0.49497 0.06686 0.0
C1165 C 0.52391 0.47959 0.09094 0.0
C1166 C 0.49278 0.49653 0.08314 0.0
C1167 C 0.52928 0.47802 0.07464 0.0
C1168 C 0.50571 0.48902 0.09541 0.0
C1169 C 0.52218 0.48405 0.04542 0.0
O1170 O 0.52511 0.52644 0.98398 0.0
O1171 O 0.5319 0.4964 0.99869 0.0
C1172 C 0.53954 0.51436 0.98767 0.0
O1173 O 0.47394 0.4531 1.00392 0.0
O1174 O 0.48246 0.53876 0.96856 0.0
O1175 O 0.45051 0.49553 0.96261 0.0
O1176 O 0.47835 0.46811 0.97848 0.0
C1177 C 0.47136 0.44808 0.98801 0.0
O1178 O 0.46529 0.49382 0.02529 0.0
O1179 O 0.44176 0.48812 1.00006 0.0
O1180 O 0.48546 0.54051 1.00458 0.0
O1181 O 0.5012 0.46513 0.03564 0.0
O1182 O 0.53539 0.50755 0.03897 0.0
O1183 O 0.52168 0.54064 0.01918 0.0
C1184 C 0.47444 0.52104 0.9412 0.0
C1185 C 0.49007 0.5082 0.93784 0.0
C1186 C 0.48145 0.53824 0.91444 0.0
C1187 C 0.50112 0.51015 0.92284 0.0
C1188 C 0.47029 0.53616 0.92946 0.0
C1189 C 0.49699 0.52522 0.91093 0.0
C1190 C 0.4642 0.52012 0.95733 0.0
C1191 C 0.44248 0.48763 0.01607 0.0
H1192 H 0.48814 0.50105 0.05765 0.0
H1193 H 0.53393 0.47331 0.10003 0.0
H1194 H 0.47896 0.50422 0.08615 0.0
H1195 H 0.54335 0.47072 0.0715 0.0
H1196 H 0.49381 0.49671 0.94686 0.0
H1197 H 0.47816 0.55029 0.90564 0.0
H1198 H 0.51256 0.4995 0.92051 0.0
H1199 H 0.45866 0.54658 0.93196 0.0
Eu1200 Eu 0.16506 0.30873 0.32391 0.0
Eu1201 Eu 0.18139 0.34886 0.3593 0.0
C1202 C 0.1454 0.3529 0.32926 0.0
C1203 C 0.16376 0.29792 0.2784 0.0
C1204 C 0.17442 0.32658 0.27789 0.0
C1205 C 0.1672 0.29358 0.24921 0.0
C1206 C 0.18183 0.33874 0.26323 0.0
C1207 C 0.16012 0.28147 0.26396 0.0
C1208 C 0.17839 0.32241 0.24871 0.0
C1209 C 0.15777 0.28569 0.29414 0.0
O1210 O 0.13894 0.31127 0.36045 0.0
O1211 O 0.13415 0.27889 0.33975 0.0
C1212 C 0.12614 0.28587 0.35306 0.0
O1213 O 0.19283 0.29837 0.33942 0.0
O1214 O 0.16882 0.37007 0.37703 0.0
O1215 O 0.20817 0.3714 0.38173 0.0
O1216 O 0.19108 0.31583 0.36512 0.0
C1217 C 0.19797 0.30132 0.35539 0.0
O1218 O 0.19744 0.35266 0.32045 0.0
O1219 O 0.2204 0.36828 0.34602 0.0
O1220 O 0.16676 0.36754 0.34026 0.0
O1221 O 0.17967 0.2929 0.30427 0.0
O1222 O 0.138 0.28669 0.30143 0.0
O1223 O 0.137 0.32684 0.32468 0.0
C1224 C 0.18129 0.36542 0.40392 0.0
C1225 C 0.16822 0.33677 0.40549 0.0
C1226 C 0.17732 0.37348 0.4327 0.0
C1227 C 0.15963 0.3265 0.42051 0.0
C1228 C 0.18582 0.38372 0.41762 0.0
C1229 C 0.16405 0.3447 0.43435 0.0
C1230 C 0.18946 0.37586 0.38789 0.0
C1231 C 0.22015 0.36905 0.33011 0.0
H1232 H 0.17714 0.3396 0.28887 0.0
H1233 H 0.16444 0.28047 0.23825 0.0
H1234 H 0.18997 0.3609 0.26324 0.0
H1235 H 0.15204 0.25934 0.26412 0.0
H1236 H 0.16449 0.3223 0.39503 0.0
H1237 H 0.18141 0.38817 0.44311 0.0
H1238 H 0.14914 0.30424 0.42118 0.0
H1239 H 0.19588 0.4059 0.41666 0.0
Eu1240 Eu 0.67898 0.83527 0.32202 0.0
Eu1241 Eu 0.6508 0.83216 0.35672 0.0
C1242 C 0.6236 0.78005 0.32904 0.0
C1243 C 0.69647 0.84382 0.27785 0.0
C1244 C 0.66875 0.82986 0.27078 0.0
C1245 C 0.71213 0.86279 0.25221 0.0
C1246 C 0.6628 0.83203 0.25441 0.0
C1247 C 0.71805 0.86044 0.26853 0.0
C1248 C 0.68446 0.84841 0.2449 0.0
C1249 C 0.70322 0.84218 0.29506 0.0
O1250 O 0.68674 0.82486 0.36291 0.0
O1251 O 0.69244 0.81103 0.33729 0.0
C1252 C 0.6972 0.81349 0.35327 0.0
O1253 O 0.71062 0.86861 0.34066 0.0
O1254 O 0.6177 0.81181 0.3729 0.0
O1255 O 0.65364 0.85239 0.38063 0.0
O1256 O 0.67966 0.87702 0.35268 0.0
C1257 C 0.70515 0.8856 0.34901 0.0
O1258 O 0.65086 0.85317 0.31736 0.0
O1259 O 0.62347 0.83923 0.33882 0.0
O1260 O 0.62919 0.78816 0.34475 0.0
O1261 O 0.70651 0.86268 0.30515 0.0
O1262 O 0.68896 0.81804 0.30076 0.0
O1263 O 0.637 0.79654 0.31795 0.0
C1264 C 0.63188 0.82309 0.40132 0.0
C1265 C 0.65734 0.83016 0.41006 0.0
C1266 C 0.60797 0.80477 0.42535 0.0
C1267 C 0.6582 0.82537 0.42649 0.0
C1268 C 0.60716 0.80975 0.40896 0.0
C1269 C 0.63359 0.81327 0.43445 0.0
C1270 C 0.63083 0.8315 0.3848 0.0
C1271 C 0.62907 0.84974 0.32471 0.0
H1272 H 0.65175 0.8172 0.27788 0.0
H1273 H 0.72925 0.87597 0.24535 0.0
H1274 H 0.6413 0.82044 0.24913 0.0
H1275 H 0.73953 0.87168 0.2739 0.0
H1276 H 0.67672 0.84034 0.4044 0.0
H1277 H 0.58858 0.79492 0.43101 0.0
H1278 H 0.67833 0.83242 0.43313 0.0
H1279 H 0.58729 0.804 0.4024 0.0
Eu1280 Eu 0.17927 0.82434 0.35692 0.0
Eu1281 Eu 0.15107 0.83676 0.32459 0.0
C1282 C 0.18924 0.88396 0.35263 0.0
C1283 C 0.1903 0.81996 0.40139 0.0
C1284 C 0.17546 0.8339 0.40397 0.0
C1285 C 0.19036 0.81273 0.43021 0.0
C1286 C 0.16848 0.83758 0.41955 0.0
C1287 C 0.19751 0.80919 0.41456 0.0
C1288 C 0.176 0.82724 0.4329 0.0
C1289 C 0.19729 0.81616 0.38482 0.0
O1290 O 0.18674 0.8326 0.31583 0.0
O1291 O 0.21393 0.84254 0.34009 0.0
C1292 C 0.2109 0.84019 0.32398 0.0
O1293 O 0.16722 0.78843 0.33824 0.0
O1294 O 0.15104 0.8661 0.30808 0.0
O1295 O 0.11998 0.82258 0.30354 0.0
O1296 O 0.13126 0.79035 0.32461 0.0
C1297 C 0.14403 0.77672 0.32844 0.0
O1298 O 0.13351 0.80652 0.35968 0.0
O1299 O 0.12423 0.83496 0.34486 0.0
O1300 O 0.18582 0.87744 0.33686 0.0
O1301 O 0.17679 0.79636 0.37511 0.0
O1302 O 0.21104 0.83888 0.37764 0.0
O1303 O 0.17986 0.86445 0.36257 0.0
C1304 C 0.13841 0.84682 0.28075 0.0
C1305 C 0.15708 0.83805 0.27645 0.0
C1306 C 0.13265 0.85499 0.25253 0.0
C1307 C 0.16344 0.83766 0.26032 0.0
C1308 C 0.12637 0.85546 0.26873 0.0
C1309 C 0.15118 0.84595 0.24813 0.0
C1310 C 0.13151 0.84672 0.29772 0.0
C1311 C 0.118 0.81753 0.35617 0.0
H1312 H 0.1693 0.842 0.3939 0.0
H1313 H 0.19658 0.80468 0.44027 0.0
H1314 H 0.15706 0.84847 0.42115 0.0
H1315 H 0.20875 0.79816 0.41276 0.0
H1316 H 0.16645 0.83116 0.28555 0.0
H1317 H 0.12306 0.86176 0.24347 0.0
H1318 H 0.17744 0.83016 0.25734 0.0
H1319 H 0.11199 0.86239 0.27185 0.0
Eu1320 Eu 0.82626 0.64033 0.65603 0.0
Eu1321 Eu 0.84108 0.67809 0.69195 0.0
C1322 C 0.81468 0.69176 0.66085 0.0
C1323 C 0.82511 0.63097 0.61075 0.0
C1324 C 0.83492 0.65958 0.61098 0.0
C1325 C 0.82659 0.62865 0.58123 0.0
C1326 C 0.84037 0.67261 0.59653 0.0
C1327 C 0.82114 0.6156 0.59578 0.0
C1328 C 0.83608 0.65732 0.58141 0.0
C1329 C 0.81982 0.61779 0.62625 0.0
O1330 O 0.79482 0.64807 0.68828 0.0
O1331 O 0.79254 0.61249 0.67156 0.0
C1332 C 0.78186 0.62181 0.68241 0.0
O1333 O 0.85354 0.63016 0.67222 0.0
O1334 O 0.8314 0.7 0.71099 0.0
O1335 O 0.86659 0.69385 0.71542 0.0
O1336 O 0.83866 0.63766 0.69615 0.0
C1337 C 0.85108 0.62708 0.68783 0.0
O1338 O 0.8609 0.68347 0.65369 0.0
O1339 O 0.88159 0.69597 0.67982 0.0
O1340 O 0.83186 0.70253 0.67428 0.0
O1341 O 0.84198 0.62581 0.63635 0.0
O1342 O 0.79933 0.61703 0.63372 0.0
O1343 O 0.80624 0.66663 0.654 0.0
C1344 C 0.83992 0.69006 0.73788 0.0
C1345 C 0.85615 0.68375 0.74861 0.0
C1346 C 0.80494 0.67556 0.75751 0.0
C1347 C 0.84682 0.67331 0.76352 0.0
C1348 C 0.81423 0.68593 0.74258 0.0
C1349 C 0.82108 0.66906 0.76819 0.0
C1350 C 0.84979 0.70082 0.72193 0.0
C1351 C 0.88306 0.69802 0.66403 0.0
H1352 H 0.83838 0.67191 0.6224 0.0
H1353 H 0.82283 0.61618 0.56982 0.0
H1354 H 0.84811 0.69476 0.59724 0.0
H1355 H 0.81372 0.59352 0.59533 0.0
H1356 H 0.87615 0.68689 0.74549 0.0
H1357 H 0.78489 0.67232 0.76058 0.0
H1358 H 0.86004 0.66898 0.77151 0.0
H1359 H 0.80115 0.6906 0.73469 0.0
Eu1360 Eu 0.35775 0.16763 0.65333 0.0
Eu1361 Eu 0.3206 0.15745 0.68479 0.0
C1362 C 0.30145 0.11094 0.65487 0.0
C1363 C 0.37798 0.17391 0.60996 0.0
C1364 C 0.35015 0.15922 0.60307 0.0
C1365 C 0.39299 0.18931 0.58351 0.0
C1366 C 0.34379 0.15935 0.58645 0.0
C1367 C 0.39933 0.18903 0.60011 0.0
C1368 C 0.36515 0.17438 0.57645 0.0
C1369 C 0.38484 0.17463 0.62749 0.0
O1370 O 0.36019 0.15956 0.69471 0.0
O1371 O 0.37156 0.14602 0.67096 0.0
C1372 C 0.37405 0.14985 0.68701 0.0
O1373 O 0.38546 0.20354 0.67169 0.0
O1374 O 0.29933 0.13127 0.70389 0.0
O1375 O 0.29735 0.16865 0.70105 0.0
O1376 O 0.35263 0.20331 0.68768 0.0
C1377 C 0.37768 0.21571 0.68255 0.0
O1378 O 0.33234 0.18844 0.64891 0.0
O1379 O 0.29602 0.16267 0.66394 0.0
O1380 O 0.30566 0.11576 0.67082 0.0
O1381 O 0.38576 0.195 0.63659 0.0
O1382 O 0.37194 0.15099 0.6339 0.0
O1383 O 0.31533 0.13078 0.64558 0.0
C1384 C 0.29882 0.15592 0.72768 0.0
C1385 C 0.32638 0.17494 0.73401 0.0
C1386 C 0.28495 0.14933 0.75519 0.0
C1387 C 0.33319 0.18111 0.75087 0.0
C1388 C 0.27814 0.14324 0.73832 0.0
C1389 C 0.31257 0.16824 0.76165 0.0
C1390 C 0.29181 0.1483 0.71005 0.0
C1391 C 0.30671 0.17969 0.6526 0.0
H1392 H 0.33334 0.14764 0.61055 0.0
H1393 H 0.4099 0.20146 0.57623 0.0
H1394 H 0.32218 0.14735 0.58139 0.0
H1395 H 0.42089 0.20079 0.6053 0.0
H1396 H 0.34265 0.18471 0.72592 0.0
H1397 H 0.26857 0.13933 0.76318 0.0
H1398 H 0.35471 0.1955 0.75548 0.0
H1399 H 0.25679 0.12843 0.73359 0.0
Eu1400 Eu 0.84867 0.15727 0.69309 0.0
Eu1401 Eu 0.82375 0.16513 0.65746 0.0
C1402 C 0.85765 0.216 0.68486 0.0
C1403 C 0.85447 0.15127 0.73819 0.0
C1404 C 0.83896 0.16447 0.74088 0.0
C1405 C 0.84941 0.13807 0.7659 0.0
C1406 C 0.82889 0.16464 0.75603 0.0
C1407 C 0.85951 0.13797 0.75074 0.0
C1408 C 0.83405 0.1515 0.76876 0.0
C1409 C 0.86385 0.14986 0.72203 0.0
O1410 O 0.86243 0.16372 0.65211 0.0
O1411 O 0.88545 0.17392 0.67798 0.0
C1412 C 0.88504 0.17137 0.66196 0.0
O1413 O 0.83994 0.12064 0.67589 0.0
O1414 O 0.82499 0.19171 0.63861 0.0
O1415 O 0.79489 0.14777 0.63533 0.0
O1416 O 0.80443 0.11923 0.65976 0.0
C1417 C 0.81768 0.10707 0.66548 0.0
O1418 O 0.80307 0.14205 0.6948 0.0
O1419 O 0.79414 0.16513 0.6752 0.0
O1420 O 0.85493 0.20767 0.66937 0.0
O1421 O 0.84529 0.12966 0.71164 0.0
O1422 O 0.87703 0.17333 0.71546 0.0
O1423 O 0.85007 0.19828 0.69595 0.0
C1424 C 0.81608 0.1691 0.61227 0.0
C1425 C 0.83224 0.1565 0.60994 0.0
C1426 C 0.81764 0.17795 0.58372 0.0
C1427 C 0.84062 0.15421 0.59457 0.0
C1428 C 0.80911 0.18011 0.59914 0.0
C1429 C 0.83316 0.16462 0.58125 0.0
C1430 C 0.80688 0.17091 0.62843 0.0
C1431 C 0.78773 0.15155 0.68831 0.0
H1432 H 0.8346 0.1746 0.73124 0.0
H1433 H 0.85339 0.12738 0.77533 0.0
H1434 H 0.81746 0.17546 0.75783 0.0
H1435 H 0.87105 0.12729 0.74878 0.0
H1436 H 0.83811 0.14816 0.61999 0.0
H1437 H 0.81143 0.18597 0.57364 0.0
H1438 H 0.85285 0.14414 0.59308 0.0
H1439 H 0.79682 0.19008 0.60076 0.0
H1440 H 0.33728 0.90173 0.04548 0.0
H1441 H 0.38638 0.92497 0.09214 0.0
H1442 H 0.42901 0.95129 0.07889 0.0
H1443 H 0.45229 0.96674 0.05418 0.0
H1444 H 0.40384 0.94356 0.00734 0.0
H1445 H 0.36092 0.91735 0.02055 0.0
C1446 C 0.35732 0.91239 0.05275 0.0
C1447 C 0.35856 0.91135 0.06981 0.0
C1448 C 0.38183 0.92717 0.04502 0.0
C1449 C 0.3847 0.92572 0.07905 0.0
C1450 C 0.40914 0.94056 0.07146 0.0
C1451 C 0.43243 0.95598 0.04679 0.0
C1452 C 0.43139 0.95716 0.02976 0.0
C1453 C 0.40793 0.94128 0.05446 0.0
C1454 C 0.40532 0.94296 0.02045 0.0
C1455 C 0.38076 0.92806 0.02801 0.0
H1456 H 0.12831 0.45078 0.03669 0.0
H1457 H 0.12339 0.47956 0.08541 0.0
H1458 H 0.08978 0.4923 0.07478 0.0
H1459 H 0.0629 0.49678 0.05145 0.0
H1460 H 0.06955 0.46932 1.00273 0.0
H1461 H 0.1016 0.45504 0.01357 0.0
C1462 C 0.12012 0.46007 0.045 0.0
C1463 C 0.12855 0.46426 0.06183 0.0
C1464 C 0.10113 0.46774 0.03879 0.0
C1465 C 0.11712 0.47577 0.07241 0.0
C1466 C 0.09801 0.48326 0.06633 0.0
C1467 C 0.07128 0.48759 0.04321 0.0
C1468 C 0.0638 0.48426 0.02627 0.0
C1469 C 0.08998 0.47952 0.04951 0.0
C1470 C 0.07495 0.47231 0.0158 0.0
C1471 C 0.09331 0.46407 0.02198 0.0
H1472 H 0.53424 0.67495 0.03462 0.0
H1473 H 0.61534 0.68609 0.04904 0.0
H1474 H 0.59792 0.63687 0.04087 0.0
H1475 H 0.55962 0.59082 0.02932 0.0
H1476 H 0.47898 0.58062 0.01442 0.0
H1477 H 0.49635 0.62944 0.02304 0.0
C1478 C 0.54825 0.66672 0.03574 0.0
C1479 C 0.57608 0.68415 0.04228 0.0
C1480 C 0.53814 0.63857 0.03103 0.0
C1481 C 0.59378 0.67303 0.04406 0.0
C1482 C 0.58385 0.64493 0.03938 0.0
C1483 C 0.54581 0.59925 0.02808 0.0
C1484 C 0.51808 0.58214 0.02124 0.0
C1485 C 0.55603 0.62749 0.03288 0.0
C1486 C 0.50047 0.59339 0.01959 0.0
C1487 C 0.51037 0.62131 0.0245 0.0
H1488 H 0.88491 0.35493 0.94277 0.0
H1489 H 0.86887 0.32044 0.98921 0.0
H1490 H 0.90562 0.36469 1.00301 0.0
H1491 H 0.94181 0.41294 1.00199 0.0
H1492 H 0.95861 0.44802 0.95571 0.0
H1493 H 0.92228 0.40349 0.9417 0.0
C1494 C 0.88965 0.35705 0.95589 0.0
C1495 C 0.87405 0.33447 0.96496 0.0
C1496 C 0.91094 0.38255 0.96376 0.0
C1497 C 0.88022 0.33763 0.98198 0.0
C1498 C 0.90135 0.36286 0.98987 0.0
C1499 C 0.93767 0.41094 0.98882 0.0
C1500 C 0.95292 0.43385 0.97993 0.0
C1501 C 0.91674 0.38545 0.98089 0.0
C1502 C 0.94721 0.43074 0.96287 0.0
C1503 C 0.9264 0.40529 0.95485 0.0
H1504 H 0.64631 0.5597 0.94817 0.0
H1505 H 0.6434 0.48543 0.96312 0.0
H1506 H 0.60175 0.47376 0.97686 0.0
H1507 H 0.56689 0.48527 0.98557 0.0
H1508 H 0.56837 0.55852 0.96997 0.0
H1509 H 0.60949 0.56979 0.95559 0.0
C1510 C 0.63631 0.54077 0.95423 0.0
C1511 C 0.64829 0.52372 0.95478 0.0
C1512 C 0.61216 0.53407 0.96217 0.0
C1513 C 0.63503 0.49927 0.96276 0.0
C1514 C 0.61112 0.49251 0.97062 0.0
C1515 C 0.57626 0.50376 0.97909 0.0
C1516 C 0.56468 0.52115 0.97904 0.0
C1517 C 0.59974 0.50996 0.97065 0.0
C1518 C 0.57687 0.54479 0.97031 0.0
C1519 C 0.60042 0.55126 0.96204 0.0
H1520 H 0.42415 0.10821 0.97707 0.0
H1521 H 0.44821 0.09413 0.93014 0.0
H1522 H 0.47054 0.07061 0.9425 0.0
H1523 H 0.48338 0.05423 0.96644 0.0
H1524 H 0.46064 0.06896 0.01366 0.0
H1525 H 0.43825 0.09274 1.00138 0.0
C1526 C 0.4345 0.10023 0.96957 0.0
C1527 C 0.4343 0.10281 0.95266 0.0
C1528 C 0.44771 0.08705 0.9768 0.0
C1529 C 0.44751 0.09198 0.94311 0.0
C1530 C 0.46053 0.07874 0.95019 0.0
C1531 C 0.47362 0.06268 0.97412 0.0
C1532 C 0.47366 0.05975 0.99096 0.0
C1533 C 0.46073 0.07615 0.967 0.0
C1534 C 0.46097 0.07095 1.00067 0.0
C1535 C 0.44808 0.08447 0.99365 0.0
H1536 H 0.67052 0.13354 0.97438 0.0
H1537 H 0.62392 0.09358 0.92758 0.0
H1538 H 0.58228 0.06554 0.94113 0.0
H1539 H 0.55924 0.05155 0.96611 0.0
H1540 H 0.60389 0.09358 0.0128 0.0
H1541 H 0.64605 0.12252 0.99932 0.0
C1542 C 0.65121 0.11914 0.96703 0.0
C1543 C 0.65075 0.11559 0.94988 0.0
C1544 C 0.62695 0.10358 0.97487 0.0
C1545 C 0.62538 0.09635 0.94077 0.0
C1546 C 0.60138 0.08045 0.9485 0.0
C1547 C 0.57818 0.06715 0.97334 0.0
C1548 C 0.57864 0.07029 0.99042 0.0
C1549 C 0.60201 0.08373 0.96552 0.0
C1550 C 0.6031 0.09086 0.99963 0.0
C1551 C 0.62718 0.10724 0.99192 0.0
H1552 H 0.91178 0.57236 0.94907 0.0
H1553 H 0.83997 0.49935 0.96307 0.0
H1554 H 0.87047 0.48843 0.97957 0.0
H1555 H 0.91773 0.49888 0.98951 0.0
H1556 H 0.98936 0.57104 0.97456 0.0
H1557 H 0.95879 0.58274 0.9589 0.0
C1558 C 0.90276 0.5539 0.9556 0.0
C1559 C 0.87355 0.53677 0.95479 0.0
C1560 C 0.92044 0.54753 0.96494 0.0
C1561 C 0.86233 0.51319 0.96361 0.0
C1562 C 0.87978 0.50681 0.97299 0.0
C1563 C 0.92665 0.51728 0.98293 0.0
C1564 C 0.95584 0.53403 0.98327 0.0
C1565 C 0.90889 0.52379 0.97373 0.0
C1566 C 0.96699 0.55769 0.97453 0.0
C1567 C 0.94951 0.56443 0.96554 0.0
H1568 H 0.43472 0.33433 0.94714 0.0
H1569 H 0.41273 0.30371 0.99419 0.0
H1570 H 0.42863 0.35087 0.00624 0.0
H1571 H 0.44915 0.40075 1.00343 0.0
H1572 H 0.47004 0.43096 0.95614 0.0
H1573 H 0.45368 0.38379 0.94412 0.0
C1574 C 0.43297 0.33786 0.95998 0.0
C1575 C 0.42252 0.31551 0.96974 0.0
C1576 C 0.44196 0.36493 0.96679 0.0
C1577 C 0.42098 0.32059 0.98644 0.0
C1578 C 0.42995 0.34752 0.99332 0.0
C1579 C 0.45012 0.39704 0.99049 0.0
C1580 C 0.4609 0.41939 0.98072 0.0
C1581 C 0.44061 0.36985 0.98363 0.0
C1582 C 0.46183 0.41416 0.96396 0.0
C1583 C 0.45252 0.38719 0.95706 0.0
H1584 H 0.11229 0.67978 0.06221 0.0
H1585 H 0.18225 0.67669 0.04411 0.0
H1586 H 0.15072 0.63051 0.03028 0.0
H1587 H 0.10333 0.59117 0.02309 0.0
H1588 H 0.03351 0.5934 0.04208 0.0
H1589 H 0.06507 0.63951 0.05606 0.0
C1590 C 0.12071 0.66888 0.05544 0.0
C1591 C 0.14961 0.68185 0.05412 0.0
C1592 C 0.10251 0.64213 0.04768 0.0
C1593 C 0.16006 0.66748 0.04508 0.0
C1594 C 0.14206 0.64097 0.03724 0.0
C1595 C 0.09499 0.60172 0.03029 0.0
C1596 C 0.06609 0.5889 0.03145 0.0
C1597 C 0.11325 0.62817 0.03838 0.0
C1598 C 0.05568 0.60278 0.04096 0.0
C1599 C 0.0737 0.62918 0.04895 0.0
H1600 H 0.33794 0.47737 0.04836 0.0
H1601 H 0.3539 0.42359 0.07746 0.0
H1602 H 0.39355 0.43287 0.06255 0.0
H1603 H 0.4241 0.45607 0.04122 0.0
H1604 H 0.40451 0.50419 0.00959 0.0
H1605 H 0.36512 0.49622 0.0251 0.0
C1606 C 0.34945 0.46701 0.05134 0.0
C1607 C 0.34264 0.45008 0.06446 0.0
C1608 C 0.37159 0.4712 0.0421 0.0
C1609 C 0.35876 0.43756 0.068 0.0
C1610 C 0.38141 0.44252 0.05928 0.0
C1611 C 0.41104 0.46463 0.03767 0.0
C1612 C 0.41719 0.48079 0.02435 0.0
C1613 C 0.38809 0.45937 0.04636 0.0
C1614 C 0.40003 0.49155 0.01974 0.0
C1615 C 0.37764 0.48712 0.02867 0.0
H1616 H 0.59704 0.93612 0.05784 0.0
H1617 H 0.52344 0.85764 0.04096 0.0
H1618 H 0.50375 0.88181 0.0263 0.0
H1619 H 0.50671 0.92555 0.0192 0.0
H1620 H 0.58005 0.00382 0.037 0.0
H1621 H 0.60042 0.97942 0.0504 0.0
C1622 C 0.57659 0.92431 0.05107 0.0
C1623 C 0.56169 0.89517 0.05058 0.0
C1624 C 0.56532 0.93831 0.0428 0.0
C1625 C 0.53545 0.88012 0.04144 0.0
C1626 C 0.52412 0.89392 0.03311 0.0
C1627 C 0.52726 0.93722 0.02587 0.0
C1628 C 0.54176 0.96645 0.02713 0.0
C1629 C 0.5388 0.92304 0.03378 0.0
C1630 C 0.56832 0.9813 0.03591 0.0
C1631 C 0.58003 0.96738 0.0436 0.0
H1632 H 0.00626 0.20543 0.37315 0.0
H1633 H 0.05094 0.23684 0.42122 0.0
H1634 H 0.09441 0.26351 0.40905 0.0
H1635 H 0.11954 0.27982 0.38487 0.0
H1636 H 0.07638 0.24601 0.33686 0.0
H1637 H 0.03261 0.21728 0.34896 0.0
C1638 C 0.02548 0.21754 0.38105 0.0
C1639 C 0.02488 0.2194 0.39817 0.0
C1640 C 0.05077 0.23223 0.37398 0.0
C1641 C 0.05029 0.23562 0.40804 0.0
C1642 C 0.07535 0.2507 0.40109 0.0
C1643 C 0.10059 0.26588 0.37708 0.0
C1644 C 0.10099 0.26511 0.36004 0.0
C1645 C 0.07575 0.24949 0.38411 0.0
C1646 C 0.0765 0.24677 0.35003 0.0
C1647 C 0.05149 0.23057 0.35695 0.0
H1648 H 0.78506 0.77634 0.37112 0.0
H1649 H 0.78165 0.80796 0.41937 0.0
H1650 H 0.7455 0.81743 0.40874 0.0
H1651 H 0.71663 0.81904 0.3854 0.0
H1652 H 0.72108 0.78786 0.33715 0.0
H1653 H 0.75506 0.77615 0.34814 0.0
C1654 C 0.77649 0.7854 0.37932 0.0
C1655 C 0.78626 0.79164 0.396 0.0
C1656 C 0.75592 0.791 0.37311 0.0
C1657 C 0.77444 0.8028 0.40649 0.0
C1658 C 0.75387 0.80838 0.4004 0.0
C1659 C 0.72486 0.8095 0.37729 0.0
C1660 C 0.71632 0.80456 0.36042 0.0
C1661 C 0.74467 0.80287 0.38368 0.0
C1662 C 0.72726 0.7921 0.35016 0.0
C1663 C 0.74678 0.78537 0.35643 0.0
H1664 H 0.24815 0.00306 0.39094 0.0
H1665 H 0.27531 0.02704 0.34343 0.0
H1666 H 0.2505 0.97813 0.33246 0.0
H1667 H 0.22004 0.92883 0.33627 0.0
H1668 H 0.19361 0.90514 0.38398 0.0
H1669 H 0.21952 0.95387 0.39503 0.0
C1670 C 0.24916 0.99759 0.37826 0.0
C1671 C 0.26363 0.01862 0.36802 0.0
C1672 C 0.23481 0.96957 0.37206 0.0
C1673 C 0.26416 0.01121 0.35153 0.0
C1674 C 0.25001 0.98329 0.34526 0.0
C1675 C 0.21989 0.93433 0.34908 0.0
C1676 C 0.20476 0.91343 0.35926 0.0
C1677 C 0.23498 0.96234 0.35538 0.0
C1678 C 0.20502 0.92085 0.37587 0.0
C1679 C 0.21985 0.94869 0.3822 0.0
H1680 H 0.51713 0.66222 0.31009 0.0
H1681 H 0.5728 0.65602 0.27768 0.0
H1682 H 0.60946 0.70266 0.28787 0.0
H1683 H 0.62578 0.74578 0.30559 0.0
H1684 H 0.5727 0.75014 0.34038 0.0
H1685 H 0.5352 0.70326 0.32998 0.0
C1686 C 0.53737 0.67067 0.30543 0.0
C1687 C 0.54168 0.6555 0.29279 0.0
C1688 C 0.55894 0.69724 0.31181 0.0
C1689 C 0.56824 0.66732 0.28693 0.0
C1690 C 0.58946 0.69399 0.29289 0.0
C1691 C 0.60599 0.73635 0.3109 0.0
C1692 C 0.60172 0.75129 0.32355 0.0
C1693 C 0.58495 0.70924 0.30518 0.0
C1694 C 0.5763 0.73887 0.33059 0.0
C1695 C 0.5549 0.71217 0.32462 0.0
H1696 H 0.3004 0.8581 0.27413 0.0
H1697 H 0.35588 0.89345 0.31847 0.0
H1698 H 0.31654 0.88385 0.3341 0.0
H1699 H 0.2661 0.86458 0.33545 0.0
H1700 H 0.21051 0.8296 0.29111 0.0
H1701 H 0.2499 0.83997 0.27538 0.0
C1702 C 0.30391 0.86399 0.28718 0.0
C1703 C 0.33114 0.87627 0.29508 0.0
C1704 C 0.28105 0.85832 0.29619 0.0
C1705 C 0.33516 0.88356 0.31205 0.0
C1706 C 0.31264 0.87815 0.32104 0.0
C1707 C 0.26255 0.85912 0.32236 0.0
C1708 C 0.2352 0.84622 0.31457 0.0
C1709 C 0.28542 0.86526 0.31329 0.0
C1710 C 0.23121 0.83958 0.29753 0.0
C1711 C 0.2538 0.8455 0.28846 0.0
H1712 H 0.07485 0.39125 0.28686 0.0
H1713 H 0.1456 0.4718 0.30383 0.0
H1714 H 0.16653 0.45 0.3196 0.0
H1715 H 0.16503 0.40815 0.32844 0.0
H1716 H 0.09512 0.32737 0.31088 0.0
H1717 H 0.07363 0.34914 0.2955 0.0
C1718 C 0.09495 0.40396 0.29389 0.0
C1719 C 0.10853 0.43306 0.29427 0.0
C1720 C 0.10698 0.39129 0.30291 0.0
C1721 C 0.1345 0.44933 0.30355 0.0
C1722 C 0.14654 0.43691 0.31253 0.0
C1723 C 0.14498 0.39532 0.32137 0.0
C1724 C 0.13167 0.36623 0.32086 0.0
C1725 C 0.13292 0.40792 0.31237 0.0
C1726 C 0.10583 0.34986 0.31148 0.0
C1727 C 0.09353 0.36227 0.30265 0.0
H1728 H 0.3389 0.44478 0.30563 0.0
H1729 H 0.28754 0.42459 0.26001 0.0
H1730 H 0.24572 0.39815 0.27381 0.0
H1731 H 0.22371 0.38031 0.29851 0.0
H1732 H 0.27409 0.40043 0.34444 0.0
H1733 H 0.31631 0.42822 0.33087 0.0
C1734 C 0.31856 0.43488 0.29872 0.0
C1735 C 0.31654 0.43654 0.28172 0.0
C1736 C 0.29441 0.41991 0.30679 0.0
C1737 C 0.28992 0.42323 0.273 0.0
C1738 C 0.26591 0.40828 0.28091 0.0
C1739 C 0.24386 0.39078 0.30564 0.0
C1740 C 0.24567 0.38811 0.32249 0.0
C1741 C 0.26793 0.40638 0.29776 0.0
C1742 C 0.27204 0.40216 0.33148 0.0
C1743 C 0.2962 0.41793 0.3237 0.0
H1744 H 0.54253 0.88642 0.30242 0.0
H1745 H 0.5641 0.87105 0.25494 0.0
H1746 H 0.59731 0.85973 0.26769 0.0
H1747 H 0.61975 0.85313 0.29231 0.0
H1748 H 0.59526 0.86471 0.33954 0.0
H1749 H 0.56335 0.87792 0.32685 0.0
C1750 C 0.55412 0.88022 0.29478 0.0
C1751 C 0.55072 0.87987 0.27766 0.0
C1752 C 0.57272 0.87293 0.30216 0.0
C1753 C 0.56653 0.87221 0.26813 0.0
C1754 C 0.58545 0.86546 0.27541 0.0
C1755 C 0.60752 0.85868 0.29983 0.0
C1756 C 0.61001 0.85805 0.31686 0.0
C1757 C 0.58873 0.86574 0.29241 0.0
C1758 C 0.59372 0.86493 0.3264 0.0
C1759 C 0.57548 0.87255 0.31915 0.0
H1760 H 0.07572 0.65326 0.29572 0.0
H1761 H 0.14674 0.65152 0.31838 0.0
H1762 H 0.16701 0.69971 0.32966 0.0
H1763 H 0.16511 0.74257 0.33267 0.0
H1764 H 0.09484 0.74493 0.30932 0.0
H1765 H 0.07405 0.69642 0.29851 0.0
C1766 C 0.09572 0.66349 0.30304 0.0
C1767 C 0.10959 0.64875 0.30627 0.0
C1768 C 0.1075 0.69135 0.30929 0.0
C1769 C 0.13534 0.66221 0.31595 0.0
C1770 C 0.14709 0.68985 0.3223 0.0
C1771 C 0.14524 0.73251 0.32523 0.0
C1772 C 0.13159 0.74739 0.32183 0.0
C1773 C 0.13339 0.70463 0.31901 0.0
C1774 C 0.10586 0.734 0.31213 0.0
C1775 C 0.0939 0.70622 0.30594 0.0
H1776 H 0.81562 0.99908 0.37121 0.0
H1777 H 0.75604 0.02168 0.38668 0.0
H1778 H 0.71761 0.9756 0.37625 0.0
H1779 H 0.70098 0.92846 0.36333 0.0
H1780 H 0.76086 0.90661 0.34732 0.0
H1781 H 0.79903 0.95297 0.35716 0.0
C1782 C 0.79424 0.99413 0.37206 0.0
C1783 C 0.78877 0.01379 0.37977 0.0
C1784 C 0.77225 0.96768 0.36598 0.0
C1785 C 0.76088 0.0068 0.381 0.0
C1786 C 0.73887 0.98049 0.37499 0.0
C1787 C 0.72238 0.93386 0.36198 0.0
C1788 C 0.72802 0.91404 0.35467 0.0
C1789 C 0.74432 0.96066 0.36761 0.0
C1790 C 0.75587 0.92144 0.3529 0.0
C1791 C 0.77777 0.94796 0.35854 0.0
H1792 H 0.01733 0.767 0.40008 0.0
H1793 H 0.01177 0.83813 0.38717 0.0
H1794 H 0.05046 0.85137 0.37027 0.0
H1795 H 0.08691 0.84329 0.35947 0.0
H1796 H 0.09281 0.77283 0.37357 0.0
H1797 H 0.05345 0.7592 0.38968 0.0
C1798 C 0.02473 0.7856 0.39375 0.0
C1799 C 0.01147 0.80145 0.39499 0.0
C1800 C 0.04722 0.79332 0.38417 0.0
C1801 C 0.0212 0.82521 0.38635 0.0
C1802 C 0.04349 0.83293 0.37671 0.0
C1803 C 0.07944 0.82487 0.36598 0.0
C1804 C 0.09295 0.80919 0.36523 0.0
C1805 C 0.05673 0.81715 0.37551 0.0
C1806 C 0.08304 0.78547 0.3739 0.0
C1807 C 0.06043 0.77756 0.38317 0.0
H1808 H 0.27044 0.26421 0.39634 0.0
H1809 H 0.21738 0.18725 0.36604 0.0
H1810 H 0.19542 0.20911 0.35145 0.0
H1811 H 0.18999 0.24976 0.34774 0.0
H1812 H 0.23886 0.32454 0.38027 0.0
H1813 H 0.26328 0.3037 0.39373 0.0
C1814 C 0.25381 0.25199 0.38673 0.0
C1815 C 0.24597 0.22414 0.38228 0.0
C1816 C 0.24038 0.26432 0.37876 0.0
C1817 C 0.22458 0.20895 0.36953 0.0
C1818 C 0.21172 0.22134 0.36123 0.0
C1819 C 0.20612 0.26143 0.3577 0.0
C1820 C 0.21284 0.28858 0.36298 0.0
C1821 C 0.2194 0.24899 0.36575 0.0
C1822 C 0.2334 0.30351 0.37606 0.0
C1823 C 0.24735 0.29164 0.38374 0.0
H1824 H 0.68162 0.52953 0.71615 0.0
H1825 H 0.67604 0.60135 0.73275 0.0
H1826 H 0.71416 0.63041 0.717 0.0
H1827 H 0.74972 0.63597 0.6992 0.0
H1828 H 0.75545 0.56477 0.68171 0.0
H1829 H 0.71578 0.53473 0.69663 0.0
C1830 C 0.68845 0.55145 0.71618 0.0
C1831 C 0.67607 0.56318 0.7259 0.0
C1832 C 0.7102 0.56813 0.7068 0.0
C1833 C 0.68554 0.59176 0.72582 0.0
C1834 C 0.70719 0.60842 0.71665 0.0
C1835 C 0.74224 0.61383 0.69851 0.0
C1836 C 0.75567 0.60267 0.68941 0.0
C1837 C 0.71978 0.59688 0.70723 0.0
C1838 C 0.74543 0.57389 0.68856 0.0
C1839 C 0.72289 0.55676 0.6972 0.0
H1840 H 0.45534 0.13615 0.73773 0.0
H1841 H 0.47076 0.10219 0.69384 0.0
H1842 H 0.43686 0.10918 0.67787 0.0
H1843 H 0.40382 0.12628 0.67611 0.0
H1844 H 0.38789 0.15981 0.72003 0.0
H1845 H 0.42063 0.15139 0.73614 0.0
C1846 C 0.451 0.12994 0.72471 0.0
C1847 C 0.46584 0.11891 0.71701 0.0
C1848 C 0.43141 0.13405 0.71553 0.0
C1849 C 0.46006 0.1112 0.70008 0.0
C1850 C 0.44057 0.11509 0.69091 0.0
C1851 C 0.40743 0.1317 0.68921 0.0
C1852 C 0.39341 0.14379 0.69676 0.0
C1853 C 0.42635 0.12681 0.69847 0.0
C1854 C 0.39834 0.15051 0.7138 0.0
C1855 C 0.41712 0.14572 0.72307 0.0
H1856 H 0.91111 0.34624 0.69451 0.0
H1857 H 0.89333 0.32817 0.74412 0.0
H1858 H 0.87482 0.27879 0.7363 0.0
H1859 H 0.86279 0.24065 0.71529 0.0
H1860 H 0.87934 0.25871 0.6655 0.0
H1861 H 0.89881 0.30813 0.67348 0.0
C1862 C 0.90297 0.33148 0.70358 0.0
C1863 C 0.90364 0.34091 0.71986 0.0
C1864 C 0.89203 0.30309 0.69898 0.0
C1865 C 0.89344 0.32153 0.73154 0.0
C1866 C 0.88267 0.29326 0.72706 0.0
C1867 C 0.87069 0.25537 0.70617 0.0
C1868 C 0.86956 0.24594 0.68983 0.0
C1869 C 0.88178 0.2838 0.71081 0.0
C1870 C 0.87986 0.26535 0.67818 0.0
C1871 C 0.89104 0.29365 0.68271 0.0
H1872 H 0.21427 0.00014 0.61224 0.0
H1873 H 0.20706 0.9676 0.65915 0.0
H1874 H 0.24157 0.01379 0.67195 0.0
H1875 H 0.2739 0.06338 0.6698 0.0
H1876 H 0.28217 0.0954 0.62266 0.0
H1877 H 0.24747 0.04929 0.60995 0.0
C1878 C 0.2205 0.00302 0.62523 0.0
C1879 C 0.20803 0.98038 0.6347 0.0
C1880 C 0.24058 0.02955 0.63248 0.0
C1881 C 0.216 0.9847 0.65159 0.0
C1882 C 0.23587 0.01109 0.65891 0.0
C1883 C 0.26812 0.0603 0.65675 0.0
C1884 C 0.2806 0.08285 0.64722 0.0
C1885 C 0.24825 0.03367 0.64948 0.0
C1886 C 0.27295 0.07842 0.6303 0.0
C1887 C 0.25307 0.05205 0.62301 0.0
H1888 H 0.99554 0.18108 0.6391 0.0
H1889 H 0.98443 0.23145 0.60472 0.0
H1890 H 0.94074 0.22106 0.6155 0.0
H1891 H 0.90616 0.1991 0.63547 0.0
H1892 H 0.92148 0.15516 0.67232 0.0
H1893 H 0.96363 0.16261 0.66018 0.0
C1894 C 0.98422 0.19055 0.6341 0.0
C1895 C 0.99391 0.2072 0.62097 0.0
C1896 C 0.95976 0.18579 0.64094 0.0
C1897 C 0.97771 0.21808 0.61451 0.0
C1898 C 0.95268 0.21242 0.62082 0.0
C1899 C 0.9188 0.1912 0.6408 0.0
C1900 C 0.91076 0.17651 0.65471 0.0
C1901 C 0.94358 0.19644 0.6341 0.0
C1902 C 0.92738 0.16662 0.66166 0.0
C1903 C 0.9514 0.17081 0.65468 0.0
H1904 H 0.7705 0.74845 0.61352 0.0
H1905 H 0.74791 0.7714 0.65864 0.0
H1906 H 0.77011 0.75007 0.67384 0.0
H1907 H 0.79445 0.72305 0.67418 0.0
H1908 H 0.81269 0.69678 0.62861 0.0
H1909 H 0.79352 0.72103 0.61371 0.0
C1910 C 0.76998 0.74846 0.62665 0.0
C1911 C 0.75739 0.76144 0.63486 0.0
C1912 C 0.78214 0.7356 0.63526 0.0
C1913 C 0.75769 0.76184 0.65197 0.0
C1914 C 0.77027 0.74952 0.66069 0.0
C1915 C 0.79443 0.723 0.66102 0.0
C1916 C 0.805 0.70838 0.65245 0.0
C1917 C 0.78248 0.73623 0.65246 0.0
C1918 C 0.80458 0.70794 0.63539 0.0
C1919 C 0.7936 0.72174 0.62688 0.0
H1920 H 0.00543 0.76958 0.64295 0.0
H1921 H 0.95828 0.7496 0.59581 0.0
H1922 H 0.91485 0.72457 0.60842 0.0
H1923 H 0.89029 0.7083 0.63248 0.0
H1924 H 0.93621 0.72776 0.67995 0.0
H1925 H 0.98019 0.7539 0.66755 0.0
C1926 C 0.98566 0.75995 0.63544 0.0
C1927 C 0.98526 0.76135 0.61838 0.0
C1928 C 0.96058 0.74577 0.64283 0.0
C1929 C 0.95937 0.74843 0.60888 0.0
C1930 C 0.93446 0.73432 0.6161 0.0
C1931 C 0.90983 0.71829 0.64023 0.0
C1932 C 0.90986 0.71597 0.65717 0.0
C1933 C 0.93484 0.73284 0.63303 0.0
C1934 C 0.93552 0.72926 0.66691 0.0
C1935 C 0.96067 0.74408 0.6598 0.0
H1936 H 0.25069 0.23299 0.61004 0.0
H1937 H 0.17687 0.16942 0.62907 0.0
H1938 H 0.20511 0.15479 0.6446 0.0
H1939 H 0.25062 0.15927 0.65245 0.0
H1940 H 0.32405 0.2212 0.6323 0.0
H1941 H 0.29599 0.23673 0.61734 0.0
C1942 C 0.24065 0.21573 0.61743 0.0
C1943 C 0.21159 0.20251 0.61837 0.0
C1944 C 0.25696 0.20697 0.62612 0.0
C1945 C 0.1992 0.18045 0.62829 0.0
C1946 C 0.21533 0.17185 0.6371 0.0
C1947 C 0.26054 0.17622 0.64483 0.0
C1948 C 0.28947 0.18905 0.64357 0.0
C1949 C 0.24422 0.18493 0.6361 0.0
C1950 C 0.30184 0.21086 0.63351 0.0
C1951 C 0.2858 0.21982 0.62495 0.0
H1952 H 0.79063 0.98411 0.64831 0.0
H1953 H 0.71579 0.97699 0.62455 0.0
H1954 H 0.73269 0.02588 0.63322 0.0
H1955 H 0.76881 0.07059 0.64747 0.0
H1956 H 0.84306 0.07702 0.67174 0.0
H1957 H 0.82601 0.02823 0.66311 0.0
C1958 C 0.77778 0.9931 0.64524 0.0
C1959 C 0.75195 0.97689 0.63585 0.0
C1960 C 0.78752 0.02108 0.65033 0.0
C1961 C 0.73587 0.98908 0.63165 0.0
C1962 C 0.74547 0.01699 0.63665 0.0
C1963 C 0.78129 0.06134 0.65087 0.0
C1964 C 0.8072 0.07747 0.66022 0.0
C1965 C 0.77132 0.03321 0.64594 0.0
C1966 C 0.82303 0.0651 0.66457 0.0
C1967 C 0.81331 0.03719 0.65964 0.0
H1968 H 0.47078 0.34114 0.69816 0.0
H1969 H 0.44815 0.3223 0.7471 0.0
H1970 H 0.41182 0.27543 0.73669 0.0
H1971 H 0.38714 0.23905 0.71371 0.0
H1972 H 0.41371 0.25656 0.66548 0.0
H1973 H 0.44823 0.30447 0.67566 0.0
C1974 C 0.45831 0.32676 0.70666 0.0
C1975 C 0.46228 0.33556 0.72341 0.0
C1976 C 0.43812 0.29946 0.7007 0.0
C1977 C 0.4453 0.31653 0.73409 0.0
C1978 C 0.42461 0.28953 0.72818 0.0
C1979 C 0.40045 0.25349 0.70548 0.0
C1980 C 0.39793 0.24454 0.68891 0.0
C1981 C 0.42085 0.28075 0.71151 0.0
C1982 C 0.41545 0.26313 0.67832 0.0
C1983 C 0.43512 0.29048 0.68412 0.0
H1984 H 0.67043 0.12145 0.71175 0.0
H1985 H 0.71578 0.13359 0.75874 0.0
H1986 H 0.75733 0.14376 0.74543 0.0
H1987 H 0.78114 0.14928 0.72053 0.0
H1988 H 0.73792 0.14253 0.67391 0.0
H1989 H 0.69548 0.13119 0.68712 0.0
C1990 C 0.68941 0.12684 0.71923 0.0
C1991 C 0.68939 0.12625 0.73637 0.0
C1992 C 0.7138 0.13385 0.71155 0.0
C1993 C 0.71447 0.13289 0.74557 0.0
C1994 C 0.73852 0.13908 0.73797 0.0
C1995 C 0.76243 0.14539 0.71327 0.0
C1996 C 0.76255 0.14648 0.69625 0.0
C1997 C 0.73839 0.13949 0.72098 0.0
C1998 C 0.73833 0.14184 0.68702 0.0
C1999 C 0.71406 0.13524 0.69457 0.0
H2000 H 0.89869 0.57363 0.73605 0.0
H2001 H 0.92978 0.55865 0.69216 0.0
H2002 H 0.90808 0.58029 0.67661 0.0
H2003 H 0.88039 0.60378 0.67566 0.0
H2004 H 0.84908 0.61778 0.71989 0.0
H2005 H 0.8707 0.59622 0.73507 0.0
C2006 C 0.90097 0.5754 0.72311 0.0
C2007 C 0.91599 0.56486 0.71528 0.0
C2008 C 0.88824 0.58754 0.71428 0.0
C2009 C 0.91827 0.56667 0.69844 0.0
C2010 C 0.90589 0.57902 0.68956 0.0
C2011 C 0.87818 0.60198 0.68859 0.0
C2012 C 0.86312 0.61244 0.69657 0.0
C2013 C 0.89076 0.58951 0.69736 0.0
C2014 C 0.86051 0.60994 0.71337 0.0
C2015 C 0.87295 0.59765 0.72212 0.0
H2016 H 0.49899 0.99293 0.17833 0.0
H2017 H 0.4137 0.93525 0.15946 0.0
H2018 H 0.42368 0.95232 0.13254 0.0
H2019 H 0.45696 0.98328 0.11412 0.0
H2020 H 0.54208 0.04118 0.13325 0.0
H2021 H 0.53189 0.02433 0.16015 0.0
C2022 C 0.48259 0.98399 0.16831 0.0
C2023 C 0.45563 0.96273 0.17097 0.0
C2024 C 0.48848 0.99395 0.15284 0.0
C2025 C 0.43456 0.95178 0.15787 0.0
C2026 C 0.44031 0.96143 0.14241 0.0
C2027 C 0.4733 0.99211 0.12417 0.0
C2028 C 0.50029 0.01351 0.12161 0.0
C2029 C 0.46723 0.98243 0.13972 0.0
C2030 C 0.52109 0.02493 0.13486 0.0
C2031 C 0.5153 0.01521 0.15026 0.0
H2032 H 0.04178 0.54441 0.17198 0.0
H2033 H 0.98903 0.4573 0.17788 0.0
H2034 H 0.97412 0.44772 0.1486 0.0
H2035 H 0.97561 0.46437 0.12138 0.0
H2036 H 0.0276 0.55181 0.11594 0.0
H2037 H 0.04316 0.56099 0.14503 0.0
C2038 C 0.02681 0.52335 0.1669 0.0
C2039 C 0.01638 0.50164 0.17712 0.0
C2040 C 0.01819 0.51806 0.15014 0.0
C2041 C 0.99752 0.47436 0.17026 0.0
C2042 C 0.98887 0.4689 0.15355 0.0
C2043 C 0.99017 0.48545 0.1266 0.0
C2044 C 1.00043 0.50736 0.11649 0.0
C2045 C 0.99896 0.49063 0.14338 0.0
C2046 C 0.01963 0.53452 0.1234 0.0
C2047 C 0.02844 0.53982 0.14004 0.0
H2048 H 0.50832 0.51563 0.17116 0.0
H2049 H 0.42083 0.48468 0.15791 0.0
H2050 H 0.42633 0.47412 0.12959 0.0
H2051 H 0.45674 0.47619 0.1083 0.0
H2052 H 0.54461 0.50907 0.1218 0.0
H2053 H 0.53818 0.51636 0.15027 0.0
C2054 C 0.49044 0.50664 0.16207 0.0
C2055 C 0.46427 0.50125 0.16662 0.0
C2056 C 0.49385 0.50105 0.14582 0.0
C2057 C 0.44118 0.48893 0.15477 0.0
C2058 C 0.44437 0.48309 0.13854 0.0
C2059 C 0.47449 0.48503 0.11747 0.0
C2060 C 0.50115 0.49211 0.11285 0.0
C2061 C 0.47072 0.48949 0.13388 0.0
C2062 C 0.52381 0.5031 0.12497 0.0
C2063 C 0.5202 0.50746 0.14127 0.0
H2064 H 0.99088 0.52693 0.84124 0.0
H2065 H 0.0561 0.50844 0.83282 0.0
H2066 H 0.07191 0.51853 0.86193 0.0
H2067 H 0.06468 0.52866 0.8899 0.0
H2068 H 0.99936 0.54696 0.89856 0.0
H2069 H 0.98603 0.5408 0.86921 0.0
C2070 C 0.0089 0.52568 0.84576 0.0
C2071 C 0.02222 0.51681 0.83495 0.0
C2072 C 0.01761 0.53111 0.86255 0.0
C2073 C 0.04533 0.51493 0.84097 0.0
C2074 C 0.05438 0.5207 0.85759 0.0
C2075 C 0.0479 0.53188 0.88538 0.0
C2076 C 0.03296 0.53812 0.89643 0.0
C2077 C 0.04029 0.52821 0.86852 0.0
C2078 C 0.01094 0.54174 0.89033 0.0
C2079 C 0.00339 0.53835 0.87355 0.0
H2080 H 0.55361 0.51821 0.84778 0.0
H2081 H 0.47724 0.50846 0.82476 0.0
H2082 H 0.46394 0.51707 0.85126 0.0
H2083 H 0.47142 0.52187 0.88106 0.0
H2084 H 0.5475 0.53115 0.90441 0.0
H2085 H 0.56338 0.52798 0.87777 0.0
C2086 C 0.53443 0.51869 0.84859 0.0
C2087 C 0.51635 0.51262 0.83442 0.0
C2088 C 0.52659 0.52299 0.86394 0.0
C2089 C 0.49137 0.51295 0.83557 0.0
C2090 C 0.48372 0.51774 0.85071 0.0
C2091 C 0.49176 0.52384 0.88036 0.0
C2092 C 0.50804 0.52641 0.89476 0.0
C2093 C 0.50075 0.52195 0.86501 0.0
C2094 C 0.53422 0.52855 0.89355 0.0
C2095 C 0.54343 0.52691 0.8783 0.0
H2096 H 0.48556 0.01737 0.84045 0.0
H2097 H 0.57255 0.07725 0.85408 0.0
H2098 H 0.5682 0.06246 0.88163 0.0
H2099 H 0.53959 0.03263 0.90205 0.0
H2100 H 0.45246 0.97322 0.88837 0.0
H2101 H 0.457 0.98775 0.8608 0.0
C2102 C 0.50354 0.02736 0.84946 0.0
C2103 C 0.52935 0.04845 0.8451 0.0
C2104 C 0.50089 0.01879 0.86535 0.0
C2105 C 0.5525 0.06076 0.85695 0.0
C2106 C 0.54999 0.05242 0.87279 0.0
C2107 C 0.52154 0.02298 0.89308 0.0
C2108 C 0.49572 0.00175 0.89736 0.0
C2109 C 0.52428 0.03148 0.87715 0.0
C2110 C 0.47268 0.98929 0.88543 0.0
C2111 C 0.47521 0.99772 0.86965 0.0
H2112 H 0.12021 0.31232 0.50385 0.0
H2113 H 0.146 0.25198 0.49443 0.0
H2114 H 0.16059 0.26949 0.46813 0.0
H2115 H 0.16688 0.30242 0.44794 0.0
H2116 H 0.14014 0.36212 0.45692 0.0
H2117 H 0.12527 0.34448 0.48318 0.0
C2118 C 0.12873 0.30279 0.49597 0.0
C2119 C 0.13208 0.2809 0.50122 0.0
C2120 C 0.13712 0.31298 0.48078 0.0
C2121 C 0.14353 0.2691 0.49088 0.0
C2122 C 0.15178 0.27903 0.47577 0.0
C2123 C 0.15752 0.31142 0.45553 0.0
C2124 C 0.15476 0.33369 0.45037 0.0
C2125 C 0.14882 0.30105 0.47062 0.0
C2126 C 0.14298 0.34529 0.4606 0.0
C2127 C 0.13426 0.33507 0.47562 0.0
H2128 H 0.63459 0.82642 0.51093 0.0
H2129 H 0.69919 0.80521 0.50846 0.0
H2130 H 0.69016 0.79716 0.47873 0.0
H2131 H 0.66656 0.79999 0.45333 0.0
H2132 H 0.60407 0.82418 0.4561 0.0
H2133 H 0.60946 0.82692 0.48575 0.0
C2134 C 0.64668 0.82 0.50389 0.0
C2135 C 0.66772 0.81671 0.51189 0.0
C2136 C 0.64179 0.81598 0.48682 0.0
C2137 C 0.68276 0.80775 0.50262 0.0
C2138 C 0.67776 0.80336 0.4856 0.0
C2139 C 0.65409 0.80582 0.46042 0.0
C2140 C 0.63501 0.81194 0.45243 0.0
C2141 C 0.65775 0.80802 0.47755 0.0
C2142 C 0.61865 0.81896 0.46184 0.0
C2143 C 0.62189 0.82081 0.47884 0.0
H2144 H 0.15787 0.8705 0.50097 0.0
H2145 H 0.12931 0.78568 0.51067 0.0
H2146 H 0.13749 0.77514 0.48294 0.0
H2147 H 0.15452 0.79074 0.45617 0.0
H2148 H 0.18343 0.87596 0.4471 0.0
H2149 H 0.1736 0.88567 0.47436 0.0
C2150 C 0.15353 0.84971 0.49705 0.0
C2151 C 0.14326 0.82899 0.50794 0.0
C2152 C 0.15849 0.84392 0.48121 0.0
C2153 C 0.13712 0.80199 0.50252 0.0
C2154 C 0.14198 0.79602 0.48671 0.0
C2155 C 0.15877 0.81144 0.46022 0.0
C2156 C 0.16971 0.83259 0.44959 0.0
C2157 C 0.15299 0.81692 0.47599 0.0
C2158 C 0.17475 0.85923 0.45494 0.0
C2159 C 0.16924 0.86484 0.47057 0.0
H2160 H 0.63828 0.84466 0.17243 0.0
H2161 H 0.71211 0.84133 0.16267 0.0
H2162 H 0.72556 0.84642 0.19192 0.0
H2163 H 0.7143 0.84779 0.22005 0.0
H2164 H 0.64075 0.85153 0.2301 0.0
H2165 H 0.62908 0.85005 0.2009 0.0
C2166 C 0.6576 0.84564 0.17674 0.0
C2167 C 0.6741 0.84245 0.16545 0.0
C2168 C 0.66501 0.84819 0.19358 0.0
C2169 C 0.69892 0.84343 0.17116 0.0
C2170 C 0.7066 0.84632 0.18786 0.0
C2171 C 0.69601 0.84886 0.21592 0.0
C2172 C 0.67836 0.8496 0.22728 0.0
C2173 C 0.68949 0.84809 0.19916 0.0
C2174 C 0.65446 0.85046 0.22162 0.0
C2175 C 0.64786 0.8498 0.20493 0.0
H2176 H 0.15367 0.82178 0.17264 0.0
H2177 H 0.24075 0.85393 0.18798 0.0
H2178 H 0.23315 0.86357 0.21594 0.0
H2179 H 0.20116 0.86039 0.23633 0.0
H2180 H 0.11379 0.82683 0.22098 0.0
H2181 H 0.12215 0.82038 0.19275 0.0
C2182 C 0.17098 0.83087 0.18211 0.0
C2183 C 0.19769 0.83691 0.17824 0.0
C2184 C 0.1664 0.83607 0.19818 0.0
C2185 C 0.22003 0.84923 0.19059 0.0
C2186 C 0.21565 0.85458 0.20661 0.0
C2187 C 0.18394 0.85163 0.22681 0.0
C2188 C 0.15685 0.84399 0.23081 0.0
C2189 C 0.18884 0.84768 0.21059 0.0
C2190 C 0.13489 0.83315 0.21826 0.0
C2191 C 0.13961 0.82926 0.20211 0.0
H2192 H 0.22589 0.39477 0.18923 0.0
H2193 H 0.14749 0.3294 0.16507 0.0
H2194 H 0.13674 0.30546 0.1899 0.0
H2195 H 0.14848 0.30415 0.21889 0.0
H2196 H 0.22597 0.37029 0.24359 0.0
H2197 H 0.23815 0.39289 0.21831 0.0
C2198 C 0.20664 0.37513 0.18941 0.0
C2199 C 0.1875 0.36385 0.17536 0.0
C2200 C 0.20031 0.36173 0.20389 0.0
C2201 C 0.16246 0.33855 0.17578 0.0
C2202 C 0.15631 0.32485 0.18996 0.0
C2203 C 0.16818 0.32334 0.21869 0.0
C2204 C 0.18624 0.33549 0.23312 0.0
C2205 C 0.17489 0.3364 0.20415 0.0
C2206 C 0.21153 0.36062 0.23269 0.0
C2207 C 0.21857 0.37351 0.21822 0.0
H2208 H 0.77594 0.63836 0.83765 0.0
H2209 H 0.80535 0.58042 0.83044 0.0
H2210 H 0.81985 0.59684 0.80394 0.0
H2211 H 0.82468 0.62788 0.78276 0.0
H2212 H 0.79533 0.68587 0.78977 0.0
H2213 H 0.77985 0.6688 0.81607 0.0
C2214 C 0.78524 0.6291 0.83021 0.0
C2215 C 0.78971 0.60829 0.83621 0.0
C2216 C 0.79354 0.63862 0.81485 0.0
C2217 C 0.80207 0.59679 0.82637 0.0
C2218 C 0.81027 0.60608 0.81112 0.0
C2219 C 0.81508 0.63696 0.79007 0.0
C2220 C 0.81129 0.65823 0.7842 0.0
C2221 C 0.80632 0.62713 0.80528 0.0
C2222 C 0.7983 0.6693 0.79381 0.0
C2223 C 0.78956 0.65964 0.80894 0.0
H2224 H 0.35687 0.21231 0.83558 0.0
H2225 H 0.30594 0.12488 0.8413 0.0
H2226 H 0.29251 0.11498 0.81188 0.0
H2227 H 0.29569 0.13118 0.78453 0.0
H2228 H 0.34627 0.21874 0.77897 0.0
H2229 H 0.35935 0.22859 0.80838 0.0
C2230 C 0.34255 0.19112 0.83042 0.0
C2231 C 0.33232 0.16938 0.84062 0.0
C2232 C 0.33494 0.18561 0.81353 0.0
C2233 C 0.31426 0.14196 0.83369 0.0
C2234 C 0.30649 0.13631 0.81689 0.0
C2235 C 0.30932 0.15245 0.78978 0.0
C2236 C 0.31997 0.1742 0.77957 0.0
C2237 C 0.31675 0.15797 0.8067 0.0
C2238 C 0.33802 0.20159 0.78653 0.0
C2239 C 0.3454 0.20726 0.80335 0.0
H2240 H 0.78064 0.16322 0.83249 0.0
H2241 H 0.85886 0.17623 0.85476 0.0
H2242 H 0.87138 0.16694 0.82817 0.0
H2243 H 0.86203 0.15927 0.79848 0.0
H2244 H 0.78404 0.14643 0.77579 0.0
H2245 H 0.76963 0.1518 0.80259 0.0
C2246 C 0.80014 0.16345 0.8315 0.0
C2247 C 0.81888 0.17052 0.8455 0.0
C2248 C 0.80746 0.1586 0.81609 0.0
C2249 C 0.84424 0.17105 0.8441 0.0
C2250 C 0.85142 0.1658 0.82891 0.0
C2251 C 0.84164 0.15708 0.79937 0.0
C2252 C 0.82427 0.15263 0.78509 0.0
C2253 C 0.83349 0.16019 0.81479 0.0
C2254 C 0.79808 0.15034 0.78654 0.0
C2255 C 0.78973 0.15324 0.80188 0.0
H2256 H 0.31776 0.1671 0.50367 0.0
H2257 H 0.39085 0.16217 0.49416 0.0
H2258 H 0.40426 0.16759 0.52342 0.0
H2259 H 0.39382 0.17095 0.55161 0.0
H2260 H 0.3213 0.17684 0.56134 0.0
H2261 H 0.309 0.17365 0.53207 0.0
C2262 C 0.33687 0.16769 0.50801 0.0
C2263 C 0.35318 0.16404 0.49677 0.0
C2264 C 0.34439 0.17066 0.52487 0.0
C2265 C 0.37772 0.16454 0.50258 0.0
C2266 C 0.38544 0.16769 0.5193 0.0
C2267 C 0.37558 0.17202 0.54737 0.0
C2268 C 0.35846 0.17398 0.55869 0.0
C2269 C 0.36871 0.17033 0.53055 0.0
C2270 C 0.33462 0.17486 0.55291 0.0
C2271 C 0.32765 0.17322 0.53617 0.0
H2272 H 0.85067 0.12356 0.51251 0.0
H2273 H 0.87921 0.20877 0.50389 0.0
H2274 H 0.87197 0.2187 0.53202 0.0
H2275 H 0.85513 0.20215 0.55866 0.0
H2276 H 0.82673 0.11663 0.56672 0.0
H2277 H 0.83628 0.10777 0.5392 0.0
C2278 C 0.85533 0.14432 0.51682 0.0
C2279 C 0.86513 0.16534 0.50616 0.0
C2280 C 0.85103 0.14974 0.53286 0.0
C2281 C 0.87166 0.19229 0.51193 0.0
C2282 C 0.86737 0.19789 0.52795 0.0
C2283 C 0.85105 0.18161 0.55434 0.0
C2284 C 0.84018 0.16006 0.56469 0.0
C2285 C 0.85664 0.17664 0.53845 0.0
C2286 C 0.83532 0.13362 0.55905 0.0
C2287 C 0.84065 0.12849 0.54329 0.0
H2288 H 0.84606 0.72677 0.52133 0.0
H2289 H 0.88278 0.68039 0.50182 0.0
H2290 H 0.87699 0.65783 0.5271 0.0
H2291 H 0.86018 0.65026 0.55462 0.0
H2292 H 0.82207 0.69589 0.57331 0.0
H2293 H 0.82948 0.71939 0.54849 0.0
C2294 C 0.85263 0.71157 0.5225 0.0
C2295 C 0.86468 0.70523 0.50954 0.0
C2296 C 0.84889 0.69839 0.53698 0.0
C2297 C 0.87367 0.68594 0.51157 0.0
C2298 C 0.87015 0.67283 0.52601 0.0
C2299 C 0.85332 0.6652 0.55322 0.0
C2300 C 0.84065 0.67128 0.56595 0.0
C2301 C 0.85754 0.67869 0.53876 0.0
C2302 C 0.83225 0.69102 0.56391 0.0
C2303 C 0.83635 0.70442 0.54964 0.0
loop_
_geom_bond_atom_site_label_1
_geom_bond_atom_site_label_2
_geom_bond_distance
_geom_bond_site_symmetry_2
_ccdc_geom_bond_type
C0 C1 1.391 . S
C0 C4 1.391 . S
C0 H42 0.948 . S
C1 C0 1.391 . S
C1 C2 1.391 . S
C2 C1 1.391 . S
C2 H58 0.947 . S
C2 C59 1.392 . S
C3 C4 1.391 . S
C3 C7 1.397 . S
C3 C59 1.419 . S
C4 C0 1.391 . S
C4 C3 1.391 . S
C4 C5 1.399 . S
C5 C4 1.399 . S
C5 C8 1.396 . S
C5 C17 1.453 . S
C5 C18 1.684 . S
H6 C30 0.948 . S
C7 C3 1.397 . S
C7 C8 1.394 . S
C7 C26 1.723 . S
C8 C5 1.396 . S
C8 C7 1.394 . S
C8 C38 1.723 . S
H9 C32 0.947 . S
H10 C33 0.948 . S
H11 C39 0.982 . S
H12 C40 0.979 . S
H13 C40 0.980 . S
H14 C40 0.983 . S
H15 C39 0.979 . S
H16 C39 0.977 . S
C17 C5 1.453 . S
C17 H46 0.982 . S
C17 H47 0.979 . S
C17 H48 0.977 . S
C18 C5 1.684 . S
C18 H43 0.979 . S
C18 H44 0.980 . S
C18 H45 0.983 . S
C19 C20 1.391 . S
C19 C24 1.391 . S
C19 H49 0.948 . S
C20 C19 1.391 . S
C20 C21 1.391 . S
C21 C20 1.391 . S
C21 C22 1.392 . S
C21 H50 0.947 . S
C22 C21 1.392 . S
C22 C23 1.419 . S
C22 H51 0.948 . S
C23 C22 1.419 . S
C23 C24 1.391 . S
C23 C27 1.397 . S
C24 C19 1.391 . S
C24 C23 1.391 . S
C24 C25 1.399 . S
C25 C24 1.399 . S
C25 C26 1.396 . S
C25 C28 1.453 . S
C25 C29 1.684 . S
C26 C7 1.723 . S
C26 C25 1.396 . S
C26 C27 1.394 . S
C27 C23 1.397 . S
C27 C26 1.394 . S
C27 C37 1.723 . S
C28 C25 1.453 . S
C28 H52 0.982 . S
C28 H53 0.979 . S
C28 H54 0.977 . S
C29 C25 1.684 . S
C29 H55 0.979 . S
C29 H56 0.980 . S
C29 H57 0.983 . S
C30 H6 0.948 . S
C30 C31 1.391 . S
C30 C35 1.391 . S
C31 C30 1.391 . S
C31 C32 1.391 . S
C32 H9 0.947 . S
C32 C31 1.391 . S
C32 C33 1.392 . S
C33 H10 0.948 . S
C33 C32 1.392 . S
C33 C34 1.419 . S
C34 C33 1.419 . S
C34 C35 1.391 . S
C34 C38 1.397 . S
C35 C30 1.391 . S
C35 C34 1.391 . S
C35 C36 1.399 . S
C36 C35 1.399 . S
C36 C37 1.396 . S
C36 C39 1.453 . S
C36 C40 1.684 . S
C37 C27 1.723 . S
C37 C36 1.396 . S
C37 C38 1.394 . S
C38 C8 1.723 . S
C38 C34 1.397 . S
C38 C37 1.394 . S
C39 H11 0.982 . S
C39 H15 0.979 . S
C39 H16 0.977 . S
C39 C36 1.453 . S
C40 H12 0.979 . S
C40 H13 0.980 . S
C40 H14 0.983 . S
C40 C36 1.684 . S
H41 C59 0.948 . S
H42 C0 0.948 . S
H43 C18 0.979 . S
H44 C18 0.980 . S
H45 C18 0.983 . S
H46 C17 0.982 . S
H47 C17 0.979 . S
H48 C17 0.977 . S
H49 C19 0.948 . S
H50 C21 0.947 . S
H51 C22 0.948 . S
H52 C28 0.982 . S
H53 C28 0.979 . S
H54 C28 0.977 . S
H55 C29 0.979 . S
H56 C29 0.980 . S
H57 C29 0.983 . S
H58 C2 0.947 . S
C59 C2 1.392 . S
C59 C3 1.419 . S
C59 H41 0.948 . S
C60 C61 1.391 . S
C60 C64 1.391 . S
C60 H102 0.948 . S
C61 C60 1.391 . S
C61 C62 1.391 . S
C62 C61 1.391 . S
C62 H118 0.947 . S
C62 C119 1.392 . S
C63 C64 1.391 . S
C63 C67 1.397 . S
C63 C119 1.419 . S
C64 C60 1.391 . S
C64 C63 1.391 . S
C64 C65 1.399 . S
C65 C64 1.399 . S
C65 C68 1.396 . S
C65 C77 1.453 . S
C65 C78 1.684 . S
H66 C90 0.948 . S
C67 C63 1.397 . S
C67 C68 1.394 . S
C67 C86 1.723 . S
C68 C65 1.396 . S
C68 C67 1.394 . S
C68 C98 1.723 . S
H69 C92 0.947 . S
H70 C93 0.948 . S
H71 C99 0.982 . S
H72 C100 0.979 . S
H73 C100 0.980 . S
H74 C100 0.983 . S
H75 C99 0.979 . S
H76 C99 0.977 . S
C77 C65 1.453 . S
C77 H106 0.982 . S
C77 H107 0.979 . S
C77 H108 0.977 . S
C78 C65 1.684 . S
C78 H103 0.979 . S
C78 H104 0.980 . S
C78 H105 0.983 . S
C79 C80 1.391 . S
C79 C84 1.391 . S
C79 H109 0.948 . S
C80 C79 1.391 . S
C80 C81 1.391 . S
C81 C80 1.391 . S
C81 C82 1.392 . S
C81 H110 0.947 . S
C82 C81 1.392 . S
C82 C83 1.419 . S
C82 H111 0.948 . S
C83 C82 1.419 . S
C83 C84 1.391 . S
C83 C87 1.397 . S
C84 C79 1.391 . S
C84 C83 1.391 . S
C84 C85 1.399 . S
C85 C84 1.399 . S
C85 C86 1.396 . S
C85 C88 1.453 . S
C85 C89 1.684 . S
C86 C67 1.723 . S
C86 C85 1.396 . S
C86 C87 1.394 . S
C87 C83 1.397 . S
C87 C86 1.394 . S
C87 C97 1.723 . S
C88 C85 1.453 . S
C88 H112 0.982 . S
C88 H113 0.979 . S
C88 H114 0.977 . S
C89 C85 1.684 . S
C89 H115 0.979 . S
C89 H116 0.980 . S
C89 H117 0.983 . S
C90 H66 0.948 . S
C90 C91 1.391 . S
C90 C95 1.391 . S
C91 C90 1.391 . S
C91 C92 1.391 . S
C92 H69 0.947 . S
C92 C91 1.391 . S
C92 C93 1.392 . S
C93 H70 0.948 . S
C93 C92 1.392 . S
C93 C94 1.419 . S
C94 C93 1.419 . S
C94 C95 1.391 . S
C94 C98 1.397 . S
C95 C90 1.391 . S
C95 C94 1.391 . S
C95 C96 1.399 . S
C96 C95 1.399 . S
C96 C97 1.396 . S
C96 C99 1.453 . S
C96 C100 1.684 . S
C97 C87 1.723 . S
C97 C96 1.396 . S
C97 C98 1.394 . S
C98 C68 1.723 . S
C98 C94 1.397 . S
C98 C97 1.394 . S
C99 H71 0.982 . S
C99 H75 0.979 . S
C99 H76 0.977 . S
C99 C96 1.453 . S
C100 H72 0.979 . S
C100 H73 0.980 . S
C100 H74 0.983 . S
C100 C96 1.684 . S
H101 C119 0.948 . S
H102 C60 0.948 . S
H103 C78 0.979 . S
H104 C78 0.980 . S
H105 C78 0.983 . S
H106 C77 0.982 . S
H107 C77 0.979 . S
H108 C77 0.977 . S
H109 C79 0.948 . S
H110 C81 0.947 . S
H111 C82 0.948 . S
H112 C88 0.982 . S
H113 C88 0.979 . S
H114 C88 0.977 . S
H115 C89 0.979 . S
H116 C89 0.980 . S
H117 C89 0.983 . S
H118 C62 0.947 . S
C119 C62 1.392 . S
C119 C63 1.419 . S
C119 H101 0.948 . S
C120 C121 1.391 . S
C120 C124 1.391 . S
C120 H162 0.948 . S
C121 C120 1.391 . S
C121 C122 1.391 . S
C122 C121 1.391 . S
C122 H178 0.947 . S
C122 C179 1.392 . S
C123 C124 1.391 . S
C123 C127 1.397 . S
C123 C179 1.419 . S
C124 C120 1.391 . S
C124 C123 1.391 . S
C124 C125 1.399 . S
C125 C124 1.399 . S
C125 C128 1.396 . S
C125 C137 1.453 . S
C125 C138 1.684 . S
H126 C150 0.948 . S
C127 C123 1.397 . S
C127 C128 1.394 . S
C127 C146 1.723 . S
C128 C125 1.396 . S
C128 C127 1.394 . S
C128 C158 1.723 . S
H129 C152 0.947 . S
H130 C153 0.948 . S
H131 C159 0.982 . S
H132 C160 0.979 . S
H133 C160 0.980 . S
H134 C160 0.983 . S
H135 C159 0.979 . S
H136 C159 0.977 . S
C137 C125 1.453 . S
C137 H166 0.982 . S
C137 H167 0.979 . S
C137 H168 0.977 . S
C138 C125 1.684 . S
C138 H163 0.979 . S
C138 H164 0.980 . S
C138 H165 0.983 . S
C139 C140 1.391 . S
C139 C144 1.391 . S
C139 H169 0.948 . S
C140 C139 1.391 . S
C140 C141 1.391 . S
C141 C140 1.391 . S
C141 C142 1.392 . S
C141 H170 0.947 . S
C142 C141 1.392 . S
C142 C143 1.419 . S
C142 H171 0.948 . S
C143 C142 1.419 . S
C143 C144 1.391 . S
C143 C147 1.397 . S
C144 C139 1.391 . S
C144 C143 1.391 . S
C144 C145 1.399 . S
C145 C144 1.399 . S
C145 C146 1.396 . S
C145 C148 1.453 . S
C145 C149 1.684 . S
C146 C127 1.723 . S
C146 C145 1.396 . S
C146 C147 1.394 . S
C147 C143 1.397 . S
C147 C146 1.394 . S
C147 C157 1.723 . S
C148 C145 1.453 . S
C148 H172 0.982 . S
C148 H173 0.979 . S
C148 H174 0.977 . S
C149 C145 1.684 . S
C149 H175 0.979 . S
C149 H176 0.980 . S
C149 H177 0.983 . S
C150 H126 0.948 . S
C150 C151 1.391 . S
C150 C155 1.391 . S
C151 C150 1.391 . S
C151 C152 1.391 . S
C152 H129 0.947 . S
C152 C151 1.391 . S
C152 C153 1.392 . S
C153 H130 0.948 . S
C153 C152 1.392 . S
C153 C154 1.419 . S
C154 C153 1.419 . S
C154 C155 1.391 . S
C154 C158 1.397 . S
C155 C150 1.391 . S
C155 C154 1.391 . S
C155 C156 1.399 . S
C156 C155 1.399 . S
C156 C157 1.396 . S
C156 C159 1.453 . S
C156 C160 1.684 . S
C157 C147 1.723 . S
C157 C156 1.396 . S
C157 C158 1.394 . S
C158 C128 1.723 . S
C158 C154 1.397 . S
C158 C157 1.394 . S
C159 H131 0.982 . S
C159 H135 0.979 . S
C159 H136 0.977 . S
C159 C156 1.453 . S
C160 H132 0.979 . S
C160 H133 0.980 . S
C160 H134 0.983 . S
C160 C156 1.684 . S
H161 C179 0.948 . S
H162 C120 0.948 . S
H163 C138 0.979 . S
H164 C138 0.980 . S
H165 C138 0.983 . S
H166 C137 0.982 . S
H167 C137 0.979 . S
H168 C137 0.977 . S
H169 C139 0.948 . S
H170 C141 0.947 . S
H171 C142 0.948 . S
H172 C148 0.982 . S
H173 C148 0.979 . S
H174 C148 0.977 . S
H175 C149 0.979 . S
H176 C149 0.980 . S
H177 C149 0.983 . S
H178 C122 0.947 . S
C179 C122 1.392 . S
C179 C123 1.419 . S
C179 H161 0.948 . S
C180 C181 1.391 . S
C180 C184 1.391 . S
C180 H222 0.948 . S
C181 C180 1.391 . S
C181 C182 1.391 . S
C182 C181 1.391 . S
C182 H238 0.947 . S
C182 C239 1.392 . S
C183 C184 1.391 . S
C183 C187 1.397 . S
C183 C239 1.419 . S
C184 C180 1.391 . S
C184 C183 1.391 . S
C184 C185 1.399 . S
C185 C184 1.399 . S
C185 C188 1.396 . S
C185 C197 1.453 . S
C185 C198 1.684 . S
H186 C210 0.948 . S
C187 C183 1.397 . S
C187 C188 1.394 . S
C187 C206 1.723 . S
C188 C185 1.396 . S
C188 C187 1.394 . S
C188 C218 1.723 . S
H189 C212 0.947 . S
H190 C213 0.948 . S
H191 C219 0.982 . S
H192 C220 0.979 . S
H193 C220 0.980 . S
H194 C220 0.983 . S
H195 C219 0.979 . S
H196 C219 0.977 . S
C197 C185 1.453 . S
C197 H226 0.982 . S
C197 H227 0.979 . S
C197 H228 0.977 . S
C198 C185 1.684 . S
C198 H223 0.979 . S
C198 H224 0.980 . S
C198 H225 0.983 . S
C199 C200 1.391 . S
C199 C204 1.391 . S
C199 H229 0.948 . S
C200 C199 1.391 . S
C200 C201 1.391 . S
C201 C200 1.391 . S
C201 C202 1.392 . S
C201 H230 0.947 . S
C202 C201 1.392 . S
C202 C203 1.419 . S
C202 H231 0.948 . S
C203 C202 1.419 . S
C203 C204 1.391 . S
C203 C207 1.397 . S
C204 C199 1.391 . S
C204 C203 1.391 . S
C204 C205 1.399 . S
C205 C204 1.399 . S
C205 C206 1.396 . S
C205 C208 1.453 . S
C205 C209 1.684 . S
C206 C187 1.723 . S
C206 C205 1.396 . S
C206 C207 1.394 . S
C207 C203 1.397 . S
C207 C206 1.394 . S
C207 C217 1.723 . S
C208 C205 1.453 . S
C208 H232 0.982 . S
C208 H233 0.979 . S
C208 H234 0.977 . S
C209 C205 1.684 . S
C209 H235 0.979 . S
C209 H236 0.980 . S
C209 H237 0.983 . S
C210 H186 0.948 . S
C210 C211 1.391 . S
C210 C215 1.391 . S
C211 C210 1.391 . S
C211 C212 1.391 . S
C212 H189 0.947 . S
C212 C211 1.391 . S
C212 C213 1.392 . S
C213 H190 0.948 . S
C213 C212 1.392 . S
C213 C214 1.419 . S
C214 C213 1.419 . S
C214 C215 1.391 . S
C214 C218 1.397 . S
C215 C210 1.391 . S
C215 C214 1.391 . S
C215 C216 1.399 . S
C216 C215 1.399 . S
C216 C217 1.396 . S
C216 C219 1.453 . S
C216 C220 1.684 . S
C217 C207 1.723 . S
C217 C216 1.396 . S
C217 C218 1.394 . S
C218 C188 1.723 . S
C218 C214 1.397 . S
C218 C217 1.394 . S
C219 H191 0.982 . S
C219 H195 0.979 . S
C219 H196 0.977 . S
C219 C216 1.453 . S
C220 H192 0.979 . S
C220 H193 0.980 . S
C220 H194 0.983 . S
C220 C216 1.684 . S
H221 C239 0.948 . S
H222 C180 0.948 . S
H223 C198 0.979 . S
H224 C198 0.980 . S
H225 C198 0.983 . S
H226 C197 0.982 . S
H227 C197 0.979 . S
H228 C197 0.977 . S
H229 C199 0.948 . S
H230 C201 0.947 . S
H231 C202 0.948 . S
H232 C208 0.982 . S
H233 C208 0.979 . S
H234 C208 0.977 . S
H235 C209 0.979 . S
H236 C209 0.980 . S
H237 C209 0.983 . S
H238 C182 0.947 . S
C239 C182 1.392 . S
C239 C183 1.419 . S
C239 H221 0.948 . S
C240 C241 1.391 . S
C240 C244 1.391 . S
C240 H282 0.948 . S
C241 C240 1.391 . S
C241 C242 1.391 . S
C242 C241 1.391 . S
C242 H298 0.947 . S
C242 C299 1.392 . S
C243 C244 1.391 . S
C243 C247 1.397 . S
C243 C299 1.419 . S
C244 C240 1.391 . S
C244 C243 1.391 . S
C244 C245 1.399 . S
C245 C244 1.399 . S
C245 C248 1.396 . S
C245 C257 1.453 . S
C245 C258 1.684 . S
H246 C270 0.948 . S
C247 C243 1.397 . S
C247 C248 1.394 . S
C247 C266 1.723 . S
C248 C245 1.396 . S
C248 C247 1.394 . S
C248 C278 1.723 . S
H249 C272 0.947 . S
H250 C273 0.948 . S
H251 C279 0.982 . S
H252 C280 0.979 . S
H253 C280 0.980 . S
H254 C280 0.983 . S
H255 C279 0.979 . S
H256 C279 0.977 . S
C257 C245 1.453 . S
C257 H286 0.982 . S
C257 H287 0.979 . S
C257 H288 0.977 . S
C258 C245 1.684 . S
C258 H283 0.979 . S
C258 H284 0.980 . S
C258 H285 0.983 . S
C259 C260 1.391 . S
C259 C264 1.391 . S
C259 H289 0.948 . S
C260 C259 1.391 . S
C260 C261 1.391 . S
C261 C260 1.391 . S
C261 C262 1.392 . S
C261 H290 0.947 . S
C262 C261 1.392 . S
C262 C263 1.419 . S
C262 H291 0.948 . S
C263 C262 1.419 . S
C263 C264 1.391 . S
C263 C267 1.397 . S
C264 C259 1.391 . S
C264 C263 1.391 . S
C264 C265 1.399 . S
C265 C264 1.399 . S
C265 C266 1.396 . S
C265 C268 1.453 . S
C265 C269 1.684 . S
C266 C247 1.723 . S
C266 C265 1.396 . S
C266 C267 1.394 . S
C267 C263 1.397 . S
C267 C266 1.394 . S
C267 C277 1.723 . S
C268 C265 1.453 . S
C268 H292 0.982 . S
C268 H293 0.979 . S
C268 H294 0.977 . S
C269 C265 1.684 . S
C269 H295 0.979 . S
C269 H296 0.980 . S
C269 H297 0.983 . S
C270 H246 0.948 . S
C270 C271 1.391 . S
C270 C275 1.391 . S
C271 C270 1.391 . S
C271 C272 1.391 . S
C272 H249 0.947 . S
C272 C271 1.391 . S
C272 C273 1.392 . S
C273 H250 0.948 . S
C273 C272 1.392 . S
C273 C274 1.419 . S
C274 C273 1.419 . S
C274 C275 1.391 . S
C274 C278 1.397 . S
C275 C270 1.391 . S
C275 C274 1.391 . S
C275 C276 1.399 . S
C276 C275 1.399 . S
C276 C277 1.396 . S
C276 C279 1.453 . S
C276 C280 1.684 . S
C277 C267 1.723 . S
C277 C276 1.396 . S
C277 C278 1.394 . S
C278 C248 1.723 . S
C278 C274 1.397 . S
C278 C277 1.394 . S
C279 H251 0.982 . S
C279 H255 0.979 . S
C279 H256 0.977 . S
C279 C276 1.453 . S
C280 H252 0.979 . S
C280 H253 0.980 . S
C280 H254 0.983 . S
C280 C276 1.684 . S
H281 C299 0.948 . S
H282 C240 0.948 . S
H283 C258 0.979 . S
H284 C258 0.980 . S
H285 C258 0.983 . S
H286 C257 0.982 . S
H287 C257 0.979 . S
H288 C257 0.977 . S
H289 C259 0.948 . S
H290 C261 0.947 . S
H291 C262 0.948 . S
H292 C268 0.982 . S
H293 C268 0.979 . S
H294 C268 0.977 . S
H295 C269 0.979 . S
H296 C269 0.980 . S
H297 C269 0.983 . S
H298 C242 0.947 . S
C299 C242 1.392 . S
C299 C243 1.419 . S
C299 H281 0.948 . S
C300 C301 1.391 . S
C300 C304 1.391 . S
C300 H342 0.948 . S
C301 C300 1.391 . S
C301 C302 1.391 . S
C302 C301 1.391 . S
C302 H358 0.947 . S
C302 C359 1.392 . S
C303 C304 1.391 . S
C303 C307 1.397 . S
C303 C359 1.419 . S
C304 C300 1.391 . S
C304 C303 1.391 . S
C304 C305 1.399 . S
C305 C304 1.399 . S
C305 C308 1.396 . S
C305 C317 1.453 . S
C305 C318 1.684 . S
H306 C330 0.948 . S
C307 C303 1.397 . S
C307 C308 1.394 . S
C307 C326 1.723 . S
C308 C305 1.396 . S
C308 C307 1.394 . S
C308 C338 1.723 . S
H309 C332 0.947 . S
H310 C333 0.948 . S
H311 C339 0.982 . S
H312 C340 0.979 . S
H313 C340 0.980 . S
H314 C340 0.983 . S
H315 C339 0.979 . S
H316 C339 0.977 . S
C317 C305 1.453 . S
C317 H346 0.982 . S
C317 H347 0.979 . S
C317 H348 0.977 . S
C318 C305 1.684 . S
C318 H343 0.979 . S
C318 H344 0.980 . S
C318 H345 0.983 . S
C319 C320 1.391 . S
C319 C324 1.391 . S
C319 H349 0.948 . S
C320 C319 1.391 . S
C320 C321 1.391 . S
C321 C320 1.391 . S
C321 C322 1.392 . S
C321 H350 0.947 . S
C322 C321 1.392 . S
C322 C323 1.419 . S
C322 H351 0.948 . S
C323 C322 1.419 . S
C323 C324 1.391 . S
C323 C327 1.397 . S
C324 C319 1.391 . S
C324 C323 1.391 . S
C324 C325 1.399 . S
C325 C324 1.399 . S
C325 C326 1.396 . S
C325 C328 1.453 . S
C325 C329 1.684 . S
C326 C307 1.723 . S
C326 C325 1.396 . S
C326 C327 1.394 . S
C327 C323 1.397 . S
C327 C326 1.394 . S
C327 C337 1.723 . S
C328 C325 1.453 . S
C328 H352 0.982 . S
C328 H353 0.979 . S
C328 H354 0.977 . S
C329 C325 1.684 . S
C329 H355 0.979 . S
C329 H356 0.980 . S
C329 H357 0.983 . S
C330 H306 0.948 . S
C330 C331 1.391 . S
C330 C335 1.391 . S
C331 C330 1.391 . S
C331 C332 1.391 . S
C332 H309 0.947 . S
C332 C331 1.391 . S
C332 C333 1.392 . S
C333 H310 0.948 . S
C333 C332 1.392 . S
C333 C334 1.419 . S
C334 C333 1.419 . S
C334 C335 1.391 . S
C334 C338 1.397 . S
C335 C330 1.391 . S
C335 C334 1.391 . S
C335 C336 1.399 . S
C336 C335 1.399 . S
C336 C337 1.396 . S
C336 C339 1.453 . S
C336 C340 1.684 . S
C337 C327 1.723 . S
C337 C336 1.396 . S
C337 C338 1.394 . S
C338 C308 1.723 . S
C338 C334 1.397 . S
C338 C337 1.394 . S
C339 H311 0.982 . S
C339 H315 0.979 . S
C339 H316 0.977 . S
C339 C336 1.453 . S
C340 H312 0.979 . S
C340 H313 0.980 . S
C340 H314 0.983 . S
C340 C336 1.684 . S
H341 C359 0.948 . S
H342 C300 0.948 . S
H343 C318 0.979 . S
H344 C318 0.980 . S
H345 C318 0.983 . S
H346 C317 0.982 . S
H347 C317 0.979 . S
H348 C317 0.977 . S
H349 C319 0.948 . S
H350 C321 0.947 . S
H351 C322 0.948 . S
H352 C328 0.982 . S
H353 C328 0.979 . S
H354 C328 0.977 . S
H355 C329 0.979 . S
H356 C329 0.980 . S
H357 C329 0.983 . S
H358 C302 0.947 . S
C359 C302 1.392 . S
C359 C303 1.419 . S
C359 H341 0.948 . S
C360 C361 1.391 . S
C360 C364 1.391 . S
C360 H402 0.948 . S
C361 C360 1.391 . S
C361 C362 1.391 . S
C362 C361 1.391 . S
C362 H418 0.947 . S
C362 C419 1.392 . S
C363 C364 1.391 . S
C363 C367 1.397 . S
C363 C419 1.419 . S
C364 C360 1.391 . S
C364 C363 1.391 . S
C364 C365 1.399 . S
C365 C364 1.399 . S
C365 C368 1.396 . S
C365 C377 1.453 . S
C365 C378 1.684 . S
H366 C390 0.948 . S
C367 C363 1.397 . S
C367 C368 1.394 . S
C367 C386 1.723 . S
C368 C365 1.396 . S
C368 C367 1.394 . S
C368 C398 1.723 . S
H369 C392 0.947 . S
H370 C393 0.948 . S
H371 C399 0.959 1_455 S
H372 C400 0.979 . S
H373 C400 0.980 . S
H374 C400 0.983 . S
H375 C399 0.979 . S
H376 C399 0.977 . S
C377 C365 1.453 . S
C377 H406 0.982 . S
C377 H407 0.979 . S
C377 H408 0.977 . S
C378 C365 1.684 . S
C378 H403 0.979 . S
C378 H404 0.980 . S
C378 H405 0.983 . S
C379 C380 1.391 . S
C379 C384 1.391 . S
C379 H409 0.948 . S
C380 C379 1.391 . S
C380 C381 1.391 . S
C381 C380 1.391 . S
C381 C382 1.392 . S
C381 H410 0.947 . S
C382 C381 1.392 . S
C382 C383 1.419 . S
C382 H411 0.948 . S
C383 C382 1.419 . S
C383 C384 1.391 . S
C383 C387 1.397 . S
C384 C379 1.391 . S
C384 C383 1.391 . S
C384 C385 1.399 . S
C385 C384 1.399 . S
C385 C386 1.396 . S
C385 C388 1.453 . S
C385 C389 1.684 . S
C386 C367 1.723 . S
C386 C385 1.396 . S
C386 C387 1.394 . S
C387 C383 1.397 . S
C387 C386 1.394 . S
C387 C397 1.723 . S
C388 C385 1.453 . S
C388 H412 0.982 1_655 S
C388 H413 0.974 . S
C388 H414 0.977 . S
C389 C385 1.684 . S
C389 H415 0.979 . S
C389 H416 0.980 . S
C389 H417 0.983 . S
C390 H366 0.948 . S
C390 C391 1.391 . S
C390 C395 1.391 . S
C391 C390 1.391 . S
C391 C392 1.391 . S
C392 H369 0.947 . S
C392 C391 1.391 . S
C392 C393 1.392 . S
C393 H370 0.948 . S
C393 C392 1.392 . S
C393 C394 1.419 . S
C394 C393 1.419 . S
C394 C395 1.391 . S
C394 C398 1.397 . S
C395 C390 1.391 . S
C395 C394 1.391 . S
C395 C396 1.399 . S
C396 C395 1.399 . S
C396 C397 1.396 . S
C396 C399 1.453 . S
C396 C400 1.684 . S
C397 C387 1.723 . S
C397 C396 1.396 . S
C397 C398 1.394 . S
C398 C368 1.723 . S
C398 C394 1.397 . S
C398 C397 1.394 . S
C399 H371 0.959 1_655 S
C399 H375 0.979 . S
C399 H376 0.977 . S
C399 C396 1.453 . S
C400 H372 0.979 . S
C400 H373 0.980 . S
C400 H374 0.983 . S
C400 C396 1.684 . S
H401 C419 0.948 . S
H402 C360 0.948 . S
H403 C378 0.979 . S
H404 C378 0.980 . S
H405 C378 0.983 . S
H406 C377 0.982 . S
H407 C377 0.979 . S
H408 C377 0.977 . S
H409 C379 0.948 . S
H410 C381 0.947 . S
H411 C382 0.948 . S
H412 C388 0.982 1_455 S
H413 C388 0.974 . S
H414 C388 0.977 . S
H415 C389 0.979 . S
H416 C389 0.980 . S
H417 C389 0.983 . S
H418 C362 0.947 . S
C419 C362 1.392 . S
C419 C363 1.419 . S
C419 H401 0.948 . S
C420 C421 1.391 . S
C420 C424 1.391 . S
C420 H462 0.948 . S
C421 C420 1.391 . S
C421 C422 1.391 . S
C422 C421 1.391 . S
C422 H478 0.947 . S
C422 C479 1.392 . S
C423 C424 1.391 . S
C423 C427 1.397 . S
C423 C479 1.419 . S
C424 C420 1.391 . S
C424 C423 1.391 . S
C424 C425 1.399 . S
C425 C424 1.399 . S
C425 C428 1.396 . S
C425 C437 1.453 . S
C425 C438 1.684 . S
H426 C450 0.948 . S
C427 C423 1.397 . S
C427 C428 1.394 . S
C427 C446 1.723 . S
C428 C425 1.396 . S
C428 C427 1.394 . S
C428 C458 1.723 . S
H429 C452 0.947 . S
H430 C453 0.948 . S
H431 C459 0.982 . S
H432 C460 0.979 . S
H433 C460 0.980 . S
H434 C460 0.983 . S
H435 C459 0.979 . S
H436 C459 0.977 . S
C437 C425 1.453 . S
C437 H466 0.982 . S
C437 H467 0.979 . S
C437 H468 0.977 . S
C438 C425 1.684 . S
C438 H463 0.979 . S
C438 H464 0.980 . S
C438 H465 0.983 . S
C439 C440 1.391 . S
C439 C444 1.391 . S
C439 H469 0.948 . S
C440 C439 1.391 . S
C440 C441 1.391 . S
C441 C440 1.391 . S
C441 C442 1.392 . S
C441 H470 0.947 . S
C442 C441 1.392 . S
C442 C443 1.419 . S
C442 H471 0.948 . S
C443 C442 1.419 . S
C443 C444 1.391 . S
C443 C447 1.397 . S
C444 C439 1.391 . S
C444 C443 1.391 . S
C444 C445 1.399 . S
C445 C444 1.399 . S
C445 C446 1.396 . S
C445 C448 1.453 . S
C445 C449 1.684 . S
C446 C427 1.723 . S
C446 C445 1.396 . S
C446 C447 1.394 . S
C447 C443 1.397 . S
C447 C446 1.394 . S
C447 C457 1.723 . S
C448 C445 1.453 . S
C448 H472 0.982 . S
C448 H473 0.979 . S
C448 H474 0.977 . S
C449 C445 1.684 . S
C449 H475 0.979 . S
C449 H476 0.980 . S
C449 H477 0.983 . S
C450 H426 0.948 . S
C450 C451 1.391 . S
C450 C455 1.391 . S
C451 C450 1.391 . S
C451 C452 1.391 . S
C452 H429 0.947 . S
C452 C451 1.391 . S
C452 C453 1.392 . S
C453 H430 0.948 . S
C453 C452 1.392 . S
C453 C454 1.419 . S
C454 C453 1.419 . S
C454 C455 1.391 . S
C454 C458 1.397 . S
C455 C450 1.391 . S
C455 C454 1.391 . S
C455 C456 1.399 . S
C456 C455 1.399 . S
C456 C457 1.396 . S
C456 C459 1.453 . S
C456 C460 1.684 . S
C457 C447 1.723 . S
C457 C456 1.396 . S
C457 C458 1.394 . S
C458 C428 1.723 . S
C458 C454 1.397 . S
C458 C457 1.394 . S
C459 H431 0.982 . S
C459 H435 0.979 . S
C459 H436 0.977 . S
C459 C456 1.453 . S
C460 H432 0.979 . S
C460 H433 0.980 . S
C460 H434 0.983 . S
C460 C456 1.684 . S
H461 C479 0.948 . S
H462 C420 0.948 . S
H463 C438 0.979 . S
H464 C438 0.980 . S
H465 C438 0.983 . S
H466 C437 0.982 . S
H467 C437 0.979 . S
H468 C437 0.977 . S
H469 C439 0.948 . S
H470 C441 0.947 . S
H471 C442 0.948 . S
H472 C448 0.982 . S
H473 C448 0.979 . S
H474 C448 0.977 . S
H475 C449 0.979 . S
H476 C449 0.980 . S
H477 C449 0.983 . S
H478 C422 0.947 . S
C479 C422 1.392 . S
C479 C423 1.419 . S
C479 H461 0.948 . S
C480 C481 1.391 . S
C480 C484 1.391 . S
C480 H522 0.948 . S
C481 C480 1.391 . S
C481 C482 1.391 . S
C482 C481 1.391 . S
C482 H538 0.947 . S
C482 C539 1.392 . S
C483 C484 1.391 . S
C483 C487 1.397 . S
C483 C539 1.419 . S
C484 C480 1.391 . S
C484 C483 1.391 . S
C484 C485 1.399 . S
C485 C484 1.399 . S
C485 C488 1.396 . S
C485 C497 1.453 . S
C485 C498 1.684 . S
H486 C510 0.948 . S
C487 C483 1.397 . S
C487 C488 1.394 . S
C487 C506 1.723 . S
C488 C485 1.396 . S
C488 C487 1.394 . S
C488 C518 1.723 . S
H489 C512 0.947 . S
H490 C513 0.948 . S
H491 C519 0.982 . S
H492 C520 0.979 . S
H493 C520 0.980 . S
H494 C520 0.983 . S
H495 C519 0.979 . S
H496 C519 0.977 . S
C497 C485 1.453 . S
C497 H526 0.982 . S
C497 H527 0.979 . S
C497 H528 0.977 . S
C498 C485 1.684 . S
C498 H523 0.979 . S
C498 H524 0.980 . S
C498 H525 0.983 . S
C499 C500 1.391 . S
C499 C504 1.391 . S
C499 H529 0.948 . S
C500 C499 1.391 . S
C500 C501 1.391 . S
C501 C500 1.391 . S
C501 C502 1.392 . S
C501 H530 0.947 . S
C502 C501 1.392 . S
C502 C503 1.419 . S
C502 H531 0.948 . S
C503 C502 1.419 . S
C503 C504 1.391 . S
C503 C507 1.397 . S
C504 C499 1.391 . S
C504 C503 1.391 . S
C504 C505 1.399 . S
C505 C504 1.399 . S
C505 C506 1.396 . S
C505 C508 1.453 . S
C505 C509 1.684 . S
C506 C487 1.723 . S
C506 C505 1.396 . S
C506 C507 1.394 . S
C507 C503 1.397 . S
C507 C506 1.394 . S
C507 C517 1.723 . S
C508 C505 1.453 . S
C508 H532 0.982 . S
C508 H533 0.979 . S
C508 H534 0.977 . S
C509 C505 1.684 . S
C509 H535 0.979 . S
C509 H536 0.980 . S
C509 H537 0.983 . S
C510 H486 0.948 . S
C510 C511 1.391 . S
C510 C515 1.391 . S
C511 C510 1.391 . S
C511 C512 1.391 . S
C512 H489 0.947 . S
C512 C511 1.391 . S
C512 C513 1.392 . S
C513 H490 0.948 . S
C513 C512 1.392 . S
C513 C514 1.419 . S
C514 C513 1.419 . S
C514 C515 1.391 . S
C514 C518 1.397 . S
C515 C510 1.391 . S
C515 C514 1.391 . S
C515 C516 1.399 . S
C516 C515 1.399 . S
C516 C517 1.396 . S
C516 C519 1.453 . S
C516 C520 1.684 . S
C517 C507 1.723 . S
C517 C516 1.396 . S
C517 C518 1.394 . S
C518 C488 1.723 . S
C518 C514 1.397 . S
C518 C517 1.394 . S
C519 H491 0.982 . S
C519 H495 0.979 . S
C519 H496 0.977 . S
C519 C516 1.453 . S
C520 H492 0.979 . S
C520 H493 0.980 . S
C520 H494 0.983 . S
C520 C516 1.684 . S
H521 C539 0.948 . S
H522 C480 0.948 . S
H523 C498 0.979 . S
H524 C498 0.980 . S
H525 C498 0.983 . S
H526 C497 0.982 . S
H527 C497 0.979 . S
H528 C497 0.977 . S
H529 C499 0.948 . S
H530 C501 0.947 . S
H531 C502 0.948 . S
H532 C508 0.982 . S
H533 C508 0.979 . S
H534 C508 0.977 . S
H535 C509 0.979 . S
H536 C509 0.980 . S
H537 C509 0.983 . S
H538 C482 0.947 . S
C539 C482 1.392 . S
C539 C483 1.419 . S
C539 H521 0.948 . S
C540 C541 1.391 . S
C540 C544 1.391 . S
C540 H582 0.948 . S
C541 C540 1.391 . S
C541 C542 1.391 . S
C542 C541 1.391 . S
C542 H598 0.947 . S
C542 C599 1.392 . S
C543 C544 1.391 . S
C543 C547 1.397 . S
C543 C599 1.419 . S
C544 C540 1.391 . S
C544 C543 1.391 . S
C544 C545 1.399 . S
C545 C544 1.399 . S
C545 C548 1.396 . S
C545 C557 1.453 . S
C545 C558 1.684 . S
H546 C570 0.948 . S
C547 C543 1.397 . S
C547 C548 1.394 . S
C547 C566 1.723 . S
C548 C545 1.396 . S
C548 C547 1.394 . S
C548 C578 1.723 . S
H549 C572 0.947 . S
H550 C573 0.948 . S
H551 C579 0.982 . S
H552 C580 0.979 . S
H553 C580 0.980 . S
H554 C580 0.983 . S
H555 C579 0.979 . S
H556 C579 0.977 . S
C557 C545 1.453 . S
C557 H586 0.982 . S
C557 H587 0.979 . S
C557 H588 0.977 . S
C558 C545 1.684 . S
C558 H583 0.979 . S
C558 H584 0.980 . S
C558 H585 0.983 . S
C559 C560 1.391 . S
C559 C564 1.391 . S
C559 H589 0.948 . S
C560 C559 1.391 . S
C560 C561 1.391 . S
C561 C560 1.391 . S
C561 C562 1.392 . S
C561 H590 0.947 . S
C562 C561 1.392 . S
C562 C563 1.419 . S
C562 H591 0.948 . S
C563 C562 1.419 . S
C563 C564 1.391 . S
C563 C567 1.397 . S
C564 C559 1.391 . S
C564 C563 1.391 . S
C564 C565 1.399 . S
C565 C564 1.399 . S
C565 C566 1.396 . S
C565 C568 1.453 . S
C565 C569 1.684 . S
C566 C547 1.723 . S
C566 C565 1.396 . S
C566 C567 1.394 . S
C567 C563 1.397 . S
C567 C566 1.394 . S
C567 C577 1.723 . S
C568 C565 1.453 . S
C568 H592 0.982 . S
C568 H593 0.979 . S
C568 H594 0.977 . S
C569 C565 1.684 . S
C569 H595 0.979 . S
C569 H596 0.980 . S
C569 H597 0.983 . S
C570 H546 0.948 . S
C570 C571 1.391 . S
C570 C575 1.391 . S
C571 C570 1.391 . S
C571 C572 1.391 . S
C572 H549 0.947 . S
C572 C571 1.391 . S
C572 C573 1.392 . S
C573 H550 0.948 . S
C573 C572 1.392 . S
C573 C574 1.419 . S
C574 C573 1.419 . S
C574 C575 1.391 . S
C574 C578 1.397 . S
C575 C570 1.391 . S
C575 C574 1.391 . S
C575 C576 1.399 . S
C576 C575 1.399 . S
C576 C577 1.396 . S
C576 C579 1.453 . S
C576 C580 1.684 . S
C577 C567 1.723 . S
C577 C576 1.396 . S
C577 C578 1.394 . S
C578 C548 1.723 . S
C578 C574 1.397 . S
C578 C577 1.394 . S
C579 H551 0.982 . S
C579 H555 0.979 . S
C579 H556 0.977 . S
C579 C576 1.453 . S
C580 H552 0.979 . S
C580 H553 0.980 . S
C580 H554 0.983 . S
C580 C576 1.684 . S
H581 C599 0.948 . S
H582 C540 0.948 . S
H583 C558 0.979 . S
H584 C558 0.980 . S
H585 C558 0.983 . S
H586 C557 0.982 . S
H587 C557 0.979 . S
H588 C557 0.977 . S
H589 C559 0.948 . S
H590 C561 0.947 . S
H591 C562 0.948 . S
H592 C568 0.982 . S
H593 C568 0.979 . S
H594 C568 0.977 . S
H595 C569 0.979 . S
H596 C569 0.980 . S
H597 C569 0.983 . S
H598 C542 0.947 . S
C599 C542 1.392 . S
C599 C543 1.419 . S
C599 H581 0.948 . S
C600 C601 1.391 . S
C600 C604 1.391 . S
C600 H642 0.948 . S
C601 C600 1.391 . S
C601 C602 1.391 . S
C602 C601 1.391 . S
C602 H658 0.947 . S
C602 C659 1.392 . S
C603 C604 1.391 . S
C603 C607 1.397 . S
C603 C659 1.419 . S
C604 C600 1.391 . S
C604 C603 1.391 . S
C604 C605 1.399 . S
C605 C604 1.399 . S
C605 C608 1.396 . S
C605 C617 1.453 . S
C605 C618 1.684 . S
H606 C630 0.948 . S
C607 C603 1.397 . S
C607 C608 1.394 . S
C607 C626 1.723 . S
C608 C605 1.396 . S
C608 C607 1.394 . S
C608 C638 1.723 . S
H609 C632 0.947 . S
H610 C633 0.948 . S
H611 C639 0.982 . S
H612 C640 0.979 . S
H613 C640 0.980 . S
H614 C640 0.983 . S
H615 C639 0.979 . S
H616 C639 0.977 . S
C617 C605 1.453 . S
C617 H646 0.982 . S
C617 H647 0.979 . S
C617 H648 0.977 . S
C618 C605 1.684 . S
C618 H643 0.979 . S
C618 H644 0.980 . S
C618 H645 0.983 . S
C619 C620 1.391 . S
C619 C624 1.391 . S
C619 H649 0.948 . S
C620 C619 1.391 . S
C620 C621 1.391 . S
C621 C620 1.391 . S
C621 C622 1.392 . S
C621 H650 0.947 . S
C622 C621 1.392 . S
C622 C623 1.419 . S
C622 H651 0.948 . S
C623 C622 1.419 . S
C623 C624 1.391 . S
C623 C627 1.397 . S
C624 C619 1.391 . S
C624 C623 1.391 . S
C624 C625 1.399 . S
C625 C624 1.399 . S
C625 C626 1.396 . S
C625 C628 1.453 . S
C625 C629 1.684 . S
C626 C607 1.723 . S
C626 C625 1.396 . S
C626 C627 1.394 . S
C627 C623 1.397 . S
C627 C626 1.394 . S
C627 C637 1.723 . S
C628 C625 1.453 . S
C628 H652 0.982 . S
C628 H653 0.979 . S
C628 H654 0.977 . S
C629 C625 1.684 . S
C629 H655 0.979 . S
C629 H656 0.980 . S
C629 H657 0.983 . S
C630 H606 0.948 . S
C630 C631 1.391 . S
C630 C635 1.391 . S
C631 C630 1.391 . S
C631 C632 1.391 . S
C632 H609 0.947 . S
C632 C631 1.391 . S
C632 C633 1.392 . S
C633 H610 0.948 . S
C633 C632 1.392 . S
C633 C634 1.419 . S
C634 C633 1.419 . S
C634 C635 1.391 . S
C634 C638 1.397 . S
C635 C630 1.391 . S
C635 C634 1.391 . S
C635 C636 1.399 . S
C636 C635 1.399 . S
C636 C637 1.396 . S
C636 C639 1.453 . S
C636 C640 1.684 . S
C637 C627 1.723 . S
C637 C636 1.396 . S
C637 C638 1.394 . S
C638 C608 1.723 . S
C638 C634 1.397 . S
C638 C637 1.394 . S
C639 H611 0.982 . S
C639 H615 0.979 . S
C639 H616 0.977 . S
C639 C636 1.453 . S
C640 H612 0.979 . S
C640 H613 0.980 . S
C640 H614 0.983 . S
C640 C636 1.684 . S
H641 C659 0.948 . S
H642 C600 0.948 . S
H643 C618 0.979 . S
H644 C618 0.980 . S
H645 C618 0.983 . S
H646 C617 0.982 . S
H647 C617 0.979 . S
H648 C617 0.977 . S
H649 C619 0.948 . S
H650 C621 0.947 . S
H651 C622 0.948 . S
H652 C628 0.982 . S
H653 C628 0.979 . S
H654 C628 0.977 . S
H655 C629 0.979 . S
H656 C629 0.980 . S
H657 C629 0.983 . S
H658 C602 0.947 . S
C659 C602 1.392 . S
C659 C603 1.419 . S
C659 H641 0.948 . S
C660 C661 1.391 . S
C660 C664 1.391 . S
C660 H702 0.948 . S
C661 C660 1.391 . S
C661 C662 1.391 . S
C662 C661 1.391 . S
C662 H718 0.947 . S
C662 C719 1.392 . S
C663 C664 1.391 . S
C663 C667 1.397 . S
C663 C719 1.419 . S
C664 C660 1.391 . S
C664 C663 1.391 . S
C664 C665 1.399 . S
C665 C664 1.399 . S
C665 C668 1.396 . S
C665 C677 1.453 . S
C665 C678 1.684 . S
H666 C690 0.948 . S
C667 C663 1.397 . S
C667 C668 1.394 . S
C667 C686 1.723 . S
C668 C665 1.396 . S
C668 C667 1.394 . S
C668 C698 1.723 . S
H669 C692 0.947 . S
H670 C693 0.948 . S
H671 C699 0.982 . S
H672 C700 0.979 . S
H673 C700 0.980 . S
H674 C700 0.983 . S
H675 C699 0.979 . S
H676 C699 0.977 . S
C677 C665 1.453 . S
C677 H706 0.982 . S
C677 H707 0.979 . S
C677 H708 0.977 . S
C678 C665 1.684 . S
C678 H703 0.979 . S
C678 H704 0.980 . S
C678 H705 0.983 . S
C679 C680 1.391 . S
C679 C684 1.391 . S
C679 H709 0.948 . S
C680 C679 1.391 . S
C680 C681 1.391 . S
C681 C680 1.391 . S
C681 C682 1.392 . S
C681 H710 0.947 . S
C682 C681 1.392 . S
C682 C683 1.419 . S
C682 H711 0.948 . S
C683 C682 1.419 . S
C683 C684 1.391 . S
C683 C687 1.397 . S
C684 C679 1.391 . S
C684 C683 1.391 . S
C684 C685 1.399 . S
C685 C684 1.399 . S
C685 C686 1.396 . S
C685 C688 1.453 . S
C685 C689 1.684 . S
C686 C667 1.723 . S
C686 C685 1.396 . S
C686 C687 1.394 . S
C687 C683 1.397 . S
C687 C686 1.394 . S
C687 C697 1.723 . S
C688 C685 1.453 . S
C688 H712 0.982 . S
C688 H713 0.979 . S
C688 H714 0.977 . S
C689 C685 1.684 . S
C689 H715 0.979 . S
C689 H716 0.980 . S
C689 H717 0.983 . S
C690 H666 0.948 . S
C690 C691 1.391 . S
C690 C695 1.391 . S
C691 C690 1.391 . S
C691 C692 1.391 . S
C692 H669 0.947 . S
C692 C691 1.391 . S
C692 C693 1.392 . S
C693 H670 0.948 . S
C693 C692 1.392 . S
C693 C694 1.419 . S
C694 C693 1.419 . S
C694 C695 1.391 . S
C694 C698 1.397 . S
C695 C690 1.391 . S
C695 C694 1.391 . S
C695 C696 1.399 . S
C696 C695 1.399 . S
C696 C697 1.396 . S
C696 C699 1.453 . S
C696 C700 1.684 . S
C697 C687 1.723 . S
C697 C696 1.396 . S
C697 C698 1.394 . S
C698 C668 1.723 . S
C698 C694 1.397 . S
C698 C697 1.394 . S
C699 H671 0.982 . S
C699 H675 0.979 . S
C699 H676 0.977 . S
C699 C696 1.453 . S
C700 H672 0.979 . S
C700 H673 0.980 . S
C700 H674 0.983 . S
C700 C696 1.684 . S
H701 C719 0.948 . S
H702 C660 0.948 . S
H703 C678 0.979 . S
H704 C678 0.980 . S
H705 C678 0.983 . S
H706 C677 0.982 . S
H707 C677 0.979 . S
H708 C677 0.977 . S
H709 C679 0.948 . S
H710 C681 0.947 . S
H711 C682 0.948 . S
H712 C688 0.982 . S
H713 C688 0.979 . S
H714 C688 0.977 . S
H715 C689 0.979 . S
H716 C689 0.980 . S
H717 C689 0.983 . S
H718 C662 0.947 . S
C719 C662 1.392 . S
C719 C663 1.419 . S
C719 H701 0.948 . S
C720 C721 1.391 . S
C720 C724 1.391 . S
C720 H762 0.948 . S
C721 C720 1.391 . S
C721 C722 1.391 . S
C722 C721 1.391 . S
C722 H778 0.947 . S
C722 C779 1.392 . S
C723 C724 1.391 . S
C723 C727 1.397 . S
C723 C779 1.419 . S
C724 C720 1.391 . S
C724 C723 1.391 . S
C724 C725 1.399 . S
C725 C724 1.399 . S
C725 C728 1.396 . S
C725 C737 1.453 . S
C725 C738 1.684 . S
H726 C750 0.948 . S
C727 C723 1.397 . S
C727 C728 1.394 . S
C727 C746 1.723 . S
C728 C725 1.396 . S
C728 C727 1.394 . S
C728 C758 1.723 . S
H729 C752 0.947 . S
H730 C753 0.948 . S
H731 C759 0.982 . S
H732 C760 0.979 . S
H733 C760 0.980 . S
H734 C760 0.983 . S
H735 C759 0.979 . S
H736 C759 0.977 . S
C737 C725 1.453 . S
C737 H766 0.982 . S
C737 H767 0.979 . S
C737 H768 0.977 . S
C738 C725 1.684 . S
C738 H763 0.979 . S
C738 H764 0.980 . S
C738 H765 0.983 . S
C739 C740 1.391 . S
C739 C744 1.391 . S
C739 H769 0.948 . S
C740 C739 1.391 . S
C740 C741 1.391 . S
C741 C740 1.391 . S
C741 C742 1.392 . S
C741 H770 0.947 . S
C742 C741 1.392 . S
C742 C743 1.419 . S
C742 H771 0.948 . S
C743 C742 1.419 . S
C743 C744 1.391 . S
C743 C747 1.397 . S
C744 C739 1.391 . S
C744 C743 1.391 . S
C744 C745 1.399 . S
C745 C744 1.399 . S
C745 C746 1.396 . S
C745 C748 1.453 . S
C745 C749 1.684 . S
C746 C727 1.723 . S
C746 C745 1.396 . S
C746 C747 1.394 . S
C747 C743 1.397 . S
C747 C746 1.394 . S
C747 C757 1.723 . S
C748 C745 1.453 . S
C748 H772 0.982 . S
C748 H773 0.979 . S
C748 H774 0.977 . S
C749 C745 1.684 . S
C749 H775 0.979 . S
C749 H776 0.980 . S
C749 H777 0.983 . S
C750 H726 0.948 . S
C750 C751 1.391 . S
C750 C755 1.391 . S
C751 C750 1.391 . S
C751 C752 1.391 . S
C752 H729 0.947 . S
C752 C751 1.391 . S
C752 C753 1.392 . S
C753 H730 0.948 . S
C753 C752 1.392 . S
C753 C754 1.419 . S
C754 C753 1.419 . S
C754 C755 1.391 . S
C754 C758 1.397 . S
C755 C750 1.391 . S
C755 C754 1.391 . S
C755 C756 1.399 . S
C756 C755 1.399 . S
C756 C757 1.396 . S
C756 C759 1.453 . S
C756 C760 1.684 . S
C757 C747 1.723 . S
C757 C756 1.396 . S
C757 C758 1.394 . S
C758 C728 1.723 . S
C758 C754 1.397 . S
C758 C757 1.394 . S
C759 H731 0.982 . S
C759 H735 0.979 . S
C759 H736 0.977 . S
C759 C756 1.453 . S
C760 H732 0.979 . S
C760 H733 0.980 . S
C760 H734 0.983 . S
C760 C756 1.684 . S
H761 C779 0.948 . S
H762 C720 0.948 . S
H763 C738 0.979 . S
H764 C738 0.980 . S
H765 C738 0.983 . S
H766 C737 0.982 . S
H767 C737 0.979 . S
H768 C737 0.977 . S
H769 C739 0.948 . S
H770 C741 0.947 . S
H771 C742 0.948 . S
H772 C748 0.982 . S
H773 C748 0.979 . S
H774 C748 0.977 . S
H775 C749 0.979 . S
H776 C749 0.980 . S
H777 C749 0.983 . S
H778 C722 0.947 . S
C779 C722 1.392 . S
C779 C723 1.419 . S
C779 H761 0.948 . S
C780 C781 1.391 . S
C780 C784 1.391 . S
C780 H822 0.948 . S
C781 C780 1.391 . S
C781 C782 1.391 . S
C782 C781 1.391 . S
C782 H838 0.947 . S
C782 C839 1.392 . S
C783 C784 1.391 . S
C783 C787 1.397 . S
C783 C839 1.419 . S
C784 C780 1.391 . S
C784 C783 1.391 . S
C784 C785 1.399 . S
C785 C784 1.399 . S
C785 C788 1.396 . S
C785 C797 1.453 . S
C785 C798 1.684 . S
H786 C810 0.948 . S
C787 C783 1.397 . S
C787 C788 1.394 . S
C787 C806 1.723 . S
C788 C785 1.396 . S
C788 C787 1.394 . S
C788 C818 1.723 . S
H789 C812 0.947 . S
H790 C813 0.948 . S
H791 C819 0.982 . S
H792 C820 0.979 . S
H793 C820 0.980 . S
H794 C820 0.983 . S
H795 C819 0.979 . S
H796 C819 0.977 . S
C797 C785 1.453 . S
C797 H826 0.982 . S
C797 H827 0.979 . S
C797 H828 0.977 . S
C798 C785 1.684 . S
C798 H823 0.979 . S
C798 H824 0.980 . S
C798 H825 0.983 . S
C799 C800 1.391 . S
C799 C804 1.391 . S
C799 H829 0.948 . S
C800 C799 1.391 . S
C800 C801 1.391 . S
C801 C800 1.391 . S
C801 C802 1.392 . S
C801 H830 0.947 . S
C802 C801 1.392 . S
C802 C803 1.419 . S
C802 H831 0.948 . S
C803 C802 1.419 . S
C803 C804 1.391 . S
C803 C807 1.397 . S
C804 C799 1.391 . S
C804 C803 1.391 . S
C804 C805 1.399 . S
C805 C804 1.399 . S
C805 C806 1.396 . S
C805 C808 1.453 . S
C805 C809 1.684 . S
C806 C787 1.723 . S
C806 C805 1.396 . S
C806 C807 1.394 . S
C807 C803 1.397 . S
C807 C806 1.394 . S
C807 C817 1.723 . S
C808 C805 1.453 . S
C808 H832 0.982 . S
C808 H833 0.979 . S
C808 H834 0.977 . S
C809 C805 1.684 . S
C809 H835 0.979 . S
C809 H836 0.980 . S
C809 H837 0.983 . S
C810 H786 0.948 . S
C810 C811 1.391 . S
C810 C815 1.391 . S
C811 C810 1.391 . S
C811 C812 1.391 . S
C812 H789 0.947 . S
C812 C811 1.391 . S
C812 C813 1.392 . S
C813 H790 0.948 . S
C813 C812 1.392 . S
C813 C814 1.419 . S
C814 C813 1.419 . S
C814 C815 1.391 . S
C814 C818 1.397 . S
C815 C810 1.391 . S
C815 C814 1.391 . S
C815 C816 1.399 . S
C816 C815 1.399 . S
C816 C817 1.396 . S
C816 C819 1.453 . S
C816 C820 1.684 . S
C817 C807 1.723 . S
C817 C816 1.396 . S
C817 C818 1.394 . S
C818 C788 1.723 . S
C818 C814 1.397 . S
C818 C817 1.394 . S
C819 H791 0.982 . S
C819 H795 0.979 . S
C819 H796 0.977 . S
C819 C816 1.453 . S
C820 H792 0.979 . S
C820 H793 0.980 . S
C820 H794 0.983 . S
C820 C816 1.684 . S
H821 C839 0.948 . S
H822 C780 0.948 . S
H823 C798 0.979 . S
H824 C798 0.980 . S
H825 C798 0.983 . S
H826 C797 0.982 . S
H827 C797 0.979 . S
H828 C797 0.977 . S
H829 C799 0.948 . S
H830 C801 0.947 . S
H831 C802 0.948 . S
H832 C808 0.982 . S
H833 C808 0.979 . S
H834 C808 0.977 . S
H835 C809 0.979 . S
H836 C809 0.980 . S
H837 C809 0.983 . S
H838 C782 0.947 . S
C839 C782 1.392 . S
C839 C783 1.419 . S
C839 H821 0.948 . S
C840 C841 1.391 . S
C840 C844 1.391 . S
C840 H882 0.948 . S
C841 C840 1.391 . S
C841 C842 1.391 . S
C842 C841 1.391 . S
C842 H898 0.947 . S
C842 C899 1.392 . S
C843 C844 1.391 . S
C843 C847 1.397 . S
C843 C899 1.419 . S
C844 C840 1.391 . S
C844 C843 1.391 . S
C844 C845 1.399 . S
C845 C844 1.399 . S
C845 C848 1.396 . S
C845 C857 1.453 . S
C845 C858 1.684 . S
H846 C870 0.948 . S
C847 C843 1.397 . S
C847 C848 1.394 . S
C847 C866 1.723 . S
C848 C845 1.396 . S
C848 C847 1.394 . S
C848 C878 1.723 . S
H849 C872 0.947 . S
H850 C873 0.948 . S
H851 C879 0.982 . S
H852 C880 0.979 . S
H853 C880 0.980 . S
H854 C880 0.983 . S
H855 C879 0.979 . S
H856 C879 0.977 . S
C857 C845 1.453 . S
C857 H886 0.982 . S
C857 H887 0.979 . S
C857 H888 0.977 . S
C858 C845 1.684 . S
C858 H883 0.979 . S
C858 H884 0.980 . S
C858 H885 0.983 . S
C859 C860 1.391 . S
C859 C864 1.391 . S
C859 H889 0.948 . S
C860 C859 1.391 . S
C860 C861 1.391 . S
C861 C860 1.391 . S
C861 C862 1.392 . S
C861 H890 0.947 . S
C862 C861 1.392 . S
C862 C863 1.419 . S
C862 H891 0.948 . S
C863 C862 1.419 . S
C863 C864 1.391 . S
C863 C867 1.397 . S
C864 C859 1.391 . S
C864 C863 1.391 . S
C864 C865 1.399 . S
C865 C864 1.399 . S
C865 C866 1.396 . S
C865 C868 1.453 . S
C865 C869 1.684 . S
C866 C847 1.723 . S
C866 C865 1.396 . S
C866 C867 1.394 . S
C867 C863 1.397 . S
C867 C866 1.394 . S
C867 C877 1.723 . S
C868 C865 1.453 . S
C868 H892 0.982 . S
C868 H893 0.979 . S
C868 H894 0.977 . S
C869 C865 1.684 . S
C869 H895 0.979 . S
C869 H896 0.980 . S
C869 H897 0.983 . S
C870 H846 0.948 . S
C870 C871 1.391 . S
C870 C875 1.391 . S
C871 C870 1.391 . S
C871 C872 1.391 . S
C872 H849 0.947 . S
C872 C871 1.391 . S
C872 C873 1.392 . S
C873 H850 0.948 . S
C873 C872 1.392 . S
C873 C874 1.419 . S
C874 C873 1.419 . S
C874 C875 1.391 . S
C874 C878 1.397 . S
C875 C870 1.391 . S
C875 C874 1.391 . S
C875 C876 1.399 . S
C876 C875 1.399 . S
C876 C877 1.396 . S
C876 C879 1.453 . S
C876 C880 1.684 . S
C877 C867 1.723 . S
C877 C876 1.396 . S
C877 C878 1.394 . S
C878 C848 1.723 . S
C878 C874 1.397 . S
C878 C877 1.394 . S
C879 H851 0.982 . S
C879 H855 0.979 . S
C879 H856 0.977 . S
C879 C876 1.453 . S
C880 H852 0.979 . S
C880 H853 0.980 . S
C880 H854 0.983 . S
C880 C876 1.684 . S
H881 C899 0.948 . S
H882 C840 0.948 . S
H883 C858 0.979 . S
H884 C858 0.980 . S
H885 C858 0.983 . S
H886 C857 0.982 . S
H887 C857 0.979 . S
H888 C857 0.977 . S
H889 C859 0.948 . S
H890 C861 0.947 . S
H891 C862 0.948 . S
H892 C868 0.982 . S
H893 C868 0.979 . S
H894 C868 0.977 . S
H895 C869 0.979 . S
H896 C869 0.980 . S
H897 C869 0.983 . S
H898 C842 0.947 . S
C899 C842 1.392 . S
C899 C843 1.419 . S
C899 H881 0.948 . S
C900 C901 1.391 . S
C900 C904 1.391 . S
C900 H942 0.948 . S
C901 C900 1.391 . S
C901 C902 1.391 . S
C902 C901 1.391 . S
C902 H958 0.947 . S
C902 C959 1.392 . S
C903 C904 1.391 . S
C903 C907 1.397 . S
C903 C959 1.419 . S
C904 C900 1.391 . S
C904 C903 1.391 . S
C904 C905 1.399 . S
C905 C904 1.399 . S
C905 C908 1.396 . S
C905 C917 1.453 . S
C905 C918 1.684 . S
H906 C930 0.948 . S
C907 C903 1.397 . S
C907 C908 1.394 . S
C907 C926 1.723 . S
C908 C905 1.396 . S
C908 C907 1.394 . S
C908 C938 1.723 . S
H909 C932 0.947 . S
H910 C933 0.948 . S
H911 C939 0.982 . S
H912 C940 0.979 . S
H913 C940 0.980 . S
H914 C940 0.983 . S
H915 C939 0.979 . S
H916 C939 0.977 . S
C917 C905 1.453 . S
C917 H946 0.982 . S
C917 H947 0.979 . S
C917 H948 0.977 . S
C918 C905 1.684 . S
C918 H943 0.979 . S
C918 H944 0.980 . S
C918 H945 0.983 . S
C919 C920 1.391 . S
C919 C924 1.391 . S
C919 H949 0.948 . S
C920 C919 1.391 . S
C920 C921 1.391 . S
C921 C920 1.391 . S
C921 C922 1.392 . S
C921 H950 0.947 . S
C922 C921 1.392 . S
C922 C923 1.419 . S
C922 H951 0.948 . S
C923 C922 1.419 . S
C923 C924 1.391 . S
C923 C927 1.397 . S
C924 C919 1.391 . S
C924 C923 1.391 . S
C924 C925 1.399 . S
C925 C924 1.399 . S
C925 C926 1.396 . S
C925 C928 1.453 . S
C925 C929 1.684 . S
C926 C907 1.723 . S
C926 C925 1.396 . S
C926 C927 1.394 . S
C927 C923 1.397 . S
C927 C926 1.394 . S
C927 C937 1.723 . S
C928 C925 1.453 . S
C928 H952 0.982 . S
C928 H953 0.979 . S
C928 H954 0.977 . S
C929 C925 1.684 . S
C929 H955 0.979 . S
C929 H956 0.980 . S
C929 H957 0.983 . S
C930 H906 0.948 . S
C930 C931 1.391 . S
C930 C935 1.391 . S
C931 C930 1.391 . S
C931 C932 1.391 . S
C932 H909 0.947 . S
C932 C931 1.391 . S
C932 C933 1.392 . S
C933 H910 0.948 . S
C933 C932 1.392 . S
C933 C934 1.419 . S
C934 C933 1.419 . S
C934 C935 1.391 . S
C934 C938 1.397 . S
C935 C930 1.391 . S
C935 C934 1.391 . S
C935 C936 1.399 . S
C936 C935 1.399 . S
C936 C937 1.396 . S
C936 C939 1.453 . S
C936 C940 1.684 . S
C937 C927 1.723 . S
C937 C936 1.396 . S
C937 C938 1.394 . S
C938 C908 1.723 . S
C938 C934 1.397 . S
C938 C937 1.394 . S
C939 H911 0.982 . S
C939 H915 0.979 . S
C939 H916 0.977 . S
C939 C936 1.453 . S
C940 H912 0.979 . S
C940 H913 0.980 . S
C940 H914 0.983 . S
C940 C936 1.684 . S
H941 C959 0.948 . S
H942 C900 0.948 . S
H943 C918 0.979 . S
H944 C918 0.980 . S
H945 C918 0.983 . S
H946 C917 0.982 . S
H947 C917 0.979 . S
H948 C917 0.977 . S
H949 C919 0.948 . S
H950 C921 0.947 . S
H951 C922 0.948 . S
H952 C928 0.982 . S
H953 C928 0.979 . S
H954 C928 0.977 . S
H955 C929 0.979 . S
H956 C929 0.980 . S
H957 C929 0.983 . S
H958 C902 0.947 . S
C959 C902 1.392 . S
C959 C903 1.419 . S
C959 H941 0.948 . S
C960 C961 1.391 . S
C960 C964 1.391 . S
C960 H1002 0.948 . S
C961 C960 1.391 . S
C961 C962 1.391 . S
C962 C961 1.391 . S
C962 H1018 0.947 . S
C962 C1019 1.392 . S
C963 C964 1.391 . S
C963 C967 1.397 . S
C963 C1019 1.419 . S
C964 C960 1.391 . S
C964 C963 1.391 . S
C964 C965 1.399 . S
C965 C964 1.399 . S
C965 C968 1.396 . S
C965 C977 1.453 . S
C965 C978 1.684 . S
H966 C990 0.948 . S
C967 C963 1.397 . S
C967 C968 1.394 . S
C967 C986 1.723 . S
C968 C965 1.396 . S
C968 C967 1.394 . S
C968 C998 1.723 . S
H969 C992 0.947 . S
H970 C993 0.948 . S
H971 C999 0.982 . S
H972 C1000 0.979 1_655 S
H973 C1000 0.980 . S
H974 C1000 0.983 . S
H975 C999 0.979 . S
H976 C999 0.977 . S
C977 C965 1.453 . S
C977 H1006 0.982 . S
C977 H1007 0.979 . S
C977 H1008 0.977 . S
C978 C965 1.684 . S
C978 H1003 0.979 . S
C978 H1004 0.980 . S
C978 H1005 0.983 . S
C979 C980 1.391 . S
C979 C984 1.391 . S
C979 H1009 0.948 . S
C980 C979 1.391 . S
C980 C981 1.391 . S
C981 C980 1.391 . S
C981 C982 1.392 . S
C981 H1010 0.947 . S
C982 C981 1.392 . S
C982 C983 1.419 . S
C982 H1011 0.948 . S
C983 C982 1.419 . S
C983 C984 1.391 . S
C983 C987 1.397 . S
C984 C979 1.391 . S
C984 C983 1.391 . S
C984 C985 1.399 . S
C985 C984 1.399 . S
C985 C986 1.396 . S
C985 C988 1.453 . S
C985 C989 1.684 1_455 S
C986 C967 1.723 . S
C986 C985 1.396 . S
C986 C987 1.394 . S
C987 C983 1.397 . S
C987 C986 1.394 . S
C987 C997 1.723 . S
C988 C985 1.453 . S
C988 H1012 0.982 . S
C988 H1013 0.979 . S
C988 H1014 0.977 . S
C989 C985 1.684 1_655 S
C989 H1015 0.979 . S
C989 H1016 0.980 1_655 S
C989 H1017 0.983 . S
C990 H966 0.948 . S
C990 C991 1.391 . S
C990 C995 1.391 . S
C991 C990 1.391 . S
C991 C992 1.391 . S
C992 H969 0.947 . S
C992 C991 1.391 . S
C992 C993 1.392 . S
C993 H970 0.948 . S
C993 C992 1.392 . S
C993 C994 1.419 . S
C994 C993 1.419 . S
C994 C995 1.391 . S
C994 C998 1.397 . S
C995 C990 1.391 . S
C995 C994 1.391 . S
C995 C996 1.399 . S
C996 C995 1.399 . S
C996 C997 1.396 . S
C996 C999 1.453 . S
C996 C1000 1.684 . S
C997 C987 1.723 . S
C997 C996 1.396 . S
C997 C998 1.394 . S
C998 C968 1.723 . S
C998 C994 1.397 . S
C998 C997 1.394 . S
C999 H971 0.982 . S
C999 H975 0.979 . S
C999 H976 0.977 . S
C999 C996 1.453 . S
C1000 H972 0.979 1_455 S
C1000 H973 0.980 . S
C1000 H974 0.983 . S
C1000 C996 1.684 . S
H1001 C1019 0.948 . S
H1002 C960 0.948 . S
H1003 C978 0.979 . S
H1004 C978 0.980 . S
H1005 C978 0.983 . S
H1006 C977 0.982 . S
H1007 C977 0.979 . S
H1008 C977 0.977 . S
H1009 C979 0.948 . S
H1010 C981 0.947 . S
H1011 C982 0.948 . S
H1012 C988 0.982 . S
H1013 C988 0.979 . S
H1014 C988 0.977 . S
H1015 C989 0.979 . S
H1016 C989 0.980 1_455 S
H1017 C989 0.983 . S
H1018 C962 0.947 . S
C1019 C962 1.392 . S
C1019 C963 1.419 . S
C1019 H1001 0.948 . S
C1020 C1021 1.391 . S
C1020 C1024 1.391 . S
C1020 H1062 0.948 . S
C1021 C1020 1.391 . S
C1021 C1022 1.391 . S
C1022 C1021 1.391 . S
C1022 H1078 0.947 . S
C1022 C1079 1.392 . S
C1023 C1024 1.391 . S
C1023 C1027 1.397 . S
C1023 C1079 1.419 . S
C1024 C1020 1.391 . S
C1024 C1023 1.391 . S
C1024 C1025 1.399 . S
C1025 C1024 1.399 . S
C1025 C1028 1.396 . S
C1025 C1037 1.453 . S
C1025 C1038 1.684 . S
H1026 C1050 0.948 . S
C1027 C1023 1.397 . S
C1027 C1028 1.394 . S
C1027 C1046 1.723 . S
C1028 C1025 1.396 . S
C1028 C1027 1.394 . S
C1028 C1058 1.723 . S
H1029 C1052 0.947 . S
H1030 C1053 0.948 . S
H1031 C1059 0.982 . S
H1032 C1060 0.979 . S
H1033 C1060 0.980 . S
H1034 C1060 0.983 . S
H1035 C1059 0.979 . S
H1036 C1059 0.977 . S
C1037 C1025 1.453 . S
C1037 H1066 0.982 . S
C1037 H1067 0.979 . S
C1037 H1068 0.977 . S
C1038 C1025 1.684 . S
C1038 H1063 0.979 . S
C1038 H1064 0.980 . S
C1038 H1065 0.983 . S
C1039 C1040 1.391 . S
C1039 C1044 1.391 . S
C1039 H1069 0.948 . S
C1040 C1039 1.391 . S
C1040 C1041 1.391 . S
C1041 C1040 1.391 . S
C1041 C1042 1.392 . S
C1041 H1070 0.947 . S
C1042 C1041 1.392 . S
C1042 C1043 1.419 . S
C1042 H1071 0.948 . S
C1043 C1042 1.419 . S
C1043 C1044 1.391 . S
C1043 C1047 1.397 . S
C1044 C1039 1.391 . S
C1044 C1043 1.391 . S
C1044 C1045 1.399 . S
C1045 C1044 1.399 . S
C1045 C1046 1.396 . S
C1045 C1048 1.453 . S
C1045 C1049 1.684 . S
C1046 C1027 1.723 . S
C1046 C1045 1.396 . S
C1046 C1047 1.394 . S
C1047 C1043 1.397 . S
C1047 C1046 1.394 . S
C1047 C1057 1.723 . S
C1048 C1045 1.453 . S
C1048 H1072 0.982 . S
C1048 H1073 0.979 . S
C1048 H1074 0.977 . S
C1049 C1045 1.684 . S
C1049 H1075 0.979 . S
C1049 H1076 0.980 . S
C1049 H1077 0.983 . S
C1050 H1026 0.948 . S
C1050 C1051 1.391 . S
C1050 C1055 1.391 . S
C1051 C1050 1.391 . S
C1051 C1052 1.391 . S
C1052 H1029 0.947 . S
C1052 C1051 1.391 . S
C1052 C1053 1.392 . S
C1053 H1030 0.948 . S
C1053 C1052 1.392 . S
C1053 C1054 1.419 . S
C1054 C1053 1.419 . S
C1054 C1055 1.391 . S
C1054 C1058 1.397 . S
C1055 C1050 1.391 . S
C1055 C1054 1.391 . S
C1055 C1056 1.399 . S
C1056 C1055 1.399 . S
C1056 C1057 1.396 . S
C1056 C1059 1.453 . S
C1056 C1060 1.684 . S
C1057 C1047 1.723 . S
C1057 C1056 1.396 . S
C1057 C1058 1.394 . S
C1058 C1028 1.723 . S
C1058 C1054 1.397 . S
C1058 C1057 1.394 . S
C1059 H1031 0.982 . S
C1059 H1035 0.979 . S
C1059 H1036 0.977 . S
C1059 C1056 1.453 . S
C1060 H1032 0.979 . S
C1060 H1033 0.980 . S
C1060 H1034 0.983 . S
C1060 C1056 1.684 . S
H1061 C1079 0.948 . S
H1062 C1020 0.948 . S
H1063 C1038 0.979 . S
H1064 C1038 0.980 . S
H1065 C1038 0.983 . S
H1066 C1037 0.982 . S
H1067 C1037 0.979 . S
H1068 C1037 0.977 . S
H1069 C1039 0.948 . S
H1070 C1041 0.947 . S
H1071 C1042 0.948 . S
H1072 C1048 0.982 . S
H1073 C1048 0.979 . S
H1074 C1048 0.977 . S
H1075 C1049 0.979 . S
H1076 C1049 0.980 . S
H1077 C1049 0.983 . S
H1078 C1022 0.947 . S
C1079 C1022 1.392 . S
C1079 C1023 1.419 . S
C1079 H1061 0.948 . S
Eu1080 C1089 2.828 . S
Eu1080 O1091 2.392 . S
Eu1080 O1093 2.418 . S
Eu1080 O1098 2.373 1_565 S
Eu1080 O1101 2.488 . S
Eu1080 O1102 2.465 1_565 S
Eu1080 O1103 2.349 1_565 S
Eu1081 O1090 2.373 1_545 S
Eu1081 O1094 2.488 . S
Eu1081 O1095 2.470 1_545 S
Eu1081 O1096 2.349 1_545 S
Eu1081 O1099 2.392 . S
Eu1081 O1100 2.418 . S
Eu1081 C1110 2.828 . S
C1082 O1100 1.244 1_556 S
C1082 O1103 1.265 . S
C1083 C1084 1.379 1_565 S
C1083 C1087 1.373 . S
C1083 C1089 1.505 . S
C1084 C1083 1.379 1_545 S
C1084 C1086 1.369 . S
C1084 H1112 0.930 . S
C1085 C1087 1.383 . S
C1085 C1088 1.382 1_565 S
C1085 H1113 0.930 . S
C1086 C1084 1.369 . S
C1086 C1088 1.392 . S
C1086 H1114 0.930 . S
C1087 C1083 1.373 . S
C1087 C1085 1.383 . S
C1087 H1115 0.931 . S
C1088 C1085 1.382 1_545 S
C1088 C1086 1.392 . S
C1089 Eu1080 2.828 . S
C1089 C1083 1.505 . S
C1089 O1101 1.249 . S
C1089 O1102 1.234 1_565 S
O1090 Eu1081 2.373 1_565 S
O1090 C1092 1.258 . S
O1091 Eu1080 2.392 . S
O1091 C1092 1.242 1_556 S
C1092 O1090 1.258 . S
C1092 O1091 1.242 1_554 S
O1093 Eu1080 2.418 . S
O1093 C1097 1.244 1_556 S
O1094 Eu1081 2.488 . S
O1094 C1110 1.249 . S
O1095 Eu1081 2.470 1_565 S
O1095 C1110 1.243 1_565 S
O1096 Eu1081 2.349 1_565 S
O1096 C1097 1.265 . S
C1097 O1093 1.244 1_554 S
C1097 O1096 1.265 . S
O1098 Eu1080 2.373 1_545 S
O1098 C1111 1.258 . S
O1099 Eu1081 2.392 . S
O1099 C1111 1.242 1_554 S
O1100 Eu1081 2.418 . S
O1100 C1082 1.244 1_554 S
O1101 Eu1080 2.488 . S
O1101 C1089 1.249 . S
O1102 Eu1080 2.465 1_545 S
O1102 C1089 1.234 1_545 S
O1103 Eu1080 2.349 1_545 S
O1103 C1082 1.265 . S
C1104 C1105 1.379 1_545 S
C1104 C1108 1.373 . S
C1104 C1110 1.505 . S
C1105 C1104 1.379 1_565 S
C1105 C1107 1.369 . S
C1105 H1116 0.930 . S
C1106 C1108 1.383 . S
C1106 C1109 1.382 1_545 S
C1106 H1117 0.930 . S
C1107 C1105 1.369 . S
C1107 C1109 1.392 . S
C1107 H1118 0.930 . S
C1108 C1104 1.373 . S
C1108 C1106 1.383 . S
C1108 H1119 0.931 . S
C1109 C1106 1.382 1_565 S
C1109 C1107 1.392 . S
C1110 Eu1081 2.828 . S
C1110 O1094 1.249 . S
C1110 O1095 1.243 1_545 S
C1110 C1104 1.505 . S
C1111 O1098 1.258 . S
C1111 O1099 1.242 1_556 S
H1112 C1084 0.930 . S
H1113 C1085 0.930 . S
H1114 C1086 0.930 . S
H1115 C1087 0.931 . S
H1116 C1105 0.930 . S
H1117 C1106 0.930 . S
H1118 C1107 0.930 . S
H1119 C1108 0.931 . S
Eu1120 C1129 2.828 . S
Eu1120 O1131 2.392 1_556 S
Eu1120 O1133 2.418 . S
Eu1120 O1138 2.373 1_455 S
Eu1120 O1141 2.488 . S
Eu1120 O1142 2.471 1_455 S
Eu1120 O1143 2.349 1_455 S
Eu1121 O1130 2.373 1_655 S
Eu1121 O1134 2.488 . S
Eu1121 O1135 2.471 1_655 S
Eu1121 O1136 2.349 1_655 S
Eu1121 O1139 2.392 1_554 S
Eu1121 O1140 2.418 . S
Eu1121 C1150 2.828 . S
C1122 O1140 1.244 1_556 S
C1122 O1143 1.265 . S
C1123 C1124 1.379 1_455 S
C1123 C1127 1.373 . S
C1123 C1129 1.505 . S
C1124 C1123 1.379 1_655 S
C1124 C1126 1.369 . S
C1124 H1152 0.930 . S
C1125 C1127 1.383 . S
C1125 C1128 1.382 1_455 S
C1125 H1153 0.930 . S
C1126 C1124 1.369 . S
C1126 C1128 1.392 . S
C1126 H1154 0.930 . S
C1127 C1123 1.373 . S
C1127 C1125 1.383 . S
C1127 H1155 0.931 . S
C1128 C1125 1.382 1_655 S
C1128 C1126 1.392 . S
C1129 Eu1120 2.828 . S
C1129 C1123 1.505 . S
C1129 O1141 1.249 . S
C1129 O1142 1.244 1_455 S
O1130 Eu1121 2.373 1_455 S
O1130 C1132 1.258 . S
O1131 Eu1120 2.392 1_554 S
O1131 C1132 1.242 . S
C1132 O1130 1.258 . S
C1132 O1131 1.242 . S
O1133 Eu1120 2.418 . S
O1133 C1137 1.244 1_556 S
O1134 Eu1121 2.488 . S
O1134 C1150 1.249 . S
O1135 Eu1121 2.471 1_455 S
O1135 C1150 1.244 1_455 S
O1136 Eu1121 2.349 1_455 S
O1136 C1137 1.265 . S
C1137 O1133 1.244 1_554 S
C1137 O1136 1.265 . S
O1138 Eu1120 2.373 1_655 S
O1138 C1151 1.258 . S
O1139 Eu1121 2.392 1_556 S
O1139 C1151 1.242 . S
O1140 Eu1121 2.418 . S
O1140 C1122 1.244 1_554 S
O1141 Eu1120 2.488 . S
O1141 C1129 1.249 . S
O1142 Eu1120 2.471 1_655 S
O1142 C1129 1.244 1_655 S
O1143 Eu1120 2.349 1_655 S
O1143 C1122 1.265 . S
C1144 C1145 1.379 1_655 S
C1144 C1148 1.373 . S
C1144 C1150 1.505 . S
C1145 C1144 1.379 1_455 S
C1145 C1147 1.369 . S
C1145 H1156 0.930 . S
C1146 C1148 1.383 . S
C1146 C1149 1.382 1_655 S
C1146 H1157 0.930 . S
C1147 C1145 1.369 . S
C1147 C1149 1.392 . S
C1147 H1158 0.930 . S
C1148 C1144 1.373 . S
C1148 C1146 1.383 . S
C1148 H1159 0.931 . S
C1149 C1146 1.382 1_455 S
C1149 C1147 1.392 . S
C1150 Eu1121 2.828 . S
C1150 O1134 1.249 . S
C1150 O1135 1.244 1_655 S
C1150 C1144 1.505 . S
C1151 O1138 1.258 . S
C1151 O1139 1.242 . S
H1152 C1124 0.930 . S
H1153 C1125 0.930 . S
H1154 C1126 0.930 . S
H1155 C1127 0.931 . S
H1156 C1145 0.930 . S
H1157 C1146 0.930 . S
H1158 C1147 0.930 . S
H1159 C1148 0.931 . S
Eu1160 C1169 2.828 . S
Eu1160 O1171 2.394 1_554 S
Eu1160 O1173 2.418 . S
Eu1160 O1178 2.373 . S
Eu1160 O1181 2.488 . S
Eu1160 O1182 2.471 . S
Eu1160 O1183 2.349 . S
Eu1161 O1170 2.373 . S
Eu1161 O1174 2.488 . S
Eu1161 O1175 2.471 . S
Eu1161 O1176 2.349 . S
Eu1161 O1179 2.336 1_556 S
Eu1161 O1180 2.418 . S
Eu1161 C1190 2.828 . S
C1162 O1180 1.244 1_554 S
C1162 O1183 1.265 . S
C1163 C1164 1.379 . S
C1163 C1167 1.373 . S
C1163 C1169 1.505 . S
C1164 C1163 1.379 . S
C1164 C1166 1.369 . S
C1164 H1192 0.930 . S
C1165 C1167 1.383 . S
C1165 C1168 1.382 . S
C1165 H1193 0.930 . S
C1166 C1164 1.369 . S
C1166 C1168 1.392 . S
C1166 H1194 0.930 . S
C1167 C1163 1.373 . S
C1167 C1165 1.383 . S
C1167 H1195 0.931 . S
C1168 C1165 1.382 . S
C1168 C1166 1.392 . S
C1169 Eu1160 2.828 . S
C1169 C1163 1.505 . S
C1169 O1181 1.249 . S
C1169 O1182 1.244 . S
O1170 Eu1161 2.373 . S
O1170 C1172 1.258 . S
O1171 Eu1160 2.394 1_556 S
O1171 C1172 1.240 . S
C1172 O1170 1.258 . S
C1172 O1171 1.240 . S
O1173 Eu1160 2.418 . S
O1173 C1177 1.244 1_554 S
O1174 Eu1161 2.488 . S
O1174 C1190 1.249 . S
O1175 Eu1161 2.471 . S
O1175 C1190 1.244 . S
O1176 Eu1161 2.349 . S
O1176 C1177 1.265 . S
C1177 O1173 1.244 1_556 S
C1177 O1176 1.265 . S
O1178 Eu1160 2.373 . S
O1178 C1191 1.258 . S
O1179 Eu1161 2.336 1_554 S
O1179 C1191 1.308 . S
O1180 Eu1161 2.418 . S
O1180 C1162 1.244 1_556 S
O1181 Eu1160 2.488 . S
O1181 C1169 1.249 . S
O1182 Eu1160 2.471 . S
O1182 C1169 1.244 . S
O1183 Eu1160 2.349 . S
O1183 C1162 1.265 . S
C1184 C1185 1.379 . S
C1184 C1188 1.373 . S
C1184 C1190 1.505 . S
C1185 C1184 1.379 . S
C1185 C1187 1.369 . S
C1185 H1196 0.930 . S
C1186 C1188 1.383 . S
C1186 C1189 1.382 . S
C1186 H1197 0.930 . S
C1187 C1185 1.369 . S
C1187 C1189 1.392 . S
C1187 H1198 0.930 . S
C1188 C1184 1.373 . S
C1188 C1186 1.383 . S
C1188 H1199 0.931 . S
C1189 C1186 1.382 . S
C1189 C1187 1.392 . S
C1190 Eu1161 2.828 . S
C1190 O1174 1.249 . S
C1190 O1175 1.244 . S
C1190 C1184 1.505 . S
C1191 O1178 1.258 . S
C1191 O1179 1.308 . S
H1192 C1164 0.930 . S
H1193 C1165 0.930 . S
H1194 C1166 0.930 . S
H1195 C1167 0.931 . S
H1196 C1185 0.930 . S
H1197 C1186 0.930 . S
H1198 C1187 0.930 . S
H1199 C1188 0.931 . S
Eu1200 C1209 2.828 . S
Eu1200 O1211 2.392 . S
Eu1200 O1213 2.418 . S
Eu1200 O1218 2.373 . S
Eu1200 O1221 2.488 . S
Eu1200 O1222 2.471 . S
Eu1200 O1223 2.349 . S
Eu1201 O1210 2.373 . S
Eu1201 O1214 2.488 . S
Eu1201 O1215 2.471 . S
Eu1201 O1216 2.349 . S
Eu1201 O1219 2.392 . S
Eu1201 O1220 2.418 . S
Eu1201 C1230 2.828 . S
C1202 O1220 1.244 . S
C1202 O1223 1.265 . S
C1203 C1204 1.379 . S
C1203 C1207 1.373 . S
C1203 C1209 1.505 . S
C1204 C1203 1.379 . S
C1204 C1206 1.369 . S
C1204 H1232 0.930 . S
C1205 C1207 1.383 . S
C1205 C1208 1.382 . S
C1205 H1233 0.930 . S
C1206 C1204 1.369 . S
C1206 C1208 1.392 . S
C1206 H1234 0.930 . S
C1207 C1203 1.373 . S
C1207 C1205 1.383 . S
C1207 H1235 0.931 . S
C1208 C1205 1.382 . S
C1208 C1206 1.392 . S
C1209 Eu1200 2.828 . S
C1209 C1203 1.505 . S
C1209 O1221 1.249 . S
C1209 O1222 1.244 . S
O1210 Eu1201 2.373 . S
O1210 C1212 1.258 . S
O1211 Eu1200 2.392 . S
O1211 C1212 1.242 . S
C1212 O1210 1.258 . S
C1212 O1211 1.242 . S
O1213 Eu1200 2.418 . S
O1213 C1217 1.244 . S
O1214 Eu1201 2.488 . S
O1214 C1230 1.249 . S
O1215 Eu1201 2.471 . S
O1215 C1230 1.244 . S
O1216 Eu1201 2.349 . S
O1216 C1217 1.265 . S
C1217 O1213 1.244 . S
C1217 O1216 1.265 . S
O1218 Eu1200 2.373 . S
O1218 C1231 1.258 . S
O1219 Eu1201 2.392 . S
O1219 C1231 1.242 . S
O1220 Eu1201 2.418 . S
O1220 C1202 1.244 . S
O1221 Eu1200 2.488 . S
O1221 C1209 1.249 . S
O1222 Eu1200 2.471 . S
O1222 C1209 1.244 . S
O1223 Eu1200 2.349 . S
O1223 C1202 1.265 . S
C1224 C1225 1.379 . S
C1224 C1228 1.373 . S
C1224 C1230 1.505 . S
C1225 C1224 1.379 . S
C1225 C1227 1.369 . S
C1225 H1236 0.930 . S
C1226 C1228 1.383 . S
C1226 C1229 1.382 . S
C1226 H1237 0.930 . S
C1227 C1225 1.369 . S
C1227 C1229 1.392 . S
C1227 H1238 0.930 . S
C1228 C1224 1.373 . S
C1228 C1226 1.383 . S
C1228 H1239 0.931 . S
C1229 C1226 1.382 . S
C1229 C1227 1.392 . S
C1230 Eu1201 2.828 . S
C1230 O1214 1.249 . S
C1230 O1215 1.244 . S
C1230 C1224 1.505 . S
C1231 O1218 1.258 . S
C1231 O1219 1.242 . S
H1232 C1204 0.930 . S
H1233 C1205 0.930 . S
H1234 C1206 0.930 . S
H1235 C1207 0.931 . S
H1236 C1225 0.930 . S
H1237 C1226 0.930 . S
H1238 C1227 0.930 . S
H1239 C1228 0.931 . S
Eu1240 C1249 2.828 . S
Eu1240 O1251 2.392 . S
Eu1240 O1253 2.418 . S
Eu1240 O1258 2.373 . S
Eu1240 O1261 2.488 . S
Eu1240 O1262 2.471 . S
Eu1240 O1263 2.349 . S
Eu1241 O1250 2.373 . S
Eu1241 O1254 2.488 . S
Eu1241 O1255 2.471 . S
Eu1241 O1256 2.349 . S
Eu1241 O1259 2.392 . S
Eu1241 O1260 2.418 . S
Eu1241 C1270 2.828 . S
C1242 O1260 1.244 . S
C1242 O1263 1.265 . S
C1243 C1244 1.379 . S
C1243 C1247 1.373 . S
C1243 C1249 1.505 . S
C1244 C1243 1.379 . S
C1244 C1246 1.369 . S
C1244 H1272 0.930 . S
C1245 C1247 1.383 . S
C1245 C1248 1.382 . S
C1245 H1273 0.930 . S
C1246 C1244 1.369 . S
C1246 C1248 1.392 . S
C1246 H1274 0.930 . S
C1247 C1243 1.373 . S
C1247 C1245 1.383 . S
C1247 H1275 0.931 . S
C1248 C1245 1.382 . S
C1248 C1246 1.392 . S
C1249 Eu1240 2.828 . S
C1249 C1243 1.505 . S
C1249 O1261 1.249 . S
C1249 O1262 1.244 . S
O1250 Eu1241 2.373 . S
O1250 C1252 1.258 . S
O1251 Eu1240 2.392 . S
O1251 C1252 1.242 . S
C1252 O1250 1.258 . S
C1252 O1251 1.242 . S
O1253 Eu1240 2.418 . S
O1253 C1257 1.244 . S
O1254 Eu1241 2.488 . S
O1254 C1270 1.249 . S
O1255 Eu1241 2.471 . S
O1255 C1270 1.244 . S
O1256 Eu1241 2.349 . S
O1256 C1257 1.265 . S
C1257 O1253 1.244 . S
C1257 O1256 1.265 . S
O1258 Eu1240 2.373 . S
O1258 C1271 1.258 . S
O1259 Eu1241 2.392 . S
O1259 C1271 1.242 . S
O1260 Eu1241 2.418 . S
O1260 C1242 1.244 . S
O1261 Eu1240 2.488 . S
O1261 C1249 1.249 . S
O1262 Eu1240 2.471 . S
O1262 C1249 1.244 . S
O1263 Eu1240 2.349 . S
O1263 C1242 1.265 . S
C1264 C1265 1.379 . S
C1264 C1268 1.373 . S
C1264 C1270 1.505 . S
C1265 C1264 1.379 . S
C1265 C1267 1.369 . S
C1265 H1276 0.930 . S
C1266 C1268 1.383 . S
C1266 C1269 1.382 . S
C1266 H1277 0.930 . S
C1267 C1265 1.369 . S
C1267 C1269 1.392 . S
C1267 H1278 0.930 . S
C1268 C1264 1.373 . S
C1268 C1266 1.383 . S
C1268 H1279 0.931 . S
C1269 C1266 1.382 . S
C1269 C1267 1.392 . S
C1270 Eu1241 2.828 . S
C1270 O1254 1.249 . S
C1270 O1255 1.244 . S
C1270 C1264 1.505 . S
C1271 O1258 1.258 . S
C1271 O1259 1.242 . S
H1272 C1244 0.930 . S
H1273 C1245 0.930 . S
H1274 C1246 0.930 . S
H1275 C1247 0.931 . S
H1276 C1265 0.930 . S
H1277 C1266 0.930 . S
H1278 C1267 0.930 . S
H1279 C1268 0.931 . S
Eu1280 C1289 2.828 . S
Eu1280 O1291 2.392 . S
Eu1280 O1293 2.418 . S
Eu1280 O1298 2.373 . S
Eu1280 O1301 2.488 . S
Eu1280 O1302 2.471 . S
Eu1280 O1303 2.349 . S
Eu1281 O1290 2.373 . S
Eu1281 O1294 2.488 . S
Eu1281 O1295 2.471 . S
Eu1281 O1296 2.349 . S
Eu1281 O1299 2.392 . S
Eu1281 O1300 2.418 . S
Eu1281 C1310 2.828 . S
C1282 O1300 1.244 . S
C1282 O1303 1.265 . S
C1283 C1284 1.379 . S
C1283 C1287 1.373 . S
C1283 C1289 1.505 . S
C1284 C1283 1.379 . S
C1284 C1286 1.369 . S
C1284 H1312 0.930 . S
C1285 C1287 1.383 . S
C1285 C1288 1.382 . S
C1285 H1313 0.930 . S
C1286 C1284 1.369 . S
C1286 C1288 1.392 . S
C1286 H1314 0.930 . S
C1287 C1283 1.373 . S
C1287 C1285 1.383 . S
C1287 H1315 0.931 . S
C1288 C1285 1.382 . S
C1288 C1286 1.392 . S
C1289 Eu1280 2.828 . S
C1289 C1283 1.505 . S
C1289 O1301 1.249 . S
C1289 O1302 1.244 . S
O1290 Eu1281 2.373 . S
O1290 C1292 1.258 . S
O1291 Eu1280 2.392 . S
O1291 C1292 1.242 . S
C1292 O1290 1.258 . S
C1292 O1291 1.242 . S
O1293 Eu1280 2.418 . S
O1293 C1297 1.244 . S
O1294 Eu1281 2.488 . S
O1294 C1310 1.249 . S
O1295 Eu1281 2.471 . S
O1295 C1310 1.244 . S
O1296 Eu1281 2.349 . S
O1296 C1297 1.265 . S
C1297 O1293 1.244 . S
C1297 O1296 1.265 . S
O1298 Eu1280 2.373 . S
O1298 C1311 1.258 . S
O1299 Eu1281 2.392 . S
O1299 C1311 1.242 . S
O1300 Eu1281 2.418 . S
O1300 C1282 1.244 . S
O1301 Eu1280 2.488 . S
O1301 C1289 1.249 . S
O1302 Eu1280 2.471 . S
O1302 C1289 1.244 . S
O1303 Eu1280 2.349 . S
O1303 C1282 1.265 . S
C1304 C1305 1.379 . S
C1304 C1308 1.373 . S
C1304 C1310 1.505 . S
C1305 C1304 1.379 . S
C1305 C1307 1.369 . S
C1305 H1316 0.930 . S
C1306 C1308 1.383 . S
C1306 C1309 1.382 . S
C1306 H1317 0.930 . S
C1307 C1305 1.369 . S
C1307 C1309 1.392 . S
C1307 H1318 0.930 . S
C1308 C1304 1.373 . S
C1308 C1306 1.383 . S
C1308 H1319 0.931 . S
C1309 C1306 1.382 . S
C1309 C1307 1.392 . S
C1310 Eu1281 2.828 . S
C1310 O1294 1.249 . S
C1310 O1295 1.244 . S
C1310 C1304 1.505 . S
C1311 O1298 1.258 . S
C1311 O1299 1.242 . S
H1312 C1284 0.930 . S
H1313 C1285 0.930 . S
H1314 C1286 0.930 . S
H1315 C1287 0.931 . S
H1316 C1305 0.930 . S
H1317 C1306 0.930 . S
H1318 C1307 0.930 . S
H1319 C1308 0.931 . S
Eu1320 C1329 2.828 . S
Eu1320 O1331 2.392 . S
Eu1320 O1333 2.418 . S
Eu1320 O1338 2.373 . S
Eu1320 O1341 2.488 . S
Eu1320 O1342 2.471 . S
Eu1320 O1343 2.349 . S
Eu1321 O1330 2.373 . S
Eu1321 O1334 2.488 . S
Eu1321 O1335 2.471 . S
Eu1321 O1336 2.349 . S
Eu1321 O1339 2.392 . S
Eu1321 O1340 2.418 . S
Eu1321 C1350 2.828 . S
C1322 O1340 1.244 . S
C1322 O1343 1.265 . S
C1323 C1324 1.379 . S
C1323 C1327 1.373 . S
C1323 C1329 1.505 . S
C1324 C1323 1.379 . S
C1324 C1326 1.369 . S
C1324 H1352 0.930 . S
C1325 C1327 1.383 . S
C1325 C1328 1.382 . S
C1325 H1353 0.930 . S
C1326 C1324 1.369 . S
C1326 C1328 1.392 . S
C1326 H1354 0.930 . S
C1327 C1323 1.373 . S
C1327 C1325 1.383 . S
C1327 H1355 0.931 . S
C1328 C1325 1.382 . S
C1328 C1326 1.392 . S
C1329 Eu1320 2.828 . S
C1329 C1323 1.505 . S
C1329 O1341 1.249 . S
C1329 O1342 1.244 . S
O1330 Eu1321 2.373 . S
O1330 C1332 1.258 . S
O1331 Eu1320 2.392 . S
O1331 C1332 1.242 . S
C1332 O1330 1.258 . S
C1332 O1331 1.242 . S
O1333 Eu1320 2.418 . S
O1333 C1337 1.244 . S
O1334 Eu1321 2.488 . S
O1334 C1350 1.249 . S
O1335 Eu1321 2.471 . S
O1335 C1350 1.244 . S
O1336 Eu1321 2.349 . S
O1336 C1337 1.265 . S
C1337 O1333 1.244 . S
C1337 O1336 1.265 . S
O1338 Eu1320 2.373 . S
O1338 C1351 1.258 . S
O1339 Eu1321 2.392 . S
O1339 C1351 1.242 . S
O1340 Eu1321 2.418 . S
O1340 C1322 1.244 . S
O1341 Eu1320 2.488 . S
O1341 C1329 1.249 . S
O1342 Eu1320 2.471 . S
O1342 C1329 1.244 . S
O1343 Eu1320 2.349 . S
O1343 C1322 1.265 . S
C1344 C1345 1.379 . S
C1344 C1348 1.373 . S
C1344 C1350 1.505 . S
C1345 C1344 1.379 . S
C1345 C1347 1.369 . S
C1345 H1356 0.930 . S
C1346 C1348 1.383 . S
C1346 C1349 1.382 . S
C1346 H1357 0.930 . S
C1347 C1345 1.369 . S
C1347 C1349 1.392 . S
C1347 H1358 0.930 . S
C1348 C1344 1.373 . S
C1348 C1346 1.383 . S
C1348 H1359 0.931 . S
C1349 C1346 1.382 . S
C1349 C1347 1.392 . S
C1350 Eu1321 2.828 . S
C1350 O1334 1.249 . S
C1350 O1335 1.244 . S
C1350 C1344 1.505 . S
C1351 O1338 1.258 . S
C1351 O1339 1.242 . S
H1352 C1324 0.930 . S
H1353 C1325 0.930 . S
H1354 C1326 0.930 . S
H1355 C1327 0.931 . S
H1356 C1345 0.930 . S
H1357 C1346 0.930 . S
H1358 C1347 0.930 . S
H1359 C1348 0.931 . S
Eu1360 C1369 2.828 . S
Eu1360 O1371 2.392 . S
Eu1360 O1373 2.418 . S
Eu1360 O1378 2.373 . S
Eu1360 O1381 2.488 . S
Eu1360 O1382 2.471 . S
Eu1360 O1383 2.349 . S
Eu1361 O1370 2.373 . S
Eu1361 O1374 2.488 . S
Eu1361 O1375 2.471 . S
Eu1361 O1376 2.349 . S
Eu1361 O1379 2.392 . S
Eu1361 O1380 2.418 . S
Eu1361 C1390 2.828 . S
C1362 O1380 1.244 . S
C1362 O1383 1.265 . S
C1363 C1364 1.379 . S
C1363 C1367 1.373 . S
C1363 C1369 1.505 . S
C1364 C1363 1.379 . S
C1364 C1366 1.369 . S
C1364 H1392 0.930 . S
C1365 C1367 1.383 . S
C1365 C1368 1.382 . S
C1365 H1393 0.930 . S
C1366 C1364 1.369 . S
C1366 C1368 1.392 . S
C1366 H1394 0.930 . S
C1367 C1363 1.373 . S
C1367 C1365 1.383 . S
C1367 H1395 0.931 . S
C1368 C1365 1.382 . S
C1368 C1366 1.392 . S
C1369 Eu1360 2.828 . S
C1369 C1363 1.505 . S
C1369 O1381 1.249 . S
C1369 O1382 1.244 . S
O1370 Eu1361 2.373 . S
O1370 C1372 1.258 . S
O1371 Eu1360 2.392 . S
O1371 C1372 1.242 . S
C1372 O1370 1.258 . S
C1372 O1371 1.242 . S
O1373 Eu1360 2.418 . S
O1373 C1377 1.244 . S
O1374 Eu1361 2.488 . S
O1374 C1390 1.249 . S
O1375 Eu1361 2.471 . S
O1375 C1390 1.244 . S
O1376 Eu1361 2.349 . S
O1376 C1377 1.265 . S
C1377 O1373 1.244 . S
C1377 O1376 1.265 . S
O1378 Eu1360 2.373 . S
O1378 C1391 1.258 . S
O1379 Eu1361 2.392 . S
O1379 C1391 1.242 . S
O1380 Eu1361 2.418 . S
O1380 C1362 1.244 . S
O1381 Eu1360 2.488 . S
O1381 C1369 1.249 . S
O1382 Eu1360 2.471 . S
O1382 C1369 1.244 . S
O1383 Eu1360 2.349 . S
O1383 C1362 1.265 . S
C1384 C1385 1.379 . S
C1384 C1388 1.373 . S
C1384 C1390 1.505 . S
C1385 C1384 1.379 . S
C1385 C1387 1.369 . S
C1385 H1396 0.930 . S
C1386 C1388 1.383 . S
C1386 C1389 1.382 . S
C1386 H1397 0.930 . S
C1387 C1385 1.369 . S
C1387 C1389 1.392 . S
C1387 H1398 0.930 . S
C1388 C1384 1.373 . S
C1388 C1386 1.383 . S
C1388 H1399 0.931 . S
C1389 C1386 1.382 . S
C1389 C1387 1.392 . S
C1390 Eu1361 2.828 . S
C1390 O1374 1.249 . S
C1390 O1375 1.244 . S
C1390 C1384 1.505 . S
C1391 O1378 1.258 . S
C1391 O1379 1.242 . S
H1392 C1364 0.930 . S
H1393 C1365 0.930 . S
H1394 C1366 0.930 . S
H1395 C1367 0.931 . S
H1396 C1385 0.930 . S
H1397 C1386 0.930 . S
H1398 C1387 0.930 . S
H1399 C1388 0.931 . S
Eu1400 C1409 2.828 . S
Eu1400 O1411 2.392 . S
Eu1400 O1413 2.418 . S
Eu1400 O1418 2.373 . S
Eu1400 O1421 2.488 . S
Eu1400 O1422 2.471 . S
Eu1400 O1423 2.349 . S
Eu1401 O1410 2.373 . S
Eu1401 O1414 2.488 . S
Eu1401 O1415 2.471 . S
Eu1401 O1416 2.349 . S
Eu1401 O1419 2.392 . S
Eu1401 O1420 2.418 . S
Eu1401 C1430 2.828 . S
C1402 O1420 1.244 . S
C1402 O1423 1.265 . S
C1403 C1404 1.379 . S
C1403 C1407 1.373 . S
C1403 C1409 1.505 . S
C1404 C1403 1.379 . S
C1404 C1406 1.369 . S
C1404 H1432 0.930 . S
C1405 C1407 1.383 . S
C1405 C1408 1.382 . S
C1405 H1433 0.930 . S
C1406 C1404 1.369 . S
C1406 C1408 1.392 . S
C1406 H1434 0.930 . S
C1407 C1403 1.373 . S
C1407 C1405 1.383 . S
C1407 H1435 0.931 . S
C1408 C1405 1.382 . S
C1408 C1406 1.392 . S
C1409 Eu1400 2.828 . S
C1409 C1403 1.505 . S
C1409 O1421 1.249 . S
C1409 O1422 1.244 . S
O1410 Eu1401 2.373 . S
O1410 C1412 1.258 . S
O1411 Eu1400 2.392 . S
O1411 C1412 1.242 . S
C1412 O1410 1.258 . S
C1412 O1411 1.242 . S
O1413 Eu1400 2.418 . S
O1413 C1417 1.244 . S
O1414 Eu1401 2.488 . S
O1414 C1430 1.249 . S
O1415 Eu1401 2.471 . S
O1415 C1430 1.244 . S
O1416 Eu1401 2.349 . S
O1416 C1417 1.265 . S
C1417 O1413 1.244 . S
C1417 O1416 1.265 . S
O1418 Eu1400 2.373 . S
O1418 C1431 1.258 . S
O1419 Eu1401 2.392 . S
O1419 C1431 1.242 . S
O1420 Eu1401 2.418 . S
O1420 C1402 1.244 . S
O1421 Eu1400 2.488 . S
O1421 C1409 1.249 . S
O1422 Eu1400 2.471 . S
O1422 C1409 1.244 . S
O1423 Eu1400 2.349 . S
O1423 C1402 1.265 . S
C1424 C1425 1.379 . S
C1424 C1428 1.373 . S
C1424 C1430 1.505 . S
C1425 C1424 1.379 . S
C1425 C1427 1.369 . S
C1425 H1436 0.930 . S
C1426 C1428 1.383 . S
C1426 C1429 1.382 . S
C1426 H1437 0.930 . S
C1427 C1425 1.369 . S
C1427 C1429 1.392 . S
C1427 H1438 0.930 . S
C1428 C1424 1.373 . S
C1428 C1426 1.383 . S
C1428 H1439 0.931 . S
C1429 C1426 1.382 . S
C1429 C1427 1.392 . S
C1430 Eu1401 2.828 . S
C1430 O1414 1.249 . S
C1430 O1415 1.244 . S
C1430 C1424 1.505 . S
C1431 O1418 1.258 . S
C1431 O1419 1.242 . S
H1432 C1404 0.930 . S
H1433 C1405 0.930 . S
H1434 C1406 0.930 . S
H1435 C1407 0.931 . S
H1436 C1425 0.930 . S
H1437 C1426 0.930 . S
H1438 C1427 0.930 . S
H1439 C1428 0.931 . S
H1440 C1446 0.930 . S
H1441 C1449 0.930 . S
H1442 C1450 0.930 . S
H1443 C1451 0.930 . S
H1444 C1454 0.930 . S
H1445 C1455 0.930 . S
C1446 H1440 0.930 . S
C1446 C1447 1.355 . S
C1446 C1448 1.415 . S
C1447 C1446 1.355 . S
C1447 C1449 1.419 . S
C1448 C1446 1.415 . S
C1448 C1453 1.425 . S
C1448 C1455 1.409 . S
C1449 H1441 0.930 . S
C1449 C1447 1.419 . S
C1449 C1450 1.362 . S
C1450 H1442 0.930 . S
C1450 C1449 1.362 . S
C1450 C1453 1.409 . S
C1451 H1443 0.930 . S
C1451 C1452 1.355 . S
C1451 C1453 1.415 . S
C1452 C1451 1.355 . S
C1452 C1454 1.419 . S
C1453 C1448 1.425 . S
C1453 C1450 1.409 . S
C1453 C1451 1.415 . S
C1454 H1444 0.930 . S
C1454 C1452 1.419 . S
C1454 C1455 1.362 . S
C1455 H1445 0.930 . S
C1455 C1448 1.409 . S
C1455 C1454 1.362 . S
H1456 C1462 0.930 . S
H1457 C1465 0.930 . S
H1458 C1466 0.930 . S
H1459 C1467 0.930 . S
H1460 C1470 0.930 . S
H1461 C1471 0.930 . S
C1462 H1456 0.930 . S
C1462 C1463 1.355 . S
C1462 C1464 1.415 . S
C1463 C1462 1.355 . S
C1463 C1465 1.419 . S
C1464 C1462 1.415 . S
C1464 C1469 1.425 . S
C1464 C1471 1.409 . S
C1465 H1457 0.930 . S
C1465 C1463 1.419 . S
C1465 C1466 1.362 . S
C1466 H1458 0.930 . S
C1466 C1465 1.362 . S
C1466 C1469 1.409 . S
C1467 H1459 0.930 . S
C1467 C1468 1.355 . S
C1467 C1469 1.415 . S
C1468 C1467 1.355 . S
C1468 C1470 1.419 . S
C1469 C1464 1.425 . S
C1469 C1466 1.409 . S
C1469 C1467 1.415 . S
C1470 H1460 0.930 . S
C1470 C1468 1.419 . S
C1470 C1471 1.362 . S
C1471 H1461 0.930 . S
C1471 C1464 1.409 . S
C1471 C1470 1.362 . S
H1472 C1478 0.930 . S
H1473 C1481 0.930 . S
H1474 C1482 0.930 . S
H1475 C1483 0.930 . S
H1476 C1486 0.930 . S
H1477 C1487 0.930 . S
C1478 H1472 0.930 . S
C1478 C1479 1.355 . S
C1478 C1480 1.415 . S
C1479 C1478 1.355 . S
C1479 C1481 1.419 . S
C1480 C1478 1.415 . S
C1480 C1485 1.425 . S
C1480 C1487 1.409 . S
C1481 H1473 0.930 . S
C1481 C1479 1.419 . S
C1481 C1482 1.362 . S
C1482 H1474 0.930 . S
C1482 C1481 1.362 . S
C1482 C1485 1.409 . S
C1483 H1475 0.930 . S
C1483 C1484 1.355 . S
C1483 C1485 1.415 . S
C1484 C1483 1.355 . S
C1484 C1486 1.419 . S
C1485 C1480 1.425 . S
C1485 C1482 1.409 . S
C1485 C1483 1.415 . S
C1486 H1476 0.930 . S
C1486 C1484 1.419 . S
C1486 C1487 1.362 . S
C1487 H1477 0.930 . S
C1487 C1480 1.409 . S
C1487 C1486 1.362 . S
H1488 C1494 0.930 . S
H1489 C1497 0.930 . S
H1490 C1498 0.930 . S
H1491 C1499 0.930 . S
H1492 C1502 0.930 . S
H1493 C1503 0.930 . S
C1494 H1488 0.930 . S
C1494 C1495 1.355 . S
C1494 C1496 1.415 . S
C1495 C1494 1.355 . S
C1495 C1497 1.419 . S
C1496 C1494 1.415 . S
C1496 C1501 1.425 . S
C1496 C1503 1.409 . S
C1497 H1489 0.930 . S
C1497 C1495 1.419 . S
C1497 C1498 1.362 . S
C1498 H1490 0.930 . S
C1498 C1497 1.362 . S
C1498 C1501 1.409 . S
C1499 H1491 0.930 . S
C1499 C1500 1.355 . S
C1499 C1501 1.415 . S
C1500 C1499 1.355 . S
C1500 C1502 1.419 . S
C1501 C1496 1.425 . S
C1501 C1498 1.409 . S
C1501 C1499 1.415 . S
C1502 H1492 0.930 . S
C1502 C1500 1.419 . S
C1502 C1503 1.362 . S
C1503 H1493 0.930 . S
C1503 C1496 1.409 . S
C1503 C1502 1.362 . S
H1504 C1510 0.930 . S
H1505 C1513 0.930 . S
H1506 C1514 0.930 . S
H1507 C1515 0.930 . S
H1508 C1518 0.930 . S
H1509 C1519 0.930 . S
C1510 H1504 0.930 . S
C1510 C1511 1.355 . S
C1510 C1512 1.415 . S
C1511 C1510 1.355 . S
C1511 C1513 1.419 . S
C1512 C1510 1.415 . S
C1512 C1517 1.425 . S
C1512 C1519 1.409 . S
C1513 H1505 0.930 . S
C1513 C1511 1.419 . S
C1513 C1514 1.362 . S
C1514 H1506 0.930 . S
C1514 C1513 1.362 . S
C1514 C1517 1.409 . S
C1515 H1507 0.930 . S
C1515 C1516 1.355 . S
C1515 C1517 1.415 . S
C1516 C1515 1.355 . S
C1516 C1518 1.419 . S
C1517 C1512 1.425 . S
C1517 C1514 1.409 . S
C1517 C1515 1.415 . S
C1518 H1508 0.930 . S
C1518 C1516 1.419 . S
C1518 C1519 1.362 . S
C1519 H1509 0.930 . S
C1519 C1512 1.409 . S
C1519 C1518 1.362 . S
H1520 C1526 0.930 . S
H1521 C1529 0.930 . S
H1522 C1530 0.930 . S
H1523 C1531 0.930 . S
H1524 C1534 0.930 . S
H1525 C1535 0.930 . S
C1526 H1520 0.930 . S
C1526 C1527 1.355 . S
C1526 C1528 1.415 . S
C1527 C1526 1.355 . S
C1527 C1529 1.419 . S
C1528 C1526 1.415 . S
C1528 C1533 1.425 . S
C1528 C1535 1.409 1_556 S
C1529 H1521 0.930 . S
C1529 C1527 1.419 . S
C1529 C1530 1.362 . S
C1530 H1522 0.930 . S
C1530 C1529 1.362 . S
C1530 C1533 1.409 . S
C1531 H1523 0.930 . S
C1531 C1532 1.355 . S
C1531 C1533 1.415 . S
C1532 C1531 1.355 . S
C1532 C1534 1.419 1_556 S
C1533 C1528 1.425 . S
C1533 C1530 1.409 . S
C1533 C1531 1.415 . S
C1534 H1524 0.930 . S
C1534 C1532 1.419 1_554 S
C1534 C1535 1.362 . S
C1535 H1525 0.930 . S
C1535 C1528 1.409 1_554 S
C1535 C1534 1.362 . S
H1536 C1542 0.930 . S
H1537 C1545 0.930 . S
H1538 C1546 0.930 . S
H1539 C1547 0.930 . S
H1540 C1550 0.930 1_554 S
H1541 C1551 0.930 1_554 S
C1542 H1536 0.930 . S
C1542 C1543 1.355 . S
C1542 C1544 1.415 . S
C1543 C1542 1.355 . S
C1543 C1545 1.419 . S
C1544 C1542 1.415 . S
C1544 C1549 1.425 . S
C1544 C1551 1.409 . S
C1545 H1537 0.930 . S
C1545 C1543 1.419 . S
C1545 C1546 1.362 . S
C1546 H1538 0.930 . S
C1546 C1545 1.362 . S
C1546 C1549 1.409 . S
C1547 H1539 0.930 . S
C1547 C1548 1.355 . S
C1547 C1549 1.415 . S
C1548 C1547 1.355 . S
C1548 C1550 1.419 . S
C1549 C1544 1.425 . S
C1549 C1546 1.409 . S
C1549 C1547 1.415 . S
C1550 H1540 0.930 1_556 S
C1550 C1548 1.419 . S
C1550 C1551 1.362 . S
C1551 H1541 0.930 1_556 S
C1551 C1544 1.409 . S
C1551 C1550 1.362 . S
H1552 C1558 0.930 . S
H1553 C1561 0.930 . S
H1554 C1562 0.930 . S
H1555 C1563 0.930 . S
H1556 C1566 0.930 . S
H1557 C1567 0.930 . S
C1558 H1552 0.930 . S
C1558 C1559 1.355 . S
C1558 C1560 1.415 . S
C1559 C1558 1.355 . S
C1559 C1561 1.419 . S
C1560 C1558 1.415 . S
C1560 C1565 1.425 . S
C1560 C1567 1.409 . S
C1561 H1553 0.930 . S
C1561 C1559 1.419 . S
C1561 C1562 1.362 . S
C1562 H1554 0.930 . S
C1562 C1561 1.362 . S
C1562 C1565 1.409 . S
C1563 H1555 0.930 . S
C1563 C1564 1.355 . S
C1563 C1565 1.415 . S
C1564 C1563 1.355 . S
C1564 C1566 1.419 . S
C1565 C1560 1.425 . S
C1565 C1562 1.409 . S
C1565 C1563 1.415 . S
C1566 H1556 0.930 . S
C1566 C1564 1.419 . S
C1566 C1567 1.362 . S
C1567 H1557 0.930 . S
C1567 C1560 1.409 . S
C1567 C1566 1.362 . S
H1568 C1574 0.930 . S
H1569 C1577 0.930 1_554 S
H1570 C1578 0.930 . S
H1571 C1579 0.930 1_554 S
H1572 C1582 0.930 . S
H1573 C1583 0.930 . S
C1574 H1568 0.930 . S
C1574 C1575 1.355 . S
C1574 C1576 1.415 . S
C1575 C1574 1.355 . S
C1575 C1577 1.419 . S
C1576 C1574 1.415 . S
C1576 C1581 1.425 . S
C1576 C1583 1.409 . S
C1577 H1569 0.930 1_556 S
C1577 C1575 1.419 . S
C1577 C1578 1.362 1_556 S
C1578 H1570 0.930 . S
C1578 C1577 1.362 1_554 S
C1578 C1581 1.409 1_554 S
C1579 H1571 0.930 1_556 S
C1579 C1580 1.355 . S
C1579 C1581 1.415 . S
C1580 C1579 1.355 . S
C1580 C1582 1.419 . S
C1581 C1576 1.425 . S
C1581 C1578 1.409 1_556 S
C1581 C1579 1.415 . S
C1582 H1572 0.930 . S
C1582 C1580 1.419 . S
C1582 C1583 1.362 . S
C1583 H1573 0.930 . S
C1583 C1576 1.409 . S
C1583 C1582 1.362 . S
H1584 C1590 0.930 . S
H1585 C1593 0.930 . S
H1586 C1594 0.930 . S
H1587 C1595 0.930 . S
H1588 C1598 0.930 . S
H1589 C1599 0.930 . S
C1590 H1584 0.930 . S
C1590 C1591 1.355 . S
C1590 C1592 1.415 . S
C1591 C1590 1.355 . S
C1591 C1593 1.419 . S
C1592 C1590 1.415 . S
C1592 C1597 1.425 . S
C1592 C1599 1.409 . S
C1593 H1585 0.930 . S
C1593 C1591 1.419 . S
C1593 C1594 1.362 . S
C1594 H1586 0.930 . S
C1594 C1593 1.362 . S
C1594 C1597 1.409 . S
C1595 H1587 0.930 . S
C1595 C1596 1.355 . S
C1595 C1597 1.415 . S
C1596 C1595 1.355 . S
C1596 C1598 1.419 . S
C1597 C1592 1.425 . S
C1597 C1594 1.409 . S
C1597 C1595 1.415 . S
C1598 H1588 0.930 . S
C1598 C1596 1.419 . S
C1598 C1599 1.362 . S
C1599 H1589 0.930 . S
C1599 C1592 1.409 . S
C1599 C1598 1.362 . S
H1600 C1606 0.930 . S
H1601 C1609 0.930 . S
H1602 C1610 0.930 . S
H1603 C1611 0.930 . S
H1604 C1614 0.930 . S
H1605 C1615 0.930 . S
C1606 H1600 0.930 . S
C1606 C1607 1.355 . S
C1606 C1608 1.415 . S
C1607 C1606 1.355 . S
C1607 C1609 1.419 . S
C1608 C1606 1.415 . S
C1608 C1613 1.425 . S
C1608 C1615 1.409 . S
C1609 H1601 0.930 . S
C1609 C1607 1.419 . S
C1609 C1610 1.362 . S
C1610 H1602 0.930 . S
C1610 C1609 1.362 . S
C1610 C1613 1.409 . S
C1611 H1603 0.930 . S
C1611 C1612 1.355 . S
C1611 C1613 1.415 . S
C1612 C1611 1.355 . S
C1612 C1614 1.419 . S
C1613 C1608 1.425 . S
C1613 C1610 1.409 . S
C1613 C1611 1.415 . S
C1614 H1604 0.930 . S
C1614 C1612 1.419 . S
C1614 C1615 1.362 . S
C1615 H1605 0.930 . S
C1615 C1608 1.409 . S
C1615 C1614 1.362 . S
H1616 C1622 0.930 . S
H1617 C1625 0.930 . S
H1618 C1626 0.930 . S
H1619 C1627 0.930 . S
H1620 C1630 0.930 . S
H1621 C1631 0.930 . S
C1622 H1616 0.930 . S
C1622 C1623 1.355 . S
C1622 C1624 1.415 . S
C1623 C1622 1.355 . S
C1623 C1625 1.419 . S
C1624 C1622 1.415 . S
C1624 C1629 1.425 . S
C1624 C1631 1.409 . S
C1625 H1617 0.930 . S
C1625 C1623 1.419 . S
C1625 C1626 1.362 . S
C1626 H1618 0.930 . S
C1626 C1625 1.362 . S
C1626 C1629 1.409 . S
C1627 H1619 0.930 . S
C1627 C1628 1.355 . S
C1627 C1629 1.415 . S
C1628 C1627 1.355 . S
C1628 C1630 1.419 . S
C1629 C1624 1.425 . S
C1629 C1626 1.409 . S
C1629 C1627 1.415 . S
C1630 H1620 0.930 . S
C1630 C1628 1.419 . S
C1630 C1631 1.362 . S
C1631 H1621 0.930 . S
C1631 C1624 1.409 . S
C1631 C1630 1.362 . S
H1632 C1638 0.930 . S
H1633 C1641 0.930 . S
H1634 C1642 0.930 . S
H1635 C1643 0.930 . S
H1636 C1646 0.930 . S
H1637 C1647 0.930 . S
C1638 H1632 0.930 . S
C1638 C1639 1.355 . S
C1638 C1640 1.415 1_655 S
C1639 C1638 1.355 . S
C1639 C1641 1.419 1_655 S
C1640 C1638 1.415 1_455 S
C1640 C1645 1.425 . S
C1640 C1647 1.409 . S
C1641 H1633 0.930 . S
C1641 C1639 1.419 1_455 S
C1641 C1642 1.362 . S
C1642 H1634 0.930 . S
C1642 C1641 1.362 . S
C1642 C1645 1.409 . S
C1643 H1635 0.930 . S
C1643 C1644 1.355 . S
C1643 C1645 1.415 . S
C1644 C1643 1.355 . S
C1644 C1646 1.419 . S
C1645 C1640 1.425 . S
C1645 C1642 1.409 . S
C1645 C1643 1.415 . S
C1646 H1636 0.930 . S
C1646 C1644 1.419 . S
C1646 C1647 1.362 . S
C1647 H1637 0.930 . S
C1647 C1640 1.409 . S
C1647 C1646 1.362 . S
H1648 C1654 0.930 . S
H1649 C1657 0.930 . S
H1650 C1658 0.930 . S
H1651 C1659 0.930 . S
H1652 C1662 0.930 . S
H1653 C1663 0.930 . S
C1654 H1648 0.930 . S
C1654 C1655 1.355 . S
C1654 C1656 1.415 . S
C1655 C1654 1.355 . S
C1655 C1657 1.419 . S
C1656 C1654 1.415 . S
C1656 C1661 1.425 . S
C1656 C1663 1.409 . S
C1657 H1649 0.930 . S
C1657 C1655 1.419 . S
C1657 C1658 1.362 . S
C1658 H1650 0.930 . S
C1658 C1657 1.362 . S
C1658 C1661 1.409 . S
C1659 H1651 0.930 . S
C1659 C1660 1.355 . S
C1659 C1661 1.415 . S
C1660 C1659 1.355 . S
C1660 C1662 1.419 . S
C1661 C1656 1.425 . S
C1661 C1658 1.409 . S
C1661 C1659 1.415 . S
C1662 H1652 0.930 . S
C1662 C1660 1.419 . S
C1662 C1663 1.362 . S
C1663 H1653 0.930 . S
C1663 C1656 1.409 . S
C1663 C1662 1.362 . S
H1664 C1670 0.930 . S
H1665 C1673 0.930 . S
H1666 C1674 0.930 . S
H1667 C1675 0.930 . S
H1668 C1678 0.930 . S
H1669 C1679 0.930 . S
C1670 H1664 0.930 . S
C1670 C1671 1.355 . S
C1670 C1672 1.415 1_545 S
C1671 C1670 1.355 . S
C1671 C1673 1.419 . S
C1672 C1670 1.415 1_565 S
C1672 C1677 1.425 . S
C1672 C1679 1.409 . S
C1673 H1665 0.930 . S
C1673 C1671 1.419 . S
C1673 C1674 1.362 1_545 S
C1674 H1666 0.930 . S
C1674 C1673 1.362 1_565 S
C1674 C1677 1.409 . S
C1675 H1667 0.930 . S
C1675 C1676 1.355 . S
C1675 C1677 1.415 . S
C1676 C1675 1.355 . S
C1676 C1678 1.419 . S
C1677 C1672 1.425 . S
C1677 C1674 1.409 . S
C1677 C1675 1.415 . S
C1678 H1668 0.930 . S
C1678 C1676 1.419 . S
C1678 C1679 1.362 . S
C1679 H1669 0.930 . S
C1679 C1672 1.409 . S
C1679 C1678 1.362 . S
H1680 C1686 0.930 . S
H1681 C1689 0.930 . S
H1682 C1690 0.930 . S
H1683 C1691 0.930 . S
H1684 C1694 0.930 . S
H1685 C1695 0.930 . S
C1686 H1680 0.930 . S
C1686 C1687 1.355 . S
C1686 C1688 1.415 . S
C1687 C1686 1.355 . S
C1687 C1689 1.419 . S
C1688 C1686 1.415 . S
C1688 C1693 1.425 . S
C1688 C1695 1.409 . S
C1689 H1681 0.930 . S
C1689 C1687 1.419 . S
C1689 C1690 1.362 . S
C1690 H1682 0.930 . S
C1690 C1689 1.362 . S
C1690 C1693 1.409 . S
C1691 H1683 0.930 . S
C1691 C1692 1.355 . S
C1691 C1693 1.415 . S
C1692 C1691 1.355 . S
C1692 C1694 1.419 . S
C1693 C1688 1.425 . S
C1693 C1690 1.409 . S
C1693 C1691 1.415 . S
C1694 H1684 0.930 . S
C1694 C1692 1.419 . S
C1694 C1695 1.362 . S
C1695 H1685 0.930 . S
C1695 C1688 1.409 . S
C1695 C1694 1.362 . S
H1696 C1702 0.930 . S
H1697 C1705 0.930 . S
H1698 C1706 0.930 . S
H1699 C1707 0.930 . S
H1700 C1710 0.930 . S
H1701 C1711 0.930 . S
C1702 H1696 0.930 . S
C1702 C1703 1.355 . S
C1702 C1704 1.415 . S
C1703 C1702 1.355 . S
C1703 C1705 1.419 . S
C1704 C1702 1.415 . S
C1704 C1709 1.425 . S
C1704 C1711 1.409 . S
C1705 H1697 0.930 . S
C1705 C1703 1.419 . S
C1705 C1706 1.362 . S
C1706 H1698 0.930 . S
C1706 C1705 1.362 . S
C1706 C1709 1.409 . S
C1707 H1699 0.930 . S
C1707 C1708 1.355 . S
C1707 C1709 1.415 . S
C1708 C1707 1.355 . S
C1708 C1710 1.419 . S
C1709 C1704 1.425 . S
C1709 C1706 1.409 . S
C1709 C1707 1.415 . S
C1710 H1700 0.930 . S
C1710 C1708 1.419 . S
C1710 C1711 1.362 . S
C1711 H1701 0.930 . S
C1711 C1704 1.409 . S
C1711 C1710 1.362 . S
H1712 C1718 0.930 . S
H1713 C1721 0.930 . S
H1714 C1722 0.930 . S
H1715 C1723 0.930 . S
H1716 C1726 0.930 . S
H1717 C1727 0.930 . S
C1718 H1712 0.930 . S
C1718 C1719 1.355 . S
C1718 C1720 1.415 . S
C1719 C1718 1.355 . S
C1719 C1721 1.419 . S
C1720 C1718 1.415 . S
C1720 C1725 1.425 . S
C1720 C1727 1.409 . S
C1721 H1713 0.930 . S
C1721 C1719 1.419 . S
C1721 C1722 1.362 . S
C1722 H1714 0.930 . S
C1722 C1721 1.362 . S
C1722 C1725 1.409 . S
C1723 H1715 0.930 . S
C1723 C1724 1.355 . S
C1723 C1725 1.415 . S
C1724 C1723 1.355 . S
C1724 C1726 1.419 . S
C1725 C1720 1.425 . S
C1725 C1722 1.409 . S
C1725 C1723 1.415 . S
C1726 H1716 0.930 . S
C1726 C1724 1.419 . S
C1726 C1727 1.362 . S
C1727 H1717 0.930 . S
C1727 C1720 1.409 . S
C1727 C1726 1.362 . S
H1728 C1734 0.930 . S
H1729 C1737 0.930 . S
H1730 C1738 0.930 . S
H1731 C1739 0.930 . S
H1732 C1742 0.930 . S
H1733 C1743 0.930 . S
C1734 H1728 0.930 . S
C1734 C1735 1.355 . S
C1734 C1736 1.415 . S
C1735 C1734 1.355 . S
C1735 C1737 1.419 . S
C1736 C1734 1.415 . S
C1736 C1741 1.425 . S
C1736 C1743 1.409 . S
C1737 H1729 0.930 . S
C1737 C1735 1.419 . S
C1737 C1738 1.362 . S
C1738 H1730 0.930 . S
C1738 C1737 1.362 . S
C1738 C1741 1.409 . S
C1739 H1731 0.930 . S
C1739 C1740 1.355 . S
C1739 C1741 1.415 . S
C1740 C1739 1.355 . S
C1740 C1742 1.419 . S
C1741 C1736 1.425 . S
C1741 C1738 1.409 . S
C1741 C1739 1.415 . S
C1742 H1732 0.930 . S
C1742 C1740 1.419 . S
C1742 C1743 1.362 . S
C1743 H1733 0.930 . S
C1743 C1736 1.409 . S
C1743 C1742 1.362 . S
H1744 C1750 0.930 . S
H1745 C1753 0.930 . S
H1746 C1754 0.930 . S
H1747 C1755 0.930 . S
H1748 C1758 0.930 . S
H1749 C1759 0.930 . S
C1750 H1744 0.930 . S
C1750 C1751 1.355 . S
C1750 C1752 1.415 . S
C1751 C1750 1.355 . S
C1751 C1753 1.419 . S
C1752 C1750 1.415 . S
C1752 C1757 1.425 . S
C1752 C1759 1.409 . S
C1753 H1745 0.930 . S
C1753 C1751 1.419 . S
C1753 C1754 1.362 . S
C1754 H1746 0.930 . S
C1754 C1753 1.362 . S
C1754 C1757 1.409 . S
C1755 H1747 0.930 . S
C1755 C1756 1.355 . S
C1755 C1757 1.415 . S
C1756 C1755 1.355 . S
C1756 C1758 1.419 . S
C1757 C1752 1.425 . S
C1757 C1754 1.409 . S
C1757 C1755 1.415 . S
C1758 H1748 0.930 . S
C1758 C1756 1.419 . S
C1758 C1759 1.362 . S
C1759 H1749 0.930 . S
C1759 C1752 1.409 . S
C1759 C1758 1.362 . S
H1760 C1766 0.930 . S
H1761 C1769 0.930 . S
H1762 C1770 0.930 . S
H1763 C1771 0.930 . S
H1764 C1774 0.930 . S
H1765 C1775 0.930 . S
C1766 H1760 0.930 . S
C1766 C1767 1.355 . S
C1766 C1768 1.415 . S
C1767 C1766 1.355 . S
C1767 C1769 1.419 . S
C1768 C1766 1.415 . S
C1768 C1773 1.425 . S
C1768 C1775 1.409 . S
C1769 H1761 0.930 . S
C1769 C1767 1.419 . S
C1769 C1770 1.362 . S
C1770 H1762 0.930 . S
C1770 C1769 1.362 . S
C1770 C1773 1.409 . S
C1771 H1763 0.930 . S
C1771 C1772 1.355 . S
C1771 C1773 1.415 . S
C1772 C1771 1.355 . S
C1772 C1774 1.419 . S
C1773 C1768 1.425 . S
C1773 C1770 1.409 . S
C1773 C1771 1.415 . S
C1774 H1764 0.930 . S
C1774 C1772 1.419 . S
C1774 C1775 1.362 . S
C1775 H1765 0.930 . S
C1775 C1768 1.409 . S
C1775 C1774 1.362 . S
H1776 C1782 0.930 . S
H1777 C1785 0.930 . S
H1778 C1786 0.930 . S
H1779 C1787 0.930 . S
H1780 C1790 0.930 . S
H1781 C1791 0.930 . S
C1782 H1776 0.930 . S
C1782 C1783 1.355 . S
C1782 C1784 1.415 1_545 S
C1783 C1782 1.355 . S
C1783 C1785 1.419 . S
C1784 C1782 1.415 1_565 S
C1784 C1789 1.425 . S
C1784 C1791 1.409 . S
C1785 H1777 0.930 . S
C1785 C1783 1.419 . S
C1785 C1786 1.362 1_545 S
C1786 H1778 0.930 . S
C1786 C1785 1.362 1_565 S
C1786 C1789 1.409 . S
C1787 H1779 0.930 . S
C1787 C1788 1.355 . S
C1787 C1789 1.415 . S
C1788 C1787 1.355 . S
C1788 C1790 1.419 . S
C1789 C1784 1.425 . S
C1789 C1786 1.409 . S
C1789 C1787 1.415 . S
C1790 H1780 0.930 . S
C1790 C1788 1.419 . S
C1790 C1791 1.362 . S
C1791 H1781 0.930 . S
C1791 C1784 1.409 . S
C1791 C1790 1.362 . S
H1792 C1798 0.930 . S
H1793 C1801 0.930 . S
H1794 C1802 0.930 . S
H1795 C1803 0.930 . S
H1796 C1806 0.930 . S
H1797 C1807 0.930 . S
C1798 H1792 0.930 . S
C1798 C1799 1.355 . S
C1798 C1800 1.415 . S
C1799 C1798 1.355 . S
C1799 C1801 1.419 . S
C1800 C1798 1.415 . S
C1800 C1805 1.425 . S
C1800 C1807 1.409 . S
C1801 H1793 0.930 . S
C1801 C1799 1.419 . S
C1801 C1802 1.362 . S
C1802 H1794 0.930 . S
C1802 C1801 1.362 . S
C1802 C1805 1.409 . S
C1803 H1795 0.930 . S
C1803 C1804 1.355 . S
C1803 C1805 1.415 . S
C1804 C1803 1.355 . S
C1804 C1806 1.419 . S
C1805 C1800 1.425 . S
C1805 C1802 1.409 . S
C1805 C1803 1.415 . S
C1806 H1796 0.930 . S
C1806 C1804 1.419 . S
C1806 C1807 1.362 . S
C1807 H1797 0.930 . S
C1807 C1800 1.409 . S
C1807 C1806 1.362 . S
H1808 C1814 0.930 . S
H1809 C1817 0.930 . S
H1810 C1818 0.930 . S
H1811 C1819 0.930 . S
H1812 C1822 0.930 . S
H1813 C1823 0.930 . S
C1814 H1808 0.930 . S
C1814 C1815 1.355 . S
C1814 C1816 1.415 . S
C1815 C1814 1.355 . S
C1815 C1817 1.419 . S
C1816 C1814 1.415 . S
C1816 C1821 1.425 . S
C1816 C1823 1.409 . S
C1817 H1809 0.930 . S
C1817 C1815 1.419 . S
C1817 C1818 1.362 . S
C1818 H1810 0.930 . S
C1818 C1817 1.362 . S
C1818 C1821 1.409 . S
C1819 H1811 0.930 . S
C1819 C1820 1.355 . S
C1819 C1821 1.415 . S
C1820 C1819 1.355 . S
C1820 C1822 1.419 . S
C1821 C1816 1.425 . S
C1821 C1818 1.409 . S
C1821 C1819 1.415 . S
C1822 H1812 0.930 . S
C1822 C1820 1.419 . S
C1822 C1823 1.362 . S
C1823 H1813 0.930 . S
C1823 C1816 1.409 . S
C1823 C1822 1.362 . S
H1824 C1830 0.930 . S
H1825 C1833 0.930 . S
H1826 C1834 0.930 . S
H1827 C1835 0.930 . S
H1828 C1838 0.930 . S
H1829 C1839 0.930 . S
C1830 H1824 0.930 . S
C1830 C1831 1.355 . S
C1830 C1832 1.415 . S
C1831 C1830 1.355 . S
C1831 C1833 1.419 . S
C1832 C1830 1.415 . S
C1832 C1837 1.425 . S
C1832 C1839 1.409 . S
C1833 H1825 0.930 . S
C1833 C1831 1.419 . S
C1833 C1834 1.362 . S
C1834 H1826 0.930 . S
C1834 C1833 1.362 . S
C1834 C1837 1.409 . S
C1835 H1827 0.930 . S
C1835 C1836 1.355 . S
C1835 C1837 1.415 . S
C1836 C1835 1.355 . S
C1836 C1838 1.419 . S
C1837 C1832 1.425 . S
C1837 C1834 1.409 . S
C1837 C1835 1.415 . S
C1838 H1828 0.930 . S
C1838 C1836 1.419 . S
C1838 C1839 1.362 . S
C1839 H1829 0.930 . S
C1839 C1832 1.409 . S
C1839 C1838 1.362 . S
H1840 C1846 0.930 . S
H1841 C1849 0.930 . S
H1842 C1850 0.930 . S
H1843 C1851 0.930 . S
H1844 C1854 0.930 . S
H1845 C1855 0.930 . S
C1846 H1840 0.930 . S
C1846 C1847 1.355 . S
C1846 C1848 1.415 . S
C1847 C1846 1.355 . S
C1847 C1849 1.419 . S
C1848 C1846 1.415 . S
C1848 C1853 1.425 . S
C1848 C1855 1.409 . S
C1849 H1841 0.930 . S
C1849 C1847 1.419 . S
C1849 C1850 1.362 . S
C1850 H1842 0.930 . S
C1850 C1849 1.362 . S
C1850 C1853 1.409 . S
C1851 H1843 0.930 . S
C1851 C1852 1.355 . S
C1851 C1853 1.415 . S
C1852 C1851 1.355 . S
C1852 C1854 1.419 . S
C1853 C1848 1.425 . S
C1853 C1850 1.409 . S
C1853 C1851 1.415 . S
C1854 H1844 0.930 . S
C1854 C1852 1.419 . S
C1854 C1855 1.362 . S
C1855 H1845 0.930 . S
C1855 C1848 1.409 . S
C1855 C1854 1.362 . S
H1856 C1862 0.930 . S
H1857 C1865 0.930 . S
H1858 C1866 0.930 . S
H1859 C1867 0.930 . S
H1860 C1870 0.930 . S
H1861 C1871 0.930 . S
C1862 H1856 0.930 . S
C1862 C1863 1.355 . S
C1862 C1864 1.415 . S
C1863 C1862 1.355 . S
C1863 C1865 1.419 . S
C1864 C1862 1.415 . S
C1864 C1869 1.425 . S
C1864 C1871 1.409 . S
C1865 H1857 0.930 . S
C1865 C1863 1.419 . S
C1865 C1866 1.362 . S
C1866 H1858 0.930 . S
C1866 C1865 1.362 . S
C1866 C1869 1.409 . S
C1867 H1859 0.930 . S
C1867 C1868 1.355 . S
C1867 C1869 1.415 . S
C1868 C1867 1.355 . S
C1868 C1870 1.419 . S
C1869 C1864 1.425 . S
C1869 C1866 1.409 . S
C1869 C1867 1.415 . S
C1870 H1860 0.930 . S
C1870 C1868 1.419 . S
C1870 C1871 1.362 . S
C1871 H1861 0.930 . S
C1871 C1864 1.409 . S
C1871 C1870 1.362 . S
H1872 C1878 0.930 . S
H1873 C1881 0.930 . S
H1874 C1882 0.930 . S
H1875 C1883 0.930 . S
H1876 C1886 0.930 . S
H1877 C1887 0.930 . S
C1878 H1872 0.930 . S
C1878 C1879 1.355 . S
C1878 C1880 1.415 1_565 S
C1879 C1878 1.355 . S
C1879 C1881 1.419 . S
C1880 C1878 1.415 1_545 S
C1880 C1885 1.425 . S
C1880 C1887 1.409 . S
C1881 H1873 0.930 . S
C1881 C1879 1.419 . S
C1881 C1882 1.362 1_565 S
C1882 H1874 0.930 . S
C1882 C1881 1.362 1_545 S
C1882 C1885 1.409 . S
C1883 H1875 0.930 . S
C1883 C1884 1.355 . S
C1883 C1885 1.415 . S
C1884 C1883 1.355 . S
C1884 C1886 1.419 . S
C1885 C1880 1.425 . S
C1885 C1882 1.409 . S
C1885 C1883 1.415 . S
C1886 H1876 0.930 . S
C1886 C1884 1.419 . S
C1886 C1887 1.362 . S
C1887 H1877 0.930 . S
C1887 C1880 1.409 . S
C1887 C1886 1.362 . S
H1888 C1894 0.930 . S
H1889 C1897 0.930 . S
H1890 C1898 0.930 . S
H1891 C1899 0.930 . S
H1892 C1902 0.930 . S
H1893 C1903 0.930 . S
C1894 H1888 0.930 . S
C1894 C1895 1.355 . S
C1894 C1896 1.415 . S
C1895 C1894 1.355 . S
C1895 C1897 1.419 . S
C1896 C1894 1.415 . S
C1896 C1901 1.425 . S
C1896 C1903 1.409 . S
C1897 H1889 0.930 . S
C1897 C1895 1.419 . S
C1897 C1898 1.362 . S
C1898 H1890 0.930 . S
C1898 C1897 1.362 . S
C1898 C1901 1.409 . S
C1899 H1891 0.930 . S
C1899 C1900 1.355 . S
C1899 C1901 1.415 . S
C1900 C1899 1.355 . S
C1900 C1902 1.419 . S
C1901 C1896 1.425 . S
C1901 C1898 1.409 . S
C1901 C1899 1.415 . S
C1902 H1892 0.930 . S
C1902 C1900 1.419 . S
C1902 C1903 1.362 . S
C1903 H1893 0.930 . S
C1903 C1896 1.409 . S
C1903 C1902 1.362 . S
H1904 C1910 0.930 . S
H1905 C1913 0.930 . S
H1906 C1914 0.930 . S
H1907 C1915 0.930 . S
H1908 C1918 0.930 . S
H1909 C1919 0.930 . S
C1910 H1904 0.930 . S
C1910 C1911 1.355 . S
C1910 C1912 1.415 . S
C1911 C1910 1.355 . S
C1911 C1913 1.419 . S
C1912 C1910 1.415 . S
C1912 C1917 1.425 . S
C1912 C1919 1.409 . S
C1913 H1905 0.930 . S
C1913 C1911 1.419 . S
C1913 C1914 1.362 . S
C1914 H1906 0.930 . S
C1914 C1913 1.362 . S
C1914 C1917 1.409 . S
C1915 H1907 0.930 . S
C1915 C1916 1.355 . S
C1915 C1917 1.415 . S
C1916 C1915 1.355 . S
C1916 C1918 1.419 . S
C1917 C1912 1.425 . S
C1917 C1914 1.409 . S
C1917 C1915 1.415 . S
C1918 H1908 0.930 . S
C1918 C1916 1.419 . S
C1918 C1919 1.362 . S
C1919 H1909 0.930 . S
C1919 C1912 1.409 . S
C1919 C1918 1.362 . S
H1920 C1926 0.930 1_455 S
H1921 C1929 0.930 1_455 S
H1922 C1930 0.930 . S
H1923 C1931 0.930 . S
H1924 C1934 0.930 . S
H1925 C1935 0.930 . S
C1926 H1920 0.930 1_655 S
C1926 C1927 1.355 1_655 S
C1926 C1928 1.415 . S
C1927 C1926 1.355 1_455 S
C1927 C1929 1.419 1_455 S
C1928 C1926 1.415 . S
C1928 C1933 1.425 . S
C1928 C1935 1.409 . S
C1929 H1921 0.930 1_655 S
C1929 C1927 1.419 1_655 S
C1929 C1930 1.362 . S
C1930 H1922 0.930 . S
C1930 C1929 1.362 . S
C1930 C1933 1.409 . S
C1931 H1923 0.930 . S
C1931 C1932 1.355 . S
C1931 C1933 1.415 . S
C1932 C1931 1.355 . S
C1932 C1934 1.419 . S
C1933 C1928 1.425 . S
C1933 C1930 1.409 . S
C1933 C1931 1.415 . S
C1934 H1924 0.930 . S
C1934 C1932 1.419 . S
C1934 C1935 1.362 . S
C1935 H1925 0.930 . S
C1935 C1928 1.409 . S
C1935 C1934 1.362 . S
H1936 C1942 0.930 . S
H1937 C1945 0.930 . S
H1938 C1946 0.930 . S
H1939 C1947 0.930 . S
H1940 C1950 0.930 . S
H1941 C1951 0.930 . S
C1942 H1936 0.930 . S
C1942 C1943 1.355 . S
C1942 C1944 1.415 . S
C1943 C1942 1.355 . S
C1943 C1945 1.419 . S
C1944 C1942 1.415 . S
C1944 C1949 1.425 . S
C1944 C1951 1.409 . S
C1945 H1937 0.930 . S
C1945 C1943 1.419 . S
C1945 C1946 1.362 . S
C1946 H1938 0.930 . S
C1946 C1945 1.362 . S
C1946 C1949 1.409 . S
C1947 H1939 0.930 . S
C1947 C1948 1.355 . S
C1947 C1949 1.415 . S
C1948 C1947 1.355 . S
C1948 C1950 1.419 . S
C1949 C1944 1.425 . S
C1949 C1946 1.409 . S
C1949 C1947 1.415 . S
C1950 H1940 0.930 . S
C1950 C1948 1.419 . S
C1950 C1951 1.362 . S
C1951 H1941 0.930 . S
C1951 C1944 1.409 . S
C1951 C1950 1.362 . S
H1952 C1958 0.930 . S
H1953 C1961 0.930 . S
H1954 C1962 0.930 . S
H1955 C1963 0.930 . S
H1956 C1966 0.930 . S
H1957 C1967 0.930 . S
C1958 H1952 0.930 . S
C1958 C1959 1.355 . S
C1958 C1960 1.415 1_565 S
C1959 C1958 1.355 . S
C1959 C1961 1.419 . S
C1960 C1958 1.415 1_545 S
C1960 C1965 1.425 . S
C1960 C1967 1.409 . S
C1961 H1953 0.930 . S
C1961 C1959 1.419 . S
C1961 C1962 1.362 1_565 S
C1962 H1954 0.930 . S
C1962 C1961 1.362 1_545 S
C1962 C1965 1.409 . S
C1963 H1955 0.930 . S
C1963 C1964 1.355 . S
C1963 C1965 1.415 . S
C1964 C1963 1.355 . S
C1964 C1966 1.419 . S
C1965 C1960 1.425 . S
C1965 C1962 1.409 . S
C1965 C1963 1.415 . S
C1966 H1956 0.930 . S
C1966 C1964 1.419 . S
C1966 C1967 1.362 . S
C1967 H1957 0.930 . S
C1967 C1960 1.409 . S
C1967 C1966 1.362 . S
H1968 C1974 0.930 . S
H1969 C1977 0.930 . S
H1970 C1978 0.930 . S
H1971 C1979 0.930 . S
H1972 C1982 0.930 . S
H1973 C1983 0.930 . S
C1974 H1968 0.930 . S
C1974 C1975 1.355 . S
C1974 C1976 1.415 . S
C1975 C1974 1.355 . S
C1975 C1977 1.419 . S
C1976 C1974 1.415 . S
C1976 C1981 1.425 . S
C1976 C1983 1.409 . S
C1977 H1969 0.930 . S
C1977 C1975 1.419 . S
C1977 C1978 1.362 . S
C1978 H1970 0.930 . S
C1978 C1977 1.362 . S
C1978 C1981 1.409 . S
C1979 H1971 0.930 . S
C1979 C1980 1.355 . S
C1979 C1981 1.415 . S
C1980 C1979 1.355 . S
C1980 C1982 1.419 . S
C1981 C1976 1.425 . S
C1981 C1978 1.409 . S
C1981 C1979 1.415 . S
C1982 H1972 0.930 . S
C1982 C1980 1.419 . S
C1982 C1983 1.362 . S
C1983 H1973 0.930 . S
C1983 C1976 1.409 . S
C1983 C1982 1.362 . S
H1984 C1990 0.930 . S
H1985 C1993 0.930 . S
H1986 C1994 0.930 . S
H1987 C1995 0.930 . S
H1988 C1998 0.930 . S
H1989 C1999 0.930 . S
C1990 H1984 0.930 . S
C1990 C1991 1.355 . S
C1990 C1992 1.415 . S
C1991 C1990 1.355 . S
C1991 C1993 1.419 . S
C1992 C1990 1.415 . S
C1992 C1997 1.425 . S
C1992 C1999 1.409 . S
C1993 H1985 0.930 . S
C1993 C1991 1.419 . S
C1993 C1994 1.362 . S
C1994 H1986 0.930 . S
C1994 C1993 1.362 . S
C1994 C1997 1.409 . S
C1995 H1987 0.930 . S
C1995 C1996 1.355 . S
C1995 C1997 1.415 . S
C1996 C1995 1.355 . S
C1996 C1998 1.419 . S
C1997 C1992 1.425 . S
C1997 C1994 1.409 . S
C1997 C1995 1.415 . S
C1998 H1988 0.930 . S
C1998 C1996 1.419 . S
C1998 C1999 1.362 . S
C1999 H1989 0.930 . S
C1999 C1992 1.409 . S
C1999 C1998 1.362 . S
H2000 C2006 0.930 . S
H2001 C2009 0.930 . S
H2002 C2010 0.930 . S
H2003 C2011 0.930 . S
H2004 C2014 0.930 . S
H2005 C2015 0.930 . S
C2006 H2000 0.930 . S
C2006 C2007 1.355 . S
C2006 C2008 1.415 . S
C2007 C2006 1.355 . S
C2007 C2009 1.419 . S
C2008 C2006 1.415 . S
C2008 C2013 1.425 . S
C2008 C2015 1.409 . S
C2009 H2001 0.930 . S
C2009 C2007 1.419 . S
C2009 C2010 1.362 . S
C2010 H2002 0.930 . S
C2010 C2009 1.362 . S
C2010 C2013 1.409 . S
C2011 H2003 0.930 . S
C2011 C2012 1.355 . S
C2011 C2013 1.415 . S
C2012 C2011 1.355 . S
C2012 C2014 1.419 . S
C2013 C2008 1.425 . S
C2013 C2010 1.409 . S
C2013 C2011 1.415 . S
C2014 H2004 0.930 . S
C2014 C2012 1.419 . S
C2014 C2015 1.362 . S
C2015 H2005 0.930 . S
C2015 C2008 1.409 . S
C2015 C2014 1.362 . S
H2016 C2022 0.930 . S
H2017 C2025 0.930 . S
H2018 C2026 0.930 . S
H2019 C2027 0.930 . S
H2020 C2030 0.930 . S
H2021 C2031 0.930 . S
C2022 H2016 0.930 . S
C2022 C2023 1.355 . S
C2022 C2024 1.415 . S
C2023 C2022 1.355 . S
C2023 C2025 1.419 . S
C2024 C2022 1.415 . S
C2024 C2029 1.425 . S
C2024 C2031 1.409 1_565 S
C2025 H2017 0.930 . S
C2025 C2023 1.419 . S
C2025 C2026 1.362 . S
C2026 H2018 0.930 . S
C2026 C2025 1.362 . S
C2026 C2029 1.409 . S
C2027 H2019 0.930 . S
C2027 C2028 1.355 . S
C2027 C2029 1.415 . S
C2028 C2027 1.355 . S
C2028 C2030 1.419 1_565 S
C2029 C2024 1.425 . S
C2029 C2026 1.409 . S
C2029 C2027 1.415 . S
C2030 H2020 0.930 . S
C2030 C2028 1.419 1_545 S
C2030 C2031 1.362 . S
C2031 H2021 0.930 . S
C2031 C2024 1.409 1_545 S
C2031 C2030 1.362 . S
H2032 C2038 0.920 1_655 S
H2033 C2041 0.930 . S
H2034 C2042 0.930 . S
H2035 C2043 0.930 . S
H2036 C2046 0.930 . S
H2037 C2047 0.930 . S
C2038 H2032 0.920 1_455 S
C2038 C2039 1.355 . S
C2038 C2040 1.415 . S
C2039 C2038 1.355 . S
C2039 C2041 1.419 . S
C2040 C2038 1.415 . S
C2040 C2045 1.425 . S
C2040 C2047 1.409 . S
C2041 H2033 0.930 . S
C2041 C2039 1.419 . S
C2041 C2042 1.362 . S
C2042 H2034 0.930 . S
C2042 C2041 1.362 . S
C2042 C2045 1.409 . S
C2043 H2035 0.930 . S
C2043 C2044 1.355 . S
C2043 C2045 1.415 . S
C2044 C2043 1.355 . S
C2044 C2046 1.419 . S
C2045 C2040 1.425 . S
C2045 C2042 1.409 . S
C2045 C2043 1.415 . S
C2046 H2036 0.930 . S
C2046 C2044 1.419 . S
C2046 C2047 1.362 . S
C2047 H2037 0.930 . S
C2047 C2040 1.409 . S
C2047 C2046 1.362 . S
H2048 C2054 0.930 . S
H2049 C2057 0.930 . S
H2050 C2058 0.930 . S
H2051 C2059 0.930 . S
H2052 C2062 0.930 . S
H2053 C2063 0.930 . S
C2054 H2048 0.930 . S
C2054 C2055 1.355 . S
C2054 C2056 1.415 . S
C2055 C2054 1.355 . S
C2055 C2057 1.419 . S
C2056 C2054 1.415 . S
C2056 C2061 1.425 . S
C2056 C2063 1.409 . S
C2057 H2049 0.930 . S
C2057 C2055 1.419 . S
C2057 C2058 1.362 . S
C2058 H2050 0.930 . S
C2058 C2057 1.362 . S
C2058 C2061 1.409 . S
C2059 H2051 0.930 . S
C2059 C2060 1.355 . S
C2059 C2061 1.415 . S
C2060 C2059 1.355 . S
C2060 C2062 1.419 . S
C2061 C2056 1.425 . S
C2061 C2058 1.409 . S
C2061 C2059 1.415 . S
C2062 H2052 0.930 . S
C2062 C2060 1.419 . S
C2062 C2063 1.362 . S
C2063 H2053 0.930 . S
C2063 C2056 1.409 . S
C2063 C2062 1.362 . S
H2064 C2070 0.930 . S
H2065 C2073 0.930 . S
H2066 C2074 0.930 . S
H2067 C2075 0.930 . S
H2068 C2078 0.930 . S
H2069 C2079 0.930 . S
C2070 H2064 0.930 . S
C2070 C2071 1.363 . S
C2070 C2072 1.415 . S
C2071 C2070 1.363 . S
C2071 C2073 1.411 1_655 S
C2072 C2070 1.415 . S
C2072 C2077 1.425 1_655 S
C2072 C2079 1.409 . S
C2073 H2065 0.930 . S
C2073 C2071 1.411 1_455 S
C2073 C2074 1.362 . S
C2074 H2066 0.930 . S
C2074 C2073 1.362 . S
C2074 C2077 1.409 . S
C2075 H2067 0.930 . S
C2075 C2076 1.355 1_455 S
C2075 C2077 1.415 . S
C2076 C2075 1.355 1_655 S
C2076 C2078 1.419 . S
C2077 C2072 1.425 1_455 S
C2077 C2074 1.409 . S
C2077 C2075 1.415 . S
C2078 H2068 0.930 . S
C2078 C2076 1.419 . S
C2078 C2079 1.362 . S
C2079 H2069 0.930 . S
C2079 C2072 1.409 . S
C2079 C2078 1.362 . S
H2080 C2086 0.930 . S
H2081 C2089 0.930 . S
H2082 C2090 0.930 . S
H2083 C2091 0.930 . S
H2084 C2094 0.930 . S
H2085 C2095 0.930 . S
C2086 H2080 0.930 . S
C2086 C2087 1.355 . S
C2086 C2088 1.415 . S
C2087 C2086 1.355 . S
C2087 C2089 1.419 . S
C2088 C2086 1.415 . S
C2088 C2093 1.425 . S
C2088 C2095 1.409 . S
C2089 H2081 0.930 . S
C2089 C2087 1.419 . S
C2089 C2090 1.362 . S
C2090 H2082 0.930 . S
C2090 C2089 1.362 . S
C2090 C2093 1.409 . S
C2091 H2083 0.930 . S
C2091 C2092 1.355 . S
C2091 C2093 1.415 . S
C2092 C2091 1.355 . S
C2092 C2094 1.419 . S
C2093 C2088 1.425 . S
C2093 C2090 1.409 . S
C2093 C2091 1.415 . S
C2094 H2084 0.930 . S
C2094 C2092 1.419 . S
C2094 C2095 1.362 . S
C2095 H2085 0.930 . S
C2095 C2088 1.409 . S
C2095 C2094 1.362 . S
H2096 C2102 0.930 . S
H2097 C2105 0.930 . S
H2098 C2106 0.930 . S
H2099 C2107 0.930 . S
H2100 C2110 0.930 . S
H2101 C2111 0.930 . S
C2102 H2096 0.930 . S
C2102 C2103 1.355 . S
C2102 C2104 1.415 . S
C2103 C2102 1.355 . S
C2103 C2105 1.419 . S
C2104 C2102 1.415 . S
C2104 C2109 1.425 . S
C2104 C2111 1.409 1_545 S
C2105 H2097 0.930 . S
C2105 C2103 1.419 . S
C2105 C2106 1.362 . S
C2106 H2098 0.930 . S
C2106 C2105 1.362 . S
C2106 C2109 1.409 . S
C2107 H2099 0.930 . S
C2107 C2108 1.355 . S
C2107 C2109 1.415 . S
C2108 C2107 1.355 . S
C2108 C2110 1.419 1_545 S
C2109 C2104 1.425 . S
C2109 C2106 1.409 . S
C2109 C2107 1.415 . S
C2110 H2100 0.930 . S
C2110 C2108 1.419 1_565 S
C2110 C2111 1.362 . S
C2111 H2101 0.930 . S
C2111 C2104 1.409 1_565 S
C2111 C2110 1.362 . S
H2112 C2118 0.930 . S
H2113 C2121 0.930 . S
H2114 C2122 0.930 . S
H2115 C2123 0.930 . S
H2116 C2126 0.930 . S
H2117 C2127 0.930 . S
C2118 H2112 0.930 . S
C2118 C2119 1.355 . S
C2118 C2120 1.415 . S
C2119 C2118 1.355 . S
C2119 C2121 1.419 . S
C2120 C2118 1.415 . S
C2120 C2125 1.425 . S
C2120 C2127 1.409 . S
C2121 H2113 0.930 . S
C2121 C2119 1.419 . S
C2121 C2122 1.362 . S
C2122 H2114 0.930 . S
C2122 C2121 1.362 . S
C2122 C2125 1.409 . S
C2123 H2115 0.930 . S
C2123 C2124 1.355 . S
C2123 C2125 1.415 . S
C2124 C2123 1.355 . S
C2124 C2126 1.419 . S
C2125 C2120 1.425 . S
C2125 C2122 1.409 . S
C2125 C2123 1.415 . S
C2126 H2116 0.930 . S
C2126 C2124 1.419 . S
C2126 C2127 1.362 . S
C2127 H2117 0.930 . S
C2127 C2120 1.409 . S
C2127 C2126 1.362 . S
H2128 C2134 0.930 . S
H2129 C2137 0.930 . S
H2130 C2138 0.930 . S
H2131 C2139 0.930 . S
H2132 C2142 0.930 . S
H2133 C2143 0.930 . S
C2134 H2128 0.930 . S
C2134 C2135 1.355 . S
C2134 C2136 1.415 . S
C2135 C2134 1.355 . S
C2135 C2137 1.419 . S
C2136 C2134 1.415 . S
C2136 C2141 1.425 . S
C2136 C2143 1.409 . S
C2137 H2129 0.930 . S
C2137 C2135 1.419 . S
C2137 C2138 1.362 . S
C2138 H2130 0.930 . S
C2138 C2137 1.362 . S
C2138 C2141 1.409 . S
C2139 H2131 0.930 . S
C2139 C2140 1.355 . S
C2139 C2141 1.415 . S
C2140 C2139 1.355 . S
C2140 C2142 1.419 . S
C2141 C2136 1.425 . S
C2141 C2138 1.409 . S
C2141 C2139 1.415 . S
C2142 H2132 0.930 . S
C2142 C2140 1.419 . S
C2142 C2143 1.362 . S
C2143 H2133 0.930 . S
C2143 C2136 1.409 . S
C2143 C2142 1.362 . S
H2144 C2150 0.930 . S
H2145 C2153 0.930 . S
H2146 C2154 0.930 . S
H2147 C2155 0.930 . S
H2148 C2158 0.930 . S
H2149 C2159 0.930 . S
C2150 H2144 0.930 . S
C2150 C2151 1.355 . S
C2150 C2152 1.415 . S
C2151 C2150 1.355 . S
C2151 C2153 1.419 . S
C2152 C2150 1.415 . S
C2152 C2157 1.425 . S
C2152 C2159 1.409 . S
C2153 H2145 0.930 . S
C2153 C2151 1.419 . S
C2153 C2154 1.362 . S
C2154 H2146 0.930 . S
C2154 C2153 1.362 . S
C2154 C2157 1.409 . S
C2155 H2147 0.930 . S
C2155 C2156 1.355 . S
C2155 C2157 1.415 . S
C2156 C2155 1.355 . S
C2156 C2158 1.419 . S
C2157 C2152 1.425 . S
C2157 C2154 1.409 . S
C2157 C2155 1.415 . S
C2158 H2148 0.930 . S
C2158 C2156 1.419 . S
C2158 C2159 1.362 . S
C2159 H2149 0.930 . S
C2159 C2152 1.409 . S
C2159 C2158 1.362 . S
H2160 C2166 0.930 . S
H2161 C2169 0.930 . S
H2162 C2170 0.930 . S
H2163 C2171 0.930 . S
H2164 C2174 0.930 . S
H2165 C2175 0.930 . S
C2166 H2160 0.930 . S
C2166 C2167 1.355 . S
C2166 C2168 1.415 . S
C2167 C2166 1.355 . S
C2167 C2169 1.419 . S
C2168 C2166 1.415 . S
C2168 C2173 1.425 . S
C2168 C2175 1.409 . S
C2169 H2161 0.930 . S
C2169 C2167 1.419 . S
C2169 C2170 1.362 . S
C2170 H2162 0.930 . S
C2170 C2169 1.362 . S
C2170 C2173 1.409 . S
C2171 H2163 0.930 . S
C2171 C2172 1.355 . S
C2171 C2173 1.415 . S
C2172 C2171 1.355 . S
C2172 C2174 1.419 . S
C2173 C2168 1.425 . S
C2173 C2170 1.409 . S
C2173 C2171 1.415 . S
C2174 H2164 0.930 . S
C2174 C2172 1.419 . S
C2174 C2175 1.362 . S
C2175 H2165 0.930 . S
C2175 C2168 1.409 . S
C2175 C2174 1.362 . S
H2176 C2182 0.930 . S
H2177 C2185 0.930 . S
H2178 C2186 0.930 . S
H2179 C2187 0.930 . S
H2180 C2190 0.930 . S
H2181 C2191 0.930 . S
C2182 H2176 0.930 . S
C2182 C2183 1.355 . S
C2182 C2184 1.415 . S
C2183 C2182 1.355 . S
C2183 C2185 1.419 . S
C2184 C2182 1.415 . S
C2184 C2189 1.425 . S
C2184 C2191 1.409 . S
C2185 H2177 0.930 . S
C2185 C2183 1.419 . S
C2185 C2186 1.362 . S
C2186 H2178 0.930 . S
C2186 C2185 1.362 . S
C2186 C2189 1.409 . S
C2187 H2179 0.930 . S
C2187 C2188 1.355 . S
C2187 C2189 1.415 . S
C2188 C2187 1.355 . S
C2188 C2190 1.419 . S
C2189 C2184 1.425 . S
C2189 C2186 1.409 . S
C2189 C2187 1.415 . S
C2190 H2180 0.930 . S
C2190 C2188 1.419 . S
C2190 C2191 1.362 . S
C2191 H2181 0.930 . S
C2191 C2184 1.409 . S
C2191 C2190 1.362 . S
H2192 C2198 0.930 . S
H2193 C2201 0.930 . S
H2194 C2202 0.930 . S
H2195 C2203 0.930 . S
H2196 C2206 0.930 . S
H2197 C2207 0.930 . S
C2198 H2192 0.930 . S
C2198 C2199 1.355 . S
C2198 C2200 1.415 . S
C2199 C2198 1.355 . S
C2199 C2201 1.419 . S
C2200 C2198 1.415 . S
C2200 C2205 1.425 . S
C2200 C2207 1.409 . S
C2201 H2193 0.930 . S
C2201 C2199 1.419 . S
C2201 C2202 1.362 . S
C2202 H2194 0.930 . S
C2202 C2201 1.362 . S
C2202 C2205 1.409 . S
C2203 H2195 0.930 . S
C2203 C2204 1.355 . S
C2203 C2205 1.415 . S
C2204 C2203 1.355 . S
C2204 C2206 1.419 . S
C2205 C2200 1.425 . S
C2205 C2202 1.409 . S
C2205 C2203 1.415 . S
C2206 H2196 0.930 . S
C2206 C2204 1.419 . S
C2206 C2207 1.362 . S
C2207 H2197 0.930 . S
C2207 C2200 1.409 . S
C2207 C2206 1.362 . S
H2208 C2214 0.930 . S
H2209 C2217 0.930 . S
H2210 C2218 0.930 . S
H2211 C2219 0.930 . S
H2212 C2222 0.930 . S
H2213 C2223 0.930 . S
C2214 H2208 0.930 . S
C2214 C2215 1.355 . S
C2214 C2216 1.415 . S
C2215 C2214 1.355 . S
C2215 C2217 1.419 . S
C2216 C2214 1.415 . S
C2216 C2221 1.425 . S
C2216 C2223 1.409 . S
C2217 H2209 0.930 . S
C2217 C2215 1.419 . S
C2217 C2218 1.362 . S
C2218 H2210 0.930 . S
C2218 C2217 1.362 . S
C2218 C2221 1.409 . S
C2219 H2211 0.930 . S
C2219 C2220 1.355 . S
C2219 C2221 1.415 . S
C2220 C2219 1.355 . S
C2220 C2222 1.419 . S
C2221 C2216 1.425 . S
C2221 C2218 1.409 . S
C2221 C2219 1.415 . S
C2222 H2212 0.930 . S
C2222 C2220 1.419 . S
C2222 C2223 1.362 . S
C2223 H2213 0.930 . S
C2223 C2216 1.409 . S
C2223 C2222 1.362 . S
H2224 C2230 0.930 . S
H2225 C2233 0.930 . S
H2226 C2234 0.930 . S
H2227 C2235 0.930 . S
H2228 C2238 0.930 . S
H2229 C2239 0.930 . S
C2230 H2224 0.930 . S
C2230 C2231 1.355 . S
C2230 C2232 1.415 . S
C2231 C2230 1.355 . S
C2231 C2233 1.419 . S
C2232 C2230 1.415 . S
C2232 C2237 1.425 . S
C2232 C2239 1.409 . S
C2233 H2225 0.930 . S
C2233 C2231 1.419 . S
C2233 C2234 1.362 . S
C2234 H2226 0.930 . S
C2234 C2233 1.362 . S
C2234 C2237 1.409 . S
C2235 H2227 0.930 . S
C2235 C2236 1.355 . S
C2235 C2237 1.415 . S
C2236 C2235 1.355 . S
C2236 C2238 1.419 . S
C2237 C2232 1.425 . S
C2237 C2234 1.409 . S
C2237 C2235 1.415 . S
C2238 H2228 0.930 . S
C2238 C2236 1.419 . S
C2238 C2239 1.362 . S
C2239 H2229 0.930 . S
C2239 C2232 1.409 . S
C2239 C2238 1.362 . S
H2240 C2246 0.930 . S
H2241 C2249 0.930 . S
H2242 C2250 0.930 . S
H2243 C2251 0.930 . S
H2244 C2254 0.930 . S
H2245 C2255 0.930 . S
C2246 H2240 0.930 . S
C2246 C2247 1.355 . S
C2246 C2248 1.415 . S
C2247 C2246 1.355 . S
C2247 C2249 1.419 . S
C2248 C2246 1.415 . S
C2248 C2253 1.425 . S
C2248 C2255 1.409 . S
C2249 H2241 0.930 . S
C2249 C2247 1.419 . S
C2249 C2250 1.362 . S
C2250 H2242 0.930 . S
C2250 C2249 1.362 . S
C2250 C2253 1.409 . S
C2251 H2243 0.930 . S
C2251 C2252 1.355 . S
C2251 C2253 1.415 . S
C2252 C2251 1.355 . S
C2252 C2254 1.419 . S
C2253 C2248 1.425 . S
C2253 C2250 1.409 . S
C2253 C2251 1.415 . S
C2254 H2244 0.930 . S
C2254 C2252 1.419 . S
C2254 C2255 1.362 . S
C2255 H2245 0.930 . S
C2255 C2248 1.409 . S
C2255 C2254 1.362 . S
H2256 C2262 0.930 . S
H2257 C2265 0.930 . S
H2258 C2266 0.930 . S
H2259 C2267 0.930 . S
H2260 C2270 0.930 . S
H2261 C2271 0.930 . S
C2262 H2256 0.930 . S
C2262 C2263 1.355 . S
C2262 C2264 1.415 . S
C2263 C2262 1.355 . S
C2263 C2265 1.419 . S
C2264 C2262 1.415 . S
C2264 C2269 1.425 . S
C2264 C2271 1.409 . S
C2265 H2257 0.930 . S
C2265 C2263 1.419 . S
C2265 C2266 1.362 . S
C2266 H2258 0.930 . S
C2266 C2265 1.362 . S
C2266 C2269 1.409 . S
C2267 H2259 0.930 . S
C2267 C2268 1.355 . S
C2267 C2269 1.415 . S
C2268 C2267 1.355 . S
C2268 C2270 1.419 . S
C2269 C2264 1.425 . S
C2269 C2266 1.409 . S
C2269 C2267 1.415 . S
C2270 H2260 0.930 . S
C2270 C2268 1.419 . S
C2270 C2271 1.362 . S
C2271 H2261 0.930 . S
C2271 C2264 1.409 . S
C2271 C2270 1.362 . S
H2272 C2278 0.930 . S
H2273 C2281 0.930 . S
H2274 C2282 0.930 . S
H2275 C2283 0.930 . S
H2276 C2286 0.930 . S
H2277 C2287 0.930 . S
C2278 H2272 0.930 . S
C2278 C2279 1.355 . S
C2278 C2280 1.415 . S
C2279 C2278 1.355 . S
C2279 C2281 1.419 . S
C2280 C2278 1.415 . S
C2280 C2285 1.425 . S
C2280 C2287 1.409 . S
C2281 H2273 0.930 . S
C2281 C2279 1.419 . S
C2281 C2282 1.362 . S
C2282 H2274 0.930 . S
C2282 C2281 1.362 . S
C2282 C2285 1.409 . S
C2283 H2275 0.930 . S
C2283 C2284 1.355 . S
C2283 C2285 1.415 . S
C2284 C2283 1.355 . S
C2284 C2286 1.419 . S
C2285 C2280 1.425 . S
C2285 C2282 1.409 . S
C2285 C2283 1.415 . S
C2286 H2276 0.930 . S
C2286 C2284 1.419 . S
C2286 C2287 1.362 . S
C2287 H2277 0.930 . S
C2287 C2280 1.409 . S
C2287 C2286 1.362 . S
H2288 C2294 0.930 . S
H2289 C2297 0.930 . S
H2290 C2298 0.930 . S
H2291 C2299 0.930 . S
H2292 C2302 0.930 . S
H2293 C2303 0.930 . S
C2294 H2288 0.930 . S
C2294 C2295 1.355 . S
C2294 C2296 1.415 . S
C2295 C2294 1.355 . S
C2295 C2297 1.419 . S
C2296 C2294 1.415 . S
C2296 C2301 1.425 . S
C2296 C2303 1.409 . S
C2297 H2289 0.930 . S
C2297 C2295 1.419 . S
C2297 C2298 1.362 . S
C2298 H2290 0.930 . S
C2298 C2297 1.362 . S
C2298 C2301 1.409 . S
C2299 H2291 0.930 . S
C2299 C2300 1.355 . S
C2299 C2301 1.415 . S
C2300 C2299 1.355 . S
C2300 C2302 1.419 . S
C2301 C2296 1.425 . S
C2301 C2298 1.409 . S
C2301 C2299 1.415 . S
C2302 H2292 0.930 . S
C2302 C2300 1.419 . S
C2302 C2303 1.362 . S
C2303 H2293 0.930 . S
C2303 C2296 1.409 . S
C2303 C2302 1.362 . S
C1447 C781 1.710 . S
C1452 C1092 1.698 . S
C1463 C871 1.705 . S
C1468 C1132 1.773 . S
C1479 C751 1.747 . S
C1484 C1162 1.765 . S
C1495 C691 1.588 . S
C1500 C1122 1.597 . S
C1516 C1172 1.482 . S
C1511 C571 1.377 . S
C1527 C601 1.438 . S
C1532 C1082 1.465 . S
C1548 C1111 1.704 . S
C1543 C661 1.598 . S
C1564 C1151 1.779 . S
C1559 C541 1.713 . S
C1575 C631 1.796 . S
C1580 C1177 1.795 . S
C1591 C811 1.598 . S
C1596 C1137 1.594 . S
C1607 C841 1.472 . S
C1612 C1191 1.509 . S
C1628 C1097 1.475 . S
C1623 C721 1.344 . S
C1644 C1212 1.697 . S
C1639 C61 1.679 . S
C1655 C151 1.721 . S
C1660 C1252 1.767 . S
C1671 C31 1.746 . S
C1676 C1282 1.793 . S
C1687 C1051 1.577 . S
C1692 C1242 1.573 . S
C1703 C931 1.400 . S
C1708 C1292 1.493 . S
C1719 C961 1.474 . S
C1724 C1202 1.495 . S
C1735 C1021 1.584 . S
C1740 C1231 1.692 . S
C1751 C901 1.694 . S
C1756 C1271 1.775 . S
C1772 C1297 1.774 . S
C1767 C991 1.782 . S
C1783 C91 1.635 . S
C1788 C1257 1.592 . S
C1804 C1311 1.478 . S
C1799 C121 1.417 1_455 S
C1815 C1 1.344 . S
C1820 C1217 1.476 . S
C1836 C1332 1.722 . S
C1831 C421 1.700 . S
C1847 C511 1.754 . S
C1852 C1372 1.795 . S
C1868 C1402 1.745 . S
C1863 C391 1.684 . S
C1884 C1362 1.617 . S
C1879 C331 1.570 . S
C1900 C1412 1.504 . S
C1895 C211 1.461 1_655 S
C1911 C241 1.508 . S
C1916 C1322 1.522 . S
C1927 C301 1.585 . S
C1932 C1351 1.693 . S
C1943 C181 1.693 . S
C1948 C1391 1.772 . S
C1964 C1417 1.777 . S
C1959 C271 1.820 . S
C1975 C451 1.618 . S
C1980 C1377 1.560 . S
C1991 C481 1.428 . S
C1996 C1431 1.492 . S
C2007 C361 1.444 . S
C2012 C1337 1.522 . S
C2023 C920 1.298 . S
C2028 C1109 1.327 . S
C2044 C1149 1.819 . S
C2039 C980 1.862 . S
C2055 C1040 1.491 . S
C2060 C1168 1.557 . S
C2071 C380 1.813 . S
C2076 C1128 1.844 . S
C2087 C440 1.540 . S
C2092 C1189 1.586 . S
C2108 C1088 1.335 . S
C2103 C500 1.328 . S
C2119 C200 1.336 . S
C2124 C1229 1.360 . S
C2135 C260 1.836 . S
C2140 C1269 1.806 . S
C2151 C320 1.544 . S
C2156 C1288 1.567 . S
C2167 C740 1.808 . S
C2172 C1248 1.848 . S
C2188 C1309 1.559 . S
C2183 C800 1.570 . S
C2199 C860 1.335 . S
C2204 C1208 1.358 . S
C2215 C560 1.306 . S
C2220 C1349 1.340 . S
C2231 C620 1.859 . S
C2236 C1389 1.839 . S
C2252 C1408 1.585 . S
C2247 C680 1.519 . S
C2263 C20 1.785 . S
C2268 C1368 1.849 . S
C2279 C80 1.566 . S
C2284 C1429 1.578 . S
C2295 C140 1.362 . S
C2300 C1328 1.327 . S
