# Generated by pormake.
# Topology nom, (4,4)-cn, num edge types: 1
# Building blocks:
#     Node 0, Type 0, BuildingBlock: KUFVIS_clean_linker_0, # of connection points: 4
#     Node 1, Type 0, BuildingBlock: KUFVIS_clean_linker_0, # of connection points: 4
#     Node 2, Type 0, BuildingBlock: KUFVIS_clean_linker_0, # of connection points: 4
#     Node 3, Type 0, BuildingBlock: KUFVIS_clean_linker_0, # of connection points: 4
#     Node 4, Type 0, BuildingBlock: KUFVIS_clean_linker_0, # of connection points: 4
#     Node 5, Type 0, BuildingBlock: KUFVIS_clean_linker_0, # of connection points: 4
#     Node 6, Type 1, BuildingBlock: AZAVOO_clean_sbu_0, # of connection points: 4
#     Node 7, Type 1, BuildingBlock: AZAVOO_clean_sbu_0, # of connection points: 4
#     Node 8, Type 1, BuildingBlock: AZAVOO_clean_sbu_0, # of connection points: 4
#     Node 9, Type 1, BuildingBlock: AZAVOO_clean_sbu_0, # of connection points: 4
#     Node 10, Type 1, BuildingBlock: AZAVOO_clean_sbu_0, # of connection points: 4
#     Node 11, Type 1, BuildingBlock: AZAVOO_clean_sbu_0, # of connection points: 4
#     Edge 12, Type (0, 1), BuildingBlock: TEMPAE_clean_linker_10, # of connection points: 2
#     Edge 13, Type (0, 1), BuildingBlock: TEMPAE_clean_linker_10, # of connection points: 2
#     Edge 14, Type (0, 1), BuildingBlock: TEMPAE_clean_linker_10, # of connection points: 2
#     Edge 15, Type (0, 1), BuildingBlock: TEMPAE_clean_linker_10, # of connection points: 2
#     Edge 16, Type (0, 1), BuildingBlock: TEMPAE_clean_linker_10, # of connection points: 2
#     Edge 17, Type (0, 1), BuildingBlock: TEMPAE_clean_linker_10, # of connection points: 2
#     Edge 18, Type (0, 1), BuildingBlock: TEMPAE_clean_linker_10, # of connection points: 2
#     Edge 19, Type (0, 1), BuildingBlock: TEMPAE_clean_linker_10, # of connection points: 2
#     Edge 20, Type (0, 1), BuildingBlock: TEMPAE_clean_linker_10, # of connection points: 2
#     Edge 21, Type (0, 1), BuildingBlock: TEMPAE_clean_linker_10, # of connection points: 2
#     Edge 22, Type (0, 1), BuildingBlock: TEMPAE_clean_linker_10, # of connection points: 2
#     Edge 23, Type (0, 1), BuildingBlock: TEMPAE_clean_linker_10, # of connection points: 2
#     Edge 24, Type (0, 1), BuildingBlock: TEMPAE_clean_linker_10, # of connection points: 2
#     Edge 25, Type (0, 1), BuildingBlock: TEMPAE_clean_linker_10, # of connection points: 2
#     Edge 26, Type (0, 1), BuildingBlock: TEMPAE_clean_linker_10, # of connection points: 2
#     Edge 27, Type (0, 1), BuildingBlock: TEMPAE_clean_linker_10, # of connection points: 2
#     Edge 28, Type (0, 1), BuildingBlock: TEMPAE_clean_linker_10, # of connection points: 2
#     Edge 29, Type (0, 1), BuildingBlock: TEMPAE_clean_linker_10, # of connection points: 2
#     Edge 30, Type (0, 1), BuildingBlock: TEMPAE_clean_linker_10, # of connection points: 2
#     Edge 31, Type (0, 1), BuildingBlock: TEMPAE_clean_linker_10, # of connection points: 2
#     Edge 32, Type (0, 1), BuildingBlock: TEMPAE_clean_linker_10, # of connection points: 2
#     Edge 33, Type (0, 1), BuildingBlock: TEMPAE_clean_linker_10, # of connection points: 2
#     Edge 34, Type (0, 1), BuildingBlock: TEMPAE_clean_linker_10, # of connection points: 2
#     Edge 35, Type (0, 1), BuildingBlock: TEMPAE_clean_linker_10, # of connection points: 2
# Relax obj value: 0.031
# Max RMSD: 0.159
# Mean RMSD: 0.094
data_MOF--net-nom--node1-AZAVOO_clean_sbu_0--node2-KUFVIS_clean_linker_0--edge1-TEMPAE_clean_linker_10
_symmetry_space_group_name_H-M    P1
_symmetry_Int_Tables_number       1
_symmetry_cell_setting            triclinic
loop_
_symmetry_equiv_pos_as_xyz
'x, y, z'
_cell_length_a     46.487797
_cell_length_b     46.900903
_cell_length_c     45.43997
_cell_angle_alpha  91.584628
_cell_angle_beta   91.167843
_cell_angle_gamma 120.0101
loop_
_atom_site_label
_atom_site_type_symbol
_atom_site_fract_x
_atom_site_fract_y
_atom_site_fract_z
_atom_type_partial_charge
H0 H 0.12595 0.57734 0.34822 0.0
H1 H 0.04404 0.55493 0.2888 0.0
H2 H 0.02675 0.51127 0.37413 0.0
H3 H 0.97828 0.513 0.36764 0.0
H4 H 0.89898 0.45731 0.3038 0.0
H5 H 0.99945 0.50367 0.27646 0.0
C6 C 0.09933 0.56411 0.34332 0.0
C7 C 0.07765 0.54417 0.36436 0.0
C8 C 0.08731 0.56783 0.31622 0.0
C9 C 0.05295 0.5514 0.30982 0.0
C10 C 0.03039 0.53052 0.3305 0.0
C11 C 0.04322 0.52742 0.35798 0.0
C12 C 0.99383 0.51101 0.32306 0.0
C13 C 0.9703 0.50344 0.34519 0.0
C14 C 0.93618 0.48323 0.33832 0.0
C15 C 0.92546 0.47173 0.30924 0.0
C16 C 0.94797 0.47927 0.28689 0.0
C17 C 0.98215 0.49884 0.2938 0.0
H18 H 0.56691 0.12695 0.50884 0.0
H19 H 0.51064 0.04704 0.446 0.0
H20 H 0.53514 0.02798 0.53301 0.0
H21 H 0.48199 0.98119 0.52335 0.0
H22 H 0.45862 0.90266 0.45993 0.0
H23 H 0.51942 1.00276 0.43542 0.0
C24 C 0.55421 0.1007 0.50321 0.0
C25 C 0.55282 0.07877 0.52409 0.0
C26 C 0.53919 0.08935 0.47522 0.0
C27 C 0.52251 0.05551 0.46773 0.0
C28 C 0.52058 0.03277 0.48848 0.0
C29 C 0.53575 0.04479 0.51683 0.0
C30 C 0.50317 0.99671 0.48048 0.0
C31 C 0.48461 0.9733 0.50143 0.0
C32 C 0.46893 0.9395 0.49392 0.0
C33 C 0.47145 0.92889 0.46563 0.0
C34 C 0.48932 0.95149 0.44441 0.0
C35 C 0.50511 0.98539 0.45182 0.0
H36 H 0.58424 0.46204 0.59464 0.0
H37 H 0.52392 0.4751 0.65709 0.0
H38 H 0.53767 0.51738 0.57111 0.0
H39 H 0.49173 0.51746 0.57894 0.0
H40 H 0.45775 0.55788 0.6458 0.0
H41 H 0.51641 0.51532 0.67143 0.0
C42 C 0.56909 0.47278 0.60059 0.0
C43 C 0.56164 0.48963 0.57971 0.0
C44 C 0.5561 0.46817 0.62859 0.0
C45 C 0.53478 0.48025 0.6357 0.0
C46 C 0.52797 0.49886 0.61549 0.0
C47 C 0.54169 0.50314 0.58729 0.0
C48 C 0.50741 0.51429 0.62391 0.0
C49 C 0.49126 0.52312 0.60208 0.0
C50 C 0.47443 0.53983 0.61007 0.0
C51 C 0.47138 0.54551 0.6398 0.0
C52 C 0.48515 0.53541 0.66191 0.0
C53 C 0.50426 0.52106 0.65397 0.0
H54 H 0.12908 0.57705 0.79275 0.0
H55 H 0.05601 0.51863 0.85449 0.0
H56 H 0.02705 0.54809 0.77487 0.0
H57 H 0.98174 0.49266 0.78092 0.0
H58 H 0.90997 0.47262 0.84678 0.0
H59 H 0.01372 0.53285 0.87012 0.0
C60 C 0.10348 0.56463 0.79943 0.0
C61 C 0.07905 0.56473 0.78109 0.0
C62 C 0.09549 0.54777 0.82561 0.0
C63 C 0.06235 0.5318 0.83425 0.0
C64 C 0.03725 0.53162 0.81594 0.0
C65 C 0.0459 0.54794 0.78919 0.0
C66 C 1.00202 0.5146 0.82455 0.0
C67 C 0.97604 0.49582 0.80336 0.0
C68 C 0.94267 0.48124 0.8111 0.0
C69 C 0.93561 0.48506 0.84026 0.0
C70 C 0.96088 0.50372 0.8615 0.0
C71 C 0.99414 0.51815 0.85372 0.0
H72 H 0.46356 0.91066 0.0075 0.0
H73 H 0.51635 0.98338 0.94412 0.0
H74 H 0.49026 0.01135 0.02644 0.0
H75 H 0.5502 0.05767 0.01591 0.0
H76 H 0.5573 0.12637 0.9519 0.0
H77 H 0.49501 0.02267 0.93251 0.0
C78 C 0.47522 0.93605 0.00103 0.0
C79 C 0.4747 0.95994 0.01983 0.0
C80 C 0.49026 0.94426 0.97389 0.0
C81 C 0.50494 0.977 0.96529 0.0
C82 C 0.50556 1.00159 0.98443 0.0
C83 C 0.49061 0.99285 0.01185 0.0
C84 C 0.52048 0.03614 0.97544 0.0
C85 C 0.54283 0.06259 -0.00527 0.0
C86 C 0.55679 0.09527 0.98601 0.0
C87 C 0.54684 0.10119 0.95866 0.0
C88 C 0.52474 0.0753 0.9393 0.0
C89 C 0.51199 0.04274 0.94754 0.0
H90 H 0.45609 0.5836 0.12085 0.0
H91 H 0.49715 0.54682 0.18469 0.0
H92 H 0.50017 0.52713 0.09146 0.0
H93 H 0.54967 0.52964 0.10913 0.0
H94 H 0.55201 0.45635 0.16167 0.0
H95 H 0.48693 0.49296 0.18415 0.0
C96 C 0.46821 0.56957 0.12594 0.0
C97 C 0.47749 0.55593 0.10289 0.0
C98 C 0.47461 0.5659 0.1554 0.0
C99 C 0.49169 0.54907 0.16186 0.0
C100 C 0.50109 0.53472 0.13891 0.0
C101 C 0.49406 0.53863 0.10939 0.0
C102 C 0.5162 0.51395 0.14565 0.0
C103 C 0.54045 0.51359 0.1275 0.0
C104 C 0.55292 0.49241 0.13318 0.0
C105 C 0.54156 0.47198 0.15697 0.0
C106 C 0.51814 0.47238 0.17551 0.0
C107 C 0.50552 0.49334 0.16991 0.0
Mg108 Mg 0.6294 0.36617 0.35533 0.0
O109 O 0.62361 0.39904 0.39059 0.0
O110 O 0.6425 0.44829 0.37099 0.0
Mg111 Mg 0.66072 0.4475 0.32489 0.0
C112 C 0.6296 0.42885 0.39206 0.0
C113 C 0.59986 0.29699 0.37229 0.0
O114 O 0.59147 0.29708 0.34451 0.0
O115 O 0.68534 0.39234 0.36655 0.0
O116 O 0.70241 0.43988 0.34424 0.0
O117 O 0.57919 0.35213 0.33638 0.0
O118 O 0.62609 0.3945 0.32267 0.0
C119 C 0.7084 0.42038 0.35884 0.0
C120 C 0.5941 0.37814 0.32109 0.0
O121 O 0.61781 0.32457 0.38619 0.0
Mg122 Mg 0.28025 0.6514 0.59038 0.0
O123 O 0.24196 0.62139 0.55269 0.0
O124 O 0.21134 0.57045 0.56891 0.0
Mg125 Mg 0.22944 0.5676 0.61524 0.0
C126 C 0.2181 0.59155 0.54917 0.0
C127 C 0.32304 0.72167 0.5801 0.0
O128 O 0.31599 0.71793 0.60809 0.0
O129 O 0.31057 0.62666 0.57857 0.0
O130 O 0.2797 0.57741 0.59787 0.0
O131 O 0.24394 0.66389 0.60926 0.0
O132 O 0.24767 0.62035 0.62076 0.0
C133 C 0.30565 0.59823 0.58496 0.0
C134 C 0.23232 0.63676 0.62301 0.0
O135 O 0.31127 0.69598 0.56305 0.0
Mg136 Mg 0.64084 0.27447 0.7526 0.0
O137 O 0.63537 0.23758 0.71539 0.0
O138 O 0.65434 0.20622 0.73421 0.0
Mg139 Mg 0.67166 0.22256 0.78228 0.0
C140 C 0.64146 0.21387 0.71293 0.0
C141 C 0.62426 0.32587 0.73687 0.0
O142 O 0.62645 0.32618 0.76577 0.0
O143 O 0.6971 0.30476 0.74685 0.0
O144 O 0.71371 0.27308 0.76893 0.0
O145 O 0.59041 0.23787 0.76718 0.0
O146 O 0.63721 0.24145 0.78367 0.0
C147 C 0.72006 0.2995 0.75627 0.0
C148 C 0.60524 0.22624 0.78311 0.0
O149 O 0.63016 0.30605 0.72207 0.0
Mg150 Mg 0.4 0.65275 0.86232 0.0
O151 O 0.41286 0.62978 0.90145 0.0
O152 O 0.39073 0.57617 0.88878 0.0
Mg153 Mg 0.36359 0.56417 0.84413 0.0
C154 C 0.40748 0.60083 0.90673 0.0
C155 C 0.437 0.72756 0.87647 0.0
O156 O 0.44906 0.72491 0.8513 0.0
O157 O 0.34605 0.62991 0.87612 0.0
O158 O 0.32538 0.57659 0.86333 0.0
O159 O 0.44607 0.66155 0.84005 0.0
O160 O 0.39749 0.6156 0.8345 0.0
C161 C 0.32195 0.60018 0.87399 0.0
C162 C 0.42865 0.63164 0.82929 0.0
O163 O 0.41569 0.70135 0.88834 0.0
Mg164 Mg 0.75659 0.39782 0.05054 0.0
O165 O 0.79167 0.40469 0.0906 0.0
O166 O 0.82234 0.38287 0.07546 0.0
Mg167 Mg 0.80595 0.35996 0.02913 0.0
C168 C 0.81506 0.39814 0.09494 0.0
C169 C 0.71805 0.4322 0.06043 0.0
O170 O 0.72962 0.4383 0.03381 0.0
O171 O 0.7224 0.34299 0.05912 0.0
O172 O 0.75433 0.32226 0.04501 0.0
O173 O 0.79678 0.44503 0.03393 0.0
O174 O 0.79011 0.39601 0.02203 0.0
C175 C 0.72725 0.31864 0.055 0.0
C176 C 0.80741 0.42755 0.0206 0.0
O177 O 0.72514 0.41439 0.07632 0.0
Mg178 Mg 0.37226 0.76149 0.21043 0.0
O179 O 0.40355 0.79808 0.24875 0.0
O180 O 0.45486 0.82832 0.23222 0.0
Mg181 Mg 0.45702 0.81185 0.18507 0.0
C182 C 0.43384 0.82126 0.25236 0.0
C183 C 0.30087 0.71946 0.22268 0.0
O184 O 0.30307 0.72681 0.1948 0.0
O185 O 0.39626 0.7298 0.2194 0.0
O186 O 0.44573 0.76113 0.1999 0.0
O187 O 0.36114 0.79927 0.19272 0.0
O188 O 0.40389 0.79384 0.1805 0.0
C189 C 0.42471 0.73473 0.21188 0.0
C190 C 0.38824 0.80986 0.17854 0.0
O191 O 0.32764 0.73079 0.23839 0.0
C192 C 0.12999 0.57683 0.28024 0.0
C193 C 0.1119 0.58885 0.29509 0.0
C194 C 0.15936 0.59827 0.2664 0.0
C195 C 0.17096 0.63256 0.26777 0.0
C196 C 0.15171 0.64456 0.28143 0.0
C197 C 0.12236 0.62247 0.29506 0.0
C198 C 0.17899 0.58444 0.25193 0.0
C199 C 0.16315 0.68089 0.28324 0.0
C200 C 0.2645 0.68918 0.26423 0.0
C201 C 0.26773 0.69804 0.23477 0.0
C202 C 0.23306 0.66826 0.27537 0.0
C203 C 0.20422 0.65591 0.25658 0.0
C204 C 0.20731 0.66509 0.22694 0.0
C205 C 0.23897 0.68601 0.21641 0.0
C206 C 0.23074 0.65903 0.30716 0.0
C207 C 0.1772 0.65244 0.20623 0.0
H208 H 0.1221 0.55084 0.28091 0.0
H209 H 0.10864 0.63171 0.3072 0.0
H210 H 0.18549 0.59361 0.2294 0.0
H211 H 0.20264 0.59288 0.26476 0.0
H212 H 0.16513 0.55706 0.25047 0.0
H213 H 0.14382 0.68583 0.2919 0.0
H214 H 0.18574 0.69396 0.29796 0.0
H215 H 0.16994 0.69145 0.26121 0.0
H216 H 0.28654 0.69839 0.27856 0.0
H217 H 0.24114 0.69274 0.1936 0.0
H218 H 0.21978 0.63197 0.30831 0.0
H219 H 0.21404 0.66576 0.31873 0.0
H220 H 0.25537 0.67138 0.31907 0.0
H221 H 0.16455 0.62517 0.20377 0.0
H222 H 0.18374 0.66273 0.18405 0.0
H223 H 0.1591 0.65878 0.21547 0.0
C224 C 0.56714 0.12593 0.43418 0.0
C225 C 0.5418 0.11392 0.45437 0.0
C226 C 0.57538 0.15469 0.41923 0.0
C227 C 0.55772 0.17156 0.42468 0.0
C228 C 0.53091 0.15839 0.44394 0.0
C229 C 0.52345 0.12981 0.45878 0.0
C230 C 0.60417 0.168 0.39892 0.0
C231 C 0.51121 0.17539 0.45003 0.0
C232 C 0.60171 0.26391 0.41404 0.0
C233 C 0.58877 0.26518 0.3863 0.0
C234 C 0.59189 0.23354 0.42675 0.0
C235 C 0.56836 0.20385 0.41145 0.0
C236 C 0.55495 0.20504 0.38362 0.0
C237 C 0.5654 0.23565 0.37135 0.0
C238 C 0.60687 0.2332 0.45644 0.0
C239 C 0.52957 0.17397 0.3668 0.0
H240 H 0.58169 0.11387 0.43139 0.0
H241 H 0.50425 0.12064 0.47487 0.0
H242 H 0.59664 0.17301 0.37723 0.0
H243 H 0.62473 0.19174 0.40842 0.0
H244 H 0.61372 0.15073 0.39542 0.0
H245 H 0.48932 0.1604 0.46345 0.0
H246 H 0.52735 0.19936 0.46205 0.0
H247 H 0.50247 0.18065 0.42906 0.0
H248 H 0.61983 0.2866 0.42565 0.0
H249 H 0.55513 0.23637 0.34994 0.0
H250 H 0.61964 0.21862 0.45468 0.0
H251 H 0.58696 0.22111 0.47242 0.0
H252 H 0.62503 0.25839 0.46535 0.0
H253 H 0.54015 0.15777 0.36229 0.0
H254 H 0.52129 0.17916 0.34552 0.0
H255 H 0.50749 0.16003 0.38026 0.0
C256 C 0.4662 0.58415 0.59092 0.0
C257 C 0.45837 0.55114 0.58853 0.0
C258 C 0.44299 0.59331 0.58214 0.0
C259 C 0.41167 0.56894 0.56992 0.0
C260 C 0.40614 0.53692 0.56279 0.0
C261 C 0.42945 0.52814 0.57264 0.0
C262 C 0.45025 0.62783 0.58991 0.0
C263 C 0.37397 0.51092 0.54787 0.0
C264 C 0.33854 0.57264 0.60094 0.0
C265 C 0.33178 0.58973 0.57966 0.0
C266 C 0.36421 0.56553 0.59769 0.0
C267 C 0.38288 0.57455 0.57185 0.0
C268 C 0.37524 0.59064 0.54962 0.0
C269 C 0.35026 0.59879 0.55413 0.0
C270 C 0.37202 0.54932 0.62252 0.0
C271 C 0.39362 0.59989 0.52133 0.0
H272 H 0.4888 0.60198 0.60301 0.0
H273 H 0.42345 0.50264 0.57058 0.0
H274 H 0.44309 0.63797 0.57122 0.0
H275 H 0.43534 0.62726 0.6089 0.0
H276 H 0.47695 0.64473 0.59597 0.0
H277 H 0.37657 0.49059 0.53762 0.0
H278 H 0.35443 0.50033 0.56437 0.0
H279 H 0.36552 0.52178 0.53069 0.0
H280 H 0.32444 0.56585 0.62079 0.0
H281 H 0.34489 0.61182 0.53753 0.0
H282 H 0.39835 0.56494 0.63037 0.0
H283 H 0.36866 0.52523 0.61458 0.0
H284 H 0.35593 0.54509 0.64155 0.0
H285 H 0.4152 0.62525 0.52408 0.0
H286 H 0.37741 0.59972 0.50294 0.0
H287 H 0.40294 0.58299 0.51511 0.0
C288 C 0.88558 0.46327 0.7909 0.0
C289 C 0.91436 0.46068 0.78994 0.0
C290 C 0.8552 0.43832 0.77849 0.0
C291 C 0.85379 0.41066 0.76374 0.0
C292 C 0.88366 0.41032 0.75897 0.0
C293 C 0.91368 0.43518 0.77253 0.0
C294 C 0.82411 0.43992 0.7841 0.0
C295 C 0.88346 0.38231 0.74169 0.0
C296 C 0.77683 0.33016 0.77951 0.0
C297 C 0.75519 0.32612 0.7558 0.0
C298 C 0.80928 0.35704 0.78173 0.0
C299 C 0.82097 0.37992 0.75906 0.0
C300 C 0.7999 0.37484 0.73408 0.0
C301 C 0.76689 0.34839 0.73309 0.0
C302 C 0.83036 0.36186 0.80924 0.0
C303 C 0.81161 0.39773 0.70882 0.0
H304 H 0.88627 0.48359 0.80351 0.0
H305 H 0.9359 0.43324 0.77128 0.0
H306 H 0.80926 0.43518 0.76331 0.0
H307 H 0.80847 0.42051 0.79938 0.0
H308 H 0.82976 0.46419 0.79398 0.0
H309 H 0.90864 0.38919 0.73422 0.0
H310 H 0.87492 0.36078 0.75575 0.0
H311 H 0.86602 0.3746 0.72219 0.0
H312 H 0.76781 0.31314 0.79723 0.0
H313 H 0.75029 0.34517 0.71458 0.0
H314 H 0.83707 0.38569 0.82076 0.0
H315 H 0.85384 0.3628 0.80337 0.0
H316 H 0.81743 0.34185 0.82484 0.0
H317 H 0.80663 0.41821 0.71324 0.0
H318 H 0.79802 0.38468 0.68789 0.0
H319 H 0.83868 0.40849 0.70587 0.0
C320 C 0.50426 0.90006 0.96558 0.0
C321 C 0.4894 0.91761 0.95502 0.0
C322 C 0.4981 0.87046 0.95141 0.0
C323 C 0.47604 0.85783 0.92636 0.0
C324 C 0.46214 0.87629 0.91484 0.0
C325 C 0.46914 0.90614 0.92927 0.0
C326 C 0.51389 0.85192 0.96414 0.0
C327 C 0.43837 0.8636 0.8883 0.0
C328 C 0.47425 0.78886 0.87874 0.0
C329 C 0.44729 0.76072 0.8898 0.0
C330 C 0.4839 0.82058 0.89039 0.0
C331 C 0.46596 0.82438 0.91346 0.0
C332 C 0.43868 0.79609 0.92472 0.0
C333 C 0.4298 0.7646 0.91289 0.0
C334 C 0.51341 0.85003 0.87808 0.0
C335 C 0.41875 0.79911 0.94921 0.0
H336 H 0.5197 0.9089 0.98568 0.0
H337 H 0.45724 0.9195 0.92146 0.0
H338 H 0.49447 0.82881 0.97345 0.0
H339 H 0.52578 0.84492 0.94664 0.0
H340 H 0.5329 0.8666 0.98186 0.0
H341 H 0.43183 0.88203 0.8807 0.0
H342 H 0.44928 0.85672 0.86985 0.0
H343 H 0.41518 0.84102 0.89387 0.0
H344 H 0.48801 0.78614 0.86097 0.0
H345 H 0.40885 0.74304 0.92145 0.0
H346 H 0.53263 0.86371 0.89586 0.0
H347 H 0.50575 0.86722 0.8694 0.0
H348 H 0.52475 0.84291 0.86012 0.0
H349 H 0.43507 0.811 0.96918 0.0
H350 H 0.39778 0.77482 0.95501 0.0
H351 H 0.40862 0.81506 0.94259 0.0
C352 C 0.56919 0.46314 0.09694 0.0
C353 C 0.57843 0.491 0.1154 0.0
C354 C 0.5931 0.45583 0.08655 0.0
C355 C 0.62702 0.47674 0.09515 0.0
C356 C 0.63662 0.50593 0.1125 0.0
C357 C 0.61211 0.51268 0.12251 0.0
C358 C 0.58179 0.42463 0.0679 0.0
C359 C 0.67249 0.52892 0.12206 0.0
C360 C 0.68034 0.43604 0.09739 0.0
C361 C 0.69622 0.44495 0.07054 0.0
C362 C 0.65828 0.44681 0.10597 0.0
C363 C 0.65202 0.467 0.08727 0.0
C364 C 0.66859 0.47669 0.06051 0.0
C365 C 0.69042 0.46556 0.05248 0.0
C366 C 0.6411 0.436 0.13476 0.0
C367 C 0.66271 0.49823 0.04001 0.0
H368 H 0.543 0.44604 0.09209 0.0
H369 H 0.61906 0.53374 0.13746 0.0
H370 H 0.59651 0.43 0.04781 0.0
H371 H 0.58599 0.40701 0.08049 0.0
H372 H 0.55501 0.41254 0.06115 0.0
H373 H 0.67626 0.55215 0.13286 0.0
H374 H 0.6807 0.51653 0.13784 0.0
H375 H 0.68866 0.53511 0.10289 0.0
H376 H 0.68468 0.42019 0.11148 0.0
H377 H 0.70267 0.47277 0.03173 0.0
H378 H 0.61384 0.4208 0.13047 0.0
H379 H 0.64575 0.45782 0.14867 0.0
H380 H 0.64959 0.42138 0.14732 0.0
H381 H 0.63633 0.48524 0.03196 0.0
H382 H 0.67874 0.50489 0.02067 0.0
H383 H 0.6675 0.52123 0.05197 0.0
C384 C 0.41468 0.90183 0.515 0.0
C385 C 0.44896 0.91407 0.51468 0.0
C386 C 0.39361 0.87173 0.52771 0.0
C387 C 0.40734 0.85356 0.54015 0.0
C388 C 0.44225 0.86692 0.54135 0.0
C389 C 0.46267 0.89702 0.52841 0.0
C390 C 0.35656 0.85839 0.52611 0.0
C391 C 0.45787 0.84846 0.5546 0.0
C392 C 0.35516 0.78276 0.58896 0.0
C393 C 0.34417 0.75526 0.56939 0.0
C394 C 0.37547 0.81488 0.57971 0.0
C395 C 0.38514 0.8197 0.55016 0.0
C396 C 0.37401 0.79212 0.53019 0.0
C397 C 0.35361 0.76018 0.54005 0.0
C398 C 0.38674 0.84364 0.60161 0.0
C399 C 0.38387 0.79634 0.49846 0.0
H400 H 0.40418 0.9148 0.50368 0.0
H401 H 0.48918 0.90631 0.52746 0.0
H402 H 0.34452 0.83652 0.51061 0.0
H403 H 0.34591 0.85025 0.54798 0.0
H404 H 0.35018 0.87693 0.51846 0.0
H405 H 0.48543 0.86358 0.55628 0.0
H406 H 0.44852 0.84052 0.5769 0.0
H407 H 0.45084 0.8259 0.54077 0.0
H408 H 0.34794 0.77927 0.61169 0.0
H409 H 0.34522 0.7391 0.52481 0.0
H410 H 0.37888 0.86091 0.59355 0.0
H411 H 0.41428 0.85752 0.60391 0.0
H412 H 0.37656 0.83573 0.62371 0.0
H413 H 0.37583 0.81231 0.48773 0.0
H414 H 0.37283 0.77244 0.48567 0.0
H415 H 0.41133 0.80877 0.49744 0.0
C416 C 0.54054 0.42141 0.66202 0.0
C417 C 0.5651 0.45011 0.64968 0.0
C418 C 0.54916 0.40123 0.67785 0.0
C419 C 0.58307 0.41019 0.68143 0.0
C420 C 0.60797 0.44007 0.67026 0.0
C421 C 0.59866 0.45961 0.65449 0.0
C422 C 0.52194 0.3696 0.68955 0.0
C423 C 0.6444 0.45076 0.6739 0.0
C424 C 0.61031 0.37085 0.7394 0.0
C425 C 0.61385 0.3474 0.72241 0.0
C426 C 0.59989 0.39115 0.72644 0.0
C427 C 0.59265 0.38783 0.69574 0.0
C428 C 0.59598 0.36409 0.67846 0.0
C429 C 0.60666 0.34422 0.69199 0.0
C430 C 0.59698 0.41639 0.74554 0.0
C431 C 0.58845 0.35983 0.64563 0.0
H432 H 0.5146 0.41395 0.65807 0.0
H433 H 0.61764 0.48194 0.64504 0.0
H434 H 0.52135 0.34826 0.67776 0.0
H435 H 0.52696 0.3681 0.71326 0.0
H436 H 0.49708 0.36735 0.68679 0.0
H437 H 0.6607 0.47568 0.66556 0.0
H438 H 0.65125 0.45089 0.69745 0.0
H439 H 0.64942 0.43295 0.66175 0.0
H440 H 0.61584 0.37354 0.76293 0.0
H441 H 0.60917 0.32606 0.67875 0.0
H442 H 0.57148 0.41257 0.74323 0.0
H443 H 0.6143 0.44152 0.73823 0.0
H444 H 0.6027 0.41526 0.7692 0.0
H445 H 0.5627 0.35459 0.64096 0.0
H446 H 0.59119 0.33953 0.63549 0.0
H447 H 0.60543 0.38301 0.63487 0.0
C448 C 0.13141 0.55898 0.87152 0.0
C449 C 0.12258 0.54655 0.84232 0.0
C450 C 0.16209 0.56561 0.88448 0.0
C451 C 0.18443 0.56034 0.8675 0.0
C452 C 0.17422 0.5453 0.83886 0.0
C453 C 0.14326 0.53813 0.8269 0.0
C454 C 0.17133 0.5802 0.91554 0.0
C455 C 0.19708 0.53929 0.81975 0.0
C456 C 0.27779 0.61547 0.87187 0.0
C457 C 0.28788 0.59311 0.87998 0.0
C458 C 0.24395 0.60599 0.87013 0.0
C459 C 0.21976 0.57371 0.87757 0.0
C460 C 0.2302 0.55248 0.88912 0.0
C461 C 0.26413 0.56216 0.88959 0.0
C462 C 0.234 0.62936 0.85742 0.0
C463 C 0.2054 0.51858 0.89879 0.0
H464 H 0.11541 0.56542 0.88354 0.0
H465 H 0.13614 0.52803 0.80445 0.0
H466 H 0.18629 0.57134 0.92737 0.0
H467 H 0.18652 0.60742 0.91495 0.0
H468 H 0.14889 0.57408 0.92817 0.0
H469 H 0.18491 0.52657 0.79829 0.0
H470 H 0.21947 0.56316 0.81534 0.0
H471 H 0.20559 0.52413 0.83124 0.0
H472 H 0.29607 0.63941 0.86441 0.0
H473 H 0.27192 0.54497 0.89631 0.0
H474 H 0.21563 0.63114 0.87135 0.0
H475 H 0.22203 0.61978 0.8352 0.0
H476 H 0.25566 0.65449 0.85537 0.0
H477 H 0.18492 0.51907 0.91049 0.0
H478 H 0.21733 0.50858 0.91346 0.0
H479 H 0.19428 0.50151 0.87917 0.0
C480 C 0.61081 0.14792 0.99001 0.0
C481 C 0.58293 0.12388 0.00401 0.0
C482 C 0.63309 0.17807 0.0044 0.0
C483 C 0.62805 0.18421 0.03399 0.0
C484 C 0.60135 0.1591 0.04906 0.0
C485 C 0.57886 0.1292 0.03378 0.0
C486 C 0.66118 0.20393 0.98734 0.0
C487 C 0.59569 0.16428 0.08084 0.0
C488 C 0.70634 0.25931 0.06422 0.0
C489 C 0.69953 0.28449 0.05778 0.0
C490 C 0.68183 0.22598 0.05989 0.0
C491 C 0.6501 0.21768 0.04796 0.0
C492 C 0.64225 0.24295 0.04396 0.0
C493 C 0.66701 0.27609 0.04925 0.0
C494 C 0.69089 0.19984 0.06557 0.0
C495 C 0.60881 0.23527 0.03113 0.0
H496 H 0.6145 0.14359 0.96719 0.0
H497 H 0.55739 0.11067 0.04472 0.0
H498 H 0.65875 0.22625 0.98626 0.0
H499 H 0.68542 0.21137 -0.00133 0.0
H500 H 0.66159 0.19514 0.96448 0.0
H501 H 0.57848 0.14065 0.09092 0.0
H502 H 0.61953 0.17665 0.09397 0.0
H503 H 0.58468 0.18047 0.0822 0.0
H504 H 0.73137 0.26569 0.07122 0.0
H505 H 0.66161 0.29544 0.04421 0.0
H506 H 0.69619 0.19135 0.0444 0.0
H507 H 0.66999 0.17814 0.07536 0.0
H508 H 0.7133 0.20936 0.08051 0.0
H509 H 0.60695 0.22795 0.00741 0.0
H510 H 0.60501 0.25682 0.03314 0.0
H511 H 0.58846 0.21432 0.04217 0.0
C512 C 0.43113 0.57593 0.17579 0.0
C513 C 0.46335 0.58063 0.17852 0.0
C514 C 0.42308 0.59782 0.18982 0.0
C515 C 0.44767 0.62454 0.20757 0.0
C516 C 0.47826 0.62592 0.21436 0.0
C517 C 0.48604 0.60414 0.19935 0.0
C518 C 0.38988 0.59486 0.18238 0.0
C519 C 0.5041 0.6526 0.23497 0.0
C520 C 0.45208 0.70519 0.1916 0.0
C521 C 0.43258 0.70788 0.21339 0.0
C522 C 0.45785 0.67867 0.19018 0.0
C523 C 0.44481 0.65461 0.21182 0.0
C524 C 0.42663 0.65812 0.23496 0.0
C525 C 0.42004 0.68438 0.23508 0.0
C526 C 0.47655 0.67567 0.16452 0.0
C527 C 0.41326 0.63393 0.25916 0.0
H528 H 0.41324 0.55705 0.16029 0.0
H529 H 0.51078 0.60747 0.20196 0.0
H530 H 0.37834 0.59738 0.20265 0.0
H531 H 0.39354 0.61503 0.16792 0.0
H532 H 0.37237 0.57093 0.17081 0.0
H533 H 0.52213 0.64564 0.24372 0.0
H534 H 0.51807 0.67563 0.22297 0.0
H535 H 0.49219 0.65784 0.25369 0.0
H536 H 0.46164 0.72313 0.17463 0.0
H537 H 0.40517 0.68652 0.25214 0.0
H538 H 0.46079 0.65201 0.15188 0.0
H539 H 0.4992 0.67569 0.17267 0.0
H540 H 0.48419 0.69608 0.1492 0.0
H541 H 0.38699 0.6152 0.25353 0.0
H542 H 0.41365 0.64662 0.2803 0.0
H543 H 0.42761 0.62109 0.26241 0.0
C544 C 0.88603 0.44099 0.36192 0.0
C545 C 0.91019 0.47432 0.36019 0.0
C546 C 0.85383 0.43173 0.37044 0.0
C547 C 0.84608 0.4565 0.37809 0.0
C548 C 0.87202 0.48977 0.38147 0.0
C549 C 0.90391 0.49846 0.37201 0.0
C550 C 0.82719 0.39591 0.36698 0.0
C551 C 0.86516 0.51659 0.39161 0.0
C552 C 0.76601 0.44387 0.34241 0.0
C553 C 0.74348 0.43005 0.36483 0.0
C554 C 0.79937 0.45264 0.34671 0.0
C555 C 0.81094 0.44881 0.37463 0.0
C556 C 0.78849 0.43596 0.3978 0.0
C557 C 0.75472 0.42593 0.39237 0.0
C558 C 0.82199 0.46522 0.32097 0.0
C559 C 0.79966 0.43227 0.42815 0.0
H560 H 0.89115 0.42232 0.35307 0.0
H561 H 0.92267 0.52426 0.37095 0.0
H562 H 0.81108 0.38851 0.38619 0.0
H563 H 0.81126 0.3922 0.34706 0.0
H564 H 0.83787 0.37946 0.36457 0.0
H565 H 0.88828 0.53903 0.39988 0.0
H566 H 0.85445 0.52338 0.37286 0.0
H567 H 0.84685 0.50793 0.40927 0.0
H568 H 0.75721 0.44687 0.32107 0.0
H569 H 0.73728 0.41548 0.40982 0.0
H570 H 0.83339 0.44968 0.31672 0.0
H571 H 0.84246 0.49073 0.32616 0.0
H572 H 0.80862 0.46525 0.30044 0.0
H573 H 0.79625 0.4072 0.42957 0.0
H574 H 0.78442 0.43509 0.44526 0.0
H575 H 0.82623 0.45052 0.43323 0.0
C576 C 0.11836 0.53574 0.39372 0.0
C577 C 0.09197 0.54216 0.39307 0.0
C578 C 0.1372 0.54064 0.41976 0.0
C579 C 0.12947 0.55232 0.44574 0.0
C580 C 0.10147 0.55678 0.44565 0.0
C581 C 0.08293 0.55155 0.41922 0.0
C582 C 0.1666 0.53523 0.41899 0.0
C583 C 0.09236 0.56904 0.47298 0.0
C584 C 0.16923 0.54893 0.5184 0.0
C585 C 0.19619 0.58129 0.52213 0.0
C586 C 0.1472 0.53917 0.49376 0.0
C587 C 0.15221 0.56226 0.47225 0.0
C588 C 0.17947 0.59485 0.47568 0.0
C589 C 0.20113 0.60397 0.50056 0.0
C590 C 0.1185 0.50418 0.49078 0.0
C591 C 0.1857 0.62014 0.45308 0.0
H592 H 0.12518 0.52829 0.37345 0.0
H593 H 0.06268 0.55676 0.41862 0.0
H594 H 0.18997 0.5593 0.42187 0.0
H595 H 0.16602 0.5199 0.43738 0.0
H596 H 0.16725 0.52306 0.39789 0.0
H597 H 0.06805 0.56797 0.47007 0.0
H598 H 0.09129 0.5543 0.49203 0.0
H599 H 0.11178 0.59496 0.47847 0.0
H600 H 0.16508 0.53115 0.5349 0.0
H601 H 0.22178 0.62901 0.5032 0.0
H602 H 0.12008 0.49208 0.47004 0.0
H603 H 0.09463 0.50417 0.48951 0.0
H604 H 0.118 0.48924 0.50952 0.0
H605 H 0.18944 0.61147 0.43129 0.0
H606 H 0.20784 0.64449 0.45911 0.0
H607 H 0.16371 0.62336 0.4506 0.0
C608 C 0.55003 0.08279 0.57878 0.0
C609 C 0.56884 0.09235 0.55353 0.0
C610 C 0.56305 0.10059 0.60578 0.0
C611 C 0.59561 0.12835 0.60738 0.0
C612 C 0.61543 0.13658 0.58236 0.0
C613 C 0.60175 0.11851 0.55571 0.0
C614 C 0.54121 0.09101 0.63202 0.0
C615 C 0.65035 0.16572 0.58321 0.0
C616 C 0.61391 0.19833 0.66243 0.0
C617 C 0.63124 0.19302 0.68526 0.0
C618 C 0.60215 0.17739 0.63703 0.0
C619 C 0.60792 0.15051 0.63431 0.0
C620 C 0.62579 0.14525 0.65701 0.0
C621 C 0.63722 0.16654 0.68221 0.0
C622 C 0.58328 0.18387 0.61319 0.0
C623 C 0.6326 0.117 0.65478 0.0
H624 H 0.5245 0.06272 0.57699 0.0
H625 H 0.6163 0.12575 0.53613 0.0
H626 H 0.55478 0.08963 0.6518 0.0
H627 H 0.53439 0.11013 0.63699 0.0
H628 H 0.51799 0.06692 0.62809 0.0
H629 H 0.66363 0.16662 0.56289 0.0
H630 H 0.64947 0.18887 0.58563 0.0
H631 H 0.66492 0.16493 0.60249 0.0
H632 H 0.60906 0.21861 0.66453 0.0
H633 H 0.65057 0.16214 0.69967 0.0
H634 H 0.55805 0.16209 0.60953 0.0
H635 H 0.59616 0.18791 0.59212 0.0
H636 H 0.58077 0.20573 0.61873 0.0
H637 H 0.60881 0.09326 0.65266 0.0
H638 H 0.64714 0.11646 0.67425 0.0
H639 H 0.64653 0.11884 0.63471 0.0
C640 C 0.44709 0.53412 0.70014 0.0
C641 C 0.47902 0.54075 0.693 0.0
C642 C 0.44175 0.54671 0.72638 0.0
C643 C 0.46874 0.56506 0.74677 0.0
C644 C 0.50015 0.56829 0.74139 0.0
C645 C 0.50512 0.5565 0.71423 0.0
C646 C 0.40789 0.54291 0.73088 0.0
C647 C 0.52901 0.58602 0.76338 0.0
C648 C 0.46155 0.63286 0.78675 0.0
C649 C 0.4437 0.61656 0.81114 0.0
C650 C 0.47155 0.61691 0.76632 0.0
C651 C 0.4647 0.58439 0.7712 0.0
C652 C 0.44931 0.56904 0.79732 0.0
C653 C 0.43814 0.585 0.81666 0.0
C654 C 0.48699 0.63388 0.73838 0.0
C655 C 0.4431 0.53516 0.80416 0.0
H656 H 0.42662 0.52102 0.6841 0.0
H657 H 0.52978 0.56137 0.70899 0.0
H658 H 0.39838 0.53201 0.75234 0.0
H659 H 0.40986 0.56751 0.73122 0.0
H660 H 0.38938 0.5271 0.71322 0.0
H661 H 0.54857 0.57948 0.75949 0.0
H662 H 0.54026 0.61301 0.76144 0.0
H663 H 0.52061 0.58013 0.78625 0.0
H664 H 0.4657 0.65728 0.78262 0.0
H665 H 0.42474 0.57268 0.83588 0.0
H666 H 0.47009 0.61998 0.71916 0.0
H667 H 0.51075 0.63427 0.73513 0.0
H668 H 0.49188 0.65962 0.73856 0.0
H669 H 0.42024 0.51622 0.79198 0.0
H670 H 0.43958 0.53071 0.82805 0.0
H671 H 0.46402 0.53181 0.79723 0.0
C672 C 0.92542 0.51352 0.89555 0.0
C673 C 0.95117 0.50659 0.89177 0.0
C674 C 0.90786 0.50591 0.92148 0.0
C675 C 0.91699 0.49191 0.94448 0.0
C676 C 0.94595 0.48929 0.94237 0.0
C677 C 0.96263 0.49635 0.91574 0.0
C678 C 0.87718 0.50919 0.92268 0.0
C679 C 0.95746 0.47613 0.96709 0.0
C680 C 0.86288 0.47585 0.01029 0.0
C681 C 0.83807 0.44306 0.00394 0.0
C682 C 0.89057 0.49151 0.99256 0.0
C683 C 0.89258 0.4743 0.96734 0.0
C684 C 0.86823 0.44072 0.96165 0.0
C685 C 0.84158 0.42539 0.98033 0.0
C686 C 0.91669 0.52683 0.00014 0.0
C687 C 0.86902 0.42154 0.93469 0.0
H688 H 0.91708 0.52215 0.87712 0.0
H689 H 0.98279 0.4913 0.91296 0.0
H690 H 0.8547 0.48428 0.92141 0.0
H691 H 0.87696 0.52148 0.94378 0.0
H692 H 0.87542 0.52342 0.90428 0.0
H693 H 0.98395 0.4831 0.96518 0.0
H694 H 0.95429 0.4854 0.98882 0.0
H695 H 0.94228 0.44884 0.96638 0.0
H696 H 0.86044 0.4894 0.02886 0.0
H697 H 0.82243 0.40002 0.97544 0.0
H698 H 0.91131 0.54347 0.98725 0.0
H699 H 0.94183 0.53159 -0.00538 0.0
H700 H 0.9169 0.53322 0.02389 0.0
H701 H 0.86649 0.43303 0.91449 0.0
H702 H 0.84876 0.39537 0.93402 0.0
H703 H 0.89315 0.42216 0.93408 0.0
C704 C 0.42518 0.92214 0.04708 0.0
C705 C 0.45737 0.94945 0.04772 0.0
C706 C 0.41173 0.90515 0.0726 0.0
C707 C 0.43098 0.91603 0.09934 0.0
C708 C 0.46153 0.94624 0.10084 0.0
C709 C 0.4746 0.96263 0.07479 0.0
C710 C 0.3789 0.87325 0.07 0.0
C711 C 0.48207 0.95929 0.12924 0.0
C712 C 0.38921 0.86132 0.16318 0.0
C713 C 0.40123 0.83928 0.1607 0.0
C714 C 0.40029 0.88806 0.14463 0.0
C715 C 0.42312 0.89207 0.12275 0.0
C716 C 0.43611 0.87048 0.12094 0.0
C717 C 0.42519 0.84456 0.14008 0.0
C718 C 0.38654 0.91104 0.14776 0.0
C719 C 0.46028 0.87358 0.09773 0.0
H720 H 0.41165 0.91245 0.0261 0.0
H721 H 0.49939 0.98401 0.07528 0.0
H722 H 0.38348 0.8522 0.07069 0.0
H723 H 0.36315 0.87135 0.08867 0.0
H724 H 0.36495 0.87087 0.04906 0.0
H725 H 0.50046 0.98601 0.12851 0.0
H726 H 0.46598 0.95521 0.14822 0.0
H727 H 0.49584 0.94597 0.13305 0.0
H728 H 0.3709 0.85749 0.17933 0.0
H729 H 0.4345 0.82756 0.13799 0.0
H730 H 0.36564 0.90338 0.13144 0.0
H731 H 0.40568 0.93678 0.14351 0.0
H732 H 0.37696 0.91043 0.17008 0.0
H733 H 0.44835 0.86982 0.07546 0.0
H734 H 0.46875 0.85538 0.1 0.0
H735 H 0.48244 0.89866 0.09913 0.0
C736 C 0.51878 0.46864 0.22988 0.0
C737 C 0.50995 0.45263 0.20197 0.0
C738 C 0.52424 0.45351 0.25388 0.0
C739 C 0.52104 0.42203 0.24944 0.0
C740 C 0.50726 0.40401 0.22241 0.0
C741 C 0.50171 0.41957 0.19894 0.0
C742 C 0.53766 0.47297 0.28276 0.0
C743 C 0.50302 0.37022 0.2168 0.0
C744 C 0.59092 0.41198 0.28153 0.0
C745 C 0.57525 0.38988 0.30374 0.0
C746 C 0.57351 0.42288 0.2641 0.0
C747 C 0.53965 0.41186 0.26938 0.0
C748 C 0.52388 0.39028 0.29238 0.0
C749 C 0.54181 0.37915 0.30909 0.0
C750 C 0.59125 0.44565 0.23954 0.0
C751 C 0.48806 0.37846 0.29899 0.0
H752 H 0.52493 0.49417 0.23225 0.0
H753 H 0.49443 0.40712 0.17732 0.0
H754 H 0.52782 0.45671 0.30165 0.0
H755 H 0.56515 0.48454 0.28389 0.0
H756 H 0.53134 0.49284 0.28499 0.0
H757 H 0.48643 0.35725 0.19716 0.0
H758 H 0.52768 0.37274 0.21292 0.0
H759 H 0.49274 0.35481 0.23612 0.0
H760 H 0.61672 0.4202 0.27726 0.0
H761 H 0.52969 0.36222 0.32645 0.0
H762 H 0.5907 0.46891 0.24266 0.0
H763 H 0.57842 0.43396 0.21802 0.0
H764 H 0.61761 0.45186 0.23845 0.0
H765 H 0.48257 0.39888 0.298 0.0
H766 H 0.48176 0.36774 0.32104 0.0
H767 H 0.47159 0.35918 0.28222 0.0
C768 C 0.49623 0.91271 0.41074 0.0
C769 C 0.48963 0.93866 0.41436 0.0
C770 C 0.48987 0.89531 0.38361 0.0
C771 C 0.47666 0.90416 0.3595 0.0
C772 C 0.47201 0.93173 0.3625 0.0
C773 C 0.47861 0.94875 0.38999 0.0
C774 C 0.49548 0.86628 0.38127 0.0
C775 C 0.45823 0.94205 0.3372 0.0
C776 C 0.47745 0.86882 0.28356 0.0
C777 C 0.44487 0.84193 0.28014 0.0
C778 C 0.48805 0.88949 0.30911 0.0
C779 C 0.46563 0.88312 0.33189 0.0
C780 C 0.43279 0.85599 0.32872 0.0
C781 C 0.42279 0.83574 0.30288 0.0
C782 C 0.52326 0.91815 0.31173 0.0
C783 C 0.40822 0.84833 0.35268 0.0
H784 H 0.50501 0.9051 0.42958 0.0
H785 H 0.47327 0.96864 0.39285 0.0
H786 H 0.47119 0.84315 0.37813 0.0
H787 H 0.51027 0.86813 0.36182 0.0
H788 H 0.50853 0.86443 0.40124 0.0
H789 H 0.45927 0.96588 0.34219 0.0
H790 H 0.47217 0.94432 0.31705 0.0
H791 H 0.43193 0.92288 0.33223 0.0
H792 H 0.49475 0.87397 0.26614 0.0
H793 H 0.3976 0.81512 0.30049 0.0
H794 H 0.53651 0.91552 0.33112 0.0
H795 H 0.52307 0.94154 0.31533 0.0
H796 H 0.53748 0.92004 0.29182 0.0
H797 H 0.41788 0.84348 0.37334 0.0
H798 H 0.38352 0.82658 0.34666 0.0
H799 H 0.40496 0.86986 0.35736 0.0
C800 C 0.55023 0.47695 0.52569 0.0
C801 C 0.57331 0.49063 0.54952 0.0
C802 C 0.55952 0.46994 0.49841 0.0
C803 C 0.59264 0.47695 0.49507 0.0
C804 C 0.61658 0.49318 0.51841 0.0
C805 C 0.60658 0.49979 0.5454 0.0
C806 C 0.53334 0.45283 0.47396 0.0
C807 C 0.65221 0.50143 0.51563 0.0
C808 C 0.60766 0.4215 0.44293 0.0
C809 C 0.62033 0.44119 0.41855 0.0
C810 C 0.59831 0.43281 0.46784 0.0
C811 C 0.60159 0.46452 0.46837 0.0
C812 C 0.61418 0.48447 0.44384 0.0
C813 C 0.62346 0.47261 0.41926 0.0
C814 C 0.58506 0.41084 0.4937 0.0
C815 C 0.61795 0.51837 0.44361 0.0
H816 H 0.52444 0.46961 0.52898 0.0
H817 H 0.62443 0.51051 0.56387 0.0
H818 H 0.54266 0.46475 0.45278 0.0
H819 H 0.52742 0.42686 0.47108 0.0
H820 H 0.51004 0.45294 0.47868 0.0
H821 H 0.66841 0.51724 0.53452 0.0
H822 H 0.65331 0.47832 0.51459 0.0
H823 H 0.66235 0.51423 0.49497 0.0
H824 H 0.60509 0.39722 0.44263 0.0
H825 H 0.63304 0.48802 0.4005 0.0
H826 H 0.55989 0.4064 0.49857 0.0
H827 H 0.60131 0.4232 0.51362 0.0
H828 H 0.58359 0.38667 0.48963 0.0
H829 H 0.59364 0.51671 0.44729 0.0
H830 H 0.62748 0.53053 0.42253 0.0
H831 H 0.63528 0.53423 0.46187 0.0
C832 C 0.0763 0.56099 0.72626 0.0
C833 C 0.08908 0.58027 0.75245 0.0
C834 C 0.09367 0.57132 0.70016 0.0
C835 C 0.12449 0.6012 0.70074 0.0
C836 C 0.13501 0.62257 0.72618 0.0
C837 C 0.11693 0.61189 0.75173 0.0
C838 C 0.08095 0.54856 0.67303 0.0
C839 C 0.16759 0.65475 0.72777 0.0
C840 C 0.19667 0.60271 0.66261 0.0
C841 C 0.20239 0.6249 0.64049 0.0
C842 C 0.17045 0.59381 0.68161 0.0
C843 C 0.14894 0.60682 0.67789 0.0
C844 C 0.1533 0.62757 0.65436 0.0
C845 C 0.18038 0.63682 0.63617 0.0
C846 C 0.16693 0.57184 0.70666 0.0
C847 C 0.13031 0.64108 0.64909 0.0
H848 H 0.05462 0.53657 0.72679 0.0
H849 H 0.12646 0.62691 0.77201 0.0
H850 H 0.08593 0.56274 0.65278 0.0
H851 H 0.09397 0.53421 0.67161 0.0
H852 H 0.05383 0.53091 0.67373 0.0
H853 H 0.16981 0.67042 0.74745 0.0
H854 H 0.18843 0.64959 0.72891 0.0
H855 H 0.17042 0.66882 0.70778 0.0
H856 H 0.21363 0.59345 0.66597 0.0
H857 H 0.18451 0.65368 0.61878 0.0
H858 H 0.14155 0.55001 0.70597 0.0
H859 H 0.17059 0.58546 0.72805 0.0
H860 H 0.18517 0.56313 0.70594 0.0
H861 H 0.10413 0.62224 0.65283 0.0
H862 H 0.13192 0.64976 0.62635 0.0
H863 H 0.13724 0.6623 0.66474 0.0
C864 C 0.51088 0.10899 0.90716 0.0
C865 C 0.51814 0.08352 0.90968 0.0
C866 C 0.51733 0.12637 0.88131 0.0
C867 C 0.53073 0.11751 0.85741 0.0
C868 C 0.53273 0.08838 0.85822 0.0
C869 C 0.52669 0.07177 0.88462 0.0
C870 C 0.51428 0.15694 0.88128 0.0
C871 C 0.54511 0.07713 0.83249 0.0
C872 C 0.55289 0.17386 0.79297 0.0
C873 C 0.58642 0.19652 0.80011 0.0
C874 C 0.53465 0.14656 0.81031 0.0
C875 C 0.55011 0.14273 0.83586 0.0
C876 C 0.58422 0.16519 0.84265 0.0
C877 C 0.60202 0.1915 0.82444 0.0
C878 C 0.49871 0.12267 0.80171 0.0
C879 C 0.6017 0.16239 0.86993 0.0
H880 H 0.50355 0.11755 0.92646 0.0
H881 H 0.53192 0.05178 0.88643 0.0
H882 H 0.53945 0.17907 0.88382 0.0
H883 H 0.5029 0.15837 0.86011 0.0
H884 H 0.49912 0.1577 0.89954 0.0
H885 H 0.53768 0.0507 0.83363 0.0
H886 H 0.53547 0.08094 0.81131 0.0
H887 H 0.57266 0.09182 0.83271 0.0
H888 H 0.54086 0.17751 0.77392 0.0
H889 H 0.62792 0.209 0.83002 0.0
H890 H 0.48268 0.1303 0.81323 0.0
H891 H 0.49127 0.09725 0.80792 0.0
H892 H 0.49389 0.12247 0.77763 0.0
H893 H 0.58925 0.16419 0.88991 0.0
H894 H 0.6283 0.18192 0.87192 0.0
H895 H 0.6003 0.13808 0.86959 0.0
C896 C 0.43647 0.55314 0.06517 0.0
C897 C 0.46874 0.55958 0.07224 0.0
C898 C 0.42833 0.56021 0.03755 0.0
C899 C 0.45305 0.57397 0.01636 0.0
C900 C 0.48543 0.57953 0.02297 0.0
C901 C 0.49291 0.57217 0.05092 0.0
C902 C 0.39341 0.55355 0.03129 0.0
C903 C 0.51233 0.59401 0.00082 0.0
C904 C 0.41941 0.56464 0.93797 0.0
C905 C 0.42121 0.59514 0.93428 0.0
C906 C 0.43095 0.55794 0.96412 0.0
C907 C 0.44457 0.58226 0.98731 0.0
C908 C 0.44742 0.61346 0.98352 0.0
C909 C 0.43576 0.61958 0.957 0.0
C910 C 0.42752 0.5244 0.96727 0.0
C911 C 0.46179 0.63998 0.00786 0.0
H912 H 0.41767 0.54304 0.08157 0.0
H913 H 0.51791 0.57738 0.05647 0.0
H914 H 0.39399 0.57688 0.02642 0.0
H915 H 0.38224 0.53668 0.01155 0.0
H916 H 0.37704 0.54238 0.05007 0.0
H917 H 0.5358 0.59556 0.00893 0.0
H918 H 0.50389 0.57891 0.97988 0.0
H919 H 0.51755 0.61913 -0.00424 0.0
H920 H 0.4086 0.54565 0.92047 0.0
H921 H 0.43742 0.64324 0.95434 0.0
H922 H 0.40949 0.51103 0.98443 0.0
H923 H 0.45167 0.52698 0.97453 0.0
H924 H 0.41881 0.50916 0.94637 0.0
H925 H 0.44537 0.63184 0.02691 0.0
H926 H 0.46453 0.66365 0.00071 0.0
H927 H 0.48648 0.64431 0.01565 0.0
C928 C 0.94279 0.48858 0.23349 0.0
C929 C 0.93454 0.46682 0.25646 0.0
C930 C 0.92508 0.47809 0.20618 0.0
C931 C 0.89862 0.44515 0.20193 0.0
C932 C 0.89147 0.42271 0.22458 0.0
C933 C 0.9096 0.43379 0.25149 0.0
C934 C 0.93367 0.5026 0.18239 0.0
C935 C 0.86366 0.38733 0.2209 0.0
C936 C 0.82814 0.42471 0.14604 0.0
C937 C 0.83603 0.41009 0.1226 0.0
C938 C 0.84856 0.43665 0.17187 0.0
C939 C 0.87767 0.43415 0.17419 0.0
C940 C 0.88593 0.41974 0.15053 0.0
C941 C 0.865 0.40779 0.12514 0.0
C942 C 0.83881 0.45164 0.19682 0.0
C943 C 0.91679 0.41672 0.1521 0.0
H944 H 0.96185 0.51418 0.2374 0.0
H945 H 0.90338 0.41689 0.26922 0.0
H946 H 0.93732 0.49248 0.16134 0.0
H947 H 0.91278 0.5073 0.17854 0.0
H948 H 0.95652 0.52646 0.18827 0.0
H949 H 0.86234 0.37269 0.24015 0.0
H950 H 0.83953 0.38659 0.21799 0.0
H951 H 0.86695 0.37539 0.20085 0.0
H952 H 0.80592 0.4267 0.14431 0.0
H953 H 0.87161 0.39683 0.10712 0.0
H954 H 0.85923 0.47708 0.20244 0.0
H955 H 0.83469 0.43715 0.21677 0.0
H956 H 0.81584 0.45244 0.19132 0.0
H957 H 0.93907 0.4413 0.15686 0.0
H958 H 0.92037 0.40602 0.13134 0.0
H959 H 0.91524 0.40088 0.17039 0.0
loop_
_geom_bond_atom_site_label_1
_geom_bond_atom_site_label_2
_geom_bond_distance
_geom_bond_site_symmetry_2
_ccdc_geom_bond_type
H0 C6 0.930 . S
H1 C9 0.931 . S
H2 C11 0.931 . S
H3 C13 0.930 . S
H4 C15 0.930 . S
H5 C17 0.931 . S
C6 H0 0.930 . S
C6 C7 1.380 . S
C6 C8 1.394 . S
C7 C6 1.380 . S
C7 C11 1.382 . S
C8 C6 1.394 . S
C8 C9 1.400 . S
C9 H1 0.931 . S
C9 C8 1.400 . S
C9 C10 1.375 . S
C10 C9 1.375 . S
C10 C11 1.415 . S
C10 C12 1.501 1_455 S
C11 H2 0.931 . S
C11 C7 1.382 . S
C11 C10 1.415 . S
C12 C10 1.501 1_655 S
C12 C13 1.384 . S
C12 C17 1.408 . S
C13 H3 0.930 . S
C13 C12 1.384 . S
C13 C14 1.389 . S
C14 C13 1.389 . S
C14 C15 1.405 . S
C15 H4 0.930 . S
C15 C14 1.405 . S
C15 C16 1.364 . S
C16 C15 1.364 . S
C16 C17 1.400 . S
C17 H5 0.931 . S
C17 C12 1.408 . S
C17 C16 1.400 . S
H18 C24 0.930 . S
H19 C27 0.931 . S
H20 C29 0.931 . S
H21 C31 0.930 . S
H22 C33 0.930 . S
H23 C35 0.939 . S
C24 H18 0.930 . S
C24 C25 1.380 . S
C24 C26 1.394 . S
C25 C24 1.380 . S
C25 C29 1.382 . S
C26 C24 1.394 . S
C26 C27 1.400 . S
C27 H19 0.931 . S
C27 C26 1.400 . S
C27 C28 1.375 . S
C28 C27 1.375 . S
C28 C29 1.415 . S
C28 C30 1.501 1_545 S
C29 H20 0.931 . S
C29 C25 1.382 . S
C29 C28 1.415 . S
C30 C28 1.501 1_565 S
C30 C31 1.384 . S
C30 C35 1.408 . S
C31 H21 0.930 . S
C31 C30 1.384 . S
C31 C32 1.389 . S
C32 C31 1.389 . S
C32 C33 1.405 . S
C33 H22 0.930 . S
C33 C32 1.405 . S
C33 C34 1.364 . S
C34 C33 1.364 . S
C34 C35 1.400 . S
C35 H23 0.939 . S
C35 C30 1.408 . S
C35 C34 1.400 . S
H36 C42 0.930 . S
H37 C45 0.931 . S
H38 C47 0.931 . S
H39 C49 0.930 . S
H40 C51 0.930 . S
H41 C53 0.931 . S
C42 H36 0.930 . S
C42 C43 1.380 . S
C42 C44 1.394 . S
C43 C42 1.380 . S
C43 C47 1.382 . S
C44 C42 1.394 . S
C44 C45 1.400 . S
C45 H37 0.931 . S
C45 C44 1.400 . S
C45 C46 1.375 . S
C46 C45 1.375 . S
C46 C47 1.415 . S
C46 C48 1.501 . S
C47 H38 0.931 . S
C47 C43 1.382 . S
C47 C46 1.415 . S
C48 C46 1.501 . S
C48 C49 1.384 . S
C48 C53 1.408 . S
C49 H39 0.930 . S
C49 C48 1.384 . S
C49 C50 1.389 . S
C50 C49 1.389 . S
C50 C51 1.405 . S
C51 H40 0.930 . S
C51 C50 1.405 . S
C51 C52 1.364 . S
C52 C51 1.364 . S
C52 C53 1.400 . S
C53 H41 0.931 . S
C53 C48 1.408 . S
C53 C52 1.400 . S
H54 C60 0.930 . S
H55 C63 0.931 . S
H56 C65 0.931 . S
H57 C67 0.930 . S
H58 C69 0.930 . S
H59 C71 0.932 . S
C60 H54 0.930 . S
C60 C61 1.380 . S
C60 C62 1.394 . S
C61 C60 1.380 . S
C61 C65 1.382 . S
C62 C60 1.394 . S
C62 C63 1.400 . S
C63 H55 0.931 . S
C63 C62 1.400 . S
C63 C64 1.375 . S
C64 C63 1.375 . S
C64 C65 1.415 . S
C64 C66 1.501 1_455 S
C65 H56 0.931 . S
C65 C61 1.382 . S
C65 C64 1.415 . S
C66 C64 1.501 1_655 S
C66 C67 1.384 . S
C66 C71 1.408 . S
C67 H57 0.930 . S
C67 C66 1.384 . S
C67 C68 1.389 . S
C68 C67 1.389 . S
C68 C69 1.405 . S
C69 H58 0.930 . S
C69 C68 1.405 . S
C69 C70 1.364 . S
C70 C69 1.364 . S
C70 C71 1.400 . S
C71 H59 0.932 . S
C71 C66 1.408 . S
C71 C70 1.400 . S
H72 C78 0.930 . S
H73 C81 0.931 . S
H74 C83 0.931 1_545 S
H75 C85 0.930 . S
H76 C87 0.930 . S
H77 C89 0.931 . S
C78 H72 0.930 . S
C78 C79 1.380 . S
C78 C80 1.394 1_554 S
C79 C78 1.380 . S
C79 C83 1.382 . S
C80 C78 1.394 1_556 S
C80 C81 1.400 . S
C81 H73 0.931 . S
C81 C80 1.400 . S
C81 C82 1.375 . S
C82 C81 1.375 . S
C82 C83 1.415 1_556 S
C82 C84 1.501 1_565 S
C83 H74 0.931 1_565 S
C83 C79 1.382 . S
C83 C82 1.415 1_554 S
C84 C82 1.501 1_545 S
C84 C85 1.384 1_556 S
C84 C89 1.408 . S
C85 H75 0.930 . S
C85 C84 1.384 1_554 S
C85 C86 1.389 1_554 S
C86 C85 1.389 1_556 S
C86 C87 1.405 . S
C87 H76 0.930 . S
C87 C86 1.405 . S
C87 C88 1.364 . S
C88 C87 1.364 . S
C88 C89 1.400 . S
C89 H77 0.931 . S
C89 C84 1.408 . S
C89 C88 1.400 . S
H90 C96 0.930 . S
H91 C99 0.931 . S
H92 C101 0.931 . S
H93 C103 0.930 . S
H94 C105 0.930 . S
H95 C107 0.931 . S
C96 H90 0.930 . S
C96 C97 1.380 . S
C96 C98 1.394 . S
C97 C96 1.380 . S
C97 C101 1.382 . S
C98 C96 1.394 . S
C98 C99 1.400 . S
C99 H91 0.931 . S
C99 C98 1.400 . S
C99 C100 1.375 . S
C100 C99 1.375 . S
C100 C101 1.415 . S
C100 C102 1.501 . S
C101 H92 0.931 . S
C101 C97 1.382 . S
C101 C100 1.415 . S
C102 C100 1.501 . S
C102 C103 1.384 . S
C102 C107 1.408 . S
C103 H93 0.930 . S
C103 C102 1.384 . S
C103 C104 1.389 . S
C104 C103 1.389 . S
C104 C105 1.405 . S
C105 H94 0.930 . S
C105 C104 1.405 . S
C105 C106 1.364 . S
C106 C105 1.364 . S
C106 C107 1.400 . S
C107 H95 0.931 . S
C107 C102 1.408 . S
C107 C106 1.400 . S
Mg108 O109 2.028 . S
Mg108 O115 1.986 . S
Mg108 O117 2.114 . S
Mg108 O118 2.251 . S
Mg108 O121 2.010 . S
O109 Mg108 2.028 . S
O109 C112 1.250 . S
O110 Mg111 2.028 . S
O110 C112 1.248 . S
Mg111 O110 2.028 . S
Mg111 O116 2.032 . S
Mg111 O118 2.079 . S
C112 O109 1.250 . S
C112 O110 1.248 . S
C113 O114 1.264 . S
C113 O121 1.249 . S
O114 C113 1.264 . S
O115 Mg108 1.986 . S
O115 C119 1.246 . S
O116 Mg111 2.032 . S
O116 C119 1.259 . S
O117 Mg108 2.114 . S
O117 C120 1.252 . S
O118 Mg108 2.251 . S
O118 Mg111 2.079 . S
O118 C120 1.273 . S
C119 O115 1.246 . S
C119 O116 1.259 . S
C120 O117 1.252 . S
C120 O118 1.273 . S
O121 Mg108 2.010 . S
O121 C113 1.249 . S
Mg122 O123 2.028 . S
Mg122 O129 1.986 . S
Mg122 O131 2.114 . S
Mg122 O132 2.251 . S
Mg122 O135 2.010 . S
O123 Mg122 2.028 . S
O123 C126 1.250 . S
O124 Mg125 2.028 . S
O124 C126 1.248 . S
Mg125 O124 2.028 . S
Mg125 O130 2.032 . S
Mg125 O132 2.079 . S
C126 O123 1.250 . S
C126 O124 1.248 . S
C127 O128 1.264 . S
C127 O135 1.249 . S
O128 C127 1.264 . S
O129 Mg122 1.986 . S
O129 C133 1.246 . S
O130 Mg125 2.032 . S
O130 C133 1.259 . S
O131 Mg122 2.114 . S
O131 C134 1.252 . S
O132 Mg122 2.251 . S
O132 Mg125 2.079 . S
O132 C134 1.273 . S
C133 O129 1.246 . S
C133 O130 1.259 . S
C134 O131 1.252 . S
C134 O132 1.273 . S
O135 Mg122 2.010 . S
O135 C127 1.249 . S
Mg136 O137 2.028 . S
Mg136 O143 1.986 . S
Mg136 O145 2.114 . S
Mg136 O146 2.251 . S
Mg136 O149 2.010 . S
O137 Mg136 2.028 . S
O137 C140 1.250 . S
O138 Mg139 2.028 . S
O138 C140 1.248 . S
Mg139 O138 2.028 . S
Mg139 O144 2.032 . S
Mg139 O146 2.079 . S
C140 O137 1.250 . S
C140 O138 1.248 . S
C141 O142 1.264 . S
C141 O149 1.249 . S
O142 C141 1.264 . S
O143 Mg136 1.986 . S
O143 C147 1.246 . S
O144 Mg139 2.032 . S
O144 C147 1.259 . S
O145 Mg136 2.114 . S
O145 C148 1.252 . S
O146 Mg136 2.251 . S
O146 Mg139 2.079 . S
O146 C148 1.273 . S
C147 O143 1.246 . S
C147 O144 1.259 . S
C148 O145 1.252 . S
C148 O146 1.273 . S
O149 Mg136 2.010 . S
O149 C141 1.249 . S
Mg150 O151 2.028 . S
Mg150 O157 1.986 . S
Mg150 O159 2.114 . S
Mg150 O160 2.251 . S
Mg150 O163 2.010 . S
O151 Mg150 2.028 . S
O151 C154 1.250 . S
O152 Mg153 2.028 . S
O152 C154 1.248 . S
Mg153 O152 2.028 . S
Mg153 O158 2.032 . S
Mg153 O160 2.079 . S
C154 O151 1.250 . S
C154 O152 1.248 . S
C155 O156 1.264 . S
C155 O163 1.249 . S
O156 C155 1.264 . S
O157 Mg150 1.986 . S
O157 C161 1.246 . S
O158 Mg153 2.032 . S
O158 C161 1.259 . S
O159 Mg150 2.114 . S
O159 C162 1.252 . S
O160 Mg150 2.251 . S
O160 Mg153 2.079 . S
O160 C162 1.273 . S
C161 O157 1.246 . S
C161 O158 1.259 . S
C162 O159 1.252 . S
C162 O160 1.273 . S
O163 Mg150 2.010 . S
O163 C155 1.249 . S
Mg164 O165 2.028 . S
Mg164 O171 1.986 . S
Mg164 O173 2.114 . S
Mg164 O174 2.251 . S
Mg164 O177 2.010 . S
O165 Mg164 2.028 . S
O165 C168 1.250 . S
O166 Mg167 2.028 . S
O166 C168 1.248 . S
Mg167 O166 2.028 . S
Mg167 O172 2.032 . S
Mg167 O174 2.079 . S
C168 O165 1.250 . S
C168 O166 1.248 . S
C169 O170 1.264 . S
C169 O177 1.249 . S
O170 C169 1.264 . S
O171 Mg164 1.986 . S
O171 C175 1.246 . S
O172 Mg167 2.032 . S
O172 C175 1.259 . S
O173 Mg164 2.114 . S
O173 C176 1.252 . S
O174 Mg164 2.251 . S
O174 Mg167 2.079 . S
O174 C176 1.273 . S
C175 O171 1.246 . S
C175 O172 1.259 . S
C176 O173 1.252 . S
C176 O174 1.273 . S
O177 Mg164 2.010 . S
O177 C169 1.249 . S
Mg178 O179 2.028 . S
Mg178 O185 1.986 . S
Mg178 O187 2.114 . S
Mg178 O188 2.251 . S
Mg178 O191 2.010 . S
O179 Mg178 2.028 . S
O179 C182 1.250 . S
O180 Mg181 2.028 . S
O180 C182 1.248 . S
Mg181 O180 2.028 . S
Mg181 O186 2.032 . S
Mg181 O188 2.079 . S
C182 O179 1.250 . S
C182 O180 1.248 . S
C183 O184 1.264 . S
C183 O191 1.249 . S
O184 C183 1.264 . S
O185 Mg178 1.986 . S
O185 C189 1.246 . S
O186 Mg181 2.032 . S
O186 C189 1.259 . S
O187 Mg178 2.114 . S
O187 C190 1.252 . S
O188 Mg178 2.251 . S
O188 Mg181 2.079 . S
O188 C190 1.273 . S
C189 O185 1.246 . S
C189 O186 1.259 . S
C190 O187 1.252 . S
C190 O188 1.273 . S
O191 Mg178 2.010 . S
O191 C183 1.249 . S
C192 C193 1.391 . S
C192 C194 1.394 . S
C192 H208 0.931 . S
C193 C192 1.391 . S
C193 C197 1.376 . S
C194 C192 1.394 . S
C194 C195 1.369 . S
C194 C198 1.531 . S
C195 C194 1.369 . S
C195 C196 1.410 . S
C195 C203 1.503 . S
C196 C195 1.410 . S
C196 C197 1.392 . S
C196 C199 1.511 . S
C197 C193 1.376 . S
C197 C196 1.392 . S
C197 H209 0.929 . S
C198 C194 1.531 . S
C198 H210 0.960 . S
C198 H211 0.962 . S
C198 H212 0.960 . S
C199 C196 1.511 . S
C199 H213 0.961 . S
C199 H214 0.961 . S
C199 H215 0.961 . S
C200 C201 1.370 . S
C200 C202 1.363 . S
C200 H216 0.931 . S
C201 C200 1.370 . S
C201 C205 1.408 . S
C202 C200 1.363 . S
C202 C203 1.370 . S
C202 C206 1.524 . S
C203 C195 1.503 . S
C203 C202 1.370 . S
C203 C204 1.403 . S
C204 C203 1.403 . S
C204 C205 1.404 . S
C204 C207 1.539 . S
C205 C201 1.408 . S
C205 C204 1.404 . S
C205 H217 0.930 . S
C206 C202 1.524 . S
C206 H218 0.956 . S
C206 H219 0.961 . S
C206 H220 0.961 . S
C207 C204 1.539 . S
C207 H221 0.958 . S
C207 H222 0.961 . S
C207 H223 0.960 . S
H208 C192 0.931 . S
H209 C197 0.929 . S
H210 C198 0.960 . S
H211 C198 0.962 . S
H212 C198 0.960 . S
H213 C199 0.961 . S
H214 C199 0.961 . S
H215 C199 0.961 . S
H216 C200 0.931 . S
H217 C205 0.930 . S
H218 C206 0.956 . S
H219 C206 0.961 . S
H220 C206 0.961 . S
H221 C207 0.958 . S
H222 C207 0.961 . S
H223 C207 0.960 . S
C224 C225 1.391 . S
C224 C226 1.394 . S
C224 H240 0.931 . S
C225 C224 1.391 . S
C225 C229 1.376 . S
C226 C224 1.394 . S
C226 C227 1.369 . S
C226 C230 1.531 . S
C227 C226 1.369 . S
C227 C228 1.410 . S
C227 C235 1.503 . S
C228 C227 1.410 . S
C228 C229 1.392 . S
C228 C231 1.511 . S
C229 C225 1.376 . S
C229 C228 1.392 . S
C229 H241 0.929 . S
C230 C226 1.531 . S
C230 H242 0.960 . S
C230 H243 0.962 . S
C230 H244 0.960 . S
C231 C228 1.511 . S
C231 H245 0.961 . S
C231 H246 0.961 . S
C231 H247 0.961 . S
C232 C233 1.370 . S
C232 C234 1.363 . S
C232 H248 0.931 . S
C233 C232 1.370 . S
C233 C237 1.408 . S
C234 C232 1.363 . S
C234 C235 1.370 . S
C234 C238 1.524 . S
C235 C227 1.503 . S
C235 C234 1.370 . S
C235 C236 1.403 . S
C236 C235 1.403 . S
C236 C237 1.404 . S
C236 C239 1.539 . S
C237 C233 1.408 . S
C237 C236 1.404 . S
C237 H249 0.930 . S
C238 C234 1.524 . S
C238 H250 0.956 . S
C238 H251 0.961 . S
C238 H252 0.961 . S
C239 C236 1.539 . S
C239 H253 0.958 . S
C239 H254 0.961 . S
C239 H255 0.960 . S
H240 C224 0.931 . S
H241 C229 0.929 . S
H242 C230 0.960 . S
H243 C230 0.962 . S
H244 C230 0.960 . S
H245 C231 0.961 . S
H246 C231 0.961 . S
H247 C231 0.961 . S
H248 C232 0.931 . S
H249 C237 0.930 . S
H250 C238 0.956 . S
H251 C238 0.961 . S
H252 C238 0.961 . S
H253 C239 0.958 . S
H254 C239 0.961 . S
H255 C239 0.960 . S
C256 C257 1.391 . S
C256 C258 1.394 . S
C256 H272 0.931 . S
C257 C256 1.391 . S
C257 C261 1.376 . S
C258 C256 1.394 . S
C258 C259 1.369 . S
C258 C262 1.531 . S
C259 C258 1.369 . S
C259 C260 1.410 . S
C259 C267 1.503 . S
C260 C259 1.410 . S
C260 C261 1.392 . S
C260 C263 1.511 . S
C261 C257 1.376 . S
C261 C260 1.392 . S
C261 H273 0.929 . S
C262 C258 1.531 . S
C262 H274 0.960 . S
C262 H275 0.962 . S
C262 H276 0.960 . S
C263 C260 1.511 . S
C263 H277 0.961 . S
C263 H278 0.961 . S
C263 H279 0.961 . S
C264 C265 1.370 . S
C264 C266 1.363 . S
C264 H280 0.931 . S
C265 C264 1.370 . S
C265 C269 1.408 . S
C266 C264 1.363 . S
C266 C267 1.370 . S
C266 C270 1.524 . S
C267 C259 1.503 . S
C267 C266 1.370 . S
C267 C268 1.403 . S
C268 C267 1.403 . S
C268 C269 1.404 . S
C268 C271 1.539 . S
C269 C265 1.408 . S
C269 C268 1.404 . S
C269 H281 0.930 . S
C270 C266 1.524 . S
C270 H282 0.956 . S
C270 H283 0.961 . S
C270 H284 0.961 . S
C271 C268 1.539 . S
C271 H285 0.958 . S
C271 H286 0.961 . S
C271 H287 0.960 . S
H272 C256 0.931 . S
H273 C261 0.929 . S
H274 C262 0.960 . S
H275 C262 0.962 . S
H276 C262 0.960 . S
H277 C263 0.961 . S
H278 C263 0.961 . S
H279 C263 0.961 . S
H280 C264 0.931 . S
H281 C269 0.930 . S
H282 C270 0.956 . S
H283 C270 0.961 . S
H284 C270 0.961 . S
H285 C271 0.958 . S
H286 C271 0.961 . S
H287 C271 0.960 . S
C288 C289 1.391 . S
C288 C290 1.394 . S
C288 H304 0.931 . S
C289 C288 1.391 . S
C289 C293 1.376 . S
C290 C288 1.394 . S
C290 C291 1.369 . S
C290 C294 1.531 . S
C291 C290 1.369 . S
C291 C292 1.410 . S
C291 C299 1.503 . S
C292 C291 1.410 . S
C292 C293 1.392 . S
C292 C295 1.511 . S
C293 C289 1.376 . S
C293 C292 1.392 . S
C293 H305 0.929 . S
C294 C290 1.531 . S
C294 H306 0.960 . S
C294 H307 0.962 . S
C294 H308 0.960 . S
C295 C292 1.511 . S
C295 H309 0.961 . S
C295 H310 0.961 . S
C295 H311 0.961 . S
C296 C297 1.370 . S
C296 C298 1.363 . S
C296 H312 0.931 . S
C297 C296 1.370 . S
C297 C301 1.408 . S
C298 C296 1.363 . S
C298 C299 1.370 . S
C298 C302 1.524 . S
C299 C291 1.503 . S
C299 C298 1.370 . S
C299 C300 1.403 . S
C300 C299 1.403 . S
C300 C301 1.404 . S
C300 C303 1.539 . S
C301 C297 1.408 . S
C301 C300 1.404 . S
C301 H313 0.930 . S
C302 C298 1.524 . S
C302 H314 0.956 . S
C302 H315 0.961 . S
C302 H316 0.961 . S
C303 C300 1.539 . S
C303 H317 0.958 . S
C303 H318 0.961 . S
C303 H319 0.960 . S
H304 C288 0.931 . S
H305 C293 0.929 . S
H306 C294 0.960 . S
H307 C294 0.962 . S
H308 C294 0.960 . S
H309 C295 0.961 . S
H310 C295 0.961 . S
H311 C295 0.961 . S
H312 C296 0.931 . S
H313 C301 0.930 . S
H314 C302 0.956 . S
H315 C302 0.961 . S
H316 C302 0.961 . S
H317 C303 0.958 . S
H318 C303 0.961 . S
H319 C303 0.960 . S
C320 C321 1.391 . S
C320 C322 1.394 . S
C320 H336 0.931 1_556 S
C321 C320 1.391 . S
C321 C325 1.376 . S
C322 C320 1.394 . S
C322 C323 1.369 . S
C322 C326 1.520 1_556 S
C323 C322 1.369 . S
C323 C324 1.410 . S
C323 C331 1.503 . S
C324 C323 1.410 . S
C324 C325 1.392 . S
C324 C327 1.511 . S
C325 C321 1.376 . S
C325 C324 1.392 . S
C325 H337 0.929 . S
C326 C322 1.520 1_554 S
C326 H338 0.958 1_554 S
C326 H339 0.960 1_554 S
C326 H340 0.975 . S
C327 C324 1.511 . S
C327 H341 0.961 . S
C327 H342 0.961 . S
C327 H343 0.961 . S
C328 C329 1.370 . S
C328 C330 1.363 . S
C328 H344 0.931 . S
C329 C328 1.370 . S
C329 C333 1.408 . S
C330 C328 1.363 . S
C330 C331 1.370 . S
C330 C334 1.524 . S
C331 C323 1.503 . S
C331 C330 1.370 . S
C331 C332 1.403 . S
C332 C331 1.403 . S
C332 C333 1.404 . S
C332 C335 1.539 . S
C333 C329 1.408 . S
C333 C332 1.404 . S
C333 H345 0.930 . S
C334 C330 1.524 . S
C334 H346 0.956 . S
C334 H347 0.961 . S
C334 H348 0.961 . S
C335 C332 1.539 . S
C335 H349 0.958 . S
C335 H350 0.961 . S
C335 H351 0.960 . S
H336 C320 0.931 1_554 S
H337 C325 0.929 . S
H338 C326 0.958 1_556 S
H339 C326 0.960 1_556 S
H340 C326 0.975 . S
H341 C327 0.961 . S
H342 C327 0.961 . S
H343 C327 0.961 . S
H344 C328 0.931 . S
H345 C333 0.930 . S
H346 C334 0.956 . S
H347 C334 0.961 . S
H348 C334 0.961 . S
H349 C335 0.958 . S
H350 C335 0.961 . S
H351 C335 0.960 . S
C352 C353 1.391 . S
C352 C354 1.394 . S
C352 H368 0.931 . S
C353 C352 1.391 . S
C353 C357 1.376 . S
C354 C352 1.394 . S
C354 C355 1.369 . S
C354 C358 1.531 . S
C355 C354 1.369 . S
C355 C356 1.410 . S
C355 C363 1.503 . S
C356 C355 1.410 . S
C356 C357 1.392 . S
C356 C359 1.511 . S
C357 C353 1.376 . S
C357 C356 1.392 . S
C357 H369 0.929 . S
C358 C354 1.531 . S
C358 H370 0.960 . S
C358 H371 0.962 . S
C358 H372 0.960 . S
C359 C356 1.511 . S
C359 H373 0.961 . S
C359 H374 0.961 . S
C359 H375 0.961 . S
C360 C361 1.370 . S
C360 C362 1.363 . S
C360 H376 0.931 . S
C361 C360 1.370 . S
C361 C365 1.408 . S
C362 C360 1.363 . S
C362 C363 1.370 . S
C362 C366 1.524 . S
C363 C355 1.503 . S
C363 C362 1.370 . S
C363 C364 1.403 . S
C364 C363 1.403 . S
C364 C365 1.404 . S
C364 C367 1.539 . S
C365 C361 1.408 . S
C365 C364 1.404 . S
C365 H377 0.930 . S
C366 C362 1.524 . S
C366 H378 0.956 . S
C366 H379 0.961 . S
C366 H380 0.961 . S
C367 C364 1.539 . S
C367 H381 0.958 . S
C367 H382 0.961 . S
C367 H383 0.960 . S
H368 C352 0.931 . S
H369 C357 0.929 . S
H370 C358 0.960 . S
H371 C358 0.962 . S
H372 C358 0.960 . S
H373 C359 0.961 . S
H374 C359 0.961 . S
H375 C359 0.961 . S
H376 C360 0.931 . S
H377 C365 0.930 . S
H378 C366 0.956 . S
H379 C366 0.961 . S
H380 C366 0.961 . S
H381 C367 0.958 . S
H382 C367 0.961 . S
H383 C367 0.960 . S
C384 C385 1.391 . S
C384 C386 1.394 . S
C384 H400 0.931 . S
C385 C384 1.391 . S
C385 C389 1.376 . S
C386 C384 1.394 . S
C386 C387 1.369 . S
C386 C390 1.531 . S
C387 C386 1.369 . S
C387 C388 1.410 . S
C387 C395 1.503 . S
C388 C387 1.410 . S
C388 C389 1.392 . S
C388 C391 1.511 . S
C389 C385 1.376 . S
C389 C388 1.392 . S
C389 H401 0.929 . S
C390 C386 1.531 . S
C390 H402 0.960 . S
C390 H403 0.962 . S
C390 H404 0.960 . S
C391 C388 1.511 . S
C391 H405 0.961 . S
C391 H406 0.961 . S
C391 H407 0.961 . S
C392 C393 1.370 . S
C392 C394 1.363 . S
C392 H408 0.931 . S
C393 C392 1.370 . S
C393 C397 1.408 . S
C394 C392 1.363 . S
C394 C395 1.370 . S
C394 C398 1.524 . S
C395 C387 1.503 . S
C395 C394 1.370 . S
C395 C396 1.403 . S
C396 C395 1.403 . S
C396 C397 1.404 . S
C396 C399 1.539 . S
C397 C393 1.408 . S
C397 C396 1.404 . S
C397 H409 0.930 . S
C398 C394 1.524 . S
C398 H410 0.956 . S
C398 H411 0.961 . S
C398 H412 0.961 . S
C399 C396 1.539 . S
C399 H413 0.958 . S
C399 H414 0.961 . S
C399 H415 0.960 . S
H400 C384 0.931 . S
H401 C389 0.929 . S
H402 C390 0.960 . S
H403 C390 0.962 . S
H404 C390 0.960 . S
H405 C391 0.961 . S
H406 C391 0.961 . S
H407 C391 0.961 . S
H408 C392 0.931 . S
H409 C397 0.930 . S
H410 C398 0.956 . S
H411 C398 0.961 . S
H412 C398 0.961 . S
H413 C399 0.958 . S
H414 C399 0.961 . S
H415 C399 0.960 . S
C416 C417 1.391 . S
C416 C418 1.394 . S
C416 H432 0.931 . S
C417 C416 1.391 . S
C417 C421 1.376 . S
C418 C416 1.394 . S
C418 C419 1.369 . S
C418 C422 1.531 . S
C419 C418 1.369 . S
C419 C420 1.410 . S
C419 C427 1.503 . S
C420 C419 1.410 . S
C420 C421 1.392 . S
C420 C423 1.511 . S
C421 C417 1.376 . S
C421 C420 1.392 . S
C421 H433 0.929 . S
C422 C418 1.531 . S
C422 H434 0.960 . S
C422 H435 0.962 . S
C422 H436 0.960 . S
C423 C420 1.511 . S
C423 H437 0.961 . S
C423 H438 0.961 . S
C423 H439 0.961 . S
C424 C425 1.370 . S
C424 C426 1.363 . S
C424 H440 0.931 . S
C425 C424 1.370 . S
C425 C429 1.408 . S
C426 C424 1.363 . S
C426 C427 1.370 . S
C426 C430 1.524 . S
C427 C419 1.503 . S
C427 C426 1.370 . S
C427 C428 1.403 . S
C428 C427 1.403 . S
C428 C429 1.404 . S
C428 C431 1.539 . S
C429 C425 1.408 . S
C429 C428 1.404 . S
C429 H441 0.930 . S
C430 C426 1.524 . S
C430 H442 0.956 . S
C430 H443 0.961 . S
C430 H444 0.961 . S
C431 C428 1.539 . S
C431 H445 0.958 . S
C431 H446 0.961 . S
C431 H447 0.960 . S
H432 C416 0.931 . S
H433 C421 0.929 . S
H434 C422 0.960 . S
H435 C422 0.962 . S
H436 C422 0.960 . S
H437 C423 0.961 . S
H438 C423 0.961 . S
H439 C423 0.961 . S
H440 C424 0.931 . S
H441 C429 0.930 . S
H442 C430 0.956 . S
H443 C430 0.961 . S
H444 C430 0.961 . S
H445 C431 0.958 . S
H446 C431 0.961 . S
H447 C431 0.960 . S
C448 C449 1.391 . S
C448 C450 1.394 . S
C448 H464 0.931 . S
C449 C448 1.391 . S
C449 C453 1.376 . S
C450 C448 1.394 . S
C450 C451 1.369 . S
C450 C454 1.531 . S
C451 C450 1.369 . S
C451 C452 1.410 . S
C451 C459 1.503 . S
C452 C451 1.410 . S
C452 C453 1.392 . S
C452 C455 1.511 . S
C453 C449 1.376 . S
C453 C452 1.392 . S
C453 H465 0.929 . S
C454 C450 1.531 . S
C454 H466 0.960 . S
C454 H467 0.962 . S
C454 H468 0.960 . S
C455 C452 1.511 . S
C455 H469 0.961 . S
C455 H470 0.961 . S
C455 H471 0.961 . S
C456 C457 1.370 . S
C456 C458 1.363 . S
C456 H472 0.931 . S
C457 C456 1.370 . S
C457 C461 1.408 . S
C458 C456 1.363 . S
C458 C459 1.370 . S
C458 C462 1.524 . S
C459 C451 1.503 . S
C459 C458 1.370 . S
C459 C460 1.403 . S
C460 C459 1.403 . S
C460 C461 1.404 . S
C460 C463 1.539 . S
C461 C457 1.408 . S
C461 C460 1.404 . S
C461 H473 0.930 . S
C462 C458 1.524 . S
C462 H474 0.956 . S
C462 H475 0.961 . S
C462 H476 0.961 . S
C463 C460 1.539 . S
C463 H477 0.958 . S
C463 H478 0.961 . S
C463 H479 0.960 . S
H464 C448 0.931 . S
H465 C453 0.929 . S
H466 C454 0.960 . S
H467 C454 0.962 . S
H468 C454 0.960 . S
H469 C455 0.961 . S
H470 C455 0.961 . S
H471 C455 0.961 . S
H472 C456 0.931 . S
H473 C461 0.930 . S
H474 C462 0.956 . S
H475 C462 0.961 . S
H476 C462 0.961 . S
H477 C463 0.958 . S
H478 C463 0.961 . S
H479 C463 0.960 . S
C480 C481 1.391 1_556 S
C480 C482 1.396 . S
C480 H496 0.931 . S
C481 C480 1.391 1_554 S
C481 C485 1.376 . S
C482 C480 1.396 . S
C482 C483 1.361 1_556 S
C482 C486 1.536 . S
C483 C482 1.361 1_554 S
C483 C484 1.410 . S
C483 C491 1.503 . S
C484 C483 1.410 . S
C484 C485 1.392 . S
C484 C487 1.511 . S
C485 C481 1.376 . S
C485 C484 1.392 . S
C485 H497 0.929 . S
C486 C482 1.536 . S
C486 H498 0.960 . S
C486 H499 0.962 . S
C486 H500 0.960 . S
C487 C484 1.511 . S
C487 H501 0.961 . S
C487 H502 0.961 . S
C487 H503 0.961 . S
C488 C489 1.370 . S
C488 C490 1.363 . S
C488 H504 0.931 . S
C489 C488 1.370 . S
C489 C493 1.408 . S
C490 C488 1.363 . S
C490 C491 1.370 . S
C490 C494 1.524 . S
C491 C483 1.503 . S
C491 C490 1.370 . S
C491 C492 1.403 . S
C492 C491 1.403 . S
C492 C493 1.404 . S
C492 C495 1.539 . S
C493 C489 1.408 . S
C493 C492 1.404 . S
C493 H505 0.930 . S
C494 C490 1.524 . S
C494 H506 0.956 . S
C494 H507 0.961 . S
C494 H508 0.961 . S
C495 C492 1.539 . S
C495 H509 0.958 . S
C495 H510 0.961 . S
C495 H511 0.960 . S
H496 C480 0.931 . S
H497 C485 0.929 . S
H498 C486 0.960 . S
H499 C486 0.962 . S
H500 C486 0.960 . S
H501 C487 0.961 . S
H502 C487 0.961 . S
H503 C487 0.961 . S
H504 C488 0.931 . S
H505 C493 0.930 . S
H506 C494 0.956 . S
H507 C494 0.961 . S
H508 C494 0.961 . S
H509 C495 0.958 . S
H510 C495 0.961 . S
H511 C495 0.960 . S
C512 C513 1.391 . S
C512 C514 1.394 . S
C512 H528 0.931 . S
C513 C512 1.391 . S
C513 C517 1.376 . S
C514 C512 1.394 . S
C514 C515 1.369 . S
C514 C518 1.531 . S
C515 C514 1.369 . S
C515 C516 1.410 . S
C515 C523 1.503 . S
C516 C515 1.410 . S
C516 C517 1.392 . S
C516 C519 1.511 . S
C517 C513 1.376 . S
C517 C516 1.392 . S
C517 H529 0.929 . S
C518 C514 1.531 . S
C518 H530 0.960 . S
C518 H531 0.962 . S
C518 H532 0.960 . S
C519 C516 1.511 . S
C519 H533 0.961 . S
C519 H534 0.961 . S
C519 H535 0.961 . S
C520 C521 1.370 . S
C520 C522 1.363 . S
C520 H536 0.931 . S
C521 C520 1.370 . S
C521 C525 1.408 . S
C522 C520 1.363 . S
C522 C523 1.370 . S
C522 C526 1.524 . S
C523 C515 1.503 . S
C523 C522 1.370 . S
C523 C524 1.403 . S
C524 C523 1.403 . S
C524 C525 1.404 . S
C524 C527 1.539 . S
C525 C521 1.408 . S
C525 C524 1.404 . S
C525 H537 0.930 . S
C526 C522 1.524 . S
C526 H538 0.956 . S
C526 H539 0.961 . S
C526 H540 0.961 . S
C527 C524 1.539 . S
C527 H541 0.958 . S
C527 H542 0.961 . S
C527 H543 0.960 . S
H528 C512 0.931 . S
H529 C517 0.929 . S
H530 C518 0.960 . S
H531 C518 0.962 . S
H532 C518 0.960 . S
H533 C519 0.961 . S
H534 C519 0.961 . S
H535 C519 0.961 . S
H536 C520 0.931 . S
H537 C525 0.930 . S
H538 C526 0.956 . S
H539 C526 0.961 . S
H540 C526 0.961 . S
H541 C527 0.958 . S
H542 C527 0.961 . S
H543 C527 0.960 . S
C544 C545 1.391 . S
C544 C546 1.394 . S
C544 H560 0.931 . S
C545 C544 1.391 . S
C545 C549 1.376 . S
C546 C544 1.394 . S
C546 C547 1.369 . S
C546 C550 1.531 . S
C547 C546 1.369 . S
C547 C548 1.410 . S
C547 C555 1.503 . S
C548 C547 1.410 . S
C548 C549 1.392 . S
C548 C551 1.511 . S
C549 C545 1.376 . S
C549 C548 1.392 . S
C549 H561 0.929 . S
C550 C546 1.531 . S
C550 H562 0.960 . S
C550 H563 0.962 . S
C550 H564 0.960 . S
C551 C548 1.511 . S
C551 H565 0.961 . S
C551 H566 0.961 . S
C551 H567 0.961 . S
C552 C553 1.370 . S
C552 C554 1.363 . S
C552 H568 0.931 . S
C553 C552 1.370 . S
C553 C557 1.408 . S
C554 C552 1.363 . S
C554 C555 1.370 . S
C554 C558 1.524 . S
C555 C547 1.503 . S
C555 C554 1.370 . S
C555 C556 1.403 . S
C556 C555 1.403 . S
C556 C557 1.404 . S
C556 C559 1.539 . S
C557 C553 1.408 . S
C557 C556 1.404 . S
C557 H569 0.930 . S
C558 C554 1.524 . S
C558 H570 0.956 . S
C558 H571 0.961 . S
C558 H572 0.961 . S
C559 C556 1.539 . S
C559 H573 0.958 . S
C559 H574 0.961 . S
C559 H575 0.960 . S
H560 C544 0.931 . S
H561 C549 0.929 . S
H562 C550 0.960 . S
H563 C550 0.962 . S
H564 C550 0.960 . S
H565 C551 0.961 . S
H566 C551 0.961 . S
H567 C551 0.961 . S
H568 C552 0.931 . S
H569 C557 0.930 . S
H570 C558 0.956 . S
H571 C558 0.961 . S
H572 C558 0.961 . S
H573 C559 0.958 . S
H574 C559 0.961 . S
H575 C559 0.960 . S
C576 C577 1.391 . S
C576 C578 1.394 . S
C576 H592 0.931 . S
C577 C576 1.391 . S
C577 C581 1.376 . S
C578 C576 1.394 . S
C578 C579 1.369 . S
C578 C582 1.531 . S
C579 C578 1.369 . S
C579 C580 1.410 . S
C579 C587 1.503 . S
C580 C579 1.410 . S
C580 C581 1.392 . S
C580 C583 1.511 . S
C581 C577 1.376 . S
C581 C580 1.392 . S
C581 H593 0.929 . S
C582 C578 1.531 . S
C582 H594 0.960 . S
C582 H595 0.962 . S
C582 H596 0.960 . S
C583 C580 1.511 . S
C583 H597 0.961 . S
C583 H598 0.961 . S
C583 H599 0.961 . S
C584 C585 1.370 . S
C584 C586 1.363 . S
C584 H600 0.931 . S
C585 C584 1.370 . S
C585 C589 1.408 . S
C586 C584 1.363 . S
C586 C587 1.370 . S
C586 C590 1.524 . S
C587 C579 1.503 . S
C587 C586 1.370 . S
C587 C588 1.403 . S
C588 C587 1.403 . S
C588 C589 1.404 . S
C588 C591 1.539 . S
C589 C585 1.408 . S
C589 C588 1.404 . S
C589 H601 0.930 . S
C590 C586 1.524 . S
C590 H602 0.956 . S
C590 H603 0.961 . S
C590 H604 0.961 . S
C591 C588 1.539 . S
C591 H605 0.958 . S
C591 H606 0.961 . S
C591 H607 0.960 . S
H592 C576 0.931 . S
H593 C581 0.929 . S
H594 C582 0.960 . S
H595 C582 0.962 . S
H596 C582 0.960 . S
H597 C583 0.961 . S
H598 C583 0.961 . S
H599 C583 0.961 . S
H600 C584 0.931 . S
H601 C589 0.930 . S
H602 C590 0.956 . S
H603 C590 0.961 . S
H604 C590 0.961 . S
H605 C591 0.958 . S
H606 C591 0.961 . S
H607 C591 0.960 . S
C608 C609 1.391 . S
C608 C610 1.394 . S
C608 H624 0.931 . S
C609 C608 1.391 . S
C609 C613 1.376 . S
C610 C608 1.394 . S
C610 C611 1.369 . S
C610 C614 1.531 . S
C611 C610 1.369 . S
C611 C612 1.410 . S
C611 C619 1.503 . S
C612 C611 1.410 . S
C612 C613 1.392 . S
C612 C615 1.511 . S
C613 C609 1.376 . S
C613 C612 1.392 . S
C613 H625 0.929 . S
C614 C610 1.531 . S
C614 H626 0.960 . S
C614 H627 0.962 . S
C614 H628 0.960 . S
C615 C612 1.511 . S
C615 H629 0.961 . S
C615 H630 0.961 . S
C615 H631 0.961 . S
C616 C617 1.370 . S
C616 C618 1.363 . S
C616 H632 0.931 . S
C617 C616 1.370 . S
C617 C621 1.408 . S
C618 C616 1.363 . S
C618 C619 1.370 . S
C618 C622 1.524 . S
C619 C611 1.503 . S
C619 C618 1.370 . S
C619 C620 1.403 . S
C620 C619 1.403 . S
C620 C621 1.404 . S
C620 C623 1.539 . S
C621 C617 1.408 . S
C621 C620 1.404 . S
C621 H633 0.930 . S
C622 C618 1.524 . S
C622 H634 0.956 . S
C622 H635 0.961 . S
C622 H636 0.961 . S
C623 C620 1.539 . S
C623 H637 0.958 . S
C623 H638 0.961 . S
C623 H639 0.960 . S
H624 C608 0.931 . S
H625 C613 0.929 . S
H626 C614 0.960 . S
H627 C614 0.962 . S
H628 C614 0.960 . S
H629 C615 0.961 . S
H630 C615 0.961 . S
H631 C615 0.961 . S
H632 C616 0.931 . S
H633 C621 0.930 . S
H634 C622 0.956 . S
H635 C622 0.961 . S
H636 C622 0.961 . S
H637 C623 0.958 . S
H638 C623 0.961 . S
H639 C623 0.960 . S
C640 C641 1.391 . S
C640 C642 1.394 . S
C640 H656 0.931 . S
C641 C640 1.391 . S
C641 C645 1.376 . S
C642 C640 1.394 . S
C642 C643 1.369 . S
C642 C646 1.531 . S
C643 C642 1.369 . S
C643 C644 1.410 . S
C643 C651 1.503 . S
C644 C643 1.410 . S
C644 C645 1.392 . S
C644 C647 1.511 . S
C645 C641 1.376 . S
C645 C644 1.392 . S
C645 H657 0.929 . S
C646 C642 1.531 . S
C646 H658 0.960 . S
C646 H659 0.962 . S
C646 H660 0.960 . S
C647 C644 1.511 . S
C647 H661 0.961 . S
C647 H662 0.961 . S
C647 H663 0.961 . S
C648 C649 1.370 . S
C648 C650 1.363 . S
C648 H664 0.931 . S
C649 C648 1.370 . S
C649 C653 1.408 . S
C650 C648 1.363 . S
C650 C651 1.370 . S
C650 C654 1.524 . S
C651 C643 1.503 . S
C651 C650 1.370 . S
C651 C652 1.403 . S
C652 C651 1.403 . S
C652 C653 1.404 . S
C652 C655 1.539 . S
C653 C649 1.408 . S
C653 C652 1.404 . S
C653 H665 0.930 . S
C654 C650 1.524 . S
C654 H666 0.956 . S
C654 H667 0.961 . S
C654 H668 0.961 . S
C655 C652 1.539 . S
C655 H669 0.958 . S
C655 H670 0.961 . S
C655 H671 0.960 . S
H656 C640 0.931 . S
H657 C645 0.929 . S
H658 C646 0.960 . S
H659 C646 0.962 . S
H660 C646 0.960 . S
H661 C647 0.961 . S
H662 C647 0.961 . S
H663 C647 0.961 . S
H664 C648 0.931 . S
H665 C653 0.930 . S
H666 C654 0.956 . S
H667 C654 0.961 . S
H668 C654 0.961 . S
H669 C655 0.958 . S
H670 C655 0.961 . S
H671 C655 0.960 . S
C672 C673 1.391 . S
C672 C674 1.394 . S
C672 H688 0.931 . S
C673 C672 1.391 . S
C673 C677 1.376 . S
C674 C672 1.394 . S
C674 C675 1.369 . S
C674 C678 1.531 . S
C675 C674 1.369 . S
C675 C676 1.410 . S
C675 C683 1.503 . S
C676 C675 1.410 . S
C676 C677 1.392 . S
C676 C679 1.511 . S
C677 C673 1.376 . S
C677 C676 1.392 . S
C677 H689 0.929 . S
C678 C674 1.531 . S
C678 H690 0.960 . S
C678 H691 0.962 . S
C678 H692 0.960 . S
C679 C676 1.511 . S
C679 H693 0.961 . S
C679 H694 0.961 . S
C679 H695 0.961 . S
C680 C681 1.370 . S
C680 C682 1.363 . S
C680 H696 0.931 . S
C681 C680 1.370 . S
C681 C685 1.408 . S
C682 C680 1.363 . S
C682 C683 1.370 . S
C682 C686 1.524 . S
C683 C675 1.503 . S
C683 C682 1.370 . S
C683 C684 1.403 . S
C684 C683 1.403 . S
C684 C685 1.404 . S
C684 C687 1.539 . S
C685 C681 1.408 . S
C685 C684 1.404 . S
C685 H697 0.930 . S
C686 C682 1.524 . S
C686 H698 0.956 . S
C686 H699 0.961 . S
C686 H700 0.961 . S
C687 C684 1.539 . S
C687 H701 0.958 . S
C687 H702 0.961 . S
C687 H703 0.960 . S
H688 C672 0.931 . S
H689 C677 0.929 . S
H690 C678 0.960 . S
H691 C678 0.962 . S
H692 C678 0.960 . S
H693 C679 0.961 . S
H694 C679 0.961 . S
H695 C679 0.961 . S
H696 C680 0.931 . S
H697 C685 0.930 . S
H698 C686 0.956 . S
H699 C686 0.961 . S
H700 C686 0.961 . S
H701 C687 0.958 . S
H702 C687 0.961 . S
H703 C687 0.960 . S
C704 C705 1.391 . S
C704 C706 1.394 . S
C704 H720 0.931 . S
C705 C704 1.391 . S
C705 C709 1.376 . S
C706 C704 1.394 . S
C706 C707 1.369 . S
C706 C710 1.531 . S
C707 C706 1.369 . S
C707 C708 1.410 . S
C707 C715 1.503 . S
C708 C707 1.410 . S
C708 C709 1.392 . S
C708 C711 1.511 . S
C709 C705 1.376 . S
C709 C708 1.392 . S
C709 H721 0.929 . S
C710 C706 1.531 . S
C710 H722 0.960 . S
C710 H723 0.962 . S
C710 H724 0.960 . S
C711 C708 1.511 . S
C711 H725 0.961 . S
C711 H726 0.961 . S
C711 H727 0.961 . S
C712 C713 1.370 . S
C712 C714 1.363 . S
C712 H728 0.931 . S
C713 C712 1.370 . S
C713 C717 1.408 . S
C714 C712 1.363 . S
C714 C715 1.370 . S
C714 C718 1.524 . S
C715 C707 1.503 . S
C715 C714 1.370 . S
C715 C716 1.403 . S
C716 C715 1.403 . S
C716 C717 1.404 . S
C716 C719 1.539 . S
C717 C713 1.408 . S
C717 C716 1.404 . S
C717 H729 0.930 . S
C718 C714 1.524 . S
C718 H730 0.956 . S
C718 H731 0.961 . S
C718 H732 0.961 . S
C719 C716 1.539 . S
C719 H733 0.958 . S
C719 H734 0.961 . S
C719 H735 0.960 . S
H720 C704 0.931 . S
H721 C709 0.929 . S
H722 C710 0.960 . S
H723 C710 0.962 . S
H724 C710 0.960 . S
H725 C711 0.961 . S
H726 C711 0.961 . S
H727 C711 0.961 . S
H728 C712 0.931 . S
H729 C717 0.930 . S
H730 C718 0.956 . S
H731 C718 0.961 . S
H732 C718 0.961 . S
H733 C719 0.958 . S
H734 C719 0.961 . S
H735 C719 0.960 . S
C736 C737 1.391 . S
C736 C738 1.394 . S
C736 H752 0.931 . S
C737 C736 1.391 . S
C737 C741 1.376 . S
C738 C736 1.394 . S
C738 C739 1.369 . S
C738 C742 1.531 . S
C739 C738 1.369 . S
C739 C740 1.410 . S
C739 C747 1.503 . S
C740 C739 1.410 . S
C740 C741 1.392 . S
C740 C743 1.511 . S
C741 C737 1.376 . S
C741 C740 1.392 . S
C741 H753 0.929 . S
C742 C738 1.531 . S
C742 H754 0.960 . S
C742 H755 0.962 . S
C742 H756 0.960 . S
C743 C740 1.511 . S
C743 H757 0.961 . S
C743 H758 0.961 . S
C743 H759 0.961 . S
C744 C745 1.370 . S
C744 C746 1.363 . S
C744 H760 0.931 . S
C745 C744 1.370 . S
C745 C749 1.408 . S
C746 C744 1.363 . S
C746 C747 1.370 . S
C746 C750 1.524 . S
C747 C739 1.503 . S
C747 C746 1.370 . S
C747 C748 1.403 . S
C748 C747 1.403 . S
C748 C749 1.404 . S
C748 C751 1.539 . S
C749 C745 1.408 . S
C749 C748 1.404 . S
C749 H761 0.930 . S
C750 C746 1.524 . S
C750 H762 0.956 . S
C750 H763 0.961 . S
C750 H764 0.961 . S
C751 C748 1.539 . S
C751 H765 0.958 . S
C751 H766 0.961 . S
C751 H767 0.960 . S
H752 C736 0.931 . S
H753 C741 0.929 . S
H754 C742 0.960 . S
H755 C742 0.962 . S
H756 C742 0.960 . S
H757 C743 0.961 . S
H758 C743 0.961 . S
H759 C743 0.961 . S
H760 C744 0.931 . S
H761 C749 0.930 . S
H762 C750 0.956 . S
H763 C750 0.961 . S
H764 C750 0.961 . S
H765 C751 0.958 . S
H766 C751 0.961 . S
H767 C751 0.960 . S
C768 C769 1.391 . S
C768 C770 1.394 . S
C768 H784 0.931 . S
C769 C768 1.391 . S
C769 C773 1.376 . S
C770 C768 1.394 . S
C770 C771 1.369 . S
C770 C774 1.531 . S
C771 C770 1.369 . S
C771 C772 1.410 . S
C771 C779 1.503 . S
C772 C771 1.410 . S
C772 C773 1.392 . S
C772 C775 1.511 . S
C773 C769 1.376 . S
C773 C772 1.392 . S
C773 H785 0.929 . S
C774 C770 1.531 . S
C774 H786 0.960 . S
C774 H787 0.962 . S
C774 H788 0.960 . S
C775 C772 1.511 . S
C775 H789 0.961 . S
C775 H790 0.961 . S
C775 H791 0.961 . S
C776 C777 1.370 . S
C776 C778 1.363 . S
C776 H792 0.931 . S
C777 C776 1.370 . S
C777 C781 1.408 . S
C778 C776 1.363 . S
C778 C779 1.370 . S
C778 C782 1.524 . S
C779 C771 1.503 . S
C779 C778 1.370 . S
C779 C780 1.403 . S
C780 C779 1.403 . S
C780 C781 1.404 . S
C780 C783 1.539 . S
C781 C777 1.408 . S
C781 C780 1.404 . S
C781 H793 0.930 . S
C782 C778 1.524 . S
C782 H794 0.956 . S
C782 H795 0.961 . S
C782 H796 0.961 . S
C783 C780 1.539 . S
C783 H797 0.958 . S
C783 H798 0.961 . S
C783 H799 0.960 . S
H784 C768 0.931 . S
H785 C773 0.929 . S
H786 C774 0.960 . S
H787 C774 0.962 . S
H788 C774 0.960 . S
H789 C775 0.961 . S
H790 C775 0.961 . S
H791 C775 0.961 . S
H792 C776 0.931 . S
H793 C781 0.930 . S
H794 C782 0.956 . S
H795 C782 0.961 . S
H796 C782 0.961 . S
H797 C783 0.958 . S
H798 C783 0.961 . S
H799 C783 0.960 . S
C800 C801 1.391 . S
C800 C802 1.394 . S
C800 H816 0.931 . S
C801 C800 1.391 . S
C801 C805 1.376 . S
C802 C800 1.394 . S
C802 C803 1.369 . S
C802 C806 1.531 . S
C803 C802 1.369 . S
C803 C804 1.410 . S
C803 C811 1.503 . S
C804 C803 1.410 . S
C804 C805 1.392 . S
C804 C807 1.511 . S
C805 C801 1.376 . S
C805 C804 1.392 . S
C805 H817 0.929 . S
C806 C802 1.531 . S
C806 H818 0.960 . S
C806 H819 0.962 . S
C806 H820 0.960 . S
C807 C804 1.511 . S
C807 H821 0.961 . S
C807 H822 0.961 . S
C807 H823 0.961 . S
C808 C809 1.370 . S
C808 C810 1.363 . S
C808 H824 0.931 . S
C809 C808 1.370 . S
C809 C813 1.408 . S
C810 C808 1.363 . S
C810 C811 1.370 . S
C810 C814 1.524 . S
C811 C803 1.503 . S
C811 C810 1.370 . S
C811 C812 1.403 . S
C812 C811 1.403 . S
C812 C813 1.404 . S
C812 C815 1.539 . S
C813 C809 1.408 . S
C813 C812 1.404 . S
C813 H825 0.930 . S
C814 C810 1.524 . S
C814 H826 0.956 . S
C814 H827 0.961 . S
C814 H828 0.961 . S
C815 C812 1.539 . S
C815 H829 0.958 . S
C815 H830 0.961 . S
C815 H831 0.960 . S
H816 C800 0.931 . S
H817 C805 0.929 . S
H818 C806 0.960 . S
H819 C806 0.962 . S
H820 C806 0.960 . S
H821 C807 0.961 . S
H822 C807 0.961 . S
H823 C807 0.961 . S
H824 C808 0.931 . S
H825 C813 0.930 . S
H826 C814 0.956 . S
H827 C814 0.961 . S
H828 C814 0.961 . S
H829 C815 0.958 . S
H830 C815 0.961 . S
H831 C815 0.960 . S
C832 C833 1.391 . S
C832 C834 1.394 . S
C832 H848 0.931 . S
C833 C832 1.391 . S
C833 C837 1.376 . S
C834 C832 1.394 . S
C834 C835 1.369 . S
C834 C838 1.531 . S
C835 C834 1.369 . S
C835 C836 1.410 . S
C835 C843 1.503 . S
C836 C835 1.410 . S
C836 C837 1.392 . S
C836 C839 1.511 . S
C837 C833 1.376 . S
C837 C836 1.392 . S
C837 H849 0.929 . S
C838 C834 1.531 . S
C838 H850 0.960 . S
C838 H851 0.962 . S
C838 H852 0.960 . S
C839 C836 1.511 . S
C839 H853 0.961 . S
C839 H854 0.961 . S
C839 H855 0.961 . S
C840 C841 1.370 . S
C840 C842 1.363 . S
C840 H856 0.931 . S
C841 C840 1.370 . S
C841 C845 1.408 . S
C842 C840 1.363 . S
C842 C843 1.370 . S
C842 C846 1.524 . S
C843 C835 1.503 . S
C843 C842 1.370 . S
C843 C844 1.403 . S
C844 C843 1.403 . S
C844 C845 1.404 . S
C844 C847 1.539 . S
C845 C841 1.408 . S
C845 C844 1.404 . S
C845 H857 0.930 . S
C846 C842 1.524 . S
C846 H858 0.956 . S
C846 H859 0.961 . S
C846 H860 0.961 . S
C847 C844 1.539 . S
C847 H861 0.958 . S
C847 H862 0.961 . S
C847 H863 0.960 . S
H848 C832 0.931 . S
H849 C837 0.929 . S
H850 C838 0.960 . S
H851 C838 0.962 . S
H852 C838 0.960 . S
H853 C839 0.961 . S
H854 C839 0.961 . S
H855 C839 0.961 . S
H856 C840 0.931 . S
H857 C845 0.930 . S
H858 C846 0.956 . S
H859 C846 0.961 . S
H860 C846 0.961 . S
H861 C847 0.958 . S
H862 C847 0.961 . S
H863 C847 0.960 . S
C864 C865 1.391 . S
C864 C866 1.394 . S
C864 H880 0.931 . S
C865 C864 1.391 . S
C865 C869 1.376 . S
C866 C864 1.394 . S
C866 C867 1.369 . S
C866 C870 1.531 . S
C867 C866 1.369 . S
C867 C868 1.410 . S
C867 C875 1.503 . S
C868 C867 1.410 . S
C868 C869 1.392 . S
C868 C871 1.511 . S
C869 C865 1.376 . S
C869 C868 1.392 . S
C869 H881 0.929 . S
C870 C866 1.531 . S
C870 H882 0.960 . S
C870 H883 0.962 . S
C870 H884 0.960 . S
C871 C868 1.511 . S
C871 H885 0.961 . S
C871 H886 0.961 . S
C871 H887 0.961 . S
C872 C873 1.370 . S
C872 C874 1.363 . S
C872 H888 0.931 . S
C873 C872 1.370 . S
C873 C877 1.408 . S
C874 C872 1.363 . S
C874 C875 1.370 . S
C874 C878 1.524 . S
C875 C867 1.503 . S
C875 C874 1.370 . S
C875 C876 1.403 . S
C876 C875 1.403 . S
C876 C877 1.404 . S
C876 C879 1.539 . S
C877 C873 1.408 . S
C877 C876 1.404 . S
C877 H889 0.930 . S
C878 C874 1.524 . S
C878 H890 0.956 . S
C878 H891 0.961 . S
C878 H892 0.961 . S
C879 C876 1.539 . S
C879 H893 0.958 . S
C879 H894 0.961 . S
C879 H895 0.960 . S
H880 C864 0.931 . S
H881 C869 0.929 . S
H882 C870 0.960 . S
H883 C870 0.962 . S
H884 C870 0.960 . S
H885 C871 0.961 . S
H886 C871 0.961 . S
H887 C871 0.961 . S
H888 C872 0.931 . S
H889 C877 0.930 . S
H890 C878 0.956 . S
H891 C878 0.961 . S
H892 C878 0.961 . S
H893 C879 0.958 . S
H894 C879 0.961 . S
H895 C879 0.960 . S
C896 C897 1.391 . S
C896 C898 1.394 . S
C896 H912 0.931 . S
C897 C896 1.391 . S
C897 C901 1.376 . S
C898 C896 1.394 . S
C898 C899 1.369 . S
C898 C902 1.531 . S
C899 C898 1.369 . S
C899 C900 1.410 . S
C899 C907 1.503 . S
C900 C899 1.410 . S
C900 C901 1.392 . S
C900 C903 1.511 . S
C901 C897 1.376 . S
C901 C900 1.392 . S
C901 H913 0.929 . S
C902 C898 1.531 . S
C902 H914 0.960 . S
C902 H915 0.962 . S
C902 H916 0.960 . S
C903 C900 1.511 . S
C903 H917 0.961 . S
C903 H918 0.961 . S
C903 H919 0.961 . S
C904 C905 1.370 . S
C904 C906 1.363 . S
C904 H920 0.931 . S
C905 C904 1.370 . S
C905 C909 1.408 . S
C906 C904 1.363 . S
C906 C907 1.370 1_556 S
C906 C910 1.524 . S
C907 C899 1.503 . S
C907 C906 1.370 1_554 S
C907 C908 1.403 . S
C908 C907 1.403 . S
C908 C909 1.404 1_554 S
C908 C911 1.539 . S
C909 C905 1.408 . S
C909 C908 1.404 1_556 S
C909 H921 0.930 . S
C910 C906 1.524 . S
C910 H922 0.956 . S
C910 H923 0.961 . S
C910 H924 0.961 . S
C911 C908 1.539 . S
C911 H925 0.958 . S
C911 H926 0.961 . S
C911 H927 0.960 . S
H912 C896 0.931 . S
H913 C901 0.929 . S
H914 C902 0.960 . S
H915 C902 0.962 . S
H916 C902 0.960 . S
H917 C903 0.961 . S
H918 C903 0.961 . S
H919 C903 0.961 . S
H920 C904 0.931 . S
H921 C909 0.930 . S
H922 C910 0.956 . S
H923 C910 0.961 . S
H924 C910 0.961 . S
H925 C911 0.958 . S
H926 C911 0.961 . S
H927 C911 0.960 . S
C928 C929 1.391 . S
C928 C930 1.394 . S
C928 H944 0.931 . S
C929 C928 1.391 . S
C929 C933 1.376 . S
C930 C928 1.394 . S
C930 C931 1.369 . S
C930 C934 1.531 . S
C931 C930 1.369 . S
C931 C932 1.410 . S
C931 C939 1.503 . S
C932 C931 1.410 . S
C932 C933 1.392 . S
C932 C935 1.511 . S
C933 C929 1.376 . S
C933 C932 1.392 . S
C933 H945 0.929 . S
C934 C930 1.531 . S
C934 H946 0.960 . S
C934 H947 0.962 . S
C934 H948 0.960 . S
C935 C932 1.511 . S
C935 H949 0.961 . S
C935 H950 0.961 . S
C935 H951 0.961 . S
C936 C937 1.370 . S
C936 C938 1.363 . S
C936 H952 0.931 . S
C937 C936 1.370 . S
C937 C941 1.408 . S
C938 C936 1.363 . S
C938 C939 1.370 . S
C938 C942 1.524 . S
C939 C931 1.503 . S
C939 C938 1.370 . S
C939 C940 1.403 . S
C940 C939 1.403 . S
C940 C941 1.404 . S
C940 C943 1.539 . S
C941 C937 1.408 . S
C941 C940 1.404 . S
C941 H953 0.930 . S
C942 C938 1.524 . S
C942 H954 0.956 . S
C942 H955 0.961 . S
C942 H956 0.961 . S
C943 C940 1.539 . S
C943 H957 0.958 . S
C943 H958 0.961 . S
C943 H959 0.960 . S
H944 C928 0.931 . S
H945 C933 0.929 . S
H946 C934 0.960 . S
H947 C934 0.962 . S
H948 C934 0.960 . S
H949 C935 0.961 . S
H950 C935 0.961 . S
H951 C935 0.961 . S
H952 C936 0.931 . S
H953 C941 0.930 . S
H954 C942 0.956 . S
H955 C942 0.961 . S
H956 C942 0.961 . S
H957 C943 0.958 . S
H958 C943 0.961 . S
H959 C943 0.960 . S
C201 C183 1.253 . S
C193 C8 1.483 . S
C225 C26 1.495 . S
C233 C113 1.303 . S
C257 C50 1.486 . S
C265 C133 1.510 . S
C289 C68 1.425 . S
C297 C147 1.451 . S
C329 C155 1.245 . S
C321 C80 1.429 . S
C353 C104 1.464 . S
C361 C169 1.261 . S
C385 C32 1.472 . S
C393 C127 1.294 . S
C417 C44 1.403 . S
C425 C141 1.279 . S
C449 C62 1.384 . S
C457 C161 1.424 . S
C489 C175 1.471 . S
C481 C86 1.423 1_554 S
C521 C189 1.473 . S
C513 C98 1.454 . S
C553 C119 1.497 . S
C545 C14 1.477 . S
C577 C7 1.411 . S
C585 C126 1.463 . S
C609 C25 1.470 . S
C617 C140 1.453 . S
C649 C162 1.476 . S
C641 C52 1.450 . S
C673 C70 1.419 . S
C681 C176 1.483 1_556 S
C713 C190 1.450 . S
C705 C79 1.377 . S
C745 C120 1.443 . S
C737 C106 1.416 . S
C777 C182 1.453 . S
C769 C34 1.405 . S
C801 C43 1.438 . S
C809 C112 1.449 . S
C841 C134 1.477 . S
C833 C61 1.434 . S
C865 C88 1.402 . S
C873 C148 1.476 . S
C897 C97 1.439 . S
C905 C154 1.501 . S
C929 C16 1.482 . S
C937 C168 1.474 . S
