# Generated by pormake.
# Topology tbo, (3,4)-cn, num edge types: 1
# Building blocks:
#     Node 0, Type 0, BuildingBlock: WUSLED_clean_sbu_0, # of connection points: 3
#     Node 1, Type 0, BuildingBlock: WUSLED_clean_sbu_0, # of connection points: 3
#     Node 2, Type 0, BuildingBlock: WUSLED_clean_sbu_0, # of connection points: 3
#     Node 3, Type 0, BuildingBlock: WUSLED_clean_sbu_0, # of connection points: 3
#     Node 4, Type 0, BuildingBlock: WUSLED_clean_sbu_0, # of connection points: 3
#     Node 5, Type 0, BuildingBlock: WUSLED_clean_sbu_0, # of connection points: 3
#     Node 6, Type 0, BuildingBlock: WUSLED_clean_sbu_0, # of connection points: 3
#     Node 7, Type 0, BuildingBlock: WUSLED_clean_sbu_0, # of connection points: 3
#     Node 8, Type 0, BuildingBlock: WUSLED_clean_sbu_0, # of connection points: 3
#     Node 9, Type 0, BuildingBlock: WUSLED_clean_sbu_0, # of connection points: 3
#     Node 10, Type 0, BuildingBlock: WUSLED_clean_sbu_0, # of connection points: 3
#     Node 11, Type 0, BuildingBlock: WUSLED_clean_sbu_0, # of connection points: 3
#     Node 12, Type 0, BuildingBlock: WUSLED_clean_sbu_0, # of connection points: 3
#     Node 13, Type 0, BuildingBlock: WUSLED_clean_sbu_0, # of connection points: 3
#     Node 14, Type 0, BuildingBlock: WUSLED_clean_sbu_0, # of connection points: 3
#     Node 15, Type 0, BuildingBlock: WUSLED_clean_sbu_0, # of connection points: 3
#     Node 16, Type 0, BuildingBlock: WUSLED_clean_sbu_0, # of connection points: 3
#     Node 17, Type 0, BuildingBlock: WUSLED_clean_sbu_0, # of connection points: 3
#     Node 18, Type 0, BuildingBlock: WUSLED_clean_sbu_0, # of connection points: 3
#     Node 19, Type 0, BuildingBlock: WUSLED_clean_sbu_0, # of connection points: 3
#     Node 20, Type 0, BuildingBlock: WUSLED_clean_sbu_0, # of connection points: 3
#     Node 21, Type 0, BuildingBlock: WUSLED_clean_sbu_0, # of connection points: 3
#     Node 22, Type 0, BuildingBlock: WUSLED_clean_sbu_0, # of connection points: 3
#     Node 23, Type 0, BuildingBlock: WUSLED_clean_sbu_0, # of connection points: 3
#     Node 24, Type 0, BuildingBlock: WUSLED_clean_sbu_0, # of connection points: 3
#     Node 25, Type 0, BuildingBlock: WUSLED_clean_sbu_0, # of connection points: 3
#     Node 26, Type 0, BuildingBlock: WUSLED_clean_sbu_0, # of connection points: 3
#     Node 27, Type 0, BuildingBlock: WUSLED_clean_sbu_0, # of connection points: 3
#     Node 28, Type 0, BuildingBlock: WUSLED_clean_sbu_0, # of connection points: 3
#     Node 29, Type 0, BuildingBlock: WUSLED_clean_sbu_0, # of connection points: 3
#     Node 30, Type 0, BuildingBlock: WUSLED_clean_sbu_0, # of connection points: 3
#     Node 31, Type 0, BuildingBlock: WUSLED_clean_sbu_0, # of connection points: 3
#     Node 32, Type 1, BuildingBlock: NAWXER_clean_linker_0, # of connection points: 4
#     Node 33, Type 1, BuildingBlock: NAWXER_clean_linker_0, # of connection points: 4
#     Node 34, Type 1, BuildingBlock: NAWXER_clean_linker_0, # of connection points: 4
#     Node 35, Type 1, BuildingBlock: NAWXER_clean_linker_0, # of connection points: 4
#     Node 36, Type 1, BuildingBlock: NAWXER_clean_linker_0, # of connection points: 4
#     Node 37, Type 1, BuildingBlock: NAWXER_clean_linker_0, # of connection points: 4
#     Node 38, Type 1, BuildingBlock: NAWXER_clean_linker_0, # of connection points: 4
#     Node 39, Type 1, BuildingBlock: NAWXER_clean_linker_0, # of connection points: 4
#     Node 40, Type 1, BuildingBlock: NAWXER_clean_linker_0, # of connection points: 4
#     Node 41, Type 1, BuildingBlock: NAWXER_clean_linker_0, # of connection points: 4
#     Node 42, Type 1, BuildingBlock: NAWXER_clean_linker_0, # of connection points: 4
#     Node 43, Type 1, BuildingBlock: NAWXER_clean_linker_0, # of connection points: 4
#     Node 44, Type 1, BuildingBlock: NAWXER_clean_linker_0, # of connection points: 4
#     Node 45, Type 1, BuildingBlock: NAWXER_clean_linker_0, # of connection points: 4
#     Node 46, Type 1, BuildingBlock: NAWXER_clean_linker_0, # of connection points: 4
#     Node 47, Type 1, BuildingBlock: NAWXER_clean_linker_0, # of connection points: 4
#     Node 48, Type 1, BuildingBlock: NAWXER_clean_linker_0, # of connection points: 4
#     Node 49, Type 1, BuildingBlock: NAWXER_clean_linker_0, # of connection points: 4
#     Node 50, Type 1, BuildingBlock: NAWXER_clean_linker_0, # of connection points: 4
#     Node 51, Type 1, BuildingBlock: NAWXER_clean_linker_0, # of connection points: 4
#     Node 52, Type 1, BuildingBlock: NAWXER_clean_linker_0, # of connection points: 4
#     Node 53, Type 1, BuildingBlock: NAWXER_clean_linker_0, # of connection points: 4
#     Node 54, Type 1, BuildingBlock: NAWXER_clean_linker_0, # of connection points: 4
#     Node 55, Type 1, BuildingBlock: NAWXER_clean_linker_0, # of connection points: 4
#     Edge 56, Type (0, 1), BuildingBlock: XIVTED_clean_linker_0, # of connection points: 2
#     Edge 57, Type (0, 1), BuildingBlock: XIVTED_clean_linker_0, # of connection points: 2
#     Edge 58, Type (0, 1), BuildingBlock: XIVTED_clean_linker_0, # of connection points: 2
#     Edge 59, Type (0, 1), BuildingBlock: XIVTED_clean_linker_0, # of connection points: 2
#     Edge 60, Type (0, 1), BuildingBlock: XIVTED_clean_linker_0, # of connection points: 2
#     Edge 61, Type (0, 1), BuildingBlock: XIVTED_clean_linker_0, # of connection points: 2
#     Edge 62, Type (0, 1), BuildingBlock: XIVTED_clean_linker_0, # of connection points: 2
#     Edge 63, Type (0, 1), BuildingBlock: XIVTED_clean_linker_0, # of connection points: 2
#     Edge 64, Type (0, 1), BuildingBlock: XIVTED_clean_linker_0, # of connection points: 2
#     Edge 65, Type (0, 1), BuildingBlock: XIVTED_clean_linker_0, # of connection points: 2
#     Edge 66, Type (0, 1), BuildingBlock: XIVTED_clean_linker_0, # of connection points: 2
#     Edge 67, Type (0, 1), BuildingBlock: XIVTED_clean_linker_0, # of connection points: 2
#     Edge 68, Type (0, 1), BuildingBlock: XIVTED_clean_linker_0, # of connection points: 2
#     Edge 69, Type (0, 1), BuildingBlock: XIVTED_clean_linker_0, # of connection points: 2
#     Edge 70, Type (0, 1), BuildingBlock: XIVTED_clean_linker_0, # of connection points: 2
#     Edge 71, Type (0, 1), BuildingBlock: XIVTED_clean_linker_0, # of connection points: 2
#     Edge 72, Type (0, 1), BuildingBlock: XIVTED_clean_linker_0, # of connection points: 2
#     Edge 73, Type (0, 1), BuildingBlock: XIVTED_clean_linker_0, # of connection points: 2
#     Edge 74, Type (0, 1), BuildingBlock: XIVTED_clean_linker_0, # of connection points: 2
#     Edge 75, Type (0, 1), BuildingBlock: XIVTED_clean_linker_0, # of connection points: 2
#     Edge 76, Type (0, 1), BuildingBlock: XIVTED_clean_linker_0, # of connection points: 2
#     Edge 77, Type (0, 1), BuildingBlock: XIVTED_clean_linker_0, # of connection points: 2
#     Edge 78, Type (0, 1), BuildingBlock: XIVTED_clean_linker_0, # of connection points: 2
#     Edge 79, Type (0, 1), BuildingBlock: XIVTED_clean_linker_0, # of connection points: 2
#     Edge 80, Type (0, 1), BuildingBlock: XIVTED_clean_linker_0, # of connection points: 2
#     Edge 81, Type (0, 1), BuildingBlock: XIVTED_clean_linker_0, # of connection points: 2
#     Edge 82, Type (0, 1), BuildingBlock: XIVTED_clean_linker_0, # of connection points: 2
#     Edge 83, Type (0, 1), BuildingBlock: XIVTED_clean_linker_0, # of connection points: 2
#     Edge 84, Type (0, 1), BuildingBlock: XIVTED_clean_linker_0, # of connection points: 2
#     Edge 85, Type (0, 1), BuildingBlock: XIVTED_clean_linker_0, # of connection points: 2
#     Edge 86, Type (0, 1), BuildingBlock: XIVTED_clean_linker_0, # of connection points: 2
#     Edge 87, Type (0, 1), BuildingBlock: XIVTED_clean_linker_0, # of connection points: 2
#     Edge 88, Type (0, 1), BuildingBlock: XIVTED_clean_linker_0, # of connection points: 2
#     Edge 89, Type (0, 1), BuildingBlock: XIVTED_clean_linker_0, # of connection points: 2
#     Edge 90, Type (0, 1), BuildingBlock: XIVTED_clean_linker_0, # of connection points: 2
#     Edge 91, Type (0, 1), BuildingBlock: XIVTED_clean_linker_0, # of connection points: 2
#     Edge 92, Type (0, 1), BuildingBlock: XIVTED_clean_linker_0, # of connection points: 2
#     Edge 93, Type (0, 1), BuildingBlock: XIVTED_clean_linker_0, # of connection points: 2
#     Edge 94, Type (0, 1), BuildingBlock: XIVTED_clean_linker_0, # of connection points: 2
#     Edge 95, Type (0, 1), BuildingBlock: XIVTED_clean_linker_0, # of connection points: 2
#     Edge 96, Type (0, 1), BuildingBlock: XIVTED_clean_linker_0, # of connection points: 2
#     Edge 97, Type (0, 1), BuildingBlock: XIVTED_clean_linker_0, # of connection points: 2
#     Edge 98, Type (0, 1), BuildingBlock: XIVTED_clean_linker_0, # of connection points: 2
#     Edge 99, Type (0, 1), BuildingBlock: XIVTED_clean_linker_0, # of connection points: 2
#     Edge 100, Type (0, 1), BuildingBlock: XIVTED_clean_linker_0, # of connection points: 2
#     Edge 101, Type (0, 1), BuildingBlock: XIVTED_clean_linker_0, # of connection points: 2
#     Edge 102, Type (0, 1), BuildingBlock: XIVTED_clean_linker_0, # of connection points: 2
#     Edge 103, Type (0, 1), BuildingBlock: XIVTED_clean_linker_0, # of connection points: 2
#     Edge 104, Type (0, 1), BuildingBlock: XIVTED_clean_linker_0, # of connection points: 2
#     Edge 105, Type (0, 1), BuildingBlock: XIVTED_clean_linker_0, # of connection points: 2
#     Edge 106, Type (0, 1), BuildingBlock: XIVTED_clean_linker_0, # of connection points: 2
#     Edge 107, Type (0, 1), BuildingBlock: XIVTED_clean_linker_0, # of connection points: 2
#     Edge 108, Type (0, 1), BuildingBlock: XIVTED_clean_linker_0, # of connection points: 2
#     Edge 109, Type (0, 1), BuildingBlock: XIVTED_clean_linker_0, # of connection points: 2
#     Edge 110, Type (0, 1), BuildingBlock: XIVTED_clean_linker_0, # of connection points: 2
#     Edge 111, Type (0, 1), BuildingBlock: XIVTED_clean_linker_0, # of connection points: 2
#     Edge 112, Type (0, 1), BuildingBlock: XIVTED_clean_linker_0, # of connection points: 2
#     Edge 113, Type (0, 1), BuildingBlock: XIVTED_clean_linker_0, # of connection points: 2
#     Edge 114, Type (0, 1), BuildingBlock: XIVTED_clean_linker_0, # of connection points: 2
#     Edge 115, Type (0, 1), BuildingBlock: XIVTED_clean_linker_0, # of connection points: 2
#     Edge 116, Type (0, 1), BuildingBlock: XIVTED_clean_linker_0, # of connection points: 2
#     Edge 117, Type (0, 1), BuildingBlock: XIVTED_clean_linker_0, # of connection points: 2
#     Edge 118, Type (0, 1), BuildingBlock: XIVTED_clean_linker_0, # of connection points: 2
#     Edge 119, Type (0, 1), BuildingBlock: XIVTED_clean_linker_0, # of connection points: 2
#     Edge 120, Type (0, 1), BuildingBlock: XIVTED_clean_linker_0, # of connection points: 2
#     Edge 121, Type (0, 1), BuildingBlock: XIVTED_clean_linker_0, # of connection points: 2
#     Edge 122, Type (0, 1), BuildingBlock: XIVTED_clean_linker_0, # of connection points: 2
#     Edge 123, Type (0, 1), BuildingBlock: XIVTED_clean_linker_0, # of connection points: 2
#     Edge 124, Type (0, 1), BuildingBlock: XIVTED_clean_linker_0, # of connection points: 2
#     Edge 125, Type (0, 1), BuildingBlock: XIVTED_clean_linker_0, # of connection points: 2
#     Edge 126, Type (0, 1), BuildingBlock: XIVTED_clean_linker_0, # of connection points: 2
#     Edge 127, Type (0, 1), BuildingBlock: XIVTED_clean_linker_0, # of connection points: 2
#     Edge 128, Type (0, 1), BuildingBlock: XIVTED_clean_linker_0, # of connection points: 2
#     Edge 129, Type (0, 1), BuildingBlock: XIVTED_clean_linker_0, # of connection points: 2
#     Edge 130, Type (0, 1), BuildingBlock: XIVTED_clean_linker_0, # of connection points: 2
#     Edge 131, Type (0, 1), BuildingBlock: XIVTED_clean_linker_0, # of connection points: 2
#     Edge 132, Type (0, 1), BuildingBlock: XIVTED_clean_linker_0, # of connection points: 2
#     Edge 133, Type (0, 1), BuildingBlock: XIVTED_clean_linker_0, # of connection points: 2
#     Edge 134, Type (0, 1), BuildingBlock: XIVTED_clean_linker_0, # of connection points: 2
#     Edge 135, Type (0, 1), BuildingBlock: XIVTED_clean_linker_0, # of connection points: 2
#     Edge 136, Type (0, 1), BuildingBlock: XIVTED_clean_linker_0, # of connection points: 2
#     Edge 137, Type (0, 1), BuildingBlock: XIVTED_clean_linker_0, # of connection points: 2
#     Edge 138, Type (0, 1), BuildingBlock: XIVTED_clean_linker_0, # of connection points: 2
#     Edge 139, Type (0, 1), BuildingBlock: XIVTED_clean_linker_0, # of connection points: 2
#     Edge 140, Type (0, 1), BuildingBlock: XIVTED_clean_linker_0, # of connection points: 2
#     Edge 141, Type (0, 1), BuildingBlock: XIVTED_clean_linker_0, # of connection points: 2
#     Edge 142, Type (0, 1), BuildingBlock: XIVTED_clean_linker_0, # of connection points: 2
#     Edge 143, Type (0, 1), BuildingBlock: XIVTED_clean_linker_0, # of connection points: 2
#     Edge 144, Type (0, 1), BuildingBlock: XIVTED_clean_linker_0, # of connection points: 2
#     Edge 145, Type (0, 1), BuildingBlock: XIVTED_clean_linker_0, # of connection points: 2
#     Edge 146, Type (0, 1), BuildingBlock: XIVTED_clean_linker_0, # of connection points: 2
#     Edge 147, Type (0, 1), BuildingBlock: XIVTED_clean_linker_0, # of connection points: 2
#     Edge 148, Type (0, 1), BuildingBlock: XIVTED_clean_linker_0, # of connection points: 2
#     Edge 149, Type (0, 1), BuildingBlock: XIVTED_clean_linker_0, # of connection points: 2
#     Edge 150, Type (0, 1), BuildingBlock: XIVTED_clean_linker_0, # of connection points: 2
#     Edge 151, Type (0, 1), BuildingBlock: XIVTED_clean_linker_0, # of connection points: 2
# Relax obj value: 0.000
# Max RMSD: 0.012
# Mean RMSD: 0.006
data_MOF--net-tbo--node1-WUSLED_clean_sbu_0--node2-NAWXER_clean_linker_0--edge1-XIVTED_clean_linker_0
_symmetry_space_group_name_H-M    P1
_symmetry_Int_Tables_number       1
_symmetry_cell_setting            triclinic
loop_
_symmetry_equiv_pos_as_xyz
'x, y, z'
_cell_length_a     108.63455
_cell_length_b     108.88197
_cell_length_c     108.79166
_cell_angle_alpha  89.677525
_cell_angle_beta   90.289999
_cell_angle_gamma 90.688938
loop_
_atom_site_label
_atom_site_type_symbol
_atom_site_fract_x
_atom_site_fract_y
_atom_site_fract_z
_atom_type_partial_charge
C0 C 0.18326 0.14933 0.19917 0.0
C1 C 0.18674 0.14041 0.19061 0.0
C2 C 0.19627 0.12828 0.20694 0.0
C3 C 0.19313 0.12996 0.19447 0.0
C4 C 0.19291 0.13733 0.21543 0.0
C5 C 0.18645 0.14771 0.21158 0.0
U6 U 0.17635 0.17674 0.1778 0.0
O7 O 0.15861 0.18407 0.17155 0.0
O8 O 0.17109 0.19561 0.1826 0.0
C9 C 0.16015 0.19447 0.17748 0.0
C10 C 0.17611 0.16024 0.19552 0.0
C11 C 0.14965 0.19865 0.18487 0.0
C12 C 0.13121 0.19461 0.19694 0.0
C13 C 0.14151 0.19033 0.19063 0.0
C14 C 0.13725 0.21555 0.19212 0.0
C15 C 0.12886 0.20728 0.19765 0.0
C16 C 0.1475 0.21127 0.18579 0.0
C17 C 0.19645 0.18261 0.1492 0.0
C18 C 0.2015 0.2018 0.13865 0.0
C19 C 0.20315 0.18249 0.12789 0.0
C20 C 0.19923 0.1762 0.13844 0.0
C21 C 0.20444 0.19536 0.12789 0.0
C22 C 0.19749 0.1955 0.14919 0.0
C23 C 0.19295 0.17561 0.16037 0.0
O24 O 0.18191 0.17086 0.19642 0.0
O25 O 0.16936 0.15929 0.18548 0.0
O26 O 0.18236 0.16965 0.15987 0.0
O27 O 0.19492 0.18106 0.17097 0.0
H28 H 0.18447 0.14146 0.18096 0.0
H29 H 0.1957 0.12323 0.18768 0.0
H30 H 0.19504 0.13627 0.22511 0.0
H31 H 0.18383 0.15446 0.21834 0.0
H32 H 0.12492 0.18796 0.20099 0.0
H33 H 0.143 0.18053 0.19008 0.0
H34 H 0.13591 0.22537 0.19268 0.0
H35 H 0.15369 0.21785 0.18147 0.0
H36 H 0.20225 0.21172 0.13891 0.0
H37 H 0.20547 0.17723 0.11982 0.0
H38 H 0.19854 0.16626 0.13825 0.0
H39 H 0.19532 0.2007 0.15734 0.0
C40 C 0.818 0.1816 0.15077 0.0
C41 C 0.82072 0.19414 0.1492 0.0
C42 C 0.80956 0.19427 0.12968 0.0
C43 C 0.8165 0.20043 0.13877 0.0
C44 C 0.80704 0.18164 0.13126 0.0
C45 C 0.81121 0.17539 0.14171 0.0
U46 U 0.83984 0.17743 0.17809 0.0
O47 O 0.83587 0.17185 0.19715 0.0
O48 O 0.84797 0.16065 0.18578 0.0
C49 C 0.84198 0.16156 0.19621 0.0
C50 C 0.82212 0.17485 0.16178 0.0
C51 C 0.83537 0.15043 0.20035 0.0
C52 C 0.82187 0.13291 0.19639 0.0
C53 C 0.828 0.14352 0.19225 0.0
C54 C 0.83025 0.13614 0.21681 0.0
C55 C 0.82295 0.12906 0.20873 0.0
C56 C 0.83641 0.1467 0.21265 0.0
C57 C 0.86625 0.2004 0.18327 0.0
C58 C 0.88405 0.19668 0.19635 0.0
C59 C 0.87977 0.2173 0.18918 0.0
C60 C 0.86937 0.21291 0.18292 0.0
C61 C 0.88733 0.20923 0.1959 0.0
C62 C 0.87359 0.19231 0.19013 0.0
C63 C 0.85543 0.19596 0.17633 0.0
O64 O 0.83281 0.16942 0.16084 0.0
O65 O 0.82071 0.18053 0.17231 0.0
O66 O 0.84483 0.1967 0.18203 0.0
O67 O 0.8568 0.18554 0.17047 0.0
H68 H 0.82601 0.19909 0.15608 0.0
H69 H 0.81851 0.21016 0.13794 0.0
H70 H 0.80194 0.17653 0.12437 0.0
H71 H 0.8091 0.16568 0.14273 0.0
H72 H 0.81644 0.12763 0.18988 0.0
H73 H 0.82705 0.14629 0.18271 0.0
H74 H 0.83112 0.13362 0.22642 0.0
H75 H 0.84198 0.15199 0.21905 0.0
H76 H 0.8897 0.19017 0.20131 0.0
H77 H 0.88185 0.22705 0.18881 0.0
H78 H 0.86376 0.2193 0.17775 0.0
H79 H 0.87131 0.18261 0.19057 0.0
C80 C 0.82059 0.83753 0.14885 0.0
C81 C 0.82253 0.82486 0.14763 0.0
C82 C 0.81218 0.82498 0.12764 0.0
C83 C 0.81834 0.81864 0.13713 0.0
C84 C 0.81056 0.83773 0.12883 0.0
C85 C 0.8147 0.84391 0.13933 0.0
U86 U 0.84162 0.84312 0.17695 0.0
O87 O 0.84833 0.86056 0.18474 0.0
O88 O 0.8366 0.84829 0.19583 0.0
C89 C 0.84213 0.85907 0.195 0.0
C90 C 0.82429 0.84424 0.16005 0.0
C91 C 0.83495 0.86969 0.19914 0.0
C92 C 0.82255 0.88774 0.195 0.0
C93 C 0.82878 0.87738 0.1908 0.0
C94 C 0.82834 0.88265 0.21592 0.0
C95 C 0.82236 0.89058 0.20762 0.0
C96 C 0.83458 0.87234 0.21171 0.0
C97 C 0.86951 0.82241 0.18287 0.0
C98 C 0.88084 0.82039 0.20213 0.0
C99 C 0.88968 0.813 0.18321 0.0
C100 C 0.87924 0.8168 0.17673 0.0
C101 C 0.89062 0.81471 0.19599 0.0
C102 C 0.87039 0.82426 0.19561 0.0
C103 C 0.85855 0.82614 0.17576 0.0
O104 O 0.82298 0.8383 0.17053 0.0
O105 O 0.83465 0.85057 0.15939 0.0
O106 O 0.85945 0.83675 0.17001 0.0
O107 O 0.84783 0.8244 0.18111 0.0
H108 H 0.8271 0.81974 0.15486 0.0
H109 H 0.81967 0.80882 0.13659 0.0
H110 H 0.80609 0.84298 0.12163 0.0
H111 H 0.81318 0.8537 0.14006 0.0
H112 H 0.81814 0.89367 0.18832 0.0
H113 H 0.82891 0.87547 0.18104 0.0
H114 H 0.82819 0.88437 0.22571 0.0
H115 H 0.83922 0.86649 0.21831 0.0
H116 H 0.88132 0.82197 0.21194 0.0
H117 H 0.89695 0.80852 0.17821 0.0
H118 H 0.87872 0.81528 0.16691 0.0
H119 H 0.86302 0.82866 0.20053 0.0
C120 C 0.14918 0.81994 0.18322 0.0
C121 C 0.14787 0.82259 0.19576 0.0
C122 C 0.12772 0.81245 0.19593 0.0
C123 C 0.13725 0.81883 0.20208 0.0
C124 C 0.12906 0.80995 0.18333 0.0
C125 C 0.13969 0.81364 0.17706 0.0
U126 U 0.17704 0.84117 0.17782 0.0
O127 O 0.19607 0.83665 0.17274 0.0
O128 O 0.18489 0.84823 0.16056 0.0
C129 C 0.19525 0.84225 0.16204 0.0
C130 C 0.16036 0.82357 0.1764 0.0
C131 C 0.19953 0.83527 0.15134 0.0
C132 C 0.19559 0.82265 0.13332 0.0
C133 C 0.1913 0.82872 0.14375 0.0
C134 C 0.2164 0.82933 0.13814 0.0
C135 C 0.2082 0.82297 0.13031 0.0
C136 C 0.21209 0.83543 0.14852 0.0
C137 C 0.18235 0.86893 0.19887 0.0
C138 C 0.20137 0.88087 0.20036 0.0
C139 C 0.18252 0.88884 0.20884 0.0
C140 C 0.17618 0.87827 0.20504 0.0
C141 C 0.1952 0.89027 0.20657 0.0
C142 C 0.19498 0.87031 0.19648 0.0
C143 C 0.17539 0.85789 0.19503 0.0
O144 O 0.15965 0.83388 0.17011 0.0
O145 O 0.17085 0.8224 0.18235 0.0
O146 O 0.18092 0.84732 0.19669 0.0
O147 O 0.16971 0.85872 0.18438 0.0
H148 H 0.15505 0.82754 0.20068 0.0
H149 H 0.13645 0.82102 0.21174 0.0
H150 H 0.12196 0.80494 0.17836 0.0
H151 H 0.14054 0.81151 0.16739 0.0
H152 H 0.189 0.81794 0.12747 0.0
H153 H 0.18155 0.82845 0.14579 0.0
H154 H 0.22618 0.82959 0.13628 0.0
H155 H 0.2186 0.84037 0.1543 0.0
H156 H 0.21109 0.88175 0.19835 0.0
H157 H 0.17752 0.89581 0.21374 0.0
H158 H 0.16643 0.87736 0.20697 0.0
H159 H 0.1999 0.86324 0.19164 0.0
C160 C 0.14926 0.8191 0.83844 0.0
C161 C 0.14736 0.82255 0.82613 0.0
C162 C 0.1285 0.81017 0.82538 0.0
C163 C 0.13709 0.8181 0.81965 0.0
C164 C 0.13041 0.8069 0.83778 0.0
C165 C 0.1407 0.81131 0.84422 0.0
U166 U 0.17592 0.8418 0.84345 0.0
O167 O 0.18306 0.84975 0.86069 0.0
O168 O 0.19504 0.83854 0.84919 0.0
C169 C 0.19367 0.84416 0.85976 0.0
C170 C 0.16008 0.8235 0.84538 0.0
C171 C 0.19773 0.8374 0.87081 0.0
C172 C 0.20159 0.8183 0.88182 0.0
C173 C 0.19746 0.8245 0.8713 0.0
C174 C 0.20603 0.8378 0.8916 0.0
C175 C 0.20594 0.82489 0.89208 0.0
C176 C 0.20201 0.84398 0.88105 0.0
C177 C 0.18061 0.86874 0.82114 0.0
C178 C 0.19943 0.88092 0.81938 0.0
C179 C 0.1806 0.88807 0.80988 0.0
C180 C 0.17437 0.87763 0.81424 0.0
C181 C 0.19324 0.88981 0.8123 0.0
C182 C 0.19316 0.8705 0.82379 0.0
C183 C 0.17388 0.8577 0.82536 0.0
O184 O 0.17072 0.82259 0.83977 0.0
O185 O 0.15875 0.83403 0.85105 0.0
O186 O 0.16802 0.85877 0.83583 0.0
O187 O 0.17976 0.84726 0.82437 0.0
H188 H 0.15386 0.82861 0.82152 0.0
H189 H 0.13599 0.82072 0.81009 0.0
H190 H 0.1239 0.80101 0.84257 0.0
H191 H 0.14198 0.80862 0.85374 0.0
H192 H 0.20127 0.80836 0.88197 0.0
H193 H 0.19409 0.8192 0.86356 0.0
H194 H 0.20943 0.84313 0.8993 0.0
H195 H 0.20228 0.85393 0.88085 0.0
H196 H 0.20918 0.88188 0.82133 0.0
H197 H 0.17547 0.89481 0.80468 0.0
H198 H 0.16465 0.87647 0.81218 0.0
H199 H 0.19814 0.86376 0.82916 0.0
C200 C 0.14714 0.18212 0.82171 0.0
C201 C 0.14756 0.195 0.82074 0.0
C202 C 0.126 0.19526 0.81434 0.0
C203 C 0.1371 0.2015 0.81704 0.0
C204 C 0.12557 0.18239 0.81555 0.0
C205 C 0.13604 0.1759 0.81915 0.0
U206 U 0.17544 0.17511 0.84194 0.0
O207 O 0.18279 0.15735 0.84802 0.0
O208 O 0.1941 0.16962 0.8365 0.0
C209 C 0.19297 0.1587 0.84162 0.0
C210 C 0.1582 0.17493 0.82491 0.0
C211 C 0.19667 0.14817 0.83399 0.0
C212 C 0.19215 0.1288 0.82372 0.0
C213 C 0.18821 0.139 0.83036 0.0
C214 C 0.21299 0.13695 0.82392 0.0
C215 C 0.20461 0.12762 0.82047 0.0
C216 C 0.20906 0.14708 0.83063 0.0
C217 C 0.18214 0.19523 0.87033 0.0
C218 C 0.20155 0.19756 0.88141 0.0
C219 C 0.18255 0.20396 0.89084 0.0
C220 C 0.17601 0.20028 0.88037 0.0
C221 C 0.19541 0.2027 0.89149 0.0
C222 C 0.19497 0.1938 0.87094 0.0
C223 C 0.17494 0.19175 0.85932 0.0
O224 O 0.16892 0.18049 0.82354 0.0
O225 O 0.15751 0.16829 0.83502 0.0
O226 O 0.16891 0.18124 0.86002 0.0
O227 O 0.18026 0.19358 0.84863 0.0
H228 H 0.15597 0.20007 0.82272 0.0
H229 H 0.1377 0.21141 0.81634 0.0
H230 H 0.11722 0.1773 0.81342 0.0
H231 H 0.13551 0.16598 0.81979 0.0
H232 H 0.18544 0.12185 0.82108 0.0
H233 H 0.17857 0.13963 0.83276 0.0
H234 H 0.22266 0.13627 0.82171 0.0
H235 H 0.21575 0.15401 0.83337 0.0
H236 H 0.21143 0.19634 0.88166 0.0
H237 H 0.17754 0.20804 0.89834 0.0
H238 H 0.16612 0.20149 0.88007 0.0
H239 H 0.1999 0.18985 0.86331 0.0
C240 C 0.81793 0.15109 0.83723 0.0
C241 C 0.82619 0.14446 0.83001 0.0
C242 C 0.80964 0.13049 0.8237 0.0
C243 C 0.82209 0.13422 0.82334 0.0
C244 C 0.8014 0.13727 0.83085 0.0
C245 C 0.80553 0.14745 0.83756 0.0
U246 U 0.8404 0.17766 0.84381 0.0
O247 O 0.83674 0.19652 0.84981 0.0
O248 O 0.84779 0.18433 0.86148 0.0
C249 C 0.84223 0.19494 0.8605 0.0
C250 C 0.82206 0.16174 0.84453 0.0
C251 C 0.8353 0.1988 0.8714 0.0
C252 C 0.81625 0.20035 0.88292 0.0
C253 C 0.82262 0.19641 0.87252 0.0
C254 C 0.83519 0.20891 0.89125 0.0
C255 C 0.82246 0.20666 0.89241 0.0
C256 C 0.84152 0.20504 0.88084 0.0
C257 C 0.86819 0.18289 0.82255 0.0
C258 C 0.88018 0.20177 0.82017 0.0
C259 C 0.88805 0.18262 0.81239 0.0
C260 C 0.87751 0.17646 0.81661 0.0
C261 C 0.88947 0.19538 0.81397 0.0
C262 C 0.86965 0.19557 0.82444 0.0
C263 C 0.85695 0.1762 0.82638 0.0
O264 O 0.83237 0.16036 0.85074 0.0
O265 O 0.82131 0.17247 0.83901 0.0
O266 O 0.84654 0.18213 0.82508 0.0
O267 O 0.8577 0.17007 0.83678 0.0
H268 H 0.83581 0.14718 0.82956 0.0
H269 H 0.82864 0.12929 0.81781 0.0
H270 H 0.79179 0.13457 0.83145 0.0
H271 H 0.79902 0.15245 0.84309 0.0
H272 H 0.80648 0.19835 0.88359 0.0
H273 H 0.81766 0.19152 0.86537 0.0
H274 H 0.84023 0.21387 0.8983 0.0
H275 H 0.8513 0.20697 0.88013 0.0
H276 H 0.8809 0.2116 0.82146 0.0
H277 H 0.8951 0.17734 0.8079 0.0
H278 H 0.8766 0.16666 0.81514 0.0
H279 H 0.86258 0.20072 0.82906 0.0
C280 C 0.835 0.86892 0.8191 0.0
C281 C 0.82936 0.87674 0.82756 0.0
C282 C 0.82267 0.8902 0.81083 0.0
C283 C 0.82326 0.88729 0.82346 0.0
C284 C 0.82811 0.88215 0.80242 0.0
C285 C 0.83422 0.87166 0.80652 0.0
U286 U 0.84163 0.84144 0.84068 0.0
O287 O 0.84732 0.82273 0.83574 0.0
O288 O 0.85941 0.83435 0.84712 0.0
C289 C 0.85822 0.82407 0.84092 0.0
C290 C 0.84201 0.85805 0.82306 0.0
C291 C 0.86889 0.8203 0.83347 0.0
C292 C 0.88892 0.82444 0.82423 0.0
C293 C 0.8786 0.82849 0.83066 0.0
C294 C 0.87987 0.80405 0.82303 0.0
C295 C 0.88971 0.81215 0.8204 0.0
C296 C 0.86961 0.80808 0.82953 0.0
C297 C 0.8213 0.83486 0.86895 0.0
C298 C 0.81653 0.81546 0.87925 0.0
C299 C 0.81453 0.83459 0.89025 0.0
C300 C 0.81837 0.84108 0.87978 0.0
C301 C 0.81345 0.8217 0.89008 0.0
C302 C 0.82046 0.82196 0.8688 0.0
C303 C 0.82478 0.84205 0.8579 0.0
O304 O 0.84841 0.8591 0.8333 0.0
O305 O 0.83627 0.84741 0.82204 0.0
O306 O 0.82305 0.83669 0.84721 0.0
O307 O 0.83523 0.84823 0.85858 0.0
H308 H 0.82981 0.87478 0.83732 0.0
H309 H 0.81926 0.89331 0.83021 0.0
H310 H 0.82763 0.88392 0.79263 0.0
H311 H 0.83844 0.86571 0.79984 0.0
H312 H 0.89627 0.83094 0.82223 0.0
H313 H 0.87831 0.83799 0.83353 0.0
H314 H 0.88024 0.7945 0.82034 0.0
H315 H 0.86228 0.80157 0.83164 0.0
H316 H 0.81594 0.80553 0.87886 0.0
H317 H 0.81211 0.8397 0.89838 0.0
H318 H 0.81891 0.85102 0.88011 0.0
H319 H 0.82274 0.8169 0.86059 0.0
C320 C 0.18064 0.64822 0.69826 0.0
C321 C 0.19333 0.64706 0.69626 0.0
C322 C 0.1933 0.62738 0.70715 0.0
C323 C 0.19961 0.63674 0.70067 0.0
C324 C 0.18052 0.62851 0.70887 0.0
C325 C 0.17429 0.63882 0.70449 0.0
U326 U 0.17519 0.67584 0.6767 0.0
O327 O 0.15767 0.68303 0.66952 0.0
O328 O 0.16953 0.69461 0.68116 0.0
C329 C 0.15887 0.69345 0.67547 0.0
C330 C 0.17384 0.6592 0.69424 0.0
C331 C 0.14795 0.69747 0.6823 0.0
C332 C 0.13623 0.69932 0.7012 0.0
C333 C 0.1465 0.69495 0.69489 0.0
C334 C 0.12866 0.70855 0.68236 0.0
C335 C 0.12722 0.70628 0.69503 0.0
C336 C 0.13892 0.70421 0.67609 0.0
C337 C 0.19659 0.68197 0.64917 0.0
C338 C 0.20169 0.70126 0.63884 0.0
C339 C 0.20398 0.68203 0.62809 0.0
C340 C 0.19984 0.67564 0.63849 0.0
C341 C 0.20504 0.69492 0.62815 0.0
C342 C 0.19745 0.69486 0.64923 0.0
C343 C 0.19267 0.67488 0.66014 0.0
O344 O 0.1796 0.66981 0.69551 0.0
O345 O 0.16783 0.65823 0.68378 0.0
O346 O 0.18217 0.66883 0.65912 0.0
O347 O 0.19407 0.68028 0.67085 0.0
H348 H 0.19842 0.6542 0.69142 0.0
H349 H 0.20945 0.63625 0.69926 0.0
H350 H 0.17529 0.62139 0.71357 0.0
H351 H 0.16448 0.6395 0.70607 0.0
H352 H 0.13549 0.69747 0.71096 0.0
H353 H 0.15336 0.68972 0.69986 0.0
H354 H 0.12182 0.71364 0.67724 0.0
H355 H 0.13984 0.70619 0.66637 0.0
H356 H 0.20226 0.7112 0.63914 0.0
H357 H 0.2066 0.67684 0.62007 0.0
H358 H 0.19929 0.6657 0.63824 0.0
H359 H 0.19493 0.7 0.65732 0.0
C360 C 0.81744 0.68284 0.65166 0.0
C361 C 0.82573 0.68943 0.64419 0.0
C362 C 0.80893 0.69531 0.63047 0.0
C363 C 0.82152 0.69557 0.63367 0.0
C364 C 0.80068 0.68882 0.63814 0.0
C365 C 0.80491 0.68264 0.6486 0.0
U366 U 0.84002 0.67818 0.67835 0.0
O367 O 0.83628 0.67315 0.69763 0.0
O368 O 0.84756 0.6612 0.68619 0.0
C369 C 0.84182 0.66254 0.69671 0.0
C370 C 0.82165 0.67618 0.66269 0.0
C371 C 0.83471 0.65178 0.70102 0.0
C372 C 0.8206 0.63471 0.69718 0.0
C373 C 0.82709 0.64507 0.69296 0.0
C374 C 0.82903 0.63782 0.7176 0.0
C375 C 0.82151 0.63095 0.70954 0.0
C376 C 0.83558 0.64812 0.71335 0.0
C377 C 0.8676 0.70009 0.68213 0.0
C378 C 0.88024 0.70147 0.70059 0.0
C379 C 0.88678 0.71177 0.68189 0.0
C380 C 0.87623 0.70739 0.67586 0.0
C381 C 0.88888 0.70895 0.69437 0.0
C382 C 0.8697 0.69706 0.69451 0.0
C383 C 0.85643 0.69586 0.67563 0.0
O384 O 0.83199 0.67013 0.6616 0.0
O385 O 0.82089 0.68223 0.67307 0.0
O386 O 0.84602 0.69724 0.68155 0.0
O387 O 0.85724 0.68518 0.67015 0.0
H388 H 0.83545 0.68975 0.64644 0.0
H389 H 0.82816 0.70035 0.62793 0.0
H390 H 0.79091 0.6886 0.63613 0.0
H391 H 0.79837 0.67769 0.65432 0.0
H392 H 0.81477 0.6297 0.69078 0.0
H393 H 0.82621 0.64781 0.68341 0.0
H394 H 0.83004 0.6351 0.72714 0.0
H395 H 0.84141 0.6532 0.7197 0.0
H396 H 0.88149 0.69921 0.71022 0.0
H397 H 0.89333 0.7173 0.67674 0.0
H398 H 0.87479 0.70976 0.66627 0.0
H399 H 0.86314 0.69138 0.69951 0.0
C400 C 0.81977 0.33581 0.6495 0.0
C401 C 0.82836 0.33171 0.64086 0.0
C402 C 0.81188 0.32235 0.62866 0.0
C403 C 0.82445 0.3251 0.63052 0.0
C404 C 0.80335 0.32628 0.63745 0.0
C405 C 0.80726 0.33297 0.64773 0.0
U406 U 0.84092 0.34271 0.67709 0.0
O407 O 0.84844 0.36039 0.68368 0.0
O408 O 0.8364 0.34925 0.69559 0.0
C409 C 0.84233 0.35975 0.69407 0.0
C410 C 0.82355 0.34329 0.66022 0.0
C411 C 0.8357 0.37093 0.69762 0.0
C412 C 0.81685 0.38256 0.69987 0.0
C413 C 0.82296 0.37207 0.69581 0.0
C414 C 0.83621 0.391 0.70731 0.0
C415 C 0.82339 0.39211 0.7058 0.0
C416 C 0.84227 0.38051 0.70329 0.0
C417 C 0.86765 0.32067 0.68411 0.0
C418 C 0.88597 0.32479 0.69648 0.0
C419 C 0.88056 0.30388 0.69099 0.0
C420 C 0.87019 0.3081 0.68468 0.0
C421 C 0.88868 0.31216 0.69686 0.0
C422 C 0.87554 0.329 0.69017 0.0
C423 C 0.8569 0.32478 0.67692 0.0
O424 O 0.822 0.33813 0.67106 0.0
O425 O 0.83404 0.34938 0.65927 0.0
O426 O 0.85831 0.33501 0.67056 0.0
O427 O 0.84621 0.32395 0.68247 0.0
H428 H 0.83809 0.33368 0.64204 0.0
H429 H 0.83127 0.32208 0.62401 0.0
H430 H 0.7936 0.32443 0.63624 0.0
H431 H 0.80047 0.33606 0.65425 0.0
H432 H 0.80697 0.38304 0.69864 0.0
H433 H 0.8177 0.3648 0.69141 0.0
H434 H 0.8416 0.39824 0.71159 0.0
H435 H 0.85212 0.37984 0.70471 0.0
H436 H 0.89205 0.33144 0.7008 0.0
H437 H 0.88219 0.29409 0.69129 0.0
H438 H 0.86418 0.30151 0.68013 0.0
H439 H 0.87372 0.33876 0.68989 0.0
C440 C 0.15059 0.31856 0.68417 0.0
C441 C 0.14337 0.32671 0.69092 0.0
C442 C 0.12966 0.30986 0.69706 0.0
C443 C 0.13298 0.32241 0.69728 0.0
C444 C 0.13713 0.30172 0.69051 0.0
C445 C 0.14746 0.30604 0.68411 0.0
U446 U 0.17744 0.34094 0.67791 0.0
O447 O 0.19614 0.33728 0.67136 0.0
O448 O 0.18382 0.34882 0.66032 0.0
C449 C 0.19442 0.34315 0.66091 0.0
C450 C 0.16122 0.32289 0.67691 0.0
C451 C 0.19813 0.33663 0.64971 0.0
C452 C 0.20018 0.31791 0.6378 0.0
C453 C 0.19602 0.32396 0.64831 0.0
C454 C 0.20828 0.33718 0.62986 0.0
C455 C 0.20647 0.32444 0.62849 0.0
C456 C 0.20417 0.34319 0.64037 0.0
C457 C 0.18403 0.36777 0.69982 0.0
C458 C 0.19434 0.38725 0.69534 0.0
C459 C 0.19353 0.37963 0.71628 0.0
C460 C 0.18697 0.36926 0.71229 0.0
C461 C 0.19723 0.3888 0.70786 0.0
C462 C 0.18786 0.37681 0.69134 0.0
C463 C 0.17686 0.35683 0.69596 0.0
O464 O 0.15986 0.33341 0.67109 0.0
O465 O 0.17206 0.32181 0.6822 0.0
O466 O 0.18264 0.34631 0.69675 0.0
O467 O 0.17025 0.35792 0.68585 0.0
H468 H 0.14565 0.33642 0.69113 0.0
H469 H 0.1274 0.32896 0.70213 0.0
H470 H 0.13502 0.29198 0.69032 0.0
H471 H 0.15296 0.29959 0.67903 0.0
H472 H 0.19871 0.30809 0.63713 0.0
H473 H 0.19133 0.31872 0.65541 0.0
H474 H 0.21286 0.34256 0.6228 0.0
H475 H 0.20581 0.35299 0.64125 0.0
H476 H 0.19718 0.39407 0.68861 0.0
H477 H 0.19549 0.3806 0.726 0.0
H478 H 0.1841 0.36241 0.71899 0.0
H479 H 0.1858 0.37584 0.68164 0.0
C480 C 0.14978 0.3188 0.33667 0.0
C481 C 0.14135 0.32724 0.33179 0.0
C482 C 0.12907 0.31048 0.32317 0.0
C483 C 0.13105 0.32311 0.32516 0.0
C484 C 0.13764 0.30209 0.3279 0.0
C485 C 0.14788 0.30622 0.33462 0.0
U486 U 0.1763 0.34132 0.34304 0.0
O487 O 0.18317 0.34879 0.36059 0.0
O488 O 0.19535 0.33794 0.34894 0.0
C489 C 0.19383 0.34329 0.35963 0.0
C490 C 0.16054 0.32289 0.34397 0.0
C491 C 0.19785 0.33635 0.37059 0.0
C492 C 0.20213 0.31714 0.38123 0.0
C493 C 0.19806 0.32345 0.37075 0.0
C494 C 0.20554 0.33651 0.39161 0.0
C495 C 0.20592 0.3236 0.39178 0.0
C496 C 0.20158 0.34281 0.38111 0.0
C497 C 0.181 0.369 0.32158 0.0
C498 C 0.19983 0.38118 0.31985 0.0
C499 C 0.1809 0.38856 0.31074 0.0
C500 C 0.1747 0.37805 0.31496 0.0
C501 C 0.19359 0.39021 0.313 0.0
C502 C 0.19359 0.37069 0.32413 0.0
C503 C 0.17434 0.35779 0.32545 0.0
O504 O 0.17123 0.32222 0.33844 0.0
O505 O 0.15922 0.33308 0.35024 0.0
O506 O 0.16837 0.3585 0.3359 0.0
O507 O 0.18032 0.34745 0.32421 0.0
H508 H 0.14269 0.33701 0.33313 0.0
H509 H 0.12469 0.3298 0.32151 0.0
H510 H 0.13631 0.2923 0.32662 0.0
H511 H 0.15427 0.29956 0.3383 0.0
H512 H 0.20218 0.30719 0.38112 0.0
H513 H 0.19511 0.31824 0.36278 0.0
H514 H 0.20852 0.34176 0.39954 0.0
H515 H 0.20149 0.35276 0.38118 0.0
H516 H 0.20961 0.38207 0.32168 0.0
H517 H 0.17573 0.39541 0.30572 0.0
H518 H 0.16496 0.37694 0.31298 0.0
H519 H 0.19862 0.36381 0.32927 0.0
C520 C 0.14702 0.68078 0.3213 0.0
C521 C 0.14636 0.69356 0.32279 0.0
C522 C 0.12608 0.69367 0.31297 0.0
C523 C 0.13598 0.69995 0.31864 0.0
C524 C 0.12673 0.68083 0.31179 0.0
C525 C 0.13709 0.67448 0.31589 0.0
U526 U 0.17532 0.6748 0.34196 0.0
O527 O 0.18225 0.65714 0.34903 0.0
O528 O 0.19377 0.66855 0.33688 0.0
C529 C 0.19246 0.65797 0.34263 0.0
C530 C 0.158 0.6738 0.32503 0.0
C531 C 0.19582 0.64692 0.33566 0.0
C532 C 0.19737 0.63558 0.31651 0.0
C533 C 0.19358 0.64597 0.32297 0.0
C534 C 0.20541 0.62686 0.33539 0.0
C535 C 0.20338 0.62592 0.32265 0.0
C536 C 0.20169 0.63727 0.34181 0.0
C537 C 0.18316 0.69628 0.36897 0.0
C538 C 0.19401 0.69172 0.38808 0.0
C539 C 0.19269 0.71274 0.38085 0.0
C540 C 0.18597 0.70877 0.37058 0.0
C541 C 0.1967 0.70428 0.38979 0.0
C542 C 0.18735 0.68775 0.37775 0.0
C543 C 0.17555 0.69247 0.35831 0.0
O544 O 0.16873 0.67926 0.32334 0.0
O545 O 0.15724 0.66791 0.33558 0.0
O546 O 0.1691 0.68225 0.35958 0.0
O547 O 0.18076 0.69357 0.34747 0.0
H548 H 0.15391 0.69861 0.327 0.0
H549 H 0.13586 0.70984 0.31963 0.0
H550 H 0.1192 0.67564 0.30772 0.0
H551 H 0.13738 0.6646 0.31473 0.0
H552 H 0.19553 0.63508 0.30673 0.0
H553 H 0.18899 0.65329 0.31803 0.0
H554 H 0.21014 0.61968 0.34039 0.0
H555 H 0.20353 0.63783 0.35159 0.0
H556 H 0.19708 0.68496 0.39472 0.0
H557 H 0.19449 0.72248 0.38193 0.0
H558 H 0.18281 0.71551 0.36394 0.0
H559 H 0.18539 0.67803 0.3767 0.0
C560 C 0.81807 0.65058 0.33666 0.0
C561 C 0.82638 0.64418 0.3293 0.0
C562 C 0.81006 0.62988 0.32312 0.0
C563 C 0.82242 0.63389 0.32263 0.0
C564 C 0.80176 0.63645 0.3304 0.0
C565 C 0.80574 0.64668 0.33711 0.0
U566 U 0.84002 0.67758 0.34326 0.0
O567 O 0.83608 0.69627 0.34956 0.0
O568 O 0.84748 0.68415 0.36097 0.0
C569 C 0.84159 0.6946 0.36022 0.0
C570 C 0.82207 0.66123 0.34404 0.0
C571 C 0.83462 0.69814 0.37127 0.0
C572 C 0.81541 0.70282 0.38159 0.0
C573 C 0.82171 0.69895 0.37113 0.0
C574 C 0.83476 0.70481 0.39258 0.0
C575 C 0.82187 0.70584 0.39243 0.0
C576 C 0.84106 0.70104 0.3821 0.0
C577 C 0.8672 0.6837 0.32135 0.0
C578 C 0.88524 0.69653 0.32548 0.0
C579 C 0.88095 0.68963 0.30475 0.0
C580 C 0.8704 0.68347 0.3089 0.0
C581 C 0.88859 0.69615 0.313 0.0
C582 C 0.87462 0.69037 0.32962 0.0
C583 C 0.8562 0.67679 0.32543 0.0
O584 O 0.83251 0.66 0.35006 0.0
O585 O 0.82098 0.67201 0.33869 0.0
O586 O 0.8457 0.68259 0.32446 0.0
O587 O 0.85729 0.67053 0.33574 0.0
H588 H 0.83593 0.64711 0.32876 0.0
H589 H 0.82901 0.62913 0.317 0.0
H590 H 0.79222 0.63354 0.3311 0.0
H591 H 0.79919 0.6515 0.34275 0.0
H592 H 0.80547 0.70338 0.38122 0.0
H593 H 0.81649 0.69668 0.36293 0.0
H594 H 0.84002 0.70718 0.40073 0.0
H595 H 0.85101 0.70051 0.38241 0.0
H596 H 0.89094 0.70137 0.33211 0.0
H597 H 0.88308 0.68933 0.29505 0.0
H598 H 0.86474 0.67844 0.30237 0.0
H599 H 0.87228 0.6907 0.33928 0.0
C600 C 0.83586 0.3703 0.32024 0.0
C601 C 0.82327 0.37139 0.3228 0.0
C602 C 0.82297 0.39153 0.31282 0.0
C603 C 0.81687 0.38189 0.31909 0.0
C604 C 0.83563 0.39042 0.31044 0.0
C605 C 0.84199 0.37991 0.3141 0.0
U606 U 0.84147 0.34169 0.34032 0.0
O607 O 0.8471 0.32315 0.33476 0.0
O608 O 0.85887 0.33405 0.34714 0.0
C609 C 0.85778 0.32407 0.34043 0.0
C610 C 0.84276 0.35919 0.32362 0.0
C611 C 0.86867 0.32051 0.33321 0.0
C612 C 0.88847 0.32521 0.32376 0.0
C613 C 0.87801 0.32902 0.33012 0.0
C614 C 0.88027 0.30445 0.32319 0.0
C615 C 0.88974 0.31287 0.32026 0.0
C616 C 0.86988 0.30823 0.32963 0.0
C617 C 0.81965 0.33438 0.36734 0.0
C618 C 0.82377 0.32193 0.38553 0.0
C619 C 0.80281 0.32724 0.38028 0.0
C620 C 0.80704 0.33366 0.36993 0.0
C621 C 0.81112 0.32142 0.38832 0.0
C622 C 0.828 0.32834 0.37513 0.0
C623 C 0.82381 0.34184 0.35674 0.0
O624 O 0.84879 0.35964 0.33412 0.0
O625 O 0.83705 0.34863 0.32183 0.0
O626 O 0.82253 0.33676 0.34587 0.0
O627 O 0.83432 0.34782 0.35809 0.0
H628 H 0.81837 0.3641 0.32761 0.0
H629 H 0.80716 0.38251 0.32119 0.0
H630 H 0.84059 0.39757 0.30551 0.0
H631 H 0.8517 0.37924 0.31201 0.0
H632 H 0.89553 0.33196 0.32151 0.0
H633 H 0.8773 0.33857 0.3327 0.0
H634 H 0.88101 0.29485 0.32076 0.0
H635 H 0.86282 0.30151 0.33194 0.0
H636 H 0.83046 0.31765 0.39155 0.0
H637 H 0.793 0.32685 0.38196 0.0
H638 H 0.80044 0.3382 0.36401 0.0
H639 H 0.83778 0.32873 0.37329 0.0
C640 C 0.68106 0.14898 0.69847 0.0
C641 C 0.69375 0.14787 0.6964 0.0
C642 C 0.69382 0.12815 0.70724 0.0
C643 C 0.70008 0.13756 0.70076 0.0
C644 C 0.68106 0.12925 0.70904 0.0
C645 C 0.67477 0.13956 0.70472 0.0
U646 U 0.67507 0.17634 0.67668 0.0
O647 O 0.65735 0.18331 0.66978 0.0
O648 O 0.66939 0.19514 0.68099 0.0
C649 C 0.65855 0.19375 0.67569 0.0
C650 C 0.67419 0.15992 0.69446 0.0
C651 C 0.64772 0.19763 0.68282 0.0
C652 C 0.63774 0.20257 0.70215 0.0
C653 C 0.648 0.19837 0.69572 0.0
C654 C 0.62669 0.20508 0.68293 0.0
C655 C 0.62697 0.20601 0.69582 0.0
C656 C 0.63697 0.20097 0.67652 0.0
C657 C 0.69595 0.18195 0.64863 0.0
C658 C 0.69797 0.20089 0.63678 0.0
C659 C 0.70569 0.18186 0.62856 0.0
C660 C 0.70177 0.17563 0.63914 0.0
C661 C 0.70389 0.19458 0.62725 0.0
C662 C 0.69399 0.19462 0.64735 0.0
C663 C 0.69223 0.17512 0.65979 0.0
O664 O 0.67996 0.17056 0.69546 0.0
O665 O 0.66794 0.15881 0.68415 0.0
O666 O 0.68171 0.16908 0.65907 0.0
O667 O 0.69378 0.18084 0.67031 0.0
H668 H 0.69879 0.15503 0.69155 0.0
H669 H 0.70991 0.13709 0.69928 0.0
H670 H 0.67587 0.12211 0.71374 0.0
H671 H 0.66497 0.1402 0.70634 0.0
H672 H 0.63821 0.20305 0.71208 0.0
H673 H 0.65615 0.19578 0.70083 0.0
H674 H 0.61861 0.20778 0.67776 0.0
H675 H 0.63655 0.20051 0.66657 0.0
H676 H 0.69631 0.21065 0.63601 0.0
H677 H 0.71035 0.17674 0.6215 0.0
H678 H 0.70339 0.16586 0.63996 0.0
H679 H 0.68943 0.19967 0.65454 0.0
C680 C 0.31801 0.18263 0.65149 0.0
C681 C 0.3261 0.1898 0.64435 0.0
C682 C 0.30929 0.19519 0.63045 0.0
C683 C 0.32179 0.196 0.63391 0.0
C684 C 0.30121 0.18816 0.63781 0.0
C685 C 0.30554 0.18193 0.64821 0.0
U686 U 0.34083 0.17718 0.67788 0.0
O687 O 0.33742 0.17137 0.69697 0.0
O688 O 0.34842 0.1598 0.68487 0.0
C689 C 0.34285 0.16075 0.6955 0.0
C690 C 0.32236 0.17569 0.66229 0.0
C691 C 0.33592 0.14974 0.69958 0.0
C692 C 0.31666 0.13886 0.70365 0.0
C693 C 0.32298 0.14939 0.6996 0.0
C694 C 0.33609 0.12881 0.70745 0.0
C695 C 0.32315 0.12844 0.70761 0.0
C696 C 0.3424 0.13937 0.7035 0.0
C697 C 0.36853 0.19875 0.68255 0.0
C698 C 0.37981 0.20235 0.7016 0.0
C699 C 0.38936 0.20714 0.68205 0.0
C700 C 0.37871 0.20316 0.67592 0.0
C701 C 0.39 0.20687 0.69496 0.0
C702 C 0.3692 0.19826 0.69545 0.0
C703 C 0.35731 0.19488 0.67585 0.0
O704 O 0.33272 0.16976 0.66089 0.0
O705 O 0.32166 0.18141 0.67287 0.0
O706 O 0.34684 0.19611 0.68172 0.0
O707 O 0.35804 0.18447 0.66986 0.0
H708 H 0.33577 0.19049 0.64678 0.0
H709 H 0.3283 0.20123 0.62841 0.0
H710 H 0.2915 0.18751 0.6356 0.0
H711 H 0.29914 0.1765 0.65366 0.0
H712 H 0.30669 0.13881 0.70354 0.0
H713 H 0.31776 0.15725 0.6965 0.0
H714 H 0.34136 0.12099 0.71056 0.0
H715 H 0.35238 0.13945 0.70355 0.0
H716 H 0.38009 0.20188 0.71154 0.0
H717 H 0.397 0.21068 0.67668 0.0
H718 H 0.37838 0.20362 0.66597 0.0
H719 H 0.3615 0.19478 0.70078 0.0
C720 C 0.32192 0.83673 0.648 0.0
C721 C 0.32078 0.82385 0.64845 0.0
C722 C 0.31407 0.82347 0.627 0.0
C723 C 0.31684 0.8173 0.63807 0.0
C724 C 0.31542 0.83633 0.62656 0.0
C725 C 0.31926 0.84288 0.63696 0.0
U726 U 0.34266 0.84357 0.67604 0.0
O727 O 0.34958 0.86138 0.68292 0.0
O728 O 0.33776 0.84975 0.69458 0.0
C729 C 0.34344 0.86041 0.69326 0.0
C730 C 0.3255 0.844 0.65894 0.0
C731 C 0.3366 0.87137 0.69705 0.0
C732 C 0.31753 0.88256 0.69973 0.0
C733 C 0.3238 0.87228 0.6954 0.0
C734 C 0.3368 0.89126 0.70709 0.0
C735 C 0.32394 0.89213 0.70576 0.0
C736 C 0.34303 0.88099 0.7028 0.0
C737 C 0.37034 0.82287 0.68322 0.0
C738 C 0.3802 0.8177 0.70271 0.0
C739 C 0.39177 0.81662 0.6838 0.0
C740 C 0.38141 0.82041 0.67718 0.0
C741 C 0.39128 0.81513 0.69664 0.0
C742 C 0.36984 0.82158 0.69608 0.0
C743 C 0.35943 0.82639 0.67586 0.0
O744 O 0.32398 0.83869 0.66973 0.0
O745 O 0.33589 0.85025 0.6581 0.0
O746 O 0.36046 0.83667 0.66954 0.0
O747 O 0.34861 0.82497 0.6811 0.0
H748 H 0.32284 0.81885 0.65682 0.0
H749 H 0.31604 0.80739 0.63868 0.0
H750 H 0.31323 0.84139 0.61825 0.0
H751 H 0.32003 0.8528 0.6364 0.0
H752 H 0.30763 0.88286 0.69862 0.0
H753 H 0.31864 0.86497 0.69095 0.0
H754 H 0.34209 0.89854 0.71144 0.0
H755 H 0.35291 0.88051 0.7041 0.0
H756 H 0.37955 0.81678 0.71261 0.0
H757 H 0.4001 0.81459 0.67882 0.0
H758 H 0.382 0.82129 0.66727 0.0
H759 H 0.36145 0.82348 0.70102 0.0
C760 C 0.64968 0.82002 0.68428 0.0
C761 C 0.64978 0.81954 0.6972 0.0
C762 C 0.62846 0.81229 0.69729 0.0
C763 C 0.63929 0.81566 0.70363 0.0
C764 C 0.62833 0.81298 0.68437 0.0
C765 C 0.63885 0.81677 0.67795 0.0
U766 U 0.6779 0.84076 0.67833 0.0
O767 O 0.69667 0.83588 0.67273 0.0
O768 O 0.68545 0.84778 0.66091 0.0
C769 C 0.69572 0.8416 0.66211 0.0
C770 C 0.66075 0.82359 0.6772 0.0
C771 C 0.69978 0.83467 0.65128 0.0
C772 C 0.69556 0.82292 0.63273 0.0
C773 C 0.69137 0.829 0.6432 0.0
C774 C 0.71661 0.82785 0.63847 0.0
C775 C 0.70825 0.82237 0.63017 0.0
C776 C 0.71241 0.83395 0.64887 0.0
C777 C 0.68485 0.86798 0.69973 0.0
C778 C 0.69523 0.88744 0.69529 0.0
C779 C 0.69449 0.87973 0.7162 0.0
C780 C 0.68787 0.86939 0.71219 0.0
C781 C 0.69815 0.88894 0.70781 0.0
C782 C 0.6887 0.87703 0.69127 0.0
C783 C 0.67739 0.85721 0.69587 0.0
O784 O 0.66009 0.83401 0.67108 0.0
O785 O 0.67143 0.82205 0.68272 0.0
O786 O 0.68263 0.84645 0.69721 0.0
O787 O 0.67124 0.85828 0.68549 0.0
H788 H 0.65798 0.8221 0.70233 0.0
H789 H 0.63963 0.81537 0.71358 0.0
H790 H 0.62019 0.81034 0.67921 0.0
H791 H 0.63857 0.81704 0.66799 0.0
H792 H 0.68885 0.81889 0.62651 0.0
H793 H 0.68156 0.8294 0.64491 0.0
H794 H 0.72644 0.82741 0.63696 0.0
H795 H 0.71905 0.8382 0.65503 0.0
H796 H 0.69804 0.89429 0.68858 0.0
H797 H 0.69647 0.88067 0.72592 0.0
H798 H 0.68497 0.86255 0.71888 0.0
H799 H 0.68657 0.87615 0.68158 0.0
C800 C 0.64976 0.81919 0.33877 0.0
C801 C 0.64791 0.82238 0.32638 0.0
C802 C 0.62846 0.81099 0.32618 0.0
C803 C 0.63737 0.81826 0.32012 0.0
C804 C 0.63036 0.8079 0.33861 0.0
C805 C 0.64092 0.81195 0.34484 0.0
U806 U 0.67688 0.84141 0.343 0.0
O807 O 0.68437 0.84971 0.35993 0.0
O808 O 0.696 0.83799 0.3486 0.0
C809 C 0.69491 0.84402 0.35897 0.0
C810 C 0.66076 0.82344 0.34554 0.0
C811 C 0.69912 0.83752 0.37008 0.0
C812 C 0.70042 0.81904 0.38265 0.0
C813 C 0.696 0.82514 0.3722 0.0
C814 C 0.71089 0.8377 0.38912 0.0
C815 C 0.70799 0.82522 0.39122 0.0
C816 C 0.70651 0.84376 0.37864 0.0
C817 C 0.68176 0.86769 0.32001 0.0
C818 C 0.69533 0.88525 0.32354 0.0
C819 C 0.68717 0.88139 0.30314 0.0
C820 C 0.6809 0.87101 0.30758 0.0
C821 C 0.6944 0.88871 0.31107 0.0
C822 C 0.68909 0.87482 0.32796 0.0
C823 C 0.67492 0.85682 0.32448 0.0
O824 O 0.67131 0.8222 0.33984 0.0
O825 O 0.65971 0.83409 0.35102 0.0
O826 O 0.66908 0.85816 0.33493 0.0
O827 O 0.68075 0.84635 0.32373 0.0
H828 H 0.6546 0.82807 0.32157 0.0
H829 H 0.63611 0.82092 0.31059 0.0
H830 H 0.62375 0.8022 0.3435 0.0
H831 H 0.6422 0.80942 0.3544 0.0
H832 H 0.69809 0.80941 0.38389 0.0
H833 H 0.69025 0.82017 0.3657 0.0
H834 H 0.71649 0.84283 0.39561 0.0
H835 H 0.70894 0.85334 0.3772 0.0
H836 H 0.7007 0.89072 0.32994 0.0
H837 H 0.68641 0.88362 0.29346 0.0
H838 H 0.67535 0.86556 0.30129 0.0
H839 H 0.68991 0.87236 0.33759 0.0
C840 C 0.64858 0.18229 0.3204 0.0
C841 C 0.64004 0.18652 0.32903 0.0
C842 C 0.62775 0.1957 0.31263 0.0
C843 C 0.62971 0.1931 0.32518 0.0
C844 C 0.63643 0.19164 0.30406 0.0
C845 C 0.64671 0.18498 0.3079 0.0
U846 U 0.6761 0.1755 0.34157 0.0
O847 O 0.68274 0.15782 0.34885 0.0
O848 O 0.69468 0.1692 0.33707 0.0
C849 C 0.69317 0.15863 0.34282 0.0
C850 C 0.65931 0.17488 0.32412 0.0
C851 C 0.69684 0.14755 0.33605 0.0
C852 C 0.69939 0.13615 0.31706 0.0
C853 C 0.69521 0.14654 0.32328 0.0
C854 C 0.70656 0.12756 0.33634 0.0
C855 C 0.70525 0.12658 0.3235 0.0
C856 C 0.70243 0.13794 0.34252 0.0
C857 C 0.68282 0.19742 0.36863 0.0
C858 C 0.69547 0.19338 0.38671 0.0
C859 C 0.68919 0.21415 0.38201 0.0
C860 C 0.68295 0.20993 0.37156 0.0
C861 C 0.69543 0.20593 0.38981 0.0
C862 C 0.68923 0.18916 0.37621 0.0
C863 C 0.67573 0.19329 0.35779 0.0
O864 O 0.67016 0.18017 0.32272 0.0
O865 O 0.65831 0.16871 0.33451 0.0
O866 O 0.66942 0.18297 0.35902 0.0
O867 O 0.68136 0.19427 0.34717 0.0
H868 H 0.64131 0.18467 0.33874 0.0
H869 H 0.62328 0.19623 0.33203 0.0
H870 H 0.63515 0.19337 0.29432 0.0
H871 H 0.65315 0.1818 0.30108 0.0
H872 H 0.6983 0.13578 0.30717 0.0
H873 H 0.69088 0.15384 0.31809 0.0
H874 H 0.71078 0.12029 0.34166 0.0
H875 H 0.7037 0.13851 0.35239 0.0
H876 H 0.70009 0.18677 0.39254 0.0
H877 H 0.68916 0.2239 0.38393 0.0
H878 H 0.67814 0.21646 0.36579 0.0
H879 H 0.68928 0.17945 0.37409 0.0
C880 C 0.31942 0.14933 0.33786 0.0
C881 C 0.31861 0.14959 0.32496 0.0
C882 C 0.31169 0.1282 0.32478 0.0
C883 C 0.31472 0.13914 0.31849 0.0
C884 C 0.31266 0.12795 0.33768 0.0
C885 C 0.31644 0.13841 0.34414 0.0
U886 U 0.34043 0.17733 0.3438 0.0
O887 O 0.33594 0.19589 0.35005 0.0
O888 O 0.34799 0.18427 0.36131 0.0
C889 C 0.34189 0.19459 0.36052 0.0
C890 C 0.32317 0.16027 0.345 0.0
C891 C 0.33527 0.19831 0.37167 0.0
C892 C 0.31642 0.20054 0.3834 0.0
C893 C 0.32256 0.19625 0.373 0.0
C894 C 0.33569 0.20866 0.3914 0.0
C895 C 0.32289 0.20693 0.39268 0.0
C896 C 0.34179 0.20441 0.381 0.0
C897 C 0.36726 0.18458 0.322 0.0
C898 C 0.38618 0.19584 0.32667 0.0
C899 C 0.37954 0.19351 0.30552 0.0
C900 C 0.36919 0.18684 0.30946 0.0
C901 C 0.38822 0.19799 0.31407 0.0
C902 C 0.37577 0.18925 0.33061 0.0
C903 C 0.35649 0.17712 0.32584 0.0
O904 O 0.33374 0.15947 0.35086 0.0
O905 O 0.32155 0.17102 0.3397 0.0
O906 O 0.34575 0.18249 0.32491 0.0
O907 O 0.35775 0.17071 0.33605 0.0
H908 H 0.32094 0.15787 0.31987 0.0
H909 H 0.3142 0.13959 0.30856 0.0
H910 H 0.31027 0.11971 0.34281 0.0
H911 H 0.31698 0.138 0.35408 0.0
H912 H 0.30656 0.19912 0.38402 0.0
H913 H 0.31735 0.19152 0.36591 0.0
H914 H 0.34102 0.2133 0.39845 0.0
H915 H 0.35161 0.20603 0.38018 0.0
H916 H 0.39262 0.19931 0.33349 0.0
H917 H 0.38089 0.1949 0.29575 0.0
H918 H 0.36274 0.18331 0.30267 0.0
H919 H 0.37443 0.18773 0.34036 0.0
C920 C 0.33675 0.86976 0.32047 0.0
C921 C 0.32414 0.87081 0.32298 0.0
C922 C 0.32375 0.89079 0.31269 0.0
C923 C 0.31768 0.88121 0.31907 0.0
C924 C 0.33641 0.88969 0.31031 0.0
C925 C 0.34282 0.87928 0.31415 0.0
U926 U 0.34231 0.84192 0.34155 0.0
O927 O 0.34838 0.82331 0.33701 0.0
O928 O 0.35976 0.83491 0.3491 0.0
C929 C 0.35887 0.82456 0.34298 0.0
C930 C 0.34376 0.85885 0.32429 0.0
C931 C 0.37001 0.82075 0.33639 0.0
C932 C 0.38204 0.81886 0.31768 0.0
C933 C 0.37163 0.82317 0.3238 0.0
C934 C 0.38947 0.80996 0.33673 0.0
C935 C 0.39104 0.81207 0.32405 0.0
C936 C 0.37906 0.81423 0.34281 0.0
C937 C 0.32004 0.83523 0.36827 0.0
C938 C 0.32407 0.82229 0.38613 0.0
C939 C 0.30329 0.82887 0.38169 0.0
C940 C 0.30753 0.83521 0.37129 0.0
C941 C 0.31151 0.82243 0.38933 0.0
C942 C 0.32829 0.82862 0.37568 0.0
C943 C 0.32425 0.84243 0.35753 0.0
O944 O 0.34956 0.85972 0.33488 0.0
O945 O 0.33824 0.84815 0.32271 0.0
O946 O 0.32332 0.83694 0.34683 0.0
O947 O 0.33464 0.84861 0.3589 0.0
H948 H 0.31929 0.86359 0.32794 0.0
H949 H 0.30798 0.88182 0.32118 0.0
H950 H 0.34134 0.8968 0.30528 0.0
H951 H 0.35255 0.87863 0.31212 0.0
H952 H 0.38289 0.82059 0.30791 0.0
H953 H 0.36476 0.82823 0.31867 0.0
H954 H 0.3963 0.805 0.342 0.0
H955 H 0.37802 0.81233 0.35254 0.0
H956 H 0.33068 0.81753 0.39184 0.0
H957 H 0.29354 0.82899 0.38369 0.0
H958 H 0.30101 0.84019 0.36565 0.0
H959 H 0.338 0.82848 0.37349 0.0
C960 C 0.68177 0.64959 0.19903 0.0
C961 C 0.68592 0.64091 0.19053 0.0
C962 C 0.69481 0.62868 0.20712 0.0
C963 C 0.69232 0.63053 0.19454 0.0
C964 C 0.69082 0.63751 0.21557 0.0
C965 C 0.68434 0.64782 0.21156 0.0
U966 U 0.67556 0.67691 0.17746 0.0
O967 O 0.658 0.68379 0.17006 0.0
O968 O 0.66959 0.69563 0.18172 0.0
C969 C 0.65901 0.69427 0.17594 0.0
C970 C 0.67456 0.66039 0.19513 0.0
C971 C 0.64797 0.69822 0.18264 0.0
C972 C 0.63618 0.70034 0.20146 0.0
C973 C 0.64651 0.69593 0.19527 0.0
C974 C 0.62857 0.7091 0.18242 0.0
C975 C 0.62713 0.7071 0.19514 0.0
C976 C 0.63888 0.70472 0.17627 0.0
C977 C 0.6977 0.68293 0.15039 0.0
C978 C 0.69385 0.69521 0.13203 0.0
C979 C 0.71465 0.6892 0.13718 0.0
C980 C 0.71029 0.68311 0.14766 0.0
C981 C 0.70649 0.69523 0.12914 0.0
C982 C 0.6895 0.68913 0.14257 0.0
C983 C 0.69342 0.67602 0.1613 0.0
O984 O 0.68006 0.67113 0.19641 0.0
O985 O 0.6684 0.65937 0.18474 0.0
O986 O 0.68298 0.6699 0.16013 0.0
O987 O 0.69448 0.68174 0.17186 0.0
H988 H 0.68415 0.64209 0.18079 0.0
H989 H 0.69539 0.62399 0.18779 0.0
H990 H 0.69248 0.6363 0.22533 0.0
H991 H 0.68122 0.65438 0.21828 0.0
H992 H 0.63544 0.6987 0.21126 0.0
H993 H 0.65341 0.69089 0.20036 0.0
H994 H 0.62169 0.71403 0.17719 0.0
H995 H 0.63981 0.70652 0.16651 0.0
H996 H 0.68729 0.69967 0.12602 0.0
H997 H 0.72445 0.68921 0.13542 0.0
H998 H 0.71677 0.67845 0.15362 0.0
H999 H 0.67973 0.68915 0.14453 0.0
C1000 C 0.31907 0.68262 0.15048 0.0
C1001 C 0.31943 0.69552 0.1502 0.0
C1002 C 0.31119 0.69551 0.12932 0.0
C1003 C 0.31546 0.70191 0.13973 0.0
C1004 C 0.31098 0.68259 0.12961 0.0
C1005 C 0.31484 0.67622 0.1401 0.0
U1006 U 0.34066 0.67759 0.17791 0.0
O1007 O 0.33673 0.6715 0.19679 0.0
O1008 O 0.34856 0.66039 0.18504 0.0
C1009 C 0.34253 0.66106 0.19545 0.0
C1010 C 0.32305 0.67563 0.16142 0.0
C1011 C 0.33571 0.64985 0.19918 0.0
C1012 C 0.31653 0.63868 0.20282 0.0
C1013 C 0.32278 0.64928 0.19887 0.0
C1014 C 0.33603 0.62894 0.20712 0.0
C1015 C 0.32309 0.6284 0.20702 0.0
C1016 C 0.34227 0.63959 0.20328 0.0
C1017 C 0.3672 0.70041 0.18368 0.0
C1018 C 0.38533 0.69658 0.19628 0.0
C1019 C 0.3804 0.71737 0.19012 0.0
C1020 C 0.36999 0.713 0.18385 0.0
C1021 C 0.38828 0.70922 0.19632 0.0
C1022 C 0.37487 0.69222 0.19004 0.0
C1023 C 0.35639 0.69604 0.17668 0.0
O1024 O 0.33368 0.67009 0.16042 0.0
O1025 O 0.32159 0.68099 0.1721 0.0
O1026 O 0.34578 0.6967 0.18238 0.0
O1027 O 0.35774 0.68574 0.17062 0.0
H1028 H 0.32277 0.70066 0.15805 0.0
H1029 H 0.31587 0.71185 0.13973 0.0
H1030 H 0.30763 0.6774 0.12179 0.0
H1031 H 0.3145 0.66627 0.14013 0.0
H1032 H 0.30656 0.63848 0.20249 0.0
H1033 H 0.3175 0.65704 0.19563 0.0
H1034 H 0.34134 0.62122 0.21041 0.0
H1035 H 0.35224 0.63984 0.20359 0.0
H1036 H 0.39123 0.69002 0.20084 0.0
H1037 H 0.38222 0.72717 0.19015 0.0
H1038 H 0.36413 0.71946 0.17906 0.0
H1039 H 0.37284 0.68245 0.19007 0.0
C1040 C 0.32156 0.3371 0.14819 0.0
C1041 C 0.32057 0.32421 0.14854 0.0
C1042 C 0.31374 0.32393 0.12713 0.0
C1043 C 0.31664 0.3177 0.13813 0.0
C1044 C 0.31492 0.33681 0.12679 0.0
C1045 C 0.31875 0.34331 0.13722 0.0
U1046 U 0.34215 0.34323 0.17643 0.0
O1047 O 0.34966 0.36079 0.18339 0.0
O1048 O 0.33731 0.34958 0.19491 0.0
C1049 C 0.34333 0.36005 0.19364 0.0
C1050 C 0.32523 0.3443 0.15913 0.0
C1051 C 0.33671 0.37122 0.19725 0.0
C1052 C 0.31784 0.3828 0.19969 0.0
C1053 C 0.32395 0.37237 0.19548 0.0
C1054 C 0.3372 0.39118 0.20717 0.0
C1055 C 0.32437 0.39228 0.20574 0.0
C1056 C 0.34328 0.38076 0.203 0.0
C1057 C 0.36865 0.32103 0.18375 0.0
C1058 C 0.38672 0.3251 0.19649 0.0
C1059 C 0.38161 0.30425 0.19055 0.0
C1060 C 0.3713 0.30848 0.18414 0.0
C1061 C 0.38956 0.3125 0.1967 0.0
C1062 C 0.37635 0.32932 0.19009 0.0
C1063 C 0.35804 0.32521 0.17638 0.0
O1064 O 0.32337 0.33909 0.16991 0.0
O1065 O 0.33587 0.35013 0.1584 0.0
O1066 O 0.35961 0.33548 0.17015 0.0
O1067 O 0.34723 0.32436 0.18171 0.0
H1068 H 0.32277 0.31917 0.15686 0.0
H1069 H 0.31597 0.30778 0.13866 0.0
H1070 H 0.31262 0.3419 0.11853 0.0
H1071 H 0.31941 0.35324 0.13674 0.0
H1072 H 0.30796 0.38327 0.1985 0.0
H1073 H 0.31869 0.36513 0.19102 0.0
H1074 H 0.34259 0.39837 0.21154 0.0
H1075 H 0.35313 0.38009 0.20439 0.0
H1076 H 0.39266 0.33174 0.20103 0.0
H1077 H 0.38334 0.29447 0.19071 0.0
H1078 H 0.36543 0.30192 0.17937 0.0
H1079 H 0.37445 0.33907 0.18994 0.0
C1080 C 0.65036 0.31858 0.18431 0.0
C1081 C 0.64367 0.32684 0.19148 0.0
C1082 C 0.62965 0.31033 0.19777 0.0
C1083 C 0.63337 0.32275 0.19811 0.0
C1084 C 0.6365 0.30209 0.1907 0.0
C1085 C 0.64674 0.3062 0.18402 0.0
U1086 U 0.67735 0.34066 0.1779 0.0
O1087 O 0.69609 0.33686 0.17158 0.0
O1088 O 0.68392 0.34828 0.16025 0.0
C1089 C 0.69443 0.34245 0.16097 0.0
C1090 C 0.66102 0.3227 0.17697 0.0
C1091 C 0.69799 0.33559 0.1499 0.0
C1092 C 0.70158 0.3164 0.13917 0.0
C1093 C 0.69768 0.32268 0.14963 0.0
C1094 C 0.70582 0.33582 0.12899 0.0
C1095 C 0.70574 0.3229 0.12874 0.0
C1096 C 0.70202 0.34208 0.13947 0.0
C1097 C 0.68345 0.36757 0.20006 0.0
C1098 C 0.6956 0.38607 0.19604 0.0
C1099 C 0.69 0.38068 0.21692 0.0
C1100 C 0.68385 0.37019 0.21265 0.0
C1101 C 0.69585 0.38885 0.20868 0.0
C1102 C 0.68947 0.37551 0.19177 0.0
C1103 C 0.67652 0.35663 0.19588 0.0
O1104 O 0.65975 0.33317 0.17105 0.0
O1105 O 0.67183 0.3216 0.1823 0.0
O1106 O 0.68234 0.34615 0.19676 0.0
O1107 O 0.67023 0.35779 0.18559 0.0
H1108 H 0.64638 0.33644 0.1919 0.0
H1109 H 0.62839 0.3293 0.20358 0.0
H1110 H 0.63382 0.2925 0.19012 0.0
H1111 H 0.65178 0.29969 0.17854 0.0
H1112 H 0.70126 0.30646 0.13922 0.0
H1113 H 0.69451 0.31744 0.15752 0.0
H1114 H 0.70909 0.3411 0.12116 0.0
H1115 H 0.70234 0.35203 0.13949 0.0
H1116 H 0.69991 0.39218 0.18941 0.0
H1117 H 0.6902 0.38236 0.22672 0.0
H1118 H 0.67933 0.36413 0.2192 0.0
H1119 H 0.68931 0.37363 0.182 0.0
C1120 C 0.64915 0.32035 0.8383 0.0
C1121 C 0.64861 0.32106 0.82541 0.0
C1122 C 0.62783 0.31239 0.82554 0.0
C1123 C 0.63808 0.31705 0.81909 0.0
C1124 C 0.62834 0.31189 0.83845 0.0
C1125 C 0.63892 0.3158 0.84476 0.0
U1126 U 0.67676 0.3419 0.84313 0.0
O1127 O 0.68478 0.34942 0.86013 0.0
O1128 O 0.6959 0.33773 0.84826 0.0
C1129 C 0.69514 0.34344 0.85883 0.0
C1130 C 0.66027 0.32421 0.84516 0.0
C1131 C 0.6993 0.33642 0.86964 0.0
C1132 C 0.69524 0.32247 0.88672 0.0
C1133 C 0.69111 0.32895 0.87637 0.0
C1134 C 0.71582 0.33068 0.88358 0.0
C1135 C 0.70765 0.32327 0.89045 0.0
C1136 C 0.71167 0.3372 0.87329 0.0
C1137 C 0.6815 0.369 0.82089 0.0
C1138 C 0.70045 0.38091 0.81865 0.0
C1139 C 0.68146 0.38837 0.80973 0.0
C1140 C 0.67521 0.37801 0.81421 0.0
C1141 C 0.69419 0.38992 0.81179 0.0
C1142 C 0.69415 0.37055 0.82318 0.0
C1143 C 0.6747 0.35807 0.82527 0.0
O1144 O 0.67081 0.32293 0.83943 0.0
O1145 O 0.65949 0.33466 0.85108 0.0
O1146 O 0.66921 0.35921 0.83593 0.0
O1147 O 0.68027 0.3475 0.82402 0.0
H1148 H 0.65635 0.32467 0.82022 0.0
H1149 H 0.6379 0.31769 0.80915 0.0
H1150 H 0.62064 0.30825 0.84367 0.0
H1151 H 0.63914 0.31519 0.85471 0.0
H1152 H 0.68875 0.31674 0.89172 0.0
H1153 H 0.68153 0.32815 0.87363 0.0
H1154 H 0.7254 0.3316 0.88628 0.0
H1155 H 0.71812 0.34291 0.8682 0.0
H1156 H 0.71026 0.38173 0.82032 0.0
H1157 H 0.67628 0.39522 0.80471 0.0
H1158 H 0.66542 0.37701 0.81244 0.0
H1159 H 0.69918 0.36371 0.82838 0.0
C1160 C 0.64961 0.68269 0.81961 0.0
C1161 C 0.64219 0.68895 0.82798 0.0
C1162 C 0.62876 0.6957 0.81125 0.0
C1163 C 0.63185 0.69538 0.82385 0.0
C1164 C 0.63642 0.68962 0.80291 0.0
C1165 C 0.6467 0.68317 0.80705 0.0
U1166 U 0.67632 0.67556 0.84181 0.0
O1167 O 0.68263 0.65766 0.84879 0.0
O1168 O 0.69503 0.66929 0.83776 0.0
C1169 C 0.69325 0.65856 0.84312 0.0
C1170 C 0.66022 0.67536 0.8237 0.0
C1171 C 0.69693 0.64768 0.83607 0.0
C1172 C 0.69868 0.63647 0.81687 0.0
C1173 C 0.69482 0.64682 0.82335 0.0
C1174 C 0.70657 0.62766 0.83578 0.0
C1175 C 0.70462 0.62676 0.82302 0.0
C1176 C 0.70277 0.63801 0.84222 0.0
C1177 C 0.68232 0.69609 0.86993 0.0
C1178 C 0.70136 0.6977 0.88174 0.0
C1179 C 0.68241 0.70553 0.89013 0.0
C1180 C 0.67609 0.70184 0.87952 0.0
C1181 C 0.69514 0.70357 0.89135 0.0
C1182 C 0.69499 0.69394 0.87114 0.0
C1183 C 0.67543 0.69267 0.85871 0.0
O1184 O 0.67106 0.6808 0.82291 0.0
O1185 O 0.65877 0.66905 0.83394 0.0
O1186 O 0.66899 0.68239 0.85932 0.0
O1187 O 0.68132 0.69407 0.84825 0.0
H1188 H 0.64429 0.68873 0.83773 0.0
H1189 H 0.62612 0.69985 0.83055 0.0
H1190 H 0.6345 0.68986 0.79313 0.0
H1191 H 0.65236 0.67846 0.80044 0.0
H1192 H 0.69692 0.63602 0.80708 0.0
H1193 H 0.69024 0.65415 0.81843 0.0
H1194 H 0.71125 0.62044 0.84078 0.0
H1195 H 0.70449 0.63851 0.85202 0.0
H1196 H 0.71112 0.69592 0.88245 0.0
H1197 H 0.67737 0.71015 0.89727 0.0
H1198 H 0.66632 0.7036 0.87875 0.0
H1199 H 0.69998 0.68943 0.86388 0.0
C1200 C 0.31897 0.6498 0.83751 0.0
C1201 C 0.31876 0.64993 0.82459 0.0
C1202 C 0.31125 0.62874 0.82433 0.0
C1203 C 0.31488 0.63952 0.81807 0.0
C1204 C 0.31168 0.62859 0.83725 0.0
C1205 C 0.31546 0.63903 0.84376 0.0
U1206 U 0.33992 0.67774 0.8437 0.0
O1207 O 0.33509 0.69652 0.84922 0.0
O1208 O 0.34684 0.68526 0.86116 0.0
C1209 C 0.34056 0.69546 0.85997 0.0
C1210 C 0.32253 0.66081 0.84465 0.0
C1211 C 0.33325 0.69919 0.87071 0.0
C1212 C 0.32224 0.69441 0.88962 0.0
C1213 C 0.32875 0.69055 0.87928 0.0
C1214 C 0.32436 0.71554 0.88281 0.0
C1215 C 0.32001 0.70697 0.89153 0.0
C1216 C 0.33094 0.71169 0.87254 0.0
C1217 C 0.36763 0.68356 0.8223 0.0
C1218 C 0.37941 0.70257 0.81994 0.0
C1219 C 0.38721 0.68361 0.81163 0.0
C1220 C 0.37684 0.67731 0.81601 0.0
C1221 C 0.38859 0.69635 0.81341 0.0
C1222 C 0.36902 0.69622 0.82436 0.0
C1223 C 0.35662 0.67665 0.82636 0.0
O1224 O 0.33287 0.66006 0.85093 0.0
O1225 O 0.32116 0.67147 0.83911 0.0
O1226 O 0.34599 0.68214 0.82492 0.0
O1227 O 0.35762 0.67085 0.83694 0.0
H1228 H 0.32152 0.65809 0.81951 0.0
H1229 H 0.3148 0.63989 0.80811 0.0
H1230 H 0.30884 0.62048 0.84235 0.0
H1231 H 0.31553 0.63873 0.85372 0.0
H1232 H 0.31889 0.68757 0.89608 0.0
H1233 H 0.33031 0.68083 0.87803 0.0
H1234 H 0.32291 0.72528 0.88407 0.0
H1235 H 0.33434 0.7185 0.86606 0.0
H1236 H 0.38012 0.71238 0.82141 0.0
H1237 H 0.39419 0.67846 0.80688 0.0
H1238 H 0.37597 0.66752 0.8144 0.0
H1239 H 0.36202 0.70121 0.82925 0.0
C1240 C 0.33663 0.37024 0.82057 0.0
C1241 C 0.32401 0.37126 0.82306 0.0
C1242 C 0.32359 0.39127 0.81284 0.0
C1243 C 0.31753 0.38166 0.81919 0.0
C1244 C 0.33625 0.39022 0.81048 0.0
C1245 C 0.34269 0.37981 0.81429 0.0
U1246 U 0.34225 0.34225 0.84146 0.0
O1247 O 0.34845 0.32373 0.83677 0.0
O1248 O 0.35973 0.33529 0.84898 0.0
C1249 C 0.35894 0.32501 0.84274 0.0
C1250 C 0.34366 0.35934 0.82434 0.0
C1251 C 0.37012 0.32139 0.83609 0.0
C1252 C 0.38191 0.31933 0.81725 0.0
C1253 C 0.37144 0.32345 0.8234 0.0
C1254 C 0.38999 0.31135 0.83644 0.0
C1255 C 0.39128 0.31311 0.82368 0.0
C1256 C 0.37952 0.31543 0.84255 0.0
C1257 C 0.31986 0.33526 0.86805 0.0
C1258 C 0.32378 0.32269 0.88621 0.0
C1259 C 0.30294 0.32856 0.8811 0.0
C1260 C 0.30726 0.33488 0.87073 0.0
C1261 C 0.31115 0.3225 0.88907 0.0
C1262 C 0.3281 0.329 0.87578 0.0
C1263 C 0.32414 0.34252 0.85738 0.0
O1264 O 0.34942 0.36015 0.83496 0.0
O1265 O 0.33819 0.34863 0.82266 0.0
O1266 O 0.32327 0.33711 0.84663 0.0
O1267 O 0.33449 0.34874 0.85884 0.0
H1268 H 0.31917 0.36401 0.82798 0.0
H1269 H 0.30782 0.38224 0.82128 0.0
H1270 H 0.34118 0.39735 0.80549 0.0
H1271 H 0.35242 0.37919 0.81227 0.0
H1272 H 0.38252 0.32076 0.80741 0.0
H1273 H 0.36431 0.32807 0.81822 0.0
H1274 H 0.3971 0.30684 0.84175 0.0
H1275 H 0.37872 0.31382 0.85236 0.0
H1276 H 0.33039 0.31822 0.89217 0.0
H1277 H 0.29313 0.32842 0.88285 0.0
H1278 H 0.30075 0.33959 0.86485 0.0
H1279 H 0.33788 0.32914 0.87386 0.0
C1280 C 0.25269 0.23882 0.05177 0.0
C1281 C 0.23986 0.23753 0.05308 0.0
C1282 C 0.25772 0.24415 0.04116 0.0
C1283 C 0.25003 0.24852 0.03171 0.0
C1284 C 0.23219 0.24172 0.04352 0.0
C1285 C 0.23723 0.24712 0.03295 0.0
C1286 C 0.25518 0.25402 0.02027 0.0
C1287 C 0.26704 0.27886 0.05113 0.0
C1288 C 0.27986 0.28016 0.05266 0.0
C1289 C 0.26211 0.27333 0.04059 0.0
C1290 C 0.26988 0.26874 0.03145 0.0
C1291 C 0.28761 0.27579 0.04337 0.0
C1292 C 0.28267 0.27018 0.03287 0.0
C1293 C 0.26477 0.26295 0.02014 0.0
C1294 C 0.26622 0.27897 0.96712 0.0
C1295 C 0.27901 0.27978 0.96517 0.0
C1296 C 0.26151 0.27342 0.97776 0.0
C1297 C 0.26947 0.26844 0.98665 0.0
C1298 C 0.28695 0.27487 0.97415 0.0
C1299 C 0.28223 0.26935 0.98481 0.0
C1300 C 0.26458 0.26282 0.99813 0.0
C1301 C 0.25157 0.23849 0.96712 0.0
C1302 C 0.23868 0.23762 0.96586 0.0
C1303 C 0.25691 0.2438 0.97759 0.0
C1304 C 0.24949 0.24851 0.98696 0.0
C1305 C 0.2313 0.24223 0.97534 0.0
C1306 C 0.23664 0.24754 0.98578 0.0
C1307 C 0.25495 0.25395 0.99827 0.0
H1308 H 0.25886 0.23547 0.05885 0.0
H1309 H 0.26764 0.24471 0.04029 0.0
H1310 H 0.22227 0.24095 0.04425 0.0
H1311 H 0.23109 0.2503 0.02576 0.0
H1312 H 0.2608 0.28235 0.05797 0.0
H1313 H 0.2522 0.27276 0.03955 0.0
H1314 H 0.29752 0.27658 0.04428 0.0
H1315 H 0.28886 0.26685 0.0259 0.0
H1316 H 0.25983 0.28258 0.96038 0.0
H1317 H 0.25164 0.27314 0.97908 0.0
H1318 H 0.29684 0.2755 0.97305 0.0
H1319 H 0.28856 0.26572 0.99161 0.0
H1320 H 0.25754 0.23484 0.96013 0.0
H1321 H 0.26685 0.24408 0.97843 0.0
H1322 H 0.22135 0.24187 0.97463 0.0
H1323 H 0.23071 0.25102 0.99291 0.0
N1324 N 0.25062 0.24997 0.00932 0.0
N1325 N 0.26914 0.2669 0.00907 0.0
C1326 C 0.76799 0.24055 0.96856 0.0
C1327 C 0.7809 0.24015 0.9675 0.0
C1328 C 0.76253 0.24565 0.97895 0.0
C1329 C 0.76983 0.25058 0.98845 0.0
C1330 C 0.78816 0.24501 0.9771 0.0
C1331 C 0.78269 0.25008 0.98748 0.0
C1332 C 0.76423 0.2558 0.99965 0.0
C1333 C 0.75326 0.28062 0.96833 0.0
C1334 C 0.74048 0.28089 0.96609 0.0
C1335 C 0.75792 0.27528 0.97908 0.0
C1336 C 0.74992 0.27 0.98779 0.0
C1337 C 0.73251 0.27569 0.97491 0.0
C1338 C 0.73718 0.27039 0.98567 0.0
C1339 C 0.7547 0.26453 0.99934 0.0
C1340 C 0.75155 0.27985 0.05248 0.0
C1341 C 0.73876 0.28136 0.0535 0.0
C1342 C 0.75658 0.27442 0.04205 0.0
C1343 C 0.7489 0.27013 0.03251 0.0
C1344 C 0.73111 0.27731 0.04383 0.0
C1345 C 0.73614 0.27178 0.03344 0.0
C1346 C 0.75411 0.26447 0.02131 0.0
C1347 C 0.76416 0.23936 0.05264 0.0
C1348 C 0.77687 0.23784 0.05456 0.0
C1349 C 0.75977 0.24512 0.042 0.0
C1350 C 0.768 0.2497 0.03311 0.0
C1351 C 0.78508 0.24228 0.04555 0.0
C1352 C 0.78068 0.2481 0.03494 0.0
C1353 C 0.76347 0.25554 0.02161 0.0
H1354 H 0.7621 0.23669 0.96148 0.0
H1355 H 0.75258 0.24558 0.97962 0.0
H1356 H 0.79811 0.24502 0.97656 0.0
H1357 H 0.78852 0.25376 0.99472 0.0
H1358 H 0.75966 0.28476 0.96189 0.0
H1359 H 0.76777 0.27543 0.98066 0.0
H1360 H 0.72264 0.2756 0.97345 0.0
H1361 H 0.73083 0.26644 0.9923 0.0
H1362 H 0.75771 0.28311 0.05964 0.0
H1363 H 0.76648 0.2737 0.0414 0.0
H1364 H 0.72122 0.27827 0.04435 0.0
H1365 H 0.73003 0.26868 0.02617 0.0
H1366 H 0.75756 0.23614 0.0594 0.0
H1367 H 0.74992 0.24588 0.04067 0.0
H1368 H 0.79491 0.24107 0.04658 0.0
H1369 H 0.78721 0.25137 0.02814 0.0
N1370 N 0.76824 0.25168 0.01078 0.0
N1371 N 0.75001 0.2685 0.01017 0.0
C1372 C 0.76618 0.77937 0.05134 0.0
C1373 C 0.77899 0.78078 0.05296 0.0
C1374 C 0.76136 0.77369 0.04084 0.0
C1375 C 0.76921 0.76908 0.03178 0.0
C1376 C 0.78683 0.77629 0.04379 0.0
C1377 C 0.78199 0.77057 0.0333 0.0
C1378 C 0.76418 0.76331 0.02043 0.0
C1379 C 0.75249 0.73847 0.0516 0.0
C1380 C 0.73967 0.73755 0.0533 0.0
C1381 C 0.75735 0.74401 0.04102 0.0
C1382 C 0.74951 0.74885 0.03194 0.0
C1383 C 0.73185 0.74232 0.04414 0.0
C1384 C 0.73672 0.74783 0.03354 0.0
C1385 C 0.75454 0.75444 0.02051 0.0
C1386 C 0.751 0.73865 0.96752 0.0
C1387 C 0.73812 0.73816 0.96608 0.0
C1388 C 0.75636 0.74393 0.978 0.0
C1389 C 0.74895 0.74897 0.9872 0.0
C1390 C 0.73075 0.7431 0.97539 0.0
C1391 C 0.73611 0.74837 0.98585 0.0
C1392 C 0.75441 0.75439 0.99851 0.0
C1393 C 0.76686 0.77847 0.96699 0.0
C1394 C 0.7797 0.77957 0.96567 0.0
C1395 C 0.76175 0.77315 0.97758 0.0
C1396 C 0.76939 0.76857 0.98698 0.0
C1397 C 0.78731 0.77517 0.97519 0.0
C1398 C 0.7822 0.76977 0.98573 0.0
C1399 C 0.76415 0.76315 0.99842 0.0
H1400 H 0.75985 0.78262 0.05821 0.0
H1401 H 0.75146 0.77303 0.03975 0.0
H1402 H 0.79672 0.77739 0.0446 0.0
H1403 H 0.78824 0.76726 0.02637 0.0
H1404 H 0.75878 0.73496 0.05848 0.0
H1405 H 0.76725 0.7444 0.03988 0.0
H1406 H 0.72195 0.7416 0.04506 0.0
H1407 H 0.73049 0.75134 0.0266 0.0
H1408 H 0.75696 0.73473 0.96066 0.0
H1409 H 0.76628 0.74395 0.97897 0.0
H1410 H 0.72081 0.74305 0.97455 0.0
H1411 H 0.73019 0.75211 0.99285 0.0
H1412 H 0.76073 0.78199 0.95996 0.0
H1413 H 0.75183 0.77278 0.97847 0.0
H1414 H 0.79723 0.77579 0.97444 0.0
H1415 H 0.7883 0.76643 0.99289 0.0
N1416 N 0.76866 0.76721 0.00939 0.0
N1417 N 0.74999 0.75044 0.00955 0.0
C1418 C 0.26603 0.741 0.96818 0.0
C1419 C 0.27886 0.73985 0.96704 0.0
C1420 C 0.26094 0.74604 0.97878 0.0
C1421 C 0.26858 0.7503 0.98836 0.0
C1422 C 0.28646 0.74383 0.97677 0.0
C1423 C 0.28137 0.74896 0.98732 0.0
C1424 C 0.26339 0.75573 0.99969 0.0
C1425 C 0.25229 0.78057 0.96845 0.0
C1426 C 0.23951 0.78188 0.96693 0.0
C1427 C 0.25708 0.77505 0.97905 0.0
C1428 C 0.24917 0.77047 0.98823 0.0
C1429 C 0.23163 0.77754 0.97625 0.0
C1430 C 0.23642 0.77192 0.98679 0.0
C1431 C 0.25408 0.76473 0.99962 0.0
C1432 C 0.25266 0.7808 0.05241 0.0
C1433 C 0.23989 0.78155 0.05429 0.0
C1434 C 0.2573 0.7753 0.04183 0.0
C1435 C 0.24926 0.77035 0.03294 0.0
C1436 C 0.23187 0.7767 0.04531 0.0
C1437 C 0.23651 0.77124 0.0347 0.0
C1438 C 0.25407 0.76466 0.0216 0.0
C1439 C 0.26537 0.74036 0.0531 0.0
C1440 C 0.27815 0.7389 0.05448 0.0
C1441 C 0.26051 0.74576 0.04247 0.0
C1442 C 0.26834 0.75005 0.0331 0.0
C1443 C 0.28595 0.74298 0.04499 0.0
C1444 C 0.28109 0.74847 0.0344 0.0
C1445 C 0.26335 0.75565 0.02168 0.0
H1446 H 0.25992 0.73781 0.96094 0.0
H1447 H 0.25102 0.74655 0.9795 0.0
H1448 H 0.29638 0.74316 0.97616 0.0
H1449 H 0.28746 0.75206 0.99461 0.0
H1450 H 0.25861 0.78404 0.96155 0.0
H1451 H 0.26697 0.77447 0.98012 0.0
H1452 H 0.22174 0.77836 0.97532 0.0
H1453 H 0.23014 0.76859 0.9938 0.0
H1454 H 0.2591 0.78437 0.05917 0.0
H1455 H 0.26717 0.775 0.04056 0.0
H1456 H 0.22199 0.77729 0.04637 0.0
H1457 H 0.23014 0.76763 0.0279 0.0
H1458 H 0.2591 0.73708 0.06013 0.0
H1459 H 0.25061 0.74642 0.04153 0.0
H1460 H 0.29584 0.74205 0.0458 0.0
H1461 H 0.28732 0.75159 0.02726 0.0
N1462 N 0.26768 0.75163 0.01072 0.0
N1463 N 0.24975 0.76876 0.01058 0.0
C1464 C 0.96589 0.24129 0.24968 0.0
C1465 C 0.96458 0.24139 0.2368 0.0
C1466 C 0.97667 0.24576 0.25524 0.0
C1467 C 0.98629 0.25063 0.24806 0.0
C1468 C 0.97439 0.24595 0.22964 0.0
C1469 C 0.98513 0.25048 0.23521 0.0
C1470 C 0.99777 0.2555 0.25377 0.0
C1471 C 0.96699 0.27946 0.26675 0.0
C1472 C 0.96542 0.27965 0.27957 0.0
C1473 C 0.97753 0.27438 0.26158 0.0
C1474 C 0.98664 0.26913 0.26912 0.0
C1475 C 0.9747 0.27467 0.28711 0.0
C1476 C 0.98519 0.26951 0.28193 0.0
C1477 C 0.99792 0.2637 0.26382 0.0
C1478 C 0.05162 0.278 0.26815 0.0
C1479 C 0.05275 0.27828 0.28103 0.0
C1480 C 0.04099 0.27318 0.2626 0.0
C1481 C 0.03139 0.26826 0.26981 0.0
C1482 C 0.04304 0.27361 0.28822 0.0
C1483 C 0.03247 0.26868 0.28266 0.0
C1484 C 0.01994 0.26328 0.26414 0.0
C1485 C 0.05096 0.23992 0.25048 0.0
C1486 C 0.05247 0.2402 0.23763 0.0
C1487 C 0.04034 0.24465 0.25587 0.0
C1488 C 0.03108 0.24993 0.24855 0.0
C1489 C 0.043 0.24517 0.23033 0.0
C1490 C 0.03243 0.24993 0.23572 0.0
C1491 C 0.01979 0.25512 0.25405 0.0
H1492 H 0.95852 0.2379 0.25549 0.0
H1493 H 0.97747 0.2454 0.26516 0.0
H1494 H 0.97385 0.24592 0.2197 0.0
H1495 H 0.9925 0.25399 0.22946 0.0
H1496 H 0.96014 0.28343 0.26069 0.0
H1497 H 0.9786 0.27464 0.2517 0.0
H1498 H 0.97376 0.27459 0.29701 0.0
H1499 H 0.99213 0.26565 0.28796 0.0
H1500 H 0.05886 0.28173 0.26237 0.0
H1501 H 0.04022 0.27342 0.25267 0.0
H1502 H 0.04366 0.27364 0.29816 0.0
H1503 H 0.02515 0.26508 0.28843 0.0
H1504 H 0.05805 0.23621 0.25641 0.0
H1505 H 0.0394 0.2442 0.26576 0.0
H1506 H 0.0437 0.2453 0.22041 0.0
H1507 H 0.02534 0.25376 0.22985 0.0
N1508 N 0.00871 0.25164 0.24924 0.0
N1509 N 0.009 0.26716 0.26864 0.0
C1510 C 0.73738 0.96682 0.26504 0.0
C1511 C 0.73663 0.96464 0.27777 0.0
C1512 C 0.74305 0.9775 0.26052 0.0
C1513 C 0.74816 0.98619 0.26862 0.0
C1514 C 0.74169 0.97339 0.28587 0.0
C1515 C 0.74731 0.9841 0.28133 0.0
C1516 C 0.75389 0.99771 0.26394 0.0
C1517 C 0.77877 0.96728 0.25234 0.0
C1518 C 0.77974 0.96571 0.23956 0.0
C1519 C 0.77318 0.97769 0.25717 0.0
C1520 C 0.76832 0.98674 0.24934 0.0
C1521 C 0.77494 0.97483 0.23173 0.0
C1522 C 0.76938 0.98527 0.23657 0.0
C1523 C 0.7627 0.99799 0.25441 0.0
C1524 C 0.78005 0.05052 0.25395 0.0
C1525 C 0.78045 0.05292 0.24123 0.0
C1526 C 0.77429 0.03987 0.25845 0.0
C1527 C 0.76874 0.03145 0.25035 0.0
C1528 C 0.77493 0.04443 0.23314 0.0
C1529 C 0.76922 0.03375 0.23766 0.0
C1530 C 0.76297 0.01994 0.255 0.0
C1531 C 0.73979 0.05101 0.26875 0.0
C1532 C 0.73955 0.05203 0.28164 0.0
C1533 C 0.74455 0.04054 0.26317 0.0
C1534 C 0.74924 0.03088 0.27036 0.0
C1535 C 0.74406 0.04224 0.28879 0.0
C1536 C 0.74878 0.03177 0.28321 0.0
C1537 C 0.75427 0.01965 0.26464 0.0
H1538 H 0.73362 0.96024 0.25856 0.0
H1539 H 0.74332 0.97902 0.25067 0.0
H1540 H 0.74111 0.97207 0.29573 0.0
H1541 H 0.75106 0.99074 0.28776 0.0
H1542 H 0.78229 0.96042 0.25865 0.0
H1543 H 0.77279 0.97872 0.26706 0.0
H1544 H 0.7757 0.97401 0.22184 0.0
H1545 H 0.76585 0.9922 0.23034 0.0
H1546 H 0.78415 0.0569 0.26043 0.0
H1547 H 0.77431 0.03816 0.26827 0.0
H1548 H 0.77524 0.04592 0.2233 0.0
H1549 H 0.76514 0.0273 0.23124 0.0
H1550 H 0.73643 0.05838 0.26296 0.0
H1551 H 0.74449 0.03996 0.25324 0.0
H1552 H 0.74382 0.04261 0.29873 0.0
H1553 H 0.75219 0.02438 0.28896 0.0
N1554 N 0.75011 0.00854 0.26874 0.0
N1555 N 0.76681 0.00911 0.25025 0.0
C1556 C 0.05104 0.77955 0.25215 0.0
C1557 C 0.05229 0.77978 0.23927 0.0
C1558 C 0.04043 0.7746 0.25761 0.0
C1559 C 0.03089 0.76967 0.25032 0.0
C1560 C 0.04264 0.77493 0.23202 0.0
C1561 C 0.03204 0.77002 0.23749 0.0
C1562 C 0.01946 0.76459 0.2559 0.0
C1563 C 0.04995 0.73946 0.26759 0.0
C1564 C 0.05185 0.73851 0.28037 0.0
C1565 C 0.03949 0.74518 0.26283 0.0
C1566 C 0.03074 0.75029 0.27072 0.0
C1567 C 0.043 0.74352 0.28825 0.0
C1568 C 0.03254 0.74928 0.28347 0.0
C1569 C 0.0194 0.75605 0.26576 0.0
C1570 C 0.96647 0.73972 0.26796 0.0
C1571 C 0.96456 0.73927 0.28074 0.0
C1572 C 0.97705 0.74531 0.26311 0.0
C1573 C 0.98591 0.75069 0.27091 0.0
C1574 C 0.97348 0.74461 0.28854 0.0
C1575 C 0.98409 0.75017 0.28367 0.0
C1576 C 0.99737 0.75624 0.26586 0.0
C1577 C 0.96627 0.78002 0.25238 0.0
C1578 C 0.96495 0.7805 0.2395 0.0
C1579 C 0.97676 0.77488 0.2578 0.0
C1580 C 0.98609 0.76998 0.25046 0.0
C1581 C 0.97438 0.77566 0.23221 0.0
C1582 C 0.98484 0.77054 0.23763 0.0
C1583 C 0.99744 0.76476 0.25599 0.0
H1584 H 0.05817 0.7834 0.25801 0.0
H1585 H 0.03963 0.77476 0.26753 0.0
H1586 H 0.04332 0.77479 0.2221 0.0
H1587 H 0.02479 0.76633 0.23167 0.0
H1588 H 0.05659 0.73581 0.26122 0.0
H1589 H 0.03817 0.74546 0.25296 0.0
H1590 H 0.04402 0.74278 0.29813 0.0
H1591 H 0.02584 0.75296 0.28976 0.0
H1592 H 0.95977 0.73577 0.26168 0.0
H1593 H 0.97837 0.74529 0.25325 0.0
H1594 H 0.97239 0.74426 0.29842 0.0
H1595 H 0.99087 0.75411 0.28988 0.0
H1596 H 0.95932 0.78385 0.25829 0.0
H1597 H 0.97764 0.77492 0.26772 0.0
H1598 H 0.97363 0.7757 0.22228 0.0
H1599 H 0.99193 0.76688 0.23176 0.0
N1600 N 0.00849 0.76852 0.25138 0.0
N1601 N 0.00835 0.75229 0.2704 0.0
C1602 C 0.25099 0.96716 0.24032 0.0
C1603 C 0.23812 0.96543 0.24034 0.0
C1604 C 0.25634 0.97775 0.2454 0.0
C1605 C 0.24896 0.98677 0.25074 0.0
C1606 C 0.23078 0.97455 0.24561 0.0
C1607 C 0.23613 0.98511 0.25068 0.0
C1608 C 0.2544 0.99821 0.25588 0.0
C1609 C 0.26855 0.96723 0.2796 0.0
C1610 C 0.28145 0.96607 0.27957 0.0
C1611 C 0.26297 0.97766 0.27459 0.0
C1612 C 0.27014 0.98711 0.26931 0.0
C1613 C 0.28859 0.97563 0.27437 0.0
C1614 C 0.283 0.98604 0.26938 0.0
C1615 C 0.26443 0.99839 0.26422 0.0
C1616 C 0.26592 0.05133 0.28037 0.0
C1617 C 0.27872 0.05322 0.2813 0.0
C1618 C 0.2611 0.04068 0.27495 0.0
C1619 C 0.26898 0.0318 0.27008 0.0
C1620 C 0.28659 0.0442 0.27666 0.0
C1621 C 0.28176 0.0336 0.27114 0.0
C1622 C 0.264 0.02037 0.26444 0.0
C1623 C 0.25072 0.05163 0.24088 0.0
C1624 C 0.23785 0.05271 0.24012 0.0
C1625 C 0.25605 0.04108 0.24591 0.0
C1626 C 0.24862 0.03147 0.25053 0.0
C1627 C 0.23044 0.04294 0.24447 0.0
C1628 C 0.23577 0.03244 0.24958 0.0
C1629 C 0.25411 0.02019 0.2559 0.0
H1630 H 0.25692 0.96045 0.23614 0.0
H1631 H 0.26624 0.97896 0.24499 0.0
H1632 H 0.22086 0.97347 0.24595 0.0
H1633 H 0.23024 0.99197 0.25467 0.0
H1634 H 0.26276 0.96018 0.28373 0.0
H1635 H 0.25305 0.97841 0.275 0.0
H1636 H 0.29852 0.97501 0.27403 0.0
H1637 H 0.28875 0.99324 0.26544 0.0
H1638 H 0.25961 0.05796 0.28409 0.0
H1639 H 0.25121 0.03934 0.27469 0.0
H1640 H 0.29649 0.0454 0.27717 0.0
H1641 H 0.28803 0.02683 0.26759 0.0
H1642 H 0.2567 0.05887 0.23739 0.0
H1643 H 0.26599 0.04042 0.2461 0.0
H1644 H 0.2205 0.0435 0.2441 0.0
H1645 H 0.22983 0.02511 0.25295 0.0
N1646 N 0.24964 0.00911 0.25209 0.0
N1647 N 0.26884 0.00946 0.26812 0.0
C1648 C 0.96681 0.74044 0.74965 0.0
C1649 C 0.96506 0.74143 0.73686 0.0
C1650 C 0.97753 0.74508 0.75518 0.0
C1651 C 0.98668 0.75087 0.74805 0.0
C1652 C 0.97432 0.74707 0.72974 0.0
C1653 C 0.98506 0.75166 0.73527 0.0
C1654 C 0.99816 0.75569 0.75376 0.0
C1655 C 0.96733 0.77891 0.76778 0.0
C1656 C 0.96587 0.77881 0.78062 0.0
C1657 C 0.97783 0.77395 0.76241 0.0
C1658 C 0.987 0.76853 0.76975 0.0
C1659 C 0.97518 0.77363 0.78795 0.0
C1660 C 0.98563 0.76858 0.78258 0.0
C1661 C 0.9983 0.76337 0.76422 0.0
C1662 C 0.05172 0.77792 0.76915 0.0
C1663 C 0.05338 0.77659 0.78192 0.0
C1664 C 0.04103 0.77346 0.76342 0.0
C1665 C 0.0318 0.76753 0.77034 0.0
C1666 C 0.04405 0.77078 0.78883 0.0
C1667 C 0.03334 0.76638 0.7831 0.0
C1668 C 0.02031 0.76295 0.76446 0.0
C1669 C 0.05105 0.73985 0.74979 0.0
C1670 C 0.05276 0.7409 0.73701 0.0
C1671 C 0.04051 0.74455 0.75534 0.0
C1672 C 0.03149 0.75049 0.74824 0.0
C1673 C 0.0436 0.74667 0.72992 0.0
C1674 C 0.03306 0.75133 0.73547 0.0
C1675 C 0.02017 0.75539 0.75393 0.0
H1676 H 0.95983 0.73619 0.7554 0.0
H1677 H 0.97869 0.74409 0.76503 0.0
H1678 H 0.97336 0.74779 0.71985 0.0
H1679 H 0.99207 0.75594 0.72957 0.0
H1680 H 0.96046 0.78306 0.76187 0.0
H1681 H 0.97883 0.77449 0.75253 0.0
H1682 H 0.97432 0.77332 0.79786 0.0
H1683 H 0.99262 0.76459 0.78846 0.0
H1684 H 0.05875 0.78231 0.76356 0.0
H1685 H 0.03993 0.77472 0.7536 0.0
H1686 H 0.04495 0.76979 0.7987 0.0
H1687 H 0.02628 0.76198 0.78865 0.0
H1688 H 0.05792 0.73551 0.75554 0.0
H1689 H 0.03939 0.74347 0.76517 0.0
H1690 H 0.04449 0.74744 0.72004 0.0
H1691 H 0.02616 0.75571 0.72977 0.0
N1692 N 0.00909 0.75211 0.74898 0.0
N1693 N 0.00939 0.76659 0.76921 0.0
C1694 C 0.23808 0.96639 0.76511 0.0
C1695 C 0.23648 0.96472 0.77784 0.0
C1696 C 0.24374 0.97704 0.76049 0.0
C1697 C 0.24814 0.98619 0.76851 0.0
C1698 C 0.24074 0.97398 0.78583 0.0
C1699 C 0.24646 0.98461 0.78121 0.0
C1700 C 0.25387 0.99769 0.76376 0.0
C1701 C 0.27887 0.96712 0.75246 0.0
C1702 C 0.28025 0.96578 0.73968 0.0
C1703 C 0.27327 0.97753 0.7573 0.0
C1704 C 0.26875 0.98677 0.74948 0.0
C1705 C 0.27587 0.97513 0.73188 0.0
C1706 C 0.27025 0.98553 0.73674 0.0
C1707 C 0.26298 0.99797 0.7545 0.0
C1708 C 0.27863 0.05132 0.75325 0.0
C1709 C 0.27993 0.053 0.7405 0.0
C1710 C 0.27316 0.0406 0.75796 0.0
C1711 C 0.26865 0.03146 0.75 0.0
C1712 C 0.27564 0.04372 0.73256 0.0
C1713 C 0.27008 0.03306 0.73728 0.0
C1714 C 0.26297 0.01995 0.75482 0.0
C1715 C 0.23884 0.05088 0.76721 0.0
C1716 C 0.23769 0.05187 0.78005 0.0
C1717 C 0.24402 0.04043 0.76198 0.0
C1718 C 0.2484 0.03085 0.76948 0.0
C1719 C 0.24183 0.04215 0.7875 0.0
C1720 C 0.24709 0.03176 0.78227 0.0
C1721 C 0.25392 0.01966 0.76414 0.0
H1722 H 0.235 0.95944 0.75867 0.0
H1723 H 0.24457 0.97817 0.75063 0.0
H1724 H 0.23946 0.97315 0.79567 0.0
H1725 H 0.24959 0.9916 0.78758 0.0
H1726 H 0.28205 0.96009 0.75875 0.0
H1727 H 0.27256 0.97838 0.76719 0.0
H1728 H 0.27697 0.97454 0.72202 0.0
H1729 H 0.267 0.9926 0.73051 0.0
H1730 H 0.28207 0.05818 0.75961 0.0
H1731 H 0.2726 0.03942 0.76783 0.0
H1732 H 0.27645 0.04476 0.72269 0.0
H1733 H 0.26679 0.02608 0.73095 0.0
H1734 H 0.23553 0.05809 0.76119 0.0
H1735 H 0.24452 0.03981 0.75207 0.0
H1736 H 0.24119 0.04265 0.79742 0.0
H1737 H 0.25028 0.02446 0.78826 0.0
N1738 N 0.2498 0.00854 0.76826 0.0
N1739 N 0.26707 0.0091 0.75035 0.0
C1740 C 0.05157 0.27887 0.75233 0.0
C1741 C 0.05273 0.27927 0.73945 0.0
C1742 C 0.04078 0.27434 0.75779 0.0
C1743 C 0.03098 0.26993 0.7505 0.0
C1744 C 0.04274 0.27518 0.73219 0.0
C1745 C 0.032 0.27061 0.73766 0.0
C1746 C 0.01949 0.26493 0.75606 0.0
C1747 C 0.04998 0.23986 0.76801 0.0
C1748 C 0.05171 0.23899 0.78081 0.0
C1749 C 0.03949 0.24542 0.76311 0.0
C1750 C 0.03059 0.25046 0.77088 0.0
C1751 C 0.04266 0.24379 0.78858 0.0
C1752 C 0.0322 0.24943 0.78366 0.0
C1753 C 0.01933 0.25626 0.76581 0.0
C1754 C 0.96615 0.24038 0.76769 0.0
C1755 C 0.96444 0.23941 0.78048 0.0
C1756 C 0.97675 0.24597 0.76288 0.0
C1757 C 0.98581 0.25092 0.77074 0.0
C1758 C 0.97361 0.24425 0.78832 0.0
C1759 C 0.9842 0.24989 0.7835 0.0
C1760 C 0.99729 0.25652 0.76577 0.0
C1761 C 0.96604 0.27991 0.75217 0.0
C1762 C 0.96483 0.28038 0.73928 0.0
C1763 C 0.97662 0.27507 0.75767 0.0
C1764 C 0.98618 0.27046 0.75042 0.0
C1765 C 0.97457 0.27606 0.73207 0.0
C1766 C 0.98512 0.27121 0.73757 0.0
C1767 C 0.99746 0.26519 0.75602 0.0
H1768 H 0.05907 0.2819 0.75821 0.0
H1769 H 0.04011 0.27427 0.76772 0.0
H1770 H 0.04317 0.2756 0.72226 0.0
H1771 H 0.02451 0.26745 0.73182 0.0
H1772 H 0.05663 0.23603 0.76177 0.0
H1773 H 0.03827 0.24565 0.75322 0.0
H1774 H 0.04372 0.24331 0.79847 0.0
H1775 H 0.02541 0.2531 0.78986 0.0
H1776 H 0.95927 0.23686 0.76135 0.0
H1777 H 0.97791 0.24629 0.75301 0.0
H1778 H 0.97274 0.24348 0.79821 0.0
H1779 H 0.99114 0.25345 0.78976 0.0
H1780 H 0.95872 0.28311 0.75802 0.0
H1781 H 0.97733 0.27495 0.7676 0.0
H1782 H 0.97411 0.27651 0.72213 0.0
H1783 H 0.99242 0.26789 0.73176 0.0
N1784 N 0.00856 0.26897 0.75153 0.0
N1785 N 0.00823 0.25249 0.77032 0.0
C1786 C 0.75098 0.96773 0.74095 0.0
C1787 C 0.73813 0.96607 0.74051 0.0
C1788 C 0.75619 0.97841 0.74598 0.0
C1789 C 0.74865 0.98754 0.75093 0.0
C1790 C 0.73061 0.97534 0.74521 0.0
C1791 C 0.73582 0.98596 0.75034 0.0
C1792 C 0.75395 0.999 0.75622 0.0
C1793 C 0.76814 0.96786 0.77952 0.0
C1794 C 0.78103 0.96673 0.77954 0.0
C1795 C 0.76257 0.97841 0.77474 0.0
C1796 C 0.76976 0.98798 0.76969 0.0
C1797 C 0.7882 0.97649 0.77477 0.0
C1798 C 0.78263 0.987 0.76996 0.0
C1799 C 0.76402 0.99923 0.76454 0.0
C1800 C 0.76544 0.05184 0.78119 0.0
C1801 C 0.7782 0.05425 0.78119 0.0
C1802 C 0.76063 0.04116 0.77583 0.0
C1803 C 0.76845 0.03268 0.77024 0.0
C1804 C 0.78602 0.04565 0.77572 0.0
C1805 C 0.78119 0.03495 0.77038 0.0
C1806 C 0.76347 0.0212 0.76475 0.0
C1807 C 0.74905 0.05234 0.74159 0.0
C1808 C 0.73616 0.05346 0.74178 0.0
C1809 C 0.7547 0.04182 0.74634 0.0
C1810 C 0.74758 0.03223 0.75146 0.0
C1811 C 0.72907 0.04374 0.74673 0.0
C1812 C 0.73472 0.03322 0.75144 0.0
C1813 C 0.75341 0.02096 0.75645 0.0
H1814 H 0.75702 0.96086 0.7372 0.0
H1815 H 0.7661 0.97957 0.74589 0.0
H1816 H 0.72068 0.97432 0.74509 0.0
H1817 H 0.72979 0.9929 0.75397 0.0
H1818 H 0.7623 0.96054 0.78306 0.0
H1819 H 0.75264 0.97906 0.775 0.0
H1820 H 0.79815 0.97607 0.77486 0.0
H1821 H 0.78839 0.99434 0.76632 0.0
H1822 H 0.75916 0.05809 0.78555 0.0
H1823 H 0.7508 0.03945 0.7762 0.0
H1824 H 0.79587 0.04723 0.77544 0.0
H1825 H 0.78742 0.0285 0.76622 0.0
H1826 H 0.7548 0.05965 0.73789 0.0
H1827 H 0.76463 0.04117 0.74594 0.0
H1828 H 0.71912 0.0442 0.74684 0.0
H1829 H 0.72902 0.02589 0.75519 0.0
N1830 N 0.74901 0.00988 0.75259 0.0
N1831 N 0.76842 0.01033 0.76839 0.0
C1832 C 0.25237 0.73822 0.55156 0.0
C1833 C 0.23953 0.73687 0.55279 0.0
C1834 C 0.25744 0.74366 0.54101 0.0
C1835 C 0.24977 0.7481 0.53157 0.0
C1836 C 0.2319 0.74114 0.54324 0.0
C1837 C 0.23697 0.74665 0.53274 0.0
C1838 C 0.25495 0.75371 0.52019 0.0
C1839 C 0.26689 0.77831 0.5513 0.0
C1840 C 0.27972 0.77963 0.55277 0.0
C1841 C 0.26191 0.77283 0.54076 0.0
C1842 C 0.26965 0.76831 0.53154 0.0
C1843 C 0.28743 0.7753 0.54343 0.0
C1844 C 0.28244 0.76975 0.53292 0.0
C1845 C 0.26451 0.76268 0.52017 0.0
C1846 C 0.26571 0.77961 0.46747 0.0
C1847 C 0.27848 0.78041 0.46542 0.0
C1848 C 0.26107 0.77389 0.47805 0.0
C1849 C 0.26909 0.76873 0.48678 0.0
C1850 C 0.28648 0.77533 0.47424 0.0
C1851 C 0.28184 0.76964 0.48485 0.0
C1852 C 0.26428 0.76286 0.49817 0.0
C1853 C 0.25148 0.73939 0.46654 0.0
C1854 C 0.23862 0.73809 0.46541 0.0
C1855 C 0.25677 0.74445 0.47716 0.0
C1856 C 0.2493 0.74856 0.48679 0.0
C1857 C 0.2312 0.74195 0.47518 0.0
C1858 C 0.23648 0.74709 0.48575 0.0
C1859 C 0.25472 0.7539 0.49818 0.0
H1860 H 0.25852 0.73481 0.55863 0.0
H1861 H 0.26736 0.74425 0.54019 0.0
H1862 H 0.22198 0.74034 0.54392 0.0
H1863 H 0.23085 0.7499 0.52556 0.0
H1864 H 0.26068 0.78177 0.55819 0.0
H1865 H 0.252 0.77226 0.53975 0.0
H1866 H 0.29734 0.77609 0.54429 0.0
H1867 H 0.2886 0.76647 0.52589 0.0
H1868 H 0.25927 0.78336 0.46085 0.0
H1869 H 0.25121 0.77358 0.47944 0.0
H1870 H 0.29636 0.77594 0.47306 0.0
H1871 H 0.28821 0.76587 0.49153 0.0
H1872 H 0.25748 0.73629 0.4593 0.0
H1873 H 0.2667 0.74503 0.47787 0.0
H1874 H 0.22126 0.74117 0.47459 0.0
H1875 H 0.23051 0.75006 0.49308 0.0
N1876 N 0.25042 0.74977 0.50919 0.0
N1877 N 0.26883 0.76681 0.50915 0.0
C1878 C 0.77716 0.74996 0.55289 0.0
C1879 C 0.77675 0.73709 0.55412 0.0
C1880 C 0.77269 0.75568 0.54225 0.0
C1881 C 0.7675 0.74866 0.53269 0.0
C1882 C 0.77185 0.73009 0.54438 0.0
C1883 C 0.76732 0.73581 0.53378 0.0
C1884 C 0.76272 0.75452 0.52131 0.0
C1885 C 0.73945 0.76827 0.55246 0.0
C1886 C 0.73991 0.7811 0.55401 0.0
C1887 C 0.7442 0.76289 0.54185 0.0
C1888 C 0.74967 0.7702 0.53264 0.0
C1889 C 0.74511 0.78839 0.54461 0.0
C1890 C 0.74989 0.78301 0.53405 0.0
C1891 C 0.75476 0.76472 0.5213 0.0
C1892 C 0.74001 0.76936 0.46807 0.0
C1893 C 0.74073 0.78219 0.46653 0.0
C1894 C 0.74469 0.76378 0.47869 0.0
C1895 C 0.75025 0.77091 0.48796 0.0
C1896 C 0.74614 0.7893 0.47591 0.0
C1897 C 0.75077 0.78372 0.48655 0.0
C1898 C 0.75512 0.76516 0.49933 0.0
C1899 C 0.7791 0.75261 0.4684 0.0
C1900 C 0.77947 0.73982 0.46677 0.0
C1901 C 0.77383 0.75759 0.47894 0.0
C1902 C 0.76858 0.74989 0.48797 0.0
C1903 C 0.77445 0.73212 0.47593 0.0
C1904 C 0.76909 0.73711 0.48642 0.0
C1905 C 0.76315 0.75503 0.49933 0.0
H1906 H 0.78081 0.75566 0.56021 0.0
H1907 H 0.77331 0.76558 0.54149 0.0
H1908 H 0.77163 0.72015 0.54486 0.0
H1909 H 0.76356 0.73018 0.52645 0.0
H1910 H 0.73557 0.76236 0.55951 0.0
H1911 H 0.74356 0.75301 0.54085 0.0
H1912 H 0.74539 0.79831 0.54533 0.0
H1913 H 0.75387 0.78886 0.52699 0.0
H1914 H 0.73594 0.76362 0.461 0.0
H1915 H 0.74392 0.75389 0.47968 0.0
H1916 H 0.74666 0.79921 0.47511 0.0
H1917 H 0.75487 0.78941 0.49365 0.0
H1918 H 0.78312 0.75879 0.46165 0.0
H1919 H 0.77404 0.76746 0.4801 0.0
H1920 H 0.77454 0.72223 0.47492 0.0
H1921 H 0.76524 0.73096 0.4933 0.0
N1922 N 0.76653 0.75006 0.51033 0.0
N1923 N 0.75135 0.76965 0.51031 0.0
C1924 C 0.77849 0.26762 0.46657 0.0
C1925 C 0.77874 0.2805 0.46531 0.0
C1926 C 0.77383 0.26204 0.47723 0.0
C1927 C 0.76914 0.2692 0.48681 0.0
C1928 C 0.77435 0.28763 0.47507 0.0
C1929 C 0.76966 0.28205 0.4857 0.0
C1930 C 0.76406 0.26347 0.49817 0.0
C1931 C 0.73891 0.25135 0.46741 0.0
C1932 C 0.73857 0.23859 0.4654 0.0
C1933 C 0.74451 0.2562 0.47795 0.0
C1934 C 0.75002 0.24843 0.48668 0.0
C1935 C 0.74402 0.23082 0.47421 0.0
C1936 C 0.7496 0.23569 0.48477 0.0
C1937 C 0.75563 0.25346 0.49809 0.0
C1938 C 0.73957 0.24969 0.5509 0.0
C1939 C 0.73944 0.23685 0.55252 0.0
C1940 C 0.74486 0.25504 0.54042 0.0
C1941 C 0.75028 0.24769 0.5314 0.0
C1942 C 0.74475 0.22953 0.54338 0.0
C1943 C 0.75004 0.23489 0.53292 0.0
C1944 C 0.75568 0.25319 0.52009 0.0
C1945 C 0.77868 0.26684 0.5519 0.0
C1946 C 0.77926 0.27969 0.55306 0.0
C1947 C 0.77383 0.26143 0.54124 0.0
C1948 C 0.76921 0.26876 0.53162 0.0
C1949 C 0.7749 0.287 0.54331 0.0
C1950 C 0.76996 0.28159 0.53271 0.0
C1951 C 0.76409 0.26323 0.52019 0.0
H1952 H 0.78175 0.26182 0.45925 0.0
H1953 H 0.7739 0.25212 0.47797 0.0
H1954 H 0.77462 0.29757 0.47456 0.0
H1955 H 0.76629 0.28779 0.49303 0.0
H1956 H 0.73488 0.25761 0.46079 0.0
H1957 H 0.74441 0.26605 0.47933 0.0
H1958 H 0.74376 0.22094 0.47307 0.0
H1959 H 0.75363 0.22949 0.49145 0.0
H1960 H 0.73536 0.2556 0.55761 0.0
H1961 H 0.74458 0.26492 0.5393 0.0
H1962 H 0.74496 0.21963 0.54437 0.0
H1963 H 0.75407 0.22902 0.52605 0.0
H1964 H 0.78217 0.26095 0.55914 0.0
H1965 H 0.77382 0.25152 0.5405 0.0
H1966 H 0.77514 0.29692 0.54393 0.0
H1967 H 0.76658 0.28746 0.52539 0.0
N1968 N 0.76787 0.26799 0.50922 0.0
N1969 N 0.75187 0.24867 0.50905 0.0
C1970 C 0.25242 0.27984 0.46831 0.0
C1971 C 0.23961 0.28079 0.46669 0.0
C1972 C 0.25729 0.2745 0.47897 0.0
C1973 C 0.24945 0.26975 0.48812 0.0
C1974 C 0.2318 0.27624 0.47596 0.0
C1975 C 0.23667 0.2708 0.48657 0.0
C1976 C 0.25444 0.26426 0.4996 0.0
C1977 C 0.26753 0.24043 0.46862 0.0
C1978 C 0.28041 0.24043 0.46729 0.0
C1979 C 0.26214 0.24531 0.47916 0.0
C1980 C 0.26953 0.25036 0.48855 0.0
C1981 C 0.28776 0.24528 0.47682 0.0
C1982 C 0.28237 0.25011 0.48736 0.0
C1983 C 0.26402 0.25556 0.4998 0.0
C1984 C 0.26487 0.23902 0.55261 0.0
C1985 C 0.27763 0.23832 0.55471 0.0
C1986 C 0.26029 0.24463 0.54197 0.0
C1987 C 0.26837 0.24973 0.53324 0.0
C1988 C 0.2857 0.24338 0.54591 0.0
C1989 C 0.28111 0.24894 0.53523 0.0
C1990 C 0.26362 0.25541 0.52177 0.0
C1991 C 0.25217 0.27998 0.55257 0.0
C1992 C 0.23938 0.2813 0.55395 0.0
C1993 C 0.25699 0.27442 0.54212 0.0
C1994 C 0.24913 0.26985 0.53287 0.0
C1995 C 0.23154 0.27685 0.5446 0.0
C1996 C 0.23637 0.27125 0.53416 0.0
C1997 C 0.25416 0.26422 0.52158 0.0
H1998 H 0.25869 0.28349 0.46146 0.0
H1999 H 0.26719 0.27425 0.48011 0.0
H2000 H 0.22189 0.27677 0.47497 0.0
H2001 H 0.23043 0.26733 0.49355 0.0
H2002 H 0.2616 0.2368 0.46144 0.0
H2003 H 0.25221 0.24511 0.47998 0.0
H2004 H 0.29771 0.24523 0.47621 0.0
H2005 H 0.28826 0.2538 0.49455 0.0
H2006 H 0.25841 0.23527 0.55924 0.0
H2007 H 0.25042 0.24487 0.54052 0.0
H2008 H 0.29558 0.24284 0.54716 0.0
H2009 H 0.28752 0.25268 0.52855 0.0
H2010 H 0.2585 0.2832 0.5596 0.0
H2011 H 0.26689 0.27383 0.54122 0.0
H2012 H 0.22166 0.27789 0.54524 0.0
H2013 H 0.23012 0.26797 0.52708 0.0
N2014 N 0.24987 0.2682 0.5105 0.0
N2015 N 0.26825 0.25153 0.51088 0.0
C2016 C 0.7393 0.46678 0.76574 0.0
C2017 C 0.73792 0.46506 0.7785 0.0
C2018 C 0.74478 0.4775 0.76107 0.0
C2019 C 0.74921 0.48666 0.76905 0.0
C2020 C 0.74222 0.47433 0.78645 0.0
C2021 C 0.74776 0.48503 0.78177 0.0
C2022 C 0.75477 0.49823 0.76423 0.0
C2023 C 0.78 0.468 0.75284 0.0
C2024 C 0.78128 0.46654 0.74006 0.0
C2025 C 0.77431 0.47837 0.75763 0.0
C2026 C 0.76956 0.48745 0.74976 0.0
C2027 C 0.77667 0.47574 0.73221 0.0
C2028 C 0.77094 0.48611 0.73702 0.0
C2029 C 0.76367 0.49861 0.75477 0.0
C2030 C 0.77943 0.55169 0.75351 0.0
C2031 C 0.77967 0.55395 0.74076 0.0
C2032 C 0.77411 0.5409 0.7582 0.0
C2033 C 0.76884 0.53216 0.75026 0.0
C2034 C 0.77447 0.5451 0.73284 0.0
C2035 C 0.76919 0.53429 0.73754 0.0
C2036 C 0.76341 0.52057 0.7551 0.0
C2037 C 0.73916 0.55109 0.76835 0.0
C2038 C 0.73862 0.55215 0.78123 0.0
C2039 C 0.74439 0.54077 0.76292 0.0
C2040 C 0.74932 0.53134 0.77024 0.0
C2041 C 0.74346 0.54262 0.78851 0.0
C2042 C 0.74868 0.53231 0.78308 0.0
C2043 C 0.75467 0.52018 0.76469 0.0
H2044 H 0.73618 0.45982 0.75934 0.0
H2045 H 0.74544 0.47866 0.7512 0.0
H2046 H 0.74112 0.47345 0.7963 0.0
H2047 H 0.75093 0.49203 0.78811 0.0
H2048 H 0.78335 0.46109 0.75918 0.0
H2049 H 0.7737 0.47932 0.76751 0.0
H2050 H 0.77767 0.47505 0.72234 0.0
H2051 H 0.76752 0.49306 0.73076 0.0
H2052 H 0.78358 0.55814 0.75988 0.0
H2053 H 0.77427 0.53931 0.76804 0.0
H2054 H 0.77436 0.54657 0.72298 0.0
H2055 H 0.76525 0.52763 0.73123 0.0
H2056 H 0.73532 0.55813 0.76245 0.0
H2057 H 0.74442 0.54009 0.75299 0.0
H2058 H 0.74336 0.54317 0.79845 0.0
H2059 H 0.75234 0.52513 0.78893 0.0
N2060 N 0.75073 0.50903 0.76887 0.0
N2061 N 0.76753 0.50977 0.7505 0.0
C2062 C 0.25083 0.46711 0.74087 0.0
C2063 C 0.23796 0.46561 0.74039 0.0
C2064 C 0.25615 0.47777 0.74584 0.0
C2065 C 0.2487 0.48702 0.7507 0.0
C2066 C 0.23054 0.47499 0.74502 0.0
C2067 C 0.23586 0.48558 0.75009 0.0
C2068 C 0.25411 0.4985 0.75585 0.0
C2069 C 0.26833 0.46771 0.77979 0.0
C2070 C 0.28123 0.46652 0.77971 0.0
C2071 C 0.26275 0.47812 0.77473 0.0
C2072 C 0.26992 0.48751 0.76933 0.0
C2073 C 0.28836 0.47602 0.77441 0.0
C2074 C 0.28278 0.48642 0.76936 0.0
C2075 C 0.2642 0.49874 0.76414 0.0
C2076 C 0.26602 0.55168 0.78017 0.0
C2077 C 0.27884 0.55344 0.78105 0.0
C2078 C 0.26107 0.54111 0.77471 0.0
C2079 C 0.26883 0.53218 0.76975 0.0
C2080 C 0.28659 0.5444 0.77627 0.0
C2081 C 0.28163 0.53388 0.77071 0.0
C2082 C 0.26374 0.52071 0.76426 0.0
C2083 C 0.24959 0.55172 0.74069 0.0
C2084 C 0.23671 0.55291 0.74081 0.0
C2085 C 0.25517 0.54122 0.74556 0.0
C2086 C 0.24798 0.53172 0.75075 0.0
C2087 C 0.22954 0.54327 0.74581 0.0
C2088 C 0.23512 0.53277 0.75064 0.0
C2089 C 0.25371 0.52048 0.7559 0.0
H2090 H 0.2568 0.46016 0.73717 0.0
H2091 H 0.26607 0.47881 0.74575 0.0
H2092 H 0.2206 0.47408 0.74487 0.0
H2093 H 0.2299 0.49262 0.75365 0.0
H2094 H 0.26255 0.4607 0.784 0.0
H2095 H 0.25283 0.47889 0.77516 0.0
H2096 H 0.29829 0.47539 0.77404 0.0
H2097 H 0.28852 0.49357 0.76533 0.0
H2098 H 0.2598 0.55835 0.78398 0.0
H2099 H 0.25117 0.53984 0.77455 0.0
H2100 H 0.2965 0.5455 0.77675 0.0
H2101 H 0.28783 0.52707 0.7671 0.0
H2102 H 0.25539 0.55897 0.73695 0.0
H2103 H 0.2651 0.54052 0.74524 0.0
H2104 H 0.21959 0.54377 0.74586 0.0
H2105 H 0.22937 0.5255 0.75443 0.0
N2106 N 0.24926 0.50938 0.75213 0.0
N2107 N 0.26863 0.50983 0.76794 0.0
C2108 C 0.23871 0.46642 0.26552 0.0
C2109 C 0.23719 0.46477 0.27827 0.0
C2110 C 0.24436 0.47706 0.26086 0.0
C2111 C 0.24883 0.4862 0.26885 0.0
C2112 C 0.24156 0.47401 0.28623 0.0
C2113 C 0.24726 0.48462 0.28156 0.0
C2114 C 0.25446 0.49774 0.26405 0.0
C2115 C 0.27952 0.46737 0.25243 0.0
C2116 C 0.28083 0.46605 0.23964 0.0
C2117 C 0.27387 0.47772 0.25733 0.0
C2118 C 0.26922 0.48693 0.24955 0.0
C2119 C 0.27631 0.47538 0.23189 0.0
C2120 C 0.27064 0.48572 0.2368 0.0
C2121 C 0.26341 0.49809 0.25464 0.0
C2122 C 0.27861 0.55157 0.25311 0.0
C2123 C 0.27987 0.55315 0.24034 0.0
C2124 C 0.27321 0.54086 0.25792 0.0
C2125 C 0.2687 0.53163 0.25005 0.0
C2126 C 0.27556 0.54381 0.23249 0.0
C2127 C 0.27006 0.53316 0.2373 0.0
C2128 C 0.26322 0.52007 0.25497 0.0
C2129 C 0.23856 0.55048 0.26798 0.0
C2130 C 0.23794 0.55156 0.28086 0.0
C2131 C 0.24392 0.5402 0.26259 0.0
C2132 C 0.2489 0.53083 0.26996 0.0
C2133 C 0.24285 0.54209 0.28818 0.0
C2134 C 0.24819 0.53183 0.28279 0.0
C2135 C 0.25437 0.5197 0.26447 0.0
H2136 H 0.23554 0.45949 0.25911 0.0
H2137 H 0.2451 0.47819 0.251 0.0
H2138 H 0.24035 0.47318 0.29607 0.0
H2139 H 0.25046 0.49161 0.2879 0.0
H2140 H 0.2828 0.46036 0.2587 0.0
H2141 H 0.27323 0.47856 0.26722 0.0
H2142 H 0.27735 0.4748 0.22201 0.0
H2143 H 0.26729 0.49277 0.2306 0.0
H2144 H 0.28207 0.55848 0.25941 0.0
H2145 H 0.27273 0.53974 0.2678 0.0
H2146 H 0.27634 0.54479 0.22261 0.0
H2147 H 0.26679 0.52613 0.23104 0.0
H2148 H 0.23468 0.55747 0.26205 0.0
H2149 H 0.24403 0.5395 0.25267 0.0
H2150 H 0.2427 0.54265 0.29811 0.0
H2151 H 0.2519 0.5247 0.28868 0.0
N2152 N 0.25041 0.50855 0.26864 0.0
N2153 N 0.26733 0.50925 0.25041 0.0
C2154 C 0.75043 0.46722 0.24069 0.0
C2155 C 0.73755 0.46562 0.24062 0.0
C2156 C 0.75584 0.47796 0.24539 0.0
C2157 C 0.7485 0.48726 0.2503 0.0
C2158 C 0.73024 0.4751 0.24527 0.0
C2159 C 0.73565 0.48579 0.25001 0.0
C2160 C 0.754 0.49876 0.2553 0.0
C2161 C 0.76809 0.46806 0.27945 0.0
C2162 C 0.78097 0.46681 0.27935 0.0
C2163 C 0.76255 0.47846 0.27433 0.0
C2164 C 0.76975 0.48777 0.26885 0.0
C2165 C 0.78815 0.47624 0.27397 0.0
C2166 C 0.7826 0.48662 0.26886 0.0
C2167 C 0.76407 0.499 0.26362 0.0
C2168 C 0.76519 0.55158 0.28023 0.0
C2169 C 0.77794 0.55408 0.28035 0.0
C2170 C 0.76051 0.54085 0.27485 0.0
C2171 C 0.76845 0.53243 0.26936 0.0
C2172 C 0.78587 0.54551 0.275 0.0
C2173 C 0.78118 0.53477 0.26964 0.0
C2174 C 0.76358 0.52096 0.26374 0.0
C2175 C 0.74979 0.55234 0.24073 0.0
C2176 C 0.7369 0.55326 0.24003 0.0
C2177 C 0.75526 0.54179 0.24557 0.0
C2178 C 0.74797 0.53201 0.25008 0.0
C2179 C 0.72962 0.54334 0.24423 0.0
C2180 C 0.7351 0.53283 0.24918 0.0
C2181 C 0.75362 0.52073 0.2553 0.0
H2182 H 0.75636 0.46012 0.23723 0.0
H2183 H 0.76576 0.47899 0.24514 0.0
H2184 H 0.72029 0.47433 0.24513 0.0
H2185 H 0.72977 0.4929 0.25355 0.0
H2186 H 0.76228 0.46112 0.28372 0.0
H2187 H 0.75263 0.47928 0.27478 0.0
H2188 H 0.79807 0.47556 0.27359 0.0
H2189 H 0.78836 0.49373 0.26477 0.0
H2190 H 0.75882 0.5578 0.2845 0.0
H2191 H 0.75068 0.53908 0.2751 0.0
H2192 H 0.79572 0.54717 0.27481 0.0
H2193 H 0.78749 0.52835 0.26555 0.0
H2194 H 0.75566 0.55971 0.23734 0.0
H2195 H 0.7652 0.54124 0.2457 0.0
H2196 H 0.71967 0.54377 0.24389 0.0
H2197 H 0.72926 0.52538 0.25245 0.0
N2198 N 0.74918 0.50963 0.25152 0.0
N2199 N 0.76847 0.5101 0.26745 0.0
C2200 C 0.55144 0.25302 0.73937 0.0
C2201 C 0.55245 0.24024 0.73789 0.0
C2202 C 0.541 0.25803 0.74483 0.0
C2203 C 0.53145 0.25035 0.74916 0.0
C2204 C 0.54279 0.2326 0.74207 0.0
C2205 C 0.5324 0.2376 0.74759 0.0
C2206 C 0.52017 0.25546 0.75477 0.0
C2207 C 0.55162 0.26645 0.77963 0.0
C2208 C 0.55313 0.27919 0.78127 0.0
C2209 C 0.54101 0.26169 0.77401 0.0
C2210 C 0.53179 0.26957 0.76965 0.0
C2211 C 0.54379 0.28704 0.77711 0.0
C2212 C 0.53323 0.28228 0.77138 0.0
C2213 C 0.52034 0.26469 0.7639 0.0
C2214 C 0.46729 0.26624 0.77989 0.0
C2215 C 0.46585 0.27899 0.78135 0.0
C2216 C 0.47778 0.26158 0.77424 0.0
C2217 C 0.487 0.26955 0.76974 0.0
C2218 C 0.47519 0.28693 0.77699 0.0
C2219 C 0.48567 0.28225 0.77131 0.0
C2220 C 0.4983 0.26472 0.76392 0.0
C2221 C 0.46667 0.25357 0.7394 0.0
C2222 C 0.46525 0.24083 0.73774 0.0
C2223 C 0.47733 0.25841 0.7449 0.0
C2224 C 0.48667 0.25058 0.74909 0.0
C2225 C 0.47471 0.23304 0.74172 0.0
C2226 C 0.48532 0.23787 0.74731 0.0
C2227 C 0.49814 0.25553 0.75477 0.0
H2228 H 0.5586 0.25918 0.73605 0.0
H2229 H 0.54035 0.26791 0.74553 0.0
H2230 H 0.5433 0.22272 0.74117 0.0
H2231 H 0.52513 0.23148 0.75075 0.0
H2232 H 0.55854 0.26015 0.78296 0.0
H2233 H 0.53994 0.25182 0.77322 0.0
H2234 H 0.54471 0.2969 0.77818 0.0
H2235 H 0.5262 0.28855 0.76823 0.0
H2236 H 0.46028 0.25984 0.78305 0.0
H2237 H 0.47871 0.25172 0.77348 0.0
H2238 H 0.47453 0.29677 0.77815 0.0
H2239 H 0.49273 0.28858 0.76809 0.0
H2240 H 0.45966 0.25983 0.73621 0.0
H2241 H 0.47831 0.26828 0.74573 0.0
H2242 H 0.47386 0.22319 0.74064 0.0
H2243 H 0.49244 0.23165 0.75035 0.0
N2244 N 0.50907 0.25123 0.75065 0.0
N2245 N 0.5094 0.26898 0.76803 0.0
C2246 C 0.46655 0.76774 0.74118 0.0
C2247 C 0.46523 0.78056 0.74042 0.0
C2248 C 0.47707 0.76262 0.74651 0.0
C2249 C 0.48642 0.7702 0.75143 0.0
C2250 C 0.4747 0.78813 0.74514 0.0
C2251 C 0.48519 0.783 0.75055 0.0
C2252 C 0.49777 0.7649 0.75686 0.0
C2253 C 0.46635 0.75165 0.78054 0.0
C2254 C 0.46453 0.73883 0.78036 0.0
C2255 C 0.4771 0.75696 0.77572 0.0
C2256 C 0.48623 0.74957 0.77055 0.0
C2257 C 0.47381 0.73146 0.77542 0.0
C2258 C 0.48456 0.73677 0.77064 0.0
C2259 C 0.49767 0.755 0.76535 0.0
C2260 C 0.55149 0.75043 0.77933 0.0
C2261 C 0.55245 0.73755 0.77948 0.0
C2262 C 0.54086 0.75608 0.77478 0.0
C2263 C 0.53103 0.74896 0.77012 0.0
C2264 C 0.54243 0.73047 0.77512 0.0
C2265 C 0.53184 0.73612 0.77055 0.0
C2266 C 0.5197 0.75473 0.76514 0.0
C2267 C 0.55071 0.76694 0.74047 0.0
C2268 C 0.55253 0.77973 0.73972 0.0
C2269 C 0.54011 0.762 0.74594 0.0
C2270 C 0.53122 0.76973 0.75102 0.0
C2271 C 0.54351 0.78746 0.74458 0.0
C2272 C 0.53296 0.7825 0.75014 0.0
C2273 C 0.51981 0.76464 0.75665 0.0
H2274 H 0.45957 0.76164 0.7374 0.0
H2275 H 0.47797 0.75273 0.74661 0.0
H2276 H 0.47396 0.79803 0.74476 0.0
H2277 H 0.49232 0.78905 0.75414 0.0
H2278 H 0.45938 0.7576 0.78425 0.0
H2279 H 0.47829 0.76684 0.77604 0.0
H2280 H 0.47282 0.72155 0.77534 0.0
H2281 H 0.49153 0.73086 0.76686 0.0
H2282 H 0.55901 0.75619 0.78257 0.0
H2283 H 0.54035 0.766 0.77491 0.0
H2284 H 0.5427 0.72054 0.77534 0.0
H2285 H 0.52432 0.73041 0.76719 0.0
H2286 H 0.55736 0.76074 0.73659 0.0
H2287 H 0.5388 0.75212 0.74604 0.0
H2288 H 0.54466 0.79735 0.7442 0.0
H2289 H 0.52618 0.78867 0.75385 0.0
N2290 N 0.50884 0.76937 0.75294 0.0
N2291 N 0.50863 0.75027 0.76906 0.0
C2292 C 0.46765 0.77955 0.26895 0.0
C2293 C 0.46589 0.77868 0.28173 0.0
C2294 C 0.47818 0.77471 0.2635 0.0
C2295 C 0.48713 0.7688 0.27071 0.0
C2296 C 0.475 0.77295 0.28893 0.0
C2297 C 0.48552 0.76814 0.28349 0.0
C2298 C 0.49841 0.7637 0.26511 0.0
C2299 C 0.46652 0.74155 0.25032 0.0
C2300 C 0.46512 0.74203 0.23745 0.0
C2301 C 0.47726 0.74604 0.25595 0.0
C2302 C 0.48675 0.75131 0.24886 0.0
C2303 C 0.47479 0.74705 0.23038 0.0
C2304 C 0.48548 0.75159 0.23602 0.0
C2305 C 0.49825 0.75603 0.25466 0.0
C2306 C 0.55115 0.74012 0.25081 0.0
C2307 C 0.55278 0.74092 0.238 0.0
C2308 C 0.54064 0.74493 0.25632 0.0
C2309 C 0.53158 0.75073 0.24916 0.0
C2310 C 0.54359 0.74657 0.23085 0.0
C2311 C 0.53308 0.75134 0.23637 0.0
C2312 C 0.52027 0.75571 0.25482 0.0
C2313 C 0.55171 0.77867 0.2697 0.0
C2314 C 0.55328 0.77782 0.28253 0.0
C2315 C 0.5411 0.77389 0.26405 0.0
C2316 C 0.5319 0.76807 0.27108 0.0
C2317 C 0.54399 0.77205 0.28953 0.0
C2318 C 0.53339 0.76731 0.28388 0.0
C2319 C 0.52042 0.76334 0.2653 0.0
H2320 H 0.46083 0.78385 0.26311 0.0
H2321 H 0.47934 0.77563 0.25366 0.0
H2322 H 0.47406 0.77232 0.29882 0.0
H2323 H 0.49237 0.76379 0.28927 0.0
H2324 H 0.45927 0.73781 0.25607 0.0
H2325 H 0.47814 0.74533 0.26584 0.0
H2326 H 0.47416 0.74733 0.22045 0.0
H2327 H 0.49275 0.75542 0.23034 0.0
H2328 H 0.55804 0.73588 0.2566 0.0
H2329 H 0.53957 0.74402 0.26618 0.0
H2330 H 0.54443 0.74715 0.22095 0.0
H2331 H 0.52615 0.75561 0.23062 0.0
H2332 H 0.55854 0.78325 0.26404 0.0
H2333 H 0.54001 0.77493 0.25419 0.0
H2334 H 0.54495 0.77109 0.2994 0.0
H2335 H 0.52638 0.76293 0.2895 0.0
N2336 N 0.5095 0.76696 0.27006 0.0
N2337 N 0.50918 0.75242 0.24989 0.0
C2338 C 0.46704 0.26645 0.23957 0.0
C2339 C 0.46522 0.27921 0.2388 0.0
C2340 C 0.47754 0.26174 0.24529 0.0
C2341 C 0.48641 0.26966 0.25051 0.0
C2342 C 0.47417 0.28713 0.24394 0.0
C2343 C 0.4847 0.28239 0.24964 0.0
C2344 C 0.49773 0.26474 0.25635 0.0
C2345 C 0.46586 0.25222 0.27968 0.0
C2346 C 0.46452 0.23941 0.28086 0.0
C2347 C 0.47659 0.25739 0.27468 0.0
C2348 C 0.4861 0.24985 0.27049 0.0
C2349 C 0.47416 0.23189 0.27694 0.0
C2350 C 0.48483 0.23706 0.27184 0.0
C2351 C 0.49758 0.25513 0.26517 0.0
C2352 C 0.55141 0.2513 0.27957 0.0
C2353 C 0.55229 0.23845 0.28048 0.0
C2354 C 0.54081 0.25673 0.27472 0.0
C2355 C 0.53095 0.24941 0.27042 0.0
C2356 C 0.54229 0.23117 0.27646 0.0
C2357 C 0.53174 0.23659 0.27152 0.0
C2358 C 0.51962 0.25496 0.26519 0.0
C2359 C 0.5505 0.26641 0.24003 0.0
C2360 C 0.55284 0.27916 0.23976 0.0
C2361 C 0.53978 0.26167 0.24544 0.0
C2362 C 0.53121 0.26955 0.25079 0.0
C2363 C 0.54412 0.28702 0.24498 0.0
C2364 C 0.53339 0.28227 0.25036 0.0
C2365 C 0.51975 0.26463 0.25642 0.0
H2366 H 0.46031 0.26008 0.23579 0.0
H2367 H 0.47877 0.25188 0.24555 0.0
H2368 H 0.47317 0.297 0.24335 0.0
H2369 H 0.49149 0.28869 0.25345 0.0
H2370 H 0.45871 0.25827 0.28283 0.0
H2371 H 0.47749 0.2673 0.27419 0.0
H2372 H 0.47338 0.22199 0.27764 0.0
H2373 H 0.49206 0.23103 0.2688 0.0
H2374 H 0.55885 0.25718 0.2828 0.0
H2375 H 0.5403 0.26665 0.27443 0.0
H2376 H 0.54269 0.22124 0.27695 0.0
H2377 H 0.52424 0.23073 0.26839 0.0
H2378 H 0.55684 0.26009 0.23587 0.0
H2379 H 0.53814 0.25184 0.24533 0.0
H2380 H 0.54565 0.29687 0.24505 0.0
H2381 H 0.52686 0.28853 0.25434 0.0
N2382 N 0.50881 0.26917 0.25242 0.0
N2383 N 0.50853 0.25059 0.26915 0.0
H2384 H 0.1983 0.19139 0.10371 0.0
H2385 H 0.24681 0.24074 0.07718 0.0
H2386 H 0.22129 0.21435 0.12674 0.0
H2387 H 0.22067 0.22094 0.05453 0.0
H2388 H 0.23797 0.23082 0.0954 0.0
H2389 H 0.2067 0.2018 0.08557 0.0
C2390 C 0.20513 0.19861 0.10496 0.0
C2391 C 0.2091 0.20197 0.11679 0.0
C2392 C 0.23415 0.22867 0.08645 0.0
C2393 C 0.21877 0.21398 0.09602 0.0
C2394 C 0.23924 0.23427 0.07603 0.0
C2395 C 0.23449 0.23167 0.06428 0.0
C2396 C 0.22427 0.22031 0.08515 0.0
C2397 C 0.22455 0.22333 0.06339 0.0
C2398 C 0.20989 0.2046 0.09459 0.0
C2399 C 0.21786 0.21152 0.11783 0.0
N2400 N 0.21982 0.21793 0.07367 0.0
N2401 N 0.22243 0.21714 0.10759 0.0
H2402 H 0.82108 0.21254 0.11625 0.0
H2403 H 0.7669 0.21774 0.06642 0.0
H2404 H 0.78728 0.19132 0.1179 0.0
H2405 H 0.79756 0.24328 0.0683 0.0
H2406 H 0.77471 0.20739 0.08476 0.0
H2407 H 0.81311 0.22335 0.09819 0.0
C2408 C 0.81196 0.21019 0.11288 0.0
C2409 C 0.80487 0.20096 0.11865 0.0
C2410 C 0.77972 0.21527 0.08118 0.0
C2411 C 0.79575 0.21322 0.09782 0.0
C2412 C 0.77522 0.22125 0.07073 0.0
C2413 C 0.78154 0.23145 0.06577 0.0
C2414 C 0.79068 0.21945 0.08674 0.0
C2415 C 0.79245 0.23537 0.07166 0.0
C2416 C 0.80744 0.21634 0.10252 0.0
C2417 C 0.79319 0.1982 0.11369 0.0
N2418 N 0.79666 0.22936 0.08181 0.0
N2419 N 0.78902 0.20428 0.10358 0.0
H2420 H 0.79042 0.82888 0.11534 0.0
H2421 H 0.79973 0.77506 0.06642 0.0
H2422 H 0.8225 0.80587 0.11488 0.0
H2423 H 0.76998 0.80097 0.06484 0.0
H2424 H 0.80794 0.78568 0.0845 0.0
H2425 H 0.78252 0.81822 0.09725 0.0
C2426 C 0.79588 0.82165 0.1114 0.0
C2427 C 0.80722 0.81836 0.11666 0.0
C2428 C 0.79961 0.78904 0.0802 0.0
C2429 C 0.79806 0.8059 0.09594 0.0
C2430 C 0.79494 0.78301 0.06982 0.0
C2431 C 0.78411 0.78709 0.06405 0.0
C2432 C 0.79342 0.79923 0.0849 0.0
C2433 C 0.77823 0.79734 0.06904 0.0
C2434 C 0.7913 0.8155 0.10109 0.0
C2435 C 0.81367 0.80867 0.11125 0.0
N2436 N 0.78295 0.80303 0.07915 0.0
N2437 N 0.80901 0.80281 0.1012 0.0
H2438 H 0.22606 0.83128 0.11444 0.0
H2439 H 0.22043 0.77405 0.06868 0.0
H2440 H 0.2008 0.8009 0.12019 0.0
H2441 H 0.24808 0.80266 0.06548 0.0
H2442 H 0.2125 0.78409 0.08704 0.0
H2443 H 0.23373 0.8212 0.09611 0.0
C2444 C 0.22217 0.82245 0.11192 0.0
C2445 C 0.21279 0.81693 0.11898 0.0
C2446 C 0.22031 0.78816 0.08233 0.0
C2447 C 0.22145 0.80537 0.09776 0.0
C2448 C 0.22481 0.78247 0.0718 0.0
C2449 C 0.23496 0.7875 0.06551 0.0
C2450 C 0.22595 0.79902 0.08659 0.0
C2451 C 0.24035 0.79835 0.0701 0.0
C2452 C 0.22651 0.81672 0.10138 0.0
C2453 C 0.20794 0.80559 0.11501 0.0
N2454 N 0.23577 0.80374 0.08032 0.0
N2455 N 0.21233 0.80018 0.10468 0.0
H2456 H 0.20124 0.83003 0.91623 0.0
H2457 H 0.24628 0.77858 0.94294 0.0
H2458 H 0.221 0.80488 0.89327 0.0
H2459 H 0.22119 0.79893 0.96545 0.0
H2460 H 0.23794 0.78882 0.92468 0.0
H2461 H 0.20923 0.81944 0.93444 0.0
C2462 C 0.20729 0.82229 0.91503 0.0
C2463 C 0.21047 0.81834 0.90321 0.0
C2464 C 0.23423 0.79102 0.93361 0.0
C2465 C 0.21964 0.80616 0.92402 0.0
C2466 C 0.23904 0.78523 0.94404 0.0
C2467 C 0.23443 0.78791 0.95574 0.0
C2468 C 0.22481 0.79965 0.93488 0.0
C2469 C 0.22494 0.7965 0.95661 0.0
C2470 C 0.21179 0.81621 0.92542 0.0
C2471 C 0.21822 0.80817 0.9022 0.0
N2472 N 0.22049 0.8021 0.94633 0.0
N2473 N 0.22258 0.80247 0.91246 0.0
H2474 H 0.18907 0.19981 0.91572 0.0
H2475 H 0.24592 0.23963 0.9417 0.0
H2476 H 0.2175 0.21529 0.89259 0.0
H2477 H 0.2183 0.22247 0.96468 0.0
H2478 H 0.23602 0.23045 0.92366 0.0
H2479 H 0.19991 0.20778 0.93375 0.0
C2480 C 0.19759 0.2049 0.91442 0.0
C2481 C 0.20233 0.20693 0.90258 0.0
C2482 C 0.23215 0.22867 0.93265 0.0
C2483 C 0.21488 0.21607 0.92328 0.0
C2484 C 0.23783 0.23387 0.94298 0.0
C2485 C 0.23293 0.23189 0.95477 0.0
C2486 C 0.22145 0.22142 0.93407 0.0
C2487 C 0.22231 0.22445 0.95579 0.0
C2488 C 0.20382 0.20941 0.92474 0.0
C2489 C 0.21354 0.21341 0.90153 0.0
N2490 N 0.21694 0.21953 0.9456 0.0
N2491 N 0.21939 0.21781 0.91172 0.0
H2492 H 0.79979 0.21752 0.89345 0.0
H2493 H 0.80157 0.22589 0.96661 0.0
H2494 H 0.82985 0.20569 0.91655 0.0
H2495 H 0.77364 0.24174 0.94325 0.0
H2496 H 0.81137 0.21738 0.94847 0.0
H2497 H 0.78928 0.22517 0.91169 0.0
C2498 C 0.80414 0.21644 0.90237 0.0
C2499 C 0.81575 0.21098 0.90345 0.0
C2500 C 0.80309 0.22271 0.9473 0.0
C2501 C 0.80381 0.21981 0.92437 0.0
C2502 C 0.79751 0.22765 0.95767 0.0
C2503 C 0.78677 0.23464 0.9565 0.0
C2504 C 0.79791 0.2247 0.93562 0.0
C2505 C 0.78183 0.23633 0.94465 0.0
C2506 C 0.79817 0.22088 0.91277 0.0
C2507 C 0.821 0.20998 0.91524 0.0
N2508 N 0.78744 0.23143 0.93469 0.0
N2509 N 0.815 0.21434 0.92521 0.0
H2510 H 0.79695 0.80242 0.89096 0.0
H2511 H 0.79908 0.79593 0.9644 0.0
H2512 H 0.81949 0.82545 0.91434 0.0
H2513 H 0.7727 0.77673 0.94153 0.0
H2514 H 0.80772 0.80571 0.94604 0.0
H2515 H 0.78907 0.79178 0.90922 0.0
C2516 C 0.80032 0.80517 0.89992 0.0
C2517 C 0.80889 0.81487 0.90109 0.0
C2518 C 0.80005 0.79936 0.94503 0.0
C2519 C 0.79982 0.80277 0.92209 0.0
C2520 C 0.79515 0.7937 0.95551 0.0
C2521 C 0.78513 0.78549 0.95453 0.0
C2522 C 0.79496 0.79675 0.93342 0.0
C2523 C 0.78033 0.7831 0.94275 0.0
C2524 C 0.79575 0.79915 0.91036 0.0
C2525 C 0.81279 0.81814 0.91298 0.0
N2526 N 0.78529 0.78868 0.93267 0.0
N2527 N 0.80824 0.8121 0.92299 0.0
H2528 H 0.11774 0.19868 0.21883 0.0
H2529 H 0.06514 0.24971 0.21792 0.0
H2530 H 0.11414 0.22642 0.19057 0.0
H2531 H 0.0659 0.21979 0.24411 0.0
H2532 H 0.08354 0.24162 0.20828 0.0
H2533 H 0.09921 0.20651 0.22865 0.0
C2534 C 0.11305 0.20638 0.21464 0.0
C2535 C 0.1176 0.2119 0.20384 0.0
C2536 C 0.07969 0.2368 0.21613 0.0
C2537 C 0.09641 0.22102 0.21516 0.0
C2538 C 0.06911 0.24139 0.22161 0.0
C2539 C 0.06386 0.23541 0.23183 0.0
C2540 C 0.08516 0.22615 0.22088 0.0
C2541 C 0.06966 0.2248 0.23634 0.0
C2542 C 0.1025 0.21088 0.2203 0.0
C2543 C 0.11117 0.22197 0.19898 0.0
N2544 N 0.07997 0.22051 0.23083 0.0
N2545 N 0.10095 0.22618 0.20466 0.0
H2546 H 0.79984 0.12037 0.20255 0.0
H2547 H 0.80249 0.0629 0.24874 0.0
H2548 H 0.83142 0.11179 0.22512 0.0
H2549 H 0.77291 0.06845 0.22276 0.0
H2550 H 0.81279 0.08133 0.24078 0.0
H2551 H 0.78952 0.10179 0.21019 0.0
C2552 C 0.80465 0.11456 0.20904 0.0
C2553 C 0.81654 0.11771 0.2132 0.0
C2554 C 0.80405 0.07853 0.2368 0.0
C2555 C 0.80467 0.09648 0.22214 0.0
C2556 C 0.79812 0.06804 0.2414 0.0
C2557 C 0.7868 0.06413 0.23643 0.0
C2558 C 0.79861 0.08523 0.22718 0.0
C2559 C 0.78168 0.07106 0.22679 0.0
C2560 C 0.79871 0.10397 0.21346 0.0
C2561 C 0.8222 0.10989 0.22179 0.0
N2562 N 0.7876 0.08129 0.22251 0.0
N2563 N 0.81621 0.09967 0.22598 0.0
H2564 H 0.91483 0.81675 0.18916 0.0
H2565 H 0.94077 0.77883 0.24691 0.0
H2566 H 0.89174 0.80295 0.21842 0.0
H2567 H 0.9638 0.79496 0.21875 0.0
H2568 H 0.92274 0.78778 0.23687 0.0
H2569 H 0.93285 0.8089 0.20001 0.0
C2570 C 0.91354 0.81204 0.19786 0.0
C2571 C 0.90172 0.81046 0.20283 0.0
C2572 C 0.93175 0.78937 0.23291 0.0
C2573 C 0.9224 0.80147 0.21539 0.0
C2574 C 0.94207 0.78432 0.23867 0.0
C2575 C 0.95387 0.78607 0.23366 0.0
C2576 C 0.93318 0.79625 0.22203 0.0
C2577 C 0.9549 0.79315 0.22286 0.0
C2578 C 0.92386 0.80761 0.20409 0.0
C2579 C 0.90067 0.80447 0.21427 0.0
N2580 N 0.94472 0.79793 0.21741 0.0
N2581 N 0.91086 0.80014 0.22012 0.0
H2582 H 0.18761 0.91417 0.2053 0.0
H2583 H 0.24616 0.94156 0.24141 0.0
H2584 H 0.21806 0.89201 0.21744 0.0
H2585 H 0.21689 0.96376 0.22661 0.0
H2586 H 0.23623 0.92334 0.23255 0.0
H2587 H 0.1983 0.93242 0.21304 0.0
C2588 C 0.19654 0.91313 0.20962 0.0
C2589 C 0.2019 0.90151 0.21077 0.0
C2590 C 0.232 0.93221 0.23123 0.0
C2591 C 0.21428 0.92244 0.21963 0.0
C2592 C 0.2377 0.94264 0.23623 0.0
C2593 C 0.23234 0.95425 0.23482 0.0
C2594 C 0.22084 0.93336 0.22476 0.0
C2595 C 0.22126 0.955 0.22814 0.0
C2596 C 0.20268 0.92358 0.21399 0.0
C2597 C 0.21361 0.90079 0.21627 0.0
N2598 N 0.21589 0.94472 0.2234 0.0
N2599 N 0.21937 0.91109 0.22054 0.0
H2600 H 0.11402 0.82207 0.80834 0.0
H2601 H 0.06709 0.76542 0.79989 0.0
H2602 H 0.11812 0.78707 0.82667 0.0
H2603 H 0.06555 0.7985 0.77795 0.0
H2604 H 0.08546 0.77349 0.81023 0.0
H2605 H 0.09607 0.81383 0.79737 0.0
C2606 C 0.11122 0.81263 0.81001 0.0
C2607 C 0.11762 0.80528 0.8185 0.0
C2608 C 0.08114 0.77899 0.80313 0.0
C2609 C 0.09693 0.79584 0.80606 0.0
C2610 C 0.07059 0.77441 0.79727 0.0
C2611 C 0.06474 0.7813 0.78806 0.0
C2612 C 0.08586 0.7906 0.79982 0.0
C2613 C 0.06982 0.79282 0.78492 0.0
C2614 C 0.10092 0.80795 0.80378 0.0
C2615 C 0.11339 0.79317 0.82039 0.0
N2616 N 0.08005 0.79713 0.79082 0.0
N2617 N 0.10332 0.78885 0.81426 0.0
H2618 H 0.22109 0.12657 0.80144 0.0
H2619 H 0.22145 0.05301 0.79925 0.0
H2620 H 0.19812 0.10346 0.82437 0.0
H2621 H 0.24142 0.07609 0.77367 0.0
H2622 H 0.213 0.07138 0.80871 0.0
H2623 H 0.22878 0.10823 0.79127 0.0
C2624 C 0.21767 0.11763 0.80435 0.0
C2625 C 0.20896 0.11657 0.81381 0.0
C2626 C 0.2192 0.07244 0.801 0.0
C2627 C 0.21772 0.09549 0.80216 0.0
C2628 C 0.22409 0.06195 0.79564 0.0
C2629 C 0.23221 0.06299 0.78566 0.0
C2630 C 0.22248 0.08411 0.79643 0.0
C2631 C 0.23513 0.07482 0.78126 0.0
C2632 C 0.22202 0.10716 0.79849 0.0
C2633 C 0.20474 0.10475 0.81705 0.0
N2634 N 0.23032 0.0849 0.7867 0.0
N2635 N 0.2092 0.09469 0.81129 0.0
H2636 H 0.90139 0.19131 0.7922 0.0
H2637 H 0.95096 0.24566 0.80085 0.0
H2638 H 0.90268 0.21462 0.82417 0.0
H2639 H 0.95241 0.21883 0.77184 0.0
H2640 H 0.93279 0.23508 0.80912 0.0
H2641 H 0.91953 0.20196 0.78419 0.0
C2642 C 0.90553 0.1986 0.7976 0.0
C2643 C 0.90049 0.20198 0.80895 0.0
C2644 C 0.93709 0.23152 0.80094 0.0
C2645 C 0.92126 0.21442 0.79966 0.0
C2646 C 0.94752 0.23752 0.79623 0.0
C2647 C 0.95327 0.23317 0.78559 0.0
C2648 C 0.93233 0.22108 0.79496 0.0
C2649 C 0.94821 0.22268 0.77993 0.0
C2650 C 0.91587 0.20474 0.79297 0.0
C2651 C 0.90613 0.21174 0.81534 0.0
N2652 N 0.93806 0.21702 0.78467 0.0
N2653 N 0.91621 0.2176 0.81062 0.0
H2654 H 0.83011 0.90569 0.79224 0.0
H2655 H 0.7745 0.95274 0.79974 0.0
H2656 H 0.80148 0.90098 0.81929 0.0
H2657 H 0.80122 0.95482 0.77054 0.0
H2658 H 0.78447 0.93419 0.80748 0.0
H2659 H 0.81996 0.92412 0.78471 0.0
C2660 C 0.82163 0.90847 0.79656 0.0
C2661 C 0.81662 0.90166 0.80638 0.0
C2662 C 0.78815 0.93871 0.79939 0.0
C2663 C 0.80498 0.923 0.79786 0.0
C2664 C 0.78242 0.94928 0.7949 0.0
C2665 C 0.78701 0.95542 0.78445 0.0
C2666 C 0.79859 0.93421 0.7934 0.0
C2667 C 0.79744 0.95057 0.77873 0.0
C2668 C 0.81587 0.91906 0.79228 0.0
C2669 C 0.80576 0.90595 0.81177 0.0
N2670 N 0.80285 0.94029 0.78327 0.0
N2671 N 0.8003 0.91632 0.80743 0.0
H2672 H 0.19213 0.10437 0.2 0.0
H2673 H 0.24467 0.07676 0.24384 0.0
H2674 H 0.2153 0.12659 0.22355 0.0
H2675 H 0.21806 0.05435 0.22439 0.0
H2676 H 0.23504 0.09514 0.2353 0.0
H2677 H 0.20255 0.086 0.20759 0.0
C2678 C 0.19948 0.1054 0.20669 0.0
C2679 C 0.20282 0.11706 0.21116 0.0
C2680 C 0.23131 0.08621 0.23289 0.0
C2681 C 0.21475 0.09603 0.21997 0.0
C2682 C 0.23685 0.0757 0.23771 0.0
C2683 C 0.23217 0.06397 0.23485 0.0
C2684 C 0.22102 0.08502 0.22508 0.0
C2685 C 0.2219 0.06319 0.22698 0.0
C2686 C 0.20537 0.0949 0.21109 0.0
C2687 C 0.21231 0.11779 0.21996 0.0
N2688 N 0.21669 0.07355 0.22236 0.0
N2689 N 0.21794 0.10744 0.22406 0.0
H2690 H 0.21149 0.90367 0.82341 0.0
H2691 H 0.21655 0.9523 0.76817 0.0
H2692 H 0.1903 0.90104 0.78982 0.0
H2693 H 0.24197 0.95154 0.7988 0.0
H2694 H 0.20631 0.93399 0.7764 0.0
H2695 H 0.22225 0.92165 0.815 0.0
C2696 C 0.20913 0.90681 0.81425 0.0
C2697 C 0.19992 0.90079 0.80734 0.0
C2698 C 0.21414 0.93781 0.78131 0.0
C2699 C 0.21213 0.92154 0.79772 0.0
C2700 C 0.22006 0.94824 0.77657 0.0
C2701 C 0.23019 0.9535 0.78276 0.0
C2702 C 0.21831 0.93257 0.79237 0.0
C2703 C 0.23411 0.94794 0.79377 0.0
C2704 C 0.21525 0.91713 0.80947 0.0
C2705 C 0.19716 0.90546 0.79559 0.0
N2706 N 0.22816 0.9378 0.79823 0.0
N2707 N 0.20322 0.91554 0.79117 0.0
H2708 H 0.10186 0.19185 0.82108 0.0
H2709 H 0.07566 0.24133 0.77316 0.0
H2710 H 0.12502 0.21418 0.79759 0.0
H2711 H 0.05314 0.2229 0.80029 0.0
H2712 H 0.09376 0.23103 0.78157 0.0
H2713 H 0.08384 0.2027 0.81322 0.0
C2714 C 0.10316 0.19903 0.81426 0.0
C2715 C 0.11499 0.20209 0.80998 0.0
C2716 C 0.08487 0.22926 0.78571 0.0
C2717 C 0.09436 0.21458 0.80094 0.0
C2718 C 0.07451 0.23509 0.78086 0.0
C2719 C 0.06284 0.23297 0.786 0.0
C2720 C 0.08357 0.22116 0.79573 0.0
C2721 C 0.06196 0.22491 0.79611 0.0
C2722 C 0.09286 0.20526 0.80981 0.0
C2723 C 0.1161 0.21158 0.80124 0.0
N2724 N 0.07216 0.21927 0.80059 0.0
N2725 N 0.10593 0.21743 0.79697 0.0
H2726 H 0.7883 0.12774 0.81033 0.0
H2727 H 0.79943 0.05689 0.79489 0.0
H2728 H 0.82091 0.10818 0.82131 0.0
H2729 H 0.76866 0.07754 0.78088 0.0
H2730 H 0.80745 0.07552 0.80462 0.0
H2731 H 0.78088 0.10937 0.79966 0.0
C2732 C 0.7939 0.11957 0.81052 0.0
C2733 C 0.80524 0.11951 0.81677 0.0
C2734 C 0.79896 0.07598 0.79939 0.0
C2735 C 0.7968 0.09841 0.8045 0.0
C2736 C 0.7944 0.06534 0.79376 0.0
C2737 C 0.78332 0.06559 0.78703 0.0
C2738 C 0.7924 0.08698 0.79836 0.0
C2739 C 0.77712 0.07682 0.78611 0.0
C2740 C 0.78968 0.10909 0.80437 0.0
C2741 C 0.81217 0.1087 0.81653 0.0
N2742 N 0.78173 0.08703 0.79172 0.0
N2743 N 0.80782 0.09858 0.81055 0.0
H2744 H 0.8909 0.79674 0.80054 0.0
H2745 H 0.96455 0.79324 0.80118 0.0
H2746 H 0.91398 0.81728 0.82565 0.0
H2747 H 0.94176 0.77659 0.77311 0.0
H2748 H 0.94611 0.80168 0.81059 0.0
H2749 H 0.90936 0.78888 0.79065 0.0
C2750 C 0.89985 0.79959 0.80399 0.0
C2751 C 0.90086 0.80768 0.81396 0.0
C2752 C 0.94513 0.7962 0.80236 0.0
C2753 C 0.92209 0.79871 0.80266 0.0
C2754 C 0.95566 0.79131 0.79702 0.0
C2755 C 0.95472 0.78416 0.78634 0.0
C2756 C 0.93352 0.79387 0.79705 0.0
C2757 C 0.94296 0.78214 0.78126 0.0
C2758 C 0.91039 0.79514 0.7983 0.0
C2759 C 0.91273 0.81117 0.81791 0.0
N2760 N 0.93283 0.78692 0.78669 0.0
N2761 N 0.92286 0.80663 0.8123 0.0
H2762 H 0.83005 0.90619 0.22592 0.0
H2763 H 0.77287 0.95172 0.21962 0.0
H2764 H 0.80061 0.90085 0.19962 0.0
H2765 H 0.8008 0.95464 0.24783 0.0
H2766 H 0.78324 0.93364 0.21153 0.0
H2767 H 0.81973 0.92436 0.23353 0.0
C2768 C 0.82137 0.90877 0.22178 0.0
C2769 C 0.81618 0.90186 0.21214 0.0
C2770 C 0.78709 0.93823 0.2195 0.0
C2771 C 0.80434 0.92291 0.22075 0.0
C2772 C 0.78121 0.9486 0.22408 0.0
C2773 C 0.78594 0.95472 0.23446 0.0
C2774 C 0.79783 0.93396 0.22527 0.0
C2775 C 0.79671 0.95015 0.23993 0.0
C2776 C 0.8155 0.91922 0.2261 0.0
C2777 C 0.80503 0.90591 0.20698 0.0
N2778 N 0.80227 0.94008 0.23527 0.0
N2779 N 0.79949 0.91614 0.21136 0.0
H2780 H 0.1037 0.81351 0.18816 0.0
H2781 H 0.07642 0.77805 0.24691 0.0
H2782 H 0.12607 0.80192 0.21889 0.0
H2783 H 0.05389 0.7937 0.21816 0.0
H2784 H 0.09472 0.78655 0.23682 0.0
H2785 H 0.0854 0.80598 0.19892 0.0
C2786 C 0.10477 0.80935 0.19717 0.0
C2787 C 0.11646 0.80831 0.2026 0.0
C2788 C 0.08576 0.78814 0.23274 0.0
C2789 C 0.09548 0.79969 0.21503 0.0
C2790 C 0.07528 0.78334 0.23853 0.0
C2791 C 0.06354 0.7851 0.23338 0.0
C2792 C 0.08454 0.79474 0.22167 0.0
C2793 C 0.06273 0.7919 0.22238 0.0
C2794 C 0.0943 0.80511 0.20334 0.0
C2795 C 0.11724 0.80301 0.21439 0.0
N2796 N 0.07306 0.79643 0.2169 0.0
N2797 N 0.10691 0.79885 0.22017 0.0
H2798 H 0.8969 0.20212 0.2183 0.0
H2799 H 0.95273 0.25074 0.2165 0.0
H2800 H 0.90369 0.22696 0.18794 0.0
H2801 H 0.95002 0.22157 0.24345 0.0
H2802 H 0.93405 0.2429 0.20663 0.0
H2803 H 0.91562 0.20983 0.22833 0.0
C2804 C 0.90234 0.20914 0.21369 0.0
C2805 C 0.89865 0.21389 0.20223 0.0
C2806 C 0.93754 0.2382 0.2147 0.0
C2807 C 0.92005 0.22289 0.21378 0.0
C2808 C 0.94827 0.24263 0.22032 0.0
C2809 C 0.95305 0.23679 0.23082 0.0
C2810 C 0.93144 0.22786 0.21961 0.0
C2811 C 0.94664 0.22648 0.23547 0.0
C2812 C 0.913 0.21359 0.21947 0.0
C2813 C 0.90601 0.22315 0.19685 0.0
N2814 N 0.93619 0.22236 0.22984 0.0
N2815 N 0.91632 0.22734 0.20267 0.0
H2816 H 0.22152 0.71424 0.6274 0.0
H2817 H 0.22043 0.72019 0.55391 0.0
H2818 H 0.19949 0.69091 0.60384 0.0
H2819 H 0.24629 0.73983 0.57699 0.0
H2820 H 0.21168 0.71039 0.5722 0.0
H2821 H 0.22967 0.72475 0.60919 0.0
C2822 C 0.21832 0.71138 0.61841 0.0
C2823 C 0.20981 0.70165 0.61717 0.0
C2824 C 0.21927 0.71685 0.57328 0.0
C2825 C 0.21919 0.71361 0.59624 0.0
C2826 C 0.22423 0.7225 0.56283 0.0
C2827 C 0.23412 0.73086 0.56389 0.0
C2828 C 0.22417 0.71959 0.58494 0.0
C2829 C 0.23876 0.73335 0.57571 0.0
C2830 C 0.22305 0.71734 0.608 0.0
C2831 C 0.20613 0.69826 0.60524 0.0
N2832 N 0.23374 0.72777 0.58576 0.0
N2833 N 0.21083 0.70423 0.59527 0.0
H2834 H 0.81659 0.71753 0.62078 0.0
H2835 H 0.7671 0.71688 0.56603 0.0
H2836 H 0.79093 0.68763 0.61433 0.0
H2837 H 0.797 0.74328 0.56824 0.0
H2838 H 0.77502 0.70673 0.58443 0.0
H2839 H 0.80892 0.72773 0.60223 0.0
C2840 C 0.8094 0.71306 0.61545 0.0
C2841 C 0.8044 0.70168 0.61919 0.0
C2842 C 0.77986 0.71474 0.58088 0.0
C2843 C 0.79545 0.71344 0.598 0.0
C2844 C 0.77538 0.72051 0.57032 0.0
C2845 C 0.7814 0.73095 0.56549 0.0
C2846 C 0.79043 0.71943 0.58676 0.0
C2847 C 0.79194 0.73536 0.57167 0.0
C2848 C 0.80498 0.71893 0.60488 0.0
C2849 C 0.79494 0.69647 0.61197 0.0
N2850 N 0.79612 0.72958 0.58197 0.0
N2851 N 0.79077 0.70239 0.60177 0.0
H2852 H 0.81943 0.32571 0.60484 0.0
H2853 H 0.77531 0.27307 0.57712 0.0
H2854 H 0.79463 0.30376 0.62697 0.0
H2855 H 0.795 0.29953 0.55477 0.0
H2856 H 0.78363 0.28299 0.59557 0.0
H2857 H 0.81195 0.315 0.58651 0.0
C2858 C 0.81248 0.31857 0.60586 0.0
C2859 C 0.80765 0.31565 0.61748 0.0
C2860 C 0.78614 0.28662 0.58663 0.0
C2861 C 0.79897 0.30337 0.59648 0.0
C2862 C 0.78145 0.28092 0.57609 0.0
C2863 C 0.78443 0.28549 0.56437 0.0
C2864 C 0.79397 0.29693 0.58547 0.0
C2865 C 0.79232 0.29578 0.56361 0.0
C2866 C 0.80815 0.31251 0.59537 0.0
C2867 C 0.79852 0.30641 0.6182 0.0
N2868 N 0.79683 0.30113 0.574 0.0
N2869 N 0.7945 0.3006 0.60786 0.0
H2870 H 0.22837 0.32864 0.61661 0.0
H2871 H 0.21847 0.27528 0.567 0.0
H2872 H 0.19587 0.30545 0.61533 0.0
H2873 H 0.24862 0.30147 0.56612 0.0
H2874 H 0.21032 0.28567 0.58504 0.0
H2875 H 0.2362 0.31825 0.59853 0.0
C2876 C 0.22281 0.32142 0.61249 0.0
C2877 C 0.21138 0.318 0.61751 0.0
C2878 C 0.21872 0.28914 0.58089 0.0
C2879 C 0.22045 0.30586 0.5968 0.0
C2880 C 0.22336 0.28324 0.57054 0.0
C2881 C 0.23428 0.28747 0.56499 0.0
C2882 C 0.22504 0.29934 0.58578 0.0
C2883 C 0.24028 0.29773 0.57016 0.0
C2884 C 0.22734 0.31543 0.60218 0.0
C2885 C 0.20478 0.30835 0.61188 0.0
N2886 N 0.23559 0.30329 0.58023 0.0
N2887 N 0.2094 0.30264 0.60184 0.0
H2888 H 0.20038 0.32801 0.41589 0.0
H2889 H 0.24673 0.27781 0.44274 0.0
H2890 H 0.22165 0.3041 0.39297 0.0
H2891 H 0.22075 0.29723 0.46509 0.0
H2892 H 0.2383 0.28792 0.42445 0.0
H2893 H 0.20833 0.3174 0.43409 0.0
C2894 C 0.20675 0.32054 0.41469 0.0
C2895 C 0.21037 0.31696 0.40289 0.0
C2896 C 0.23441 0.28994 0.43335 0.0
C2897 C 0.21951 0.30473 0.42369 0.0
C2898 C 0.23927 0.28423 0.4438 0.0
C2899 C 0.23445 0.28669 0.45547 0.0
C2900 C 0.22472 0.29827 0.43456 0.0
C2901 C 0.22467 0.29497 0.45627 0.0
C2902 C 0.21123 0.31444 0.42508 0.0
C2903 C 0.21852 0.3071 0.40188 0.0
N2904 N 0.22018 0.3005 0.44598 0.0
N2905 N 0.22286 0.30138 0.41214 0.0
H2906 H 0.1935 0.69673 0.41368 0.0
H2907 H 0.2449 0.74243 0.44134 0.0
H2908 H 0.21508 0.72177 0.39144 0.0
H2909 H 0.21944 0.72151 0.46372 0.0
H2910 H 0.23523 0.73376 0.42291 0.0
H2911 H 0.20407 0.70446 0.43203 0.0
C2912 C 0.20054 0.70378 0.41264 0.0
C2913 C 0.20338 0.70861 0.40098 0.0
C2914 C 0.23176 0.73106 0.43185 0.0
C2915 C 0.21548 0.7176 0.422 0.0
C2916 C 0.23733 0.73596 0.44239 0.0
C2917 C 0.23297 0.73273 0.45412 0.0
C2918 C 0.2218 0.7228 0.43302 0.0
C2919 C 0.22302 0.7244 0.45488 0.0
C2920 C 0.20651 0.70825 0.42314 0.0
C2921 C 0.21248 0.71787 0.40024 0.0
N2922 N 0.21779 0.71972 0.44449 0.0
N2923 N 0.2182 0.72204 0.41059 0.0
H2924 H 0.8256 0.69945 0.41659 0.0
H2925 H 0.77714 0.74745 0.4428 0.0
H2926 H 0.80308 0.72242 0.39341 0.0
H2927 H 0.79503 0.72019 0.46535 0.0
H2928 H 0.78711 0.73894 0.42468 0.0
H2929 H 0.81505 0.70742 0.43464 0.0
C2930 C 0.81845 0.70618 0.4153 0.0
C2931 C 0.81524 0.71028 0.40346 0.0
C2932 C 0.78883 0.73479 0.43359 0.0
C2933 C 0.80309 0.71945 0.4241 0.0
C2934 C 0.78319 0.73969 0.44395 0.0
C2935 C 0.78526 0.73455 0.45563 0.0
C2936 C 0.7967 0.72471 0.43489 0.0
C2937 C 0.79307 0.72439 0.45652 0.0
C2938 C 0.81238 0.71069 0.42561 0.0
C2939 C 0.80578 0.71891 0.40234 0.0
N2940 N 0.79854 0.71985 0.44632 0.0
N2941 N 0.8001 0.72325 0.41252 0.0
H2942 H 0.81925 0.29989 0.39894 0.0
H2943 H 0.76974 0.30078 0.45333 0.0
H2944 H 0.79265 0.32859 0.40376 0.0
H2945 H 0.79852 0.27391 0.45109 0.0
H2946 H 0.77772 0.31067 0.43479 0.0
H2947 H 0.81157 0.28988 0.41764 0.0
C2948 C 0.81184 0.30413 0.40393 0.0
C2949 C 0.80658 0.31511 0.39968 0.0
C2950 C 0.78231 0.30261 0.43835 0.0
C2951 C 0.79764 0.30358 0.42107 0.0
C2952 C 0.77779 0.29699 0.449 0.0
C2953 C 0.78348 0.2865 0.45387 0.0
C2954 C 0.7926 0.29774 0.43242 0.0
C2955 C 0.79374 0.28188 0.44764 0.0
C2956 C 0.80741 0.29836 0.41459 0.0
C2957 C 0.79687 0.32004 0.4065 0.0
N2958 N 0.79797 0.28753 0.43726 0.0
N2959 N 0.79273 0.31425 0.41681 0.0
H2960 H 0.11348 0.69537 0.71344 0.0
H2961 H 0.06651 0.75137 0.71855 0.0
H2962 H 0.11634 0.72874 0.69198 0.0
H2963 H 0.06469 0.71922 0.74189 0.0
H2964 H 0.08467 0.74303 0.70861 0.0
H2965 H 0.09568 0.70384 0.72402 0.0
C2966 C 0.11044 0.7045 0.71099 0.0
C2967 C 0.11644 0.71131 0.70173 0.0
C2968 C 0.08032 0.73779 0.71592 0.0
C2969 C 0.09593 0.72102 0.71375 0.0
C2970 C 0.06989 0.74252 0.72156 0.0
C2971 C 0.064 0.73598 0.73106 0.0
C2972 C 0.08494 0.72638 0.71974 0.0
C2973 C 0.06897 0.72466 0.73469 0.0
C2974 C 0.10021 0.7093 0.717 0.0
C2975 C 0.11192 0.72304 0.69887 0.0
N2976 N 0.07911 0.7202 0.72901 0.0
N2977 N 0.10196 0.72748 0.70483 0.0
H2978 H 0.80884 0.6279 0.73112 0.0
H2979 H 0.79368 0.5567 0.71991 0.0
H2980 H 0.81892 0.60862 0.69819 0.0
H2981 H 0.77902 0.57733 0.75018 0.0
H2982 H 0.80332 0.5755 0.71202 0.0
H2983 H 0.79838 0.60931 0.73856 0.0
C2984 C 0.80888 0.61975 0.72546 0.0
C2985 C 0.81479 0.61982 0.71402 0.0
C2986 C 0.79797 0.57592 0.72037 0.0
C2987 C 0.80278 0.59849 0.72247 0.0
C2988 C 0.79239 0.56519 0.72486 0.0
C2989 C 0.7855 0.56538 0.73576 0.0
C2990 C 0.79673 0.58696 0.72683 0.0
C2991 C 0.78438 0.57665 0.74186 0.0
C2992 C 0.80284 0.60915 0.72969 0.0
C2993 C 0.81438 0.60903 0.70701 0.0
N2994 N 0.78995 0.58696 0.73734 0.0
N2995 N 0.80854 0.5988 0.71137 0.0
H2996 H 0.90402 0.29385 0.68938 0.0
H2997 H 0.95085 0.30013 0.74622 0.0
H2998 H 0.89936 0.3201 0.71853 0.0
H2999 H 0.95281 0.27178 0.71874 0.0
H3000 H 0.93233 0.30797 0.73612 0.0
H3001 H 0.92228 0.28614 0.69982 0.0
C3002 C 0.90677 0.29795 0.69803 0.0
C3003 C 0.90003 0.3076 0.7031 0.0
C3004 C 0.93683 0.30003 0.73231 0.0
C3005 C 0.92118 0.29888 0.71507 0.0
C3006 C 0.94737 0.2955 0.73811 0.0
C3007 C 0.95348 0.28527 0.73333 0.0
C3008 C 0.93232 0.29432 0.72161 0.0
C3009 C 0.94859 0.2798 0.72267 0.0
C3010 C 0.91727 0.29358 0.70396 0.0
C3011 C 0.90429 0.31272 0.7142 0.0
N3012 N 0.93834 0.28439 0.71719 0.0
N3013 N 0.91457 0.30829 0.71982 0.0
H3014 H 0.21611 0.39039 0.72466 0.0
H3015 H 0.21813 0.46392 0.72477 0.0
H3016 H 0.19344 0.41275 0.70102 0.0
H3017 H 0.24481 0.44163 0.74378 0.0
H3018 H 0.20856 0.44527 0.71648 0.0
H3019 H 0.22636 0.40902 0.73224 0.0
C3020 C 0.21328 0.39922 0.72107 0.0
C3021 C 0.20387 0.4 0.7122 0.0
C3022 C 0.21653 0.44445 0.72243 0.0
C3023 C 0.21559 0.42139 0.72084 0.0
C3024 C 0.22195 0.45509 0.72723 0.0
C3025 C 0.23227 0.45434 0.73502 0.0
C3026 C 0.22137 0.43292 0.7255 0.0
C3027 C 0.23693 0.44265 0.73773 0.0
C3028 C 0.21918 0.40985 0.72536 0.0
C3029 C 0.20071 0.41169 0.70777 0.0
N3030 N 0.23142 0.43241 0.73304 0.0
N3031 N 0.2065 0.42191 0.71218 0.0
H3032 H 0.12764 0.29278 0.30536 0.0
H3033 H 0.05416 0.29392 0.30062 0.0
H3034 H 0.10524 0.31804 0.3256 0.0
H3035 H 0.07689 0.27453 0.27496 0.0
H3036 H 0.07274 0.30207 0.31058 0.0
H3037 H 0.10914 0.2852 0.29478 0.0
C3038 C 0.11882 0.29672 0.30759 0.0
C3039 C 0.11798 0.30605 0.31639 0.0
C3040 C 0.07368 0.29607 0.30275 0.0
C3041 C 0.09677 0.29742 0.30431 0.0
C3042 C 0.06307 0.29135 0.29711 0.0
C3043 C 0.06398 0.28351 0.28697 0.0
C3044 C 0.08531 0.29282 0.29831 0.0
C3045 C 0.07577 0.28062 0.2827 0.0
C3046 C 0.10828 0.29243 0.3015 0.0
C3047 C 0.10633 0.31091 0.3188 0.0
N3048 N 0.08597 0.28522 0.28843 0.0
N3049 N 0.09618 0.3065 0.31285 0.0
H3050 H 0.21463 0.62518 0.30009 0.0
H3051 H 0.22329 0.55214 0.30137 0.0
H3052 H 0.2021 0.60166 0.32965 0.0
H3053 H 0.23927 0.57584 0.27363 0.0
H3054 H 0.21444 0.57008 0.31115 0.0
H3055 H 0.22245 0.60713 0.28947 0.0
C3056 C 0.21342 0.61621 0.3043 0.0
C3057 C 0.20773 0.61497 0.31582 0.0
C3058 C 0.21987 0.57137 0.30292 0.0
C3059 C 0.21676 0.59424 0.30374 0.0
C3060 C 0.22501 0.56112 0.29735 0.0
C3061 C 0.23214 0.56244 0.28667 0.0
C3062 C 0.22182 0.5831 0.2978 0.0
C3063 C 0.23376 0.57432 0.28177 0.0
C3064 C 0.21797 0.60591 0.29827 0.0
C3065 C 0.20657 0.60311 0.32088 0.0
N3066 N 0.22867 0.58418 0.28738 0.0
N3067 N 0.21105 0.59324 0.31483 0.0
H3068 H 0.90496 0.68792 0.29586 0.0
H3069 H 0.94995 0.74667 0.29984 0.0
H3070 H 0.89851 0.71851 0.31997 0.0
H3071 H 0.95382 0.71757 0.27342 0.0
H3072 H 0.93169 0.73615 0.30808 0.0
H3073 H 0.92336 0.69836 0.28819 0.0
C3074 C 0.90735 0.69687 0.29951 0.0
C3075 C 0.90006 0.70236 0.30853 0.0
C3076 C 0.93654 0.73208 0.30047 0.0
C3077 C 0.92135 0.71435 0.29986 0.0
C3078 C 0.947 0.73804 0.2958 0.0
C3079 C 0.95344 0.73302 0.28589 0.0
C3080 C 0.93249 0.72096 0.29524 0.0
C3081 C 0.94908 0.72189 0.28094 0.0
C3082 C 0.91793 0.70281 0.29516 0.0
C3083 C 0.90387 0.71386 0.31309 0.0
N3084 N 0.93892 0.71625 0.28567 0.0
N3085 N 0.91422 0.71947 0.30869 0.0
H3086 H 0.79994 0.3927 0.30231 0.0
H3087 H 0.80239 0.46579 0.29287 0.0
H3088 H 0.83055 0.41567 0.31362 0.0
H3089 H 0.77318 0.44266 0.27858 0.0
H3090 H 0.81229 0.44763 0.30142 0.0
H3091 H 0.78935 0.41097 0.29472 0.0
C3092 C 0.8044 0.40159 0.3033 0.0
C3093 C 0.81619 0.40261 0.30859 0.0
C3094 C 0.80371 0.44651 0.29643 0.0
C3095 C 0.80415 0.4236 0.29979 0.0
C3096 C 0.79807 0.45689 0.29146 0.0
C3097 C 0.78694 0.4558 0.2849 0.0
C3098 C 0.7982 0.43488 0.29487 0.0
C3099 C 0.78168 0.444 0.28365 0.0
C3100 C 0.79838 0.41202 0.29888 0.0
C3101 C 0.82156 0.41439 0.30946 0.0
N3102 N 0.78736 0.43402 0.28855 0.0
N3103 N 0.81551 0.42439 0.30511 0.0
H3104 H 0.18953 0.61561 0.72923 0.0
H3105 H 0.2425 0.56594 0.71983 0.0
H3106 H 0.21237 0.61447 0.69691 0.0
H3107 H 0.21724 0.56551 0.75031 0.0
H3108 H 0.23232 0.58424 0.7117 0.0
H3109 H 0.20015 0.59771 0.73737 0.0
C3110 C 0.19672 0.61157 0.72378 0.0
C3111 C 0.19996 0.61657 0.71229 0.0
C3112 C 0.22901 0.58014 0.72016 0.0
C3113 C 0.21237 0.59605 0.72172 0.0
C3114 C 0.23487 0.56973 0.72486 0.0
C3115 C 0.23072 0.56413 0.73577 0.0
C3116 C 0.21895 0.58506 0.72645 0.0
C3117 C 0.22066 0.56938 0.74179 0.0
C3118 C 0.20285 0.60136 0.72849 0.0
C3119 C 0.2096 0.61104 0.70584 0.0
N3120 N 0.21515 0.57952 0.73706 0.0
N3121 N 0.21544 0.60108 0.71063 0.0
H3122 H 0.2121 0.40384 0.32396 0.0
H3123 H 0.21706 0.45254 0.26875 0.0
H3124 H 0.1904 0.40164 0.29067 0.0
H3125 H 0.24272 0.45154 0.29917 0.0
H3126 H 0.2067 0.43435 0.27708 0.0
H3127 H 0.22294 0.42176 0.31549 0.0
C3128 C 0.20964 0.40706 0.31485 0.0
C3129 C 0.20027 0.40119 0.30805 0.0
C3130 C 0.21462 0.43809 0.28193 0.0
C3131 C 0.21257 0.42184 0.29836 0.0
C3132 C 0.2206 0.44845 0.27713 0.0
C3133 C 0.23084 0.45361 0.28323 0.0
C3134 C 0.21882 0.43281 0.29296 0.0
C3135 C 0.23479 0.44801 0.29422 0.0
C3136 C 0.2158 0.41734 0.31005 0.0
C3137 C 0.19739 0.40595 0.29636 0.0
N3138 N 0.22878 0.43793 0.29873 0.0
N3139 N 0.20349 0.41598 0.29191 0.0
H3140 H 0.11305 0.68929 0.29173 0.0
H3141 H 0.06602 0.74467 0.30056 0.0
H3142 H 0.11429 0.71358 0.32295 0.0
H3143 H 0.06289 0.7177 0.27175 0.0
H3144 H 0.08402 0.73392 0.30863 0.0
H3145 H 0.09508 0.70012 0.28399 0.0
C3146 C 0.10951 0.69685 0.29702 0.0
C3147 C 0.1152 0.70044 0.30808 0.0
C3148 C 0.07939 0.73037 0.30053 0.0
C3149 C 0.09461 0.71308 0.2991 0.0
C3150 C 0.06906 0.73647 0.29595 0.0
C3151 C 0.06288 0.73213 0.28542 0.0
C3152 C 0.08363 0.71984 0.29455 0.0
C3153 C 0.06742 0.72154 0.27976 0.0
C3154 C 0.09926 0.70309 0.29254 0.0
C3155 C 0.11031 0.71053 0.31434 0.0
N3156 N 0.07748 0.71579 0.28438 0.0
N3157 N 0.1003 0.71647 0.30977 0.0
H3158 H 0.82182 0.60786 0.32058 0.0
H3159 H 0.76818 0.57726 0.2797 0.0
H3160 H 0.78863 0.62665 0.30998 0.0
H3161 H 0.79905 0.55707 0.29418 0.0
H3162 H 0.77616 0.59576 0.28969 0.0
H3163 H 0.81438 0.58958 0.30972 0.0
C3164 C 0.81301 0.60818 0.31589 0.0
C3165 C 0.80583 0.61881 0.31623 0.0
C3166 C 0.7812 0.58729 0.29067 0.0
C3167 C 0.79721 0.59786 0.30384 0.0
C3168 C 0.77661 0.57668 0.28502 0.0
C3169 C 0.7829 0.56552 0.28612 0.0
C3170 C 0.79221 0.5868 0.29747 0.0
C3171 C 0.79393 0.56546 0.29293 0.0
C3172 C 0.80873 0.59771 0.30975 0.0
C3173 C 0.79441 0.61862 0.31011 0.0
N3174 N 0.79821 0.57591 0.29836 0.0
N3175 N 0.79047 0.60833 0.30417 0.0
H3176 H 0.91384 0.31912 0.32509 0.0
H3177 H 0.94143 0.27694 0.27193 0.0
H3178 H 0.89135 0.29702 0.30078 0.0
H3179 H 0.96375 0.29452 0.2998 0.0
H3180 H 0.92304 0.28553 0.28133 0.0
H3181 H 0.93225 0.31157 0.31487 0.0
C3182 C 0.91276 0.31276 0.31753 0.0
C3183 C 0.90101 0.30869 0.31382 0.0
C3184 C 0.93196 0.28752 0.28539 0.0
C3185 C 0.92209 0.29991 0.30211 0.0
C3186 C 0.94247 0.28267 0.27998 0.0
C3187 C 0.95417 0.28498 0.28509 0.0
C3188 C 0.93311 0.29481 0.29596 0.0
C3189 C 0.95492 0.29236 0.29563 0.0
C3190 C 0.92329 0.30838 0.31175 0.0
C3191 C 0.90022 0.3003 0.30406 0.0
N3192 N 0.94456 0.29702 0.30069 0.0
N3193 N 0.91059 0.29621 0.29855 0.0
H3194 H 0.80402 0.40473 0.69543 0.0
H3195 H 0.80167 0.45478 0.74912 0.0
H3196 H 0.82788 0.40456 0.72729 0.0
H3197 H 0.77527 0.45321 0.71937 0.0
H3198 H 0.81168 0.4367 0.74086 0.0
H3199 H 0.79363 0.42271 0.70366 0.0
C3200 C 0.80705 0.40841 0.70418 0.0
C3201 C 0.8169 0.40309 0.71063 0.0
C3202 C 0.80369 0.44029 0.73613 0.0
C3203 C 0.8051 0.42381 0.72005 0.0
C3204 C 0.79791 0.4506 0.74089 0.0
C3205 C 0.78754 0.45555 0.73498 0.0
C3206 C 0.79913 0.43483 0.72533 0.0
C3207 C 0.78329 0.44983 0.72418 0.0
C3208 C 0.80115 0.41873 0.70884 0.0
C3209 C 0.8205 0.40842 0.72185 0.0
N3210 N 0.78909 0.43979 0.71971 0.0
N3211 N 0.81462 0.41846 0.72617 0.0
H3212 H 0.11318 0.29223 0.68922 0.0
H3213 H 0.06774 0.2986 0.74651 0.0
H3214 H 0.12015 0.31707 0.71932 0.0
H3215 H 0.06415 0.27043 0.7189 0.0
H3216 H 0.08655 0.30599 0.73648 0.0
H3217 H 0.09478 0.2847 0.69969 0.0
C3218 C 0.11092 0.29605 0.69808 0.0
C3219 C 0.11833 0.30528 0.7034 0.0
C3220 C 0.08164 0.29819 0.73263 0.0
C3221 C 0.09703 0.29678 0.7154 0.0
C3222 C 0.07093 0.29391 0.73839 0.0
C3223 C 0.06428 0.28387 0.73355 0.0
C3224 C 0.08577 0.29243 0.72191 0.0
C3225 C 0.0688 0.27832 0.72288 0.0
C3226 C 0.10034 0.29178 0.70403 0.0
C3227 C 0.11469 0.31005 0.71479 0.0
N3228 N 0.07922 0.28268 0.71743 0.0
N3229 N 0.10431 0.30575 0.7204 0.0
H3230 H 0.89959 0.7318 0.69197 0.0
H3231 H 0.95284 0.7197 0.74163 0.0
H3232 H 0.90349 0.69751 0.71163 0.0
H3233 H 0.95125 0.75205 0.7186 0.0
H3234 H 0.93414 0.71184 0.73163 0.0
H3235 H 0.91797 0.73969 0.70235 0.0
C3236 C 0.90434 0.72588 0.69841 0.0
C3237 C 0.89998 0.71392 0.70085 0.0
C3238 C 0.93789 0.72066 0.72876 0.0
C3239 C 0.92101 0.72302 0.71296 0.0
C3240 C 0.94852 0.72519 0.73452 0.0
C3241 C 0.95364 0.73655 0.73095 0.0
C3242 C 0.93227 0.72756 0.71939 0.0
C3243 C 0.94773 0.74318 0.72156 0.0
C3244 C 0.91481 0.73044 0.7044 0.0
C3245 C 0.90641 0.70682 0.70953 0.0
N3246 N 0.93736 0.7386 0.71613 0.0
N3247 N 0.9166 0.71147 0.71525 0.0
H3248 H 0.7025 0.18707 0.60324 0.0
H3249 H 0.74033 0.24488 0.57647 0.0
H3250 H 0.71548 0.21714 0.6257 0.0
H3251 H 0.72548 0.21566 0.55398 0.0
H3252 H 0.73108 0.23511 0.59455 0.0
H3253 H 0.71073 0.19755 0.5851 0.0
C3254 C 0.70711 0.19587 0.60437 0.0
C3255 C 0.70834 0.20119 0.61605 0.0
C3256 C 0.72983 0.23085 0.58565 0.0
C3257 C 0.71777 0.21332 0.59523 0.0
C3258 C 0.73506 0.23646 0.5753 0.0
C3259 C 0.73374 0.23109 0.56364 0.0
C3260 C 0.72321 0.21975 0.58439 0.0
C3261 C 0.72694 0.22006 0.56277 0.0
C3262 C 0.71176 0.20189 0.59398 0.0
C3263 C 0.71422 0.21273 0.61689 0.0
N3264 N 0.72197 0.21477 0.57298 0.0
N3265 N 0.71876 0.21837 0.60664 0.0
H3266 H 0.29221 0.18676 0.61374 0.0
H3267 H 0.29675 0.24577 0.56964 0.0
H3268 H 0.3159 0.21797 0.62129 0.0
H3269 H 0.26966 0.21678 0.56531 0.0
H3270 H 0.30467 0.23532 0.58797 0.0
H3271 H 0.28451 0.19728 0.59547 0.0
C3272 C 0.29575 0.19587 0.61162 0.0
C3273 C 0.30469 0.20149 0.61916 0.0
C3274 C 0.29698 0.23126 0.58302 0.0
C3275 C 0.29601 0.21355 0.59803 0.0
C3276 C 0.29249 0.23718 0.57251 0.0
C3277 C 0.28251 0.23216 0.56592 0.0
C3278 C 0.2915 0.22017 0.58694 0.0
C3279 C 0.27727 0.22108 0.57018 0.0
C3280 C 0.29139 0.20185 0.60112 0.0
C3281 C 0.30911 0.2132 0.61572 0.0
N3282 N 0.28184 0.21545 0.58037 0.0
N3283 N 0.30473 0.21883 0.60542 0.0
H3284 H 0.32061 0.82684 0.60286 0.0
H3285 H 0.27257 0.77682 0.57682 0.0
H3286 H 0.29723 0.80446 0.62608 0.0
H3287 H 0.29893 0.79621 0.55414 0.0
H3288 H 0.28116 0.78712 0.59492 0.0
H3289 H 0.31253 0.81597 0.58488 0.0
C3290 C 0.31376 0.81965 0.60418 0.0
C3291 C 0.30958 0.81659 0.61602 0.0
C3292 C 0.28509 0.7891 0.58599 0.0
C3293 C 0.30028 0.80405 0.59543 0.0
C3294 C 0.28014 0.78327 0.57564 0.0
C3295 C 0.28501 0.78565 0.56391 0.0
C3296 C 0.29496 0.79746 0.58465 0.0
C3297 C 0.29495 0.79398 0.56299 0.0
C3298 C 0.30919 0.8134 0.59391 0.0
C3299 C 0.30081 0.80706 0.61716 0.0
N3300 N 0.29955 0.79961 0.57319 0.0
N3301 N 0.29642 0.80119 0.60701 0.0
H3302 H 0.72724 0.82979 0.61522 0.0
H3303 H 0.7192 0.77471 0.56724 0.0
H3304 H 0.69963 0.80118 0.61908 0.0
H3305 H 0.74949 0.80075 0.56675 0.0
H3306 H 0.7114 0.78455 0.58576 0.0
H3307 H 0.73492 0.81964 0.59695 0.0
C3308 C 0.72282 0.82132 0.6123 0.0
C3309 C 0.7128 0.81631 0.61882 0.0
C3310 C 0.71975 0.7881 0.58159 0.0
C3311 C 0.72149 0.80469 0.59765 0.0
C3312 C 0.72426 0.78244 0.57104 0.0
C3313 C 0.73503 0.7869 0.56535 0.0
C3314 C 0.72602 0.79832 0.5865 0.0
C3315 C 0.74105 0.79709 0.57064 0.0
C3316 C 0.72719 0.81555 0.60179 0.0
C3317 C 0.7073 0.80546 0.61433 0.0
N3318 N 0.73646 0.80244 0.58088 0.0
N3319 N 0.71173 0.80001 0.60404 0.0
H3320 H 0.73094 0.82764 0.4017 0.0
H3321 H 0.7191 0.77715 0.45429 0.0
H3322 H 0.69652 0.80783 0.40582 0.0
H3323 H 0.7512 0.80084 0.45301 0.0
H3324 H 0.71117 0.78732 0.4358 0.0
H3325 H 0.73889 0.81712 0.41986 0.0
C3326 C 0.725 0.82114 0.40645 0.0
C3327 C 0.71299 0.8187 0.40221 0.0
C3328 C 0.71994 0.79029 0.43957 0.0
C3329 C 0.72217 0.80642 0.42299 0.0
C3330 C 0.72452 0.78444 0.45008 0.0
C3331 C 0.73583 0.78816 0.45523 0.0
C3332 C 0.72677 0.79989 0.4341 0.0
C3333 C 0.74237 0.79777 0.44946 0.0
C3334 C 0.7296 0.81507 0.4168 0.0
C3335 C 0.70588 0.80994 0.40864 0.0
N3336 N 0.73776 0.80328 0.43922 0.0
N3337 N 0.71057 0.80413 0.4187 0.0
H3338 H 0.68747 0.22351 0.4058 0.0
H3339 H 0.74601 0.21954 0.45076 0.0
H3340 H 0.71756 0.19871 0.39993 0.0
H3341 H 0.71685 0.24578 0.45473 0.0
H3342 H 0.73551 0.21124 0.4326 0.0
H3343 H 0.69793 0.2313 0.42408 0.0
C3344 C 0.69632 0.21974 0.40829 0.0
C3345 C 0.70166 0.21048 0.4012 0.0
C3346 C 0.73142 0.21882 0.43744 0.0
C3347 C 0.71367 0.2193 0.42236 0.0
C3348 C 0.73738 0.22353 0.44786 0.0
C3349 C 0.73234 0.23341 0.4543 0.0
C3350 C 0.72029 0.22398 0.43343 0.0
C3351 C 0.7212 0.23829 0.44999 0.0
C3352 C 0.70227 0.22416 0.4188 0.0
C3353 C 0.71303 0.20578 0.40513 0.0
N3354 N 0.71556 0.23352 0.43986 0.0
N3355 N 0.71866 0.21025 0.41542 0.0
H3356 H 0.32705 0.22898 0.40414 0.0
H3357 H 0.2741 0.21955 0.45449 0.0
H3358 H 0.30374 0.19663 0.4059 0.0
H3359 H 0.29995 0.24995 0.45437 0.0
H3360 H 0.28405 0.21144 0.43613 0.0
H3361 H 0.3166 0.23711 0.42206 0.0
C3362 C 0.31979 0.22353 0.40834 0.0
C3363 C 0.31636 0.21203 0.40351 0.0
C3364 C 0.28754 0.21989 0.44013 0.0
C3365 C 0.30416 0.22144 0.42403 0.0
C3366 C 0.28182 0.22456 0.45057 0.0
C3367 C 0.28621 0.23544 0.45602 0.0
C3368 C 0.2977 0.22616 0.43504 0.0
C3369 C 0.29635 0.24145 0.4506 0.0
C3370 C 0.31376 0.22822 0.41855 0.0
C3371 C 0.30665 0.20557 0.40921 0.0
N3372 N 0.30172 0.23674 0.44044 0.0
N3373 N 0.30091 0.21034 0.41917 0.0
H3374 H 0.31877 0.80021 0.39912 0.0
H3375 H 0.27057 0.80178 0.45466 0.0
H3376 H 0.29392 0.83013 0.40553 0.0
H3377 H 0.29765 0.77342 0.45068 0.0
H3378 H 0.27866 0.8119 0.43627 0.0
H3379 H 0.31102 0.79003 0.41769 0.0
C3380 C 0.31174 0.80469 0.40444 0.0
C3381 C 0.30698 0.81606 0.40067 0.0
C3382 C 0.28285 0.80347 0.43941 0.0
C3383 C 0.29795 0.80434 0.42191 0.0
C3384 C 0.27818 0.79763 0.44988 0.0
C3385 C 0.2834 0.78669 0.45424 0.0
C3386 C 0.29282 0.79835 0.43315 0.0
C3387 C 0.2934 0.78189 0.44775 0.0
C3388 C 0.30727 0.79882 0.41502 0.0
C3389 C 0.29774 0.82129 0.4079 0.0
N3390 N 0.29776 0.78772 0.43752 0.0
N3391 N 0.29354 0.81539 0.41812 0.0
H3392 H 0.62668 0.22223 0.71508 0.0
H3393 H 0.55312 0.22156 0.72108 0.0
H3394 H 0.6025 0.20064 0.69193 0.0
H3395 H 0.57683 0.24671 0.7409 0.0
H3396 H 0.57121 0.21289 0.71127 0.0
H3397 H 0.60867 0.23033 0.72562 0.0
C3398 C 0.61759 0.21911 0.71227 0.0
C3399 C 0.61612 0.21075 0.70258 0.0
C3400 C 0.57247 0.2203 0.71776 0.0
C3401 C 0.59543 0.22007 0.71456 0.0
C3402 C 0.56214 0.22522 0.72343 0.0
C3403 C 0.56343 0.23489 0.73185 0.0
C3404 C 0.58425 0.22502 0.72055 0.0
C3405 C 0.57537 0.23936 0.73438 0.0
C3406 C 0.60731 0.22381 0.71824 0.0
C3407 C 0.60409 0.20718 0.69924 0.0
N3408 N 0.5853 0.23438 0.72878 0.0
N3409 N 0.59423 0.21184 0.70522 0.0
H3410 H 0.32792 0.10441 0.70224 0.0
H3411 H 0.27663 0.07687 0.74759 0.0
H3412 H 0.30324 0.12699 0.723 0.0
H3413 H 0.29694 0.05485 0.72202 0.0
H3414 H 0.28686 0.09529 0.73938 0.0
H3415 H 0.31724 0.08609 0.71003 0.0
C3416 C 0.32027 0.10551 0.70846 0.0
C3417 C 0.31649 0.11726 0.71199 0.0
C3418 C 0.28905 0.08643 0.73554 0.0
C3419 C 0.30418 0.09631 0.72094 0.0
C3420 C 0.28327 0.07591 0.74027 0.0
C3421 C 0.28594 0.06429 0.73549 0.0
C3422 C 0.29765 0.08535 0.72602 0.0
C3423 C 0.29451 0.06362 0.7259 0.0
C3424 C 0.31413 0.09505 0.71285 0.0
C3425 C 0.3064 0.11813 0.71995 0.0
N3426 N 0.30009 0.07398 0.72153 0.0
N3427 N 0.30064 0.1078 0.7242 0.0
H3428 H 0.41551 0.82197 0.69376 0.0
H3429 H 0.44108 0.77324 0.7428 0.0
H3430 H 0.39202 0.79808 0.71532 0.0
H3431 H 0.46406 0.80021 0.72454 0.0
H3432 H 0.42304 0.78195 0.73258 0.0
H3433 H 0.43342 0.81391 0.7047 0.0
C3434 C 0.41411 0.81501 0.70079 0.0
C3435 C 0.40222 0.81068 0.70359 0.0
C3436 C 0.43202 0.78599 0.73084 0.0
C3437 C 0.42274 0.8014 0.71621 0.0
C3438 C 0.44234 0.78098 0.73662 0.0
C3439 C 0.45413 0.78598 0.73452 0.0
C3440 C 0.43347 0.79605 0.7228 0.0
C3441 C 0.45516 0.79613 0.72654 0.0
C3442 C 0.42435 0.81045 0.70708 0.0
C3443 C 0.40098 0.80178 0.71292 0.0
N3444 N 0.44499 0.80078 0.72094 0.0
N3445 N 0.4111 0.79739 0.71884 0.0
H3446 H 0.71702 0.89066 0.72462 0.0
H3447 H 0.71826 0.9642 0.72495 0.0
H3448 H 0.69414 0.91286 0.70104 0.0
H3449 H 0.74526 0.94217 0.7438 0.0
H3450 H 0.70889 0.94547 0.71662 0.0
H3451 H 0.72709 0.90937 0.73225 0.0
C3452 C 0.71411 0.89947 0.72106 0.0
C3453 C 0.7047 0.90019 0.71219 0.0
C3454 C 0.71689 0.94472 0.72255 0.0
C3455 C 0.71621 0.92166 0.72088 0.0
C3456 C 0.7222 0.95541 0.72737 0.0
C3457 C 0.73255 0.95476 0.73512 0.0
C3458 C 0.72187 0.93324 0.72557 0.0
C3459 C 0.73736 0.94312 0.73778 0.0
C3460 C 0.71991 0.91015 0.72537 0.0
C3461 C 0.70142 0.91186 0.70779 0.0
N3462 N 0.73195 0.93282 0.73307 0.0
N3463 N 0.70711 0.92212 0.71222 0.0
H3464 H 0.6047 0.81029 0.33452 0.0
H3465 H 0.57724 0.77752 0.27445 0.0
H3466 H 0.62661 0.80167 0.30282 0.0
H3467 H 0.55491 0.7901 0.30448 0.0
H3468 H 0.59547 0.78605 0.28472 0.0
H3469 H 0.58643 0.80251 0.32379 0.0
C3470 C 0.60567 0.80672 0.32531 0.0
C3471 C 0.61723 0.8066 0.31959 0.0
C3472 C 0.58657 0.78696 0.28905 0.0
C3473 C 0.5963 0.79771 0.30719 0.0
C3474 C 0.57614 0.78214 0.28316 0.0
C3475 C 0.56448 0.78304 0.2886 0.0
C3476 C 0.58539 0.79271 0.3005 0.0
C3477 C 0.5637 0.78898 0.30001 0.0
C3478 C 0.59522 0.80234 0.31916 0.0
C3479 C 0.61789 0.80205 0.30755 0.0
N3480 N 0.57399 0.79355 0.30557 0.0
N3481 N 0.60759 0.79774 0.30178 0.0
H3482 H 0.69517 0.1141 0.30379 0.0
H3483 H 0.74886 0.06424 0.30168 0.0
H3484 H 0.72672 0.11426 0.32809 0.0
H3485 H 0.7191 0.06541 0.2753 0.0
H3486 H 0.74055 0.08235 0.31167 0.0
H3487 H 0.70356 0.09623 0.2933 0.0
C3488 C 0.70389 0.11044 0.3069 0.0
C3489 C 0.7102 0.11572 0.31691 0.0
C3490 C 0.73583 0.07867 0.30368 0.0
C3491 C 0.7198 0.09513 0.30498 0.0
C3492 C 0.74054 0.06827 0.29801 0.0
C3493 C 0.73466 0.06323 0.28764 0.0
C3494 C 0.72511 0.08412 0.29902 0.0
C3495 C 0.72401 0.06902 0.28319 0.0
C3496 C 0.70864 0.10019 0.30093 0.0
C3497 C 0.72138 0.11042 0.32058 0.0
N3498 N 0.71956 0.07912 0.28892 0.0
N3499 N 0.72579 0.10045 0.31465 0.0
H3500 H 0.41195 0.19527 0.32225 0.0
H3501 H 0.44054 0.24574 0.27629 0.0
H3502 H 0.39019 0.21577 0.29615 0.0
H3503 H 0.46251 0.22046 0.29748 0.0
H3504 H 0.42191 0.2362 0.28482 0.0
H3505 H 0.43047 0.20577 0.31466 0.0
C3506 C 0.41105 0.20206 0.31499 0.0
C3507 C 0.39949 0.20462 0.30981 0.0
C3508 C 0.43081 0.23275 0.28761 0.0
C3509 C 0.42069 0.21663 0.30102 0.0
C3510 C 0.44145 0.23823 0.2828 0.0
C3511 C 0.45312 0.23387 0.28615 0.0
C3512 C 0.43181 0.22287 0.29592 0.0
C3513 C 0.45372 0.22402 0.29452 0.0
C3514 C 0.42164 0.20799 0.3106 0.0
C3515 C 0.39892 0.2134 0.30031 0.0
N3516 N 0.44323 0.21888 0.29912 0.0
N3517 N 0.40936 0.21909 0.29624 0.0
H3518 H 0.30069 0.89189 0.30219 0.0
H3519 H 0.3028 0.96504 0.29318 0.0
H3520 H 0.33129 0.91493 0.3134 0.0
H3521 H 0.27382 0.94187 0.2785 0.0
H3522 H 0.31279 0.94686 0.30158 0.0
H3523 H 0.29004 0.91015 0.29464 0.0
C3524 C 0.30514 0.90079 0.30315 0.0
C3525 C 0.31694 0.90184 0.30841 0.0
C3526 C 0.30424 0.94574 0.29653 0.0
C3527 C 0.30482 0.92281 0.29968 0.0
C3528 C 0.29855 0.95613 0.29165 0.0
C3529 C 0.28746 0.95503 0.28502 0.0
C3530 C 0.29882 0.93409 0.29484 0.0
C3531 C 0.28228 0.94322 0.28363 0.0
C3532 C 0.29908 0.91121 0.29877 0.0
C3533 C 0.32229 0.91363 0.30926 0.0
N3534 N 0.28801 0.93322 0.28846 0.0
N3535 N 0.3162 0.92362 0.30495 0.0
H3536 H 0.71283 0.11536 0.69677 0.0
H3537 H 0.71672 0.06591 0.75151 0.0
H3538 H 0.6902 0.11619 0.72925 0.0
H3539 H 0.74177 0.06666 0.72085 0.0
H3540 H 0.70665 0.0841 0.74318 0.0
H3541 H 0.72345 0.09748 0.70522 0.0
C3542 C 0.71013 0.11185 0.7057 0.0
C3543 C 0.70053 0.11732 0.71226 0.0
C3544 C 0.71436 0.08031 0.73826 0.0
C3545 C 0.7126 0.0967 0.72193 0.0
C3546 C 0.72008 0.06986 0.74299 0.0
C3547 C 0.7301 0.06469 0.73687 0.0
C3548 C 0.71863 0.08566 0.72728 0.0
C3549 C 0.73416 0.07038 0.72596 0.0
C3550 C 0.71616 0.10159 0.71049 0.0
C3551 C 0.69736 0.1122 0.72372 0.0
N3552 N 0.72839 0.08052 0.72149 0.0
N3553 N 0.70335 0.10221 0.72816 0.0
H3554 H 0.71741 0.89765 0.31731 0.0
H3555 H 0.71501 0.95408 0.26983 0.0
H3556 H 0.68609 0.90546 0.29407 0.0
H3557 H 0.74397 0.94959 0.29671 0.0
H3558 H 0.70483 0.93561 0.27788 0.0
H3559 H 0.7277 0.91612 0.30938 0.0
C3560 C 0.71265 0.90326 0.3106 0.0
C3561 C 0.70084 0.89993 0.30636 0.0
C3562 C 0.71341 0.93866 0.28204 0.0
C3563 C 0.71269 0.92104 0.2971 0.0
C3564 C 0.71927 0.94916 0.27739 0.0
C3565 C 0.73038 0.95339 0.28259 0.0
C3566 C 0.71871 0.93225 0.29194 0.0
C3567 C 0.73536 0.94674 0.2925 0.0
C3568 C 0.71857 0.91379 0.30602 0.0
C3569 C 0.69526 0.9075 0.29748 0.0
N3570 N 0.72952 0.93649 0.29683 0.0
N3571 N 0.70123 0.91767 0.29315 0.0
H3572 H 0.60392 0.1926 0.32043 0.0
H3573 H 0.57644 0.24465 0.27603 0.0
H3574 H 0.62611 0.21406 0.29528 0.0
H3575 H 0.55388 0.21899 0.29655 0.0
H3576 H 0.59485 0.23471 0.28424 0.0
H3577 H 0.58563 0.20333 0.31307 0.0
C3578 C 0.60497 0.19964 0.31343 0.0
C3579 C 0.61659 0.20241 0.30846 0.0
C3580 C 0.58588 0.23126 0.28695 0.0
C3581 C 0.59564 0.2147 0.29991 0.0
C3582 C 0.57536 0.23698 0.28233 0.0
C3583 C 0.56358 0.23264 0.28558 0.0
C3584 C 0.58465 0.22116 0.29498 0.0
C3585 C 0.56276 0.22255 0.29366 0.0
C3586 C 0.5945 0.20571 0.30916 0.0
C3587 C 0.61734 0.21151 0.29928 0.0
N3588 N 0.57313 0.21718 0.29809 0.0
N3589 N 0.60702 0.21733 0.29532 0.0
H3590 H 0.31828 0.10422 0.32853 0.0
H3591 H 0.27103 0.07701 0.27861 0.0
H3592 H 0.29525 0.1269 0.30557 0.0
H3593 H 0.29803 0.05508 0.29758 0.0
H3594 H 0.2793 0.09531 0.28883 0.0
H3595 H 0.31054 0.08605 0.31773 0.0
C3596 C 0.31157 0.10537 0.32123 0.0
C3597 C 0.30738 0.11711 0.31798 0.0
C3598 C 0.28344 0.0865 0.29073 0.0
C3599 C 0.29849 0.09631 0.30552 0.0
C3600 C 0.27868 0.07604 0.28495 0.0
C3601 C 0.28383 0.06447 0.28724 0.0
C3602 C 0.29338 0.08542 0.29896 0.0
C3603 C 0.29384 0.06381 0.29543 0.0
C3604 C 0.3072 0.095 0.31502 0.0
C3605 C 0.29882 0.11806 0.30832 0.0
N3606 N 0.29825 0.07411 0.30103 0.0
N3607 N 0.29461 0.1078 0.30248 0.0
H3608 H 0.40193 0.78969 0.32753 0.0
H3609 H 0.45403 0.8003 0.27648 0.0
H3610 H 0.40495 0.82276 0.30562 0.0
H3611 H 0.45204 0.76853 0.30031 0.0
H3612 H 0.43565 0.80838 0.28638 0.0
H3613 H 0.41993 0.78162 0.31716 0.0
C3614 C 0.40641 0.79531 0.32059 0.0
C3615 C 0.40191 0.80699 0.31754 0.0
C3616 C 0.43924 0.79964 0.28944 0.0
C3617 C 0.42254 0.79766 0.30543 0.0
C3618 C 0.4497 0.79498 0.28374 0.0
C3619 C 0.45464 0.78371 0.28757 0.0
C3620 C 0.43361 0.79298 0.29902 0.0
C3621 C 0.4487 0.77732 0.29715 0.0
C3622 C 0.41667 0.79065 0.31461 0.0
C3623 C 0.40799 0.81368 0.30824 0.0
N3624 N 0.43852 0.78203 0.30252 0.0
N3625 N 0.41799 0.80894 0.30254 0.0
H3626 H 0.32838 0.90411 0.7275 0.0
H3627 H 0.2742 0.95278 0.7188 0.0
H3628 H 0.30427 0.90465 0.69584 0.0
H3629 H 0.30041 0.95362 0.74875 0.0
H3630 H 0.28463 0.93488 0.71048 0.0
H3631 H 0.31778 0.92188 0.73564 0.0
C3632 C 0.32091 0.908 0.7222 0.0
C3633 C 0.3173 0.90287 0.71089 0.0
C3634 C 0.28809 0.93898 0.71887 0.0
C3635 C 0.30493 0.92324 0.72032 0.0
C3636 C 0.28218 0.94926 0.72361 0.0
C3637 C 0.28641 0.95477 0.73453 0.0
C3638 C 0.29833 0.93413 0.72508 0.0
C3639 C 0.29668 0.94962 0.74043 0.0
C3640 C 0.31479 0.91813 0.72691 0.0
C3641 C 0.30733 0.90819 0.70463 0.0
N3642 N 0.30227 0.93963 0.73563 0.0
N3643 N 0.30152 0.91809 0.70941 0.0
H3644 H 0.62741 0.7962 0.71676 0.0
H3645 H 0.55409 0.79917 0.72363 0.0
H3646 H 0.60427 0.81821 0.69326 0.0
H3647 H 0.57646 0.77225 0.74214 0.0
H3648 H 0.57256 0.8075 0.71368 0.0
H3649 H 0.60905 0.78859 0.72744 0.0
C3650 C 0.61847 0.7995 0.7139 0.0
C3651 C 0.61739 0.80785 0.70408 0.0
C3652 C 0.57343 0.79977 0.71992 0.0
C3653 C 0.5963 0.79912 0.71623 0.0
C3654 C 0.5629 0.79506 0.72566 0.0
C3655 C 0.56372 0.78498 0.73373 0.0
C3656 C 0.58492 0.79445 0.72232 0.0
C3657 C 0.57538 0.77994 0.73589 0.0
C3658 C 0.60799 0.79509 0.71995 0.0
C3659 C 0.60554 0.81168 0.70068 0.0
N3660 N 0.58551 0.78473 0.73025 0.0
N3661 N 0.59547 0.80731 0.70676 0.0
H3662 H 0.41416 0.20258 0.68943 0.0
H3663 H 0.4412 0.24714 0.74154 0.0
H3664 H 0.39135 0.22162 0.71528 0.0
H3665 H 0.4637 0.22287 0.72022 0.0
H3666 H 0.42286 0.2387 0.73134 0.0
H3667 H 0.43247 0.21067 0.69994 0.0
C3668 C 0.41301 0.20849 0.6973 0.0
C3669 C 0.4012 0.21144 0.70147 0.0
C3670 C 0.43181 0.23519 0.72892 0.0
C3671 C 0.42212 0.22073 0.71357 0.0
C3672 C 0.44228 0.24006 0.73468 0.0
C3673 C 0.45401 0.23571 0.73173 0.0
C3674 C 0.43305 0.22597 0.72004 0.0
C3675 C 0.45484 0.22641 0.72288 0.0
C3676 C 0.42346 0.21305 0.70334 0.0
C3677 C 0.40026 0.21902 0.71182 0.0
N3678 N 0.44452 0.2219 0.71732 0.0
N3679 N 0.41058 0.22345 0.71747 0.0
H3680 H 0.72457 0.68733 0.11362 0.0
H3681 H 0.71996 0.7446 0.06726 0.0
H3682 H 0.69912 0.71704 0.11853 0.0
H3683 H 0.74753 0.71653 0.0648 0.0
H3684 H 0.71159 0.7343 0.08551 0.0
H3685 H 0.73255 0.69761 0.09531 0.0
C3686 C 0.72069 0.69606 0.11091 0.0
C3687 C 0.71119 0.70134 0.11774 0.0
C3688 C 0.71948 0.7304 0.08098 0.0
C3689 C 0.72022 0.71313 0.09654 0.0
C3690 C 0.72423 0.73624 0.07052 0.0
C3691 C 0.7345 0.73145 0.06447 0.0
C3692 C 0.72498 0.71963 0.08543 0.0
C3693 C 0.73972 0.72067 0.06923 0.0
C3694 C 0.72523 0.7019 0.10038 0.0
C3695 C 0.70637 0.71254 0.11353 0.0
N3696 N 0.7349 0.71513 0.07938 0.0
N3697 N 0.71095 0.71806 0.10324 0.0
H3698 H 0.31615 0.69061 0.10518 0.0
H3699 H 0.27166 0.74254 0.07851 0.0
H3700 H 0.29636 0.7157 0.12817 0.0
H3701 H 0.29631 0.72168 0.05597 0.0
H3702 H 0.27998 0.73231 0.09678 0.0
H3703 H 0.30841 0.7014 0.087 0.0
C3704 C 0.31015 0.69838 0.10639 0.0
C3705 C 0.30687 0.70224 0.11821 0.0
C3706 C 0.2836 0.73 0.08784 0.0
C3707 C 0.29798 0.71466 0.09743 0.0
C3708 C 0.2788 0.73578 0.0774 0.0
C3709 C 0.28329 0.73295 0.06568 0.0
C3710 C 0.29288 0.72123 0.08657 0.0
C3711 C 0.29267 0.72424 0.06482 0.0
C3712 C 0.30579 0.70458 0.09601 0.0
C3713 C 0.29921 0.71247 0.11924 0.0
N3714 N 0.29711 0.71865 0.0751 0.0
N3715 N 0.29497 0.71828 0.10899 0.0
H3716 H 0.3202 0.32755 0.10301 0.0
H3717 H 0.27261 0.27728 0.07667 0.0
H3718 H 0.29712 0.30474 0.1261 0.0
H3719 H 0.29903 0.29678 0.05413 0.0
H3720 H 0.28109 0.28758 0.09482 0.0
H3721 H 0.31224 0.3167 0.08496 0.0
C3722 C 0.31344 0.32027 0.10428 0.0
C3723 C 0.30931 0.31708 0.11611 0.0
C3724 C 0.28506 0.28958 0.08591 0.0
C3725 C 0.30016 0.30457 0.09544 0.0
C3726 C 0.28017 0.28376 0.07552 0.0
C3727 C 0.28509 0.28617 0.06383 0.0
C3728 C 0.29491 0.29797 0.08462 0.0
C3729 C 0.29502 0.29453 0.06296 0.0
C3730 C 0.30894 0.31403 0.09397 0.0
C3731 C 0.30066 0.30744 0.11719 0.0
N3732 N 0.29955 0.30015 0.07319 0.0
N3733 N 0.29633 0.30158 0.107 0.0
H3734 H 0.72066 0.30277 0.12798 0.0
H3735 H 0.72046 0.29849 0.05444 0.0
H3736 H 0.70107 0.32794 0.10442 0.0
H3737 H 0.74493 0.27771 0.07774 0.0
H3738 H 0.712 0.30824 0.07271 0.0
H3739 H 0.72836 0.29233 0.10975 0.0
C3740 C 0.7179 0.30605 0.11897 0.0
C3741 C 0.71021 0.31626 0.11773 0.0
C3742 C 0.71922 0.30155 0.07383 0.0
C3743 C 0.71906 0.30439 0.0968 0.0
C3744 C 0.724 0.29592 0.0634 0.0
C3745 C 0.73343 0.28727 0.06455 0.0
C3746 C 0.72382 0.29846 0.08552 0.0
C3747 C 0.73777 0.28443 0.0764 0.0
C3748 C 0.72236 0.30013 0.10856 0.0
C3749 C 0.70708 0.32019 0.10581 0.0
N3750 N 0.73291 0.28998 0.08641 0.0
N3751 N 0.71149 0.31424 0.09582 0.0
H3752 H 0.69627 0.32072 0.9128 0.0
H3753 H 0.74985 0.28014 0.94267 0.0
H3754 H 0.72909 0.31049 0.89337 0.0
H3755 H 0.71974 0.29493 0.96345 0.0
H3756 H 0.74174 0.2901 0.92421 0.0
H3757 H 0.70395 0.31001 0.93106 0.0
C3758 C 0.70505 0.31615 0.91234 0.0
C3759 C 0.71206 0.31653 0.90153 0.0
C3760 C 0.73691 0.29116 0.93281 0.0
C3761 C 0.72096 0.30432 0.92246 0.0
C3762 C 0.74157 0.28552 0.94339 0.0
C3763 C 0.73551 0.2867 0.95469 0.0
C3764 C 0.72607 0.29802 0.93348 0.0
C3765 C 0.72466 0.29361 0.95495 0.0
C3766 C 0.70947 0.3101 0.9228 0.0
C3767 C 0.72345 0.31057 0.90154 0.0
N3768 N 0.72031 0.299 0.94452 0.0
N3769 N 0.72754 0.30471 0.91183 0.0
H3770 H 0.6878 0.70193 0.91541 0.0
H3771 H 0.74583 0.73957 0.94202 0.0
H3772 H 0.71781 0.71499 0.89283 0.0
H3773 H 0.71719 0.72376 0.96471 0.0
H3774 H 0.73592 0.7305 0.92394 0.0
H3775 H 0.69852 0.70985 0.93356 0.0
C3776 C 0.69664 0.70649 0.91426 0.0
C3777 C 0.70188 0.70784 0.90254 0.0
C3778 C 0.73182 0.729 0.93288 0.0
C3779 C 0.71427 0.71692 0.92336 0.0
C3780 C 0.73752 0.73412 0.94324 0.0
C3781 C 0.73234 0.73249 0.95496 0.0
C3782 C 0.72083 0.72219 0.9342 0.0
C3783 C 0.72143 0.72547 0.95588 0.0
C3784 C 0.70279 0.71096 0.92465 0.0
C3785 C 0.71347 0.71365 0.90167 0.0
N3786 N 0.71605 0.72062 0.94566 0.0
N3787 N 0.71923 0.71802 0.91192 0.0
H3788 H 0.32292 0.69902 0.91533 0.0
H3789 H 0.27249 0.74426 0.94298 0.0
H3790 H 0.30214 0.7245 0.89319 0.0
H3791 H 0.29771 0.72339 0.96537 0.0
H3792 H 0.28196 0.73579 0.92455 0.0
H3793 H 0.31248 0.7065 0.93365 0.0
C3794 C 0.31608 0.70612 0.9143 0.0
C3795 C 0.31342 0.71115 0.90269 0.0
C3796 C 0.28541 0.73306 0.93349 0.0
C3797 C 0.30147 0.71982 0.92367 0.0
C3798 C 0.27996 0.73783 0.94402 0.0
C3799 C 0.28433 0.73456 0.95575 0.0
C3800 C 0.29526 0.72487 0.93466 0.0
C3801 C 0.29414 0.72629 0.95652 0.0
C3802 C 0.31018 0.71044 0.92478 0.0
C3803 C 0.30459 0.72045 0.90196 0.0
N3804 N 0.29926 0.72173 0.94614 0.0
N3805 N 0.29893 0.72447 0.91229 0.0
H3806 H 0.293 0.3301 0.90467 0.0
H3807 H 0.29845 0.27272 0.95081 0.0
H3808 H 0.31873 0.30068 0.89951 0.0
H3809 H 0.27103 0.30088 0.9539 0.0
H3810 H 0.30651 0.28306 0.93245 0.0
H3811 H 0.28525 0.31969 0.92301 0.0
C3812 C 0.29698 0.3214 0.90733 0.0
C3813 C 0.30651 0.31625 0.90042 0.0
C3814 C 0.29872 0.28697 0.93714 0.0
C3815 C 0.29774 0.30431 0.92166 0.0
C3816 C 0.29415 0.2811 0.94767 0.0
C3817 C 0.28402 0.28591 0.95394 0.0
C3818 C 0.29317 0.29777 0.93284 0.0
C3819 C 0.27874 0.29672 0.94931 0.0
C3820 C 0.29259 0.31549 0.91787 0.0
C3821 C 0.31147 0.30508 0.90456 0.0
N3822 N 0.28339 0.30228 0.93909 0.0
N3823 N 0.30702 0.29949 0.91489 0.0
H3824 H 0.61623 0.72947 0.19159 0.0
H3825 H 0.56471 0.71934 0.2433 0.0
H3826 H 0.61342 0.6966 0.21381 0.0
H3827 H 0.56643 0.75092 0.21919 0.0
H3828 H 0.58297 0.71118 0.23327 0.0
H3829 H 0.59836 0.73765 0.20208 0.0
C3830 C 0.61182 0.72391 0.19862 0.0
C3831 C 0.61634 0.71226 0.20173 0.0
C3832 C 0.57935 0.71989 0.23017 0.0
C3833 C 0.59586 0.72172 0.21398 0.0
C3834 C 0.56896 0.72461 0.23595 0.0
C3835 C 0.56397 0.73585 0.23209 0.0
C3836 C 0.58487 0.72647 0.22047 0.0
C3837 C 0.56981 0.74215 0.22239 0.0
C3838 C 0.60163 0.72864 0.20468 0.0
C3839 C 0.61036 0.70566 0.21116 0.0
N3840 N 0.57992 0.73739 0.21694 0.0
N3841 N 0.60043 0.71046 0.21692 0.0
H3842 H 0.32819 0.60432 0.20211 0.0
H3843 H 0.27652 0.57707 0.2472 0.0
H3844 H 0.30297 0.62699 0.2221 0.0
H3845 H 0.29693 0.55484 0.2219 0.0
H3846 H 0.28678 0.59543 0.23889 0.0
H3847 H 0.31751 0.58602 0.20999 0.0
C3848 C 0.32041 0.60545 0.20818 0.0
C3849 C 0.31647 0.61721 0.21146 0.0
C3850 C 0.28899 0.58654 0.23512 0.0
C3851 C 0.30419 0.5963 0.22052 0.0
C3852 C 0.28319 0.57605 0.23992 0.0
C3853 C 0.28587 0.5644 0.23524 0.0
C3854 C 0.29764 0.58538 0.22566 0.0
C3855 C 0.29448 0.56365 0.2257 0.0
C3856 C 0.31428 0.595 0.21263 0.0
C3857 C 0.30625 0.61811 0.21924 0.0
N3858 N 0.30009 0.57397 0.22126 0.0
N3859 N 0.3005 0.6078 0.22355 0.0
H3860 H 0.39976 0.32023 0.21865 0.0
H3861 H 0.4543 0.27126 0.21744 0.0
H3862 H 0.40522 0.29441 0.18926 0.0
H3863 H 0.45082 0.29862 0.24572 0.0
H3864 H 0.43603 0.27942 0.2073 0.0
H3865 H 0.41825 0.31244 0.22885 0.0
C3866 C 0.40486 0.31298 0.2143 0.0
C3867 C 0.40084 0.30796 0.20307 0.0
C3868 C 0.43925 0.28366 0.21572 0.0
C3869 C 0.42199 0.29889 0.21481 0.0
C3870 C 0.44966 0.27895 0.22157 0.0
C3871 C 0.45412 0.28422 0.23249 0.0
C3872 C 0.43317 0.29373 0.22081 0.0
C3873 C 0.44781 0.29432 0.23726 0.0
C3874 C 0.41539 0.30849 0.22017 0.0
C3875 C 0.40779 0.29844 0.19799 0.0
N3876 N 0.43765 0.29872 0.23142 0.0
N3877 N 0.41797 0.29423 0.20389 0.0
H3878 H 0.68817 0.40409 0.22704 0.0
H3879 H 0.74431 0.452 0.22051 0.0
H3880 H 0.71747 0.3998 0.20081 0.0
H3881 H 0.71745 0.45301 0.24959 0.0
H3882 H 0.73438 0.43332 0.21267 0.0
H3883 H 0.69844 0.4225 0.23482 0.0
C3884 C 0.69681 0.40695 0.22296 0.0
C3885 C 0.70198 0.40027 0.21329 0.0
C3886 C 0.73067 0.43764 0.22077 0.0
C3887 C 0.71375 0.42159 0.22208 0.0
C3888 C 0.73638 0.44828 0.22531 0.0
C3889 C 0.73172 0.45416 0.23574 0.0
C3890 C 0.72019 0.43282 0.22667 0.0
C3891 C 0.72128 0.44896 0.24141 0.0
C3892 C 0.70265 0.41754 0.22737 0.0
C3893 C 0.71307 0.40468 0.20819 0.0
N3894 N 0.71588 0.43863 0.2368 0.0
N3895 N 0.71858 0.41504 0.21266 0.0
H3896 H 0.6036 0.3166 0.83084 0.0
H3897 H 0.57719 0.27274 0.77786 0.0
H3898 H 0.62675 0.29793 0.805 0.0
H3899 H 0.55449 0.2971 0.79884 0.0
H3900 H 0.59541 0.281 0.78842 0.0
H3901 H 0.58543 0.30871 0.81994 0.0
C3902 C 0.60486 0.31081 0.82289 0.0
C3903 C 0.61671 0.30791 0.81883 0.0
C3904 C 0.58645 0.28456 0.79069 0.0
C3905 C 0.59595 0.29885 0.80629 0.0
C3906 C 0.57604 0.2798 0.78471 0.0
C3907 C 0.5643 0.28423 0.78747 0.0
C3908 C 0.58511 0.29375 0.79959 0.0
C3909 C 0.56337 0.2935 0.79634 0.0
C3910 C 0.59448 0.30637 0.81663 0.0
C3911 C 0.61779 0.3005 0.80838 0.0
N3912 N 0.57362 0.29791 0.80211 0.0
N3913 N 0.60754 0.29618 0.80251 0.0
H3914 H 0.71599 0.62597 0.80051 0.0
H3915 H 0.72403 0.55285 0.80178 0.0
H3916 H 0.70311 0.60252 0.82998 0.0
H3917 H 0.74019 0.57642 0.77403 0.0
H3918 H 0.71533 0.57086 0.81157 0.0
H3919 H 0.7237 0.60786 0.78991 0.0
C3920 C 0.71469 0.61701 0.80471 0.0
C3921 C 0.70893 0.6158 0.81619 0.0
C3922 C 0.72077 0.57211 0.80333 0.0
C3923 C 0.71783 0.595 0.80414 0.0
C3924 C 0.72582 0.56181 0.79776 0.0
C3925 C 0.73295 0.56308 0.78708 0.0
C3926 C 0.72281 0.58382 0.79821 0.0
C3927 C 0.73467 0.57495 0.78218 0.0
C3928 C 0.71916 0.60668 0.79868 0.0
C3929 C 0.70764 0.60394 0.82124 0.0
N3930 N 0.72967 0.58485 0.78779 0.0
N3931 N 0.71206 0.59404 0.81519 0.0
H3932 H 0.39985 0.69287 0.79121 0.0
H3933 H 0.45185 0.74474 0.80131 0.0
H3934 H 0.40217 0.71521 0.82381 0.0
H3935 H 0.45091 0.7199 0.77054 0.0
H3936 H 0.43308 0.73492 0.80924 0.0
H3937 H 0.41803 0.70341 0.78315 0.0
C3938 C 0.40421 0.69995 0.79673 0.0
C3939 C 0.39948 0.70306 0.80828 0.0
C3940 C 0.43699 0.73162 0.80076 0.0
C3941 C 0.42032 0.71535 0.79897 0.0
C3942 C 0.44766 0.73728 0.79618 0.0
C3943 C 0.45301 0.73312 0.78525 0.0
C3944 C 0.43156 0.72177 0.79433 0.0
C3945 C 0.44724 0.72331 0.77909 0.0
C3946 C 0.41458 0.70602 0.79207 0.0
C3947 C 0.40541 0.71254 0.81483 0.0
N3948 N 0.43686 0.71799 0.7837 0.0
N3949 N 0.41553 0.71832 0.81011 0.0
H3950 H 0.30053 0.39236 0.80234 0.0
H3951 H 0.30264 0.46551 0.79323 0.0
H3952 H 0.33109 0.41543 0.8136 0.0
H3953 H 0.27355 0.44233 0.77877 0.0
H3954 H 0.31263 0.44734 0.80166 0.0
H3955 H 0.28986 0.41062 0.7948 0.0
C3956 C 0.30496 0.40127 0.80332 0.0
C3957 C 0.31676 0.40233 0.80859 0.0
C3958 C 0.30405 0.44621 0.79665 0.0
C3959 C 0.30462 0.42329 0.79987 0.0
C3960 C 0.29836 0.4566 0.79176 0.0
C3961 C 0.28724 0.4555 0.78519 0.0
C3962 C 0.29861 0.43457 0.79502 0.0
C3963 C 0.28204 0.44368 0.78386 0.0
C3964 C 0.29889 0.41169 0.79894 0.0
C3965 C 0.32209 0.41412 0.80946 0.0
N3966 N 0.28777 0.4337 0.78869 0.0
N3967 N 0.31599 0.42411 0.80515 0.0
H3968 H 0.69139 0.60485 0.19962 0.0
H3969 H 0.7433 0.57734 0.24424 0.0
H3970 H 0.7131 0.627 0.22456 0.0
H3971 H 0.71721 0.55486 0.22418 0.0
H3972 H 0.73346 0.59572 0.2359 0.0
H3973 H 0.70188 0.58654 0.20725 0.0
C3974 C 0.69843 0.60588 0.20664 0.0
C3975 C 0.70135 0.6175 0.21146 0.0
C3976 C 0.72988 0.58676 0.23332 0.0
C3977 C 0.71336 0.59653 0.22031 0.0
C3978 C 0.73554 0.57626 0.23802 0.0
C3979 C 0.73107 0.56452 0.23493 0.0
C3980 C 0.71971 0.58555 0.22537 0.0
C3981 C 0.72088 0.56371 0.22694 0.0
C3982 C 0.70436 0.59541 0.21105 0.0
C3983 C 0.71045 0.61823 0.22067 0.0
N3984 N 0.71558 0.57407 0.22243 0.0
N3985 N 0.71613 0.60791 0.22477 0.0
H3986 H 0.6908 0.40118 0.7894 0.0
H3987 H 0.74394 0.45182 0.79926 0.0
H3988 H 0.71288 0.40356 0.82244 0.0
H3989 H 0.71792 0.4525 0.76913 0.0
H3990 H 0.7335 0.43352 0.8074 0.0
H3991 H 0.70147 0.4193 0.78134 0.0
C3992 C 0.69784 0.40555 0.79502 0.0
C3993 C 0.70086 0.40083 0.80668 0.0
C3994 C 0.73008 0.43767 0.799 0.0
C3995 C 0.71331 0.42157 0.79735 0.0
C3996 C 0.736 0.44817 0.79437 0.0
C3997 C 0.73182 0.45377 0.78347 0.0
C3998 C 0.71991 0.43267 0.79269 0.0
C3999 C 0.72161 0.44845 0.77745 0.0
C4000 C 0.70399 0.41587 0.79035 0.0
C4001 C 0.7103 0.40676 0.81336 0.0
N4002 N 0.71603 0.43822 0.78213 0.0
N4003 N 0.71616 0.41681 0.80861 0.0
H4004 H 0.61908 0.71753 0.81932 0.0
H4005 H 0.56375 0.71716 0.77028 0.0
H4006 H 0.61263 0.68855 0.79305 0.0
H4007 H 0.56722 0.74404 0.79915 0.0
H4008 H 0.58213 0.70706 0.77811 0.0
H4009 H 0.60058 0.7278 0.81176 0.0
C4010 C 0.61377 0.71328 0.81201 0.0
C4011 C 0.6175 0.70214 0.80681 0.0
C4012 C 0.57888 0.71516 0.78275 0.0
C4013 C 0.59635 0.71397 0.79799 0.0
C4014 C 0.56832 0.72092 0.77832 0.0
C4015 C 0.56383 0.73146 0.78409 0.0
C4016 C 0.58511 0.71997 0.79303 0.0
C4017 C 0.57037 0.73602 0.79431 0.0
C4018 C 0.60323 0.71919 0.80765 0.0
C4019 C 0.61029 0.69721 0.79722 0.0
N4020 N 0.58065 0.73025 0.79846 0.0
N4021 N 0.60011 0.70315 0.79314 0.0
H4022 H 0.29547 0.62793 0.80458 0.0
H4023 H 0.2981 0.55479 0.7974 0.0
H4024 H 0.31689 0.60454 0.8284 0.0
H4025 H 0.27152 0.57738 0.77861 0.0
H4026 H 0.30639 0.57312 0.80757 0.0
H4027 H 0.28791 0.60971 0.79368 0.0
C4028 C 0.29866 0.61897 0.80746 0.0
C4029 C 0.30682 0.61777 0.81743 0.0
C4030 C 0.29874 0.57407 0.80122 0.0
C4031 C 0.29814 0.59685 0.80503 0.0
C4032 C 0.29406 0.56362 0.79535 0.0
C4033 C 0.28409 0.56454 0.78714 0.0
C4034 C 0.2935 0.58557 0.7988 0.0
C4035 C 0.27912 0.57621 0.78497 0.0
C4036 C 0.29427 0.60857 0.80128 0.0
C4037 C 0.3105 0.6059 0.82085 0.0
N4038 N 0.2839 0.58626 0.79073 0.0
N4039 N 0.30616 0.59592 0.81465 0.0
H4040 H 0.40432 0.32367 0.80457 0.0
H4041 H 0.4536 0.26956 0.80141 0.0
H4042 H 0.40327 0.29138 0.82776 0.0
H4043 H 0.45276 0.29979 0.77558 0.0
H4044 H 0.43544 0.27775 0.81143 0.0
H4045 H 0.42227 0.31541 0.79408 0.0
C4046 C 0.4078 0.31482 0.80743 0.0
C4047 C 0.40224 0.30825 0.81713 0.0
C4048 C 0.43921 0.28259 0.80356 0.0
C4049 C 0.42293 0.29879 0.80521 0.0
C4050 C 0.44956 0.27787 0.79777 0.0
C4051 C 0.45475 0.28395 0.78757 0.0
C4052 C 0.43395 0.29352 0.79919 0.0
C4053 C 0.4492 0.29485 0.78348 0.0
C4054 C 0.4181 0.31014 0.80147 0.0
C4055 C 0.40733 0.2969 0.82051 0.0
N4056 N 0.43912 0.29927 0.78929 0.0
N4057 N 0.41736 0.29256 0.81458 0.0
H4058 H 0.32891 0.40433 0.22743 0.0
H4059 H 0.27478 0.45305 0.21876 0.0
H4060 H 0.30489 0.405 0.1957 0.0
H4061 H 0.30112 0.454 0.24859 0.0
H4062 H 0.28525 0.4352 0.21038 0.0
H4063 H 0.31841 0.42219 0.23551 0.0
C4064 C 0.32149 0.40827 0.22209 0.0
C4065 C 0.31787 0.40314 0.21079 0.0
C4066 C 0.28873 0.43932 0.21877 0.0
C4067 C 0.3056 0.42361 0.22017 0.0
C4068 C 0.28279 0.44956 0.22353 0.0
C4069 C 0.28704 0.45509 0.23444 0.0
C4070 C 0.29901 0.4345 0.22493 0.0
C4071 C 0.29736 0.44998 0.24028 0.0
C4072 C 0.31543 0.41846 0.22677 0.0
C4073 C 0.30796 0.40854 0.20449 0.0
N4074 N 0.30297 0.44002 0.23547 0.0
N4075 N 0.30219 0.41847 0.20925 0.0
H4076 H 0.62678 0.28911 0.21125 0.0
H4077 H 0.55554 0.30009 0.22569 0.0
H4078 H 0.60725 0.32155 0.19986 0.0
H4079 H 0.57622 0.26976 0.24051 0.0
H4080 H 0.5743 0.30804 0.21607 0.0
H4081 H 0.60826 0.28173 0.22176 0.0
C4082 C 0.61859 0.29468 0.21093 0.0
C4083 C 0.61858 0.30596 0.20462 0.0
C4084 C 0.57474 0.29966 0.22145 0.0
C4085 C 0.59731 0.29757 0.2167 0.0
C4086 C 0.56403 0.29514 0.22702 0.0
C4087 C 0.56424 0.2842 0.23394 0.0
C4088 C 0.58579 0.2932 0.22275 0.0
C4089 C 0.57552 0.2781 0.23511 0.0
C4090 C 0.60803 0.29048 0.217 0.0
C4091 C 0.60773 0.31286 0.2047 0.0
N4092 N 0.58581 0.28266 0.22957 0.0
N4093 N 0.59753 0.30853 0.21058 0.0
H4094 H 0.39843 0.70145 0.21824 0.0
H4095 H 0.45287 0.75167 0.21754 0.0
H4096 H 0.40404 0.72766 0.18881 0.0
H4097 H 0.45119 0.72162 0.24358 0.0
H4098 H 0.43431 0.74363 0.20758 0.0
H4099 H 0.41709 0.70929 0.2283 0.0
C4100 C 0.4036 0.7088 0.21385 0.0
C4101 C 0.3996 0.71389 0.20264 0.0
C4102 C 0.438 0.73878 0.21546 0.0
C4103 C 0.42091 0.72304 0.21423 0.0
C4104 C 0.44866 0.74333 0.22114 0.0
C4105 C 0.45368 0.7373 0.23141 0.0
C4106 C 0.43223 0.72813 0.22011 0.0
C4107 C 0.4476 0.72668 0.23578 0.0
C4108 C 0.41423 0.71332 0.21964 0.0
C4109 C 0.40661 0.72356 0.19752 0.0
N4110 N 0.43722 0.72244 0.23011 0.0
N4111 N 0.41688 0.72781 0.20335 0.0
loop_
_geom_bond_atom_site_label_1
_geom_bond_atom_site_label_2
_geom_bond_distance
_geom_bond_site_symmetry_2
_ccdc_geom_bond_type
C0 C1 1.264 . S
C0 C5 1.479 . S
C0 C10 1.465 . S
C1 C0 1.264 . S
C1 C3 1.339 . S
C1 H28 0.931 . S
C2 C3 1.395 . S
C2 C4 1.320 . S
C3 C1 1.339 . S
C3 C2 1.395 . S
C3 H29 0.929 . S
C4 C2 1.320 . S
C4 C5 1.405 . S
C4 H30 0.930 . S
C5 C0 1.479 . S
C5 C4 1.405 . S
C5 H31 0.931 . S
U6 O7 2.454 . S
U6 O8 2.458 . S
U6 C9 2.984 . S
U6 C10 2.847 . S
U6 C23 2.882 . S
U6 O24 2.441 . S
U6 O25 2.420 . S
U6 O26 2.455 . S
U6 O27 2.449 . S
O7 U6 2.454 . S
O7 C9 1.353 . S
O8 U6 2.458 . S
O8 C9 1.286 . S
C9 U6 2.984 . S
C9 O7 1.353 . S
C9 O8 1.286 . S
C9 C11 1.363 . S
C10 C0 1.465 . S
C10 U6 2.847 . S
C10 O24 1.249 . S
C10 O25 1.202 . S
C11 C9 1.363 . S
C11 C13 1.408 . S
C11 C16 1.342 . S
C12 C13 1.310 . S
C12 C15 1.461 . S
C12 H32 0.932 . S
C13 C11 1.408 . S
C13 C12 1.310 . S
C13 H33 0.930 . S
C14 C15 1.474 . S
C14 C16 1.285 . S
C14 H34 0.929 . S
C15 C12 1.461 . S
C15 C14 1.474 . S
C16 C11 1.342 . S
C16 C14 1.285 . S
C16 H35 0.930 . S
C17 C20 1.424 . S
C17 C22 1.245 . S
C17 C23 1.428 . S
C18 C21 1.260 . S
C18 C22 1.477 . S
C18 H36 0.932 . S
C19 C20 1.384 . S
C19 C21 1.479 . S
C19 H37 0.929 . S
C20 C17 1.424 . S
C20 C19 1.384 . S
C20 H38 0.928 . S
C21 C18 1.260 . S
C21 C19 1.479 . S
C22 C17 1.245 . S
C22 C18 1.477 . S
C22 H39 0.932 . S
C23 U6 2.882 . S
C23 C17 1.428 . S
C23 O26 1.301 . S
C23 O27 1.282 . S
O24 U6 2.441 . S
O24 C10 1.249 . S
O25 U6 2.420 . S
O25 C10 1.202 . S
O26 U6 2.455 . S
O26 C23 1.301 . S
O27 U6 2.449 . S
O27 C23 1.282 . S
H28 C1 0.931 . S
H29 C3 0.929 . S
H30 C4 0.930 . S
H31 C5 0.931 . S
H32 C12 0.932 . S
H33 C13 0.930 . S
H34 C14 0.929 . S
H35 C16 0.930 . S
H36 C18 0.932 . S
H37 C19 0.929 . S
H38 C20 0.928 . S
H39 C22 0.932 . S
C40 C41 1.264 . S
C40 C45 1.479 . S
C40 C50 1.465 . S
C41 C40 1.264 . S
C41 C43 1.339 . S
C41 H68 0.931 . S
C42 C43 1.395 . S
C42 C44 1.320 . S
C43 C41 1.339 . S
C43 C42 1.395 . S
C43 H69 0.929 . S
C44 C42 1.320 . S
C44 C45 1.405 . S
C44 H70 0.930 . S
C45 C40 1.479 . S
C45 C44 1.405 . S
C45 H71 0.931 . S
U46 O47 2.454 . S
U46 O48 2.458 . S
U46 C49 2.984 . S
U46 C50 2.847 . S
U46 C63 2.882 . S
U46 O64 2.441 . S
U46 O65 2.420 . S
U46 O66 2.455 . S
U46 O67 2.449 . S
O47 U46 2.454 . S
O47 C49 1.353 . S
O48 U46 2.458 . S
O48 C49 1.286 . S
C49 U46 2.984 . S
C49 O47 1.353 . S
C49 O48 1.286 . S
C49 C51 1.363 . S
C50 C40 1.465 . S
C50 U46 2.847 . S
C50 O64 1.249 . S
C50 O65 1.202 . S
C51 C49 1.363 . S
C51 C53 1.408 . S
C51 C56 1.342 . S
C52 C53 1.310 . S
C52 C55 1.461 . S
C52 H72 0.932 . S
C53 C51 1.408 . S
C53 C52 1.310 . S
C53 H73 0.930 . S
C54 C55 1.474 . S
C54 C56 1.285 . S
C54 H74 0.929 . S
C55 C52 1.461 . S
C55 C54 1.474 . S
C56 C51 1.342 . S
C56 C54 1.285 . S
C56 H75 0.930 . S
C57 C60 1.424 . S
C57 C62 1.245 . S
C57 C63 1.428 . S
C58 C61 1.260 . S
C58 C62 1.477 . S
C58 H76 0.932 . S
C59 C60 1.384 . S
C59 C61 1.479 . S
C59 H77 0.929 . S
C60 C57 1.424 . S
C60 C59 1.384 . S
C60 H78 0.928 . S
C61 C58 1.260 . S
C61 C59 1.479 . S
C62 C57 1.245 . S
C62 C58 1.477 . S
C62 H79 0.932 . S
C63 U46 2.882 . S
C63 C57 1.428 . S
C63 O66 1.301 . S
C63 O67 1.282 . S
O64 U46 2.441 . S
O64 C50 1.249 . S
O65 U46 2.420 . S
O65 C50 1.202 . S
O66 U46 2.455 . S
O66 C63 1.301 . S
O67 U46 2.449 . S
O67 C63 1.282 . S
H68 C41 0.931 . S
H69 C43 0.929 . S
H70 C44 0.930 . S
H71 C45 0.931 . S
H72 C52 0.932 . S
H73 C53 0.930 . S
H74 C54 0.929 . S
H75 C56 0.930 . S
H76 C58 0.932 . S
H77 C59 0.929 . S
H78 C60 0.928 . S
H79 C62 0.932 . S
C80 C81 1.264 . S
C80 C85 1.479 . S
C80 C90 1.465 . S
C81 C80 1.264 . S
C81 C83 1.339 . S
C81 H108 0.931 . S
C82 C83 1.395 . S
C82 C84 1.320 . S
C83 C81 1.339 . S
C83 C82 1.395 . S
C83 H109 0.929 . S
C84 C82 1.320 . S
C84 C85 1.405 . S
C84 H110 0.930 . S
C85 C80 1.479 . S
C85 C84 1.405 . S
C85 H111 0.931 . S
U86 O87 2.454 . S
U86 O88 2.458 . S
U86 C89 2.984 . S
U86 C90 2.847 . S
U86 C103 2.882 . S
U86 O104 2.441 . S
U86 O105 2.420 . S
U86 O106 2.455 . S
U86 O107 2.449 . S
O87 U86 2.454 . S
O87 C89 1.353 . S
O88 U86 2.458 . S
O88 C89 1.286 . S
C89 U86 2.984 . S
C89 O87 1.353 . S
C89 O88 1.286 . S
C89 C91 1.363 . S
C90 C80 1.465 . S
C90 U86 2.847 . S
C90 O104 1.249 . S
C90 O105 1.202 . S
C91 C89 1.363 . S
C91 C93 1.408 . S
C91 C96 1.342 . S
C92 C93 1.310 . S
C92 C95 1.461 . S
C92 H112 0.932 . S
C93 C91 1.408 . S
C93 C92 1.310 . S
C93 H113 0.930 . S
C94 C95 1.474 . S
C94 C96 1.285 . S
C94 H114 0.929 . S
C95 C92 1.461 . S
C95 C94 1.474 . S
C96 C91 1.342 . S
C96 C94 1.285 . S
C96 H115 0.930 . S
C97 C100 1.424 . S
C97 C102 1.245 . S
C97 C103 1.428 . S
C98 C101 1.260 . S
C98 C102 1.477 . S
C98 H116 0.932 . S
C99 C100 1.384 . S
C99 C101 1.479 . S
C99 H117 0.929 . S
C100 C97 1.424 . S
C100 C99 1.384 . S
C100 H118 0.928 . S
C101 C98 1.260 . S
C101 C99 1.479 . S
C102 C97 1.245 . S
C102 C98 1.477 . S
C102 H119 0.932 . S
C103 U86 2.882 . S
C103 C97 1.428 . S
C103 O106 1.301 . S
C103 O107 1.282 . S
O104 U86 2.441 . S
O104 C90 1.249 . S
O105 U86 2.420 . S
O105 C90 1.202 . S
O106 U86 2.455 . S
O106 C103 1.301 . S
O107 U86 2.449 . S
O107 C103 1.282 . S
H108 C81 0.931 . S
H109 C83 0.929 . S
H110 C84 0.930 . S
H111 C85 0.931 . S
H112 C92 0.932 . S
H113 C93 0.930 . S
H114 C94 0.929 . S
H115 C96 0.930 . S
H116 C98 0.932 . S
H117 C99 0.929 . S
H118 C100 0.928 . S
H119 C102 0.932 . S
C120 C121 1.264 . S
C120 C125 1.479 . S
C120 C130 1.465 . S
C121 C120 1.264 . S
C121 C123 1.339 . S
C121 H148 0.931 . S
C122 C123 1.395 . S
C122 C124 1.320 . S
C123 C121 1.339 . S
C123 C122 1.395 . S
C123 H149 0.929 . S
C124 C122 1.320 . S
C124 C125 1.405 . S
C124 H150 0.930 . S
C125 C120 1.479 . S
C125 C124 1.405 . S
C125 H151 0.931 . S
U126 O127 2.454 . S
U126 O128 2.458 . S
U126 C129 2.984 . S
U126 C130 2.847 . S
U126 C143 2.882 . S
U126 O144 2.441 . S
U126 O145 2.420 . S
U126 O146 2.455 . S
U126 O147 2.449 . S
O127 U126 2.454 . S
O127 C129 1.353 . S
O128 U126 2.458 . S
O128 C129 1.286 . S
C129 U126 2.984 . S
C129 O127 1.353 . S
C129 O128 1.286 . S
C129 C131 1.363 . S
C130 C120 1.465 . S
C130 U126 2.847 . S
C130 O144 1.249 . S
C130 O145 1.202 . S
C131 C129 1.363 . S
C131 C133 1.408 . S
C131 C136 1.342 . S
C132 C133 1.310 . S
C132 C135 1.461 . S
C132 H152 0.932 . S
C133 C131 1.408 . S
C133 C132 1.310 . S
C133 H153 0.930 . S
C134 C135 1.474 . S
C134 C136 1.285 . S
C134 H154 0.929 . S
C135 C132 1.461 . S
C135 C134 1.474 . S
C136 C131 1.342 . S
C136 C134 1.285 . S
C136 H155 0.930 . S
C137 C140 1.424 . S
C137 C142 1.245 . S
C137 C143 1.428 . S
C138 C141 1.260 . S
C138 C142 1.477 . S
C138 H156 0.932 . S
C139 C140 1.384 . S
C139 C141 1.479 . S
C139 H157 0.929 . S
C140 C137 1.424 . S
C140 C139 1.384 . S
C140 H158 0.928 . S
C141 C138 1.260 . S
C141 C139 1.479 . S
C142 C137 1.245 . S
C142 C138 1.477 . S
C142 H159 0.932 . S
C143 U126 2.882 . S
C143 C137 1.428 . S
C143 O146 1.301 . S
C143 O147 1.282 . S
O144 U126 2.441 . S
O144 C130 1.249 . S
O145 U126 2.420 . S
O145 C130 1.202 . S
O146 U126 2.455 . S
O146 C143 1.301 . S
O147 U126 2.449 . S
O147 C143 1.282 . S
H148 C121 0.931 . S
H149 C123 0.929 . S
H150 C124 0.930 . S
H151 C125 0.931 . S
H152 C132 0.932 . S
H153 C133 0.930 . S
H154 C134 0.929 . S
H155 C136 0.930 . S
H156 C138 0.932 . S
H157 C139 0.929 . S
H158 C140 0.928 . S
H159 C142 0.932 . S
C160 C161 1.264 . S
C160 C165 1.479 . S
C160 C170 1.465 . S
C161 C160 1.264 . S
C161 C163 1.339 . S
C161 H188 0.931 . S
C162 C163 1.395 . S
C162 C164 1.320 . S
C163 C161 1.339 . S
C163 C162 1.395 . S
C163 H189 0.929 . S
C164 C162 1.320 . S
C164 C165 1.405 . S
C164 H190 0.930 . S
C165 C160 1.479 . S
C165 C164 1.405 . S
C165 H191 0.931 . S
U166 O167 2.454 . S
U166 O168 2.458 . S
U166 C169 2.984 . S
U166 C170 2.847 . S
U166 C183 2.882 . S
U166 O184 2.441 . S
U166 O185 2.420 . S
U166 O186 2.455 . S
U166 O187 2.449 . S
O167 U166 2.454 . S
O167 C169 1.353 . S
O168 U166 2.458 . S
O168 C169 1.286 . S
C169 U166 2.984 . S
C169 O167 1.353 . S
C169 O168 1.286 . S
C169 C171 1.363 . S
C170 C160 1.465 . S
C170 U166 2.847 . S
C170 O184 1.249 . S
C170 O185 1.202 . S
C171 C169 1.363 . S
C171 C173 1.408 . S
C171 C176 1.342 . S
C172 C173 1.310 . S
C172 C175 1.461 . S
C172 H192 0.932 . S
C173 C171 1.408 . S
C173 C172 1.310 . S
C173 H193 0.930 . S
C174 C175 1.474 . S
C174 C176 1.285 . S
C174 H194 0.929 . S
C175 C172 1.461 . S
C175 C174 1.474 . S
C176 C171 1.342 . S
C176 C174 1.285 . S
C176 H195 0.930 . S
C177 C180 1.424 . S
C177 C182 1.245 . S
C177 C183 1.428 . S
C178 C181 1.260 . S
C178 C182 1.477 . S
C178 H196 0.932 . S
C179 C180 1.384 . S
C179 C181 1.479 . S
C179 H197 0.929 . S
C180 C177 1.424 . S
C180 C179 1.384 . S
C180 H198 0.928 . S
C181 C178 1.260 . S
C181 C179 1.479 . S
C182 C177 1.245 . S
C182 C178 1.477 . S
C182 H199 0.932 . S
C183 U166 2.882 . S
C183 C177 1.428 . S
C183 O186 1.301 . S
C183 O187 1.282 . S
O184 U166 2.441 . S
O184 C170 1.249 . S
O185 U166 2.420 . S
O185 C170 1.202 . S
O186 U166 2.455 . S
O186 C183 1.301 . S
O187 U166 2.449 . S
O187 C183 1.282 . S
H188 C161 0.931 . S
H189 C163 0.929 . S
H190 C164 0.930 . S
H191 C165 0.931 . S
H192 C172 0.932 . S
H193 C173 0.930 . S
H194 C174 0.929 . S
H195 C176 0.930 . S
H196 C178 0.932 . S
H197 C179 0.929 . S
H198 C180 0.928 . S
H199 C182 0.932 . S
C200 C201 1.264 . S
C200 C205 1.479 . S
C200 C210 1.465 . S
C201 C200 1.264 . S
C201 C203 1.339 . S
C201 H228 0.931 . S
C202 C203 1.395 . S
C202 C204 1.320 . S
C203 C201 1.339 . S
C203 C202 1.395 . S
C203 H229 0.929 . S
C204 C202 1.320 . S
C204 C205 1.405 . S
C204 H230 0.930 . S
C205 C200 1.479 . S
C205 C204 1.405 . S
C205 H231 0.931 . S
U206 O207 2.454 . S
U206 O208 2.458 . S
U206 C209 2.984 . S
U206 C210 2.847 . S
U206 C223 2.882 . S
U206 O224 2.441 . S
U206 O225 2.420 . S
U206 O226 2.455 . S
U206 O227 2.449 . S
O207 U206 2.454 . S
O207 C209 1.353 . S
O208 U206 2.458 . S
O208 C209 1.286 . S
C209 U206 2.984 . S
C209 O207 1.353 . S
C209 O208 1.286 . S
C209 C211 1.363 . S
C210 C200 1.465 . S
C210 U206 2.847 . S
C210 O224 1.249 . S
C210 O225 1.202 . S
C211 C209 1.363 . S
C211 C213 1.408 . S
C211 C216 1.342 . S
C212 C213 1.310 . S
C212 C215 1.461 . S
C212 H232 0.932 . S
C213 C211 1.408 . S
C213 C212 1.310 . S
C213 H233 0.930 . S
C214 C215 1.474 . S
C214 C216 1.285 . S
C214 H234 0.929 . S
C215 C212 1.461 . S
C215 C214 1.474 . S
C216 C211 1.342 . S
C216 C214 1.285 . S
C216 H235 0.930 . S
C217 C220 1.424 . S
C217 C222 1.245 . S
C217 C223 1.428 . S
C218 C221 1.260 . S
C218 C222 1.477 . S
C218 H236 0.932 . S
C219 C220 1.384 . S
C219 C221 1.479 . S
C219 H237 0.929 . S
C220 C217 1.424 . S
C220 C219 1.384 . S
C220 H238 0.928 . S
C221 C218 1.260 . S
C221 C219 1.479 . S
C222 C217 1.245 . S
C222 C218 1.477 . S
C222 H239 0.932 . S
C223 U206 2.882 . S
C223 C217 1.428 . S
C223 O226 1.301 . S
C223 O227 1.282 . S
O224 U206 2.441 . S
O224 C210 1.249 . S
O225 U206 2.420 . S
O225 C210 1.202 . S
O226 U206 2.455 . S
O226 C223 1.301 . S
O227 U206 2.449 . S
O227 C223 1.282 . S
H228 C201 0.931 . S
H229 C203 0.929 . S
H230 C204 0.930 . S
H231 C205 0.931 . S
H232 C212 0.932 . S
H233 C213 0.930 . S
H234 C214 0.929 . S
H235 C216 0.930 . S
H236 C218 0.932 . S
H237 C219 0.929 . S
H238 C220 0.928 . S
H239 C222 0.932 . S
C240 C241 1.264 . S
C240 C245 1.479 . S
C240 C250 1.465 . S
C241 C240 1.264 . S
C241 C243 1.339 . S
C241 H268 0.931 . S
C242 C243 1.395 . S
C242 C244 1.320 . S
C243 C241 1.339 . S
C243 C242 1.395 . S
C243 H269 0.929 . S
C244 C242 1.320 . S
C244 C245 1.405 . S
C244 H270 0.930 . S
C245 C240 1.479 . S
C245 C244 1.405 . S
C245 H271 0.931 . S
U246 O247 2.454 . S
U246 O248 2.458 . S
U246 C249 2.984 . S
U246 C250 2.847 . S
U246 C263 2.882 . S
U246 O264 2.441 . S
U246 O265 2.420 . S
U246 O266 2.455 . S
U246 O267 2.449 . S
O247 U246 2.454 . S
O247 C249 1.353 . S
O248 U246 2.458 . S
O248 C249 1.286 . S
C249 U246 2.984 . S
C249 O247 1.353 . S
C249 O248 1.286 . S
C249 C251 1.363 . S
C250 C240 1.465 . S
C250 U246 2.847 . S
C250 O264 1.249 . S
C250 O265 1.202 . S
C251 C249 1.363 . S
C251 C253 1.408 . S
C251 C256 1.342 . S
C252 C253 1.310 . S
C252 C255 1.461 . S
C252 H272 0.932 . S
C253 C251 1.408 . S
C253 C252 1.310 . S
C253 H273 0.930 . S
C254 C255 1.474 . S
C254 C256 1.285 . S
C254 H274 0.929 . S
C255 C252 1.461 . S
C255 C254 1.474 . S
C256 C251 1.342 . S
C256 C254 1.285 . S
C256 H275 0.930 . S
C257 C260 1.424 . S
C257 C262 1.245 . S
C257 C263 1.428 . S
C258 C261 1.260 . S
C258 C262 1.477 . S
C258 H276 0.932 . S
C259 C260 1.384 . S
C259 C261 1.479 . S
C259 H277 0.929 . S
C260 C257 1.424 . S
C260 C259 1.384 . S
C260 H278 0.928 . S
C261 C258 1.260 . S
C261 C259 1.479 . S
C262 C257 1.245 . S
C262 C258 1.477 . S
C262 H279 0.932 . S
C263 U246 2.882 . S
C263 C257 1.428 . S
C263 O266 1.301 . S
C263 O267 1.282 . S
O264 U246 2.441 . S
O264 C250 1.249 . S
O265 U246 2.420 . S
O265 C250 1.202 . S
O266 U246 2.455 . S
O266 C263 1.301 . S
O267 U246 2.449 . S
O267 C263 1.282 . S
H268 C241 0.931 . S
H269 C243 0.929 . S
H270 C244 0.930 . S
H271 C245 0.931 . S
H272 C252 0.932 . S
H273 C253 0.930 . S
H274 C254 0.929 . S
H275 C256 0.930 . S
H276 C258 0.932 . S
H277 C259 0.929 . S
H278 C260 0.928 . S
H279 C262 0.932 . S
C280 C281 1.264 . S
C280 C285 1.479 . S
C280 C290 1.465 . S
C281 C280 1.264 . S
C281 C283 1.339 . S
C281 H308 0.931 . S
C282 C283 1.395 . S
C282 C284 1.320 . S
C283 C281 1.339 . S
C283 C282 1.395 . S
C283 H309 0.929 . S
C284 C282 1.320 . S
C284 C285 1.405 . S
C284 H310 0.930 . S
C285 C280 1.479 . S
C285 C284 1.405 . S
C285 H311 0.931 . S
U286 O287 2.454 . S
U286 O288 2.458 . S
U286 C289 2.984 . S
U286 C290 2.847 . S
U286 C303 2.882 . S
U286 O304 2.441 . S
U286 O305 2.420 . S
U286 O306 2.455 . S
U286 O307 2.449 . S
O287 U286 2.454 . S
O287 C289 1.353 . S
O288 U286 2.458 . S
O288 C289 1.286 . S
C289 U286 2.984 . S
C289 O287 1.353 . S
C289 O288 1.286 . S
C289 C291 1.363 . S
C290 C280 1.465 . S
C290 U286 2.847 . S
C290 O304 1.249 . S
C290 O305 1.202 . S
C291 C289 1.363 . S
C291 C293 1.408 . S
C291 C296 1.342 . S
C292 C293 1.310 . S
C292 C295 1.461 . S
C292 H312 0.932 . S
C293 C291 1.408 . S
C293 C292 1.310 . S
C293 H313 0.930 . S
C294 C295 1.474 . S
C294 C296 1.285 . S
C294 H314 0.929 . S
C295 C292 1.461 . S
C295 C294 1.474 . S
C296 C291 1.342 . S
C296 C294 1.285 . S
C296 H315 0.930 . S
C297 C300 1.424 . S
C297 C302 1.245 . S
C297 C303 1.428 . S
C298 C301 1.260 . S
C298 C302 1.477 . S
C298 H316 0.932 . S
C299 C300 1.384 . S
C299 C301 1.479 . S
C299 H317 0.929 . S
C300 C297 1.424 . S
C300 C299 1.384 . S
C300 H318 0.928 . S
C301 C298 1.260 . S
C301 C299 1.479 . S
C302 C297 1.245 . S
C302 C298 1.477 . S
C302 H319 0.932 . S
C303 U286 2.882 . S
C303 C297 1.428 . S
C303 O306 1.301 . S
C303 O307 1.282 . S
O304 U286 2.441 . S
O304 C290 1.249 . S
O305 U286 2.420 . S
O305 C290 1.202 . S
O306 U286 2.455 . S
O306 C303 1.301 . S
O307 U286 2.449 . S
O307 C303 1.282 . S
H308 C281 0.931 . S
H309 C283 0.929 . S
H310 C284 0.930 . S
H311 C285 0.931 . S
H312 C292 0.932 . S
H313 C293 0.930 . S
H314 C294 0.929 . S
H315 C296 0.930 . S
H316 C298 0.932 . S
H317 C299 0.929 . S
H318 C300 0.928 . S
H319 C302 0.932 . S
C320 C321 1.264 . S
C320 C325 1.479 . S
C320 C330 1.465 . S
C321 C320 1.264 . S
C321 C323 1.339 . S
C321 H348 0.931 . S
C322 C323 1.395 . S
C322 C324 1.320 . S
C323 C321 1.339 . S
C323 C322 1.395 . S
C323 H349 0.929 . S
C324 C322 1.320 . S
C324 C325 1.405 . S
C324 H350 0.930 . S
C325 C320 1.479 . S
C325 C324 1.405 . S
C325 H351 0.931 . S
U326 O327 2.454 . S
U326 O328 2.458 . S
U326 C329 2.984 . S
U326 C330 2.847 . S
U326 C343 2.882 . S
U326 O344 2.441 . S
U326 O345 2.420 . S
U326 O346 2.455 . S
U326 O347 2.449 . S
O327 U326 2.454 . S
O327 C329 1.353 . S
O328 U326 2.458 . S
O328 C329 1.286 . S
C329 U326 2.984 . S
C329 O327 1.353 . S
C329 O328 1.286 . S
C329 C331 1.363 . S
C330 C320 1.465 . S
C330 U326 2.847 . S
C330 O344 1.249 . S
C330 O345 1.202 . S
C331 C329 1.363 . S
C331 C333 1.408 . S
C331 C336 1.342 . S
C332 C333 1.310 . S
C332 C335 1.461 . S
C332 H352 0.932 . S
C333 C331 1.408 . S
C333 C332 1.310 . S
C333 H353 0.930 . S
C334 C335 1.474 . S
C334 C336 1.285 . S
C334 H354 0.929 . S
C335 C332 1.461 . S
C335 C334 1.474 . S
C336 C331 1.342 . S
C336 C334 1.285 . S
C336 H355 0.930 . S
C337 C340 1.424 . S
C337 C342 1.245 . S
C337 C343 1.428 . S
C338 C341 1.260 . S
C338 C342 1.477 . S
C338 H356 0.932 . S
C339 C340 1.384 . S
C339 C341 1.479 . S
C339 H357 0.929 . S
C340 C337 1.424 . S
C340 C339 1.384 . S
C340 H358 0.928 . S
C341 C338 1.260 . S
C341 C339 1.479 . S
C342 C337 1.245 . S
C342 C338 1.477 . S
C342 H359 0.932 . S
C343 U326 2.882 . S
C343 C337 1.428 . S
C343 O346 1.301 . S
C343 O347 1.282 . S
O344 U326 2.441 . S
O344 C330 1.249 . S
O345 U326 2.420 . S
O345 C330 1.202 . S
O346 U326 2.455 . S
O346 C343 1.301 . S
O347 U326 2.449 . S
O347 C343 1.282 . S
H348 C321 0.931 . S
H349 C323 0.929 . S
H350 C324 0.930 . S
H351 C325 0.931 . S
H352 C332 0.932 . S
H353 C333 0.930 . S
H354 C334 0.929 . S
H355 C336 0.930 . S
H356 C338 0.932 . S
H357 C339 0.929 . S
H358 C340 0.928 . S
H359 C342 0.932 . S
C360 C361 1.264 . S
C360 C365 1.479 . S
C360 C370 1.465 . S
C361 C360 1.264 . S
C361 C363 1.339 . S
C361 H388 0.931 . S
C362 C363 1.395 . S
C362 C364 1.320 . S
C363 C361 1.339 . S
C363 C362 1.395 . S
C363 H389 0.929 . S
C364 C362 1.320 . S
C364 C365 1.405 . S
C364 H390 0.930 . S
C365 C360 1.479 . S
C365 C364 1.405 . S
C365 H391 0.931 . S
U366 O367 2.454 . S
U366 O368 2.458 . S
U366 C369 2.984 . S
U366 C370 2.847 . S
U366 C383 2.882 . S
U366 O384 2.441 . S
U366 O385 2.420 . S
U366 O386 2.455 . S
U366 O387 2.449 . S
O367 U366 2.454 . S
O367 C369 1.353 . S
O368 U366 2.458 . S
O368 C369 1.286 . S
C369 U366 2.984 . S
C369 O367 1.353 . S
C369 O368 1.286 . S
C369 C371 1.363 . S
C370 C360 1.465 . S
C370 U366 2.847 . S
C370 O384 1.249 . S
C370 O385 1.202 . S
C371 C369 1.363 . S
C371 C373 1.408 . S
C371 C376 1.342 . S
C372 C373 1.310 . S
C372 C375 1.461 . S
C372 H392 0.932 . S
C373 C371 1.408 . S
C373 C372 1.310 . S
C373 H393 0.930 . S
C374 C375 1.474 . S
C374 C376 1.285 . S
C374 H394 0.929 . S
C375 C372 1.461 . S
C375 C374 1.474 . S
C376 C371 1.342 . S
C376 C374 1.285 . S
C376 H395 0.930 . S
C377 C380 1.424 . S
C377 C382 1.245 . S
C377 C383 1.428 . S
C378 C381 1.260 . S
C378 C382 1.477 . S
C378 H396 0.932 . S
C379 C380 1.384 . S
C379 C381 1.479 . S
C379 H397 0.929 . S
C380 C377 1.424 . S
C380 C379 1.384 . S
C380 H398 0.928 . S
C381 C378 1.260 . S
C381 C379 1.479 . S
C382 C377 1.245 . S
C382 C378 1.477 . S
C382 H399 0.932 . S
C383 U366 2.882 . S
C383 C377 1.428 . S
C383 O386 1.301 . S
C383 O387 1.282 . S
O384 U366 2.441 . S
O384 C370 1.249 . S
O385 U366 2.420 . S
O385 C370 1.202 . S
O386 U366 2.455 . S
O386 C383 1.301 . S
O387 U366 2.449 . S
O387 C383 1.282 . S
H388 C361 0.931 . S
H389 C363 0.929 . S
H390 C364 0.930 . S
H391 C365 0.931 . S
H392 C372 0.932 . S
H393 C373 0.930 . S
H394 C374 0.929 . S
H395 C376 0.930 . S
H396 C378 0.932 . S
H397 C379 0.929 . S
H398 C380 0.928 . S
H399 C382 0.932 . S
C400 C401 1.264 . S
C400 C405 1.479 . S
C400 C410 1.465 . S
C401 C400 1.264 . S
C401 C403 1.339 . S
C401 H428 0.931 . S
C402 C403 1.395 . S
C402 C404 1.320 . S
C403 C401 1.339 . S
C403 C402 1.395 . S
C403 H429 0.929 . S
C404 C402 1.320 . S
C404 C405 1.405 . S
C404 H430 0.930 . S
C405 C400 1.479 . S
C405 C404 1.405 . S
C405 H431 0.931 . S
U406 O407 2.454 . S
U406 O408 2.458 . S
U406 C409 2.984 . S
U406 C410 2.847 . S
U406 C423 2.882 . S
U406 O424 2.441 . S
U406 O425 2.420 . S
U406 O426 2.455 . S
U406 O427 2.449 . S
O407 U406 2.454 . S
O407 C409 1.353 . S
O408 U406 2.458 . S
O408 C409 1.286 . S
C409 U406 2.984 . S
C409 O407 1.353 . S
C409 O408 1.286 . S
C409 C411 1.363 . S
C410 C400 1.465 . S
C410 U406 2.847 . S
C410 O424 1.249 . S
C410 O425 1.202 . S
C411 C409 1.363 . S
C411 C413 1.408 . S
C411 C416 1.342 . S
C412 C413 1.310 . S
C412 C415 1.461 . S
C412 H432 0.932 . S
C413 C411 1.408 . S
C413 C412 1.310 . S
C413 H433 0.930 . S
C414 C415 1.474 . S
C414 C416 1.285 . S
C414 H434 0.929 . S
C415 C412 1.461 . S
C415 C414 1.474 . S
C416 C411 1.342 . S
C416 C414 1.285 . S
C416 H435 0.930 . S
C417 C420 1.424 . S
C417 C422 1.245 . S
C417 C423 1.428 . S
C418 C421 1.260 . S
C418 C422 1.477 . S
C418 H436 0.932 . S
C419 C420 1.384 . S
C419 C421 1.479 . S
C419 H437 0.929 . S
C420 C417 1.424 . S
C420 C419 1.384 . S
C420 H438 0.928 . S
C421 C418 1.260 . S
C421 C419 1.479 . S
C422 C417 1.245 . S
C422 C418 1.477 . S
C422 H439 0.932 . S
C423 U406 2.882 . S
C423 C417 1.428 . S
C423 O426 1.301 . S
C423 O427 1.282 . S
O424 U406 2.441 . S
O424 C410 1.249 . S
O425 U406 2.420 . S
O425 C410 1.202 . S
O426 U406 2.455 . S
O426 C423 1.301 . S
O427 U406 2.449 . S
O427 C423 1.282 . S
H428 C401 0.931 . S
H429 C403 0.929 . S
H430 C404 0.930 . S
H431 C405 0.931 . S
H432 C412 0.932 . S
H433 C413 0.930 . S
H434 C414 0.929 . S
H435 C416 0.930 . S
H436 C418 0.932 . S
H437 C419 0.929 . S
H438 C420 0.928 . S
H439 C422 0.932 . S
C440 C441 1.264 . S
C440 C445 1.479 . S
C440 C450 1.465 . S
C441 C440 1.264 . S
C441 C443 1.339 . S
C441 H468 0.931 . S
C442 C443 1.395 . S
C442 C444 1.320 . S
C443 C441 1.339 . S
C443 C442 1.395 . S
C443 H469 0.929 . S
C444 C442 1.320 . S
C444 C445 1.405 . S
C444 H470 0.930 . S
C445 C440 1.479 . S
C445 C444 1.405 . S
C445 H471 0.931 . S
U446 O447 2.454 . S
U446 O448 2.458 . S
U446 C449 2.984 . S
U446 C450 2.847 . S
U446 C463 2.882 . S
U446 O464 2.441 . S
U446 O465 2.420 . S
U446 O466 2.455 . S
U446 O467 2.449 . S
O447 U446 2.454 . S
O447 C449 1.353 . S
O448 U446 2.458 . S
O448 C449 1.286 . S
C449 U446 2.984 . S
C449 O447 1.353 . S
C449 O448 1.286 . S
C449 C451 1.363 . S
C450 C440 1.465 . S
C450 U446 2.847 . S
C450 O464 1.249 . S
C450 O465 1.202 . S
C451 C449 1.363 . S
C451 C453 1.408 . S
C451 C456 1.342 . S
C452 C453 1.310 . S
C452 C455 1.461 . S
C452 H472 0.932 . S
C453 C451 1.408 . S
C453 C452 1.310 . S
C453 H473 0.930 . S
C454 C455 1.474 . S
C454 C456 1.285 . S
C454 H474 0.929 . S
C455 C452 1.461 . S
C455 C454 1.474 . S
C456 C451 1.342 . S
C456 C454 1.285 . S
C456 H475 0.930 . S
C457 C460 1.424 . S
C457 C462 1.245 . S
C457 C463 1.428 . S
C458 C461 1.260 . S
C458 C462 1.477 . S
C458 H476 0.932 . S
C459 C460 1.384 . S
C459 C461 1.479 . S
C459 H477 0.929 . S
C460 C457 1.424 . S
C460 C459 1.384 . S
C460 H478 0.928 . S
C461 C458 1.260 . S
C461 C459 1.479 . S
C462 C457 1.245 . S
C462 C458 1.477 . S
C462 H479 0.932 . S
C463 U446 2.882 . S
C463 C457 1.428 . S
C463 O466 1.301 . S
C463 O467 1.282 . S
O464 U446 2.441 . S
O464 C450 1.249 . S
O465 U446 2.420 . S
O465 C450 1.202 . S
O466 U446 2.455 . S
O466 C463 1.301 . S
O467 U446 2.449 . S
O467 C463 1.282 . S
H468 C441 0.931 . S
H469 C443 0.929 . S
H470 C444 0.930 . S
H471 C445 0.931 . S
H472 C452 0.932 . S
H473 C453 0.930 . S
H474 C454 0.929 . S
H475 C456 0.930 . S
H476 C458 0.932 . S
H477 C459 0.929 . S
H478 C460 0.928 . S
H479 C462 0.932 . S
C480 C481 1.264 . S
C480 C485 1.479 . S
C480 C490 1.465 . S
C481 C480 1.264 . S
C481 C483 1.339 . S
C481 H508 0.931 . S
C482 C483 1.395 . S
C482 C484 1.320 . S
C483 C481 1.339 . S
C483 C482 1.395 . S
C483 H509 0.929 . S
C484 C482 1.320 . S
C484 C485 1.405 . S
C484 H510 0.930 . S
C485 C480 1.479 . S
C485 C484 1.405 . S
C485 H511 0.931 . S
U486 O487 2.454 . S
U486 O488 2.458 . S
U486 C489 2.984 . S
U486 C490 2.847 . S
U486 C503 2.882 . S
U486 O504 2.441 . S
U486 O505 2.420 . S
U486 O506 2.455 . S
U486 O507 2.449 . S
O487 U486 2.454 . S
O487 C489 1.353 . S
O488 U486 2.458 . S
O488 C489 1.286 . S
C489 U486 2.984 . S
C489 O487 1.353 . S
C489 O488 1.286 . S
C489 C491 1.363 . S
C490 C480 1.465 . S
C490 U486 2.847 . S
C490 O504 1.249 . S
C490 O505 1.202 . S
C491 C489 1.363 . S
C491 C493 1.408 . S
C491 C496 1.342 . S
C492 C493 1.310 . S
C492 C495 1.461 . S
C492 H512 0.932 . S
C493 C491 1.408 . S
C493 C492 1.310 . S
C493 H513 0.930 . S
C494 C495 1.474 . S
C494 C496 1.285 . S
C494 H514 0.929 . S
C495 C492 1.461 . S
C495 C494 1.474 . S
C496 C491 1.342 . S
C496 C494 1.285 . S
C496 H515 0.930 . S
C497 C500 1.424 . S
C497 C502 1.245 . S
C497 C503 1.428 . S
C498 C501 1.260 . S
C498 C502 1.477 . S
C498 H516 0.932 . S
C499 C500 1.384 . S
C499 C501 1.479 . S
C499 H517 0.929 . S
C500 C497 1.424 . S
C500 C499 1.384 . S
C500 H518 0.928 . S
C501 C498 1.260 . S
C501 C499 1.479 . S
C502 C497 1.245 . S
C502 C498 1.477 . S
C502 H519 0.932 . S
C503 U486 2.882 . S
C503 C497 1.428 . S
C503 O506 1.301 . S
C503 O507 1.282 . S
O504 U486 2.441 . S
O504 C490 1.249 . S
O505 U486 2.420 . S
O505 C490 1.202 . S
O506 U486 2.455 . S
O506 C503 1.301 . S
O507 U486 2.449 . S
O507 C503 1.282 . S
H508 C481 0.931 . S
H509 C483 0.929 . S
H510 C484 0.930 . S
H511 C485 0.931 . S
H512 C492 0.932 . S
H513 C493 0.930 . S
H514 C494 0.929 . S
H515 C496 0.930 . S
H516 C498 0.932 . S
H517 C499 0.929 . S
H518 C500 0.928 . S
H519 C502 0.932 . S
C520 C521 1.264 . S
C520 C525 1.479 . S
C520 C530 1.465 . S
C521 C520 1.264 . S
C521 C523 1.339 . S
C521 H548 0.931 . S
C522 C523 1.395 . S
C522 C524 1.320 . S
C523 C521 1.339 . S
C523 C522 1.395 . S
C523 H549 0.929 . S
C524 C522 1.320 . S
C524 C525 1.405 . S
C524 H550 0.930 . S
C525 C520 1.479 . S
C525 C524 1.405 . S
C525 H551 0.931 . S
U526 O527 2.454 . S
U526 O528 2.458 . S
U526 C529 2.984 . S
U526 C530 2.847 . S
U526 C543 2.882 . S
U526 O544 2.441 . S
U526 O545 2.420 . S
U526 O546 2.455 . S
U526 O547 2.449 . S
O527 U526 2.454 . S
O527 C529 1.353 . S
O528 U526 2.458 . S
O528 C529 1.286 . S
C529 U526 2.984 . S
C529 O527 1.353 . S
C529 O528 1.286 . S
C529 C531 1.363 . S
C530 C520 1.465 . S
C530 U526 2.847 . S
C530 O544 1.249 . S
C530 O545 1.202 . S
C531 C529 1.363 . S
C531 C533 1.408 . S
C531 C536 1.342 . S
C532 C533 1.310 . S
C532 C535 1.461 . S
C532 H552 0.932 . S
C533 C531 1.408 . S
C533 C532 1.310 . S
C533 H553 0.930 . S
C534 C535 1.474 . S
C534 C536 1.285 . S
C534 H554 0.929 . S
C535 C532 1.461 . S
C535 C534 1.474 . S
C536 C531 1.342 . S
C536 C534 1.285 . S
C536 H555 0.930 . S
C537 C540 1.424 . S
C537 C542 1.245 . S
C537 C543 1.428 . S
C538 C541 1.260 . S
C538 C542 1.477 . S
C538 H556 0.932 . S
C539 C540 1.384 . S
C539 C541 1.479 . S
C539 H557 0.929 . S
C540 C537 1.424 . S
C540 C539 1.384 . S
C540 H558 0.928 . S
C541 C538 1.260 . S
C541 C539 1.479 . S
C542 C537 1.245 . S
C542 C538 1.477 . S
C542 H559 0.932 . S
C543 U526 2.882 . S
C543 C537 1.428 . S
C543 O546 1.301 . S
C543 O547 1.282 . S
O544 U526 2.441 . S
O544 C530 1.249 . S
O545 U526 2.420 . S
O545 C530 1.202 . S
O546 U526 2.455 . S
O546 C543 1.301 . S
O547 U526 2.449 . S
O547 C543 1.282 . S
H548 C521 0.931 . S
H549 C523 0.929 . S
H550 C524 0.930 . S
H551 C525 0.931 . S
H552 C532 0.932 . S
H553 C533 0.930 . S
H554 C534 0.929 . S
H555 C536 0.930 . S
H556 C538 0.932 . S
H557 C539 0.929 . S
H558 C540 0.928 . S
H559 C542 0.932 . S
C560 C561 1.264 . S
C560 C565 1.479 . S
C560 C570 1.465 . S
C561 C560 1.264 . S
C561 C563 1.339 . S
C561 H588 0.931 . S
C562 C563 1.395 . S
C562 C564 1.320 . S
C563 C561 1.339 . S
C563 C562 1.395 . S
C563 H589 0.929 . S
C564 C562 1.320 . S
C564 C565 1.405 . S
C564 H590 0.930 . S
C565 C560 1.479 . S
C565 C564 1.405 . S
C565 H591 0.931 . S
U566 O567 2.454 . S
U566 O568 2.458 . S
U566 C569 2.984 . S
U566 C570 2.847 . S
U566 C583 2.882 . S
U566 O584 2.441 . S
U566 O585 2.420 . S
U566 O586 2.455 . S
U566 O587 2.449 . S
O567 U566 2.454 . S
O567 C569 1.353 . S
O568 U566 2.458 . S
O568 C569 1.286 . S
C569 U566 2.984 . S
C569 O567 1.353 . S
C569 O568 1.286 . S
C569 C571 1.363 . S
C570 C560 1.465 . S
C570 U566 2.847 . S
C570 O584 1.249 . S
C570 O585 1.202 . S
C571 C569 1.363 . S
C571 C573 1.408 . S
C571 C576 1.342 . S
C572 C573 1.310 . S
C572 C575 1.461 . S
C572 H592 0.932 . S
C573 C571 1.408 . S
C573 C572 1.310 . S
C573 H593 0.930 . S
C574 C575 1.474 . S
C574 C576 1.285 . S
C574 H594 0.929 . S
C575 C572 1.461 . S
C575 C574 1.474 . S
C576 C571 1.342 . S
C576 C574 1.285 . S
C576 H595 0.930 . S
C577 C580 1.424 . S
C577 C582 1.245 . S
C577 C583 1.428 . S
C578 C581 1.260 . S
C578 C582 1.477 . S
C578 H596 0.932 . S
C579 C580 1.384 . S
C579 C581 1.479 . S
C579 H597 0.929 . S
C580 C577 1.424 . S
C580 C579 1.384 . S
C580 H598 0.928 . S
C581 C578 1.260 . S
C581 C579 1.479 . S
C582 C577 1.245 . S
C582 C578 1.477 . S
C582 H599 0.932 . S
C583 U566 2.882 . S
C583 C577 1.428 . S
C583 O586 1.301 . S
C583 O587 1.282 . S
O584 U566 2.441 . S
O584 C570 1.249 . S
O585 U566 2.420 . S
O585 C570 1.202 . S
O586 U566 2.455 . S
O586 C583 1.301 . S
O587 U566 2.449 . S
O587 C583 1.282 . S
H588 C561 0.931 . S
H589 C563 0.929 . S
H590 C564 0.930 . S
H591 C565 0.931 . S
H592 C572 0.932 . S
H593 C573 0.930 . S
H594 C574 0.929 . S
H595 C576 0.930 . S
H596 C578 0.932 . S
H597 C579 0.929 . S
H598 C580 0.928 . S
H599 C582 0.932 . S
C600 C601 1.264 . S
C600 C605 1.479 . S
C600 C610 1.465 . S
C601 C600 1.264 . S
C601 C603 1.339 . S
C601 H628 0.931 . S
C602 C603 1.395 . S
C602 C604 1.320 . S
C603 C601 1.339 . S
C603 C602 1.395 . S
C603 H629 0.929 . S
C604 C602 1.320 . S
C604 C605 1.405 . S
C604 H630 0.930 . S
C605 C600 1.479 . S
C605 C604 1.405 . S
C605 H631 0.931 . S
U606 O607 2.454 . S
U606 O608 2.458 . S
U606 C609 2.984 . S
U606 C610 2.847 . S
U606 C623 2.882 . S
U606 O624 2.441 . S
U606 O625 2.420 . S
U606 O626 2.455 . S
U606 O627 2.449 . S
O607 U606 2.454 . S
O607 C609 1.353 . S
O608 U606 2.458 . S
O608 C609 1.286 . S
C609 U606 2.984 . S
C609 O607 1.353 . S
C609 O608 1.286 . S
C609 C611 1.363 . S
C610 C600 1.465 . S
C610 U606 2.847 . S
C610 O624 1.249 . S
C610 O625 1.202 . S
C611 C609 1.363 . S
C611 C613 1.408 . S
C611 C616 1.342 . S
C612 C613 1.310 . S
C612 C615 1.461 . S
C612 H632 0.932 . S
C613 C611 1.408 . S
C613 C612 1.310 . S
C613 H633 0.930 . S
C614 C615 1.474 . S
C614 C616 1.285 . S
C614 H634 0.929 . S
C615 C612 1.461 . S
C615 C614 1.474 . S
C616 C611 1.342 . S
C616 C614 1.285 . S
C616 H635 0.930 . S
C617 C620 1.424 . S
C617 C622 1.245 . S
C617 C623 1.428 . S
C618 C621 1.260 . S
C618 C622 1.477 . S
C618 H636 0.932 . S
C619 C620 1.384 . S
C619 C621 1.479 . S
C619 H637 0.929 . S
C620 C617 1.424 . S
C620 C619 1.384 . S
C620 H638 0.928 . S
C621 C618 1.260 . S
C621 C619 1.479 . S
C622 C617 1.245 . S
C622 C618 1.477 . S
C622 H639 0.932 . S
C623 U606 2.882 . S
C623 C617 1.428 . S
C623 O626 1.301 . S
C623 O627 1.282 . S
O624 U606 2.441 . S
O624 C610 1.249 . S
O625 U606 2.420 . S
O625 C610 1.202 . S
O626 U606 2.455 . S
O626 C623 1.301 . S
O627 U606 2.449 . S
O627 C623 1.282 . S
H628 C601 0.931 . S
H629 C603 0.929 . S
H630 C604 0.930 . S
H631 C605 0.931 . S
H632 C612 0.932 . S
H633 C613 0.930 . S
H634 C614 0.929 . S
H635 C616 0.930 . S
H636 C618 0.932 . S
H637 C619 0.929 . S
H638 C620 0.928 . S
H639 C622 0.932 . S
C640 C641 1.264 . S
C640 C645 1.479 . S
C640 C650 1.465 . S
C641 C640 1.264 . S
C641 C643 1.339 . S
C641 H668 0.931 . S
C642 C643 1.395 . S
C642 C644 1.320 . S
C643 C641 1.339 . S
C643 C642 1.395 . S
C643 H669 0.929 . S
C644 C642 1.320 . S
C644 C645 1.405 . S
C644 H670 0.930 . S
C645 C640 1.479 . S
C645 C644 1.405 . S
C645 H671 0.931 . S
U646 O647 2.454 . S
U646 O648 2.458 . S
U646 C649 2.984 . S
U646 C650 2.847 . S
U646 C663 2.882 . S
U646 O664 2.441 . S
U646 O665 2.420 . S
U646 O666 2.455 . S
U646 O667 2.449 . S
O647 U646 2.454 . S
O647 C649 1.353 . S
O648 U646 2.458 . S
O648 C649 1.286 . S
C649 U646 2.984 . S
C649 O647 1.353 . S
C649 O648 1.286 . S
C649 C651 1.363 . S
C650 C640 1.465 . S
C650 U646 2.847 . S
C650 O664 1.249 . S
C650 O665 1.202 . S
C651 C649 1.363 . S
C651 C653 1.408 . S
C651 C656 1.342 . S
C652 C653 1.310 . S
C652 C655 1.461 . S
C652 H672 0.932 . S
C653 C651 1.408 . S
C653 C652 1.310 . S
C653 H673 0.930 . S
C654 C655 1.474 . S
C654 C656 1.285 . S
C654 H674 0.929 . S
C655 C652 1.461 . S
C655 C654 1.474 . S
C656 C651 1.342 . S
C656 C654 1.285 . S
C656 H675 0.930 . S
C657 C660 1.424 . S
C657 C662 1.245 . S
C657 C663 1.428 . S
C658 C661 1.260 . S
C658 C662 1.477 . S
C658 H676 0.932 . S
C659 C660 1.384 . S
C659 C661 1.479 . S
C659 H677 0.929 . S
C660 C657 1.424 . S
C660 C659 1.384 . S
C660 H678 0.928 . S
C661 C658 1.260 . S
C661 C659 1.479 . S
C662 C657 1.245 . S
C662 C658 1.477 . S
C662 H679 0.932 . S
C663 U646 2.882 . S
C663 C657 1.428 . S
C663 O666 1.301 . S
C663 O667 1.282 . S
O664 U646 2.441 . S
O664 C650 1.249 . S
O665 U646 2.420 . S
O665 C650 1.202 . S
O666 U646 2.455 . S
O666 C663 1.301 . S
O667 U646 2.449 . S
O667 C663 1.282 . S
H668 C641 0.931 . S
H669 C643 0.929 . S
H670 C644 0.930 . S
H671 C645 0.931 . S
H672 C652 0.932 . S
H673 C653 0.930 . S
H674 C654 0.929 . S
H675 C656 0.930 . S
H676 C658 0.932 . S
H677 C659 0.929 . S
H678 C660 0.928 . S
H679 C662 0.932 . S
C680 C681 1.264 . S
C680 C685 1.479 . S
C680 C690 1.465 . S
C681 C680 1.264 . S
C681 C683 1.339 . S
C681 H708 0.931 . S
C682 C683 1.395 . S
C682 C684 1.320 . S
C683 C681 1.339 . S
C683 C682 1.395 . S
C683 H709 0.929 . S
C684 C682 1.320 . S
C684 C685 1.405 . S
C684 H710 0.930 . S
C685 C680 1.479 . S
C685 C684 1.405 . S
C685 H711 0.931 . S
U686 O687 2.454 . S
U686 O688 2.458 . S
U686 C689 2.984 . S
U686 C690 2.847 . S
U686 C703 2.882 . S
U686 O704 2.441 . S
U686 O705 2.420 . S
U686 O706 2.455 . S
U686 O707 2.449 . S
O687 U686 2.454 . S
O687 C689 1.353 . S
O688 U686 2.458 . S
O688 C689 1.286 . S
C689 U686 2.984 . S
C689 O687 1.353 . S
C689 O688 1.286 . S
C689 C691 1.363 . S
C690 C680 1.465 . S
C690 U686 2.847 . S
C690 O704 1.249 . S
C690 O705 1.202 . S
C691 C689 1.363 . S
C691 C693 1.408 . S
C691 C696 1.342 . S
C692 C693 1.310 . S
C692 C695 1.461 . S
C692 H712 0.932 . S
C693 C691 1.408 . S
C693 C692 1.310 . S
C693 H713 0.930 . S
C694 C695 1.474 . S
C694 C696 1.285 . S
C694 H714 0.929 . S
C695 C692 1.461 . S
C695 C694 1.474 . S
C696 C691 1.342 . S
C696 C694 1.285 . S
C696 H715 0.930 . S
C697 C700 1.424 . S
C697 C702 1.245 . S
C697 C703 1.428 . S
C698 C701 1.260 . S
C698 C702 1.477 . S
C698 H716 0.932 . S
C699 C700 1.384 . S
C699 C701 1.479 . S
C699 H717 0.929 . S
C700 C697 1.424 . S
C700 C699 1.384 . S
C700 H718 0.928 . S
C701 C698 1.260 . S
C701 C699 1.479 . S
C702 C697 1.245 . S
C702 C698 1.477 . S
C702 H719 0.932 . S
C703 U686 2.882 . S
C703 C697 1.428 . S
C703 O706 1.301 . S
C703 O707 1.282 . S
O704 U686 2.441 . S
O704 C690 1.249 . S
O705 U686 2.420 . S
O705 C690 1.202 . S
O706 U686 2.455 . S
O706 C703 1.301 . S
O707 U686 2.449 . S
O707 C703 1.282 . S
H708 C681 0.931 . S
H709 C683 0.929 . S
H710 C684 0.930 . S
H711 C685 0.931 . S
H712 C692 0.932 . S
H713 C693 0.930 . S
H714 C694 0.929 . S
H715 C696 0.930 . S
H716 C698 0.932 . S
H717 C699 0.929 . S
H718 C700 0.928 . S
H719 C702 0.932 . S
C720 C721 1.264 . S
C720 C725 1.479 . S
C720 C730 1.465 . S
C721 C720 1.264 . S
C721 C723 1.339 . S
C721 H748 0.931 . S
C722 C723 1.395 . S
C722 C724 1.320 . S
C723 C721 1.339 . S
C723 C722 1.395 . S
C723 H749 0.929 . S
C724 C722 1.320 . S
C724 C725 1.405 . S
C724 H750 0.930 . S
C725 C720 1.479 . S
C725 C724 1.405 . S
C725 H751 0.931 . S
U726 O727 2.454 . S
U726 O728 2.458 . S
U726 C729 2.984 . S
U726 C730 2.847 . S
U726 C743 2.882 . S
U726 O744 2.441 . S
U726 O745 2.420 . S
U726 O746 2.455 . S
U726 O747 2.449 . S
O727 U726 2.454 . S
O727 C729 1.353 . S
O728 U726 2.458 . S
O728 C729 1.286 . S
C729 U726 2.984 . S
C729 O727 1.353 . S
C729 O728 1.286 . S
C729 C731 1.363 . S
C730 C720 1.465 . S
C730 U726 2.847 . S
C730 O744 1.249 . S
C730 O745 1.202 . S
C731 C729 1.363 . S
C731 C733 1.408 . S
C731 C736 1.342 . S
C732 C733 1.310 . S
C732 C735 1.461 . S
C732 H752 0.932 . S
C733 C731 1.408 . S
C733 C732 1.310 . S
C733 H753 0.930 . S
C734 C735 1.474 . S
C734 C736 1.285 . S
C734 H754 0.929 . S
C735 C732 1.461 . S
C735 C734 1.474 . S
C736 C731 1.342 . S
C736 C734 1.285 . S
C736 H755 0.930 . S
C737 C740 1.424 . S
C737 C742 1.245 . S
C737 C743 1.428 . S
C738 C741 1.260 . S
C738 C742 1.477 . S
C738 H756 0.932 . S
C739 C740 1.384 . S
C739 C741 1.479 . S
C739 H757 0.929 . S
C740 C737 1.424 . S
C740 C739 1.384 . S
C740 H758 0.928 . S
C741 C738 1.260 . S
C741 C739 1.479 . S
C742 C737 1.245 . S
C742 C738 1.477 . S
C742 H759 0.932 . S
C743 U726 2.882 . S
C743 C737 1.428 . S
C743 O746 1.301 . S
C743 O747 1.282 . S
O744 U726 2.441 . S
O744 C730 1.249 . S
O745 U726 2.420 . S
O745 C730 1.202 . S
O746 U726 2.455 . S
O746 C743 1.301 . S
O747 U726 2.449 . S
O747 C743 1.282 . S
H748 C721 0.931 . S
H749 C723 0.929 . S
H750 C724 0.930 . S
H751 C725 0.931 . S
H752 C732 0.932 . S
H753 C733 0.930 . S
H754 C734 0.929 . S
H755 C736 0.930 . S
H756 C738 0.932 . S
H757 C739 0.929 . S
H758 C740 0.928 . S
H759 C742 0.932 . S
C760 C761 1.264 . S
C760 C765 1.479 . S
C760 C770 1.465 . S
C761 C760 1.264 . S
C761 C763 1.339 . S
C761 H788 0.931 . S
C762 C763 1.395 . S
C762 C764 1.320 . S
C763 C761 1.339 . S
C763 C762 1.395 . S
C763 H789 0.929 . S
C764 C762 1.320 . S
C764 C765 1.405 . S
C764 H790 0.930 . S
C765 C760 1.479 . S
C765 C764 1.405 . S
C765 H791 0.931 . S
U766 O767 2.454 . S
U766 O768 2.458 . S
U766 C769 2.984 . S
U766 C770 2.847 . S
U766 C783 2.882 . S
U766 O784 2.441 . S
U766 O785 2.420 . S
U766 O786 2.455 . S
U766 O787 2.449 . S
O767 U766 2.454 . S
O767 C769 1.353 . S
O768 U766 2.458 . S
O768 C769 1.286 . S
C769 U766 2.984 . S
C769 O767 1.353 . S
C769 O768 1.286 . S
C769 C771 1.363 . S
C770 C760 1.465 . S
C770 U766 2.847 . S
C770 O784 1.249 . S
C770 O785 1.202 . S
C771 C769 1.363 . S
C771 C773 1.408 . S
C771 C776 1.342 . S
C772 C773 1.310 . S
C772 C775 1.461 . S
C772 H792 0.932 . S
C773 C771 1.408 . S
C773 C772 1.310 . S
C773 H793 0.930 . S
C774 C775 1.474 . S
C774 C776 1.285 . S
C774 H794 0.929 . S
C775 C772 1.461 . S
C775 C774 1.474 . S
C776 C771 1.342 . S
C776 C774 1.285 . S
C776 H795 0.930 . S
C777 C780 1.424 . S
C777 C782 1.245 . S
C777 C783 1.428 . S
C778 C781 1.260 . S
C778 C782 1.477 . S
C778 H796 0.932 . S
C779 C780 1.384 . S
C779 C781 1.479 . S
C779 H797 0.929 . S
C780 C777 1.424 . S
C780 C779 1.384 . S
C780 H798 0.928 . S
C781 C778 1.260 . S
C781 C779 1.479 . S
C782 C777 1.245 . S
C782 C778 1.477 . S
C782 H799 0.932 . S
C783 U766 2.882 . S
C783 C777 1.428 . S
C783 O786 1.301 . S
C783 O787 1.282 . S
O784 U766 2.441 . S
O784 C770 1.249 . S
O785 U766 2.420 . S
O785 C770 1.202 . S
O786 U766 2.455 . S
O786 C783 1.301 . S
O787 U766 2.449 . S
O787 C783 1.282 . S
H788 C761 0.931 . S
H789 C763 0.929 . S
H790 C764 0.930 . S
H791 C765 0.931 . S
H792 C772 0.932 . S
H793 C773 0.930 . S
H794 C774 0.929 . S
H795 C776 0.930 . S
H796 C778 0.932 . S
H797 C779 0.929 . S
H798 C780 0.928 . S
H799 C782 0.932 . S
C800 C801 1.264 . S
C800 C805 1.479 . S
C800 C810 1.465 . S
C801 C800 1.264 . S
C801 C803 1.339 . S
C801 H828 0.931 . S
C802 C803 1.395 . S
C802 C804 1.320 . S
C803 C801 1.339 . S
C803 C802 1.395 . S
C803 H829 0.929 . S
C804 C802 1.320 . S
C804 C805 1.405 . S
C804 H830 0.930 . S
C805 C800 1.479 . S
C805 C804 1.405 . S
C805 H831 0.931 . S
U806 O807 2.454 . S
U806 O808 2.458 . S
U806 C809 2.984 . S
U806 C810 2.847 . S
U806 C823 2.882 . S
U806 O824 2.441 . S
U806 O825 2.420 . S
U806 O826 2.455 . S
U806 O827 2.449 . S
O807 U806 2.454 . S
O807 C809 1.353 . S
O808 U806 2.458 . S
O808 C809 1.286 . S
C809 U806 2.984 . S
C809 O807 1.353 . S
C809 O808 1.286 . S
C809 C811 1.363 . S
C810 C800 1.465 . S
C810 U806 2.847 . S
C810 O824 1.249 . S
C810 O825 1.202 . S
C811 C809 1.363 . S
C811 C813 1.408 . S
C811 C816 1.342 . S
C812 C813 1.310 . S
C812 C815 1.461 . S
C812 H832 0.932 . S
C813 C811 1.408 . S
C813 C812 1.310 . S
C813 H833 0.930 . S
C814 C815 1.474 . S
C814 C816 1.285 . S
C814 H834 0.929 . S
C815 C812 1.461 . S
C815 C814 1.474 . S
C816 C811 1.342 . S
C816 C814 1.285 . S
C816 H835 0.930 . S
C817 C820 1.424 . S
C817 C822 1.245 . S
C817 C823 1.428 . S
C818 C821 1.260 . S
C818 C822 1.477 . S
C818 H836 0.932 . S
C819 C820 1.384 . S
C819 C821 1.479 . S
C819 H837 0.929 . S
C820 C817 1.424 . S
C820 C819 1.384 . S
C820 H838 0.928 . S
C821 C818 1.260 . S
C821 C819 1.479 . S
C822 C817 1.245 . S
C822 C818 1.477 . S
C822 H839 0.932 . S
C823 U806 2.882 . S
C823 C817 1.428 . S
C823 O826 1.301 . S
C823 O827 1.282 . S
O824 U806 2.441 . S
O824 C810 1.249 . S
O825 U806 2.420 . S
O825 C810 1.202 . S
O826 U806 2.455 . S
O826 C823 1.301 . S
O827 U806 2.449 . S
O827 C823 1.282 . S
H828 C801 0.931 . S
H829 C803 0.929 . S
H830 C804 0.930 . S
H831 C805 0.931 . S
H832 C812 0.932 . S
H833 C813 0.930 . S
H834 C814 0.929 . S
H835 C816 0.930 . S
H836 C818 0.932 . S
H837 C819 0.929 . S
H838 C820 0.928 . S
H839 C822 0.932 . S
C840 C841 1.264 . S
C840 C845 1.479 . S
C840 C850 1.465 . S
C841 C840 1.264 . S
C841 C843 1.339 . S
C841 H868 0.931 . S
C842 C843 1.395 . S
C842 C844 1.320 . S
C843 C841 1.339 . S
C843 C842 1.395 . S
C843 H869 0.929 . S
C844 C842 1.320 . S
C844 C845 1.405 . S
C844 H870 0.930 . S
C845 C840 1.479 . S
C845 C844 1.405 . S
C845 H871 0.931 . S
U846 O847 2.454 . S
U846 O848 2.458 . S
U846 C849 2.984 . S
U846 C850 2.847 . S
U846 C863 2.882 . S
U846 O864 2.441 . S
U846 O865 2.420 . S
U846 O866 2.455 . S
U846 O867 2.449 . S
O847 U846 2.454 . S
O847 C849 1.353 . S
O848 U846 2.458 . S
O848 C849 1.286 . S
C849 U846 2.984 . S
C849 O847 1.353 . S
C849 O848 1.286 . S
C849 C851 1.363 . S
C850 C840 1.465 . S
C850 U846 2.847 . S
C850 O864 1.249 . S
C850 O865 1.202 . S
C851 C849 1.363 . S
C851 C853 1.408 . S
C851 C856 1.342 . S
C852 C853 1.310 . S
C852 C855 1.461 . S
C852 H872 0.932 . S
C853 C851 1.408 . S
C853 C852 1.310 . S
C853 H873 0.930 . S
C854 C855 1.474 . S
C854 C856 1.285 . S
C854 H874 0.929 . S
C855 C852 1.461 . S
C855 C854 1.474 . S
C856 C851 1.342 . S
C856 C854 1.285 . S
C856 H875 0.930 . S
C857 C860 1.424 . S
C857 C862 1.245 . S
C857 C863 1.428 . S
C858 C861 1.260 . S
C858 C862 1.477 . S
C858 H876 0.932 . S
C859 C860 1.384 . S
C859 C861 1.479 . S
C859 H877 0.929 . S
C860 C857 1.424 . S
C860 C859 1.384 . S
C860 H878 0.928 . S
C861 C858 1.260 . S
C861 C859 1.479 . S
C862 C857 1.245 . S
C862 C858 1.477 . S
C862 H879 0.932 . S
C863 U846 2.882 . S
C863 C857 1.428 . S
C863 O866 1.301 . S
C863 O867 1.282 . S
O864 U846 2.441 . S
O864 C850 1.249 . S
O865 U846 2.420 . S
O865 C850 1.202 . S
O866 U846 2.455 . S
O866 C863 1.301 . S
O867 U846 2.449 . S
O867 C863 1.282 . S
H868 C841 0.931 . S
H869 C843 0.929 . S
H870 C844 0.930 . S
H871 C845 0.931 . S
H872 C852 0.932 . S
H873 C853 0.930 . S
H874 C854 0.929 . S
H875 C856 0.930 . S
H876 C858 0.932 . S
H877 C859 0.929 . S
H878 C860 0.928 . S
H879 C862 0.932 . S
C880 C881 1.264 . S
C880 C885 1.479 . S
C880 C890 1.465 . S
C881 C880 1.264 . S
C881 C883 1.339 . S
C881 H908 0.931 . S
C882 C883 1.395 . S
C882 C884 1.320 . S
C883 C881 1.339 . S
C883 C882 1.395 . S
C883 H909 0.929 . S
C884 C882 1.320 . S
C884 C885 1.405 . S
C884 H910 0.930 . S
C885 C880 1.479 . S
C885 C884 1.405 . S
C885 H911 0.931 . S
U886 O887 2.454 . S
U886 O888 2.458 . S
U886 C889 2.984 . S
U886 C890 2.847 . S
U886 C903 2.882 . S
U886 O904 2.441 . S
U886 O905 2.420 . S
U886 O906 2.455 . S
U886 O907 2.449 . S
O887 U886 2.454 . S
O887 C889 1.353 . S
O888 U886 2.458 . S
O888 C889 1.286 . S
C889 U886 2.984 . S
C889 O887 1.353 . S
C889 O888 1.286 . S
C889 C891 1.363 . S
C890 C880 1.465 . S
C890 U886 2.847 . S
C890 O904 1.249 . S
C890 O905 1.202 . S
C891 C889 1.363 . S
C891 C893 1.408 . S
C891 C896 1.342 . S
C892 C893 1.310 . S
C892 C895 1.461 . S
C892 H912 0.932 . S
C893 C891 1.408 . S
C893 C892 1.310 . S
C893 H913 0.930 . S
C894 C895 1.474 . S
C894 C896 1.285 . S
C894 H914 0.929 . S
C895 C892 1.461 . S
C895 C894 1.474 . S
C896 C891 1.342 . S
C896 C894 1.285 . S
C896 H915 0.930 . S
C897 C900 1.424 . S
C897 C902 1.245 . S
C897 C903 1.428 . S
C898 C901 1.260 . S
C898 C902 1.477 . S
C898 H916 0.932 . S
C899 C900 1.384 . S
C899 C901 1.479 . S
C899 H917 0.929 . S
C900 C897 1.424 . S
C900 C899 1.384 . S
C900 H918 0.928 . S
C901 C898 1.260 . S
C901 C899 1.479 . S
C902 C897 1.245 . S
C902 C898 1.477 . S
C902 H919 0.932 . S
C903 U886 2.882 . S
C903 C897 1.428 . S
C903 O906 1.301 . S
C903 O907 1.282 . S
O904 U886 2.441 . S
O904 C890 1.249 . S
O905 U886 2.420 . S
O905 C890 1.202 . S
O906 U886 2.455 . S
O906 C903 1.301 . S
O907 U886 2.449 . S
O907 C903 1.282 . S
H908 C881 0.931 . S
H909 C883 0.929 . S
H910 C884 0.930 . S
H911 C885 0.931 . S
H912 C892 0.932 . S
H913 C893 0.930 . S
H914 C894 0.929 . S
H915 C896 0.930 . S
H916 C898 0.932 . S
H917 C899 0.929 . S
H918 C900 0.928 . S
H919 C902 0.932 . S
C920 C921 1.264 . S
C920 C925 1.479 . S
C920 C930 1.465 . S
C921 C920 1.264 . S
C921 C923 1.339 . S
C921 H948 0.931 . S
C922 C923 1.395 . S
C922 C924 1.320 . S
C923 C921 1.339 . S
C923 C922 1.395 . S
C923 H949 0.929 . S
C924 C922 1.320 . S
C924 C925 1.405 . S
C924 H950 0.930 . S
C925 C920 1.479 . S
C925 C924 1.405 . S
C925 H951 0.931 . S
U926 O927 2.454 . S
U926 O928 2.458 . S
U926 C929 2.984 . S
U926 C930 2.847 . S
U926 C943 2.882 . S
U926 O944 2.441 . S
U926 O945 2.420 . S
U926 O946 2.455 . S
U926 O947 2.449 . S
O927 U926 2.454 . S
O927 C929 1.353 . S
O928 U926 2.458 . S
O928 C929 1.286 . S
C929 U926 2.984 . S
C929 O927 1.353 . S
C929 O928 1.286 . S
C929 C931 1.363 . S
C930 C920 1.465 . S
C930 U926 2.847 . S
C930 O944 1.249 . S
C930 O945 1.202 . S
C931 C929 1.363 . S
C931 C933 1.408 . S
C931 C936 1.342 . S
C932 C933 1.310 . S
C932 C935 1.461 . S
C932 H952 0.932 . S
C933 C931 1.408 . S
C933 C932 1.310 . S
C933 H953 0.930 . S
C934 C935 1.474 . S
C934 C936 1.285 . S
C934 H954 0.929 . S
C935 C932 1.461 . S
C935 C934 1.474 . S
C936 C931 1.342 . S
C936 C934 1.285 . S
C936 H955 0.930 . S
C937 C940 1.424 . S
C937 C942 1.245 . S
C937 C943 1.428 . S
C938 C941 1.260 . S
C938 C942 1.477 . S
C938 H956 0.932 . S
C939 C940 1.384 . S
C939 C941 1.479 . S
C939 H957 0.929 . S
C940 C937 1.424 . S
C940 C939 1.384 . S
C940 H958 0.928 . S
C941 C938 1.260 . S
C941 C939 1.479 . S
C942 C937 1.245 . S
C942 C938 1.477 . S
C942 H959 0.932 . S
C943 U926 2.882 . S
C943 C937 1.428 . S
C943 O946 1.301 . S
C943 O947 1.282 . S
O944 U926 2.441 . S
O944 C930 1.249 . S
O945 U926 2.420 . S
O945 C930 1.202 . S
O946 U926 2.455 . S
O946 C943 1.301 . S
O947 U926 2.449 . S
O947 C943 1.282 . S
H948 C921 0.931 . S
H949 C923 0.929 . S
H950 C924 0.930 . S
H951 C925 0.931 . S
H952 C932 0.932 . S
H953 C933 0.930 . S
H954 C934 0.929 . S
H955 C936 0.930 . S
H956 C938 0.932 . S
H957 C939 0.929 . S
H958 C940 0.928 . S
H959 C942 0.932 . S
C960 C961 1.264 . S
C960 C965 1.479 . S
C960 C970 1.465 . S
C961 C960 1.264 . S
C961 C963 1.339 . S
C961 H988 0.931 . S
C962 C963 1.395 . S
C962 C964 1.320 . S
C963 C961 1.339 . S
C963 C962 1.395 . S
C963 H989 0.929 . S
C964 C962 1.320 . S
C964 C965 1.405 . S
C964 H990 0.930 . S
C965 C960 1.479 . S
C965 C964 1.405 . S
C965 H991 0.931 . S
U966 O967 2.454 . S
U966 O968 2.458 . S
U966 C969 2.984 . S
U966 C970 2.847 . S
U966 C983 2.882 . S
U966 O984 2.441 . S
U966 O985 2.420 . S
U966 O986 2.455 . S
U966 O987 2.449 . S
O967 U966 2.454 . S
O967 C969 1.353 . S
O968 U966 2.458 . S
O968 C969 1.286 . S
C969 U966 2.984 . S
C969 O967 1.353 . S
C969 O968 1.286 . S
C969 C971 1.363 . S
C970 C960 1.465 . S
C970 U966 2.847 . S
C970 O984 1.249 . S
C970 O985 1.202 . S
C971 C969 1.363 . S
C971 C973 1.408 . S
C971 C976 1.342 . S
C972 C973 1.310 . S
C972 C975 1.461 . S
C972 H992 0.932 . S
C973 C971 1.408 . S
C973 C972 1.310 . S
C973 H993 0.930 . S
C974 C975 1.474 . S
C974 C976 1.285 . S
C974 H994 0.929 . S
C975 C972 1.461 . S
C975 C974 1.474 . S
C976 C971 1.342 . S
C976 C974 1.285 . S
C976 H995 0.930 . S
C977 C980 1.424 . S
C977 C982 1.245 . S
C977 C983 1.428 . S
C978 C981 1.260 . S
C978 C982 1.477 . S
C978 H996 0.932 . S
C979 C980 1.384 . S
C979 C981 1.479 . S
C979 H997 0.929 . S
C980 C977 1.424 . S
C980 C979 1.384 . S
C980 H998 0.928 . S
C981 C978 1.260 . S
C981 C979 1.479 . S
C982 C977 1.245 . S
C982 C978 1.477 . S
C982 H999 0.932 . S
C983 U966 2.882 . S
C983 C977 1.428 . S
C983 O986 1.301 . S
C983 O987 1.282 . S
O984 U966 2.441 . S
O984 C970 1.249 . S
O985 U966 2.420 . S
O985 C970 1.202 . S
O986 U966 2.455 . S
O986 C983 1.301 . S
O987 U966 2.449 . S
O987 C983 1.282 . S
H988 C961 0.931 . S
H989 C963 0.929 . S
H990 C964 0.930 . S
H991 C965 0.931 . S
H992 C972 0.932 . S
H993 C973 0.930 . S
H994 C974 0.929 . S
H995 C976 0.930 . S
H996 C978 0.932 . S
H997 C979 0.929 . S
H998 C980 0.928 . S
H999 C982 0.932 . S
C1000 C1001 1.264 . S
C1000 C1005 1.479 . S
C1000 C1010 1.465 . S
C1001 C1000 1.264 . S
C1001 C1003 1.339 . S
C1001 H1028 0.931 . S
C1002 C1003 1.395 . S
C1002 C1004 1.320 . S
C1003 C1001 1.339 . S
C1003 C1002 1.395 . S
C1003 H1029 0.929 . S
C1004 C1002 1.320 . S
C1004 C1005 1.405 . S
C1004 H1030 0.930 . S
C1005 C1000 1.479 . S
C1005 C1004 1.405 . S
C1005 H1031 0.931 . S
U1006 O1007 2.454 . S
U1006 O1008 2.458 . S
U1006 C1009 2.984 . S
U1006 C1010 2.847 . S
U1006 C1023 2.882 . S
U1006 O1024 2.441 . S
U1006 O1025 2.420 . S
U1006 O1026 2.455 . S
U1006 O1027 2.449 . S
O1007 U1006 2.454 . S
O1007 C1009 1.353 . S
O1008 U1006 2.458 . S
O1008 C1009 1.286 . S
C1009 U1006 2.984 . S
C1009 O1007 1.353 . S
C1009 O1008 1.286 . S
C1009 C1011 1.363 . S
C1010 C1000 1.465 . S
C1010 U1006 2.847 . S
C1010 O1024 1.249 . S
C1010 O1025 1.202 . S
C1011 C1009 1.363 . S
C1011 C1013 1.408 . S
C1011 C1016 1.342 . S
C1012 C1013 1.310 . S
C1012 C1015 1.461 . S
C1012 H1032 0.932 . S
C1013 C1011 1.408 . S
C1013 C1012 1.310 . S
C1013 H1033 0.930 . S
C1014 C1015 1.474 . S
C1014 C1016 1.285 . S
C1014 H1034 0.929 . S
C1015 C1012 1.461 . S
C1015 C1014 1.474 . S
C1016 C1011 1.342 . S
C1016 C1014 1.285 . S
C1016 H1035 0.930 . S
C1017 C1020 1.424 . S
C1017 C1022 1.245 . S
C1017 C1023 1.428 . S
C1018 C1021 1.260 . S
C1018 C1022 1.477 . S
C1018 H1036 0.932 . S
C1019 C1020 1.384 . S
C1019 C1021 1.479 . S
C1019 H1037 0.929 . S
C1020 C1017 1.424 . S
C1020 C1019 1.384 . S
C1020 H1038 0.928 . S
C1021 C1018 1.260 . S
C1021 C1019 1.479 . S
C1022 C1017 1.245 . S
C1022 C1018 1.477 . S
C1022 H1039 0.932 . S
C1023 U1006 2.882 . S
C1023 C1017 1.428 . S
C1023 O1026 1.301 . S
C1023 O1027 1.282 . S
O1024 U1006 2.441 . S
O1024 C1010 1.249 . S
O1025 U1006 2.420 . S
O1025 C1010 1.202 . S
O1026 U1006 2.455 . S
O1026 C1023 1.301 . S
O1027 U1006 2.449 . S
O1027 C1023 1.282 . S
H1028 C1001 0.931 . S
H1029 C1003 0.929 . S
H1030 C1004 0.930 . S
H1031 C1005 0.931 . S
H1032 C1012 0.932 . S
H1033 C1013 0.930 . S
H1034 C1014 0.929 . S
H1035 C1016 0.930 . S
H1036 C1018 0.932 . S
H1037 C1019 0.929 . S
H1038 C1020 0.928 . S
H1039 C1022 0.932 . S
C1040 C1041 1.264 . S
C1040 C1045 1.479 . S
C1040 C1050 1.465 . S
C1041 C1040 1.264 . S
C1041 C1043 1.339 . S
C1041 H1068 0.931 . S
C1042 C1043 1.395 . S
C1042 C1044 1.320 . S
C1043 C1041 1.339 . S
C1043 C1042 1.395 . S
C1043 H1069 0.929 . S
C1044 C1042 1.320 . S
C1044 C1045 1.405 . S
C1044 H1070 0.930 . S
C1045 C1040 1.479 . S
C1045 C1044 1.405 . S
C1045 H1071 0.931 . S
U1046 O1047 2.454 . S
U1046 O1048 2.458 . S
U1046 C1049 2.984 . S
U1046 C1050 2.847 . S
U1046 C1063 2.882 . S
U1046 O1064 2.441 . S
U1046 O1065 2.420 . S
U1046 O1066 2.455 . S
U1046 O1067 2.449 . S
O1047 U1046 2.454 . S
O1047 C1049 1.353 . S
O1048 U1046 2.458 . S
O1048 C1049 1.286 . S
C1049 U1046 2.984 . S
C1049 O1047 1.353 . S
C1049 O1048 1.286 . S
C1049 C1051 1.363 . S
C1050 C1040 1.465 . S
C1050 U1046 2.847 . S
C1050 O1064 1.249 . S
C1050 O1065 1.202 . S
C1051 C1049 1.363 . S
C1051 C1053 1.408 . S
C1051 C1056 1.342 . S
C1052 C1053 1.310 . S
C1052 C1055 1.461 . S
C1052 H1072 0.932 . S
C1053 C1051 1.408 . S
C1053 C1052 1.310 . S
C1053 H1073 0.930 . S
C1054 C1055 1.474 . S
C1054 C1056 1.285 . S
C1054 H1074 0.929 . S
C1055 C1052 1.461 . S
C1055 C1054 1.474 . S
C1056 C1051 1.342 . S
C1056 C1054 1.285 . S
C1056 H1075 0.930 . S
C1057 C1060 1.424 . S
C1057 C1062 1.245 . S
C1057 C1063 1.428 . S
C1058 C1061 1.260 . S
C1058 C1062 1.477 . S
C1058 H1076 0.932 . S
C1059 C1060 1.384 . S
C1059 C1061 1.479 . S
C1059 H1077 0.929 . S
C1060 C1057 1.424 . S
C1060 C1059 1.384 . S
C1060 H1078 0.928 . S
C1061 C1058 1.260 . S
C1061 C1059 1.479 . S
C1062 C1057 1.245 . S
C1062 C1058 1.477 . S
C1062 H1079 0.932 . S
C1063 U1046 2.882 . S
C1063 C1057 1.428 . S
C1063 O1066 1.301 . S
C1063 O1067 1.282 . S
O1064 U1046 2.441 . S
O1064 C1050 1.249 . S
O1065 U1046 2.420 . S
O1065 C1050 1.202 . S
O1066 U1046 2.455 . S
O1066 C1063 1.301 . S
O1067 U1046 2.449 . S
O1067 C1063 1.282 . S
H1068 C1041 0.931 . S
H1069 C1043 0.929 . S
H1070 C1044 0.930 . S
H1071 C1045 0.931 . S
H1072 C1052 0.932 . S
H1073 C1053 0.930 . S
H1074 C1054 0.929 . S
H1075 C1056 0.930 . S
H1076 C1058 0.932 . S
H1077 C1059 0.929 . S
H1078 C1060 0.928 . S
H1079 C1062 0.932 . S
C1080 C1081 1.264 . S
C1080 C1085 1.479 . S
C1080 C1090 1.465 . S
C1081 C1080 1.264 . S
C1081 C1083 1.339 . S
C1081 H1108 0.931 . S
C1082 C1083 1.395 . S
C1082 C1084 1.320 . S
C1083 C1081 1.339 . S
C1083 C1082 1.395 . S
C1083 H1109 0.929 . S
C1084 C1082 1.320 . S
C1084 C1085 1.405 . S
C1084 H1110 0.930 . S
C1085 C1080 1.479 . S
C1085 C1084 1.405 . S
C1085 H1111 0.931 . S
U1086 O1087 2.454 . S
U1086 O1088 2.458 . S
U1086 C1089 2.984 . S
U1086 C1090 2.847 . S
U1086 C1103 2.882 . S
U1086 O1104 2.441 . S
U1086 O1105 2.420 . S
U1086 O1106 2.455 . S
U1086 O1107 2.449 . S
O1087 U1086 2.454 . S
O1087 C1089 1.353 . S
O1088 U1086 2.458 . S
O1088 C1089 1.286 . S
C1089 U1086 2.984 . S
C1089 O1087 1.353 . S
C1089 O1088 1.286 . S
C1089 C1091 1.363 . S
C1090 C1080 1.465 . S
C1090 U1086 2.847 . S
C1090 O1104 1.249 . S
C1090 O1105 1.202 . S
C1091 C1089 1.363 . S
C1091 C1093 1.408 . S
C1091 C1096 1.342 . S
C1092 C1093 1.310 . S
C1092 C1095 1.461 . S
C1092 H1112 0.932 . S
C1093 C1091 1.408 . S
C1093 C1092 1.310 . S
C1093 H1113 0.930 . S
C1094 C1095 1.474 . S
C1094 C1096 1.285 . S
C1094 H1114 0.929 . S
C1095 C1092 1.461 . S
C1095 C1094 1.474 . S
C1096 C1091 1.342 . S
C1096 C1094 1.285 . S
C1096 H1115 0.930 . S
C1097 C1100 1.424 . S
C1097 C1102 1.245 . S
C1097 C1103 1.428 . S
C1098 C1101 1.260 . S
C1098 C1102 1.477 . S
C1098 H1116 0.932 . S
C1099 C1100 1.384 . S
C1099 C1101 1.479 . S
C1099 H1117 0.929 . S
C1100 C1097 1.424 . S
C1100 C1099 1.384 . S
C1100 H1118 0.928 . S
C1101 C1098 1.260 . S
C1101 C1099 1.479 . S
C1102 C1097 1.245 . S
C1102 C1098 1.477 . S
C1102 H1119 0.932 . S
C1103 U1086 2.882 . S
C1103 C1097 1.428 . S
C1103 O1106 1.301 . S
C1103 O1107 1.282 . S
O1104 U1086 2.441 . S
O1104 C1090 1.249 . S
O1105 U1086 2.420 . S
O1105 C1090 1.202 . S
O1106 U1086 2.455 . S
O1106 C1103 1.301 . S
O1107 U1086 2.449 . S
O1107 C1103 1.282 . S
H1108 C1081 0.931 . S
H1109 C1083 0.929 . S
H1110 C1084 0.930 . S
H1111 C1085 0.931 . S
H1112 C1092 0.932 . S
H1113 C1093 0.930 . S
H1114 C1094 0.929 . S
H1115 C1096 0.930 . S
H1116 C1098 0.932 . S
H1117 C1099 0.929 . S
H1118 C1100 0.928 . S
H1119 C1102 0.932 . S
C1120 C1121 1.264 . S
C1120 C1125 1.479 . S
C1120 C1130 1.465 . S
C1121 C1120 1.264 . S
C1121 C1123 1.339 . S
C1121 H1148 0.931 . S
C1122 C1123 1.395 . S
C1122 C1124 1.320 . S
C1123 C1121 1.339 . S
C1123 C1122 1.395 . S
C1123 H1149 0.929 . S
C1124 C1122 1.320 . S
C1124 C1125 1.405 . S
C1124 H1150 0.930 . S
C1125 C1120 1.479 . S
C1125 C1124 1.405 . S
C1125 H1151 0.931 . S
U1126 O1127 2.454 . S
U1126 O1128 2.458 . S
U1126 C1129 2.984 . S
U1126 C1130 2.847 . S
U1126 C1143 2.882 . S
U1126 O1144 2.441 . S
U1126 O1145 2.420 . S
U1126 O1146 2.455 . S
U1126 O1147 2.449 . S
O1127 U1126 2.454 . S
O1127 C1129 1.353 . S
O1128 U1126 2.458 . S
O1128 C1129 1.286 . S
C1129 U1126 2.984 . S
C1129 O1127 1.353 . S
C1129 O1128 1.286 . S
C1129 C1131 1.363 . S
C1130 C1120 1.465 . S
C1130 U1126 2.847 . S
C1130 O1144 1.249 . S
C1130 O1145 1.202 . S
C1131 C1129 1.363 . S
C1131 C1133 1.408 . S
C1131 C1136 1.342 . S
C1132 C1133 1.310 . S
C1132 C1135 1.461 . S
C1132 H1152 0.932 . S
C1133 C1131 1.408 . S
C1133 C1132 1.310 . S
C1133 H1153 0.930 . S
C1134 C1135 1.474 . S
C1134 C1136 1.285 . S
C1134 H1154 0.929 . S
C1135 C1132 1.461 . S
C1135 C1134 1.474 . S
C1136 C1131 1.342 . S
C1136 C1134 1.285 . S
C1136 H1155 0.930 . S
C1137 C1140 1.424 . S
C1137 C1142 1.245 . S
C1137 C1143 1.428 . S
C1138 C1141 1.260 . S
C1138 C1142 1.477 . S
C1138 H1156 0.932 . S
C1139 C1140 1.384 . S
C1139 C1141 1.479 . S
C1139 H1157 0.929 . S
C1140 C1137 1.424 . S
C1140 C1139 1.384 . S
C1140 H1158 0.928 . S
C1141 C1138 1.260 . S
C1141 C1139 1.479 . S
C1142 C1137 1.245 . S
C1142 C1138 1.477 . S
C1142 H1159 0.932 . S
C1143 U1126 2.882 . S
C1143 C1137 1.428 . S
C1143 O1146 1.301 . S
C1143 O1147 1.282 . S
O1144 U1126 2.441 . S
O1144 C1130 1.249 . S
O1145 U1126 2.420 . S
O1145 C1130 1.202 . S
O1146 U1126 2.455 . S
O1146 C1143 1.301 . S
O1147 U1126 2.449 . S
O1147 C1143 1.282 . S
H1148 C1121 0.931 . S
H1149 C1123 0.929 . S
H1150 C1124 0.930 . S
H1151 C1125 0.931 . S
H1152 C1132 0.932 . S
H1153 C1133 0.930 . S
H1154 C1134 0.929 . S
H1155 C1136 0.930 . S
H1156 C1138 0.932 . S
H1157 C1139 0.929 . S
H1158 C1140 0.928 . S
H1159 C1142 0.932 . S
C1160 C1161 1.264 . S
C1160 C1165 1.479 . S
C1160 C1170 1.465 . S
C1161 C1160 1.264 . S
C1161 C1163 1.339 . S
C1161 H1188 0.931 . S
C1162 C1163 1.395 . S
C1162 C1164 1.320 . S
C1163 C1161 1.339 . S
C1163 C1162 1.395 . S
C1163 H1189 0.929 . S
C1164 C1162 1.320 . S
C1164 C1165 1.405 . S
C1164 H1190 0.930 . S
C1165 C1160 1.479 . S
C1165 C1164 1.405 . S
C1165 H1191 0.931 . S
U1166 O1167 2.454 . S
U1166 O1168 2.458 . S
U1166 C1169 2.984 . S
U1166 C1170 2.847 . S
U1166 C1183 2.882 . S
U1166 O1184 2.441 . S
U1166 O1185 2.420 . S
U1166 O1186 2.455 . S
U1166 O1187 2.449 . S
O1167 U1166 2.454 . S
O1167 C1169 1.353 . S
O1168 U1166 2.458 . S
O1168 C1169 1.286 . S
C1169 U1166 2.984 . S
C1169 O1167 1.353 . S
C1169 O1168 1.286 . S
C1169 C1171 1.363 . S
C1170 C1160 1.465 . S
C1170 U1166 2.847 . S
C1170 O1184 1.249 . S
C1170 O1185 1.202 . S
C1171 C1169 1.363 . S
C1171 C1173 1.408 . S
C1171 C1176 1.342 . S
C1172 C1173 1.310 . S
C1172 C1175 1.461 . S
C1172 H1192 0.932 . S
C1173 C1171 1.408 . S
C1173 C1172 1.310 . S
C1173 H1193 0.930 . S
C1174 C1175 1.474 . S
C1174 C1176 1.285 . S
C1174 H1194 0.929 . S
C1175 C1172 1.461 . S
C1175 C1174 1.474 . S
C1176 C1171 1.342 . S
C1176 C1174 1.285 . S
C1176 H1195 0.930 . S
C1177 C1180 1.424 . S
C1177 C1182 1.245 . S
C1177 C1183 1.428 . S
C1178 C1181 1.260 . S
C1178 C1182 1.477 . S
C1178 H1196 0.932 . S
C1179 C1180 1.384 . S
C1179 C1181 1.479 . S
C1179 H1197 0.929 . S
C1180 C1177 1.424 . S
C1180 C1179 1.384 . S
C1180 H1198 0.928 . S
C1181 C1178 1.260 . S
C1181 C1179 1.479 . S
C1182 C1177 1.245 . S
C1182 C1178 1.477 . S
C1182 H1199 0.932 . S
C1183 U1166 2.882 . S
C1183 C1177 1.428 . S
C1183 O1186 1.301 . S
C1183 O1187 1.282 . S
O1184 U1166 2.441 . S
O1184 C1170 1.249 . S
O1185 U1166 2.420 . S
O1185 C1170 1.202 . S
O1186 U1166 2.455 . S
O1186 C1183 1.301 . S
O1187 U1166 2.449 . S
O1187 C1183 1.282 . S
H1188 C1161 0.931 . S
H1189 C1163 0.929 . S
H1190 C1164 0.930 . S
H1191 C1165 0.931 . S
H1192 C1172 0.932 . S
H1193 C1173 0.930 . S
H1194 C1174 0.929 . S
H1195 C1176 0.930 . S
H1196 C1178 0.932 . S
H1197 C1179 0.929 . S
H1198 C1180 0.928 . S
H1199 C1182 0.932 . S
C1200 C1201 1.264 . S
C1200 C1205 1.479 . S
C1200 C1210 1.465 . S
C1201 C1200 1.264 . S
C1201 C1203 1.339 . S
C1201 H1228 0.931 . S
C1202 C1203 1.395 . S
C1202 C1204 1.320 . S
C1203 C1201 1.339 . S
C1203 C1202 1.395 . S
C1203 H1229 0.929 . S
C1204 C1202 1.320 . S
C1204 C1205 1.405 . S
C1204 H1230 0.930 . S
C1205 C1200 1.479 . S
C1205 C1204 1.405 . S
C1205 H1231 0.931 . S
U1206 O1207 2.454 . S
U1206 O1208 2.458 . S
U1206 C1209 2.984 . S
U1206 C1210 2.847 . S
U1206 C1223 2.882 . S
U1206 O1224 2.441 . S
U1206 O1225 2.420 . S
U1206 O1226 2.455 . S
U1206 O1227 2.449 . S
O1207 U1206 2.454 . S
O1207 C1209 1.353 . S
O1208 U1206 2.458 . S
O1208 C1209 1.286 . S
C1209 U1206 2.984 . S
C1209 O1207 1.353 . S
C1209 O1208 1.286 . S
C1209 C1211 1.363 . S
C1210 C1200 1.465 . S
C1210 U1206 2.847 . S
C1210 O1224 1.249 . S
C1210 O1225 1.202 . S
C1211 C1209 1.363 . S
C1211 C1213 1.408 . S
C1211 C1216 1.342 . S
C1212 C1213 1.310 . S
C1212 C1215 1.461 . S
C1212 H1232 0.932 . S
C1213 C1211 1.408 . S
C1213 C1212 1.310 . S
C1213 H1233 0.930 . S
C1214 C1215 1.474 . S
C1214 C1216 1.285 . S
C1214 H1234 0.929 . S
C1215 C1212 1.461 . S
C1215 C1214 1.474 . S
C1216 C1211 1.342 . S
C1216 C1214 1.285 . S
C1216 H1235 0.930 . S
C1217 C1220 1.424 . S
C1217 C1222 1.245 . S
C1217 C1223 1.428 . S
C1218 C1221 1.260 . S
C1218 C1222 1.477 . S
C1218 H1236 0.932 . S
C1219 C1220 1.384 . S
C1219 C1221 1.479 . S
C1219 H1237 0.929 . S
C1220 C1217 1.424 . S
C1220 C1219 1.384 . S
C1220 H1238 0.928 . S
C1221 C1218 1.260 . S
C1221 C1219 1.479 . S
C1222 C1217 1.245 . S
C1222 C1218 1.477 . S
C1222 H1239 0.932 . S
C1223 U1206 2.882 . S
C1223 C1217 1.428 . S
C1223 O1226 1.301 . S
C1223 O1227 1.282 . S
O1224 U1206 2.441 . S
O1224 C1210 1.249 . S
O1225 U1206 2.420 . S
O1225 C1210 1.202 . S
O1226 U1206 2.455 . S
O1226 C1223 1.301 . S
O1227 U1206 2.449 . S
O1227 C1223 1.282 . S
H1228 C1201 0.931 . S
H1229 C1203 0.929 . S
H1230 C1204 0.930 . S
H1231 C1205 0.931 . S
H1232 C1212 0.932 . S
H1233 C1213 0.930 . S
H1234 C1214 0.929 . S
H1235 C1216 0.930 . S
H1236 C1218 0.932 . S
H1237 C1219 0.929 . S
H1238 C1220 0.928 . S
H1239 C1222 0.932 . S
C1240 C1241 1.264 . S
C1240 C1245 1.479 . S
C1240 C1250 1.465 . S
C1241 C1240 1.264 . S
C1241 C1243 1.339 . S
C1241 H1268 0.931 . S
C1242 C1243 1.395 . S
C1242 C1244 1.320 . S
C1243 C1241 1.339 . S
C1243 C1242 1.395 . S
C1243 H1269 0.929 . S
C1244 C1242 1.320 . S
C1244 C1245 1.405 . S
C1244 H1270 0.930 . S
C1245 C1240 1.479 . S
C1245 C1244 1.405 . S
C1245 H1271 0.931 . S
U1246 O1247 2.454 . S
U1246 O1248 2.458 . S
U1246 C1249 2.984 . S
U1246 C1250 2.847 . S
U1246 C1263 2.882 . S
U1246 O1264 2.441 . S
U1246 O1265 2.420 . S
U1246 O1266 2.455 . S
U1246 O1267 2.449 . S
O1247 U1246 2.454 . S
O1247 C1249 1.353 . S
O1248 U1246 2.458 . S
O1248 C1249 1.286 . S
C1249 U1246 2.984 . S
C1249 O1247 1.353 . S
C1249 O1248 1.286 . S
C1249 C1251 1.363 . S
C1250 C1240 1.465 . S
C1250 U1246 2.847 . S
C1250 O1264 1.249 . S
C1250 O1265 1.202 . S
C1251 C1249 1.363 . S
C1251 C1253 1.408 . S
C1251 C1256 1.342 . S
C1252 C1253 1.310 . S
C1252 C1255 1.461 . S
C1252 H1272 0.932 . S
C1253 C1251 1.408 . S
C1253 C1252 1.310 . S
C1253 H1273 0.930 . S
C1254 C1255 1.474 . S
C1254 C1256 1.285 . S
C1254 H1274 0.929 . S
C1255 C1252 1.461 . S
C1255 C1254 1.474 . S
C1256 C1251 1.342 . S
C1256 C1254 1.285 . S
C1256 H1275 0.930 . S
C1257 C1260 1.424 . S
C1257 C1262 1.245 . S
C1257 C1263 1.428 . S
C1258 C1261 1.260 . S
C1258 C1262 1.477 . S
C1258 H1276 0.932 . S
C1259 C1260 1.384 . S
C1259 C1261 1.479 . S
C1259 H1277 0.929 . S
C1260 C1257 1.424 . S
C1260 C1259 1.384 . S
C1260 H1278 0.928 . S
C1261 C1258 1.260 . S
C1261 C1259 1.479 . S
C1262 C1257 1.245 . S
C1262 C1258 1.477 . S
C1262 H1279 0.932 . S
C1263 U1246 2.882 . S
C1263 C1257 1.428 . S
C1263 O1266 1.301 . S
C1263 O1267 1.282 . S
O1264 U1246 2.441 . S
O1264 C1250 1.249 . S
O1265 U1246 2.420 . S
O1265 C1250 1.202 . S
O1266 U1246 2.455 . S
O1266 C1263 1.301 . S
O1267 U1246 2.449 . S
O1267 C1263 1.282 . S
H1268 C1241 0.931 . S
H1269 C1243 0.929 . S
H1270 C1244 0.930 . S
H1271 C1245 0.931 . S
H1272 C1252 0.932 . S
H1273 C1253 0.930 . S
H1274 C1254 0.929 . S
H1275 C1256 0.930 . S
H1276 C1258 0.932 . S
H1277 C1259 0.929 . S
H1278 C1260 0.928 . S
H1279 C1262 0.932 . S
C1280 C1281 1.384 . S
C1280 C1282 1.384 . S
C1280 H1308 0.931 . S
C1281 C1280 1.384 . S
C1281 C1284 1.382 . S
C1282 C1280 1.384 . S
C1282 C1283 1.381 . S
C1282 H1309 0.930 . S
C1283 C1282 1.381 . S
C1283 C1285 1.381 . S
C1283 C1286 1.487 . S
C1284 C1281 1.382 . S
C1284 C1285 1.387 . S
C1284 H1310 0.930 . S
C1285 C1283 1.381 . S
C1285 C1284 1.387 . S
C1285 H1311 0.931 . S
C1286 C1283 1.487 . S
C1286 C1293 1.399 . S
C1286 N1324 1.343 . S
C1287 C1288 1.384 . S
C1287 C1289 1.384 . S
C1287 H1312 0.931 . S
C1288 C1287 1.384 . S
C1288 C1291 1.382 . S
C1289 C1287 1.384 . S
C1289 C1290 1.381 . S
C1289 H1313 0.930 . S
C1290 C1289 1.381 . S
C1290 C1292 1.381 . S
C1290 C1293 1.487 . S
C1291 C1288 1.382 . S
C1291 C1292 1.387 . S
C1291 H1314 0.930 . S
C1292 C1290 1.381 . S
C1292 C1291 1.387 . S
C1292 H1315 0.931 . S
C1293 C1286 1.399 . S
C1293 C1290 1.487 . S
C1293 N1325 1.343 . S
C1294 C1295 1.384 . S
C1294 C1296 1.384 . S
C1294 H1316 0.931 . S
C1295 C1294 1.384 . S
C1295 C1298 1.382 . S
C1296 C1294 1.384 . S
C1296 C1297 1.381 . S
C1296 H1317 0.930 . S
C1297 C1296 1.381 . S
C1297 C1299 1.381 . S
C1297 C1300 1.487 . S
C1298 C1295 1.382 . S
C1298 C1299 1.387 . S
C1298 H1318 0.930 . S
C1299 C1297 1.381 . S
C1299 C1298 1.387 . S
C1299 H1319 0.931 . S
C1300 C1297 1.487 . S
C1300 C1307 1.399 . S
C1300 N1325 1.343 1_556 S
C1301 C1302 1.384 . S
C1301 C1303 1.384 . S
C1301 H1320 0.931 . S
C1302 C1301 1.384 . S
C1302 C1305 1.382 . S
C1303 C1301 1.384 . S
C1303 C1304 1.381 . S
C1303 H1321 0.930 . S
C1304 C1303 1.381 . S
C1304 C1306 1.381 . S
C1304 C1307 1.487 . S
C1305 C1302 1.382 . S
C1305 C1306 1.387 . S
C1305 H1322 0.930 . S
C1306 C1304 1.381 . S
C1306 C1305 1.387 . S
C1306 H1323 0.931 . S
C1307 C1300 1.399 . S
C1307 C1304 1.487 . S
C1307 N1324 1.343 1_556 S
H1308 C1280 0.931 . S
H1309 C1282 0.930 . S
H1310 C1284 0.930 . S
H1311 C1285 0.931 . S
H1312 C1287 0.931 . S
H1313 C1289 0.930 . S
H1314 C1291 0.930 . S
H1315 C1292 0.931 . S
H1316 C1294 0.931 . S
H1317 C1296 0.930 . S
H1318 C1298 0.930 . S
H1319 C1299 0.931 . S
H1320 C1301 0.931 . S
H1321 C1303 0.930 . S
H1322 C1305 0.930 . S
H1323 C1306 0.931 . S
N1324 C1286 1.343 . S
N1324 C1307 1.343 1_554 S
N1325 C1293 1.343 . S
N1325 C1300 1.343 1_554 S
C1326 C1327 1.384 . S
C1326 C1328 1.384 . S
C1326 H1354 0.931 . S
C1327 C1326 1.384 . S
C1327 C1330 1.382 . S
C1328 C1326 1.384 . S
C1328 C1329 1.381 . S
C1328 H1355 0.930 . S
C1329 C1328 1.381 . S
C1329 C1331 1.381 . S
C1329 C1332 1.487 . S
C1330 C1327 1.382 . S
C1330 C1331 1.387 . S
C1330 H1356 0.930 . S
C1331 C1329 1.381 . S
C1331 C1330 1.387 . S
C1331 H1357 0.931 . S
C1332 C1329 1.487 . S
C1332 C1339 1.399 . S
C1332 N1370 1.343 1_556 S
C1333 C1334 1.384 . S
C1333 C1335 1.384 . S
C1333 H1358 0.931 . S
C1334 C1333 1.384 . S
C1334 C1337 1.382 . S
C1335 C1333 1.384 . S
C1335 C1336 1.381 . S
C1335 H1359 0.930 . S
C1336 C1335 1.381 . S
C1336 C1338 1.381 . S
C1336 C1339 1.487 . S
C1337 C1334 1.382 . S
C1337 C1338 1.387 . S
C1337 H1360 0.930 . S
C1338 C1336 1.381 . S
C1338 C1337 1.387 . S
C1338 H1361 0.931 . S
C1339 C1332 1.399 . S
C1339 C1336 1.487 . S
C1339 N1371 1.343 1_556 S
C1340 C1341 1.384 . S
C1340 C1342 1.384 . S
C1340 H1362 0.931 . S
C1341 C1340 1.384 . S
C1341 C1344 1.382 . S
C1342 C1340 1.384 . S
C1342 C1343 1.381 . S
C1342 H1363 0.930 . S
C1343 C1342 1.381 . S
C1343 C1345 1.381 . S
C1343 C1346 1.487 . S
C1344 C1341 1.382 . S
C1344 C1345 1.387 . S
C1344 H1364 0.930 . S
C1345 C1343 1.381 . S
C1345 C1344 1.387 . S
C1345 H1365 0.931 . S
C1346 C1343 1.487 . S
C1346 C1353 1.399 . S
C1346 N1371 1.343 . S
C1347 C1348 1.384 . S
C1347 C1349 1.384 . S
C1347 H1366 0.931 . S
C1348 C1347 1.384 . S
C1348 C1351 1.382 . S
C1349 C1347 1.384 . S
C1349 C1350 1.381 . S
C1349 H1367 0.930 . S
C1350 C1349 1.381 . S
C1350 C1352 1.381 . S
C1350 C1353 1.487 . S
C1351 C1348 1.382 . S
C1351 C1352 1.387 . S
C1351 H1368 0.930 . S
C1352 C1350 1.381 . S
C1352 C1351 1.387 . S
C1352 H1369 0.931 . S
C1353 C1346 1.399 . S
C1353 C1350 1.487 . S
C1353 N1370 1.343 . S
H1354 C1326 0.931 . S
H1355 C1328 0.930 . S
H1356 C1330 0.930 . S
H1357 C1331 0.931 . S
H1358 C1333 0.931 . S
H1359 C1335 0.930 . S
H1360 C1337 0.930 . S
H1361 C1338 0.931 . S
H1362 C1340 0.931 . S
H1363 C1342 0.930 . S
H1364 C1344 0.930 . S
H1365 C1345 0.931 . S
H1366 C1347 0.931 . S
H1367 C1349 0.930 . S
H1368 C1351 0.930 . S
H1369 C1352 0.931 . S
N1370 C1332 1.343 1_554 S
N1370 C1353 1.343 . S
N1371 C1339 1.343 1_554 S
N1371 C1346 1.343 . S
C1372 C1373 1.384 . S
C1372 C1374 1.384 . S
C1372 H1400 0.931 . S
C1373 C1372 1.384 . S
C1373 C1376 1.382 . S
C1374 C1372 1.384 . S
C1374 C1375 1.381 . S
C1374 H1401 0.930 . S
C1375 C1374 1.381 . S
C1375 C1377 1.381 . S
C1375 C1378 1.487 . S
C1376 C1373 1.382 . S
C1376 C1377 1.387 . S
C1376 H1402 0.930 . S
C1377 C1375 1.381 . S
C1377 C1376 1.387 . S
C1377 H1403 0.931 . S
C1378 C1375 1.487 . S
C1378 C1385 1.399 . S
C1378 N1416 1.343 . S
C1379 C1380 1.384 . S
C1379 C1381 1.384 . S
C1379 H1404 0.931 . S
C1380 C1379 1.384 . S
C1380 C1383 1.382 . S
C1381 C1379 1.384 . S
C1381 C1382 1.381 . S
C1381 H1405 0.930 . S
C1382 C1381 1.381 . S
C1382 C1384 1.381 . S
C1382 C1385 1.487 . S
C1383 C1380 1.382 . S
C1383 C1384 1.387 . S
C1383 H1406 0.930 . S
C1384 C1382 1.381 . S
C1384 C1383 1.387 . S
C1384 H1407 0.931 . S
C1385 C1378 1.399 . S
C1385 C1382 1.487 . S
C1385 N1417 1.343 . S
C1386 C1387 1.384 . S
C1386 C1388 1.384 . S
C1386 H1408 0.931 . S
C1387 C1386 1.384 . S
C1387 C1390 1.382 . S
C1388 C1386 1.384 . S
C1388 C1389 1.381 . S
C1388 H1409 0.930 . S
C1389 C1388 1.381 . S
C1389 C1391 1.381 . S
C1389 C1392 1.487 . S
C1390 C1387 1.382 . S
C1390 C1391 1.387 . S
C1390 H1410 0.930 . S
C1391 C1389 1.381 . S
C1391 C1390 1.387 . S
C1391 H1411 0.931 . S
C1392 C1389 1.487 . S
C1392 C1399 1.399 . S
C1392 N1417 1.343 1_556 S
C1393 C1394 1.384 . S
C1393 C1395 1.384 . S
C1393 H1412 0.931 . S
C1394 C1393 1.384 . S
C1394 C1397 1.382 . S
C1395 C1393 1.384 . S
C1395 C1396 1.381 . S
C1395 H1413 0.930 . S
C1396 C1395 1.381 . S
C1396 C1398 1.381 . S
C1396 C1399 1.487 . S
C1397 C1394 1.382 . S
C1397 C1398 1.387 . S
C1397 H1414 0.930 . S
C1398 C1396 1.381 . S
C1398 C1397 1.387 . S
C1398 H1415 0.931 . S
C1399 C1392 1.399 . S
C1399 C1396 1.487 . S
C1399 N1416 1.343 1_556 S
H1400 C1372 0.931 . S
H1401 C1374 0.930 . S
H1402 C1376 0.930 . S
H1403 C1377 0.931 . S
H1404 C1379 0.931 . S
H1405 C1381 0.930 . S
H1406 C1383 0.930 . S
H1407 C1384 0.931 . S
H1408 C1386 0.931 . S
H1409 C1388 0.930 . S
H1410 C1390 0.930 . S
H1411 C1391 0.931 . S
H1412 C1393 0.931 . S
H1413 C1395 0.930 . S
H1414 C1397 0.930 . S
H1415 C1398 0.931 . S
N1416 C1378 1.343 . S
N1416 C1399 1.343 1_554 S
N1417 C1385 1.343 . S
N1417 C1392 1.343 1_554 S
C1418 C1419 1.384 . S
C1418 C1420 1.384 . S
C1418 H1446 0.931 . S
C1419 C1418 1.384 . S
C1419 C1422 1.382 . S
C1420 C1418 1.384 . S
C1420 C1421 1.381 . S
C1420 H1447 0.930 . S
C1421 C1420 1.381 . S
C1421 C1423 1.381 . S
C1421 C1424 1.487 . S
C1422 C1419 1.382 . S
C1422 C1423 1.387 . S
C1422 H1448 0.930 . S
C1423 C1421 1.381 . S
C1423 C1422 1.387 . S
C1423 H1449 0.931 . S
C1424 C1421 1.487 . S
C1424 C1431 1.399 . S
C1424 N1462 1.343 1_556 S
C1425 C1426 1.384 . S
C1425 C1427 1.384 . S
C1425 H1450 0.931 . S
C1426 C1425 1.384 . S
C1426 C1429 1.382 . S
C1427 C1425 1.384 . S
C1427 C1428 1.381 . S
C1427 H1451 0.930 . S
C1428 C1427 1.381 . S
C1428 C1430 1.381 . S
C1428 C1431 1.487 . S
C1429 C1426 1.382 . S
C1429 C1430 1.387 . S
C1429 H1452 0.930 . S
C1430 C1428 1.381 . S
C1430 C1429 1.387 . S
C1430 H1453 0.931 . S
C1431 C1424 1.399 . S
C1431 C1428 1.487 . S
C1431 N1463 1.343 1_556 S
C1432 C1433 1.384 . S
C1432 C1434 1.384 . S
C1432 H1454 0.931 . S
C1433 C1432 1.384 . S
C1433 C1436 1.382 . S
C1434 C1432 1.384 . S
C1434 C1435 1.381 . S
C1434 H1455 0.930 . S
C1435 C1434 1.381 . S
C1435 C1437 1.381 . S
C1435 C1438 1.487 . S
C1436 C1433 1.382 . S
C1436 C1437 1.387 . S
C1436 H1456 0.930 . S
C1437 C1435 1.381 . S
C1437 C1436 1.387 . S
C1437 H1457 0.931 . S
C1438 C1435 1.487 . S
C1438 C1445 1.399 . S
C1438 N1463 1.343 . S
C1439 C1440 1.384 . S
C1439 C1441 1.384 . S
C1439 H1458 0.931 . S
C1440 C1439 1.384 . S
C1440 C1443 1.382 . S
C1441 C1439 1.384 . S
C1441 C1442 1.381 . S
C1441 H1459 0.930 . S
C1442 C1441 1.381 . S
C1442 C1444 1.381 . S
C1442 C1445 1.487 . S
C1443 C1440 1.382 . S
C1443 C1444 1.387 . S
C1443 H1460 0.930 . S
C1444 C1442 1.381 . S
C1444 C1443 1.387 . S
C1444 H1461 0.931 . S
C1445 C1438 1.399 . S
C1445 C1442 1.487 . S
C1445 N1462 1.343 . S
H1446 C1418 0.931 . S
H1447 C1420 0.930 . S
H1448 C1422 0.930 . S
H1449 C1423 0.931 . S
H1450 C1425 0.931 . S
H1451 C1427 0.930 . S
H1452 C1429 0.930 . S
H1453 C1430 0.931 . S
H1454 C1432 0.931 . S
H1455 C1434 0.930 . S
H1456 C1436 0.930 . S
H1457 C1437 0.931 . S
H1458 C1439 0.931 . S
H1459 C1441 0.930 . S
H1460 C1443 0.930 . S
H1461 C1444 0.931 . S
N1462 C1424 1.343 1_554 S
N1462 C1445 1.343 . S
N1463 C1431 1.343 1_554 S
N1463 C1438 1.343 . S
C1464 C1465 1.384 . S
C1464 C1466 1.384 . S
C1464 H1492 0.931 . S
C1465 C1464 1.384 . S
C1465 C1468 1.382 . S
C1466 C1464 1.384 . S
C1466 C1467 1.381 . S
C1466 H1493 0.930 . S
C1467 C1466 1.381 . S
C1467 C1469 1.381 . S
C1467 C1470 1.487 . S
C1468 C1465 1.382 . S
C1468 C1469 1.387 . S
C1468 H1494 0.930 . S
C1469 C1467 1.381 . S
C1469 C1468 1.387 . S
C1469 H1495 0.931 . S
C1470 C1467 1.487 . S
C1470 C1477 1.399 . S
C1470 N1508 1.343 1_655 S
C1471 C1472 1.384 . S
C1471 C1473 1.384 . S
C1471 H1496 0.931 . S
C1472 C1471 1.384 . S
C1472 C1475 1.382 . S
C1473 C1471 1.384 . S
C1473 C1474 1.381 . S
C1473 H1497 0.930 . S
C1474 C1473 1.381 . S
C1474 C1476 1.381 . S
C1474 C1477 1.487 . S
C1475 C1472 1.382 . S
C1475 C1476 1.387 . S
C1475 H1498 0.930 . S
C1476 C1474 1.381 . S
C1476 C1475 1.387 . S
C1476 H1499 0.931 . S
C1477 C1470 1.399 . S
C1477 C1474 1.487 . S
C1477 N1509 1.343 1_655 S
C1478 C1479 1.384 . S
C1478 C1480 1.384 . S
C1478 H1500 0.931 . S
C1479 C1478 1.384 . S
C1479 C1482 1.382 . S
C1480 C1478 1.384 . S
C1480 C1481 1.381 . S
C1480 H1501 0.930 . S
C1481 C1480 1.381 . S
C1481 C1483 1.381 . S
C1481 C1484 1.487 . S
C1482 C1479 1.382 . S
C1482 C1483 1.387 . S
C1482 H1502 0.930 . S
C1483 C1481 1.381 . S
C1483 C1482 1.387 . S
C1483 H1503 0.931 . S
C1484 C1481 1.487 . S
C1484 C1491 1.399 . S
C1484 N1509 1.343 . S
C1485 C1486 1.384 . S
C1485 C1487 1.384 . S
C1485 H1504 0.931 . S
C1486 C1485 1.384 . S
C1486 C1489 1.382 . S
C1487 C1485 1.384 . S
C1487 C1488 1.381 . S
C1487 H1505 0.930 . S
C1488 C1487 1.381 . S
C1488 C1490 1.381 . S
C1488 C1491 1.487 . S
C1489 C1486 1.382 . S
C1489 C1490 1.387 . S
C1489 H1506 0.930 . S
C1490 C1488 1.381 . S
C1490 C1489 1.387 . S
C1490 H1507 0.931 . S
C1491 C1484 1.399 . S
C1491 C1488 1.487 . S
C1491 N1508 1.343 . S
H1492 C1464 0.931 . S
H1493 C1466 0.930 . S
H1494 C1468 0.930 . S
H1495 C1469 0.931 . S
H1496 C1471 0.931 . S
H1497 C1473 0.930 . S
H1498 C1475 0.930 . S
H1499 C1476 0.931 . S
H1500 C1478 0.931 . S
H1501 C1480 0.930 . S
H1502 C1482 0.930 . S
H1503 C1483 0.931 . S
H1504 C1485 0.931 . S
H1505 C1487 0.930 . S
H1506 C1489 0.930 . S
H1507 C1490 0.931 . S
N1508 C1470 1.343 1_455 S
N1508 C1491 1.343 . S
N1509 C1477 1.343 1_455 S
N1509 C1484 1.343 . S
C1510 C1511 1.384 . S
C1510 C1512 1.384 . S
C1510 H1538 0.931 . S
C1511 C1510 1.384 . S
C1511 C1514 1.382 . S
C1512 C1510 1.384 . S
C1512 C1513 1.381 . S
C1512 H1539 0.930 . S
C1513 C1512 1.381 . S
C1513 C1515 1.381 . S
C1513 C1516 1.487 . S
C1514 C1511 1.382 . S
C1514 C1515 1.387 . S
C1514 H1540 0.930 . S
C1515 C1513 1.381 . S
C1515 C1514 1.387 . S
C1515 H1541 0.931 . S
C1516 C1513 1.487 . S
C1516 C1523 1.399 . S
C1516 N1554 1.283 1_565 S
C1517 C1518 1.384 . S
C1517 C1519 1.384 . S
C1517 H1542 0.931 . S
C1518 C1517 1.384 . S
C1518 C1521 1.382 . S
C1519 C1517 1.384 . S
C1519 C1520 1.381 . S
C1519 H1543 0.930 . S
C1520 C1519 1.381 . S
C1520 C1522 1.381 . S
C1520 C1523 1.487 . S
C1521 C1518 1.382 . S
C1521 C1522 1.387 . S
C1521 H1544 0.930 . S
C1522 C1520 1.381 . S
C1522 C1521 1.387 . S
C1522 H1545 0.931 . S
C1523 C1516 1.399 . S
C1523 C1520 1.487 . S
C1523 N1555 1.343 1_565 S
C1524 C1525 1.384 . S
C1524 C1526 1.384 . S
C1524 H1546 0.931 . S
C1525 C1524 1.384 . S
C1525 C1528 1.382 . S
C1526 C1524 1.384 . S
C1526 C1527 1.381 . S
C1526 H1547 0.930 . S
C1527 C1526 1.381 . S
C1527 C1529 1.381 . S
C1527 C1530 1.487 . S
C1528 C1525 1.382 . S
C1528 C1529 1.387 . S
C1528 H1548 0.930 . S
C1529 C1527 1.381 . S
C1529 C1528 1.387 . S
C1529 H1549 0.931 . S
C1530 C1527 1.487 . S
C1530 C1537 1.399 . S
C1530 N1555 1.343 . S
C1531 C1532 1.384 . S
C1531 C1533 1.384 . S
C1531 H1550 0.931 . S
C1532 C1531 1.384 . S
C1532 C1535 1.382 . S
C1533 C1531 1.384 . S
C1533 C1534 1.381 . S
C1533 H1551 0.930 . S
C1534 C1533 1.381 . S
C1534 C1536 1.381 . S
C1534 C1537 1.487 . S
C1535 C1532 1.382 . S
C1535 C1536 1.387 . S
C1535 H1552 0.930 . S
C1536 C1534 1.381 . S
C1536 C1535 1.387 . S
C1536 H1553 0.931 . S
C1537 C1530 1.399 . S
C1537 C1534 1.487 . S
C1537 N1554 1.404 . S
H1538 C1510 0.931 . S
H1539 C1512 0.930 . S
H1540 C1514 0.930 . S
H1541 C1515 0.931 . S
H1542 C1517 0.931 . S
H1543 C1519 0.930 . S
H1544 C1521 0.930 . S
H1545 C1522 0.931 . S
H1546 C1524 0.931 . S
H1547 C1526 0.930 . S
H1548 C1528 0.930 . S
H1549 C1529 0.931 . S
H1550 C1531 0.931 . S
H1551 C1533 0.930 . S
H1552 C1535 0.930 . S
H1553 C1536 0.931 . S
N1554 C1516 1.283 1_545 S
N1554 C1537 1.404 . S
N1555 C1523 1.343 1_545 S
N1555 C1530 1.343 . S
C1556 C1557 1.384 . S
C1556 C1558 1.384 . S
C1556 H1584 0.931 . S
C1557 C1556 1.384 . S
C1557 C1560 1.382 . S
C1558 C1556 1.384 . S
C1558 C1559 1.381 . S
C1558 H1585 0.930 . S
C1559 C1558 1.381 . S
C1559 C1561 1.381 . S
C1559 C1562 1.487 . S
C1560 C1557 1.382 . S
C1560 C1561 1.387 . S
C1560 H1586 0.930 . S
C1561 C1559 1.381 . S
C1561 C1560 1.387 . S
C1561 H1587 0.931 . S
C1562 C1559 1.487 . S
C1562 C1569 1.399 . S
C1562 N1600 1.343 . S
C1563 C1564 1.384 . S
C1563 C1565 1.384 . S
C1563 H1588 0.931 . S
C1564 C1563 1.384 . S
C1564 C1567 1.382 . S
C1565 C1563 1.384 . S
C1565 C1566 1.381 . S
C1565 H1589 0.930 . S
C1566 C1565 1.381 . S
C1566 C1568 1.381 . S
C1566 C1569 1.487 . S
C1567 C1564 1.382 . S
C1567 C1568 1.387 . S
C1567 H1590 0.930 . S
C1568 C1566 1.381 . S
C1568 C1567 1.387 . S
C1568 H1591 0.931 . S
C1569 C1562 1.399 . S
C1569 C1566 1.487 . S
C1569 N1601 1.425 . S
C1570 C1571 1.384 . S
C1570 C1572 1.384 . S
C1570 H1592 0.931 . S
C1571 C1570 1.384 . S
C1571 C1574 1.382 . S
C1572 C1570 1.384 . S
C1572 C1573 1.381 . S
C1572 H1593 0.930 . S
C1573 C1572 1.381 . S
C1573 C1575 1.381 . S
C1573 C1576 1.487 . S
C1574 C1571 1.382 . S
C1574 C1575 1.387 . S
C1574 H1594 0.930 . S
C1575 C1573 1.381 . S
C1575 C1574 1.387 . S
C1575 H1595 0.931 . S
C1576 C1573 1.487 . S
C1576 C1583 1.399 . S
C1576 N1601 1.263 1_655 S
C1577 C1578 1.384 . S
C1577 C1579 1.384 . S
C1577 H1596 0.931 . S
C1578 C1577 1.384 . S
C1578 C1581 1.382 . S
C1579 C1577 1.384 . S
C1579 C1580 1.381 . S
C1579 H1597 0.930 . S
C1580 C1579 1.381 . S
C1580 C1582 1.381 . S
C1580 C1583 1.487 . S
C1581 C1578 1.382 . S
C1581 C1582 1.387 . S
C1581 H1598 0.930 . S
C1582 C1580 1.381 . S
C1582 C1581 1.387 . S
C1582 H1599 0.931 . S
C1583 C1576 1.399 . S
C1583 C1580 1.487 . S
C1583 N1600 1.343 1_655 S
H1584 C1556 0.931 . S
H1585 C1558 0.930 . S
H1586 C1560 0.930 . S
H1587 C1561 0.931 . S
H1588 C1563 0.931 . S
H1589 C1565 0.930 . S
H1590 C1567 0.930 . S
H1591 C1568 0.931 . S
H1592 C1570 0.931 . S
H1593 C1572 0.930 . S
H1594 C1574 0.930 . S
H1595 C1575 0.931 . S
H1596 C1577 0.931 . S
H1597 C1579 0.930 . S
H1598 C1581 0.930 . S
H1599 C1582 0.931 . S
N1600 C1562 1.343 . S
N1600 C1583 1.343 1_455 S
N1601 C1569 1.425 . S
N1601 C1576 1.263 1_455 S
C1602 C1603 1.384 . S
C1602 C1604 1.384 . S
C1602 H1630 0.931 . S
C1603 C1602 1.384 . S
C1603 C1606 1.382 . S
C1604 C1602 1.384 . S
C1604 C1605 1.381 . S
C1604 H1631 0.930 . S
C1605 C1604 1.381 . S
C1605 C1607 1.381 . S
C1605 C1608 1.487 . S
C1606 C1603 1.382 . S
C1606 C1607 1.387 . S
C1606 H1632 0.930 . S
C1607 C1605 1.381 . S
C1607 C1606 1.387 . S
C1607 H1633 0.931 . S
C1608 C1605 1.487 . S
C1608 C1615 1.399 . S
C1608 N1646 1.343 1_565 S
C1609 C1610 1.384 . S
C1609 C1611 1.384 . S
C1609 H1634 0.931 . S
C1610 C1609 1.384 . S
C1610 C1613 1.382 . S
C1611 C1609 1.384 . S
C1611 C1612 1.381 . S
C1611 H1635 0.930 . S
C1612 C1611 1.381 . S
C1612 C1614 1.381 . S
C1612 C1615 1.487 . S
C1613 C1610 1.382 . S
C1613 C1614 1.387 . S
C1613 H1636 0.930 . S
C1614 C1612 1.381 . S
C1614 C1613 1.387 . S
C1614 H1637 0.931 . S
C1615 C1608 1.399 . S
C1615 C1612 1.487 . S
C1615 N1647 1.343 1_565 S
C1616 C1617 1.384 . S
C1616 C1618 1.384 . S
C1616 H1638 0.931 . S
C1617 C1616 1.384 . S
C1617 C1620 1.382 . S
C1618 C1616 1.384 . S
C1618 C1619 1.381 . S
C1618 H1639 0.930 . S
C1619 C1618 1.381 . S
C1619 C1621 1.381 . S
C1619 C1622 1.487 . S
C1620 C1617 1.382 . S
C1620 C1621 1.387 . S
C1620 H1640 0.930 . S
C1621 C1619 1.381 . S
C1621 C1620 1.387 . S
C1621 H1641 0.931 . S
C1622 C1619 1.487 . S
C1622 C1629 1.399 . S
C1622 N1647 1.343 . S
C1623 C1624 1.384 . S
C1623 C1625 1.384 . S
C1623 H1642 0.931 . S
C1624 C1623 1.384 . S
C1624 C1627 1.382 . S
C1625 C1623 1.384 . S
C1625 C1626 1.381 . S
C1625 H1643 0.930 . S
C1626 C1625 1.381 . S
C1626 C1628 1.381 . S
C1626 C1629 1.487 . S
C1627 C1624 1.382 . S
C1627 C1628 1.387 . S
C1627 H1644 0.930 . S
C1628 C1626 1.381 . S
C1628 C1627 1.387 . S
C1628 H1645 0.931 . S
C1629 C1622 1.399 . S
C1629 C1626 1.487 . S
C1629 N1646 1.343 . S
H1630 C1602 0.931 . S
H1631 C1604 0.930 . S
H1632 C1606 0.930 . S
H1633 C1607 0.931 . S
H1634 C1609 0.931 . S
H1635 C1611 0.930 . S
H1636 C1613 0.930 . S
H1637 C1614 0.931 . S
H1638 C1616 0.931 . S
H1639 C1618 0.930 . S
H1640 C1620 0.930 . S
H1641 C1621 0.931 . S
H1642 C1623 0.931 . S
H1643 C1625 0.930 . S
H1644 C1627 0.930 . S
H1645 C1628 0.931 . S
N1646 C1608 1.343 1_545 S
N1646 C1629 1.343 . S
N1647 C1615 1.343 1_545 S
N1647 C1622 1.343 . S
C1648 C1649 1.384 . S
C1648 C1650 1.384 . S
C1648 H1676 0.931 . S
C1649 C1648 1.384 . S
C1649 C1652 1.382 . S
C1650 C1648 1.384 . S
C1650 C1651 1.381 . S
C1650 H1677 0.930 . S
C1651 C1650 1.381 . S
C1651 C1653 1.381 . S
C1651 C1654 1.487 . S
C1652 C1649 1.382 . S
C1652 C1653 1.387 . S
C1652 H1678 0.930 . S
C1653 C1651 1.381 . S
C1653 C1652 1.387 . S
C1653 H1679 0.931 . S
C1654 C1651 1.487 . S
C1654 C1661 1.399 . S
C1654 N1692 1.343 1_655 S
C1655 C1656 1.384 . S
C1655 C1657 1.384 . S
C1655 H1680 0.931 . S
C1656 C1655 1.384 . S
C1656 C1659 1.382 . S
C1657 C1655 1.384 . S
C1657 C1658 1.381 . S
C1657 H1681 0.930 . S
C1658 C1657 1.381 . S
C1658 C1660 1.381 . S
C1658 C1661 1.487 . S
C1659 C1656 1.382 . S
C1659 C1660 1.387 . S
C1659 H1682 0.930 . S
C1660 C1658 1.381 . S
C1660 C1659 1.387 . S
C1660 H1683 0.931 . S
C1661 C1654 1.399 . S
C1661 C1658 1.487 . S
C1661 N1693 1.343 1_655 S
C1662 C1663 1.384 . S
C1662 C1664 1.384 . S
C1662 H1684 0.931 . S
C1663 C1662 1.384 . S
C1663 C1666 1.382 . S
C1664 C1662 1.384 . S
C1664 C1665 1.381 . S
C1664 H1685 0.930 . S
C1665 C1664 1.381 . S
C1665 C1667 1.381 . S
C1665 C1668 1.487 . S
C1666 C1663 1.382 . S
C1666 C1667 1.387 . S
C1666 H1686 0.930 . S
C1667 C1665 1.381 . S
C1667 C1666 1.387 . S
C1667 H1687 0.931 . S
C1668 C1665 1.487 . S
C1668 C1675 1.399 . S
C1668 N1693 1.343 . S
C1669 C1670 1.384 . S
C1669 C1671 1.384 . S
C1669 H1688 0.931 . S
C1670 C1669 1.384 . S
C1670 C1673 1.382 . S
C1671 C1669 1.384 . S
C1671 C1672 1.381 . S
C1671 H1689 0.930 . S
C1672 C1671 1.381 . S
C1672 C1674 1.381 . S
C1672 C1675 1.487 . S
C1673 C1670 1.382 . S
C1673 C1674 1.387 . S
C1673 H1690 0.930 . S
C1674 C1672 1.381 . S
C1674 C1673 1.387 . S
C1674 H1691 0.931 . S
C1675 C1668 1.399 . S
C1675 C1672 1.487 . S
C1675 N1692 1.343 . S
H1676 C1648 0.931 . S
H1677 C1650 0.930 . S
H1678 C1652 0.930 . S
H1679 C1653 0.931 . S
H1680 C1655 0.931 . S
H1681 C1657 0.930 . S
H1682 C1659 0.930 . S
H1683 C1660 0.931 . S
H1684 C1662 0.931 . S
H1685 C1664 0.930 . S
H1686 C1666 0.930 . S
H1687 C1667 0.931 . S
H1688 C1669 0.931 . S
H1689 C1671 0.930 . S
H1690 C1673 0.930 . S
H1691 C1674 0.931 . S
N1692 C1654 1.343 1_455 S
N1692 C1675 1.343 . S
N1693 C1661 1.343 1_455 S
N1693 C1668 1.343 . S
C1694 C1695 1.384 . S
C1694 C1696 1.384 . S
C1694 H1722 0.931 . S
C1695 C1694 1.384 . S
C1695 C1698 1.382 . S
C1696 C1694 1.384 . S
C1696 C1697 1.381 . S
C1696 H1723 0.930 . S
C1697 C1696 1.381 . S
C1697 C1699 1.381 . S
C1697 C1700 1.487 . S
C1698 C1695 1.382 . S
C1698 C1699 1.387 . S
C1698 H1724 0.930 . S
C1699 C1697 1.381 . S
C1699 C1698 1.387 . S
C1699 H1725 0.931 . S
C1700 C1697 1.487 . S
C1700 C1707 1.399 . S
C1700 N1738 1.282 1_565 S
C1701 C1702 1.384 . S
C1701 C1703 1.384 . S
C1701 H1726 0.931 . S
C1702 C1701 1.384 . S
C1702 C1705 1.382 . S
C1703 C1701 1.384 . S
C1703 C1704 1.381 . S
C1703 H1727 0.930 . S
C1704 C1703 1.381 . S
C1704 C1706 1.381 . S
C1704 C1707 1.487 . S
C1705 C1702 1.382 . S
C1705 C1706 1.387 . S
C1705 H1728 0.930 . S
C1706 C1704 1.381 . S
C1706 C1705 1.387 . S
C1706 H1729 0.931 . S
C1707 C1700 1.399 . S
C1707 C1704 1.487 . S
C1707 N1739 1.343 1_565 S
C1708 C1709 1.384 . S
C1708 C1710 1.384 . S
C1708 H1730 0.931 . S
C1709 C1708 1.384 . S
C1709 C1712 1.382 . S
C1710 C1708 1.384 . S
C1710 C1711 1.381 . S
C1710 H1731 0.930 . S
C1711 C1710 1.381 . S
C1711 C1713 1.381 . S
C1711 C1714 1.487 . S
C1712 C1709 1.382 . S
C1712 C1713 1.387 . S
C1712 H1732 0.930 . S
C1713 C1711 1.381 . S
C1713 C1712 1.387 . S
C1713 H1733 0.931 . S
C1714 C1711 1.487 . S
C1714 C1721 1.399 . S
C1714 N1739 1.343 . S
C1715 C1716 1.384 . S
C1715 C1717 1.384 . S
C1715 H1734 0.931 . S
C1716 C1715 1.384 . S
C1716 C1719 1.382 . S
C1717 C1715 1.384 . S
C1717 C1718 1.381 . S
C1717 H1735 0.930 . S
C1718 C1717 1.381 . S
C1718 C1720 1.381 . S
C1718 C1721 1.487 . S
C1719 C1716 1.382 . S
C1719 C1720 1.387 . S
C1719 H1736 0.930 . S
C1720 C1718 1.381 . S
C1720 C1719 1.387 . S
C1720 H1737 0.931 . S
C1721 C1714 1.399 . S
C1721 C1718 1.487 . S
C1721 N1738 1.405 . S
H1722 C1694 0.931 . S
H1723 C1696 0.930 . S
H1724 C1698 0.930 . S
H1725 C1699 0.931 . S
H1726 C1701 0.931 . S
H1727 C1703 0.930 . S
H1728 C1705 0.930 . S
H1729 C1706 0.931 . S
H1730 C1708 0.931 . S
H1731 C1710 0.930 . S
H1732 C1712 0.930 . S
H1733 C1713 0.931 . S
H1734 C1715 0.931 . S
H1735 C1717 0.930 . S
H1736 C1719 0.930 . S
H1737 C1720 0.931 . S
N1738 C1700 1.282 1_545 S
N1738 C1721 1.405 . S
N1739 C1707 1.343 1_545 S
N1739 C1714 1.343 . S
C1740 C1741 1.384 . S
C1740 C1742 1.384 . S
C1740 H1768 0.931 . S
C1741 C1740 1.384 . S
C1741 C1744 1.382 . S
C1742 C1740 1.384 . S
C1742 C1743 1.381 . S
C1742 H1769 0.930 . S
C1743 C1742 1.381 . S
C1743 C1745 1.381 . S
C1743 C1746 1.487 . S
C1744 C1741 1.382 . S
C1744 C1745 1.387 . S
C1744 H1770 0.930 . S
C1745 C1743 1.381 . S
C1745 C1744 1.387 . S
C1745 H1771 0.931 . S
C1746 C1743 1.487 . S
C1746 C1753 1.399 . S
C1746 N1784 1.343 . S
C1747 C1748 1.384 . S
C1747 C1749 1.384 . S
C1747 H1772 0.931 . S
C1748 C1747 1.384 . S
C1748 C1751 1.382 . S
C1749 C1747 1.384 . S
C1749 C1750 1.381 . S
C1749 H1773 0.930 . S
C1750 C1749 1.381 . S
C1750 C1752 1.381 . S
C1750 C1753 1.487 . S
C1751 C1748 1.382 . S
C1751 C1752 1.387 . S
C1751 H1774 0.930 . S
C1752 C1750 1.381 . S
C1752 C1751 1.387 . S
C1752 H1775 0.931 . S
C1753 C1746 1.399 . S
C1753 C1750 1.487 . S
C1753 N1785 1.426 . S
C1754 C1755 1.384 . S
C1754 C1756 1.384 . S
C1754 H1776 0.931 . S
C1755 C1754 1.384 . S
C1755 C1758 1.382 . S
C1756 C1754 1.384 . S
C1756 C1757 1.381 . S
C1756 H1777 0.930 . S
C1757 C1756 1.381 . S
C1757 C1759 1.381 . S
C1757 C1760 1.487 . S
C1758 C1755 1.382 . S
C1758 C1759 1.387 . S
C1758 H1778 0.930 . S
C1759 C1757 1.381 . S
C1759 C1758 1.387 . S
C1759 H1779 0.931 . S
C1760 C1757 1.487 . S
C1760 C1767 1.399 . S
C1760 N1785 1.262 1_655 S
C1761 C1762 1.384 . S
C1761 C1763 1.384 . S
C1761 H1780 0.931 . S
C1762 C1761 1.384 . S
C1762 C1765 1.382 . S
C1763 C1761 1.384 . S
C1763 C1764 1.381 . S
C1763 H1781 0.930 . S
C1764 C1763 1.381 . S
C1764 C1766 1.381 . S
C1764 C1767 1.487 . S
C1765 C1762 1.382 . S
C1765 C1766 1.387 . S
C1765 H1782 0.930 . S
C1766 C1764 1.381 . S
C1766 C1765 1.387 . S
C1766 H1783 0.931 . S
C1767 C1760 1.399 . S
C1767 C1764 1.487 . S
C1767 N1784 1.343 1_655 S
H1768 C1740 0.931 . S
H1769 C1742 0.930 . S
H1770 C1744 0.930 . S
H1771 C1745 0.931 . S
H1772 C1747 0.931 . S
H1773 C1749 0.930 . S
H1774 C1751 0.930 . S
H1775 C1752 0.931 . S
H1776 C1754 0.931 . S
H1777 C1756 0.930 . S
H1778 C1758 0.930 . S
H1779 C1759 0.931 . S
H1780 C1761 0.931 . S
H1781 C1763 0.930 . S
H1782 C1765 0.930 . S
H1783 C1766 0.931 . S
N1784 C1746 1.343 . S
N1784 C1767 1.343 1_455 S
N1785 C1753 1.426 . S
N1785 C1760 1.262 1_455 S
C1786 C1787 1.384 . S
C1786 C1788 1.384 . S
C1786 H1814 0.931 . S
C1787 C1786 1.384 . S
C1787 C1790 1.382 . S
C1788 C1786 1.384 . S
C1788 C1789 1.381 . S
C1788 H1815 0.930 . S
C1789 C1788 1.381 . S
C1789 C1791 1.381 . S
C1789 C1792 1.487 . S
C1790 C1787 1.382 . S
C1790 C1791 1.387 . S
C1790 H1816 0.930 . S
C1791 C1789 1.381 . S
C1791 C1790 1.387 . S
C1791 H1817 0.931 . S
C1792 C1789 1.487 . S
C1792 C1799 1.399 . S
C1792 N1830 1.343 1_565 S
C1793 C1794 1.384 . S
C1793 C1795 1.384 . S
C1793 H1818 0.931 . S
C1794 C1793 1.384 . S
C1794 C1797 1.382 . S
C1795 C1793 1.384 . S
C1795 C1796 1.381 . S
C1795 H1819 0.930 . S
C1796 C1795 1.381 . S
C1796 C1798 1.381 . S
C1796 C1799 1.487 . S
C1797 C1794 1.382 . S
C1797 C1798 1.387 . S
C1797 H1820 0.930 . S
C1798 C1796 1.381 . S
C1798 C1797 1.387 . S
C1798 H1821 0.931 . S
C1799 C1792 1.399 . S
C1799 C1796 1.487 . S
C1799 N1831 1.343 1_565 S
C1800 C1801 1.384 . S
C1800 C1802 1.384 . S
C1800 H1822 0.931 . S
C1801 C1800 1.384 . S
C1801 C1804 1.382 . S
C1802 C1800 1.384 . S
C1802 C1803 1.381 . S
C1802 H1823 0.930 . S
C1803 C1802 1.381 . S
C1803 C1805 1.381 . S
C1803 C1806 1.487 . S
C1804 C1801 1.382 . S
C1804 C1805 1.387 . S
C1804 H1824 0.930 . S
C1805 C1803 1.381 . S
C1805 C1804 1.387 . S
C1805 H1825 0.931 . S
C1806 C1803 1.487 . S
C1806 C1813 1.399 . S
C1806 N1831 1.343 . S
C1807 C1808 1.384 . S
C1807 C1809 1.384 . S
C1807 H1826 0.931 . S
C1808 C1807 1.384 . S
C1808 C1811 1.382 . S
C1809 C1807 1.384 . S
C1809 C1810 1.381 . S
C1809 H1827 0.930 . S
C1810 C1809 1.381 . S
C1810 C1812 1.381 . S
C1810 C1813 1.487 . S
C1811 C1808 1.382 . S
C1811 C1812 1.387 . S
C1811 H1828 0.930 . S
C1812 C1810 1.381 . S
C1812 C1811 1.387 . S
C1812 H1829 0.931 . S
C1813 C1806 1.399 . S
C1813 C1810 1.487 . S
C1813 N1830 1.343 . S
H1814 C1786 0.931 . S
H1815 C1788 0.930 . S
H1816 C1790 0.930 . S
H1817 C1791 0.931 . S
H1818 C1793 0.931 . S
H1819 C1795 0.930 . S
H1820 C1797 0.930 . S
H1821 C1798 0.931 . S
H1822 C1800 0.931 . S
H1823 C1802 0.930 . S
H1824 C1804 0.930 . S
H1825 C1805 0.931 . S
H1826 C1807 0.931 . S
H1827 C1809 0.930 . S
H1828 C1811 0.930 . S
H1829 C1812 0.931 . S
N1830 C1792 1.343 1_545 S
N1830 C1813 1.343 . S
N1831 C1799 1.343 1_545 S
N1831 C1806 1.343 . S
C1832 C1833 1.384 . S
C1832 C1834 1.384 . S
C1832 H1860 0.931 . S
C1833 C1832 1.384 . S
C1833 C1836 1.382 . S
C1834 C1832 1.384 . S
C1834 C1835 1.381 . S
C1834 H1861 0.930 . S
C1835 C1834 1.381 . S
C1835 C1837 1.381 . S
C1835 C1838 1.487 . S
C1836 C1833 1.382 . S
C1836 C1837 1.387 . S
C1836 H1862 0.930 . S
C1837 C1835 1.381 . S
C1837 C1836 1.387 . S
C1837 H1863 0.931 . S
C1838 C1835 1.487 . S
C1838 C1845 1.399 . S
C1838 N1876 1.343 . S
C1839 C1840 1.384 . S
C1839 C1841 1.384 . S
C1839 H1864 0.931 . S
C1840 C1839 1.384 . S
C1840 C1843 1.382 . S
C1841 C1839 1.384 . S
C1841 C1842 1.381 . S
C1841 H1865 0.930 . S
C1842 C1841 1.381 . S
C1842 C1844 1.381 . S
C1842 C1845 1.487 . S
C1843 C1840 1.382 . S
C1843 C1844 1.387 . S
C1843 H1866 0.930 . S
C1844 C1842 1.381 . S
C1844 C1843 1.387 . S
C1844 H1867 0.931 . S
C1845 C1838 1.399 . S
C1845 C1842 1.487 . S
C1845 N1877 1.343 . S
C1846 C1847 1.384 . S
C1846 C1848 1.384 . S
C1846 H1868 0.931 . S
C1847 C1846 1.384 . S
C1847 C1850 1.382 . S
C1848 C1846 1.384 . S
C1848 C1849 1.381 . S
C1848 H1869 0.930 . S
C1849 C1848 1.381 . S
C1849 C1851 1.381 . S
C1849 C1852 1.487 . S
C1850 C1847 1.382 . S
C1850 C1851 1.387 . S
C1850 H1870 0.930 . S
C1851 C1849 1.381 . S
C1851 C1850 1.387 . S
C1851 H1871 0.931 . S
C1852 C1849 1.487 . S
C1852 C1859 1.399 . S
C1852 N1877 1.343 . S
C1853 C1854 1.384 . S
C1853 C1855 1.384 . S
C1853 H1872 0.931 . S
C1854 C1853 1.384 . S
C1854 C1857 1.382 . S
C1855 C1853 1.384 . S
C1855 C1856 1.381 . S
C1855 H1873 0.930 . S
C1856 C1855 1.381 . S
C1856 C1858 1.381 . S
C1856 C1859 1.487 . S
C1857 C1854 1.382 . S
C1857 C1858 1.387 . S
C1857 H1874 0.930 . S
C1858 C1856 1.381 . S
C1858 C1857 1.387 . S
C1858 H1875 0.931 . S
C1859 C1852 1.399 . S
C1859 C1856 1.487 . S
C1859 N1876 1.343 . S
H1860 C1832 0.931 . S
H1861 C1834 0.930 . S
H1862 C1836 0.930 . S
H1863 C1837 0.931 . S
H1864 C1839 0.931 . S
H1865 C1841 0.930 . S
H1866 C1843 0.930 . S
H1867 C1844 0.931 . S
H1868 C1846 0.931 . S
H1869 C1848 0.930 . S
H1870 C1850 0.930 . S
H1871 C1851 0.931 . S
H1872 C1853 0.931 . S
H1873 C1855 0.930 . S
H1874 C1857 0.930 . S
H1875 C1858 0.931 . S
N1876 C1838 1.343 . S
N1876 C1859 1.343 . S
N1877 C1845 1.343 . S
N1877 C1852 1.343 . S
C1878 C1879 1.384 . S
C1878 C1880 1.384 . S
C1878 H1906 0.931 . S
C1879 C1878 1.384 . S
C1879 C1882 1.382 . S
C1880 C1878 1.384 . S
C1880 C1881 1.381 . S
C1880 H1907 0.930 . S
C1881 C1880 1.381 . S
C1881 C1883 1.381 . S
C1881 C1884 1.487 . S
C1882 C1879 1.382 . S
C1882 C1883 1.387 . S
C1882 H1908 0.930 . S
C1883 C1881 1.381 . S
C1883 C1882 1.387 . S
C1883 H1909 0.931 . S
C1884 C1881 1.487 . S
C1884 C1891 1.399 . S
C1884 N1922 1.343 . S
C1885 C1886 1.384 . S
C1885 C1887 1.384 . S
C1885 H1910 0.931 . S
C1886 C1885 1.384 . S
C1886 C1889 1.382 . S
C1887 C1885 1.384 . S
C1887 C1888 1.381 . S
C1887 H1911 0.930 . S
C1888 C1887 1.381 . S
C1888 C1890 1.381 . S
C1888 C1891 1.487 . S
C1889 C1886 1.382 . S
C1889 C1890 1.387 . S
C1889 H1912 0.930 . S
C1890 C1888 1.381 . S
C1890 C1889 1.387 . S
C1890 H1913 0.931 . S
C1891 C1884 1.399 . S
C1891 C1888 1.487 . S
C1891 N1923 1.343 . S
C1892 C1893 1.384 . S
C1892 C1894 1.384 . S
C1892 H1914 0.931 . S
C1893 C1892 1.384 . S
C1893 C1896 1.382 . S
C1894 C1892 1.384 . S
C1894 C1895 1.381 . S
C1894 H1915 0.930 . S
C1895 C1894 1.381 . S
C1895 C1897 1.381 . S
C1895 C1898 1.487 . S
C1896 C1893 1.382 . S
C1896 C1897 1.387 . S
C1896 H1916 0.930 . S
C1897 C1895 1.381 . S
C1897 C1896 1.387 . S
C1897 H1917 0.931 . S
C1898 C1895 1.487 . S
C1898 C1905 1.399 . S
C1898 N1923 1.343 . S
C1899 C1900 1.384 . S
C1899 C1901 1.384 . S
C1899 H1918 0.931 . S
C1900 C1899 1.384 . S
C1900 C1903 1.382 . S
C1901 C1899 1.384 . S
C1901 C1902 1.381 . S
C1901 H1919 0.930 . S
C1902 C1901 1.381 . S
C1902 C1904 1.381 . S
C1902 C1905 1.487 . S
C1903 C1900 1.382 . S
C1903 C1904 1.387 . S
C1903 H1920 0.930 . S
C1904 C1902 1.381 . S
C1904 C1903 1.387 . S
C1904 H1921 0.931 . S
C1905 C1898 1.399 . S
C1905 C1902 1.487 . S
C1905 N1922 1.343 . S
H1906 C1878 0.931 . S
H1907 C1880 0.930 . S
H1908 C1882 0.930 . S
H1909 C1883 0.931 . S
H1910 C1885 0.931 . S
H1911 C1887 0.930 . S
H1912 C1889 0.930 . S
H1913 C1890 0.931 . S
H1914 C1892 0.931 . S
H1915 C1894 0.930 . S
H1916 C1896 0.930 . S
H1917 C1897 0.931 . S
H1918 C1899 0.931 . S
H1919 C1901 0.930 . S
H1920 C1903 0.930 . S
H1921 C1904 0.931 . S
N1922 C1884 1.343 . S
N1922 C1905 1.343 . S
N1923 C1891 1.343 . S
N1923 C1898 1.343 . S
C1924 C1925 1.384 . S
C1924 C1926 1.384 . S
C1924 H1952 0.931 . S
C1925 C1924 1.384 . S
C1925 C1928 1.382 . S
C1926 C1924 1.384 . S
C1926 C1927 1.381 . S
C1926 H1953 0.930 . S
C1927 C1926 1.381 . S
C1927 C1929 1.381 . S
C1927 C1930 1.487 . S
C1928 C1925 1.382 . S
C1928 C1929 1.387 . S
C1928 H1954 0.930 . S
C1929 C1927 1.381 . S
C1929 C1928 1.387 . S
C1929 H1955 0.931 . S
C1930 C1927 1.487 . S
C1930 C1937 1.399 . S
C1930 N1968 1.343 . S
C1931 C1932 1.384 . S
C1931 C1933 1.384 . S
C1931 H1956 0.931 . S
C1932 C1931 1.384 . S
C1932 C1935 1.382 . S
C1933 C1931 1.384 . S
C1933 C1934 1.381 . S
C1933 H1957 0.930 . S
C1934 C1933 1.381 . S
C1934 C1936 1.381 . S
C1934 C1937 1.487 . S
C1935 C1932 1.382 . S
C1935 C1936 1.387 . S
C1935 H1958 0.930 . S
C1936 C1934 1.381 . S
C1936 C1935 1.387 . S
C1936 H1959 0.931 . S
C1937 C1930 1.399 . S
C1937 C1934 1.487 . S
C1937 N1969 1.343 . S
C1938 C1939 1.384 . S
C1938 C1940 1.384 . S
C1938 H1960 0.931 . S
C1939 C1938 1.384 . S
C1939 C1942 1.382 . S
C1940 C1938 1.384 . S
C1940 C1941 1.381 . S
C1940 H1961 0.930 . S
C1941 C1940 1.381 . S
C1941 C1943 1.381 . S
C1941 C1944 1.487 . S
C1942 C1939 1.382 . S
C1942 C1943 1.387 . S
C1942 H1962 0.930 . S
C1943 C1941 1.381 . S
C1943 C1942 1.387 . S
C1943 H1963 0.931 . S
C1944 C1941 1.487 . S
C1944 C1951 1.399 . S
C1944 N1969 1.343 . S
C1945 C1946 1.384 . S
C1945 C1947 1.384 . S
C1945 H1964 0.931 . S
C1946 C1945 1.384 . S
C1946 C1949 1.382 . S
C1947 C1945 1.384 . S
C1947 C1948 1.381 . S
C1947 H1965 0.930 . S
C1948 C1947 1.381 . S
C1948 C1950 1.381 . S
C1948 C1951 1.487 . S
C1949 C1946 1.382 . S
C1949 C1950 1.387 . S
C1949 H1966 0.930 . S
C1950 C1948 1.381 . S
C1950 C1949 1.387 . S
C1950 H1967 0.931 . S
C1951 C1944 1.399 . S
C1951 C1948 1.487 . S
C1951 N1968 1.343 . S
H1952 C1924 0.931 . S
H1953 C1926 0.930 . S
H1954 C1928 0.930 . S
H1955 C1929 0.931 . S
H1956 C1931 0.931 . S
H1957 C1933 0.930 . S
H1958 C1935 0.930 . S
H1959 C1936 0.931 . S
H1960 C1938 0.931 . S
H1961 C1940 0.930 . S
H1962 C1942 0.930 . S
H1963 C1943 0.931 . S
H1964 C1945 0.931 . S
H1965 C1947 0.930 . S
H1966 C1949 0.930 . S
H1967 C1950 0.931 . S
N1968 C1930 1.343 . S
N1968 C1951 1.343 . S
N1969 C1937 1.343 . S
N1969 C1944 1.343 . S
C1970 C1971 1.384 . S
C1970 C1972 1.384 . S
C1970 H1998 0.931 . S
C1971 C1970 1.384 . S
C1971 C1974 1.382 . S
C1972 C1970 1.384 . S
C1972 C1973 1.381 . S
C1972 H1999 0.930 . S
C1973 C1972 1.381 . S
C1973 C1975 1.381 . S
C1973 C1976 1.487 . S
C1974 C1971 1.382 . S
C1974 C1975 1.387 . S
C1974 H2000 0.930 . S
C1975 C1973 1.381 . S
C1975 C1974 1.387 . S
C1975 H2001 0.931 . S
C1976 C1973 1.487 . S
C1976 C1983 1.399 . S
C1976 N2014 1.343 . S
C1977 C1978 1.384 . S
C1977 C1979 1.384 . S
C1977 H2002 0.931 . S
C1978 C1977 1.384 . S
C1978 C1981 1.382 . S
C1979 C1977 1.384 . S
C1979 C1980 1.381 . S
C1979 H2003 0.930 . S
C1980 C1979 1.381 . S
C1980 C1982 1.381 . S
C1980 C1983 1.487 . S
C1981 C1978 1.382 . S
C1981 C1982 1.387 . S
C1981 H2004 0.930 . S
C1982 C1980 1.381 . S
C1982 C1981 1.387 . S
C1982 H2005 0.931 . S
C1983 C1976 1.399 . S
C1983 C1980 1.487 . S
C1983 N2015 1.343 . S
C1984 C1985 1.384 . S
C1984 C1986 1.384 . S
C1984 H2006 0.931 . S
C1985 C1984 1.384 . S
C1985 C1988 1.382 . S
C1986 C1984 1.384 . S
C1986 C1987 1.381 . S
C1986 H2007 0.930 . S
C1987 C1986 1.381 . S
C1987 C1989 1.381 . S
C1987 C1990 1.487 . S
C1988 C1985 1.382 . S
C1988 C1989 1.387 . S
C1988 H2008 0.930 . S
C1989 C1987 1.381 . S
C1989 C1988 1.387 . S
C1989 H2009 0.931 . S
C1990 C1987 1.487 . S
C1990 C1997 1.399 . S
C1990 N2015 1.343 . S
C1991 C1992 1.384 . S
C1991 C1993 1.384 . S
C1991 H2010 0.931 . S
C1992 C1991 1.384 . S
C1992 C1995 1.382 . S
C1993 C1991 1.384 . S
C1993 C1994 1.381 . S
C1993 H2011 0.930 . S
C1994 C1993 1.381 . S
C1994 C1996 1.381 . S
C1994 C1997 1.487 . S
C1995 C1992 1.382 . S
C1995 C1996 1.387 . S
C1995 H2012 0.930 . S
C1996 C1994 1.381 . S
C1996 C1995 1.387 . S
C1996 H2013 0.931 . S
C1997 C1990 1.399 . S
C1997 C1994 1.487 . S
C1997 N2014 1.343 . S
H1998 C1970 0.931 . S
H1999 C1972 0.930 . S
H2000 C1974 0.930 . S
H2001 C1975 0.931 . S
H2002 C1977 0.931 . S
H2003 C1979 0.930 . S
H2004 C1981 0.930 . S
H2005 C1982 0.931 . S
H2006 C1984 0.931 . S
H2007 C1986 0.930 . S
H2008 C1988 0.930 . S
H2009 C1989 0.931 . S
H2010 C1991 0.931 . S
H2011 C1993 0.930 . S
H2012 C1995 0.930 . S
H2013 C1996 0.931 . S
N2014 C1976 1.343 . S
N2014 C1997 1.343 . S
N2015 C1983 1.343 . S
N2015 C1990 1.343 . S
C2016 C2017 1.384 . S
C2016 C2018 1.384 . S
C2016 H2044 0.931 . S
C2017 C2016 1.384 . S
C2017 C2020 1.382 . S
C2018 C2016 1.384 . S
C2018 C2019 1.381 . S
C2018 H2045 0.930 . S
C2019 C2018 1.381 . S
C2019 C2021 1.381 . S
C2019 C2022 1.487 . S
C2020 C2017 1.382 . S
C2020 C2021 1.387 . S
C2020 H2046 0.930 . S
C2021 C2019 1.381 . S
C2021 C2020 1.387 . S
C2021 H2047 0.931 . S
C2022 C2019 1.487 . S
C2022 C2029 1.399 . S
C2022 N2060 1.343 . S
C2023 C2024 1.384 . S
C2023 C2025 1.384 . S
C2023 H2048 0.931 . S
C2024 C2023 1.384 . S
C2024 C2027 1.382 . S
C2025 C2023 1.384 . S
C2025 C2026 1.381 . S
C2025 H2049 0.930 . S
C2026 C2025 1.381 . S
C2026 C2028 1.381 . S
C2026 C2029 1.487 . S
C2027 C2024 1.382 . S
C2027 C2028 1.387 . S
C2027 H2050 0.930 . S
C2028 C2026 1.381 . S
C2028 C2027 1.387 . S
C2028 H2051 0.931 . S
C2029 C2022 1.399 . S
C2029 C2026 1.487 . S
C2029 N2061 1.343 . S
C2030 C2031 1.384 . S
C2030 C2032 1.384 . S
C2030 H2052 0.931 . S
C2031 C2030 1.384 . S
C2031 C2034 1.382 . S
C2032 C2030 1.384 . S
C2032 C2033 1.381 . S
C2032 H2053 0.930 . S
C2033 C2032 1.381 . S
C2033 C2035 1.381 . S
C2033 C2036 1.487 . S
C2034 C2031 1.382 . S
C2034 C2035 1.387 . S
C2034 H2054 0.930 . S
C2035 C2033 1.381 . S
C2035 C2034 1.387 . S
C2035 H2055 0.931 . S
C2036 C2033 1.487 . S
C2036 C2043 1.399 . S
C2036 N2061 1.343 . S
C2037 C2038 1.384 . S
C2037 C2039 1.384 . S
C2037 H2056 0.931 . S
C2038 C2037 1.384 . S
C2038 C2041 1.382 . S
C2039 C2037 1.384 . S
C2039 C2040 1.381 . S
C2039 H2057 0.930 . S
C2040 C2039 1.381 . S
C2040 C2042 1.381 . S
C2040 C2043 1.487 . S
C2041 C2038 1.382 . S
C2041 C2042 1.387 . S
C2041 H2058 0.930 . S
C2042 C2040 1.381 . S
C2042 C2041 1.387 . S
C2042 H2059 0.931 . S
C2043 C2036 1.399 . S
C2043 C2040 1.487 . S
C2043 N2060 1.343 . S
H2044 C2016 0.931 . S
H2045 C2018 0.930 . S
H2046 C2020 0.930 . S
H2047 C2021 0.931 . S
H2048 C2023 0.931 . S
H2049 C2025 0.930 . S
H2050 C2027 0.930 . S
H2051 C2028 0.931 . S
H2052 C2030 0.931 . S
H2053 C2032 0.930 . S
H2054 C2034 0.930 . S
H2055 C2035 0.931 . S
H2056 C2037 0.931 . S
H2057 C2039 0.930 . S
H2058 C2041 0.930 . S
H2059 C2042 0.931 . S
N2060 C2022 1.343 . S
N2060 C2043 1.343 . S
N2061 C2029 1.343 . S
N2061 C2036 1.343 . S
C2062 C2063 1.384 . S
C2062 C2064 1.384 . S
C2062 H2090 0.931 . S
C2063 C2062 1.384 . S
C2063 C2066 1.382 . S
C2064 C2062 1.384 . S
C2064 C2065 1.381 . S
C2064 H2091 0.930 . S
C2065 C2064 1.381 . S
C2065 C2067 1.381 . S
C2065 C2068 1.487 . S
C2066 C2063 1.382 . S
C2066 C2067 1.387 . S
C2066 H2092 0.930 . S
C2067 C2065 1.381 . S
C2067 C2066 1.387 . S
C2067 H2093 0.931 . S
C2068 C2065 1.487 . S
C2068 C2075 1.399 . S
C2068 N2106 1.343 . S
C2069 C2070 1.384 . S
C2069 C2071 1.384 . S
C2069 H2094 0.931 . S
C2070 C2069 1.384 . S
C2070 C2073 1.382 . S
C2071 C2069 1.384 . S
C2071 C2072 1.381 . S
C2071 H2095 0.930 . S
C2072 C2071 1.381 . S
C2072 C2074 1.381 . S
C2072 C2075 1.487 . S
C2073 C2070 1.382 . S
C2073 C2074 1.387 . S
C2073 H2096 0.930 . S
C2074 C2072 1.381 . S
C2074 C2073 1.387 . S
C2074 H2097 0.931 . S
C2075 C2068 1.399 . S
C2075 C2072 1.487 . S
C2075 N2107 1.343 . S
C2076 C2077 1.384 . S
C2076 C2078 1.384 . S
C2076 H2098 0.931 . S
C2077 C2076 1.384 . S
C2077 C2080 1.382 . S
C2078 C2076 1.384 . S
C2078 C2079 1.381 . S
C2078 H2099 0.930 . S
C2079 C2078 1.381 . S
C2079 C2081 1.381 . S
C2079 C2082 1.487 . S
C2080 C2077 1.382 . S
C2080 C2081 1.387 . S
C2080 H2100 0.930 . S
C2081 C2079 1.381 . S
C2081 C2080 1.387 . S
C2081 H2101 0.931 . S
C2082 C2079 1.487 . S
C2082 C2089 1.399 . S
C2082 N2107 1.343 . S
C2083 C2084 1.384 . S
C2083 C2085 1.384 . S
C2083 H2102 0.931 . S
C2084 C2083 1.384 . S
C2084 C2087 1.382 . S
C2085 C2083 1.384 . S
C2085 C2086 1.381 . S
C2085 H2103 0.930 . S
C2086 C2085 1.381 . S
C2086 C2088 1.381 . S
C2086 C2089 1.487 . S
C2087 C2084 1.382 . S
C2087 C2088 1.387 . S
C2087 H2104 0.930 . S
C2088 C2086 1.381 . S
C2088 C2087 1.387 . S
C2088 H2105 0.931 . S
C2089 C2082 1.399 . S
C2089 C2086 1.487 . S
C2089 N2106 1.343 . S
H2090 C2062 0.931 . S
H2091 C2064 0.930 . S
H2092 C2066 0.930 . S
H2093 C2067 0.931 . S
H2094 C2069 0.931 . S
H2095 C2071 0.930 . S
H2096 C2073 0.930 . S
H2097 C2074 0.931 . S
H2098 C2076 0.931 . S
H2099 C2078 0.930 . S
H2100 C2080 0.930 . S
H2101 C2081 0.931 . S
H2102 C2083 0.931 . S
H2103 C2085 0.930 . S
H2104 C2087 0.930 . S
H2105 C2088 0.931 . S
N2106 C2068 1.343 . S
N2106 C2089 1.343 . S
N2107 C2075 1.343 . S
N2107 C2082 1.343 . S
C2108 C2109 1.384 . S
C2108 C2110 1.384 . S
C2108 H2136 0.931 . S
C2109 C2108 1.384 . S
C2109 C2112 1.382 . S
C2110 C2108 1.384 . S
C2110 C2111 1.381 . S
C2110 H2137 0.930 . S
C2111 C2110 1.381 . S
C2111 C2113 1.381 . S
C2111 C2114 1.487 . S
C2112 C2109 1.382 . S
C2112 C2113 1.387 . S
C2112 H2138 0.930 . S
C2113 C2111 1.381 . S
C2113 C2112 1.387 . S
C2113 H2139 0.931 . S
C2114 C2111 1.487 . S
C2114 C2121 1.399 . S
C2114 N2152 1.343 . S
C2115 C2116 1.384 . S
C2115 C2117 1.384 . S
C2115 H2140 0.931 . S
C2116 C2115 1.384 . S
C2116 C2119 1.382 . S
C2117 C2115 1.384 . S
C2117 C2118 1.381 . S
C2117 H2141 0.930 . S
C2118 C2117 1.381 . S
C2118 C2120 1.381 . S
C2118 C2121 1.487 . S
C2119 C2116 1.382 . S
C2119 C2120 1.387 . S
C2119 H2142 0.930 . S
C2120 C2118 1.381 . S
C2120 C2119 1.387 . S
C2120 H2143 0.931 . S
C2121 C2114 1.399 . S
C2121 C2118 1.487 . S
C2121 N2153 1.343 . S
C2122 C2123 1.384 . S
C2122 C2124 1.384 . S
C2122 H2144 0.931 . S
C2123 C2122 1.384 . S
C2123 C2126 1.382 . S
C2124 C2122 1.384 . S
C2124 C2125 1.381 . S
C2124 H2145 0.930 . S
C2125 C2124 1.381 . S
C2125 C2127 1.381 . S
C2125 C2128 1.487 . S
C2126 C2123 1.382 . S
C2126 C2127 1.387 . S
C2126 H2146 0.930 . S
C2127 C2125 1.381 . S
C2127 C2126 1.387 . S
C2127 H2147 0.931 . S
C2128 C2125 1.487 . S
C2128 C2135 1.399 . S
C2128 N2153 1.343 . S
C2129 C2130 1.384 . S
C2129 C2131 1.384 . S
C2129 H2148 0.931 . S
C2130 C2129 1.384 . S
C2130 C2133 1.382 . S
C2131 C2129 1.384 . S
C2131 C2132 1.381 . S
C2131 H2149 0.930 . S
C2132 C2131 1.381 . S
C2132 C2134 1.381 . S
C2132 C2135 1.487 . S
C2133 C2130 1.382 . S
C2133 C2134 1.387 . S
C2133 H2150 0.930 . S
C2134 C2132 1.381 . S
C2134 C2133 1.387 . S
C2134 H2151 0.931 . S
C2135 C2128 1.399 . S
C2135 C2132 1.487 . S
C2135 N2152 1.343 . S
H2136 C2108 0.931 . S
H2137 C2110 0.930 . S
H2138 C2112 0.930 . S
H2139 C2113 0.931 . S
H2140 C2115 0.931 . S
H2141 C2117 0.930 . S
H2142 C2119 0.930 . S
H2143 C2120 0.931 . S
H2144 C2122 0.931 . S
H2145 C2124 0.930 . S
H2146 C2126 0.930 . S
H2147 C2127 0.931 . S
H2148 C2129 0.931 . S
H2149 C2131 0.930 . S
H2150 C2133 0.930 . S
H2151 C2134 0.931 . S
N2152 C2114 1.343 . S
N2152 C2135 1.343 . S
N2153 C2121 1.343 . S
N2153 C2128 1.343 . S
C2154 C2155 1.384 . S
C2154 C2156 1.384 . S
C2154 H2182 0.931 . S
C2155 C2154 1.384 . S
C2155 C2158 1.382 . S
C2156 C2154 1.384 . S
C2156 C2157 1.381 . S
C2156 H2183 0.930 . S
C2157 C2156 1.381 . S
C2157 C2159 1.381 . S
C2157 C2160 1.487 . S
C2158 C2155 1.382 . S
C2158 C2159 1.387 . S
C2158 H2184 0.930 . S
C2159 C2157 1.381 . S
C2159 C2158 1.387 . S
C2159 H2185 0.931 . S
C2160 C2157 1.487 . S
C2160 C2167 1.399 . S
C2160 N2198 1.343 . S
C2161 C2162 1.384 . S
C2161 C2163 1.384 . S
C2161 H2186 0.931 . S
C2162 C2161 1.384 . S
C2162 C2165 1.382 . S
C2163 C2161 1.384 . S
C2163 C2164 1.381 . S
C2163 H2187 0.930 . S
C2164 C2163 1.381 . S
C2164 C2166 1.381 . S
C2164 C2167 1.487 . S
C2165 C2162 1.382 . S
C2165 C2166 1.387 . S
C2165 H2188 0.930 . S
C2166 C2164 1.381 . S
C2166 C2165 1.387 . S
C2166 H2189 0.931 . S
C2167 C2160 1.399 . S
C2167 C2164 1.487 . S
C2167 N2199 1.343 . S
C2168 C2169 1.384 . S
C2168 C2170 1.384 . S
C2168 H2190 0.931 . S
C2169 C2168 1.384 . S
C2169 C2172 1.382 . S
C2170 C2168 1.384 . S
C2170 C2171 1.381 . S
C2170 H2191 0.930 . S
C2171 C2170 1.381 . S
C2171 C2173 1.381 . S
C2171 C2174 1.487 . S
C2172 C2169 1.382 . S
C2172 C2173 1.387 . S
C2172 H2192 0.930 . S
C2173 C2171 1.381 . S
C2173 C2172 1.387 . S
C2173 H2193 0.931 . S
C2174 C2171 1.487 . S
C2174 C2181 1.399 . S
C2174 N2199 1.343 . S
C2175 C2176 1.384 . S
C2175 C2177 1.384 . S
C2175 H2194 0.931 . S
C2176 C2175 1.384 . S
C2176 C2179 1.382 . S
C2177 C2175 1.384 . S
C2177 C2178 1.381 . S
C2177 H2195 0.930 . S
C2178 C2177 1.381 . S
C2178 C2180 1.381 . S
C2178 C2181 1.487 . S
C2179 C2176 1.382 . S
C2179 C2180 1.387 . S
C2179 H2196 0.930 . S
C2180 C2178 1.381 . S
C2180 C2179 1.387 . S
C2180 H2197 0.931 . S
C2181 C2174 1.399 . S
C2181 C2178 1.487 . S
C2181 N2198 1.343 . S
H2182 C2154 0.931 . S
H2183 C2156 0.930 . S
H2184 C2158 0.930 . S
H2185 C2159 0.931 . S
H2186 C2161 0.931 . S
H2187 C2163 0.930 . S
H2188 C2165 0.930 . S
H2189 C2166 0.931 . S
H2190 C2168 0.931 . S
H2191 C2170 0.930 . S
H2192 C2172 0.930 . S
H2193 C2173 0.931 . S
H2194 C2175 0.931 . S
H2195 C2177 0.930 . S
H2196 C2179 0.930 . S
H2197 C2180 0.931 . S
N2198 C2160 1.343 . S
N2198 C2181 1.343 . S
N2199 C2167 1.343 . S
N2199 C2174 1.343 . S
C2200 C2201 1.384 . S
C2200 C2202 1.384 . S
C2200 H2228 0.931 . S
C2201 C2200 1.384 . S
C2201 C2204 1.382 . S
C2202 C2200 1.384 . S
C2202 C2203 1.381 . S
C2202 H2229 0.930 . S
C2203 C2202 1.381 . S
C2203 C2205 1.381 . S
C2203 C2206 1.487 . S
C2204 C2201 1.382 . S
C2204 C2205 1.387 . S
C2204 H2230 0.930 . S
C2205 C2203 1.381 . S
C2205 C2204 1.387 . S
C2205 H2231 0.931 . S
C2206 C2203 1.487 . S
C2206 C2213 1.399 . S
C2206 N2244 1.343 . S
C2207 C2208 1.384 . S
C2207 C2209 1.384 . S
C2207 H2232 0.931 . S
C2208 C2207 1.384 . S
C2208 C2211 1.382 . S
C2209 C2207 1.384 . S
C2209 C2210 1.381 . S
C2209 H2233 0.930 . S
C2210 C2209 1.381 . S
C2210 C2212 1.381 . S
C2210 C2213 1.487 . S
C2211 C2208 1.382 . S
C2211 C2212 1.387 . S
C2211 H2234 0.930 . S
C2212 C2210 1.381 . S
C2212 C2211 1.387 . S
C2212 H2235 0.931 . S
C2213 C2206 1.399 . S
C2213 C2210 1.487 . S
C2213 N2245 1.343 . S
C2214 C2215 1.384 . S
C2214 C2216 1.384 . S
C2214 H2236 0.931 . S
C2215 C2214 1.384 . S
C2215 C2218 1.382 . S
C2216 C2214 1.384 . S
C2216 C2217 1.381 . S
C2216 H2237 0.930 . S
C2217 C2216 1.381 . S
C2217 C2219 1.381 . S
C2217 C2220 1.487 . S
C2218 C2215 1.382 . S
C2218 C2219 1.387 . S
C2218 H2238 0.930 . S
C2219 C2217 1.381 . S
C2219 C2218 1.387 . S
C2219 H2239 0.931 . S
C2220 C2217 1.487 . S
C2220 C2227 1.399 . S
C2220 N2245 1.343 . S
C2221 C2222 1.384 . S
C2221 C2223 1.384 . S
C2221 H2240 0.931 . S
C2222 C2221 1.384 . S
C2222 C2225 1.382 . S
C2223 C2221 1.384 . S
C2223 C2224 1.381 . S
C2223 H2241 0.930 . S
C2224 C2223 1.381 . S
C2224 C2226 1.381 . S
C2224 C2227 1.487 . S
C2225 C2222 1.382 . S
C2225 C2226 1.387 . S
C2225 H2242 0.930 . S
C2226 C2224 1.381 . S
C2226 C2225 1.387 . S
C2226 H2243 0.931 . S
C2227 C2220 1.399 . S
C2227 C2224 1.487 . S
C2227 N2244 1.343 . S
H2228 C2200 0.931 . S
H2229 C2202 0.930 . S
H2230 C2204 0.930 . S
H2231 C2205 0.931 . S
H2232 C2207 0.931 . S
H2233 C2209 0.930 . S
H2234 C2211 0.930 . S
H2235 C2212 0.931 . S
H2236 C2214 0.931 . S
H2237 C2216 0.930 . S
H2238 C2218 0.930 . S
H2239 C2219 0.931 . S
H2240 C2221 0.931 . S
H2241 C2223 0.930 . S
H2242 C2225 0.930 . S
H2243 C2226 0.931 . S
N2244 C2206 1.343 . S
N2244 C2227 1.343 . S
N2245 C2213 1.343 . S
N2245 C2220 1.343 . S
C2246 C2247 1.384 . S
C2246 C2248 1.384 . S
C2246 H2274 0.931 . S
C2247 C2246 1.384 . S
C2247 C2250 1.382 . S
C2248 C2246 1.384 . S
C2248 C2249 1.381 . S
C2248 H2275 0.930 . S
C2249 C2248 1.381 . S
C2249 C2251 1.381 . S
C2249 C2252 1.487 . S
C2250 C2247 1.382 . S
C2250 C2251 1.387 . S
C2250 H2276 0.930 . S
C2251 C2249 1.381 . S
C2251 C2250 1.387 . S
C2251 H2277 0.931 . S
C2252 C2249 1.487 . S
C2252 C2259 1.399 . S
C2252 N2290 1.343 . S
C2253 C2254 1.384 . S
C2253 C2255 1.384 . S
C2253 H2278 0.931 . S
C2254 C2253 1.384 . S
C2254 C2257 1.382 . S
C2255 C2253 1.384 . S
C2255 C2256 1.381 . S
C2255 H2279 0.930 . S
C2256 C2255 1.381 . S
C2256 C2258 1.381 . S
C2256 C2259 1.487 . S
C2257 C2254 1.382 . S
C2257 C2258 1.387 . S
C2257 H2280 0.930 . S
C2258 C2256 1.381 . S
C2258 C2257 1.387 . S
C2258 H2281 0.931 . S
C2259 C2252 1.399 . S
C2259 C2256 1.487 . S
C2259 N2291 1.343 . S
C2260 C2261 1.384 . S
C2260 C2262 1.384 . S
C2260 H2282 0.931 . S
C2261 C2260 1.384 . S
C2261 C2264 1.382 . S
C2262 C2260 1.384 . S
C2262 C2263 1.381 . S
C2262 H2283 0.930 . S
C2263 C2262 1.381 . S
C2263 C2265 1.381 . S
C2263 C2266 1.487 . S
C2264 C2261 1.382 . S
C2264 C2265 1.387 . S
C2264 H2284 0.930 . S
C2265 C2263 1.381 . S
C2265 C2264 1.387 . S
C2265 H2285 0.931 . S
C2266 C2263 1.487 . S
C2266 C2273 1.399 . S
C2266 N2291 1.343 . S
C2267 C2268 1.384 . S
C2267 C2269 1.384 . S
C2267 H2286 0.931 . S
C2268 C2267 1.384 . S
C2268 C2271 1.382 . S
C2269 C2267 1.384 . S
C2269 C2270 1.381 . S
C2269 H2287 0.930 . S
C2270 C2269 1.381 . S
C2270 C2272 1.381 . S
C2270 C2273 1.487 . S
C2271 C2268 1.382 . S
C2271 C2272 1.387 . S
C2271 H2288 0.930 . S
C2272 C2270 1.381 . S
C2272 C2271 1.387 . S
C2272 H2289 0.931 . S
C2273 C2266 1.399 . S
C2273 C2270 1.487 . S
C2273 N2290 1.343 . S
H2274 C2246 0.931 . S
H2275 C2248 0.930 . S
H2276 C2250 0.930 . S
H2277 C2251 0.931 . S
H2278 C2253 0.931 . S
H2279 C2255 0.930 . S
H2280 C2257 0.930 . S
H2281 C2258 0.931 . S
H2282 C2260 0.931 . S
H2283 C2262 0.930 . S
H2284 C2264 0.930 . S
H2285 C2265 0.931 . S
H2286 C2267 0.931 . S
H2287 C2269 0.930 . S
H2288 C2271 0.930 . S
H2289 C2272 0.931 . S
N2290 C2252 1.343 . S
N2290 C2273 1.343 . S
N2291 C2259 1.343 . S
N2291 C2266 1.343 . S
C2292 C2293 1.384 . S
C2292 C2294 1.384 . S
C2292 H2320 0.931 . S
C2293 C2292 1.384 . S
C2293 C2296 1.382 . S
C2294 C2292 1.384 . S
C2294 C2295 1.381 . S
C2294 H2321 0.930 . S
C2295 C2294 1.381 . S
C2295 C2297 1.381 . S
C2295 C2298 1.487 . S
C2296 C2293 1.382 . S
C2296 C2297 1.387 . S
C2296 H2322 0.930 . S
C2297 C2295 1.381 . S
C2297 C2296 1.387 . S
C2297 H2323 0.931 . S
C2298 C2295 1.487 . S
C2298 C2305 1.399 . S
C2298 N2336 1.343 . S
C2299 C2300 1.384 . S
C2299 C2301 1.384 . S
C2299 H2324 0.931 . S
C2300 C2299 1.384 . S
C2300 C2303 1.382 . S
C2301 C2299 1.384 . S
C2301 C2302 1.381 . S
C2301 H2325 0.930 . S
C2302 C2301 1.381 . S
C2302 C2304 1.381 . S
C2302 C2305 1.487 . S
C2303 C2300 1.382 . S
C2303 C2304 1.387 . S
C2303 H2326 0.930 . S
C2304 C2302 1.381 . S
C2304 C2303 1.387 . S
C2304 H2327 0.931 . S
C2305 C2298 1.399 . S
C2305 C2302 1.487 . S
C2305 N2337 1.343 . S
C2306 C2307 1.384 . S
C2306 C2308 1.384 . S
C2306 H2328 0.931 . S
C2307 C2306 1.384 . S
C2307 C2310 1.382 . S
C2308 C2306 1.384 . S
C2308 C2309 1.381 . S
C2308 H2329 0.930 . S
C2309 C2308 1.381 . S
C2309 C2311 1.381 . S
C2309 C2312 1.487 . S
C2310 C2307 1.382 . S
C2310 C2311 1.387 . S
C2310 H2330 0.930 . S
C2311 C2309 1.381 . S
C2311 C2310 1.387 . S
C2311 H2331 0.931 . S
C2312 C2309 1.487 . S
C2312 C2319 1.399 . S
C2312 N2337 1.343 . S
C2313 C2314 1.384 . S
C2313 C2315 1.384 . S
C2313 H2332 0.931 . S
C2314 C2313 1.384 . S
C2314 C2317 1.382 . S
C2315 C2313 1.384 . S
C2315 C2316 1.381 . S
C2315 H2333 0.930 . S
C2316 C2315 1.381 . S
C2316 C2318 1.381 . S
C2316 C2319 1.487 . S
C2317 C2314 1.382 . S
C2317 C2318 1.387 . S
C2317 H2334 0.930 . S
C2318 C2316 1.381 . S
C2318 C2317 1.387 . S
C2318 H2335 0.931 . S
C2319 C2312 1.399 . S
C2319 C2316 1.487 . S
C2319 N2336 1.343 . S
H2320 C2292 0.931 . S
H2321 C2294 0.930 . S
H2322 C2296 0.930 . S
H2323 C2297 0.931 . S
H2324 C2299 0.931 . S
H2325 C2301 0.930 . S
H2326 C2303 0.930 . S
H2327 C2304 0.931 . S
H2328 C2306 0.931 . S
H2329 C2308 0.930 . S
H2330 C2310 0.930 . S
H2331 C2311 0.931 . S
H2332 C2313 0.931 . S
H2333 C2315 0.930 . S
H2334 C2317 0.930 . S
H2335 C2318 0.931 . S
N2336 C2298 1.343 . S
N2336 C2319 1.343 . S
N2337 C2305 1.343 . S
N2337 C2312 1.343 . S
C2338 C2339 1.384 . S
C2338 C2340 1.384 . S
C2338 H2366 0.931 . S
C2339 C2338 1.384 . S
C2339 C2342 1.382 . S
C2340 C2338 1.384 . S
C2340 C2341 1.381 . S
C2340 H2367 0.930 . S
C2341 C2340 1.381 . S
C2341 C2343 1.381 . S
C2341 C2344 1.487 . S
C2342 C2339 1.382 . S
C2342 C2343 1.387 . S
C2342 H2368 0.930 . S
C2343 C2341 1.381 . S
C2343 C2342 1.387 . S
C2343 H2369 0.931 . S
C2344 C2341 1.487 . S
C2344 C2351 1.399 . S
C2344 N2382 1.343 . S
C2345 C2346 1.384 . S
C2345 C2347 1.384 . S
C2345 H2370 0.931 . S
C2346 C2345 1.384 . S
C2346 C2349 1.382 . S
C2347 C2345 1.384 . S
C2347 C2348 1.381 . S
C2347 H2371 0.930 . S
C2348 C2347 1.381 . S
C2348 C2350 1.381 . S
C2348 C2351 1.487 . S
C2349 C2346 1.382 . S
C2349 C2350 1.387 . S
C2349 H2372 0.930 . S
C2350 C2348 1.381 . S
C2350 C2349 1.387 . S
C2350 H2373 0.931 . S
C2351 C2344 1.399 . S
C2351 C2348 1.487 . S
C2351 N2383 1.343 . S
C2352 C2353 1.384 . S
C2352 C2354 1.384 . S
C2352 H2374 0.931 . S
C2353 C2352 1.384 . S
C2353 C2356 1.382 . S
C2354 C2352 1.384 . S
C2354 C2355 1.381 . S
C2354 H2375 0.930 . S
C2355 C2354 1.381 . S
C2355 C2357 1.381 . S
C2355 C2358 1.487 . S
C2356 C2353 1.382 . S
C2356 C2357 1.387 . S
C2356 H2376 0.930 . S
C2357 C2355 1.381 . S
C2357 C2356 1.387 . S
C2357 H2377 0.931 . S
C2358 C2355 1.487 . S
C2358 C2365 1.399 . S
C2358 N2383 1.343 . S
C2359 C2360 1.384 . S
C2359 C2361 1.384 . S
C2359 H2378 0.931 . S
C2360 C2359 1.384 . S
C2360 C2363 1.382 . S
C2361 C2359 1.384 . S
C2361 C2362 1.381 . S
C2361 H2379 0.930 . S
C2362 C2361 1.381 . S
C2362 C2364 1.381 . S
C2362 C2365 1.487 . S
C2363 C2360 1.382 . S
C2363 C2364 1.387 . S
C2363 H2380 0.930 . S
C2364 C2362 1.381 . S
C2364 C2363 1.387 . S
C2364 H2381 0.931 . S
C2365 C2358 1.399 . S
C2365 C2362 1.487 . S
C2365 N2382 1.343 . S
H2366 C2338 0.931 . S
H2367 C2340 0.930 . S
H2368 C2342 0.930 . S
H2369 C2343 0.931 . S
H2370 C2345 0.931 . S
H2371 C2347 0.930 . S
H2372 C2349 0.930 . S
H2373 C2350 0.931 . S
H2374 C2352 0.931 . S
H2375 C2354 0.930 . S
H2376 C2356 0.930 . S
H2377 C2357 0.931 . S
H2378 C2359 0.931 . S
H2379 C2361 0.930 . S
H2380 C2363 0.930 . S
H2381 C2364 0.931 . S
N2382 C2344 1.343 . S
N2382 C2365 1.343 . S
N2383 C2351 1.343 . S
N2383 C2358 1.343 . S
H2384 C2390 0.930 . S
H2385 C2394 0.930 . S
H2386 C2399 0.929 . S
H2387 C2397 0.929 . S
H2388 C2392 0.929 . S
H2389 C2398 0.929 . S
C2390 H2384 0.930 . S
C2390 C2391 1.367 . S
C2390 C2398 1.378 . S
C2391 C2390 1.367 . S
C2391 C2399 1.433 . S
C2392 H2388 0.929 . S
C2392 C2394 1.378 . S
C2392 C2396 1.350 . S
C2393 C2396 1.463 . S
C2393 C2398 1.350 . S
C2393 N2401 1.427 . S
C2394 H2385 0.930 . S
C2394 C2392 1.378 . S
C2394 C2395 1.367 . S
C2395 C2394 1.367 . S
C2395 C2397 1.433 . S
C2396 C2392 1.350 . S
C2396 C2393 1.463 . S
C2396 N2400 1.427 . S
C2397 H2387 0.929 . S
C2397 C2395 1.433 . S
C2397 N2400 1.384 . S
C2398 H2389 0.929 . S
C2398 C2390 1.378 . S
C2398 C2393 1.350 . S
C2399 H2386 0.929 . S
C2399 C2391 1.433 . S
C2399 N2401 1.384 . S
N2400 C2396 1.427 . S
N2400 C2397 1.384 . S
N2401 C2393 1.427 . S
N2401 C2399 1.384 . S
H2402 C2408 0.930 . S
H2403 C2412 0.930 . S
H2404 C2417 0.929 . S
H2405 C2415 0.929 . S
H2406 C2410 0.929 . S
H2407 C2416 0.929 . S
C2408 H2402 0.930 . S
C2408 C2409 1.367 . S
C2408 C2416 1.378 . S
C2409 C2408 1.367 . S
C2409 C2417 1.433 . S
C2410 H2406 0.929 . S
C2410 C2412 1.378 . S
C2410 C2414 1.350 . S
C2411 C2414 1.463 . S
C2411 C2416 1.350 . S
C2411 N2419 1.427 . S
C2412 H2403 0.930 . S
C2412 C2410 1.378 . S
C2412 C2413 1.367 . S
C2413 C2412 1.367 . S
C2413 C2415 1.433 . S
C2414 C2410 1.350 . S
C2414 C2411 1.463 . S
C2414 N2418 1.427 . S
C2415 H2405 0.929 . S
C2415 C2413 1.433 . S
C2415 N2418 1.384 . S
C2416 H2407 0.929 . S
C2416 C2408 1.378 . S
C2416 C2411 1.350 . S
C2417 H2404 0.929 . S
C2417 C2409 1.433 . S
C2417 N2419 1.384 . S
N2418 C2414 1.427 . S
N2418 C2415 1.384 . S
N2419 C2411 1.427 . S
N2419 C2417 1.384 . S
H2420 C2426 0.930 . S
H2421 C2430 0.930 . S
H2422 C2435 0.929 . S
H2423 C2433 0.929 . S
H2424 C2428 0.929 . S
H2425 C2434 0.929 . S
C2426 H2420 0.930 . S
C2426 C2427 1.367 . S
C2426 C2434 1.378 . S
C2427 C2426 1.367 . S
C2427 C2435 1.433 . S
C2428 H2424 0.929 . S
C2428 C2430 1.378 . S
C2428 C2432 1.350 . S
C2429 C2432 1.463 . S
C2429 C2434 1.350 . S
C2429 N2437 1.427 . S
C2430 H2421 0.930 . S
C2430 C2428 1.378 . S
C2430 C2431 1.367 . S
C2431 C2430 1.367 . S
C2431 C2433 1.433 . S
C2432 C2428 1.350 . S
C2432 C2429 1.463 . S
C2432 N2436 1.427 . S
C2433 H2423 0.929 . S
C2433 C2431 1.433 . S
C2433 N2436 1.384 . S
C2434 H2425 0.929 . S
C2434 C2426 1.378 . S
C2434 C2429 1.350 . S
C2435 H2422 0.929 . S
C2435 C2427 1.433 . S
C2435 N2437 1.384 . S
N2436 C2432 1.427 . S
N2436 C2433 1.384 . S
N2437 C2429 1.427 . S
N2437 C2435 1.384 . S
H2438 C2444 0.930 . S
H2439 C2448 0.930 . S
H2440 C2453 0.929 . S
H2441 C2451 0.929 . S
H2442 C2446 0.929 . S
H2443 C2452 0.929 . S
C2444 H2438 0.930 . S
C2444 C2445 1.367 . S
C2444 C2452 1.378 . S
C2445 C2444 1.367 . S
C2445 C2453 1.433 . S
C2446 H2442 0.929 . S
C2446 C2448 1.378 . S
C2446 C2450 1.350 . S
C2447 C2450 1.463 . S
C2447 C2452 1.350 . S
C2447 N2455 1.427 . S
C2448 H2439 0.930 . S
C2448 C2446 1.378 . S
C2448 C2449 1.367 . S
C2449 C2448 1.367 . S
C2449 C2451 1.433 . S
C2450 C2446 1.350 . S
C2450 C2447 1.463 . S
C2450 N2454 1.427 . S
C2451 H2441 0.929 . S
C2451 C2449 1.433 . S
C2451 N2454 1.384 . S
C2452 H2443 0.929 . S
C2452 C2444 1.378 . S
C2452 C2447 1.350 . S
C2453 H2440 0.929 . S
C2453 C2445 1.433 . S
C2453 N2455 1.384 . S
N2454 C2450 1.427 . S
N2454 C2451 1.384 . S
N2455 C2447 1.427 . S
N2455 C2453 1.384 . S
H2456 C2462 0.930 . S
H2457 C2466 0.930 . S
H2458 C2471 0.929 . S
H2459 C2469 0.929 . S
H2460 C2464 0.929 . S
H2461 C2470 0.929 . S
C2462 H2456 0.930 . S
C2462 C2463 1.367 . S
C2462 C2470 1.378 . S
C2463 C2462 1.367 . S
C2463 C2471 1.433 . S
C2464 H2460 0.929 . S
C2464 C2466 1.378 . S
C2464 C2468 1.350 . S
C2465 C2468 1.463 . S
C2465 C2470 1.350 . S
C2465 N2473 1.427 . S
C2466 H2457 0.930 . S
C2466 C2464 1.378 . S
C2466 C2467 1.367 . S
C2467 C2466 1.367 . S
C2467 C2469 1.433 . S
C2468 C2464 1.350 . S
C2468 C2465 1.463 . S
C2468 N2472 1.427 . S
C2469 H2459 0.929 . S
C2469 C2467 1.433 . S
C2469 N2472 1.384 . S
C2470 H2461 0.929 . S
C2470 C2462 1.378 . S
C2470 C2465 1.350 . S
C2471 H2458 0.929 . S
C2471 C2463 1.433 . S
C2471 N2473 1.384 . S
N2472 C2468 1.427 . S
N2472 C2469 1.384 . S
N2473 C2465 1.427 . S
N2473 C2471 1.384 . S
H2474 C2480 0.930 . S
H2475 C2484 0.930 . S
H2476 C2489 0.929 . S
H2477 C2487 0.929 . S
H2478 C2482 0.929 . S
H2479 C2488 0.929 . S
C2480 H2474 0.930 . S
C2480 C2481 1.367 . S
C2480 C2488 1.378 . S
C2481 C2480 1.367 . S
C2481 C2489 1.433 . S
C2482 H2478 0.929 . S
C2482 C2484 1.378 . S
C2482 C2486 1.350 . S
C2483 C2486 1.463 . S
C2483 C2488 1.350 . S
C2483 N2491 1.427 . S
C2484 H2475 0.930 . S
C2484 C2482 1.378 . S
C2484 C2485 1.367 . S
C2485 C2484 1.367 . S
C2485 C2487 1.433 . S
C2486 C2482 1.350 . S
C2486 C2483 1.463 . S
C2486 N2490 1.427 . S
C2487 H2477 0.929 . S
C2487 C2485 1.433 . S
C2487 N2490 1.384 . S
C2488 H2479 0.929 . S
C2488 C2480 1.378 . S
C2488 C2483 1.350 . S
C2489 H2476 0.929 . S
C2489 C2481 1.433 . S
C2489 N2491 1.384 . S
N2490 C2486 1.427 . S
N2490 C2487 1.384 . S
N2491 C2483 1.427 . S
N2491 C2489 1.384 . S
H2492 C2498 0.930 . S
H2493 C2502 0.930 . S
H2494 C2507 0.929 . S
H2495 C2505 0.929 . S
H2496 C2500 0.929 . S
H2497 C2506 0.929 . S
C2498 H2492 0.930 . S
C2498 C2499 1.367 . S
C2498 C2506 1.378 . S
C2499 C2498 1.367 . S
C2499 C2507 1.433 . S
C2500 H2496 0.929 . S
C2500 C2502 1.378 . S
C2500 C2504 1.350 . S
C2501 C2504 1.463 . S
C2501 C2506 1.350 . S
C2501 N2509 1.427 . S
C2502 H2493 0.930 . S
C2502 C2500 1.378 . S
C2502 C2503 1.367 . S
C2503 C2502 1.367 . S
C2503 C2505 1.433 . S
C2504 C2500 1.350 . S
C2504 C2501 1.463 . S
C2504 N2508 1.427 . S
C2505 H2495 0.929 . S
C2505 C2503 1.433 . S
C2505 N2508 1.384 . S
C2506 H2497 0.929 . S
C2506 C2498 1.378 . S
C2506 C2501 1.350 . S
C2507 H2494 0.929 . S
C2507 C2499 1.433 . S
C2507 N2509 1.384 . S
N2508 C2504 1.427 . S
N2508 C2505 1.384 . S
N2509 C2501 1.427 . S
N2509 C2507 1.384 . S
H2510 C2516 0.930 . S
H2511 C2520 0.930 . S
H2512 C2525 0.929 . S
H2513 C2523 0.929 . S
H2514 C2518 0.929 . S
H2515 C2524 0.929 . S
C2516 H2510 0.930 . S
C2516 C2517 1.367 . S
C2516 C2524 1.378 . S
C2517 C2516 1.367 . S
C2517 C2525 1.433 . S
C2518 H2514 0.929 . S
C2518 C2520 1.378 . S
C2518 C2522 1.350 . S
C2519 C2522 1.463 . S
C2519 C2524 1.350 . S
C2519 N2527 1.427 . S
C2520 H2511 0.930 . S
C2520 C2518 1.378 . S
C2520 C2521 1.367 . S
C2521 C2520 1.367 . S
C2521 C2523 1.433 . S
C2522 C2518 1.350 . S
C2522 C2519 1.463 . S
C2522 N2526 1.427 . S
C2523 H2513 0.929 . S
C2523 C2521 1.433 . S
C2523 N2526 1.384 . S
C2524 H2515 0.929 . S
C2524 C2516 1.378 . S
C2524 C2519 1.350 . S
C2525 H2512 0.929 . S
C2525 C2517 1.433 . S
C2525 N2527 1.384 . S
N2526 C2522 1.427 . S
N2526 C2523 1.384 . S
N2527 C2519 1.427 . S
N2527 C2525 1.384 . S
H2528 C2534 0.930 . S
H2529 C2538 0.930 . S
H2530 C2543 0.929 . S
H2531 C2541 0.929 . S
H2532 C2536 0.929 . S
H2533 C2542 0.929 . S
C2534 H2528 0.930 . S
C2534 C2535 1.367 . S
C2534 C2542 1.378 . S
C2535 C2534 1.367 . S
C2535 C2543 1.433 . S
C2536 H2532 0.929 . S
C2536 C2538 1.378 . S
C2536 C2540 1.350 . S
C2537 C2540 1.463 . S
C2537 C2542 1.350 . S
C2537 N2545 1.427 . S
C2538 H2529 0.930 . S
C2538 C2536 1.378 . S
C2538 C2539 1.367 . S
C2539 C2538 1.367 . S
C2539 C2541 1.433 . S
C2540 C2536 1.350 . S
C2540 C2537 1.463 . S
C2540 N2544 1.427 . S
C2541 H2531 0.929 . S
C2541 C2539 1.433 . S
C2541 N2544 1.384 . S
C2542 H2533 0.929 . S
C2542 C2534 1.378 . S
C2542 C2537 1.350 . S
C2543 H2530 0.929 . S
C2543 C2535 1.433 . S
C2543 N2545 1.384 . S
N2544 C2540 1.427 . S
N2544 C2541 1.384 . S
N2545 C2537 1.427 . S
N2545 C2543 1.384 . S
H2546 C2552 0.930 . S
H2547 C2556 0.930 . S
H2548 C2561 0.929 . S
H2549 C2559 0.929 . S
H2550 C2554 0.929 . S
H2551 C2560 0.929 . S
C2552 H2546 0.930 . S
C2552 C2553 1.367 . S
C2552 C2560 1.378 . S
C2553 C2552 1.367 . S
C2553 C2561 1.433 . S
C2554 H2550 0.929 . S
C2554 C2556 1.378 . S
C2554 C2558 1.350 . S
C2555 C2558 1.463 . S
C2555 C2560 1.350 . S
C2555 N2563 1.427 . S
C2556 H2547 0.930 . S
C2556 C2554 1.378 . S
C2556 C2557 1.367 . S
C2557 C2556 1.367 . S
C2557 C2559 1.433 . S
C2558 C2554 1.350 . S
C2558 C2555 1.463 . S
C2558 N2562 1.427 . S
C2559 H2549 0.929 . S
C2559 C2557 1.433 . S
C2559 N2562 1.384 . S
C2560 H2551 0.929 . S
C2560 C2552 1.378 . S
C2560 C2555 1.350 . S
C2561 H2548 0.929 . S
C2561 C2553 1.433 . S
C2561 N2563 1.384 . S
N2562 C2558 1.427 . S
N2562 C2559 1.384 . S
N2563 C2555 1.427 . S
N2563 C2561 1.384 . S
H2564 C2570 0.930 . S
H2565 C2574 0.930 . S
H2566 C2579 0.929 . S
H2567 C2577 0.929 . S
H2568 C2572 0.929 . S
H2569 C2578 0.929 . S
C2570 H2564 0.930 . S
C2570 C2571 1.367 . S
C2570 C2578 1.378 . S
C2571 C2570 1.367 . S
C2571 C2579 1.433 . S
C2572 H2568 0.929 . S
C2572 C2574 1.378 . S
C2572 C2576 1.350 . S
C2573 C2576 1.463 . S
C2573 C2578 1.350 . S
C2573 N2581 1.427 . S
C2574 H2565 0.930 . S
C2574 C2572 1.378 . S
C2574 C2575 1.367 . S
C2575 C2574 1.367 . S
C2575 C2577 1.433 . S
C2576 C2572 1.350 . S
C2576 C2573 1.463 . S
C2576 N2580 1.427 . S
C2577 H2567 0.929 . S
C2577 C2575 1.433 . S
C2577 N2580 1.384 . S
C2578 H2569 0.929 . S
C2578 C2570 1.378 . S
C2578 C2573 1.350 . S
C2579 H2566 0.929 . S
C2579 C2571 1.433 . S
C2579 N2581 1.384 . S
N2580 C2576 1.427 . S
N2580 C2577 1.384 . S
N2581 C2573 1.427 . S
N2581 C2579 1.384 . S
H2582 C2588 0.930 . S
H2583 C2592 0.930 . S
H2584 C2597 0.929 . S
H2585 C2595 0.929 . S
H2586 C2590 0.929 . S
H2587 C2596 0.929 . S
C2588 H2582 0.930 . S
C2588 C2589 1.367 . S
C2588 C2596 1.378 . S
C2589 C2588 1.367 . S
C2589 C2597 1.433 . S
C2590 H2586 0.929 . S
C2590 C2592 1.378 . S
C2590 C2594 1.350 . S
C2591 C2594 1.463 . S
C2591 C2596 1.350 . S
C2591 N2599 1.427 . S
C2592 H2583 0.930 . S
C2592 C2590 1.378 . S
C2592 C2593 1.367 . S
C2593 C2592 1.367 . S
C2593 C2595 1.433 . S
C2594 C2590 1.350 . S
C2594 C2591 1.463 . S
C2594 N2598 1.427 . S
C2595 H2585 0.929 . S
C2595 C2593 1.433 . S
C2595 N2598 1.384 . S
C2596 H2587 0.929 . S
C2596 C2588 1.378 . S
C2596 C2591 1.350 . S
C2597 H2584 0.929 . S
C2597 C2589 1.433 . S
C2597 N2599 1.384 . S
N2598 C2594 1.427 . S
N2598 C2595 1.384 . S
N2599 C2591 1.427 . S
N2599 C2597 1.384 . S
H2600 C2606 0.930 . S
H2601 C2610 0.930 . S
H2602 C2615 0.929 . S
H2603 C2613 0.929 . S
H2604 C2608 0.929 . S
H2605 C2614 0.929 . S
C2606 H2600 0.930 . S
C2606 C2607 1.367 . S
C2606 C2614 1.378 . S
C2607 C2606 1.367 . S
C2607 C2615 1.433 . S
C2608 H2604 0.929 . S
C2608 C2610 1.378 . S
C2608 C2612 1.350 . S
C2609 C2612 1.463 . S
C2609 C2614 1.350 . S
C2609 N2617 1.427 . S
C2610 H2601 0.930 . S
C2610 C2608 1.378 . S
C2610 C2611 1.367 . S
C2611 C2610 1.367 . S
C2611 C2613 1.433 . S
C2612 C2608 1.350 . S
C2612 C2609 1.463 . S
C2612 N2616 1.427 . S
C2613 H2603 0.929 . S
C2613 C2611 1.433 . S
C2613 N2616 1.384 . S
C2614 H2605 0.929 . S
C2614 C2606 1.378 . S
C2614 C2609 1.350 . S
C2615 H2602 0.929 . S
C2615 C2607 1.433 . S
C2615 N2617 1.384 . S
N2616 C2612 1.427 . S
N2616 C2613 1.384 . S
N2617 C2609 1.427 . S
N2617 C2615 1.384 . S
H2618 C2624 0.930 . S
H2619 C2628 0.930 . S
H2620 C2633 0.929 . S
H2621 C2631 0.929 . S
H2622 C2626 0.929 . S
H2623 C2632 0.929 . S
C2624 H2618 0.930 . S
C2624 C2625 1.367 . S
C2624 C2632 1.378 . S
C2625 C2624 1.367 . S
C2625 C2633 1.433 . S
C2626 H2622 0.929 . S
C2626 C2628 1.378 . S
C2626 C2630 1.350 . S
C2627 C2630 1.463 . S
C2627 C2632 1.350 . S
C2627 N2635 1.427 . S
C2628 H2619 0.930 . S
C2628 C2626 1.378 . S
C2628 C2629 1.367 . S
C2629 C2628 1.367 . S
C2629 C2631 1.433 . S
C2630 C2626 1.350 . S
C2630 C2627 1.463 . S
C2630 N2634 1.427 . S
C2631 H2621 0.929 . S
C2631 C2629 1.433 . S
C2631 N2634 1.384 . S
C2632 H2623 0.929 . S
C2632 C2624 1.378 . S
C2632 C2627 1.350 . S
C2633 H2620 0.929 . S
C2633 C2625 1.433 . S
C2633 N2635 1.384 . S
N2634 C2630 1.427 . S
N2634 C2631 1.384 . S
N2635 C2627 1.427 . S
N2635 C2633 1.384 . S
H2636 C2642 0.930 . S
H2637 C2646 0.930 . S
H2638 C2651 0.929 . S
H2639 C2649 0.929 . S
H2640 C2644 0.929 . S
H2641 C2650 0.929 . S
C2642 H2636 0.930 . S
C2642 C2643 1.367 . S
C2642 C2650 1.378 . S
C2643 C2642 1.367 . S
C2643 C2651 1.433 . S
C2644 H2640 0.929 . S
C2644 C2646 1.378 . S
C2644 C2648 1.350 . S
C2645 C2648 1.463 . S
C2645 C2650 1.350 . S
C2645 N2653 1.427 . S
C2646 H2637 0.930 . S
C2646 C2644 1.378 . S
C2646 C2647 1.367 . S
C2647 C2646 1.367 . S
C2647 C2649 1.433 . S
C2648 C2644 1.350 . S
C2648 C2645 1.463 . S
C2648 N2652 1.427 . S
C2649 H2639 0.929 . S
C2649 C2647 1.433 . S
C2649 N2652 1.384 . S
C2650 H2641 0.929 . S
C2650 C2642 1.378 . S
C2650 C2645 1.350 . S
C2651 H2638 0.929 . S
C2651 C2643 1.433 . S
C2651 N2653 1.384 . S
N2652 C2648 1.427 . S
N2652 C2649 1.384 . S
N2653 C2645 1.427 . S
N2653 C2651 1.384 . S
H2654 C2660 0.930 . S
H2655 C2664 0.930 . S
H2656 C2669 0.929 . S
H2657 C2667 0.929 . S
H2658 C2662 0.929 . S
H2659 C2668 0.929 . S
C2660 H2654 0.930 . S
C2660 C2661 1.367 . S
C2660 C2668 1.378 . S
C2661 C2660 1.367 . S
C2661 C2669 1.433 . S
C2662 H2658 0.929 . S
C2662 C2664 1.378 . S
C2662 C2666 1.350 . S
C2663 C2666 1.463 . S
C2663 C2668 1.350 . S
C2663 N2671 1.427 . S
C2664 H2655 0.930 . S
C2664 C2662 1.378 . S
C2664 C2665 1.367 . S
C2665 C2664 1.367 . S
C2665 C2667 1.433 . S
C2666 C2662 1.350 . S
C2666 C2663 1.463 . S
C2666 N2670 1.427 . S
C2667 H2657 0.929 . S
C2667 C2665 1.433 . S
C2667 N2670 1.384 . S
C2668 H2659 0.929 . S
C2668 C2660 1.378 . S
C2668 C2663 1.350 . S
C2669 H2656 0.929 . S
C2669 C2661 1.433 . S
C2669 N2671 1.384 . S
N2670 C2666 1.427 . S
N2670 C2667 1.384 . S
N2671 C2663 1.427 . S
N2671 C2669 1.384 . S
H2672 C2678 0.930 . S
H2673 C2682 0.930 . S
H2674 C2687 0.929 . S
H2675 C2685 0.929 . S
H2676 C2680 0.929 . S
H2677 C2686 0.929 . S
C2678 H2672 0.930 . S
C2678 C2679 1.367 . S
C2678 C2686 1.378 . S
C2679 C2678 1.367 . S
C2679 C2687 1.433 . S
C2680 H2676 0.929 . S
C2680 C2682 1.378 . S
C2680 C2684 1.350 . S
C2681 C2684 1.463 . S
C2681 C2686 1.350 . S
C2681 N2689 1.427 . S
C2682 H2673 0.930 . S
C2682 C2680 1.378 . S
C2682 C2683 1.367 . S
C2683 C2682 1.367 . S
C2683 C2685 1.433 . S
C2684 C2680 1.350 . S
C2684 C2681 1.463 . S
C2684 N2688 1.427 . S
C2685 H2675 0.929 . S
C2685 C2683 1.433 . S
C2685 N2688 1.384 . S
C2686 H2677 0.929 . S
C2686 C2678 1.378 . S
C2686 C2681 1.350 . S
C2687 H2674 0.929 . S
C2687 C2679 1.433 . S
C2687 N2689 1.384 . S
N2688 C2684 1.427 . S
N2688 C2685 1.384 . S
N2689 C2681 1.427 . S
N2689 C2687 1.384 . S
H2690 C2696 0.930 . S
H2691 C2700 0.930 . S
H2692 C2705 0.929 . S
H2693 C2703 0.929 . S
H2694 C2698 0.929 . S
H2695 C2704 0.929 . S
C2696 H2690 0.930 . S
C2696 C2697 1.367 . S
C2696 C2704 1.378 . S
C2697 C2696 1.367 . S
C2697 C2705 1.433 . S
C2698 H2694 0.929 . S
C2698 C2700 1.378 . S
C2698 C2702 1.350 . S
C2699 C2702 1.463 . S
C2699 C2704 1.350 . S
C2699 N2707 1.427 . S
C2700 H2691 0.930 . S
C2700 C2698 1.378 . S
C2700 C2701 1.367 . S
C2701 C2700 1.367 . S
C2701 C2703 1.433 . S
C2702 C2698 1.350 . S
C2702 C2699 1.463 . S
C2702 N2706 1.427 . S
C2703 H2693 0.929 . S
C2703 C2701 1.433 . S
C2703 N2706 1.384 . S
C2704 H2695 0.929 . S
C2704 C2696 1.378 . S
C2704 C2699 1.350 . S
C2705 H2692 0.929 . S
C2705 C2697 1.433 . S
C2705 N2707 1.384 . S
N2706 C2702 1.427 . S
N2706 C2703 1.384 . S
N2707 C2699 1.427 . S
N2707 C2705 1.384 . S
H2708 C2714 0.930 . S
H2709 C2718 0.930 . S
H2710 C2723 0.929 . S
H2711 C2721 0.929 . S
H2712 C2716 0.929 . S
H2713 C2722 0.929 . S
C2714 H2708 0.930 . S
C2714 C2715 1.367 . S
C2714 C2722 1.378 . S
C2715 C2714 1.367 . S
C2715 C2723 1.433 . S
C2716 H2712 0.929 . S
C2716 C2718 1.378 . S
C2716 C2720 1.350 . S
C2717 C2720 1.463 . S
C2717 C2722 1.350 . S
C2717 N2725 1.427 . S
C2718 H2709 0.930 . S
C2718 C2716 1.378 . S
C2718 C2719 1.367 . S
C2719 C2718 1.367 . S
C2719 C2721 1.433 . S
C2720 C2716 1.350 . S
C2720 C2717 1.463 . S
C2720 N2724 1.427 . S
C2721 H2711 0.929 . S
C2721 C2719 1.433 . S
C2721 N2724 1.384 . S
C2722 H2713 0.929 . S
C2722 C2714 1.378 . S
C2722 C2717 1.350 . S
C2723 H2710 0.929 . S
C2723 C2715 1.433 . S
C2723 N2725 1.384 . S
N2724 C2720 1.427 . S
N2724 C2721 1.384 . S
N2725 C2717 1.427 . S
N2725 C2723 1.384 . S
H2726 C2732 0.930 . S
H2727 C2736 0.930 . S
H2728 C2741 0.929 . S
H2729 C2739 0.929 . S
H2730 C2734 0.929 . S
H2731 C2740 0.929 . S
C2732 H2726 0.930 . S
C2732 C2733 1.367 . S
C2732 C2740 1.378 . S
C2733 C2732 1.367 . S
C2733 C2741 1.433 . S
C2734 H2730 0.929 . S
C2734 C2736 1.378 . S
C2734 C2738 1.350 . S
C2735 C2738 1.463 . S
C2735 C2740 1.350 . S
C2735 N2743 1.427 . S
C2736 H2727 0.930 . S
C2736 C2734 1.378 . S
C2736 C2737 1.367 . S
C2737 C2736 1.367 . S
C2737 C2739 1.433 . S
C2738 C2734 1.350 . S
C2738 C2735 1.463 . S
C2738 N2742 1.427 . S
C2739 H2729 0.929 . S
C2739 C2737 1.433 . S
C2739 N2742 1.384 . S
C2740 H2731 0.929 . S
C2740 C2732 1.378 . S
C2740 C2735 1.350 . S
C2741 H2728 0.929 . S
C2741 C2733 1.433 . S
C2741 N2743 1.384 . S
N2742 C2738 1.427 . S
N2742 C2739 1.384 . S
N2743 C2735 1.427 . S
N2743 C2741 1.384 . S
H2744 C2750 0.930 . S
H2745 C2754 0.930 . S
H2746 C2759 0.929 . S
H2747 C2757 0.929 . S
H2748 C2752 0.929 . S
H2749 C2758 0.929 . S
C2750 H2744 0.930 . S
C2750 C2751 1.367 . S
C2750 C2758 1.378 . S
C2751 C2750 1.367 . S
C2751 C2759 1.433 . S
C2752 H2748 0.929 . S
C2752 C2754 1.378 . S
C2752 C2756 1.350 . S
C2753 C2756 1.463 . S
C2753 C2758 1.350 . S
C2753 N2761 1.427 . S
C2754 H2745 0.930 . S
C2754 C2752 1.378 . S
C2754 C2755 1.367 . S
C2755 C2754 1.367 . S
C2755 C2757 1.433 . S
C2756 C2752 1.350 . S
C2756 C2753 1.463 . S
C2756 N2760 1.427 . S
C2757 H2747 0.929 . S
C2757 C2755 1.433 . S
C2757 N2760 1.384 . S
C2758 H2749 0.929 . S
C2758 C2750 1.378 . S
C2758 C2753 1.350 . S
C2759 H2746 0.929 . S
C2759 C2751 1.433 . S
C2759 N2761 1.384 . S
N2760 C2756 1.427 . S
N2760 C2757 1.384 . S
N2761 C2753 1.427 . S
N2761 C2759 1.384 . S
H2762 C2768 0.930 . S
H2763 C2772 0.930 . S
H2764 C2777 0.929 . S
H2765 C2775 0.929 . S
H2766 C2770 0.929 . S
H2767 C2776 0.929 . S
C2768 H2762 0.930 . S
C2768 C2769 1.367 . S
C2768 C2776 1.378 . S
C2769 C2768 1.367 . S
C2769 C2777 1.433 . S
C2770 H2766 0.929 . S
C2770 C2772 1.378 . S
C2770 C2774 1.350 . S
C2771 C2774 1.463 . S
C2771 C2776 1.350 . S
C2771 N2779 1.427 . S
C2772 H2763 0.930 . S
C2772 C2770 1.378 . S
C2772 C2773 1.367 . S
C2773 C2772 1.367 . S
C2773 C2775 1.433 . S
C2774 C2770 1.350 . S
C2774 C2771 1.463 . S
C2774 N2778 1.427 . S
C2775 H2765 0.929 . S
C2775 C2773 1.433 . S
C2775 N2778 1.384 . S
C2776 H2767 0.929 . S
C2776 C2768 1.378 . S
C2776 C2771 1.350 . S
C2777 H2764 0.929 . S
C2777 C2769 1.433 . S
C2777 N2779 1.384 . S
N2778 C2774 1.427 . S
N2778 C2775 1.384 . S
N2779 C2771 1.427 . S
N2779 C2777 1.384 . S
H2780 C2786 0.930 . S
H2781 C2790 0.930 . S
H2782 C2795 0.929 . S
H2783 C2793 0.929 . S
H2784 C2788 0.929 . S
H2785 C2794 0.929 . S
C2786 H2780 0.930 . S
C2786 C2787 1.367 . S
C2786 C2794 1.378 . S
C2787 C2786 1.367 . S
C2787 C2795 1.433 . S
C2788 H2784 0.929 . S
C2788 C2790 1.378 . S
C2788 C2792 1.350 . S
C2789 C2792 1.463 . S
C2789 C2794 1.350 . S
C2789 N2797 1.427 . S
C2790 H2781 0.930 . S
C2790 C2788 1.378 . S
C2790 C2791 1.367 . S
C2791 C2790 1.367 . S
C2791 C2793 1.433 . S
C2792 C2788 1.350 . S
C2792 C2789 1.463 . S
C2792 N2796 1.427 . S
C2793 H2783 0.929 . S
C2793 C2791 1.433 . S
C2793 N2796 1.384 . S
C2794 H2785 0.929 . S
C2794 C2786 1.378 . S
C2794 C2789 1.350 . S
C2795 H2782 0.929 . S
C2795 C2787 1.433 . S
C2795 N2797 1.384 . S
N2796 C2792 1.427 . S
N2796 C2793 1.384 . S
N2797 C2789 1.427 . S
N2797 C2795 1.384 . S
H2798 C2804 0.930 . S
H2799 C2808 0.930 . S
H2800 C2813 0.929 . S
H2801 C2811 0.929 . S
H2802 C2806 0.929 . S
H2803 C2812 0.929 . S
C2804 H2798 0.930 . S
C2804 C2805 1.367 . S
C2804 C2812 1.378 . S
C2805 C2804 1.367 . S
C2805 C2813 1.433 . S
C2806 H2802 0.929 . S
C2806 C2808 1.378 . S
C2806 C2810 1.350 . S
C2807 C2810 1.463 . S
C2807 C2812 1.350 . S
C2807 N2815 1.427 . S
C2808 H2799 0.930 . S
C2808 C2806 1.378 . S
C2808 C2809 1.367 . S
C2809 C2808 1.367 . S
C2809 C2811 1.433 . S
C2810 C2806 1.350 . S
C2810 C2807 1.463 . S
C2810 N2814 1.427 . S
C2811 H2801 0.929 . S
C2811 C2809 1.433 . S
C2811 N2814 1.384 . S
C2812 H2803 0.929 . S
C2812 C2804 1.378 . S
C2812 C2807 1.350 . S
C2813 H2800 0.929 . S
C2813 C2805 1.433 . S
C2813 N2815 1.384 . S
N2814 C2810 1.427 . S
N2814 C2811 1.384 . S
N2815 C2807 1.427 . S
N2815 C2813 1.384 . S
H2816 C2822 0.930 . S
H2817 C2826 0.930 . S
H2818 C2831 0.929 . S
H2819 C2829 0.929 . S
H2820 C2824 0.929 . S
H2821 C2830 0.929 . S
C2822 H2816 0.930 . S
C2822 C2823 1.367 . S
C2822 C2830 1.378 . S
C2823 C2822 1.367 . S
C2823 C2831 1.433 . S
C2824 H2820 0.929 . S
C2824 C2826 1.378 . S
C2824 C2828 1.350 . S
C2825 C2828 1.463 . S
C2825 C2830 1.350 . S
C2825 N2833 1.427 . S
C2826 H2817 0.930 . S
C2826 C2824 1.378 . S
C2826 C2827 1.367 . S
C2827 C2826 1.367 . S
C2827 C2829 1.433 . S
C2828 C2824 1.350 . S
C2828 C2825 1.463 . S
C2828 N2832 1.427 . S
C2829 H2819 0.929 . S
C2829 C2827 1.433 . S
C2829 N2832 1.384 . S
C2830 H2821 0.929 . S
C2830 C2822 1.378 . S
C2830 C2825 1.350 . S
C2831 H2818 0.929 . S
C2831 C2823 1.433 . S
C2831 N2833 1.384 . S
N2832 C2828 1.427 . S
N2832 C2829 1.384 . S
N2833 C2825 1.427 . S
N2833 C2831 1.384 . S
H2834 C2840 0.930 . S
H2835 C2844 0.930 . S
H2836 C2849 0.929 . S
H2837 C2847 0.929 . S
H2838 C2842 0.929 . S
H2839 C2848 0.929 . S
C2840 H2834 0.930 . S
C2840 C2841 1.367 . S
C2840 C2848 1.378 . S
C2841 C2840 1.367 . S
C2841 C2849 1.433 . S
C2842 H2838 0.929 . S
C2842 C2844 1.378 . S
C2842 C2846 1.350 . S
C2843 C2846 1.463 . S
C2843 C2848 1.350 . S
C2843 N2851 1.427 . S
C2844 H2835 0.930 . S
C2844 C2842 1.378 . S
C2844 C2845 1.367 . S
C2845 C2844 1.367 . S
C2845 C2847 1.433 . S
C2846 C2842 1.350 . S
C2846 C2843 1.463 . S
C2846 N2850 1.427 . S
C2847 H2837 0.929 . S
C2847 C2845 1.433 . S
C2847 N2850 1.384 . S
C2848 H2839 0.929 . S
C2848 C2840 1.378 . S
C2848 C2843 1.350 . S
C2849 H2836 0.929 . S
C2849 C2841 1.433 . S
C2849 N2851 1.384 . S
N2850 C2846 1.427 . S
N2850 C2847 1.384 . S
N2851 C2843 1.427 . S
N2851 C2849 1.384 . S
H2852 C2858 0.930 . S
H2853 C2862 0.930 . S
H2854 C2867 0.929 . S
H2855 C2865 0.929 . S
H2856 C2860 0.929 . S
H2857 C2866 0.929 . S
C2858 H2852 0.930 . S
C2858 C2859 1.367 . S
C2858 C2866 1.378 . S
C2859 C2858 1.367 . S
C2859 C2867 1.433 . S
C2860 H2856 0.929 . S
C2860 C2862 1.378 . S
C2860 C2864 1.350 . S
C2861 C2864 1.463 . S
C2861 C2866 1.350 . S
C2861 N2869 1.427 . S
C2862 H2853 0.930 . S
C2862 C2860 1.378 . S
C2862 C2863 1.367 . S
C2863 C2862 1.367 . S
C2863 C2865 1.433 . S
C2864 C2860 1.350 . S
C2864 C2861 1.463 . S
C2864 N2868 1.427 . S
C2865 H2855 0.929 . S
C2865 C2863 1.433 . S
C2865 N2868 1.384 . S
C2866 H2857 0.929 . S
C2866 C2858 1.378 . S
C2866 C2861 1.350 . S
C2867 H2854 0.929 . S
C2867 C2859 1.433 . S
C2867 N2869 1.384 . S
N2868 C2864 1.427 . S
N2868 C2865 1.384 . S
N2869 C2861 1.427 . S
N2869 C2867 1.384 . S
H2870 C2876 0.930 . S
H2871 C2880 0.930 . S
H2872 C2885 0.929 . S
H2873 C2883 0.929 . S
H2874 C2878 0.929 . S
H2875 C2884 0.929 . S
C2876 H2870 0.930 . S
C2876 C2877 1.367 . S
C2876 C2884 1.378 . S
C2877 C2876 1.367 . S
C2877 C2885 1.433 . S
C2878 H2874 0.929 . S
C2878 C2880 1.378 . S
C2878 C2882 1.350 . S
C2879 C2882 1.463 . S
C2879 C2884 1.350 . S
C2879 N2887 1.427 . S
C2880 H2871 0.930 . S
C2880 C2878 1.378 . S
C2880 C2881 1.367 . S
C2881 C2880 1.367 . S
C2881 C2883 1.433 . S
C2882 C2878 1.350 . S
C2882 C2879 1.463 . S
C2882 N2886 1.427 . S
C2883 H2873 0.929 . S
C2883 C2881 1.433 . S
C2883 N2886 1.384 . S
C2884 H2875 0.929 . S
C2884 C2876 1.378 . S
C2884 C2879 1.350 . S
C2885 H2872 0.929 . S
C2885 C2877 1.433 . S
C2885 N2887 1.384 . S
N2886 C2882 1.427 . S
N2886 C2883 1.384 . S
N2887 C2879 1.427 . S
N2887 C2885 1.384 . S
H2888 C2894 0.930 . S
H2889 C2898 0.930 . S
H2890 C2903 0.929 . S
H2891 C2901 0.929 . S
H2892 C2896 0.929 . S
H2893 C2902 0.929 . S
C2894 H2888 0.930 . S
C2894 C2895 1.367 . S
C2894 C2902 1.378 . S
C2895 C2894 1.367 . S
C2895 C2903 1.433 . S
C2896 H2892 0.929 . S
C2896 C2898 1.378 . S
C2896 C2900 1.350 . S
C2897 C2900 1.463 . S
C2897 C2902 1.350 . S
C2897 N2905 1.427 . S
C2898 H2889 0.930 . S
C2898 C2896 1.378 . S
C2898 C2899 1.367 . S
C2899 C2898 1.367 . S
C2899 C2901 1.433 . S
C2900 C2896 1.350 . S
C2900 C2897 1.463 . S
C2900 N2904 1.427 . S
C2901 H2891 0.929 . S
C2901 C2899 1.433 . S
C2901 N2904 1.384 . S
C2902 H2893 0.929 . S
C2902 C2894 1.378 . S
C2902 C2897 1.350 . S
C2903 H2890 0.929 . S
C2903 C2895 1.433 . S
C2903 N2905 1.384 . S
N2904 C2900 1.427 . S
N2904 C2901 1.384 . S
N2905 C2897 1.427 . S
N2905 C2903 1.384 . S
H2906 C2912 0.930 . S
H2907 C2916 0.930 . S
H2908 C2921 0.929 . S
H2909 C2919 0.929 . S
H2910 C2914 0.929 . S
H2911 C2920 0.929 . S
C2912 H2906 0.930 . S
C2912 C2913 1.367 . S
C2912 C2920 1.378 . S
C2913 C2912 1.367 . S
C2913 C2921 1.433 . S
C2914 H2910 0.929 . S
C2914 C2916 1.378 . S
C2914 C2918 1.350 . S
C2915 C2918 1.463 . S
C2915 C2920 1.350 . S
C2915 N2923 1.427 . S
C2916 H2907 0.930 . S
C2916 C2914 1.378 . S
C2916 C2917 1.367 . S
C2917 C2916 1.367 . S
C2917 C2919 1.433 . S
C2918 C2914 1.350 . S
C2918 C2915 1.463 . S
C2918 N2922 1.427 . S
C2919 H2909 0.929 . S
C2919 C2917 1.433 . S
C2919 N2922 1.384 . S
C2920 H2911 0.929 . S
C2920 C2912 1.378 . S
C2920 C2915 1.350 . S
C2921 H2908 0.929 . S
C2921 C2913 1.433 . S
C2921 N2923 1.384 . S
N2922 C2918 1.427 . S
N2922 C2919 1.384 . S
N2923 C2915 1.427 . S
N2923 C2921 1.384 . S
H2924 C2930 0.930 . S
H2925 C2934 0.930 . S
H2926 C2939 0.929 . S
H2927 C2937 0.929 . S
H2928 C2932 0.929 . S
H2929 C2938 0.929 . S
C2930 H2924 0.930 . S
C2930 C2931 1.367 . S
C2930 C2938 1.378 . S
C2931 C2930 1.367 . S
C2931 C2939 1.433 . S
C2932 H2928 0.929 . S
C2932 C2934 1.378 . S
C2932 C2936 1.350 . S
C2933 C2936 1.463 . S
C2933 C2938 1.350 . S
C2933 N2941 1.427 . S
C2934 H2925 0.930 . S
C2934 C2932 1.378 . S
C2934 C2935 1.367 . S
C2935 C2934 1.367 . S
C2935 C2937 1.433 . S
C2936 C2932 1.350 . S
C2936 C2933 1.463 . S
C2936 N2940 1.427 . S
C2937 H2927 0.929 . S
C2937 C2935 1.433 . S
C2937 N2940 1.384 . S
C2938 H2929 0.929 . S
C2938 C2930 1.378 . S
C2938 C2933 1.350 . S
C2939 H2926 0.929 . S
C2939 C2931 1.433 . S
C2939 N2941 1.384 . S
N2940 C2936 1.427 . S
N2940 C2937 1.384 . S
N2941 C2933 1.427 . S
N2941 C2939 1.384 . S
H2942 C2948 0.930 . S
H2943 C2952 0.930 . S
H2944 C2957 0.929 . S
H2945 C2955 0.929 . S
H2946 C2950 0.929 . S
H2947 C2956 0.929 . S
C2948 H2942 0.930 . S
C2948 C2949 1.367 . S
C2948 C2956 1.378 . S
C2949 C2948 1.367 . S
C2949 C2957 1.433 . S
C2950 H2946 0.929 . S
C2950 C2952 1.378 . S
C2950 C2954 1.350 . S
C2951 C2954 1.463 . S
C2951 C2956 1.350 . S
C2951 N2959 1.427 . S
C2952 H2943 0.930 . S
C2952 C2950 1.378 . S
C2952 C2953 1.367 . S
C2953 C2952 1.367 . S
C2953 C2955 1.433 . S
C2954 C2950 1.350 . S
C2954 C2951 1.463 . S
C2954 N2958 1.427 . S
C2955 H2945 0.929 . S
C2955 C2953 1.433 . S
C2955 N2958 1.384 . S
C2956 H2947 0.929 . S
C2956 C2948 1.378 . S
C2956 C2951 1.350 . S
C2957 H2944 0.929 . S
C2957 C2949 1.433 . S
C2957 N2959 1.384 . S
N2958 C2954 1.427 . S
N2958 C2955 1.384 . S
N2959 C2951 1.427 . S
N2959 C2957 1.384 . S
H2960 C2966 0.930 . S
H2961 C2970 0.930 . S
H2962 C2975 0.929 . S
H2963 C2973 0.929 . S
H2964 C2968 0.929 . S
H2965 C2974 0.929 . S
C2966 H2960 0.930 . S
C2966 C2967 1.367 . S
C2966 C2974 1.378 . S
C2967 C2966 1.367 . S
C2967 C2975 1.433 . S
C2968 H2964 0.929 . S
C2968 C2970 1.378 . S
C2968 C2972 1.350 . S
C2969 C2972 1.463 . S
C2969 C2974 1.350 . S
C2969 N2977 1.427 . S
C2970 H2961 0.930 . S
C2970 C2968 1.378 . S
C2970 C2971 1.367 . S
C2971 C2970 1.367 . S
C2971 C2973 1.433 . S
C2972 C2968 1.350 . S
C2972 C2969 1.463 . S
C2972 N2976 1.427 . S
C2973 H2963 0.929 . S
C2973 C2971 1.433 . S
C2973 N2976 1.384 . S
C2974 H2965 0.929 . S
C2974 C2966 1.378 . S
C2974 C2969 1.350 . S
C2975 H2962 0.929 . S
C2975 C2967 1.433 . S
C2975 N2977 1.384 . S
N2976 C2972 1.427 . S
N2976 C2973 1.384 . S
N2977 C2969 1.427 . S
N2977 C2975 1.384 . S
H2978 C2984 0.930 . S
H2979 C2988 0.930 . S
H2980 C2993 0.929 . S
H2981 C2991 0.929 . S
H2982 C2986 0.929 . S
H2983 C2992 0.929 . S
C2984 H2978 0.930 . S
C2984 C2985 1.367 . S
C2984 C2992 1.378 . S
C2985 C2984 1.367 . S
C2985 C2993 1.433 . S
C2986 H2982 0.929 . S
C2986 C2988 1.378 . S
C2986 C2990 1.350 . S
C2987 C2990 1.463 . S
C2987 C2992 1.350 . S
C2987 N2995 1.427 . S
C2988 H2979 0.930 . S
C2988 C2986 1.378 . S
C2988 C2989 1.367 . S
C2989 C2988 1.367 . S
C2989 C2991 1.433 . S
C2990 C2986 1.350 . S
C2990 C2987 1.463 . S
C2990 N2994 1.427 . S
C2991 H2981 0.929 . S
C2991 C2989 1.433 . S
C2991 N2994 1.384 . S
C2992 H2983 0.929 . S
C2992 C2984 1.378 . S
C2992 C2987 1.350 . S
C2993 H2980 0.929 . S
C2993 C2985 1.433 . S
C2993 N2995 1.384 . S
N2994 C2990 1.427 . S
N2994 C2991 1.384 . S
N2995 C2987 1.427 . S
N2995 C2993 1.384 . S
H2996 C3002 0.930 . S
H2997 C3006 0.930 . S
H2998 C3011 0.929 . S
H2999 C3009 0.929 . S
H3000 C3004 0.929 . S
H3001 C3010 0.929 . S
C3002 H2996 0.930 . S
C3002 C3003 1.367 . S
C3002 C3010 1.378 . S
C3003 C3002 1.367 . S
C3003 C3011 1.433 . S
C3004 H3000 0.929 . S
C3004 C3006 1.378 . S
C3004 C3008 1.350 . S
C3005 C3008 1.463 . S
C3005 C3010 1.350 . S
C3005 N3013 1.427 . S
C3006 H2997 0.930 . S
C3006 C3004 1.378 . S
C3006 C3007 1.367 . S
C3007 C3006 1.367 . S
C3007 C3009 1.433 . S
C3008 C3004 1.350 . S
C3008 C3005 1.463 . S
C3008 N3012 1.427 . S
C3009 H2999 0.929 . S
C3009 C3007 1.433 . S
C3009 N3012 1.384 . S
C3010 H3001 0.929 . S
C3010 C3002 1.378 . S
C3010 C3005 1.350 . S
C3011 H2998 0.929 . S
C3011 C3003 1.433 . S
C3011 N3013 1.384 . S
N3012 C3008 1.427 . S
N3012 C3009 1.384 . S
N3013 C3005 1.427 . S
N3013 C3011 1.384 . S
H3014 C3020 0.930 . S
H3015 C3024 0.930 . S
H3016 C3029 0.929 . S
H3017 C3027 0.929 . S
H3018 C3022 0.929 . S
H3019 C3028 0.929 . S
C3020 H3014 0.930 . S
C3020 C3021 1.367 . S
C3020 C3028 1.378 . S
C3021 C3020 1.367 . S
C3021 C3029 1.433 . S
C3022 H3018 0.929 . S
C3022 C3024 1.378 . S
C3022 C3026 1.350 . S
C3023 C3026 1.463 . S
C3023 C3028 1.350 . S
C3023 N3031 1.427 . S
C3024 H3015 0.930 . S
C3024 C3022 1.378 . S
C3024 C3025 1.367 . S
C3025 C3024 1.367 . S
C3025 C3027 1.433 . S
C3026 C3022 1.350 . S
C3026 C3023 1.463 . S
C3026 N3030 1.427 . S
C3027 H3017 0.929 . S
C3027 C3025 1.433 . S
C3027 N3030 1.384 . S
C3028 H3019 0.929 . S
C3028 C3020 1.378 . S
C3028 C3023 1.350 . S
C3029 H3016 0.929 . S
C3029 C3021 1.433 . S
C3029 N3031 1.384 . S
N3030 C3026 1.427 . S
N3030 C3027 1.384 . S
N3031 C3023 1.427 . S
N3031 C3029 1.384 . S
H3032 C3038 0.930 . S
H3033 C3042 0.930 . S
H3034 C3047 0.929 . S
H3035 C3045 0.929 . S
H3036 C3040 0.929 . S
H3037 C3046 0.929 . S
C3038 H3032 0.930 . S
C3038 C3039 1.367 . S
C3038 C3046 1.378 . S
C3039 C3038 1.367 . S
C3039 C3047 1.433 . S
C3040 H3036 0.929 . S
C3040 C3042 1.378 . S
C3040 C3044 1.350 . S
C3041 C3044 1.463 . S
C3041 C3046 1.350 . S
C3041 N3049 1.427 . S
C3042 H3033 0.930 . S
C3042 C3040 1.378 . S
C3042 C3043 1.367 . S
C3043 C3042 1.367 . S
C3043 C3045 1.433 . S
C3044 C3040 1.350 . S
C3044 C3041 1.463 . S
C3044 N3048 1.427 . S
C3045 H3035 0.929 . S
C3045 C3043 1.433 . S
C3045 N3048 1.384 . S
C3046 H3037 0.929 . S
C3046 C3038 1.378 . S
C3046 C3041 1.350 . S
C3047 H3034 0.929 . S
C3047 C3039 1.433 . S
C3047 N3049 1.384 . S
N3048 C3044 1.427 . S
N3048 C3045 1.384 . S
N3049 C3041 1.427 . S
N3049 C3047 1.384 . S
H3050 C3056 0.930 . S
H3051 C3060 0.930 . S
H3052 C3065 0.929 . S
H3053 C3063 0.929 . S
H3054 C3058 0.929 . S
H3055 C3064 0.929 . S
C3056 H3050 0.930 . S
C3056 C3057 1.367 . S
C3056 C3064 1.378 . S
C3057 C3056 1.367 . S
C3057 C3065 1.433 . S
C3058 H3054 0.929 . S
C3058 C3060 1.378 . S
C3058 C3062 1.350 . S
C3059 C3062 1.463 . S
C3059 C3064 1.350 . S
C3059 N3067 1.427 . S
C3060 H3051 0.930 . S
C3060 C3058 1.378 . S
C3060 C3061 1.367 . S
C3061 C3060 1.367 . S
C3061 C3063 1.433 . S
C3062 C3058 1.350 . S
C3062 C3059 1.463 . S
C3062 N3066 1.427 . S
C3063 H3053 0.929 . S
C3063 C3061 1.433 . S
C3063 N3066 1.384 . S
C3064 H3055 0.929 . S
C3064 C3056 1.378 . S
C3064 C3059 1.350 . S
C3065 H3052 0.929 . S
C3065 C3057 1.433 . S
C3065 N3067 1.384 . S
N3066 C3062 1.427 . S
N3066 C3063 1.384 . S
N3067 C3059 1.427 . S
N3067 C3065 1.384 . S
H3068 C3074 0.930 . S
H3069 C3078 0.930 . S
H3070 C3083 0.929 . S
H3071 C3081 0.929 . S
H3072 C3076 0.929 . S
H3073 C3082 0.929 . S
C3074 H3068 0.930 . S
C3074 C3075 1.367 . S
C3074 C3082 1.378 . S
C3075 C3074 1.367 . S
C3075 C3083 1.433 . S
C3076 H3072 0.929 . S
C3076 C3078 1.378 . S
C3076 C3080 1.350 . S
C3077 C3080 1.463 . S
C3077 C3082 1.350 . S
C3077 N3085 1.427 . S
C3078 H3069 0.930 . S
C3078 C3076 1.378 . S
C3078 C3079 1.367 . S
C3079 C3078 1.367 . S
C3079 C3081 1.433 . S
C3080 C3076 1.350 . S
C3080 C3077 1.463 . S
C3080 N3084 1.427 . S
C3081 H3071 0.929 . S
C3081 C3079 1.433 . S
C3081 N3084 1.384 . S
C3082 H3073 0.929 . S
C3082 C3074 1.378 . S
C3082 C3077 1.350 . S
C3083 H3070 0.929 . S
C3083 C3075 1.433 . S
C3083 N3085 1.384 . S
N3084 C3080 1.427 . S
N3084 C3081 1.384 . S
N3085 C3077 1.427 . S
N3085 C3083 1.384 . S
H3086 C3092 0.930 . S
H3087 C3096 0.930 . S
H3088 C3101 0.929 . S
H3089 C3099 0.929 . S
H3090 C3094 0.929 . S
H3091 C3100 0.929 . S
C3092 H3086 0.930 . S
C3092 C3093 1.367 . S
C3092 C3100 1.378 . S
C3093 C3092 1.367 . S
C3093 C3101 1.433 . S
C3094 H3090 0.929 . S
C3094 C3096 1.378 . S
C3094 C3098 1.350 . S
C3095 C3098 1.463 . S
C3095 C3100 1.350 . S
C3095 N3103 1.427 . S
C3096 H3087 0.930 . S
C3096 C3094 1.378 . S
C3096 C3097 1.367 . S
C3097 C3096 1.367 . S
C3097 C3099 1.433 . S
C3098 C3094 1.350 . S
C3098 C3095 1.463 . S
C3098 N3102 1.427 . S
C3099 H3089 0.929 . S
C3099 C3097 1.433 . S
C3099 N3102 1.384 . S
C3100 H3091 0.929 . S
C3100 C3092 1.378 . S
C3100 C3095 1.350 . S
C3101 H3088 0.929 . S
C3101 C3093 1.433 . S
C3101 N3103 1.384 . S
N3102 C3098 1.427 . S
N3102 C3099 1.384 . S
N3103 C3095 1.427 . S
N3103 C3101 1.384 . S
H3104 C3110 0.930 . S
H3105 C3114 0.930 . S
H3106 C3119 0.929 . S
H3107 C3117 0.929 . S
H3108 C3112 0.929 . S
H3109 C3118 0.929 . S
C3110 H3104 0.930 . S
C3110 C3111 1.367 . S
C3110 C3118 1.378 . S
C3111 C3110 1.367 . S
C3111 C3119 1.433 . S
C3112 H3108 0.929 . S
C3112 C3114 1.378 . S
C3112 C3116 1.350 . S
C3113 C3116 1.463 . S
C3113 C3118 1.350 . S
C3113 N3121 1.427 . S
C3114 H3105 0.930 . S
C3114 C3112 1.378 . S
C3114 C3115 1.367 . S
C3115 C3114 1.367 . S
C3115 C3117 1.433 . S
C3116 C3112 1.350 . S
C3116 C3113 1.463 . S
C3116 N3120 1.427 . S
C3117 H3107 0.929 . S
C3117 C3115 1.433 . S
C3117 N3120 1.384 . S
C3118 H3109 0.929 . S
C3118 C3110 1.378 . S
C3118 C3113 1.350 . S
C3119 H3106 0.929 . S
C3119 C3111 1.433 . S
C3119 N3121 1.384 . S
N3120 C3116 1.427 . S
N3120 C3117 1.384 . S
N3121 C3113 1.427 . S
N3121 C3119 1.384 . S
H3122 C3128 0.930 . S
H3123 C3132 0.930 . S
H3124 C3137 0.929 . S
H3125 C3135 0.929 . S
H3126 C3130 0.929 . S
H3127 C3136 0.929 . S
C3128 H3122 0.930 . S
C3128 C3129 1.367 . S
C3128 C3136 1.378 . S
C3129 C3128 1.367 . S
C3129 C3137 1.433 . S
C3130 H3126 0.929 . S
C3130 C3132 1.378 . S
C3130 C3134 1.350 . S
C3131 C3134 1.463 . S
C3131 C3136 1.350 . S
C3131 N3139 1.427 . S
C3132 H3123 0.930 . S
C3132 C3130 1.378 . S
C3132 C3133 1.367 . S
C3133 C3132 1.367 . S
C3133 C3135 1.433 . S
C3134 C3130 1.350 . S
C3134 C3131 1.463 . S
C3134 N3138 1.427 . S
C3135 H3125 0.929 . S
C3135 C3133 1.433 . S
C3135 N3138 1.384 . S
C3136 H3127 0.929 . S
C3136 C3128 1.378 . S
C3136 C3131 1.350 . S
C3137 H3124 0.929 . S
C3137 C3129 1.433 . S
C3137 N3139 1.384 . S
N3138 C3134 1.427 . S
N3138 C3135 1.384 . S
N3139 C3131 1.427 . S
N3139 C3137 1.384 . S
H3140 C3146 0.930 . S
H3141 C3150 0.930 . S
H3142 C3155 0.929 . S
H3143 C3153 0.929 . S
H3144 C3148 0.929 . S
H3145 C3154 0.929 . S
C3146 H3140 0.930 . S
C3146 C3147 1.367 . S
C3146 C3154 1.378 . S
C3147 C3146 1.367 . S
C3147 C3155 1.433 . S
C3148 H3144 0.929 . S
C3148 C3150 1.378 . S
C3148 C3152 1.350 . S
C3149 C3152 1.463 . S
C3149 C3154 1.350 . S
C3149 N3157 1.427 . S
C3150 H3141 0.930 . S
C3150 C3148 1.378 . S
C3150 C3151 1.367 . S
C3151 C3150 1.367 . S
C3151 C3153 1.433 . S
C3152 C3148 1.350 . S
C3152 C3149 1.463 . S
C3152 N3156 1.427 . S
C3153 H3143 0.929 . S
C3153 C3151 1.433 . S
C3153 N3156 1.384 . S
C3154 H3145 0.929 . S
C3154 C3146 1.378 . S
C3154 C3149 1.350 . S
C3155 H3142 0.929 . S
C3155 C3147 1.433 . S
C3155 N3157 1.384 . S
N3156 C3152 1.427 . S
N3156 C3153 1.384 . S
N3157 C3149 1.427 . S
N3157 C3155 1.384 . S
H3158 C3164 0.930 . S
H3159 C3168 0.930 . S
H3160 C3173 0.929 . S
H3161 C3171 0.929 . S
H3162 C3166 0.929 . S
H3163 C3172 0.929 . S
C3164 H3158 0.930 . S
C3164 C3165 1.367 . S
C3164 C3172 1.378 . S
C3165 C3164 1.367 . S
C3165 C3173 1.433 . S
C3166 H3162 0.929 . S
C3166 C3168 1.378 . S
C3166 C3170 1.350 . S
C3167 C3170 1.463 . S
C3167 C3172 1.350 . S
C3167 N3175 1.427 . S
C3168 H3159 0.930 . S
C3168 C3166 1.378 . S
C3168 C3169 1.367 . S
C3169 C3168 1.367 . S
C3169 C3171 1.433 . S
C3170 C3166 1.350 . S
C3170 C3167 1.463 . S
C3170 N3174 1.427 . S
C3171 H3161 0.929 . S
C3171 C3169 1.433 . S
C3171 N3174 1.384 . S
C3172 H3163 0.929 . S
C3172 C3164 1.378 . S
C3172 C3167 1.350 . S
C3173 H3160 0.929 . S
C3173 C3165 1.433 . S
C3173 N3175 1.384 . S
N3174 C3170 1.427 . S
N3174 C3171 1.384 . S
N3175 C3167 1.427 . S
N3175 C3173 1.384 . S
H3176 C3182 0.930 . S
H3177 C3186 0.930 . S
H3178 C3191 0.929 . S
H3179 C3189 0.929 . S
H3180 C3184 0.929 . S
H3181 C3190 0.929 . S
C3182 H3176 0.930 . S
C3182 C3183 1.367 . S
C3182 C3190 1.378 . S
C3183 C3182 1.367 . S
C3183 C3191 1.433 . S
C3184 H3180 0.929 . S
C3184 C3186 1.378 . S
C3184 C3188 1.350 . S
C3185 C3188 1.463 . S
C3185 C3190 1.350 . S
C3185 N3193 1.427 . S
C3186 H3177 0.930 . S
C3186 C3184 1.378 . S
C3186 C3187 1.367 . S
C3187 C3186 1.367 . S
C3187 C3189 1.433 . S
C3188 C3184 1.350 . S
C3188 C3185 1.463 . S
C3188 N3192 1.427 . S
C3189 H3179 0.929 . S
C3189 C3187 1.433 . S
C3189 N3192 1.384 . S
C3190 H3181 0.929 . S
C3190 C3182 1.378 . S
C3190 C3185 1.350 . S
C3191 H3178 0.929 . S
C3191 C3183 1.433 . S
C3191 N3193 1.384 . S
N3192 C3188 1.427 . S
N3192 C3189 1.384 . S
N3193 C3185 1.427 . S
N3193 C3191 1.384 . S
H3194 C3200 0.930 . S
H3195 C3204 0.930 . S
H3196 C3209 0.929 . S
H3197 C3207 0.929 . S
H3198 C3202 0.929 . S
H3199 C3208 0.929 . S
C3200 H3194 0.930 . S
C3200 C3201 1.367 . S
C3200 C3208 1.378 . S
C3201 C3200 1.367 . S
C3201 C3209 1.433 . S
C3202 H3198 0.929 . S
C3202 C3204 1.378 . S
C3202 C3206 1.350 . S
C3203 C3206 1.463 . S
C3203 C3208 1.350 . S
C3203 N3211 1.427 . S
C3204 H3195 0.930 . S
C3204 C3202 1.378 . S
C3204 C3205 1.367 . S
C3205 C3204 1.367 . S
C3205 C3207 1.433 . S
C3206 C3202 1.350 . S
C3206 C3203 1.463 . S
C3206 N3210 1.427 . S
C3207 H3197 0.929 . S
C3207 C3205 1.433 . S
C3207 N3210 1.384 . S
C3208 H3199 0.929 . S
C3208 C3200 1.378 . S
C3208 C3203 1.350 . S
C3209 H3196 0.929 . S
C3209 C3201 1.433 . S
C3209 N3211 1.384 . S
N3210 C3206 1.427 . S
N3210 C3207 1.384 . S
N3211 C3203 1.427 . S
N3211 C3209 1.384 . S
H3212 C3218 0.930 . S
H3213 C3222 0.930 . S
H3214 C3227 0.929 . S
H3215 C3225 0.929 . S
H3216 C3220 0.929 . S
H3217 C3226 0.929 . S
C3218 H3212 0.930 . S
C3218 C3219 1.367 . S
C3218 C3226 1.378 . S
C3219 C3218 1.367 . S
C3219 C3227 1.433 . S
C3220 H3216 0.929 . S
C3220 C3222 1.378 . S
C3220 C3224 1.350 . S
C3221 C3224 1.463 . S
C3221 C3226 1.350 . S
C3221 N3229 1.427 . S
C3222 H3213 0.930 . S
C3222 C3220 1.378 . S
C3222 C3223 1.367 . S
C3223 C3222 1.367 . S
C3223 C3225 1.433 . S
C3224 C3220 1.350 . S
C3224 C3221 1.463 . S
C3224 N3228 1.427 . S
C3225 H3215 0.929 . S
C3225 C3223 1.433 . S
C3225 N3228 1.384 . S
C3226 H3217 0.929 . S
C3226 C3218 1.378 . S
C3226 C3221 1.350 . S
C3227 H3214 0.929 . S
C3227 C3219 1.433 . S
C3227 N3229 1.384 . S
N3228 C3224 1.427 . S
N3228 C3225 1.384 . S
N3229 C3221 1.427 . S
N3229 C3227 1.384 . S
H3230 C3236 0.930 . S
H3231 C3240 0.930 . S
H3232 C3245 0.929 . S
H3233 C3243 0.929 . S
H3234 C3238 0.929 . S
H3235 C3244 0.929 . S
C3236 H3230 0.930 . S
C3236 C3237 1.367 . S
C3236 C3244 1.378 . S
C3237 C3236 1.367 . S
C3237 C3245 1.433 . S
C3238 H3234 0.929 . S
C3238 C3240 1.378 . S
C3238 C3242 1.350 . S
C3239 C3242 1.463 . S
C3239 C3244 1.350 . S
C3239 N3247 1.427 . S
C3240 H3231 0.930 . S
C3240 C3238 1.378 . S
C3240 C3241 1.367 . S
C3241 C3240 1.367 . S
C3241 C3243 1.433 . S
C3242 C3238 1.350 . S
C3242 C3239 1.463 . S
C3242 N3246 1.427 . S
C3243 H3233 0.929 . S
C3243 C3241 1.433 . S
C3243 N3246 1.384 . S
C3244 H3235 0.929 . S
C3244 C3236 1.378 . S
C3244 C3239 1.350 . S
C3245 H3232 0.929 . S
C3245 C3237 1.433 . S
C3245 N3247 1.384 . S
N3246 C3242 1.427 . S
N3246 C3243 1.384 . S
N3247 C3239 1.427 . S
N3247 C3245 1.384 . S
H3248 C3254 0.930 . S
H3249 C3258 0.930 . S
H3250 C3263 0.929 . S
H3251 C3261 0.929 . S
H3252 C3256 0.929 . S
H3253 C3262 0.929 . S
C3254 H3248 0.930 . S
C3254 C3255 1.367 . S
C3254 C3262 1.378 . S
C3255 C3254 1.367 . S
C3255 C3263 1.433 . S
C3256 H3252 0.929 . S
C3256 C3258 1.378 . S
C3256 C3260 1.350 . S
C3257 C3260 1.463 . S
C3257 C3262 1.350 . S
C3257 N3265 1.427 . S
C3258 H3249 0.930 . S
C3258 C3256 1.378 . S
C3258 C3259 1.367 . S
C3259 C3258 1.367 . S
C3259 C3261 1.433 . S
C3260 C3256 1.350 . S
C3260 C3257 1.463 . S
C3260 N3264 1.427 . S
C3261 H3251 0.929 . S
C3261 C3259 1.433 . S
C3261 N3264 1.384 . S
C3262 H3253 0.929 . S
C3262 C3254 1.378 . S
C3262 C3257 1.350 . S
C3263 H3250 0.929 . S
C3263 C3255 1.433 . S
C3263 N3265 1.384 . S
N3264 C3260 1.427 . S
N3264 C3261 1.384 . S
N3265 C3257 1.427 . S
N3265 C3263 1.384 . S
H3266 C3272 0.930 . S
H3267 C3276 0.930 . S
H3268 C3281 0.929 . S
H3269 C3279 0.929 . S
H3270 C3274 0.929 . S
H3271 C3280 0.929 . S
C3272 H3266 0.930 . S
C3272 C3273 1.367 . S
C3272 C3280 1.378 . S
C3273 C3272 1.367 . S
C3273 C3281 1.433 . S
C3274 H3270 0.929 . S
C3274 C3276 1.378 . S
C3274 C3278 1.350 . S
C3275 C3278 1.463 . S
C3275 C3280 1.350 . S
C3275 N3283 1.427 . S
C3276 H3267 0.930 . S
C3276 C3274 1.378 . S
C3276 C3277 1.367 . S
C3277 C3276 1.367 . S
C3277 C3279 1.433 . S
C3278 C3274 1.350 . S
C3278 C3275 1.463 . S
C3278 N3282 1.427 . S
C3279 H3269 0.929 . S
C3279 C3277 1.433 . S
C3279 N3282 1.384 . S
C3280 H3271 0.929 . S
C3280 C3272 1.378 . S
C3280 C3275 1.350 . S
C3281 H3268 0.929 . S
C3281 C3273 1.433 . S
C3281 N3283 1.384 . S
N3282 C3278 1.427 . S
N3282 C3279 1.384 . S
N3283 C3275 1.427 . S
N3283 C3281 1.384 . S
H3284 C3290 0.930 . S
H3285 C3294 0.930 . S
H3286 C3299 0.929 . S
H3287 C3297 0.929 . S
H3288 C3292 0.929 . S
H3289 C3298 0.929 . S
C3290 H3284 0.930 . S
C3290 C3291 1.367 . S
C3290 C3298 1.378 . S
C3291 C3290 1.367 . S
C3291 C3299 1.433 . S
C3292 H3288 0.929 . S
C3292 C3294 1.378 . S
C3292 C3296 1.350 . S
C3293 C3296 1.463 . S
C3293 C3298 1.350 . S
C3293 N3301 1.427 . S
C3294 H3285 0.930 . S
C3294 C3292 1.378 . S
C3294 C3295 1.367 . S
C3295 C3294 1.367 . S
C3295 C3297 1.433 . S
C3296 C3292 1.350 . S
C3296 C3293 1.463 . S
C3296 N3300 1.427 . S
C3297 H3287 0.929 . S
C3297 C3295 1.433 . S
C3297 N3300 1.384 . S
C3298 H3289 0.929 . S
C3298 C3290 1.378 . S
C3298 C3293 1.350 . S
C3299 H3286 0.929 . S
C3299 C3291 1.433 . S
C3299 N3301 1.384 . S
N3300 C3296 1.427 . S
N3300 C3297 1.384 . S
N3301 C3293 1.427 . S
N3301 C3299 1.384 . S
H3302 C3308 0.930 . S
H3303 C3312 0.930 . S
H3304 C3317 0.929 . S
H3305 C3315 0.929 . S
H3306 C3310 0.929 . S
H3307 C3316 0.929 . S
C3308 H3302 0.930 . S
C3308 C3309 1.367 . S
C3308 C3316 1.378 . S
C3309 C3308 1.367 . S
C3309 C3317 1.433 . S
C3310 H3306 0.929 . S
C3310 C3312 1.378 . S
C3310 C3314 1.350 . S
C3311 C3314 1.463 . S
C3311 C3316 1.350 . S
C3311 N3319 1.427 . S
C3312 H3303 0.930 . S
C3312 C3310 1.378 . S
C3312 C3313 1.367 . S
C3313 C3312 1.367 . S
C3313 C3315 1.433 . S
C3314 C3310 1.350 . S
C3314 C3311 1.463 . S
C3314 N3318 1.427 . S
C3315 H3305 0.929 . S
C3315 C3313 1.433 . S
C3315 N3318 1.384 . S
C3316 H3307 0.929 . S
C3316 C3308 1.378 . S
C3316 C3311 1.350 . S
C3317 H3304 0.929 . S
C3317 C3309 1.433 . S
C3317 N3319 1.384 . S
N3318 C3314 1.427 . S
N3318 C3315 1.384 . S
N3319 C3311 1.427 . S
N3319 C3317 1.384 . S
H3320 C3326 0.930 . S
H3321 C3330 0.930 . S
H3322 C3335 0.929 . S
H3323 C3333 0.929 . S
H3324 C3328 0.929 . S
H3325 C3334 0.929 . S
C3326 H3320 0.930 . S
C3326 C3327 1.367 . S
C3326 C3334 1.378 . S
C3327 C3326 1.367 . S
C3327 C3335 1.433 . S
C3328 H3324 0.929 . S
C3328 C3330 1.378 . S
C3328 C3332 1.350 . S
C3329 C3332 1.463 . S
C3329 C3334 1.350 . S
C3329 N3337 1.427 . S
C3330 H3321 0.930 . S
C3330 C3328 1.378 . S
C3330 C3331 1.367 . S
C3331 C3330 1.367 . S
C3331 C3333 1.433 . S
C3332 C3328 1.350 . S
C3332 C3329 1.463 . S
C3332 N3336 1.427 . S
C3333 H3323 0.929 . S
C3333 C3331 1.433 . S
C3333 N3336 1.384 . S
C3334 H3325 0.929 . S
C3334 C3326 1.378 . S
C3334 C3329 1.350 . S
C3335 H3322 0.929 . S
C3335 C3327 1.433 . S
C3335 N3337 1.384 . S
N3336 C3332 1.427 . S
N3336 C3333 1.384 . S
N3337 C3329 1.427 . S
N3337 C3335 1.384 . S
H3338 C3344 0.930 . S
H3339 C3348 0.930 . S
H3340 C3353 0.929 . S
H3341 C3351 0.929 . S
H3342 C3346 0.929 . S
H3343 C3352 0.929 . S
C3344 H3338 0.930 . S
C3344 C3345 1.367 . S
C3344 C3352 1.378 . S
C3345 C3344 1.367 . S
C3345 C3353 1.433 . S
C3346 H3342 0.929 . S
C3346 C3348 1.378 . S
C3346 C3350 1.350 . S
C3347 C3350 1.463 . S
C3347 C3352 1.350 . S
C3347 N3355 1.427 . S
C3348 H3339 0.930 . S
C3348 C3346 1.378 . S
C3348 C3349 1.367 . S
C3349 C3348 1.367 . S
C3349 C3351 1.433 . S
C3350 C3346 1.350 . S
C3350 C3347 1.463 . S
C3350 N3354 1.427 . S
C3351 H3341 0.929 . S
C3351 C3349 1.433 . S
C3351 N3354 1.384 . S
C3352 H3343 0.929 . S
C3352 C3344 1.378 . S
C3352 C3347 1.350 . S
C3353 H3340 0.929 . S
C3353 C3345 1.433 . S
C3353 N3355 1.384 . S
N3354 C3350 1.427 . S
N3354 C3351 1.384 . S
N3355 C3347 1.427 . S
N3355 C3353 1.384 . S
H3356 C3362 0.930 . S
H3357 C3366 0.930 . S
H3358 C3371 0.929 . S
H3359 C3369 0.929 . S
H3360 C3364 0.929 . S
H3361 C3370 0.929 . S
C3362 H3356 0.930 . S
C3362 C3363 1.367 . S
C3362 C3370 1.378 . S
C3363 C3362 1.367 . S
C3363 C3371 1.433 . S
C3364 H3360 0.929 . S
C3364 C3366 1.378 . S
C3364 C3368 1.350 . S
C3365 C3368 1.463 . S
C3365 C3370 1.350 . S
C3365 N3373 1.427 . S
C3366 H3357 0.930 . S
C3366 C3364 1.378 . S
C3366 C3367 1.367 . S
C3367 C3366 1.367 . S
C3367 C3369 1.433 . S
C3368 C3364 1.350 . S
C3368 C3365 1.463 . S
C3368 N3372 1.427 . S
C3369 H3359 0.929 . S
C3369 C3367 1.433 . S
C3369 N3372 1.384 . S
C3370 H3361 0.929 . S
C3370 C3362 1.378 . S
C3370 C3365 1.350 . S
C3371 H3358 0.929 . S
C3371 C3363 1.433 . S
C3371 N3373 1.384 . S
N3372 C3368 1.427 . S
N3372 C3369 1.384 . S
N3373 C3365 1.427 . S
N3373 C3371 1.384 . S
H3374 C3380 0.930 . S
H3375 C3384 0.930 . S
H3376 C3389 0.929 . S
H3377 C3387 0.929 . S
H3378 C3382 0.929 . S
H3379 C3388 0.929 . S
C3380 H3374 0.930 . S
C3380 C3381 1.367 . S
C3380 C3388 1.378 . S
C3381 C3380 1.367 . S
C3381 C3389 1.433 . S
C3382 H3378 0.929 . S
C3382 C3384 1.378 . S
C3382 C3386 1.350 . S
C3383 C3386 1.463 . S
C3383 C3388 1.350 . S
C3383 N3391 1.427 . S
C3384 H3375 0.930 . S
C3384 C3382 1.378 . S
C3384 C3385 1.367 . S
C3385 C3384 1.367 . S
C3385 C3387 1.433 . S
C3386 C3382 1.350 . S
C3386 C3383 1.463 . S
C3386 N3390 1.427 . S
C3387 H3377 0.929 . S
C3387 C3385 1.433 . S
C3387 N3390 1.384 . S
C3388 H3379 0.929 . S
C3388 C3380 1.378 . S
C3388 C3383 1.350 . S
C3389 H3376 0.929 . S
C3389 C3381 1.433 . S
C3389 N3391 1.384 . S
N3390 C3386 1.427 . S
N3390 C3387 1.384 . S
N3391 C3383 1.427 . S
N3391 C3389 1.384 . S
H3392 C3398 0.930 . S
H3393 C3402 0.930 . S
H3394 C3407 0.929 . S
H3395 C3405 0.929 . S
H3396 C3400 0.929 . S
H3397 C3406 0.929 . S
C3398 H3392 0.930 . S
C3398 C3399 1.367 . S
C3398 C3406 1.378 . S
C3399 C3398 1.367 . S
C3399 C3407 1.433 . S
C3400 H3396 0.929 . S
C3400 C3402 1.378 . S
C3400 C3404 1.350 . S
C3401 C3404 1.463 . S
C3401 C3406 1.350 . S
C3401 N3409 1.427 . S
C3402 H3393 0.930 . S
C3402 C3400 1.378 . S
C3402 C3403 1.367 . S
C3403 C3402 1.367 . S
C3403 C3405 1.433 . S
C3404 C3400 1.350 . S
C3404 C3401 1.463 . S
C3404 N3408 1.427 . S
C3405 H3395 0.929 . S
C3405 C3403 1.433 . S
C3405 N3408 1.384 . S
C3406 H3397 0.929 . S
C3406 C3398 1.378 . S
C3406 C3401 1.350 . S
C3407 H3394 0.929 . S
C3407 C3399 1.433 . S
C3407 N3409 1.384 . S
N3408 C3404 1.427 . S
N3408 C3405 1.384 . S
N3409 C3401 1.427 . S
N3409 C3407 1.384 . S
H3410 C3416 0.930 . S
H3411 C3420 0.930 . S
H3412 C3425 0.929 . S
H3413 C3423 0.929 . S
H3414 C3418 0.929 . S
H3415 C3424 0.929 . S
C3416 H3410 0.930 . S
C3416 C3417 1.367 . S
C3416 C3424 1.378 . S
C3417 C3416 1.367 . S
C3417 C3425 1.433 . S
C3418 H3414 0.929 . S
C3418 C3420 1.378 . S
C3418 C3422 1.350 . S
C3419 C3422 1.463 . S
C3419 C3424 1.350 . S
C3419 N3427 1.427 . S
C3420 H3411 0.930 . S
C3420 C3418 1.378 . S
C3420 C3421 1.367 . S
C3421 C3420 1.367 . S
C3421 C3423 1.433 . S
C3422 C3418 1.350 . S
C3422 C3419 1.463 . S
C3422 N3426 1.427 . S
C3423 H3413 0.929 . S
C3423 C3421 1.433 . S
C3423 N3426 1.384 . S
C3424 H3415 0.929 . S
C3424 C3416 1.378 . S
C3424 C3419 1.350 . S
C3425 H3412 0.929 . S
C3425 C3417 1.433 . S
C3425 N3427 1.384 . S
N3426 C3422 1.427 . S
N3426 C3423 1.384 . S
N3427 C3419 1.427 . S
N3427 C3425 1.384 . S
H3428 C3434 0.930 . S
H3429 C3438 0.930 . S
H3430 C3443 0.929 . S
H3431 C3441 0.929 . S
H3432 C3436 0.929 . S
H3433 C3442 0.929 . S
C3434 H3428 0.930 . S
C3434 C3435 1.367 . S
C3434 C3442 1.378 . S
C3435 C3434 1.367 . S
C3435 C3443 1.433 . S
C3436 H3432 0.929 . S
C3436 C3438 1.378 . S
C3436 C3440 1.350 . S
C3437 C3440 1.463 . S
C3437 C3442 1.350 . S
C3437 N3445 1.427 . S
C3438 H3429 0.930 . S
C3438 C3436 1.378 . S
C3438 C3439 1.367 . S
C3439 C3438 1.367 . S
C3439 C3441 1.433 . S
C3440 C3436 1.350 . S
C3440 C3437 1.463 . S
C3440 N3444 1.427 . S
C3441 H3431 0.929 . S
C3441 C3439 1.433 . S
C3441 N3444 1.384 . S
C3442 H3433 0.929 . S
C3442 C3434 1.378 . S
C3442 C3437 1.350 . S
C3443 H3430 0.929 . S
C3443 C3435 1.433 . S
C3443 N3445 1.384 . S
N3444 C3440 1.427 . S
N3444 C3441 1.384 . S
N3445 C3437 1.427 . S
N3445 C3443 1.384 . S
H3446 C3452 0.930 . S
H3447 C3456 0.930 . S
H3448 C3461 0.929 . S
H3449 C3459 0.929 . S
H3450 C3454 0.929 . S
H3451 C3460 0.929 . S
C3452 H3446 0.930 . S
C3452 C3453 1.367 . S
C3452 C3460 1.378 . S
C3453 C3452 1.367 . S
C3453 C3461 1.433 . S
C3454 H3450 0.929 . S
C3454 C3456 1.378 . S
C3454 C3458 1.350 . S
C3455 C3458 1.463 . S
C3455 C3460 1.350 . S
C3455 N3463 1.427 . S
C3456 H3447 0.930 . S
C3456 C3454 1.378 . S
C3456 C3457 1.367 . S
C3457 C3456 1.367 . S
C3457 C3459 1.433 . S
C3458 C3454 1.350 . S
C3458 C3455 1.463 . S
C3458 N3462 1.427 . S
C3459 H3449 0.929 . S
C3459 C3457 1.433 . S
C3459 N3462 1.384 . S
C3460 H3451 0.929 . S
C3460 C3452 1.378 . S
C3460 C3455 1.350 . S
C3461 H3448 0.929 . S
C3461 C3453 1.433 . S
C3461 N3463 1.384 . S
N3462 C3458 1.427 . S
N3462 C3459 1.384 . S
N3463 C3455 1.427 . S
N3463 C3461 1.384 . S
H3464 C3470 0.930 . S
H3465 C3474 0.930 . S
H3466 C3479 0.929 . S
H3467 C3477 0.929 . S
H3468 C3472 0.929 . S
H3469 C3478 0.929 . S
C3470 H3464 0.930 . S
C3470 C3471 1.367 . S
C3470 C3478 1.378 . S
C3471 C3470 1.367 . S
C3471 C3479 1.433 . S
C3472 H3468 0.929 . S
C3472 C3474 1.378 . S
C3472 C3476 1.350 . S
C3473 C3476 1.463 . S
C3473 C3478 1.350 . S
C3473 N3481 1.427 . S
C3474 H3465 0.930 . S
C3474 C3472 1.378 . S
C3474 C3475 1.367 . S
C3475 C3474 1.367 . S
C3475 C3477 1.433 . S
C3476 C3472 1.350 . S
C3476 C3473 1.463 . S
C3476 N3480 1.427 . S
C3477 H3467 0.929 . S
C3477 C3475 1.433 . S
C3477 N3480 1.384 . S
C3478 H3469 0.929 . S
C3478 C3470 1.378 . S
C3478 C3473 1.350 . S
C3479 H3466 0.929 . S
C3479 C3471 1.433 . S
C3479 N3481 1.384 . S
N3480 C3476 1.427 . S
N3480 C3477 1.384 . S
N3481 C3473 1.427 . S
N3481 C3479 1.384 . S
H3482 C3488 0.930 . S
H3483 C3492 0.930 . S
H3484 C3497 0.929 . S
H3485 C3495 0.929 . S
H3486 C3490 0.929 . S
H3487 C3496 0.929 . S
C3488 H3482 0.930 . S
C3488 C3489 1.367 . S
C3488 C3496 1.378 . S
C3489 C3488 1.367 . S
C3489 C3497 1.433 . S
C3490 H3486 0.929 . S
C3490 C3492 1.378 . S
C3490 C3494 1.350 . S
C3491 C3494 1.463 . S
C3491 C3496 1.350 . S
C3491 N3499 1.427 . S
C3492 H3483 0.930 . S
C3492 C3490 1.378 . S
C3492 C3493 1.367 . S
C3493 C3492 1.367 . S
C3493 C3495 1.433 . S
C3494 C3490 1.350 . S
C3494 C3491 1.463 . S
C3494 N3498 1.427 . S
C3495 H3485 0.929 . S
C3495 C3493 1.433 . S
C3495 N3498 1.384 . S
C3496 H3487 0.929 . S
C3496 C3488 1.378 . S
C3496 C3491 1.350 . S
C3497 H3484 0.929 . S
C3497 C3489 1.433 . S
C3497 N3499 1.384 . S
N3498 C3494 1.427 . S
N3498 C3495 1.384 . S
N3499 C3491 1.427 . S
N3499 C3497 1.384 . S
H3500 C3506 0.930 . S
H3501 C3510 0.930 . S
H3502 C3515 0.929 . S
H3503 C3513 0.929 . S
H3504 C3508 0.929 . S
H3505 C3514 0.929 . S
C3506 H3500 0.930 . S
C3506 C3507 1.367 . S
C3506 C3514 1.378 . S
C3507 C3506 1.367 . S
C3507 C3515 1.433 . S
C3508 H3504 0.929 . S
C3508 C3510 1.378 . S
C3508 C3512 1.350 . S
C3509 C3512 1.463 . S
C3509 C3514 1.350 . S
C3509 N3517 1.427 . S
C3510 H3501 0.930 . S
C3510 C3508 1.378 . S
C3510 C3511 1.367 . S
C3511 C3510 1.367 . S
C3511 C3513 1.433 . S
C3512 C3508 1.350 . S
C3512 C3509 1.463 . S
C3512 N3516 1.427 . S
C3513 H3503 0.929 . S
C3513 C3511 1.433 . S
C3513 N3516 1.384 . S
C3514 H3505 0.929 . S
C3514 C3506 1.378 . S
C3514 C3509 1.350 . S
C3515 H3502 0.929 . S
C3515 C3507 1.433 . S
C3515 N3517 1.384 . S
N3516 C3512 1.427 . S
N3516 C3513 1.384 . S
N3517 C3509 1.427 . S
N3517 C3515 1.384 . S
H3518 C3524 0.930 . S
H3519 C3528 0.930 . S
H3520 C3533 0.929 . S
H3521 C3531 0.929 . S
H3522 C3526 0.929 . S
H3523 C3532 0.929 . S
C3524 H3518 0.930 . S
C3524 C3525 1.367 . S
C3524 C3532 1.378 . S
C3525 C3524 1.367 . S
C3525 C3533 1.433 . S
C3526 H3522 0.929 . S
C3526 C3528 1.378 . S
C3526 C3530 1.350 . S
C3527 C3530 1.463 . S
C3527 C3532 1.350 . S
C3527 N3535 1.427 . S
C3528 H3519 0.930 . S
C3528 C3526 1.378 . S
C3528 C3529 1.367 . S
C3529 C3528 1.367 . S
C3529 C3531 1.433 . S
C3530 C3526 1.350 . S
C3530 C3527 1.463 . S
C3530 N3534 1.427 . S
C3531 H3521 0.929 . S
C3531 C3529 1.433 . S
C3531 N3534 1.384 . S
C3532 H3523 0.929 . S
C3532 C3524 1.378 . S
C3532 C3527 1.350 . S
C3533 H3520 0.929 . S
C3533 C3525 1.433 . S
C3533 N3535 1.384 . S
N3534 C3530 1.427 . S
N3534 C3531 1.384 . S
N3535 C3527 1.427 . S
N3535 C3533 1.384 . S
H3536 C3542 0.930 . S
H3537 C3546 0.930 . S
H3538 C3551 0.929 . S
H3539 C3549 0.929 . S
H3540 C3544 0.929 . S
H3541 C3550 0.929 . S
C3542 H3536 0.930 . S
C3542 C3543 1.367 . S
C3542 C3550 1.378 . S
C3543 C3542 1.367 . S
C3543 C3551 1.433 . S
C3544 H3540 0.929 . S
C3544 C3546 1.378 . S
C3544 C3548 1.350 . S
C3545 C3548 1.463 . S
C3545 C3550 1.350 . S
C3545 N3553 1.427 . S
C3546 H3537 0.930 . S
C3546 C3544 1.378 . S
C3546 C3547 1.367 . S
C3547 C3546 1.367 . S
C3547 C3549 1.433 . S
C3548 C3544 1.350 . S
C3548 C3545 1.463 . S
C3548 N3552 1.427 . S
C3549 H3539 0.929 . S
C3549 C3547 1.433 . S
C3549 N3552 1.384 . S
C3550 H3541 0.929 . S
C3550 C3542 1.378 . S
C3550 C3545 1.350 . S
C3551 H3538 0.929 . S
C3551 C3543 1.433 . S
C3551 N3553 1.384 . S
N3552 C3548 1.427 . S
N3552 C3549 1.384 . S
N3553 C3545 1.427 . S
N3553 C3551 1.384 . S
H3554 C3560 0.930 . S
H3555 C3564 0.930 . S
H3556 C3569 0.929 . S
H3557 C3567 0.929 . S
H3558 C3562 0.929 . S
H3559 C3568 0.929 . S
C3560 H3554 0.930 . S
C3560 C3561 1.367 . S
C3560 C3568 1.378 . S
C3561 C3560 1.367 . S
C3561 C3569 1.433 . S
C3562 H3558 0.929 . S
C3562 C3564 1.378 . S
C3562 C3566 1.350 . S
C3563 C3566 1.463 . S
C3563 C3568 1.350 . S
C3563 N3571 1.427 . S
C3564 H3555 0.930 . S
C3564 C3562 1.378 . S
C3564 C3565 1.367 . S
C3565 C3564 1.367 . S
C3565 C3567 1.433 . S
C3566 C3562 1.350 . S
C3566 C3563 1.463 . S
C3566 N3570 1.427 . S
C3567 H3557 0.929 . S
C3567 C3565 1.433 . S
C3567 N3570 1.384 . S
C3568 H3559 0.929 . S
C3568 C3560 1.378 . S
C3568 C3563 1.350 . S
C3569 H3556 0.929 . S
C3569 C3561 1.433 . S
C3569 N3571 1.384 . S
N3570 C3566 1.427 . S
N3570 C3567 1.384 . S
N3571 C3563 1.427 . S
N3571 C3569 1.384 . S
H3572 C3578 0.930 . S
H3573 C3582 0.930 . S
H3574 C3587 0.929 . S
H3575 C3585 0.929 . S
H3576 C3580 0.929 . S
H3577 C3586 0.929 . S
C3578 H3572 0.930 . S
C3578 C3579 1.367 . S
C3578 C3586 1.378 . S
C3579 C3578 1.367 . S
C3579 C3587 1.433 . S
C3580 H3576 0.929 . S
C3580 C3582 1.378 . S
C3580 C3584 1.350 . S
C3581 C3584 1.463 . S
C3581 C3586 1.350 . S
C3581 N3589 1.427 . S
C3582 H3573 0.930 . S
C3582 C3580 1.378 . S
C3582 C3583 1.367 . S
C3583 C3582 1.367 . S
C3583 C3585 1.433 . S
C3584 C3580 1.350 . S
C3584 C3581 1.463 . S
C3584 N3588 1.427 . S
C3585 H3575 0.929 . S
C3585 C3583 1.433 . S
C3585 N3588 1.384 . S
C3586 H3577 0.929 . S
C3586 C3578 1.378 . S
C3586 C3581 1.350 . S
C3587 H3574 0.929 . S
C3587 C3579 1.433 . S
C3587 N3589 1.384 . S
N3588 C3584 1.427 . S
N3588 C3585 1.384 . S
N3589 C3581 1.427 . S
N3589 C3587 1.384 . S
H3590 C3596 0.930 . S
H3591 C3600 0.930 . S
H3592 C3605 0.929 . S
H3593 C3603 0.929 . S
H3594 C3598 0.929 . S
H3595 C3604 0.929 . S
C3596 H3590 0.930 . S
C3596 C3597 1.367 . S
C3596 C3604 1.378 . S
C3597 C3596 1.367 . S
C3597 C3605 1.433 . S
C3598 H3594 0.929 . S
C3598 C3600 1.378 . S
C3598 C3602 1.350 . S
C3599 C3602 1.463 . S
C3599 C3604 1.350 . S
C3599 N3607 1.427 . S
C3600 H3591 0.930 . S
C3600 C3598 1.378 . S
C3600 C3601 1.367 . S
C3601 C3600 1.367 . S
C3601 C3603 1.433 . S
C3602 C3598 1.350 . S
C3602 C3599 1.463 . S
C3602 N3606 1.427 . S
C3603 H3593 0.929 . S
C3603 C3601 1.433 . S
C3603 N3606 1.384 . S
C3604 H3595 0.929 . S
C3604 C3596 1.378 . S
C3604 C3599 1.350 . S
C3605 H3592 0.929 . S
C3605 C3597 1.433 . S
C3605 N3607 1.384 . S
N3606 C3602 1.427 . S
N3606 C3603 1.384 . S
N3607 C3599 1.427 . S
N3607 C3605 1.384 . S
H3608 C3614 0.930 . S
H3609 C3618 0.930 . S
H3610 C3623 0.929 . S
H3611 C3621 0.929 . S
H3612 C3616 0.929 . S
H3613 C3622 0.929 . S
C3614 H3608 0.930 . S
C3614 C3615 1.367 . S
C3614 C3622 1.378 . S
C3615 C3614 1.367 . S
C3615 C3623 1.433 . S
C3616 H3612 0.929 . S
C3616 C3618 1.378 . S
C3616 C3620 1.350 . S
C3617 C3620 1.463 . S
C3617 C3622 1.350 . S
C3617 N3625 1.427 . S
C3618 H3609 0.930 . S
C3618 C3616 1.378 . S
C3618 C3619 1.367 . S
C3619 C3618 1.367 . S
C3619 C3621 1.433 . S
C3620 C3616 1.350 . S
C3620 C3617 1.463 . S
C3620 N3624 1.427 . S
C3621 H3611 0.929 . S
C3621 C3619 1.433 . S
C3621 N3624 1.384 . S
C3622 H3613 0.929 . S
C3622 C3614 1.378 . S
C3622 C3617 1.350 . S
C3623 H3610 0.929 . S
C3623 C3615 1.433 . S
C3623 N3625 1.384 . S
N3624 C3620 1.427 . S
N3624 C3621 1.384 . S
N3625 C3617 1.427 . S
N3625 C3623 1.384 . S
H3626 C3632 0.930 . S
H3627 C3636 0.930 . S
H3628 C3641 0.929 . S
H3629 C3639 0.929 . S
H3630 C3634 0.929 . S
H3631 C3640 0.929 . S
C3632 H3626 0.930 . S
C3632 C3633 1.367 . S
C3632 C3640 1.378 . S
C3633 C3632 1.367 . S
C3633 C3641 1.433 . S
C3634 H3630 0.929 . S
C3634 C3636 1.378 . S
C3634 C3638 1.350 . S
C3635 C3638 1.463 . S
C3635 C3640 1.350 . S
C3635 N3643 1.427 . S
C3636 H3627 0.930 . S
C3636 C3634 1.378 . S
C3636 C3637 1.367 . S
C3637 C3636 1.367 . S
C3637 C3639 1.433 . S
C3638 C3634 1.350 . S
C3638 C3635 1.463 . S
C3638 N3642 1.427 . S
C3639 H3629 0.929 . S
C3639 C3637 1.433 . S
C3639 N3642 1.384 . S
C3640 H3631 0.929 . S
C3640 C3632 1.378 . S
C3640 C3635 1.350 . S
C3641 H3628 0.929 . S
C3641 C3633 1.433 . S
C3641 N3643 1.384 . S
N3642 C3638 1.427 . S
N3642 C3639 1.384 . S
N3643 C3635 1.427 . S
N3643 C3641 1.384 . S
H3644 C3650 0.930 . S
H3645 C3654 0.930 . S
H3646 C3659 0.929 . S
H3647 C3657 0.929 . S
H3648 C3652 0.929 . S
H3649 C3658 0.929 . S
C3650 H3644 0.930 . S
C3650 C3651 1.367 . S
C3650 C3658 1.378 . S
C3651 C3650 1.367 . S
C3651 C3659 1.433 . S
C3652 H3648 0.929 . S
C3652 C3654 1.378 . S
C3652 C3656 1.350 . S
C3653 C3656 1.463 . S
C3653 C3658 1.350 . S
C3653 N3661 1.427 . S
C3654 H3645 0.930 . S
C3654 C3652 1.378 . S
C3654 C3655 1.367 . S
C3655 C3654 1.367 . S
C3655 C3657 1.433 . S
C3656 C3652 1.350 . S
C3656 C3653 1.463 . S
C3656 N3660 1.427 . S
C3657 H3647 0.929 . S
C3657 C3655 1.433 . S
C3657 N3660 1.384 . S
C3658 H3649 0.929 . S
C3658 C3650 1.378 . S
C3658 C3653 1.350 . S
C3659 H3646 0.929 . S
C3659 C3651 1.433 . S
C3659 N3661 1.384 . S
N3660 C3656 1.427 . S
N3660 C3657 1.384 . S
N3661 C3653 1.427 . S
N3661 C3659 1.384 . S
H3662 C3668 0.930 . S
H3663 C3672 0.930 . S
H3664 C3677 0.929 . S
H3665 C3675 0.929 . S
H3666 C3670 0.929 . S
H3667 C3676 0.929 . S
C3668 H3662 0.930 . S
C3668 C3669 1.367 . S
C3668 C3676 1.378 . S
C3669 C3668 1.367 . S
C3669 C3677 1.433 . S
C3670 H3666 0.929 . S
C3670 C3672 1.378 . S
C3670 C3674 1.350 . S
C3671 C3674 1.463 . S
C3671 C3676 1.350 . S
C3671 N3679 1.427 . S
C3672 H3663 0.930 . S
C3672 C3670 1.378 . S
C3672 C3673 1.367 . S
C3673 C3672 1.367 . S
C3673 C3675 1.433 . S
C3674 C3670 1.350 . S
C3674 C3671 1.463 . S
C3674 N3678 1.427 . S
C3675 H3665 0.929 . S
C3675 C3673 1.433 . S
C3675 N3678 1.384 . S
C3676 H3667 0.929 . S
C3676 C3668 1.378 . S
C3676 C3671 1.350 . S
C3677 H3664 0.929 . S
C3677 C3669 1.433 . S
C3677 N3679 1.384 . S
N3678 C3674 1.427 . S
N3678 C3675 1.384 . S
N3679 C3671 1.427 . S
N3679 C3677 1.384 . S
H3680 C3686 0.930 . S
H3681 C3690 0.930 . S
H3682 C3695 0.929 . S
H3683 C3693 0.929 . S
H3684 C3688 0.929 . S
H3685 C3694 0.929 . S
C3686 H3680 0.930 . S
C3686 C3687 1.367 . S
C3686 C3694 1.378 . S
C3687 C3686 1.367 . S
C3687 C3695 1.433 . S
C3688 H3684 0.929 . S
C3688 C3690 1.378 . S
C3688 C3692 1.350 . S
C3689 C3692 1.463 . S
C3689 C3694 1.350 . S
C3689 N3697 1.427 . S
C3690 H3681 0.930 . S
C3690 C3688 1.378 . S
C3690 C3691 1.367 . S
C3691 C3690 1.367 . S
C3691 C3693 1.433 . S
C3692 C3688 1.350 . S
C3692 C3689 1.463 . S
C3692 N3696 1.427 . S
C3693 H3683 0.929 . S
C3693 C3691 1.433 . S
C3693 N3696 1.384 . S
C3694 H3685 0.929 . S
C3694 C3686 1.378 . S
C3694 C3689 1.350 . S
C3695 H3682 0.929 . S
C3695 C3687 1.433 . S
C3695 N3697 1.384 . S
N3696 C3692 1.427 . S
N3696 C3693 1.384 . S
N3697 C3689 1.427 . S
N3697 C3695 1.384 . S
H3698 C3704 0.930 . S
H3699 C3708 0.930 . S
H3700 C3713 0.929 . S
H3701 C3711 0.929 . S
H3702 C3706 0.929 . S
H3703 C3712 0.929 . S
C3704 H3698 0.930 . S
C3704 C3705 1.367 . S
C3704 C3712 1.378 . S
C3705 C3704 1.367 . S
C3705 C3713 1.433 . S
C3706 H3702 0.929 . S
C3706 C3708 1.378 . S
C3706 C3710 1.350 . S
C3707 C3710 1.463 . S
C3707 C3712 1.350 . S
C3707 N3715 1.427 . S
C3708 H3699 0.930 . S
C3708 C3706 1.378 . S
C3708 C3709 1.367 . S
C3709 C3708 1.367 . S
C3709 C3711 1.433 . S
C3710 C3706 1.350 . S
C3710 C3707 1.463 . S
C3710 N3714 1.427 . S
C3711 H3701 0.929 . S
C3711 C3709 1.433 . S
C3711 N3714 1.384 . S
C3712 H3703 0.929 . S
C3712 C3704 1.378 . S
C3712 C3707 1.350 . S
C3713 H3700 0.929 . S
C3713 C3705 1.433 . S
C3713 N3715 1.384 . S
N3714 C3710 1.427 . S
N3714 C3711 1.384 . S
N3715 C3707 1.427 . S
N3715 C3713 1.384 . S
H3716 C3722 0.930 . S
H3717 C3726 0.930 . S
H3718 C3731 0.929 . S
H3719 C3729 0.929 . S
H3720 C3724 0.929 . S
H3721 C3730 0.929 . S
C3722 H3716 0.930 . S
C3722 C3723 1.367 . S
C3722 C3730 1.378 . S
C3723 C3722 1.367 . S
C3723 C3731 1.433 . S
C3724 H3720 0.929 . S
C3724 C3726 1.378 . S
C3724 C3728 1.350 . S
C3725 C3728 1.463 . S
C3725 C3730 1.350 . S
C3725 N3733 1.427 . S
C3726 H3717 0.930 . S
C3726 C3724 1.378 . S
C3726 C3727 1.367 . S
C3727 C3726 1.367 . S
C3727 C3729 1.433 . S
C3728 C3724 1.350 . S
C3728 C3725 1.463 . S
C3728 N3732 1.427 . S
C3729 H3719 0.929 . S
C3729 C3727 1.433 . S
C3729 N3732 1.384 . S
C3730 H3721 0.929 . S
C3730 C3722 1.378 . S
C3730 C3725 1.350 . S
C3731 H3718 0.929 . S
C3731 C3723 1.433 . S
C3731 N3733 1.384 . S
N3732 C3728 1.427 . S
N3732 C3729 1.384 . S
N3733 C3725 1.427 . S
N3733 C3731 1.384 . S
H3734 C3740 0.930 . S
H3735 C3744 0.930 . S
H3736 C3749 0.929 . S
H3737 C3747 0.929 . S
H3738 C3742 0.929 . S
H3739 C3748 0.929 . S
C3740 H3734 0.930 . S
C3740 C3741 1.367 . S
C3740 C3748 1.378 . S
C3741 C3740 1.367 . S
C3741 C3749 1.433 . S
C3742 H3738 0.929 . S
C3742 C3744 1.378 . S
C3742 C3746 1.350 . S
C3743 C3746 1.463 . S
C3743 C3748 1.350 . S
C3743 N3751 1.427 . S
C3744 H3735 0.930 . S
C3744 C3742 1.378 . S
C3744 C3745 1.367 . S
C3745 C3744 1.367 . S
C3745 C3747 1.433 . S
C3746 C3742 1.350 . S
C3746 C3743 1.463 . S
C3746 N3750 1.427 . S
C3747 H3737 0.929 . S
C3747 C3745 1.433 . S
C3747 N3750 1.384 . S
C3748 H3739 0.929 . S
C3748 C3740 1.378 . S
C3748 C3743 1.350 . S
C3749 H3736 0.929 . S
C3749 C3741 1.433 . S
C3749 N3751 1.384 . S
N3750 C3746 1.427 . S
N3750 C3747 1.384 . S
N3751 C3743 1.427 . S
N3751 C3749 1.384 . S
H3752 C3758 0.930 . S
H3753 C3762 0.930 . S
H3754 C3767 0.929 . S
H3755 C3765 0.929 . S
H3756 C3760 0.929 . S
H3757 C3766 0.929 . S
C3758 H3752 0.930 . S
C3758 C3759 1.367 . S
C3758 C3766 1.378 . S
C3759 C3758 1.367 . S
C3759 C3767 1.433 . S
C3760 H3756 0.929 . S
C3760 C3762 1.378 . S
C3760 C3764 1.350 . S
C3761 C3764 1.463 . S
C3761 C3766 1.350 . S
C3761 N3769 1.427 . S
C3762 H3753 0.930 . S
C3762 C3760 1.378 . S
C3762 C3763 1.367 . S
C3763 C3762 1.367 . S
C3763 C3765 1.433 . S
C3764 C3760 1.350 . S
C3764 C3761 1.463 . S
C3764 N3768 1.427 . S
C3765 H3755 0.929 . S
C3765 C3763 1.433 . S
C3765 N3768 1.384 . S
C3766 H3757 0.929 . S
C3766 C3758 1.378 . S
C3766 C3761 1.350 . S
C3767 H3754 0.929 . S
C3767 C3759 1.433 . S
C3767 N3769 1.384 . S
N3768 C3764 1.427 . S
N3768 C3765 1.384 . S
N3769 C3761 1.427 . S
N3769 C3767 1.384 . S
H3770 C3776 0.930 . S
H3771 C3780 0.930 . S
H3772 C3785 0.929 . S
H3773 C3783 0.929 . S
H3774 C3778 0.929 . S
H3775 C3784 0.929 . S
C3776 H3770 0.930 . S
C3776 C3777 1.367 . S
C3776 C3784 1.378 . S
C3777 C3776 1.367 . S
C3777 C3785 1.433 . S
C3778 H3774 0.929 . S
C3778 C3780 1.378 . S
C3778 C3782 1.350 . S
C3779 C3782 1.463 . S
C3779 C3784 1.350 . S
C3779 N3787 1.427 . S
C3780 H3771 0.930 . S
C3780 C3778 1.378 . S
C3780 C3781 1.367 . S
C3781 C3780 1.367 . S
C3781 C3783 1.433 . S
C3782 C3778 1.350 . S
C3782 C3779 1.463 . S
C3782 N3786 1.427 . S
C3783 H3773 0.929 . S
C3783 C3781 1.433 . S
C3783 N3786 1.384 . S
C3784 H3775 0.929 . S
C3784 C3776 1.378 . S
C3784 C3779 1.350 . S
C3785 H3772 0.929 . S
C3785 C3777 1.433 . S
C3785 N3787 1.384 . S
N3786 C3782 1.427 . S
N3786 C3783 1.384 . S
N3787 C3779 1.427 . S
N3787 C3785 1.384 . S
H3788 C3794 0.930 . S
H3789 C3798 0.930 . S
H3790 C3803 0.929 . S
H3791 C3801 0.929 . S
H3792 C3796 0.929 . S
H3793 C3802 0.929 . S
C3794 H3788 0.930 . S
C3794 C3795 1.367 . S
C3794 C3802 1.378 . S
C3795 C3794 1.367 . S
C3795 C3803 1.433 . S
C3796 H3792 0.929 . S
C3796 C3798 1.378 . S
C3796 C3800 1.350 . S
C3797 C3800 1.463 . S
C3797 C3802 1.350 . S
C3797 N3805 1.427 . S
C3798 H3789 0.930 . S
C3798 C3796 1.378 . S
C3798 C3799 1.367 . S
C3799 C3798 1.367 . S
C3799 C3801 1.433 . S
C3800 C3796 1.350 . S
C3800 C3797 1.463 . S
C3800 N3804 1.427 . S
C3801 H3791 0.929 . S
C3801 C3799 1.433 . S
C3801 N3804 1.384 . S
C3802 H3793 0.929 . S
C3802 C3794 1.378 . S
C3802 C3797 1.350 . S
C3803 H3790 0.929 . S
C3803 C3795 1.433 . S
C3803 N3805 1.384 . S
N3804 C3800 1.427 . S
N3804 C3801 1.384 . S
N3805 C3797 1.427 . S
N3805 C3803 1.384 . S
H3806 C3812 0.930 . S
H3807 C3816 0.930 . S
H3808 C3821 0.929 . S
H3809 C3819 0.929 . S
H3810 C3814 0.929 . S
H3811 C3820 0.929 . S
C3812 H3806 0.930 . S
C3812 C3813 1.367 . S
C3812 C3820 1.378 . S
C3813 C3812 1.367 . S
C3813 C3821 1.433 . S
C3814 H3810 0.929 . S
C3814 C3816 1.378 . S
C3814 C3818 1.350 . S
C3815 C3818 1.463 . S
C3815 C3820 1.350 . S
C3815 N3823 1.427 . S
C3816 H3807 0.930 . S
C3816 C3814 1.378 . S
C3816 C3817 1.367 . S
C3817 C3816 1.367 . S
C3817 C3819 1.433 . S
C3818 C3814 1.350 . S
C3818 C3815 1.463 . S
C3818 N3822 1.427 . S
C3819 H3809 0.929 . S
C3819 C3817 1.433 . S
C3819 N3822 1.384 . S
C3820 H3811 0.929 . S
C3820 C3812 1.378 . S
C3820 C3815 1.350 . S
C3821 H3808 0.929 . S
C3821 C3813 1.433 . S
C3821 N3823 1.384 . S
N3822 C3818 1.427 . S
N3822 C3819 1.384 . S
N3823 C3815 1.427 . S
N3823 C3821 1.384 . S
H3824 C3830 0.930 . S
H3825 C3834 0.930 . S
H3826 C3839 0.929 . S
H3827 C3837 0.929 . S
H3828 C3832 0.929 . S
H3829 C3838 0.929 . S
C3830 H3824 0.930 . S
C3830 C3831 1.367 . S
C3830 C3838 1.378 . S
C3831 C3830 1.367 . S
C3831 C3839 1.433 . S
C3832 H3828 0.929 . S
C3832 C3834 1.378 . S
C3832 C3836 1.350 . S
C3833 C3836 1.463 . S
C3833 C3838 1.350 . S
C3833 N3841 1.427 . S
C3834 H3825 0.930 . S
C3834 C3832 1.378 . S
C3834 C3835 1.367 . S
C3835 C3834 1.367 . S
C3835 C3837 1.433 . S
C3836 C3832 1.350 . S
C3836 C3833 1.463 . S
C3836 N3840 1.427 . S
C3837 H3827 0.929 . S
C3837 C3835 1.433 . S
C3837 N3840 1.384 . S
C3838 H3829 0.929 . S
C3838 C3830 1.378 . S
C3838 C3833 1.350 . S
C3839 H3826 0.929 . S
C3839 C3831 1.433 . S
C3839 N3841 1.384 . S
N3840 C3836 1.427 . S
N3840 C3837 1.384 . S
N3841 C3833 1.427 . S
N3841 C3839 1.384 . S
H3842 C3848 0.930 . S
H3843 C3852 0.930 . S
H3844 C3857 0.929 . S
H3845 C3855 0.929 . S
H3846 C3850 0.929 . S
H3847 C3856 0.929 . S
C3848 H3842 0.930 . S
C3848 C3849 1.367 . S
C3848 C3856 1.378 . S
C3849 C3848 1.367 . S
C3849 C3857 1.433 . S
C3850 H3846 0.929 . S
C3850 C3852 1.378 . S
C3850 C3854 1.350 . S
C3851 C3854 1.463 . S
C3851 C3856 1.350 . S
C3851 N3859 1.427 . S
C3852 H3843 0.930 . S
C3852 C3850 1.378 . S
C3852 C3853 1.367 . S
C3853 C3852 1.367 . S
C3853 C3855 1.433 . S
C3854 C3850 1.350 . S
C3854 C3851 1.463 . S
C3854 N3858 1.427 . S
C3855 H3845 0.929 . S
C3855 C3853 1.433 . S
C3855 N3858 1.384 . S
C3856 H3847 0.929 . S
C3856 C3848 1.378 . S
C3856 C3851 1.350 . S
C3857 H3844 0.929 . S
C3857 C3849 1.433 . S
C3857 N3859 1.384 . S
N3858 C3854 1.427 . S
N3858 C3855 1.384 . S
N3859 C3851 1.427 . S
N3859 C3857 1.384 . S
H3860 C3866 0.930 . S
H3861 C3870 0.930 . S
H3862 C3875 0.929 . S
H3863 C3873 0.929 . S
H3864 C3868 0.929 . S
H3865 C3874 0.929 . S
C3866 H3860 0.930 . S
C3866 C3867 1.367 . S
C3866 C3874 1.378 . S
C3867 C3866 1.367 . S
C3867 C3875 1.433 . S
C3868 H3864 0.929 . S
C3868 C3870 1.378 . S
C3868 C3872 1.350 . S
C3869 C3872 1.463 . S
C3869 C3874 1.350 . S
C3869 N3877 1.427 . S
C3870 H3861 0.930 . S
C3870 C3868 1.378 . S
C3870 C3871 1.367 . S
C3871 C3870 1.367 . S
C3871 C3873 1.433 . S
C3872 C3868 1.350 . S
C3872 C3869 1.463 . S
C3872 N3876 1.427 . S
C3873 H3863 0.929 . S
C3873 C3871 1.433 . S
C3873 N3876 1.384 . S
C3874 H3865 0.929 . S
C3874 C3866 1.378 . S
C3874 C3869 1.350 . S
C3875 H3862 0.929 . S
C3875 C3867 1.433 . S
C3875 N3877 1.384 . S
N3876 C3872 1.427 . S
N3876 C3873 1.384 . S
N3877 C3869 1.427 . S
N3877 C3875 1.384 . S
H3878 C3884 0.930 . S
H3879 C3888 0.930 . S
H3880 C3893 0.929 . S
H3881 C3891 0.929 . S
H3882 C3886 0.929 . S
H3883 C3892 0.929 . S
C3884 H3878 0.930 . S
C3884 C3885 1.367 . S
C3884 C3892 1.378 . S
C3885 C3884 1.367 . S
C3885 C3893 1.433 . S
C3886 H3882 0.929 . S
C3886 C3888 1.378 . S
C3886 C3890 1.350 . S
C3887 C3890 1.463 . S
C3887 C3892 1.350 . S
C3887 N3895 1.427 . S
C3888 H3879 0.930 . S
C3888 C3886 1.378 . S
C3888 C3889 1.367 . S
C3889 C3888 1.367 . S
C3889 C3891 1.433 . S
C3890 C3886 1.350 . S
C3890 C3887 1.463 . S
C3890 N3894 1.427 . S
C3891 H3881 0.929 . S
C3891 C3889 1.433 . S
C3891 N3894 1.384 . S
C3892 H3883 0.929 . S
C3892 C3884 1.378 . S
C3892 C3887 1.350 . S
C3893 H3880 0.929 . S
C3893 C3885 1.433 . S
C3893 N3895 1.384 . S
N3894 C3890 1.427 . S
N3894 C3891 1.384 . S
N3895 C3887 1.427 . S
N3895 C3893 1.384 . S
H3896 C3902 0.930 . S
H3897 C3906 0.930 . S
H3898 C3911 0.929 . S
H3899 C3909 0.929 . S
H3900 C3904 0.929 . S
H3901 C3910 0.929 . S
C3902 H3896 0.930 . S
C3902 C3903 1.367 . S
C3902 C3910 1.378 . S
C3903 C3902 1.367 . S
C3903 C3911 1.433 . S
C3904 H3900 0.929 . S
C3904 C3906 1.378 . S
C3904 C3908 1.350 . S
C3905 C3908 1.463 . S
C3905 C3910 1.350 . S
C3905 N3913 1.427 . S
C3906 H3897 0.930 . S
C3906 C3904 1.378 . S
C3906 C3907 1.367 . S
C3907 C3906 1.367 . S
C3907 C3909 1.433 . S
C3908 C3904 1.350 . S
C3908 C3905 1.463 . S
C3908 N3912 1.427 . S
C3909 H3899 0.929 . S
C3909 C3907 1.433 . S
C3909 N3912 1.384 . S
C3910 H3901 0.929 . S
C3910 C3902 1.378 . S
C3910 C3905 1.350 . S
C3911 H3898 0.929 . S
C3911 C3903 1.433 . S
C3911 N3913 1.384 . S
N3912 C3908 1.427 . S
N3912 C3909 1.384 . S
N3913 C3905 1.427 . S
N3913 C3911 1.384 . S
H3914 C3920 0.930 . S
H3915 C3924 0.930 . S
H3916 C3929 0.929 . S
H3917 C3927 0.929 . S
H3918 C3922 0.929 . S
H3919 C3928 0.929 . S
C3920 H3914 0.930 . S
C3920 C3921 1.367 . S
C3920 C3928 1.378 . S
C3921 C3920 1.367 . S
C3921 C3929 1.433 . S
C3922 H3918 0.929 . S
C3922 C3924 1.378 . S
C3922 C3926 1.350 . S
C3923 C3926 1.463 . S
C3923 C3928 1.350 . S
C3923 N3931 1.427 . S
C3924 H3915 0.930 . S
C3924 C3922 1.378 . S
C3924 C3925 1.367 . S
C3925 C3924 1.367 . S
C3925 C3927 1.433 . S
C3926 C3922 1.350 . S
C3926 C3923 1.463 . S
C3926 N3930 1.427 . S
C3927 H3917 0.929 . S
C3927 C3925 1.433 . S
C3927 N3930 1.384 . S
C3928 H3919 0.929 . S
C3928 C3920 1.378 . S
C3928 C3923 1.350 . S
C3929 H3916 0.929 . S
C3929 C3921 1.433 . S
C3929 N3931 1.384 . S
N3930 C3926 1.427 . S
N3930 C3927 1.384 . S
N3931 C3923 1.427 . S
N3931 C3929 1.384 . S
H3932 C3938 0.930 . S
H3933 C3942 0.930 . S
H3934 C3947 0.929 . S
H3935 C3945 0.929 . S
H3936 C3940 0.929 . S
H3937 C3946 0.929 . S
C3938 H3932 0.930 . S
C3938 C3939 1.367 . S
C3938 C3946 1.378 . S
C3939 C3938 1.367 . S
C3939 C3947 1.433 . S
C3940 H3936 0.929 . S
C3940 C3942 1.378 . S
C3940 C3944 1.350 . S
C3941 C3944 1.463 . S
C3941 C3946 1.350 . S
C3941 N3949 1.427 . S
C3942 H3933 0.930 . S
C3942 C3940 1.378 . S
C3942 C3943 1.367 . S
C3943 C3942 1.367 . S
C3943 C3945 1.433 . S
C3944 C3940 1.350 . S
C3944 C3941 1.463 . S
C3944 N3948 1.427 . S
C3945 H3935 0.929 . S
C3945 C3943 1.433 . S
C3945 N3948 1.384 . S
C3946 H3937 0.929 . S
C3946 C3938 1.378 . S
C3946 C3941 1.350 . S
C3947 H3934 0.929 . S
C3947 C3939 1.433 . S
C3947 N3949 1.384 . S
N3948 C3944 1.427 . S
N3948 C3945 1.384 . S
N3949 C3941 1.427 . S
N3949 C3947 1.384 . S
H3950 C3956 0.930 . S
H3951 C3960 0.930 . S
H3952 C3965 0.929 . S
H3953 C3963 0.929 . S
H3954 C3958 0.929 . S
H3955 C3964 0.929 . S
C3956 H3950 0.930 . S
C3956 C3957 1.367 . S
C3956 C3964 1.378 . S
C3957 C3956 1.367 . S
C3957 C3965 1.433 . S
C3958 H3954 0.929 . S
C3958 C3960 1.378 . S
C3958 C3962 1.350 . S
C3959 C3962 1.463 . S
C3959 C3964 1.350 . S
C3959 N3967 1.427 . S
C3960 H3951 0.930 . S
C3960 C3958 1.378 . S
C3960 C3961 1.367 . S
C3961 C3960 1.367 . S
C3961 C3963 1.433 . S
C3962 C3958 1.350 . S
C3962 C3959 1.463 . S
C3962 N3966 1.427 . S
C3963 H3953 0.929 . S
C3963 C3961 1.433 . S
C3963 N3966 1.384 . S
C3964 H3955 0.929 . S
C3964 C3956 1.378 . S
C3964 C3959 1.350 . S
C3965 H3952 0.929 . S
C3965 C3957 1.433 . S
C3965 N3967 1.384 . S
N3966 C3962 1.427 . S
N3966 C3963 1.384 . S
N3967 C3959 1.427 . S
N3967 C3965 1.384 . S
H3968 C3974 0.930 . S
H3969 C3978 0.930 . S
H3970 C3983 0.929 . S
H3971 C3981 0.929 . S
H3972 C3976 0.929 . S
H3973 C3982 0.929 . S
C3974 H3968 0.930 . S
C3974 C3975 1.367 . S
C3974 C3982 1.378 . S
C3975 C3974 1.367 . S
C3975 C3983 1.433 . S
C3976 H3972 0.929 . S
C3976 C3978 1.378 . S
C3976 C3980 1.350 . S
C3977 C3980 1.463 . S
C3977 C3982 1.350 . S
C3977 N3985 1.427 . S
C3978 H3969 0.930 . S
C3978 C3976 1.378 . S
C3978 C3979 1.367 . S
C3979 C3978 1.367 . S
C3979 C3981 1.433 . S
C3980 C3976 1.350 . S
C3980 C3977 1.463 . S
C3980 N3984 1.427 . S
C3981 H3971 0.929 . S
C3981 C3979 1.433 . S
C3981 N3984 1.384 . S
C3982 H3973 0.929 . S
C3982 C3974 1.378 . S
C3982 C3977 1.350 . S
C3983 H3970 0.929 . S
C3983 C3975 1.433 . S
C3983 N3985 1.384 . S
N3984 C3980 1.427 . S
N3984 C3981 1.384 . S
N3985 C3977 1.427 . S
N3985 C3983 1.384 . S
H3986 C3992 0.930 . S
H3987 C3996 0.930 . S
H3988 C4001 0.929 . S
H3989 C3999 0.929 . S
H3990 C3994 0.929 . S
H3991 C4000 0.929 . S
C3992 H3986 0.930 . S
C3992 C3993 1.367 . S
C3992 C4000 1.378 . S
C3993 C3992 1.367 . S
C3993 C4001 1.433 . S
C3994 H3990 0.929 . S
C3994 C3996 1.378 . S
C3994 C3998 1.350 . S
C3995 C3998 1.463 . S
C3995 C4000 1.350 . S
C3995 N4003 1.427 . S
C3996 H3987 0.930 . S
C3996 C3994 1.378 . S
C3996 C3997 1.367 . S
C3997 C3996 1.367 . S
C3997 C3999 1.433 . S
C3998 C3994 1.350 . S
C3998 C3995 1.463 . S
C3998 N4002 1.427 . S
C3999 H3989 0.929 . S
C3999 C3997 1.433 . S
C3999 N4002 1.384 . S
C4000 H3991 0.929 . S
C4000 C3992 1.378 . S
C4000 C3995 1.350 . S
C4001 H3988 0.929 . S
C4001 C3993 1.433 . S
C4001 N4003 1.384 . S
N4002 C3998 1.427 . S
N4002 C3999 1.384 . S
N4003 C3995 1.427 . S
N4003 C4001 1.384 . S
H4004 C4010 0.930 . S
H4005 C4014 0.930 . S
H4006 C4019 0.929 . S
H4007 C4017 0.929 . S
H4008 C4012 0.929 . S
H4009 C4018 0.929 . S
C4010 H4004 0.930 . S
C4010 C4011 1.367 . S
C4010 C4018 1.378 . S
C4011 C4010 1.367 . S
C4011 C4019 1.433 . S
C4012 H4008 0.929 . S
C4012 C4014 1.378 . S
C4012 C4016 1.350 . S
C4013 C4016 1.463 . S
C4013 C4018 1.350 . S
C4013 N4021 1.427 . S
C4014 H4005 0.930 . S
C4014 C4012 1.378 . S
C4014 C4015 1.367 . S
C4015 C4014 1.367 . S
C4015 C4017 1.433 . S
C4016 C4012 1.350 . S
C4016 C4013 1.463 . S
C4016 N4020 1.427 . S
C4017 H4007 0.929 . S
C4017 C4015 1.433 . S
C4017 N4020 1.384 . S
C4018 H4009 0.929 . S
C4018 C4010 1.378 . S
C4018 C4013 1.350 . S
C4019 H4006 0.929 . S
C4019 C4011 1.433 . S
C4019 N4021 1.384 . S
N4020 C4016 1.427 . S
N4020 C4017 1.384 . S
N4021 C4013 1.427 . S
N4021 C4019 1.384 . S
H4022 C4028 0.930 . S
H4023 C4032 0.930 . S
H4024 C4037 0.929 . S
H4025 C4035 0.929 . S
H4026 C4030 0.929 . S
H4027 C4036 0.929 . S
C4028 H4022 0.930 . S
C4028 C4029 1.367 . S
C4028 C4036 1.378 . S
C4029 C4028 1.367 . S
C4029 C4037 1.433 . S
C4030 H4026 0.929 . S
C4030 C4032 1.378 . S
C4030 C4034 1.350 . S
C4031 C4034 1.463 . S
C4031 C4036 1.350 . S
C4031 N4039 1.427 . S
C4032 H4023 0.930 . S
C4032 C4030 1.378 . S
C4032 C4033 1.367 . S
C4033 C4032 1.367 . S
C4033 C4035 1.433 . S
C4034 C4030 1.350 . S
C4034 C4031 1.463 . S
C4034 N4038 1.427 . S
C4035 H4025 0.929 . S
C4035 C4033 1.433 . S
C4035 N4038 1.384 . S
C4036 H4027 0.929 . S
C4036 C4028 1.378 . S
C4036 C4031 1.350 . S
C4037 H4024 0.929 . S
C4037 C4029 1.433 . S
C4037 N4039 1.384 . S
N4038 C4034 1.427 . S
N4038 C4035 1.384 . S
N4039 C4031 1.427 . S
N4039 C4037 1.384 . S
H4040 C4046 0.930 . S
H4041 C4050 0.930 . S
H4042 C4055 0.929 . S
H4043 C4053 0.929 . S
H4044 C4048 0.929 . S
H4045 C4054 0.929 . S
C4046 H4040 0.930 . S
C4046 C4047 1.367 . S
C4046 C4054 1.378 . S
C4047 C4046 1.367 . S
C4047 C4055 1.433 . S
C4048 H4044 0.929 . S
C4048 C4050 1.378 . S
C4048 C4052 1.350 . S
C4049 C4052 1.463 . S
C4049 C4054 1.350 . S
C4049 N4057 1.427 . S
C4050 H4041 0.930 . S
C4050 C4048 1.378 . S
C4050 C4051 1.367 . S
C4051 C4050 1.367 . S
C4051 C4053 1.433 . S
C4052 C4048 1.350 . S
C4052 C4049 1.463 . S
C4052 N4056 1.427 . S
C4053 H4043 0.929 . S
C4053 C4051 1.433 . S
C4053 N4056 1.384 . S
C4054 H4045 0.929 . S
C4054 C4046 1.378 . S
C4054 C4049 1.350 . S
C4055 H4042 0.929 . S
C4055 C4047 1.433 . S
C4055 N4057 1.384 . S
N4056 C4052 1.427 . S
N4056 C4053 1.384 . S
N4057 C4049 1.427 . S
N4057 C4055 1.384 . S
H4058 C4064 0.930 . S
H4059 C4068 0.930 . S
H4060 C4073 0.929 . S
H4061 C4071 0.929 . S
H4062 C4066 0.929 . S
H4063 C4072 0.929 . S
C4064 H4058 0.930 . S
C4064 C4065 1.367 . S
C4064 C4072 1.378 . S
C4065 C4064 1.367 . S
C4065 C4073 1.433 . S
C4066 H4062 0.929 . S
C4066 C4068 1.378 . S
C4066 C4070 1.350 . S
C4067 C4070 1.463 . S
C4067 C4072 1.350 . S
C4067 N4075 1.427 . S
C4068 H4059 0.930 . S
C4068 C4066 1.378 . S
C4068 C4069 1.367 . S
C4069 C4068 1.367 . S
C4069 C4071 1.433 . S
C4070 C4066 1.350 . S
C4070 C4067 1.463 . S
C4070 N4074 1.427 . S
C4071 H4061 0.929 . S
C4071 C4069 1.433 . S
C4071 N4074 1.384 . S
C4072 H4063 0.929 . S
C4072 C4064 1.378 . S
C4072 C4067 1.350 . S
C4073 H4060 0.929 . S
C4073 C4065 1.433 . S
C4073 N4075 1.384 . S
N4074 C4070 1.427 . S
N4074 C4071 1.384 . S
N4075 C4067 1.427 . S
N4075 C4073 1.384 . S
H4076 C4082 0.930 . S
H4077 C4086 0.930 . S
H4078 C4091 0.929 . S
H4079 C4089 0.929 . S
H4080 C4084 0.929 . S
H4081 C4090 0.929 . S
C4082 H4076 0.930 . S
C4082 C4083 1.367 . S
C4082 C4090 1.378 . S
C4083 C4082 1.367 . S
C4083 C4091 1.433 . S
C4084 H4080 0.929 . S
C4084 C4086 1.378 . S
C4084 C4088 1.350 . S
C4085 C4088 1.463 . S
C4085 C4090 1.350 . S
C4085 N4093 1.427 . S
C4086 H4077 0.930 . S
C4086 C4084 1.378 . S
C4086 C4087 1.367 . S
C4087 C4086 1.367 . S
C4087 C4089 1.433 . S
C4088 C4084 1.350 . S
C4088 C4085 1.463 . S
C4088 N4092 1.427 . S
C4089 H4079 0.929 . S
C4089 C4087 1.433 . S
C4089 N4092 1.384 . S
C4090 H4081 0.929 . S
C4090 C4082 1.378 . S
C4090 C4085 1.350 . S
C4091 H4078 0.929 . S
C4091 C4083 1.433 . S
C4091 N4093 1.384 . S
N4092 C4088 1.427 . S
N4092 C4089 1.384 . S
N4093 C4085 1.427 . S
N4093 C4091 1.384 . S
H4094 C4100 0.930 . S
H4095 C4104 0.930 . S
H4096 C4109 0.929 . S
H4097 C4107 0.929 . S
H4098 C4102 0.929 . S
H4099 C4108 0.929 . S
C4100 H4094 0.930 . S
C4100 C4101 1.367 . S
C4100 C4108 1.378 . S
C4101 C4100 1.367 . S
C4101 C4109 1.433 . S
C4102 H4098 0.929 . S
C4102 C4104 1.378 . S
C4102 C4106 1.350 . S
C4103 C4106 1.463 . S
C4103 C4108 1.350 . S
C4103 N4111 1.427 . S
C4104 H4095 0.930 . S
C4104 C4102 1.378 . S
C4104 C4105 1.367 . S
C4105 C4104 1.367 . S
C4105 C4107 1.433 . S
C4106 C4102 1.350 . S
C4106 C4103 1.463 . S
C4106 N4110 1.427 . S
C4107 H4097 0.929 . S
C4107 C4105 1.433 . S
C4107 N4110 1.384 . S
C4108 H4099 0.929 . S
C4108 C4100 1.378 . S
C4108 C4103 1.350 . S
C4109 H4096 0.929 . S
C4109 C4101 1.433 . S
C4109 N4111 1.384 . S
N4110 C4106 1.427 . S
N4110 C4107 1.384 . S
N4111 C4103 1.427 . S
N4111 C4109 1.384 . S
C2395 C1281 1.549 . S
C2391 C21 1.539 . S
C2413 C1348 1.433 . S
C2409 C42 1.422 . S
C2427 C82 1.520 . S
C2431 C1373 1.530 . S
C2449 C1433 1.491 . S
C2445 C135 1.494 . S
C2463 C175 1.421 . S
C2467 C1426 1.418 . S
C2481 C221 1.535 . S
C2485 C1302 1.544 . S
C2499 C255 1.482 . S
C2503 C1327 1.483 . S
C2521 C1394 1.564 . S
C2517 C301 1.544 . S
C2539 C1486 1.518 . S
C2535 C15 1.519 . S
C2553 C55 1.432 . S
C2557 C1525 1.432 . S
C2571 C101 1.544 . S
C2575 C1578 1.553 . S
C2593 C1603 1.502 . S
C2589 C141 1.493 . S
C2607 C162 1.443 . S
C2611 C1663 1.452 . S
C2629 C1716 1.518 . S
C2625 C215 1.517 . S
C2643 C261 1.489 . S
C2647 C1755 1.505 . S
C2665 C1794 1.525 . S
C2661 C282 1.507 . S
C2679 C2 1.519 . S
C2683 C1624 1.531 . S
C2697 C181 1.427 . S
C2701 C1695 1.436 . S
C2719 C1748 1.545 . S
C2715 C202 1.533 . S
C2733 C242 1.489 . S
C2737 C1801 1.508 . S
C2755 C1656 1.513 . S
C2751 C295 1.512 . S
C2773 C1518 1.521 . S
C2769 C95 1.523 . S
C2787 C122 1.487 . S
C2791 C1557 1.498 . S
C2809 C1465 1.447 . S
C2805 C61 1.435 . S
C2827 C1833 1.550 . S
C2823 C341 1.545 . S
C2841 C362 1.421 . S
C2845 C1879 1.431 . S
C2859 C402 1.519 . S
C2863 C1946 1.530 . S
C2881 C1992 1.492 . S
C2877 C455 1.494 . S
C2895 C495 1.421 . S
C2899 C1971 1.418 . S
C2913 C541 1.535 . S
C2917 C1854 1.543 . S
C2931 C575 1.483 . S
C2935 C1900 1.480 . S
C2949 C621 1.547 . S
C2953 C1925 1.562 . S
C2971 C1670 1.518 . S
C2967 C335 1.519 . S
C2985 C375 1.432 . S
C2989 C2031 1.431 . S
C3007 C1762 1.554 . S
C3003 C421 1.545 . S
C3021 C461 1.485 . S
C3025 C2063 1.503 . S
C3039 C482 1.445 . S
C3043 C1479 1.455 . S
C3061 C2130 1.517 . S
C3057 C535 1.517 . S
C3075 C581 1.494 . S
C3079 C1571 1.505 . S
C3097 C2162 1.525 . S
C3093 C602 1.506 . S
C3111 C322 1.519 . S
C3115 C2084 1.533 . S
C3133 C2109 1.436 . S
C3129 C501 1.427 . S
C3147 C522 1.535 . S
C3151 C1564 1.546 . S
C3169 C2169 1.508 . S
C3165 C562 1.497 . S
C3183 C615 1.514 . S
C3187 C1472 1.511 . S
C3201 C415 1.523 . S
C3205 C2024 1.522 . S
C3219 C442 1.484 . S
C3223 C1741 1.499 . S
C3237 C381 1.432 . S
C3241 C1649 1.448 . S
C3255 C661 1.539 . S
C3259 C1939 1.550 . S
C3277 C1985 1.432 . S
C3273 C682 1.420 . S
C3291 C722 1.518 . S
C3295 C1840 1.530 . S
C3309 C775 1.494 . S
C3313 C1886 1.494 . S
C3327 C815 1.422 . S
C3331 C1893 1.422 . S
C3345 C861 1.537 . S
C3349 C1932 1.544 . S
C3367 C1978 1.483 . S
C3363 C895 1.482 . S
C3381 C941 1.545 . S
C3385 C1847 1.564 . S
C3403 C2201 1.519 . S
C3399 C655 1.519 . S
C3417 C695 1.432 . S
C3421 C1709 1.430 . S
C3439 C2247 1.554 . S
C3435 C741 1.544 . S
C3453 C781 1.486 . S
C3457 C1787 1.503 . S
C3471 C802 1.440 . S
C3475 C2314 1.454 . S
C3489 C855 1.518 . S
C3493 C1532 1.516 . S
C3511 C2346 1.504 . S
C3507 C901 1.495 . S
C3525 C922 1.505 . S
C3529 C1610 1.526 . S
C3547 C1808 1.532 . S
C3543 C642 1.522 . S
C3565 C1511 1.437 . S
C3561 C821 1.428 . S
C3579 C842 1.534 . S
C3583 C2353 1.545 . S
C3597 C882 1.496 . S
C3601 C1617 1.508 . S
C3619 C2293 1.514 . S
C3615 C935 1.513 . S
C3637 C1702 1.522 . S
C3633 C735 1.523 . S
C3655 C2268 1.499 . S
C3651 C762 1.480 . S
C3673 C2222 1.445 . S
C3669 C701 1.438 . S
C3687 C981 1.541 . S
C3691 C1380 1.549 . S
C3705 C1002 1.424 . S
C3709 C1440 1.432 . S
C3727 C1288 1.530 . S
C3723 C1042 1.518 . S
C3745 C1341 1.494 . S
C3741 C1095 1.493 . S
C3763 C1334 1.419 . S
C3759 C1135 1.421 . S
C3781 C1387 1.544 . S
C3777 C1181 1.535 . S
C3799 C1419 1.481 . S
C3795 C1215 1.483 . S
C3813 C1261 1.548 . S
C3817 C1295 1.563 . S
C3831 C975 1.519 . S
C3835 C2307 1.519 . S
C3853 C2123 1.430 . S
C3849 C1015 1.432 . S
C3871 C2339 1.555 . S
C3867 C1061 1.548 . S
C3889 C2155 1.502 . S
C3885 C1101 1.491 . S
C3903 C1122 1.440 . S
C3907 C2208 1.453 . S
C3925 C2038 1.518 . S
C3921 C1175 1.517 . S
C3943 C2254 1.506 . S
C3939 C1221 1.490 . S
C3957 C1242 1.505 . S
C3961 C2070 1.526 . S
C3979 C2176 1.531 . S
C3975 C962 1.519 . S
C3997 C2017 1.435 . S
C3993 C1141 1.427 . S
C4015 C2261 1.545 . S
C4011 C1162 1.539 . S
C4029 C1202 1.489 . S
C4033 C2077 1.509 . S
C4047 C1255 1.513 . S
C4051 C2215 1.513 . S
C4065 C1055 1.523 . S
C4069 C2116 1.521 . S
C4083 C1082 1.479 . S
C4087 C2360 1.499 . S
C4105 C2300 1.447 . S
C4101 C1021 1.434 . S
