# Generated by pormake.
# Topology zzz, (3,6)-cn, num edge types: 1
# Building blocks:
#     Node 0, Type 0, BuildingBlock: PAMTOO_clean_linker_0, # of connection points: 3
#     Node 1, Type 0, BuildingBlock: PAMTOO_clean_linker_0, # of connection points: 3
#     Node 2, Type 0, BuildingBlock: PAMTOO_clean_linker_0, # of connection points: 3
#     Node 3, Type 0, BuildingBlock: PAMTOO_clean_linker_0, # of connection points: 3
#     Node 4, Type 0, BuildingBlock: PAMTOO_clean_linker_0, # of connection points: 3
#     Node 5, Type 0, BuildingBlock: PAMTOO_clean_linker_0, # of connection points: 3
#     Node 6, Type 0, BuildingBlock: PAMTOO_clean_linker_0, # of connection points: 3
#     Node 7, Type 0, BuildingBlock: PAMTOO_clean_linker_0, # of connection points: 3
#     Node 8, Type 1, BuildingBlock: BETGAK_clean_sbu_0, # of connection points: 6
#     Node 9, Type 1, BuildingBlock: BETGAK_clean_sbu_0, # of connection points: 6
#     Node 10, Type 1, BuildingBlock: BETGAK_clean_sbu_0, # of connection points: 6
#     Node 11, Type 1, BuildingBlock: BETGAK_clean_sbu_0, # of connection points: 6
#     Edge 12, Type (0, 1), BuildingBlock: UVAHIK_clean_linker_0, # of connection points: 2
#     Edge 13, Type (0, 1), BuildingBlock: UVAHIK_clean_linker_0, # of connection points: 2
#     Edge 14, Type (0, 1), BuildingBlock: UVAHIK_clean_linker_0, # of connection points: 2
#     Edge 15, Type (0, 1), BuildingBlock: UVAHIK_clean_linker_0, # of connection points: 2
#     Edge 16, Type (0, 1), BuildingBlock: UVAHIK_clean_linker_0, # of connection points: 2
#     Edge 17, Type (0, 1), BuildingBlock: UVAHIK_clean_linker_0, # of connection points: 2
#     Edge 18, Type (0, 1), BuildingBlock: UVAHIK_clean_linker_0, # of connection points: 2
#     Edge 19, Type (0, 1), BuildingBlock: UVAHIK_clean_linker_0, # of connection points: 2
#     Edge 20, Type (0, 1), BuildingBlock: UVAHIK_clean_linker_0, # of connection points: 2
#     Edge 21, Type (0, 1), BuildingBlock: UVAHIK_clean_linker_0, # of connection points: 2
#     Edge 22, Type (0, 1), BuildingBlock: UVAHIK_clean_linker_0, # of connection points: 2
#     Edge 23, Type (0, 1), BuildingBlock: UVAHIK_clean_linker_0, # of connection points: 2
#     Edge 24, Type (0, 1), BuildingBlock: UVAHIK_clean_linker_0, # of connection points: 2
#     Edge 25, Type (0, 1), BuildingBlock: UVAHIK_clean_linker_0, # of connection points: 2
#     Edge 26, Type (0, 1), BuildingBlock: UVAHIK_clean_linker_0, # of connection points: 2
#     Edge 27, Type (0, 1), BuildingBlock: UVAHIK_clean_linker_0, # of connection points: 2
#     Edge 28, Type (0, 1), BuildingBlock: UVAHIK_clean_linker_0, # of connection points: 2
#     Edge 29, Type (0, 1), BuildingBlock: UVAHIK_clean_linker_0, # of connection points: 2
#     Edge 30, Type (0, 1), BuildingBlock: UVAHIK_clean_linker_0, # of connection points: 2
#     Edge 31, Type (0, 1), BuildingBlock: UVAHIK_clean_linker_0, # of connection points: 2
#     Edge 32, Type (0, 1), BuildingBlock: UVAHIK_clean_linker_0, # of connection points: 2
#     Edge 33, Type (0, 1), BuildingBlock: UVAHIK_clean_linker_0, # of connection points: 2
#     Edge 34, Type (0, 1), BuildingBlock: UVAHIK_clean_linker_0, # of connection points: 2
#     Edge 35, Type (0, 1), BuildingBlock: UVAHIK_clean_linker_0, # of connection points: 2
# Relax obj value: 0.232
# Max RMSD: 0.178
# Mean RMSD: 0.158
data_MOF--net-zzz--node1-BETGAK_clean_sbu_0--node2-PAMTOO_clean_linker_0--edge1-UVAHIK_clean_linker_0
_symmetry_space_group_name_H-M    P1
_symmetry_Int_Tables_number       1
_symmetry_cell_setting            triclinic
loop_
_symmetry_equiv_pos_as_xyz
'x, y, z'
_cell_length_a     67.871836
_cell_length_b     68.089107
_cell_length_c     17.258582
_cell_angle_alpha  90.018797
_cell_angle_beta   90.068917
_cell_angle_gamma 89.895243
loop_
_atom_site_label
_atom_site_type_symbol
_atom_site_fract_x
_atom_site_fract_y
_atom_site_fract_z
_atom_type_partial_charge
H0 H 0.79641 0.49047 0.21338 0.0
H1 H 0.73783 0.5046 0.13655 0.0
H2 H 0.75865 0.52607 0.35649 0.0
H3 H 0.70768 0.52243 0.34195 0.0
C4 C 0.71175 0.51564 0.28564 0.0
O5 O 0.72839 0.52511 0.25782 0.0
H6 H 0.71486 0.49982 0.29691 0.0
C7 C 0.78219 0.49719 0.22431 0.0
C8 C 0.77943 0.50803 0.29266 0.0
C9 C 0.76737 0.49585 0.16772 0.0
C10 C 0.74936 0.50541 0.17991 0.0
C11 C 0.74602 0.516 0.24819 0.0
C12 C 0.76115 0.51755 0.3044 0.0
H13 H 0.0494 0.79435 0.24798 0.0
H14 H 0.03494 0.74035 0.13361 0.0
H15 H 1.00126 0.75902 0.33174 0.0
H16 H 1.00228 0.70984 0.30842 0.0
C17 C 1.01163 0.71277 0.25691 0.0
O18 O 1.00623 0.73081 0.22601 0.0
H19 H 0.02717 0.713 0.2778 0.0
C20 C 0.04071 0.781 0.24595 0.0
C21 C 0.02511 0.77849 0.29839 0.0
C22 C 0.04433 0.76738 0.18676 0.0
C23 C 0.03249 0.75068 0.18038 0.0
C24 C 0.01735 0.74728 0.2337 0.0
C25 C 0.01339 0.76136 0.29211 0.0
H26 H 0.71987 0.01391 0.18192 0.0
H27 H 0.78073 0.01145 0.11589 0.0
H28 H 0.76384 0.99702 0.34964 0.0
H29 H 0.81194 0.01319 0.32574 0.0
C30 C 0.80819 0.01345 0.26305 0.0
O31 O 0.79375 0.99944 0.24974 0.0
H32 H 0.80269 0.02846 0.2491 0.0
C33 C 0.7351 0.0109 0.19698 0.0
C34 C 0.73979 1.00498 0.2727 0.0
C35 C 0.74972 0.01334 0.14052 0.0
C36 C 0.76942 1.00982 0.1596 0.0
C37 C 0.77462 1.00397 0.23471 0.0
C38 C 0.75983 1.00181 0.2919 0.0
H39 H 0.49489 0.72125 0.21673 0.0
H40 H 0.49579 0.78145 0.14315 0.0
H41 H 0.51736 0.76587 0.37001 0.0
H42 H 0.53755 0.79402 0.20758 0.0
C43 C 0.52891 0.80405 0.24571 0.0
O44 O 0.51152 0.79527 0.26971 0.0
H45 H 0.53818 0.80689 0.29761 0.0
C46 C 0.49836 0.73652 0.22854 0.0
C47 C 0.50621 0.7417 0.30073 0.0
C48 C 0.49481 0.7507 0.17142 0.0
C49 C 0.49882 0.77045 0.18681 0.0
C50 C 0.50736 0.776 0.25742 0.0
C51 C 0.51109 0.76158 0.31483 0.0
H52 H 0.22523 0.52487 0.18607 0.0
H53 H 0.28634 0.52278 0.25107 0.0
H54 H 0.26859 0.50487 0.02188 0.0
H55 H 0.31447 0.48585 0.08301 0.0
C56 C 0.30878 0.4926 0.13717 0.0
O57 O 0.29898 0.50981 0.11822 0.0
H58 H 0.29851 0.48166 0.16303 0.0
C59 C 0.24042 0.52152 0.17148 0.0
C60 C 0.24494 0.51472 0.09697 0.0
C61 C 0.25518 0.52427 0.22729 0.0
C62 C 0.27484 0.52045 0.20845 0.0
C63 C 0.27973 0.51316 0.13506 0.0
C64 C 0.26475 0.51016 0.07911 0.0
H65 H 0.99005 0.22421 0.18926 0.0
H66 H 1.0038 0.28239 0.26896 0.0
H67 H 0.02595 0.26226 0.04913 0.0
H68 H 0.99897 0.30605 0.1146 0.0
C69 C 0.01501 0.30889 0.12266 0.0
O70 O 0.02464 0.29219 0.1492 0.0
H71 H 0.02115 0.31271 0.06496 0.0
C72 C 0.99678 0.23841 0.17919 0.0
C73 C 1.00779 0.24134 0.11137 0.0
C74 C 0.99522 0.25303 0.23627 0.0
C75 C 1.0048 0.271 0.22525 0.0
C76 C 0.01559 0.27454 0.15762 0.0
C77 C 0.01731 0.25962 0.10079 0.0
H78 H 0.29894 1.00128 0.22007 0.0
H79 H 0.23693 0.99595 0.26441 0.0
H80 H 0.25706 0.01641 0.04199 0.0
H81 H 0.20855 0.03071 0.08699 0.0
C82 C 0.2145 0.02532 0.1431 0.0
O83 O 0.22564 1.00862 0.12912 0.0
H84 H 0.2238 0.03744 0.16642 0.0
C85 C 0.28383 1.00311 0.2007 0.0
C86 C 0.28012 1.0096 0.12493 0.0
C87 C 0.26843 0.99812 0.251 0.0
C88 C 0.24891 0.9998 0.22588 0.0
C89 C 0.24474 1.00676 0.15132 0.0
C90 C 0.26034 0.01136 0.1001 0.0
H91 H 0.51704 0.30018 0.22599 0.0
H92 H 0.50801 0.23991 0.29005 0.0
H93 H 0.50196 0.25751 0.05135 0.0
H94 H 0.52881 0.21886 0.14226 0.0
C95 C 0.51353 0.21296 0.13852 0.0
O96 O 0.49972 0.22764 0.15107 0.0
H97 H 0.51171 0.20738 0.07846 0.0
C98 C 0.51352 0.28521 0.20944 0.0
C99 C 0.50982 0.28083 0.13133 0.0
C100 C 0.51287 0.27063 0.26673 0.0
C101 C 0.50852 0.25127 0.24609 0.0
C102 C 0.50455 0.24646 0.16875 0.0
C103 C 0.50506 0.26126 0.11111 0.0
La104 La 0.02373 1.00253 0.77954 0.0
La105 La 1.00286 0.01531 0.6459 0.0
C106 C 0.03647 0.98312 0.89289 0.0
C107 C 0.04704 0.96411 0.89516 0.0
C108 C 0.0671 0.9628 0.87501 0.0
C109 C 0.0764 0.94452 0.86948 0.0
C110 C 0.06582 0.9272 0.88373 0.0
C111 C 0.04593 0.92856 0.90591 0.0
C112 C 0.03667 0.9468 0.91183 0.0
C113 C 0.04751 0.01398 0.66615 0.0
C114 C 1.0114 0.9709 0.64924 0.0
C115 C 0.99013 0.03542 0.53443 0.0
C116 C 0.98432 0.05636 0.53391 0.0
C117 C 0.96429 0.06158 0.53005 0.0
C118 C 0.95838 0.081 0.54287 0.0
C119 C 0.9724 0.09552 0.55996 0.0
C120 C 0.99247 0.09046 0.56036 0.0
C121 C 0.99837 0.07112 0.5473 0.0
C122 C 0.97936 1.00343 0.75955 0.0
C123 C 0.01523 0.04673 0.7754 0.0
O124 O 0.04594 0.99789 0.8622 0.0
O125 O 0.01816 0.98245 0.86922 0.0
O126 O 0.05026 0.01738 0.73895 0.0
O127 O 0.03203 1.00393 0.65872 0.0
O128 O 0.01621 0.97433 0.72245 0.0
O129 O 1.00772 0.98572 0.60202 0.0
O130 O 0.97897 0.024 0.57625 0.0
O131 O 1.00884 0.03162 0.54533 0.0
O132 O 0.97684 0.99956 0.68687 0.0
O133 O 0.9946 0.01387 0.76668 0.0
O134 O 1.01197 0.04332 0.70098 0.0
O135 O 0.01717 0.0318 0.8235 0.0
H136 H 0.07557 0.97585 0.86187 0.0
H137 H 0.09175 0.94392 0.85248 0.0
H138 H 0.03751 0.91549 0.91915 0.0
H139 H 0.02126 0.94733 0.92799 0.0
H140 H 0.95315 0.05049 0.51993 0.0
H141 H 0.94281 0.08453 0.54162 0.0
H142 H 1.00365 0.10145 0.57122 0.0
H143 H 0.01394 0.06769 0.55035 0.0
La144 La 0.5174 0.0229 0.76999 0.0
La145 La 0.50523 0.99941 0.6436 0.0
C146 C 0.5369 0.03874 0.8767 0.0
C147 C 0.55577 0.04909 0.86992 0.0
C148 C 0.56107 0.05781 0.79914 0.0
C149 C 0.58011 0.06495 0.78791 0.0
C150 C 0.59425 0.06334 0.84705 0.0
C151 C 0.58861 0.05529 0.91894 0.0
C152 C 0.56952 0.04821 0.93019 0.0
C153 C 0.50437 0.04413 0.6513 0.0
C154 C 0.54941 1.00949 0.64299 0.0
C155 C 0.48608 0.98442 0.53341 0.0
C156 C 0.46556 0.97737 0.52979 0.0
C157 C 0.46164 0.95783 0.50866 0.0
C158 C 0.44255 0.95025 0.5152 0.0
C159 C 0.42724 0.96206 0.54398 0.0
C160 C 0.43104 0.98175 0.56237 0.0
C161 C 0.44998 0.98937 0.55509 0.0
C162 C 0.51892 0.97831 0.76128 0.0
C163 C 0.47361 0.01212 0.77324 0.0
O164 O 0.52193 0.04719 0.84273 0.0
O165 O 0.53774 0.01996 0.8612 0.0
O166 O 0.50059 0.04756 0.7233 0.0
O167 O 0.51531 0.02915 0.64744 0.0
O168 O 0.54592 0.01569 0.71437 0.0
O169 O 0.53463 1.00431 0.59778 0.0
O170 O 0.49765 0.97436 0.57901 0.0
O171 O 0.48858 1.00335 0.54208 0.0
O172 O 0.52275 0.97511 0.689 0.0
O173 O 0.50761 0.99303 0.76604 0.0
O174 O 0.47683 1.00683 0.70044 0.0
O175 O 0.48859 0.01663 0.81847 0.0
H176 H 0.55071 0.05841 0.75135 0.0
H177 H 0.58392 0.07116 0.73217 0.0
H178 H 0.59922 0.05348 0.9653 0.0
H179 H 0.56577 0.04127 0.98469 0.0
H180 H 0.47343 0.94831 0.48913 0.0
H181 H 0.43984 0.93507 0.49972 0.0
H182 H 0.41934 0.99126 0.58289 0.0
H183 H 0.45247 1.00451 0.57159 0.0
La184 La 0.49921 0.51695 0.77376 0.0
La185 La 0.52145 0.50457 0.64407 0.0
C186 C 0.48479 0.5363 0.88436 0.0
C187 C 0.47705 0.55658 0.88535 0.0
C188 C 0.45682 0.55998 0.89665 0.0
C189 C 0.44887 0.57875 0.88558 0.0
C190 C 0.46103 0.59429 0.86198 0.0
C191 C 0.48133 0.59106 0.85372 0.0
C192 C 0.4893 0.57245 0.86596 0.0
C193 C 0.47678 0.50426 0.65799 0.0
C194 C 0.51171 0.54852 0.6444 0.0
C195 C 0.53601 0.48473 0.53567 0.0
C196 C 0.54571 0.46551 0.54224 0.0
C197 C 0.55415 0.45982 0.6132 0.0
C198 C 0.56047 0.44053 0.62463 0.0
C199 C 0.55837 0.42654 0.56542 0.0
C200 C 0.55064 0.43253 0.49331 0.0
C201 C 0.54432 0.45187 0.48192 0.0
C202 C 0.5439 0.51709 0.76023 0.0
C203 C 0.50891 0.47287 0.77302 0.0
O204 O 0.47465 0.52395 0.84256 0.0
O205 O 0.50375 0.53424 0.87303 0.0
O206 O 0.474 0.50041 0.73046 0.0
O207 O 0.49182 0.51503 0.65187 0.0
O208 O 0.50742 0.54515 0.71809 0.0
O209 O 0.515 0.53359 0.59741 0.0
O210 O 0.54519 0.49932 0.56894 0.0
O211 O 0.51724 0.48465 0.55249 0.0
O212 O 0.54689 0.52073 0.6878 0.0
O213 O 0.52882 0.50638 0.76587 0.0
O214 O 0.5138 0.47628 0.70004 0.0
O215 O 0.50492 0.48772 0.8195 0.0
H216 H 0.44708 0.54799 0.91174 0.0
H217 H 0.4332 0.58104 0.89347 0.0
H218 H 0.49107 0.60298 0.83773 0.0
H219 H 0.50498 0.57042 0.85784 0.0
H220 H 0.55513 0.4701 0.66102 0.0
H221 H 0.56647 0.43644 0.68054 0.0
H222 H 0.54847 0.42205 0.4469 0.0
H223 H 0.53756 0.45593 0.4273 0.0
La224 La 1.0068 0.50186 0.75135 0.0
La225 La 0.01981 0.52242 0.61706 0.0
C226 C 0.98644 0.48971 0.86298 0.0
C227 C 0.96533 0.48438 0.86394 0.0
C228 C 0.95974 0.46454 0.86766 0.0
C229 C 0.94011 0.45909 0.85569 0.0
C230 C 0.92573 0.4734 0.83966 0.0
C231 C 0.9312 0.49328 0.8393 0.0
C232 C 0.95075 0.49873 0.85147 0.0
C233 C 0.01889 0.4781 0.63907 0.0
C234 C 0.97537 0.51449 0.62126 0.0
C235 C 0.03944 0.53474 0.50354 0.0
C236 C 0.05984 0.54227 0.50108 0.0
C237 C 0.06334 0.56241 0.48941 0.0
C238 C 0.08224 0.57017 0.49978 0.0
C239 C 0.09781 0.55791 0.52283 0.0
C240 C 0.09453 0.53769 0.53069 0.0
C241 C 0.07578 0.52991 0.51941 0.0
C242 C 1.00779 0.54615 0.72971 0.0
C243 C 0.05135 0.50991 0.74846 0.0
O244 O 0.99764 0.4783 0.82108 0.0
O245 O 0.9906 0.50827 0.85192 0.0
O246 O 0.02256 0.47574 0.712 0.0
O247 O 1.0085 0.49338 0.63075 0.0
O248 O 0.97877 0.51081 0.69538 0.0
O249 O 0.99028 0.51681 0.57324 0.0
O250 O 0.02697 0.54562 0.54199 0.0
O251 O 0.0373 0.51609 0.51987 0.0
O252 O 1.00417 0.5486 0.6568 0.0
O253 O 0.01818 0.53088 0.73756 0.0
O254 O 0.04797 0.5146 0.67502 0.0
O255 O 0.03646 0.50645 0.79559 0.0
H256 H 0.97068 0.45318 0.8771 0.0
H257 H 0.93629 0.44365 0.85681 0.0
H258 H 0.92034 0.50469 0.8292 0.0
H259 H 0.95447 0.51417 0.84851 0.0
H260 H 0.05132 0.57224 0.47489 0.0
H261 H 0.08458 0.58578 0.49211 0.0
H262 H 0.1065 0.52789 0.54636 0.0
H263 H 0.07371 0.5143 0.52809 0.0
C264 C 0.19886 0.02624 0.27668 0.0
C265 C 0.19758 0.02109 0.19802 0.0
C266 C 0.18257 0.02407 0.32591 0.0
C267 C 0.12776 0.01926 0.32108 0.0
H268 H 0.13455 1.00666 0.53841 0.0
C269 C 0.06163 1.00728 0.53325 0.0
C270 C 0.06369 0.01511 0.60823 0.0
C271 C 0.07759 1.00735 0.48128 0.0
C272 C 0.13236 1.01037 0.478 0.0
H273 H 0.17862 1.0086 0.11021 0.0
H274 H 0.15024 1.00439 0.19615 0.0
H275 H 0.16308 1.00706 0.45307 0.0
H276 H 0.08398 0.02959 0.68657 0.0
H277 H 0.11159 0.0298 0.59655 0.0
H278 H 0.09696 0.02251 0.34641 0.0
C279 C 0.16363 0.01065 0.21968 0.0
C280 C 0.1488 0.01063 0.42885 0.0
C281 C 0.17993 0.01288 0.17045 0.0
C282 C 0.0819 0.02333 0.62943 0.0
C283 C 0.09782 0.02332 0.57788 0.0
C284 C 0.11128 0.01892 0.37026 0.0
C285 C 0.16457 0.01651 0.29796 0.0
C286 C 0.14682 0.01527 0.34971 0.0
C287 C 0.09601 0.01515 0.50331 0.0
C288 C 0.11337 0.01469 0.44966 0.0
H289 H 0.21232 0.0325 0.29962 0.0
H290 H 0.18395 0.02892 0.3854 0.0
H291 H 0.12557 0.02319 0.2609 0.0
H292 H 0.0478 1.00081 0.51521 0.0
H293 H 0.07564 1.00086 0.42451 0.0
C294 C 0.52494 0.19235 0.25306 0.0
C295 C 0.51085 0.19608 0.19509 0.0
C296 C 0.5234 0.17572 0.30074 0.0
C297 C 0.48836 0.13762 0.37066 0.0
H298 H 0.53603 0.1084 0.41703 0.0
C299 C 0.49145 0.07655 0.60514 0.0
C300 C 0.50319 0.05987 0.59159 0.0
C301 C 0.49155 0.09244 0.55355 0.0
C302 C 0.52252 0.11625 0.40417 0.0
H303 H 0.48375 0.18571 0.14356 0.0
H304 H 0.48092 0.15672 0.22695 0.0
H305 H 0.53774 0.13768 0.33576 0.0
H306 H 0.52396 0.04663 0.51195 0.0
H307 H 0.52416 0.07441 0.42142 0.0
H308 H 0.47313 0.11614 0.43881 0.0
C309 C 0.4932 0.1666 0.23572 0.0
C310 C 0.52354 0.13324 0.35826 0.0
C311 C 0.4948 0.18319 0.18777 0.0
C312 C 0.51472 0.05925 0.52399 0.0
C313 C 0.51494 0.07526 0.47249 0.0
C314 C 0.48736 0.12071 0.41701 0.0
C315 C 0.50764 0.16245 0.29218 0.0
C316 C 0.50648 0.14424 0.341 0.0
C317 C 0.50351 0.09219 0.48698 0.0
C318 C 0.50444 0.10979 0.43471 0.0
H319 H 0.53739 0.20209 0.2605 0.0
H320 H 0.53461 0.17327 0.34441 0.0
H321 H 0.47492 0.14571 0.35918 0.0
H322 H 0.48243 0.07752 0.65675 0.0
H323 H 0.4827 0.10522 0.56732 0.0
C324 C 0.32502 0.49075 0.26977 0.0
C325 C 0.32591 0.49654 0.19173 0.0
C326 C 0.34145 0.49279 0.3185 0.0
C327 C 0.3962 0.4989 0.31267 0.0
H328 H 0.38958 0.50957 0.53165 0.0
C329 C 0.46235 0.51132 0.52563 0.0
C330 C 0.46066 0.50283 0.5996 0.0
C331 C 0.44635 0.51108 0.47367 0.0
C332 C 0.39173 0.5064 0.47075 0.0
H333 H 0.34442 0.50981 0.10446 0.0
H334 H 0.37303 0.51384 0.18965 0.0
H335 H 0.36088 0.5091 0.44698 0.0
H336 H 0.441 0.48695 0.67595 0.0
H337 H 0.41333 0.48647 0.58602 0.0
H338 H 0.42715 0.49633 0.33691 0.0
C339 C 0.35983 0.50722 0.21304 0.0
C340 C 0.37519 0.5061 0.42196 0.0
C341 C 0.34338 0.50511 0.16426 0.0
C342 C 0.4428 0.49373 0.61964 0.0
C343 C 0.42684 0.49359 0.56816 0.0
C344 C 0.41278 0.49931 0.36152 0.0
C345 C 0.35923 0.50085 0.29076 0.0
C346 C 0.3771 0.50213 0.3422 0.0
C347 C 0.42825 0.50246 0.49474 0.0
C348 C 0.41076 0.50284 0.44148 0.0
H349 H 0.31174 0.48414 0.29266 0.0
H350 H 0.34034 0.48749 0.37745 0.0
H351 H 0.39837 0.49551 0.25198 0.0
H352 H 0.47591 0.51848 0.50846 0.0
H353 H 0.44799 0.51812 0.4178 0.0
C354 C 0.02475 0.32484 0.25267 0.0
C355 C 0.01727 0.32645 0.17679 0.0
C356 C 0.02578 0.34139 0.3013 0.0
C357 C 0.02376 0.39657 0.29825 0.0
H358 H 0.01352 0.39051 0.51772 0.0
C359 C 0.01221 0.46324 0.50726 0.0
C360 C 0.02033 0.46172 0.58203 0.0
C361 C 0.01251 0.44708 0.45638 0.0
C362 C 0.01663 0.39249 0.4567 0.0
H363 H 1.00458 0.34662 0.09379 0.0
H364 H 1.00603 0.37529 0.17829 0.0
H365 H 0.01285 0.36183 0.43348 0.0
H366 H 0.03561 0.44218 0.66099 0.0
H367 H 0.03621 0.41422 0.57285 0.0
H368 H 0.02726 0.42734 0.32171 0.0
C369 C 1.01164 0.36145 0.19997 0.0
C370 C 0.0163 0.37595 0.40816 0.0
C371 C 1.0107 0.34495 0.15144 0.0
C372 C 0.02911 0.44384 0.604 0.0
C373 C 0.02933 0.42772 0.55352 0.0
C374 C 0.02398 0.41314 0.3468 0.0
C375 C 0.01918 0.35998 0.27582 0.0
C376 C 0.01986 0.37768 0.32805 0.0
C377 C 0.02085 0.42898 0.47922 0.0
C378 C 0.02047 0.41136 0.42684 0.0
H379 H 0.02982 0.31083 0.27473 0.0
H380 H 0.03189 0.3396 0.35883 0.0
H381 H 0.02691 0.39859 0.23731 0.0
H382 H 1.0053 0.47679 0.48859 0.0
H383 H 1.00574 0.44862 0.39987 0.0
C384 C 0.82596 1.00036 0.1424 0.0
C385 C 0.82665 1.00973 0.21508 0.0
C386 C 0.84299 0.99861 0.09666 0.0
C387 C 0.89247 0.021 0.06717 0.0
H388 H 0.90273 0.97378 0.9484 0.0
C389 C 0.9648 0.0111 0.89064 0.0
C390 C 0.96314 1.00225 0.81733 0.0
C391 C 0.94879 0.01115 0.94225 0.0
C392 C 0.90004 0.98718 0.9805 0.0
H393 H 0.84572 0.02508 0.29522 0.0
H394 H 0.87542 0.02182 0.21638 0.0
H395 H 0.87365 0.97558 0.03091 0.0
H396 H 0.94349 0.98616 0.74149 0.0
H397 H 0.91566 0.9864 0.83043 0.0
H398 H 0.91872 0.0327 0.01621 0.0
C399 C 0.86175 0.01579 0.19449 0.0
C400 C 0.88329 0.98821 0.02799 0.0
C401 C 0.84476 0.01748 0.24019 0.0
C402 C 0.94529 0.99308 0.79759 0.0
C403 C 0.92931 0.99312 0.84898 0.0
C404 C 0.9092 0.01999 0.01957 0.0
C405 C 0.86113 1.00642 0.12178 0.0
C406 C 0.8792 1.00516 0.0719 0.0
C407 C 0.93071 1.00232 0.92189 0.0
C408 C 0.91322 1.0031 0.97516 0.0
H409 H 0.81225 0.99451 0.12032 0.0
H410 H 0.84179 0.99157 0.0406 0.0
H411 H 0.88972 0.03443 0.09898 0.0
H412 H 0.97837 0.01826 0.90768 0.0
H413 H 0.9506 0.01812 0.99818 0.0
C414 C 0.51745 0.82256 0.12594 0.0
C415 C 0.52497 0.82302 0.20177 0.0
C416 C 0.51553 0.83987 0.08245 0.0
C417 C 0.5168 0.89508 0.09681 0.0
H418 H 0.52739 0.89102 0.87691 0.0
C419 C 0.50806 0.96165 0.88493 0.0
C420 C 0.52063 0.96247 0.8203 0.0
C421 C 0.50834 0.94527 0.93466 0.0
C422 C 0.52461 0.89259 0.93836 0.0
H423 H 0.53606 0.84216 0.29189 0.0
H424 H 0.53328 0.87227 0.21583 0.0
H425 H 0.5281 0.86174 0.95643 0.0
H426 H 0.54397 0.94726 0.75948 0.0
H427 H 0.54505 0.91926 0.84698 0.0
H428 H 0.51412 0.92614 0.07878 0.0
C429 C 0.5284 0.85863 0.18999 0.0
C430 C 0.52466 0.87559 0.98412 0.0
C431 C 0.53012 0.84131 0.23372 0.0
C432 C 0.53399 0.94699 0.80841 0.0
C433 C 0.53443 0.93079 0.85835 0.0
C434 C 0.5169 0.91216 0.051 0.0
C435 C 0.52134 0.85818 0.11312 0.0
C436 C 0.52078 0.87649 0.0642 0.0
C437 C 0.52131 0.92939 0.92134 0.0
C438 C 0.52092 0.91121 0.97098 0.0
H439 H 0.51355 0.80872 0.09934 0.0
H440 H 0.50963 0.8388 0.02431 0.0
H441 H 0.51349 0.8965 0.15789 0.0
H442 H 0.49751 0.9733 0.89541 0.0
H443 H 0.49789 0.9448 0.98196 0.0
C444 C 0.6761 0.50903 0.25429 0.0
C445 C 0.6942 0.51703 0.23072 0.0
C446 C 0.65955 0.5096 0.20565 0.0
C447 C 0.63857 0.5353 0.03408 0.0
H448 H 0.60412 0.49001 0.02378 0.0
C449 C 0.57753 0.52822 0.80058 0.0
C450 C 0.55981 0.51869 0.81936 0.0
C451 C 0.59329 0.52866 0.853 0.0
C452 C 0.61336 0.50294 0.02667 0.0
H453 H 0.70903 0.53189 0.13606 0.0
H454 H 0.68021 0.53285 0.05113 0.0
H455 H 0.63283 0.48938 0.1087 0.0
H456 H 0.54459 0.50253 0.90912 0.0
H457 H 0.57201 0.50356 0.00165 0.0
H458 H 0.61911 0.5489 0.95226 0.0
C459 C 0.67873 0.5263 0.10799 0.0
C460 C 0.62993 0.50255 0.07543 0.0
C461 C 0.69534 0.52567 0.1567 0.0
C462 C 0.55806 0.50997 0.89283 0.0
C463 C 0.57388 0.51043 0.94558 0.0
C464 C 0.62196 0.53572 0.98552 0.0
C465 C 0.66059 0.51822 0.13167 0.0
C466 C 0.64284 0.5187 0.07968 0.0
C467 C 0.59183 0.51964 0.92617 0.0
C468 C 0.60913 0.5195 0.98066 0.0
H469 H 0.67476 0.50227 0.31086 0.0
H470 H 0.64585 0.50346 0.22657 0.0
H471 H 0.64792 0.54815 0.03664 0.0
H472 H 0.5794 0.53505 0.7444 0.0
H473 H 0.60685 0.53565 0.83505 0.0
C474 C 0.02335 0.6942 0.13766 0.0
C475 C 1.00952 0.69638 0.1976 0.0
C476 C 0.02242 0.67813 0.08675 0.0
C477 C 1.00297 0.62726 0.07192 0.0
H478 H 0.014 0.63342 0.85302 0.0
C479 C 0.01446 0.56076 0.86189 0.0
C480 C 1.00643 0.56245 0.78705 0.0
C481 C 0.01424 0.57684 0.91314 0.0
C482 C 1.01076 0.6314 0.91393 0.0
H483 H 0.98356 0.6836 0.24988 0.0
H484 H 0.98186 0.65558 0.1612 0.0
H485 H 0.01431 0.66211 0.93771 0.0
H486 H 0.99137 0.58223 0.70832 0.0
H487 H 0.99093 0.61007 0.79711 0.0
H488 H 0.99933 0.59653 0.0479 0.0
C489 C 0.9936 0.66617 0.15388 0.0
C490 C 1.01114 0.64789 0.96275 0.0
C491 C 0.99446 0.68232 0.20438 0.0
C492 C 0.9978 0.58043 0.76536 0.0
C493 C 0.99767 0.59648 0.8162 0.0
C494 C 1.00275 0.61073 0.02315 0.0
C495 C 1.00768 0.66372 0.09473 0.0
C496 C 1.00719 0.64609 0.04247 0.0
C497 C 1.00608 0.59503 0.89057 0.0
C498 C 1.00656 0.61257 0.94331 0.0
H499 H 0.03524 0.70466 0.13148 0.0
H500 H 0.03363 0.67671 0.0425 0.0
H501 H 1.00007 0.62523 0.13308 0.0
H502 H 0.02124 0.54712 0.88033 0.0
H503 H 0.02095 0.57517 0.96972 0.0
C504 C 0.99386 0.25201 0.38134 0.0
C505 C 0.98477 0.24855 0.30947 0.0
C506 C 0.98655 0.24313 0.44847 0.0
C507 C 0.94756 0.20798 0.51814 0.0
H508 H 0.9934 0.17954 0.59151 0.0
C509 C 0.9756 0.12701 0.63406 0.0
C510 C 0.96642 0.11611 0.575 0.0
C511 C 0.97263 0.14726 0.63955 0.0
C512 C 0.98031 0.18753 0.57407 0.0
H513 H 0.95942 0.23561 0.25295 0.0
H514 H 0.9471 0.21961 0.36827 0.0
H515 H 0.99762 0.21113 0.53124 0.0
H516 H 0.94557 0.11749 0.48003 0.0
H517 H 0.94057 0.15277 0.48862 0.0
H518 H 0.93054 0.1832 0.55493 0.0
C519 C 0.95975 0.22916 0.37413 0.0
C520 C 0.98274 0.20584 0.53934 0.0
C521 C 0.96698 0.23811 0.30742 0.0
C522 C 0.95285 0.12551 0.52607 0.0
C523 C 0.94989 0.14576 0.53145 0.0
C524 C 0.94515 0.18954 0.55245 0.0
C525 C 0.97015 0.23053 0.44453 0.0
C526 C 0.96656 0.21563 0.50592 0.0
C527 C 0.96044 0.15698 0.58595 0.0
C528 C 0.96168 0.17859 0.57591 0.0
H529 H 1.00753 0.26016 0.38477 0.0
H530 H 0.99464 0.24489 0.50213 0.0
H531 H 0.93471 0.21543 0.49519 0.0
H532 H 0.98574 0.12 0.67392 0.0
H533 H 0.98073 0.15546 0.68288 0.0
C534 C 0.26836 0.97119 0.3493 0.0
C535 C 0.27336 0.99047 0.32858 0.0
C536 C 0.27774 0.96211 0.41215 0.0
C537 C 0.31606 0.97111 0.56577 0.0
H538 H 0.33997 0.92472 0.4758 0.0
C539 C 0.39668 0.95721 0.62204 0.0
C540 C 0.40704 0.95438 0.55254 0.0
C541 C 0.37646 0.95354 0.62554 0.0
C542 C 0.33344 0.9376 0.50226 0.0
H543 H 0.29005 0.01619 0.36124 0.0
H544 H 0.30648 1.00061 0.4695 0.0
H545 H 0.30818 0.93584 0.42904 0.0
H546 H 0.40497 0.94411 0.43429 0.0
H547 H 0.36972 0.93856 0.43853 0.0
H548 H 0.34233 0.9744 0.6318 0.0
C549 C 0.29538 0.99227 0.43878 0.0
C550 C 0.31495 0.94382 0.47631 0.0
C551 C 0.2861 1.00124 0.37615 0.0
C552 C 0.39726 0.94636 0.48852 0.0
C553 C 0.37699 0.94303 0.49147 0.0
C554 C 0.33472 0.96515 0.5905 0.0
C555 C 0.29219 0.97225 0.45491 0.0
C556 C 0.30681 0.96155 0.50344 0.0
C557 C 0.36614 0.94743 0.559 0.0
C558 C 0.34427 0.94919 0.55456 0.0
H559 H 0.25851 0.96264 0.31321 0.0
H560 H 0.27472 0.94677 0.42374 0.0
H561 H 0.30985 0.98444 0.5899 0.0
H562 H 0.40407 0.96311 0.67261 0.0
H563 H 0.36875 0.95659 0.67912 0.0
C564 C 0.50666 0.29153 0.38188 0.0
C565 C 0.5172 0.27611 0.34764 0.0
C566 C 0.51358 0.30034 0.44938 0.0
C567 C 0.5307 0.31904 0.59035 0.0
H568 H 0.58412 0.33371 0.53704 0.0
C569 C 0.55595 0.39666 0.64999 0.0
C570 C 0.5623 0.40544 0.58058 0.0
C571 C 0.55591 0.37622 0.65792 0.0
C572 C 0.56929 0.32966 0.55369 0.0
H573 H 0.54201 0.25636 0.36034 0.0
H574 H 0.55431 0.27188 0.47918 0.0
H575 H 0.57046 0.3034 0.48653 0.0
H576 H 0.57578 0.39984 0.46902 0.0
H577 H 0.57523 0.36442 0.48141 0.0
H578 H 0.52871 0.34643 0.64971 0.0
C579 C 0.54075 0.27724 0.4536 0.0
C580 C 0.5615 0.31208 0.52553 0.0
C581 C 0.5337 0.26831 0.38595 0.0
C582 C 0.57037 0.39349 0.52245 0.0
C583 C 0.57034 0.37312 0.53028 0.0
C584 C 0.5384 0.33674 0.61764 0.0
C585 C 0.53131 0.29401 0.48375 0.0
C586 C 0.54159 0.3074 0.53844 0.0
C587 C 0.56227 0.36418 0.59662 0.0
C588 C 0.55725 0.34294 0.59434 0.0
H589 H 0.49382 0.29767 0.35332 0.0
H590 H 0.50596 0.31331 0.47006 0.0
H591 H 0.5155 0.31552 0.60332 0.0
H592 H 0.54978 0.40546 0.69622 0.0
H593 H 0.54986 0.36985 0.71022 0.0
C594 C 0.23585 0.52032 0.3477 0.0
C595 C 0.24954 0.53118 0.30501 0.0
C596 C 0.22681 0.52852 0.41239 0.0
C597 C 0.20974 0.57666 0.46744 0.0
H598 H 0.18175 0.54389 0.61362 0.0
C599 C 0.12773 0.57538 0.47664 0.0
C600 C 0.11776 0.56573 0.53641 0.0
C601 C 0.14796 0.57871 0.48247 0.0
C602 C 0.18955 0.55373 0.57524 0.0
H603 H 0.26595 0.55835 0.2992 0.0
H604 H 0.24998 0.57296 0.41312 0.0
H605 H 0.21371 0.53369 0.56729 0.0
H606 H 0.12022 0.55417 0.65285 0.0
H607 H 0.15544 0.56074 0.66485 0.0
H608 H 0.18538 0.59652 0.47402 0.0
C609 C 0.24619 0.5581 0.39646 0.0
C610 C 0.20792 0.54769 0.54794 0.0
C611 C 0.25538 0.54976 0.33165 0.0
C612 C 0.12779 0.56135 0.60547 0.0
C613 C 0.14796 0.56505 0.61205 0.0
C614 C 0.19155 0.58294 0.49609 0.0
C615 C 0.23116 0.54788 0.43544 0.0
C616 C 0.21727 0.55814 0.4883 0.0
C617 C 0.15855 0.57268 0.54878 0.0
C618 C 0.18041 0.57063 0.54461 0.0
H619 H 0.23121 0.50593 0.32799 0.0
H620 H 0.21515 0.52023 0.43987 0.0
H621 H 0.21668 0.58533 0.42256 0.0
H622 H 0.12024 0.57886 0.42288 0.0
H623 H 0.15542 0.58443 0.43194 0.0
C624 C 0.05247 0.776 0.05082 0.0
C625 C 0.05892 0.77235 0.12661 0.0
C626 C 0.06418 0.78688 1.00019 0.0
C627 C 0.0982 0.82731 0.0284 0.0
H628 H 0.0874 0.83446 0.80972 0.0
C629 C 0.09407 0.90441 0.91115 0.0
C630 C 0.07544 0.9077 0.87795 0.0
C631 C 0.10155 0.88534 0.91744 0.0
C632 C 0.09083 0.8326 0.8706 0.0
H633 H 0.08352 0.77452 0.20591 0.0
H634 H 0.10446 0.79275 0.11634 0.0
H635 H 0.08428 0.80186 0.86732 0.0
H636 H 0.05111 0.89399 0.81721 0.0
H637 H 0.06373 0.86076 0.83041 0.0
H638 H 0.1034 0.85809 0.03339 0.0
C639 C 0.0901 0.78795 0.09661 0.0
C640 C 0.08901 0.81393 0.90366 0.0
C641 C 0.07821 0.7774 0.14777 0.0
C642 C 0.0653 0.89182 0.84485 0.0
C643 C 0.07273 0.87278 0.85123 0.0
C644 C 0.1001 0.84587 0.99539 0.0
C645 C 0.08262 0.79413 0.02449 0.0
C646 C 0.09134 0.81137 0.98407 0.0
C647 C 0.0905 0.86922 0.89084 0.0
C648 C 0.09514 0.84897 0.91732 0.0
H649 H 0.03759 0.77226 0.03343 0.0
H650 H 0.0578 0.7913 0.94539 0.0
H651 H 0.10008 0.82612 0.09051 0.0
H652 H 0.1023 0.9164 0.93676 0.0
H653 H 0.11542 0.88309 0.94733 0.0
C654 C 0.72867 1.00996 0.02347 0.0
C655 C 0.74395 0.01975 0.06196 0.0
C656 C 0.72001 0.01819 0.95794 0.0
C657 C 0.70209 0.03753 0.82015 0.0
H658 H 0.68688 0.08999 0.88345 0.0
C659 C 0.62426 0.06225 0.76224 0.0
C660 C 0.61524 0.06806 0.83198 0.0
C661 C 0.64476 0.06276 0.75458 0.0
C662 C 0.69105 0.07543 0.86417 0.0
H663 H 0.76356 0.04477 0.05854 0.0
H664 H 0.74834 0.05935 0.94312 0.0
H665 H 0.71689 0.07558 0.93461 0.0
H666 H 0.62042 0.08128 0.94434 0.0
H667 H 0.65592 0.08144 0.93285 0.0
H668 H 0.67506 0.03637 0.75758 0.0
C669 C 0.74294 0.04537 0.96403 0.0
C670 C 0.70848 0.06722 0.8927 0.0
C671 C 0.7517 0.03701 0.02976 0.0
C672 C 0.62696 0.07623 0.89068 0.0
C673 C 0.6474 0.07663 0.88332 0.0
C674 C 0.68449 0.04558 0.79277 0.0
C675 C 0.72639 0.03649 0.92957 0.0
C676 C 0.71331 0.04758 0.87594 0.0
C677 C 0.65664 0.06898 0.81673 0.0
C678 C 0.67801 0.06402 0.81964 0.0
H679 H 0.7226 0.99651 0.04696 0.0
H680 H 0.70719 0.01095 0.93391 0.0
H681 H 0.70579 0.0226 0.80397 0.0
H682 H 0.61565 0.05599 0.71555 0.0
H683 H 0.65132 0.05713 0.70187 0.0
C684 C 0.4982 0.73038 0.05331 0.0
C685 C 0.48745 0.74438 0.09509 0.0
C686 C 0.49 0.72144 0.98844 0.0
C687 C 0.4419 0.70536 0.92787 0.0
H688 H 0.47523 0.67825 0.7805 0.0
C689 C 0.44303 0.62379 0.90936 0.0
C690 C 0.45306 0.61421 0.84944 0.0
C691 C 0.43963 0.64397 0.9053 0.0
C692 C 0.46523 0.68583 0.81913 0.0
H693 H 0.46044 0.76126 0.09953 0.0
H694 H 0.44577 0.74535 0.98543 0.0
H695 H 0.48547 0.70962 0.83161 0.0
H696 H 0.46519 0.61737 0.73414 0.0
H697 H 0.45849 0.65252 0.72517 0.0
H698 H 0.42186 0.68135 0.91686 0.0
C699 C 0.46056 0.74131 0.0029 0.0
C700 C 0.47129 0.70384 0.84918 0.0
C701 C 0.46892 0.75043 0.06786 0.0
C702 C 0.4577 0.62462 0.78169 0.0
C703 C 0.45393 0.64476 0.77684 0.0
C704 C 0.4356 0.68752 0.8965 0.0
C705 C 0.47076 0.7262 0.96419 0.0
C706 C 0.46061 0.71282 0.90921 0.0
C707 C 0.44598 0.65493 0.84062 0.0
C708 C 0.4481 0.67666 0.84744 0.0
H709 H 0.51257 0.72561 0.07334 0.0
H710 H 0.49822 0.70968 0.96124 0.0
H711 H 0.43307 0.71205 0.97298 0.0
H712 H 0.43932 0.61602 0.96215 0.0
H713 H 0.43363 0.6511 0.95613 0.0
C714 C 0.76834 0.49516 0.02263 0.0
C715 C 0.77173 0.48571 0.09373 0.0
C716 C 0.77731 0.48819 0.95504 0.0
C717 C 0.81264 0.44955 0.8827 0.0
H718 H 0.84128 0.49549 0.81376 0.0
C719 C 0.89389 0.47739 0.76762 0.0
C720 C 0.90492 0.46789 0.82562 0.0
C721 C 0.87353 0.47472 0.76285 0.0
C722 C 0.83323 0.4824 0.82999 0.0
H723 H 0.78463 0.46009 0.14828 0.0
H724 H 0.80076 0.44832 0.03219 0.0
H725 H 0.80955 0.49954 0.87409 0.0
H726 H 0.90359 0.44684 0.91957 0.0
H727 H 0.86813 0.44232 0.91208 0.0
H728 H 0.83751 0.43267 0.84469 0.0
C729 C 0.7912 0.46101 0.02725 0.0
C730 C 0.81485 0.48472 0.86472 0.0
C731 C 0.78216 0.4679 0.09441 0.0
C732 C 0.89549 0.45436 0.87429 0.0
C733 C 0.87514 0.45168 0.86956 0.0
C734 C 0.83116 0.44725 0.84844 0.0
C735 C 0.78993 0.47176 0.95778 0.0
C736 C 0.80497 0.46846 0.89647 0.0
C737 C 0.86382 0.46248 0.81603 0.0
C738 C 0.84217 0.4638 0.8265 0.0
H739 H 0.7602 0.50885 0.02029 0.0
H740 H 0.77562 0.49656 0.90208 0.0
H741 H 0.80514 0.43666 0.90435 0.0
H742 H 0.9009 0.4875 0.72794 0.0
H743 H 0.86525 0.48303 0.7203 0.0
C744 C 0.02778 0.21689 0.03305 0.0
C745 C 1.00938 0.22457 0.05544 0.0
C746 C 0.02905 0.1986 0.99497 0.0
C747 C 1.00058 0.15227 0.97686 0.0
H748 H 0.03797 0.13878 0.81584 0.0
C749 C 0.01393 0.07139 0.88461 0.0
C750 C 0.01575 0.06738 0.80498 0.0
C751 C 0.01378 0.09082 0.9121 0.0
C752 C 0.02736 0.14231 0.86055 0.0
H753 H 0.97789 0.2197 0.05012 0.0
H754 H 0.98004 0.18825 0.98328 0.0
H755 H 0.03638 0.17256 0.86465 0.0
H756 H 0.01952 0.08084 0.6923 0.0
H757 H 0.01927 0.11464 0.73998 0.0
H758 H 0.99145 0.12219 0.97291 0.0
C759 C 0.99356 0.19598 0.9966 0.0
C760 C 0.02657 0.16168 0.88903 0.0
C761 C 0.99231 0.21415 0.03434 0.0
C762 C 0.01783 0.08334 0.75382 0.0
C763 C 0.01787 0.10277 0.78135 0.0
C764 C 1.00147 0.13294 0.94896 0.0
C765 C 1.01195 0.18757 0.97859 0.0
C766 C 0.01308 0.16697 0.94741 0.0
C767 C 0.01564 0.10684 0.86089 0.0
C768 C 0.01486 0.12761 0.89037 0.0
H769 H 0.04122 0.22442 0.0491 0.0
H770 H 0.04348 0.19264 0.9821 0.0
H771 H 0.99017 0.15561 0.02254 0.0
H772 H 0.01235 0.05952 0.92587 0.0
H773 H 0.01233 0.09326 0.97382 0.0
C774 C 0.30017 1.00398 0.00328 0.0
C775 C 0.29742 0.01386 0.07406 0.0
C776 C 0.31844 1.00482 0.96465 0.0
C777 C 0.37132 0.01358 0.00942 0.0
H778 H 0.37832 0.01498 0.78676 0.0
C779 C 0.44879 0.02248 0.87393 0.0
C780 C 0.45311 0.01247 0.80472 0.0
C781 C 0.42952 0.02296 0.90335 0.0
C782 C 0.37667 0.01435 0.84909 0.0
H783 H 0.31119 0.03345 0.15669 0.0
H784 H 0.34262 0.03528 0.08918 0.0
H785 H 0.34508 0.01583 0.84139 0.0
H786 H 0.44048 0.99465 0.71372 0.0
H787 H 0.40697 0.99529 0.76475 0.0
H788 H 0.40271 0.01183 0.01771 0.0
C789 C 0.331 0.02643 0.06418 0.0
C790 C 0.35754 0.01488 0.88045 0.0
C791 C 0.31288 0.02555 0.10257 0.0
C792 C 0.43763 1.00284 0.76611 0.0
C793 C 0.41835 1.00323 0.79561 0.0
C794 C 0.39036 0.01298 0.97822 0.0
C795 C 0.33433 0.01556 0.99604 0.0
C796 C 0.35459 0.0147 0.9612 0.0
C797 C 0.41396 0.01328 0.86487 0.0
C798 C 0.39342 0.01353 0.89757 0.0
H799 H 0.28864 0.99468 0.98025 0.0
H800 H 0.3204 0.99625 0.91238 0.0
H801 H 0.36972 0.01288 0.07178 0.0
H802 H 0.46028 0.03018 0.90515 0.0
H803 H 0.42681 0.03116 0.95603 0.0
C804 C 0.49497 0.30265 0.02748 0.0
C805 C 0.51115 0.29722 0.07382 0.0
C806 C 0.49505 0.32057 0.98648 0.0
C807 C 0.51863 0.36974 0.9973 0.0
H808 H 0.49481 0.37867 0.79619 0.0
C809 C 0.5051 0.44848 0.88207 0.0
C810 C 0.50868 0.45227 0.8032 0.0
C811 C 0.50521 0.42921 0.91088 0.0
C812 C 0.50164 0.37644 0.85224 0.0
H813 H 0.54058 0.30565 0.10892 0.0
H814 H 0.54092 0.3364 0.03687 0.0
H815 H 0.49597 0.34537 0.84985 0.0
H816 H 0.51497 0.43842 0.69268 0.0
H817 H 0.51499 0.40485 0.74285 0.0
H818 H 0.5245 0.4006 0.9999 0.0
C819 C 0.52792 0.32724 0.03343 0.0
C820 C 0.50213 0.35732 0.88336 0.0
C821 C 0.52782 0.30947 0.07422 0.0
C822 C 0.51215 0.43615 0.75378 0.0
C823 C 0.51209 0.41682 0.78255 0.0
C824 C 0.51804 0.38878 0.96652 0.0
C825 C 0.51131 0.33342 0.99102 0.0
C826 C 0.5107 0.35368 0.95637 0.0
C827 C 0.50881 0.41305 0.86175 0.0
C828 C 0.5095 0.3925 0.89362 0.0
H829 H 0.48184 0.29364 0.02659 0.0
H830 H 0.48197 0.32479 0.95457 0.0
H831 H 0.5251 0.36769 0.0541 0.0
H832 H 0.5023 0.46044 0.92197 0.0
H833 H 0.50228 0.42697 0.9719 0.0
C834 C 0.21785 0.53022 0.01986 0.0
C835 C 0.22852 0.51323 0.03978 0.0
C836 C 0.19997 0.52894 0.97945 0.0
C837 C 0.15837 0.49487 0.94714 0.0
H838 H 0.14187 0.53392 0.79692 0.0
C839 C 0.07624 0.50476 0.85614 0.0
C840 C 0.07209 0.50924 0.77817 0.0
C841 C 0.09575 0.5044 0.88366 0.0
C842 C 0.14621 0.52277 0.83831 0.0
H843 H 0.22893 0.48155 0.03176 0.0
H844 H 0.19765 0.47919 0.96036 0.0
H845 H 0.17549 0.53439 0.847 0.0
H846 H 0.08551 0.5166 0.66842 0.0
H847 H 0.11931 0.51606 0.7157 0.0
H848 H 0.12909 0.48325 0.93848 0.0
C849 C 0.20314 0.49358 0.9761 0.0
C850 C 0.16552 0.52315 0.86763 0.0
C851 C 0.2212 0.4949 0.01602 0.0
C852 C 0.08804 0.51326 0.72869 0.0
C853 C 0.10751 0.51301 0.75612 0.0
C854 C 0.13901 0.49456 0.91817 0.0
C855 C 0.19206 0.51058 0.95858 0.0
C856 C 0.17188 0.5093 0.92297 0.0
C857 C 0.11171 0.5086 0.83412 0.0
C858 C 0.13257 0.50859 0.8637 0.0
H859 H 0.22297 0.54452 0.03859 0.0
H860 H 0.19187 0.54234 0.96803 0.0
H861 H 0.16257 0.48408 0.99018 0.0
H862 H 0.0644 0.5016 0.89624 0.0
H863 H 0.09828 0.50118 0.94429 0.0
C864 C 0.03663 0.80387 0.39411 0.0
C865 C 0.02094 0.79475 0.35471 0.0
C866 C 0.03389 0.82157 0.4341 0.0
C867 C 1.00037 0.86502 0.43984 0.0
H868 H 0.03298 0.87931 0.61541 0.0
C869 C 1.00816 0.9462 0.54053 0.0
C870 C 1.01099 0.95023 0.61974 0.0
C871 C 1.00814 0.92679 0.51279 0.0
C872 C 0.02352 0.87563 0.56702 0.0
H873 H 0.98973 0.79676 0.33033 0.0
H874 H 0.9847 0.82742 0.40225 0.0
H875 H 0.03414 0.846 0.56525 0.0
H876 H 0.01579 0.93669 0.73196 0.0
H877 H 0.01528 0.90303 0.68429 0.0
H878 H 0.98942 0.89455 0.44279 0.0
C879 C 0.99933 0.82107 0.40069 0.0
C880 C 0.02439 0.85644 0.53735 0.0
C881 C 1.00211 0.80328 0.36042 0.0
C882 C 0.01363 0.93425 0.6705 0.0
C883 C 0.01348 0.91484 0.64288 0.0
C884 C 0.99941 0.8842 0.46982 0.0
C885 C 0.0153 0.83079 0.43654 0.0
C886 C 0.01305 0.85084 0.47252 0.0
C887 C 1.01081 0.91074 0.56342 0.0
C888 C 1.01116 0.88993 0.53336 0.0
H889 H 0.05134 0.79771 0.39118 0.0
H890 H 0.04667 0.82848 0.4599 0.0
H891 H 0.99152 0.86152 0.3895 0.0
H892 H 1.00619 0.95807 0.49949 0.0
H893 H 1.0064 0.92445 0.45113 0.0
C894 C 0.70657 0.9911 0.30387 0.0
C895 C 0.72316 1.00182 0.32826 0.0
C896 C 0.68932 0.99073 0.34805 0.0
C897 C 0.66244 0.019 0.4999 0.0
H898 H 0.62726 0.97427 0.4895 0.0
C899 C 0.58591 0.01624 0.65697 0.0
C900 C 0.5701 1.00859 0.61344 0.0
C901 C 0.60536 0.01507 0.62933 0.0
C902 C 0.63682 0.98696 0.49266 0.0
H903 H 0.73482 0.01988 0.42064 0.0
H904 H 0.7047 0.01886 0.49963 0.0
H905 H 0.66007 0.9719 0.43376 0.0
H906 H 0.56258 0.99375 0.50627 0.0
H907 H 0.59631 0.99166 0.45853 0.0
H908 H 0.63902 0.03393 0.55972 0.0
C909 C 0.70496 0.01101 0.44509 0.0
C910 C 0.65573 0.98563 0.46045 0.0
C911 C 0.72235 0.01138 0.40044 0.0
C912 C 0.5743 0.99979 0.54155 0.0
C913 C 0.59372 0.99847 0.51432 0.0
C914 C 0.64353 0.02025 0.53295 0.0
C915 C 0.68801 1.00097 0.41876 0.0
C916 C 0.66872 1.00177 0.46174 0.0
C917 C 0.60957 1.00604 0.5578 0.0
C918 C 0.63029 1.00438 0.5282 0.0
H919 H 0.70668 0.98353 0.24863 0.0
H920 H 0.6767 0.98305 0.32461 0.0
H921 H 0.67182 0.03183 0.50176 0.0
H922 H 0.5833 0.02311 0.71263 0.0
H923 H 0.61717 0.02089 0.6647 0.0
C924 C 0.52708 0.71685 0.37101 0.0
C925 C 0.50865 0.72577 0.35914 0.0
C926 C 0.52853 0.69877 0.41015 0.0
C927 C 0.50045 0.66326 0.53444 0.0
H928 H 0.53512 0.62459 0.44148 0.0
C929 C 0.51061 0.58518 0.6658 0.0
C930 C 0.51221 0.56916 0.61462 0.0
C931 C 0.5108 0.60459 0.63848 0.0
C932 C 0.52525 0.63513 0.46802 0.0
H933 H 0.47739 0.723 0.38006 0.0
H934 H 0.47982 0.69181 0.44923 0.0
H935 H 0.53456 0.65805 0.3913 0.0
H936 H 0.51546 0.56127 0.49364 0.0
H937 H 0.51577 0.59504 0.44577 0.0
H938 H 0.49074 0.64021 0.60983 0.0
C939 C 0.49326 0.69872 0.42948 0.0
C940 C 0.52514 0.65449 0.43986 0.0
C941 C 0.49183 0.71668 0.39003 0.0
C942 C 0.51423 0.57317 0.53502 0.0
C943 C 0.5145 0.59261 0.50756 0.0
C944 C 0.5006 0.64392 0.56278 0.0
C945 C 0.51156 0.68918 0.43833 0.0
C946 C 0.51263 0.66884 0.47217 0.0
C947 C 0.51275 0.60866 0.55886 0.0
C948 C 0.51289 0.62948 0.52963 0.0
H949 H 0.54023 0.7233 0.3463 0.0
H950 H 0.54291 0.69205 0.41653 0.0
H951 H 0.49072 0.67385 0.56143 0.0
H952 H 0.50941 0.58276 0.72739 0.0
H953 H 0.50973 0.61643 0.68018 0.0
C954 C 0.80698 0.49249 0.36806 0.0
C955 C 0.79641 0.50954 0.34782 0.0
C956 C 0.8253 0.4937 0.40504 0.0
C957 C 0.85991 0.52654 0.51147 0.0
H958 H 0.89937 0.49156 0.42523 0.0
C959 C 0.93875 0.51747 0.64362 0.0
C960 C 0.95465 0.51528 0.59204 0.0
C961 C 0.91922 0.51772 0.61657 0.0
C962 C 0.88863 0.50155 0.44979 0.0
H963 H 0.79645 0.54126 0.35482 0.0
H964 H 0.82853 0.54345 0.42038 0.0
H965 H 0.86569 0.49034 0.37711 0.0
H966 H 0.96233 0.51193 0.47093 0.0
H967 H 0.92838 0.51222 0.42377 0.0
H968 H 0.88307 0.53787 0.58369 0.0
C969 C 0.82256 0.52908 0.40751 0.0
C970 C 0.86916 0.50068 0.42279 0.0
C971 C 0.8041 0.52785 0.37026 0.0
C972 C 0.95049 0.51359 0.51246 0.0
C973 C 0.93096 0.51361 0.48546 0.0
C974 C 0.87943 0.52732 0.53899 0.0
C975 C 0.83372 0.51201 0.42301 0.0
C976 C 0.85447 0.51312 0.45317 0.0
C977 C 0.915 0.51555 0.53713 0.0
C978 C 0.8941 0.51486 0.50833 0.0
H979 H 0.80141 0.47813 0.35219 0.0
H980 H 0.83314 0.48021 0.41774 0.0
H981 H 0.84904 0.53631 0.53652 0.0
H982 H 0.94138 0.5191 0.7051 0.0
H983 H 0.9074 0.51921 0.65825 0.0
loop_
_geom_bond_atom_site_label_1
_geom_bond_atom_site_label_2
_geom_bond_distance
_geom_bond_site_symmetry_2
_ccdc_geom_bond_type
H0 C7 0.929 . S
H1 C10 0.930 . S
H2 C12 0.929 . S
H3 C4 0.969 . S
C4 H3 0.969 . S
C4 O5 1.550 . S
C4 H6 0.973 . S
O5 C4 1.550 . S
O5 C11 1.412 . S
H6 C4 0.973 . S
C7 H0 0.929 . S
C7 C8 1.400 . S
C7 C9 1.364 . S
C8 C7 1.400 . S
C8 C12 1.377 . S
C9 C7 1.364 . S
C9 C10 1.374 . S
C10 H1 0.930 . S
C10 C9 1.374 . S
C10 C11 1.383 . S
C11 O5 1.412 . S
C11 C10 1.383 . S
C11 C12 1.394 . S
C12 H2 0.929 . S
C12 C8 1.377 . S
C12 C11 1.394 . S
H13 C20 0.928 . S
H14 C23 0.934 . S
H15 C25 0.931 . S
H16 C17 0.969 . S
C17 H16 0.969 . S
C17 O18 1.550 1_455 S
C17 H19 0.973 1_455 S
O18 C17 1.550 1_655 S
O18 C24 1.415 . S
H19 C17 0.973 1_655 S
C20 H13 0.928 . S
C20 C21 1.400 . S
C20 C22 1.364 . S
C21 C20 1.400 . S
C21 C25 1.377 . S
C22 C20 1.364 . S
C22 C23 1.374 . S
C23 H14 0.934 . S
C23 C22 1.374 . S
C23 C24 1.382 . S
C24 O18 1.415 . S
C24 C23 1.382 . S
C24 C25 1.394 . S
C25 H15 0.931 . S
C25 C21 1.377 . S
C25 C24 1.394 . S
H26 C33 0.928 . S
H27 C36 0.935 . S
H28 C38 0.931 . S
H29 C30 0.969 . S
C30 H29 0.969 . S
C30 O31 1.550 1_545 S
C30 H32 0.973 1_545 S
O31 C30 1.550 1_565 S
O31 C37 1.416 . S
H32 C30 0.973 1_565 S
C33 H26 0.928 . S
C33 C34 1.400 . S
C33 C35 1.364 . S
C34 C33 1.400 . S
C34 C38 1.377 . S
C35 C33 1.364 . S
C35 C36 1.374 . S
C36 H27 0.935 . S
C36 C35 1.374 . S
C36 C37 1.382 . S
C37 O31 1.416 . S
C37 C36 1.382 . S
C37 C38 1.394 . S
C38 H28 0.931 . S
C38 C34 1.377 . S
C38 C37 1.394 . S
H39 C46 0.929 . S
H40 C49 0.930 . S
H41 C51 0.929 . S
H42 C43 0.969 . S
C43 H42 0.969 . S
C43 O44 1.550 . S
C43 H45 0.973 . S
O44 C43 1.550 . S
O44 C50 1.412 . S
H45 C43 0.973 . S
C46 H39 0.929 . S
C46 C47 1.400 . S
C46 C48 1.364 . S
C47 C46 1.400 . S
C47 C51 1.377 . S
C48 C46 1.364 . S
C48 C49 1.374 . S
C49 H40 0.930 . S
C49 C48 1.374 . S
C49 C50 1.383 . S
C50 O44 1.412 . S
C50 C49 1.383 . S
C50 C51 1.394 . S
C51 H41 0.929 . S
C51 C47 1.377 . S
C51 C50 1.394 . S
H52 C59 0.929 . S
H53 C62 0.930 . S
H54 C64 0.929 . S
H55 C56 0.969 . S
C56 H55 0.969 . S
C56 O57 1.550 . S
C56 H58 0.973 . S
O57 C56 1.550 . S
O57 C63 1.412 . S
H58 C56 0.973 . S
C59 H52 0.929 . S
C59 C60 1.400 1_554 S
C59 C61 1.364 . S
C60 C59 1.400 1_556 S
C60 C64 1.377 . S
C61 C59 1.364 . S
C61 C62 1.374 . S
C62 H53 0.930 . S
C62 C61 1.374 . S
C62 C63 1.383 . S
C63 O57 1.412 . S
C63 C62 1.383 . S
C63 C64 1.394 1_554 S
C64 H54 0.929 . S
C64 C60 1.377 . S
C64 C63 1.394 1_556 S
H65 C72 0.932 . S
H66 C75 0.930 . S
H67 C77 0.932 . S
H68 C69 0.969 . S
C69 H68 0.969 . S
C69 O70 1.550 1_455 S
C69 H71 0.973 1_455 S
O70 C69 1.550 1_655 S
O70 C76 1.412 1_655 S
H71 C69 0.973 1_655 S
C72 H65 0.932 . S
C72 C73 1.400 1_554 S
C72 C74 1.364 . S
C73 C72 1.400 1_556 S
C73 C77 1.377 . S
C74 C72 1.364 . S
C74 C75 1.377 . S
C75 H66 0.930 . S
C75 C74 1.377 . S
C75 C76 1.386 . S
C76 O70 1.412 1_455 S
C76 C75 1.386 . S
C76 C77 1.394 1_554 S
C77 H67 0.932 . S
C77 C73 1.377 . S
C77 C76 1.394 1_556 S
H78 C85 0.931 . S
H79 C88 0.930 . S
H80 C90 0.931 . S
H81 C82 0.969 . S
C82 H81 0.969 . S
C82 O83 1.550 1_545 S
C82 H84 0.973 1_545 S
O83 C82 1.550 1_565 S
O83 C89 1.412 1_565 S
H84 C82 0.973 1_565 S
C85 H78 0.931 . S
C85 C86 1.400 1_554 S
C85 C87 1.364 . S
C86 C85 1.400 1_556 S
C86 C90 1.377 . S
C87 C85 1.364 . S
C87 C88 1.376 . S
C88 H79 0.930 . S
C88 C87 1.376 . S
C88 C89 1.386 . S
C89 O83 1.412 1_545 S
C89 C88 1.386 . S
C89 C90 1.394 1_554 S
C90 H80 0.931 . S
C90 C86 1.377 . S
C90 C89 1.394 1_556 S
H91 C98 0.929 . S
H92 C101 0.930 . S
H93 C103 0.929 . S
H94 C95 0.969 . S
C95 H94 0.969 . S
C95 O96 1.550 . S
C95 H97 0.973 . S
O96 C95 1.550 . S
O96 C102 1.412 . S
H97 C95 0.973 . S
C98 H91 0.929 . S
C98 C99 1.400 1_554 S
C98 C100 1.364 . S
C99 C98 1.400 1_556 S
C99 C103 1.377 . S
C100 C98 1.364 . S
C100 C101 1.374 . S
C101 H92 0.930 . S
C101 C100 1.374 . S
C101 C102 1.383 . S
C102 O96 1.412 . S
C102 C101 1.383 . S
C102 C103 1.394 1_554 S
C103 H93 0.929 . S
C103 C99 1.377 . S
C103 C102 1.394 1_556 S
La104 C106 2.928 . S
La104 O124 2.521 . S
La104 O125 2.627 . S
La104 O126 2.554 . S
La104 O127 2.757 1_565 S
La104 O128 2.470 . S
La104 O133 2.482 1_455 S
La104 O135 2.503 1_565 S
La105 C115 2.928 . S
La105 O127 2.482 1_655 S
La105 O129 2.503 1_545 S
La105 O130 2.521 . S
La105 O131 2.625 1_655 S
La105 O132 2.554 . S
La105 O133 2.757 1_545 S
La105 O134 2.470 . S
C106 La104 2.928 . S
C106 C107 1.503 . S
C106 O124 1.261 . S
C106 O125 1.242 . S
C107 C106 1.503 . S
C107 C108 1.394 . S
C107 C112 1.373 . S
C108 C107 1.394 . S
C108 C109 1.380 . S
C108 H136 0.930 . S
C109 C108 1.380 . S
C109 C110 1.376 . S
C109 H137 0.930 . S
C110 C109 1.376 . S
C110 C111 1.370 . S
C111 C110 1.370 . S
C111 C112 1.396 . S
C111 H138 0.929 1_455 S
C112 C107 1.373 . S
C112 C111 1.396 . S
C112 H139 0.929 1_455 S
C113 O126 1.265 . S
C113 O127 1.275 1_565 S
C114 O128 1.258 1_655 S
C114 O129 1.256 . S
C115 La105 2.928 . S
C115 C116 1.503 . S
C115 O130 1.261 . S
C115 O131 1.235 1_655 S
C116 C115 1.503 . S
C116 C117 1.394 . S
C116 C121 1.373 . S
C117 C116 1.394 . S
C117 C118 1.380 . S
C117 H140 0.930 . S
C118 C117 1.380 . S
C118 C119 1.376 . S
C118 H141 0.930 . S
C119 C118 1.376 . S
C119 C120 1.370 . S
C120 C119 1.370 . S
C120 C121 1.396 . S
C120 H142 0.929 1_655 S
C121 C116 1.373 . S
C121 C120 1.396 . S
C121 H143 0.929 1_655 S
C122 O132 1.272 . S
C122 O133 1.271 1_545 S
C123 O134 1.258 1_455 S
C123 O135 1.256 . S
O124 La104 2.521 . S
O124 C106 1.261 . S
O125 La104 2.627 . S
O125 C106 1.242 . S
O126 La104 2.554 . S
O126 C113 1.265 . S
O127 La104 2.757 1_545 S
O127 La105 2.482 1_455 S
O127 C113 1.275 1_545 S
O128 La104 2.470 . S
O128 C114 1.258 1_455 S
O129 La105 2.503 1_565 S
O129 C114 1.256 . S
O130 La105 2.521 . S
O130 C115 1.261 . S
O131 La105 2.625 1_455 S
O131 C115 1.235 1_455 S
O132 La105 2.554 . S
O132 C122 1.272 . S
O133 La104 2.482 1_655 S
O133 La105 2.757 1_565 S
O133 C122 1.271 1_565 S
O134 La105 2.470 . S
O134 C123 1.258 1_655 S
O135 La104 2.503 1_545 S
O135 C123 1.256 . S
H136 C108 0.930 . S
H137 C109 0.930 . S
H138 C111 0.929 1_655 S
H139 C112 0.929 1_655 S
H140 C117 0.930 . S
H141 C118 0.930 . S
H142 C120 0.929 1_455 S
H143 C121 0.929 1_455 S
La144 C146 2.928 . S
La144 O164 2.521 . S
La144 O165 2.626 . S
La144 O166 2.554 . S
La144 O167 2.757 . S
La144 O168 2.470 . S
La144 O173 2.482 1_545 S
La144 O175 2.503 . S
La145 C155 2.928 . S
La145 O167 2.482 1_565 S
La145 O169 2.503 . S
La145 O170 2.521 . S
La145 O171 2.626 1_565 S
La145 O172 2.554 . S
La145 O173 2.757 . S
La145 O174 2.470 . S
C146 La144 2.928 . S
C146 C147 1.503 . S
C146 O164 1.261 . S
C146 O165 1.239 . S
C147 C146 1.503 . S
C147 C148 1.394 . S
C147 C152 1.373 . S
C148 C147 1.394 . S
C148 C149 1.380 . S
C148 H176 0.930 . S
C149 C148 1.380 . S
C149 C150 1.376 . S
C149 H177 0.930 . S
C150 C149 1.376 . S
C150 C151 1.370 . S
C151 C150 1.370 . S
C151 C152 1.396 . S
C151 H178 0.929 1_545 S
C152 C147 1.373 . S
C152 C151 1.396 . S
C152 H179 0.929 1_545 S
C153 O166 1.240 . S
C153 O167 1.289 . S
C154 O168 1.258 1_565 S
C154 O169 1.256 . S
C155 La145 2.928 . S
C155 C156 1.503 . S
C155 O170 1.261 . S
C155 O171 1.239 1_565 S
C156 C155 1.503 . S
C156 C157 1.394 . S
C156 C161 1.373 . S
C157 C156 1.394 . S
C157 C158 1.380 . S
C157 H180 0.930 . S
C158 C157 1.380 . S
C158 C159 1.376 . S
C158 H181 0.930 . S
C159 C158 1.376 . S
C159 C160 1.370 . S
C160 C159 1.370 . S
C160 C161 1.396 . S
C160 H182 0.929 1_565 S
C161 C156 1.373 . S
C161 C160 1.396 . S
C161 H183 0.929 1_565 S
C162 O172 1.240 . S
C162 O173 1.289 . S
C163 O174 1.258 1_545 S
C163 O175 1.256 . S
O164 La144 2.521 . S
O164 C146 1.261 . S
O165 La144 2.626 . S
O165 C146 1.239 . S
O166 La144 2.554 . S
O166 C153 1.240 . S
O167 La144 2.757 . S
O167 La145 2.482 1_545 S
O167 C153 1.289 . S
O168 La144 2.470 . S
O168 C154 1.258 1_545 S
O169 La145 2.503 . S
O169 C154 1.256 . S
O170 La145 2.521 . S
O170 C155 1.261 . S
O171 La145 2.626 1_545 S
O171 C155 1.239 1_545 S
O172 La145 2.554 . S
O172 C162 1.240 . S
O173 La144 2.482 1_565 S
O173 La145 2.757 . S
O173 C162 1.289 . S
O174 La145 2.470 . S
O174 C163 1.258 1_565 S
O175 La144 2.503 . S
O175 C163 1.256 . S
H176 C148 0.930 . S
H177 C149 0.930 . S
H178 C151 0.929 1_565 S
H179 C152 0.929 1_565 S
H180 C157 0.930 . S
H181 C158 0.930 . S
H182 C160 0.929 1_545 S
H183 C161 0.929 1_545 S
La184 C186 2.928 . S
La184 O204 2.521 . S
La184 O205 2.628 . S
La184 O206 2.554 . S
La184 O207 2.757 . S
La184 O208 2.470 . S
La184 O213 2.482 . S
La184 O215 2.503 . S
La185 C195 2.928 . S
La185 O207 2.482 . S
La185 O209 2.503 . S
La185 O210 2.521 . S
La185 O211 2.628 . S
La185 O212 2.554 . S
La185 O213 2.757 . S
La185 O214 2.470 . S
C186 La184 2.928 . S
C186 C187 1.503 . S
C186 O204 1.261 . S
C186 O205 1.243 . S
C187 C186 1.503 . S
C187 C188 1.394 . S
C187 C192 1.373 . S
C188 C187 1.394 . S
C188 C189 1.380 . S
C188 H216 0.930 . S
C189 C188 1.380 . S
C189 C190 1.376 . S
C189 H217 0.930 . S
C190 C189 1.376 . S
C190 C191 1.370 . S
C191 C190 1.370 . S
C191 C192 1.396 . S
C191 H218 0.929 . S
C192 C187 1.373 . S
C192 C191 1.396 . S
C192 H219 0.929 . S
C193 O206 1.240 . S
C193 O207 1.289 . S
C194 O208 1.258 . S
C194 O209 1.256 . S
C195 La185 2.928 . S
C195 C196 1.503 . S
C195 O210 1.261 . S
C195 O211 1.243 . S
C196 C195 1.503 . S
C196 C197 1.394 . S
C196 C201 1.373 . S
C197 C196 1.394 . S
C197 C198 1.380 . S
C197 H220 0.930 . S
C198 C197 1.380 . S
C198 C199 1.376 . S
C198 H221 0.930 . S
C199 C198 1.376 . S
C199 C200 1.370 . S
C200 C199 1.370 . S
C200 C201 1.396 . S
C200 H222 0.929 . S
C201 C196 1.373 . S
C201 C200 1.396 . S
C201 H223 0.929 . S
C202 O212 1.240 . S
C202 O213 1.289 . S
C203 O214 1.258 . S
C203 O215 1.256 . S
O204 La184 2.521 . S
O204 C186 1.261 . S
O205 La184 2.628 . S
O205 C186 1.243 . S
O206 La184 2.554 . S
O206 C193 1.240 . S
O207 La184 2.757 . S
O207 La185 2.482 . S
O207 C193 1.289 . S
O208 La184 2.470 . S
O208 C194 1.258 . S
O209 La185 2.503 . S
O209 C194 1.256 . S
O210 La185 2.521 . S
O210 C195 1.261 . S
O211 La185 2.628 . S
O211 C195 1.243 . S
O212 La185 2.554 . S
O212 C202 1.240 . S
O213 La184 2.482 . S
O213 La185 2.757 . S
O213 C202 1.289 . S
O214 La185 2.470 . S
O214 C203 1.258 . S
O215 La184 2.503 . S
O215 C203 1.256 . S
H216 C188 0.930 . S
H217 C189 0.930 . S
H218 C191 0.929 . S
H219 C192 0.929 . S
H220 C197 0.930 . S
H221 C198 0.930 . S
H222 C200 0.929 . S
H223 C201 0.929 . S
La224 C226 2.928 . S
La224 O244 2.521 . S
La224 O245 2.628 . S
La224 O246 2.554 . S
La224 O247 2.757 1_655 S
La224 O248 2.470 . S
La224 O253 2.482 . S
La224 O255 2.503 1_655 S
La225 C235 2.928 . S
La225 O247 2.482 . S
La225 O249 2.503 1_455 S
La225 O250 2.521 . S
La225 O251 2.628 . S
La225 O252 2.554 . S
La225 O253 2.757 1_455 S
La225 O254 2.470 . S
C226 La224 2.928 . S
C226 C227 1.503 . S
C226 O244 1.261 . S
C226 O245 1.243 . S
C227 C226 1.503 . S
C227 C228 1.394 . S
C227 C232 1.373 . S
C228 C227 1.394 . S
C228 C229 1.380 . S
C228 H256 0.930 . S
C229 C228 1.380 . S
C229 C230 1.376 . S
C229 H257 0.930 . S
C230 C229 1.376 . S
C230 C231 1.370 . S
C231 C230 1.370 . S
C231 C232 1.396 . S
C231 H258 0.929 . S
C232 C227 1.373 . S
C232 C231 1.396 . S
C232 H259 0.929 . S
C233 O246 1.262 . S
C233 O247 1.277 1_655 S
C234 O248 1.258 . S
C234 O249 1.256 . S
C235 La225 2.928 . S
C235 C236 1.503 . S
C235 O250 1.261 . S
C235 O251 1.243 . S
C236 C235 1.503 . S
C236 C237 1.394 . S
C236 C241 1.373 . S
C237 C236 1.394 . S
C237 C238 1.380 . S
C237 H260 0.930 . S
C238 C237 1.380 . S
C238 C239 1.376 . S
C238 H261 0.930 . S
C239 C238 1.376 . S
C239 C240 1.370 . S
C240 C239 1.370 . S
C240 C241 1.396 . S
C240 H262 0.929 . S
C241 C236 1.373 . S
C241 C240 1.396 . S
C241 H263 0.929 . S
C242 O252 1.240 . S
C242 O253 1.289 1_455 S
C243 O254 1.258 . S
C243 O255 1.256 . S
O244 La224 2.521 . S
O244 C226 1.261 . S
O245 La224 2.628 . S
O245 C226 1.243 . S
O246 La224 2.554 . S
O246 C233 1.262 . S
O247 La224 2.757 1_455 S
O247 La225 2.482 . S
O247 C233 1.277 1_455 S
O248 La224 2.470 . S
O248 C234 1.258 . S
O249 La225 2.503 1_655 S
O249 C234 1.256 . S
O250 La225 2.521 . S
O250 C235 1.261 . S
O251 La225 2.628 . S
O251 C235 1.243 . S
O252 La225 2.554 . S
O252 C242 1.240 . S
O253 La224 2.482 . S
O253 La225 2.757 1_655 S
O253 C242 1.289 1_655 S
O254 La225 2.470 . S
O254 C243 1.258 . S
O255 La224 2.503 1_455 S
O255 C243 1.256 . S
H256 C228 0.930 . S
H257 C229 0.930 . S
H258 C231 0.929 . S
H259 C232 0.929 . S
H260 C237 0.930 . S
H261 C238 0.930 . S
H262 C240 0.929 . S
H263 C241 0.929 . S
C264 C265 1.306 1_565 S
C264 C266 1.327 . S
C264 H289 0.950 . S
C265 C264 1.306 1_545 S
C265 C281 1.393 . S
C266 C264 1.327 . S
C266 C285 1.429 1_565 S
C266 H290 0.950 . S
C267 C284 1.574 . S
C267 C286 1.368 . S
C267 H291 0.949 . S
H268 C272 0.949 . S
C269 C270 1.349 . S
C269 C271 1.327 . S
C269 H292 0.950 . S
C270 C269 1.349 . S
C270 C282 1.349 1_545 S
C271 C269 1.327 . S
C271 C287 1.429 . S
C271 H293 0.950 . S
C272 H268 0.949 . S
C272 C280 1.574 . S
C272 C288 1.368 1_565 S
H273 C281 0.950 . S
H274 C279 0.950 . S
H275 C280 0.949 . S
H276 C282 0.950 . S
H277 C283 0.950 . S
H278 C284 0.949 . S
C279 H274 0.950 . S
C279 C281 1.327 . S
C279 C285 1.429 . S
C280 C272 1.574 . S
C280 H275 0.949 . S
C280 C286 1.368 1_565 S
C281 C265 1.393 . S
C281 H273 0.950 . S
C281 C279 1.327 . S
C282 C270 1.349 1_565 S
C282 H276 0.950 . S
C282 C283 1.327 . S
C283 H277 0.950 . S
C283 C282 1.327 . S
C283 C287 1.429 1_565 S
C284 C267 1.574 . S
C284 H278 0.949 . S
C284 C288 1.368 . S
C285 C266 1.429 1_545 S
C285 C279 1.429 . S
C285 C286 1.523 . S
C286 C267 1.368 . S
C286 C280 1.368 1_545 S
C286 C285 1.523 . S
C287 C271 1.429 . S
C287 C283 1.429 1_545 S
C287 C288 1.523 . S
C288 C272 1.368 1_545 S
C288 C284 1.368 . S
C288 C287 1.523 . S
H289 C264 0.950 . S
H290 C266 0.950 . S
H291 C267 0.949 . S
H292 C269 0.950 . S
H293 C271 0.950 . S
C294 C295 1.349 . S
C294 C296 1.327 . S
C294 H319 0.950 . S
C295 C294 1.349 . S
C295 C311 1.349 . S
C296 C294 1.327 . S
C296 C315 1.429 . S
C296 H320 0.950 . S
C297 C314 1.574 . S
C297 C316 1.368 . S
C297 H321 0.949 . S
H298 C302 0.949 . S
C299 C300 1.349 . S
C299 C301 1.327 . S
C299 H322 0.950 . S
C300 C299 1.349 . S
C300 C312 1.349 . S
C301 C299 1.327 . S
C301 C317 1.429 . S
C301 H323 0.950 . S
C302 H298 0.949 . S
C302 C310 1.574 . S
C302 C318 1.368 . S
H303 C311 0.950 . S
H304 C309 0.950 . S
H305 C310 0.949 . S
H306 C312 0.950 . S
H307 C313 0.950 . S
H308 C314 0.949 . S
C309 H304 0.950 . S
C309 C311 1.327 . S
C309 C315 1.429 . S
C310 C302 1.574 . S
C310 H305 0.949 . S
C310 C316 1.368 . S
C311 C295 1.349 . S
C311 H303 0.950 . S
C311 C309 1.327 . S
C312 C300 1.349 . S
C312 H306 0.950 . S
C312 C313 1.327 . S
C313 H307 0.950 . S
C313 C312 1.327 . S
C313 C317 1.429 . S
C314 C297 1.574 . S
C314 H308 0.949 . S
C314 C318 1.368 . S
C315 C296 1.429 . S
C315 C309 1.429 . S
C315 C316 1.523 . S
C316 C297 1.368 . S
C316 C310 1.368 . S
C316 C315 1.523 . S
C317 C301 1.429 . S
C317 C313 1.429 . S
C317 C318 1.523 . S
C318 C302 1.368 . S
C318 C314 1.368 . S
C318 C317 1.523 . S
H319 C294 0.950 . S
H320 C296 0.950 . S
H321 C297 0.949 . S
H322 C299 0.950 . S
H323 C301 0.950 . S
C324 C325 1.349 . S
C324 C326 1.327 . S
C324 H349 0.950 . S
C325 C324 1.349 . S
C325 C341 1.349 . S
C326 C324 1.327 . S
C326 C345 1.429 . S
C326 H350 0.950 . S
C327 C344 1.574 . S
C327 C346 1.368 . S
C327 H351 0.949 . S
H328 C332 0.949 . S
C329 C330 1.349 . S
C329 C331 1.327 . S
C329 H352 0.950 . S
C330 C329 1.349 . S
C330 C342 1.349 . S
C331 C329 1.327 . S
C331 C347 1.429 . S
C331 H353 0.950 . S
C332 H328 0.949 . S
C332 C340 1.574 . S
C332 C348 1.368 . S
H333 C341 0.950 . S
H334 C339 0.950 . S
H335 C340 0.949 . S
H336 C342 0.950 . S
H337 C343 0.950 . S
H338 C344 0.949 . S
C339 H334 0.950 . S
C339 C341 1.327 . S
C339 C345 1.429 . S
C340 C332 1.574 . S
C340 H335 0.949 . S
C340 C346 1.368 . S
C341 C325 1.349 . S
C341 H333 0.950 . S
C341 C339 1.327 . S
C342 C330 1.349 . S
C342 H336 0.950 . S
C342 C343 1.327 . S
C343 H337 0.950 . S
C343 C342 1.327 . S
C343 C347 1.429 . S
C344 C327 1.574 . S
C344 H338 0.949 . S
C344 C348 1.368 . S
C345 C326 1.429 . S
C345 C339 1.429 . S
C345 C346 1.523 . S
C346 C327 1.368 . S
C346 C340 1.368 . S
C346 C345 1.523 . S
C347 C331 1.429 . S
C347 C343 1.429 . S
C347 C348 1.523 . S
C348 C332 1.368 . S
C348 C344 1.368 . S
C348 C347 1.523 . S
H349 C324 0.950 . S
H350 C326 0.950 . S
H351 C327 0.949 . S
H352 C329 0.950 . S
H353 C331 0.950 . S
C354 C355 1.349 . S
C354 C356 1.327 . S
C354 H379 0.950 . S
C355 C354 1.349 . S
C355 C371 1.349 1_455 S
C356 C354 1.327 . S
C356 C375 1.429 . S
C356 H380 0.950 . S
C357 C374 1.574 . S
C357 C376 1.368 1_655 S
C357 H381 0.949 . S
H358 C362 0.949 . S
C359 C360 1.349 1_655 S
C359 C361 1.327 . S
C359 H382 0.950 . S
C360 C359 1.349 1_455 S
C360 C372 1.349 . S
C361 C359 1.327 . S
C361 C377 1.429 1_655 S
C361 H383 0.950 . S
C362 H358 0.949 . S
C362 C370 1.574 . S
C362 C378 1.368 . S
H363 C371 0.950 . S
H364 C369 0.950 . S
H365 C370 0.949 . S
H366 C372 0.950 . S
H367 C373 0.950 . S
H368 C374 0.949 . S
C369 H364 0.950 . S
C369 C371 1.327 . S
C369 C375 1.429 1_655 S
C370 C362 1.574 . S
C370 H365 0.949 . S
C370 C376 1.368 . S
C371 C355 1.349 1_655 S
C371 H363 0.950 . S
C371 C369 1.327 . S
C372 C360 1.349 . S
C372 H366 0.950 . S
C372 C373 1.327 . S
C373 H367 0.950 . S
C373 C372 1.327 . S
C373 C377 1.429 . S
C374 C357 1.574 . S
C374 H368 0.949 . S
C374 C378 1.368 1_655 S
C375 C356 1.429 . S
C375 C369 1.429 1_455 S
C375 C376 1.523 . S
C376 C357 1.368 1_455 S
C376 C370 1.368 . S
C376 C375 1.523 . S
C377 C361 1.429 1_455 S
C377 C373 1.429 . S
C377 C378 1.523 . S
C378 C362 1.368 . S
C378 C374 1.368 1_455 S
C378 C377 1.523 . S
H379 C354 0.950 . S
H380 C356 0.950 . S
H381 C357 0.949 . S
H382 C359 0.950 . S
H383 C361 0.950 . S
C384 C385 1.386 . S
C384 C386 1.327 . S
C384 H409 0.950 . S
C385 C384 1.386 . S
C385 C401 1.313 1_565 S
C386 C384 1.327 . S
C386 C405 1.469 . S
C386 H410 0.950 . S
C387 C404 1.574 . S
C387 C406 1.323 1_545 S
C387 H411 0.949 . S
H388 C392 0.949 . S
C389 C390 1.349 1_545 S
C389 C391 1.327 . S
C389 H412 0.950 . S
C390 C389 1.349 1_565 S
C390 C402 1.349 . S
C391 C389 1.327 . S
C391 C407 1.429 1_545 S
C391 H413 0.950 . S
C392 H388 0.949 . S
C392 C400 1.574 1_556 S
C392 C408 1.368 1_556 S
H393 C401 0.950 . S
H394 C399 0.950 . S
H395 C400 0.949 . S
H396 C402 0.950 . S
H397 C403 0.950 . S
H398 C404 0.949 . S
C399 H394 0.950 . S
C399 C401 1.327 . S
C399 C405 1.390 1_545 S
C400 C392 1.574 1_554 S
C400 H395 0.949 . S
C400 C406 1.415 . S
C401 C385 1.313 1_545 S
C401 H393 0.950 . S
C401 C399 1.327 . S
C402 C390 1.349 . S
C402 H396 0.950 . S
C402 C403 1.327 . S
C403 H397 0.950 . S
C403 C402 1.327 . S
C403 C407 1.429 . S
C404 C387 1.574 . S
C404 H398 0.949 . S
C404 C408 1.369 1_545 S
C405 C386 1.469 . S
C405 C399 1.390 1_565 S
C405 C406 1.523 . S
C406 C387 1.323 1_565 S
C406 C400 1.415 . S
C406 C405 1.523 . S
C407 C391 1.429 1_565 S
C407 C403 1.429 . S
C407 C408 1.522 1_556 S
C408 C392 1.368 1_554 S
C408 C404 1.369 1_565 S
C408 C407 1.522 1_554 S
H409 C384 0.950 . S
H410 C386 0.950 . S
H411 C387 0.949 . S
H412 C389 0.950 . S
H413 C391 0.950 . S
C414 C415 1.349 . S
C414 C416 1.327 . S
C414 H439 0.950 . S
C415 C414 1.349 . S
C415 C431 1.349 . S
C416 C414 1.327 . S
C416 C435 1.429 . S
C416 H440 0.950 . S
C417 C434 1.574 . S
C417 C436 1.368 . S
C417 H441 0.949 . S
H418 C422 0.949 . S
C419 C420 1.349 . S
C419 C421 1.327 . S
C419 H442 0.950 . S
C420 C419 1.349 . S
C420 C432 1.349 . S
C421 C419 1.327 . S
C421 C437 1.429 . S
C421 H443 0.950 1_556 S
C422 H418 0.949 . S
C422 C430 1.574 1_556 S
C422 C438 1.368 1_556 S
H423 C431 0.950 . S
H424 C429 0.950 . S
H425 C430 0.949 . S
H426 C432 0.950 . S
H427 C433 0.950 . S
H428 C434 0.949 . S
C429 H424 0.950 . S
C429 C431 1.327 . S
C429 C435 1.429 . S
C430 C422 1.574 1_554 S
C430 H425 0.949 . S
C430 C436 1.368 . S
C431 C415 1.349 . S
C431 H423 0.950 . S
C431 C429 1.327 . S
C432 C420 1.349 . S
C432 H426 0.950 . S
C432 C433 1.327 . S
C433 H427 0.950 . S
C433 C432 1.327 . S
C433 C437 1.429 . S
C434 C417 1.574 . S
C434 H428 0.949 . S
C434 C438 1.369 . S
C435 C416 1.429 . S
C435 C429 1.429 . S
C435 C436 1.523 . S
C436 C417 1.368 . S
C436 C430 1.368 . S
C436 C435 1.523 . S
C437 C421 1.429 . S
C437 C433 1.429 . S
C437 C438 1.523 1_556 S
C438 C422 1.368 1_554 S
C438 C434 1.369 . S
C438 C437 1.523 1_554 S
H439 C414 0.950 . S
H440 C416 0.950 . S
H441 C417 0.949 . S
H442 C419 0.950 . S
H443 C421 0.950 1_554 S
C444 C445 1.349 . S
C444 C446 1.327 . S
C444 H469 0.950 . S
C445 C444 1.349 . S
C445 C461 1.349 . S
C446 C444 1.327 . S
C446 C465 1.429 . S
C446 H470 0.950 . S
C447 C464 1.574 1_554 S
C447 C466 1.368 . S
C447 H471 0.949 . S
H448 C452 0.949 . S
C449 C450 1.349 . S
C449 C451 1.327 . S
C449 H472 0.950 . S
C450 C449 1.349 . S
C450 C462 1.349 . S
C451 C449 1.327 . S
C451 C467 1.429 . S
C451 H473 0.950 . S
C452 H448 0.949 . S
C452 C460 1.574 . S
C452 C468 1.367 . S
H453 C461 0.950 . S
H454 C459 0.950 . S
H455 C460 0.949 . S
H456 C462 0.950 . S
H457 C463 0.950 . S
H458 C464 0.949 . S
C459 H454 0.950 . S
C459 C461 1.327 . S
C459 C465 1.429 . S
C460 C452 1.574 . S
C460 H455 0.949 . S
C460 C466 1.368 . S
C461 C445 1.349 . S
C461 H453 0.950 . S
C461 C459 1.327 . S
C462 C450 1.349 . S
C462 H456 0.950 . S
C462 C463 1.327 . S
C463 H457 0.950 . S
C463 C462 1.327 . S
C463 C467 1.429 . S
C464 C447 1.574 1_556 S
C464 H458 0.949 . S
C464 C468 1.369 1_556 S
C465 C446 1.429 . S
C465 C459 1.429 . S
C465 C466 1.523 . S
C466 C447 1.368 . S
C466 C460 1.368 . S
C466 C465 1.523 . S
C467 C451 1.429 . S
C467 C463 1.429 . S
C467 C468 1.524 1_556 S
C468 C452 1.367 . S
C468 C464 1.369 1_554 S
C468 C467 1.524 1_554 S
H469 C444 0.950 . S
H470 C446 0.950 . S
H471 C447 0.949 . S
H472 C449 0.950 . S
H473 C451 0.950 . S
C474 C475 1.331 1_455 S
C474 C476 1.327 . S
C474 H499 0.950 . S
C475 C474 1.331 1_655 S
C475 C491 1.368 . S
C476 C474 1.327 . S
C476 C495 1.410 1_455 S
C476 H500 0.950 . S
C477 C494 1.574 . S
C477 C496 1.392 . S
C477 H501 0.949 . S
H478 C482 0.949 . S
C479 C480 1.349 . S
C479 C481 1.327 . S
C479 H502 0.950 . S
C480 C479 1.349 . S
C480 C492 1.349 1_655 S
C481 C479 1.327 . S
C481 C497 1.429 . S
C481 H503 0.950 1_556 S
C482 H478 0.949 . S
C482 C490 1.574 1_556 S
C482 C498 1.345 1_456 S
H483 C491 0.950 . S
H484 C489 0.950 . S
H485 C490 0.949 . S
H486 C492 0.950 . S
H487 C493 0.950 . S
H488 C494 0.949 . S
C489 H484 0.950 . S
C489 C491 1.327 . S
C489 C495 1.449 . S
C490 C482 1.574 1_554 S
C490 H485 0.949 . S
C490 C496 1.347 1_455 S
C491 C475 1.368 . S
C491 H483 0.950 . S
C491 C489 1.327 . S
C492 C480 1.349 1_455 S
C492 H486 0.950 . S
C492 C493 1.327 . S
C493 H487 0.950 . S
C493 C492 1.327 . S
C493 C497 1.429 1_455 S
C494 C477 1.574 . S
C494 H488 0.949 . S
C494 C498 1.394 . S
C495 C476 1.410 1_655 S
C495 C489 1.449 . S
C495 C496 1.523 . S
C496 C477 1.392 . S
C496 C490 1.347 1_655 S
C496 C495 1.523 . S
C497 C481 1.429 . S
C497 C493 1.429 1_655 S
C497 C498 1.524 1_556 S
C498 C482 1.345 1_654 S
C498 C494 1.394 . S
C498 C497 1.524 1_554 S
H499 C474 0.950 . S
H500 C476 0.950 . S
H501 C477 0.949 . S
H502 C479 0.950 . S
H503 C481 0.950 1_554 S
C504 C505 1.349 . S
C504 C506 1.327 . S
C504 H529 0.950 . S
C505 C504 1.349 . S
C505 C521 1.349 1_455 S
C506 C504 1.327 . S
C506 C525 1.429 1_455 S
C506 H530 0.950 . S
C507 C524 1.574 . S
C507 C526 1.368 . S
C507 H531 0.949 . S
H508 C512 0.949 1_455 S
C509 C510 1.349 . S
C509 C511 1.327 . S
C509 H532 0.950 . S
C510 C509 1.349 . S
C510 C522 1.349 . S
C511 C509 1.327 . S
C511 C527 1.429 . S
C511 H533 0.950 . S
C512 H508 0.949 1_655 S
C512 C520 1.574 1_655 S
C512 C528 1.368 . S
H513 C521 0.950 . S
H514 C519 0.950 . S
H515 C520 0.949 . S
H516 C522 0.950 . S
H517 C523 0.950 . S
H518 C524 0.949 . S
C519 H514 0.950 . S
C519 C521 1.327 . S
C519 C525 1.429 . S
C520 C512 1.574 1_455 S
C520 H515 0.949 . S
C520 C526 1.368 1_455 S
C521 C505 1.349 1_655 S
C521 H513 0.950 . S
C521 C519 1.327 . S
C522 C510 1.349 . S
C522 H516 0.950 . S
C522 C523 1.327 . S
C523 H517 0.950 . S
C523 C522 1.327 . S
C523 C527 1.429 . S
C524 C507 1.574 . S
C524 H518 0.949 . S
C524 C528 1.368 . S
C525 C506 1.429 1_655 S
C525 C519 1.429 . S
C525 C526 1.523 . S
C526 C507 1.368 . S
C526 C520 1.368 1_655 S
C526 C525 1.523 . S
C527 C511 1.429 . S
C527 C523 1.429 . S
C527 C528 1.523 . S
C528 C512 1.368 . S
C528 C524 1.368 . S
C528 C527 1.523 . S
H529 C504 0.950 . S
H530 C506 0.950 . S
H531 C507 0.949 . S
H532 C509 0.950 . S
H533 C511 0.950 . S
C534 C535 1.349 1_565 S
C534 C536 1.327 . S
C534 H559 0.950 . S
C535 C534 1.349 1_545 S
C535 C551 1.349 . S
C536 C534 1.327 . S
C536 C555 1.429 . S
C536 H560 0.950 . S
C537 C554 1.574 . S
C537 C556 1.368 1_545 S
C537 H561 0.949 . S
H538 C542 0.949 . S
C539 C540 1.349 . S
C539 C541 1.327 . S
C539 H562 0.950 . S
C540 C539 1.349 . S
C540 C552 1.349 . S
C541 C539 1.327 . S
C541 C557 1.429 . S
C541 H563 0.950 1_565 S
C542 H538 0.949 . S
C542 C550 1.574 . S
C542 C558 1.368 . S
H543 C551 0.950 . S
H544 C549 0.950 . S
H545 C550 0.949 . S
H546 C552 0.950 . S
H547 C553 0.950 . S
H548 C554 0.949 . S
C549 H544 0.950 . S
C549 C551 1.327 . S
C549 C555 1.429 1_545 S
C550 C542 1.574 . S
C550 H545 0.949 . S
C550 C556 1.368 . S
C551 C535 1.349 . S
C551 H543 0.950 . S
C551 C549 1.327 . S
C552 C540 1.349 . S
C552 H546 0.950 . S
C552 C553 1.327 . S
C553 H547 0.950 . S
C553 C552 1.327 . S
C553 C557 1.429 . S
C554 C537 1.574 . S
C554 H548 0.949 . S
C554 C558 1.368 1_545 S
C555 C536 1.429 . S
C555 C549 1.429 1_565 S
C555 C556 1.523 . S
C556 C537 1.368 1_565 S
C556 C550 1.368 . S
C556 C555 1.523 . S
C557 C541 1.429 . S
C557 C553 1.429 . S
C557 C558 1.523 . S
C558 C542 1.368 . S
C558 C554 1.368 1_565 S
C558 C557 1.523 . S
H559 C534 0.950 . S
H560 C536 0.950 . S
H561 C537 0.949 . S
H562 C539 0.950 . S
H563 C541 0.950 1_545 S
C564 C565 1.349 . S
C564 C566 1.327 . S
C564 H589 0.950 . S
C565 C564 1.349 . S
C565 C581 1.349 . S
C566 C564 1.327 . S
C566 C585 1.429 . S
C566 H590 0.950 . S
C567 C584 1.574 . S
C567 C586 1.368 . S
C567 H591 0.949 . S
H568 C572 0.949 . S
C569 C570 1.349 . S
C569 C571 1.327 . S
C569 H592 0.950 . S
C570 C569 1.349 . S
C570 C582 1.349 . S
C571 C569 1.327 . S
C571 C587 1.429 . S
C571 H593 0.950 . S
C572 H568 0.949 . S
C572 C580 1.574 . S
C572 C588 1.368 . S
H573 C581 0.950 . S
H574 C579 0.950 . S
H575 C580 0.949 . S
H576 C582 0.950 . S
H577 C583 0.950 . S
H578 C584 0.949 . S
C579 H574 0.950 . S
C579 C581 1.327 . S
C579 C585 1.429 . S
C580 C572 1.574 . S
C580 H575 0.949 . S
C580 C586 1.368 . S
C581 C565 1.349 . S
C581 H573 0.950 . S
C581 C579 1.327 . S
C582 C570 1.349 . S
C582 H576 0.950 . S
C582 C583 1.327 . S
C583 H577 0.950 . S
C583 C582 1.327 . S
C583 C587 1.429 . S
C584 C567 1.574 . S
C584 H578 0.949 . S
C584 C588 1.368 . S
C585 C566 1.429 . S
C585 C579 1.429 . S
C585 C586 1.523 . S
C586 C567 1.368 . S
C586 C580 1.368 . S
C586 C585 1.523 . S
C587 C571 1.429 . S
C587 C583 1.429 . S
C587 C588 1.523 . S
C588 C572 1.368 . S
C588 C584 1.368 . S
C588 C587 1.523 . S
H589 C564 0.950 . S
H590 C566 0.950 . S
H591 C567 0.949 . S
H592 C569 0.950 . S
H593 C571 0.950 . S
C594 C595 1.349 . S
C594 C596 1.327 . S
C594 H619 0.950 . S
C595 C594 1.349 . S
C595 C611 1.349 . S
C596 C594 1.327 . S
C596 C615 1.429 . S
C596 H620 0.950 . S
C597 C614 1.574 . S
C597 C616 1.368 . S
C597 H621 0.949 . S
H598 C602 0.949 . S
C599 C600 1.349 . S
C599 C601 1.327 . S
C599 H622 0.950 . S
C600 C599 1.349 . S
C600 C612 1.349 . S
C601 C599 1.327 . S
C601 C617 1.429 . S
C601 H623 0.950 . S
C602 H598 0.949 . S
C602 C610 1.574 . S
C602 C618 1.368 . S
H603 C611 0.950 . S
H604 C609 0.950 . S
H605 C610 0.949 . S
H606 C612 0.950 . S
H607 C613 0.950 . S
H608 C614 0.949 . S
C609 H604 0.950 . S
C609 C611 1.327 . S
C609 C615 1.429 . S
C610 C602 1.574 . S
C610 H605 0.949 . S
C610 C616 1.368 . S
C611 C595 1.349 . S
C611 H603 0.950 . S
C611 C609 1.327 . S
C612 C600 1.349 . S
C612 H606 0.950 . S
C612 C613 1.327 . S
C613 H607 0.950 . S
C613 C612 1.327 . S
C613 C617 1.429 . S
C614 C597 1.574 . S
C614 H608 0.949 . S
C614 C618 1.368 . S
C615 C596 1.429 . S
C615 C609 1.429 . S
C615 C616 1.523 . S
C616 C597 1.368 . S
C616 C610 1.368 . S
C616 C615 1.523 . S
C617 C601 1.429 . S
C617 C613 1.429 . S
C617 C618 1.523 . S
C618 C602 1.368 . S
C618 C614 1.368 . S
C618 C617 1.523 . S
H619 C594 0.950 . S
H620 C596 0.950 . S
H621 C597 0.949 . S
H622 C599 0.950 . S
H623 C601 0.950 . S
C624 C625 1.349 . S
C624 C626 1.324 1_655 S
C624 H649 0.950 . S
C625 C624 1.349 . S
C625 C641 1.349 1_655 S
C626 C624 1.324 1_455 S
C626 C645 1.433 . S
C626 H650 0.948 1_455 S
C627 C644 1.574 . S
C627 C646 1.368 . S
C627 H651 0.949 . S
H628 C632 0.954 . S
C629 C630 1.349 1_554 S
C629 C631 1.327 . S
C629 H652 0.950 . S
C630 C629 1.349 1_556 S
C630 C642 1.349 . S
C631 C629 1.327 . S
C631 C647 1.429 . S
C631 H653 0.950 . S
C632 H628 0.954 . S
C632 C640 1.574 . S
C632 C648 1.368 . S
H633 C641 0.950 . S
H634 C639 0.950 . S
H635 C640 0.949 . S
H636 C642 0.950 . S
H637 C643 0.950 . S
H638 C644 0.949 . S
C639 H634 0.950 . S
C639 C641 1.327 . S
C639 C645 1.429 . S
C640 C632 1.574 . S
C640 H635 0.949 . S
C640 C646 1.368 . S
C641 C625 1.349 1_455 S
C641 H633 0.950 . S
C641 C639 1.327 . S
C642 C630 1.349 . S
C642 H636 0.950 . S
C642 C643 1.327 . S
C643 H637 0.950 . S
C643 C642 1.327 . S
C643 C647 1.429 1_556 S
C644 C627 1.574 . S
C644 H638 0.949 . S
C644 C648 1.368 . S
C645 C626 1.433 . S
C645 C639 1.429 . S
C645 C646 1.523 . S
C646 C627 1.368 . S
C646 C640 1.368 . S
C646 C645 1.523 . S
C647 C631 1.429 . S
C647 C643 1.429 1_554 S
C647 C648 1.523 . S
C648 C632 1.368 . S
C648 C644 1.368 . S
C648 C647 1.523 . S
H649 C624 0.950 . S
H650 C626 0.948 1_655 S
H651 C627 0.949 . S
H652 C629 0.950 . S
H653 C631 0.950 . S
C654 C655 1.349 . S
C654 C656 1.327 . S
C654 H679 0.950 . S
C655 C654 1.349 . S
C655 C671 1.349 1_565 S
C656 C654 1.327 . S
C656 C675 1.429 1_565 S
C656 H680 0.950 . S
C657 C674 1.574 . S
C657 C676 1.368 . S
C657 H681 0.949 . S
H658 C662 0.949 . S
C659 C660 1.349 . S
C659 C661 1.327 . S
C659 H682 0.950 . S
C660 C659 1.349 . S
C660 C672 1.349 1_556 S
C661 C659 1.327 . S
C661 C677 1.429 1_556 S
C661 H683 0.950 . S
C662 H658 0.949 . S
C662 C670 1.574 . S
C662 C678 1.368 . S
H663 C671 0.950 . S
H664 C669 0.950 . S
H665 C670 0.957 . S
H666 C672 0.950 . S
H667 C673 0.950 . S
H668 C674 0.949 . S
C669 H664 0.950 . S
C669 C671 1.327 . S
C669 C675 1.429 . S
C670 C662 1.574 . S
C670 H665 0.957 . S
C670 C676 1.368 . S
C671 C655 1.349 1_545 S
C671 H663 0.950 . S
C671 C669 1.327 . S
C672 C660 1.349 1_554 S
C672 H666 0.950 . S
C672 C673 1.327 . S
C673 H667 0.950 . S
C673 C672 1.327 . S
C673 C677 1.429 . S
C674 C657 1.574 . S
C674 H668 0.949 . S
C674 C678 1.368 . S
C675 C656 1.429 1_545 S
C675 C669 1.429 . S
C675 C676 1.523 . S
C676 C657 1.368 . S
C676 C670 1.368 . S
C676 C675 1.523 . S
C677 C661 1.429 1_554 S
C677 C673 1.429 . S
C677 C678 1.523 . S
C678 C662 1.368 . S
C678 C674 1.368 . S
C678 C677 1.523 . S
H679 C654 0.950 . S
H680 C656 0.950 . S
H681 C657 0.949 . S
H682 C659 0.950 . S
H683 C661 0.950 . S
C684 C685 1.349 . S
C684 C686 1.327 . S
C684 H709 0.950 . S
C685 C684 1.349 . S
C685 C701 1.349 . S
C686 C684 1.327 . S
C686 C705 1.429 . S
C686 H710 0.950 . S
C687 C704 1.574 . S
C687 C706 1.368 . S
C687 H711 0.949 . S
H688 C692 0.949 . S
C689 C690 1.349 1_554 S
C689 C691 1.327 . S
C689 H712 0.950 . S
C690 C689 1.349 1_556 S
C690 C702 1.349 . S
C691 C689 1.327 . S
C691 C707 1.429 . S
C691 H713 0.950 . S
C692 H688 0.949 . S
C692 C700 1.574 . S
C692 C708 1.368 . S
H693 C701 0.950 . S
H694 C699 0.950 . S
H695 C700 0.949 . S
H696 C702 0.950 . S
H697 C703 0.950 . S
H698 C704 0.949 . S
C699 H694 0.950 . S
C699 C701 1.327 . S
C699 C705 1.429 . S
C700 C692 1.574 . S
C700 H695 0.949 . S
C700 C706 1.368 . S
C701 C685 1.349 . S
C701 H693 0.950 . S
C701 C699 1.327 . S
C702 C690 1.349 . S
C702 H696 0.950 . S
C702 C703 1.327 . S
C703 H697 0.950 . S
C703 C702 1.327 . S
C703 C707 1.429 1_556 S
C704 C687 1.574 . S
C704 H698 0.949 . S
C704 C708 1.368 . S
C705 C686 1.429 . S
C705 C699 1.429 . S
C705 C706 1.523 . S
C706 C687 1.368 . S
C706 C700 1.368 . S
C706 C705 1.523 . S
C707 C691 1.429 . S
C707 C703 1.429 1_554 S
C707 C708 1.523 . S
C708 C692 1.368 . S
C708 C704 1.368 . S
C708 C707 1.523 . S
H709 C684 0.950 . S
H710 C686 0.950 . S
H711 C687 0.949 . S
H712 C689 0.950 . S
H713 C691 0.950 . S
C714 C715 1.349 . S
C714 C716 1.327 . S
C714 H739 0.950 . S
C715 C714 1.349 . S
C715 C731 1.349 . S
C716 C714 1.327 . S
C716 C735 1.429 . S
C716 H740 0.950 . S
C717 C734 1.574 . S
C717 C736 1.368 . S
C717 H741 0.949 . S
H718 C722 0.949 . S
C719 C720 1.349 . S
C719 C721 1.327 1_556 S
C719 H742 0.950 . S
C720 C719 1.349 . S
C720 C732 1.349 1_556 S
C721 C719 1.327 1_554 S
C721 C737 1.429 . S
C721 H743 0.950 . S
C722 H718 0.949 . S
C722 C730 1.574 . S
C722 C738 1.368 . S
H723 C731 0.950 . S
H724 C729 0.950 . S
H725 C730 0.949 . S
H726 C732 0.950 . S
H727 C733 0.950 . S
H728 C734 0.949 . S
C729 H724 0.950 . S
C729 C731 1.327 . S
C729 C735 1.429 . S
C730 C722 1.574 . S
C730 H725 0.949 . S
C730 C736 1.368 . S
C731 C715 1.349 . S
C731 H723 0.950 . S
C731 C729 1.327 . S
C732 C720 1.349 1_554 S
C732 H726 0.950 . S
C732 C733 1.327 . S
C733 H727 0.950 . S
C733 C732 1.327 . S
C733 C737 1.429 . S
C734 C717 1.574 . S
C734 H728 0.949 . S
C734 C738 1.368 . S
C735 C716 1.429 . S
C735 C729 1.429 . S
C735 C736 1.523 . S
C736 C717 1.368 . S
C736 C730 1.368 . S
C736 C735 1.523 . S
C737 C721 1.429 . S
C737 C733 1.429 . S
C737 C738 1.523 . S
C738 C722 1.368 . S
C738 C734 1.368 . S
C738 C737 1.523 . S
H739 C714 0.950 . S
H740 C716 0.950 . S
H741 C717 0.949 . S
H742 C719 0.950 . S
H743 C721 0.950 . S
C744 C745 1.349 . S
C744 C746 1.327 . S
C744 H769 0.950 . S
C745 C744 1.349 . S
C745 C761 1.349 1_455 S
C746 C744 1.327 . S
C746 C765 1.429 . S
C746 H770 0.950 . S
C747 C764 1.574 . S
C747 C766 1.368 1_655 S
C747 H771 0.949 . S
H748 C752 0.949 . S
C749 C750 1.349 1_655 S
C749 C751 1.327 . S
C749 H772 0.950 . S
C750 C749 1.349 1_455 S
C750 C762 1.349 . S
C751 C749 1.327 . S
C751 C767 1.429 1_655 S
C751 H773 0.950 . S
C752 H748 0.949 . S
C752 C760 1.574 . S
C752 C768 1.368 . S
H753 C761 0.950 . S
H754 C759 0.950 . S
H755 C760 0.949 . S
H756 C762 0.950 . S
H757 C763 0.950 . S
H758 C764 0.949 . S
C759 H754 0.950 . S
C759 C761 1.327 . S
C759 C765 1.429 1_655 S
C760 C752 1.574 . S
C760 H755 0.949 . S
C760 C766 1.368 . S
C761 C745 1.349 1_655 S
C761 H753 0.950 . S
C761 C759 1.327 . S
C762 C750 1.349 . S
C762 H756 0.950 . S
C762 C763 1.327 . S
C763 H757 0.950 . S
C763 C762 1.327 . S
C763 C767 1.429 . S
C764 C747 1.574 . S
C764 H758 0.949 . S
C764 C768 1.368 1_655 S
C765 C746 1.429 . S
C765 C759 1.429 1_455 S
C765 C766 1.523 . S
C766 C747 1.368 1_455 S
C766 C760 1.368 . S
C766 C765 1.523 . S
C767 C751 1.429 1_455 S
C767 C763 1.429 . S
C767 C768 1.523 . S
C768 C752 1.368 . S
C768 C764 1.368 1_455 S
C768 C767 1.523 . S
H769 C744 0.950 . S
H770 C746 0.950 . S
H771 C747 0.949 . S
H772 C749 0.950 . S
H773 C751 0.950 . S
C774 C775 1.349 . S
C774 C776 1.327 . S
C774 H799 0.951 . S
C775 C774 1.349 . S
C775 C791 1.349 . S
C776 C774 1.327 . S
C776 C795 1.429 . S
C776 H800 0.950 . S
C777 C794 1.574 . S
C777 C796 1.368 . S
C777 H801 0.949 . S
H778 C782 0.949 . S
C779 C780 1.349 . S
C779 C781 1.327 . S
C779 H802 0.950 . S
C780 C779 1.349 . S
C780 C792 1.349 . S
C781 C779 1.327 . S
C781 C797 1.429 . S
C781 H803 0.950 . S
C782 H778 0.949 . S
C782 C790 1.574 . S
C782 C798 1.368 . S
H783 C791 0.950 1_554 S
H784 C789 0.950 . S
H785 C790 0.949 . S
H786 C792 0.950 . S
H787 C793 0.950 . S
H788 C794 0.949 . S
C789 H784 0.950 . S
C789 C791 1.327 . S
C789 C795 1.429 . S
C790 C782 1.574 . S
C790 H785 0.949 . S
C790 C796 1.368 . S
C791 C775 1.349 . S
C791 H783 0.950 1_556 S
C791 C789 1.327 . S
C792 C780 1.349 . S
C792 H786 0.950 . S
C792 C793 1.327 . S
C793 H787 0.950 . S
C793 C792 1.327 . S
C793 C797 1.429 . S
C794 C777 1.574 . S
C794 H788 0.949 . S
C794 C798 1.368 . S
C795 C776 1.429 . S
C795 C789 1.429 . S
C795 C796 1.523 . S
C796 C777 1.368 . S
C796 C790 1.368 . S
C796 C795 1.523 . S
C797 C781 1.429 . S
C797 C793 1.429 . S
C797 C798 1.523 . S
C798 C782 1.368 . S
C798 C794 1.368 . S
C798 C797 1.523 . S
H799 C774 0.951 . S
H800 C776 0.950 . S
H801 C777 0.949 . S
H802 C779 0.950 . S
H803 C781 0.950 . S
C804 C805 1.349 . S
C804 C806 1.327 . S
C804 H829 0.950 . S
C805 C804 1.349 . S
C805 C821 1.349 . S
C806 C804 1.327 . S
C806 C825 1.429 . S
C806 H830 0.950 . S
C807 C824 1.574 . S
C807 C826 1.368 . S
C807 H831 0.949 . S
H808 C812 0.949 . S
C809 C810 1.349 . S
C809 C811 1.327 . S
C809 H832 0.950 . S
C810 C809 1.349 . S
C810 C822 1.349 . S
C811 C809 1.327 . S
C811 C827 1.429 . S
C811 H833 0.950 . S
C812 H808 0.949 . S
C812 C820 1.574 . S
C812 C828 1.368 . S
H813 C821 0.950 . S
H814 C819 0.950 . S
H815 C820 0.949 . S
H816 C822 0.950 . S
H817 C823 0.950 . S
H818 C824 0.949 . S
C819 H814 0.950 . S
C819 C821 1.327 . S
C819 C825 1.429 . S
C820 C812 1.574 . S
C820 H815 0.949 . S
C820 C826 1.368 . S
C821 C805 1.349 . S
C821 H813 0.950 . S
C821 C819 1.327 . S
C822 C810 1.349 . S
C822 H816 0.950 . S
C822 C823 1.327 . S
C823 H817 0.950 . S
C823 C822 1.327 . S
C823 C827 1.429 . S
C824 C807 1.574 . S
C824 H818 0.949 . S
C824 C828 1.368 . S
C825 C806 1.429 . S
C825 C819 1.429 . S
C825 C826 1.523 . S
C826 C807 1.368 . S
C826 C820 1.368 . S
C826 C825 1.523 . S
C827 C811 1.429 . S
C827 C823 1.429 . S
C827 C828 1.523 . S
C828 C812 1.368 . S
C828 C824 1.368 . S
C828 C827 1.523 . S
H829 C804 0.950 . S
H830 C806 0.950 . S
H831 C807 0.949 . S
H832 C809 0.950 . S
H833 C811 0.950 . S
C834 C835 1.349 . S
C834 C836 1.327 . S
C834 H859 0.950 . S
C835 C834 1.349 . S
C835 C851 1.349 . S
C836 C834 1.327 . S
C836 C855 1.429 . S
C836 H860 0.950 . S
C837 C854 1.574 . S
C837 C856 1.368 . S
C837 H861 0.949 . S
H838 C842 0.949 . S
C839 C840 1.349 . S
C839 C841 1.327 . S
C839 H862 0.950 . S
C840 C839 1.349 . S
C840 C852 1.349 . S
C841 C839 1.327 . S
C841 C857 1.429 . S
C841 H863 0.950 . S
C842 H838 0.949 . S
C842 C850 1.574 . S
C842 C858 1.368 . S
H843 C851 0.950 . S
H844 C849 0.950 . S
H845 C850 0.949 . S
H846 C852 0.950 . S
H847 C853 0.950 . S
H848 C854 0.949 . S
C849 H844 0.950 . S
C849 C851 1.327 . S
C849 C855 1.429 . S
C850 C842 1.574 . S
C850 H845 0.949 . S
C850 C856 1.368 . S
C851 C835 1.349 . S
C851 H843 0.950 . S
C851 C849 1.327 . S
C852 C840 1.349 . S
C852 H846 0.950 . S
C852 C853 1.327 . S
C853 H847 0.950 . S
C853 C852 1.327 . S
C853 C857 1.429 . S
C854 C837 1.574 . S
C854 H848 0.949 . S
C854 C858 1.368 . S
C855 C836 1.429 . S
C855 C849 1.429 . S
C855 C856 1.523 . S
C856 C837 1.368 . S
C856 C850 1.368 . S
C856 C855 1.523 . S
C857 C841 1.429 . S
C857 C853 1.429 . S
C857 C858 1.523 . S
C858 C842 1.368 . S
C858 C854 1.368 . S
C858 C857 1.523 . S
H859 C834 0.950 . S
H860 C836 0.950 . S
H861 C837 0.949 . S
H862 C839 0.950 . S
H863 C841 0.950 . S
C864 C865 1.349 1_455 S
C864 C866 1.327 . S
C864 H889 0.950 . S
C865 C864 1.349 1_655 S
C865 C881 1.349 . S
C866 C864 1.327 . S
C866 C885 1.429 1_455 S
C866 H890 0.950 . S
C867 C884 1.574 . S
C867 C886 1.368 . S
C867 H891 0.949 . S
H868 C872 0.949 . S
C869 C870 1.349 . S
C869 C871 1.327 . S
C869 H892 0.950 . S
C870 C869 1.349 . S
C870 C882 1.349 1_655 S
C871 C869 1.327 . S
C871 C887 1.429 . S
C871 H893 0.950 . S
C872 H868 0.949 . S
C872 C880 1.574 . S
C872 C888 1.368 1_455 S
H873 C881 0.950 . S
H874 C879 0.950 . S
H875 C880 0.949 . S
H876 C882 0.950 . S
H877 C883 0.950 . S
H878 C884 0.949 . S
C879 H874 0.950 . S
C879 C881 1.327 . S
C879 C885 1.429 . S
C880 C872 1.574 . S
C880 H875 0.949 . S
C880 C886 1.368 1_455 S
C881 C865 1.349 . S
C881 H873 0.950 . S
C881 C879 1.327 . S
C882 C870 1.349 1_455 S
C882 H876 0.950 . S
C882 C883 1.327 . S
C883 H877 0.950 . S
C883 C882 1.327 . S
C883 C887 1.429 1_455 S
C884 C867 1.574 . S
C884 H878 0.949 . S
C884 C888 1.368 . S
C885 C866 1.429 1_655 S
C885 C879 1.429 . S
C885 C886 1.523 . S
C886 C867 1.368 . S
C886 C880 1.368 1_655 S
C886 C885 1.523 . S
C887 C871 1.429 . S
C887 C883 1.429 1_655 S
C887 C888 1.523 . S
C888 C872 1.368 1_655 S
C888 C884 1.368 . S
C888 C887 1.523 . S
H889 C864 0.950 . S
H890 C866 0.950 . S
H891 C867 0.949 . S
H892 C869 0.950 . S
H893 C871 0.950 . S
C894 C895 1.349 . S
C894 C896 1.327 . S
C894 H919 0.950 . S
C895 C894 1.349 . S
C895 C911 1.349 1_565 S
C896 C894 1.327 . S
C896 C915 1.429 . S
C896 H920 0.950 . S
C897 C914 1.574 . S
C897 C916 1.368 1_545 S
C897 H921 0.949 . S
H898 C902 0.949 . S
C899 C900 1.349 1_545 S
C899 C901 1.327 . S
C899 H922 0.950 . S
C900 C899 1.349 1_565 S
C900 C912 1.349 . S
C901 C899 1.327 . S
C901 C917 1.429 1_545 S
C901 H923 0.950 . S
C902 H898 0.949 . S
C902 C910 1.574 . S
C902 C918 1.368 . S
H903 C911 0.950 . S
H904 C909 0.950 . S
H905 C910 0.949 . S
H906 C912 0.950 . S
H907 C913 0.950 . S
H908 C914 0.949 . S
C909 H904 0.950 . S
C909 C911 1.327 . S
C909 C915 1.429 1_545 S
C910 C902 1.574 . S
C910 H905 0.949 . S
C910 C916 1.368 . S
C911 C895 1.349 1_545 S
C911 H903 0.950 . S
C911 C909 1.327 . S
C912 C900 1.349 . S
C912 H906 0.950 . S
C912 C913 1.327 . S
C913 H907 0.950 . S
C913 C912 1.327 . S
C913 C917 1.429 . S
C914 C897 1.574 . S
C914 H908 0.949 . S
C914 C918 1.368 1_545 S
C915 C896 1.429 . S
C915 C909 1.429 1_565 S
C915 C916 1.523 . S
C916 C897 1.368 1_565 S
C916 C910 1.368 . S
C916 C915 1.523 . S
C917 C901 1.429 1_565 S
C917 C913 1.429 . S
C917 C918 1.523 . S
C918 C902 1.368 . S
C918 C914 1.368 1_565 S
C918 C917 1.523 . S
H919 C894 0.950 . S
H920 C896 0.950 . S
H921 C897 0.949 . S
H922 C899 0.950 . S
H923 C901 0.950 . S
C924 C925 1.349 . S
C924 C926 1.327 . S
C924 H949 0.950 . S
C925 C924 1.349 . S
C925 C941 1.349 . S
C926 C924 1.327 . S
C926 C945 1.429 . S
C926 H950 0.950 . S
C927 C944 1.574 . S
C927 C946 1.368 . S
C927 H951 0.949 . S
H928 C932 0.949 . S
C929 C930 1.349 . S
C929 C931 1.327 . S
C929 H952 0.950 . S
C930 C929 1.349 . S
C930 C942 1.349 . S
C931 C929 1.327 . S
C931 C947 1.429 . S
C931 H953 0.950 . S
C932 H928 0.949 . S
C932 C940 1.574 . S
C932 C948 1.368 . S
H933 C941 0.950 . S
H934 C939 0.950 . S
H935 C940 0.949 . S
H936 C942 0.950 . S
H937 C943 0.950 . S
H938 C944 0.949 . S
C939 H934 0.950 . S
C939 C941 1.327 . S
C939 C945 1.429 . S
C940 C932 1.574 . S
C940 H935 0.949 . S
C940 C946 1.368 . S
C941 C925 1.349 . S
C941 H933 0.950 . S
C941 C939 1.327 . S
C942 C930 1.349 . S
C942 H936 0.950 . S
C942 C943 1.327 . S
C943 H937 0.950 . S
C943 C942 1.327 . S
C943 C947 1.429 . S
C944 C927 1.574 . S
C944 H938 0.949 . S
C944 C948 1.368 . S
C945 C926 1.429 . S
C945 C939 1.429 . S
C945 C946 1.523 . S
C946 C927 1.368 . S
C946 C940 1.368 . S
C946 C945 1.523 . S
C947 C931 1.429 . S
C947 C943 1.429 . S
C947 C948 1.523 . S
C948 C932 1.368 . S
C948 C944 1.368 . S
C948 C947 1.523 . S
H949 C924 0.950 . S
H950 C926 0.950 . S
H951 C927 0.949 . S
H952 C929 0.950 . S
H953 C931 0.950 . S
C954 C955 1.349 . S
C954 C956 1.327 . S
C954 H979 0.950 . S
C955 C954 1.349 . S
C955 C971 1.349 . S
C956 C954 1.327 . S
C956 C975 1.429 . S
C956 H980 0.950 . S
C957 C974 1.574 . S
C957 C976 1.368 . S
C957 H981 0.949 . S
H958 C962 0.949 . S
C959 C960 1.349 . S
C959 C961 1.327 . S
C959 H982 0.950 . S
C960 C959 1.349 . S
C960 C972 1.349 . S
C961 C959 1.327 . S
C961 C977 1.429 . S
C961 H983 0.950 . S
C962 H958 0.949 . S
C962 C970 1.574 . S
C962 C978 1.368 . S
H963 C971 0.950 . S
H964 C969 0.950 . S
H965 C970 0.949 . S
H966 C972 0.950 . S
H967 C973 0.950 . S
H968 C974 0.949 . S
C969 H964 0.950 . S
C969 C971 1.327 . S
C969 C975 1.429 . S
C970 C962 1.574 . S
C970 H965 0.949 . S
C970 C976 1.368 . S
C971 C955 1.349 . S
C971 H963 0.950 . S
C971 C969 1.327 . S
C972 C960 1.349 . S
C972 H966 0.950 . S
C972 C973 1.327 . S
C973 H967 0.950 . S
C973 C972 1.327 . S
C973 C977 1.429 . S
C974 C957 1.574 . S
C974 H968 0.949 . S
C974 C978 1.368 . S
C975 C956 1.429 . S
C975 C969 1.429 . S
C975 C976 1.523 . S
C976 C957 1.368 . S
C976 C970 1.368 . S
C976 C975 1.523 . S
C977 C961 1.429 . S
C977 C973 1.429 . S
C977 C978 1.523 . S
C978 C962 1.368 . S
C978 C974 1.368 . S
C978 C977 1.523 . S
H979 C954 0.950 . S
H980 C956 0.950 . S
H981 C957 0.949 . S
H982 C959 0.950 . S
H983 C961 0.950 . S
C265 C82 1.623 . S
C270 C113 1.817 1_545 S
C300 C153 1.821 . S
C295 C95 1.611 . S
C330 C193 1.821 . S
C325 C56 1.614 . S
C360 C233 1.818 1_455 S
C355 C69 1.614 . S
C390 C122 1.817 1_565 S
C385 C30 1.608 1_565 S
C415 C43 1.614 . S
C420 C162 1.823 . S
C445 C4 1.614 . S
C450 C202 1.820 . S
C475 C17 1.609 1_655 S
C480 C242 1.821 1_655 S
C510 C119 0.328 . S
C505 C74 0.382 . S
C540 C159 0.328 . S
C535 C87 0.383 . S
C570 C199 0.328 . S
C565 C100 0.382 . S
C595 C61 0.382 . S
C600 C239 0.328 . S
C625 C22 0.398 . S
C630 C110 0.331 . S
C660 C150 0.328 . S
C655 C35 0.398 . S
C690 C190 0.328 . S
C685 C48 0.387 . S
C715 C9 0.387 . S
C720 C230 0.328 . S
C745 C73 1.879 . S
C750 C123 2.047 . S
C775 C86 1.880 . S
C780 C163 2.051 . S
C810 C203 2.051 . S
C805 C99 1.880 . S
C840 C243 2.051 . S
C835 C60 1.879 . S
C865 C21 1.883 . S
C870 C114 2.055 . S
C900 C154 2.051 . S
C895 C34 1.882 . S
C930 C194 2.051 . S
C925 C47 1.881 . S
C955 C8 1.881 . S
C960 C234 2.051 . S
