# Generated by pormake.
# Topology zzz, (3,6)-cn, num edge types: 1
# Building blocks:
#     Node 0, Type 0, BuildingBlock: MIDCAF_clean_linker_0, # of connection points: 3
#     Node 1, Type 0, BuildingBlock: MIDCAF_clean_linker_0, # of connection points: 3
#     Node 2, Type 0, BuildingBlock: MIDCAF_clean_linker_0, # of connection points: 3
#     Node 3, Type 0, BuildingBlock: MIDCAF_clean_linker_0, # of connection points: 3
#     Node 4, Type 0, BuildingBlock: MIDCAF_clean_linker_0, # of connection points: 3
#     Node 5, Type 0, BuildingBlock: MIDCAF_clean_linker_0, # of connection points: 3
#     Node 6, Type 0, BuildingBlock: MIDCAF_clean_linker_0, # of connection points: 3
#     Node 7, Type 0, BuildingBlock: MIDCAF_clean_linker_0, # of connection points: 3
#     Node 8, Type 1, BuildingBlock: NUHQIS_clean_sbu_0, # of connection points: 6
#     Node 9, Type 1, BuildingBlock: NUHQIS_clean_sbu_0, # of connection points: 6
#     Node 10, Type 1, BuildingBlock: NUHQIS_clean_sbu_0, # of connection points: 6
#     Node 11, Type 1, BuildingBlock: NUHQIS_clean_sbu_0, # of connection points: 6
#     Edge 12, Type (0, 1), BuildingBlock: TEMPAE_clean_linker_10, # of connection points: 2
#     Edge 13, Type (0, 1), BuildingBlock: TEMPAE_clean_linker_10, # of connection points: 2
#     Edge 14, Type (0, 1), BuildingBlock: TEMPAE_clean_linker_10, # of connection points: 2
#     Edge 15, Type (0, 1), BuildingBlock: TEMPAE_clean_linker_10, # of connection points: 2
#     Edge 16, Type (0, 1), BuildingBlock: TEMPAE_clean_linker_10, # of connection points: 2
#     Edge 17, Type (0, 1), BuildingBlock: TEMPAE_clean_linker_10, # of connection points: 2
#     Edge 18, Type (0, 1), BuildingBlock: TEMPAE_clean_linker_10, # of connection points: 2
#     Edge 19, Type (0, 1), BuildingBlock: TEMPAE_clean_linker_10, # of connection points: 2
#     Edge 20, Type (0, 1), BuildingBlock: TEMPAE_clean_linker_10, # of connection points: 2
#     Edge 21, Type (0, 1), BuildingBlock: TEMPAE_clean_linker_10, # of connection points: 2
#     Edge 22, Type (0, 1), BuildingBlock: TEMPAE_clean_linker_10, # of connection points: 2
#     Edge 23, Type (0, 1), BuildingBlock: TEMPAE_clean_linker_10, # of connection points: 2
#     Edge 24, Type (0, 1), BuildingBlock: TEMPAE_clean_linker_10, # of connection points: 2
#     Edge 25, Type (0, 1), BuildingBlock: TEMPAE_clean_linker_10, # of connection points: 2
#     Edge 26, Type (0, 1), BuildingBlock: TEMPAE_clean_linker_10, # of connection points: 2
#     Edge 27, Type (0, 1), BuildingBlock: TEMPAE_clean_linker_10, # of connection points: 2
#     Edge 28, Type (0, 1), BuildingBlock: TEMPAE_clean_linker_10, # of connection points: 2
#     Edge 29, Type (0, 1), BuildingBlock: TEMPAE_clean_linker_10, # of connection points: 2
#     Edge 30, Type (0, 1), BuildingBlock: TEMPAE_clean_linker_10, # of connection points: 2
#     Edge 31, Type (0, 1), BuildingBlock: TEMPAE_clean_linker_10, # of connection points: 2
#     Edge 32, Type (0, 1), BuildingBlock: TEMPAE_clean_linker_10, # of connection points: 2
#     Edge 33, Type (0, 1), BuildingBlock: TEMPAE_clean_linker_10, # of connection points: 2
#     Edge 34, Type (0, 1), BuildingBlock: TEMPAE_clean_linker_10, # of connection points: 2
#     Edge 35, Type (0, 1), BuildingBlock: TEMPAE_clean_linker_10, # of connection points: 2
# Relax obj value: 0.422
# Max RMSD: 0.256
# Mean RMSD: 0.233
data_MOF--net-zzz--node1-NUHQIS_clean_sbu_0--node2-MIDCAF_clean_linker_0--edge1-TEMPAE_clean_linker_10
_symmetry_space_group_name_H-M    P1
_symmetry_Int_Tables_number       1
_symmetry_cell_setting            triclinic
loop_
_symmetry_equiv_pos_as_xyz
'x, y, z'
_cell_length_a     59.165612
_cell_length_b     59.213029
_cell_length_c     19.463765
_cell_angle_alpha  89.61844
_cell_angle_beta   89.897561
_cell_angle_gamma 90.09088
loop_
_atom_site_label
_atom_site_type_symbol
_atom_site_fract_x
_atom_site_fract_y
_atom_site_fract_z
_atom_type_partial_charge
C0 C 0.80128 0.53003 0.44522 0.0
C1 C 0.81198 0.50963 0.46383 0.0
C2 C 0.8018 0.48919 0.44412 0.0
C3 C 0.78274 0.48915 0.40169 0.0
H4 H 0.70794 0.55158 0.19748 0.0
H5 H 0.6704 0.55515 0.14686 0.0
H6 H 0.65176 0.49044 0.2339 0.0
H7 H 0.68959 0.48698 0.28405 0.0
H8 H 0.74077 0.48217 0.08078 0.0
H9 H 0.76165 0.46851 0.98003 0.0
H10 H 0.8241 0.4911 0.07148 0.0
H11 H 0.80359 0.50445 0.17129 0.0
H12 H 0.77543 0.54588 0.38404 0.0
H13 H 0.80872 0.54608 0.45912 0.0
H14 H 0.8093 0.47317 0.45844 0.0
H15 H 0.77646 0.47315 0.38275 0.0
N16 N 0.73701 0.51479 0.31359 0.0
N17 N 0.7365 0.5069 0.19487 0.0
N18 N 0.76991 0.50248 0.257 0.0
C19 C 0.72559 0.51363 0.25259 0.0
C20 C 0.75865 0.50138 0.19669 0.0
C21 C 0.7594 0.50909 0.31538 0.0
C22 C 0.70144 0.51925 0.24585 0.0
C23 C 0.69542 0.53868 0.20854 0.0
C24 C 0.67392 0.54062 0.17916 0.0
C25 C 0.65809 0.52296 0.18557 0.0
C26 C 0.66363 0.50424 0.22731 0.0
C27 C 0.68513 0.5024 0.25707 0.0
C28 C 0.7706 0.49427 0.13395 0.0
C29 C 0.75894 0.48441 0.07875 0.0
C30 C 0.7708 0.47658 0.02133 0.0
C31 C 0.79437 0.47903 0.01785 0.0
C32 C 0.80586 0.48938 0.07234 0.0
C33 C 0.79413 0.49681 0.12983 0.0
C34 C 0.77316 0.50949 0.37862 0.0
C35 C 0.78208 0.52995 0.40272 0.0
C36 C 1.00104 0.78784 0.40347 0.0
C37 C 0.01746 0.79873 0.44411 0.0
C38 C 0.03918 0.78923 0.44761 0.0
C39 C 0.04493 0.77064 0.40739 0.0
H40 H 0.99355 0.7011 0.20439 0.0
H41 H 0.98223 0.66642 0.14411 0.0
H42 H 0.05123 0.64281 0.15301 0.0
H43 H 0.06215 0.67686 0.213 0.0
H44 H 0.07306 0.73603 0.08232 0.0
H45 H 0.09444 0.76124 0.00723 0.0
H46 H 0.11945 0.79699 0.18443 0.0
H47 H 0.09727 0.77234 0.25937 0.0
H48 H 0.99442 0.76209 0.32814 0.0
H49 H 0.98414 0.79472 0.39955 0.0
H50 H 0.05212 0.79681 0.47938 0.0
H51 H 0.06225 0.76473 0.40823 0.0
N52 N 0.0279 0.72632 0.28751 0.0
N53 N 0.05564 0.72233 0.20109 0.0
N54 N 0.05627 0.75386 0.27213 0.0
C55 C 0.03731 0.71406 0.23517 0.0
C56 C 0.06515 0.74219 0.21913 0.0
C57 C 0.03779 0.74628 0.30658 0.0
C58 C 0.0287 0.69162 0.21369 0.0
C59 C 1.00602 0.68809 0.19529 0.0
C60 C 0.99965 0.66836 0.15999 0.0
C61 C 0.01582 0.65173 0.14325 0.0
C62 C 0.03818 0.65491 0.16554 0.0
C63 C 0.0445 0.67455 0.19989 0.0
C64 C 0.08301 0.75267 0.17649 0.0
C65 C 0.0837 0.74881 0.10538 0.0
C66 C 0.09609 0.7632 0.06228 0.0
C67 C 0.10819 0.78148 0.08982 0.0
C68 C 0.1098 0.78341 0.16162 0.0
C69 C 0.09712 0.7693 0.20454 0.0
C70 C 0.02912 0.76081 0.36271 0.0
C71 C 1.00684 0.76904 0.36296 0.0
C72 C 0.71395 1.00478 0.42662 0.0
C73 C 0.70314 0.02023 0.47046 0.0
C74 C 0.713 0.04149 0.48032 0.0
C75 C 0.73214 0.04794 0.44307 0.0
H76 H 0.82557 0.06621 0.23242 0.0
H77 H 0.85749 0.05356 0.16428 0.0
H78 H 0.82799 0.98691 0.15274 0.0
H79 H 0.79604 0.99966 0.22372 0.0
H80 H 0.76362 0.08484 0.12645 0.0
H81 H 0.73567 0.10709 0.06456 0.0
H82 H 0.70735 0.12934 0.25725 0.0
H83 H 0.73487 0.10641 0.31919 0.0
H84 H 0.74009 0.9999 0.35079 0.0
H85 H 0.70659 0.98827 0.41809 0.0
H86 H 0.70514 0.05364 0.51419 0.0
H87 H 0.7384 0.06504 0.44871 0.0
N88 N 0.77516 0.03305 0.31378 0.0
N89 N 0.78 0.06374 0.23695 0.0
N90 N 0.74999 0.06376 0.31462 0.0
C91 C 0.78729 0.04362 0.26274 0.0
C92 C 0.76137 0.07388 0.26267 0.0
C93 C 0.75655 0.04353 0.34063 0.0
C94 C 0.80824 0.03397 0.23303 0.0
C95 C 0.82607 0.04872 0.21645 0.0
C96 C 0.84429 0.0415 0.17674 0.0
C97 C 0.8451 0.01936 0.15127 0.0
C98 C 0.82793 1.00409 0.17137 0.0
C99 C 0.80965 1.01134 0.21216 0.0
C100 C 0.75094 0.09338 0.22752 0.0
C101 C 0.75207 0.09523 0.15563 0.0
C102 C 0.73605 0.1081 0.12009 0.0
C103 C 0.71888 0.11943 0.15612 0.0
C104 C 0.72003 0.1203 0.22817 0.0
C105 C 0.73581 0.1072 0.26362 0.0
C106 C 0.74185 0.03339 0.39445 0.0
C107 C 0.7332 1.01134 0.38861 0.0
C108 C 0.406 0.73354 0.15798 0.0
C109 C 0.40767 0.73938 0.08808 0.0
C110 C 0.41894 0.7594 0.06937 0.0
C111 C 0.43002 0.77226 0.11905 0.0
H112 H 0.44895 0.8409 0.23594 0.0
H113 H 0.46216 0.87546 0.18153 0.0
H114 H 0.53102 0.85167 0.19541 0.0
H115 H 0.51743 0.81657 0.25024 0.0
H116 H 0.44256 0.74977 0.42379 0.0
H117 H 0.45138 0.71794 0.49866 0.0
H118 H 0.52198 0.72418 0.44517 0.0
H119 H 0.51302 0.7567 0.37067 0.0
H120 H 0.41687 0.74042 0.26038 0.0
H121 H 0.39758 0.7181 0.17391 0.0
H122 H 0.42037 0.76432 0.01583 0.0
H123 H 0.43976 0.78681 0.10243 0.0
N124 N 0.45608 0.79543 0.22414 0.0
N125 N 0.48044 0.7908 0.31901 0.0
N126 N 0.45336 0.76303 0.29235 0.0
C127 C 0.47288 0.80351 0.2647 0.0
C128 C 0.47024 0.77054 0.33342 0.0
C129 C 0.44633 0.77518 0.23734 0.0
C130 C 0.48217 0.82609 0.24747 0.0
C131 C 0.46699 0.8433 0.22916 0.0
C132 C 0.47461 0.8632 0.19811 0.0
C133 C 0.49769 0.86643 0.18373 0.0
C134 C 0.51311 0.84967 0.20533 0.0
C135 C 0.50541 0.8297 0.23741 0.0
C136 C 0.4771 0.7557 0.39136 0.0
C137 C 0.46008 0.74477 0.42953 0.0
C138 C 0.46511 0.72635 0.47189 0.0
C139 C 0.48731 0.7181 0.47671 0.0
C140 C 0.50469 0.73009 0.44262 0.0
C141 C 0.49962 0.74879 0.40025 0.0
C142 C 0.43027 0.76509 0.1881 0.0
C143 C 0.41727 0.74621 0.20748 0.0
C144 C 0.20882 0.52265 0.02468 0.0
C145 C 0.21263 0.51909 0.95435 0.0
C146 C 0.23512 0.51908 0.9301 0.0
C147 C 0.25317 0.52426 0.97458 0.0
H148 H 0.31337 0.49822 0.17077 0.0
H149 H 0.3478 0.4856 0.23018 0.0
H150 H 0.373 0.55414 0.22682 0.0
H151 H 0.33915 0.56639 0.16738 0.0
H152 H 0.28143 0.57759 0.30208 0.0
H153 H 0.25732 0.59919 0.37916 0.0
H154 H 0.2204 0.62527 0.20457 0.0
H155 H 0.24383 0.60278 0.12794 0.0
H156 H 0.22286 0.53164 0.12174 0.0
H157 H 0.19183 0.5222 0.04554 0.0
H158 H 0.23862 0.51633 0.87618 0.0
H159 H 0.27014 0.52565 0.95398 0.0
N160 N 0.28696 0.53175 0.10021 0.0
N161 N 0.29394 0.56117 0.17866 0.0
N162 N 0.2594 0.55945 0.12145 0.0
C163 C 0.30112 0.54237 0.14539 0.0
C164 C 0.27321 0.56988 0.16651 0.0
C165 C 0.26597 0.54056 0.08795 0.0
C166 C 0.32359 0.53328 0.16449 0.0
C167 C 0.32669 0.51034 0.18069 0.0
C168 C 0.34627 0.50321 0.21551 0.0
C169 C 0.36318 0.51887 0.23397 0.0
C170 C 0.3606 0.54149 0.21305 0.0
C171 C 0.34109 0.54857 0.17906 0.0
C172 C 0.26406 0.58814 0.20935 0.0
C173 C 0.26869 0.58858 0.28008 0.0
C174 C 0.25491 0.60105 0.32426 0.0
C175 C 0.23656 0.61345 0.29803 0.0
C176 C 0.23404 0.61537 0.22638 0.0
C177 C 0.24746 0.60257 0.18248 0.0
C178 C 0.24891 0.52945 0.04377 0.0
C179 C 0.22665 0.52784 0.06856 0.0
C180 C 0.01203 0.21619 0.9471 0.0
C181 C 0.02861 0.20278 0.91479 0.0
C182 C 0.05135 0.20962 0.92009 0.0
C183 C 0.05745 0.22807 0.96067 0.0
H184 H 0.01294 0.31068 0.11705 0.0
H185 H 1.00604 0.34754 0.17098 0.0
H186 H 0.07537 0.34912 0.24005 0.0
H187 H 0.08211 0.31296 0.18603 0.0
H188 H 0.0696 0.25977 0.30456 0.0
H189 H 0.06689 0.23239 0.3981 0.0
H190 H 0.07444 0.17814 0.25229 0.0
H191 H 0.0781 0.20529 0.16008 0.0
H192 H 1.00528 0.24349 0.01682 0.0
H193 H 0.99432 0.21174 0.94352 0.0
H194 H 0.06474 0.19975 0.89719 0.0
H195 H 0.07525 0.23158 0.96822 0.0
N196 N 0.04413 0.27512 0.07045 0.0
N197 N 0.06218 0.27185 0.17812 0.0
N198 N 0.05927 0.24039 0.10754 0.0
C199 C 0.0516 0.28481 0.13014 0.0
C200 C 0.06599 0.24963 0.16742 0.0
C201 C 0.04851 0.25274 0.05889 0.0
C202 C 0.04809 0.30899 0.14702 0.0
C203 C 0.0268 0.31936 0.14184 0.0
C204 C 0.02281 0.34031 0.1736 0.0
C205 C 0.04011 0.35137 0.2104 0.0
C206 C 0.06168 0.34143 0.21169 0.0
C207 C 0.06555 0.32058 0.18075 0.0
C208 C 0.07299 0.23463 0.22452 0.0
C209 C 0.07165 0.24204 0.29288 0.0
C210 C 0.06998 0.22632 0.34655 0.0
C211 C 0.06946 0.20306 0.33243 0.0
C212 C 0.0745 0.19588 0.2654 0.0
C213 C 0.07636 0.21154 0.21201 0.0
C214 C 0.04109 0.24035 0.99702 0.0
C215 C 0.01821 0.23475 0.98792 0.0
C216 C 0.30076 0.97352 0.98725 0.0
C217 C 0.30096 0.99397 0.95024 0.0
C218 C 0.28281 1.00911 0.96038 0.0
C219 C 0.26537 1.00406 0.00768 0.0
H220 H 0.2049 0.02732 0.19778 0.0
H221 H 0.16943 0.03973 0.25137 0.0
H222 H 0.14086 0.9735 0.21783 0.0
H223 H 0.17589 0.96157 0.16398 0.0
H224 H 0.23353 0.95775 0.34205 0.0
H225 H 0.25615 0.93944 0.43154 0.0
H226 H 0.29394 0.90408 0.27586 0.0
H227 H 0.27183 0.92271 0.18664 0.0
H228 H 0.28449 0.95258 0.06118 0.0
H229 H 0.31448 0.96154 0.98275 0.0
H230 H 0.2822 0.02496 0.93243 0.0
H231 H 0.25204 0.01627 0.01582 0.0
N232 N 0.22921 0.98941 0.11072 0.0
N233 N 0.22244 0.96792 0.21149 0.0
N234 N 0.2558 0.96286 0.14981 0.0
C235 C 0.21551 0.98366 0.16503 0.0
C236 C 0.24255 0.95745 0.20406 0.0
C237 C 0.24954 0.97866 0.10281 0.0
C238 C 0.19294 0.99362 0.17584 0.0
C239 C 0.19061 0.01587 0.19923 0.0
C240 C 0.17041 0.0228 0.23092 0.0
C241 C 0.15224 1.00758 0.23969 0.0
C242 C 0.15422 0.98586 0.21143 0.0
C243 C 0.17433 0.97897 0.1803 0.0
C244 C 0.25136 0.94205 0.25748 0.0
C245 C 0.24616 0.94548 0.32714 0.0
C246 C 0.25902 0.93493 0.37839 0.0
C247 C 0.27705 0.92073 0.36038 0.0
C248 C 0.28038 0.9153 0.29097 0.0
C249 C 0.26776 0.92599 0.23996 0.0
C250 C 0.26578 0.9838 0.04589 0.0
C251 C 0.28348 0.96848 0.03352 0.0
C252 C 0.60695 0.30076 0.17228 0.0
C253 C 0.60749 0.30045 0.24455 0.0
C254 C 0.59753 0.28209 0.2796 0.0
C255 C 0.58501 0.26599 0.24378 0.0
H256 H 0.49237 0.21426 0.17816 0.0
H257 H 0.48223 0.18084 0.24725 0.0
H258 H 0.55158 0.15828 0.23832 0.0
H259 H 0.56165 0.19175 0.17225 0.0
H260 H 0.49236 0.28226 0.09118 0.0
H261 H 0.47988 0.31594 0.02768 0.0
H262 H 0.53064 0.30341 0.87302 0.0
H263 H 0.54311 0.27007 0.93691 0.0
H264 H 0.59229 0.28678 0.0815 0.0
H265 H 0.61502 0.31427 0.14353 0.0
H266 H 0.59752 0.28126 0.33519 0.0
H267 H 0.5759 0.25322 0.27284 0.0
N268 N 0.55516 0.2365 0.16387 0.0
N269 N 0.52295 0.23925 0.09315 0.0
N270 N 0.55106 0.2674 0.08996 0.0
C271 C 0.53541 0.22758 0.14071 0.0
C272 C 0.53116 0.25908 0.06678 0.0
C273 C 0.56305 0.25639 0.1388 0.0
C274 C 0.52783 0.20573 0.17057 0.0
C275 C 0.50527 0.20189 0.19007 0.0
C276 C 0.4995 0.18275 0.2297 0.0
C277 C 0.51619 0.16706 0.24987 0.0
C278 C 0.5384 0.17029 0.22586 0.0
C279 C 0.54415 0.18941 0.18738 0.0
C280 C 0.51839 0.27336 0.01816 0.0
C281 C 0.50005 0.28615 0.04193 0.0
C282 C 0.49318 0.30561 0.00612 0.0
C283 C 0.50442 0.31249 0.9456 0.0
C284 C 0.52148 0.29853 0.91902 0.0
C285 C 0.52854 0.27932 0.95533 0.0
C286 C 0.58195 0.2682 0.17253 0.0
C287 C 0.59405 0.28495 0.13666 0.0
Tb288 Tb 0.01839 0.9914 0.74878 0.0
Eu289 Eu 0.97797 1.00556 0.644 0.0
C290 C 0.02904 1.0059 0.59763 0.0
C291 C 1.00389 0.04321 0.73644 0.0
C292 C 0.06566 0.9593 0.82236 0.0
C293 C 0.07583 0.92312 0.77332 0.0
C294 C 0.06326 0.94305 0.77068 0.0
C295 C 0.08166 0.95609 0.87428 0.0
C296 C 0.09432 0.93622 0.87683 0.0
C297 C 0.09102 0.91923 0.82758 0.0
C298 C 0.05041 0.97872 0.82496 0.0
O299 O 0.98892 0.99954 0.81179 0.0
O300 O 0.96218 0.98826 0.73557 0.0
O301 O 0.98716 0.96999 0.61435 0.0
O302 O 1.00498 0.95896 0.71364 0.0
C303 C 0.96815 0.99299 0.79867 0.0
O304 O 0.94418 0.01923 0.62719 0.0
O305 O 0.96375 1.00731 0.54084 0.0
O306 O 1.01065 0.01819 0.59771 0.0
O307 O 0.03193 0.99016 0.64458 0.0
O308 O 0.01961 0.02828 0.7518 0.0
O309 O 0.98555 0.03763 0.70233 0.0
C310 C 0.99598 0.95417 0.65358 0.0
O311 O 0.0527 0.99345 0.77539 0.0
O312 O 0.02923 0.97378 0.83643 0.0
C313 C 0.94593 0.04249 0.52809 0.0
C314 C 0.96251 0.08473 0.48572 0.0
C315 C 0.95068 0.08264 0.54797 0.0
C316 C 0.94236 0.06168 0.569 0.0
C317 C 0.95452 0.04542 0.46124 0.0
C318 C 0.9629 0.06641 0.4403 0.0
C319 C 0.94684 0.01989 0.56055 0.0
H320 H 0.073 0.91038 0.73458 0.0
H321 H 0.05103 0.9454 0.72989 0.0
H322 H 0.08369 0.96851 0.91445 0.0
H323 H 0.10561 0.93357 0.91986 0.0
H324 H 0.94963 0.09673 0.58304 0.0
H325 H 0.93533 0.06017 0.62024 0.0
H326 H 0.95714 0.031 0.42819 0.0
H327 H 0.97177 0.06761 0.39167 0.0
Tb328 Tb 0.50608 0.03269 0.75244 0.0
Eu329 Eu 0.49328 0.99075 0.65195 0.0
C330 C 0.49564 0.04056 0.59708 0.0
C331 C 0.45553 0.01589 0.74067 0.0
C332 C 0.53665 0.07635 0.85315 0.0
C333 C 0.56183 0.1084 0.86807 0.0
C334 C 0.54167 0.09929 0.84313 0.0
C335 C 0.55196 0.0626 0.88899 0.0
C336 C 0.57199 0.07173 0.91452 0.0
C337 C 0.57728 0.0947 0.90385 0.0
C338 C 0.51592 0.06696 0.82301 0.0
O339 O 0.51774 1.00249 0.80701 0.0
O340 O 0.49097 0.97926 0.76208 0.0
O341 O 0.53128 0.99142 0.64881 0.0
O342 O 0.53824 0.02557 0.70138 0.0
C343 C 0.50569 0.98384 0.81025 0.0
O344 O 0.49508 0.95465 0.63134 0.0
O345 O 0.47534 0.9765 0.56469 0.0
O346 O 0.50231 0.02002 0.58309 0.0
O347 O 0.4895 0.04568 0.65996 0.0
O348 O 0.4716 0.02323 0.78149 0.0
O349 O 0.46022 1.00727 0.68038 0.0
C350 C 0.54509 1.00778 0.66668 0.0
O351 O 0.5154 0.06686 0.75618 0.0
O352 O 0.50815 0.04813 0.84914 0.0
C353 C 0.45964 0.94167 0.59505 0.0
C354 C 0.41708 0.92089 0.60805 0.0
C355 C 0.42552 0.93441 0.66122 0.0
C356 C 0.44664 0.94474 0.65471 0.0
C357 C 0.45198 0.92708 0.54391 0.0
C358 C 0.43086 0.91668 0.55042 0.0
C359 C 0.47969 0.95574 0.58345 0.0
H360 H 0.56546 0.12606 0.85832 0.0
H361 H 0.53012 0.11011 0.81505 0.0
H362 H 0.54855 0.0448 0.89702 0.0
H363 H 0.58327 0.06078 0.94305 0.0
H364 H 0.41531 0.93792 0.70615 0.0
H365 H 0.45232 0.95606 0.6947 0.0
H366 H 0.46177 0.92467 0.49744 0.0
H367 H 0.42467 0.90667 0.50802 0.0
Tb368 Tb 0.48648 0.52183 0.76758 0.0
Eu369 Eu 0.52937 0.51116 0.66729 0.0
C370 C 0.47902 0.51143 0.61225 0.0
C371 C 0.50435 0.47178 0.75347 0.0
C372 C 0.43833 0.55045 0.8512 0.0
C373 C 0.41195 0.57152 0.92108 0.0
C374 C 0.42358 0.55156 0.90735 0.0
C375 C 0.44032 0.56899 0.80632 0.0
C376 C 0.42868 0.58899 0.82 0.0
C377 C 0.41502 0.59067 0.87891 0.0
C378 C 0.45343 0.53102 0.84458 0.0
O379 O 0.51556 0.51459 0.83306 0.0
O380 O 0.54205 0.5292 0.76105 0.0
O381 O 0.51948 0.54682 0.64069 0.0
O382 O 0.49876 0.55541 0.73726 0.0
C383 C 0.53575 0.52321 0.82307 0.0
O384 O 0.5654 0.50457 0.6576 0.0
O385 O 0.54462 0.50579 0.56627 0.0
O386 O 0.49773 0.49952 0.61275 0.0
O387 O 0.4746 0.52549 0.66234 0.0
O388 O 0.48664 0.48503 0.75957 0.0
O389 O 0.52368 0.47937 0.72927 0.0
C390 C 0.50911 0.56154 0.67997 0.0
O391 O 0.45167 0.51935 0.78831 0.0
O392 O 0.47445 0.53505 0.86015 0.0
C393 C 0.57474 0.47989 0.56811 0.0
C394 C 0.59312 0.43923 0.51903 0.0
C395 C 0.57987 0.43938 0.57913 0.0
C396 C 0.57068 0.45952 0.60328 0.0
C397 C 0.58838 0.47997 0.50927 0.0
C398 C 0.59751 0.45979 0.48483 0.0
C399 C 0.56443 0.50098 0.59169 0.0
H400 H 0.4014 0.57235 0.96655 0.0
H401 H 0.42189 0.53736 0.94242 0.0
H402 H 0.45174 0.56838 0.7628 0.0
H403 H 0.43157 0.60355 0.78712 0.0
H404 H 0.57637 0.42387 0.60703 0.0
H405 H 0.56018 0.45915 0.64894 0.0
H406 H 0.59163 0.49556 0.48151 0.0
H407 H 0.60733 0.46021 0.43783 0.0
Tb408 Tb 0.01369 0.48406 0.71469 0.0
Eu409 Eu 0.0252 0.52676 0.6141 0.0
C410 C 0.02459 0.47689 0.5598 0.0
C411 C 0.06392 0.50243 0.70563 0.0
C412 C 0.98045 0.44125 0.80763 0.0
C413 C 0.94596 0.42014 0.78453 0.0
C414 C 0.9685 0.42515 0.76907 0.0
C415 C 0.96998 0.45095 0.86503 0.0
C416 C 0.94755 0.4459 0.88058 0.0
C417 C 0.9351 0.43093 0.83939 0.0
C418 C 1.00269 0.44952 0.78352 0.0
O419 O 1.00262 0.51406 0.77123 0.0
O420 O 0.0281 0.53843 0.72332 0.0
O421 O 0.98715 0.52638 0.61852 0.0
O422 O 0.98144 0.49086 0.66429 0.0
C423 C 0.01415 0.53309 0.7732 0.0
O424 O 0.02222 0.56267 0.59046 0.0
O425 O 0.04218 0.54105 0.52443 0.0
O426 O 0.01701 0.49718 0.54606 0.0
O427 O 0.0309 0.47184 0.62267 0.0
O428 O 0.04815 0.49275 0.74345 0.0
O429 O 0.05909 0.51284 0.64755 0.0
C430 C 0.97379 0.50941 0.63488 0.0
O431 O 1.00546 0.44964 0.71714 0.0
O432 O 1.01034 0.46807 0.81098 0.0
C433 C 0.05644 0.57701 0.54746 0.0
C434 C 0.09719 0.60145 0.55061 0.0
C435 C 0.09159 0.58655 0.60456 0.0
C436 C 0.07136 0.57442 0.60297 0.0
C437 C 0.06127 0.59278 0.4957 0.0
C438 C 0.08149 0.60499 0.49732 0.0
C439 C 0.03705 0.56177 0.54084 0.0
H440 H 0.93685 0.40836 0.75243 0.0
H441 H 0.97624 0.41717 0.72499 0.0
H442 H 0.97873 0.46329 0.89613 0.0
H443 H 0.9396 0.45473 0.92275 0.0
H444 H 0.10332 0.58352 0.6463 0.0
H445 H 0.06781 0.56227 0.64349 0.0
H446 H 0.04994 0.59489 0.45248 0.0
H447 H 0.08548 0.61605 0.45443 0.0
C448 C 0.13562 0.02415 0.34746 0.0
C449 C 0.13243 0.01301 0.28469 0.0
C450 C 0.11802 0.02587 0.3959 0.0
C451 C 0.09668 0.01607 0.38173 0.0
C452 C 0.09293 1.00606 0.31683 0.0
C453 C 0.11077 1.00475 0.26911 0.0
C454 C 0.12272 0.03694 0.46404 0.0
C455 C 0.07046 0.99546 0.2993 0.0
C456 C 0.06329 0.99264 0.53377 0.0
C457 C 0.04627 1.00887 0.54242 0.0
C458 C 0.07964 0.99484 0.48173 0.0
C459 C 0.07927 0.01391 0.43733 0.0
C460 C 0.06228 0.03051 0.4461 0.0
C461 C 0.04589 0.02772 0.49821 0.0
C462 C 0.09728 0.97661 0.47406 0.0
C463 C 0.06144 0.05125 0.40063 0.0
H464 H 0.15226 0.03044 0.36063 0.0
H465 H 0.10794 0.9965 0.22034 0.0
H466 H 0.10889 0.04873 0.4777 0.0
H467 H 0.12352 0.02383 0.50495 0.0
H468 H 0.13896 0.0464 0.46366 0.0
H469 H 0.06948 0.99048 0.24445 0.0
H470 H 0.06782 0.98018 0.33164 0.0
H471 H 0.05644 1.0073 0.31053 0.0
H472 H 0.06372 0.97797 0.56735 0.0
H473 H 0.0329 0.04042 0.50465 0.0
H474 H 0.11442 0.98395 0.48 0.0
H475 H 0.09635 0.96926 0.42184 0.0
H476 H 0.09517 0.96279 0.51241 0.0
H477 H 0.07761 0.06069 0.40422 0.0
H478 H 0.04738 0.06276 0.41466 0.0
H479 H 0.05937 0.04621 0.34621 0.0
C480 C 0.52678 0.14253 0.35053 0.0
C481 C 0.51112 0.14815 0.29898 0.0
C482 C 0.52282 0.12467 0.39678 0.0
C483 C 0.50252 0.11209 0.39239 0.0
C484 C 0.48643 0.11779 0.34122 0.0
C485 C 0.49092 0.13573 0.29511 0.0
C486 C 0.54044 0.11927 0.45049 0.0
C487 C 0.46454 0.10486 0.33504 0.0
C488 C 0.50452 0.0539 0.4771 0.0
C489 C 0.49536 0.05824 0.54228 0.0
C490 C 0.50615 0.07103 0.42686 0.0
C491 C 0.49834 0.09308 0.44185 0.0
C492 C 0.48828 0.09733 0.50659 0.0
C493 C 0.48698 0.07992 0.55599 0.0
C494 C 0.51708 0.06576 0.3587 0.0
C495 C 0.47963 0.12052 0.52467 0.0
H496 H 0.54219 0.15231 0.35532 0.0
H497 H 0.47875 0.1398 0.2554 0.0
H498 H 0.53306 0.12099 0.50262 0.0
H499 H 0.54611 0.10151 0.44515 0.0
H500 H 0.55546 0.13049 0.44656 0.0
H501 H 0.45362 0.11157 0.29329 0.0
H502 H 0.46812 0.08681 0.32473 0.0
H503 H 0.45506 0.10558 0.3842 0.0
H504 H 0.51106 0.03723 0.46584 0.0
H505 H 0.47977 0.08348 0.60598 0.0
H506 H 0.53325 0.07518 0.35394 0.0
H507 H 0.50607 0.07135 0.31579 0.0
H508 H 0.52063 0.04746 0.35285 0.0
H509 H 0.49401 0.13252 0.52776 0.0
H510 H 0.47049 0.12062 0.57458 0.0
H511 H 0.4681 0.12685 0.48401 0.0
C512 C 0.40372 0.52237 0.27207 0.0
C513 C 0.38224 0.51258 0.28076 0.0
C514 C 0.4206 0.51999 0.32239 0.0
C515 C 0.41606 0.50733 0.38286 0.0
C516 C 0.395 0.49611 0.38979 0.0
C517 C 0.37834 0.49891 0.33887 0.0
C518 C 0.4428 0.53221 0.31262 0.0
C519 C 0.3895 0.48225 0.45302 0.0
C520 C 0.46508 0.49307 0.50353 0.0
C521 C 0.46301 0.50997 0.55344 0.0
C522 C 0.44984 0.49179 0.44801 0.0
C523 C 0.43228 0.50793 0.4418 0.0
C524 C 0.4302 0.52504 0.49194 0.0
C525 C 0.44545 0.52577 0.54708 0.0
C526 C 0.45251 0.47317 0.39609 0.0
C527 C 0.4119 0.54275 0.48715 0.0
H528 H 0.40709 0.53261 0.22684 0.0
H529 H 0.36181 0.4914 0.34663 0.0
H530 H 0.44401 0.54622 0.35005 0.0
H531 H 0.45717 0.52065 0.32265 0.0
H532 H 0.44462 0.53938 0.25999 0.0
H533 H 0.37373 0.47226 0.44674 0.0
H534 H 0.40357 0.47054 0.46526 0.0
H535 H 0.38735 0.49361 0.49764 0.0
H536 H 0.47851 0.48073 0.50802 0.0
H537 H 0.44371 0.53898 0.58501 0.0
H538 H 0.45535 0.48052 0.34422 0.0
H539 H 0.43677 0.46301 0.39361 0.0
H540 H 0.46683 0.46175 0.4086 0.0
H541 H 0.41349 0.55221 0.43797 0.0
H542 H 0.41264 0.55499 0.53011 0.0
H543 H 0.39503 0.53455 0.48754 0.0
C544 C 0.01607 0.37395 0.29239 0.0
C545 C 0.03569 0.37214 0.25205 0.0
C546 C 0.0132 0.39187 0.33897 0.0
C547 C 0.03037 0.40844 0.34582 0.0
C548 C 0.04975 0.40725 0.30313 0.0
C549 C 0.05212 0.38924 0.25681 0.0
C550 C 0.99218 0.39252 0.38297 0.0
C551 C 0.06845 0.42452 0.30829 0.0
C552 C 0.0178 0.46391 0.43831 0.0
C553 C 0.02636 0.45962 0.50443 0.0
C554 C 0.01884 0.44744 0.38636 0.0
C555 C 0.02879 0.42614 0.40047 0.0
C556 C 0.03753 0.42178 0.46701 0.0
C557 C 0.03615 0.43847 0.51802 0.0
C558 C 1.0092 0.4528 0.31639 0.0
C559 C 0.04841 0.39941 0.48441 0.0
H560 H 1.00335 0.3608 0.2899 0.0
H561 H 0.06718 0.38829 0.22518 0.0
H562 H 0.99677 0.38944 0.43747 0.0
H563 H 0.98423 0.40946 0.38001 0.0
H564 H 0.97955 0.37965 0.36739 0.0
H565 H 0.08174 0.42208 0.26862 0.0
H566 H 0.0615 0.44183 0.3028 0.0
H567 H 0.07644 0.42338 0.35974 0.0
H568 H 1.01008 0.4801 0.42716 0.0
H569 H 0.0428 0.43489 0.56877 0.0
H570 H 0.99582 0.4404 0.30347 0.0
H571 H 0.02258 0.45134 0.27668 0.0
H572 H 1.0019 0.47005 0.31362 0.0
H573 H 0.03616 0.38548 0.47628 0.0
H574 H 0.05442 0.39863 0.53841 0.0
H575 H 0.06299 0.3964 0.44975 0.0
C576 C 0.86955 0.02853 0.04922 0.0
C577 C 0.86307 0.01305 0.10067 0.0
C578 C 0.88678 0.02356 0.00205 0.0
C579 C 0.89787 1.00242 0.00547 0.0
C580 C 0.89121 0.98648 0.05638 0.0
C581 C 0.87389 0.99196 0.10332 0.0
C582 C 0.89318 0.04106 0.94858 0.0
C583 C 0.90254 0.96373 0.0616 0.0
C584 C 0.92848 0.98606 0.84065 0.0
C585 C 0.95072 0.99309 0.85411 0.0
C586 C 0.91135 0.988 0.89053 0.0
C587 C 0.91645 0.99731 0.95558 0.0
C588 C 0.93903 1.00363 0.9704 0.0
C589 C 0.95586 1.0014 0.91967 0.0
C590 C 0.88756 0.98093 0.87254 0.0
C591 C 0.94524 0.01368 0.0389 0.0
H592 H 0.86097 0.04465 0.0454 0.0
H593 H 0.86911 0.9799 0.14289 0.0
H594 H 0.9113 0.04558 0.95389 0.0
H595 H 0.89087 0.03405 0.89633 0.0
H596 H 0.88296 0.05671 0.95286 0.0
H597 H 0.89509 0.95299 0.10283 0.0
H598 H 0.90111 0.9547 0.01202 0.0
H599 H 0.92083 0.96598 0.07216 0.0
H600 H 0.92428 0.97949 0.79043 0.0
H601 H 0.97295 1.00686 0.93085 0.0
H602 H 0.87655 0.99606 0.8697 0.0
H603 H 0.88055 0.96968 0.91309 0.0
H604 H 0.88674 0.97205 0.82251 0.0
H605 H 0.93701 0.0304 0.04438 0.0
H606 H 0.96379 0.01593 0.04465 0.0
H607 H 0.939 1.00277 0.08146 0.0
C608 C 0.49454 0.9073 0.14847 0.0
C609 C 0.50483 0.88612 0.1402 0.0
C610 C 0.49746 0.92468 0.09964 0.0
C611 C 0.51117 0.92093 0.04107 0.0
C612 C 0.52304 0.90025 0.03524 0.0
C613 C 0.5197 0.88309 0.08471 0.0
C614 C 0.48453 0.94643 0.10828 0.0
C615 C 0.538 0.89558 0.97409 0.0
C616 C 0.49263 0.94964 0.87522 0.0
C617 C 0.50768 0.96794 0.86961 0.0
C618 C 0.49373 0.93434 0.93045 0.0
C619 C 0.51041 0.93715 0.98177 0.0
C620 C 0.5258 0.95548 0.97647 0.0
C621 C 0.52421 0.97072 0.92057 0.0
C622 C 0.47684 0.91519 0.934 0.0
C623 C 0.54391 0.95898 0.02985 0.0
H624 H 0.48336 0.90999 0.19183 0.0
H625 H 0.52765 0.86681 0.07741 0.0
H626 H 0.49568 0.9612 0.09879 0.0
H627 H 0.47067 0.94719 0.06999 0.0
H628 H 0.47702 0.94791 0.16042 0.0
H629 H 0.54867 0.88037 0.98217 0.0
H630 H 0.52733 0.89283 0.92806 0.0
H631 H 0.54914 0.91025 0.96303 0.0
H632 H 0.47972 0.94727 0.83647 0.0
H633 H 0.53594 0.98474 0.91674 0.0
H634 H 0.46688 0.91629 0.98221 0.0
H635 H 0.48581 0.89875 0.93481 0.0
H636 H 0.46495 0.91532 0.88988 0.0
H637 H 0.53603 0.96154 0.08097 0.0
H638 H 0.55484 0.97377 0.01779 0.0
H639 H 0.55467 0.9437 0.03377 0.0
C640 C 0.63123 0.5034 0.10573 0.0
C641 C 0.6373 0.52291 0.14201 0.0
C642 C 0.61351 0.50367 0.05766 0.0
C643 C 0.60141 0.52392 0.04547 0.0
C644 C 0.60682 0.54344 0.08389 0.0
C645 C 0.62474 0.54273 0.1314 0.0
C646 C 0.60843 0.48249 0.01768 0.0
C647 C 0.59418 0.5653 0.07316 0.0
C648 C 0.57473 0.53074 0.86847 0.0
C649 C 0.55215 0.5246 0.88092 0.0
C650 C 0.59076 0.53091 0.92169 0.0
C651 C 0.58413 0.52497 0.98944 0.0
C652 C 0.56127 0.51926 0.00272 0.0
C653 C 0.54558 0.51906 0.94835 0.0
C654 C 0.61497 0.537 0.90504 0.0
C655 C 0.55344 0.51298 0.07421 0.0
H656 H 0.64101 0.4881 0.11256 0.0
H657 H 0.62917 0.55784 0.15955 0.0
H658 H 0.5902 0.47827 0.02139 0.0
H659 H 0.61236 0.48535 0.96253 0.0
H660 H 0.61838 0.46777 0.03621 0.0
H661 H 0.59916 0.57839 0.11088 0.0
H662 H 0.59757 0.57191 0.02067 0.0
H663 H 0.5757 0.56237 0.07735 0.0
H664 H 0.58004 0.53502 0.81668 0.0
H665 H 0.52819 0.51435 0.95869 0.0
H666 H 0.62615 0.52246 0.91687 0.0
H667 H 0.62058 0.5513 0.93741 0.0
H668 H 0.6173 0.54177 0.85018 0.0
H669 H 0.56209 0.49734 0.09146 0.0
H670 H 0.53489 0.51016 0.07683 0.0
H671 H 0.55804 0.5265 0.11086 0.0
C672 C 0.99696 0.63504 0.03881 0.0
C673 C 1.01032 0.6321 0.0978 0.0
C674 C 0.99487 0.61781 0.98955 0.0
C675 C 1.00649 0.59709 -0.00097 0.0
C676 C 0.01883 0.59351 0.06045 0.0
C677 C 0.0205 0.61095 0.10901 0.0
C678 C 0.98134 0.62233 0.92528 0.0
C679 C 0.03148 0.57176 0.07306 0.0
C680 C 0.99466 0.54669 0.88132 0.0
C681 C 0.01191 0.54899 0.83209 0.0
C682 C 0.99249 0.56224 0.93572 0.0
C683 C 1.00806 0.58038 0.94153 0.0
C684 C 0.0256 0.58259 0.89229 0.0
C685 C 0.02723 0.56702 0.83838 0.0
C686 C 0.97346 0.55935 0.98674 0.0
C687 C 0.04277 0.60144 0.89653 0.0
H688 H 0.98912 0.65128 0.02908 0.0
H689 H 0.03049 0.60826 0.15495 0.0
H690 H 0.99299 0.62441 0.88095 0.0
H691 H 0.97008 0.60783 0.91396 0.0
H692 H 0.9709 0.63784 0.92961 0.0
H693 H 0.03819 0.5706 0.12624 0.0
H694 H 0.02035 0.55701 0.06373 0.0
H695 H 0.04588 0.57062 0.03663 0.0
H696 H 0.98269 0.53291 0.87694 0.0
H697 H 0.04074 0.56898 0.8011 0.0
H698 H 0.96269 0.57467 0.9867 0.0
H699 H 0.98039 0.55739 0.03936 0.0
H700 H 0.96272 0.54445 0.97519 0.0
H701 H 0.03411 0.61804 0.89404 0.0
H702 H 0.05546 0.60075 0.85447 0.0
H703 H 0.05178 0.60056 0.94642 0.0
C704 C 0.06474 0.1641 0.38198 0.0
C705 C 0.05845 0.18694 0.38089 0.0
C706 C 0.05013 0.14759 0.4089 0.0
C707 C 0.02901 0.15422 0.4363 0.0
C708 C 0.02381 0.17737 0.4429 0.0
C709 C 0.03854 0.19348 0.41479 0.0
C710 C 0.05646 0.12298 0.40271 0.0
C711 C 1.00171 0.18507 0.47376 0.0
C712 C 0.97974 0.1143 0.40945 0.0
C713 C 0.97787 0.10409 0.47424 0.0
C714 C 0.99627 0.1308 0.39672 0.0
C715 C 1.01129 0.13706 0.45002 0.0
C716 C 1.00933 0.12692 0.51561 0.0
C717 C 0.99257 0.11062 0.52701 0.0
C718 C 0.99793 0.14125 0.32588 0.0
C719 C 0.02491 0.13311 0.57375 0.0
H720 H 0.08035 0.15897 0.35745 0.0
H721 H 0.03335 0.21102 0.4142 0.0
H722 H 0.05328 0.1139 0.45183 0.0
H723 H 0.04579 0.11494 0.36289 0.0
H724 H 0.07449 0.12075 0.38818 0.0
H725 H 1.00164 0.20351 0.48393 0.0
H726 H 0.98771 0.1812 0.43784 0.0
H727 H 0.99824 0.17593 0.52257 0.0
H728 H 0.96845 0.10916 0.3686 0.0
H729 H 0.99156 0.10232 0.57671 0.0
H730 H 0.01488 0.13792 0.3037 0.0
H731 H 0.99594 0.15984 0.32915 0.0
H732 H 0.98492 0.13456 0.29027 0.0
H733 H 0.0427 0.13436 0.55603 0.0
H734 H 0.02399 0.1206 0.61639 0.0
H735 H 0.01999 0.14988 0.59395 0.0
C736 C 0.28994 0.90707 0.47689 0.0
C737 C 0.29495 0.91539 0.41095 0.0
C738 C 0.3072 0.90402 0.52584 0.0
C739 C 0.32973 0.90983 0.50829 0.0
C740 C 0.33476 0.91802 0.44143 0.0
C741 C 0.31736 0.92057 0.39376 0.0
C742 C 0.30136 0.89466 0.59593 0.0
C743 C 0.35847 0.92484 0.4205 0.0
C744 C 0.3765 0.9313 0.61822 0.0
C745 C 0.39282 0.91465 0.60596 0.0
C746 C 0.35426 0.92859 0.59513 0.0
C747 C 0.34835 0.90873 0.5592 0.0
C748 C 0.36378 0.89051 0.55661 0.0
C749 C 0.38601 0.89376 0.57951 0.0
C750 C 0.33832 0.94839 0.60007 0.0
C751 C 0.35781 0.8687 0.52137 0.0
H752 H 0.27258 0.90306 0.49011 0.0
H753 H 0.32121 0.92751 0.34337 0.0
H754 H 0.30902 0.87767 0.60202 0.0
H755 H 0.30849 0.90547 0.6369 0.0
H756 H 0.28282 0.89315 0.60377 0.0
H757 H 0.35937 0.93107 0.3666 0.0
H758 H 0.36476 0.93839 0.45467 0.0
H759 H 0.37008 0.91024 0.42576 0.0
H760 H 0.38158 0.94747 0.63903 0.0
H761 H 0.39847 0.88061 0.57169 0.0
H762 H 0.32067 0.9427 0.60858 0.0
H763 H 0.33882 0.95806 0.55103 0.0
H764 H 0.3432 0.95996 0.64226 0.0
H765 H 0.33994 0.86399 0.53127 0.0
H766 H 0.36893 0.85466 0.53858 0.0
H767 H 0.35997 0.87085 0.46505 0.0
C768 C 0.60735 0.3423 0.25851 0.0
C769 C 0.61415 0.32103 0.28314 0.0
C770 C 0.60854 0.36146 0.29998 0.0
C771 C 0.61661 0.35936 0.36807 0.0
C772 C 0.62531 0.33843 0.39145 0.0
C773 C 0.62397 0.31946 0.34863 0.0
C774 C 0.59918 0.38351 0.27281 0.0
C775 C 0.6344 0.33564 0.46337 0.0
C776 C 0.62218 0.41562 0.45848 0.0
C777 C 0.60074 0.41756 0.48888 0.0
C778 C 0.62833 0.39605 0.4226 0.0
C779 C 0.6126 0.37815 0.41676 0.0
C780 C 0.59146 0.37952 0.45071 0.0
C781 C 0.58579 0.3992 0.48621 0.0
C782 C 0.65113 0.39508 0.38787 0.0
C783 C 0.57416 0.36079 0.4458 0.0
H784 H 0.59944 0.34379 0.20853 0.0
H785 H 0.62963 0.30318 0.36769 0.0
H786 H 0.58295 0.38726 0.29903 0.0
H787 H 0.61095 0.39762 0.28369 0.0
H788 H 0.59606 0.383 0.21656 0.0
H789 H 0.64443 0.3199 0.46908 0.0
H790 H 0.64513 0.35025 0.47764 0.0
H791 H 0.62009 0.3349 0.50023 0.0
H792 H 0.63396 0.42961 0.46138 0.0
H793 H 0.56911 0.40062 0.50888 0.0
H794 H 0.64897 0.39744 0.33167 0.0
H795 H 0.65911 0.37834 0.39613 0.0
H796 H 0.66274 0.40841 0.40683 0.0
H797 H 0.5679 0.35968 0.39221 0.0
H798 H 0.55946 0.36356 0.48031 0.0
H799 H 0.58194 0.3443 0.45904 0.0
C800 C 0.19556 0.61425 0.32501 0.0
C801 C 0.21767 0.61996 0.34411 0.0
C802 C 0.17761 0.61601 0.37128 0.0
C803 C 0.18173 0.62388 0.43866 0.0
C804 C 0.2037 0.63115 0.45713 0.0
C805 C 0.22153 0.62886 0.40974 0.0
C806 C 0.15449 0.6079 0.34918 0.0
C807 C 0.20872 0.6402 0.52773 0.0
C808 C 0.12456 0.63207 0.5176 0.0
C809 C 0.12056 0.61021 0.54307 0.0
C810 C 0.1459 0.63814 0.49179 0.0
C811 C 0.16329 0.62178 0.49019 0.0
C812 C 0.16013 0.60078 0.52408 0.0
C813 C 0.13877 0.59526 0.55031 0.0
C814 C 0.14905 0.66113 0.45939 0.0
C815 C 0.17833 0.58293 0.52464 0.0
H816 H 0.19243 0.60693 0.27503 0.0
H817 H 0.23857 0.63341 0.42472 0.0
H818 H 0.1494 0.59304 0.38068 0.0
H819 H 0.14172 0.6213 0.35738 0.0
H820 H 0.15404 0.60299 0.2942 0.0
H821 H 0.22361 0.65167 0.52667 0.0
H822 H 0.19405 0.64942 0.54931 0.0
H823 H 0.2127 0.62592 0.56282 0.0
H824 H 0.11064 0.64389 0.51361 0.0
H825 H 0.13586 0.57836 0.57024 0.0
H826 H 0.14679 0.65984 0.40297 0.0
H827 H 0.16634 0.66767 0.46901 0.0
H828 H 0.13651 0.67344 0.47922 0.0
H829 H 0.17979 0.57549 0.47262 0.0
H830 H 0.17453 0.56912 0.56186 0.0
H831 H 0.19494 0.59042 0.53776 0.0
C832 C 0.10892 0.82266 0.06481 0.0
C833 C 0.11479 0.80074 0.04478 0.0
C834 C 0.11017 0.84079 0.01869 0.0
C835 C 0.11768 0.83701 0.95062 0.0
C836 C 0.12546 0.81534 0.93153 0.0
C837 C 0.12371 0.79734 0.97876 0.0
C838 C 0.10163 0.86362 0.04146 0.0
C839 C 0.13426 0.81077 0.86021 0.0
C840 C 0.08622 0.8776 0.8375 0.0
C841 C 0.10058 0.89643 0.83977 0.0
C842 C 0.09271 0.85697 0.86684 0.0
C843 C 0.11414 0.85515 0.8987 0.0
C844 C 0.12977 0.87318 0.89312 0.0
C845 C 0.12271 0.89378 0.86426 0.0
C846 C 0.07555 0.8381 0.87104 0.0
C847 C 0.15311 0.8715 0.92369 0.0
H848 H 0.10167 0.82546 0.11522 0.0
H849 H 0.12851 0.78047 0.96317 0.0
H850 H 0.11438 0.87689 0.03039 0.0
H851 H 0.08608 0.86801 0.0125 0.0
H852 H 0.09762 0.864 0.09723 0.0
H853 H 0.14556 0.7958 0.85973 0.0
H854 H 0.11983 0.80729 0.82553 0.0
H855 H 0.14361 0.82554 0.83917 0.0
H856 H 0.06909 0.87951 0.81862 0.0
H857 H 0.13404 0.90818 0.86463 0.0
H858 H 0.06897 0.83682 0.92438 0.0
H859 H 0.08344 0.8217 0.85824 0.0
H860 H 0.06104 0.84099 0.83589 0.0
H861 H 0.15214 0.87455 0.9798 0.0
H862 H 0.16477 0.88423 0.9008 0.0
H863 H 0.1603 0.8544 0.91608 0.0
C864 C 0.67703 0.11746 0.14862 0.0
C865 C 0.69748 0.12522 0.12044 0.0
C866 C 0.65719 0.11721 0.10973 0.0
C867 C 0.65772 0.12515 0.04105 0.0
C868 C 0.67773 0.13505 0.0144 0.0
C869 C 0.69752 0.13475 0.05426 0.0
C870 C 0.63628 0.10635 0.14015 0.0
C871 C 0.67869 0.14442 0.9422 0.0
C872 C 0.61858 0.0912 0.92884 0.0
C873 C 0.59878 0.10417 0.93069 0.0
C874 C 0.63834 0.09853 0.96126 0.0
C875 C 0.6385 0.11962 0.99515 0.0
C876 C 0.61917 0.13362 0.99258 0.0
C877 C 0.59942 0.12563 0.96098 0.0
C878 C 0.65858 0.083 0.96294 0.0
C879 C 0.61889 0.15647 0.0265 0.0
H880 H 0.67685 0.10976 0.19929 0.0
H881 H 0.71323 0.14098 0.03249 0.0
H882 H 0.62129 0.11723 0.1319 0.0
H883 H 0.633 0.09004 0.11411 0.0
H884 H 0.63803 0.10302 0.19614 0.0
H885 H 0.69346 0.1558 0.93473 0.0
H886 H 0.68017 0.13031 0.90528 0.0
H887 H 0.66302 0.15384 0.92966 0.0
H888 H 0.61846 0.07494 0.90361 0.0
H889 H 0.58423 0.13581 0.96267 0.0
H890 H 0.66173 0.07735 0.01657 0.0
H891 H 0.67392 0.09207 0.94497 0.0
H892 H 0.65616 0.06782 0.93053 0.0
H893 H 0.61692 0.15425 0.08283 0.0
H894 H 0.6047 0.16708 0.0076 0.0
H895 H 0.63503 0.16558 0.0173 0.0
C896 C 0.41832 0.71575 0.98834 0.0
C897 C 0.40176 0.72235 0.03568 0.0
C898 C 0.41619 0.69554 0.95196 0.0
C899 C 0.39686 0.68183 0.96255 0.0
C900 C 0.37886 0.6898 0.00376 0.0
C901 C 0.38164 0.70989 0.04072 0.0
C902 C 0.43586 0.68767 0.90873 0.0
C903 C 0.3576 0.67609 0.01398 0.0
C904 C 0.39678 0.62829 0.85601 0.0
C905 C 0.40694 0.61304 0.90188 0.0
C906 C 0.39184 0.6505 0.87623 0.0
C907 C 0.39787 0.65764 0.94304 0.0
C908 C 0.40731 0.64198 0.99021 0.0
C909 C 0.41155 0.61987 0.96916 0.0
C910 C 0.38117 0.6665 0.82516 0.0
C911 C 0.41427 0.6489 0.06177 0.0
H912 H 0.43397 0.72524 0.98454 0.0
H913 H 0.36868 0.71514 0.07665 0.0
H914 H 0.44474 0.67376 0.93598 0.0
H915 H 0.42989 0.68098 0.85891 0.0
H916 H 0.44821 0.70145 0.89852 0.0
H917 H 0.34352 0.68662 0.03374 0.0
H918 H 0.35227 0.66812 0.96515 0.0
H919 H 0.36085 0.66237 0.05177 0.0
H920 H 0.39309 0.62298 0.80402 0.0
H921 H 0.41972 0.60822 0.00443 0.0
H922 H 0.39444 0.67741 0.802 0.0
H923 H 0.3687 0.67766 0.85062 0.0
H924 H 0.37262 0.65726 0.78304 0.0
H925 H 0.42777 0.66191 0.05857 0.0
H926 H 0.42067 0.63445 0.09274 0.0
H927 H 0.39976 0.65648 0.08934 0.0
C928 C 0.80612 0.44643 0.94556 0.0
C929 C 0.80774 0.46946 0.96095 0.0
C930 C 0.82332 0.43568 0.90832 0.0
C931 C 0.84249 0.44832 0.88745 0.0
C932 C 0.84259 0.4721 0.89505 0.0
C933 C 0.82509 0.4824 0.93155 0.0
C934 C 0.82203 0.41048 0.89828 0.0
C935 C 0.86253 0.48637 0.87269 0.0
C936 C 0.90173 0.4281 0.91709 0.0
C937 C 0.9104 0.42872 0.85018 0.0
C938 C 0.87886 0.43234 0.9296 0.0
C939 C 0.86428 0.43689 0.87351 0.0
C940 C 0.87233 0.43459 0.80549 0.0
C941 C 0.89545 0.43069 0.79449 0.0
C942 C 0.87092 0.43429 0.00317 0.0
C943 C 0.85695 0.43809 0.74461 0.0
H944 H 0.79254 0.43643 0.9677 0.0
H945 H 0.826 0.50033 0.94233 0.0
H946 H 0.83134 0.40516 0.85159 0.0
H947 H 0.82967 0.40181 0.94327 0.0
H948 H 0.80418 0.40478 0.89431 0.0
H949 H 0.85878 0.50473 0.87512 0.0
H950 H 0.87715 0.48279 0.90672 0.0
H951 H 0.86766 0.48224 0.81947 0.0
H952 H 0.91316 0.42584 0.96008 0.0
H953 H 0.90202 0.43091 0.74246 0.0
H954 H 0.85541 0.42412 0.01148 0.0
H955 H 0.86671 0.45216 0.0144 0.0
H956 H 0.88395 0.42858 0.04046 0.0
H957 H 0.84058 0.42933 0.75299 0.0
H958 H 0.8647 0.43186 0.69629 0.0
H959 H 0.85327 0.45633 0.73814 0.0
C960 C 0.03515 0.17281 0.82474 0.0
C961 C 0.02281 0.18063 0.88156 0.0
C962 C 0.03199 0.15092 0.79855 0.0
C963 C 0.01558 0.13636 0.82858 0.0
C964 C 1.00258 0.14435 0.88468 0.0
C965 C 1.00635 0.16625 0.91043 0.0
C966 C 0.04718 0.14363 0.74045 0.0
C967 C 0.98537 0.12935 0.91976 0.0
C968 C 0.99351 0.08462 0.73198 0.0
C969 C 1.00697 0.06714 0.75898 0.0
C970 C 0.99631 0.10719 0.75333 0.0
C971 C 0.01266 0.11251 0.80395 0.0
C972 C 0.02635 0.09497 0.83102 0.0
C973 C 0.02344 0.07263 0.80808 0.0
C974 C 0.98191 0.12543 0.72133 0.0
C975 C 0.04423 0.09986 0.88411 0.0
H976 H 0.04776 0.18367 0.80107 0.0
H977 H 0.99698 0.17172 0.95519 0.0
H978 H 0.06504 0.14437 0.75771 0.0
H979 H 0.04371 0.12635 0.72181 0.0
H980 H 0.04556 0.15574 0.69695 0.0
H981 H 0.97297 0.12298 0.88182 0.0
H982 H 0.99397 0.11443 0.94251 0.0
H983 H 0.97606 0.13825 0.96112 0.0
H984 H 0.98088 0.08071 0.69355 0.0
H985 H 0.03399 0.05939 0.82939 0.0
H986 H 0.9929 0.13871 0.69842 0.0
H987 H 0.97146 0.13361 0.76141 0.0
H988 H 0.97053 0.11879 0.68089 0.0
H989 H 0.05705 0.11153 0.86198 0.0
H990 H 0.05292 0.0843 0.9022 0.0
H991 H 0.03654 0.10838 0.92904 0.0
C992 C 0.33243 0.98219 0.87042 0.0
C993 C 0.32088 0.99949 0.9051 0.0
C994 C 0.35342 0.98605 0.83847 0.0
C995 C 0.36291 1.00801 0.83864 0.0
C996 C 0.3505 0.02598 0.86819 0.0
C997 C 0.32982 0.02148 0.90179 0.0
C998 C 0.36604 0.96628 0.80828 0.0
C999 C 0.35952 0.04983 0.86686 0.0
C1000 C 0.42721 0.01247 0.83574 0.0
C1001 C 0.43178 0.01548 0.76558 0.0
C1002 C 0.40491 1.01016 0.85999 0.0
C1003 C 0.38658 0.01166 0.81333 0.0
C1004 C 0.39108 0.01552 0.74263 0.0
C1005 C 0.41363 0.01693 0.71943 0.0
C1006 C 0.40104 1.0053 0.93538 0.0
C1007 C 0.37213 0.01787 0.69128 0.0
H1008 H 0.32544 0.96527 0.87022 0.0
H1009 H 0.32122 0.03507 0.92806 0.0
H1010 H 0.37132 0.97005 0.75476 0.0
H1011 H 0.38165 0.96317 0.83846 0.0
H1012 H 0.35577 0.95057 0.80835 0.0
H1013 H 0.34654 0.06229 0.88277 0.0
H1014 H 0.37413 0.05118 0.90221 0.0
H1015 H 0.3656 0.05433 0.81454 0.0
H1016 H 0.44116 1.01104 0.87154 0.0
H1017 H 0.41706 0.01931 0.66513 0.0
H1018 H 0.39196 0.98899 0.94157 0.0
H1019 H 0.39024 0.01859 0.95815 0.0
H1020 H 0.41709 1.00442 0.96481 0.0
H1021 H 0.36408 1.00119 0.68296 0.0
H1022 H 0.37823 0.02438 0.64087 0.0
H1023 H 0.35891 0.02943 0.71101 0.0
C1024 C 0.49924 0.33844 0.84357 0.0
C1025 C 0.50055 0.33535 0.91502 0.0
C1026 C 0.49821 0.36022 0.81421 0.0
C1027 C 0.4989 0.37944 0.85721 0.0
C1028 C 0.49966 0.3764 0.92944 0.0
C1029 C 0.50033 0.35444 0.95739 0.0
C1030 C 0.49699 0.36268 0.73708 0.0
C1031 C 0.50074 0.39635 0.97724 0.0
C1032 C 0.52237 0.4348 0.78541 0.0
C1033 C 0.50273 0.44778 0.77659 0.0
C1034 C 0.52131 0.41252 0.81075 0.0
C1035 C 0.50007 0.40273 0.82688 0.0
C1036 C 0.48013 0.41551 0.81636 0.0
C1037 C 0.4817 0.4379 0.79189 0.0
C1038 C 0.54303 0.39964 0.82183 0.0
C1039 C 0.45713 0.40562 0.83178 0.0
H1040 H 0.49931 0.32377 0.81052 0.0
H1041 H 0.50173 0.35225 0.01256 0.0
H1042 H 0.4828 0.37395 0.72252 0.0
H1043 H 0.51277 0.37059 0.71754 0.0
H1044 H 0.4947 0.34617 0.71119 0.0
H1045 H 0.5003 0.39117 0.03218 0.0
H1046 H 0.51654 0.406 0.96765 0.0
H1047 H 0.48641 0.40796 0.96722 0.0
H1048 H 0.53872 0.44222 0.77399 0.0
H1049 H 0.4664 0.44769 0.78489 0.0
H1050 H 0.54265 0.38359 0.7928 0.0
H1051 H 0.54482 0.39521 0.87703 0.0
H1052 H 0.55814 0.40947 0.80548 0.0
H1053 H 0.45491 0.38948 0.80394 0.0
H1054 H 0.4432 0.41724 0.81711 0.0
H1055 H 0.45569 0.40177 0.88747 0.0
C1056 C 0.1743 0.53148 0.91468 0.0
C1057 C 0.19284 0.51691 0.90714 0.0
C1058 C 0.15462 0.5289 0.87528 0.0
C1059 C 0.15328 0.51129 0.82661 0.0
C1060 C 0.17227 0.49706 0.81656 0.0
C1061 C 0.19186 0.50007 0.85682 0.0
C1062 C 0.13495 0.54462 0.88752 0.0
C1063 C 0.17159 0.47819 0.76493 0.0
C1064 C 0.09325 0.49108 0.79234 0.0
C1065 C 0.0876 0.50288 0.73196 0.0
C1066 C 0.11484 0.49294 0.82184 0.0
C1067 C 0.13137 0.50696 0.79043 0.0
C1068 C 0.1261 0.51827 0.72805 0.0
C1069 C 0.1043 0.51612 0.69963 0.0
C1070 C 0.11963 0.48061 0.8884 0.0
C1071 C 0.14313 0.53342 0.69274 0.0
H1072 H 0.17509 0.54488 0.95229 0.0
H1073 H 0.20609 0.48877 0.85056 0.0
H1074 H 0.1295 0.55249 0.83843 0.0
H1075 H 0.12036 0.53489 0.90811 0.0
H1076 H 0.13914 0.55823 0.9244 0.0
H1077 H 0.18828 0.46985 0.759 0.0
H1078 H 0.15904 0.46531 0.78149 0.0
H1079 H 0.16609 0.48474 0.71411 0.0
H1080 H 0.0806 0.48072 0.81777 0.0
H1081 H 0.1002 0.52538 0.65309 0.0
H1082 H 0.12227 0.49303 0.9301 0.0
H1083 H 0.13537 0.47058 0.88381 0.0
H1084 H 0.10561 0.46912 0.90368 0.0
H1085 H 0.15976 0.52489 0.689 0.0
H1086 H 0.14558 0.54894 0.72347 0.0
H1087 H 0.1376 0.53847 0.64033 0.0
C1088 C 0.02886 0.83848 0.47266 0.0
C1089 C 0.01292 0.82093 0.47809 0.0
C1090 C 0.02525 0.85957 0.50361 0.0
C1091 C 1.00521 0.8634 0.54167 0.0
C1092 C 0.98902 0.84576 0.54761 0.0
C1093 C 0.99298 0.82482 0.51534 0.0
C1094 C 0.04285 0.87788 0.49478 0.0
C1095 C 0.96754 0.84902 0.58817 0.0
C1096 C 1.0072 0.91318 0.66606 0.0
C1097 C 0.99676 0.93044 0.62772 0.0
C1098 C 1.00943 0.89115 0.63977 0.0
C1099 C 1.0011 0.88611 0.57329 0.0
C1100 C 0.99011 0.90332 0.53503 0.0
C1101 C 0.98804 0.92515 0.56263 0.0
C1102 C 0.02127 0.8734 0.68249 0.0
C1103 C 0.98116 0.89888 0.46376 0.0
H1104 H 0.04414 0.83585 0.44296 0.0
H1105 H 0.98061 0.81138 0.52012 0.0
H1106 H 0.03526 0.89276 0.46871 0.0
H1107 H 0.04892 0.88355 0.54572 0.0
H1108 H 0.05762 0.87217 0.46419 0.0
H1109 H 0.95689 0.83356 0.5894 0.0
H1110 H 0.97166 0.85384 0.64171 0.0
H1111 H 0.95754 0.86304 0.56549 0.0
H1112 H 0.01406 0.91696 0.7163 0.0
H1113 H 0.97996 0.93824 0.53226 0.0
H1114 H 0.03713 0.86822 0.65661 0.0
H1115 H 1.01047 0.85813 0.68741 0.0
H1116 H 0.02551 0.87953 0.73475 0.0
H1117 H 0.99538 0.89465 0.42892 0.0
H1118 H 0.97203 0.91366 0.44203 0.0
H1119 H 0.96953 0.88417 0.46459 0.0
C1120 C 0.67635 0.99818 0.54656 0.0
C1121 C 0.68027 0.01574 0.49941 0.0
C1122 C 0.65488 0.99524 0.57719 0.0
C1123 C 0.63686 1.00992 0.559 0.0
C1124 C 0.64072 0.02726 0.50985 0.0
C1125 C 0.66236 0.03007 0.48131 0.0
C1126 C 0.65159 0.97679 0.63008 0.0
C1127 C 0.622 0.04301 0.48766 0.0
C1128 C 0.57523 0.99319 0.58744 0.0
C1129 C 0.56907 1.0068 0.64325 0.0
C1130 C 0.59736 0.99352 0.56078 0.0
C1131 C 0.61397 1.00749 0.59131 0.0
C1132 C 0.60808 0.02055 0.64946 0.0
C1133 C 0.5857 0.02023 0.67424 0.0
C1134 C 0.6027 0.97967 0.49799 0.0
C1135 C 0.6253 0.03539 0.68441 0.0
H1136 H 0.69022 0.98718 0.56086 0.0
H1137 H 0.66536 0.04358 0.44448 0.0
H1138 H 0.64655 0.98431 0.67987 0.0
H1139 H 0.63773 0.96535 0.61417 0.0
H1140 H 0.66715 0.96663 0.63802 0.0
H1141 H 0.62753 0.05499 0.44678 0.0
H1142 H 0.60742 0.03313 0.46828 0.0
H1143 H 0.61596 0.05288 0.53229 0.0
H1144 H 0.56252 0.98285 0.56278 0.0
H1145 H 0.5812 0.03068 0.71769 0.0
H1146 H 0.61779 0.96899 0.5073 0.0
H1147 H 0.60676 0.99109 0.45422 0.0
H1148 H 0.58839 0.9686 0.48293 0.0
H1149 H 0.64077 0.02557 0.69632 0.0
H1150 H 0.61869 0.04277 0.73276 0.0
H1151 H 0.63031 0.04939 0.64938 0.0
C1152 C 0.51041 0.69272 0.5548 0.0
C1153 C 0.49162 0.69598 0.51191 0.0
C1154 C 0.51436 0.6717 0.5872 0.0
C1155 C 0.49933 0.65341 0.57584 0.0
C1156 C 0.48039 0.65664 0.53255 0.0
C1157 C 0.47679 0.67777 0.50132 0.0
C1158 C 0.53466 0.66901 0.63329 0.0
C1159 C 0.46407 0.63761 0.51811 0.0
C1160 C 0.51865 0.59234 0.59519 0.0
C1161 C 0.5082 0.58563 0.65695 0.0
C1162 C 0.51654 0.6145 0.56959 0.0
C1163 C 0.50372 0.63056 0.60655 0.0
C1164 C 0.49371 0.62414 0.67002 0.0
C1165 C 0.49604 0.6018 0.69438 0.0
C1166 C 0.52737 0.62048 0.50153 0.0
C1167 C 0.47992 0.6407 0.71119 0.0
H1168 H 0.5219 0.70668 0.56357 0.0
H1169 H 0.46249 0.67991 0.4672 0.0
H1170 H 0.52923 0.66313 0.685 0.0
H1171 H 0.54613 0.65596 0.61222 0.0
H1172 H 0.54429 0.68502 0.63885 0.0
H1173 H 0.44986 0.64301 0.48461 0.0
H1174 H 0.4731 0.62353 0.4927 0.0
H1175 H 0.45699 0.6309 0.56697 0.0
H1176 H 0.52813 0.58011 0.56569 0.0
H1177 H 0.48789 0.59691 0.74214 0.0
H1178 H 0.53808 0.63576 0.50678 0.0
H1179 H 0.51406 0.62446 0.46326 0.0
H1180 H 0.53795 0.60654 0.48121 0.0
H1181 H 0.48976 0.65638 0.71985 0.0
H1182 H 0.47464 0.63363 0.76176 0.0
H1183 H 0.46454 0.64547 0.68203 0.0
C1184 C 0.8403 0.52432 0.55023 0.0
C1185 C 0.83486 0.50955 0.49656 0.0
C1186 C 0.86223 0.52482 0.57858 0.0
C1187 C 0.87927 0.51046 0.55203 0.0
C1188 C 0.87378 0.49538 0.4984 0.0
C1189 C 0.85175 0.49509 0.47155 0.0
C1190 C 0.86723 0.54078 0.63675 0.0
C1191 C 0.89136 0.47984 0.46821 0.0
C1192 C 0.94167 0.52605 0.56701 0.0
C1193 C 0.94931 0.51078 0.61729 0.0
C1194 C 0.91885 0.52651 0.54666 0.0
C1195 C 0.90307 0.51163 0.57812 0.0
C1196 C 0.9105 0.49684 0.631 0.0
C1197 C 0.93353 0.49638 0.64925 0.0
C1198 C 0.91178 0.54241 0.4897 0.0
C1199 C 0.89434 0.48096 0.66709 0.0
H1200 H 0.82737 0.53544 0.57025 0.0
H1201 H 0.84792 0.48389 0.4293 0.0
H1202 H 0.87392 0.53121 0.68149 0.0
H1203 H 0.88047 0.55303 0.62079 0.0
H1204 H 0.85201 0.55029 0.65325 0.0
H1205 H 0.88434 0.46893 0.4272 0.0
H1206 H 0.90548 0.48994 0.44627 0.0
H1207 H 0.89853 0.46887 0.50909 0.0
H1208 H 0.95368 0.53721 0.54185 0.0
H1209 H 0.93917 0.48464 0.6886 0.0
H1210 H 0.89744 0.55303 0.50681 0.0
H1211 H 0.90588 0.53254 0.44489 0.0
H1212 H 0.9258 0.55365 0.4727 0.0
H1213 H 0.878 0.48939 0.678 0.0
H1214 H 0.90144 0.47452 0.71622 0.0
H1215 H 0.89082 0.46632 0.63347 0.0
loop_
_geom_bond_atom_site_label_1
_geom_bond_atom_site_label_2
_geom_bond_distance
_geom_bond_site_symmetry_2
_ccdc_geom_bond_type
C0 C1 1.384 . S
C0 H13 0.947 . S
C0 C35 1.382 . S
C1 C0 1.384 . S
C1 C2 1.378 . S
C2 C1 1.378 . S
C2 C3 1.378 . S
C2 H14 0.952 . S
C3 C2 1.378 . S
C3 H15 0.950 . S
C3 C34 1.383 . S
H4 C23 0.947 . S
H5 C24 0.946 . S
H6 C26 0.953 . S
H7 C27 0.945 . S
H8 C29 0.952 . S
H9 C30 0.949 . S
H10 C32 0.950 . S
H11 C33 0.948 . S
H12 C35 0.951 . S
H13 C0 0.947 . S
H14 C2 0.952 . S
H15 C3 0.950 . S
N16 C19 1.382 . S
N16 C21 1.363 . S
N17 C19 1.371 . S
N17 C20 1.372 . S
N18 C20 1.361 . S
N18 C21 1.377 . S
C19 N16 1.382 . S
C19 N17 1.371 . S
C19 C22 1.480 . S
C20 N17 1.372 . S
C20 N18 1.361 . S
C20 C28 1.457 . S
C21 N16 1.363 . S
C21 N18 1.377 . S
C21 C34 1.479 . S
C22 C19 1.480 . S
C22 C23 1.383 . S
C22 C27 1.385 . S
C23 H4 0.947 . S
C23 C22 1.383 . S
C23 C24 1.388 . S
C24 H5 0.946 . S
C24 C23 1.388 . S
C24 C25 1.384 . S
C25 C24 1.384 . S
C25 C26 1.377 . S
C26 H6 0.953 . S
C26 C25 1.377 . S
C26 C27 1.369 . S
C27 H7 0.945 . S
C27 C22 1.385 . S
C27 C26 1.369 . S
C28 C20 1.457 . S
C28 C29 1.372 . S
C28 C33 1.364 . S
C29 H8 0.952 . S
C29 C28 1.372 . S
C29 C30 1.389 . S
C30 H9 0.949 . S
C30 C29 1.389 . S
C30 C31 1.387 . S
C31 C30 1.387 . S
C31 C32 1.372 . S
C32 H10 0.950 . S
C32 C31 1.372 . S
C32 C33 1.379 . S
C33 H11 0.948 . S
C33 C28 1.364 . S
C33 C32 1.379 . S
C34 C3 1.383 . S
C34 C21 1.479 . S
C34 C35 1.398 . S
C35 C0 1.382 . S
C35 H12 0.951 . S
C35 C34 1.398 . S
C36 C37 1.384 1_655 S
C36 H49 0.948 . S
C36 C71 1.382 1_655 S
C37 C36 1.384 1_455 S
C37 C38 1.378 . S
C38 C37 1.378 . S
C38 C39 1.378 . S
C38 H50 0.952 . S
C39 C38 1.378 . S
C39 H51 0.950 . S
C39 C70 1.383 . S
H40 C59 0.947 . S
H41 C60 0.952 . S
H42 C62 0.953 . S
H43 C63 0.945 . S
H44 C65 0.949 1_655 S
H45 C66 0.956 . S
H46 C68 0.950 . S
H47 C69 0.948 . S
H48 C71 0.951 1_655 S
H49 C36 0.948 . S
H50 C38 0.952 . S
H51 C39 0.950 . S
N52 C55 1.382 . S
N52 C57 1.363 . S
N53 C55 1.371 . S
N53 C56 1.372 . S
N54 C56 1.361 . S
N54 C57 1.377 . S
C55 N52 1.382 . S
C55 N53 1.371 . S
C55 C58 1.480 . S
C56 N53 1.372 . S
C56 N54 1.361 . S
C56 C64 1.457 . S
C57 N52 1.363 . S
C57 N54 1.377 . S
C57 C70 1.479 . S
C58 C55 1.480 . S
C58 C59 1.383 . S
C58 C63 1.385 . S
C59 H40 0.947 . S
C59 C58 1.383 . S
C59 C60 1.386 1_455 S
C60 H41 0.952 . S
C60 C59 1.386 1_655 S
C60 C61 1.381 1_655 S
C61 C60 1.381 1_455 S
C61 C62 1.377 . S
C62 H42 0.953 . S
C62 C61 1.377 . S
C62 C63 1.369 . S
C63 H43 0.945 . S
C63 C58 1.385 . S
C63 C62 1.369 . S
C64 C56 1.457 . S
C64 C65 1.376 . S
C64 C69 1.364 . S
C65 H44 0.949 1_455 S
C65 C64 1.376 . S
C65 C66 1.386 1_455 S
C66 H45 0.956 . S
C66 C65 1.386 1_655 S
C66 C67 1.383 1_655 S
C67 C66 1.383 1_455 S
C67 C68 1.372 . S
C68 H46 0.950 . S
C68 C67 1.372 . S
C68 C69 1.379 . S
C69 H47 0.948 . S
C69 C64 1.364 . S
C69 C68 1.379 . S
C70 C39 1.383 . S
C70 C57 1.479 . S
C70 C71 1.398 . S
C71 C36 1.382 1_455 S
C71 H48 0.951 1_455 S
C71 C70 1.398 . S
C72 C73 1.384 1_565 S
C72 H85 0.948 . S
C72 C107 1.382 1_565 S
C73 C72 1.384 1_545 S
C73 C74 1.378 . S
C74 C73 1.378 . S
C74 C75 1.378 . S
C74 H86 0.952 . S
C75 C74 1.378 . S
C75 H87 0.950 . S
C75 C106 1.383 . S
H76 C95 0.947 . S
H77 C96 0.952 . S
H78 C98 0.953 . S
H79 C99 0.945 . S
H80 C101 0.949 1_565 S
H81 C102 0.957 . S
H82 C104 0.950 . S
H83 C105 0.948 . S
H84 C107 0.951 1_565 S
H85 C72 0.948 . S
H86 C74 0.952 . S
H87 C75 0.950 . S
N88 C91 1.382 . S
N88 C93 1.363 . S
N89 C91 1.371 . S
N89 C92 1.372 . S
N90 C92 1.361 . S
N90 C93 1.377 . S
C91 N88 1.382 . S
C91 N89 1.371 . S
C91 C94 1.480 . S
C92 N89 1.372 . S
C92 N90 1.361 . S
C92 C100 1.457 . S
C93 N88 1.363 . S
C93 N90 1.377 . S
C93 C106 1.479 . S
C94 C91 1.480 . S
C94 C95 1.383 . S
C94 C99 1.385 . S
C95 H76 0.947 . S
C95 C94 1.383 . S
C95 C96 1.386 1_545 S
C96 H77 0.952 . S
C96 C95 1.386 1_565 S
C96 C97 1.382 1_565 S
C97 C96 1.382 1_545 S
C97 C98 1.377 . S
C98 H78 0.953 . S
C98 C97 1.377 . S
C98 C99 1.369 . S
C99 H79 0.945 . S
C99 C94 1.385 . S
C99 C98 1.369 . S
C100 C92 1.457 . S
C100 C101 1.376 . S
C100 C105 1.364 . S
C101 H80 0.949 1_545 S
C101 C100 1.376 . S
C101 C102 1.386 1_545 S
C102 H81 0.957 . S
C102 C101 1.386 1_565 S
C102 C103 1.383 1_565 S
C103 C102 1.383 1_545 S
C103 C104 1.372 . S
C104 H82 0.950 . S
C104 C103 1.372 . S
C104 C105 1.379 . S
C105 H83 0.948 . S
C105 C100 1.364 . S
C105 C104 1.379 . S
C106 C75 1.383 . S
C106 C93 1.479 . S
C106 C107 1.398 . S
C107 C72 1.382 1_545 S
C107 H84 0.951 1_545 S
C107 C106 1.398 . S
C108 C109 1.384 . S
C108 H121 0.947 . S
C108 C143 1.382 . S
C109 C108 1.384 . S
C109 C110 1.378 . S
C110 C109 1.378 . S
C110 C111 1.378 . S
C110 H122 0.952 . S
C111 C110 1.378 . S
C111 H123 0.950 . S
C111 C142 1.383 . S
H112 C131 0.947 . S
H113 C132 0.946 . S
H114 C134 0.953 . S
H115 C135 0.945 . S
H116 C137 0.952 . S
H117 C138 0.949 . S
H118 C140 0.950 . S
H119 C141 0.948 . S
H120 C143 0.951 . S
H121 C108 0.947 . S
H122 C110 0.952 . S
H123 C111 0.950 . S
N124 C127 1.382 . S
N124 C129 1.363 . S
N125 C127 1.371 . S
N125 C128 1.372 . S
N126 C128 1.361 . S
N126 C129 1.377 . S
C127 N124 1.382 . S
C127 N125 1.371 . S
C127 C130 1.480 . S
C128 N125 1.372 . S
C128 N126 1.361 . S
C128 C136 1.457 . S
C129 N124 1.363 . S
C129 N126 1.377 . S
C129 C142 1.479 . S
C130 C127 1.480 . S
C130 C131 1.383 . S
C130 C135 1.385 . S
C131 H112 0.947 . S
C131 C130 1.383 . S
C131 C132 1.388 . S
C132 H113 0.946 . S
C132 C131 1.388 . S
C132 C133 1.384 . S
C133 C132 1.384 . S
C133 C134 1.377 . S
C134 H114 0.953 . S
C134 C133 1.377 . S
C134 C135 1.369 . S
C135 H115 0.945 . S
C135 C130 1.385 . S
C135 C134 1.369 . S
C136 C128 1.457 . S
C136 C137 1.372 . S
C136 C141 1.364 . S
C137 H116 0.952 . S
C137 C136 1.372 . S
C137 C138 1.389 . S
C138 H117 0.949 . S
C138 C137 1.389 . S
C138 C139 1.387 . S
C139 C138 1.387 . S
C139 C140 1.372 . S
C140 H118 0.950 . S
C140 C139 1.372 . S
C140 C141 1.379 . S
C141 H119 0.948 . S
C141 C136 1.364 . S
C141 C140 1.379 . S
C142 C111 1.383 . S
C142 C129 1.479 . S
C142 C143 1.398 . S
C143 C108 1.382 . S
C143 H120 0.951 . S
C143 C142 1.398 . S
C144 C145 1.384 . S
C144 H157 0.947 . S
C144 C179 1.382 . S
C145 C144 1.384 . S
C145 C146 1.378 . S
C146 C145 1.378 . S
C146 C147 1.378 . S
C146 H158 0.952 . S
C147 C146 1.378 . S
C147 H159 0.950 . S
C147 C178 1.383 . S
H148 C167 0.947 1_556 S
H149 C168 0.946 . S
H150 C170 0.953 . S
H151 C171 0.945 . S
H152 C173 0.952 . S
H153 C174 0.949 . S
H154 C176 0.950 . S
H155 C177 0.948 . S
H156 C179 0.951 . S
H157 C144 0.947 . S
H158 C146 0.952 . S
H159 C147 0.950 . S
N160 C163 1.382 . S
N160 C165 1.363 1_554 S
N161 C163 1.371 . S
N161 C164 1.372 . S
N162 C164 1.361 . S
N162 C165 1.377 1_554 S
C163 N160 1.382 . S
C163 N161 1.371 . S
C163 C166 1.480 . S
C164 N161 1.372 . S
C164 N162 1.361 . S
C164 C172 1.457 . S
C165 N160 1.363 1_556 S
C165 N162 1.377 1_556 S
C165 C178 1.479 . S
C166 C163 1.480 . S
C166 C167 1.383 . S
C166 C171 1.385 . S
C167 H148 0.947 1_554 S
C167 C166 1.383 . S
C167 C168 1.388 . S
C168 H149 0.946 . S
C168 C167 1.388 . S
C168 C169 1.384 . S
C169 C168 1.384 . S
C169 C170 1.377 . S
C170 H150 0.953 . S
C170 C169 1.377 . S
C170 C171 1.369 . S
C171 H151 0.945 . S
C171 C166 1.385 . S
C171 C170 1.369 . S
C172 C164 1.457 . S
C172 C173 1.372 . S
C172 C177 1.364 . S
C173 H152 0.952 . S
C173 C172 1.372 . S
C173 C174 1.389 . S
C174 H153 0.949 . S
C174 C173 1.389 . S
C174 C175 1.387 . S
C175 C174 1.387 . S
C175 C176 1.372 . S
C176 H154 0.950 . S
C176 C175 1.372 . S
C176 C177 1.379 . S
C177 H155 0.948 . S
C177 C172 1.364 . S
C177 C176 1.379 . S
C178 C147 1.383 . S
C178 C165 1.479 . S
C178 C179 1.398 . S
C179 C144 1.382 . S
C179 H156 0.951 . S
C179 C178 1.398 . S
C180 C181 1.384 . S
C180 H193 0.948 1_455 S
C180 C215 1.382 . S
C181 C180 1.384 . S
C181 C182 1.378 . S
C182 C181 1.378 . S
C182 C183 1.378 . S
C182 H194 0.952 . S
C183 C182 1.378 . S
C183 H195 0.950 . S
C183 C214 1.383 . S
H184 C203 0.947 1_556 S
H185 C204 0.949 . S
H186 C206 0.953 . S
H187 C207 0.945 . S
H188 C209 0.947 1_655 S
H189 C210 0.954 . S
H190 C212 0.950 . S
H191 C213 0.948 . S
H192 C215 0.950 1_655 S
H193 C180 0.948 1_655 S
H194 C182 0.952 . S
H195 C183 0.950 . S
N196 C199 1.382 . S
N196 C201 1.363 1_554 S
N197 C199 1.371 . S
N197 C200 1.372 . S
N198 C200 1.361 . S
N198 C201 1.377 1_554 S
C199 N196 1.382 . S
C199 N197 1.371 . S
C199 C202 1.480 . S
C200 N197 1.372 . S
C200 N198 1.361 . S
C200 C208 1.457 . S
C201 N196 1.363 1_556 S
C201 N198 1.377 1_556 S
C201 C214 1.479 . S
C202 C199 1.480 . S
C202 C203 1.383 . S
C202 C207 1.385 . S
C203 H184 0.947 1_554 S
C203 C202 1.383 . S
C203 C204 1.387 1_455 S
C204 H185 0.949 . S
C204 C203 1.387 1_655 S
C204 C205 1.382 1_655 S
C205 C204 1.382 1_455 S
C205 C206 1.377 . S
C206 H186 0.953 . S
C206 C205 1.377 . S
C206 C207 1.369 . S
C207 H187 0.945 . S
C207 C202 1.385 . S
C207 C206 1.369 . S
C208 C200 1.457 . S
C208 C209 1.379 . S
C208 C213 1.364 . S
C209 H188 0.947 1_455 S
C209 C208 1.379 . S
C209 C210 1.387 1_455 S
C210 H189 0.954 . S
C210 C209 1.387 1_655 S
C210 C211 1.384 1_655 S
C211 C210 1.384 1_455 S
C211 C212 1.372 . S
C212 H190 0.950 . S
C212 C211 1.372 . S
C212 C213 1.379 . S
C213 H191 0.948 . S
C213 C208 1.364 . S
C213 C212 1.379 . S
C214 C183 1.383 . S
C214 C201 1.479 . S
C214 C215 1.399 . S
C215 C180 1.382 . S
C215 H192 0.950 1_455 S
C215 C214 1.399 . S
C216 C217 1.384 . S
C216 H229 0.948 1_545 S
C216 C251 1.382 . S
C217 C216 1.384 . S
C217 C218 1.378 . S
C218 C217 1.378 . S
C218 C219 1.378 . S
C218 H230 0.952 . S
C219 C218 1.378 . S
C219 H231 0.950 . S
C219 C250 1.383 . S
H220 C239 0.947 1_556 S
H221 C240 0.949 . S
H222 C242 0.953 . S
H223 C243 0.945 . S
H224 C245 0.947 1_565 S
H225 C246 0.954 . S
H226 C248 0.950 . S
H227 C249 0.948 . S
H228 C251 0.950 1_565 S
H229 C216 0.948 1_565 S
H230 C218 0.952 . S
H231 C219 0.950 . S
N232 C235 1.382 . S
N232 C237 1.363 1_554 S
N233 C235 1.371 . S
N233 C236 1.372 . S
N234 C236 1.361 . S
N234 C237 1.377 1_554 S
C235 N232 1.382 . S
C235 N233 1.371 . S
C235 C238 1.480 . S
C236 N233 1.372 . S
C236 N234 1.361 . S
C236 C244 1.457 . S
C237 N232 1.363 1_556 S
C237 N234 1.377 1_556 S
C237 C250 1.479 . S
C238 C235 1.480 . S
C238 C239 1.383 . S
C238 C243 1.385 . S
C239 H220 0.947 1_554 S
C239 C238 1.383 . S
C239 C240 1.387 1_545 S
C240 H221 0.949 . S
C240 C239 1.387 1_565 S
C240 C241 1.382 1_565 S
C241 C240 1.382 1_545 S
C241 C242 1.377 . S
C242 H222 0.953 . S
C242 C241 1.377 . S
C242 C243 1.369 . S
C243 H223 0.945 . S
C243 C238 1.385 . S
C243 C242 1.369 . S
C244 C236 1.457 . S
C244 C245 1.379 . S
C244 C249 1.364 . S
C245 H224 0.947 1_545 S
C245 C244 1.379 . S
C245 C246 1.387 1_545 S
C246 H225 0.954 . S
C246 C245 1.387 1_565 S
C246 C247 1.384 1_565 S
C247 C246 1.384 1_545 S
C247 C248 1.372 . S
C248 H226 0.950 . S
C248 C247 1.372 . S
C248 C249 1.379 . S
C249 H227 0.948 . S
C249 C244 1.364 . S
C249 C248 1.379 . S
C250 C219 1.383 . S
C250 C237 1.479 . S
C250 C251 1.399 . S
C251 C216 1.382 . S
C251 H228 0.950 1_545 S
C251 C250 1.399 . S
C252 C253 1.384 . S
C252 H265 0.947 . S
C252 C287 1.382 . S
C253 C252 1.384 . S
C253 C254 1.378 . S
C254 C253 1.378 . S
C254 C255 1.378 . S
C254 H266 0.952 . S
C255 C254 1.378 . S
C255 H267 0.950 . S
C255 C286 1.383 . S
H256 C275 0.947 . S
H257 C276 0.946 . S
H258 C278 0.953 . S
H259 C279 0.945 1_556 S
H260 C281 0.952 . S
H261 C282 0.949 . S
H262 C284 0.950 . S
H263 C285 0.948 . S
H264 C287 0.951 . S
H265 C252 0.947 . S
H266 C254 0.952 . S
H267 C255 0.950 . S
N268 C271 1.382 . S
N268 C273 1.363 . S
N269 C271 1.371 1_556 S
N269 C272 1.372 . S
N270 C272 1.361 1_554 S
N270 C273 1.377 . S
C271 N268 1.382 . S
C271 N269 1.371 1_554 S
C271 C274 1.480 . S
C272 N269 1.372 . S
C272 N270 1.361 1_556 S
C272 C280 1.457 . S
C273 N268 1.363 . S
C273 N270 1.377 . S
C273 C286 1.479 . S
C274 C271 1.480 . S
C274 C275 1.383 . S
C274 C279 1.385 . S
C275 H256 0.947 . S
C275 C274 1.383 . S
C275 C276 1.388 . S
C276 H257 0.946 . S
C276 C275 1.388 . S
C276 C277 1.384 . S
C277 C276 1.384 . S
C277 C278 1.377 . S
C278 H258 0.953 . S
C278 C277 1.377 . S
C278 C279 1.369 . S
C279 H259 0.945 1_554 S
C279 C274 1.385 . S
C279 C278 1.369 . S
C280 C272 1.457 . S
C280 C281 1.372 . S
C280 C285 1.364 . S
C281 H260 0.952 . S
C281 C280 1.372 . S
C281 C282 1.389 . S
C282 H261 0.949 . S
C282 C281 1.389 . S
C282 C283 1.387 . S
C283 C282 1.387 . S
C283 C284 1.372 . S
C284 H262 0.950 . S
C284 C283 1.372 . S
C284 C285 1.379 . S
C285 H263 0.948 . S
C285 C280 1.364 . S
C285 C284 1.379 . S
C286 C255 1.383 . S
C286 C273 1.479 . S
C286 C287 1.398 . S
C287 C252 1.382 . S
C287 H264 0.951 . S
C287 C286 1.398 . S
Tb288 C298 2.825 . S
Tb288 O299 2.347 1_455 S
Tb288 O302 2.366 . S
Tb288 O307 2.418 . S
Tb288 O308 2.384 1_565 S
Tb288 O311 2.479 . S
Tb288 O312 2.471 . S
Eu289 O300 2.418 . S
Eu289 O301 2.384 1_545 S
Eu289 O304 2.479 . S
Eu289 O305 2.471 . S
Eu289 O306 2.347 1_655 S
Eu289 O309 2.366 . S
Eu289 C319 2.825 . S
C290 O306 1.259 1_565 S
C290 O307 1.265 . S
C291 O308 1.255 . S
C291 O309 1.265 1_455 S
C292 C294 1.380 . S
C292 C295 1.374 . S
C292 C298 1.507 . S
C293 C294 1.384 . S
C293 C297 1.387 . S
C293 H320 0.930 . S
C294 C292 1.380 . S
C294 C293 1.384 . S
C294 H321 0.931 . S
C295 C292 1.374 . S
C295 C296 1.390 . S
C295 H322 0.930 1_455 S
C296 C295 1.390 . S
C296 C297 1.391 . S
C296 H323 0.930 1_455 S
C297 C293 1.387 . S
C297 C296 1.391 . S
C298 Tb288 2.825 . S
C298 C292 1.507 . S
C298 O311 1.238 . S
C298 O312 1.247 . S
O299 Tb288 2.347 1_655 S
O299 C303 1.259 1_565 S
O300 Eu289 2.418 . S
O300 C303 1.265 . S
O301 Eu289 2.384 1_565 S
O301 C310 1.255 . S
O302 Tb288 2.366 . S
O302 C310 1.265 1_455 S
C303 O299 1.259 1_545 S
C303 O300 1.265 . S
O304 Eu289 2.479 . S
O304 C319 1.238 . S
O305 Eu289 2.471 . S
O305 C319 1.247 . S
O306 Eu289 2.347 1_455 S
O306 C290 1.259 1_545 S
O307 Tb288 2.418 . S
O307 C290 1.265 . S
O308 Tb288 2.384 1_545 S
O308 C291 1.255 . S
O309 Eu289 2.366 . S
O309 C291 1.265 1_655 S
C310 O301 1.255 . S
C310 O302 1.265 1_655 S
O311 Tb288 2.479 . S
O311 C298 1.238 . S
O312 Tb288 2.471 . S
O312 C298 1.247 . S
C313 C316 1.380 . S
C313 C317 1.374 . S
C313 C319 1.507 . S
C314 C315 1.387 . S
C314 C318 1.391 . S
C315 C314 1.387 . S
C315 C316 1.384 . S
C315 H324 0.930 . S
C316 C313 1.380 . S
C316 C315 1.384 . S
C316 H325 0.931 . S
C317 C313 1.374 . S
C317 C318 1.390 . S
C317 H326 0.930 1_655 S
C318 C314 1.391 . S
C318 C317 1.390 . S
C318 H327 0.930 1_655 S
C319 Eu289 2.825 . S
C319 O304 1.238 . S
C319 O305 1.247 . S
C319 C313 1.507 . S
H320 C293 0.930 . S
H321 C294 0.931 . S
H322 C295 0.930 1_655 S
H323 C296 0.930 1_655 S
H324 C315 0.930 . S
H325 C316 0.931 . S
H326 C317 0.930 1_455 S
H327 C318 0.930 1_455 S
Tb328 C338 2.825 . S
Tb328 O339 2.347 1_545 S
Tb328 O342 2.366 . S
Tb328 O347 2.418 . S
Tb328 O348 2.384 . S
Tb328 O351 2.479 . S
Tb328 O352 2.471 . S
Eu329 O340 2.418 . S
Eu329 O341 2.384 . S
Eu329 O344 2.479 . S
Eu329 O345 2.471 . S
Eu329 O346 2.347 1_565 S
Eu329 O349 2.366 . S
Eu329 C359 2.825 . S
C330 O346 1.259 . S
C330 O347 1.265 . S
C331 O348 1.255 . S
C331 O349 1.265 1_545 S
C332 C334 1.380 . S
C332 C335 1.374 . S
C332 C338 1.507 . S
C333 C334 1.384 . S
C333 C337 1.387 . S
C333 H360 0.930 . S
C334 C332 1.380 . S
C334 C333 1.384 . S
C334 H361 0.931 . S
C335 C332 1.374 . S
C335 C336 1.390 . S
C335 H362 0.930 1_545 S
C336 C335 1.390 . S
C336 C337 1.391 . S
C336 H363 0.930 1_545 S
C337 C333 1.387 . S
C337 C336 1.391 . S
C338 Tb328 2.825 . S
C338 C332 1.507 . S
C338 O351 1.238 . S
C338 O352 1.247 . S
O339 Tb328 2.347 1_565 S
O339 C343 1.259 . S
O340 Eu329 2.418 . S
O340 C343 1.265 . S
O341 Eu329 2.384 . S
O341 C350 1.255 . S
O342 Tb328 2.366 . S
O342 C350 1.265 1_545 S
C343 O339 1.259 . S
C343 O340 1.265 . S
O344 Eu329 2.479 . S
O344 C359 1.238 . S
O345 Eu329 2.471 . S
O345 C359 1.247 . S
O346 Eu329 2.347 1_545 S
O346 C330 1.259 . S
O347 Tb328 2.418 . S
O347 C330 1.265 . S
O348 Tb328 2.384 . S
O348 C331 1.255 . S
O349 Eu329 2.366 . S
O349 C331 1.265 1_565 S
C350 O341 1.255 . S
C350 O342 1.265 1_565 S
O351 Tb328 2.479 . S
O351 C338 1.238 . S
O352 Tb328 2.471 . S
O352 C338 1.247 . S
C353 C356 1.380 . S
C353 C357 1.374 . S
C353 C359 1.507 . S
C354 C355 1.387 . S
C354 C358 1.391 . S
C355 C354 1.387 . S
C355 C356 1.384 . S
C355 H364 0.930 . S
C356 C353 1.380 . S
C356 C355 1.384 . S
C356 H365 0.931 . S
C357 C353 1.374 . S
C357 C358 1.390 . S
C357 H366 0.930 1_565 S
C358 C354 1.391 . S
C358 C357 1.390 . S
C358 H367 0.930 1_565 S
C359 Eu329 2.825 . S
C359 O344 1.238 . S
C359 O345 1.247 . S
C359 C353 1.507 . S
H360 C333 0.930 . S
H361 C334 0.931 . S
H362 C335 0.930 1_565 S
H363 C336 0.930 1_565 S
H364 C355 0.930 . S
H365 C356 0.931 . S
H366 C357 0.930 1_545 S
H367 C358 0.930 1_545 S
Tb368 C378 2.825 . S
Tb368 O379 2.347 . S
Tb368 O382 2.366 . S
Tb368 O387 2.418 . S
Tb368 O388 2.384 . S
Tb368 O391 2.479 . S
Tb368 O392 2.471 . S
Eu369 O380 2.418 . S
Eu369 O381 2.384 . S
Eu369 O384 2.479 . S
Eu369 O385 2.471 . S
Eu369 O386 2.347 . S
Eu369 O389 2.366 . S
Eu369 C399 2.825 . S
C370 O386 1.259 . S
C370 O387 1.265 . S
C371 O388 1.255 . S
C371 O389 1.265 . S
C372 C374 1.380 . S
C372 C375 1.374 . S
C372 C378 1.507 . S
C373 C374 1.384 . S
C373 C377 1.387 . S
C373 H400 0.930 . S
C374 C372 1.380 . S
C374 C373 1.384 . S
C374 H401 0.931 . S
C375 C372 1.374 . S
C375 C376 1.390 . S
C375 H402 0.930 . S
C376 C375 1.390 . S
C376 C377 1.391 . S
C376 H403 0.930 . S
C377 C373 1.387 . S
C377 C376 1.391 . S
C378 Tb368 2.825 . S
C378 C372 1.507 . S
C378 O391 1.238 . S
C378 O392 1.247 . S
O379 Tb368 2.347 . S
O379 C383 1.259 . S
O380 Eu369 2.418 . S
O380 C383 1.265 . S
O381 Eu369 2.384 . S
O381 C390 1.255 . S
O382 Tb368 2.366 . S
O382 C390 1.265 . S
C383 O379 1.259 . S
C383 O380 1.265 . S
O384 Eu369 2.479 . S
O384 C399 1.238 . S
O385 Eu369 2.471 . S
O385 C399 1.247 . S
O386 Eu369 2.347 . S
O386 C370 1.259 . S
O387 Tb368 2.418 . S
O387 C370 1.265 . S
O388 Tb368 2.384 . S
O388 C371 1.255 . S
O389 Eu369 2.366 . S
O389 C371 1.265 . S
C390 O381 1.255 . S
C390 O382 1.265 . S
O391 Tb368 2.479 . S
O391 C378 1.238 . S
O392 Tb368 2.471 . S
O392 C378 1.247 . S
C393 C396 1.380 . S
C393 C397 1.374 . S
C393 C399 1.507 . S
C394 C395 1.387 . S
C394 C398 1.391 . S
C395 C394 1.387 . S
C395 C396 1.384 . S
C395 H404 0.930 . S
C396 C393 1.380 . S
C396 C395 1.384 . S
C396 H405 0.931 . S
C397 C393 1.374 . S
C397 C398 1.390 . S
C397 H406 0.930 . S
C398 C394 1.391 . S
C398 C397 1.390 . S
C398 H407 0.930 . S
C399 Eu369 2.825 . S
C399 O384 1.238 . S
C399 O385 1.247 . S
C399 C393 1.507 . S
H400 C373 0.930 . S
H401 C374 0.931 . S
H402 C375 0.930 . S
H403 C376 0.930 . S
H404 C395 0.930 . S
H405 C396 0.931 . S
H406 C397 0.930 . S
H407 C398 0.930 . S
Tb408 C418 2.825 . S
Tb408 O419 2.347 . S
Tb408 O422 2.366 . S
Tb408 O427 2.418 . S
Tb408 O428 2.384 1_655 S
Tb408 O431 2.479 . S
Tb408 O432 2.471 . S
Eu409 O420 2.418 . S
Eu409 O421 2.384 1_455 S
Eu409 O424 2.479 . S
Eu409 O425 2.471 . S
Eu409 O426 2.347 . S
Eu409 O429 2.366 . S
Eu409 C439 2.825 . S
C410 O426 1.259 1_655 S
C410 O427 1.265 . S
C411 O428 1.255 . S
C411 O429 1.265 . S
C412 C414 1.380 . S
C412 C415 1.374 . S
C412 C418 1.507 . S
C413 C414 1.384 . S
C413 C417 1.387 . S
C413 H440 0.930 . S
C414 C412 1.380 . S
C414 C413 1.384 . S
C414 H441 0.931 . S
C415 C412 1.374 . S
C415 C416 1.390 . S
C415 H442 0.930 . S
C416 C415 1.390 . S
C416 C417 1.391 . S
C416 H443 0.930 . S
C417 C413 1.387 . S
C417 C416 1.391 . S
C418 Tb408 2.825 . S
C418 C412 1.507 . S
C418 O431 1.238 . S
C418 O432 1.247 . S
O419 Tb408 2.347 . S
O419 C423 1.259 1_655 S
O420 Eu409 2.418 . S
O420 C423 1.265 . S
O421 Eu409 2.384 1_655 S
O421 C430 1.255 . S
O422 Tb408 2.366 . S
O422 C430 1.265 . S
C423 O419 1.259 1_455 S
C423 O420 1.265 . S
O424 Eu409 2.479 . S
O424 C439 1.238 . S
O425 Eu409 2.471 . S
O425 C439 1.247 . S
O426 Eu409 2.347 . S
O426 C410 1.259 1_455 S
O427 Tb408 2.418 . S
O427 C410 1.265 . S
O428 Tb408 2.384 1_455 S
O428 C411 1.255 . S
O429 Eu409 2.366 . S
O429 C411 1.265 . S
C430 O421 1.255 . S
C430 O422 1.265 . S
O431 Tb408 2.479 . S
O431 C418 1.238 . S
O432 Tb408 2.471 . S
O432 C418 1.247 . S
C433 C436 1.380 . S
C433 C437 1.374 . S
C433 C439 1.507 . S
C434 C435 1.387 . S
C434 C438 1.391 . S
C435 C434 1.387 . S
C435 C436 1.384 . S
C435 H444 0.930 . S
C436 C433 1.380 . S
C436 C435 1.384 . S
C436 H445 0.931 . S
C437 C433 1.374 . S
C437 C438 1.390 . S
C437 H446 0.930 . S
C438 C434 1.391 . S
C438 C437 1.390 . S
C438 H447 0.930 . S
C439 Eu409 2.825 . S
C439 O424 1.238 . S
C439 O425 1.247 . S
C439 C433 1.507 . S
H440 C413 0.930 . S
H441 C414 0.931 . S
H442 C415 0.930 . S
H443 C416 0.930 . S
H444 C435 0.930 . S
H445 C436 0.931 . S
H446 C437 0.930 . S
H447 C438 0.930 . S
C448 C449 1.391 . S
C448 C450 1.394 . S
C448 H464 0.931 . S
C449 C448 1.391 . S
C449 C453 1.376 1_545 S
C450 C448 1.394 . S
C450 C451 1.369 . S
C450 C454 1.531 . S
C451 C450 1.369 . S
C451 C452 1.410 1_545 S
C451 C459 1.503 . S
C452 C451 1.410 1_565 S
C452 C453 1.392 . S
C452 C455 1.511 . S
C453 C449 1.376 1_565 S
C453 C452 1.392 . S
C453 H465 0.929 . S
C454 C450 1.531 . S
C454 H466 0.960 . S
C454 H467 0.962 . S
C454 H468 0.960 . S
C455 C452 1.511 . S
C455 H469 0.961 . S
C455 H470 0.961 . S
C455 H471 1.001 . S
C456 C457 1.370 1_565 S
C456 C458 1.363 . S
C456 H472 0.931 . S
C457 C456 1.370 1_545 S
C457 C461 1.408 . S
C458 C456 1.363 . S
C458 C459 1.370 1_565 S
C458 C462 1.524 . S
C459 C451 1.503 . S
C459 C458 1.370 1_545 S
C459 C460 1.403 . S
C460 C459 1.403 . S
C460 C461 1.404 . S
C460 C463 1.539 . S
C461 C457 1.408 . S
C461 C460 1.404 . S
C461 H473 0.930 . S
C462 C458 1.524 . S
C462 H474 0.956 . S
C462 H475 0.961 . S
C462 H476 0.961 . S
C463 C460 1.539 . S
C463 H477 0.958 . S
C463 H478 0.961 . S
C463 H479 0.960 . S
H464 C448 0.931 . S
H465 C453 0.929 . S
H466 C454 0.960 . S
H467 C454 0.962 . S
H468 C454 0.960 . S
H469 C455 0.961 . S
H470 C455 0.961 . S
H471 C455 1.001 . S
H472 C456 0.931 . S
H473 C461 0.930 . S
H474 C462 0.956 . S
H475 C462 0.961 . S
H476 C462 0.961 . S
H477 C463 0.958 . S
H478 C463 0.961 . S
H479 C463 0.960 . S
C480 C481 1.391 . S
C480 C482 1.394 . S
C480 H496 0.931 . S
C481 C480 1.391 . S
C481 C485 1.376 . S
C482 C480 1.394 . S
C482 C483 1.369 . S
C482 C486 1.531 . S
C483 C482 1.369 . S
C483 C484 1.410 . S
C483 C491 1.503 . S
C484 C483 1.410 . S
C484 C485 1.392 . S
C484 C487 1.511 . S
C485 C481 1.376 . S
C485 C484 1.392 . S
C485 H497 0.929 . S
C486 C482 1.531 . S
C486 H498 0.960 . S
C486 H499 0.962 . S
C486 H500 0.960 . S
C487 C484 1.511 . S
C487 H501 0.961 . S
C487 H502 0.961 . S
C487 H503 0.961 . S
C488 C489 1.370 . S
C488 C490 1.363 . S
C488 H504 0.931 . S
C489 C488 1.370 . S
C489 C493 1.408 . S
C490 C488 1.363 . S
C490 C491 1.370 . S
C490 C494 1.524 . S
C491 C483 1.503 . S
C491 C490 1.370 . S
C491 C492 1.403 . S
C492 C491 1.403 . S
C492 C493 1.404 . S
C492 C495 1.539 . S
C493 C489 1.408 . S
C493 C492 1.404 . S
C493 H505 0.930 . S
C494 C490 1.524 . S
C494 H506 0.956 . S
C494 H507 0.961 . S
C494 H508 0.961 . S
C495 C492 1.539 . S
C495 H509 0.958 . S
C495 H510 0.961 . S
C495 H511 0.960 . S
H496 C480 0.931 . S
H497 C485 0.929 . S
H498 C486 0.960 . S
H499 C486 0.962 . S
H500 C486 0.960 . S
H501 C487 0.961 . S
H502 C487 0.961 . S
H503 C487 0.961 . S
H504 C488 0.931 . S
H505 C493 0.930 . S
H506 C494 0.956 . S
H507 C494 0.961 . S
H508 C494 0.961 . S
H509 C495 0.958 . S
H510 C495 0.961 . S
H511 C495 0.960 . S
C512 C513 1.391 . S
C512 C514 1.394 . S
C512 H528 0.931 . S
C513 C512 1.391 . S
C513 C517 1.376 . S
C514 C512 1.394 . S
C514 C515 1.369 . S
C514 C518 1.531 . S
C515 C514 1.369 . S
C515 C516 1.410 . S
C515 C523 1.503 . S
C516 C515 1.410 . S
C516 C517 1.392 . S
C516 C519 1.511 . S
C517 C513 1.376 . S
C517 C516 1.392 . S
C517 H529 0.929 . S
C518 C514 1.531 . S
C518 H530 0.960 . S
C518 H531 0.962 . S
C518 H532 0.960 . S
C519 C516 1.511 . S
C519 H533 0.961 . S
C519 H534 0.961 . S
C519 H535 0.961 . S
C520 C521 1.370 . S
C520 C522 1.363 . S
C520 H536 0.931 . S
C521 C520 1.370 . S
C521 C525 1.408 . S
C522 C520 1.363 . S
C522 C523 1.370 . S
C522 C526 1.524 . S
C523 C515 1.503 . S
C523 C522 1.370 . S
C523 C524 1.403 . S
C524 C523 1.403 . S
C524 C525 1.404 . S
C524 C527 1.539 . S
C525 C521 1.408 . S
C525 C524 1.404 . S
C525 H537 0.930 . S
C526 C522 1.524 . S
C526 H538 0.956 . S
C526 H539 0.961 . S
C526 H540 0.961 . S
C527 C524 1.539 . S
C527 H541 0.958 . S
C527 H542 0.961 . S
C527 H543 0.960 . S
H528 C512 0.931 . S
H529 C517 0.929 . S
H530 C518 0.960 . S
H531 C518 0.962 . S
H532 C518 0.960 . S
H533 C519 0.961 . S
H534 C519 0.961 . S
H535 C519 0.961 . S
H536 C520 0.931 . S
H537 C525 0.930 . S
H538 C526 0.956 . S
H539 C526 0.961 . S
H540 C526 0.961 . S
H541 C527 0.958 . S
H542 C527 0.961 . S
H543 C527 0.960 . S
C544 C545 1.391 1_655 S
C544 C546 1.394 1_655 S
C544 H560 0.931 . S
C545 C544 1.391 1_455 S
C545 C549 1.376 . S
C546 C544 1.394 1_455 S
C546 C547 1.368 . S
C546 C550 1.532 1_455 S
C547 C546 1.368 . S
C547 C548 1.410 . S
C547 C555 1.503 . S
C548 C547 1.410 . S
C548 C549 1.392 . S
C548 C551 1.511 . S
C549 C545 1.376 . S
C549 C548 1.392 . S
C549 H561 0.929 . S
C550 C546 1.532 1_655 S
C550 H562 0.960 1_655 S
C550 H563 0.962 . S
C550 H564 0.964 . S
C551 C548 1.511 . S
C551 H565 0.961 . S
C551 H566 0.961 . S
C551 H567 0.961 . S
C552 C553 1.370 1_655 S
C552 C554 1.363 . S
C552 H568 0.931 . S
C553 C552 1.370 1_455 S
C553 C557 1.408 . S
C554 C552 1.363 . S
C554 C555 1.370 1_655 S
C554 C558 1.524 . S
C555 C547 1.503 . S
C555 C554 1.370 1_455 S
C555 C556 1.403 . S
C556 C555 1.403 . S
C556 C557 1.404 . S
C556 C559 1.539 . S
C557 C553 1.408 . S
C557 C556 1.404 . S
C557 H569 0.930 . S
C558 C554 1.524 . S
C558 H570 0.956 . S
C558 H571 0.961 . S
C558 H572 0.961 . S
C559 C556 1.539 . S
C559 H573 0.958 . S
C559 H574 0.961 . S
C559 H575 0.960 . S
H560 C544 0.931 . S
H561 C549 0.929 . S
H562 C550 0.960 1_455 S
H563 C550 0.962 . S
H564 C550 0.964 . S
H565 C551 0.961 . S
H566 C551 0.961 . S
H567 C551 0.961 . S
H568 C552 0.931 . S
H569 C557 0.930 . S
H570 C558 0.956 . S
H571 C558 0.961 . S
H572 C558 0.961 . S
H573 C559 0.958 . S
H574 C559 0.961 . S
H575 C559 0.960 . S
C576 C577 1.391 . S
C576 C578 1.394 . S
C576 H592 0.931 . S
C577 C576 1.391 . S
C577 C581 1.376 1_545 S
C578 C576 1.394 . S
C578 C579 1.369 . S
C578 C582 1.531 . S
C579 C578 1.369 . S
C579 C580 1.410 1_545 S
C579 C587 1.503 . S
C580 C579 1.410 1_565 S
C580 C581 1.392 . S
C580 C583 1.511 . S
C581 C577 1.376 1_565 S
C581 C580 1.392 . S
C581 H593 0.929 . S
C582 C578 1.531 . S
C582 H594 0.960 1_554 S
C582 H595 0.962 . S
C582 H596 0.960 . S
C583 C580 1.511 . S
C583 H597 0.961 . S
C583 H598 0.961 . S
C583 H599 0.961 . S
C584 C585 1.365 1_565 S
C584 C586 1.363 . S
C584 H600 0.931 . S
C585 C584 1.365 1_545 S
C585 C589 1.415 . S
C586 C584 1.363 . S
C586 C587 1.370 1_566 S
C586 C590 1.524 . S
C587 C579 1.503 . S
C587 C586 1.370 1_544 S
C587 C588 1.403 1_554 S
C588 C587 1.403 1_556 S
C588 C589 1.404 . S
C588 C591 1.539 1_556 S
C589 C585 1.415 . S
C589 C588 1.404 . S
C589 H601 0.930 . S
C590 C586 1.524 . S
C590 H602 0.956 . S
C590 H603 0.961 1_556 S
C590 H604 0.961 . S
C591 C588 1.539 1_554 S
C591 H605 0.958 . S
C591 H606 0.961 . S
C591 H607 0.960 . S
H592 C576 0.931 . S
H593 C581 0.929 . S
H594 C582 0.960 1_556 S
H595 C582 0.962 . S
H596 C582 0.960 . S
H597 C583 0.961 . S
H598 C583 0.961 . S
H599 C583 0.961 . S
H600 C584 0.931 . S
H601 C589 0.930 . S
H602 C590 0.956 . S
H603 C590 0.961 1_554 S
H604 C590 0.961 . S
H605 C591 0.958 . S
H606 C591 0.961 . S
H607 C591 0.960 . S
C608 C609 1.391 . S
C608 C610 1.394 . S
C608 H624 0.931 . S
C609 C608 1.391 . S
C609 C613 1.376 . S
C610 C608 1.394 . S
C610 C611 1.369 . S
C610 C614 1.531 . S
C611 C610 1.369 . S
C611 C612 1.410 . S
C611 C619 1.503 . S
C612 C611 1.410 . S
C612 C613 1.392 . S
C612 C615 1.511 . S
C613 C609 1.376 . S
C613 C612 1.392 . S
C613 H625 0.929 . S
C614 C610 1.531 . S
C614 H626 0.960 . S
C614 H627 0.962 . S
C614 H628 0.960 . S
C615 C612 1.511 . S
C615 H629 0.961 . S
C615 H630 0.961 . S
C615 H631 0.961 . S
C616 C617 1.370 . S
C616 C618 1.363 . S
C616 H632 0.931 . S
C617 C616 1.370 . S
C617 C621 1.408 . S
C618 C616 1.363 . S
C618 C619 1.370 1_556 S
C618 C622 1.524 . S
C619 C611 1.503 . S
C619 C618 1.370 1_554 S
C619 C620 1.403 1_554 S
C620 C619 1.403 1_556 S
C620 C621 1.404 . S
C620 C623 1.539 1_556 S
C621 C617 1.408 . S
C621 C620 1.404 . S
C621 H633 0.930 . S
C622 C618 1.524 . S
C622 H634 0.956 . S
C622 H635 0.961 . S
C622 H636 0.961 . S
C623 C620 1.539 1_554 S
C623 H637 0.958 . S
C623 H638 0.961 . S
C623 H639 0.960 . S
H624 C608 0.931 . S
H625 C613 0.929 . S
H626 C614 0.960 . S
H627 C614 0.962 . S
H628 C614 0.960 . S
H629 C615 0.961 . S
H630 C615 0.961 . S
H631 C615 0.961 . S
H632 C616 0.931 . S
H633 C621 0.930 . S
H634 C622 0.956 . S
H635 C622 0.961 . S
H636 C622 0.961 . S
H637 C623 0.958 . S
H638 C623 0.961 . S
H639 C623 0.960 . S
C640 C641 1.391 . S
C640 C642 1.394 . S
C640 H656 0.931 . S
C641 C640 1.391 . S
C641 C645 1.376 . S
C642 C640 1.394 . S
C642 C643 1.369 . S
C642 C646 1.531 . S
C643 C642 1.369 . S
C643 C644 1.410 . S
C643 C651 1.503 1_554 S
C644 C643 1.410 . S
C644 C645 1.392 . S
C644 C647 1.511 . S
C645 C641 1.376 . S
C645 C644 1.392 . S
C645 H657 0.929 . S
C646 C642 1.531 . S
C646 H658 0.960 1_554 S
C646 H659 0.962 1_554 S
C646 H660 0.960 . S
C647 C644 1.511 . S
C647 H661 0.961 . S
C647 H662 0.961 . S
C647 H663 0.961 . S
C648 C649 1.370 . S
C648 C650 1.363 . S
C648 H664 0.931 . S
C649 C648 1.370 . S
C649 C653 1.408 . S
C650 C648 1.363 . S
C650 C651 1.370 . S
C650 C654 1.524 1_556 S
C651 C643 1.503 1_556 S
C651 C650 1.370 . S
C651 C652 1.403 . S
C652 C651 1.403 . S
C652 C653 1.404 . S
C652 C655 1.539 . S
C653 C649 1.408 . S
C653 C652 1.404 . S
C653 H665 0.930 . S
C654 C650 1.524 1_554 S
C654 H666 0.956 . S
C654 H667 0.961 . S
C654 H668 0.961 1_554 S
C655 C652 1.539 . S
C655 H669 0.958 . S
C655 H670 0.961 . S
C655 H671 0.960 1_556 S
H656 C640 0.931 . S
H657 C645 0.929 . S
H658 C646 0.960 1_556 S
H659 C646 0.962 1_556 S
H660 C646 0.960 . S
H661 C647 0.961 . S
H662 C647 0.961 . S
H663 C647 0.961 . S
H664 C648 0.931 . S
H665 C653 0.930 . S
H666 C654 0.956 . S
H667 C654 0.961 . S
H668 C654 0.961 1_556 S
H669 C655 0.958 . S
H670 C655 0.961 . S
H671 C655 0.960 1_554 S
C672 C673 1.359 1_655 S
C672 C674 1.394 . S
C672 H688 0.931 . S
C673 C672 1.359 1_455 S
C673 C677 1.411 . S
C674 C672 1.394 . S
C674 C675 1.369 1_655 S
C674 C678 1.531 . S
C675 C674 1.369 1_455 S
C675 C676 1.410 . S
C675 C683 1.503 1_554 S
C676 C675 1.410 . S
C676 C677 1.392 . S
C676 C679 1.511 . S
C677 C673 1.411 . S
C677 C676 1.392 . S
C677 H689 0.929 . S
C678 C674 1.531 . S
C678 H690 0.960 1_554 S
C678 H691 0.962 . S
C678 H692 0.960 . S
C679 C676 1.511 . S
C679 H693 0.961 . S
C679 H694 0.961 . S
C679 H695 0.961 . S
C680 C681 1.380 . S
C680 C682 1.363 . S
C680 H696 0.931 . S
C681 C680 1.380 . S
C681 C685 1.398 1_655 S
C682 C680 1.363 . S
C682 C683 1.370 1_655 S
C682 C686 1.524 1_556 S
C683 C675 1.503 1_556 S
C683 C682 1.370 1_455 S
C683 C684 1.403 . S
C684 C683 1.403 . S
C684 C685 1.404 . S
C684 C687 1.539 . S
C685 C681 1.398 1_455 S
C685 C684 1.404 . S
C685 H697 0.930 . S
C686 C682 1.524 1_554 S
C686 H698 0.956 . S
C686 H699 0.961 . S
C686 H700 0.961 . S
C687 C684 1.539 . S
C687 H701 0.958 . S
C687 H702 0.961 . S
C687 H703 0.960 . S
H688 C672 0.931 . S
H689 C677 0.929 . S
H690 C678 0.960 1_556 S
H691 C678 0.962 . S
H692 C678 0.960 . S
H693 C679 0.961 . S
H694 C679 0.961 . S
H695 C679 0.961 . S
H696 C680 0.931 . S
H697 C685 0.930 . S
H698 C686 0.956 . S
H699 C686 0.961 . S
H700 C686 0.961 . S
H701 C687 0.958 . S
H702 C687 0.961 . S
H703 C687 0.960 . S
C704 C705 1.391 . S
C704 C706 1.394 . S
C704 H720 0.931 . S
C705 C704 1.391 . S
C705 C709 1.376 1_455 S
C706 C704 1.394 . S
C706 C707 1.369 1_455 S
C706 C710 1.531 . S
C707 C706 1.369 1_655 S
C707 C708 1.410 . S
C707 C715 1.503 . S
C708 C707 1.410 . S
C708 C709 1.392 . S
C708 C711 1.511 . S
C709 C705 1.376 1_655 S
C709 C708 1.392 . S
C709 H721 0.929 . S
C710 C706 1.531 . S
C710 H722 0.960 . S
C710 H723 0.962 . S
C710 H724 0.960 . S
C711 C708 1.511 . S
C711 H725 0.961 . S
C711 H726 0.961 . S
C711 H727 0.961 . S
C712 C713 1.370 . S
C712 C714 1.363 . S
C712 H728 0.931 . S
C713 C712 1.370 . S
C713 C717 1.408 . S
C714 C712 1.363 . S
C714 C715 1.370 . S
C714 C718 1.524 . S
C715 C707 1.503 . S
C715 C714 1.370 . S
C715 C716 1.403 . S
C716 C715 1.403 . S
C716 C717 1.404 . S
C716 C719 1.539 1_655 S
C717 C713 1.408 . S
C717 C716 1.404 . S
C717 H729 0.930 . S
C718 C714 1.524 . S
C718 H730 0.956 . S
C718 H731 0.961 . S
C718 H732 0.961 . S
C719 C716 1.539 1_455 S
C719 H733 0.958 . S
C719 H734 0.961 . S
C719 H735 0.960 . S
H720 C704 0.931 . S
H721 C709 0.929 . S
H722 C710 0.960 . S
H723 C710 0.962 . S
H724 C710 0.960 . S
H725 C711 0.961 . S
H726 C711 0.961 . S
H727 C711 0.961 . S
H728 C712 0.931 . S
H729 C717 0.930 . S
H730 C718 0.956 . S
H731 C718 0.961 . S
H732 C718 0.961 . S
H733 C719 0.958 . S
H734 C719 0.961 . S
H735 C719 0.960 . S
C736 C737 1.366 1_565 S
C736 C738 1.394 . S
C736 H752 0.931 . S
C737 C736 1.366 1_545 S
C737 C741 1.389 . S
C738 C736 1.394 . S
C738 C739 1.369 . S
C738 C742 1.531 . S
C739 C738 1.369 . S
C739 C740 1.410 1_565 S
C739 C747 1.503 . S
C740 C739 1.410 1_545 S
C740 C741 1.392 . S
C740 C743 1.511 . S
C741 C737 1.389 . S
C741 C740 1.392 . S
C741 H753 0.929 . S
C742 C738 1.531 . S
C742 H754 0.960 . S
C742 H755 0.962 . S
C742 H756 0.960 . S
C743 C740 1.511 . S
C743 H757 0.961 . S
C743 H758 0.961 . S
C743 H759 0.991 . S
C744 C745 1.370 . S
C744 C746 1.363 . S
C744 H760 0.931 . S
C745 C744 1.370 . S
C745 C749 1.408 . S
C746 C744 1.363 . S
C746 C747 1.370 . S
C746 C750 1.524 1_565 S
C747 C739 1.503 . S
C747 C746 1.370 . S
C747 C748 1.403 . S
C748 C747 1.403 . S
C748 C749 1.404 . S
C748 C751 1.539 . S
C749 C745 1.408 . S
C749 C748 1.404 . S
C749 H761 0.930 . S
C750 C746 1.524 1_545 S
C750 H762 0.956 . S
C750 H763 0.961 . S
C750 H764 0.961 . S
C751 C748 1.539 . S
C751 H765 0.958 . S
C751 H766 0.961 . S
C751 H767 0.960 . S
H752 C736 0.931 . S
H753 C741 0.929 . S
H754 C742 0.960 . S
H755 C742 0.962 . S
H756 C742 0.960 . S
H757 C743 0.961 . S
H758 C743 0.961 . S
H759 C743 0.991 . S
H760 C744 0.931 . S
H761 C749 0.930 . S
H762 C750 0.956 . S
H763 C750 0.961 . S
H764 C750 0.961 . S
H765 C751 0.958 . S
H766 C751 0.961 . S
H767 C751 0.960 . S
C768 C769 1.391 . S
C768 C770 1.394 . S
C768 H784 0.931 . S
C769 C768 1.391 . S
C769 C773 1.376 . S
C770 C768 1.394 . S
C770 C771 1.369 . S
C770 C774 1.531 . S
C771 C770 1.369 . S
C771 C772 1.410 . S
C771 C779 1.503 . S
C772 C771 1.410 . S
C772 C773 1.392 . S
C772 C775 1.511 . S
C773 C769 1.376 . S
C773 C772 1.392 . S
C773 H785 0.929 . S
C774 C770 1.531 . S
C774 H786 0.960 . S
C774 H787 0.962 . S
C774 H788 0.960 . S
C775 C772 1.511 . S
C775 H789 0.961 . S
C775 H790 0.961 . S
C775 H791 0.961 . S
C776 C777 1.370 . S
C776 C778 1.363 . S
C776 H792 0.931 . S
C777 C776 1.370 . S
C777 C781 1.408 . S
C778 C776 1.363 . S
C778 C779 1.370 . S
C778 C782 1.524 . S
C779 C771 1.503 . S
C779 C778 1.370 . S
C779 C780 1.403 . S
C780 C779 1.403 . S
C780 C781 1.404 . S
C780 C783 1.539 . S
C781 C777 1.408 . S
C781 C780 1.404 . S
C781 H793 0.930 . S
C782 C778 1.524 . S
C782 H794 0.956 . S
C782 H795 0.961 . S
C782 H796 0.961 . S
C783 C780 1.539 . S
C783 H797 0.958 . S
C783 H798 0.961 . S
C783 H799 0.960 . S
H784 C768 0.931 . S
H785 C773 0.929 . S
H786 C774 0.960 . S
H787 C774 0.962 . S
H788 C774 0.960 . S
H789 C775 0.961 . S
H790 C775 0.961 . S
H791 C775 0.961 . S
H792 C776 0.931 . S
H793 C781 0.930 . S
H794 C782 0.956 . S
H795 C782 0.961 . S
H796 C782 0.961 . S
H797 C783 0.958 . S
H798 C783 0.961 . S
H799 C783 0.960 . S
C800 C801 1.391 . S
C800 C802 1.394 . S
C800 H816 0.931 . S
C801 C800 1.391 . S
C801 C805 1.376 . S
C802 C800 1.394 . S
C802 C803 1.369 . S
C802 C806 1.531 . S
C803 C802 1.369 . S
C803 C804 1.410 . S
C803 C811 1.503 . S
C804 C803 1.410 . S
C804 C805 1.392 . S
C804 C807 1.511 . S
C805 C801 1.376 . S
C805 C804 1.392 . S
C805 H817 0.929 . S
C806 C802 1.531 . S
C806 H818 0.960 . S
C806 H819 0.962 . S
C806 H820 0.960 . S
C807 C804 1.511 . S
C807 H821 0.961 . S
C807 H822 0.961 . S
C807 H823 0.961 . S
C808 C809 1.370 . S
C808 C810 1.363 . S
C808 H824 0.931 . S
C809 C808 1.370 . S
C809 C813 1.408 . S
C810 C808 1.363 . S
C810 C811 1.370 . S
C810 C814 1.524 . S
C811 C803 1.503 . S
C811 C810 1.370 . S
C811 C812 1.403 . S
C812 C811 1.403 . S
C812 C813 1.404 . S
C812 C815 1.539 . S
C813 C809 1.408 . S
C813 C812 1.404 . S
C813 H825 0.930 . S
C814 C810 1.524 . S
C814 H826 0.956 . S
C814 H827 0.961 . S
C814 H828 0.961 . S
C815 C812 1.539 . S
C815 H829 0.958 . S
C815 H830 0.961 . S
C815 H831 0.960 . S
H816 C800 0.931 . S
H817 C805 0.929 . S
H818 C806 0.960 . S
H819 C806 0.962 . S
H820 C806 0.960 . S
H821 C807 0.961 . S
H822 C807 0.961 . S
H823 C807 0.961 . S
H824 C808 0.931 . S
H825 C813 0.930 . S
H826 C814 0.956 . S
H827 C814 0.961 . S
H828 C814 0.961 . S
H829 C815 0.958 . S
H830 C815 0.961 . S
H831 C815 0.960 . S
C832 C833 1.391 . S
C832 C834 1.394 . S
C832 H848 0.931 . S
C833 C832 1.391 . S
C833 C837 1.376 1_655 S
C834 C832 1.394 . S
C834 C835 1.369 1_655 S
C834 C838 1.531 1_554 S
C835 C834 1.369 1_455 S
C835 C836 1.410 . S
C835 C843 1.503 . S
C836 C835 1.410 . S
C836 C837 1.392 . S
C836 C839 1.511 . S
C837 C833 1.376 1_455 S
C837 C836 1.392 . S
C837 H849 0.929 . S
C838 C834 1.531 1_556 S
C838 H850 0.960 . S
C838 H851 0.962 . S
C838 H852 0.960 . S
C839 C836 1.511 . S
C839 H853 0.961 . S
C839 H854 0.961 . S
C839 H855 0.961 . S
C840 C841 1.370 . S
C840 C842 1.363 . S
C840 H856 0.931 . S
C841 C840 1.370 . S
C841 C845 1.408 1_556 S
C842 C840 1.363 . S
C842 C843 1.370 1_556 S
C842 C846 1.524 . S
C843 C835 1.503 . S
C843 C842 1.370 1_554 S
C843 C844 1.403 . S
C844 C843 1.403 . S
C844 C845 1.404 . S
C844 C847 1.539 1_455 S
C845 C841 1.408 1_554 S
C845 C844 1.404 . S
C845 H857 0.930 . S
C846 C842 1.524 . S
C846 H858 0.956 . S
C846 H859 0.961 . S
C846 H860 0.961 . S
C847 C844 1.539 1_655 S
C847 H861 0.958 . S
C847 H862 0.961 . S
C847 H863 0.960 . S
H848 C832 0.931 . S
H849 C837 0.929 . S
H850 C838 0.960 . S
H851 C838 0.962 . S
H852 C838 0.960 . S
H853 C839 0.961 . S
H854 C839 0.961 . S
H855 C839 0.961 . S
H856 C840 0.931 . S
H857 C845 0.930 . S
H858 C846 0.956 . S
H859 C846 0.961 . S
H860 C846 0.961 . S
H861 C847 0.958 . S
H862 C847 0.961 . S
H863 C847 0.960 . S
C864 C865 1.391 . S
C864 C866 1.394 1_565 S
C864 H880 0.931 . S
C865 C864 1.391 . S
C865 C869 1.375 1_565 S
C866 C864 1.394 1_545 S
C866 C867 1.369 . S
C866 C870 1.531 . S
C867 C866 1.369 . S
C867 C868 1.410 . S
C867 C875 1.503 . S
C868 C867 1.410 . S
C868 C869 1.392 . S
C868 C871 1.511 1_554 S
C869 C865 1.375 1_545 S
C869 C868 1.392 . S
C869 H881 0.929 . S
C870 C866 1.531 . S
C870 H882 0.960 . S
C870 H883 0.962 1_545 S
C870 H884 0.960 . S
C871 C868 1.511 1_556 S
C871 H885 0.961 . S
C871 H886 0.961 . S
C871 H887 0.961 . S
C872 C873 1.370 . S
C872 C874 1.363 . S
C872 H888 0.932 1_545 S
C873 C872 1.370 . S
C873 C877 1.408 . S
C874 C872 1.363 . S
C874 C875 1.370 1_556 S
C874 C878 1.524 1_545 S
C875 C867 1.503 . S
C875 C874 1.370 1_554 S
C875 C876 1.403 . S
C876 C875 1.403 . S
C876 C877 1.404 1_554 S
C876 C879 1.539 . S
C877 C873 1.408 . S
C877 C876 1.404 1_556 S
C877 H889 0.930 . S
C878 C874 1.524 1_565 S
C878 H890 0.956 1_556 S
C878 H891 0.961 . S
C878 H892 0.961 . S
C879 C876 1.539 . S
C879 H893 0.958 . S
C879 H894 0.961 . S
C879 H895 0.960 . S
H880 C864 0.931 . S
H881 C869 0.929 . S
H882 C870 0.960 . S
H883 C870 0.962 1_565 S
H884 C870 0.960 . S
H885 C871 0.961 . S
H886 C871 0.961 . S
H887 C871 0.961 . S
H888 C872 0.932 1_565 S
H889 C877 0.930 . S
H890 C878 0.956 1_554 S
H891 C878 0.961 . S
H892 C878 0.961 . S
H893 C879 0.958 . S
H894 C879 0.961 . S
H895 C879 0.960 . S
C896 C897 1.391 . S
C896 C898 1.394 . S
C896 H912 0.931 . S
C897 C896 1.391 . S
C897 C901 1.376 . S
C898 C896 1.394 . S
C898 C899 1.369 . S
C898 C902 1.531 . S
C899 C898 1.369 . S
C899 C900 1.410 . S
C899 C907 1.503 . S
C900 C899 1.410 . S
C900 C901 1.392 . S
C900 C903 1.511 1_554 S
C901 C897 1.376 . S
C901 C900 1.392 . S
C901 H913 0.929 . S
C902 C898 1.531 . S
C902 H914 0.960 . S
C902 H915 0.962 . S
C902 H916 0.960 . S
C903 C900 1.511 1_556 S
C903 H917 0.961 . S
C903 H918 0.961 . S
C903 H919 0.961 . S
C904 C905 1.370 . S
C904 C906 1.363 . S
C904 H920 0.931 . S
C905 C904 1.370 . S
C905 C909 1.408 . S
C906 C904 1.363 . S
C906 C907 1.370 1_556 S
C906 C910 1.524 . S
C907 C899 1.503 . S
C907 C906 1.370 1_554 S
C907 C908 1.403 . S
C908 C907 1.403 . S
C908 C909 1.404 1_554 S
C908 C911 1.539 . S
C909 C905 1.408 . S
C909 C908 1.404 1_556 S
C909 H921 0.928 1_556 S
C910 C906 1.524 . S
C910 H922 0.956 1_556 S
C910 H923 0.961 . S
C910 H924 0.961 . S
C911 C908 1.539 . S
C911 H925 0.958 . S
C911 H926 0.961 . S
C911 H927 0.960 . S
H912 C896 0.931 . S
H913 C901 0.929 . S
H914 C902 0.960 . S
H915 C902 0.962 . S
H916 C902 0.960 . S
H917 C903 0.961 . S
H918 C903 0.961 . S
H919 C903 0.961 . S
H920 C904 0.931 . S
H921 C909 0.928 1_554 S
H922 C910 0.956 1_554 S
H923 C910 0.961 . S
H924 C910 0.961 . S
H925 C911 0.958 . S
H926 C911 0.961 . S
H927 C911 0.960 . S
C928 C929 1.391 . S
C928 C930 1.394 . S
C928 H944 0.931 . S
C929 C928 1.391 . S
C929 C933 1.376 . S
C930 C928 1.394 . S
C930 C931 1.369 . S
C930 C934 1.531 . S
C931 C930 1.369 . S
C931 C932 1.410 . S
C931 C939 1.503 . S
C932 C931 1.410 . S
C932 C933 1.392 . S
C932 C935 1.511 1_554 S
C933 C929 1.376 . S
C933 C932 1.392 . S
C933 H945 0.929 . S
C934 C930 1.531 . S
C934 H946 0.960 . S
C934 H947 0.962 . S
C934 H948 0.960 . S
C935 C932 1.511 1_556 S
C935 H949 0.961 . S
C935 H950 0.961 . S
C935 H951 0.961 . S
C936 C937 1.370 . S
C936 C938 1.363 1_556 S
C936 H952 0.931 . S
C937 C936 1.370 . S
C937 C941 1.408 . S
C938 C936 1.363 1_554 S
C938 C939 1.370 . S
C938 C942 1.524 . S
C939 C931 1.503 . S
C939 C938 1.370 . S
C939 C940 1.403 1_554 S
C940 C939 1.403 1_556 S
C940 C941 1.404 . S
C940 C943 1.539 . S
C941 C937 1.408 . S
C941 C940 1.404 . S
C941 H953 0.930 . S
C942 C938 1.524 . S
C942 H954 0.956 . S
C942 H955 0.961 . S
C942 H956 0.961 . S
C943 C940 1.539 . S
C943 H957 0.958 1_556 S
C943 H958 0.961 . S
C943 H959 0.960 . S
H944 C928 0.931 . S
H945 C933 0.929 . S
H946 C934 0.960 . S
H947 C934 0.962 . S
H948 C934 0.960 . S
H949 C935 0.961 . S
H950 C935 0.961 . S
H951 C935 0.961 . S
H952 C936 0.931 . S
H953 C941 0.930 . S
H954 C942 0.956 . S
H955 C942 0.961 . S
H956 C942 0.961 . S
H957 C943 0.958 1_554 S
H958 C943 0.961 . S
H959 C943 0.960 . S
C960 C961 1.391 . S
C960 C962 1.394 . S
C960 H976 0.931 . S
C961 C960 1.391 . S
C961 C965 1.376 1_455 S
C962 C960 1.394 . S
C962 C963 1.369 . S
C962 C966 1.531 . S
C963 C962 1.369 . S
C963 C964 1.403 1_455 S
C963 C971 1.503 . S
C964 C963 1.403 1_655 S
C964 C965 1.394 . S
C964 C967 1.516 . S
C965 C961 1.376 1_655 S
C965 C964 1.394 . S
C965 H977 0.929 . S
C966 C962 1.531 . S
C966 H978 0.960 . S
C966 H979 0.962 . S
C966 H980 0.960 . S
C967 C964 1.516 . S
C967 H981 0.961 . S
C967 H982 0.961 . S
C967 H983 0.961 1_655 S
C968 C969 1.370 1_655 S
C968 C970 1.363 . S
C968 H984 0.931 . S
C969 C968 1.370 1_455 S
C969 C973 1.408 . S
C970 C968 1.363 . S
C970 C971 1.370 1_655 S
C970 C974 1.524 . S
C971 C963 1.503 . S
C971 C970 1.370 1_455 S
C971 C972 1.403 . S
C972 C971 1.403 . S
C972 C973 1.404 . S
C972 C975 1.539 . S
C973 C969 1.408 . S
C973 C972 1.404 . S
C973 H985 0.930 . S
C974 C970 1.524 . S
C974 H986 0.956 . S
C974 H987 0.961 . S
C974 H988 0.961 . S
C975 C972 1.539 . S
C975 H989 0.958 . S
C975 H990 0.961 . S
C975 H991 0.960 . S
H976 C960 0.931 . S
H977 C965 0.929 . S
H978 C966 0.960 . S
H979 C966 0.962 . S
H980 C966 0.960 . S
H981 C967 0.961 . S
H982 C967 0.961 . S
H983 C967 0.961 1_455 S
H984 C968 0.931 . S
H985 C973 0.930 . S
H986 C974 0.956 . S
H987 C974 0.961 . S
H988 C974 0.961 . S
H989 C975 0.958 . S
H990 C975 0.961 . S
H991 C975 0.960 . S
C992 C993 1.391 1_565 S
C992 C994 1.394 . S
C992 H1008 0.931 . S
C993 C992 1.391 1_545 S
C993 C997 1.376 . S
C994 C992 1.394 . S
C994 C995 1.369 1_565 S
C994 C998 1.531 . S
C995 C994 1.369 1_545 S
C995 C996 1.410 . S
C995 C1003 1.503 . S
C996 C995 1.410 . S
C996 C997 1.392 . S
C996 C999 1.511 . S
C997 C993 1.376 . S
C997 C996 1.392 . S
C997 H1009 0.929 . S
C998 C994 1.531 . S
C998 H1010 0.960 . S
C998 H1011 0.962 . S
C998 H1012 0.960 . S
C999 C996 1.511 . S
C999 H1013 0.961 . S
C999 H1014 0.961 . S
C999 H1015 0.961 . S
C1000 C1001 1.370 1_565 S
C1000 C1002 1.363 . S
C1000 H1016 0.931 . S
C1001 C1000 1.370 1_545 S
C1001 C1005 1.408 . S
C1002 C1000 1.363 . S
C1002 C1003 1.370 1_565 S
C1002 C1006 1.524 . S
C1003 C995 1.503 . S
C1003 C1002 1.370 1_545 S
C1003 C1004 1.403 . S
C1004 C1003 1.403 . S
C1004 C1005 1.404 . S
C1004 C1007 1.539 . S
C1005 C1001 1.408 . S
C1005 C1004 1.404 . S
C1005 H1017 0.930 . S
C1006 C1002 1.524 . S
C1006 H1018 0.956 . S
C1006 H1019 0.961 . S
C1006 H1020 0.961 . S
C1007 C1004 1.539 . S
C1007 H1021 0.958 . S
C1007 H1022 0.961 . S
C1007 H1023 0.960 . S
H1008 C992 0.931 . S
H1009 C997 0.929 . S
H1010 C998 0.960 . S
H1011 C998 0.962 . S
H1012 C998 0.960 . S
H1013 C999 0.961 . S
H1014 C999 0.961 . S
H1015 C999 0.961 . S
H1016 C1000 0.931 . S
H1017 C1005 0.930 . S
H1018 C1006 0.956 . S
H1019 C1006 0.961 . S
H1020 C1006 0.961 . S
H1021 C1007 0.958 . S
H1022 C1007 0.961 . S
H1023 C1007 0.960 . S
C1024 C1025 1.391 . S
C1024 C1026 1.394 . S
C1024 H1040 0.931 . S
C1025 C1024 1.391 . S
C1025 C1029 1.376 . S
C1026 C1024 1.394 . S
C1026 C1027 1.369 . S
C1026 C1030 1.531 . S
C1027 C1026 1.369 . S
C1027 C1028 1.410 . S
C1027 C1035 1.503 . S
C1028 C1027 1.410 . S
C1028 C1029 1.392 . S
C1028 C1031 1.511 . S
C1029 C1025 1.376 . S
C1029 C1028 1.392 . S
C1029 H1041 0.929 . S
C1030 C1026 1.531 . S
C1030 H1042 0.960 . S
C1030 H1043 0.962 . S
C1030 H1044 0.960 . S
C1031 C1028 1.511 . S
C1031 H1045 0.961 . S
C1031 H1046 0.961 . S
C1031 H1047 0.961 . S
C1032 C1033 1.370 . S
C1032 C1034 1.363 . S
C1032 H1048 0.931 . S
C1033 C1032 1.370 . S
C1033 C1037 1.408 . S
C1034 C1032 1.363 . S
C1034 C1035 1.370 . S
C1034 C1038 1.524 . S
C1035 C1027 1.503 . S
C1035 C1034 1.370 . S
C1035 C1036 1.403 . S
C1036 C1035 1.403 . S
C1036 C1037 1.404 . S
C1036 C1039 1.539 . S
C1037 C1033 1.408 . S
C1037 C1036 1.404 . S
C1037 H1049 0.930 . S
C1038 C1034 1.524 . S
C1038 H1050 0.956 . S
C1038 H1051 0.961 . S
C1038 H1052 0.961 . S
C1039 C1036 1.539 . S
C1039 H1053 0.958 . S
C1039 H1054 0.961 . S
C1039 H1055 0.960 . S
H1040 C1024 0.931 . S
H1041 C1029 0.929 . S
H1042 C1030 0.960 . S
H1043 C1030 0.962 . S
H1044 C1030 0.960 . S
H1045 C1031 0.961 . S
H1046 C1031 0.961 . S
H1047 C1031 0.961 . S
H1048 C1032 0.931 . S
H1049 C1037 0.930 . S
H1050 C1038 0.956 . S
H1051 C1038 0.961 . S
H1052 C1038 0.961 . S
H1053 C1039 0.958 . S
H1054 C1039 0.961 . S
H1055 C1039 0.960 . S
C1056 C1057 1.391 . S
C1056 C1058 1.394 . S
C1056 H1072 0.931 . S
C1057 C1056 1.391 . S
C1057 C1061 1.376 . S
C1058 C1056 1.394 . S
C1058 C1059 1.369 . S
C1058 C1062 1.531 . S
C1059 C1058 1.369 . S
C1059 C1060 1.410 . S
C1059 C1067 1.503 . S
C1060 C1059 1.410 . S
C1060 C1061 1.392 . S
C1060 C1063 1.511 . S
C1061 C1057 1.376 . S
C1061 C1060 1.392 . S
C1061 H1073 0.929 . S
C1062 C1058 1.531 . S
C1062 H1074 0.960 . S
C1062 H1075 0.962 . S
C1062 H1076 0.960 . S
C1063 C1060 1.511 . S
C1063 H1077 0.961 . S
C1063 H1078 0.961 . S
C1063 H1079 0.961 . S
C1064 C1065 1.370 . S
C1064 C1066 1.363 . S
C1064 H1080 0.931 . S
C1065 C1064 1.370 . S
C1065 C1069 1.408 . S
C1066 C1064 1.363 . S
C1066 C1067 1.370 . S
C1066 C1070 1.524 . S
C1067 C1059 1.503 . S
C1067 C1066 1.370 . S
C1067 C1068 1.403 . S
C1068 C1067 1.403 . S
C1068 C1069 1.404 . S
C1068 C1071 1.539 . S
C1069 C1065 1.408 . S
C1069 C1068 1.404 . S
C1069 H1081 0.930 . S
C1070 C1066 1.524 . S
C1070 H1082 0.956 . S
C1070 H1083 0.961 . S
C1070 H1084 0.961 . S
C1071 C1068 1.539 . S
C1071 H1085 0.958 . S
C1071 H1086 0.961 . S
C1071 H1087 0.960 . S
H1072 C1056 0.931 . S
H1073 C1061 0.929 . S
H1074 C1062 0.960 . S
H1075 C1062 0.962 . S
H1076 C1062 0.960 . S
H1077 C1063 0.961 . S
H1078 C1063 0.961 . S
H1079 C1063 0.961 . S
H1080 C1064 0.931 . S
H1081 C1069 0.930 . S
H1082 C1070 0.956 . S
H1083 C1070 0.961 . S
H1084 C1070 0.961 . S
H1085 C1071 0.958 . S
H1086 C1071 0.961 . S
H1087 C1071 0.960 . S
C1088 C1089 1.391 1_455 S
C1088 C1090 1.394 . S
C1088 H1104 0.931 . S
C1089 C1088 1.391 1_655 S
C1089 C1093 1.376 . S
C1090 C1088 1.394 . S
C1090 C1091 1.369 1_455 S
C1090 C1094 1.531 . S
C1091 C1090 1.369 1_655 S
C1091 C1092 1.410 . S
C1091 C1099 1.503 . S
C1092 C1091 1.410 . S
C1092 C1093 1.392 . S
C1092 C1095 1.511 . S
C1093 C1089 1.376 . S
C1093 C1092 1.392 . S
C1093 H1105 0.929 . S
C1094 C1090 1.531 . S
C1094 H1106 0.960 . S
C1094 H1107 0.962 . S
C1094 H1108 0.960 . S
C1095 C1092 1.511 . S
C1095 H1109 0.961 . S
C1095 H1110 0.961 . S
C1095 H1111 0.961 . S
C1096 C1097 1.371 1_455 S
C1096 C1098 1.363 . S
C1096 H1112 0.930 . S
C1097 C1096 1.371 1_655 S
C1097 C1101 1.408 . S
C1098 C1096 1.363 . S
C1098 C1099 1.363 1_455 S
C1098 C1102 1.532 . S
C1099 C1091 1.503 . S
C1099 C1098 1.363 1_655 S
C1099 C1100 1.403 . S
C1100 C1099 1.403 . S
C1100 C1101 1.404 . S
C1100 C1103 1.539 . S
C1101 C1097 1.408 . S
C1101 C1100 1.404 . S
C1101 H1113 0.930 . S
C1102 C1098 1.532 . S
C1102 H1114 0.956 . S
C1102 H1115 0.961 1_455 S
C1102 H1116 0.961 . S
C1103 C1100 1.539 . S
C1103 H1117 0.958 . S
C1103 H1118 0.961 . S
C1103 H1119 0.960 . S
H1104 C1088 0.931 . S
H1105 C1093 0.929 . S
H1106 C1094 0.960 . S
H1107 C1094 0.962 . S
H1108 C1094 0.960 . S
H1109 C1095 0.961 . S
H1110 C1095 0.961 . S
H1111 C1095 0.961 . S
H1112 C1096 0.930 . S
H1113 C1101 0.930 . S
H1114 C1102 0.956 . S
H1115 C1102 0.961 1_655 S
H1116 C1102 0.961 . S
H1117 C1103 0.958 . S
H1118 C1103 0.961 . S
H1119 C1103 0.960 . S
C1120 C1121 1.409 . S
C1120 C1122 1.394 . S
C1120 H1136 0.931 . S
C1121 C1120 1.409 . S
C1121 C1125 1.358 1_565 S
C1122 C1120 1.394 . S
C1122 C1123 1.397 . S
C1122 C1126 1.531 . S
C1123 C1122 1.397 . S
C1123 C1124 1.380 1_565 S
C1123 C1131 1.508 . S
C1124 C1123 1.380 1_545 S
C1124 C1125 1.392 . S
C1124 C1127 1.511 . S
C1125 C1121 1.358 1_545 S
C1125 C1124 1.392 . S
C1125 H1137 0.929 . S
C1126 C1122 1.531 . S
C1126 H1138 0.960 . S
C1126 H1139 0.962 . S
C1126 H1140 0.960 . S
C1127 C1124 1.511 . S
C1127 H1141 0.961 . S
C1127 H1142 0.961 . S
C1127 H1143 0.961 . S
C1128 C1129 1.370 . S
C1128 C1130 1.363 . S
C1128 H1144 0.931 . S
C1129 C1128 1.370 . S
C1129 C1133 1.408 1_565 S
C1130 C1128 1.363 . S
C1130 C1131 1.370 . S
C1130 C1134 1.524 . S
C1131 C1123 1.508 . S
C1131 C1130 1.370 . S
C1131 C1132 1.403 1_565 S
C1132 C1131 1.403 1_545 S
C1132 C1133 1.404 . S
C1132 C1135 1.539 . S
C1133 C1129 1.408 1_545 S
C1133 C1132 1.404 . S
C1133 H1145 0.930 . S
C1134 C1130 1.524 . S
C1134 H1146 0.956 . S
C1134 H1147 0.961 . S
C1134 H1148 0.961 . S
C1135 C1132 1.539 . S
C1135 H1149 0.958 . S
C1135 H1150 0.961 . S
C1135 H1151 0.960 . S
H1136 C1120 0.931 . S
H1137 C1125 0.929 . S
H1138 C1126 0.960 . S
H1139 C1126 0.962 . S
H1140 C1126 0.960 . S
H1141 C1127 0.961 . S
H1142 C1127 0.961 . S
H1143 C1127 0.961 . S
H1144 C1128 0.931 . S
H1145 C1133 0.930 . S
H1146 C1134 0.956 . S
H1147 C1134 0.961 . S
H1148 C1134 0.961 . S
H1149 C1135 0.958 . S
H1150 C1135 0.961 . S
H1151 C1135 0.960 . S
C1152 C1153 1.391 . S
C1152 C1154 1.394 . S
C1152 H1168 0.931 . S
C1153 C1152 1.391 . S
C1153 C1157 1.376 . S
C1154 C1152 1.394 . S
C1154 C1155 1.369 . S
C1154 C1158 1.531 . S
C1155 C1154 1.369 . S
C1155 C1156 1.410 . S
C1155 C1163 1.503 . S
C1156 C1155 1.410 . S
C1156 C1157 1.392 . S
C1156 C1159 1.511 . S
C1157 C1153 1.376 . S
C1157 C1156 1.392 . S
C1157 H1169 0.929 . S
C1158 C1154 1.531 . S
C1158 H1170 0.960 . S
C1158 H1171 0.962 . S
C1158 H1172 0.960 . S
C1159 C1156 1.511 . S
C1159 H1173 0.961 . S
C1159 H1174 0.961 . S
C1159 H1175 0.961 . S
C1160 C1161 1.370 . S
C1160 C1162 1.363 . S
C1160 H1176 0.931 . S
C1161 C1160 1.370 . S
C1161 C1165 1.408 . S
C1162 C1160 1.363 . S
C1162 C1163 1.370 . S
C1162 C1166 1.524 . S
C1163 C1155 1.503 . S
C1163 C1162 1.370 . S
C1163 C1164 1.403 . S
C1164 C1163 1.403 . S
C1164 C1165 1.404 . S
C1164 C1167 1.539 . S
C1165 C1161 1.408 . S
C1165 C1164 1.404 . S
C1165 H1177 0.930 . S
C1166 C1162 1.524 . S
C1166 H1178 0.956 . S
C1166 H1179 0.961 . S
C1166 H1180 0.961 . S
C1167 C1164 1.539 . S
C1167 H1181 0.958 . S
C1167 H1182 0.961 . S
C1167 H1183 0.960 . S
H1168 C1152 0.931 . S
H1169 C1157 0.929 . S
H1170 C1158 0.960 . S
H1171 C1158 0.962 . S
H1172 C1158 0.960 . S
H1173 C1159 0.961 . S
H1174 C1159 0.961 . S
H1175 C1159 0.961 . S
H1176 C1160 0.931 . S
H1177 C1165 0.930 . S
H1178 C1166 0.956 . S
H1179 C1166 0.961 . S
H1180 C1166 0.961 . S
H1181 C1167 0.958 . S
H1182 C1167 0.961 . S
H1183 C1167 0.960 . S
C1184 C1185 1.391 . S
C1184 C1186 1.394 . S
C1184 H1200 0.931 . S
C1185 C1184 1.391 . S
C1185 C1189 1.376 . S
C1186 C1184 1.394 . S
C1186 C1187 1.369 . S
C1186 C1190 1.531 . S
C1187 C1186 1.369 . S
C1187 C1188 1.410 . S
C1187 C1195 1.503 . S
C1188 C1187 1.410 . S
C1188 C1189 1.392 . S
C1188 C1191 1.511 . S
C1189 C1185 1.376 . S
C1189 C1188 1.392 . S
C1189 H1201 0.929 . S
C1190 C1186 1.531 . S
C1190 H1202 0.960 . S
C1190 H1203 0.962 . S
C1190 H1204 0.960 . S
C1191 C1188 1.511 . S
C1191 H1205 0.961 . S
C1191 H1206 0.961 . S
C1191 H1207 0.961 . S
C1192 C1193 1.370 . S
C1192 C1194 1.363 . S
C1192 H1208 0.931 . S
C1193 C1192 1.370 . S
C1193 C1197 1.408 . S
C1194 C1192 1.363 . S
C1194 C1195 1.370 . S
C1194 C1198 1.524 . S
C1195 C1187 1.503 . S
C1195 C1194 1.370 . S
C1195 C1196 1.403 . S
C1196 C1195 1.403 . S
C1196 C1197 1.404 . S
C1196 C1199 1.539 . S
C1197 C1193 1.408 . S
C1197 C1196 1.404 . S
C1197 H1209 0.930 . S
C1198 C1194 1.524 . S
C1198 H1210 0.956 . S
C1198 H1211 0.961 . S
C1198 H1212 0.961 . S
C1199 C1196 1.539 . S
C1199 H1213 0.958 . S
C1199 H1214 0.961 . S
C1199 H1215 0.960 . S
H1200 C1184 0.931 . S
H1201 C1189 0.929 . S
H1202 C1190 0.960 . S
H1203 C1190 0.962 . S
H1204 C1190 0.960 . S
H1205 C1191 0.961 . S
H1206 C1191 0.961 . S
H1207 C1191 0.961 . S
H1208 C1192 0.931 . S
H1209 C1197 0.930 . S
H1210 C1198 0.956 . S
H1211 C1198 0.961 . S
H1212 C1198 0.961 . S
H1213 C1199 0.958 . S
H1214 C1199 0.961 . S
H1215 C1199 0.960 . S
C449 C241 2.125 . S
C457 C290 2.349 1_545 S
C489 C330 2.384 . S
C481 C277 2.182 . S
C521 C370 2.365 . S
C513 C169 2.114 . S
C553 C410 2.368 1_455 S
C545 C205 2.114 . S
C585 C303 2.348 . S
C577 C97 2.136 . S
C609 C133 2.225 . S
C617 C343 2.382 . S
C641 C25 2.131 . S
C649 C383 2.362 . S
C673 C61 2.100 . S
C681 C423 2.364 1_655 S
C713 C314 0.359 . S
C705 C211 0.461 . S
C745 C354 0.393 . S
C737 C247 0.326 . S
C777 C394 0.374 . S
C769 C253 0.452 . S
C801 C175 0.450 . S
C809 C434 0.382 . S
C833 C67 0.439 1_655 S
C841 C297 0.348 . S
C873 C337 0.408 . S
C865 C103 0.346 1_565 S
C905 C377 0.390 . S
C897 C109 0.299 . S
C929 C31 0.410 . S
C937 C417 0.400 . S
C961 C181 2.810 . S
C969 C291 3.190 . S
C993 C217 2.814 . S
C1001 C331 3.158 . S
C1033 C371 3.157 . S
C1025 C283 2.755 . S
C1065 C411 3.170 . S
C1057 C145 2.828 . S
C1089 C37 2.808 1_655 S
C1097 C310 3.203 . S
C1129 C350 3.154 . S
C1121 C73 2.816 1_565 S
C1161 C390 3.154 . S
C1153 C139 2.739 . S
C1185 C1 2.844 . S
C1193 C430 3.175 . S
