# Generated by pormake.
# Topology csq, (4,8)-cn, num edge types: 1
# Building blocks:
#     Node 0, Type 0, BuildingBlock: NAHDIM_clean_linker_0, # of connection points: 4
#     Node 1, Type 0, BuildingBlock: NAHDIM_clean_linker_0, # of connection points: 4
#     Node 2, Type 0, BuildingBlock: NAHDIM_clean_linker_0, # of connection points: 4
#     Node 3, Type 0, BuildingBlock: NAHDIM_clean_linker_0, # of connection points: 4
#     Node 4, Type 0, BuildingBlock: NAHDIM_clean_linker_0, # of connection points: 4
#     Node 5, Type 0, BuildingBlock: NAHDIM_clean_linker_0, # of connection points: 4
#     Node 6, Type 1, BuildingBlock: TAGTUT_clean_sbu_3, # of connection points: 8
#     Node 7, Type 1, BuildingBlock: TAGTUT_clean_sbu_3, # of connection points: 8
#     Node 8, Type 1, BuildingBlock: TAGTUT_clean_sbu_3, # of connection points: 8
#     Edge 9, Type (0, 1), BuildingBlock: OJICUG_clean_linker_0, # of connection points: 2
#     Edge 10, Type (0, 1), BuildingBlock: OJICUG_clean_linker_0, # of connection points: 2
#     Edge 11, Type (0, 1), BuildingBlock: OJICUG_clean_linker_0, # of connection points: 2
#     Edge 12, Type (0, 1), BuildingBlock: OJICUG_clean_linker_0, # of connection points: 2
#     Edge 13, Type (0, 1), BuildingBlock: OJICUG_clean_linker_0, # of connection points: 2
#     Edge 14, Type (0, 1), BuildingBlock: OJICUG_clean_linker_0, # of connection points: 2
#     Edge 15, Type (0, 1), BuildingBlock: OJICUG_clean_linker_0, # of connection points: 2
#     Edge 16, Type (0, 1), BuildingBlock: OJICUG_clean_linker_0, # of connection points: 2
#     Edge 17, Type (0, 1), BuildingBlock: OJICUG_clean_linker_0, # of connection points: 2
#     Edge 18, Type (0, 1), BuildingBlock: OJICUG_clean_linker_0, # of connection points: 2
#     Edge 19, Type (0, 1), BuildingBlock: OJICUG_clean_linker_0, # of connection points: 2
#     Edge 20, Type (0, 1), BuildingBlock: OJICUG_clean_linker_0, # of connection points: 2
#     Edge 21, Type (0, 1), BuildingBlock: OJICUG_clean_linker_0, # of connection points: 2
#     Edge 22, Type (0, 1), BuildingBlock: OJICUG_clean_linker_0, # of connection points: 2
#     Edge 23, Type (0, 1), BuildingBlock: OJICUG_clean_linker_0, # of connection points: 2
#     Edge 24, Type (0, 1), BuildingBlock: OJICUG_clean_linker_0, # of connection points: 2
#     Edge 25, Type (0, 1), BuildingBlock: OJICUG_clean_linker_0, # of connection points: 2
#     Edge 26, Type (0, 1), BuildingBlock: OJICUG_clean_linker_0, # of connection points: 2
#     Edge 27, Type (0, 1), BuildingBlock: OJICUG_clean_linker_0, # of connection points: 2
#     Edge 28, Type (0, 1), BuildingBlock: OJICUG_clean_linker_0, # of connection points: 2
#     Edge 29, Type (0, 1), BuildingBlock: OJICUG_clean_linker_0, # of connection points: 2
#     Edge 30, Type (0, 1), BuildingBlock: OJICUG_clean_linker_0, # of connection points: 2
#     Edge 31, Type (0, 1), BuildingBlock: OJICUG_clean_linker_0, # of connection points: 2
#     Edge 32, Type (0, 1), BuildingBlock: OJICUG_clean_linker_0, # of connection points: 2
# Relax obj value: 0.052
# Max RMSD: 0.122
# Mean RMSD: 0.092
data_MOF--net-csq--node1-TAGTUT_clean_sbu_3--node2-NAHDIM_clean_linker_0--edge1-OJICUG_clean_linker_0
_symmetry_space_group_name_H-M    P1
_symmetry_Int_Tables_number       1
_symmetry_cell_setting            triclinic
loop_
_symmetry_equiv_pos_as_xyz
'x, y, z'
_cell_length_a     55.579713
_cell_length_b     54.811002
_cell_length_c     21.478497
_cell_angle_alpha  92.564416
_cell_angle_beta   92.56268
_cell_angle_gamma 119.95092
loop_
_atom_site_label
_atom_site_type_symbol
_atom_site_fract_x
_atom_site_fract_y
_atom_site_fract_z
_atom_type_partial_charge
C0 C 0.40802 0.56801 0.53025 0.0
C1 C 0.38945 0.53986 0.49193 0.0
C2 C 0.36151 0.5333 0.39557 0.0
C3 C 0.34044 0.50529 0.40059 0.0
C4 C 0.31514 0.4936 0.36375 0.0
C5 C 0.31079 0.51036 0.32152 0.0
C6 C 0.33189 0.53874 0.31705 0.0
C7 C 0.35723 0.54965 0.35339 0.0
C8 C 0.29329 0.46315 0.36893 0.0
C9 C 0.32788 0.55738 0.27315 0.0
C10 C 0.17377 0.53515 0.43007 0.0
C11 C 0.14744 0.51322 0.38992 0.0
C12 C 0.16878 0.4876 0.34207 0.0
C13 C 0.18557 0.5081 0.30239 0.0
C14 C 0.20735 0.50673 0.27493 0.0
C15 C 0.212 0.48414 0.28658 0.0
C16 C 0.1942 0.46272 0.32396 0.0
C17 C 0.17269 0.4647 0.35104 0.0
C18 C 0.22574 0.52972 0.2345 0.0
C19 C 0.19827 0.43809 0.33624 0.0
C20 C 0.15654 0.4021 0.90164 0.0
C21 C 0.17048 0.43155 0.91176 0.0
C22 C 0.19692 0.44629 0.94413 0.0
C23 C 0.20904 0.43099 0.96877 0.0
C24 C 0.19535 0.40127 0.95633 0.0
C25 C 0.16935 0.38723 0.92193 0.0
C26 C 0.2114 0.47806 0.95369 0.0
C27 C 0.20768 0.38424 0.98121 0.0
C28 C 0.43159 0.51146 0.08428 0.0
C29 C 0.41214 0.49089 0.03001 0.0
C30 C 0.36872 0.49016 0.99603 0.0
C31 C 0.35819 0.50804 0.98413 0.0
C32 C 0.32969 0.49854 0.98557 0.0
C33 C 0.31139 0.47042 0.99935 0.0
C34 C 0.32135 0.4513 0.00364 0.0
C35 C 0.34998 0.46134 0.00187 0.0
C36 C 0.31958 0.51927 0.97851 0.0
C37 C 0.30212 0.4209 0.01593 0.0
C38 C 0.28511 0.49755 0.27855 0.0
C39 C 0.26094 0.4956 0.30029 0.0
C40 C 0.23619 0.48364 0.26169 0.0
C41 C 0.23525 0.47287 0.20003 0.0
C42 C 0.21042 0.45946 0.16098 0.0
C43 C 0.21003 0.44976 0.09968 0.0
C44 C 0.23465 0.45393 0.07442 0.0
C45 C 0.23494 0.44565 0.01106 0.0
C46 C 0.26007 0.45102 0.9873 0.0
C47 C 0.28479 0.4636 0.02591 0.0
C48 C 0.28462 0.4708 0.08984 0.0
C49 C 0.30896 0.48221 0.13047 0.0
C50 C 0.30896 0.49025 0.19256 0.0
C51 C 0.28483 0.48789 0.21631 0.0
C52 C 0.25988 0.4757 0.1768 0.0
C53 C 0.25968 0.46671 0.11367 0.0
C54 C 0.08349 0.35733 0.8993 0.0
C55 C 0.10801 0.38761 0.90195 0.0
O56 O 0.38618 0.54509 0.43057 0.0
O57 O 0.39688 0.5019 0.00287 0.0
O58 O 0.13017 0.38763 0.8749 0.0
O59 O 0.14889 0.48924 0.37334 0.0
H60 H 0.36902 0.53016 0.51315 0.0
H61 H 0.39787 0.58106 0.52967 0.0
H62 H 0.42858 0.58003 0.51058 0.0
H63 H 0.41128 0.56433 0.5796 0.0
H64 H 0.34395 0.49238 0.43231 0.0
H65 H 0.37368 0.57122 0.34978 0.0
H66 H 0.27392 0.46199 0.38403 0.0
H67 H 0.30018 0.45271 0.4028 0.0
H68 H 0.28813 0.45124 0.32247 0.0
H69 H 0.3444 0.57989 0.28199 0.0
H70 H 0.30727 0.55566 0.27783 0.0
H71 H 0.32831 0.55031 0.22419 0.0
H72 H 0.14489 0.52256 0.34692 0.0
H73 H 0.17166 0.55349 0.44624 0.0
H74 H 0.19244 0.54337 0.403 0.0
H75 H 0.1773 0.5256 0.47156 0.0
H76 H 0.18202 0.52537 0.29349 0.0
H77 H 0.15929 0.44877 0.38098 0.0
H78 H 0.2244 0.52041 0.18661 0.0
H79 H 0.24779 0.53984 0.25359 0.0
H80 H 0.21984 0.54626 0.23137 0.0
H81 H 0.18137 0.42209 0.36235 0.0
H82 H 0.21847 0.44583 0.3638 0.0
H83 H 0.19912 0.42778 0.29133 0.0
H84 H 0.1137 0.39484 0.95263 0.0
H85 H 0.16053 0.44292 0.8948 0.0
H86 H 0.15833 0.36445 0.91328 0.0
H87 H 0.2092 0.48425 0.00207 0.0
H88 H 0.20234 0.48696 0.92082 0.0
H89 H 0.23399 0.48762 0.94742 0.0
H90 H 0.19349 0.36115 0.97108 0.0
H91 H 0.21251 0.38887 0.03256 0.0
H92 H 0.22752 0.39032 0.95973 0.0
H93 H 0.39874 0.47097 0.05186 0.0
H94 H 0.44622 0.50472 0.10251 0.0
H95 H 0.41905 0.51173 0.12288 0.0
H96 H 0.44355 0.53333 0.06964 0.0
H97 H 0.37263 0.53001 0.97752 0.0
H98 H 0.35734 0.44663 0.00724 0.0
H99 H 0.3165 0.52615 0.02542 0.0
H100 H 0.29924 0.50915 0.95039 0.0
H101 H 0.33475 0.53827 0.95599 0.0
H102 H 0.31193 0.40773 0.00842 0.0
H103 H 0.28258 0.41188 0.98509 0.0
H104 H 0.29647 0.41984 0.06508 0.0
H105 H 0.26147 0.50375 0.34763 0.0
H106 H 0.191 0.45626 0.17748 0.0
H107 H 0.19025 0.43942 0.07207 0.0
H108 H 0.26037 0.44533 0.93844 0.0
H109 H 0.32842 0.48513 0.11502 0.0
H110 H 0.32834 0.49881 0.22132 0.0
H111 H 0.06535 0.35697 0.92003 0.0
H112 H 0.08952 0.34418 0.92649 0.0
H113 H 0.07723 0.34781 0.85039 0.0
C114 C 0.91946 0.31851 0.52095 0.0
C115 C 0.92299 0.33926 0.4717 0.0
C116 C 0.88128 0.31531 0.39719 0.0
C117 C 0.88797 0.29648 0.36644 0.0
C118 C 0.8703 0.27745 0.31673 0.0
C119 C 0.8453 0.2769 0.29801 0.0
C120 C 0.83872 0.29605 0.32839 0.0
C121 C 0.85691 0.31507 0.37728 0.0
C122 C 0.87801 0.2574 0.28527 0.0
C123 C 0.81197 0.29578 0.31077 0.0
C124 C 0.71695 0.06389 0.38167 0.0
C125 C 0.71265 0.08901 0.37255 0.0
C126 C 0.7337 0.12301 0.29573 0.0
C127 C 0.73144 0.14562 0.32188 0.0
C128 C 0.74845 0.17313 0.30423 0.0
C129 C 0.76852 0.17807 0.2607 0.0
C130 C 0.77135 0.1553 0.23589 0.0
C131 C 0.75337 0.12791 0.25266 0.0
C132 C 0.74448 0.19673 0.33076 0.0
C133 C 0.79303 0.15975 0.19084 0.0
C134 C 0.68428 0.15777 0.91037 0.0
C135 C 0.68318 0.17948 0.94523 0.0
C136 C 0.70777 0.20405 0.96829 0.0
C137 C 0.73385 0.20672 0.95704 0.0
C138 C 0.73493 0.18573 0.91853 0.0
C139 C 0.71005 0.16161 0.8953 0.0
C140 C 0.70591 0.22628 0.00836 0.0
C141 C 0.76233 0.18791 0.90524 0.0
C142 C 0.91793 0.40997 0.86051 0.0
C143 C 0.8944 0.39342 0.89976 0.0
C144 C 0.85734 0.34499 0.90473 0.0
C145 C 0.84285 0.34856 0.95284 0.0
C146 C 0.8245 0.32548 0.98523 0.0
C147 C 0.8218 0.29864 0.97128 0.0
C148 C 0.83673 0.29524 0.923 0.0
C149 C 0.85365 0.31831 0.88925 0.0
C150 C 0.80782 0.32983 0.03356 0.0
C151 C 0.83471 0.26722 0.90601 0.0
C152 C 0.82439 0.25429 0.25215 0.0
C153 C 0.8075 0.22771 0.27407 0.0
C154 C 0.78487 0.20639 0.23672 0.0
C155 C 0.77819 0.21196 0.17683 0.0
C156 C 0.75413 0.19182 0.1405 0.0
C157 C 0.74788 0.19715 0.08132 0.0
C158 C 0.76549 0.22281 0.05577 0.0
C159 C 0.75926 0.22814 0.9952 0.0
C160 C 0.77755 0.25335 0.97005 0.0
C161 C 0.80224 0.27367 0.00396 0.0
C162 C 0.80839 0.26908 0.06578 0.0
C163 C 0.83259 0.28909 0.10233 0.0
C164 C 0.83776 0.28455 0.16375 0.0
C165 C 0.8196 0.25926 0.18989 0.0
C166 C 0.79594 0.23823 0.15273 0.0
C167 C 0.78989 0.24346 0.09147 0.0
C168 C 0.632 0.11298 0.97592 0.0
C169 C 0.63439 0.122 0.90886 0.0
O170 O 0.89711 0.33354 0.44686 0.0
O171 O 0.87506 0.36685 0.87247 0.0
O172 O 0.66135 0.13253 0.89171 0.0
O173 O 0.7172 0.09628 0.3116 0.0
H174 H 0.93505 0.33661 0.43467 0.0
H175 H 0.90992 0.29677 0.49829 0.0
H176 H 0.90553 0.31845 0.55652 0.0
H177 H 0.94002 0.32407 0.54416 0.0
H178 H 0.90653 0.29599 0.38148 0.0
H179 H 0.85189 0.3296 0.40123 0.0
H180 H 0.86425 0.23576 0.29951 0.0
H181 H 0.89998 0.26342 0.29798 0.0
H182 H 0.87483 0.25677 0.23367 0.0
H183 H 0.80925 0.311 0.3413 0.0
H184 H 0.79387 0.27429 0.31383 0.0
H185 H 0.81183 0.30124 0.26167 0.0
H186 H 0.72852 0.10669 0.40547 0.0
H187 H 0.71352 0.05775 0.43051 0.0
H188 H 0.73863 0.06975 0.37248 0.0
H189 H 0.70241 0.04546 0.34906 0.0
H190 H 0.71593 0.1416 0.35489 0.0
H191 H 0.75496 0.11024 0.2331 0.0
H192 H 0.74106 0.20778 0.29225 0.0
H193 H 0.76361 0.21242 0.3595 0.0
H194 H 0.72659 0.18899 0.3604 0.0
H195 H 0.79638 0.14141 0.18637 0.0
H196 H 0.8132 0.17901 0.20615 0.0
H197 H 0.7861 0.16271 0.14395 0.0
H198 H 0.62834 0.13842 0.90565 0.0
H199 H 0.66338 0.17714 0.95631 0.0
H200 H 0.71063 0.14493 0.86754 0.0
H201 H 0.71102 0.22478 0.0581 0.0
H202 H 0.68474 0.22365 0.00387 0.0
H203 H 0.72125 0.24772 0.99552 0.0
H204 H 0.75962 0.17019 0.87284 0.0
H205 H 0.77345 0.18802 0.94962 0.0
H206 H 0.77566 0.20808 0.88435 0.0
H207 H 0.88476 0.40516 0.92064 0.0
H208 H 0.91617 0.42895 0.84978 0.0
H209 H 0.91095 0.39965 0.81148 0.0
H210 H 0.95266 0.4133 0.91165 0.0
H211 H 0.84526 0.36917 0.96395 0.0
H212 H 0.86473 0.31576 0.85157 0.0
H213 H 0.81715 0.33081 0.081 0.0
H214 H 0.786 0.31199 0.02973 0.0
H215 H 0.80757 0.34981 0.02884 0.0
H216 H 0.85284 0.26987 0.88099 0.0
H217 H 0.81564 0.25408 0.87452 0.0
H218 H 0.83333 0.25567 0.94811 0.0
H219 H 0.81177 0.22369 0.32113 0.0
H220 H 0.73969 0.17171 0.15748 0.0
H221 H 0.72905 0.18067 0.05584 0.0
H222 H 0.77279 0.25694 0.92297 0.0
H223 H 0.84761 0.30865 0.08418 0.0
H224 H 0.8564 0.30084 0.19027 0.0
H225 H 0.63924 0.09755 0.98128 0.0
H226 H 0.61003 0.10321 0.98814 0.0
H227 H 0.64488 0.1316 0.00946 0.0
C228 C 0.51454 0.82407 0.43934 0.0
C229 C 0.53518 0.84827 0.40296 0.0
C230 C 0.53013 0.82892 0.29499 0.0
C231 C 0.55664 0.8323 0.28887 0.0
C232 C 0.56077 0.81619 0.24243 0.0
C233 C 0.53793 0.79635 0.20146 0.0
C234 C 0.51149 0.79387 0.2058 0.0
C235 C 0.50806 0.81056 0.25206 0.0
C236 C 0.58938 0.81981 0.23814 0.0
C237 C 0.48664 0.77285 0.16316 0.0
C238 C 0.47547 0.63102 0.35363 0.0
C239 C 0.49158 0.62031 0.3158 0.0
C240 C 0.5226 0.66191 0.26022 0.0
C241 C 0.50191 0.66084 0.21815 0.0
C242 C 0.50819 0.68268 0.17879 0.0
C243 C 0.53567 0.70592 0.18135 0.0
C244 C 0.55683 0.70624 0.22099 0.0
C245 C 0.54997 0.68416 0.2599 0.0
C246 C 0.48516 0.68162 0.13663 0.0
C247 C 0.58639 0.73055 0.22433 0.0
C248 C 0.58084 0.69389 0.77382 0.0
C249 C 0.5541 0.69009 0.77425 0.0
C250 C 0.54822 0.70659 0.81568 0.0
C251 C 0.56993 0.72797 0.8566 0.0
C252 C 0.5972 0.73215 0.85597 0.0
C253 C 0.60239 0.71501 0.81462 0.0
C254 C 0.51892 0.70154 0.81457 0.0
C255 C 0.62096 0.75517 0.89796 0.0
C256 C 0.54295 0.91146 0.76595 0.0
C257 C 0.55738 0.89699 0.7911 0.0
C258 C 0.54784 0.84934 0.8048 0.0
C259 C 0.52583 0.82175 0.80616 0.0
C260 C 0.52916 0.80181 0.83827 0.0
C261 C 0.55549 0.80956 0.86818 0.0
C262 C 0.57821 0.83717 0.86482 0.0
C263 C 0.57411 0.85689 0.83349 0.0
C264 C 0.50446 0.77253 0.84077 0.0
C265 C 0.60668 0.84582 0.89477 0.0
C266 C 0.54101 0.77595 0.15959 0.0
C267 C 0.53839 0.75197 0.18565 0.0
C268 C 0.54114 0.73163 0.15036 0.0
C269 C 0.54752 0.73554 0.08736 0.0
C270 C 0.55164 0.71609 0.05121 0.0
C271 C 0.55761 0.72006 0.98889 0.0
C272 C 0.55917 0.74334 0.96021 0.0
C273 C 0.56456 0.74727 0.89658 0.0
C274 C 0.56417 0.76962 0.86867 0.0
C275 C 0.55899 0.78859 0.90276 0.0
C276 C 0.55521 0.78605 0.96728 0.0
C277 C 0.55139 0.80566 0.00373 0.0
C278 C 0.54738 0.80279 0.0671 0.0
C279 C 0.54605 0.77966 0.09582 0.0
C280 C 0.54961 0.75949 0.05978 0.0
C281 C 0.55486 0.76307 0.99583 0.0
C282 C 0.62791 0.68426 0.69554 0.0
C283 C 0.60462 0.6688 0.73888 0.0
O284 O 0.52523 0.8435 0.34054 0.0
O285 O 0.54288 0.86812 0.77616 0.0
O286 O 0.58511 0.67736 0.73206 0.0
O287 O 0.51718 0.64258 0.30291 0.0
H288 H 0.55557 0.84913 0.4082 0.0
H289 H 0.51226 0.8038 0.42016 0.0
H290 H 0.49377 0.82244 0.43556 0.0
H291 H 0.52216 0.82748 0.48946 0.0
H292 H 0.57416 0.84755 0.31988 0.0
H293 H 0.48782 0.80859 0.25644 0.0
H294 H 0.58924 0.80063 0.25322 0.0
H295 H 0.60559 0.8384 0.26798 0.0
H296 H 0.59507 0.82221 0.18897 0.0
H297 H 0.46757 0.77379 0.172 0.0
H298 H 0.48251 0.75115 0.1698 0.0
H299 H 0.49114 0.7769 0.11366 0.0
H300 H 0.47908 0.60894 0.27135 0.0
H301 H 0.45553 0.61292 0.36606 0.0
H302 H 0.47047 0.64473 0.32588 0.0
H303 H 0.48791 0.64347 0.39723 0.0
H304 H 0.48069 0.64354 0.21684 0.0
H305 H 0.56587 0.68465 0.29192 0.0
H306 H 0.49136 0.68467 0.0879 0.0
H307 H 0.48157 0.69909 0.15186 0.0
H308 H 0.46528 0.6613 0.13705 0.0
H309 H 0.60106 0.72593 0.25102 0.0
H310 H 0.58738 0.74958 0.24749 0.0
H311 H 0.5933 0.7356 0.17651 0.0
H312 H 0.61436 0.67395 0.78765 0.0
H313 H 0.5377 0.67394 0.74207 0.0
H314 H 0.62338 0.71871 0.81316 0.0
H315 H 0.51266 0.70192 0.86282 0.0
H316 H 0.50364 0.68104 0.78906 0.0
H317 H 0.51806 0.71866 0.79076 0.0
H318 H 0.64109 0.75612 0.89093 0.0
H319 H 0.61644 0.75157 0.9476 0.0
H320 H 0.62313 0.77595 0.88896 0.0
H321 H 0.56505 0.9029 0.84151 0.0
H322 H 0.57017 0.93794 0.70283 0.0
H323 H 0.53734 0.91979 0.80841 0.0
H324 H 0.52081 0.89458 0.75132 0.0
H325 H 0.50574 0.81613 0.7834 0.0
H326 H 0.59145 0.8781 0.8312 0.0
H327 H 0.50117 0.76716 0.89008 0.0
H328 H 0.50865 0.75694 0.81634 0.0
H329 H 0.48501 0.77043 0.81855 0.0
H330 H 0.62253 0.86767 0.8854 0.0
H331 H 0.61349 0.83106 0.87712 0.0
H332 H 0.60571 0.84451 0.94611 0.0
H333 H 0.53375 0.7489 0.23422 0.0
H334 H 0.5504 0.69769 0.07089 0.0
H335 H 0.56065 0.70448 0.96321 0.0
H336 H 0.56736 0.77195 0.81931 0.0
H337 H 0.5517 0.82359 0.98376 0.0
H338 H 0.54483 0.81863 0.0931 0.0
H339 H 0.61941 0.68098 0.64617 0.0
H340 H 0.64304 0.67664 0.69911 0.0
H341 H 0.63919 0.70728 0.70939 0.0
C342 C 0.97013 0.64166 0.35844 0.0
C343 C 0.94479 0.61183 0.35289 0.0
C344 C 0.90831 0.59208 0.27008 0.0
C345 C 0.88833 0.56579 0.28846 0.0
C346 C 0.86029 0.55354 0.26605 0.0
C347 C 0.8522 0.56838 0.22577 0.0
C348 C 0.87233 0.59555 0.20946 0.0
C349 C 0.90032 0.60675 0.23074 0.0
C350 C 0.8395 0.5245 0.28405 0.0
C351 C 0.86447 0.61259 0.1686 0.0
C352 C 0.65507 0.54424 0.38877 0.0
C353 C 0.68274 0.55494 0.36352 0.0
C354 C 0.7104 0.53709 0.31521 0.0
C355 C 0.72907 0.5628 0.2912 0.0
C356 C 0.75052 0.56495 0.25569 0.0
C357 C 0.75355 0.54105 0.2446 0.0
C358 C 0.73525 0.51536 0.26994 0.0
C359 C 0.71377 0.5137 0.30464 0.0
C360 C 0.76964 0.59261 0.22903 0.0
C361 C 0.73816 0.48957 0.25959 0.0
C362 C 0.66951 0.48204 0.86939 0.0
C363 C 0.69121 0.51004 0.86786 0.0
C364 C 0.71846 0.51805 0.89009 0.0
C365 C 0.72406 0.49755 0.91359 0.0
C366 C 0.70264 0.46894 0.91078 0.0
C367 C 0.67557 0.46152 0.88823 0.0
C368 C 0.74106 0.54859 0.89061 0.0
C369 C 0.70813 0.4465 0.93412 0.0
C370 C 0.9205 0.53128 0.96859 0.0
C371 C 0.91242 0.51662 0.90231 0.0
C372 C 0.87162 0.5209 0.87372 0.0
C373 C 0.86537 0.54206 0.86201 0.0
C374 C 0.83993 0.53936 0.87721 0.0
C375 C 0.82028 0.51462 0.90363 0.0
C376 C 0.82513 0.49176 0.90824 0.0
C377 C 0.8509 0.4952 0.89366 0.0
C378 C 0.83514 0.56392 0.87062 0.0
C379 C 0.80407 0.46465 0.93388 0.0
C380 C 0.82331 0.5547 0.19631 0.0
C381 C 0.80225 0.55348 0.23151 0.0
C382 C 0.77515 0.54256 0.20442 0.0
C383 C 0.76893 0.53339 0.14013 0.0
C384 C 0.74229 0.52377 0.11061 0.0
C385 C 0.73652 0.51499 0.0472 0.0
C386 C 0.75712 0.51526 0.01092 0.0
C387 C 0.75157 0.50649 0.94629 0.0
C388 C 0.77239 0.50656 0.91187 0.0
C389 C 0.7988 0.51541 0.94052 0.0
C390 C 0.80489 0.52474 0.00471 0.0
C391 C 0.83147 0.53412 0.03451 0.0
C392 C 0.83741 0.54353 0.09729 0.0
C393 C 0.81709 0.54411 0.13293 0.0
C394 C 0.78997 0.53399 0.10442 0.0
C395 C 0.78397 0.52462 0.03999 0.0
C396 C 0.61054 0.47593 0.92151 0.0
C397 C 0.63005 0.48983 0.86978 0.0
O398 O 0.93541 0.60375 0.29065 0.0
O399 O 0.89799 0.52646 0.86702 0.0
O400 O 0.64256 0.47424 0.85367 0.0
O401 O 0.68881 0.53391 0.34803 0.0
H402 H 0.9285 0.61301 0.37933 0.0
H403 H 0.9642 0.65662 0.33951 0.0
H404 H 0.98715 0.64246 0.33172 0.0
H405 H 0.97793 0.64862 0.40827 0.0
H406 H 0.89486 0.55466 0.31916 0.0
H407 H 0.91604 0.62723 0.21756 0.0
H408 H 0.82368 0.52581 0.31154 0.0
H409 H 0.8495 0.51504 0.31238 0.0
H410 H 0.82841 0.51026 0.2414 0.0
H411 H 0.88089 0.63524 0.17207 0.0
H412 H 0.8446 0.61092 0.18154 0.0
H413 H 0.86148 0.60424 0.11912 0.0
H414 H 0.70038 0.57354 0.39103 0.0
H415 H 0.6598 0.55355 0.43863 0.0
H416 H 0.648 0.52207 0.40168 0.0
H417 H 0.63279 0.55357 0.32164 0.0
H418 H 0.72686 0.58119 0.2993 0.0
H419 H 0.69935 0.49402 0.32348 0.0
H420 H 0.76903 0.58931 0.17746 0.0
H421 H 0.7914 0.60059 0.24805 0.0
H422 H 0.76394 0.60899 0.24008 0.0
H423 H 0.72389 0.47201 0.28707 0.0
H424 H 0.75992 0.49498 0.2726 0.0
H425 H 0.73348 0.48212 0.20926 0.0
H426 H 0.64563 0.51139 0.89033 0.0
H427 H 0.68687 0.52572 0.84999 0.0
H428 H 0.65877 0.43984 0.88777 0.0
H429 H 0.74813 0.55764 0.93968 0.0
H430 H 0.73387 0.5615 0.86613 0.0
H431 H 0.75931 0.55014 0.86801 0.0
H432 H 0.68965 0.42498 0.92548 0.0
H433 H 0.71414 0.45085 0.98513 0.0
H434 H 0.72583 0.44704 0.91088 0.0
H435 H 0.89934 0.49356 0.90639 0.0
H436 H 0.93357 0.52467 0.99542 0.0
H437 H 0.90145 0.52523 0.99354 0.0
H438 H 0.93212 0.55461 0.96742 0.0
H439 H 0.88126 0.56154 0.84501 0.0
H440 H 0.85486 0.478 0.89964 0.0
H441 H 0.83726 0.5744 0.91763 0.0
H442 H 0.8137 0.55637 0.84993 0.0
H443 H 0.85031 0.5798 0.84111 0.0
H444 H 0.80852 0.44729 0.92388 0.0
H445 H 0.78274 0.45803 0.91377 0.0
H446 H 0.8045 0.46816 0.98533 0.0
H447 H 0.80704 0.56132 0.28037 0.0
H448 H 0.72562 0.52311 0.13607 0.0
H449 H 0.71567 0.50793 0.02708 0.0
H450 H 0.76799 0.49965 0.86249 0.0
H451 H 0.84818 0.5345 0.00979 0.0
H452 H 0.85821 0.55039 0.11744 0.0
H453 H 0.59876 0.48691 0.9318 0.0
H454 H 0.59566 0.45323 0.90829 0.0
H455 H 0.62301 0.47739 0.96487 0.0
C456 C 0.2858 0.88913 0.71119 0.0
C457 C 0.30718 0.89492 0.76563 0.0
C458 C 0.28862 0.85492 0.83305 0.0
C459 C 0.27076 0.8614 0.86507 0.0
C460 C 0.2564 0.84559 0.91435 0.0
C461 C 0.25961 0.82264 0.93112 0.0
C462 C 0.27726 0.81585 0.89827 0.0
C463 C 0.29161 0.83221 0.84987 0.0
C464 C 0.23745 0.85314 0.94794 0.0
C465 C 0.28068 0.79109 0.91366 0.0
C466 C 0.07339 0.67786 0.77297 0.0
C467 C 0.0978 0.67789 0.80882 0.0
C468 C 0.12185 0.70252 0.9088 0.0
C469 C 0.14534 0.69942 0.90646 0.0
C470 C 0.17017 0.71821 0.94201 0.0
C471 C 0.1717 0.741 0.97929 0.0
C472 C 0.14761 0.74338 0.98384 0.0
C473 C 0.12274 0.72364 0.9494 0.0
C474 C 0.19517 0.71449 0.93707 0.0
C475 C 0.14856 0.76766 0.02207 0.0
C476 C 0.19041 0.72277 0.38946 0.0
C477 C 0.20453 0.71326 0.35189 0.0
C478 C 0.22269 0.73063 0.3091 0.0
C479 C 0.2266 0.75799 0.30362 0.0
C480 C 0.21337 0.76809 0.34366 0.0
C481 C 0.19558 0.75036 0.38661 0.0
C482 C 0.23709 0.71948 0.26855 0.0
C483 C 0.21733 0.79726 0.33958 0.0
C484 C 0.44072 0.92212 0.20368 0.0
C485 C 0.41876 0.91484 0.25101 0.0
C486 C 0.37704 0.8685 0.25662 0.0
C487 C 0.36625 0.83994 0.23846 0.0
C488 C 0.33741 0.82117 0.2315 0.0
C489 C 0.31898 0.83125 0.24388 0.0
C490 C 0.32978 0.85971 0.26648 0.0
C491 C 0.35875 0.87808 0.27278 0.0
C492 C 0.32662 0.79082 0.2083 0.0
C493 C 0.31066 0.87091 0.28151 0.0
C494 C 0.24315 0.80457 0.98019 0.0
C495 C 0.21589 0.78332 0.96255 0.0
C496 C 0.19934 0.76442 0.00482 0.0
C497 C 0.20992 0.76723 0.06749 0.0
C498 C 0.19369 0.7491 0.11183 0.0
C499 C 0.20442 0.75218 0.17344 0.0
C500 C 0.23214 0.77285 0.19246 0.0
C501 C 0.2436 0.77563 0.25445 0.0
C502 C 0.27174 0.79527 0.27045 0.0
C503 C 0.28868 0.81278 0.22653 0.0
C504 C 0.27719 0.81142 0.1655 0.0
C505 C 0.29335 0.82972 0.12117 0.0
C506 C 0.28207 0.82794 0.06091 0.0
C507 C 0.25443 0.80728 0.04207 0.0
C508 C 0.2377 0.78864 0.08599 0.0
C509 C 0.24897 0.79107 0.14813 0.0
C510 C 0.12562 0.68708 0.37235 0.0
C511 C 0.14715 0.68036 0.40156 0.0
O512 O 0.3029 0.86933 0.78488 0.0
O513 O 0.40505 0.88601 0.25721 0.0
O514 O 0.1706 0.70509 0.42596 0.0
O515 O 0.09834 0.68594 0.87127 0.0
H516 H 0.30483 0.90749 0.80447 0.0
H517 H 0.2644 0.87564 0.72569 0.0
H518 H 0.28889 0.878 0.67053 0.0
H519 H 0.28752 0.9091 0.69672 0.0
H520 H 0.26751 0.87835 0.85141 0.0
H521 H 0.30522 0.82722 0.82445 0.0
H522 H 0.21551 0.83596 0.93769 0.0
H523 H 0.23929 0.8732 0.93367 0.0
H524 H 0.24233 0.85512 0.99926 0.0
H525 H 0.2938 0.78757 0.88104 0.0
H526 H 0.25998 0.77158 0.91187 0.0
H527 H 0.29045 0.79478 0.96191 0.0
H528 H 0.11719 0.69373 0.78864 0.0
H529 H 0.07289 0.67238 0.7223 0.0
H530 H 0.07569 0.69919 0.77863 0.0
H531 H 0.05332 0.66238 0.79094 0.0
H532 H 0.14443 0.68259 0.87623 0.0
H533 H 0.10431 0.72558 0.95125 0.0
H534 H 0.20671 0.71873 0.98351 0.0
H535 H 0.20948 0.72981 0.90544 0.0
H536 H 0.18916 0.69288 0.91784 0.0
H537 H 0.12801 0.7665 0.02058 0.0
H538 H 0.16402 0.78796 0.00434 0.0
H539 H 0.15541 0.76781 0.07148 0.0
H540 H 0.15275 0.67022 0.36314 0.0
H541 H 0.201 0.69208 0.35547 0.0
H542 H 0.18468 0.75753 0.41617 0.0
H543 H 0.22912 0.71704 0.21901 0.0
H544 H 0.2337 0.69873 0.28206 0.0
H545 H 0.25982 0.73477 0.27164 0.0
H546 H 0.20559 0.80199 0.37399 0.0
H547 H 0.21034 0.7993 0.29183 0.0
H548 H 0.23979 0.81329 0.34792 0.0
H549 H 0.40416 0.92128 0.23075 0.0
H550 H 0.45262 0.9453 0.19963 0.0
H551 H 0.43033 0.91162 0.15701 0.0
H552 H 0.45543 0.9148 0.21741 0.0
H553 H 0.38053 0.83262 0.22733 0.0
H554 H 0.36693 0.89989 0.28962 0.0
H555 H 0.31535 0.78649 0.1615 0.0
H556 H 0.31157 0.77647 0.24027 0.0
H557 H 0.34361 0.78585 0.20466 0.0
H558 H 0.3222 0.89285 0.30364 0.0
H559 H 0.29513 0.85709 0.31336 0.0
H560 H 0.29902 0.87063 0.23784 0.0
H561 H 0.20763 0.78098 0.9145 0.0
H562 H 0.17243 0.73248 0.09945 0.0
H563 H 0.19084 0.73783 0.20571 0.0
H564 H 0.28064 0.79667 0.31738 0.0
H565 H 0.3149 0.84578 0.13257 0.0
H566 H 0.29543 0.8427 0.02897 0.0
H567 H 0.12035 0.69905 0.40689 0.0
H568 H 0.1063 0.66728 0.35491 0.0
H569 H 0.13412 0.70011 0.33213 0.0
C570 C 0.38454 0.30136 0.49454 0.0
C571 C 0.41181 0.3093 0.46515 0.0
C572 C 0.4195 0.28827 0.37109 0.0
C573 C 0.44843 0.30002 0.38036 0.0
C574 C 0.46206 0.28835 0.34748 0.0
C575 C 0.4463 0.26393 0.30586 0.0
C576 C 0.41705 0.25213 0.29644 0.0
C577 C 0.4042 0.26503 0.32791 0.0
C578 C 0.49327 0.30185 0.35827 0.0
C579 C 0.39914 0.22545 0.25474 0.0
C580 C 0.49832 0.09987 0.44011 0.0
C581 C 0.48499 0.11469 0.41123 0.0
C582 C 0.49188 0.16154 0.4012 0.0
C583 C 0.46658 0.15225 0.36553 0.0
C584 C 0.46204 0.171 0.33156 0.0
C585 C 0.48321 0.19966 0.33328 0.0
C586 C 0.50808 0.20946 0.37181 0.0
C587 C 0.51204 0.19021 0.40567 0.0
C588 C 0.43488 0.15999 0.29245 0.0
C589 C 0.53078 0.24002 0.37542 0.0
C590 C 0.53922 0.17828 0.9488 0.0
C591 C 0.51201 0.1619 0.96652 0.0
C592 C 0.49834 0.17475 0.99461 0.0
C593 C 0.51264 0.2045 0.00697 0.0
C594 C 0.54017 0.22096 0.98917 0.0
C595 C 0.55288 0.20761 0.95913 0.0
C596 C 0.46854 0.15657 0.0101 0.0
C597 C 0.55617 0.25269 0.00154 0.0
C598 C 0.40108 0.30545 0.85684 0.0
C599 C 0.43217 0.31551 0.85452 0.0
C600 C 0.44585 0.28173 0.8815 0.0
C601 C 0.43018 0.25317 0.89184 0.0
C602 C 0.43944 0.24153 0.93742 0.0
C603 C 0.46537 0.25886 0.97205 0.0
C604 C 0.48176 0.28761 0.96007 0.0
C605 C 0.47169 0.2988 0.91515 0.0
C606 C 0.42149 0.21076 0.9487 0.0
C607 C 0.50995 0.30639 0.99442 0.0
C608 C 0.46007 0.24938 0.27696 0.0
C609 C 0.46724 0.23371 0.31547 0.0
C610 C 0.47959 0.21879 0.29208 0.0
C611 C 0.4856 0.21984 0.22869 0.0
C612 C 0.49902 0.20592 0.20432 0.0
C613 C 0.50392 0.20614 0.14134 0.0
C614 C 0.49485 0.21957 0.09995 0.0
C615 C 0.49845 0.21871 0.03524 0.0
C616 C 0.48873 0.23188 0.99541 0.0
C617 C 0.4759 0.24643 0.01825 0.0
C618 C 0.47271 0.24817 0.08302 0.0
C619 C 0.46056 0.26327 0.10799 0.0
C620 C 0.4572 0.26448 0.17178 0.0
C621 C 0.46491 0.24978 0.21265 0.0
C622 C 0.47762 0.23481 0.18852 0.0
C623 C 0.48183 0.23428 0.12383 0.0
C624 C 0.58369 0.15008 0.94657 0.0
C625 C 0.55333 0.14294 0.93953 0.0
O626 O 0.40571 0.2988 0.40301 0.0
O627 O 0.43548 0.29259 0.83971 0.0
O628 O 0.55263 0.16641 0.92056 0.0
O629 O 0.49772 0.14325 0.42978 0.0
H630 H 0.42178 0.29904 0.49101 0.0
H631 H 0.37074 0.27805 0.49012 0.0
H632 H 0.37357 0.31105 0.4707 0.0
H633 H 0.38863 0.30862 0.54504 0.0
H634 H 0.46042 0.31838 0.41294 0.0
H635 H 0.38187 0.25625 0.32094 0.0
H636 H 0.49828 0.28856 0.38761 0.0
H637 H 0.50292 0.32333 0.38248 0.0
H638 H 0.50277 0.30329 0.31318 0.0
H639 H 0.37666 0.21618 0.26206 0.0
H640 H 0.40526 0.20938 0.26326 0.0
H641 H 0.40199 0.23025 0.2051 0.0
H642 H 0.48051 0.11026 0.35942 0.0
H643 H 0.46726 0.07049 0.49253 0.0
H644 H 0.51935 0.11673 0.46181 0.0
H645 H 0.50697 0.09339 0.40031 0.0
H646 H 0.45041 0.13027 0.36337 0.0
H647 H 0.53133 0.19729 0.43395 0.0
H648 H 0.4389 0.16171 0.24221 0.0
H649 H 0.42525 0.17298 0.30411 0.0
H650 H 0.41979 0.13758 0.2995 0.0
H651 H 0.54858 0.24451 0.40891 0.0
H652 H 0.52225 0.25373 0.38989 0.0
H653 H 0.53853 0.24569 0.32844 0.0
H654 H 0.54503 0.13778 0.98644 0.0
H655 H 0.50128 0.13917 0.95704 0.0
H656 H 0.57383 0.22 0.9447 0.0
H657 H 0.46767 0.15615 0.06156 0.0
H658 H 0.45923 0.13448 0.98952 0.0
H659 H 0.45565 0.1655 0.99281 0.0
H660 H 0.57858 0.26187 0.99356 0.0
H661 H 0.55439 0.25879 0.0504 0.0
H662 H 0.54718 0.26208 0.96996 0.0
H663 H 0.4416 0.32509 0.90262 0.0
H664 H 0.39784 0.32378 0.86409 0.0
H665 H 0.39283 0.29196 0.89649 0.0
H666 H 0.389 0.29266 0.81328 0.0
H667 H 0.41031 0.24021 0.86522 0.0
H668 H 0.484 0.3208 0.90585 0.0
H669 H 0.41833 0.20846 0.99926 0.0
H670 H 0.43221 0.1991 0.93468 0.0
H671 H 0.40082 0.20083 0.92196 0.0
H672 H 0.52073 0.32788 0.97736 0.0
H673 H 0.52329 0.29679 0.9889 0.0
H674 H 0.50753 0.30833 0.04511 0.0
H675 H 0.46247 0.2325 0.36408 0.0
H676 H 0.50596 0.19475 0.23373 0.0
H677 H 0.51445 0.19519 0.1253 0.0
H678 H 0.49119 0.23079 0.94568 0.0
H679 H 0.45361 0.2744 0.07848 0.0
H680 H 0.44799 0.27665 0.18849 0.0
H681 H 0.59333 0.15584 0.90136 0.0
H682 H 0.58511 0.13183 0.96268 0.0
H683 H 0.59565 0.16827 0.98179 0.0
C684 C 0.06126 0.48992 0.55891 0.0
C685 C 0.06701 0.45439 0.78361 0.0
C686 C 0.98956 0.45146 0.79945 0.0
Mg687 Mg 0.02851 0.52289 0.51335 0.0
Mg688 Mg 0.02245 0.56489 0.61762 0.0
O689 O 0.01381 0.52779 0.59362 0.0
Mg690 Mg 0.03016 0.51141 0.65079 0.0
O691 O 0.04663 0.49358 0.7042 0.0
Mg692 Mg 0.02268 0.45317 0.66887 0.0
Mg693 Mg 0.04889 0.4998 0.79135 0.0
C694 C 0.99901 0.53496 0.74102 0.0
O695 O 0.06379 0.55471 0.69692 0.0
O696 O 0.0002 0.53899 0.46626 0.0
O697 O 0.06721 0.54566 0.79755 0.0
O698 O 0.06482 0.56839 0.51933 0.0
O699 O 0.99598 0.56553 0.54388 0.0
O700 O 0.06443 0.59586 0.59804 0.0
O701 O 0.99704 0.46765 0.60988 0.0
O702 O 0.99347 0.47662 0.51043 0.0
C703 C 0.98673 0.4592 0.5532 0.0
C704 C 0.9904 0.55442 0.48758 0.0
O705 O 0.00329 0.51467 0.72469 0.0
O706 O 0.05141 0.44347 0.7324 0.0
O707 O 0.00756 0.55721 0.71079 0.0
O708 O 0.99225 0.44025 0.74862 0.0
O709 O 0.06983 0.47661 0.81353 0.0
O710 O 0.00786 0.47614 0.82171 0.0
O711 O 0.05537 0.50925 0.5729 0.0
O712 O 0.05266 0.46801 0.59032 0.0
C713 C 0.07597 0.59212 0.55135 0.0
C714 C 0.07215 0.56293 0.75483 0.0
C715 C 0.51378 0.04941 0.51773 0.0
C716 C 0.60475 0.04314 0.46371 0.0
C717 C 0.55109 0.9562 0.50252 0.0
Mg718 Mg 0.46946 0.01346 0.61711 0.0
Mg719 Mg 0.48421 0.98251 0.73003 0.0
O720 O 0.48353 0.98788 0.64454 0.0
Mg721 Mg 0.51875 0.00474 0.60196 0.0
O722 O 0.55276 0.02165 0.55538 0.0
Mg723 Mg 0.53471 0.00632 0.46862 0.0
Mg724 Mg 0.57945 0.01198 0.58225 0.0
C725 C 0.52346 0.95928 0.6887 0.0
O726 O 0.54674 0.03094 0.68884 0.0
O727 O 0.42882 0.98329 0.6651 0.0
O728 O 0.58523 0.02753 0.67993 0.0
O729 O 0.48788 0.04362 0.70893 0.0
O730 O 0.43993 0.95975 0.73362 0.0
O731 O 0.50038 0.02267 0.77987 0.0
O732 O 0.49273 0.98035 0.51314 0.0
O733 O 0.45508 0.98466 0.52516 0.0
C734 C 0.46863 0.97585 0.49302 0.0
C735 C 0.42207 0.96442 0.70491 0.0
O736 O 0.52575 0.9694 0.63524 0.0
O737 O 0.58031 0.03391 0.43601 0.0
O738 O 0.51072 0.96366 0.73232 0.0
O739 O 0.54094 0.96791 0.46853 0.0
O740 O 0.60858 0.03734 0.51908 0.0
O741 O 0.56544 0.96842 0.55392 0.0
O742 O 0.51085 0.0392 0.57122 0.0
O743 O 0.52457 0.04233 0.47376 0.0
C744 C 0.4986 0.04375 0.76313 0.0
C745 C 0.57075 0.03566 0.71029 0.0
C746 C 0.54129 0.54674 0.69101 0.0
C747 C 0.46108 0.47125 0.81519 0.0
C748 C 0.47442 0.41215 0.71122 0.0
Mg749 Mg 0.56026 0.54025 0.55688 0.0
Mg750 Mg 0.52108 0.49039 0.44377 0.0
O751 O 0.53385 0.49945 0.52835 0.0
Mg752 Mg 0.509 0.4893 0.59904 0.0
O753 O 0.48774 0.4815 0.67526 0.0
Mg754 Mg 0.51662 0.48346 0.73818 0.0
Mg755 Mg 0.45202 0.44995 0.67417 0.0
C756 C 0.48171 0.43152 0.49992 0.0
O757 O 0.47273 0.49261 0.54963 0.0
O758 O 0.5867 0.54167 0.47617 0.0
O759 O 0.43458 0.46102 0.59493 0.0
O760 O 0.53663 0.55493 0.4907 0.0
O761 O 0.56099 0.50522 0.40461 0.0
O762 O 0.50708 0.51925 0.42223 0.0
O763 O 0.54257 0.48601 0.65519 0.0
O764 O 0.58091 0.52296 0.62435 0.0
C765 C 0.5691 0.50192 0.65829 0.0
C766 C 0.584 0.52715 0.42521 0.0
O767 O 0.48706 0.4431 0.55613 0.0
O768 O 0.48747 0.48159 0.81361 0.0
O769 O 0.49099 0.44574 0.45186 0.0
O770 O 0.49561 0.43482 0.73608 0.0
O771 O 0.44381 0.45836 0.76741 0.0
O772 O 0.45573 0.4129 0.676 0.0
O773 O 0.53202 0.53534 0.63541 0.0
O774 O 0.53701 0.53162 0.73759 0.0
C775 C 0.51771 0.54472 0.44529 0.0
C776 C 0.44625 0.4797 0.55534 0.0
C777 C 0.11373 0.48255 0.4665 0.0
C778 C 0.1225 0.50501 0.42769 0.0
H779 H 0.08717 0.45981 0.53671 0.0
C780 C 0.10984 0.5217 0.43 0.0
H781 H 0.12348 0.46968 0.46716 0.0
C782 C 0.08919 0.51634 0.47112 0.0
C783 C 0.08081 0.49413 0.51053 0.0
H784 H 0.11658 0.53945 0.40142 0.0
H785 H 0.0803 0.52997 0.47302 0.0
C786 C 0.09292 0.47696 0.50672 0.0
C787 C 0.65989 0.06193 0.35005 0.0
C788 C 0.68365 0.08187 0.38802 0.0
H789 H 0.61548 0.03418 0.34399 0.0
C790 C 0.68013 0.09248 0.44539 0.0
H791 H 0.66211 0.05342 0.3056 0.0
C792 C 0.6537 0.08169 0.4669 0.0
C793 C 0.6302 0.06003 0.4316 0.0
H794 H 0.69799 0.10789 0.47548 0.0
H795 H 0.65185 0.08892 0.51328 0.0
C796 C 0.63325 0.05112 0.37168 0.0
C797 C 0.51584 0.61035 0.40529 0.0
C798 C 0.49664 0.60019 0.35248 0.0
H799 H 0.53739 0.60084 0.47635 0.0
C800 C 0.48279 0.57124 0.3335 0.0
H801 H 0.5266 0.63255 0.42124 0.0
C802 C 0.48902 0.55306 0.36483 0.0
C803 C 0.50909 0.56341 0.4161 0.0
H804 H 0.46762 0.56279 0.2935 0.0
H805 H 0.47847 0.53097 0.348 0.0
C806 C 0.52198 0.59217 0.43681 0.0
C807 C 0.94355 0.58234 0.44041 0.0
C808 C 0.95211 0.59137 0.38117 0.0
H809 H 0.94841 0.56262 0.51965 0.0
C810 C 0.96995 0.58369 0.3526 0.0
H811 H 0.92975 0.58783 0.46341 0.0
C812 C 0.98064 0.56905 0.38488 0.0
C813 C 0.97375 0.56215 0.44622 0.0
H814 H 0.97684 0.59044 0.30686 0.0
H815 H 0.99586 0.56513 0.36383 0.0
C816 C 0.95421 0.56786 0.4725 0.0
C817 C 0.42367 0.94908 0.34037 0.0
C818 C 0.43187 0.93072 0.31398 0.0
H819 H 0.42879 0.97768 0.41778 0.0
C820 C 0.45219 0.9272 0.34716 0.0
H821 H 0.40798 0.95211 0.31601 0.0
C822 C 0.4645 0.94224 0.40485 0.0
C823 C 0.45623 0.96054 0.43124 0.0
H824 H 0.45858 0.91282 0.32844 0.0
H825 H 0.4801 0.93913 0.42935 0.0
C826 C 0.43558 0.96369 0.39861 0.0
C827 C 0.44711 0.35395 0.52843 0.0
C828 C 0.43086 0.34108 0.47195 0.0
H829 H 0.47604 0.39256 0.58134 0.0
C830 C 0.43133 0.35823 0.42472 0.0
H831 H 0.44685 0.34122 0.56584 0.0
C832 C 0.44816 0.38762 0.43345 0.0
C833 C 0.46426 0.40045 0.49015 0.0
H834 H 0.41861 0.34899 0.38116 0.0
H835 H 0.44813 0.40032 0.39627 0.0
C836 C 0.46358 0.3833 0.5375 0.0
C837 C 0.5546 0.89878 0.67257 0.0
C838 C 0.57664 0.91215 0.74793 0.0
H839 H 0.51856 0.90676 0.61683 0.0
C840 C 0.58856 0.94786 0.78637 0.0
H841 H 0.5503 0.87935 0.64722 0.0
C842 C 0.56691 0.96254 0.76607 0.0
C843 C 0.53963 0.94578 0.70362 0.0
H844 H 0.60333 0.95632 0.82701 0.0
H845 H 0.57034 0.98163 0.79148 0.0
C846 C 0.53415 0.91522 0.65591 0.0
C847 C 0.5903 0.46896 0.7845 0.0
C848 C 0.6149 0.49236 0.81229 0.0
H849 H 0.55633 0.45381 0.71452 0.0
C850 C 0.6256 0.51833 0.78529 0.0
H851 H 0.58201 0.44841 0.8027 0.0
C852 C 0.61127 0.52125 0.73367 0.0
C853 C 0.58585 0.49826 0.70832 0.0
H854 H 0.64484 0.53656 0.80483 0.0
H855 H 0.61962 0.54174 0.71503 0.0
C856 C 0.5757 0.472 0.7337 0.0
C857 C 0.10407 0.64161 0.74643 0.0
C858 C 0.09494 0.64895 0.80038 0.0
H859 H 0.10469 0.60858 0.69037 0.0
C860 C 0.0808 0.62826 0.84221 0.0
H861 H 0.11476 0.6571 0.71314 0.0
C862 C 0.07535 0.60067 0.82952 0.0
C863 C 0.08331 0.59306 0.77407 0.0
H864 H 0.07308 0.63312 0.88361 0.0
H865 H 0.06332 0.5849 0.86122 0.0
C866 C 0.09827 0.61391 0.73333 0.0
C867 C 0.52714 0.09039 0.91391 0.0
C868 C 0.53659 0.11742 0.89336 0.0
H869 H 0.50767 0.0461 0.88921 0.0
C870 C 0.53237 0.12005 0.82943 0.0
H871 H 0.5305 0.0878 0.96267 0.0
C872 C 0.51892 0.09604 0.78713 0.0
C873 C 0.51012 0.06907 0.80777 0.0
H874 H 0.53991 0.14065 0.81188 0.0
H875 H 0.51641 0.09868 0.73803 0.0
C876 C 0.51417 0.06655 0.87172 0.0
C877 C 0.45396 0.50509 0.96467 0.0
C878 C 0.42703 0.48487 0.9795 0.0
H879 H 0.48612 0.51612 0.90188 0.0
C880 C 0.4121 0.45966 0.94094 0.0
H881 H 0.46597 0.5251 0.9919 0.0
C882 C 0.42342 0.45496 0.88825 0.0
C883 C 0.45014 0.47522 0.87347 0.0
H884 H 0.39124 0.44386 0.95047 0.0
H885 H 0.41114 0.43561 0.85861 0.0
C886 C 0.46557 0.50003 0.91281 0.0
C887 C 0.92706 0.37429 0.88259 0.0
C888 C 0.91555 0.39315 0.93745 0.0
H889 H 0.95704 0.38675 0.79179 0.0
C890 C 0.93665 0.43173 0.95951 0.0
H891 H 0.91643 0.35151 0.87568 0.0
C892 C 0.9606 0.45179 0.90342 0.0
C893 C 0.96689 0.43426 0.83825 0.0
H894 H 0.93108 0.44194 0.99575 0.0
H895 H 0.97192 0.47459 0.91004 0.0
C896 C 0.95124 0.39633 0.82887 0.0
C897 C 0.95745 0.54958 0.85565 0.0
C898 C 0.93783 0.52206 0.86933 0.0
H899 H 0.9928 0.57537 0.80539 0.0
C900 C 0.94058 0.49931 0.84619 0.0
H901 H 0.95564 0.56748 0.8724 0.0
C902 C 0.96169 0.50376 0.80758 0.0
C903 C 0.98044 0.53108 0.79124 0.0
H904 H 0.92562 0.4779 0.85563 0.0
H905 H 0.96221 0.48556 0.7876 0.0
C906 C 0.97863 0.55405 0.81711 0.0
C907 C 0.35536 0.90203 0.74799 0.0
C908 C 0.33677 0.91248 0.74653 0.0
H909 H 0.39668 0.91034 0.73643 0.0
C910 C 0.34651 0.94021 0.72945 0.0
H911 H 0.34895 0.88087 0.76071 0.0
C912 C 0.37403 0.957 0.71412 0.0
C913 C 0.39256 0.94663 0.71732 0.0
H914 H 0.33289 0.94904 0.72865 0.0
H915 H 0.38102 0.97832 0.70159 0.0
C916 C 0.3829 0.91898 0.73413 0.0
C917 C 0.47203 0.36198 0.82723 0.0
C918 C 0.44615 0.33795 0.80883 0.0
H919 H 0.50196 0.40409 0.80938 0.0
C920 C 0.43329 0.3362 0.74949 0.0
H921 H 0.48295 0.36357 0.87162 0.0
C922 C 0.44398 0.35969 0.7139 0.0
C923 C 0.46813 0.38498 0.73622 0.0
H924 H 0.41402 0.31746 0.73233 0.0
H925 H 0.43229 0.35862 0.67113 0.0
C926 C 0.48301 0.38518 0.79116 0.0
C927 C 0.09947 0.42881 0.90382 0.0
C928 C 0.09989 0.40666 0.86936 0.0
H929 H 0.08918 0.46152 0.90366 0.0
C930 C 0.09165 0.40187 0.8051 0.0
H931 H 0.10593 0.43312 0.95331 0.0
C932 C 0.08177 0.41796 0.77662 0.0
C933 C 0.08037 0.43946 0.81166 0.0
H934 H 0.09215 0.38518 0.7773 0.0
H935 H 0.07475 0.41319 0.72744 0.0
C936 C 0.08997 0.44514 0.87524 0.0
C937 C 0.59176 0.09554 0.83282 0.0
C938 C 0.61528 0.09702 0.86374 0.0
H939 H 0.55942 0.075 0.75934 0.0
C940 C 0.62185 0.07585 0.84912 0.0
H941 H 0.58613 0.11145 0.84329 0.0
C942 C 0.60637 0.05477 0.8014 0.0
C943 C 0.58386 0.05434 0.76792 0.0
H944 H 0.63975 0.07637 0.87277 0.0
H945 H 0.61264 0.03948 0.78916 0.0
C946 C 0.57624 0.07443 0.78525 0.0
C947 C 0.58933 0.61957 0.77067 0.0
C948 C 0.5899 0.63714 0.72444 0.0
H949 H 0.57359 0.57734 0.79641 0.0
C950 C 0.57493 0.62472 0.66632 0.0
H951 H 0.6005 0.62852 0.816 0.0
C952 C 0.55957 0.59536 0.65489 0.0
C953 C 0.55855 0.57781 0.70167 0.0
H954 H 0.57465 0.63775 0.63016 0.0
H955 H 0.54797 0.58644 0.60997 0.0
C956 C 0.57379 0.59025 0.75947 0.0
C957 C 0.48056 0.10849 0.52852 0.0
C958 C 0.46321 0.09778 0.44766 0.0
H959 H 0.51359 0.09894 0.59308 0.0
C960 C 0.45408 0.06366 0.40497 0.0
H961 H 0.48318 0.12696 0.55527 0.0
C962 C 0.47475 0.04863 0.43036 0.0
C963 C 0.4981 0.06317 0.50022 0.0
H964 H 0.44188 0.05664 0.36046 0.0
H965 H 0.47317 0.03069 0.40336 0.0
C966 C 0.50032 0.09177 0.55004 0.0
C967 C 0.42793 0.52866 0.47348 0.0
C968 C 0.40182 0.52076 0.49581 0.0
H969 H 0.4624 0.52152 0.47436 0.0
C970 C 0.38848 0.49611 0.52763 0.0
H971 H 0.43852 0.54736 0.44797 0.0
C972 C 0.40193 0.48103 0.54155 0.0
C973 C 0.42926 0.49053 0.52485 0.0
H974 H 0.36819 0.48929 0.54468 0.0
H975 H 0.39156 0.46308 0.56933 0.0
C976 C 0.44155 0.51376 0.48822 0.0
C977 C 0.94945 0.39045 0.45169 0.0
C978 C 0.9394 0.37018 0.4959 0.0
H979 H 0.97194 0.43405 0.43468 0.0
C980 C 0.94391 0.37958 0.5599 0.0
H981 H 0.94585 0.38394 0.40216 0.0
C982 C 0.95911 0.40848 0.57878 0.0
C983 C 0.96956 0.4286 0.53422 0.0
H984 H 0.93602 0.36487 0.59576 0.0
H985 H 0.96263 0.41504 0.62823 0.0
C986 C 0.96427 0.4192 0.47046 0.0
C987 C 0.55905 0.89161 0.47963 0.0
C988 C 0.5389 0.87605 0.42994 0.0
H989 H 0.57871 0.92915 0.54202 0.0
C990 C 0.52156 0.88613 0.40772 0.0
H991 H 0.57219 0.88394 0.49869 0.0
C992 C 0.52538 0.91194 0.43204 0.0
C993 C 0.54618 0.92802 0.48022 0.0
H994 H 0.50523 0.87423 0.3709 0.0
H995 H 0.51205 0.91932 0.41273 0.0
C996 C 0.56266 0.91736 0.50462 0.0
C997 C 0.66524 0.58806 0.35723 0.0
C998 C 0.66992 0.5609 0.31333 0.0
H999 H 0.63195 0.58799 0.43259 0.0
C1000 C 0.64034 0.52512 0.28658 0.0
H1001 H 0.68222 0.60948 0.36772 0.0
C1002 C 0.61036 0.51325 0.33139 0.0
C1003 C 0.6082 0.53717 0.38841 0.0
H1004 H 0.64296 0.51054 0.25596 0.0
H1005 H 0.59363 0.49155 0.32431 0.0
C1006 C 0.63453 0.5741 0.39969 0.0
C1007 C 0.12363 0.66579 0.50363 0.0
C1008 C 0.13464 0.65963 0.45134 0.0
H1009 H 0.0964 0.6491 0.57759 0.0
C1010 C 0.13069 0.63234 0.44128 0.0
H1011 H 0.12675 0.68679 0.51312 0.0
C1012 C 0.11375 0.61098 0.47841 0.0
C1013 C 0.10011 0.6163 0.52626 0.0
H1014 H 0.13926 0.627 0.4021 0.0
H1015 H 0.10979 0.5898 0.46662 0.0
C1016 C 0.1064 0.64425 0.54076 0.0
loop_
_geom_bond_atom_site_label_1
_geom_bond_atom_site_label_2
_geom_bond_distance
_geom_bond_site_symmetry_2
_ccdc_geom_bond_type
C0 C1 1.560 . S
C0 H61 0.959 . S
C0 H62 0.959 . S
C0 H63 0.960 . S
C1 C0 1.560 . S
C1 O56 1.426 . S
C1 H60 0.980 . S
C2 C3 1.407 . S
C2 C7 1.418 . S
C2 O56 1.334 . S
C3 C2 1.407 . S
C3 C4 1.360 . S
C3 H64 0.929 . S
C4 C3 1.360 . S
C4 C5 1.401 . S
C4 C8 1.527 . S
C5 C4 1.401 . S
C5 C6 1.405 . S
C5 C38 1.587 . S
C6 C5 1.405 . S
C6 C7 1.332 . S
C6 C9 1.496 . S
C7 C2 1.418 . S
C7 C6 1.332 . S
C7 H65 0.929 . S
C8 C4 1.527 . S
C8 H66 0.959 . S
C8 H67 0.961 . S
C8 H68 0.961 . S
C9 C6 1.496 . S
C9 H69 0.960 . S
C9 H70 0.960 . S
C9 H71 0.961 . S
C10 C11 1.517 . S
C10 H73 0.961 . S
C10 H74 0.960 . S
C10 H75 0.959 . S
C11 C10 1.517 . S
C11 O59 1.468 . S
C11 H72 0.980 . S
C12 C13 1.349 . S
C12 C17 1.367 . S
C12 O59 1.408 . S
C13 C12 1.349 . S
C13 C14 1.407 . S
C13 H76 0.930 . S
C14 C13 1.407 . S
C14 C15 1.449 . S
C14 C18 1.535 . S
C15 C14 1.449 . S
C15 C16 1.384 . S
C15 C40 1.553 . S
C16 C15 1.384 . S
C16 C17 1.364 . S
C16 C19 1.450 . S
C17 C12 1.367 . S
C17 C16 1.364 . S
C17 H77 0.931 . S
C18 C14 1.535 . S
C18 H78 0.959 . S
C18 H79 0.961 . S
C18 H80 0.959 . S
C19 C16 1.450 . S
C19 H81 0.960 . S
C19 H82 0.960 . S
C19 H83 0.960 . S
C20 C21 1.309 . S
C20 C25 1.304 . S
C20 O58 1.435 . S
C21 C20 1.309 . S
C21 C22 1.476 1_556 S
C21 H85 0.930 . S
C22 C21 1.476 1_554 S
C22 C23 1.400 . S
C22 C26 1.567 . S
C23 C22 1.400 . S
C23 C24 1.373 . S
C23 C45 1.432 . S
C24 C23 1.373 . S
C24 C25 1.339 1_554 S
C24 C27 1.530 . S
C25 C20 1.304 . S
C25 C24 1.339 1_556 S
C25 H86 0.930 . S
C26 C22 1.567 . S
C26 H87 0.961 . S
C26 H88 0.960 . S
C26 H89 0.958 . S
C27 C24 1.530 . S
C27 H90 0.964 . S
C27 H91 0.960 . S
C27 H92 0.966 . S
C28 C29 1.530 . S
C28 H94 0.961 . S
C28 H95 0.961 . S
C28 H96 0.959 . S
C29 C28 1.530 . S
C29 O57 1.412 . S
C29 H93 0.980 . S
C30 C31 1.288 . S
C30 C35 1.377 . S
C30 O57 1.393 . S
C31 C30 1.288 . S
C31 C32 1.369 1_556 S
C31 H97 0.932 . S
C32 C31 1.369 1_554 S
C32 C33 1.398 . S
C32 C36 1.527 . S
C33 C32 1.398 . S
C33 C34 1.380 . S
C33 C47 1.497 . S
C34 C33 1.380 . S
C34 C35 1.383 1_554 S
C34 C37 1.603 . S
C35 C30 1.377 . S
C35 C34 1.383 1_556 S
C35 H98 0.929 . S
C36 C32 1.527 . S
C36 H99 0.961 . S
C36 H100 0.959 . S
C36 H101 0.959 . S
C37 C34 1.603 . S
C37 H102 0.960 1_554 S
C37 H103 0.962 . S
C37 H104 0.961 . S
C38 C5 1.587 . S
C38 C39 1.360 . S
C38 C51 1.412 . S
C39 C38 1.360 . S
C39 C40 1.365 . S
C39 H105 0.929 . S
C40 C15 1.553 . S
C40 C39 1.365 . S
C40 C41 1.404 . S
C41 C40 1.404 . S
C41 C42 1.395 . S
C41 C52 1.451 . S
C42 C41 1.395 . S
C42 C43 1.322 . S
C42 H106 0.930 . S
C43 C42 1.322 . S
C43 C44 1.459 . S
C43 H107 0.929 . S
C44 C43 1.459 . S
C44 C45 1.445 . S
C44 C53 1.395 . S
C45 C23 1.432 . S
C45 C44 1.445 . S
C45 C46 1.370 . S
C46 C45 1.370 . S
C46 C47 1.438 . S
C46 H108 0.936 . S
C47 C33 1.497 . S
C47 C46 1.438 . S
C47 C48 1.360 . S
C48 C47 1.360 . S
C48 C49 1.401 . S
C48 C53 1.446 . S
C49 C48 1.401 . S
C49 C50 1.347 . S
C49 H109 0.929 . S
C50 C49 1.347 . S
C50 C51 1.455 . S
C50 H110 0.930 . S
C51 C38 1.412 . S
C51 C50 1.455 . S
C51 C52 1.331 . S
C52 C41 1.451 . S
C52 C51 1.331 . S
C52 C53 1.497 . S
C53 C44 1.395 . S
C53 C48 1.446 . S
C53 C52 1.497 . S
C54 C55 1.582 . S
C54 H111 0.962 . S
C54 H112 0.959 . S
C54 H113 0.958 . S
C55 C54 1.582 . S
C55 O58 1.458 . S
C55 H84 0.980 . S
O56 C1 1.426 . S
O56 C2 1.334 . S
O57 C29 1.412 . S
O57 C30 1.393 . S
O58 C20 1.435 . S
O58 C55 1.458 . S
O59 C11 1.468 . S
O59 C12 1.408 . S
H60 C1 0.980 . S
H61 C0 0.959 . S
H62 C0 0.959 . S
H63 C0 0.960 . S
H64 C3 0.929 . S
H65 C7 0.929 . S
H66 C8 0.959 . S
H67 C8 0.961 . S
H68 C8 0.961 . S
H69 C9 0.960 . S
H70 C9 0.960 . S
H71 C9 0.961 . S
H72 C11 0.980 . S
H73 C10 0.961 . S
H74 C10 0.960 . S
H75 C10 0.959 . S
H76 C13 0.930 . S
H77 C17 0.931 . S
H78 C18 0.959 . S
H79 C18 0.961 . S
H80 C18 0.959 . S
H81 C19 0.960 . S
H82 C19 0.960 . S
H83 C19 0.960 . S
H84 C55 0.980 . S
H85 C21 0.930 . S
H86 C25 0.930 . S
H87 C26 0.961 . S
H88 C26 0.960 . S
H89 C26 0.958 . S
H90 C27 0.964 . S
H91 C27 0.960 . S
H92 C27 0.966 . S
H93 C29 0.980 . S
H94 C28 0.961 . S
H95 C28 0.961 . S
H96 C28 0.959 . S
H97 C31 0.932 . S
H98 C35 0.929 . S
H99 C36 0.961 . S
H100 C36 0.959 . S
H101 C36 0.959 . S
H102 C37 0.960 1_556 S
H103 C37 0.962 . S
H104 C37 0.961 . S
H105 C39 0.929 . S
H106 C42 0.930 . S
H107 C43 0.929 . S
H108 C46 0.936 . S
H109 C49 0.929 . S
H110 C50 0.930 . S
H111 C54 0.962 . S
H112 C54 0.959 . S
H113 C54 0.958 . S
C114 C115 1.560 . S
C114 H175 0.959 . S
C114 H176 0.959 . S
C114 H177 0.960 . S
C115 C114 1.560 . S
C115 O170 1.426 . S
C115 H174 0.980 . S
C116 C117 1.407 . S
C116 C121 1.418 . S
C116 O170 1.334 . S
C117 C116 1.407 . S
C117 C118 1.360 . S
C117 H178 0.929 . S
C118 C117 1.360 . S
C118 C119 1.401 . S
C118 C122 1.527 . S
C119 C118 1.401 . S
C119 C120 1.405 . S
C119 C152 1.587 . S
C120 C119 1.405 . S
C120 C121 1.332 . S
C120 C123 1.496 . S
C121 C116 1.418 . S
C121 C120 1.332 . S
C121 H179 0.929 . S
C122 C118 1.527 . S
C122 H180 0.959 . S
C122 H181 0.961 . S
C122 H182 0.961 . S
C123 C120 1.496 . S
C123 H183 0.960 . S
C123 H184 0.960 . S
C123 H185 0.961 . S
C124 C125 1.517 . S
C124 H187 0.961 . S
C124 H188 0.960 . S
C124 H189 0.959 . S
C125 C124 1.517 . S
C125 O173 1.468 . S
C125 H186 0.980 . S
C126 C127 1.349 . S
C126 C131 1.367 . S
C126 O173 1.408 . S
C127 C126 1.349 . S
C127 C128 1.407 . S
C127 H190 0.930 . S
C128 C127 1.407 . S
C128 C129 1.449 . S
C128 C132 1.535 . S
C129 C128 1.449 . S
C129 C130 1.384 . S
C129 C154 1.553 . S
C130 C129 1.384 . S
C130 C131 1.364 . S
C130 C133 1.450 . S
C131 C126 1.367 . S
C131 C130 1.364 . S
C131 H191 0.931 . S
C132 C128 1.535 . S
C132 H192 0.959 . S
C132 H193 0.961 . S
C132 H194 0.959 . S
C133 C130 1.450 . S
C133 H195 0.960 . S
C133 H196 0.960 . S
C133 H197 0.960 . S
C134 C135 1.309 . S
C134 C139 1.304 . S
C134 O172 1.435 . S
C135 C134 1.309 . S
C135 C136 1.476 . S
C135 H199 0.930 . S
C136 C135 1.476 . S
C136 C137 1.400 . S
C136 C140 1.567 . S
C137 C136 1.400 . S
C137 C138 1.373 . S
C137 C159 1.432 . S
C138 C137 1.373 . S
C138 C139 1.339 . S
C138 C141 1.530 . S
C139 C134 1.304 . S
C139 C138 1.339 . S
C139 H200 0.930 . S
C140 C136 1.567 . S
C140 H201 0.972 . S
C140 H202 0.960 . S
C140 H203 0.958 . S
C141 C138 1.530 . S
C141 H204 0.961 . S
C141 H205 0.960 . S
C141 H206 0.960 . S
C142 C143 1.530 . S
C142 H208 0.961 . S
C142 H209 0.961 . S
C142 H210 0.959 . S
C143 C142 1.530 . S
C143 O171 1.412 . S
C143 H207 0.980 . S
C144 C145 1.288 . S
C144 C149 1.377 . S
C144 O171 1.393 . S
C145 C144 1.288 . S
C145 C146 1.369 . S
C145 H211 0.932 . S
C146 C145 1.369 . S
C146 C147 1.398 . S
C146 C150 1.527 . S
C147 C146 1.398 . S
C147 C148 1.380 . S
C147 C161 1.497 . S
C148 C147 1.380 . S
C148 C149 1.383 . S
C148 C151 1.603 . S
C149 C144 1.377 . S
C149 C148 1.383 . S
C149 H212 0.929 . S
C150 C146 1.527 . S
C150 H213 0.961 . S
C150 H214 0.959 . S
C150 H215 0.959 . S
C151 C148 1.603 . S
C151 H216 0.960 . S
C151 H217 0.962 . S
C151 H218 0.961 . S
C152 C119 1.587 . S
C152 C153 1.360 . S
C152 C165 1.412 . S
C153 C152 1.360 . S
C153 C154 1.365 . S
C153 H219 0.929 . S
C154 C129 1.553 . S
C154 C153 1.365 . S
C154 C155 1.404 . S
C155 C154 1.404 . S
C155 C156 1.395 . S
C155 C166 1.451 . S
C156 C155 1.395 . S
C156 C157 1.322 . S
C156 H220 0.930 . S
C157 C156 1.322 . S
C157 C158 1.459 . S
C157 H221 0.929 . S
C158 C157 1.459 . S
C158 C159 1.445 1_554 S
C158 C167 1.395 . S
C159 C137 1.432 . S
C159 C158 1.445 1_556 S
C159 C160 1.370 . S
C160 C159 1.370 . S
C160 C161 1.438 . S
C160 H222 0.930 . S
C161 C147 1.497 . S
C161 C160 1.438 . S
C161 C162 1.360 1_556 S
C162 C161 1.360 1_554 S
C162 C163 1.401 . S
C162 C167 1.446 . S
C163 C162 1.401 . S
C163 C164 1.347 . S
C163 H223 0.929 . S
C164 C163 1.347 . S
C164 C165 1.455 . S
C164 H224 0.930 . S
C165 C152 1.412 . S
C165 C164 1.455 . S
C165 C166 1.331 . S
C166 C155 1.451 . S
C166 C165 1.331 . S
C166 C167 1.497 . S
C167 C158 1.395 . S
C167 C162 1.446 . S
C167 C166 1.497 . S
C168 C169 1.582 . S
C168 H225 0.962 . S
C168 H226 0.959 . S
C168 H227 0.958 . S
C169 C168 1.582 . S
C169 O172 1.458 . S
C169 H198 0.980 . S
O170 C115 1.426 . S
O170 C116 1.334 . S
O171 C143 1.412 . S
O171 C144 1.393 . S
O172 C134 1.435 . S
O172 C169 1.458 . S
O173 C125 1.468 . S
O173 C126 1.408 . S
H174 C115 0.980 . S
H175 C114 0.959 . S
H176 C114 0.959 . S
H177 C114 0.960 . S
H178 C117 0.929 . S
H179 C121 0.929 . S
H180 C122 0.959 . S
H181 C122 0.961 . S
H182 C122 0.961 . S
H183 C123 0.960 . S
H184 C123 0.960 . S
H185 C123 0.961 . S
H186 C125 0.980 . S
H187 C124 0.961 . S
H188 C124 0.960 . S
H189 C124 0.959 . S
H190 C127 0.930 . S
H191 C131 0.931 . S
H192 C132 0.959 . S
H193 C132 0.961 . S
H194 C132 0.959 . S
H195 C133 0.960 . S
H196 C133 0.960 . S
H197 C133 0.960 . S
H198 C169 0.980 . S
H199 C135 0.930 . S
H200 C139 0.930 . S
H201 C140 0.972 . S
H202 C140 0.960 . S
H203 C140 0.958 . S
H204 C141 0.961 . S
H205 C141 0.960 . S
H206 C141 0.960 . S
H207 C143 0.980 . S
H208 C142 0.961 . S
H209 C142 0.961 . S
H210 C142 0.959 . S
H211 C145 0.932 . S
H212 C149 0.929 . S
H213 C150 0.961 . S
H214 C150 0.959 . S
H215 C150 0.959 . S
H216 C151 0.960 . S
H217 C151 0.962 . S
H218 C151 0.961 . S
H219 C153 0.929 . S
H220 C156 0.930 . S
H221 C157 0.929 . S
H222 C160 0.930 . S
H223 C163 0.929 . S
H224 C164 0.930 . S
H225 C168 0.962 . S
H226 C168 0.959 . S
H227 C168 0.958 . S
C228 C229 1.560 . S
C228 H289 0.959 . S
C228 H290 0.959 . S
C228 H291 0.960 . S
C229 C228 1.560 . S
C229 O284 1.426 . S
C229 H288 0.980 . S
C230 C231 1.407 . S
C230 C235 1.418 . S
C230 O284 1.334 . S
C231 C230 1.407 . S
C231 C232 1.360 . S
C231 H292 0.929 . S
C232 C231 1.360 . S
C232 C233 1.401 . S
C232 C236 1.527 . S
C233 C232 1.401 . S
C233 C234 1.405 . S
C233 C266 1.587 . S
C234 C233 1.405 . S
C234 C235 1.332 . S
C234 C237 1.496 . S
C235 C230 1.418 . S
C235 C234 1.332 . S
C235 H293 0.929 . S
C236 C232 1.527 . S
C236 H294 0.959 . S
C236 H295 0.961 . S
C236 H296 0.961 . S
C237 C234 1.496 . S
C237 H297 0.960 . S
C237 H298 0.960 . S
C237 H299 0.961 . S
C238 C239 1.517 . S
C238 H301 0.961 . S
C238 H302 0.960 . S
C238 H303 0.959 . S
C239 C238 1.517 . S
C239 O287 1.468 . S
C239 H300 0.980 . S
C240 C241 1.349 . S
C240 C245 1.367 . S
C240 O287 1.408 . S
C241 C240 1.349 . S
C241 C242 1.407 . S
C241 H304 0.930 . S
C242 C241 1.407 . S
C242 C243 1.449 . S
C242 C246 1.535 . S
C243 C242 1.449 . S
C243 C244 1.384 . S
C243 C268 1.553 . S
C244 C243 1.384 . S
C244 C245 1.364 . S
C244 C247 1.450 . S
C245 C240 1.367 . S
C245 C244 1.364 . S
C245 H305 0.931 . S
C246 C242 1.535 . S
C246 H306 0.959 . S
C246 H307 0.961 . S
C246 H308 0.959 . S
C247 C244 1.450 . S
C247 H309 0.960 . S
C247 H310 0.960 . S
C247 H311 0.960 . S
C248 C249 1.309 . S
C248 C253 1.304 . S
C248 O286 1.435 . S
C249 C248 1.309 . S
C249 C250 1.476 . S
C249 H313 0.930 . S
C250 C249 1.476 . S
C250 C251 1.400 . S
C250 C254 1.567 . S
C251 C250 1.400 . S
C251 C252 1.373 . S
C251 C273 1.432 . S
C252 C251 1.373 . S
C252 C253 1.339 . S
C252 C255 1.530 . S
C253 C248 1.304 . S
C253 C252 1.339 . S
C253 H314 0.930 . S
C254 C250 1.567 . S
C254 H315 0.961 . S
C254 H316 0.960 . S
C254 H317 0.958 . S
C255 C252 1.530 . S
C255 H318 0.961 . S
C255 H319 0.960 . S
C255 H320 0.960 . S
C256 C257 1.530 . S
C256 H322 0.961 . S
C256 H323 0.961 . S
C256 H324 0.959 . S
C257 C256 1.530 . S
C257 O285 1.412 . S
C257 H321 0.980 . S
C258 C259 1.288 . S
C258 C263 1.377 . S
C258 O285 1.393 . S
C259 C258 1.288 . S
C259 C260 1.369 . S
C259 H325 0.932 . S
C260 C259 1.369 . S
C260 C261 1.398 . S
C260 C264 1.527 . S
C261 C260 1.398 . S
C261 C262 1.380 . S
C261 C275 1.497 . S
C262 C261 1.380 . S
C262 C263 1.383 . S
C262 C265 1.603 . S
C263 C258 1.377 . S
C263 C262 1.383 . S
C263 H326 0.929 . S
C264 C260 1.527 . S
C264 H327 0.961 . S
C264 H328 0.959 . S
C264 H329 0.959 . S
C265 C262 1.603 . S
C265 H330 0.960 . S
C265 H331 0.962 . S
C265 H332 0.961 . S
C266 C233 1.587 . S
C266 C267 1.360 . S
C266 C279 1.412 . S
C267 C266 1.360 . S
C267 C268 1.365 . S
C267 H333 0.929 . S
C268 C243 1.553 . S
C268 C267 1.365 . S
C268 C269 1.404 . S
C269 C268 1.404 . S
C269 C270 1.395 . S
C269 C280 1.451 . S
C270 C269 1.395 . S
C270 C271 1.322 . S
C270 H334 0.930 . S
C271 C270 1.322 . S
C271 C272 1.459 1_554 S
C271 H335 0.929 . S
C272 C271 1.459 1_556 S
C272 C273 1.445 . S
C272 C281 1.395 1_556 S
C273 C251 1.432 . S
C273 C272 1.445 . S
C273 C274 1.370 . S
C274 C273 1.370 . S
C274 C275 1.438 . S
C274 H336 0.930 . S
C275 C261 1.497 . S
C275 C274 1.438 . S
C275 C276 1.360 . S
C276 C275 1.360 . S
C276 C277 1.401 1_556 S
C276 C281 1.446 1_556 S
C277 C276 1.401 1_554 S
C277 C278 1.347 . S
C277 H337 0.929 1_554 S
C278 C277 1.347 . S
C278 C279 1.455 . S
C278 H338 0.930 . S
C279 C266 1.412 . S
C279 C278 1.455 . S
C279 C280 1.331 . S
C280 C269 1.451 . S
C280 C279 1.331 . S
C280 C281 1.497 . S
C281 C272 1.395 1_554 S
C281 C276 1.446 1_554 S
C281 C280 1.497 . S
C282 C283 1.582 . S
C282 H339 0.962 . S
C282 H340 0.959 . S
C282 H341 0.958 . S
C283 C282 1.582 . S
C283 O286 1.458 . S
C283 H312 0.980 . S
O284 C229 1.426 . S
O284 C230 1.334 . S
O285 C257 1.412 . S
O285 C258 1.393 . S
O286 C248 1.435 . S
O286 C283 1.458 . S
O287 C239 1.468 . S
O287 C240 1.408 . S
H288 C229 0.980 . S
H289 C228 0.959 . S
H290 C228 0.959 . S
H291 C228 0.960 . S
H292 C231 0.929 . S
H293 C235 0.929 . S
H294 C236 0.959 . S
H295 C236 0.961 . S
H296 C236 0.961 . S
H297 C237 0.960 . S
H298 C237 0.960 . S
H299 C237 0.961 . S
H300 C239 0.980 . S
H301 C238 0.961 . S
H302 C238 0.960 . S
H303 C238 0.959 . S
H304 C241 0.930 . S
H305 C245 0.931 . S
H306 C246 0.959 . S
H307 C246 0.961 . S
H308 C246 0.959 . S
H309 C247 0.960 . S
H310 C247 0.960 . S
H311 C247 0.960 . S
H312 C283 0.980 . S
H313 C249 0.930 . S
H314 C253 0.930 . S
H315 C254 0.961 . S
H316 C254 0.960 . S
H317 C254 0.958 . S
H318 C255 0.961 . S
H319 C255 0.960 . S
H320 C255 0.960 . S
H321 C257 0.980 . S
H322 C256 0.961 . S
H323 C256 0.961 . S
H324 C256 0.959 . S
H325 C259 0.932 . S
H326 C263 0.929 . S
H327 C264 0.961 . S
H328 C264 0.959 . S
H329 C264 0.959 . S
H330 C265 0.960 . S
H331 C265 0.962 . S
H332 C265 0.961 . S
H333 C267 0.929 . S
H334 C270 0.930 . S
H335 C271 0.929 . S
H336 C274 0.930 . S
H337 C277 0.929 1_556 S
H338 C278 0.930 . S
H339 C282 0.962 . S
H340 C282 0.959 . S
H341 C282 0.958 . S
C342 C343 1.560 . S
C342 H403 0.959 . S
C342 H404 0.959 . S
C342 H405 0.960 . S
C343 C342 1.560 . S
C343 O398 1.426 . S
C343 H402 0.980 . S
C344 C345 1.407 . S
C344 C349 1.418 . S
C344 O398 1.334 . S
C345 C344 1.407 . S
C345 C346 1.360 . S
C345 H406 0.929 . S
C346 C345 1.360 . S
C346 C347 1.401 . S
C346 C350 1.527 . S
C347 C346 1.401 . S
C347 C348 1.405 . S
C347 C380 1.587 . S
C348 C347 1.405 . S
C348 C349 1.332 . S
C348 C351 1.496 . S
C349 C344 1.418 . S
C349 C348 1.332 . S
C349 H407 0.929 . S
C350 C346 1.527 . S
C350 H408 0.959 . S
C350 H409 0.961 . S
C350 H410 0.961 . S
C351 C348 1.496 . S
C351 H411 0.960 . S
C351 H412 0.960 . S
C351 H413 0.961 . S
C352 C353 1.517 . S
C352 H415 0.961 . S
C352 H416 0.960 . S
C352 H417 0.959 . S
C353 C352 1.517 . S
C353 O401 1.468 . S
C353 H414 0.980 . S
C354 C355 1.349 . S
C354 C359 1.367 . S
C354 O401 1.408 . S
C355 C354 1.349 . S
C355 C356 1.407 . S
C355 H418 0.930 . S
C356 C355 1.407 . S
C356 C357 1.449 . S
C356 C360 1.535 . S
C357 C356 1.449 . S
C357 C358 1.384 . S
C357 C382 1.553 . S
C358 C357 1.384 . S
C358 C359 1.364 . S
C358 C361 1.450 . S
C359 C354 1.367 . S
C359 C358 1.364 . S
C359 H419 0.931 . S
C360 C356 1.535 . S
C360 H420 0.959 . S
C360 H421 0.961 . S
C360 H422 0.959 . S
C361 C358 1.450 . S
C361 H423 0.960 . S
C361 H424 0.960 . S
C361 H425 0.960 . S
C362 C363 1.309 . S
C362 C367 1.304 . S
C362 O400 1.435 . S
C363 C362 1.309 . S
C363 C364 1.476 . S
C363 H427 0.930 . S
C364 C363 1.476 . S
C364 C365 1.400 . S
C364 C368 1.567 . S
C365 C364 1.400 . S
C365 C366 1.373 . S
C365 C387 1.432 . S
C366 C365 1.373 . S
C366 C367 1.339 . S
C366 C369 1.530 . S
C367 C362 1.304 . S
C367 C366 1.339 . S
C367 H428 0.930 . S
C368 C364 1.567 . S
C368 H429 0.961 . S
C368 H430 0.960 . S
C368 H431 0.958 . S
C369 C366 1.530 . S
C369 H432 0.961 . S
C369 H433 0.960 . S
C369 H434 0.960 . S
C370 C371 1.530 . S
C370 H436 0.961 . S
C370 H437 0.961 . S
C370 H438 0.959 . S
C371 C370 1.530 . S
C371 O399 1.412 . S
C371 H435 0.980 . S
C372 C373 1.288 . S
C372 C377 1.377 . S
C372 O399 1.393 . S
C373 C372 1.288 . S
C373 C374 1.369 . S
C373 H439 0.932 . S
C374 C373 1.369 . S
C374 C375 1.398 . S
C374 C378 1.527 . S
C375 C374 1.398 . S
C375 C376 1.380 . S
C375 C389 1.497 . S
C376 C375 1.380 . S
C376 C377 1.383 . S
C376 C379 1.603 . S
C377 C372 1.377 . S
C377 C376 1.383 . S
C377 H440 0.929 . S
C378 C374 1.527 . S
C378 H441 0.961 . S
C378 H442 0.959 . S
C378 H443 0.959 . S
C379 C376 1.603 . S
C379 H444 0.960 . S
C379 H445 0.962 . S
C379 H446 0.961 . S
C380 C347 1.587 . S
C380 C381 1.360 . S
C380 C393 1.412 . S
C381 C380 1.360 . S
C381 C382 1.365 . S
C381 H447 0.929 . S
C382 C357 1.553 . S
C382 C381 1.365 . S
C382 C383 1.404 . S
C383 C382 1.404 . S
C383 C384 1.395 . S
C383 C394 1.451 . S
C384 C383 1.395 . S
C384 C385 1.322 . S
C384 H448 0.930 . S
C385 C384 1.322 . S
C385 C386 1.459 1_554 S
C385 H449 0.929 1_554 S
C386 C385 1.459 1_556 S
C386 C387 1.445 . S
C386 C395 1.395 1_556 S
C387 C365 1.432 . S
C387 C386 1.445 . S
C387 C388 1.370 . S
C388 C387 1.370 . S
C388 C389 1.438 . S
C388 H450 0.930 . S
C389 C375 1.497 . S
C389 C388 1.438 . S
C389 C390 1.360 . S
C390 C389 1.360 . S
C390 C391 1.401 1_556 S
C390 C395 1.446 1_556 S
C391 C390 1.401 1_554 S
C391 C392 1.347 . S
C391 H451 0.929 1_554 S
C392 C391 1.347 . S
C392 C393 1.455 . S
C392 H452 0.930 . S
C393 C380 1.412 . S
C393 C392 1.455 . S
C393 C394 1.331 . S
C394 C383 1.451 . S
C394 C393 1.331 . S
C394 C395 1.497 . S
C395 C386 1.395 1_554 S
C395 C390 1.446 1_554 S
C395 C394 1.497 . S
C396 C397 1.582 . S
C396 H453 0.962 . S
C396 H454 0.959 . S
C396 H455 0.958 . S
C397 C396 1.582 . S
C397 O400 1.458 . S
C397 H426 0.980 . S
O398 C343 1.426 . S
O398 C344 1.334 . S
O399 C371 1.412 . S
O399 C372 1.393 . S
O400 C362 1.435 . S
O400 C397 1.458 . S
O401 C353 1.468 . S
O401 C354 1.408 . S
H402 C343 0.980 . S
H403 C342 0.959 . S
H404 C342 0.959 . S
H405 C342 0.960 . S
H406 C345 0.929 . S
H407 C349 0.929 . S
H408 C350 0.959 . S
H409 C350 0.961 . S
H410 C350 0.961 . S
H411 C351 0.960 . S
H412 C351 0.960 . S
H413 C351 0.961 . S
H414 C353 0.980 . S
H415 C352 0.961 . S
H416 C352 0.960 . S
H417 C352 0.959 . S
H418 C355 0.930 . S
H419 C359 0.931 . S
H420 C360 0.959 . S
H421 C360 0.961 . S
H422 C360 0.959 . S
H423 C361 0.960 . S
H424 C361 0.960 . S
H425 C361 0.960 . S
H426 C397 0.980 . S
H427 C363 0.930 . S
H428 C367 0.930 . S
H429 C368 0.961 . S
H430 C368 0.960 . S
H431 C368 0.958 . S
H432 C369 0.961 . S
H433 C369 0.960 . S
H434 C369 0.960 . S
H435 C371 0.980 . S
H436 C370 0.961 . S
H437 C370 0.961 . S
H438 C370 0.959 . S
H439 C373 0.932 . S
H440 C377 0.929 . S
H441 C378 0.961 . S
H442 C378 0.959 . S
H443 C378 0.959 . S
H444 C379 0.960 . S
H445 C379 0.962 . S
H446 C379 0.961 . S
H447 C381 0.929 . S
H448 C384 0.930 . S
H449 C385 0.929 1_556 S
H450 C388 0.930 . S
H451 C391 0.929 1_556 S
H452 C392 0.930 . S
H453 C396 0.962 . S
H454 C396 0.959 . S
H455 C396 0.958 . S
C456 C457 1.560 . S
C456 H517 0.959 . S
C456 H518 0.959 . S
C456 H519 0.960 . S
C457 C456 1.560 . S
C457 O512 1.426 . S
C457 H516 0.980 . S
C458 C459 1.407 . S
C458 C463 1.418 . S
C458 O512 1.334 . S
C459 C458 1.407 . S
C459 C460 1.360 . S
C459 H520 0.929 . S
C460 C459 1.360 . S
C460 C461 1.401 . S
C460 C464 1.527 . S
C461 C460 1.401 . S
C461 C462 1.405 . S
C461 C494 1.587 . S
C462 C461 1.405 . S
C462 C463 1.332 . S
C462 C465 1.496 . S
C463 C458 1.418 . S
C463 C462 1.332 . S
C463 H521 0.929 . S
C464 C460 1.527 . S
C464 H522 0.959 . S
C464 H523 0.961 . S
C464 H524 0.961 . S
C465 C462 1.496 . S
C465 H525 0.960 . S
C465 H526 0.960 . S
C465 H527 0.961 1_556 S
C466 C467 1.517 . S
C466 H529 0.961 . S
C466 H530 0.960 . S
C466 H531 0.959 . S
C467 C466 1.517 . S
C467 O515 1.468 . S
C467 H528 0.980 . S
C468 C469 1.349 . S
C468 C473 1.367 . S
C468 O515 1.408 . S
C469 C468 1.349 . S
C469 C470 1.407 . S
C469 H532 0.930 . S
C470 C469 1.407 . S
C470 C471 1.449 . S
C470 C474 1.535 . S
C471 C470 1.449 . S
C471 C472 1.384 . S
C471 C496 1.553 . S
C472 C471 1.384 . S
C472 C473 1.364 . S
C472 C475 1.450 . S
C473 C468 1.367 . S
C473 C472 1.364 . S
C473 H533 0.931 . S
C474 C470 1.535 . S
C474 H534 0.959 . S
C474 H535 0.961 . S
C474 H536 0.959 . S
C475 C472 1.450 . S
C475 H537 0.960 . S
C475 H538 0.960 . S
C475 H539 0.955 1_556 S
C476 C477 1.309 . S
C476 C481 1.304 . S
C476 O514 1.435 . S
C477 C476 1.309 . S
C477 C478 1.476 . S
C477 H541 0.930 . S
C478 C477 1.476 . S
C478 C479 1.400 . S
C478 C482 1.567 . S
C479 C478 1.400 . S
C479 C480 1.373 . S
C479 C501 1.432 . S
C480 C479 1.373 . S
C480 C481 1.339 . S
C480 C483 1.530 . S
C481 C476 1.304 . S
C481 C480 1.339 . S
C481 H542 0.930 . S
C482 C478 1.567 . S
C482 H543 0.961 . S
C482 H544 0.960 . S
C482 H545 0.958 . S
C483 C480 1.530 . S
C483 H546 0.961 . S
C483 H547 0.960 . S
C483 H548 0.960 . S
C484 C485 1.530 . S
C484 H550 0.961 . S
C484 H551 0.961 . S
C484 H552 0.959 . S
C485 C484 1.530 . S
C485 O513 1.412 . S
C485 H549 0.980 . S
C486 C487 1.288 . S
C486 C491 1.377 . S
C486 O513 1.393 . S
C487 C486 1.288 . S
C487 C488 1.369 . S
C487 H553 0.932 . S
C488 C487 1.369 . S
C488 C489 1.398 . S
C488 C492 1.527 . S
C489 C488 1.398 . S
C489 C490 1.380 . S
C489 C503 1.497 . S
C490 C489 1.380 . S
C490 C491 1.383 . S
C490 C493 1.603 . S
C491 C486 1.377 . S
C491 C490 1.383 . S
C491 H554 0.929 . S
C492 C488 1.527 . S
C492 H555 0.961 . S
C492 H556 0.959 . S
C492 H557 0.959 . S
C493 C490 1.603 . S
C493 H558 0.960 . S
C493 H559 0.962 . S
C493 H560 0.961 . S
C494 C461 1.587 . S
C494 C495 1.360 . S
C494 C507 1.412 1_556 S
C495 C494 1.360 . S
C495 C496 1.365 . S
C495 H561 0.929 . S
C496 C471 1.553 . S
C496 C495 1.365 . S
C496 C497 1.404 1_556 S
C497 C496 1.404 1_554 S
C497 C498 1.395 . S
C497 C508 1.451 . S
C498 C497 1.395 . S
C498 C499 1.322 . S
C498 H562 0.930 . S
C499 C498 1.322 . S
C499 C500 1.459 . S
C499 H563 0.929 . S
C500 C499 1.459 . S
C500 C501 1.445 . S
C500 C509 1.395 . S
C501 C479 1.432 . S
C501 C500 1.445 . S
C501 C502 1.370 . S
C502 C501 1.370 . S
C502 C503 1.438 . S
C502 H564 0.930 . S
C503 C489 1.497 . S
C503 C502 1.438 . S
C503 C504 1.360 . S
C504 C503 1.360 . S
C504 C505 1.401 . S
C504 C509 1.446 . S
C505 C504 1.401 . S
C505 C506 1.347 . S
C505 H565 0.929 . S
C506 C505 1.347 . S
C506 C507 1.455 . S
C506 H566 0.930 . S
C507 C494 1.412 1_554 S
C507 C506 1.455 . S
C507 C508 1.331 . S
C508 C497 1.451 . S
C508 C507 1.331 . S
C508 C509 1.497 . S
C509 C500 1.395 . S
C509 C504 1.446 . S
C509 C508 1.497 . S
C510 C511 1.582 . S
C510 H567 0.962 . S
C510 H568 0.959 . S
C510 H569 0.958 . S
C511 C510 1.582 . S
C511 O514 1.458 . S
C511 H540 0.980 . S
O512 C457 1.426 . S
O512 C458 1.334 . S
O513 C485 1.412 . S
O513 C486 1.393 . S
O514 C476 1.435 . S
O514 C511 1.458 . S
O515 C467 1.468 . S
O515 C468 1.408 . S
H516 C457 0.980 . S
H517 C456 0.959 . S
H518 C456 0.959 . S
H519 C456 0.960 . S
H520 C459 0.929 . S
H521 C463 0.929 . S
H522 C464 0.959 . S
H523 C464 0.961 . S
H524 C464 0.961 . S
H525 C465 0.960 . S
H526 C465 0.960 . S
H527 C465 0.961 1_554 S
H528 C467 0.980 . S
H529 C466 0.961 . S
H530 C466 0.960 . S
H531 C466 0.959 . S
H532 C469 0.930 . S
H533 C473 0.931 . S
H534 C474 0.959 . S
H535 C474 0.961 . S
H536 C474 0.959 . S
H537 C475 0.960 . S
H538 C475 0.960 . S
H539 C475 0.955 1_554 S
H540 C511 0.980 . S
H541 C477 0.930 . S
H542 C481 0.930 . S
H543 C482 0.961 . S
H544 C482 0.960 . S
H545 C482 0.958 . S
H546 C483 0.961 . S
H547 C483 0.960 . S
H548 C483 0.960 . S
H549 C485 0.980 . S
H550 C484 0.961 . S
H551 C484 0.961 . S
H552 C484 0.959 . S
H553 C487 0.932 . S
H554 C491 0.929 . S
H555 C492 0.961 . S
H556 C492 0.959 . S
H557 C492 0.959 . S
H558 C493 0.960 . S
H559 C493 0.962 . S
H560 C493 0.961 . S
H561 C495 0.929 . S
H562 C498 0.930 . S
H563 C499 0.929 . S
H564 C502 0.930 . S
H565 C505 0.929 . S
H566 C506 0.930 . S
H567 C510 0.962 . S
H568 C510 0.959 . S
H569 C510 0.958 . S
C570 C571 1.560 . S
C570 H631 0.959 . S
C570 H632 0.959 . S
C570 H633 0.960 . S
C571 C570 1.560 . S
C571 O626 1.426 . S
C571 H630 0.980 . S
C572 C573 1.407 . S
C572 C577 1.418 . S
C572 O626 1.334 . S
C573 C572 1.407 . S
C573 C574 1.360 . S
C573 H634 0.929 . S
C574 C573 1.360 . S
C574 C575 1.401 . S
C574 C578 1.527 . S
C575 C574 1.401 . S
C575 C576 1.405 . S
C575 C608 1.587 . S
C576 C575 1.405 . S
C576 C577 1.332 . S
C576 C579 1.496 . S
C577 C572 1.418 . S
C577 C576 1.332 . S
C577 H635 0.929 . S
C578 C574 1.527 . S
C578 H636 0.959 . S
C578 H637 0.961 . S
C578 H638 0.961 . S
C579 C576 1.496 . S
C579 H639 0.960 . S
C579 H640 0.960 . S
C579 H641 0.961 . S
C580 C581 1.517 . S
C580 H643 0.961 . S
C580 H644 0.960 . S
C580 H645 0.959 . S
C581 C580 1.517 . S
C581 O629 1.468 . S
C581 H642 0.980 . S
C582 C583 1.349 . S
C582 C587 1.367 . S
C582 O629 1.408 . S
C583 C582 1.349 . S
C583 C584 1.407 . S
C583 H646 0.930 . S
C584 C583 1.407 . S
C584 C585 1.449 . S
C584 C588 1.535 . S
C585 C584 1.449 . S
C585 C586 1.384 . S
C585 C610 1.553 . S
C586 C585 1.384 . S
C586 C587 1.364 . S
C586 C589 1.450 . S
C587 C582 1.367 . S
C587 C586 1.364 . S
C587 H647 0.931 . S
C588 C584 1.535 . S
C588 H648 0.959 . S
C588 H649 0.961 . S
C588 H650 0.959 . S
C589 C586 1.450 . S
C589 H651 0.960 . S
C589 H652 0.960 . S
C589 H653 0.960 . S
C590 C591 1.309 . S
C590 C595 1.304 . S
C590 O628 1.435 . S
C591 C590 1.309 . S
C591 C592 1.476 1_556 S
C591 H655 0.930 . S
C592 C591 1.476 1_554 S
C592 C593 1.400 . S
C592 C596 1.567 . S
C593 C592 1.400 . S
C593 C594 1.373 . S
C593 C615 1.432 . S
C594 C593 1.373 . S
C594 C595 1.339 1_554 S
C594 C597 1.530 . S
C595 C590 1.304 . S
C595 C594 1.339 1_556 S
C595 H656 0.930 . S
C596 C592 1.567 . S
C596 H657 0.961 . S
C596 H658 0.960 . S
C596 H659 0.957 1_554 S
C597 C594 1.530 . S
C597 H660 0.961 . S
C597 H661 0.960 . S
C597 H662 0.960 . S
C598 C599 1.530 . S
C598 H664 0.961 . S
C598 H665 0.961 . S
C598 H666 0.959 . S
C599 C598 1.530 . S
C599 O627 1.412 . S
C599 H663 0.980 . S
C600 C601 1.288 . S
C600 C605 1.377 . S
C600 O627 1.393 . S
C601 C600 1.288 . S
C601 C602 1.365 1_556 S
C601 H667 0.932 . S
C602 C601 1.365 1_554 S
C602 C603 1.400 . S
C602 C606 1.529 . S
C603 C602 1.400 . S
C603 C604 1.380 . S
C603 C617 1.497 . S
C604 C603 1.380 . S
C604 C605 1.383 1_554 S
C604 C607 1.603 . S
C605 C600 1.377 . S
C605 C604 1.383 1_556 S
C605 H668 0.929 . S
C606 C602 1.529 . S
C606 H669 0.961 . S
C606 H670 0.959 1_554 S
C606 H671 0.959 . S
C607 C604 1.603 . S
C607 H672 0.960 1_554 S
C607 H673 0.962 . S
C607 H674 0.961 . S
C608 C575 1.587 . S
C608 C609 1.360 . S
C608 C621 1.412 . S
C609 C608 1.360 . S
C609 C610 1.365 . S
C609 H675 0.929 . S
C610 C585 1.553 . S
C610 C609 1.365 . S
C610 C611 1.404 . S
C611 C610 1.404 . S
C611 C612 1.395 . S
C611 C622 1.451 . S
C612 C611 1.395 . S
C612 C613 1.322 . S
C612 H676 0.930 . S
C613 C612 1.322 . S
C613 C614 1.459 . S
C613 H677 0.929 . S
C614 C613 1.459 . S
C614 C615 1.445 . S
C614 C623 1.395 . S
C615 C593 1.432 . S
C615 C614 1.445 . S
C615 C616 1.370 . S
C616 C615 1.370 . S
C616 C617 1.438 . S
C616 H678 0.930 1_554 S
C617 C603 1.497 . S
C617 C616 1.438 . S
C617 C618 1.360 . S
C618 C617 1.360 . S
C618 C619 1.401 . S
C618 C623 1.446 . S
C619 C618 1.401 . S
C619 C620 1.347 . S
C619 H679 0.929 . S
C620 C619 1.347 . S
C620 C621 1.455 . S
C620 H680 0.930 . S
C621 C608 1.412 . S
C621 C620 1.455 . S
C621 C622 1.331 . S
C622 C611 1.451 . S
C622 C621 1.331 . S
C622 C623 1.497 . S
C623 C614 1.395 . S
C623 C618 1.446 . S
C623 C622 1.497 . S
C624 C625 1.582 . S
C624 H681 0.962 . S
C624 H682 0.959 . S
C624 H683 0.958 . S
C625 C624 1.582 . S
C625 O628 1.458 . S
C625 H654 0.980 . S
O626 C571 1.426 . S
O626 C572 1.334 . S
O627 C599 1.412 . S
O627 C600 1.393 . S
O628 C590 1.435 . S
O628 C625 1.458 . S
O629 C581 1.468 . S
O629 C582 1.408 . S
H630 C571 0.980 . S
H631 C570 0.959 . S
H632 C570 0.959 . S
H633 C570 0.960 . S
H634 C573 0.929 . S
H635 C577 0.929 . S
H636 C578 0.959 . S
H637 C578 0.961 . S
H638 C578 0.961 . S
H639 C579 0.960 . S
H640 C579 0.960 . S
H641 C579 0.961 . S
H642 C581 0.980 . S
H643 C580 0.961 . S
H644 C580 0.960 . S
H645 C580 0.959 . S
H646 C583 0.930 . S
H647 C587 0.931 . S
H648 C588 0.959 . S
H649 C588 0.961 . S
H650 C588 0.959 . S
H651 C589 0.960 . S
H652 C589 0.960 . S
H653 C589 0.960 . S
H654 C625 0.980 . S
H655 C591 0.930 . S
H656 C595 0.930 . S
H657 C596 0.961 . S
H658 C596 0.960 . S
H659 C596 0.957 1_556 S
H660 C597 0.961 . S
H661 C597 0.960 . S
H662 C597 0.960 . S
H663 C599 0.980 . S
H664 C598 0.961 . S
H665 C598 0.961 . S
H666 C598 0.959 . S
H667 C601 0.932 . S
H668 C605 0.929 . S
H669 C606 0.961 . S
H670 C606 0.959 1_556 S
H671 C606 0.959 . S
H672 C607 0.960 1_556 S
H673 C607 0.962 . S
H674 C607 0.961 . S
H675 C609 0.929 . S
H676 C612 0.930 . S
H677 C613 0.929 . S
H678 C616 0.930 1_556 S
H679 C619 0.929 . S
H680 C620 0.930 . S
H681 C624 0.962 . S
H682 C624 0.959 . S
H683 C624 0.958 . S
C684 O711 1.312 . S
C684 O712 1.208 . S
C685 O706 1.331 . S
C685 O709 1.244 . S
C686 O708 1.264 . S
C686 O710 1.273 . S
Mg687 O689 1.936 . S
Mg687 O696 2.081 1_455 S
Mg687 O698 2.023 . S
Mg687 O702 2.031 1_455 S
Mg687 O711 2.291 . S
Mg688 O689 1.963 . S
Mg688 O699 1.942 1_455 S
Mg688 O700 1.955 . S
Mg688 O707 1.986 1_455 S
O689 Mg687 1.936 . S
O689 Mg688 1.963 . S
O689 Mg690 1.915 . S
Mg690 O689 1.915 . S
Mg690 O691 1.915 . S
Mg690 O695 2.013 . S
Mg690 O701 2.114 1_455 S
Mg690 O705 2.013 1_455 S
Mg690 O711 2.114 . S
O691 Mg690 1.915 . S
O691 Mg692 1.936 . S
O691 Mg693 1.963 . S
Mg692 O691 1.936 . S
Mg692 O701 2.291 1_455 S
Mg692 O706 2.081 . S
Mg692 O708 2.023 1_455 S
Mg692 O712 2.031 . S
Mg693 O691 1.963 . S
Mg693 O697 1.986 . S
Mg693 O709 1.942 . S
Mg693 O710 1.955 1_455 S
C694 O705 1.191 . S
C694 O707 1.307 . S
O695 Mg690 2.013 . S
O695 C714 1.191 . S
O696 Mg687 2.081 1_655 S
O696 C704 1.331 . S
O697 Mg693 1.986 . S
O697 C714 1.307 . S
O698 Mg687 2.023 . S
O698 C713 1.264 . S
O699 Mg688 1.942 1_655 S
O699 C704 1.244 . S
O700 Mg688 1.955 . S
O700 C713 1.273 . S
O701 Mg690 2.114 1_655 S
O701 Mg692 2.291 1_655 S
O701 C703 1.312 . S
O702 Mg687 2.031 1_655 S
O702 C703 1.208 . S
C703 O701 1.312 . S
C703 O702 1.208 . S
C704 O696 1.331 . S
C704 O699 1.244 . S
O705 Mg690 2.013 1_655 S
O705 C694 1.191 . S
O706 C685 1.331 . S
O706 Mg692 2.081 . S
O707 Mg688 1.986 1_655 S
O707 C694 1.307 . S
O708 C686 1.264 . S
O708 Mg692 2.023 1_655 S
O709 C685 1.244 . S
O709 Mg693 1.942 . S
O710 C686 1.273 . S
O710 Mg693 1.955 1_655 S
O711 C684 1.312 . S
O711 Mg687 2.291 . S
O711 Mg690 2.114 . S
O712 C684 1.208 . S
O712 Mg692 2.031 . S
C713 O698 1.264 . S
C713 O700 1.273 . S
C714 O695 1.191 . S
C714 O697 1.307 . S
C715 O742 1.312 . S
C715 O743 1.208 . S
C716 O737 1.331 . S
C716 O740 1.244 . S
C717 O739 1.264 . S
C717 O741 1.273 . S
Mg718 O720 1.936 1_545 S
Mg718 O727 2.081 1_545 S
Mg718 O729 2.023 . S
Mg718 O733 2.031 1_545 S
Mg718 O742 2.291 . S
Mg719 O720 1.963 . S
Mg719 O730 1.942 . S
Mg719 O731 1.955 1_565 S
Mg719 O738 1.986 . S
O720 Mg718 1.936 1_565 S
O720 Mg719 1.963 . S
O720 Mg721 1.915 1_565 S
Mg721 O720 1.915 1_545 S
Mg721 O722 1.915 . S
Mg721 O726 2.013 . S
Mg721 O732 2.114 1_545 S
Mg721 O736 2.013 1_545 S
Mg721 O742 2.114 . S
O722 Mg721 1.915 . S
O722 Mg723 1.936 . S
O722 Mg724 1.963 . S
Mg723 O722 1.936 . S
Mg723 O732 2.291 1_545 S
Mg723 O737 2.081 . S
Mg723 O739 2.023 1_545 S
Mg723 O743 2.031 . S
Mg724 O722 1.963 . S
Mg724 O728 1.986 . S
Mg724 O740 1.942 . S
Mg724 O741 1.955 1_545 S
C725 O736 1.191 . S
C725 O738 1.307 . S
O726 Mg721 2.013 . S
O726 C745 1.191 . S
O727 Mg718 2.081 1_565 S
O727 C735 1.331 . S
O728 Mg724 1.986 . S
O728 C745 1.307 . S
O729 Mg718 2.023 . S
O729 C744 1.264 . S
O730 Mg719 1.942 . S
O730 C735 1.244 . S
O731 Mg719 1.955 1_545 S
O731 C744 1.273 . S
O732 Mg721 2.114 1_565 S
O732 Mg723 2.291 1_565 S
O732 C734 1.312 . S
O733 Mg718 2.031 1_565 S
O733 C734 1.208 . S
C734 O732 1.312 . S
C734 O733 1.208 . S
C735 O727 1.331 . S
C735 O730 1.244 . S
O736 Mg721 2.013 1_565 S
O736 C725 1.191 . S
O737 C716 1.331 . S
O737 Mg723 2.081 . S
O738 Mg719 1.986 . S
O738 C725 1.307 . S
O739 C717 1.264 . S
O739 Mg723 2.023 1_565 S
O740 C716 1.244 . S
O740 Mg724 1.942 . S
O741 C717 1.273 . S
O741 Mg724 1.955 1_565 S
O742 C715 1.312 . S
O742 Mg718 2.291 . S
O742 Mg721 2.114 . S
O743 C715 1.208 . S
O743 Mg723 2.031 . S
C744 O729 1.264 . S
C744 O731 1.273 . S
C745 O726 1.191 . S
C745 O728 1.307 . S
C746 O773 1.312 . S
C746 O774 1.208 . S
C747 O768 1.331 . S
C747 O771 1.244 . S
C748 O770 1.264 . S
C748 O772 1.273 . S
Mg749 O751 1.936 . S
Mg749 O758 2.081 . S
Mg749 O760 2.023 . S
Mg749 O764 2.031 . S
Mg749 O773 2.291 . S
Mg750 O751 1.963 . S
Mg750 O761 1.942 . S
Mg750 O762 1.955 . S
Mg750 O769 1.986 . S
O751 Mg749 1.936 . S
O751 Mg750 1.963 . S
O751 Mg752 1.915 . S
Mg752 O751 1.915 . S
Mg752 O753 1.915 . S
Mg752 O757 2.013 . S
Mg752 O763 2.114 . S
Mg752 O767 2.013 . S
Mg752 O773 2.114 . S
O753 Mg752 1.915 . S
O753 Mg754 1.936 . S
O753 Mg755 1.963 . S
Mg754 O753 1.936 . S
Mg754 O763 2.291 . S
Mg754 O768 2.081 . S
Mg754 O770 2.023 . S
Mg754 O774 2.031 . S
Mg755 O753 1.963 . S
Mg755 O759 1.986 . S
Mg755 O771 1.942 . S
Mg755 O772 1.955 . S
C756 O767 1.191 . S
C756 O769 1.307 . S
O757 Mg752 2.013 . S
O757 C776 1.191 . S
O758 Mg749 2.081 . S
O758 C766 1.331 . S
O759 Mg755 1.986 . S
O759 C776 1.307 . S
O760 Mg749 2.023 . S
O760 C775 1.264 . S
O761 Mg750 1.942 . S
O761 C766 1.244 . S
O762 Mg750 1.955 . S
O762 C775 1.273 . S
O763 Mg752 2.114 . S
O763 Mg754 2.291 . S
O763 C765 1.312 . S
O764 Mg749 2.031 . S
O764 C765 1.208 . S
C765 O763 1.312 . S
C765 O764 1.208 . S
C766 O758 1.331 . S
C766 O761 1.244 . S
O767 Mg752 2.013 . S
O767 C756 1.191 . S
O768 C747 1.331 . S
O768 Mg754 2.081 . S
O769 Mg750 1.986 . S
O769 C756 1.307 . S
O770 C748 1.264 . S
O770 Mg754 2.023 . S
O771 C747 1.244 . S
O771 Mg755 1.942 . S
O772 C748 1.273 . S
O772 Mg755 1.955 . S
O773 C746 1.312 . S
O773 Mg749 2.291 . S
O773 Mg752 2.114 . S
O774 C746 1.208 . S
O774 Mg754 2.031 . S
C775 O760 1.264 . S
C775 O762 1.273 . S
C776 O757 1.191 . S
C776 O759 1.307 . S
C777 C778 1.387 . S
C777 H781 0.950 . S
C777 C786 1.390 . S
C778 C777 1.387 . S
C778 C780 1.387 . S
H779 C786 0.950 . S
C780 C778 1.387 . S
C780 C782 1.390 . S
C780 H784 0.950 . S
H781 C777 0.950 . S
C782 C780 1.390 . S
C782 C783 1.387 . S
C782 H785 0.950 . S
C783 C782 1.387 . S
C783 C786 1.387 . S
H784 C780 0.950 . S
H785 C782 0.950 . S
C786 C777 1.390 . S
C786 H779 0.950 . S
C786 C783 1.387 . S
C787 C788 1.387 . S
C787 H791 0.950 . S
C787 C796 1.390 . S
C788 C787 1.387 . S
C788 C790 1.387 . S
H789 C796 0.950 . S
C790 C788 1.387 . S
C790 C792 1.390 . S
C790 H794 0.950 . S
H791 C787 0.950 . S
C792 C790 1.390 . S
C792 C793 1.387 . S
C792 H795 0.950 . S
C793 C792 1.387 . S
C793 C796 1.387 . S
H794 C790 0.950 . S
H795 C792 0.950 . S
C796 C787 1.390 . S
C796 H789 0.950 . S
C796 C793 1.387 . S
C797 C798 1.387 . S
C797 H801 0.950 . S
C797 C806 1.390 . S
C798 C797 1.387 . S
C798 C800 1.387 . S
H799 C806 0.950 . S
C800 C798 1.387 . S
C800 C802 1.390 . S
C800 H804 0.950 . S
H801 C797 0.950 . S
C802 C800 1.390 . S
C802 C803 1.387 . S
C802 H805 0.950 . S
C803 C802 1.387 . S
C803 C806 1.387 . S
H804 C800 0.950 . S
H805 C802 0.950 . S
C806 C797 1.390 . S
C806 H799 0.950 . S
C806 C803 1.387 . S
C807 C808 1.387 . S
C807 H811 0.950 . S
C807 C816 1.390 . S
C808 C807 1.387 . S
C808 C810 1.387 . S
H809 C816 0.950 . S
C810 C808 1.387 . S
C810 C812 1.390 . S
C810 H814 0.950 . S
H811 C807 0.950 . S
C812 C810 1.390 . S
C812 C813 1.387 . S
C812 H815 0.950 . S
C813 C812 1.387 . S
C813 C816 1.387 . S
H814 C810 0.950 . S
H815 C812 0.950 . S
C816 C807 1.390 . S
C816 H809 0.950 . S
C816 C813 1.387 . S
C817 C818 1.387 . S
C817 H821 0.950 . S
C817 C826 1.390 . S
C818 C817 1.387 . S
C818 C820 1.387 . S
H819 C826 0.950 . S
C820 C818 1.387 . S
C820 C822 1.390 . S
C820 H824 0.950 . S
H821 C817 0.950 . S
C822 C820 1.390 . S
C822 C823 1.387 . S
C822 H825 0.950 . S
C823 C822 1.387 . S
C823 C826 1.387 . S
H824 C820 0.950 . S
H825 C822 0.950 . S
C826 C817 1.390 . S
C826 H819 0.950 . S
C826 C823 1.387 . S
C827 C828 1.387 . S
C827 H831 0.950 . S
C827 C836 1.390 . S
C828 C827 1.387 . S
C828 C830 1.387 . S
H829 C836 0.950 . S
C830 C828 1.387 . S
C830 C832 1.390 . S
C830 H834 0.950 . S
H831 C827 0.950 . S
C832 C830 1.390 . S
C832 C833 1.387 . S
C832 H835 0.950 . S
C833 C832 1.387 . S
C833 C836 1.387 . S
H834 C830 0.950 . S
H835 C832 0.950 . S
C836 C827 1.390 . S
C836 H829 0.950 . S
C836 C833 1.387 . S
C837 C838 1.387 . S
C837 H841 0.950 . S
C837 C846 1.390 . S
C838 C837 1.387 . S
C838 C840 1.387 . S
H839 C846 0.950 . S
C840 C838 1.387 . S
C840 C842 1.390 . S
C840 H844 0.950 . S
H841 C837 0.950 . S
C842 C840 1.390 . S
C842 C843 1.387 . S
C842 H845 0.950 . S
C843 C842 1.387 . S
C843 C846 1.387 . S
H844 C840 0.950 . S
H845 C842 0.950 . S
C846 C837 1.390 . S
C846 H839 0.950 . S
C846 C843 1.387 . S
C847 C848 1.387 . S
C847 H851 0.950 . S
C847 C856 1.390 . S
C848 C847 1.387 . S
C848 C850 1.387 . S
H849 C856 0.950 . S
C850 C848 1.387 . S
C850 C852 1.390 . S
C850 H854 0.950 . S
H851 C847 0.950 . S
C852 C850 1.390 . S
C852 C853 1.387 . S
C852 H855 0.950 . S
C853 C852 1.387 . S
C853 C856 1.387 . S
H854 C850 0.950 . S
H855 C852 0.950 . S
C856 C847 1.390 . S
C856 H849 0.950 . S
C856 C853 1.387 . S
C857 C858 1.387 . S
C857 H861 0.950 . S
C857 C866 1.390 . S
C858 C857 1.387 . S
C858 C860 1.387 . S
H859 C866 0.950 . S
C860 C858 1.387 . S
C860 C862 1.390 . S
C860 H864 0.950 . S
H861 C857 0.950 . S
C862 C860 1.390 . S
C862 C863 1.387 . S
C862 H865 0.950 . S
C863 C862 1.387 . S
C863 C866 1.387 . S
H864 C860 0.950 . S
H865 C862 0.950 . S
C866 C857 1.390 . S
C866 H859 0.950 . S
C866 C863 1.387 . S
C867 C868 1.387 . S
C867 H871 0.950 . S
C867 C876 1.390 . S
C868 C867 1.387 . S
C868 C870 1.387 . S
H869 C876 0.950 . S
C870 C868 1.387 . S
C870 C872 1.390 . S
C870 H874 0.950 . S
H871 C867 0.950 . S
C872 C870 1.390 . S
C872 C873 1.387 . S
C872 H875 0.950 . S
C873 C872 1.387 . S
C873 C876 1.387 . S
H874 C870 0.950 . S
H875 C872 0.950 . S
C876 C867 1.390 . S
C876 H869 0.950 . S
C876 C873 1.387 . S
C877 C878 1.387 . S
C877 H881 0.950 . S
C877 C886 1.390 . S
C878 C877 1.387 . S
C878 C880 1.387 . S
H879 C886 0.950 . S
C880 C878 1.387 . S
C880 C882 1.390 . S
C880 H884 0.950 . S
H881 C877 0.950 . S
C882 C880 1.390 . S
C882 C883 1.387 . S
C882 H885 0.950 . S
C883 C882 1.387 . S
C883 C886 1.387 . S
H884 C880 0.950 . S
H885 C882 0.950 . S
C886 C877 1.390 . S
C886 H879 0.950 . S
C886 C883 1.387 . S
C887 C888 1.387 . S
C887 H891 0.950 . S
C887 C896 1.390 . S
C888 C887 1.387 . S
C888 C890 1.387 . S
H889 C896 0.950 . S
C890 C888 1.387 . S
C890 C892 1.390 . S
C890 H894 0.950 . S
H891 C887 0.950 . S
C892 C890 1.390 . S
C892 C893 1.387 . S
C892 H895 0.950 . S
C893 C892 1.387 . S
C893 C896 1.387 . S
H894 C890 0.950 . S
H895 C892 0.950 . S
C896 C887 1.390 . S
C896 H889 0.950 . S
C896 C893 1.387 . S
C897 C898 1.387 . S
C897 H901 0.950 . S
C897 C906 1.390 . S
C898 C897 1.387 . S
C898 C900 1.387 . S
H899 C906 0.950 . S
C900 C898 1.387 . S
C900 C902 1.390 . S
C900 H904 0.950 . S
H901 C897 0.950 . S
C902 C900 1.390 . S
C902 C903 1.387 . S
C902 H905 0.950 . S
C903 C902 1.387 . S
C903 C906 1.387 . S
H904 C900 0.950 . S
H905 C902 0.950 . S
C906 C897 1.390 . S
C906 H899 0.950 . S
C906 C903 1.387 . S
C907 C908 1.387 . S
C907 H911 0.950 . S
C907 C916 1.390 . S
C908 C907 1.387 . S
C908 C910 1.387 . S
H909 C916 0.950 . S
C910 C908 1.387 . S
C910 C912 1.390 . S
C910 H914 0.950 . S
H911 C907 0.950 . S
C912 C910 1.390 . S
C912 C913 1.387 . S
C912 H915 0.950 . S
C913 C912 1.387 . S
C913 C916 1.387 . S
H914 C910 0.950 . S
H915 C912 0.950 . S
C916 C907 1.390 . S
C916 H909 0.950 . S
C916 C913 1.387 . S
C917 C918 1.387 . S
C917 H921 0.950 . S
C917 C926 1.390 . S
C918 C917 1.387 . S
C918 C920 1.387 . S
H919 C926 0.950 . S
C920 C918 1.387 . S
C920 C922 1.390 . S
C920 H924 0.950 . S
H921 C917 0.950 . S
C922 C920 1.390 . S
C922 C923 1.387 . S
C922 H925 0.950 . S
C923 C922 1.387 . S
C923 C926 1.387 . S
H924 C920 0.950 . S
H925 C922 0.950 . S
C926 C917 1.390 . S
C926 H919 0.950 . S
C926 C923 1.387 . S
C927 C928 1.387 . S
C927 H931 0.950 . S
C927 C936 1.390 . S
C928 C927 1.387 . S
C928 C930 1.387 . S
H929 C936 0.950 . S
C930 C928 1.387 . S
C930 C932 1.390 . S
C930 H934 0.950 . S
H931 C927 0.950 . S
C932 C930 1.390 . S
C932 C933 1.387 . S
C932 H935 0.950 . S
C933 C932 1.387 . S
C933 C936 1.387 . S
H934 C930 0.950 . S
H935 C932 0.950 . S
C936 C927 1.390 . S
C936 H929 0.950 . S
C936 C933 1.387 . S
C937 C938 1.387 . S
C937 H941 0.950 . S
C937 C946 1.390 . S
C938 C937 1.387 . S
C938 C940 1.387 . S
H939 C946 0.950 . S
C940 C938 1.387 . S
C940 C942 1.390 . S
C940 H944 0.950 . S
H941 C937 0.950 . S
C942 C940 1.390 . S
C942 C943 1.387 . S
C942 H945 0.950 . S
C943 C942 1.387 . S
C943 C946 1.387 . S
H944 C940 0.950 . S
H945 C942 0.950 . S
C946 C937 1.390 . S
C946 H939 0.950 . S
C946 C943 1.387 . S
C947 C948 1.387 . S
C947 H951 0.950 . S
C947 C956 1.390 . S
C948 C947 1.387 . S
C948 C950 1.387 . S
H949 C956 0.950 . S
C950 C948 1.387 . S
C950 C952 1.390 . S
C950 H954 0.950 . S
H951 C947 0.950 . S
C952 C950 1.390 . S
C952 C953 1.387 . S
C952 H955 0.950 . S
C953 C952 1.387 . S
C953 C956 1.387 . S
H954 C950 0.950 . S
H955 C952 0.950 . S
C956 C947 1.390 . S
C956 H949 0.950 . S
C956 C953 1.387 . S
C957 C958 1.387 . S
C957 H961 0.950 . S
C957 C966 1.390 . S
C958 C957 1.387 . S
C958 C960 1.387 . S
H959 C966 0.950 . S
C960 C958 1.387 . S
C960 C962 1.390 . S
C960 H964 0.950 . S
H961 C957 0.950 . S
C962 C960 1.390 . S
C962 C963 1.387 . S
C962 H965 0.950 . S
C963 C962 1.387 . S
C963 C966 1.387 . S
H964 C960 0.950 . S
H965 C962 0.950 . S
C966 C957 1.390 . S
C966 H959 0.950 . S
C966 C963 1.387 . S
C967 C968 1.387 . S
C967 H971 0.950 . S
C967 C976 1.390 . S
C968 C967 1.387 . S
C968 C970 1.387 . S
H969 C976 0.950 . S
C970 C968 1.387 . S
C970 C972 1.390 . S
C970 H974 0.950 . S
H971 C967 0.950 . S
C972 C970 1.390 . S
C972 C973 1.387 . S
C972 H975 0.950 . S
C973 C972 1.387 . S
C973 C976 1.387 . S
H974 C970 0.950 . S
H975 C972 0.950 . S
C976 C967 1.390 . S
C976 H969 0.950 . S
C976 C973 1.387 . S
C977 C978 1.387 . S
C977 H981 0.950 . S
C977 C986 1.390 . S
C978 C977 1.387 . S
C978 C980 1.387 . S
H979 C986 0.950 . S
C980 C978 1.387 . S
C980 C982 1.390 . S
C980 H984 0.950 . S
H981 C977 0.950 . S
C982 C980 1.390 . S
C982 C983 1.387 . S
C982 H985 0.974 . S
C983 C982 1.387 . S
C983 C986 1.387 . S
H984 C980 0.950 . S
H985 C982 0.974 . S
C986 C977 1.390 . S
C986 H979 0.950 . S
C986 C983 1.387 . S
C987 C988 1.387 . S
C987 H991 0.950 . S
C987 C996 1.390 . S
C988 C987 1.387 . S
C988 C990 1.387 . S
H989 C996 0.950 . S
C990 C988 1.387 . S
C990 C992 1.390 . S
C990 H994 0.950 . S
H991 C987 0.950 . S
C992 C990 1.390 . S
C992 C993 1.387 . S
C992 H995 0.950 . S
C993 C992 1.387 . S
C993 C996 1.387 . S
H994 C990 0.950 . S
H995 C992 0.950 . S
C996 C987 1.390 . S
C996 H989 0.950 . S
C996 C993 1.387 . S
C997 C998 1.387 . S
C997 H1001 0.950 . S
C997 C1006 1.390 . S
C998 C997 1.387 . S
C998 C1000 1.387 . S
H999 C1006 0.950 . S
C1000 C998 1.387 . S
C1000 C1002 1.390 . S
C1000 H1004 0.950 . S
H1001 C997 0.950 . S
C1002 C1000 1.390 . S
C1002 C1003 1.387 . S
C1002 H1005 0.950 . S
C1003 C1002 1.387 . S
C1003 C1006 1.387 . S
H1004 C1000 0.950 . S
H1005 C1002 0.950 . S
C1006 C997 1.390 . S
C1006 H999 0.950 . S
C1006 C1003 1.387 . S
C1007 C1008 1.387 . S
C1007 H1011 0.950 . S
C1007 C1016 1.390 . S
C1008 C1007 1.387 . S
C1008 C1010 1.387 . S
H1009 C1016 0.950 . S
C1010 C1008 1.387 . S
C1010 C1012 1.390 . S
C1010 H1014 0.950 . S
H1011 C1007 0.950 . S
C1012 C1010 1.390 . S
C1012 C1013 1.387 . S
C1012 H1015 0.950 . S
C1013 C1012 1.387 . S
C1013 C1016 1.387 . S
H1014 C1010 0.950 . S
H1015 C1012 0.950 . S
C1016 C1007 1.390 . S
C1016 H1009 0.950 . S
C1016 C1013 1.387 . S
C778 C11 1.743 . S
C783 C684 1.856 . S
C788 C125 1.363 . S
C793 C716 1.629 . S
C803 C775 1.987 . S
C798 C239 1.528 . S
C813 C704 1.386 . S
C808 C343 1.303 . S
C818 C485 1.295 . S
C823 C734 1.809 . S
C833 C756 1.448 . S
C828 C571 1.431 . S
C843 C725 2.005 . S
C838 C257 1.267 . S
C848 C397 0.757 . S
C853 C765 1.486 . S
C863 C714 1.906 . S
C858 C467 1.599 . S
C868 C625 1.042 . S
C873 C744 1.600 . S
C878 C29 1.425 . S
C883 C747 1.906 . S
C893 C686 1.753 . S
C888 C143 1.146 . S
C903 C694 1.762 . S
C898 C371 1.567 . S
C913 C735 1.402 . S
C908 C457 1.092 . S
C923 C748 1.874 . S
C918 C599 1.675 . S
C933 C685 1.473 . S
C928 C55 1.277 . S
C943 C745 1.672 . S
C938 C169 1.541 . S
C948 C283 1.158 . S
C953 C746 1.358 . S
C963 C715 1.700 . S
C958 C581 1.068 . S
C973 C776 1.239 . S
C968 C1 1.103 . S
C983 C703 1.546 . S
C978 C115 1.161 . S
C993 C717 1.347 . S
C988 C229 1.005 . S
C998 C353 1.015 . S
C1003 C766 1.841 . S
C1008 C511 1.382 . S
C1013 C713 1.629 . S
