# Generated by pormake.
# Topology tsx, (6,3)-cn, num edge types: 1
# Building blocks:
#     Node 0, Type 0, BuildingBlock: FUNLAD_clean_sbu_0, # of connection points: 6
#     Node 1, Type 0, BuildingBlock: FUNLAD_clean_sbu_0, # of connection points: 6
#     Node 2, Type 1, BuildingBlock: BETDAH_clean_linker_0, # of connection points: 3
#     Node 3, Type 1, BuildingBlock: BETDAH_clean_linker_0, # of connection points: 3
#     Node 4, Type 1, BuildingBlock: BETDAH_clean_linker_0, # of connection points: 3
#     Node 5, Type 1, BuildingBlock: BETDAH_clean_linker_0, # of connection points: 3
#     Edge 6, Type (0, 1), BuildingBlock: EZIPEK_clean_linker_0, # of connection points: 2
#     Edge 7, Type (0, 1), BuildingBlock: EZIPEK_clean_linker_0, # of connection points: 2
#     Edge 8, Type (0, 1), BuildingBlock: EZIPEK_clean_linker_0, # of connection points: 2
#     Edge 9, Type (0, 1), BuildingBlock: EZIPEK_clean_linker_0, # of connection points: 2
#     Edge 10, Type (0, 1), BuildingBlock: EZIPEK_clean_linker_0, # of connection points: 2
#     Edge 11, Type (0, 1), BuildingBlock: EZIPEK_clean_linker_0, # of connection points: 2
#     Edge 12, Type (0, 1), BuildingBlock: EZIPEK_clean_linker_0, # of connection points: 2
#     Edge 13, Type (0, 1), BuildingBlock: EZIPEK_clean_linker_0, # of connection points: 2
#     Edge 14, Type (0, 1), BuildingBlock: EZIPEK_clean_linker_0, # of connection points: 2
#     Edge 15, Type (0, 1), BuildingBlock: EZIPEK_clean_linker_0, # of connection points: 2
#     Edge 16, Type (0, 1), BuildingBlock: EZIPEK_clean_linker_0, # of connection points: 2
#     Edge 17, Type (0, 1), BuildingBlock: EZIPEK_clean_linker_0, # of connection points: 2
# Relax obj value: 0.112
# Max RMSD: 0.118
# Mean RMSD: 0.113
data_MOF--net-tsx--node1-FUNLAD_clean_sbu_0--node2-BETDAH_clean_linker_0--edge1-EZIPEK_clean_linker_0
_symmetry_space_group_name_H-M    P1
_symmetry_Int_Tables_number       1
_symmetry_cell_setting            triclinic
loop_
_symmetry_equiv_pos_as_xyz
'x, y, z'
_cell_length_a     14.241323
_cell_length_b     15.135784
_cell_length_c     30.902764
_cell_angle_alpha  90.779143
_cell_angle_beta   101.25344
_cell_angle_gamma 89.018257
loop_
_atom_site_label
_atom_site_type_symbol
_atom_site_fract_x
_atom_site_fract_y
_atom_site_fract_z
_atom_type_partial_charge
C0 C 0.82731 0.87397 0.96388 0.0
N1 N 0.00599 0.95793 0.07543 0.0
C2 C 0.93292 0.95894 0.09792 0.0
C3 C 0.95136 0.94334 0.14294 0.0
C4 C 0.04541 0.92527 0.16443 0.0
C5 C 0.11859 0.91828 0.14014 0.0
C6 C 0.09724 0.93628 0.09523 0.0
Zn7 Zn 0.9774 0.99324 0.01191 0.0
C8 C 0.09107 0.89361 0.95764 0.0
N9 N 0.9141 0.0649 0.87788 0.0
C10 C 0.83197 0.05528 0.84722 0.0
C11 C -0.00473 0.09474 0.86629 0.0
C12 C -0.00236 0.11385 0.82279 0.0
C13 C 0.91636 0.1 0.79026 0.0
C14 C 0.83163 0.07232 0.80259 0.0
Zn15 Zn 0.93517 0.02724 0.94273 0.0
O16 O 0.87121 0.90107 0.00104 0.0
C17 C 0.81394 0.12195 -0.00765 0.0
O18 O 0.84224 0.91109 0.92888 0.0
H19 H 0.06071 0.09838 0.89037 0.0
H20 H 0.8607 0.97459 0.08121 0.0
H21 H 0.76849 0.03044 0.85697 0.0
O22 O 0.87465 0.09188 0.02481 0.0
O23 O 0.82046 0.10072 0.95327 0.0
H24 H 0.15396 0.93588 0.07653 0.0
O25 O 0.0241 0.14397 0.9621 0.0
O26 O 0.08703 0.08646 0.02567 0.0
O27 O 0.05106 0.9506 0.93038 0.0
O28 O 0.07383 0.89442 -0.00356 0.0
C29 C 0.08159 0.15015 -0.00079 0.0
H30 H 0.89369 0.94873 0.16114 0.0
H31 H 0.19186 0.90437 0.15625 0.0
H32 H 0.06458 0.13298 0.81415 0.0
H33 H 0.76818 0.0593 0.77784 0.0
C34 C 0.45929 0.42481 0.50907 0.0
N35 N 0.61786 0.57788 0.60573 0.0
C36 C 0.53808 0.58669 0.62353 0.0
C37 C 0.54515 0.58333 0.66886 0.0
C38 C 0.63494 0.5702 0.69592 0.0
C39 C 0.71711 0.56611 0.67734 0.0
C40 C 0.70675 0.57025 0.63151 0.0
Zn41 Zn 0.59706 0.56692 0.5394 0.0
C42 C 0.72392 0.43306 0.50741 0.0
N43 N 0.54448 0.54575 0.39935 0.0
C44 C 0.45617 0.53187 0.37418 0.0
C45 C 0.62257 0.55544 0.38054 0.0
C46 C 0.61367 0.55153 0.33477 0.0
C47 C 0.52362 0.53733 0.30819 0.0
C48 C 0.44407 0.52742 0.32816 0.0
Zn49 Zn 0.56421 0.5551 0.46677 0.0
O50 O 0.4972 0.47078 0.54208 0.0
C51 C 0.43372 0.68539 0.49529 0.0
O52 O 0.47413 0.4439 0.47086 0.0
H53 H 0.69209 0.56638 0.40111 0.0
H54 H 0.46813 0.59177 0.60247 0.0
H55 H 0.39511 0.52453 0.3898 0.0
O56 O 0.48599 0.66824 0.53261 0.0
O57 O 0.4474 0.64337 0.46126 0.0
H58 H 0.76899 0.56337 0.61644 0.0
O59 O 0.65379 0.66851 0.46659 0.0
O60 O 0.6971 0.66443 0.53869 0.0
O61 O 0.6798 0.4651 0.47129 0.0
O62 O 0.70576 0.46327 0.54363 0.0
C63 C 0.70029 0.70121 0.5025 0.0
H64 H 0.48062 0.58551 0.68254 0.0
H65 H 0.78713 0.5547 0.69772 0.0
H66 H 0.6763 0.55934 0.32022 0.0
H67 H 0.37362 0.51631 0.30834 0.0
H68 H 0.17255 0.84898 0.37496 0.0
H69 H 0.98585 0.07104 0.33504 0.0
H70 H 0.1095 0.03528 0.47104 0.0
C71 C 0.13235 0.90578 0.38373 0.0
C72 C 0.14376 0.93324 0.42774 0.0
C73 C 0.07604 0.95558 0.35056 0.0
C74 C 0.02724 0.03132 0.36118 0.0
C75 C 0.03597 0.05953 0.40485 0.0
C76 C 0.09566 1.01052 0.43811 0.0
N77 N -0.00645 0.14286 0.41252 0.0
C78 C 0.9571 0.17072 0.44934 0.0
H79 H 0.85022 0.03008 0.59943 0.0
H80 H 0.13294 0.13266 0.62027 0.0
H81 H 0.03562 0.95855 0.51174 0.0
C82 C 0.91335 0.04172 0.58592 0.0
C83 C 0.92423 1.00289 0.54547 0.0
C84 C 0.98814 0.086 0.61323 0.0
C85 C 0.07459 0.0991 0.59896 0.0
C86 C 0.09041 0.0559 0.56054 0.0
C87 C 0.01748 1.00308 0.53627 0.0
N88 N 0.18292 0.05368 0.54948 0.0
C89 C 0.23371 0.12893 0.54299 0.0
H90 H 0.67399 0.39815 0.88727 0.0
H91 H 0.42509 0.56534 0.8478 0.0
H92 H 0.4346 0.37544 0.95063 0.0
C93 C 0.60446 0.42198 0.89212 0.0
C94 C 0.56274 0.38504 0.92488 0.0
C95 C 0.55411 0.48519 0.86367 0.0
C96 C 0.46448 0.51689 0.87006 0.0
C97 C 0.42185 0.47915 0.9025 0.0
C98 C 0.46967 0.41062 0.9283 0.0
N99 N 0.32741 0.50243 0.90675 0.0
C100 C 0.29574 0.58905 0.91071 0.0
H101 H 0.33273 0.42887 0.1286 0.0
H102 H 0.57263 0.56661 0.09942 0.0
H103 H 0.37058 0.45259 -0.00509 0.0
C104 C 0.36671 0.45633 0.10364 0.0
C105 C 0.33019 0.44174 0.05828 0.0
C106 C 0.45125 0.50393 0.11834 0.0
C107 C 0.50579 0.53277 0.08799 0.0
C108 C 0.4764 0.5115 0.04325 0.0
C109 C 0.38985 0.46724 0.02927 0.0
N110 N 0.53453 0.52571 0.01137 0.0
C111 C 0.58659 0.60095 0.00631 0.0
C112 C 0.13474 0.271 0.05695 0.0
C113 C 0.13319 0.23436 0.01369 0.0
C114 C 0.20999 0.3685 -0.00398 0.0
C115 C 0.23932 0.3889 0.0413 0.0
N116 N 0.16168 0.40262 0.10319 0.0
N117 N 0.18086 0.25055 0.94301 0.0
C118 C 0.18329 0.35211 0.06946 0.0
C119 C 0.1729 0.28423 0.98326 0.0
N120 N 0.0891 0.23027 0.08603 0.0
N121 N 0.20247 0.43374 0.96567 0.0
H122 H 0.16559 0.18514 0.93402 0.0
H123 H 0.21442 0.28498 0.92136 0.0
H124 H 0.21532 0.4995 0.97546 0.0
H125 H 0.17189 0.4234 0.93248 0.0
H126 H 0.10105 0.24655 0.11951 0.0
H127 H 0.04055 0.17948 0.07735 0.0
H128 H 0.11355 0.38414 0.12271 0.0
H129 H 0.18134 0.46886 0.10707 0.0
C130 C 0.23842 0.79811 0.96955 0.0
C131 C 0.1497 0.82195 0.94279 0.0
C132 C 0.17315 0.70624 0.88921 0.0
C133 C 0.25277 0.6736 0.91963 0.0
N134 N 0.35202 0.68049 -0.00781 0.0
N135 N 0.02292 0.78637 0.88047 0.0
C136 C 0.28319 0.71758 0.9607 0.0
C137 C 0.1146 0.77356 0.90311 0.0
N138 N 0.28119 0.85317 0.00276 0.0
N139 N 0.15247 0.6721 0.84733 0.0
H140 H 0.97412 0.82991 0.89071 0.0
H141 H -0.00847 0.74648 0.85403 0.0
H142 H 0.19358 0.62178 0.83646 0.0
H143 H 0.10057 0.69946 0.82242 0.0
H144 H 0.35029 0.84223 0.02066 0.0
H145 H 0.25199 0.91451 0.00919 0.0
H146 H 0.36964 0.70395 0.02458 0.0
H147 H 0.38549 0.62176 -0.01386 0.0
C148 C 0.66623 0.79847 0.94808 0.0
C149 C 0.76633 0.79512 0.96442 0.0
C150 C 0.74637 0.66708 0.00979 0.0
C151 C 0.64689 0.66814 -0.00771 0.0
N152 N 0.51862 0.71672 0.93407 0.0
N153 N 0.90371 0.70952 -0.00056 0.0
C154 C 0.60849 0.72849 0.95821 0.0
C155 C 0.80688 0.7237 -0.0084 0.0
N156 N 0.62551 0.86958 0.92443 0.0
N157 N 0.78316 0.61338 0.04438 0.0
H158 H 0.94926 0.74803 -0.01494 0.0
H159 H 0.93709 0.65435 0.01589 0.0
H160 H 0.74107 0.57044 0.05834 0.0
H161 H 0.85382 0.61651 0.06137 0.0
H162 H 0.5517 0.88017 0.91623 0.0
H163 H 0.66555 0.92087 0.91549 0.0
H164 H 0.48983 0.75412 0.90645 0.0
H165 H 0.4781 0.66228 0.93839 0.0
C166 C 0.76145 0.27325 0.00704 0.0
C167 C 0.73694 0.18451 -0.00235 0.0
C168 C 0.58519 0.22787 0.95102 0.0
C169 C 0.61622 0.3171 0.9545 0.0
N170 N 0.73169 0.42657 -0.01312 0.0
N171 N 0.6158 0.07676 0.97672 0.0
C172 C 0.70276 0.34071 -0.01624 0.0
C173 C 0.64426 0.16223 0.97548 0.0
N174 N 0.84146 0.29187 0.03781 0.0
N175 N 0.50513 0.20455 0.92112 0.0
H176 H 0.66065 0.02879 -0.00558 0.0
H177 H 0.54668 0.05542 0.96408 0.0
H178 H 0.46247 0.24944 0.90047 0.0
H179 H 0.48437 0.13953 0.9141 0.0
H180 H 0.86211 0.35524 0.0487 0.0
H181 H 0.88225 0.24206 0.05581 0.0
H182 H 0.79886 0.44675 0.00323 0.0
H183 H 0.69019 0.47808 0.9709 0.0
C184 C 0.81369 0.80817 0.47833 0.0
C185 C 0.74332 0.78981 0.50364 0.0
C186 C 0.75526 0.94225 0.53153 0.0
C187 C 0.84446 0.9478 0.51882 0.0
N188 N 0.8969 0.92595 0.45061 0.0
N189 N 0.63835 0.84693 0.5515 0.0
C190 C 0.85753 0.89221 0.48329 0.0
C191 C 0.71051 0.85934 0.52905 0.0
N192 N 0.84173 0.74528 0.45123 0.0
N193 N 0.70882 0.01763 0.54081 0.0
H194 H 0.5987 0.78963 0.54914 0.0
H195 H 0.62085 0.89322 0.57406 0.0
H196 H 0.73773 0.07982 0.53799 0.0
H197 H 0.63863 0.01853 0.546 0.0
H198 H 0.8977 0.75458 0.43458 0.0
H199 H 0.81304 0.68213 0.44743 0.0
H200 H 0.8985 0.89276 0.42097 0.0
H201 H 0.91551 0.99214 0.45173 0.0
C202 C 0.74187 0.27602 0.48391 0.0
C203 C 0.78512 0.35299 0.5054 0.0
C204 C 0.94298 0.28523 0.50673 0.0
C205 C 0.90005 0.21891 0.47682 0.0
N206 N 0.75794 0.1472 0.43824 0.0
N207 N 0.9272 0.43039 0.53937 0.0
C208 C 0.79917 0.21199 0.46658 0.0
C209 C 0.88594 0.35675 0.51829 0.0
N210 N 0.64576 0.26444 0.48019 0.0
N211 N 0.0381 0.27892 0.52427 0.0
H212 H 0.88715 0.48261 0.54922 0.0
H213 H 0.00051 0.44172 0.54513 0.0
H214 H 0.07782 0.22422 0.51752 0.0
H215 H 0.07383 0.32089 0.54878 0.0
H216 H 0.61093 0.20614 0.469 0.0
H217 H 0.60235 0.3105 0.49246 0.0
H218 H 0.68494 0.14485 0.42506 0.0
H219 H 0.79779 0.09778 0.426 0.0
C220 C 0.43751 0.28961 0.55272 0.0
C221 C 0.40274 0.34711 0.51665 0.0
C222 C 0.26421 0.25311 0.4947 0.0
C223 C 0.29115 0.20341 0.53402 0.0
N224 N 0.39802 0.1828 0.60395 0.0
N225 N 0.27033 0.39401 0.4599 0.0
C226 C 0.37603 0.22449 0.56421 0.0
C227 C 0.31264 0.33181 0.4894 0.0
N228 N 0.53057 0.29375 0.57465 0.0
N229 N 0.19424 0.2241 0.4615 0.0
H230 H 0.3008 0.45495 0.45632 0.0
H231 H 0.20007 0.38905 0.44252 0.0
H232 H 0.15813 0.16688 0.46454 0.0
H233 H 0.17907 0.25216 0.43024 0.0
H234 H 0.56165 0.24766 0.59809 0.0
H235 H 0.58015 0.33689 0.56625 0.0
H236 H 0.45359 0.20251 0.62923 0.0
H237 H 0.3558 0.13326 0.61303 0.0
C238 C 0.38618 0.84103 0.47288 0.0
C239 C 0.36298 0.75929 0.49 0.0
C240 C 0.19443 0.80498 0.47863 0.0
C241 C 0.21743 0.8856 0.46043 0.0
N242 N 0.33686 0.99192 0.45342 0.0
N243 N 0.2512 0.67215 0.51965 0.0
C244 C 0.3143 0.90776 0.4626 0.0
C245 C 0.26911 0.74467 0.49685 0.0
N246 N 0.47506 0.85281 0.46363 0.0
N247 N 0.10083 0.78393 0.47597 0.0
H248 H 0.30444 0.62607 0.5324 0.0
H249 H 0.186 0.66146 0.52902 0.0
H250 H 0.04579 0.82816 0.46381 0.0
H251 H 0.07784 0.72222 0.4837 0.0
H252 H 0.49307 0.90708 0.44673 0.0
H253 H 0.52908 0.80487 0.46988 0.0
H254 H 0.40687 1.01445 0.45822 0.0
H255 H 0.28498 0.0416 0.44527 0.0
C256 C 0.11677 0.99582 0.23641 0.0
C257 C 0.06751 0.92382 0.21291 0.0
C258 C 0.02912 0.86691 0.28088 0.0
C259 C 0.08077 0.93757 0.30422 0.0
N260 N 0.19786 0.05203 0.30714 0.0
N261 N -0.00333 0.78038 0.21312 0.0
C262 C 0.13287 0.99621 0.28289 0.0
C263 C 0.03023 0.85564 0.23536 0.0
N264 N 0.14243 0.06673 0.21452 0.0
N265 N 0.97608 0.81329 0.30169 0.0
H266 H -0.00251 0.77035 0.17971 0.0
H267 H 0.9763 0.72505 0.2285 0.0
H268 H 0.97472 0.81928 0.33524 0.0
H269 H 0.92862 0.76678 0.28521 0.0
H270 H 0.16859 0.12497 0.23043 0.0
H271 H 0.12958 0.07132 0.18025 0.0
H272 H 0.24443 0.09004 0.29325 0.0
H273 H 0.21211 0.05361 0.34157 0.0
C274 C 0.90773 0.17321 0.71667 0.0
C275 C 0.92865 0.09759 0.74372 0.0
C276 C 0.00754 0.02533 0.6888 0.0
C277 C 0.98037 0.09784 0.66014 0.0
N278 N 0.89682 0.23668 0.64388 0.0
N279 N 0.98287 0.94591 0.75303 0.0
C280 C 0.92833 0.17091 0.6733 0.0
C281 C 0.9742 0.02204 0.72903 0.0
N282 N 0.86991 0.24736 0.73282 0.0
N283 N 0.06553 0.95938 0.67756 0.0
H284 H 0.95946 0.94057 0.78282 0.0
H285 H 0.00521 0.88555 0.7417 0.0
H286 H 0.08912 0.95701 0.64771 0.0
H287 H 0.09708 0.9105 0.69927 0.0
H288 H 0.86176 0.30775 0.71669 0.0
H289 H 0.85093 0.2496 0.76377 0.0
H290 H 0.84946 0.28684 0.64935 0.0
H291 H 0.91484 0.23861 0.61274 0.0
C292 C 0.61365 0.45801 0.7502 0.0
C293 C 0.63806 0.54561 0.74211 0.0
C294 C 0.62866 0.58858 0.81769 0.0
C295 C 0.58786 0.50553 0.82279 0.0
N296 N 0.53068 0.36382 0.79219 0.0
N297 N 0.66853 0.69586 0.76667 0.0
C298 C 0.57838 0.4404 0.78879 0.0
C299 C 0.64654 0.61141 0.77562 0.0
N300 N 0.62327 0.39199 0.72064 0.0
N301 N 0.65155 0.64435 0.85316 0.0
H302 H 0.68578 0.71325 0.73662 0.0
H303 H 0.66538 0.74909 0.78806 0.0
H304 H 0.64064 0.62782 0.88442 0.0
H305 H 0.68868 0.70285 0.85258 0.0
H306 H 0.61577 0.32531 0.72695 0.0
H307 H 0.64817 0.40299 0.69161 0.0
H308 H 0.51243 0.31883 0.76623 0.0
H309 H 0.50138 0.34844 0.8195 0.0
C310 C 0.47402 0.6055 0.23333 0.0
C311 C 0.51288 0.53219 0.2594 0.0
C312 C 0.53279 0.45018 0.19266 0.0
C313 C 0.4832 0.51897 0.16653 0.0
N314 N 0.4002 0.65967 0.16086 0.0
N315 N 0.5716 0.38152 0.26454 0.0
C316 C 0.45264 0.59638 0.18655 0.0
C317 C 0.54101 0.4538 0.23926 0.0
N318 N 0.45946 0.6843 0.25336 0.0
N319 N 0.57246 0.3817 0.17276 0.0
H320 H 0.57907 0.3817 0.29879 0.0
H321 H 0.58284 0.31935 0.25149 0.0
H322 H 0.56678 0.37681 0.13863 0.0
H323 H 0.61775 0.33392 0.19 0.0
H324 H 0.44067 0.74277 0.23626 0.0
H325 H 0.47363 0.69307 0.28755 0.0
H326 H 0.36561 0.71235 0.17349 0.0
H327 H 0.38648 0.65682 0.12645 0.0
loop_
_geom_bond_atom_site_label_1
_geom_bond_atom_site_label_2
_geom_bond_distance
_geom_bond_site_symmetry_2
_ccdc_geom_bond_type
C0 O16 1.258 . S
C0 O18 1.246 1_554 S
N1 C2 1.333 1_445 S
N1 C6 1.307 . S
N1 Zn7 2.020 . S
C2 N1 1.333 1_665 S
C2 C3 1.379 . S
C2 H20 0.952 . S
C3 C2 1.379 . S
C3 C4 1.390 1_665 S
C3 H30 0.949 . S
C4 C3 1.390 1_445 S
C4 C5 1.357 . S
C5 C4 1.357 . S
C5 C6 1.370 . S
C5 H31 0.950 . S
C6 N1 1.307 . S
C6 C5 1.370 . S
C6 H24 0.948 . S
Zn7 N1 2.020 . S
Zn7 O16 2.039 1_445 S
Zn7 O22 2.034 1_455 S
Zn7 O26 2.025 . S
Zn7 O28 2.024 1_545 S
C8 O27 1.246 1_554 S
C8 O28 1.249 . S
N9 C10 1.307 1_545 S
N9 C11 1.333 1_655 S
N9 Zn15 2.020 1_655 S
C10 N9 1.307 1_565 S
C10 C14 1.370 . S
C10 H21 0.948 . S
C11 N9 1.333 1_455 S
C11 C12 1.379 . S
C11 H19 0.952 . S
C12 C11 1.379 . S
C12 C13 1.390 1_455 S
C12 H32 0.949 . S
C13 C12 1.390 1_655 S
C13 C14 1.357 1_545 S
C14 C10 1.370 . S
C14 C13 1.357 1_565 S
C14 H33 0.950 . S
Zn15 N9 2.020 1_455 S
Zn15 O18 2.025 1_445 S
Zn15 O23 2.024 1_455 S
Zn15 O25 2.039 . S
Zn15 O27 2.034 1_545 S
O16 C0 1.258 . S
O16 Zn7 2.039 1_665 S
C17 O22 1.246 1_556 S
C17 O23 1.249 . S
O18 C0 1.246 1_556 S
O18 Zn15 2.025 1_665 S
H19 C11 0.952 . S
H20 C2 0.952 . S
H21 C10 0.948 . S
O22 Zn7 2.034 1_655 S
O22 C17 1.246 1_554 S
O23 Zn15 2.024 1_655 S
O23 C17 1.249 . S
H24 C6 0.948 . S
O25 Zn15 2.039 . S
O25 C29 1.251 1_556 S
O26 Zn7 2.025 . S
O26 C29 1.254 . S
O27 C8 1.246 1_556 S
O27 Zn15 2.034 1_565 S
O28 Zn7 2.024 1_565 S
O28 C8 1.249 . S
C29 O25 1.251 1_554 S
C29 O26 1.254 . S
H30 C3 0.949 . S
H31 C5 0.950 . S
H32 C12 0.949 . S
H33 C14 0.950 . S
C34 O50 1.251 . S
C34 O52 1.254 . S
N35 C36 1.333 . S
N35 C40 1.307 . S
N35 Zn41 2.020 . S
C36 N35 1.333 . S
C36 C37 1.379 . S
C36 H54 0.952 . S
C37 C36 1.379 . S
C37 C38 1.390 . S
C37 H64 0.949 . S
C38 C37 1.390 . S
C38 C39 1.357 . S
C39 C38 1.357 . S
C39 C40 1.370 . S
C39 H65 0.950 . S
C40 N35 1.307 . S
C40 C39 1.370 . S
C40 H58 0.948 . S
Zn41 N35 2.020 . S
Zn41 O50 2.039 . S
Zn41 O56 2.034 . S
Zn41 O60 2.025 . S
Zn41 O62 2.024 . S
C42 O61 1.246 . S
C42 O62 1.249 . S
N43 C44 1.307 . S
N43 C45 1.333 . S
N43 Zn49 2.020 . S
C44 N43 1.307 . S
C44 C48 1.370 . S
C44 H55 0.948 . S
C45 N43 1.333 . S
C45 C46 1.379 . S
C45 H53 0.952 . S
C46 C45 1.379 . S
C46 C47 1.390 . S
C46 H66 0.949 . S
C47 C46 1.390 . S
C47 C48 1.357 . S
C48 C44 1.370 . S
C48 C47 1.357 . S
C48 H67 0.950 . S
Zn49 N43 2.020 . S
Zn49 O52 2.025 . S
Zn49 O57 2.024 . S
Zn49 O59 2.039 . S
Zn49 O61 2.034 . S
O50 C34 1.251 . S
O50 Zn41 2.039 . S
C51 O56 1.246 . S
C51 O57 1.249 . S
O52 C34 1.254 . S
O52 Zn49 2.025 . S
H53 C45 0.952 . S
H54 C36 0.952 . S
H55 C44 0.948 . S
O56 Zn41 2.034 . S
O56 C51 1.246 . S
O57 Zn49 2.024 . S
O57 C51 1.249 . S
H58 C40 0.948 . S
O59 Zn49 2.039 . S
O59 C63 1.251 . S
O60 Zn41 2.025 . S
O60 C63 1.254 . S
O61 C42 1.246 . S
O61 Zn49 2.034 . S
O62 Zn41 2.024 . S
O62 C42 1.249 . S
C63 O59 1.251 . S
C63 O60 1.254 . S
H64 C37 0.949 . S
H65 C39 0.950 . S
H66 C46 0.949 . S
H67 C48 0.950 . S
H68 C71 0.929 . S
H69 C74 0.929 1_655 S
H70 C76 0.930 . S
C71 H68 0.929 . S
C71 C72 1.398 . S
C71 C73 1.396 . S
C72 C71 1.398 . S
C72 C76 1.407 . S
C73 C71 1.396 . S
C73 C74 1.394 1_565 S
C74 H69 0.929 1_455 S
C74 C73 1.394 1_545 S
C74 C75 1.382 . S
C75 C74 1.382 . S
C75 C76 1.392 1_545 S
C75 N77 1.420 1_455 S
C76 H70 0.930 . S
C76 C72 1.407 . S
C76 C75 1.392 1_565 S
N77 C75 1.420 1_655 S
N77 C78 1.244 . S
C78 N77 1.244 . S
H79 C82 0.929 . S
H80 C85 0.929 . S
H81 C87 0.930 . S
C82 H79 0.929 . S
C82 C83 1.398 . S
C82 C84 1.396 1_565 S
C83 C82 1.398 . S
C83 C87 1.407 . S
C84 C82 1.396 1_545 S
C84 C85 1.394 1_655 S
C85 H80 0.929 . S
C85 C84 1.394 1_455 S
C85 C86 1.382 . S
C86 C85 1.382 . S
C86 C87 1.392 1_445 S
C86 N88 1.420 . S
C87 H81 0.930 . S
C87 C83 1.407 . S
C87 C86 1.392 1_665 S
N88 C86 1.420 . S
N88 C89 1.244 . S
C89 N88 1.244 . S
H90 C93 0.929 . S
H91 C96 0.929 . S
H92 C98 0.930 . S
C93 H90 0.929 . S
C93 C94 1.398 . S
C93 C95 1.396 . S
C94 C93 1.398 . S
C94 C98 1.407 1_556 S
C95 C93 1.396 . S
C95 C96 1.394 . S
C96 H91 0.929 . S
C96 C95 1.394 . S
C96 C97 1.382 . S
C97 C96 1.382 . S
C97 C98 1.392 1_556 S
C97 N99 1.420 1_556 S
C98 H92 0.930 . S
C98 C94 1.407 1_554 S
C98 C97 1.392 1_554 S
N99 C97 1.420 1_554 S
N99 C100 1.244 1_554 S
C100 N99 1.244 1_556 S
H101 C104 0.929 . S
H102 C107 0.929 . S
H103 C109 0.930 1_556 S
C104 H101 0.929 . S
C104 C105 1.398 . S
C104 C106 1.396 . S
C105 C104 1.398 . S
C105 C109 1.407 . S
C106 C104 1.396 . S
C106 C107 1.394 . S
C107 H102 0.929 . S
C107 C106 1.394 . S
C107 C108 1.382 . S
C108 C107 1.382 . S
C108 C109 1.392 . S
C108 N110 1.420 . S
C109 H103 0.930 1_554 S
C109 C105 1.407 . S
C109 C108 1.392 . S
N110 C108 1.420 . S
N110 C111 1.244 . S
C111 N110 1.244 . S
C112 C113 1.363 . S
C112 C118 1.379 . S
C112 N120 1.356 . S
C113 C112 1.363 . S
C113 C119 1.363 1_554 S
C114 C115 1.363 1_556 S
C114 C119 1.379 . S
C114 N121 1.356 . S
C115 C114 1.363 1_554 S
C115 C118 1.363 . S
N116 C118 1.356 . S
N116 H128 0.984 . S
N116 H129 0.985 . S
N117 C119 1.356 . S
N117 H122 0.984 . S
N117 H123 0.985 . S
C118 C112 1.379 . S
C118 C115 1.363 . S
C118 N116 1.356 . S
C119 C113 1.363 1_556 S
C119 C114 1.379 . S
C119 N117 1.356 . S
N120 C112 1.356 . S
N120 H126 0.984 . S
N120 H127 0.984 . S
N121 C114 1.356 . S
N121 H124 0.984 . S
N121 H125 0.985 . S
H122 N117 0.984 . S
H123 N117 0.985 . S
H124 N121 0.984 . S
H125 N121 0.985 . S
H126 N120 0.984 . S
H127 N120 0.984 . S
H128 N116 0.984 . S
H129 N116 0.985 . S
C130 C131 1.363 . S
C130 C136 1.379 . S
C130 N138 1.356 . S
C131 C130 1.363 . S
C131 C137 1.363 1_554 S
C132 C133 1.363 1_556 S
C132 C137 1.379 . S
C132 N139 1.356 . S
C133 C132 1.363 1_554 S
C133 C136 1.363 . S
N134 C136 1.356 . S
N134 H146 0.984 . S
N134 H147 0.985 . S
N135 C137 1.356 . S
N135 H140 0.984 . S
N135 H141 0.985 . S
C136 C130 1.379 . S
C136 C133 1.363 . S
C136 N134 1.356 . S
C137 C131 1.363 1_556 S
C137 C132 1.379 . S
C137 N135 1.356 . S
N138 C130 1.356 . S
N138 H144 0.984 . S
N138 H145 0.984 . S
N139 C132 1.356 . S
N139 H142 0.984 . S
N139 H143 0.985 . S
H140 N135 0.984 . S
H141 N135 0.985 . S
H142 N139 0.984 . S
H143 N139 0.985 . S
H144 N138 0.984 . S
H145 N138 0.984 . S
H146 N134 0.984 . S
H147 N134 0.985 . S
C148 C149 1.367 . S
C148 C154 1.379 . S
C148 N156 1.356 . S
C149 C148 1.367 . S
C149 C155 1.358 1_556 S
C150 C151 1.364 . S
C150 C155 1.379 . S
C150 N157 1.356 . S
C151 C150 1.364 . S
C151 C154 1.362 1_554 S
N152 C154 1.356 . S
N152 H164 0.984 . S
N152 H165 0.985 . S
N153 C155 1.356 . S
N153 H158 0.984 . S
N153 H159 0.985 . S
C154 C148 1.379 . S
C154 C151 1.362 1_556 S
C154 N152 1.356 . S
C155 C149 1.358 1_554 S
C155 C150 1.379 . S
C155 N153 1.356 . S
N156 C148 1.356 . S
N156 H162 0.984 . S
N156 H163 0.984 . S
N157 C150 1.356 . S
N157 H160 0.984 . S
N157 H161 0.985 . S
H158 N153 0.984 . S
H159 N153 0.985 . S
H160 N157 0.984 . S
H161 N157 0.985 . S
H162 N156 0.984 . S
H163 N156 0.984 . S
H164 N152 0.984 . S
H165 N152 0.985 . S
C166 C167 1.363 . S
C166 C172 1.379 . S
C166 N174 1.356 . S
C167 C166 1.363 . S
C167 C173 1.363 1_556 S
C168 C169 1.363 1_554 S
C168 C173 1.379 . S
C168 N175 1.356 . S
C169 C168 1.363 1_556 S
C169 C172 1.363 . S
N170 C172 1.356 . S
N170 H182 0.984 . S
N170 H183 0.985 . S
N171 C173 1.356 . S
N171 H176 0.984 . S
N171 H177 0.985 . S
C172 C166 1.379 . S
C172 C169 1.363 . S
C172 N170 1.356 . S
C173 C167 1.363 1_554 S
C173 C168 1.379 . S
C173 N171 1.356 . S
N174 C166 1.356 . S
N174 H180 0.984 . S
N174 H181 0.984 . S
N175 C168 1.356 . S
N175 H178 0.984 . S
N175 H179 0.985 . S
H176 N171 0.984 . S
H177 N171 0.985 . S
H178 N175 0.984 . S
H179 N175 0.985 . S
H180 N174 0.984 . S
H181 N174 0.984 . S
H182 N170 0.984 . S
H183 N170 0.985 . S
C184 C185 1.363 . S
C184 C190 1.379 . S
C184 N192 1.356 . S
C185 C184 1.363 . S
C185 C191 1.363 . S
C186 C187 1.363 . S
C186 C191 1.379 . S
C186 N193 1.356 . S
C187 C186 1.363 . S
C187 C190 1.363 . S
N188 C190 1.356 . S
N188 H200 0.984 . S
N188 H201 0.985 . S
N189 C191 1.356 . S
N189 H194 0.984 . S
N189 H195 0.985 . S
C190 C184 1.379 . S
C190 C187 1.363 . S
C190 N188 1.356 . S
C191 C185 1.363 . S
C191 C186 1.379 . S
C191 N189 1.356 . S
N192 C184 1.356 . S
N192 H198 0.984 . S
N192 H199 0.984 . S
N193 C186 1.356 . S
N193 H196 0.984 . S
N193 H197 0.985 . S
H194 N189 0.984 . S
H195 N189 0.985 . S
H196 N193 0.984 . S
H197 N193 0.985 . S
H198 N192 0.984 . S
H199 N192 0.984 . S
H200 N188 0.984 . S
H201 N188 0.985 . S
C202 C203 1.363 . S
C202 C208 1.379 . S
C202 N210 1.356 . S
C203 C202 1.363 . S
C203 C209 1.363 . S
C204 C205 1.363 . S
C204 C209 1.379 . S
C204 N211 1.356 . S
C205 C204 1.363 . S
C205 C208 1.363 . S
N206 C208 1.356 . S
N206 H218 0.984 . S
N206 H219 0.985 . S
N207 C209 1.356 . S
N207 H212 0.984 . S
N207 H213 0.985 . S
C208 C202 1.379 . S
C208 C205 1.363 . S
C208 N206 1.356 . S
C209 C203 1.363 . S
C209 C204 1.379 . S
C209 N207 1.356 . S
N210 C202 1.356 . S
N210 H216 0.984 . S
N210 H217 0.984 . S
N211 C204 1.356 . S
N211 H214 0.984 . S
N211 H215 0.985 . S
H212 N207 0.984 . S
H213 N207 0.985 . S
H214 N211 0.984 . S
H215 N211 0.985 . S
H216 N210 0.984 . S
H217 N210 0.984 . S
H218 N206 0.984 . S
H219 N206 0.985 . S
C220 C221 1.363 . S
C220 C226 1.379 . S
C220 N228 1.356 . S
C221 C220 1.363 . S
C221 C227 1.363 . S
C222 C223 1.363 . S
C222 C227 1.379 . S
C222 N229 1.356 . S
C223 C222 1.363 . S
C223 C226 1.363 . S
N224 C226 1.356 . S
N224 H236 0.984 . S
N224 H237 0.985 . S
N225 C227 1.356 . S
N225 H230 0.984 . S
N225 H231 0.985 . S
C226 C220 1.379 . S
C226 C223 1.363 . S
C226 N224 1.356 . S
C227 C221 1.363 . S
C227 C222 1.379 . S
C227 N225 1.356 . S
N228 C220 1.356 . S
N228 H234 0.984 . S
N228 H235 0.984 . S
N229 C222 1.356 . S
N229 H232 0.984 . S
N229 H233 0.985 . S
H230 N225 0.984 . S
H231 N225 0.985 . S
H232 N229 0.984 . S
H233 N229 0.985 . S
H234 N228 0.984 . S
H235 N228 0.984 . S
H236 N224 0.984 . S
H237 N224 0.985 . S
C238 C239 1.363 . S
C238 C244 1.379 . S
C238 N246 1.356 . S
C239 C238 1.363 . S
C239 C245 1.363 . S
C240 C241 1.363 . S
C240 C245 1.379 . S
C240 N247 1.356 . S
C241 C240 1.363 . S
C241 C244 1.363 . S
N242 C244 1.356 . S
N242 H254 0.984 . S
N242 H255 0.985 . S
N243 C245 1.356 . S
N243 H248 0.984 . S
N243 H249 0.985 . S
C244 C238 1.379 . S
C244 C241 1.363 . S
C244 N242 1.356 . S
C245 C239 1.363 . S
C245 C240 1.379 . S
C245 N243 1.356 . S
N246 C238 1.356 . S
N246 H252 0.984 . S
N246 H253 0.984 . S
N247 C240 1.356 . S
N247 H250 0.984 . S
N247 H251 0.985 . S
H248 N243 0.984 . S
H249 N243 0.985 . S
H250 N247 0.984 . S
H251 N247 0.985 . S
H252 N246 0.984 . S
H253 N246 0.984 . S
H254 N242 0.984 . S
H255 N242 0.985 . S
C256 C257 1.363 . S
C256 C262 1.379 . S
C256 N264 1.356 . S
C257 C256 1.363 . S
C257 C263 1.363 1_545 S
C258 C259 1.363 1_565 S
C258 C263 1.379 . S
C258 N265 1.356 1_455 S
C259 C258 1.363 1_545 S
C259 C262 1.363 . S
N260 C262 1.356 . S
N260 H272 0.984 . S
N260 H273 0.985 . S
N261 C263 1.356 1_655 S
N261 H266 0.984 . S
N261 H267 0.985 . S
C262 C256 1.379 . S
C262 C259 1.363 . S
C262 N260 1.356 . S
C263 C257 1.363 1_565 S
C263 C258 1.379 . S
C263 N261 1.356 1_455 S
N264 C256 1.356 . S
N264 H270 0.984 . S
N264 H271 0.984 . S
N265 C258 1.356 1_655 S
N265 H268 0.984 . S
N265 H269 0.985 . S
H266 N261 0.984 . S
H267 N261 0.985 . S
H268 N265 0.984 . S
H269 N265 0.985 . S
H270 N264 0.984 . S
H271 N264 0.984 . S
H272 N260 0.984 . S
H273 N260 0.985 . S
C274 C275 1.363 . S
C274 C280 1.379 . S
C274 N282 1.356 . S
C275 C274 1.363 . S
C275 C281 1.363 1_645 S
C276 C277 1.363 1_465 S
C276 C281 1.379 . S
C276 N283 1.356 . S
C277 C276 1.363 1_645 S
C277 C280 1.363 . S
N278 C280 1.356 . S
N278 H290 0.984 . S
N278 H291 0.985 . S
N279 C281 1.356 . S
N279 H284 0.984 . S
N279 H285 0.985 . S
C280 C274 1.379 . S
C280 C277 1.363 . S
C280 N278 1.356 . S
C281 C275 1.363 1_465 S
C281 C276 1.379 . S
C281 N279 1.356 . S
N282 C274 1.356 . S
N282 H288 0.984 . S
N282 H289 0.984 . S
N283 C276 1.356 . S
N283 H286 0.984 . S
N283 H287 0.985 . S
H284 N279 0.984 . S
H285 N279 0.985 . S
H286 N283 0.984 . S
H287 N283 0.985 . S
H288 N282 0.984 . S
H289 N282 0.984 . S
H290 N278 0.984 . S
H291 N278 0.985 . S
C292 C293 1.363 . S
C292 C298 1.379 . S
C292 N300 1.356 . S
C293 C292 1.363 . S
C293 C299 1.363 . S
C294 C295 1.363 . S
C294 C299 1.379 . S
C294 N301 1.356 . S
C295 C294 1.363 . S
C295 C298 1.363 . S
N296 C298 1.356 . S
N296 H308 0.984 . S
N296 H309 0.985 . S
N297 C299 1.356 . S
N297 H302 0.984 . S
N297 H303 0.985 . S
C298 C292 1.379 . S
C298 C295 1.363 . S
C298 N296 1.356 . S
C299 C293 1.363 . S
C299 C294 1.379 . S
C299 N297 1.356 . S
N300 C292 1.356 . S
N300 H306 0.984 . S
N300 H307 0.984 . S
N301 C294 1.356 . S
N301 H304 0.984 . S
N301 H305 0.985 . S
H302 N297 0.984 . S
H303 N297 0.985 . S
H304 N301 0.984 . S
H305 N301 0.985 . S
H306 N300 0.984 . S
H307 N300 0.984 . S
H308 N296 0.984 . S
H309 N296 0.985 . S
C310 C311 1.363 . S
C310 C316 1.379 . S
C310 N318 1.356 . S
C311 C310 1.363 . S
C311 C317 1.363 . S
C312 C313 1.363 . S
C312 C317 1.379 . S
C312 N319 1.356 . S
C313 C312 1.363 . S
C313 C316 1.363 . S
N314 C316 1.356 . S
N314 H326 0.984 . S
N314 H327 0.985 . S
N315 C317 1.356 . S
N315 H320 0.984 . S
N315 H321 0.985 . S
C316 C310 1.379 . S
C316 C313 1.363 . S
C316 N314 1.356 . S
C317 C311 1.363 . S
C317 C312 1.379 . S
C317 N315 1.356 . S
N318 C310 1.356 . S
N318 H324 0.984 . S
N318 H325 0.984 . S
N319 C312 1.356 . S
N319 H322 0.984 . S
N319 H323 0.985 . S
H320 N315 0.984 . S
H321 N315 0.985 . S
H322 N319 0.984 . S
H323 N319 0.985 . S
H324 N318 0.984 . S
H325 N318 0.984 . S
H326 N314 0.984 . S
H327 N314 0.985 . S
C115 C105 1.470 . S
C113 C29 1.513 . S
C131 C8 1.460 . S
C133 C100 1.408 1_554 S
C149 C0 1.467 1_556 S
C151 C111 1.413 . S
C167 C17 1.513 . S
C169 C94 1.473 . S
C185 C63 1.513 . S
C187 C83 1.471 . S
C203 C42 1.460 . S
C205 C78 1.408 . S
C223 C89 1.413 . S
C221 C34 1.463 . S
C241 C72 1.473 . S
C239 C51 1.513 . S
C257 C4 1.522 . S
C259 C73 1.517 1_545 S
C275 C13 1.514 . S
C277 C84 1.510 . S
C295 C95 1.517 . S
C293 C38 1.522 . S
C311 C47 1.514 . S
C313 C106 1.509 . S
