# Generated by pormake.
# Topology tsx, (6,3)-cn, num edge types: 1
# Building blocks:
#     Node 0, Type 0, BuildingBlock: FUNLAD_clean_sbu_0, # of connection points: 6
#     Node 1, Type 0, BuildingBlock: FUNLAD_clean_sbu_0, # of connection points: 6
#     Node 2, Type 1, BuildingBlock: PAMTOO_clean_linker_0, # of connection points: 3
#     Node 3, Type 1, BuildingBlock: PAMTOO_clean_linker_0, # of connection points: 3
#     Node 4, Type 1, BuildingBlock: PAMTOO_clean_linker_0, # of connection points: 3
#     Node 5, Type 1, BuildingBlock: PAMTOO_clean_linker_0, # of connection points: 3
#     Edge 6, Type (0, 1), BuildingBlock: XIVTED_clean_linker_0, # of connection points: 2
#     Edge 7, Type (0, 1), BuildingBlock: XIVTED_clean_linker_0, # of connection points: 2
#     Edge 8, Type (0, 1), BuildingBlock: XIVTED_clean_linker_0, # of connection points: 2
#     Edge 9, Type (0, 1), BuildingBlock: XIVTED_clean_linker_0, # of connection points: 2
#     Edge 10, Type (0, 1), BuildingBlock: XIVTED_clean_linker_0, # of connection points: 2
#     Edge 11, Type (0, 1), BuildingBlock: XIVTED_clean_linker_0, # of connection points: 2
#     Edge 12, Type (0, 1), BuildingBlock: XIVTED_clean_linker_0, # of connection points: 2
#     Edge 13, Type (0, 1), BuildingBlock: XIVTED_clean_linker_0, # of connection points: 2
#     Edge 14, Type (0, 1), BuildingBlock: XIVTED_clean_linker_0, # of connection points: 2
#     Edge 15, Type (0, 1), BuildingBlock: XIVTED_clean_linker_0, # of connection points: 2
#     Edge 16, Type (0, 1), BuildingBlock: XIVTED_clean_linker_0, # of connection points: 2
#     Edge 17, Type (0, 1), BuildingBlock: XIVTED_clean_linker_0, # of connection points: 2
# Relax obj value: 0.126
# Max RMSD: 0.131
# Mean RMSD: 0.120
data_MOF--net-tsx--node1-FUNLAD_clean_sbu_0--node2-PAMTOO_clean_linker_0--edge1-XIVTED_clean_linker_0
_symmetry_space_group_name_H-M    P1
_symmetry_Int_Tables_number       1
_symmetry_cell_setting            triclinic
loop_
_symmetry_equiv_pos_as_xyz
'x, y, z'
_cell_length_a     19.301095
_cell_length_b     21.584032
_cell_length_c     39.472062
_cell_angle_alpha  82.211087
_cell_angle_beta   91.771147
_cell_angle_gamma 90.305088
loop_
_atom_site_label
_atom_site_type_symbol
_atom_site_fract_x
_atom_site_fract_y
_atom_site_fract_z
_atom_type_partial_charge
C0 C 0.9073 0.04808 -0.00136 0.0
N1 N 0.03343 0.11291 0.07341 0.0
C2 C 0.97629 0.10838 0.09293 0.0
C3 C 0.98324 0.09565 0.12843 0.0
C4 C 0.04961 0.08852 0.14391 0.0
C5 C 0.10778 0.09525 0.12332 0.0
C6 C 0.09843 0.10702 0.08784 0.0
Zn7 Zn 0.02084 0.12637 0.02162 0.0
C8 C 0.10602 0.03711 0.98834 0.0
N9 N 0.99676 0.1536 0.91333 0.0
C10 C 0.93173 0.15912 0.89893 0.0
C11 C 0.05351 0.15302 0.89384 0.0
C12 C 0.04598 0.15606 0.85844 0.0
C13 C 0.97936 0.15981 0.8429 0.0
C14 C 0.92179 0.16232 0.86356 0.0
Zn15 Zn 0.00959 0.14085 0.96507 0.0
O16 O 0.93874 0.06294 0.02502 0.0
C17 C 0.92598 0.23192 -0.00336 0.0
O18 O 0.92501 0.07376 0.9692 0.0
H19 H 0.10467 0.14831 0.90586 0.0
H20 H 0.92516 0.1137 0.08093 0.0
H21 H 0.88738 0.1596 0.91499 0.0
O22 O 0.94997 0.20186 0.02444 0.0
O23 O 0.94218 0.21541 0.96827 0.0
H24 H 0.1431 0.11042 0.07182 0.0
O25 O 0.09526 0.20569 0.96218 0.0
O26 O 0.10344 0.18918 0.0182 0.0
O27 O 0.07775 0.06756 0.96185 0.0
O28 O 0.09188 0.05122 0.01766 0.0
C29 C 0.12555 0.21592 0.99001 0.0
H30 H 0.93726 0.09111 0.14364 0.0
H31 H 0.15972 0.08942 0.13446 0.0
H32 H 0.09178 0.15291 0.8436 0.0
H33 H 0.86961 0.1658 0.85258 0.0
C34 C 0.43051 0.32431 0.50465 0.0
N35 N 0.49714 0.39668 0.59343 0.0
C36 C 0.4297 0.39929 0.60229 0.0
C37 C 0.41309 0.40568 0.63578 0.0
C38 C 0.46633 0.40817 0.6605 0.0
C39 C 0.53523 0.40091 0.65131 0.0
C40 C 0.54966 0.39571 0.61731 0.0
Zn41 Zn 0.51722 0.40794 0.54236 0.0
C42 C 0.62952 0.32972 0.52275 0.0
N43 N 0.55032 0.44092 0.43487 0.0
C44 C 0.49508 0.44633 0.41243 0.0
C45 C 0.61638 0.4456 0.4237 0.0
C46 C 0.62881 0.45625 0.3887 0.0
C47 C 0.57271 0.46256 0.36491 0.0
C48 C 0.5051 0.45747 0.37728 0.0
Zn49 Zn 0.53266 0.42669 0.48615 0.0
O50 O 0.44518 0.33754 0.53443 0.0
C51 C 0.42103 0.50607 0.50464 0.0
O52 O 0.45895 0.35464 0.47884 0.0
H53 H 0.6596 0.44117 0.44197 0.0
H54 H 0.38868 0.39981 0.58297 0.0
H55 H 0.44297 0.44252 0.42181 0.0
O56 O 0.43761 0.4783 0.53422 0.0
O57 O 0.45304 0.49295 0.47898 0.0
H58 H 0.60288 0.39421 0.60965 0.0
O59 O 0.60553 0.49828 0.49449 0.0
O60 O 0.59065 0.47778 0.54976 0.0
O61 O 0.61267 0.36038 0.49393 0.0
O62 O 0.59694 0.33854 0.54925 0.0
C63 C 0.62041 0.50917 0.52476 0.0
H64 H 0.35934 0.41074 0.64205 0.0
H65 H 0.57767 0.40308 0.66973 0.0
H66 H 0.68183 0.45898 0.38043 0.0
H67 H 0.46014 0.46309 0.36006 0.0
H68 H 0.14677 0.86911 0.39362 0.0
H69 H 0.0286 0.0318 0.40667 0.0
H70 H 0.06222 0.88725 0.49152 0.0
H71 H 0.91313 0.94466 0.4787 0.0
C72 C 0.93031 0.99192 0.46748 0.0
O73 O 1.00169 0.99543 0.47034 0.0
H74 H 0.91307 0.99909 0.44006 0.0
C75 C 0.11764 0.89532 0.40994 0.0
C76 C 0.10959 0.87147 0.44452 0.0
C77 C 0.08826 0.95272 0.39599 0.0
C78 C 0.05267 0.98783 0.41718 0.0
C79 C 0.04251 0.96392 0.45141 0.0
C80 C 0.07122 0.90598 0.46518 0.0
H81 H 0.05511 0.11359 0.5865 0.0
H82 H 0.93678 0.95171 0.62676 0.0
H83 H 0.04497 0.95237 0.5336 0.0
H84 H 0.89132 0.91869 0.53411 0.0
C85 C 0.89067 0.89054 0.55962 0.0
O86 O 0.9557 0.89152 0.57498 0.0
H87 H 0.85244 0.91239 0.57492 0.0
C88 C 0.03553 0.06699 0.58458 0.0
C89 C 0.05494 0.03684 0.55703 0.0
C90 C 0.99443 0.03648 0.6105 0.0
C91 C 0.969 0.97635 0.60732 0.0
C92 C 0.98548 0.94695 0.57911 0.0
C93 C 0.03015 0.97637 0.55454 0.0
H94 H 0.55241 0.47775 0.89892 0.0
H95 H 0.41303 0.63547 0.88232 0.0
H96 H 0.57542 0.62712 0.9595 0.0
H97 H 0.46699 0.67623 0.98528 0.0
C98 C 0.42934 0.68446 0.96326 0.0
O99 O 0.46582 0.68886 0.93342 0.0
H100 H 0.39226 0.64454 0.96479 0.0
C101 C 0.53408 0.52186 0.90548 0.0
C102 C 0.56802 0.54727 0.93224 0.0
C103 C 0.47969 0.55403 0.88625 0.0
C104 C 0.45685 0.61102 0.89568 0.0
C105 C 0.49092 0.63684 0.92244 0.0
C106 C 0.54885 0.60649 0.93931 0.0
H107 H 0.67526 0.65586 0.11579 0.0
H108 H 0.56444 0.48963 0.09649 0.0
H109 H 0.62119 0.6252 0.01279 0.0
H110 H 0.48653 0.5729 -0.00128 0.0
C111 C 0.48616 0.53624 0.02101 0.0
O112 O 0.55392 0.52093 0.03079 0.0
H113 H 0.45891 0.55539 0.04181 0.0
C114 C 0.65229 0.62694 0.09805 0.0
C115 C 0.65326 0.64757 0.06262 0.0
C116 C 0.62031 0.57007 0.11081 0.0
C117 C 0.58971 0.53347 0.08753 0.0
C118 C 0.58986 0.55357 0.0524 0.0
C119 C 0.62262 0.60975 0.03997 0.0
H120 H 0.17466 0.30213 0.93809 0.0
H121 H 0.46905 0.42396 0.061 0.0
H122 H 0.21606 0.22375 0.04327 0.0
H123 H 0.41069 0.52318 0.96213 0.0
H124 H 0.3897 0.33941 0.05036 0.0
H125 H 0.27295 0.37404 0.9422 0.0
C126 C 0.20462 0.29975 0.96189 0.0
C127 C 0.18658 0.25751 0.99049 0.0
C128 C 0.3948 0.37928 0.03076 0.0
C129 C 0.29884 0.33881 -0.0047 0.0
C130 C 0.44036 0.42721 0.0368 0.0
C131 C 0.44632 0.48023 0.0124 0.0
C132 C 0.35437 0.3848 0.00022 0.0
C133 C 0.40753 0.48283 0.98155 0.0
C134 C 0.26058 0.34072 0.96424 0.0
C135 C 0.22735 0.25613 0.02068 0.0
N136 N 0.36272 0.43596 0.97641 0.0
N137 N 0.2812 0.29626 0.0223 0.0
H138 H 0.13588 0.99048 0.92965 0.0
H139 H 0.42072 0.74843 0.01825 0.0
H140 H 0.18889 0.96883 0.0377 0.0
H141 H 0.34263 0.74983 0.91464 0.0
H142 H 0.34414 0.83578 0.0245 0.0
H143 H 0.21823 0.90847 0.92263 0.0
C144 C 0.16483 0.96844 0.95198 0.0
C145 C 0.15529 0.98652 0.98439 0.0
C146 C 0.34416 0.81748 0.00028 0.0
C147 C 0.25021 0.89247 0.97636 0.0
C148 C 0.3882 0.76799 -0.00339 0.0
C149 C 0.38885 0.74291 0.96562 0.0
C150 C 0.29999 0.84179 0.97284 0.0
C151 C 0.34454 0.76879 0.93868 0.0
C152 C 0.2119 0.92154 0.94789 0.0
C153 C 0.19437 0.95623 0.01229 0.0
N154 N 0.30187 0.81692 0.9429 0.0
N155 N 0.24025 0.9107 0.00762 0.0
H156 H 0.82526 0.01738 0.05292 0.0
H157 H 0.72924 0.68052 0.00481 0.0
H158 H 0.87338 0.96193 0.9554 0.0
H159 H 0.6442 0.75738 0.09002 0.0
H160 H 0.77981 0.78291 0.98497 0.0
H161 H 0.75531 0.9233 0.06553 0.0
C162 C 0.82012 0.98572 0.03389 0.0
C163 C 0.85527 0.99735 0.0031 0.0
C164 C 0.74974 0.77733 0.0079 0.0
C165 C 0.77637 0.88834 0.01773 0.0
C166 C 0.72077 0.71888 0.01926 0.0
C167 C 0.68317 0.70979 0.0495 0.0
C168 C 0.74138 0.82706 0.02698 0.0
C169 C 0.67431 0.76137 0.06715 0.0
C170 C 0.78026 0.93185 0.04114 0.0
C171 C 0.84677 0.9548 0.97936 0.0
N172 N 0.70355 0.81742 0.05578 0.0
N173 N 0.80899 0.90155 0.98739 0.0
H174 H 0.93458 0.34189 0.95523 0.0
H175 H 0.55353 0.43338 0.96983 0.0
H176 H 0.81503 0.24588 0.03677 0.0
H177 H 0.70537 0.5758 0.94002 0.0
H178 H 0.64634 0.36367 -0.00463 0.0
H179 H 0.85152 0.42818 0.94895 0.0
C180 C 0.89115 0.33955 0.97212 0.0
C181 C 0.88109 0.28685 -0.0036 0.0
C182 C 0.65928 0.41064 0.98397 0.0
C183 C 0.78536 0.38449 0.98889 0.0
C184 C 0.60647 0.45029 0.96938 0.0
C185 C 0.62225 0.51009 0.95281 0.0
C186 C 0.72843 0.43024 0.98082 0.0
C187 C 0.69144 0.52991 0.95261 0.0
C188 C 0.84411 0.38887 0.96867 0.0
C189 C 0.82435 0.28593 0.01778 0.0
N190 N 0.74239 0.48944 0.96569 0.0
N191 N 0.77747 0.33351 0.01299 0.0
H192 H 0.66021 0.54544 0.58618 0.0
H193 H 0.89404 0.82978 0.50285 0.0
H194 H 0.69585 0.58525 0.47793 0.0
H195 H 0.83509 0.80355 0.60824 0.0
H196 H 0.83812 0.73028 0.49504 0.0
H197 H 0.73875 0.63041 0.59616 0.0
C198 C 0.68479 0.57186 0.56448 0.0
C199 C 0.67078 0.55858 0.53109 0.0
C200 C 0.83798 0.7459 0.51997 0.0
C201 C 0.7611 0.65606 0.54244 0.0
C202 C 0.87009 0.80246 0.52445 0.0
C203 C 0.86777 0.82508 0.55606 0.0
C204 C 0.80368 0.71176 0.54738 0.0
C205 C 0.83708 0.78778 0.58339 0.0
C206 C 0.72974 0.62038 0.57024 0.0
C207 C 0.70464 0.59417 0.50406 0.0
N208 N 0.80546 0.73324 0.57833 0.0
N209 N 0.74792 0.64153 0.51031 0.0
H210 H 0.63902 0.21555 0.56271 0.0
H211 H 0.97132 0.11412 0.46707 0.0
H212 H 0.74526 0.33744 0.48536 0.0
H213 H 0.81029 0.98497 0.50337 0.0
H214 H 0.90854 0.19814 0.48888 0.0
H215 H 0.7226 0.13224 0.55653 0.0
C216 C 0.68087 0.22513 0.54508 0.0
C217 C 0.68513 0.28293 0.52424 0.0
C218 C 0.88791 0.15103 0.49279 0.0
C219 C 0.78029 0.18893 0.51728 0.0
C220 C 0.9238 0.10313 0.48053 0.0
C221 C 0.89711 0.04211 0.4845 0.0
C222 C 0.82456 0.13789 0.50881 0.0
C223 C 0.83396 0.03084 0.50096 0.0
C224 C 0.72809 0.17768 0.54142 0.0
C225 C 0.7399 0.29313 0.5016 0.0
N226 N 0.79978 0.07827 0.51256 0.0
N227 N 0.78522 0.2465 0.49861 0.0
H228 H 0.3202 0.32569 0.45928 0.0
H229 H 0.18256 0.99302 0.54531 0.0
H230 H 0.42708 0.20936 0.54173 0.0
H231 H 0.04728 0.15124 0.51797 0.0
H232 H 0.28012 0.05671 0.52174 0.0
H233 H 0.22764 0.24619 0.46013 0.0
C234 C 0.32489 0.28272 0.4769 0.0
C235 C 0.38053 0.27391 0.50072 0.0
C236 C 0.22855 0.07667 0.51991 0.0
C237 C 0.27695 0.18316 0.50121 0.0
C238 C 0.17295 0.04033 0.53305 0.0
C239 C 0.10719 0.06726 0.53367 0.0
C240 C 0.21773 0.13982 0.50691 0.0
C241 C 0.09741 0.12901 0.51792 0.0
C242 C 0.27231 0.2377 0.4774 0.0
C243 C 0.38443 0.21789 0.52322 0.0
N244 N 0.15235 0.16359 0.50548 0.0
N245 N 0.33321 0.1746 0.52298 0.0
H246 H 0.3688 0.57434 0.55202 0.0
H247 H 0.10832 0.76445 0.4148 0.0
H248 H 0.34744 0.54608 0.44602 0.0
H249 H 0.18229 0.83894 0.50536 0.0
H250 H 0.17543 0.6697 0.43272 0.0
H251 H 0.2819 0.65832 0.5413 0.0
C252 C 0.34535 0.58537 0.52664 0.0
C253 C 0.3657 0.55369 0.49976 0.0
C254 C 0.17664 0.70654 0.44884 0.0
C255 C 0.26628 0.64848 0.48758 0.0
C256 C 0.13844 0.76067 0.4386 0.0
C257 C 0.14105 0.81024 0.45823 0.0
C258 C 0.21769 0.70154 0.47903 0.0
C259 C 0.17924 0.80195 0.48939 0.0
C260 C 0.29606 0.63326 0.52056 0.0
C261 C 0.33383 0.56975 0.46738 0.0
N262 N 0.21686 0.74882 0.49869 0.0
N263 N 0.2858 0.61595 0.46223 0.0
H264 H 0.13315 0.1426 0.18904 0.0
H265 H 0.05385 0.88253 0.34596 0.0
H266 H 0.98538 0.99353 0.18317 0.0
H267 H 0.12146 0.06772 0.36149 0.0
H268 H 0.04724 0.91615 0.28436 0.0
H269 H 0.14663 0.10999 0.25106 0.0
C270 C 0.10369 0.10305 0.20088 0.0
C271 C 0.05786 0.07077 0.18123 0.0
C272 C 0.06375 0.94939 0.30122 0.0
C273 C 0.07359 0.03305 0.2514 0.0
C274 C 0.06811 0.93013 0.33629 0.0
C275 C 0.08845 0.97246 0.35868 0.0
C276 C 0.08051 0.01125 0.28841 0.0
C277 C 0.10532 0.03387 0.34494 0.0
C278 C 0.11117 0.08471 0.23611 0.0
C279 C 0.02066 0.01997 0.19758 0.0
N280 N 0.10122 0.05151 0.31052 0.0
N281 N 0.02967 0.0024 0.23172 0.0
H282 H 0.05771 0.21638 0.79073 0.0
H283 H 0.87685 0.03285 0.64878 0.0
H284 H 0.88101 0.09475 0.81047 0.0
H285 H 0.08565 0.10613 0.64413 0.0
H286 H 0.86383 0.07416 0.70307 0.0
H287 H 0.05315 0.19678 0.73122 0.0
C288 C 0.01762 0.18594 0.78249 0.0
C289 C 0.97044 0.15631 0.80577 0.0
C290 C 0.9121 0.08167 0.68983 0.0
C291 C 0.96469 0.13402 0.73769 0.0
C292 C 0.91978 0.05781 0.65899 0.0
C293 C 0.98258 0.06566 0.64182 0.0
C294 C 0.96741 0.11393 0.70343 0.0
C295 C 0.03588 0.09958 0.65599 0.0
C296 C 0.01494 0.17492 0.74852 0.0
C297 C 0.91842 0.11864 0.79343 0.0
N298 N 0.02714 0.12216 0.68598 0.0
N299 N 0.91739 0.10798 0.76028 0.0
H300 H 0.39073 0.50689 0.67495 0.0
H301 H 0.45411 0.43177 0.87699 0.0
H302 H 0.50752 0.34755 0.72333 0.0
H303 H 0.44257 0.62028 0.82402 0.0
H304 H 0.43708 0.39194 0.82222 0.0
H305 H 0.37478 0.53995 0.73129 0.0
C306 C 0.4119 0.47831 0.69754 0.0
C307 C 0.45068 0.42456 0.69464 0.0
C308 C 0.43725 0.44198 0.82277 0.0
C309 C 0.43212 0.4617 0.75881 0.0
C310 C 0.44709 0.46486 0.85395 0.0
C311 C 0.45185 0.52961 0.85505 0.0
C312 C 0.43067 0.48405 0.79255 0.0
C313 C 0.4397 0.57009 0.82448 0.0
C314 C 0.40303 0.49733 0.72953 0.0
C315 C 0.4777 0.38949 0.72457 0.0
N316 N 0.43046 0.54662 0.79437 0.0
N317 N 0.46791 0.40868 0.75549 0.0
H318 H 0.67331 0.53592 0.3314 0.0
H319 H 0.51093 0.51347 0.14561 0.0
H320 H 0.49842 0.41811 0.31277 0.0
H321 H 0.71798 0.58287 0.16187 0.0
H322 H 0.50266 0.4835 0.20706 0.0
H323 H 0.68824 0.55863 0.26971 0.0
C324 C 0.63841 0.51429 0.31445 0.0
C325 C 0.58423 0.47519 0.32748 0.0
C326 C 0.55007 0.50498 0.19718 0.0
C327 C 0.60038 0.50214 0.25672 0.0
C328 C 0.55509 0.52181 0.16199 0.0
C329 C 0.61546 0.55057 0.14832 0.0
C330 C 0.60542 0.51756 0.21912 0.0
C331 C 0.67007 0.5616 0.17116 0.0
C332 C 0.64682 0.5276 0.2792 0.0
C333 C 0.54003 0.44951 0.30405 0.0
N334 N 0.66364 0.54533 0.20544 0.0
N335 N 0.54885 0.46372 0.26988 0.0
loop_
_geom_bond_atom_site_label_1
_geom_bond_atom_site_label_2
_geom_bond_distance
_geom_bond_site_symmetry_2
_ccdc_geom_bond_type
C0 O16 1.251 . S
C0 O18 1.254 1_554 S
N1 C2 1.333 1_445 S
N1 C6 1.307 . S
N1 Zn7 2.020 . S
C2 N1 1.333 1_665 S
C2 C3 1.379 . S
C2 H20 0.952 . S
C3 C2 1.379 . S
C3 C4 1.390 1_665 S
C3 H30 0.949 . S
C4 C3 1.390 1_445 S
C4 C5 1.357 . S
C5 C4 1.357 . S
C5 C6 1.370 . S
C5 H31 0.950 . S
C6 N1 1.307 . S
C6 C5 1.370 . S
C6 H24 0.948 . S
Zn7 N1 2.020 . S
Zn7 O16 2.039 1_445 S
Zn7 O22 2.034 1_455 S
Zn7 O26 2.025 . S
Zn7 O28 2.024 1_545 S
C8 O27 1.246 1_554 S
C8 O28 1.249 . S
N9 C10 1.307 1_455 S
N9 C11 1.333 . S
N9 Zn15 2.020 . S
C10 N9 1.307 1_655 S
C10 C14 1.370 . S
C10 H21 0.948 . S
C11 N9 1.333 . S
C11 C12 1.379 . S
C11 H19 0.952 . S
C12 C11 1.379 . S
C12 C13 1.390 . S
C12 H32 0.949 . S
C13 C12 1.390 . S
C13 C14 1.357 1_455 S
C14 C10 1.370 . S
C14 C13 1.357 1_655 S
C14 H33 0.950 . S
Zn15 N9 2.020 . S
Zn15 O18 2.025 1_445 S
Zn15 O23 2.024 1_455 S
Zn15 O25 2.039 . S
Zn15 O27 2.034 1_545 S
O16 C0 1.251 . S
O16 Zn7 2.039 1_665 S
C17 O22 1.246 . S
C17 O23 1.249 1_554 S
O18 C0 1.254 1_556 S
O18 Zn15 2.025 1_665 S
H19 C11 0.952 . S
H20 C2 0.952 . S
H21 C10 0.948 . S
O22 Zn7 2.034 1_655 S
O22 C17 1.246 . S
O23 Zn15 2.024 1_655 S
O23 C17 1.249 1_556 S
H24 C6 0.948 . S
O25 Zn15 2.039 . S
O25 C29 1.251 1_556 S
O26 Zn7 2.025 . S
O26 C29 1.254 . S
O27 C8 1.246 1_556 S
O27 Zn15 2.034 1_565 S
O28 Zn7 2.024 1_565 S
O28 C8 1.249 . S
C29 O25 1.251 1_554 S
C29 O26 1.254 . S
H30 C3 0.949 . S
H31 C5 0.950 . S
H32 C12 0.949 . S
H33 C14 0.950 . S
C34 O50 1.251 . S
C34 O52 1.254 . S
N35 C36 1.333 . S
N35 C40 1.307 . S
N35 Zn41 2.020 . S
C36 N35 1.333 . S
C36 C37 1.379 . S
C36 H54 0.952 . S
C37 C36 1.379 . S
C37 C38 1.390 . S
C37 H64 0.949 . S
C38 C37 1.390 . S
C38 C39 1.357 . S
C39 C38 1.357 . S
C39 C40 1.370 . S
C39 H65 0.950 . S
C40 N35 1.307 . S
C40 C39 1.370 . S
C40 H58 0.948 . S
Zn41 N35 2.020 . S
Zn41 O50 2.039 . S
Zn41 O56 2.034 . S
Zn41 O60 2.025 . S
Zn41 O62 2.024 . S
C42 O61 1.246 . S
C42 O62 1.249 . S
N43 C44 1.307 . S
N43 C45 1.333 . S
N43 Zn49 2.020 . S
C44 N43 1.307 . S
C44 C48 1.370 . S
C44 H55 0.948 . S
C45 N43 1.333 . S
C45 C46 1.379 . S
C45 H53 0.952 . S
C46 C45 1.379 . S
C46 C47 1.390 . S
C46 H66 0.949 . S
C47 C46 1.390 . S
C47 C48 1.357 . S
C48 C44 1.370 . S
C48 C47 1.357 . S
C48 H67 0.950 . S
Zn49 N43 2.020 . S
Zn49 O52 2.025 . S
Zn49 O57 2.024 . S
Zn49 O59 2.039 . S
Zn49 O61 2.034 . S
O50 C34 1.251 . S
O50 Zn41 2.039 . S
C51 O56 1.246 . S
C51 O57 1.249 . S
O52 C34 1.254 . S
O52 Zn49 2.025 . S
H53 C45 0.952 . S
H54 C36 0.952 . S
H55 C44 0.948 . S
O56 Zn41 2.034 . S
O56 C51 1.246 . S
O57 Zn49 2.024 . S
O57 C51 1.249 . S
H58 C40 0.948 . S
O59 Zn49 2.039 . S
O59 C63 1.251 . S
O60 Zn41 2.025 . S
O60 C63 1.254 . S
O61 C42 1.246 . S
O61 Zn49 2.034 . S
O62 Zn41 2.024 . S
O62 C42 1.249 . S
C63 O59 1.251 . S
C63 O60 1.254 . S
H64 C37 0.949 . S
H65 C39 0.950 . S
H66 C46 0.949 . S
H67 C48 0.950 . S
H68 C75 0.929 . S
H69 C78 0.930 . S
H70 C80 0.929 . S
H71 C72 0.969 . S
C72 H71 0.969 . S
C72 O73 1.550 . S
C72 H74 0.973 . S
O73 C72 1.550 . S
O73 C79 1.412 . S
H74 C72 0.973 . S
C75 H68 0.929 . S
C75 C76 1.400 . S
C75 C77 1.364 . S
C76 C75 1.400 . S
C76 C80 1.377 . S
C77 C75 1.364 . S
C77 C78 1.374 1_465 S
C78 H69 0.930 . S
C78 C77 1.374 1_645 S
C78 C79 1.383 . S
C79 O73 1.412 . S
C79 C78 1.383 . S
C79 C80 1.394 1_645 S
C80 H70 0.929 . S
C80 C76 1.377 . S
C80 C79 1.394 1_465 S
H81 C88 0.929 . S
H82 C91 0.930 1_565 S
H83 C93 0.929 . S
H84 C85 0.969 . S
C85 H84 0.969 . S
C85 O86 1.550 . S
C85 H87 0.973 . S
O86 C85 1.550 . S
O86 C92 1.412 1_565 S
H87 C85 0.973 . S
C88 H81 0.929 . S
C88 C89 1.400 . S
C88 C90 1.364 . S
C89 C88 1.400 . S
C89 C93 1.377 . S
C90 C88 1.364 . S
C90 C91 1.374 1_455 S
C91 H82 0.930 1_545 S
C91 C90 1.374 1_655 S
C91 C92 1.383 . S
C92 O86 1.412 1_545 S
C92 C91 1.383 . S
C92 C93 1.394 1_655 S
C93 H83 0.929 . S
C93 C89 1.377 . S
C93 C92 1.394 1_455 S
H94 C101 0.929 . S
H95 C104 0.930 . S
H96 C106 0.929 1_554 S
H97 C98 0.969 . S
C98 H97 0.969 . S
C98 O99 1.548 1_556 S
C98 H100 0.973 . S
O99 C98 1.548 1_554 S
O99 C105 1.405 1_554 S
H100 C98 0.973 . S
C101 H94 0.929 . S
C101 C102 1.400 . S
C101 C103 1.364 . S
C102 C101 1.400 . S
C102 C106 1.377 . S
C103 C101 1.364 . S
C103 C104 1.374 . S
C104 H95 0.930 . S
C104 C103 1.374 . S
C104 C105 1.383 . S
C105 O99 1.405 1_556 S
C105 C104 1.383 . S
C105 C106 1.394 . S
C106 H96 0.929 1_556 S
C106 C102 1.377 . S
C106 C105 1.394 . S
H107 C114 0.929 . S
H108 C117 0.930 . S
H109 C119 0.929 1_556 S
H110 C111 0.969 . S
C111 H110 0.969 . S
C111 O112 1.550 . S
C111 H113 0.973 . S
O112 C111 1.550 . S
O112 C118 1.412 . S
H113 C111 0.973 . S
C114 H107 0.929 . S
C114 C115 1.400 . S
C114 C116 1.364 . S
C115 C114 1.400 . S
C115 C119 1.377 . S
C116 C114 1.364 . S
C116 C117 1.374 . S
C117 H108 0.930 . S
C117 C116 1.374 . S
C117 C118 1.383 . S
C118 O112 1.412 . S
C118 C117 1.383 . S
C118 C119 1.394 . S
C119 H109 0.929 1_554 S
C119 C115 1.377 . S
C119 C118 1.394 . S
H120 C126 0.930 . S
H121 C130 0.930 . S
H122 C135 0.929 . S
H123 C133 0.929 . S
H124 C128 0.929 . S
H125 C134 0.929 . S
C126 H120 0.930 . S
C126 C127 1.367 1_556 S
C126 C134 1.378 . S
C127 C126 1.367 1_554 S
C127 C135 1.433 . S
C128 H124 0.929 . S
C128 C130 1.378 . S
C128 C132 1.350 . S
C129 C132 1.463 . S
C129 C134 1.350 1_554 S
C129 N137 1.427 . S
C130 H121 0.930 . S
C130 C128 1.378 . S
C130 C131 1.367 . S
C131 C130 1.367 . S
C131 C133 1.433 1_554 S
C132 C128 1.350 . S
C132 C129 1.463 . S
C132 N136 1.427 1_554 S
C133 H123 0.929 . S
C133 C131 1.433 1_556 S
C133 N136 1.384 . S
C134 H125 0.929 . S
C134 C126 1.378 . S
C134 C129 1.350 1_556 S
C135 H122 0.929 . S
C135 C127 1.433 . S
C135 N137 1.384 . S
N136 C132 1.427 1_556 S
N136 C133 1.384 . S
N137 C129 1.427 . S
N137 C135 1.384 . S
H138 C144 0.930 . S
H139 C148 0.930 . S
H140 C153 0.929 . S
H141 C151 0.929 . S
H142 C146 0.929 . S
H143 C152 0.929 . S
C144 H138 0.930 . S
C144 C145 1.367 1_556 S
C144 C152 1.378 . S
C145 C144 1.367 1_554 S
C145 C153 1.433 . S
C146 H142 0.929 . S
C146 C148 1.378 . S
C146 C150 1.350 . S
C147 C150 1.463 . S
C147 C152 1.350 1_554 S
C147 N155 1.427 . S
C148 H139 0.930 . S
C148 C146 1.378 . S
C148 C149 1.367 . S
C149 C148 1.367 . S
C149 C151 1.433 1_554 S
C150 C146 1.350 . S
C150 C147 1.463 . S
C150 N154 1.427 1_554 S
C151 H141 0.929 . S
C151 C149 1.433 1_556 S
C151 N154 1.384 . S
C152 H143 0.929 . S
C152 C144 1.378 . S
C152 C147 1.350 1_556 S
C153 H140 0.929 . S
C153 C145 1.433 . S
C153 N155 1.384 . S
N154 C150 1.427 1_556 S
N154 C151 1.384 . S
N155 C147 1.427 . S
N155 C153 1.384 . S
H156 C162 0.930 . S
H157 C166 0.930 1_556 S
H158 C171 0.929 . S
H159 C169 0.929 . S
H160 C164 0.939 . S
H161 C170 0.929 . S
C162 H156 0.930 . S
C162 C163 1.367 . S
C162 C170 1.378 . S
C163 C162 1.367 . S
C163 C171 1.433 1_554 S
C164 H160 0.939 . S
C164 C166 1.378 1_556 S
C164 C168 1.340 1_556 S
C165 C168 1.463 . S
C165 C170 1.350 . S
C165 N173 1.427 1_554 S
C166 H157 0.930 1_554 S
C166 C164 1.378 1_554 S
C166 C167 1.367 . S
C167 C166 1.367 . S
C167 C169 1.433 . S
C168 C164 1.340 1_554 S
C168 C165 1.463 . S
C168 N172 1.427 . S
C169 H159 0.929 . S
C169 C167 1.433 . S
C169 N172 1.384 . S
C170 H161 0.929 . S
C170 C162 1.378 . S
C170 C165 1.350 . S
C171 H158 0.929 . S
C171 C163 1.433 1_556 S
C171 N173 1.384 . S
N172 C168 1.427 . S
N172 C169 1.384 . S
N173 C165 1.427 1_556 S
N173 C171 1.384 . S
H174 C180 0.930 . S
H175 C184 0.930 . S
H176 C189 0.929 . S
H177 C187 0.929 . S
H178 C182 0.929 . S
H179 C188 0.929 . S
C180 H174 0.930 . S
C180 C181 1.367 1_556 S
C180 C188 1.378 . S
C181 C180 1.367 1_554 S
C181 C189 1.433 . S
C182 H178 0.929 . S
C182 C184 1.378 . S
C182 C186 1.350 1_554 S
C183 C186 1.463 . S
C183 C188 1.350 . S
C183 N191 1.427 1_556 S
C184 H175 0.930 . S
C184 C182 1.378 . S
C184 C185 1.367 1_554 S
C185 C184 1.367 1_556 S
C185 C187 1.433 . S
C186 C182 1.350 1_556 S
C186 C183 1.463 . S
C186 N190 1.427 . S
C187 H177 0.929 . S
C187 C185 1.433 . S
C187 N190 1.384 . S
C188 H179 0.929 . S
C188 C180 1.378 . S
C188 C183 1.350 . S
C189 H176 0.929 . S
C189 C181 1.433 . S
C189 N191 1.384 . S
N190 C186 1.427 . S
N190 C187 1.384 . S
N191 C183 1.427 1_554 S
N191 C189 1.384 . S
H192 C198 0.930 . S
H193 C202 0.930 . S
H194 C207 0.929 . S
H195 C205 0.929 . S
H196 C200 0.929 . S
H197 C206 0.929 . S
C198 H192 0.930 . S
C198 C199 1.367 . S
C198 C206 1.378 . S
C199 C198 1.367 . S
C199 C207 1.433 . S
C200 H196 0.929 . S
C200 C202 1.378 . S
C200 C204 1.350 . S
C201 C204 1.463 . S
C201 C206 1.350 . S
C201 N209 1.427 . S
C202 H193 0.930 . S
C202 C200 1.378 . S
C202 C203 1.367 . S
C203 C202 1.367 . S
C203 C205 1.433 . S
C204 C200 1.350 . S
C204 C201 1.463 . S
C204 N208 1.427 . S
C205 H195 0.929 . S
C205 C203 1.433 . S
C205 N208 1.384 . S
C206 H197 0.929 . S
C206 C198 1.378 . S
C206 C201 1.350 . S
C207 H194 0.929 . S
C207 C199 1.433 . S
C207 N209 1.384 . S
N208 C204 1.427 . S
N208 C205 1.384 . S
N209 C201 1.427 . S
N209 C207 1.384 . S
H210 C216 0.930 . S
H211 C220 0.930 . S
H212 C225 0.929 . S
H213 C223 0.929 . S
H214 C218 0.929 . S
H215 C224 0.929 . S
C216 H210 0.930 . S
C216 C217 1.367 . S
C216 C224 1.378 . S
C217 C216 1.367 . S
C217 C225 1.433 . S
C218 H214 0.929 . S
C218 C220 1.378 . S
C218 C222 1.350 . S
C219 C222 1.463 . S
C219 C224 1.350 . S
C219 N227 1.427 . S
C220 H211 0.930 . S
C220 C218 1.378 . S
C220 C221 1.367 . S
C221 C220 1.367 . S
C221 C223 1.433 . S
C222 C218 1.350 . S
C222 C219 1.463 . S
C222 N226 1.427 . S
C223 H213 0.929 . S
C223 C221 1.433 . S
C223 N226 1.384 . S
C224 H215 0.929 . S
C224 C216 1.378 . S
C224 C219 1.350 . S
C225 H212 0.929 . S
C225 C217 1.433 . S
C225 N227 1.384 . S
N226 C222 1.427 . S
N226 C223 1.384 . S
N227 C219 1.427 . S
N227 C225 1.384 . S
H228 C234 0.930 . S
H229 C238 0.930 . S
H230 C243 0.929 . S
H231 C241 0.929 . S
H232 C236 0.929 . S
H233 C242 0.929 . S
C234 H228 0.930 . S
C234 C235 1.367 . S
C234 C242 1.378 . S
C235 C234 1.367 . S
C235 C243 1.433 . S
C236 H232 0.929 . S
C236 C238 1.378 . S
C236 C240 1.350 . S
C237 C240 1.463 . S
C237 C242 1.350 . S
C237 N245 1.427 . S
C238 H229 0.930 . S
C238 C236 1.378 . S
C238 C239 1.367 . S
C239 C238 1.367 . S
C239 C241 1.433 . S
C240 C236 1.350 . S
C240 C237 1.463 . S
C240 N244 1.427 . S
C241 H231 0.929 . S
C241 C239 1.433 . S
C241 N244 1.384 . S
C242 H233 0.929 . S
C242 C234 1.378 . S
C242 C237 1.350 . S
C243 H230 0.929 . S
C243 C235 1.433 . S
C243 N245 1.384 . S
N244 C240 1.427 . S
N244 C241 1.384 . S
N245 C237 1.427 . S
N245 C243 1.384 . S
H246 C252 0.930 . S
H247 C256 0.930 . S
H248 C261 0.929 . S
H249 C259 0.929 . S
H250 C254 0.929 . S
H251 C260 0.929 . S
C252 H246 0.930 . S
C252 C253 1.367 . S
C252 C260 1.378 . S
C253 C252 1.367 . S
C253 C261 1.433 . S
C254 H250 0.929 . S
C254 C256 1.378 . S
C254 C258 1.350 . S
C255 C258 1.463 . S
C255 C260 1.350 . S
C255 N263 1.427 . S
C256 H247 0.930 . S
C256 C254 1.378 . S
C256 C257 1.367 . S
C257 C256 1.367 . S
C257 C259 1.433 . S
C258 C254 1.350 . S
C258 C255 1.463 . S
C258 N262 1.427 . S
C259 H249 0.929 . S
C259 C257 1.433 . S
C259 N262 1.384 . S
C260 H251 0.929 . S
C260 C252 1.378 . S
C260 C255 1.350 . S
C261 H248 0.929 . S
C261 C253 1.433 . S
C261 N263 1.384 . S
N262 C258 1.427 . S
N262 C259 1.384 . S
N263 C255 1.427 . S
N263 C261 1.384 . S
H264 C270 0.930 . S
H265 C274 0.930 . S
H266 C279 0.929 . S
H267 C277 0.929 . S
H268 C272 0.929 . S
H269 C278 0.929 . S
C270 H264 0.930 . S
C270 C271 1.367 1_545 S
C270 C278 1.378 . S
C271 C270 1.367 1_565 S
C271 C279 1.433 1_455 S
C272 H268 0.929 . S
C272 C274 1.378 . S
C272 C276 1.350 1_655 S
C273 C276 1.463 . S
C273 C278 1.350 1_565 S
C273 N281 1.427 1_455 S
C274 H265 0.930 . S
C274 C272 1.378 . S
C274 C275 1.367 1_655 S
C275 C274 1.367 1_455 S
C275 C277 1.433 1_565 S
C276 C272 1.350 1_455 S
C276 C273 1.463 . S
C276 N280 1.427 1_565 S
C277 H267 0.929 . S
C277 C275 1.433 1_545 S
C277 N280 1.384 . S
C278 H269 0.929 . S
C278 C270 1.378 . S
C278 C273 1.350 1_545 S
C279 H266 0.929 . S
C279 C271 1.433 1_655 S
C279 N281 1.384 . S
N280 C276 1.427 1_545 S
N280 C277 1.384 . S
N281 C273 1.427 1_655 S
N281 C279 1.384 . S
H282 C288 0.930 . S
H283 C292 0.930 1_565 S
H284 C297 0.929 1_565 S
H285 C295 0.929 . S
H286 C290 0.929 1_565 S
H287 C296 0.929 . S
C288 H282 0.930 . S
C288 C289 1.367 . S
C288 C296 1.378 . S
C289 C288 1.367 . S
C289 C297 1.433 1_455 S
C290 H286 0.929 1_545 S
C290 C292 1.378 . S
C290 C294 1.350 1_655 S
C291 C294 1.463 . S
C291 C296 1.350 . S
C291 N299 1.427 1_455 S
C292 H283 0.930 1_545 S
C292 C290 1.378 . S
C292 C293 1.367 1_655 S
C293 C292 1.367 1_455 S
C293 C295 1.433 . S
C294 C290 1.350 1_455 S
C294 C291 1.463 . S
C294 N298 1.427 . S
C295 H285 0.929 . S
C295 C293 1.433 . S
C295 N298 1.384 . S
C296 H287 0.929 . S
C296 C288 1.378 . S
C296 C291 1.350 . S
C297 H284 0.929 1_545 S
C297 C289 1.433 1_655 S
C297 N299 1.384 . S
N298 C294 1.427 . S
N298 C295 1.384 . S
N299 C291 1.427 1_655 S
N299 C297 1.384 . S
H300 C306 0.930 . S
H301 C310 0.930 . S
H302 C315 0.929 . S
H303 C313 0.929 . S
H304 C308 0.929 . S
H305 C314 0.929 . S
C306 H300 0.930 . S
C306 C307 1.367 . S
C306 C314 1.378 . S
C307 C306 1.367 . S
C307 C315 1.433 . S
C308 H304 0.929 . S
C308 C310 1.378 . S
C308 C312 1.350 . S
C309 C312 1.463 . S
C309 C314 1.350 . S
C309 N317 1.427 . S
C310 H301 0.930 . S
C310 C308 1.378 . S
C310 C311 1.367 . S
C311 C310 1.367 . S
C311 C313 1.433 . S
C312 C308 1.350 . S
C312 C309 1.463 . S
C312 N316 1.427 . S
C313 H303 0.929 . S
C313 C311 1.433 . S
C313 N316 1.384 . S
C314 H305 0.929 . S
C314 C306 1.378 . S
C314 C309 1.350 . S
C315 H302 0.929 . S
C315 C307 1.433 . S
C315 N317 1.384 . S
N316 C312 1.427 . S
N316 C313 1.384 . S
N317 C309 1.427 . S
N317 C315 1.384 . S
H318 C324 0.930 . S
H319 C328 0.930 . S
H320 C333 0.929 . S
H321 C331 0.929 . S
H322 C326 0.929 . S
H323 C332 0.929 . S
C324 H318 0.930 . S
C324 C325 1.367 . S
C324 C332 1.378 . S
C325 C324 1.367 . S
C325 C333 1.433 . S
C326 H322 0.929 . S
C326 C328 1.378 . S
C326 C330 1.350 . S
C327 C330 1.463 . S
C327 C332 1.350 . S
C327 N335 1.427 . S
C328 H319 0.930 . S
C328 C326 1.378 . S
C328 C329 1.367 . S
C329 C328 1.367 . S
C329 C331 1.433 . S
C330 C326 1.350 . S
C330 C327 1.463 . S
C330 N334 1.427 . S
C331 H321 0.929 . S
C331 C329 1.433 . S
C331 N334 1.384 . S
C332 H323 0.929 . S
C332 C324 1.378 . S
C332 C327 1.350 . S
C333 H320 0.929 . S
C333 C325 1.433 . S
C333 N335 1.384 . S
N334 C330 1.427 . S
N334 C331 1.384 . S
N335 C327 1.427 . S
N335 C333 1.384 . S
C131 C111 1.275 . S
C127 C29 1.412 . S
C145 C8 1.423 . S
C149 C98 1.313 1_554 S
C163 C0 1.502 . S
C167 C115 1.484 . S
C181 C17 1.494 . S
C185 C102 1.479 . S
C199 C63 1.410 . S
C203 C85 1.290 . S
C217 C42 1.425 . S
C221 C72 1.306 . S
C239 C89 1.474 . S
C235 C34 1.503 . S
C257 C76 1.470 . S
C253 C51 1.494 . S
C271 C4 1.511 1_565 S
C275 C77 1.513 . S
C289 C13 1.527 . S
C293 C90 1.530 . S
C311 C103 1.511 . S
C307 C38 1.511 . S
C325 C47 1.527 . S
C329 C116 1.530 . S
