# Generated by pormake.
# Topology nom, (4,4)-cn, num edge types: 1
# Building blocks:
#     Node 0, Type 0, BuildingBlock: NAHDIM_clean_linker_0, # of connection points: 4
#     Node 1, Type 0, BuildingBlock: NAHDIM_clean_linker_0, # of connection points: 4
#     Node 2, Type 0, BuildingBlock: NAHDIM_clean_linker_0, # of connection points: 4
#     Node 3, Type 0, BuildingBlock: NAHDIM_clean_linker_0, # of connection points: 4
#     Node 4, Type 0, BuildingBlock: NAHDIM_clean_linker_0, # of connection points: 4
#     Node 5, Type 0, BuildingBlock: NAHDIM_clean_linker_0, # of connection points: 4
#     Node 6, Type 1, BuildingBlock: KUFVIS_clean_sbu_0, # of connection points: 4
#     Node 7, Type 1, BuildingBlock: KUFVIS_clean_sbu_0, # of connection points: 4
#     Node 8, Type 1, BuildingBlock: KUFVIS_clean_sbu_0, # of connection points: 4
#     Node 9, Type 1, BuildingBlock: KUFVIS_clean_sbu_0, # of connection points: 4
#     Node 10, Type 1, BuildingBlock: KUFVIS_clean_sbu_0, # of connection points: 4
#     Node 11, Type 1, BuildingBlock: KUFVIS_clean_sbu_0, # of connection points: 4
#     Edge 12, Type (0, 1), BuildingBlock: UVAHIK_clean_linker_0, # of connection points: 2
#     Edge 13, Type (0, 1), BuildingBlock: UVAHIK_clean_linker_0, # of connection points: 2
#     Edge 14, Type (0, 1), BuildingBlock: UVAHIK_clean_linker_0, # of connection points: 2
#     Edge 15, Type (0, 1), BuildingBlock: UVAHIK_clean_linker_0, # of connection points: 2
#     Edge 16, Type (0, 1), BuildingBlock: UVAHIK_clean_linker_0, # of connection points: 2
#     Edge 17, Type (0, 1), BuildingBlock: UVAHIK_clean_linker_0, # of connection points: 2
#     Edge 18, Type (0, 1), BuildingBlock: UVAHIK_clean_linker_0, # of connection points: 2
#     Edge 19, Type (0, 1), BuildingBlock: UVAHIK_clean_linker_0, # of connection points: 2
#     Edge 20, Type (0, 1), BuildingBlock: UVAHIK_clean_linker_0, # of connection points: 2
#     Edge 21, Type (0, 1), BuildingBlock: UVAHIK_clean_linker_0, # of connection points: 2
#     Edge 22, Type (0, 1), BuildingBlock: UVAHIK_clean_linker_0, # of connection points: 2
#     Edge 23, Type (0, 1), BuildingBlock: UVAHIK_clean_linker_0, # of connection points: 2
#     Edge 24, Type (0, 1), BuildingBlock: UVAHIK_clean_linker_0, # of connection points: 2
#     Edge 25, Type (0, 1), BuildingBlock: UVAHIK_clean_linker_0, # of connection points: 2
#     Edge 26, Type (0, 1), BuildingBlock: UVAHIK_clean_linker_0, # of connection points: 2
#     Edge 27, Type (0, 1), BuildingBlock: UVAHIK_clean_linker_0, # of connection points: 2
#     Edge 28, Type (0, 1), BuildingBlock: UVAHIK_clean_linker_0, # of connection points: 2
#     Edge 29, Type (0, 1), BuildingBlock: UVAHIK_clean_linker_0, # of connection points: 2
#     Edge 30, Type (0, 1), BuildingBlock: UVAHIK_clean_linker_0, # of connection points: 2
#     Edge 31, Type (0, 1), BuildingBlock: UVAHIK_clean_linker_0, # of connection points: 2
#     Edge 32, Type (0, 1), BuildingBlock: UVAHIK_clean_linker_0, # of connection points: 2
#     Edge 33, Type (0, 1), BuildingBlock: UVAHIK_clean_linker_0, # of connection points: 2
#     Edge 34, Type (0, 1), BuildingBlock: UVAHIK_clean_linker_0, # of connection points: 2
#     Edge 35, Type (0, 1), BuildingBlock: UVAHIK_clean_linker_0, # of connection points: 2
# Relax obj value: 0.043
# Max RMSD: 0.131
# Mean RMSD: 0.093
data_MOF--net-nom--node1-KUFVIS_clean_sbu_0--node2-NAHDIM_clean_linker_0--edge1-UVAHIK_clean_linker_0
_symmetry_space_group_name_H-M    P1
_symmetry_Int_Tables_number       1
_symmetry_cell_setting            triclinic
loop_
_symmetry_equiv_pos_as_xyz
'x, y, z'
_cell_length_a     69.46797
_cell_length_b     70.238343
_cell_length_c     85.075841
_cell_angle_alpha  90.718183
_cell_angle_beta   90.743591
_cell_angle_gamma 120.00481
loop_
_atom_site_label
_atom_site_type_symbol
_atom_site_fract_x
_atom_site_fract_y
_atom_site_fract_z
_atom_type_partial_charge
C0 C 0.12218 0.61424 0.253 0.0
C1 C 0.13418 0.60651 0.26427 0.0
C2 C 0.10719 0.59065 0.28473 0.0
C3 C 0.10183 0.56864 0.28528 0.0
C4 C 0.0809 0.5524 0.29035 0.0
C5 C 0.06495 0.55837 0.29463 0.0
C6 C 0.07051 0.58071 0.2942 0.0
C7 C 0.0918 0.59665 0.28955 0.0
C8 C 0.07579 0.52888 0.29098 0.0
C9 C 0.05387 0.58772 0.29835 0.0
C10 C 0.94043 0.42892 0.23192 0.0
C11 C 0.94993 0.4529 0.22698 0.0
C12 C 0.96193 0.47656 0.2508 0.0
C13 C 0.95967 0.49298 0.25851 0.0
C14 C 0.97405 0.50544 0.271 0.0
C15 C 0.99038 0.50048 0.27644 0.0
C16 C 0.99265 0.48374 0.26875 0.0
C17 C 0.9787 0.47225 0.25582 0.0
C18 C 0.97173 0.52387 0.2783 0.0
C19 C 0.00983 0.47793 0.27414 0.0
C20 C 0.90741 0.46361 0.36636 0.0
C21 C 0.91757 0.4863 0.36473 0.0
C22 C 0.93942 0.49862 0.3596 0.0
C23 C 0.95189 0.48804 0.35676 0.0
C24 C 0.9417 0.46495 0.35838 0.0
C25 C 0.91931 0.45285 0.36278 0.0
C26 C 0.94911 0.52306 0.35778 0.0
C27 C 0.95454 0.45311 0.3558 0.0
C28 C 0.10843 0.61968 0.40549 0.0
C29 C 0.0948 0.59521 0.40908 0.0
C30 C 0.05755 0.5735 0.3976 0.0
C31 C 0.04226 0.57787 0.39012 0.0
C32 C 0.02745 0.56344 0.37854 0.0
C33 C 0.02745 0.54373 0.37483 0.0
C34 C 0.04213 0.53865 0.38301 0.0
C35 C 0.05716 0.55369 0.39429 0.0
C36 C 0.01207 0.56948 0.37011 0.0
C37 C 0.04222 0.51758 0.37958 0.0
C38 C 0.04223 0.5412 0.299 0.0
C39 C 0.0272 0.52885 0.28687 0.0
C40 C 0.00528 0.51295 0.28999 0.0
C41 C 0.99794 0.50937 0.30569 0.0
C42 C 0.97591 0.49377 0.30928 0.0
C43 C 0.96856 0.49124 0.32465 0.0
C44 C 0.98316 0.50357 0.33714 0.0
C45 C 0.97576 0.50145 0.35278 0.0
C46 C 0.99079 0.51412 0.36488 0.0
C47 C 0.01299 0.52917 0.36177 0.0
C48 C 0.02066 0.53154 0.34621 0.0
C49 C 0.04286 0.54669 0.34267 0.0
C50 C 0.05007 0.54956 0.32727 0.0
C51 C 0.03531 0.53763 0.31477 0.0
C52 C 0.013 0.52185 0.3181 0.0
C53 C 0.00566 0.51879 0.33385 0.0
C54 C 0.87317 0.41895 0.3852 0.0
C55 C 0.87062 0.43116 0.37123 0.0
O56 O 0.12709 0.60634 0.27945 0.0
O57 O 0.07242 0.5887 0.40798 0.0
O58 O 0.88659 0.45324 0.37214 0.0
O59 O 0.9474 0.46516 0.2388 0.0
H60 H 0.13017 0.58963 0.26057 0.0
H61 H 0.10393 0.6029 0.25333 0.0
H62 H 0.1258 0.63105 0.25642 0.0
H63 H 0.12747 0.61434 0.24072 0.0
H64 H 0.11407 0.56423 0.28182 0.0
H65 H 0.09628 0.6138 0.28912 0.0
H66 H 0.0639 0.5192 0.28129 0.0
H67 H 0.09094 0.52749 0.28971 0.0
H68 H 0.06785 0.52145 0.30225 0.0
H69 H 0.05986 0.60517 0.29549 0.0
H70 H 0.03783 0.57718 0.29196 0.0
H71 H 0.05062 0.5857 0.31112 0.0
H72 H 0.96788 0.45984 0.22446 0.0
H73 H 0.94124 0.4189 0.22201 0.0
H74 H 0.95011 0.42784 0.24198 0.0
H75 H 0.92289 0.42166 0.23556 0.0
H76 H 0.94678 0.49629 0.2545 0.0
H77 H 0.98084 0.45976 0.24991 0.0
H78 H 0.9883 0.53859 0.28068 0.0
H79 H 0.96182 0.52863 0.27065 0.0
H80 H 0.96318 0.5185 0.28967 0.0
H81 H 0.00682 0.4621 0.26886 0.0
H82 H 0.02652 0.49106 0.27063 0.0
H83 H 0.01002 0.47682 0.28715 0.0
H84 H 0.87218 0.42371 0.36003 0.0
H85 H 0.90821 0.49442 0.36751 0.0
H86 H 0.91152 0.43522 0.36385 0.0
H87 H 0.9617 0.5297 0.34845 0.0
H88 H 0.93594 0.52715 0.35499 0.0
H89 H 0.95717 0.53143 0.3691 0.0
H90 H 0.94519 0.43575 0.35957 0.0
H91 H 0.9582 0.45322 0.34314 0.0
H92 H 0.97068 0.46167 0.36239 0.0
H93 H 0.09915 0.5863 0.40016 0.0
H94 H 0.1265 0.62533 0.40607 0.0
H95 H 0.10418 0.62256 0.39345 0.0
H96 H 0.10485 0.62958 0.414 0.0
H97 H 0.04253 0.59308 0.393 0.0
H98 H 0.06856 0.54999 0.40052 0.0
H99 H 0.0131 0.56799 0.35718 0.0
H100 H 0.99474 0.55792 0.37345 0.0
H101 H 0.01589 0.58647 0.37312 0.0
H102 H 0.05324 0.51515 0.38788 0.0
H103 H 0.02509 0.50333 0.38023 0.0
H104 H 0.048 0.51783 0.36743 0.0
H105 H 0.03259 0.53179 0.27478 0.0
H106 H 0.96397 0.4836 0.30021 0.0
H107 H 0.95125 0.47946 0.32662 0.0
H108 H 0.98493 0.51283 0.37679 0.0
H109 H 0.05492 0.55662 0.35176 0.0
H110 H 0.06733 0.56146 0.32526 0.0
H111 H 0.8718 0.42624 0.3965 0.0
H112 H 0.86006 0.40132 0.38453 0.0
H113 H 0.88955 0.41984 0.38515 0.0
C114 C 0.42281 0.90312 0.55508 0.0
C115 C 0.43035 0.89022 0.54458 0.0
C116 C 0.44604 0.91636 0.52382 0.0
C117 C 0.46869 0.9231 0.52364 0.0
C118 C 0.48434 0.94447 0.51918 0.0
C119 C 0.4771 0.95945 0.51521 0.0
C120 C 0.45408 0.95243 0.51518 0.0
C121 C 0.43879 0.93073 0.51913 0.0
C122 C 0.50864 0.95119 0.5191 0.0
C123 C 0.44559 0.96797 0.51153 0.0
C124 C 0.54452 0.08425 0.60653 0.0
C125 C 0.53242 0.06736 0.59389 0.0
C126 C 0.53909 0.05533 0.5685 0.0
C127 C 0.51725 0.04682 0.5626 0.0
C128 C 0.51064 0.03567 0.54804 0.0
C129 C 0.52589 0.03209 0.53943 0.0
C130 C 0.54776 0.04018 0.54546 0.0
C131 C 0.55421 0.05215 0.55978 0.0
C132 C 0.48717 0.02743 0.54202 0.0
C133 C 0.56419 0.03591 0.53694 0.0
C134 C 0.57794 0.12647 0.4579 0.0
C135 C 0.5566 0.1194 0.46356 0.0
C136 C 0.54159 0.09693 0.46559 0.0
C137 C 0.54834 0.08136 0.46218 0.0
C138 C 0.56977 0.08851 0.45621 0.0
C139 C 0.58417 0.11101 0.45391 0.0
C140 C 0.51855 0.08984 0.47132 0.0
C141 C 0.5775 0.07241 0.45236 0.0
C142 C 0.41732 0.93363 0.40896 0.0
C143 C 0.4418 0.94401 0.40468 0.0
C144 C 0.4655 0.98115 0.41449 0.0
C145 C 0.46022 0.99552 0.42221 0.0
C146 C 0.47388 0.00938 0.4345 0.0
C147 C 0.49357 0.00921 0.43874 0.0
C148 C 0.49975 0.99578 0.43014 0.0
C149 C 0.48544 0.98164 0.41819 0.0
C150 C 0.46686 0.02363 0.4433 0.0
C151 C 0.52108 0.99588 0.43389 0.0
C152 C 0.49363 0.9829 0.51252 0.0
C153 C 0.50427 0.99621 0.52576 0.0
C154 C 0.51829 0.01889 0.52455 0.0
C155 C 0.52256 0.02863 0.50961 0.0
C156 C 0.5367 0.05138 0.50791 0.0
C157 C 0.5406 0.06081 0.49316 0.0
C158 C 0.52983 0.048 0.4796 0.0
C159 C 0.53295 0.05756 0.46461 0.0
C160 C 0.52131 0.04443 0.45149 0.0
C161 C 0.50674 0.02188 0.45285 0.0
C162 C 0.50392 0.0119 0.46763 0.0
C163 C 0.48972 0.98914 0.46934 0.0
C164 C 0.48685 0.97951 0.48395 0.0
C165 C 0.49746 0.99235 0.4975 0.0
C166 C 0.51198 0.01531 0.49605 0.0
C167 C 0.51536 0.02506 0.48106 0.0
C168 C 0.62165 0.17332 0.47297 0.0
C169 C 0.59786 0.16472 0.46684 0.0
O170 O 0.43102 0.89629 0.52906 0.0
O171 O 0.45088 0.96657 0.40372 0.0
O172 O 0.59267 0.14806 0.45582 0.0
O173 O 0.54612 0.06662 0.58246 0.0
H174 H 0.44726 0.894 0.54858 0.0
H175 H 0.43484 0.92102 0.55456 0.0
H176 H 0.40617 0.90006 0.55112 0.0
H177 H 0.42197 0.89825 0.56754 0.0
H178 H 0.47408 0.91168 0.5271 0.0
H179 H 0.42117 0.92519 0.51933 0.0
H180 H 0.51733 0.96243 0.5293 0.0
H181 H 0.51117 0.93681 0.51989 0.0
H182 H 0.51644 0.96022 0.50824 0.0
H183 H 0.42784 0.96098 0.51456 0.0
H184 H 0.45555 0.98384 0.51806 0.0
H185 H 0.44719 0.97146 0.49879 0.0
H186 H 0.52003 0.05069 0.598 0.0
H187 H 0.53262 0.10631 0.60385 0.0
H188 H 0.54202 0.0746 0.61753 0.0
H189 H 0.56265 0.08941 0.60559 0.0
H190 H 0.5052 0.04888 0.56921 0.0
H191 H 0.57098 0.05865 0.56443 0.0
H192 H 0.47729 0.00933 0.54332 0.0
H193 H 0.47882 0.03494 0.54858 0.0
H194 H 0.48706 0.03099 0.52934 0.0
H195 H 0.57957 0.04104 0.54408 0.0
H196 H 0.55652 0.01815 0.53382 0.0
H197 H 0.56885 0.0451 0.52582 0.0
H198 H 0.58673 0.15836 0.47711 0.0
H199 H 0.55158 0.13142 0.46614 0.0
H200 H 0.60061 0.1167 0.44933 0.0
H201 H 0.51674 0.08324 0.48333 0.0
H202 H 0.51506 0.10364 0.4717 0.0
H203 H 0.50588 0.07647 0.46358 0.0
H204 H 0.5953 0.08079 0.44914 0.0
H205 H 0.57507 0.0618 0.46257 0.0
H206 H 0.56738 0.06156 0.44235 0.0
H207 H 0.4503 0.93996 0.41419 0.0
H208 H 0.40973 0.91553 0.40994 0.0
H209 H 0.41592 0.94043 0.42047 0.0
H210 H 0.40793 0.9372 0.39992 0.0
H211 H 0.44486 0.99512 0.41904 0.0
H212 H 0.48963 0.97079 0.41183 0.0
H213 H 0.46566 0.01998 0.45603 0.0
H214 H 0.4796 0.04121 0.44204 0.0
H215 H 0.45058 0.02113 0.43897 0.0
H216 H 0.52511 0.98718 0.42466 0.0
H217 H 0.53511 0.01303 0.43522 0.0
H218 H 0.51951 0.98762 0.44523 0.0
H219 H 0.50075 0.98895 0.5373 0.0
H220 H 0.54501 0.06215 0.51796 0.0
H221 H 0.55188 0.07835 0.49256 0.0
H222 H 0.52344 0.05192 0.4401 0.0
H223 H 0.48067 0.97845 0.45941 0.0
H224 H 0.4759 0.96191 0.48453 0.0
H225 H 0.63359 0.18015 0.46323 0.0
H226 H 0.62616 0.18635 0.48215 0.0
H227 H 0.62306 0.15969 0.47828 0.0
C228 C 0.53569 0.42569 0.72015 0.0
C229 C 0.5558 0.43516 0.70938 0.0
C230 C 0.54401 0.45111 0.68923 0.0
C231 C 0.56067 0.47309 0.68798 0.0
C232 C 0.55538 0.4891 0.68342 0.0
C233 C 0.53287 0.48291 0.68039 0.0
C234 C 0.51604 0.46059 0.6816 0.0
C235 C 0.52194 0.44487 0.6857 0.0
C236 C 0.57379 0.51263 0.68201 0.0
C237 C 0.49179 0.45339 0.67893 0.0
C238 C 0.55152 0.57599 0.76459 0.0
C239 C 0.52799 0.56556 0.75747 0.0
C240 C 0.52522 0.56469 0.72905 0.0
C241 C 0.50643 0.54401 0.72611 0.0
C242 C 0.50389 0.53256 0.71189 0.0
C243 C 0.52066 0.54194 0.70052 0.0
C244 C 0.5392 0.56324 0.70324 0.0
C245 C 0.54101 0.57453 0.71741 0.0
C246 C 0.48364 0.51014 0.70925 0.0
C247 C 0.55759 0.57367 0.69152 0.0
C248 C 0.47067 0.5828 0.61262 0.0
C249 C 0.45567 0.56124 0.61675 0.0
C250 C 0.46327 0.54702 0.62145 0.0
C251 C 0.48638 0.55461 0.62176 0.0
C252 C 0.50159 0.57657 0.61775 0.0
C253 C 0.4935 0.59047 0.61321 0.0
C254 C 0.44662 0.52376 0.62574 0.0
C255 C 0.5263 0.58513 0.61788 0.0
C256 C 0.50431 0.42435 0.57119 0.0
C257 C 0.51823 0.44855 0.56689 0.0
C258 C 0.50425 0.47153 0.57713 0.0
C259 C 0.48401 0.46667 0.58365 0.0
C260 C 0.48316 0.47972 0.59594 0.0
C261 C 0.50305 0.49844 0.60142 0.0
C262 C 0.52341 0.50417 0.59414 0.0
C263 C 0.52381 0.49049 0.58214 0.0
C264 C 0.46112 0.47323 0.60329 0.0
C265 C 0.54477 0.52449 0.59923 0.0
C266 C 0.5268 0.49987 0.67665 0.0
C267 C 0.52642 0.51287 0.68906 0.0
C268 C 0.52 0.52857 0.68664 0.0
C269 C 0.51343 0.53126 0.67141 0.0
C270 C 0.50606 0.5463 0.66861 0.0
C271 C 0.49982 0.54892 0.65352 0.0
C272 C 0.50073 0.53662 0.64067 0.0
C273 C 0.49451 0.53918 0.62529 0.0
C274 C 0.49566 0.52672 0.61278 0.0
C275 C 0.50266 0.51146 0.61518 0.0
C276 C 0.5088 0.50852 0.63049 0.0
C277 C 0.51569 0.49313 0.63336 0.0
C278 C 0.52183 0.49045 0.64843 0.0
C279 C 0.521 0.5028 0.66126 0.0
C280 C 0.51415 0.51845 0.65865 0.0
C281 C 0.50794 0.52124 0.64326 0.0
C282 C 0.47809 0.63417 0.61044 0.0
C283 C 0.46103 0.61121 0.61586 0.0
O284 O 0.54896 0.43577 0.69411 0.0
O285 O 0.50455 0.45765 0.56607 0.0
O286 O 0.46294 0.59564 0.60695 0.0
O287 O 0.52873 0.57517 0.74318 0.0
H288 H 0.56804 0.45213 0.71363 0.0
H289 H 0.52799 0.43626 0.72008 0.0
H290 H 0.52302 0.40883 0.71609 0.0
H291 H 0.54083 0.42506 0.73247 0.0
H292 H 0.57778 0.47764 0.69058 0.0
H293 H 0.50926 0.42775 0.68671 0.0
H294 H 0.57268 0.52273 0.69171 0.0
H295 H 0.59051 0.51419 0.68263 0.0
H296 H 0.57198 0.51945 0.67074 0.0
H297 H 0.48068 0.43609 0.68235 0.0
H298 H 0.48736 0.46419 0.68573 0.0
H299 H 0.48866 0.45482 0.6663 0.0
H300 H 0.52208 0.54768 0.75578 0.0
H301 H 0.55129 0.56857 0.7761 0.0
H302 H 0.56232 0.57305 0.75658 0.0
H303 H 0.55881 0.59403 0.76631 0.0
H304 H 0.49393 0.53674 0.73503 0.0
H305 H 0.55533 0.59064 0.7198 0.0
H306 H 0.48851 0.49737 0.71031 0.0
H307 H 0.47055 0.50676 0.71793 0.0
H308 H 0.47658 0.50867 0.69721 0.0
H309 H 0.57145 0.5898 0.69581 0.0
H310 H 0.56429 0.56257 0.68895 0.0
H311 H 0.55089 0.57616 0.68031 0.0
H312 H 0.46449 0.60993 0.62854 0.0
H313 H 0.43801 0.55553 0.61607 0.0
H314 H 0.5049 0.60714 0.60974 0.0
H315 H 0.45097 0.52005 0.63747 0.0
H316 H 0.42938 0.52086 0.62594 0.0
H317 H 0.44722 0.51212 0.61708 0.0
H318 H 0.53596 0.60276 0.6148 0.0
H319 H 0.53187 0.58307 0.62971 0.0
H320 H 0.53009 0.57541 0.60936 0.0
H321 H 0.53121 0.45686 0.57634 0.0
H322 H 0.51497 0.41674 0.57203 0.0
H323 H 0.49658 0.42301 0.58277 0.0
H324 H 0.49088 0.41511 0.56224 0.0
H325 H 0.46897 0.45212 0.57947 0.0
H326 H 0.53936 0.49453 0.57667 0.0
H327 H 0.46239 0.47201 0.61623 0.0
H328 H 0.45666 0.4861 0.60107 0.0
H329 H 0.44752 0.45727 0.59851 0.0
H330 H 0.55844 0.52831 0.59097 0.0
H331 H 0.54223 0.53887 0.60011 0.0
H332 H 0.54999 0.52201 0.61105 0.0
H333 H 0.53112 0.51066 0.70082 0.0
H334 H 0.50503 0.55618 0.67807 0.0
H335 H 0.49431 0.56075 0.65205 0.0
H336 H 0.49089 0.52881 0.60101 0.0
H337 H 0.51646 0.48298 0.624 0.0
H338 H 0.52719 0.4785 0.6499 0.0
H339 H 0.47521 0.63611 0.59783 0.0
H340 H 0.47701 0.64699 0.61753 0.0
H341 H 0.49515 0.6368 0.61198 0.0
C342 C 0.1456 0.59327 0.88612 0.0
C343 C 0.14975 0.58584 0.8701 0.0
C344 C 0.11178 0.55697 0.86215 0.0
C345 C 0.10339 0.57106 0.85884 0.0
C346 C 0.08083 0.56251 0.85483 0.0
C347 C 0.06645 0.53947 0.85401 0.0
C348 C 0.07493 0.52526 0.85705 0.0
C349 C 0.09752 0.53424 0.86106 0.0
C350 C 0.07229 0.57808 0.85156 0.0
C351 C 0.06008 0.50061 0.85621 0.0
C352 C 0.92891 0.45562 0.93273 0.0
C353 C 0.94348 0.46073 0.91893 0.0
C354 C 0.96341 0.48938 0.89992 0.0
C355 C 0.96788 0.47598 0.88996 0.0
C356 C 0.98117 0.48461 0.87679 0.0
C357 C 0.99019 0.50712 0.87341 0.0
C358 C 0.9855 0.52063 0.88321 0.0
C359 C 0.97207 0.51153 0.89635 0.0
C360 C 0.98574 0.46963 0.86655 0.0
C361 C 0.99476 0.54464 0.87982 0.0
C362 C 0.90289 0.48202 0.78831 0.0
C363 C 0.90795 0.46649 0.79429 0.0
C364 C 0.93015 0.47176 0.79655 0.0
C365 C 0.94751 0.4933 0.79337 0.0
C366 C 0.94233 0.50874 0.78691 0.0
C367 C 0.92002 0.50269 0.78417 0.0
C368 C 0.93496 0.45441 0.80256 0.0
C369 C 0.9603 0.53178 0.7832 0.0
C370 C 0.10429 0.52152 0.75268 0.0
C371 C 0.09109 0.5306 0.74425 0.0
C372 C 0.05281 0.51307 0.75269 0.0
C373 C 0.03843 0.49294 0.75941 0.0
C374 C 0.02285 0.49123 0.77045 0.0
C375 C 0.02141 0.51008 0.77451 0.0
C376 C 0.03481 0.53011 0.76683 0.0
C377 C 0.05046 0.53141 0.75599 0.0
C378 C 0.00858 0.46954 0.77826 0.0
C379 C 0.03316 0.55029 0.77052 0.0
C380 C 0.04248 0.53026 0.85018 0.0
C381 C 0.02791 0.52528 0.86263 0.0
C382 C 0.0051 0.51636 0.85986 0.0
C383 C 0.99667 0.51346 0.84428 0.0
C384 C 0.97414 0.50627 0.8411 0.0
C385 C 0.96584 0.50263 0.82571 0.0
C386 C 0.97954 0.50504 0.81295 0.0
C387 C 0.97101 0.50007 0.7973 0.0
C388 C 0.98503 0.50199 0.78501 0.0
C389 C 0.00755 0.50933 0.78786 0.0
C390 C 0.01655 0.51517 0.80333 0.0
C391 C 0.03931 0.52327 0.80653 0.0
C392 C 0.04795 0.52872 0.82181 0.0
C393 C 0.03407 0.52567 0.83453 0.0
C394 C 0.01109 0.51746 0.83158 0.0
C395 C 0.0024 0.51264 0.81593 0.0
C396 C 0.85381 0.48137 0.79926 0.0
C397 C 0.86524 0.46768 0.79745 0.0
O398 O 0.13331 0.56439 0.86655 0.0
O399 O 0.06888 0.51437 0.74314 0.0
O400 O 0.88161 0.47746 0.78635 0.0
O401 O 0.95102 0.48155 0.91302 0.0
H402 H 0.14994 0.59694 0.86081 0.0
H403 H 0.12956 0.59312 0.88594 0.0
H404 H 0.14509 0.58216 0.89549 0.0
H405 H 0.15902 0.61031 0.88907 0.0
H406 H 0.1142 0.5887 0.85943 0.0
H407 H 0.10414 0.5235 0.86356 0.0
H408 H 0.05882 0.57502 0.85981 0.0
H409 H 0.08555 0.5956 0.85277 0.0
H410 H 0.06505 0.575 0.83945 0.0
H411 H 0.06947 0.49182 0.85807 0.0
H412 H 0.0472 0.49547 0.86531 0.0
H413 H 0.05136 0.49549 0.84458 0.0
H414 H 0.95701 0.45665 0.92033 0.0
H415 H 0.93848 0.45365 0.94275 0.0
H416 H 0.93121 0.47178 0.93731 0.0
H417 H 0.8982 0.42988 0.92442 0.0
H418 H 0.96113 0.45874 0.89241 0.0
H419 H 0.96847 0.52175 0.90401 0.0
H420 H 0.97868 0.46842 0.85456 0.0
H421 H 0.00394 0.47657 0.86547 0.0
H422 H 0.97845 0.45279 0.87127 0.0
H423 H 0.98863 0.5527 0.88808 0.0
H424 H 0.0132 0.55332 0.88071 0.0
H425 H 0.99016 0.54646 0.86761 0.0
H426 H 0.8728 0.46783 0.80913 0.0
H427 H 0.89455 0.45025 0.79705 0.0
H428 H 0.91581 0.51438 0.77933 0.0
H429 H 0.93943 0.45747 0.81528 0.0
H430 H 0.92032 0.43763 0.80107 0.0
H431 H 0.94923 0.45502 0.79636 0.0
H432 H 0.95339 0.54243 0.77981 0.0
H433 H 0.97171 0.53945 0.79353 0.0
H434 H 0.97028 0.53114 0.77334 0.0
H435 H 0.09326 0.54496 0.7514 0.0
H436 H 0.12218 0.53425 0.75359 0.0
H437 H 0.098 0.51667 0.76476 0.0
H438 H 0.10255 0.50682 0.74628 0.0
H439 H 0.04013 0.4788 0.75649 0.0
H440 H 0.06099 0.54677 0.75021 0.0
H441 H 0.01239 0.47141 0.79109 0.0
H442 H 0.99075 0.46449 0.77667 0.0
H443 H 0.01125 0.45628 0.77346 0.0
H444 H 0.04289 0.56384 0.76232 0.0
H445 H 0.01551 0.54618 0.76993 0.0
H446 H 0.03948 0.55621 0.78269 0.0
H447 H 0.0343 0.52762 0.87463 0.0
H448 H 0.96274 0.50359 0.8505 0.0
H449 H 0.94842 0.49742 0.82399 0.0
H450 H 0.97833 0.49774 0.77308 0.0
H451 H 0.05076 0.52557 0.79726 0.0
H452 H 0.06559 0.53494 0.82355 0.0
H453 H 0.84555 0.48147 0.78801 0.0
H454 H 0.84121 0.47469 0.8086 0.0
H455 H 0.86633 0.49859 0.80263 0.0
C456 C 0.49664 0.91064 0.92088 0.0
C457 C 0.47762 0.89907 0.93245 0.0
C458 C 0.48983 0.92729 0.95282 0.0
C459 C 0.47336 0.93322 0.9529 0.0
C460 C 0.47843 0.95441 0.95783 0.0
C461 C 0.50053 0.97 0.9625 0.0
C462 C 0.51712 0.96389 0.96258 0.0
C463 C 0.51139 0.94238 0.95804 0.0
C464 C 0.46024 0.96021 0.95784 0.0
C465 C 0.54099 0.98016 0.96707 0.0
C466 C 0.52259 0.11069 0.9086 0.0
C467 C 0.52394 0.09359 0.898 0.0
C468 C 0.53034 0.07153 0.91753 0.0
C469 C 0.54681 0.06833 0.92443 0.0
C470 C 0.54222 0.05443 0.93722 0.0
C471 C 0.52046 0.04331 0.94317 0.0
C472 C 0.50353 0.0461 0.93608 0.0
C473 C 0.50864 0.06025 0.92334 0.0
C474 C 0.56066 0.05178 0.94448 0.0
C475 C 0.48013 0.03426 0.9421 0.0
C476 C 0.54593 0.12916 0.02874 0.0
C477 C 0.56215 0.125 0.02269 0.0
C478 C 0.55764 0.10332 0.02025 0.0
C479 C 0.53615 0.08555 0.02337 0.0
C480 C 0.51996 0.08983 0.02981 0.0
C481 C 0.52526 0.11165 0.03271 0.0
C482 C 0.57578 0.09949 0.01419 0.0
C483 C 0.4969 0.07143 0.03337 0.0
C484 C 0.51167 0.93423 0.06568 0.0
C485 C 0.50098 0.94569 0.07436 0.0
C486 C 0.51765 0.98328 0.0656 0.0
C487 C 0.53838 0.99796 0.05956 0.0
C488 C 0.54041 0.01286 0.04797 0.0
C489 C 0.52125 0.0133 0.04265 0.0
C490 C 0.50048 0.99948 0.04953 0.0
C491 C 0.49889 0.98454 0.06094 0.0
C492 C 0.56285 0.02757 0.04101 0.0
C493 C 0.47988 4e-05 0.04447 0.0
C494 C 0.50649 0.99298 0.96653 0.0
C495 C 0.50954 0.007 0.95412 0.0
C496 C 0.51563 0.02896 0.95691 0.0
C497 C 0.5185 0.03725 0.97251 0.0
C498 C 0.52397 0.05909 0.97572 0.0
C499 C 0.52731 0.06726 0.9911 0.0
C500 C 0.52594 0.0541 0.00385 0.0
C501 C 0.53032 0.06254 0.0195 0.0
C502 C 0.52878 0.04892 0.03186 0.0
C503 C 0.52262 0.02692 0.02906 0.0
C504 C 0.51801 0.01815 0.01353 0.0
C505 C 0.51153 0.99601 0.01033 0.0
C506 C 0.50727 0.98759 0.99499 0.0
C507 C 0.50982 0.0011 0.98222 0.0
C508 C 0.51598 0.02337 0.9852 0.0
C509 C 0.51995 0.03187 0.00087 0.0
C510 C 0.54256 0.17501 0.01761 0.0
C511 C 0.55859 0.16624 0.01989 0.0
O512 O 0.48533 0.90716 0.94757 0.0
O513 O 0.51617 0.968 0.07585 0.0
O514 O 0.54987 0.14994 0.03102 0.0
O515 O 0.53633 0.08569 0.90543 0.0
H516 H 0.464 0.9023 0.92904 0.0
H517 H 0.50294 0.92862 0.92121 0.0
H518 H 0.51056 0.90778 0.92402 0.0
H519 H 0.49078 0.9045 0.90866 0.0
H520 H 0.45655 0.92125 0.94916 0.0
H521 H 0.52392 0.93749 0.95797 0.0
H522 H 0.46319 0.97207 0.9484 0.0
H523 H 0.44351 0.94553 0.95585 0.0
H524 H 0.46046 0.96826 0.96921 0.0
H525 H 0.55227 0.97359 0.96463 0.0
H526 H 0.54681 0.99564 0.96056 0.0
H527 H 0.54225 0.98431 0.97981 0.0
H528 H 0.50691 0.07977 0.8952 0.0
H529 H 0.51278 0.11716 0.90263 0.0
H530 H 0.51427 0.1032 0.91974 0.0
H531 H 0.53951 0.1246 0.9115 0.0
H532 H 0.56346 0.07703 0.91984 0.0
H533 H 0.49562 0.0624 0.91808 0.0
H534 H 0.55604 0.03419 0.94397 0.0
H535 H 0.57669 0.06158 0.93845 0.0
H536 H 0.56304 0.05701 0.95707 0.0
H537 H 0.46871 0.03784 0.93514 0.0
H538 H 0.47361 0.01624 0.94172 0.0
H539 H 0.48019 0.03918 0.95456 0.0
H540 H 0.5598 0.15929 0.00832 0.0
H541 H 0.57837 0.13871 0.02005 0.0
H542 H 0.51301 0.11516 0.03759 0.0
H543 H 0.57275 0.09503 0.00149 0.0
H544 H 0.59246 0.11441 0.01565 0.0
H545 H 0.57585 0.0857 0.02039 0.0
H546 H 0.48552 0.07763 0.03654 0.0
H547 H 0.48968 0.05999 0.02307 0.0
H548 H 0.49787 0.06191 0.04336 0.0
H549 H 0.48614 0.94274 0.06725 0.0
H550 H 0.49978 0.91628 0.06451 0.0
H551 H 0.51632 0.94095 0.0537 0.0
H552 H 0.52692 0.93689 0.07205 0.0
H553 H 0.55281 0.99708 0.06349 0.0
H554 H 0.48301 0.97378 0.06616 0.0
H555 H 0.56215 0.02388 0.02822 0.0
H556 H 0.56723 0.04503 0.0424 0.0
H557 H 0.57619 0.02549 0.04662 0.0
H558 H 0.46553 0.9899 0.05204 0.0
H559 H 0.4832 0.01724 0.04479 0.0
H560 H 0.47529 0.99376 0.03216 0.0
H561 H 0.50754 0.00084 0.9421 0.0
H562 H 0.52567 0.07012 0.96638 0.0
H563 H 0.53128 0.08414 0.99283 0.0
H564 H 0.53228 0.05548 0.04382 0.0
H565 H 0.50968 0.98489 0.01964 0.0
H566 H 0.50224 0.97041 0.99326 0.0
H567 H 0.54114 0.18267 0.02872 0.0
H568 H 0.54834 0.1874 0.00821 0.0
H569 H 0.52582 0.16129 0.01408 0.0
C570 C 0.59936 0.49955 0.08773 0.0
C571 C 0.59436 0.4826 0.10054 0.0
C572 C 0.58061 0.49717 0.1206 0.0
C573 C 0.55823 0.481 0.1218 0.0
C574 C 0.54239 0.48662 0.12651 0.0
C575 C 0.54915 0.50895 0.1298 0.0
C576 C 0.5719 0.5252 0.12898 0.0
C577 C 0.58744 0.51898 0.12468 0.0
C578 C 0.51839 0.46879 0.12762 0.0
C579 C 0.57968 0.54921 0.13207 0.0
C580 C 0.4569 0.49372 0.04083 0.0
C581 C 0.46907 0.51603 0.04946 0.0
C582 C 0.46954 0.51737 0.07802 0.0
C583 C 0.49051 0.53578 0.08117 0.0
C584 C 0.50149 0.53828 0.09566 0.0
C585 C 0.49138 0.52179 0.10707 0.0
C586 C 0.46991 0.5035 0.10401 0.0
C587 C 0.45905 0.50183 0.08961 0.0
C588 C 0.5241 0.55825 0.09863 0.0
C589 C 0.45875 0.48528 0.11566 0.0
C590 C 0.43564 0.56105 0.18558 0.0
C591 C 0.45747 0.57705 0.182 0.0
C592 C 0.47447 0.57179 0.18167 0.0
C593 C 0.4694 0.54999 0.18469 0.0
C594 C 0.44763 0.53416 0.18906 0.0
C595 C 0.43109 0.54004 0.18966 0.0
C596 C 0.49771 0.58934 0.17765 0.0
C597 C 0.44165 0.51084 0.19254 0.0
C598 C 0.59353 0.52652 0.23651 0.0
C599 C 0.56975 0.51037 0.24138 0.0
C600 C 0.54646 0.52483 0.23286 0.0
C601 C 0.55315 0.5461 0.22795 0.0
C602 C 0.54206 0.54963 0.2154 0.0
C603 C 0.52354 0.53142 0.20797 0.0
C604 C 0.51589 0.50997 0.21364 0.0
C605 C 0.52763 0.5069 0.22595 0.0
C606 C 0.5506 0.57269 0.20971 0.0
C607 C 0.49571 0.49025 0.20641 0.0
C608 C 0.53221 0.51546 0.13276 0.0
C609 C 0.52031 0.5165 0.11978 0.0
C610 C 0.50411 0.52254 0.12144 0.0
C611 C 0.49984 0.52817 0.13649 0.0
C612 C 0.48409 0.53491 0.13856 0.0
C613 C 0.47959 0.53983 0.15348 0.0
C614 C 0.49088 0.53847 0.16691 0.0
C615 C 0.48634 0.54333 0.18215 0.0
C616 C 0.49745 0.54124 0.19526 0.0
C617 C 0.51316 0.5345 0.19358 0.0
C618 C 0.51831 0.53008 0.17841 0.0
C619 C 0.53437 0.52371 0.17628 0.0
C620 C 0.53893 0.51886 0.16136 0.0
C621 C 0.52776 0.5204 0.14797 0.0
C622 C 0.51159 0.5269 0.14983 0.0
C623 C 0.50699 0.53191 0.16506 0.0
C624 C 0.39269 0.56797 0.1681 0.0
C625 C 0.41653 0.57925 0.17469 0.0
O626 O 0.59584 0.49218 0.11519 0.0
O627 O 0.55857 0.52179 0.2441 0.0
O628 O 0.41857 0.56523 0.18503 0.0
O629 O 0.45914 0.51411 0.06384 0.0
H630 H 0.57727 0.46845 0.09843 0.0
H631 H 0.58713 0.50534 0.08807 0.0
H632 H 0.61633 0.51396 0.08956 0.0
H633 H 0.59815 0.49217 0.07588 0.0
H634 H 0.55315 0.46402 0.11902 0.0
H635 H 0.60486 0.53126 0.12378 0.0
H636 H 0.50864 0.47016 0.11771 0.0
H637 H 0.51641 0.45208 0.12712 0.0
H638 H 0.51126 0.47075 0.13873 0.0
H639 H 0.59766 0.55993 0.12976 0.0
H640 H 0.57003 0.55444 0.12456 0.0
H641 H 0.57673 0.55174 0.14451 0.0
H642 H 0.48674 0.52029 0.05114 0.0
H643 H 0.46483 0.49442 0.02943 0.0
H644 H 0.45762 0.48104 0.04808 0.0
H645 H 0.43917 0.48871 0.0386 0.0
H646 H 0.49828 0.54811 0.07227 0.0
H647 H 0.44273 0.48782 0.08704 0.0
H648 H 0.52516 0.56524 0.11061 0.0
H649 H 0.537 0.55336 0.09796 0.0
H650 H 0.52792 0.57121 0.08988 0.0
H651 H 0.44322 0.47111 0.11074 0.0
H652 H 0.4702 0.47937 0.11939 0.0
H653 H 0.45454 0.49162 0.1263 0.0
H654 H 0.42748 0.58235 0.16443 0.0
H655 H 0.46121 0.5936 0.1794 0.0
H656 H 0.41425 0.52795 0.19267 0.0
H657 H 0.50148 0.58615 0.16559 0.0
H658 H 0.49971 0.60605 0.17813 0.0
H659 H 0.51006 0.58892 0.18585 0.0
H660 H 0.42373 0.50026 0.19506 0.0
H661 H 0.44581 0.50356 0.18239 0.0
H662 H 0.45157 0.51082 0.20286 0.0
H663 H 0.56142 0.49806 0.2316 0.0
H664 H 0.60273 0.51767 0.23407 0.0
H665 H 0.5932 0.53496 0.22564 0.0
H666 H 0.60252 0.53913 0.24595 0.0
H667 H 0.56763 0.55982 0.23355 0.0
H668 H 0.5223 0.49052 0.23012 0.0
H669 H 0.55488 0.57355 0.19711 0.0
H670 H 0.53737 0.5771 0.21068 0.0
H671 H 0.56551 0.58502 0.21653 0.0
H672 H 0.48996 0.47539 0.21365 0.0
H673 H 0.48187 0.49372 0.2049 0.0
H674 H 0.49982 0.48662 0.19458 0.0
H675 H 0.52356 0.51229 0.10817 0.0
H676 H 0.47498 0.53634 0.12866 0.0
H677 H 0.46708 0.54465 0.15433 0.0
H678 H 0.49361 0.54463 0.20693 0.0
H679 H 0.54359 0.52232 0.18612 0.0
H680 H 0.55129 0.51384 0.16044 0.0
H681 H 0.38066 0.56396 0.17772 0.0
H682 H 0.39065 0.57879 0.15964 0.0
H683 H 0.38881 0.55245 0.16182 0.0
Mn684 Mn 0.61585 0.39838 0.40593 0.0
Mn685 Mn 0.64602 0.45323 0.41194 0.0
C686 C 0.60365 0.4153 0.42334 0.0
C687 C 0.60999 0.36375 0.41235 0.0
C688 C 0.61745 0.4315 0.38258 0.0
O689 O 0.64584 0.40676 0.39674 0.0
O690 O 0.66594 0.44248 0.40423 0.0
C691 C 0.67533 0.45559 0.43835 0.0
N692 N 0.65977 0.46009 0.4324 0.0
C693 C 0.65956 0.47815 0.45657 0.0
C694 C 0.67569 0.47385 0.46292 0.0
C695 C 0.68358 0.4625 0.45378 0.0
C696 C 0.65212 0.47107 0.44107 0.0
H697 H 0.68134 0.44676 0.43139 0.0
C698 C 0.66417 0.42491 0.39801 0.0
O699 O 0.60358 0.3671 0.39875 0.0
O700 O 0.61979 0.38044 0.42202 0.0
N701 N 0.62863 0.46547 0.4196 0.0
C702 C 0.61199 0.46696 0.41211 0.0
C703 C 0.60164 0.47708 0.41988 0.0
C704 C 0.60855 0.48563 0.43524 0.0
C705 C 0.6258 0.48403 0.44267 0.0
C706 C 0.63563 0.47393 0.43429 0.0
H707 H 0.60654 0.46033 0.40034 0.0
O708 O 0.58987 0.39591 0.4175 0.0
O709 O 0.62413 0.42393 0.41894 0.0
O710 O 0.60851 0.41163 0.38705 0.0
O711 O 0.63219 0.4479 0.39069 0.0
C712 C 0.6333 0.49163 0.45819 0.0
C713 C 0.65018 0.48871 0.46512 0.0
H714 H 0.68196 0.47898 0.47486 0.0
H715 H 0.69594 0.45901 0.45863 0.0
H716 H 0.58829 0.4782 0.41409 0.0
H717 H 0.60036 0.49321 0.44126 0.0
H718 H 0.62596 0.49944 0.46497 0.0
H719 H 0.65557 0.49433 0.47714 0.0
Mn720 Mn 0.23277 0.63001 0.57429 0.0
Mn721 Mn 0.20734 0.57577 0.5653 0.0
C722 C 0.2038 0.61503 0.55611 0.0
C723 C 0.26183 0.66554 0.57046 0.0
C724 C 0.19957 0.59433 0.59546 0.0
O725 O 0.25408 0.62072 0.58292 0.0
O726 O 0.23772 0.58554 0.57412 0.0
C727 C 0.23584 0.5767 0.53941 0.0
N728 N 0.21537 0.57124 0.54477 0.0
C729 C 0.19816 0.55526 0.51964 0.0
C730 C 0.21905 0.56053 0.51389 0.0
C731 C 0.23797 0.57135 0.52381 0.0
C732 C 0.19706 0.5609 0.53531 0.0
H733 H 0.25044 0.58511 0.54698 0.0
C734 C 0.25372 0.60251 0.58106 0.0
O735 O 0.25143 0.66004 0.58367 0.0
O736 O 0.25542 0.6504 0.55954 0.0
N737 N 0.178 0.56421 0.5565 0.0
C738 C 0.15933 0.56156 0.56355 0.0
C739 C 0.13907 0.5517 0.55503 0.0
C740 C 0.13816 0.54453 0.53942 0.0
C741 C 0.15754 0.54724 0.53246 0.0
C742 C 0.17724 0.55708 0.54155 0.0
H743 H 0.15991 0.56703 0.57555 0.0
O744 O 0.20952 0.63374 0.56306 0.0
O745 O 0.21551 0.60591 0.55981 0.0
O746 O 0.21168 0.61458 0.59223 0.0
O747 O 0.1975 0.57866 0.58647 0.0
C748 C 0.15817 0.54095 0.51677 0.0
C749 C 0.17848 0.54502 0.51035 0.0
H750 H 0.22077 0.55654 0.50184 0.0
H751 H 0.25416 0.5756 0.51944 0.0
H752 H 0.12419 0.54969 0.56048 0.0
H753 H 0.12254 0.53711 0.53284 0.0
H754 H 0.14319 0.53329 0.50947 0.0
H755 H 0.17881 0.54045 0.49819 0.0
Mn756 Mn 0.62952 0.24564 0.73531 0.0
Mn757 Mn 0.65682 0.21775 0.72966 0.0
C758 C 0.6166 0.2182 0.71633 0.0
C759 C 0.62582 0.27628 0.73117 0.0
C760 C 0.62657 0.21043 0.75711 0.0
O761 O 0.65918 0.26423 0.74672 0.0
O762 O 0.67793 0.24727 0.73911 0.0
C763 C 0.68807 0.24503 0.70523 0.0
N764 N 0.67168 0.22512 0.71004 0.0
C765 C 0.672 0.2077 0.68558 0.0
C766 C 0.68908 0.22798 0.68044 0.0
C767 C 0.69709 0.24673 0.69029 0.0
C768 C 0.66376 0.20699 0.70063 0.0
H769 H 0.69413 0.25951 0.71271 0.0
C770 C 0.67689 0.26307 0.746 0.0
O771 O 0.61852 0.26477 0.74376 0.0
O772 O 0.63547 0.27011 0.72096 0.0
N773 N 0.63849 0.18906 0.7204 0.0
C774 C 0.62094 0.1711 0.72668 0.0
C775 C 0.61039 0.15117 0.71803 0.0
C776 C 0.61806 0.14985 0.70309 0.0
C777 C 0.63629 0.16847 0.69695 0.0
C778 C 0.64625 0.18786 0.70615 0.0
H779 H 0.61494 0.17198 0.73814 0.0
O780 O 0.60363 0.22497 0.72178 0.0
O781 O 0.63697 0.22818 0.72184 0.0
O782 O 0.61948 0.22298 0.75245 0.0
O783 O 0.64162 0.20836 0.7501 0.0
C784 C 0.64464 0.1687 0.68191 0.0
C785 C 0.66246 0.1883 0.67622 0.0
H786 H 0.69597 0.22939 0.66888 0.0
H787 H 0.71014 0.26247 0.68635 0.0
H788 H 0.59631 0.13687 0.72285 0.0
H789 H 0.60972 0.13451 0.69639 0.0
H790 H 0.63721 0.15398 0.6745 0.0
H791 H 0.66848 0.18836 0.66453 0.0
Mn792 Mn 0.4131 0.63749 0.90553 0.0
Mn793 Mn 0.38616 0.58306 0.91241 0.0
C794 C 0.42685 0.62365 0.92434 0.0
C795 C 0.41795 0.67241 0.90977 0.0
C796 C 0.41438 0.6032 0.88381 0.0
O797 O 0.3824 0.62664 0.89568 0.0
O798 O 0.36512 0.59118 0.90276 0.0
C799 C 0.35527 0.58129 0.93677 0.0
N800 N 0.37168 0.57735 0.93215 0.0
C801 C 0.37075 0.56013 0.95661 0.0
C802 C 0.35377 0.56392 0.96162 0.0
C803 C 0.34609 0.57465 0.95168 0.0
C804 C 0.37939 0.5673 0.94169 0.0
H805 H 0.34922 0.5894 0.92911 0.0
C806 C 0.36509 0.60766 0.89648 0.0
O807 O 0.42395 0.66714 0.89681 0.0
O808 O 0.40901 0.65736 0.92029 0.0
N809 N 0.40447 0.573 0.92194 0.0
C810 C 0.42165 0.57155 0.91565 0.0
C811 C 0.43172 0.56186 0.92432 0.0
C812 C 0.42381 0.55346 0.93924 0.0
C813 C 0.40594 0.55491 0.94538 0.0
C814 C 0.39668 0.56489 0.93625 0.0
H815 H 0.42767 0.57778 0.90413 0.0
O816 O 0.43988 0.64254 0.91814 0.0
O817 O 0.40628 0.61358 0.9194 0.0
O818 O 0.42101 0.62316 0.88763 0.0
O819 O 0.40084 0.58701 0.89199 0.0
C820 C 0.39703 0.54694 0.96022 0.0
C821 C 0.37951 0.54964 0.96587 0.0
H822 H 0.34659 0.55876 0.97309 0.0
H823 H 0.33304 0.57769 0.95547 0.0
H824 H 0.4455 0.56079 0.91949 0.0
H825 H 0.43163 0.54601 0.9459 0.0
H826 H 0.40376 0.53902 0.9675 0.0
H827 H 0.37306 0.54378 0.97742 0.0
Mn828 Mn 0.78696 0.40983 0.07265 0.0
Mn829 Mn 0.81028 0.37908 0.08135 0.0
C830 C 0.81686 0.42349 0.09007 0.0
C831 C 0.75921 0.41843 0.07702 0.0
C832 C 0.81715 0.40305 0.05059 0.0
O833 O 0.76418 0.37915 0.06467 0.0
O834 O 0.7789 0.35927 0.07418 0.0
C835 C 0.78374 0.35603 0.10897 0.0
N836 N 0.80386 0.36915 0.10246 0.0
C837 C 0.82307 0.37188 0.12686 0.0
C838 C 0.80256 0.35823 0.13379 0.0
C839 C 0.78281 0.35035 0.12482 0.0
C840 C 0.82295 0.37701 0.11102 0.0
H841 H 0.76853 0.35003 0.10212 0.0
C842 C 0.76328 0.36087 0.06727 0.0
O843 O 0.76893 0.42197 0.06356 0.0
O844 O 0.76558 0.40987 0.0879 0.0
N845 N 0.84055 0.39605 0.08859 0.0
C846 C 0.85889 0.40977 0.08033 0.0
C847 C 0.88 0.41928 0.08766 0.0
C848 C 0.88207 0.41447 0.10335 0.0
C849 C 0.86298 0.40023 0.1116 0.0
C850 C 0.8424 0.39109 0.10364 0.0
H851 H 0.85745 0.4134 0.06822 0.0
O852 O 0.8116 0.43679 0.08329 0.0
O853 O 0.80415 0.40272 0.08668 0.0
O854 O 0.80683 0.41314 0.05429 0.0
O855 O 0.81838 0.38912 0.05948 0.0
C856 C 0.86355 0.39489 0.12745 0.0
C857 C 0.8436 0.38084 0.1351 0.0
H858 H 0.80178 0.35385 0.14603 0.0
H859 H 0.76691 0.33993 0.13011 0.0
H860 H 0.89465 0.43027 0.08122 0.0
H861 H 0.89838 0.42184 0.10895 0.0
H862 H 0.87922 0.40172 0.13392 0.0
H863 H 0.84423 0.37714 0.14736 0.0
Mn864 Mn 0.40052 0.79776 0.24137 0.0
Mn865 Mn 0.45521 0.82267 0.25089 0.0
C866 C 0.41525 0.82565 0.26008 0.0
C867 C 0.36439 0.76904 0.2445 0.0
C868 C 0.43715 0.83158 0.22092 0.0
O869 O 0.40998 0.77684 0.23266 0.0
O870 O 0.44566 0.79311 0.24121 0.0
C871 C 0.4539 0.7931 0.27586 0.0
N872 N 0.45927 0.8136 0.27116 0.0
C873 C 0.47415 0.8291 0.29686 0.0
C874 C 0.46891 0.80817 0.30195 0.0
C875 C 0.45871 0.79009 0.29141 0.0
C876 C 0.46912 0.83112 0.28119 0.0
H877 H 0.44596 0.77914 0.26782 0.0
C878 C 0.42847 0.77727 0.23429 0.0
O879 O 0.37044 0.77979 0.23149 0.0
O880 O 0.37933 0.7749 0.25565 0.0
N881 N 0.46648 0.85116 0.26054 0.0
C882 C 0.46922 0.86998 0.25404 0.0
C883 C 0.47851 0.88945 0.26321 0.0
C884 C 0.48499 0.88941 0.27891 0.0
C885 C 0.48221 0.8699 0.28529 0.0
C886 C 0.47302 0.85104 0.27555 0.0
H887 H 0.46418 0.8701 0.242 0.0
O888 O 0.39661 0.82045 0.25288 0.0
O889 O 0.42454 0.81418 0.2562 0.0
O890 O 0.41662 0.81917 0.2238 0.0
O891 O 0.45284 0.83358 0.23004 0.0
C892 C 0.48774 0.86833 0.30102 0.0
C893 C 0.48371 0.84794 0.30681 0.0
H894 H 0.47245 0.80576 0.31397 0.0
H895 H 0.45452 0.77387 0.29528 0.0
H896 H 0.48056 0.90443 0.25821 0.0
H897 H 0.49192 0.9044 0.28599 0.0
H898 H 0.49479 0.88262 0.30884 0.0
H899 H 0.48775 0.84688 0.31898 0.0
C900 C 0.17019 0.62 0.25005 0.0
C901 C 0.15912 0.62153 0.2633 0.0
C902 C 0.19279 0.63481 0.24815 0.0
C903 C 0.24481 0.67055 0.26839 0.0
H904 H 0.26079 0.70692 0.23155 0.0
C905 C 0.33293 0.74506 0.26175 0.0
C906 C 0.34141 0.75103 0.24661 0.0
C907 C 0.31093 0.72849 0.26378 0.0
C908 C 0.25682 0.69665 0.24174 0.0
H909 H 0.16333 0.63997 0.28504 0.0
H910 H 0.20307 0.66522 0.28196 0.0
H911 H 0.22222 0.67868 0.23515 0.0
H912 H 0.3339 0.74395 0.22172 0.0
H913 H 0.29594 0.71426 0.22519 0.0
H914 H 0.27934 0.68777 0.27481 0.0
C915 C 0.19406 0.65253 0.27305 0.0
C916 C 0.23465 0.68058 0.24383 0.0
C917 C 0.17133 0.63803 0.27479 0.0
C918 C 0.32768 0.73982 0.23353 0.0
C919 C 0.30584 0.72289 0.23555 0.0
C920 C 0.26709 0.68629 0.26615 0.0
C921 C 0.20487 0.65121 0.25961 0.0
C922 C 0.22847 0.66756 0.25722 0.0
C923 C 0.29704 0.71714 0.25071 0.0
C924 C 0.2734 0.69974 0.25286 0.0
H925 H 0.16118 0.60758 0.24097 0.0
H926 H 0.20085 0.63353 0.23769 0.0
H927 H 0.24037 0.66054 0.27876 0.0
H928 H 0.34313 0.75358 0.27204 0.0
H929 H 0.30477 0.72495 0.27562 0.0
C930 C 0.5929 0.19774 0.46976 0.0
C931 C 0.59575 0.1833 0.45976 0.0
C932 C 0.59323 0.21634 0.46382 0.0
C933 C 0.58538 0.24106 0.42867 0.0
H934 H 0.62622 0.29631 0.44981 0.0
C935 C 0.60248 0.32566 0.40556 0.0
C936 C 0.60655 0.34204 0.41688 0.0
C937 C 0.60056 0.30567 0.41011 0.0
C938 C 0.61443 0.28104 0.4439 0.0
H939 H 0.60135 0.17722 0.43562 0.0
H940 H 0.60122 0.20947 0.42518 0.0
H941 H 0.62308 0.26232 0.45912 0.0
H942 H 0.61082 0.35006 0.44183 0.0
H943 H 0.60659 0.31518 0.44979 0.0
H944 H 0.57621 0.25966 0.4137 0.0
C945 C 0.59861 0.2062 0.43761 0.0
C946 C 0.61275 0.26157 0.44921 0.0
C947 C 0.59864 0.18775 0.4436 0.0
C948 C 0.60798 0.33786 0.43281 0.0
C949 C 0.60573 0.31786 0.43736 0.0
C950 C 0.58679 0.26056 0.42347 0.0
C951 C 0.59628 0.22084 0.44772 0.0
C952 C 0.59813 0.24139 0.44173 0.0
C953 C 0.60239 0.30161 0.42608 0.0
C954 C 0.60122 0.2808 0.43112 0.0
H955 H 0.59095 0.19488 0.48227 0.0
H956 H 0.59132 0.22735 0.47185 0.0
H957 H 0.57394 0.22565 0.42273 0.0
H958 H 0.60137 0.3285 0.39318 0.0
H959 H 0.59818 0.29365 0.40107 0.0
C960 C 0.43004 0.6171 0.62536 0.0
C961 C 0.43772 0.60773 0.61415 0.0
C962 C 0.40916 0.61529 0.62347 0.0
C963 C 0.35453 0.58256 0.60436 0.0
H964 H 0.35223 0.63658 0.60477 0.0
C965 C 0.27829 0.58588 0.58023 0.0
C966 C 0.2732 0.60121 0.58684 0.0
C967 C 0.29751 0.58566 0.58499 0.0
C968 C 0.35237 0.62124 0.60494 0.0
H969 H 0.42948 0.58934 0.59197 0.0
H970 H 0.39281 0.58562 0.589 0.0
H971 H 0.38714 0.63778 0.61095 0.0
H972 H 0.2837 0.62764 0.60417 0.0
H973 H 0.31665 0.62667 0.61295 0.0
H974 H 0.31977 0.56587 0.59862 0.0
C975 C 0.40295 0.59425 0.59929 0.0
C976 C 0.37245 0.62199 0.60841 0.0
C977 C 0.42397 0.5964 0.60102 0.0
C978 C 0.28732 0.61581 0.5987 0.0
C979 C 0.30632 0.61534 0.60366 0.0
C980 C 0.33433 0.58173 0.60114 0.0
C981 C 0.39545 0.60384 0.61041 0.0
C982 C 0.37378 0.60272 0.60793 0.0
C983 C 0.31191 0.60051 0.59669 0.0
C984 C 0.33304 0.60111 0.60115 0.0
H985 H 0.44038 0.62612 0.63548 0.0
H986 H 0.40371 0.62284 0.63219 0.0
H987 H 0.35512 0.56744 0.60406 0.0
H988 H 0.2678 0.57448 0.571 0.0
H989 H 0.30137 0.57423 0.57913 0.0
C990 C 0.84578 0.43619 0.77719 0.0
C991 C 0.84829 0.44416 0.7928 0.0
C992 C 0.82869 0.41501 0.77305 0.0
C993 C 0.77262 0.3774 0.78118 0.0
H994 H 0.78042 0.33019 0.76438 0.0
C995 C 0.6965 0.29327 0.76606 0.0
C996 C 0.69748 0.28151 0.75295 0.0
C997 C 0.71569 0.31172 0.772 0.0
C998 C 0.77788 0.34326 0.76882 0.0
H999 H 0.83497 0.43615 0.8162 0.0
H1000 H 0.80455 0.39939 0.80876 0.0
H1001 H 0.81299 0.36532 0.77213 0.0
H1002 H 0.71934 0.27955 0.73588 0.0
H1003 H 0.75259 0.31243 0.74559 0.0
H1004 H 0.73784 0.35633 0.77715 0.0
C1005 C 0.81614 0.40944 0.79991 0.0
C1006 C 0.79656 0.36328 0.77335 0.0
C1007 C 0.83349 0.43039 0.80413 0.0
C1008 C 0.71811 0.28827 0.74606 0.0
C1009 C 0.73724 0.30709 0.75173 0.0
C1010 C 0.754 0.35765 0.77632 0.0
C1011 C 0.81352 0.40169 0.78432 0.0
C1012 C 0.79401 0.38042 0.77962 0.0
C1013 C 0.73626 0.31927 0.76468 0.0
C1014 C 0.75629 0.3402 0.77012 0.0
H1015 H 0.85669 0.44641 0.76811 0.0
H1016 H 0.82677 0.40934 0.76092 0.0
H1017 H 0.77035 0.39056 0.78584 0.0
H1018 H 0.68084 0.28823 0.77174 0.0
H1019 H 0.71426 0.32012 0.78228 0.0
C1020 C 0.45518 0.86243 0.91832 0.0
C1021 C 0.46845 0.87443 0.93144 0.0
C1022 C 0.4481 0.8401 0.91633 0.0
C1023 C 0.43466 0.79007 0.93601 0.0
H1024 H 0.45527 0.7737 0.89887 0.0
C1025 C 0.42375 0.70331 0.9278 0.0
C1026 C 0.42149 0.69473 0.91247 0.0
C1027 C 0.42834 0.72492 0.93028 0.0
C1028 C 0.4489 0.77776 0.90914 0.0
H1029 H 0.48456 0.87214 0.95285 0.0
H1030 H 0.47129 0.83284 0.94962 0.0
H1031 H 0.46438 0.81168 0.90294 0.0
H1032 H 0.42127 0.70153 0.88774 0.0
H1033 H 0.42798 0.73868 0.89199 0.0
H1034 H 0.41844 0.75616 0.94203 0.0
C1035 C 0.46655 0.84093 0.9409 0.0
C1036 C 0.45432 0.7996 0.9115 0.0
C1037 C 0.47409 0.86341 0.94272 0.0
C1038 C 0.42321 0.70786 0.89969 0.0
C1039 C 0.42726 0.72926 0.90216 0.0
C1040 C 0.42877 0.76807 0.93349 0.0
C1041 C 0.45379 0.82922 0.92757 0.0
C1042 C 0.44738 0.80594 0.92499 0.0
C1043 C 0.43027 0.73827 0.91749 0.0
C1044 C 0.43594 0.7616 0.92005 0.0
H1045 H 0.45075 0.87053 0.90941 0.0
H1046 H 0.43828 0.83133 0.90596 0.0
H1047 H 0.42905 0.79465 0.94646 0.0
H1048 H 0.42263 0.69354 0.93787 0.0
H1049 H 0.43091 0.73125 0.94225 0.0
C1050 C 0.60807 0.45946 0.08727 0.0
C1051 C 0.6105 0.47406 0.09958 0.0
C1052 C 0.62362 0.45259 0.08536 0.0
C1053 C 0.68141 0.46766 0.09753 0.0
H1054 H 0.66405 0.41032 0.07919 0.0
C1055 C 0.73725 0.42781 0.09531 0.0
C1056 C 0.74169 0.42395 0.07989 0.0
C1057 C 0.72092 0.43345 0.09806 0.0
C1058 C 0.66904 0.42637 0.0843 0.0
H1059 H 0.63128 0.49278 0.11969 0.0
H1060 H 0.65749 0.47974 0.117 0.0
H1061 H 0.63573 0.42043 0.08411 0.0
H1062 H 0.73232 0.42245 0.05531 0.0
H1063 H 0.70313 0.4316 0.06023 0.0
H1064 H 0.71465 0.47303 0.09823 0.0
C1065 C 0.64398 0.4741 0.10844 0.0
C1066 C 0.6529 0.43229 0.08703 0.0
C1067 C 0.6287 0.48137 0.11013 0.0
C1068 C 0.72928 0.42545 0.06729 0.0
C1069 C 0.71257 0.43057 0.07009 0.0
C1070 C 0.69743 0.46151 0.09513 0.0
C1071 C 0.64186 0.45986 0.0959 0.0
C1072 C 0.65888 0.45312 0.09355 0.0
C1073 C 0.70844 0.43477 0.08547 0.0
C1074 C 0.69137 0.44093 0.08838 0.0
H1075 H 0.59434 0.45377 0.07887 0.0
H1076 H 0.62156 0.44201 0.07536 0.0
H1077 H 0.68686 0.48401 0.10223 0.0
H1078 H 0.74663 0.42682 0.10522 0.0
H1079 H 0.71792 0.43663 0.11001 0.0
C1080 C 0.4159 0.8554 0.55996 0.0
C1081 C 0.41462 0.86576 0.54627 0.0
C1082 C 0.40034 0.83338 0.56254 0.0
C1083 C 0.36254 0.78127 0.5437 0.0
H1084 H 0.32677 0.76854 0.58088 0.0
C1085 C 0.28584 0.69577 0.55251 0.0
C1086 C 0.2801 0.68811 0.56785 0.0
C1087 C 0.30284 0.71725 0.54996 0.0
C1088 C 0.33685 0.77162 0.5706 0.0
H1089 H 0.39579 0.86094 0.52452 0.0
H1090 H 0.36923 0.82216 0.52879 0.0
H1091 H 0.3561 0.80609 0.57626 0.0
H1092 H 0.28793 0.69661 0.59257 0.0
H1093 H 0.31834 0.73372 0.58819 0.0
H1094 H 0.34406 0.74686 0.53821 0.0
C1095 C 0.38232 0.83127 0.5375 0.0
C1096 C 0.35355 0.7932 0.56793 0.0
C1097 C 0.39758 0.85344 0.53507 0.0
C1098 C 0.29189 0.70219 0.58061 0.0
C1099 C 0.30924 0.72354 0.57807 0.0
C1100 C 0.34617 0.75959 0.54653 0.0
C1101 C 0.38341 0.82118 0.55135 0.0
C1102 C 0.36637 0.7982 0.5544 0.0
C1103 C 0.31486 0.73146 0.56269 0.0
C1104 C 0.33291 0.75446 0.55995 0.0
H1105 H 0.42869 0.86456 0.56885 0.0
H1106 H 0.40145 0.82589 0.57332 0.0
H1107 H 0.37239 0.78479 0.53323 0.0
H1108 H 0.27688 0.68529 0.54245 0.0
H1109 H 0.30623 0.72277 0.53796 0.0
C1110 C 0.56306 0.40527 0.69855 0.0
C1111 C 0.5669 0.42131 0.71019 0.0
C1112 C 0.57215 0.39157 0.70025 0.0
C1113 C 0.58568 0.36415 0.72959 0.0
H1114 H 0.62414 0.3587 0.69946 0.0
C1115 C 0.62026 0.30656 0.74133 0.0
C1116 C 0.62259 0.29519 0.7285 0.0
C1117 C 0.61579 0.32359 0.73892 0.0
C1118 C 0.61314 0.35973 0.70789 0.0
H1119 H 0.58303 0.4353 0.73272 0.0
H1120 H 0.59826 0.41074 0.73591 0.0
H1121 H 0.61158 0.38514 0.69513 0.0
H1122 H 0.62236 0.29278 0.7031 0.0
H1123 H 0.61335 0.32171 0.69879 0.0
H1124 H 0.58597 0.33812 0.74198 0.0
C1125 C 0.58865 0.40924 0.72536 0.0
C1126 C 0.60612 0.375 0.70543 0.0
C1127 C 0.58 0.42326 0.72352 0.0
C1128 C 0.62076 0.3014 0.71319 0.0
C1129 C 0.61572 0.31811 0.71075 0.0
C1130 C 0.59225 0.34857 0.73189 0.0
C1131 C 0.58469 0.39322 0.71378 0.0
C1132 C 0.59243 0.37736 0.71631 0.0
C1133 C 0.61291 0.32929 0.7236 0.0
C1134 C 0.60618 0.34618 0.72112 0.0
H1135 H 0.55274 0.40302 0.68826 0.0
H1136 H 0.56871 0.37913 0.69127 0.0
H1137 H 0.57485 0.36552 0.73803 0.0
H1138 H 0.62189 0.30226 0.75326 0.0
H1139 H 0.61446 0.33218 0.74912 0.0
C1140 C 0.1913 0.6064 0.86603 0.0
C1141 C 0.17217 0.58715 0.87059 0.0
C1142 C 0.21228 0.60831 0.86749 0.0
C1143 C 0.24178 0.58508 0.88944 0.0
H1144 H 0.28708 0.61418 0.85824 0.0
C1145 C 0.32383 0.58436 0.89257 0.0
C1146 C 0.34343 0.60469 0.89085 0.0
C1147 C 0.30313 0.58197 0.8888 0.0
C1148 C 0.27461 0.60614 0.86708 0.0
H1149 H 0.16009 0.555 0.88063 0.0
H1150 H 0.19649 0.558 0.88271 0.0
H1151 H 0.25036 0.61032 0.85415 0.0
H1152 H 0.35655 0.63823 0.88315 0.0
H1153 H 0.32025 0.63397 0.87655 0.0
H1154 H 0.26591 0.58081 0.90234 0.0
C1155 C 0.19538 0.57173 0.8781 0.0
C1156 C 0.25361 0.60396 0.86477 0.0
C1157 C 0.17447 0.56989 0.87674 0.0
C1158 C 0.34182 0.62234 0.88465 0.0
C1159 C 0.32104 0.6199 0.88081 0.0
C1160 C 0.26266 0.58714 0.89169 0.0
C1161 C 0.21458 0.59104 0.87364 0.0
C1162 C 0.23693 0.59336 0.87592 0.0
C1163 C 0.30147 0.59981 0.88317 0.0
C1164 C 0.2793 0.59764 0.88054 0.0
H1165 H 0.19004 0.62012 0.86157 0.0
H1166 H 0.22673 0.62356 0.86421 0.0
H1167 H 0.22954 0.57728 0.89845 0.0
H1168 H 0.32436 0.57034 0.89722 0.0
H1169 H 0.28835 0.56618 0.89049 0.0
C1170 C 0.59445 0.20053 0.0137 0.0
C1171 C 0.5815 0.18481 0.02482 0.0
C1172 C 0.61469 0.21896 0.01814 0.0
C1173 C 0.66126 0.24068 0.04524 0.0
H1174 H 0.66544 0.29735 0.03988 0.0
C1175 C 0.73628 0.32074 0.07018 0.0
C1176 C 0.743 0.34038 0.06217 0.0
C1177 C 0.71684 0.30148 0.06558 0.0
C1178 C 0.66485 0.28177 0.04119 0.0
H1179 H 0.58003 0.17602 0.04936 0.0
H1180 H 0.61596 0.20787 0.0569 0.0
H1181 H 0.63168 0.26394 0.0315 0.0
H1182 H 0.73506 0.35512 0.04276 0.0
H1183 H 0.70188 0.32139 0.03418 0.0
H1184 H 0.69464 0.25826 0.0543 0.0
C1185 C 0.61015 0.20586 0.04478 0.0
C1186 C 0.64538 0.26262 0.0365 0.0
C1187 C 0.58961 0.18764 0.04044 0.0
C1188 C 0.73013 0.34028 0.04928 0.0
C1189 C 0.71098 0.3209 0.04444 0.0
C1190 C 0.68097 0.25985 0.04962 0.0
C1191 C 0.62262 0.22182 0.03373 0.0
C1192 C 0.64341 0.24195 0.03855 0.0
C1193 C 0.70389 0.30124 0.05261 0.0
C1194 C 0.68302 0.28071 0.04773 0.0
H1195 H 0.58858 0.1988 0.00162 0.0
H1196 H 0.62411 0.23107 0.00942 0.0
H1197 H 0.66009 0.22485 0.04682 0.0
H1198 H 0.74579 0.32036 0.08024 0.0
H1199 H 0.71181 0.28689 0.0724 0.0
C1200 C 0.43369 0.62056 0.17482 0.0
C1201 C 0.42219 0.60073 0.18286 0.0
C1202 C 0.43684 0.64018 0.18157 0.0
C1203 C 0.44901 0.68135 0.2013 0.0
H1204 H 0.39709 0.67768 0.22071 0.0
C1205 C 0.44872 0.75614 0.23118 0.0
C1206 C 0.42973 0.758 0.2283 0.0
C1207 C 0.44925 0.73735 0.22617 0.0
C1208 C 0.41172 0.679 0.21527 0.0
H1209 H 0.40511 0.58585 0.20431 0.0
H1210 H 0.41089 0.62019 0.21625 0.0
H1211 H 0.39594 0.64426 0.21134 0.0
H1212 H 0.39666 0.74171 0.2175 0.0
H1213 H 0.39775 0.70926 0.2087 0.0
H1214 H 0.46451 0.71626 0.20484 0.0
C1215 C 0.41739 0.62057 0.20468 0.0
C1216 C 0.41116 0.65981 0.21009 0.0
C1217 C 0.41424 0.60095 0.19793 0.0
C1218 C 0.41151 0.74083 0.22005 0.0
C1219 C 0.41206 0.72212 0.21507 0.0
C1220 C 0.44958 0.7006 0.20652 0.0
C1221 C 0.42839 0.64035 0.19646 0.0
C1222 C 0.42971 0.66075 0.2029 0.0
C1223 C 0.43081 0.72003 0.21822 0.0
C1224 C 0.43082 0.69964 0.21338 0.0
H1225 H 0.43971 0.62077 0.1631 0.0
H1226 H 0.4451 0.65505 0.17483 0.0
H1227 H 0.46364 0.6826 0.19593 0.0
H1228 H 0.46304 0.76901 0.23753 0.0
H1229 H 0.4639 0.73616 0.22885 0.0
C1230 C 0.8446 0.44337 0.38186 0.0
C1231 C 0.84803 0.4295 0.37163 0.0
C1232 C 0.82409 0.44238 0.3822 0.0
C1233 C 0.76494 0.40645 0.37554 0.0
H1234 H 0.76385 0.46111 0.37494 0.0
C1235 C 0.68328 0.40851 0.38276 0.0
C1236 C 0.6846 0.42555 0.39241 0.0
C1237 C 0.70259 0.4088 0.37793 0.0
C1238 C 0.76385 0.44571 0.37526 0.0
H1239 H 0.83223 0.40287 0.35438 0.0
H1240 H 0.79587 0.40086 0.3552 0.0
H1241 H 0.7987 0.46153 0.37083 0.0
H1242 H 0.70732 0.45631 0.40451 0.0
H1243 H 0.74084 0.45652 0.3965 0.0
H1244 H 0.73032 0.39068 0.38066 0.0
C1245 C 0.80939 0.41279 0.36268 0.0
C1246 C 0.78379 0.44595 0.37282 0.0
C1247 C 0.83013 0.41397 0.36218 0.0
C1248 C 0.70567 0.44299 0.39699 0.0
C1249 C 0.72494 0.44318 0.39229 0.0
C1250 C 0.74498 0.40621 0.37816 0.0
C1251 C 0.80632 0.4272 0.37257 0.0
C1252 C 0.78463 0.4264 0.37326 0.0
C1253 C 0.72367 0.42605 0.38275 0.0
C1254 C 0.7443 0.42592 0.37839 0.0
H1255 H 0.85791 0.45513 0.38957 0.0
H1256 H 0.82203 0.45333 0.39019 0.0
H1257 H 0.76518 0.39116 0.37602 0.0
H1258 H 0.66731 0.3949 0.37891 0.0
H1259 H 0.70098 0.39551 0.37041 0.0
C1260 C 0.09068 0.59376 0.43875 0.0
C1261 C 0.10082 0.59113 0.42534 0.0
C1262 C 0.09806 0.59225 0.45379 0.0
C1263 C 0.1341 0.57534 0.47529 0.0
H1264 H 0.14004 0.61956 0.5058 0.0
C1265 C 0.1958 0.6045 0.52786 0.0
C1266 C 0.18862 0.60791 0.54239 0.0
C1267 C 0.18215 0.59923 0.51446 0.0
C1268 C 0.13816 0.60687 0.49751 0.0
H1269 H 0.12675 0.58518 0.41717 0.0
H1270 H 0.14004 0.58306 0.44336 0.0
H1271 H 0.12121 0.61588 0.48068 0.0
H1272 H 0.16233 0.60979 0.55437 0.0
H1273 H 0.13824 0.60053 0.53083 0.0
H1274 H 0.15206 0.56715 0.49192 0.0
C1275 C 0.12589 0.58552 0.44232 0.0
C1276 C 0.12731 0.6047 0.48311 0.0
C1277 C 0.11838 0.58684 0.4273 0.0
C1278 C 0.16791 0.60672 0.54329 0.0
C1279 C 0.15424 0.60152 0.52986 0.0
C1280 C 0.14514 0.57767 0.48964 0.0
C1281 C 0.11602 0.5885 0.45577 0.0
C1282 C 0.12548 0.58917 0.4717 0.0
C1283 C 0.16126 0.59776 0.5153 0.0
C1284 C 0.14759 0.5937 0.50079 0.0
H1285 H 0.07734 0.59744 0.43761 0.0
H1286 H 0.08991 0.59439 0.46387 0.0
H1287 H 0.13262 0.56292 0.46692 0.0
H1288 H 0.21213 0.60625 0.52682 0.0
H1289 H 0.18823 0.59692 0.50334 0.0
C1290 C 0.54986 0.10736 0.58583 0.0
C1291 C 0.524 0.08129 0.59027 0.0
C1292 C 0.56488 0.12374 0.60289 0.0
C1293 C 0.56263 0.12254 0.6507 0.0
H1294 H 0.59601 0.18564 0.64535 0.0
C1295 C 0.58874 0.18306 0.70333 0.0
C1296 C 0.60907 0.20276 0.70287 0.0
C1297 C 0.58093 0.16886 0.69022 0.0
C1298 C 0.58721 0.16806 0.64706 0.0
H1299 H 0.49236 0.06286 0.61042 0.0
H1300 H 0.51763 0.09181 0.63647 0.0
H1301 H 0.57935 0.16137 0.62249 0.0
H1302 H 0.63642 0.22415 0.68821 0.0
H1303 H 0.62334 0.19906 0.6654 0.0
H1304 H 0.57055 0.12911 0.67526 0.0
C1305 C 0.52477 0.09466 0.62493 0.0
C1306 C 0.57763 0.15414 0.63392 0.0
C1307 C 0.50837 0.07733 0.60865 0.0
C1308 C 0.62107 0.20858 0.68895 0.0
C1309 C 0.61337 0.19435 0.67584 0.0
C1310 C 0.57251 0.13641 0.66383 0.0
C1311 C 0.55275 0.11694 0.62211 0.0
C1312 C 0.5649 0.13134 0.63569 0.0
C1313 C 0.5932 0.17426 0.67631 0.0
C1314 C 0.58449 0.15939 0.66222 0.0
H1315 H 0.55757 0.11019 0.57448 0.0
H1316 H 0.58132 0.13778 0.60154 0.0
H1317 H 0.55313 0.10494 0.65232 0.0
H1318 H 0.57893 0.17863 0.71386 0.0
H1319 H 0.56503 0.15387 0.6909 0.0
C1320 C 0.51494 0.58927 0.77115 0.0
C1321 C 0.51277 0.56848 0.76856 0.0
C1322 C 0.5023 0.59227 0.78253 0.0
C1323 C 0.4724 0.56749 0.81892 0.0
H1324 H 0.44898 0.60687 0.81338 0.0
C1325 C 0.41827 0.57696 0.86561 0.0
C1326 C 0.42338 0.59855 0.86945 0.0
C1327 C 0.42761 0.5727 0.85254 0.0
C1328 C 0.45555 0.59594 0.81513 0.0
H1329 H 0.4954 0.53448 0.77561 0.0
H1330 H 0.47298 0.53955 0.79522 0.0
H1331 H 0.46784 0.60035 0.79171 0.0
H1332 H 0.44202 0.63254 0.86225 0.0
H1333 H 0.45837 0.62507 0.83952 0.0
H1334 H 0.46028 0.56318 0.84234 0.0
C1335 C 0.48467 0.55363 0.78865 0.0
C1336 C 0.46637 0.59221 0.80272 0.0
C1337 C 0.49736 0.55067 0.77732 0.0
C1338 C 0.43771 0.61571 0.85968 0.0
C1339 C 0.44699 0.61142 0.84658 0.0
C1340 C 0.46155 0.57117 0.83128 0.0
C1341 C 0.48724 0.57454 0.79158 0.0
C1342 C 0.47501 0.578 0.8045 0.0
C1343 C 0.44224 0.5899 0.84296 0.0
C1344 C 0.45309 0.58551 0.82956 0.0
H1345 H 0.52685 0.60331 0.76464 0.0
H1346 H 0.50489 0.60864 0.7846 0.0
H1347 H 0.47922 0.55679 0.82082 0.0
H1348 H 0.40728 0.56331 0.87283 0.0
H1349 H 0.42339 0.55589 0.84995 0.0
C1350 C 0.92054 0.42114 0.9233 0.0
C1351 C 0.92373 0.44459 0.91152 0.0
C1352 C 0.90726 0.41817 0.94181 0.0
C1353 C 0.8643 0.43247 0.96351 0.0
H1354 H 0.88949 0.41853 0.99949 0.0
C1355 C 0.82983 0.42498 0.02599 0.0
C1356 C 0.82857 0.40801 0.03533 0.0
C1357 C 0.84082 0.42986 0.0117 0.0
C1358 C 0.88207 0.42214 0.98953 0.0
H1359 H 0.90603 0.46894 0.90575 0.0
H1360 H 0.884 0.46143 0.93556 0.0
H1361 H 0.90776 0.42547 0.97428 0.0
H1362 H 0.83786 0.38281 0.03684 0.0
H1363 H 0.85659 0.39102 0.01179 0.0
H1364 H 0.83839 0.4288 0.97868 0.0
C1365 C 0.89254 0.45261 0.93257 0.0
C1366 C 0.89256 0.42614 0.97508 0.0
C1367 C 0.90538 0.45673 0.9137 0.0
C1368 C 0.83854 0.39602 0.02999 0.0
C1369 C 0.84943 0.40084 0.01566 0.0
C1370 C 0.85369 0.42833 0.97795 0.0
C1371 C 0.89423 0.43423 0.94654 0.0
C1372 C 0.88367 0.43115 0.96192 0.0
C1373 C 0.85075 0.41785 0.00636 0.0
C1374 C 0.86236 0.42293 0.99111 0.0
H1375 H 0.92999 0.41302 0.92093 0.0
H1376 H 0.90706 0.40656 0.95012 0.0
H1377 H 0.85688 0.43599 0.95351 0.0
H1378 H 0.82248 0.43467 0.02975 0.0
H1379 H 0.84179 0.44326 0.00494 0.0
C1380 C 0.5093 0.94071 0.10264 0.0
C1381 C 0.49364 0.93599 0.09042 0.0
C1382 C 0.50258 0.93051 0.11713 0.0
C1383 C 0.45723 0.88101 0.13488 0.0
H1384 H 0.48374 0.91237 0.17421 0.0
C1385 C 0.42663 0.84106 0.19505 0.0
C1386 C 0.44311 0.84443 0.2063 0.0
C1387 C 0.43229 0.85297 0.18119 0.0
C1388 C 0.47632 0.90337 0.1633 0.0
H1389 H 0.45873 0.91692 0.08376 0.0
H1390 H 0.44689 0.89938 0.10914 0.0
H1391 H 0.49444 0.93208 0.14953 0.0
H1392 H 0.47849 0.86331 0.21185 0.0
H1393 H 0.48831 0.88394 0.18764 0.0
H1394 H 0.43919 0.85229 0.14862 0.0
C1395 C 0.46439 0.91081 0.1075 0.0
C1396 C 0.48244 0.91465 0.14917 0.0
C1397 C 0.47112 0.92098 0.09302 0.0
C1398 C 0.46536 0.8602 0.20344 0.0
C1399 C 0.47099 0.87217 0.1896 0.0
C1400 C 0.45107 0.86976 0.149 0.0
C1401 C 0.48006 0.91529 0.11968 0.0
C1402 C 0.47306 0.90357 0.13478 0.0
C1403 C 0.45453 0.8686 0.17829 0.0
C1404 C 0.46063 0.88078 0.16336 0.0
H1405 H 0.5268 0.95199 0.10086 0.0
H1406 H 0.51512 0.93409 0.12617 0.0
H1407 H 0.44996 0.87188 0.12399 0.0
H1408 H 0.40931 0.82911 0.19686 0.0
H1409 H 0.4192 0.85003 0.17278 0.0
C1410 C 0.57264 0.47974 0.25428 0.0
C1411 C 0.57014 0.49832 0.25591 0.0
C1412 C 0.57524 0.46959 0.26751 0.0
C1413 C 0.5664 0.46295 0.30994 0.0
H1414 H 0.61811 0.4555 0.31063 0.0
C1415 C 0.58897 0.42244 0.36099 0.0
C1416 C 0.61052 0.43611 0.36727 0.0
C1417 C 0.58232 0.42773 0.34687 0.0
C1418 C 0.60353 0.45734 0.31053 0.0
H1419 H 0.56872 0.52102 0.27277 0.0
H1420 H 0.57268 0.50288 0.29592 0.0
H1421 H 0.60881 0.46883 0.28691 0.0
H1422 H 0.64214 0.46564 0.36353 0.0
H1423 H 0.6307 0.47446 0.33873 0.0
H1424 H 0.56131 0.45163 0.33366 0.0
C1425 C 0.57236 0.49607 0.28436 0.0
C1426 C 0.59815 0.46485 0.29697 0.0
C1427 C 0.57009 0.50643 0.27111 0.0
C1428 C 0.6254 0.45484 0.35901 0.0
C1429 C 0.61892 0.45984 0.34479 0.0
C1430 C 0.57157 0.45506 0.32343 0.0
C1431 C 0.57527 0.47775 0.28267 0.0
C1432 C 0.57976 0.46808 0.29663 0.0
C1433 C 0.59728 0.44647 0.33866 0.0
C1434 C 0.59042 0.45258 0.32392 0.0
H1435 H 0.5731 0.47338 0.24271 0.0
H1436 H 0.57745 0.45549 0.2659 0.0
H1437 H 0.55208 0.46522 0.30993 0.0
H1438 H 0.57713 0.40798 0.36716 0.0
H1439 H 0.56555 0.41717 0.34234 0.0
C1440 C 0.44717 0.91623 0.38921 0.0
C1441 C 0.44394 0.93443 0.38924 0.0
C1442 C 0.4469 0.90575 0.3751 0.0
C1443 C 0.45142 0.91189 0.33214 0.0
H1444 H 0.41371 0.84845 0.33124 0.0
C1445 C 0.42302 0.86007 0.27431 0.0
C1446 C 0.42173 0.83952 0.27438 0.0
C1447 C 0.4278 0.87253 0.28825 0.0
C1448 C 0.42463 0.86611 0.33132 0.0
H1449 H 0.43771 0.95585 0.37453 0.0
H1450 H 0.43746 0.93763 0.34978 0.0
H1451 H 0.4192 0.86897 0.35569 0.0
H1452 H 0.4228 0.81504 0.28895 0.0
H1453 H 0.43184 0.83694 0.31322 0.0
H1454 H 0.45688 0.90898 0.30772 0.0
C1455 C 0.44057 0.93172 0.36068 0.0
C1456 C 0.42773 0.87786 0.34535 0.0
C1457 C 0.44069 0.94212 0.37483 0.0
C1458 C 0.42451 0.83122 0.28859 0.0
C1459 C 0.42934 0.84364 0.30249 0.0
C1460 C 0.44847 0.90008 0.31809 0.0
C1461 C 0.44332 0.91322 0.36071 0.0
C1462 C 0.44103 0.90087 0.34589 0.0
C1463 C 0.43094 0.86441 0.30252 0.0
C1464 C 0.4349 0.87705 0.3175 0.0
H1465 H 0.44941 0.9098 0.40016 0.0
H1466 H 0.4492 0.8916 0.37545 0.0
H1467 H 0.46192 0.92961 0.33228 0.0
H1468 H 0.42033 0.86645 0.26349 0.0
H1469 H 0.42845 0.88825 0.2879 0.0
C1470 C 0.5176 0.44678 0.53702 0.0
C1471 C 0.52939 0.45058 0.55137 0.0
C1472 C 0.52736 0.44637 0.52284 0.0
C1473 C 0.56891 0.43394 0.50777 0.0
H1474 H 0.56343 0.46003 0.46928 0.0
C1475 C 0.60961 0.4277 0.45125 0.0
C1476 C 0.59734 0.42346 0.43717 0.0
C1477 C 0.60285 0.43369 0.46489 0.0
C1478 C 0.56492 0.45249 0.47991 0.0
H1479 H 0.56053 0.45689 0.5621 0.0
H1480 H 0.57761 0.45624 0.53734 0.0
H1481 H 0.54873 0.46593 0.49372 0.0
H1482 H 0.56783 0.42092 0.42628 0.0
H1483 H 0.55557 0.43102 0.45026 0.0
H1484 H 0.58441 0.41992 0.49408 0.0
C1485 C 0.56087 0.45367 0.53706 0.0
C1486 C 0.55656 0.45592 0.49389 0.0
C1487 C 0.55118 0.45419 0.55121 0.0
C1488 C 0.57782 0.42469 0.43698 0.0
C1489 C 0.57093 0.4306 0.45067 0.0
C1490 C 0.57708 0.43037 0.49383 0.0
C1491 C 0.54895 0.44941 0.52275 0.0
C1492 C 0.55846 0.44664 0.50796 0.0
C1493 C 0.58327 0.43497 0.46484 0.0
C1494 C 0.57516 0.43955 0.47971 0.0
H1495 H 0.50063 0.44354 0.53683 0.0
H1496 H 0.51766 0.44276 0.51201 0.0
H1497 H 0.57024 0.42621 0.51835 0.0
H1498 H 0.62433 0.4261 0.45176 0.0
H1499 H 0.61291 0.43717 0.47552 0.0
C1500 C 0.09578 0.52267 0.71586 0.0
C1501 C 0.10003 0.53808 0.72802 0.0
C1502 C 0.10528 0.52959 0.70117 0.0
C1503 C 0.15283 0.57586 0.68242 0.0
H1504 H 0.12018 0.54749 0.64379 0.0
C1505 C 0.19031 0.60515 0.62129 0.0
C1506 C 0.18717 0.58863 0.61032 0.0
C1507 C 0.1788 0.59971 0.63537 0.0
C1508 C 0.12955 0.55546 0.65449 0.0
H1509 H 0.11757 0.57276 0.73439 0.0
H1510 H 0.13394 0.58493 0.70863 0.0
H1511 H 0.10141 0.53674 0.66888 0.0
H1512 H 0.16911 0.55341 0.60552 0.0
H1513 H 0.14923 0.54399 0.63012 0.0
H1514 H 0.18102 0.59445 0.66805 0.0
C1515 C 0.12338 0.56748 0.71048 0.0
C1516 C 0.11881 0.5493 0.66886 0.0
C1517 C 0.11389 0.56055 0.72517 0.0
C1518 C 0.17203 0.56657 0.6137 0.0
C1519 C 0.16047 0.56116 0.62776 0.0
C1520 C 0.16356 0.58204 0.66806 0.0
C1521 C 0.11934 0.55207 0.69835 0.0
C1522 C 0.13038 0.55931 0.683 0.0
C1523 C 0.16381 0.57765 0.63878 0.0
C1524 C 0.15209 0.57177 0.65395 0.0
H1525 H 0.08541 0.50522 0.71783 0.0
H1526 H 0.10211 0.51727 0.69216 0.0
H1527 H 0.16233 0.58366 0.69311 0.0
H1528 H 0.20177 0.62232 0.61907 0.0
H1529 H 0.18153 0.61281 0.64356 0.0
C1530 C 0.55786 0.11387 0.88088 0.0
C1531 C 0.53472 0.10406 0.8827 0.0
C1532 C 0.56768 0.12423 0.86693 0.0
C1533 C 0.56092 0.15367 0.83471 0.0
H1534 H 0.60074 0.13997 0.81207 0.0
C1535 C 0.59439 0.1915 0.77485 0.0
C1536 C 0.61622 0.19716 0.77111 0.0
C1537 C 0.58442 0.17929 0.78813 0.0
C1538 C 0.58995 0.14427 0.81836 0.0
H1539 H 0.50398 0.09828 0.8716 0.0
H1540 H 0.52129 0.11687 0.84725 0.0
H1541 H 0.58347 0.12036 0.83601 0.0
H1542 H 0.64471 0.19434 0.77826 0.0
H1543 H 0.62767 0.17377 0.80194 0.0
H1544 H 0.56785 0.17809 0.8176 0.0
C1545 C 0.53165 0.11605 0.85654 0.0
C1546 C 0.57997 0.13292 0.83201 0.0
C1547 C 0.52176 0.10536 0.8704 0.0
C1548 C 0.62784 0.19016 0.78086 0.0
C1549 C 0.61798 0.17825 0.79437 0.0
C1550 C 0.57115 0.16527 0.82124 0.0
C1551 C 0.55468 0.12554 0.85469 0.0
C1552 C 0.56526 0.13744 0.84023 0.0
C1553 C 0.59616 0.17278 0.79823 0.0
C1554 C 0.58568 0.16062 0.81279 0.0
H1555 H 0.56843 0.1137 0.89028 0.0
H1556 H 0.58552 0.13174 0.86585 0.0
H1557 H 0.5499 0.15769 0.84099 0.0
H1558 H 0.58486 0.19632 0.76739 0.0
H1559 H 0.5674 0.17488 0.7904 0.0
C1560 C 0.45201 0.53947 0.04183 0.0
C1561 C 0.46827 0.53343 0.03959 0.0
C1562 C 0.45002 0.55369 0.03146 0.0
C1563 C 0.47731 0.59093 0.99769 0.0
H1564 H 0.41651 0.57431 0.98697 0.0
C1565 C 0.45293 0.61537 0.93926 0.0
C1566 C 0.4338 0.61727 0.93877 0.0
C1567 C 0.45886 0.60862 0.95301 0.0
C1568 C 0.43363 0.57936 0.98978 0.0
H1569 H 0.49517 0.53757 0.02482 0.0
H1570 H 0.49116 0.56163 0.00633 0.0
H1571 H 0.42378 0.5561 0.00808 0.0
H1572 H 0.40718 0.61605 0.95243 0.0
H1573 H 0.41785 0.60512 0.97659 0.0
H1574 H 0.48697 0.61364 0.97886 0.0
C1575 C 0.48046 0.55611 0.01639 0.0
C1576 C 0.43785 0.56898 0.00211 0.0
C1577 C 0.48268 0.5422 0.02692 0.0
C1578 C 0.4216 0.61393 0.95245 0.0
C1579 C 0.42773 0.60763 0.96626 0.0
C1580 C 0.47304 0.60113 0.98517 0.0
C1581 C 0.46382 0.56173 0.01835 0.0
C1582 C 0.45971 0.57437 0.00611 0.0
C1583 C 0.44611 0.60432 0.96664 0.0
C1584 C 0.45107 0.59514 0.98084 0.0
H1585 H 0.44048 0.53288 0.05138 0.0
H1586 H 0.4373 0.55798 0.03355 0.0
H1587 H 0.49441 0.59589 0.00067 0.0
H1588 H 0.46275 0.61826 0.92884 0.0
H1589 H 0.47297 0.60605 0.95274 0.0
C1590 C 0.94973 0.46344 0.19857 0.0
C1591 C 0.938 0.45406 0.21232 0.0
C1592 C 0.93862 0.46459 0.1851 0.0
C1593 C 0.88436 0.45867 0.17156 0.0
H1594 H 0.90148 0.44688 0.13101 0.0
C1595 C 0.82466 0.42254 0.11838 0.0
C1596 C 0.83242 0.43125 0.10356 0.0
C1597 C 0.83911 0.42963 0.13141 0.0
C1598 C 0.89669 0.45045 0.14223 0.0
H1599 H 0.9056 0.43926 0.22291 0.0
H1600 H 0.88603 0.44004 0.19933 0.0
H1601 H 0.92381 0.45046 0.15435 0.0
H1602 H 0.8607 0.45511 0.09068 0.0
H1603 H 0.88649 0.46715 0.11355 0.0
H1604 H 0.85642 0.4572 0.15944 0.0
C1605 C 0.90388 0.44704 0.19891 0.0
C1606 C 0.90953 0.45262 0.15563 0.0
C1607 C 0.91502 0.44622 0.21241 0.0
C1608 C 0.85459 0.44792 0.10202 0.0
C1609 C 0.86924 0.45477 0.11504 0.0
C1610 C 0.8713 0.45603 0.15821 0.0
C1611 C 0.91549 0.45622 0.18505 0.0
C1612 C 0.90325 0.45626 0.17054 0.0
C1613 C 0.86161 0.44555 0.12982 0.0
C1614 C 0.87707 0.45141 0.14349 0.0
H1615 H 0.96752 0.46993 0.19823 0.0
H1616 H 0.94821 0.47215 0.17476 0.0
H1617 H 0.87936 0.46216 0.18272 0.0
H1618 H 0.80743 0.41002 0.11984 0.0
H1619 H 0.83284 0.42212 0.14264 0.0
loop_
_geom_bond_atom_site_label_1
_geom_bond_atom_site_label_2
_geom_bond_distance
_geom_bond_site_symmetry_2
_ccdc_geom_bond_type
C0 C1 1.560 . S
C0 H61 0.959 . S
C0 H62 0.959 . S
C0 H63 0.960 . S
C1 C0 1.560 . S
C1 O56 1.426 . S
C1 H60 0.980 . S
C2 C3 1.407 . S
C2 C7 1.418 . S
C2 O56 1.334 . S
C3 C2 1.407 . S
C3 C4 1.360 . S
C3 H64 0.929 . S
C4 C3 1.360 . S
C4 C5 1.401 . S
C4 C8 1.527 . S
C5 C4 1.401 . S
C5 C6 1.405 . S
C5 C38 1.587 . S
C6 C5 1.405 . S
C6 C7 1.332 . S
C6 C9 1.496 . S
C7 C2 1.418 . S
C7 C6 1.332 . S
C7 H65 0.929 . S
C8 C4 1.527 . S
C8 H66 0.959 . S
C8 H67 0.961 . S
C8 H68 0.961 . S
C9 C6 1.496 . S
C9 H69 0.960 . S
C9 H70 0.960 . S
C9 H71 0.961 . S
C10 C11 1.517 . S
C10 H73 0.961 . S
C10 H74 0.960 . S
C10 H75 0.959 . S
C11 C10 1.517 . S
C11 O59 1.468 . S
C11 H72 0.980 . S
C12 C13 1.349 . S
C12 C17 1.367 . S
C12 O59 1.408 . S
C13 C12 1.349 . S
C13 C14 1.407 . S
C13 H76 0.930 . S
C14 C13 1.407 . S
C14 C15 1.449 . S
C14 C18 1.535 . S
C15 C14 1.449 . S
C15 C16 1.384 . S
C15 C40 1.553 1_655 S
C16 C15 1.384 . S
C16 C17 1.364 . S
C16 C19 1.450 . S
C17 C12 1.367 . S
C17 C16 1.364 . S
C17 H77 0.931 . S
C18 C14 1.535 . S
C18 H78 0.959 1_655 S
C18 H79 0.960 1_655 S
C18 H80 0.959 . S
C19 C16 1.450 . S
C19 H81 0.960 . S
C19 H82 0.960 1_655 S
C19 H83 0.960 . S
C20 C21 1.309 . S
C20 C25 1.304 . S
C20 O58 1.435 . S
C21 C20 1.309 . S
C21 C22 1.476 . S
C21 H85 0.930 . S
C22 C21 1.476 . S
C22 C23 1.400 . S
C22 C26 1.567 . S
C23 C22 1.400 . S
C23 C24 1.373 . S
C23 C45 1.432 . S
C24 C23 1.373 . S
C24 C25 1.339 . S
C24 C27 1.530 . S
C25 C20 1.304 . S
C25 C24 1.339 . S
C25 H86 0.930 . S
C26 C22 1.567 . S
C26 H87 0.961 . S
C26 H88 0.960 . S
C26 H89 0.958 . S
C27 C24 1.530 . S
C27 H90 0.961 . S
C27 H91 0.960 . S
C27 H92 0.960 . S
C28 C29 1.530 . S
C28 H94 0.961 . S
C28 H95 0.961 . S
C28 H96 0.959 . S
C29 C28 1.530 . S
C29 O57 1.412 . S
C29 H93 0.980 . S
C30 C31 1.288 . S
C30 C35 1.377 . S
C30 O57 1.393 . S
C31 C30 1.288 . S
C31 C32 1.369 . S
C31 H97 0.932 . S
C32 C31 1.369 . S
C32 C33 1.398 . S
C32 C36 1.527 . S
C33 C32 1.398 . S
C33 C34 1.380 . S
C33 C47 1.497 . S
C34 C33 1.380 . S
C34 C35 1.383 . S
C34 C37 1.603 . S
C35 C30 1.377 . S
C35 C34 1.383 . S
C35 H98 0.929 . S
C36 C32 1.527 . S
C36 H99 0.961 . S
C36 H100 0.959 . S
C36 H101 0.959 . S
C37 C34 1.603 . S
C37 H102 0.960 . S
C37 H103 0.962 . S
C37 H104 0.961 . S
C38 C5 1.587 . S
C38 C39 1.360 . S
C38 C51 1.412 . S
C39 C38 1.360 . S
C39 C40 1.365 . S
C39 H105 0.929 . S
C40 C15 1.553 1_455 S
C40 C39 1.365 . S
C40 C41 1.404 . S
C41 C40 1.404 . S
C41 C42 1.395 1_455 S
C41 C52 1.451 . S
C42 C41 1.395 1_655 S
C42 C43 1.322 . S
C42 H106 0.930 . S
C43 C42 1.322 . S
C43 C44 1.459 . S
C43 H107 0.929 . S
C44 C43 1.459 . S
C44 C45 1.445 . S
C44 C53 1.395 1_655 S
C45 C23 1.432 . S
C45 C44 1.445 . S
C45 C46 1.370 . S
C46 C45 1.370 . S
C46 C47 1.438 1_655 S
C46 H108 0.930 . S
C47 C33 1.497 . S
C47 C46 1.438 1_455 S
C47 C48 1.360 . S
C48 C47 1.360 . S
C48 C49 1.401 . S
C48 C53 1.446 . S
C49 C48 1.401 . S
C49 C50 1.347 . S
C49 H109 0.929 . S
C50 C49 1.347 . S
C50 C51 1.455 . S
C50 H110 0.930 . S
C51 C38 1.412 . S
C51 C50 1.455 . S
C51 C52 1.331 . S
C52 C41 1.451 . S
C52 C51 1.331 . S
C52 C53 1.497 . S
C53 C44 1.395 1_455 S
C53 C48 1.446 . S
C53 C52 1.497 . S
C54 C55 1.582 . S
C54 H111 0.962 . S
C54 H112 0.959 . S
C54 H113 0.958 . S
C55 C54 1.582 . S
C55 O58 1.458 . S
C55 H84 0.980 . S
O56 C1 1.426 . S
O56 C2 1.334 . S
O57 C29 1.412 . S
O57 C30 1.393 . S
O58 C20 1.435 . S
O58 C55 1.458 . S
O59 C11 1.468 . S
O59 C12 1.408 . S
H60 C1 0.980 . S
H61 C0 0.959 . S
H62 C0 0.959 . S
H63 C0 0.960 . S
H64 C3 0.929 . S
H65 C7 0.929 . S
H66 C8 0.959 . S
H67 C8 0.961 . S
H68 C8 0.961 . S
H69 C9 0.960 . S
H70 C9 0.960 . S
H71 C9 0.961 . S
H72 C11 0.980 . S
H73 C10 0.961 . S
H74 C10 0.960 . S
H75 C10 0.959 . S
H76 C13 0.930 . S
H77 C17 0.931 . S
H78 C18 0.959 1_455 S
H79 C18 0.960 1_455 S
H80 C18 0.959 . S
H81 C19 0.960 . S
H82 C19 0.960 1_455 S
H83 C19 0.960 . S
H84 C55 0.980 . S
H85 C21 0.930 . S
H86 C25 0.930 . S
H87 C26 0.961 . S
H88 C26 0.960 . S
H89 C26 0.958 . S
H90 C27 0.961 . S
H91 C27 0.960 . S
H92 C27 0.960 . S
H93 C29 0.980 . S
H94 C28 0.961 . S
H95 C28 0.961 . S
H96 C28 0.959 . S
H97 C31 0.932 . S
H98 C35 0.929 . S
H99 C36 0.961 . S
H100 C36 0.959 . S
H101 C36 0.959 . S
H102 C37 0.960 . S
H103 C37 0.962 . S
H104 C37 0.961 . S
H105 C39 0.929 . S
H106 C42 0.930 . S
H107 C43 0.929 . S
H108 C46 0.930 . S
H109 C49 0.929 . S
H110 C50 0.930 . S
H111 C54 0.962 . S
H112 C54 0.959 . S
H113 C54 0.958 . S
C114 C115 1.560 . S
C114 H175 0.959 . S
C114 H176 0.959 . S
C114 H177 0.960 . S
C115 C114 1.560 . S
C115 O170 1.426 . S
C115 H174 0.980 . S
C116 C117 1.407 . S
C116 C121 1.418 . S
C116 O170 1.334 . S
C117 C116 1.407 . S
C117 C118 1.360 . S
C117 H178 0.929 . S
C118 C117 1.360 . S
C118 C119 1.401 . S
C118 C122 1.527 . S
C119 C118 1.401 . S
C119 C120 1.405 . S
C119 C152 1.587 . S
C120 C119 1.405 . S
C120 C121 1.332 . S
C120 C123 1.496 . S
C121 C116 1.418 . S
C121 C120 1.332 . S
C121 H179 0.929 . S
C122 C118 1.527 . S
C122 H180 0.959 . S
C122 H181 0.961 . S
C122 H182 0.961 . S
C123 C120 1.496 . S
C123 H183 0.960 . S
C123 H184 0.960 . S
C123 H185 0.961 . S
C124 C125 1.517 . S
C124 H187 0.961 . S
C124 H188 0.960 . S
C124 H189 0.959 . S
C125 C124 1.517 . S
C125 O173 1.468 . S
C125 H186 0.980 . S
C126 C127 1.349 . S
C126 C131 1.367 . S
C126 O173 1.408 . S
C127 C126 1.349 . S
C127 C128 1.407 . S
C127 H190 0.930 . S
C128 C127 1.407 . S
C128 C129 1.449 . S
C128 C132 1.535 . S
C129 C128 1.449 . S
C129 C130 1.384 . S
C129 C154 1.553 . S
C130 C129 1.384 . S
C130 C131 1.364 . S
C130 C133 1.450 . S
C131 C126 1.367 . S
C131 C130 1.364 . S
C131 H191 0.931 . S
C132 C128 1.535 . S
C132 H192 0.959 . S
C132 H193 0.961 . S
C132 H194 0.959 . S
C133 C130 1.450 . S
C133 H195 0.960 . S
C133 H196 0.960 . S
C133 H197 0.960 . S
C134 C135 1.309 . S
C134 C139 1.304 . S
C134 O172 1.435 . S
C135 C134 1.309 . S
C135 C136 1.476 . S
C135 H199 0.930 . S
C136 C135 1.476 . S
C136 C137 1.400 . S
C136 C140 1.567 . S
C137 C136 1.400 . S
C137 C138 1.373 . S
C137 C159 1.432 . S
C138 C137 1.373 . S
C138 C139 1.339 . S
C138 C141 1.530 . S
C139 C134 1.304 . S
C139 C138 1.339 . S
C139 H200 0.930 . S
C140 C136 1.567 . S
C140 H201 0.961 . S
C140 H202 0.960 . S
C140 H203 0.958 . S
C141 C138 1.530 . S
C141 H204 0.961 . S
C141 H205 0.960 . S
C141 H206 0.960 . S
C142 C143 1.530 . S
C142 H208 0.961 . S
C142 H209 0.961 . S
C142 H210 0.959 . S
C143 C142 1.530 . S
C143 O171 1.412 . S
C143 H207 0.980 . S
C144 C145 1.288 . S
C144 C149 1.377 . S
C144 O171 1.393 . S
C145 C144 1.288 . S
C145 C146 1.384 . S
C145 H211 0.932 . S
C146 C145 1.384 . S
C146 C147 1.416 1_565 S
C146 C150 1.494 1_565 S
C147 C146 1.416 1_545 S
C147 C148 1.380 1_545 S
C147 C161 1.497 . S
C148 C147 1.380 1_565 S
C148 C149 1.383 . S
C148 C151 1.603 . S
C149 C144 1.377 . S
C149 C148 1.383 . S
C149 H212 0.929 . S
C150 C146 1.494 1_545 S
C150 H213 0.961 . S
C150 H214 0.959 . S
C150 H215 0.959 . S
C151 C148 1.603 . S
C151 H216 0.960 . S
C151 H217 0.962 1_565 S
C151 H218 0.961 . S
C152 C119 1.587 . S
C152 C153 1.360 . S
C152 C165 1.412 . S
C153 C152 1.360 . S
C153 C154 1.365 1_565 S
C153 H219 0.929 . S
C154 C129 1.553 . S
C154 C153 1.365 1_545 S
C154 C155 1.404 . S
C155 C154 1.404 . S
C155 C156 1.395 . S
C155 C166 1.451 . S
C156 C155 1.395 . S
C156 C157 1.322 . S
C156 H220 0.930 . S
C157 C156 1.322 . S
C157 C158 1.459 . S
C157 H221 0.929 . S
C158 C157 1.459 . S
C158 C159 1.445 . S
C158 C167 1.395 . S
C159 C137 1.432 . S
C159 C158 1.445 . S
C159 C160 1.370 . S
C160 C159 1.370 . S
C160 C161 1.438 . S
C160 H222 0.930 . S
C161 C147 1.497 . S
C161 C160 1.438 . S
C161 C162 1.360 . S
C162 C161 1.360 . S
C162 C163 1.401 1_545 S
C162 C167 1.446 . S
C163 C162 1.401 1_565 S
C163 C164 1.347 . S
C163 H223 0.929 . S
C164 C163 1.347 . S
C164 C165 1.455 . S
C164 H224 0.930 . S
C165 C152 1.412 . S
C165 C164 1.455 . S
C165 C166 1.331 1_565 S
C166 C155 1.451 . S
C166 C165 1.331 1_545 S
C166 C167 1.497 . S
C167 C158 1.395 . S
C167 C162 1.446 . S
C167 C166 1.497 . S
C168 C169 1.582 . S
C168 H225 0.962 . S
C168 H226 0.959 . S
C168 H227 0.958 . S
C169 C168 1.582 . S
C169 O172 1.458 . S
C169 H198 0.980 . S
O170 C115 1.426 . S
O170 C116 1.334 . S
O171 C143 1.412 . S
O171 C144 1.393 . S
O172 C134 1.435 . S
O172 C169 1.458 . S
O173 C125 1.468 . S
O173 C126 1.408 . S
H174 C115 0.980 . S
H175 C114 0.959 . S
H176 C114 0.959 . S
H177 C114 0.960 . S
H178 C117 0.929 . S
H179 C121 0.929 . S
H180 C122 0.959 . S
H181 C122 0.961 . S
H182 C122 0.961 . S
H183 C123 0.960 . S
H184 C123 0.960 . S
H185 C123 0.961 . S
H186 C125 0.980 . S
H187 C124 0.961 . S
H188 C124 0.960 . S
H189 C124 0.959 . S
H190 C127 0.930 . S
H191 C131 0.931 . S
H192 C132 0.959 . S
H193 C132 0.961 . S
H194 C132 0.959 . S
H195 C133 0.960 . S
H196 C133 0.960 . S
H197 C133 0.960 . S
H198 C169 0.980 . S
H199 C135 0.930 . S
H200 C139 0.930 . S
H201 C140 0.961 . S
H202 C140 0.960 . S
H203 C140 0.958 . S
H204 C141 0.961 . S
H205 C141 0.960 . S
H206 C141 0.960 . S
H207 C143 0.980 . S
H208 C142 0.961 . S
H209 C142 0.961 . S
H210 C142 0.959 . S
H211 C145 0.932 . S
H212 C149 0.929 . S
H213 C150 0.961 . S
H214 C150 0.959 . S
H215 C150 0.959 . S
H216 C151 0.960 . S
H217 C151 0.962 1_545 S
H218 C151 0.961 . S
H219 C153 0.929 . S
H220 C156 0.930 . S
H221 C157 0.929 . S
H222 C160 0.930 . S
H223 C163 0.929 . S
H224 C164 0.930 . S
H225 C168 0.962 . S
H226 C168 0.959 . S
H227 C168 0.958 . S
C228 C229 1.560 . S
C228 H289 0.959 . S
C228 H290 0.959 . S
C228 H291 0.960 . S
C229 C228 1.560 . S
C229 O284 1.426 . S
C229 H288 0.980 . S
C230 C231 1.407 . S
C230 C235 1.418 . S
C230 O284 1.334 . S
C231 C230 1.407 . S
C231 C232 1.360 . S
C231 H292 0.929 . S
C232 C231 1.360 . S
C232 C233 1.401 . S
C232 C236 1.527 . S
C233 C232 1.401 . S
C233 C234 1.405 . S
C233 C266 1.587 . S
C234 C233 1.405 . S
C234 C235 1.332 . S
C234 C237 1.496 . S
C235 C230 1.418 . S
C235 C234 1.332 . S
C235 H293 0.929 . S
C236 C232 1.527 . S
C236 H294 0.959 . S
C236 H295 0.961 . S
C236 H296 0.961 . S
C237 C234 1.496 . S
C237 H297 0.960 . S
C237 H298 0.960 . S
C237 H299 0.961 . S
C238 C239 1.517 . S
C238 H301 0.961 . S
C238 H302 0.960 . S
C238 H303 0.959 . S
C239 C238 1.517 . S
C239 O287 1.468 . S
C239 H300 0.980 . S
C240 C241 1.349 . S
C240 C245 1.367 . S
C240 O287 1.408 . S
C241 C240 1.349 . S
C241 C242 1.407 . S
C241 H304 0.930 . S
C242 C241 1.407 . S
C242 C243 1.449 . S
C242 C246 1.535 . S
C243 C242 1.449 . S
C243 C244 1.384 . S
C243 C268 1.553 . S
C244 C243 1.384 . S
C244 C245 1.364 . S
C244 C247 1.450 . S
C245 C240 1.367 . S
C245 C244 1.364 . S
C245 H305 0.931 . S
C246 C242 1.535 . S
C246 H306 0.959 . S
C246 H307 0.961 . S
C246 H308 0.959 . S
C247 C244 1.450 . S
C247 H309 0.960 . S
C247 H310 0.960 . S
C247 H311 0.960 . S
C248 C249 1.309 . S
C248 C253 1.304 . S
C248 O286 1.435 . S
C249 C248 1.309 . S
C249 C250 1.476 . S
C249 H313 0.930 . S
C250 C249 1.476 . S
C250 C251 1.400 . S
C250 C254 1.567 . S
C251 C250 1.400 . S
C251 C252 1.373 . S
C251 C273 1.432 . S
C252 C251 1.373 . S
C252 C253 1.339 . S
C252 C255 1.530 . S
C253 C248 1.304 . S
C253 C252 1.339 . S
C253 H314 0.930 . S
C254 C250 1.567 . S
C254 H315 0.961 . S
C254 H316 0.960 . S
C254 H317 0.958 . S
C255 C252 1.530 . S
C255 H318 0.961 . S
C255 H319 0.960 . S
C255 H320 0.960 . S
C256 C257 1.530 . S
C256 H322 0.961 . S
C256 H323 0.961 . S
C256 H324 0.959 . S
C257 C256 1.530 . S
C257 O285 1.412 . S
C257 H321 0.980 . S
C258 C259 1.288 . S
C258 C263 1.377 . S
C258 O285 1.393 . S
C259 C258 1.288 . S
C259 C260 1.369 . S
C259 H325 0.932 . S
C260 C259 1.369 . S
C260 C261 1.398 . S
C260 C264 1.527 . S
C261 C260 1.398 . S
C261 C262 1.380 . S
C261 C275 1.497 . S
C262 C261 1.380 . S
C262 C263 1.383 . S
C262 C265 1.603 . S
C263 C258 1.377 . S
C263 C262 1.383 . S
C263 H326 0.929 . S
C264 C260 1.527 . S
C264 H327 0.961 . S
C264 H328 0.959 . S
C264 H329 0.959 . S
C265 C262 1.603 . S
C265 H330 0.960 . S
C265 H331 0.962 . S
C265 H332 0.961 . S
C266 C233 1.587 . S
C266 C267 1.360 . S
C266 C279 1.412 . S
C267 C266 1.360 . S
C267 C268 1.365 . S
C267 H333 0.929 . S
C268 C243 1.553 . S
C268 C267 1.365 . S
C268 C269 1.404 . S
C269 C268 1.404 . S
C269 C270 1.395 . S
C269 C280 1.451 . S
C270 C269 1.395 . S
C270 C271 1.322 . S
C270 H334 0.930 . S
C271 C270 1.322 . S
C271 C272 1.459 . S
C271 H335 0.929 . S
C272 C271 1.459 . S
C272 C273 1.445 . S
C272 C281 1.395 . S
C273 C251 1.432 . S
C273 C272 1.445 . S
C273 C274 1.370 . S
C274 C273 1.370 . S
C274 C275 1.438 . S
C274 H336 0.930 . S
C275 C261 1.497 . S
C275 C274 1.438 . S
C275 C276 1.360 . S
C276 C275 1.360 . S
C276 C277 1.401 . S
C276 C281 1.446 . S
C277 C276 1.401 . S
C277 C278 1.347 . S
C277 H337 0.929 . S
C278 C277 1.347 . S
C278 C279 1.455 . S
C278 H338 0.930 . S
C279 C266 1.412 . S
C279 C278 1.455 . S
C279 C280 1.331 . S
C280 C269 1.451 . S
C280 C279 1.331 . S
C280 C281 1.497 . S
C281 C272 1.395 . S
C281 C276 1.446 . S
C281 C280 1.497 . S
C282 C283 1.582 . S
C282 H339 0.962 . S
C282 H340 0.959 . S
C282 H341 0.958 . S
C283 C282 1.582 . S
C283 O286 1.458 . S
C283 H312 0.980 . S
O284 C229 1.426 . S
O284 C230 1.334 . S
O285 C257 1.412 . S
O285 C258 1.393 . S
O286 C248 1.435 . S
O286 C283 1.458 . S
O287 C239 1.468 . S
O287 C240 1.408 . S
H288 C229 0.980 . S
H289 C228 0.959 . S
H290 C228 0.959 . S
H291 C228 0.960 . S
H292 C231 0.929 . S
H293 C235 0.929 . S
H294 C236 0.959 . S
H295 C236 0.961 . S
H296 C236 0.961 . S
H297 C237 0.960 . S
H298 C237 0.960 . S
H299 C237 0.961 . S
H300 C239 0.980 . S
H301 C238 0.961 . S
H302 C238 0.960 . S
H303 C238 0.959 . S
H304 C241 0.930 . S
H305 C245 0.931 . S
H306 C246 0.959 . S
H307 C246 0.961 . S
H308 C246 0.959 . S
H309 C247 0.960 . S
H310 C247 0.960 . S
H311 C247 0.960 . S
H312 C283 0.980 . S
H313 C249 0.930 . S
H314 C253 0.930 . S
H315 C254 0.961 . S
H316 C254 0.960 . S
H317 C254 0.958 . S
H318 C255 0.961 . S
H319 C255 0.960 . S
H320 C255 0.960 . S
H321 C257 0.980 . S
H322 C256 0.961 . S
H323 C256 0.961 . S
H324 C256 0.959 . S
H325 C259 0.932 . S
H326 C263 0.929 . S
H327 C264 0.961 . S
H328 C264 0.959 . S
H329 C264 0.959 . S
H330 C265 0.960 . S
H331 C265 0.962 . S
H332 C265 0.961 . S
H333 C267 0.929 . S
H334 C270 0.930 . S
H335 C271 0.929 . S
H336 C274 0.930 . S
H337 C277 0.929 . S
H338 C278 0.930 . S
H339 C282 0.962 . S
H340 C282 0.959 . S
H341 C282 0.958 . S
C342 C343 1.560 . S
C342 H403 0.959 . S
C342 H404 0.959 . S
C342 H405 0.960 . S
C343 C342 1.560 . S
C343 O398 1.426 . S
C343 H402 0.980 . S
C344 C345 1.407 . S
C344 C349 1.418 . S
C344 O398 1.334 . S
C345 C344 1.407 . S
C345 C346 1.360 . S
C345 H406 0.929 . S
C346 C345 1.360 . S
C346 C347 1.401 . S
C346 C350 1.527 . S
C347 C346 1.401 . S
C347 C348 1.405 . S
C347 C380 1.587 . S
C348 C347 1.405 . S
C348 C349 1.332 . S
C348 C351 1.496 . S
C349 C344 1.418 . S
C349 C348 1.332 . S
C349 H407 0.929 . S
C350 C346 1.527 . S
C350 H408 0.959 . S
C350 H409 0.961 . S
C350 H410 0.961 . S
C351 C348 1.496 . S
C351 H411 0.960 . S
C351 H412 0.960 . S
C351 H413 0.961 . S
C352 C353 1.517 . S
C352 H415 0.961 . S
C352 H416 0.960 . S
C352 H417 0.959 . S
C353 C352 1.517 . S
C353 O401 1.468 . S
C353 H414 0.980 . S
C354 C355 1.349 . S
C354 C359 1.367 . S
C354 O401 1.408 . S
C355 C354 1.349 . S
C355 C356 1.407 . S
C355 H418 0.930 . S
C356 C355 1.407 . S
C356 C357 1.449 1_655 S
C356 C360 1.535 1_655 S
C357 C356 1.449 1_455 S
C357 C358 1.384 1_455 S
C357 C382 1.553 . S
C358 C357 1.384 1_655 S
C358 C359 1.364 . S
C358 C361 1.458 1_655 S
C359 C354 1.367 . S
C359 C358 1.364 . S
C359 H419 0.931 . S
C360 C356 1.535 1_455 S
C360 H420 0.959 . S
C360 H421 0.961 . S
C360 H422 0.959 1_455 S
C361 C358 1.458 1_455 S
C361 H423 0.926 1_455 S
C361 H424 1.013 . S
C361 H425 0.938 1_455 S
C362 C363 1.309 . S
C362 C367 1.304 . S
C362 O400 1.435 . S
C363 C362 1.309 . S
C363 C364 1.476 . S
C363 H427 0.930 . S
C364 C363 1.476 . S
C364 C365 1.400 . S
C364 C368 1.567 . S
C365 C364 1.400 . S
C365 C366 1.373 . S
C365 C387 1.432 . S
C366 C365 1.373 . S
C366 C367 1.339 . S
C366 C369 1.530 . S
C367 C362 1.304 . S
C367 C366 1.339 . S
C367 H428 0.930 . S
C368 C364 1.567 . S
C368 H429 0.961 . S
C368 H430 0.960 . S
C368 H431 0.958 . S
C369 C366 1.530 . S
C369 H432 0.961 . S
C369 H433 0.960 . S
C369 H434 0.960 . S
C370 C371 1.530 . S
C370 H436 0.961 . S
C370 H437 0.961 . S
C370 H438 0.959 . S
C371 C370 1.530 . S
C371 O399 1.412 . S
C371 H435 0.980 . S
C372 C373 1.288 . S
C372 C377 1.377 . S
C372 O399 1.393 . S
C373 C372 1.288 . S
C373 C374 1.369 . S
C373 H439 0.932 . S
C374 C373 1.369 . S
C374 C375 1.398 . S
C374 C378 1.527 . S
C375 C374 1.398 . S
C375 C376 1.380 . S
C375 C389 1.497 . S
C376 C375 1.380 . S
C376 C377 1.383 . S
C376 C379 1.603 . S
C377 C372 1.377 . S
C377 C376 1.383 . S
C377 H440 0.929 . S
C378 C374 1.527 . S
C378 H441 0.961 . S
C378 H442 0.959 . S
C378 H443 0.959 . S
C379 C376 1.603 . S
C379 H444 0.960 . S
C379 H445 0.962 . S
C379 H446 0.961 . S
C380 C347 1.587 . S
C380 C381 1.360 . S
C380 C393 1.412 . S
C381 C380 1.360 . S
C381 C382 1.365 . S
C381 H447 0.929 . S
C382 C357 1.553 . S
C382 C381 1.365 . S
C382 C383 1.404 . S
C383 C382 1.404 . S
C383 C384 1.395 1_455 S
C383 C394 1.451 . S
C384 C383 1.395 1_655 S
C384 C385 1.322 . S
C384 H448 0.930 . S
C385 C384 1.322 . S
C385 C386 1.459 . S
C385 H449 0.929 . S
C386 C385 1.459 . S
C386 C387 1.445 . S
C386 C395 1.395 1_655 S
C387 C365 1.432 . S
C387 C386 1.445 . S
C387 C388 1.370 . S
C388 C387 1.370 . S
C388 C389 1.438 1_655 S
C388 H450 0.930 . S
C389 C375 1.497 . S
C389 C388 1.438 1_455 S
C389 C390 1.360 . S
C390 C389 1.360 . S
C390 C391 1.401 . S
C390 C395 1.446 . S
C391 C390 1.401 . S
C391 C392 1.347 . S
C391 H451 0.929 . S
C392 C391 1.347 . S
C392 C393 1.455 . S
C392 H452 0.930 . S
C393 C380 1.412 . S
C393 C392 1.455 . S
C393 C394 1.331 . S
C394 C383 1.451 . S
C394 C393 1.331 . S
C394 C395 1.497 . S
C395 C386 1.395 1_455 S
C395 C390 1.446 . S
C395 C394 1.497 . S
C396 C397 1.582 . S
C396 H453 0.962 . S
C396 H454 0.959 . S
C396 H455 0.958 . S
C397 C396 1.582 . S
C397 O400 1.458 . S
C397 H426 0.980 . S
O398 C343 1.426 . S
O398 C344 1.334 . S
O399 C371 1.412 . S
O399 C372 1.393 . S
O400 C362 1.435 . S
O400 C397 1.458 . S
O401 C353 1.468 . S
O401 C354 1.408 . S
H402 C343 0.980 . S
H403 C342 0.959 . S
H404 C342 0.959 . S
H405 C342 0.960 . S
H406 C345 0.929 . S
H407 C349 0.929 . S
H408 C350 0.959 . S
H409 C350 0.961 . S
H410 C350 0.961 . S
H411 C351 0.960 . S
H412 C351 0.960 . S
H413 C351 0.961 . S
H414 C353 0.980 . S
H415 C352 0.961 . S
H416 C352 0.960 . S
H417 C352 0.959 . S
H418 C355 0.930 . S
H419 C359 0.931 . S
H420 C360 0.959 . S
H421 C360 0.961 . S
H422 C360 0.959 1_655 S
H423 C361 0.926 1_655 S
H424 C361 1.013 . S
H425 C361 0.938 1_655 S
H426 C397 0.980 . S
H427 C363 0.930 . S
H428 C367 0.930 . S
H429 C368 0.961 . S
H430 C368 0.960 . S
H431 C368 0.958 . S
H432 C369 0.961 . S
H433 C369 0.960 . S
H434 C369 0.960 . S
H435 C371 0.980 . S
H436 C370 0.961 . S
H437 C370 0.961 . S
H438 C370 0.959 . S
H439 C373 0.932 . S
H440 C377 0.929 . S
H441 C378 0.961 . S
H442 C378 0.959 . S
H443 C378 0.959 . S
H444 C379 0.960 . S
H445 C379 0.962 . S
H446 C379 0.961 . S
H447 C381 0.929 . S
H448 C384 0.930 . S
H449 C385 0.929 . S
H450 C388 0.930 . S
H451 C391 0.929 . S
H452 C392 0.930 . S
H453 C396 0.962 . S
H454 C396 0.959 . S
H455 C396 0.958 . S
C456 C457 1.560 . S
C456 H517 0.959 . S
C456 H518 0.959 . S
C456 H519 0.960 . S
C457 C456 1.560 . S
C457 O512 1.426 . S
C457 H516 0.980 . S
C458 C459 1.407 . S
C458 C463 1.418 . S
C458 O512 1.334 . S
C459 C458 1.407 . S
C459 C460 1.360 . S
C459 H520 0.929 . S
C460 C459 1.360 . S
C460 C461 1.401 . S
C460 C464 1.527 . S
C461 C460 1.401 . S
C461 C462 1.405 . S
C461 C494 1.587 . S
C462 C461 1.405 . S
C462 C463 1.332 . S
C462 C465 1.496 . S
C463 C458 1.418 . S
C463 C462 1.332 . S
C463 H521 0.929 . S
C464 C460 1.527 . S
C464 H522 0.959 . S
C464 H523 0.961 . S
C464 H524 0.961 . S
C465 C462 1.496 . S
C465 H525 0.960 . S
C465 H526 0.960 . S
C465 H527 0.961 . S
C466 C467 1.517 . S
C466 H529 0.961 . S
C466 H530 0.960 . S
C466 H531 0.959 . S
C467 C466 1.517 . S
C467 O515 1.468 . S
C467 H528 0.980 . S
C468 C469 1.349 . S
C468 C473 1.367 . S
C468 O515 1.408 . S
C469 C468 1.349 . S
C469 C470 1.407 . S
C469 H532 0.930 . S
C470 C469 1.407 . S
C470 C471 1.449 . S
C470 C474 1.535 . S
C471 C470 1.449 . S
C471 C472 1.384 . S
C471 C496 1.553 . S
C472 C471 1.384 . S
C472 C473 1.364 . S
C472 C475 1.450 . S
C473 C468 1.367 . S
C473 C472 1.364 . S
C473 H533 0.931 . S
C474 C470 1.535 . S
C474 H534 0.959 . S
C474 H535 0.961 . S
C474 H536 0.959 . S
C475 C472 1.450 . S
C475 H537 0.960 . S
C475 H538 0.960 . S
C475 H539 0.960 . S
C476 C477 1.309 . S
C476 C481 1.304 . S
C476 O514 1.435 . S
C477 C476 1.309 . S
C477 C478 1.476 . S
C477 H541 0.930 . S
C478 C477 1.476 . S
C478 C479 1.400 . S
C478 C482 1.567 . S
C479 C478 1.400 . S
C479 C480 1.373 . S
C479 C501 1.432 . S
C480 C479 1.373 . S
C480 C481 1.339 . S
C480 C483 1.530 . S
C481 C476 1.304 . S
C481 C480 1.339 . S
C481 H542 0.930 . S
C482 C478 1.567 . S
C482 H543 0.961 . S
C482 H544 0.960 . S
C482 H545 0.958 . S
C483 C480 1.530 . S
C483 H546 0.961 . S
C483 H547 0.960 . S
C483 H548 0.960 . S
C484 C485 1.530 . S
C484 H550 0.961 . S
C484 H551 0.961 . S
C484 H552 0.959 . S
C485 C484 1.530 . S
C485 O513 1.412 . S
C485 H549 0.980 . S
C486 C487 1.288 . S
C486 C491 1.377 . S
C486 O513 1.393 . S
C487 C486 1.288 . S
C487 C488 1.369 1_565 S
C487 H553 0.932 . S
C488 C487 1.369 1_545 S
C488 C489 1.398 . S
C488 C492 1.527 . S
C489 C488 1.398 . S
C489 C490 1.380 1_545 S
C489 C503 1.497 . S
C490 C489 1.380 1_565 S
C490 C491 1.383 . S
C490 C493 1.603 . S
C491 C486 1.377 . S
C491 C490 1.383 . S
C491 H554 0.929 . S
C492 C488 1.527 . S
C492 H555 0.961 . S
C492 H556 0.959 . S
C492 H557 0.959 . S
C493 C490 1.603 . S
C493 H558 0.960 . S
C493 H559 0.962 1_565 S
C493 H560 0.961 . S
C494 C461 1.587 . S
C494 C495 1.360 . S
C494 C507 1.412 . S
C495 C494 1.360 . S
C495 C496 1.365 1_565 S
C495 H561 0.929 . S
C496 C471 1.553 . S
C496 C495 1.365 1_545 S
C496 C497 1.404 . S
C497 C496 1.404 . S
C497 C498 1.395 . S
C497 C508 1.451 . S
C498 C497 1.395 . S
C498 C499 1.322 . S
C498 H562 0.930 . S
C499 C498 1.322 . S
C499 C500 1.459 . S
C499 H563 0.929 . S
C500 C499 1.459 . S
C500 C501 1.445 1_556 S
C500 C509 1.395 . S
C501 C479 1.432 . S
C501 C500 1.445 1_554 S
C501 C502 1.370 . S
C502 C501 1.370 . S
C502 C503 1.438 . S
C502 H564 0.930 . S
C503 C489 1.497 . S
C503 C502 1.438 . S
C503 C504 1.360 . S
C504 C503 1.360 . S
C504 C505 1.401 1_545 S
C504 C509 1.446 1_554 S
C505 C504 1.401 1_565 S
C505 C506 1.347 1_554 S
C505 H565 0.929 . S
C506 C505 1.347 1_556 S
C506 C507 1.455 . S
C506 H566 0.930 . S
C507 C494 1.412 . S
C507 C506 1.455 . S
C507 C508 1.331 1_565 S
C508 C497 1.451 . S
C508 C507 1.331 1_545 S
C508 C509 1.497 . S
C509 C500 1.395 . S
C509 C504 1.446 1_556 S
C509 C508 1.497 . S
C510 C511 1.582 . S
C510 H567 0.962 . S
C510 H568 0.959 . S
C510 H569 0.958 . S
C511 C510 1.582 . S
C511 O514 1.458 . S
C511 H540 0.980 . S
O512 C457 1.426 . S
O512 C458 1.334 . S
O513 C485 1.412 . S
O513 C486 1.393 . S
O514 C476 1.435 . S
O514 C511 1.458 . S
O515 C467 1.468 . S
O515 C468 1.408 . S
H516 C457 0.980 . S
H517 C456 0.959 . S
H518 C456 0.959 . S
H519 C456 0.960 . S
H520 C459 0.929 . S
H521 C463 0.929 . S
H522 C464 0.959 . S
H523 C464 0.961 . S
H524 C464 0.961 . S
H525 C465 0.960 . S
H526 C465 0.960 . S
H527 C465 0.961 . S
H528 C467 0.980 . S
H529 C466 0.961 . S
H530 C466 0.960 . S
H531 C466 0.959 . S
H532 C469 0.930 . S
H533 C473 0.931 . S
H534 C474 0.959 . S
H535 C474 0.961 . S
H536 C474 0.959 . S
H537 C475 0.960 . S
H538 C475 0.960 . S
H539 C475 0.960 . S
H540 C511 0.980 . S
H541 C477 0.930 . S
H542 C481 0.930 . S
H543 C482 0.961 . S
H544 C482 0.960 . S
H545 C482 0.958 . S
H546 C483 0.961 . S
H547 C483 0.960 . S
H548 C483 0.960 . S
H549 C485 0.980 . S
H550 C484 0.961 . S
H551 C484 0.961 . S
H552 C484 0.959 . S
H553 C487 0.932 . S
H554 C491 0.929 . S
H555 C492 0.961 . S
H556 C492 0.959 . S
H557 C492 0.959 . S
H558 C493 0.960 . S
H559 C493 0.962 1_545 S
H560 C493 0.961 . S
H561 C495 0.929 . S
H562 C498 0.930 . S
H563 C499 0.929 . S
H564 C502 0.930 . S
H565 C505 0.929 . S
H566 C506 0.930 . S
H567 C510 0.962 . S
H568 C510 0.959 . S
H569 C510 0.958 . S
C570 C571 1.560 . S
C570 H631 0.959 . S
C570 H632 0.959 . S
C570 H633 0.960 . S
C571 C570 1.560 . S
C571 O626 1.426 . S
C571 H630 0.980 . S
C572 C573 1.407 . S
C572 C577 1.418 . S
C572 O626 1.334 . S
C573 C572 1.407 . S
C573 C574 1.360 . S
C573 H634 0.929 . S
C574 C573 1.360 . S
C574 C575 1.401 . S
C574 C578 1.527 . S
C575 C574 1.401 . S
C575 C576 1.405 . S
C575 C608 1.587 . S
C576 C575 1.405 . S
C576 C577 1.332 . S
C576 C579 1.496 . S
C577 C572 1.418 . S
C577 C576 1.332 . S
C577 H635 0.929 . S
C578 C574 1.527 . S
C578 H636 0.959 . S
C578 H637 0.961 . S
C578 H638 0.961 . S
C579 C576 1.496 . S
C579 H639 0.960 . S
C579 H640 0.960 . S
C579 H641 0.961 . S
C580 C581 1.517 . S
C580 H643 0.961 . S
C580 H644 0.960 . S
C580 H645 0.959 . S
C581 C580 1.517 . S
C581 O629 1.468 . S
C581 H642 0.980 . S
C582 C583 1.349 . S
C582 C587 1.367 . S
C582 O629 1.408 . S
C583 C582 1.349 . S
C583 C584 1.407 . S
C583 H646 0.930 . S
C584 C583 1.407 . S
C584 C585 1.449 . S
C584 C588 1.535 . S
C585 C584 1.449 . S
C585 C586 1.384 . S
C585 C610 1.553 . S
C586 C585 1.384 . S
C586 C587 1.364 . S
C586 C589 1.450 . S
C587 C582 1.367 . S
C587 C586 1.364 . S
C587 H647 0.931 . S
C588 C584 1.535 . S
C588 H648 0.959 . S
C588 H649 0.961 . S
C588 H650 0.959 . S
C589 C586 1.450 . S
C589 H651 0.960 . S
C589 H652 0.960 . S
C589 H653 0.960 . S
C590 C591 1.309 . S
C590 C595 1.304 . S
C590 O628 1.435 . S
C591 C590 1.309 . S
C591 C592 1.476 . S
C591 H655 0.930 . S
C592 C591 1.476 . S
C592 C593 1.400 . S
C592 C596 1.567 . S
C593 C592 1.400 . S
C593 C594 1.373 . S
C593 C615 1.432 . S
C594 C593 1.373 . S
C594 C595 1.339 . S
C594 C597 1.530 . S
C595 C590 1.304 . S
C595 C594 1.339 . S
C595 H656 0.930 . S
C596 C592 1.567 . S
C596 H657 0.961 . S
C596 H658 0.960 . S
C596 H659 0.958 . S
C597 C594 1.530 . S
C597 H660 0.961 . S
C597 H661 0.960 . S
C597 H662 0.960 . S
C598 C599 1.530 . S
C598 H664 0.961 . S
C598 H665 0.961 . S
C598 H666 0.959 . S
C599 C598 1.530 . S
C599 O627 1.412 . S
C599 H663 0.980 . S
C600 C601 1.288 . S
C600 C605 1.377 . S
C600 O627 1.393 . S
C601 C600 1.288 . S
C601 C602 1.369 . S
C601 H667 0.932 . S
C602 C601 1.369 . S
C602 C603 1.398 . S
C602 C606 1.527 . S
C603 C602 1.398 . S
C603 C604 1.380 . S
C603 C617 1.497 . S
C604 C603 1.380 . S
C604 C605 1.383 . S
C604 C607 1.603 . S
C605 C600 1.377 . S
C605 C604 1.383 . S
C605 H668 0.929 . S
C606 C602 1.527 . S
C606 H669 0.961 . S
C606 H670 0.959 . S
C606 H671 0.959 . S
C607 C604 1.603 . S
C607 H672 0.960 . S
C607 H673 0.962 . S
C607 H674 0.961 . S
C608 C575 1.587 . S
C608 C609 1.360 . S
C608 C621 1.412 . S
C609 C608 1.360 . S
C609 C610 1.365 . S
C609 H675 0.929 . S
C610 C585 1.553 . S
C610 C609 1.365 . S
C610 C611 1.404 . S
C611 C610 1.404 . S
C611 C612 1.395 . S
C611 C622 1.451 . S
C612 C611 1.395 . S
C612 C613 1.322 . S
C612 H676 0.930 . S
C613 C612 1.322 . S
C613 C614 1.459 . S
C613 H677 0.929 . S
C614 C613 1.459 . S
C614 C615 1.445 . S
C614 C623 1.395 . S
C615 C593 1.432 . S
C615 C614 1.445 . S
C615 C616 1.370 . S
C616 C615 1.370 . S
C616 C617 1.438 . S
C616 H678 0.930 . S
C617 C603 1.497 . S
C617 C616 1.438 . S
C617 C618 1.360 . S
C618 C617 1.360 . S
C618 C619 1.401 . S
C618 C623 1.446 . S
C619 C618 1.401 . S
C619 C620 1.347 . S
C619 H679 0.929 . S
C620 C619 1.347 . S
C620 C621 1.455 . S
C620 H680 0.930 . S
C621 C608 1.412 . S
C621 C620 1.455 . S
C621 C622 1.331 . S
C622 C611 1.451 . S
C622 C621 1.331 . S
C622 C623 1.497 . S
C623 C614 1.395 . S
C623 C618 1.446 . S
C623 C622 1.497 . S
C624 C625 1.582 . S
C624 H681 0.962 . S
C624 H682 0.959 . S
C624 H683 0.958 . S
C625 C624 1.582 . S
C625 O628 1.458 . S
C625 H654 0.980 . S
O626 C571 1.426 . S
O626 C572 1.334 . S
O627 C599 1.412 . S
O627 C600 1.393 . S
O628 C590 1.435 . S
O628 C625 1.458 . S
O629 C581 1.468 . S
O629 C582 1.408 . S
H630 C571 0.980 . S
H631 C570 0.959 . S
H632 C570 0.959 . S
H633 C570 0.960 . S
H634 C573 0.929 . S
H635 C577 0.929 . S
H636 C578 0.959 . S
H637 C578 0.961 . S
H638 C578 0.961 . S
H639 C579 0.960 . S
H640 C579 0.960 . S
H641 C579 0.961 . S
H642 C581 0.980 . S
H643 C580 0.961 . S
H644 C580 0.960 . S
H645 C580 0.959 . S
H646 C583 0.930 . S
H647 C587 0.931 . S
H648 C588 0.959 . S
H649 C588 0.961 . S
H650 C588 0.959 . S
H651 C589 0.960 . S
H652 C589 0.960 . S
H653 C589 0.960 . S
H654 C625 0.980 . S
H655 C591 0.930 . S
H656 C595 0.930 . S
H657 C596 0.961 . S
H658 C596 0.960 . S
H659 C596 0.958 . S
H660 C597 0.961 . S
H661 C597 0.960 . S
H662 C597 0.960 . S
H663 C599 0.980 . S
H664 C598 0.961 . S
H665 C598 0.961 . S
H666 C598 0.959 . S
H667 C601 0.932 . S
H668 C605 0.929 . S
H669 C606 0.961 . S
H670 C606 0.959 . S
H671 C606 0.959 . S
H672 C607 0.960 . S
H673 C607 0.962 . S
H674 C607 0.961 . S
H675 C609 0.929 . S
H676 C612 0.930 . S
H677 C613 0.929 . S
H678 C616 0.930 . S
H679 C619 0.929 . S
H680 C620 0.930 . S
H681 C624 0.962 . S
H682 C624 0.959 . S
H683 C624 0.958 . S
Mn684 O689 2.095 . S
Mn684 O699 2.162 . S
Mn684 O700 2.297 . S
Mn684 O708 2.385 . S
Mn684 O709 2.209 . S
Mn684 O710 2.094 . S
Mn685 O690 2.121 . S
Mn685 N692 2.257 . S
Mn685 N701 2.282 . S
Mn685 O709 2.215 . S
Mn685 O711 2.117 . S
C686 O708 1.234 . S
C686 O709 1.283 . S
C687 O699 1.281 . S
C687 O700 1.236 . S
C688 O710 1.240 . S
C688 O711 1.264 . S
O689 Mn684 2.095 . S
O689 C698 1.250 . S
O690 Mn685 2.121 . S
O690 C698 1.258 . S
C691 N692 1.326 . S
C691 C695 1.460 . S
C691 H697 0.929 . S
N692 Mn685 2.257 . S
N692 C691 1.326 . S
N692 C696 1.362 . S
C693 C694 1.258 . S
C693 C696 1.431 . S
C693 C713 1.449 . S
C694 C693 1.258 . S
C694 C695 1.477 . S
C694 H714 0.931 . S
C695 C691 1.460 . S
C695 C694 1.477 . S
C695 H715 0.930 . S
C696 N692 1.362 . S
C696 C693 1.431 . S
C696 C706 1.476 . S
H697 C691 0.929 . S
C698 O689 1.250 . S
C698 O690 1.258 . S
O699 Mn684 2.162 . S
O699 C687 1.281 . S
O700 Mn684 2.297 . S
O700 C687 1.236 . S
N701 Mn685 2.282 . S
N701 C702 1.328 . S
N701 C706 1.318 . S
C702 N701 1.328 . S
C702 C703 1.457 . S
C702 H707 0.929 . S
C703 C702 1.457 . S
C703 C704 1.291 . S
C703 H716 0.931 . S
C704 C703 1.291 . S
C704 C705 1.373 . S
C704 H717 0.929 . S
C705 C704 1.373 . S
C705 C706 1.396 . S
C705 C712 1.403 . S
C706 C696 1.476 . S
C706 N701 1.318 . S
C706 C705 1.396 . S
H707 C702 0.929 . S
O708 Mn684 2.385 . S
O708 C686 1.234 . S
O709 Mn684 2.209 . S
O709 Mn685 2.215 . S
O709 C686 1.283 . S
O710 Mn684 2.094 . S
O710 C688 1.240 . S
O711 Mn685 2.117 . S
O711 C688 1.264 . S
C712 C705 1.403 . S
C712 C713 1.399 . S
C712 H718 0.929 . S
C713 C693 1.449 . S
C713 C712 1.399 . S
C713 H719 0.930 . S
H714 C694 0.931 . S
H715 C695 0.930 . S
H716 C703 0.931 . S
H717 C704 0.929 . S
H718 C712 0.929 . S
H719 C713 0.930 . S
Mn720 O725 2.095 . S
Mn720 O735 2.162 . S
Mn720 O736 2.297 . S
Mn720 O744 2.385 . S
Mn720 O745 2.209 . S
Mn720 O746 2.094 . S
Mn721 O726 2.121 . S
Mn721 N728 2.257 . S
Mn721 N737 2.282 . S
Mn721 O745 2.215 . S
Mn721 O747 2.117 . S
C722 O744 1.234 . S
C722 O745 1.283 . S
C723 O735 1.281 . S
C723 O736 1.236 . S
C724 O746 1.240 . S
C724 O747 1.264 . S
O725 Mn720 2.095 . S
O725 C734 1.250 . S
O726 Mn721 2.121 . S
O726 C734 1.258 . S
C727 N728 1.326 . S
C727 C731 1.460 . S
C727 H733 0.929 . S
N728 Mn721 2.257 . S
N728 C727 1.326 . S
N728 C732 1.362 . S
C729 C730 1.258 . S
C729 C732 1.431 . S
C729 C749 1.449 . S
C730 C729 1.258 . S
C730 C731 1.477 . S
C730 H750 0.931 . S
C731 C727 1.460 . S
C731 C730 1.477 . S
C731 H751 0.930 . S
C732 N728 1.362 . S
C732 C729 1.431 . S
C732 C742 1.476 . S
H733 C727 0.929 . S
C734 O725 1.250 . S
C734 O726 1.258 . S
O735 Mn720 2.162 . S
O735 C723 1.281 . S
O736 Mn720 2.297 . S
O736 C723 1.236 . S
N737 Mn721 2.282 . S
N737 C738 1.328 . S
N737 C742 1.318 . S
C738 N737 1.328 . S
C738 C739 1.457 . S
C738 H743 0.929 . S
C739 C738 1.457 . S
C739 C740 1.291 . S
C739 H752 0.931 . S
C740 C739 1.291 . S
C740 C741 1.373 . S
C740 H753 0.929 . S
C741 C740 1.373 . S
C741 C742 1.396 . S
C741 C748 1.403 . S
C742 C732 1.476 . S
C742 N737 1.318 . S
C742 C741 1.396 . S
H743 C738 0.929 . S
O744 Mn720 2.385 . S
O744 C722 1.234 . S
O745 Mn720 2.209 . S
O745 Mn721 2.215 . S
O745 C722 1.283 . S
O746 Mn720 2.094 . S
O746 C724 1.240 . S
O747 Mn721 2.117 . S
O747 C724 1.264 . S
C748 C741 1.403 . S
C748 C749 1.399 . S
C748 H754 0.929 . S
C749 C729 1.449 . S
C749 C748 1.399 . S
C749 H755 0.930 . S
H750 C730 0.931 . S
H751 C731 0.930 . S
H752 C739 0.931 . S
H753 C740 0.929 . S
H754 C748 0.929 . S
H755 C749 0.930 . S
Mn756 O761 2.095 . S
Mn756 O771 2.162 . S
Mn756 O772 2.297 . S
Mn756 O780 2.385 . S
Mn756 O781 2.209 . S
Mn756 O782 2.094 . S
Mn757 O762 2.121 . S
Mn757 N764 2.257 . S
Mn757 N773 2.282 . S
Mn757 O781 2.215 . S
Mn757 O783 2.117 . S
C758 O780 1.234 . S
C758 O781 1.283 . S
C759 O771 1.281 . S
C759 O772 1.236 . S
C760 O782 1.240 . S
C760 O783 1.264 . S
O761 Mn756 2.095 . S
O761 C770 1.250 . S
O762 Mn757 2.121 . S
O762 C770 1.258 . S
C763 N764 1.326 . S
C763 C767 1.460 . S
C763 H769 0.929 . S
N764 Mn757 2.257 . S
N764 C763 1.326 . S
N764 C768 1.362 . S
C765 C766 1.258 . S
C765 C768 1.431 . S
C765 C785 1.449 . S
C766 C765 1.258 . S
C766 C767 1.477 . S
C766 H786 0.931 . S
C767 C763 1.460 . S
C767 C766 1.477 . S
C767 H787 0.930 . S
C768 N764 1.362 . S
C768 C765 1.431 . S
C768 C778 1.476 . S
H769 C763 0.929 . S
C770 O761 1.250 . S
C770 O762 1.258 . S
O771 Mn756 2.162 . S
O771 C759 1.281 . S
O772 Mn756 2.297 . S
O772 C759 1.236 . S
N773 Mn757 2.282 . S
N773 C774 1.328 . S
N773 C778 1.318 . S
C774 N773 1.328 . S
C774 C775 1.457 . S
C774 H779 0.929 . S
C775 C774 1.457 . S
C775 C776 1.291 . S
C775 H788 0.931 . S
C776 C775 1.291 . S
C776 C777 1.373 . S
C776 H789 0.929 . S
C777 C776 1.373 . S
C777 C778 1.396 . S
C777 C784 1.403 . S
C778 C768 1.476 . S
C778 N773 1.318 . S
C778 C777 1.396 . S
H779 C774 0.929 . S
O780 Mn756 2.385 . S
O780 C758 1.234 . S
O781 Mn756 2.209 . S
O781 Mn757 2.215 . S
O781 C758 1.283 . S
O782 Mn756 2.094 . S
O782 C760 1.240 . S
O783 Mn757 2.117 . S
O783 C760 1.264 . S
C784 C777 1.403 . S
C784 C785 1.399 . S
C784 H790 0.929 . S
C785 C765 1.449 . S
C785 C784 1.399 . S
C785 H791 0.930 . S
H786 C766 0.931 . S
H787 C767 0.930 . S
H788 C775 0.931 . S
H789 C776 0.929 . S
H790 C784 0.929 . S
H791 C785 0.930 . S
Mn792 O797 2.095 . S
Mn792 O807 2.162 . S
Mn792 O808 2.297 . S
Mn792 O816 2.385 . S
Mn792 O817 2.209 . S
Mn792 O818 2.094 . S
Mn793 O798 2.121 . S
Mn793 N800 2.257 . S
Mn793 N809 2.282 . S
Mn793 O817 2.215 . S
Mn793 O819 2.117 . S
C794 O816 1.234 . S
C794 O817 1.283 . S
C795 O807 1.281 . S
C795 O808 1.236 . S
C796 O818 1.240 . S
C796 O819 1.264 . S
O797 Mn792 2.095 . S
O797 C806 1.250 . S
O798 Mn793 2.121 . S
O798 C806 1.258 . S
C799 N800 1.326 . S
C799 C803 1.460 . S
C799 H805 0.929 . S
N800 Mn793 2.257 . S
N800 C799 1.326 . S
N800 C804 1.362 . S
C801 C802 1.258 . S
C801 C804 1.431 . S
C801 C821 1.449 . S
C802 C801 1.258 . S
C802 C803 1.477 . S
C802 H822 0.931 . S
C803 C799 1.460 . S
C803 C802 1.477 . S
C803 H823 0.930 . S
C804 N800 1.362 . S
C804 C801 1.431 . S
C804 C814 1.476 . S
H805 C799 0.929 . S
C806 O797 1.250 . S
C806 O798 1.258 . S
O807 Mn792 2.162 . S
O807 C795 1.281 . S
O808 Mn792 2.297 . S
O808 C795 1.236 . S
N809 Mn793 2.282 . S
N809 C810 1.328 . S
N809 C814 1.318 . S
C810 N809 1.328 . S
C810 C811 1.457 . S
C810 H815 0.929 . S
C811 C810 1.457 . S
C811 C812 1.291 . S
C811 H824 0.931 . S
C812 C811 1.291 . S
C812 C813 1.373 . S
C812 H825 0.929 . S
C813 C812 1.373 . S
C813 C814 1.396 . S
C813 C820 1.403 . S
C814 C804 1.476 . S
C814 N809 1.318 . S
C814 C813 1.396 . S
H815 C810 0.929 . S
O816 Mn792 2.385 . S
O816 C794 1.234 . S
O817 Mn792 2.209 . S
O817 Mn793 2.215 . S
O817 C794 1.283 . S
O818 Mn792 2.094 . S
O818 C796 1.240 . S
O819 Mn793 2.117 . S
O819 C796 1.264 . S
C820 C813 1.403 . S
C820 C821 1.399 . S
C820 H826 0.929 . S
C821 C801 1.449 . S
C821 C820 1.399 . S
C821 H827 0.930 . S
H822 C802 0.931 . S
H823 C803 0.930 . S
H824 C811 0.931 . S
H825 C812 0.929 . S
H826 C820 0.929 . S
H827 C821 0.930 . S
Mn828 O833 2.095 . S
Mn828 O843 2.162 . S
Mn828 O844 2.297 . S
Mn828 O852 2.385 . S
Mn828 O853 2.209 . S
Mn828 O854 2.094 . S
Mn829 O834 2.121 . S
Mn829 N836 2.257 . S
Mn829 N845 2.282 . S
Mn829 O853 2.215 . S
Mn829 O855 2.117 . S
C830 O852 1.234 . S
C830 O853 1.283 . S
C831 O843 1.281 . S
C831 O844 1.236 . S
C832 O854 1.240 . S
C832 O855 1.264 . S
O833 Mn828 2.095 . S
O833 C842 1.250 . S
O834 Mn829 2.121 . S
O834 C842 1.258 . S
C835 N836 1.326 . S
C835 C839 1.460 . S
C835 H841 0.929 . S
N836 Mn829 2.257 . S
N836 C835 1.326 . S
N836 C840 1.362 . S
C837 C838 1.258 . S
C837 C840 1.431 . S
C837 C857 1.449 . S
C838 C837 1.258 . S
C838 C839 1.477 . S
C838 H858 0.931 . S
C839 C835 1.460 . S
C839 C838 1.477 . S
C839 H859 0.930 . S
C840 N836 1.362 . S
C840 C837 1.431 . S
C840 C850 1.476 . S
H841 C835 0.929 . S
C842 O833 1.250 . S
C842 O834 1.258 . S
O843 Mn828 2.162 . S
O843 C831 1.281 . S
O844 Mn828 2.297 . S
O844 C831 1.236 . S
N845 Mn829 2.282 . S
N845 C846 1.328 . S
N845 C850 1.318 . S
C846 N845 1.328 . S
C846 C847 1.457 . S
C846 H851 0.929 . S
C847 C846 1.457 . S
C847 C848 1.291 . S
C847 H860 0.931 . S
C848 C847 1.291 . S
C848 C849 1.373 . S
C848 H861 0.929 . S
C849 C848 1.373 . S
C849 C850 1.396 . S
C849 C856 1.403 . S
C850 C840 1.476 . S
C850 N845 1.318 . S
C850 C849 1.396 . S
H851 C846 0.929 . S
O852 Mn828 2.385 . S
O852 C830 1.234 . S
O853 Mn828 2.209 . S
O853 Mn829 2.215 . S
O853 C830 1.283 . S
O854 Mn828 2.094 . S
O854 C832 1.240 . S
O855 Mn829 2.117 . S
O855 C832 1.264 . S
C856 C849 1.403 . S
C856 C857 1.399 . S
C856 H862 0.929 . S
C857 C837 1.449 . S
C857 C856 1.399 . S
C857 H863 0.930 . S
H858 C838 0.931 . S
H859 C839 0.930 . S
H860 C847 0.931 . S
H861 C848 0.929 . S
H862 C856 0.929 . S
H863 C857 0.930 . S
Mn864 O869 2.095 . S
Mn864 O879 2.162 . S
Mn864 O880 2.297 . S
Mn864 O888 2.385 . S
Mn864 O889 2.209 . S
Mn864 O890 2.094 . S
Mn865 O870 2.121 . S
Mn865 N872 2.257 . S
Mn865 N881 2.282 . S
Mn865 O889 2.215 . S
Mn865 O891 2.117 . S
C866 O888 1.234 . S
C866 O889 1.283 . S
C867 O879 1.281 . S
C867 O880 1.236 . S
C868 O890 1.240 . S
C868 O891 1.264 . S
O869 Mn864 2.095 . S
O869 C878 1.250 . S
O870 Mn865 2.121 . S
O870 C878 1.258 . S
C871 N872 1.326 . S
C871 C875 1.460 . S
C871 H877 0.929 . S
N872 Mn865 2.257 . S
N872 C871 1.326 . S
N872 C876 1.362 . S
C873 C874 1.258 . S
C873 C876 1.431 . S
C873 C893 1.449 . S
C874 C873 1.258 . S
C874 C875 1.477 . S
C874 H894 0.931 . S
C875 C871 1.460 . S
C875 C874 1.477 . S
C875 H895 0.930 . S
C876 N872 1.362 . S
C876 C873 1.431 . S
C876 C886 1.476 . S
H877 C871 0.929 . S
C878 O869 1.250 . S
C878 O870 1.258 . S
O879 Mn864 2.162 . S
O879 C867 1.281 . S
O880 Mn864 2.297 . S
O880 C867 1.236 . S
N881 Mn865 2.282 . S
N881 C882 1.328 . S
N881 C886 1.318 . S
C882 N881 1.328 . S
C882 C883 1.457 . S
C882 H887 0.929 . S
C883 C882 1.457 . S
C883 C884 1.291 . S
C883 H896 0.931 . S
C884 C883 1.291 . S
C884 C885 1.373 . S
C884 H897 0.929 . S
C885 C884 1.373 . S
C885 C886 1.396 . S
C885 C892 1.403 . S
C886 C876 1.476 . S
C886 N881 1.318 . S
C886 C885 1.396 . S
H887 C882 0.929 . S
O888 Mn864 2.385 . S
O888 C866 1.234 . S
O889 Mn864 2.209 . S
O889 Mn865 2.215 . S
O889 C866 1.283 . S
O890 Mn864 2.094 . S
O890 C868 1.240 . S
O891 Mn865 2.117 . S
O891 C868 1.264 . S
C892 C885 1.403 . S
C892 C893 1.399 . S
C892 H898 0.929 . S
C893 C873 1.449 . S
C893 C892 1.399 . S
C893 H899 0.930 . S
H894 C874 0.931 . S
H895 C875 0.930 . S
H896 C883 0.931 . S
H897 C884 0.929 . S
H898 C892 0.929 . S
H899 C893 0.930 . S
C900 C901 1.349 . S
C900 C902 1.327 . S
C900 H925 0.950 . S
C901 C900 1.349 . S
C901 C917 1.349 . S
C902 C900 1.327 . S
C902 C921 1.429 . S
C902 H926 0.950 . S
C903 C920 1.574 . S
C903 C922 1.368 . S
C903 H927 0.949 . S
H904 C908 0.949 . S
C905 C906 1.349 . S
C905 C907 1.327 . S
C905 H928 0.950 . S
C906 C905 1.349 . S
C906 C918 1.349 . S
C907 C905 1.327 . S
C907 C923 1.429 . S
C907 H929 0.950 . S
C908 H904 0.949 . S
C908 C916 1.574 . S
C908 C924 1.368 . S
H909 C917 0.950 . S
H910 C915 0.950 . S
H911 C916 0.949 . S
H912 C918 0.950 . S
H913 C919 0.950 . S
H914 C920 0.949 . S
C915 H910 0.950 . S
C915 C917 1.327 . S
C915 C921 1.429 . S
C916 C908 1.574 . S
C916 H911 0.949 . S
C916 C922 1.368 . S
C917 C901 1.349 . S
C917 H909 0.950 . S
C917 C915 1.327 . S
C918 C906 1.349 . S
C918 H912 0.950 . S
C918 C919 1.327 . S
C919 H913 0.950 . S
C919 C918 1.327 . S
C919 C923 1.429 . S
C920 C903 1.574 . S
C920 H914 0.949 . S
C920 C924 1.368 . S
C921 C902 1.429 . S
C921 C915 1.429 . S
C921 C922 1.523 . S
C922 C903 1.368 . S
C922 C916 1.368 . S
C922 C921 1.523 . S
C923 C907 1.429 . S
C923 C919 1.429 . S
C923 C924 1.523 . S
C924 C908 1.368 . S
C924 C920 1.368 . S
C924 C923 1.523 . S
H925 C900 0.950 . S
H926 C902 0.950 . S
H927 C903 0.949 . S
H928 C905 0.950 . S
H929 C907 0.950 . S
C930 C931 1.349 . S
C930 C932 1.327 . S
C930 H955 0.950 . S
C931 C930 1.349 . S
C931 C947 1.349 . S
C932 C930 1.327 . S
C932 C951 1.429 . S
C932 H956 0.950 . S
C933 C950 1.574 . S
C933 C952 1.368 . S
C933 H957 0.949 . S
H934 C938 0.949 . S
C935 C936 1.349 . S
C935 C937 1.327 . S
C935 H958 0.950 . S
C936 C935 1.349 . S
C936 C948 1.349 . S
C937 C935 1.327 . S
C937 C953 1.429 . S
C937 H959 0.950 . S
C938 H934 0.949 . S
C938 C946 1.574 . S
C938 C954 1.368 . S
H939 C947 0.950 . S
H940 C945 0.950 . S
H941 C946 0.949 . S
H942 C948 0.950 . S
H943 C949 0.950 . S
H944 C950 0.949 . S
C945 H940 0.950 . S
C945 C947 1.327 . S
C945 C951 1.429 . S
C946 C938 1.574 . S
C946 H941 0.949 . S
C946 C952 1.368 . S
C947 C931 1.349 . S
C947 H939 0.950 . S
C947 C945 1.327 . S
C948 C936 1.349 . S
C948 H942 0.950 . S
C948 C949 1.327 . S
C949 H943 0.950 . S
C949 C948 1.327 . S
C949 C953 1.429 . S
C950 C933 1.574 . S
C950 H944 0.949 . S
C950 C954 1.368 . S
C951 C932 1.429 . S
C951 C945 1.429 . S
C951 C952 1.523 . S
C952 C933 1.368 . S
C952 C946 1.368 . S
C952 C951 1.523 . S
C953 C937 1.429 . S
C953 C949 1.429 . S
C953 C954 1.523 . S
C954 C938 1.368 . S
C954 C950 1.368 . S
C954 C953 1.523 . S
H955 C930 0.950 . S
H956 C932 0.950 . S
H957 C933 0.949 . S
H958 C935 0.950 . S
H959 C937 0.950 . S
C960 C961 1.349 . S
C960 C962 1.327 . S
C960 H985 0.950 . S
C961 C960 1.349 . S
C961 C977 1.349 . S
C962 C960 1.327 . S
C962 C981 1.429 . S
C962 H986 0.950 . S
C963 C980 1.574 . S
C963 C982 1.368 . S
C963 H987 0.949 . S
H964 C968 0.949 . S
C965 C966 1.349 . S
C965 C967 1.327 . S
C965 H988 0.950 . S
C966 C965 1.349 . S
C966 C978 1.349 . S
C967 C965 1.327 . S
C967 C983 1.429 . S
C967 H989 0.950 . S
C968 H964 0.949 . S
C968 C976 1.574 . S
C968 C984 1.368 . S
H969 C977 0.950 . S
H970 C975 0.950 . S
H971 C976 0.949 . S
H972 C978 0.950 . S
H973 C979 0.950 . S
H974 C980 0.949 . S
C975 H970 0.950 . S
C975 C977 1.327 . S
C975 C981 1.429 . S
C976 C968 1.574 . S
C976 H971 0.949 . S
C976 C982 1.368 . S
C977 C961 1.349 . S
C977 H969 0.950 . S
C977 C975 1.327 . S
C978 C966 1.349 . S
C978 H972 0.950 . S
C978 C979 1.327 . S
C979 H973 0.950 . S
C979 C978 1.327 . S
C979 C983 1.429 . S
C980 C963 1.574 . S
C980 H974 0.949 . S
C980 C984 1.368 . S
C981 C962 1.429 . S
C981 C975 1.429 . S
C981 C982 1.523 . S
C982 C963 1.368 . S
C982 C976 1.368 . S
C982 C981 1.523 . S
C983 C967 1.429 . S
C983 C979 1.429 . S
C983 C984 1.523 . S
C984 C968 1.368 . S
C984 C980 1.368 . S
C984 C983 1.523 . S
H985 C960 0.950 . S
H986 C962 0.950 . S
H987 C963 0.949 . S
H988 C965 0.950 . S
H989 C967 0.950 . S
C990 C991 1.349 . S
C990 C992 1.327 . S
C990 H1015 0.950 . S
C991 C990 1.349 . S
C991 C1007 1.349 . S
C992 C990 1.327 . S
C992 C1011 1.429 . S
C992 H1016 0.950 . S
C993 C1010 1.574 . S
C993 C1012 1.368 . S
C993 H1017 0.949 . S
H994 C998 0.949 . S
C995 C996 1.349 . S
C995 C997 1.327 . S
C995 H1018 0.950 . S
C996 C995 1.349 . S
C996 C1008 1.349 . S
C997 C995 1.327 . S
C997 C1013 1.429 . S
C997 H1019 0.950 . S
C998 H994 0.949 . S
C998 C1006 1.574 . S
C998 C1014 1.368 . S
H999 C1007 0.950 . S
H1000 C1005 0.950 . S
H1001 C1006 0.949 . S
H1002 C1008 0.950 . S
H1003 C1009 0.950 . S
H1004 C1010 0.949 . S
C1005 H1000 0.950 . S
C1005 C1007 1.327 . S
C1005 C1011 1.429 . S
C1006 C998 1.574 . S
C1006 H1001 0.949 . S
C1006 C1012 1.368 . S
C1007 C991 1.349 . S
C1007 H999 0.950 . S
C1007 C1005 1.327 . S
C1008 C996 1.349 . S
C1008 H1002 0.950 . S
C1008 C1009 1.327 . S
C1009 H1003 0.950 . S
C1009 C1008 1.327 . S
C1009 C1013 1.429 . S
C1010 C993 1.574 . S
C1010 H1004 0.949 . S
C1010 C1014 1.368 . S
C1011 C992 1.429 . S
C1011 C1005 1.429 . S
C1011 C1012 1.523 . S
C1012 C993 1.368 . S
C1012 C1006 1.368 . S
C1012 C1011 1.523 . S
C1013 C997 1.429 . S
C1013 C1009 1.429 . S
C1013 C1014 1.523 . S
C1014 C998 1.368 . S
C1014 C1010 1.368 . S
C1014 C1013 1.523 . S
H1015 C990 0.950 . S
H1016 C992 0.950 . S
H1017 C993 0.949 . S
H1018 C995 0.950 . S
H1019 C997 0.950 . S
C1020 C1021 1.349 . S
C1020 C1022 1.327 . S
C1020 H1045 0.950 . S
C1021 C1020 1.349 . S
C1021 C1037 1.349 . S
C1022 C1020 1.327 . S
C1022 C1041 1.429 . S
C1022 H1046 0.950 . S
C1023 C1040 1.574 . S
C1023 C1042 1.368 . S
C1023 H1047 0.949 . S
H1024 C1028 0.949 . S
C1025 C1026 1.349 . S
C1025 C1027 1.327 . S
C1025 H1048 0.950 . S
C1026 C1025 1.349 . S
C1026 C1038 1.349 . S
C1027 C1025 1.327 . S
C1027 C1043 1.429 . S
C1027 H1049 0.950 . S
C1028 H1024 0.949 . S
C1028 C1036 1.574 . S
C1028 C1044 1.368 . S
H1029 C1037 0.950 . S
H1030 C1035 0.950 . S
H1031 C1036 0.949 . S
H1032 C1038 0.950 . S
H1033 C1039 0.950 . S
H1034 C1040 0.949 . S
C1035 H1030 0.950 . S
C1035 C1037 1.327 . S
C1035 C1041 1.429 . S
C1036 C1028 1.574 . S
C1036 H1031 0.949 . S
C1036 C1042 1.368 . S
C1037 C1021 1.349 . S
C1037 H1029 0.950 . S
C1037 C1035 1.327 . S
C1038 C1026 1.349 . S
C1038 H1032 0.950 . S
C1038 C1039 1.327 . S
C1039 H1033 0.950 . S
C1039 C1038 1.327 . S
C1039 C1043 1.429 . S
C1040 C1023 1.574 . S
C1040 H1034 0.949 . S
C1040 C1044 1.368 . S
C1041 C1022 1.429 . S
C1041 C1035 1.429 . S
C1041 C1042 1.523 . S
C1042 C1023 1.368 . S
C1042 C1036 1.368 . S
C1042 C1041 1.523 . S
C1043 C1027 1.429 . S
C1043 C1039 1.429 . S
C1043 C1044 1.523 . S
C1044 C1028 1.368 . S
C1044 C1040 1.368 . S
C1044 C1043 1.523 . S
H1045 C1020 0.950 . S
H1046 C1022 0.950 . S
H1047 C1023 0.949 . S
H1048 C1025 0.950 . S
H1049 C1027 0.950 . S
C1050 C1051 1.349 . S
C1050 C1052 1.327 . S
C1050 H1075 0.950 . S
C1051 C1050 1.349 . S
C1051 C1067 1.349 . S
C1052 C1050 1.327 . S
C1052 C1071 1.429 . S
C1052 H1076 0.950 . S
C1053 C1070 1.574 . S
C1053 C1072 1.368 . S
C1053 H1077 0.949 . S
H1054 C1058 0.949 . S
C1055 C1056 1.349 . S
C1055 C1057 1.327 . S
C1055 H1078 0.950 . S
C1056 C1055 1.349 . S
C1056 C1068 1.349 . S
C1057 C1055 1.327 . S
C1057 C1073 1.429 . S
C1057 H1079 0.950 . S
C1058 H1054 0.949 . S
C1058 C1066 1.574 . S
C1058 C1074 1.368 . S
H1059 C1067 0.950 . S
H1060 C1065 0.950 . S
H1061 C1066 0.949 . S
H1062 C1068 0.950 . S
H1063 C1069 0.950 . S
H1064 C1070 0.949 . S
C1065 H1060 0.950 . S
C1065 C1067 1.327 . S
C1065 C1071 1.429 . S
C1066 C1058 1.574 . S
C1066 H1061 0.949 . S
C1066 C1072 1.368 . S
C1067 C1051 1.349 . S
C1067 H1059 0.950 . S
C1067 C1065 1.327 . S
C1068 C1056 1.349 . S
C1068 H1062 0.950 . S
C1068 C1069 1.327 . S
C1069 H1063 0.950 . S
C1069 C1068 1.327 . S
C1069 C1073 1.429 . S
C1070 C1053 1.574 . S
C1070 H1064 0.949 . S
C1070 C1074 1.368 . S
C1071 C1052 1.429 . S
C1071 C1065 1.429 . S
C1071 C1072 1.523 . S
C1072 C1053 1.368 . S
C1072 C1066 1.368 . S
C1072 C1071 1.523 . S
C1073 C1057 1.429 . S
C1073 C1069 1.429 . S
C1073 C1074 1.523 . S
C1074 C1058 1.368 . S
C1074 C1070 1.368 . S
C1074 C1073 1.523 . S
H1075 C1050 0.950 . S
H1076 C1052 0.950 . S
H1077 C1053 0.949 . S
H1078 C1055 0.950 . S
H1079 C1057 0.950 . S
C1080 C1081 1.349 . S
C1080 C1082 1.327 . S
C1080 H1105 0.950 . S
C1081 C1080 1.349 . S
C1081 C1097 1.349 . S
C1082 C1080 1.327 . S
C1082 C1101 1.429 . S
C1082 H1106 0.950 . S
C1083 C1100 1.574 . S
C1083 C1102 1.368 . S
C1083 H1107 0.949 . S
H1084 C1088 0.949 . S
C1085 C1086 1.349 . S
C1085 C1087 1.327 . S
C1085 H1108 0.950 . S
C1086 C1085 1.349 . S
C1086 C1098 1.349 . S
C1087 C1085 1.327 . S
C1087 C1103 1.429 . S
C1087 H1109 0.950 . S
C1088 H1084 0.949 . S
C1088 C1096 1.574 . S
C1088 C1104 1.368 . S
H1089 C1097 0.950 . S
H1090 C1095 0.950 . S
H1091 C1096 0.949 . S
H1092 C1098 0.950 . S
H1093 C1099 0.950 . S
H1094 C1100 0.949 . S
C1095 H1090 0.950 . S
C1095 C1097 1.327 . S
C1095 C1101 1.429 . S
C1096 C1088 1.574 . S
C1096 H1091 0.949 . S
C1096 C1102 1.368 . S
C1097 C1081 1.349 . S
C1097 H1089 0.950 . S
C1097 C1095 1.327 . S
C1098 C1086 1.349 . S
C1098 H1092 0.950 . S
C1098 C1099 1.327 . S
C1099 H1093 0.950 . S
C1099 C1098 1.327 . S
C1099 C1103 1.429 . S
C1100 C1083 1.574 . S
C1100 H1094 0.949 . S
C1100 C1104 1.368 . S
C1101 C1082 1.429 . S
C1101 C1095 1.429 . S
C1101 C1102 1.523 . S
C1102 C1083 1.368 . S
C1102 C1096 1.368 . S
C1102 C1101 1.523 . S
C1103 C1087 1.429 . S
C1103 C1099 1.429 . S
C1103 C1104 1.523 . S
C1104 C1088 1.368 . S
C1104 C1100 1.368 . S
C1104 C1103 1.523 . S
H1105 C1080 0.950 . S
H1106 C1082 0.950 . S
H1107 C1083 0.949 . S
H1108 C1085 0.950 . S
H1109 C1087 0.950 . S
C1110 C1111 1.349 . S
C1110 C1112 1.327 . S
C1110 H1135 0.950 . S
C1111 C1110 1.349 . S
C1111 C1127 1.349 . S
C1112 C1110 1.327 . S
C1112 C1131 1.429 . S
C1112 H1136 0.950 . S
C1113 C1130 1.574 . S
C1113 C1132 1.368 . S
C1113 H1137 0.949 . S
H1114 C1118 0.949 . S
C1115 C1116 1.349 . S
C1115 C1117 1.327 . S
C1115 H1138 0.950 . S
C1116 C1115 1.349 . S
C1116 C1128 1.349 . S
C1117 C1115 1.327 . S
C1117 C1133 1.429 . S
C1117 H1139 0.950 . S
C1118 H1114 0.949 . S
C1118 C1126 1.574 . S
C1118 C1134 1.368 . S
H1119 C1127 0.950 . S
H1120 C1125 0.950 . S
H1121 C1126 0.949 . S
H1122 C1128 0.950 . S
H1123 C1129 0.950 . S
H1124 C1130 0.949 . S
C1125 H1120 0.950 . S
C1125 C1127 1.327 . S
C1125 C1131 1.429 . S
C1126 C1118 1.574 . S
C1126 H1121 0.949 . S
C1126 C1132 1.368 . S
C1127 C1111 1.349 . S
C1127 H1119 0.950 . S
C1127 C1125 1.327 . S
C1128 C1116 1.349 . S
C1128 H1122 0.950 . S
C1128 C1129 1.327 . S
C1129 H1123 0.950 . S
C1129 C1128 1.327 . S
C1129 C1133 1.429 . S
C1130 C1113 1.574 . S
C1130 H1124 0.949 . S
C1130 C1134 1.368 . S
C1131 C1112 1.429 . S
C1131 C1125 1.429 . S
C1131 C1132 1.523 . S
C1132 C1113 1.368 . S
C1132 C1126 1.368 . S
C1132 C1131 1.523 . S
C1133 C1117 1.429 . S
C1133 C1129 1.429 . S
C1133 C1134 1.523 . S
C1134 C1118 1.368 . S
C1134 C1130 1.368 . S
C1134 C1133 1.523 . S
H1135 C1110 0.950 . S
H1136 C1112 0.950 . S
H1137 C1113 0.949 . S
H1138 C1115 0.950 . S
H1139 C1117 0.950 . S
C1140 C1141 1.349 . S
C1140 C1142 1.327 . S
C1140 H1165 0.950 . S
C1141 C1140 1.349 . S
C1141 C1157 1.349 . S
C1142 C1140 1.327 . S
C1142 C1161 1.429 . S
C1142 H1166 0.950 . S
C1143 C1160 1.574 . S
C1143 C1162 1.368 . S
C1143 H1167 0.949 . S
H1144 C1148 0.949 . S
C1145 C1146 1.349 . S
C1145 C1147 1.327 . S
C1145 H1168 0.950 . S
C1146 C1145 1.349 . S
C1146 C1158 1.349 . S
C1147 C1145 1.327 . S
C1147 C1163 1.429 . S
C1147 H1169 0.950 . S
C1148 H1144 0.949 . S
C1148 C1156 1.574 . S
C1148 C1164 1.368 . S
H1149 C1157 0.950 . S
H1150 C1155 0.950 . S
H1151 C1156 0.949 . S
H1152 C1158 0.950 . S
H1153 C1159 0.950 . S
H1154 C1160 0.949 . S
C1155 H1150 0.950 . S
C1155 C1157 1.327 . S
C1155 C1161 1.429 . S
C1156 C1148 1.574 . S
C1156 H1151 0.949 . S
C1156 C1162 1.368 . S
C1157 C1141 1.349 . S
C1157 H1149 0.950 . S
C1157 C1155 1.327 . S
C1158 C1146 1.349 . S
C1158 H1152 0.950 . S
C1158 C1159 1.327 . S
C1159 H1153 0.950 . S
C1159 C1158 1.327 . S
C1159 C1163 1.429 . S
C1160 C1143 1.574 . S
C1160 H1154 0.949 . S
C1160 C1164 1.368 . S
C1161 C1142 1.429 . S
C1161 C1155 1.429 . S
C1161 C1162 1.523 . S
C1162 C1143 1.368 . S
C1162 C1156 1.368 . S
C1162 C1161 1.523 . S
C1163 C1147 1.429 . S
C1163 C1159 1.429 . S
C1163 C1164 1.523 . S
C1164 C1148 1.368 . S
C1164 C1160 1.368 . S
C1164 C1163 1.523 . S
H1165 C1140 0.950 . S
H1166 C1142 0.950 . S
H1167 C1143 0.949 . S
H1168 C1145 0.950 . S
H1169 C1147 0.950 . S
C1170 C1171 1.349 . S
C1170 C1172 1.327 . S
C1170 H1195 0.950 . S
C1171 C1170 1.349 . S
C1171 C1187 1.349 . S
C1172 C1170 1.327 . S
C1172 C1191 1.429 . S
C1172 H1196 0.950 . S
C1173 C1190 1.574 . S
C1173 C1192 1.368 . S
C1173 H1197 0.949 . S
H1174 C1178 0.949 . S
C1175 C1176 1.349 . S
C1175 C1177 1.327 . S
C1175 H1198 0.950 . S
C1176 C1175 1.349 . S
C1176 C1188 1.349 . S
C1177 C1175 1.327 . S
C1177 C1193 1.429 . S
C1177 H1199 0.950 . S
C1178 H1174 0.949 . S
C1178 C1186 1.574 . S
C1178 C1194 1.368 . S
H1179 C1187 0.950 . S
H1180 C1185 0.950 . S
H1181 C1186 0.949 . S
H1182 C1188 0.950 . S
H1183 C1189 0.950 . S
H1184 C1190 0.949 . S
C1185 H1180 0.950 . S
C1185 C1187 1.327 . S
C1185 C1191 1.429 . S
C1186 C1178 1.574 . S
C1186 H1181 0.949 . S
C1186 C1192 1.368 . S
C1187 C1171 1.349 . S
C1187 H1179 0.950 . S
C1187 C1185 1.327 . S
C1188 C1176 1.349 . S
C1188 H1182 0.950 . S
C1188 C1189 1.327 . S
C1189 H1183 0.950 . S
C1189 C1188 1.327 . S
C1189 C1193 1.429 . S
C1190 C1173 1.574 . S
C1190 H1184 0.949 . S
C1190 C1194 1.368 . S
C1191 C1172 1.429 . S
C1191 C1185 1.429 . S
C1191 C1192 1.523 . S
C1192 C1173 1.368 . S
C1192 C1186 1.368 . S
C1192 C1191 1.523 . S
C1193 C1177 1.429 . S
C1193 C1189 1.429 . S
C1193 C1194 1.523 . S
C1194 C1178 1.368 . S
C1194 C1190 1.368 . S
C1194 C1193 1.523 . S
H1195 C1170 0.950 . S
H1196 C1172 0.950 . S
H1197 C1173 0.949 . S
H1198 C1175 0.950 . S
H1199 C1177 0.950 . S
C1200 C1201 1.349 . S
C1200 C1202 1.327 . S
C1200 H1225 0.950 . S
C1201 C1200 1.349 . S
C1201 C1217 1.349 . S
C1202 C1200 1.327 . S
C1202 C1221 1.429 . S
C1202 H1226 0.950 . S
C1203 C1220 1.574 . S
C1203 C1222 1.368 . S
C1203 H1227 0.949 . S
H1204 C1208 0.949 . S
C1205 C1206 1.349 . S
C1205 C1207 1.327 . S
C1205 H1228 0.950 . S
C1206 C1205 1.349 . S
C1206 C1218 1.349 . S
C1207 C1205 1.327 . S
C1207 C1223 1.429 . S
C1207 H1229 0.950 . S
C1208 H1204 0.949 . S
C1208 C1216 1.574 . S
C1208 C1224 1.368 . S
H1209 C1217 0.950 . S
H1210 C1215 0.950 . S
H1211 C1216 0.949 . S
H1212 C1218 0.950 . S
H1213 C1219 0.950 . S
H1214 C1220 0.949 . S
C1215 H1210 0.950 . S
C1215 C1217 1.327 . S
C1215 C1221 1.429 . S
C1216 C1208 1.574 . S
C1216 H1211 0.949 . S
C1216 C1222 1.368 . S
C1217 C1201 1.349 . S
C1217 H1209 0.950 . S
C1217 C1215 1.327 . S
C1218 C1206 1.349 . S
C1218 H1212 0.950 . S
C1218 C1219 1.327 . S
C1219 H1213 0.950 . S
C1219 C1218 1.327 . S
C1219 C1223 1.429 . S
C1220 C1203 1.574 . S
C1220 H1214 0.949 . S
C1220 C1224 1.368 . S
C1221 C1202 1.429 . S
C1221 C1215 1.429 . S
C1221 C1222 1.523 . S
C1222 C1203 1.368 . S
C1222 C1216 1.368 . S
C1222 C1221 1.523 . S
C1223 C1207 1.429 . S
C1223 C1219 1.429 . S
C1223 C1224 1.523 . S
C1224 C1208 1.368 . S
C1224 C1220 1.368 . S
C1224 C1223 1.523 . S
H1225 C1200 0.950 . S
H1226 C1202 0.950 . S
H1227 C1203 0.949 . S
H1228 C1205 0.950 . S
H1229 C1207 0.950 . S
C1230 C1231 1.349 . S
C1230 C1232 1.327 . S
C1230 H1255 0.950 . S
C1231 C1230 1.349 . S
C1231 C1247 1.349 . S
C1232 C1230 1.327 . S
C1232 C1251 1.429 . S
C1232 H1256 0.950 . S
C1233 C1250 1.574 . S
C1233 C1252 1.368 . S
C1233 H1257 0.949 . S
H1234 C1238 0.949 . S
C1235 C1236 1.349 . S
C1235 C1237 1.327 . S
C1235 H1258 0.950 . S
C1236 C1235 1.349 . S
C1236 C1248 1.349 . S
C1237 C1235 1.327 . S
C1237 C1253 1.429 . S
C1237 H1259 0.950 . S
C1238 H1234 0.949 . S
C1238 C1246 1.574 . S
C1238 C1254 1.368 . S
H1239 C1247 0.950 . S
H1240 C1245 0.950 . S
H1241 C1246 0.949 . S
H1242 C1248 0.950 . S
H1243 C1249 0.950 . S
H1244 C1250 0.949 . S
C1245 H1240 0.950 . S
C1245 C1247 1.327 . S
C1245 C1251 1.429 . S
C1246 C1238 1.574 . S
C1246 H1241 0.949 . S
C1246 C1252 1.368 . S
C1247 C1231 1.349 . S
C1247 H1239 0.950 . S
C1247 C1245 1.327 . S
C1248 C1236 1.349 . S
C1248 H1242 0.950 . S
C1248 C1249 1.327 . S
C1249 H1243 0.950 . S
C1249 C1248 1.327 . S
C1249 C1253 1.429 . S
C1250 C1233 1.574 . S
C1250 H1244 0.949 . S
C1250 C1254 1.368 . S
C1251 C1232 1.429 . S
C1251 C1245 1.429 . S
C1251 C1252 1.523 . S
C1252 C1233 1.368 . S
C1252 C1246 1.368 . S
C1252 C1251 1.523 . S
C1253 C1237 1.429 . S
C1253 C1249 1.429 . S
C1253 C1254 1.523 . S
C1254 C1238 1.368 . S
C1254 C1250 1.368 . S
C1254 C1253 1.523 . S
H1255 C1230 0.950 . S
H1256 C1232 0.950 . S
H1257 C1233 0.949 . S
H1258 C1235 0.950 . S
H1259 C1237 0.950 . S
C1260 C1261 1.349 . S
C1260 C1262 1.327 . S
C1260 H1285 0.950 . S
C1261 C1260 1.349 . S
C1261 C1277 1.349 . S
C1262 C1260 1.327 . S
C1262 C1281 1.429 . S
C1262 H1286 0.950 . S
C1263 C1280 1.574 . S
C1263 C1282 1.368 . S
C1263 H1287 0.949 . S
H1264 C1268 0.949 . S
C1265 C1266 1.349 . S
C1265 C1267 1.327 . S
C1265 H1288 0.950 . S
C1266 C1265 1.349 . S
C1266 C1278 1.349 . S
C1267 C1265 1.327 . S
C1267 C1283 1.429 . S
C1267 H1289 0.950 . S
C1268 H1264 0.949 . S
C1268 C1276 1.574 . S
C1268 C1284 1.368 . S
H1269 C1277 0.950 . S
H1270 C1275 0.950 . S
H1271 C1276 0.949 . S
H1272 C1278 0.950 . S
H1273 C1279 0.950 . S
H1274 C1280 0.949 . S
C1275 H1270 0.950 . S
C1275 C1277 1.327 . S
C1275 C1281 1.429 . S
C1276 C1268 1.574 . S
C1276 H1271 0.949 . S
C1276 C1282 1.368 . S
C1277 C1261 1.349 . S
C1277 H1269 0.950 . S
C1277 C1275 1.327 . S
C1278 C1266 1.349 . S
C1278 H1272 0.950 . S
C1278 C1279 1.327 . S
C1279 H1273 0.950 . S
C1279 C1278 1.327 . S
C1279 C1283 1.429 . S
C1280 C1263 1.574 . S
C1280 H1274 0.949 . S
C1280 C1284 1.368 . S
C1281 C1262 1.429 . S
C1281 C1275 1.429 . S
C1281 C1282 1.523 . S
C1282 C1263 1.368 . S
C1282 C1276 1.368 . S
C1282 C1281 1.523 . S
C1283 C1267 1.429 . S
C1283 C1279 1.429 . S
C1283 C1284 1.523 . S
C1284 C1268 1.368 . S
C1284 C1280 1.368 . S
C1284 C1283 1.523 . S
H1285 C1260 0.950 . S
H1286 C1262 0.950 . S
H1287 C1263 0.949 . S
H1288 C1265 0.950 . S
H1289 C1267 0.950 . S
C1290 C1291 1.349 . S
C1290 C1292 1.327 . S
C1290 H1315 0.950 . S
C1291 C1290 1.349 . S
C1291 C1307 1.349 . S
C1292 C1290 1.327 . S
C1292 C1311 1.429 . S
C1292 H1316 0.950 . S
C1293 C1310 1.574 . S
C1293 C1312 1.368 . S
C1293 H1317 0.949 . S
H1294 C1298 0.949 . S
C1295 C1296 1.349 . S
C1295 C1297 1.327 . S
C1295 H1318 0.950 . S
C1296 C1295 1.349 . S
C1296 C1308 1.349 . S
C1297 C1295 1.327 . S
C1297 C1313 1.429 . S
C1297 H1319 0.950 . S
C1298 H1294 0.949 . S
C1298 C1306 1.574 . S
C1298 C1314 1.368 . S
H1299 C1307 0.950 . S
H1300 C1305 0.950 . S
H1301 C1306 0.949 . S
H1302 C1308 0.950 . S
H1303 C1309 0.950 . S
H1304 C1310 0.949 . S
C1305 H1300 0.950 . S
C1305 C1307 1.327 . S
C1305 C1311 1.429 . S
C1306 C1298 1.574 . S
C1306 H1301 0.949 . S
C1306 C1312 1.368 . S
C1307 C1291 1.349 . S
C1307 H1299 0.950 . S
C1307 C1305 1.327 . S
C1308 C1296 1.349 . S
C1308 H1302 0.950 . S
C1308 C1309 1.327 . S
C1309 H1303 0.950 . S
C1309 C1308 1.327 . S
C1309 C1313 1.429 . S
C1310 C1293 1.574 . S
C1310 H1304 0.949 . S
C1310 C1314 1.368 . S
C1311 C1292 1.429 . S
C1311 C1305 1.429 . S
C1311 C1312 1.523 . S
C1312 C1293 1.368 . S
C1312 C1306 1.368 . S
C1312 C1311 1.523 . S
C1313 C1297 1.429 . S
C1313 C1309 1.429 . S
C1313 C1314 1.523 . S
C1314 C1298 1.368 . S
C1314 C1310 1.368 . S
C1314 C1313 1.523 . S
H1315 C1290 0.950 . S
H1316 C1292 0.950 . S
H1317 C1293 0.949 . S
H1318 C1295 0.950 . S
H1319 C1297 0.950 . S
C1320 C1321 1.349 . S
C1320 C1322 1.327 . S
C1320 H1345 0.950 . S
C1321 C1320 1.349 . S
C1321 C1337 1.349 . S
C1322 C1320 1.327 . S
C1322 C1341 1.429 . S
C1322 H1346 0.950 . S
C1323 C1340 1.574 . S
C1323 C1342 1.368 . S
C1323 H1347 0.949 . S
H1324 C1328 0.949 . S
C1325 C1326 1.349 . S
C1325 C1327 1.327 . S
C1325 H1348 0.950 . S
C1326 C1325 1.349 . S
C1326 C1338 1.349 . S
C1327 C1325 1.327 . S
C1327 C1343 1.429 . S
C1327 H1349 0.950 . S
C1328 H1324 0.949 . S
C1328 C1336 1.574 . S
C1328 C1344 1.368 . S
H1329 C1337 0.950 . S
H1330 C1335 0.950 . S
H1331 C1336 0.949 . S
H1332 C1338 0.950 . S
H1333 C1339 0.950 . S
H1334 C1340 0.949 . S
C1335 H1330 0.950 . S
C1335 C1337 1.327 . S
C1335 C1341 1.429 . S
C1336 C1328 1.574 . S
C1336 H1331 0.949 . S
C1336 C1342 1.368 . S
C1337 C1321 1.349 . S
C1337 H1329 0.950 . S
C1337 C1335 1.327 . S
C1338 C1326 1.349 . S
C1338 H1332 0.950 . S
C1338 C1339 1.327 . S
C1339 H1333 0.950 . S
C1339 C1338 1.327 . S
C1339 C1343 1.429 . S
C1340 C1323 1.574 . S
C1340 H1334 0.949 . S
C1340 C1344 1.368 . S
C1341 C1322 1.429 . S
C1341 C1335 1.429 . S
C1341 C1342 1.523 . S
C1342 C1323 1.368 . S
C1342 C1336 1.368 . S
C1342 C1341 1.523 . S
C1343 C1327 1.429 . S
C1343 C1339 1.429 . S
C1343 C1344 1.523 . S
C1344 C1328 1.368 . S
C1344 C1340 1.368 . S
C1344 C1343 1.523 . S
H1345 C1320 0.950 . S
H1346 C1322 0.950 . S
H1347 C1323 0.949 . S
H1348 C1325 0.950 . S
H1349 C1327 0.950 . S
C1350 C1351 1.349 . S
C1350 C1352 1.327 . S
C1350 H1375 0.950 . S
C1351 C1350 1.349 . S
C1351 C1367 1.349 . S
C1352 C1350 1.327 . S
C1352 C1371 1.429 . S
C1352 H1376 0.950 . S
C1353 C1370 1.574 . S
C1353 C1372 1.368 . S
C1353 H1377 0.949 . S
H1354 C1358 0.949 . S
C1355 C1356 1.349 . S
C1355 C1357 1.327 . S
C1355 H1378 0.950 . S
C1356 C1355 1.349 . S
C1356 C1368 1.349 . S
C1357 C1355 1.327 . S
C1357 C1373 1.429 . S
C1357 H1379 0.950 . S
C1358 H1354 0.949 . S
C1358 C1366 1.574 . S
C1358 C1374 1.368 . S
H1359 C1367 0.950 . S
H1360 C1365 0.950 . S
H1361 C1366 0.949 . S
H1362 C1368 0.950 . S
H1363 C1369 0.950 . S
H1364 C1370 0.949 . S
C1365 H1360 0.950 . S
C1365 C1367 1.327 . S
C1365 C1371 1.429 . S
C1366 C1358 1.574 . S
C1366 H1361 0.949 . S
C1366 C1372 1.368 . S
C1367 C1351 1.349 . S
C1367 H1359 0.950 . S
C1367 C1365 1.327 . S
C1368 C1356 1.349 . S
C1368 H1362 0.950 . S
C1368 C1369 1.327 . S
C1369 H1363 0.950 . S
C1369 C1368 1.327 . S
C1369 C1373 1.429 . S
C1370 C1353 1.574 . S
C1370 H1364 0.949 . S
C1370 C1374 1.368 . S
C1371 C1352 1.429 . S
C1371 C1365 1.429 . S
C1371 C1372 1.523 . S
C1372 C1353 1.368 . S
C1372 C1366 1.368 . S
C1372 C1371 1.523 . S
C1373 C1357 1.429 . S
C1373 C1369 1.429 . S
C1373 C1374 1.523 1_554 S
C1374 C1358 1.368 . S
C1374 C1370 1.368 . S
C1374 C1373 1.523 1_556 S
H1375 C1350 0.950 . S
H1376 C1352 0.950 . S
H1377 C1353 0.949 . S
H1378 C1355 0.950 . S
H1379 C1357 0.950 . S
C1380 C1381 1.349 . S
C1380 C1382 1.327 . S
C1380 H1405 0.950 . S
C1381 C1380 1.349 . S
C1381 C1397 1.349 . S
C1382 C1380 1.327 . S
C1382 C1401 1.429 . S
C1382 H1406 0.950 . S
C1383 C1400 1.574 . S
C1383 C1402 1.368 . S
C1383 H1407 0.949 . S
H1384 C1388 0.949 . S
C1385 C1386 1.349 . S
C1385 C1387 1.327 . S
C1385 H1408 0.950 . S
C1386 C1385 1.349 . S
C1386 C1398 1.349 . S
C1387 C1385 1.327 . S
C1387 C1403 1.429 . S
C1387 H1409 0.950 . S
C1388 H1384 0.949 . S
C1388 C1396 1.574 . S
C1388 C1404 1.368 . S
H1389 C1397 0.950 . S
H1390 C1395 0.950 . S
H1391 C1396 0.949 . S
H1392 C1398 0.950 . S
H1393 C1399 0.950 . S
H1394 C1400 0.949 . S
C1395 H1390 0.950 . S
C1395 C1397 1.327 . S
C1395 C1401 1.429 . S
C1396 C1388 1.574 . S
C1396 H1391 0.949 . S
C1396 C1402 1.368 . S
C1397 C1381 1.349 . S
C1397 H1389 0.950 . S
C1397 C1395 1.327 . S
C1398 C1386 1.349 . S
C1398 H1392 0.950 . S
C1398 C1399 1.327 . S
C1399 H1393 0.950 . S
C1399 C1398 1.327 . S
C1399 C1403 1.429 . S
C1400 C1383 1.574 . S
C1400 H1394 0.949 . S
C1400 C1404 1.368 . S
C1401 C1382 1.429 . S
C1401 C1395 1.429 . S
C1401 C1402 1.523 . S
C1402 C1383 1.368 . S
C1402 C1396 1.368 . S
C1402 C1401 1.523 . S
C1403 C1387 1.429 . S
C1403 C1399 1.429 . S
C1403 C1404 1.523 . S
C1404 C1388 1.368 . S
C1404 C1400 1.368 . S
C1404 C1403 1.523 . S
H1405 C1380 0.950 . S
H1406 C1382 0.950 . S
H1407 C1383 0.949 . S
H1408 C1385 0.950 . S
H1409 C1387 0.950 . S
C1410 C1411 1.349 . S
C1410 C1412 1.327 . S
C1410 H1435 0.950 . S
C1411 C1410 1.349 . S
C1411 C1427 1.349 . S
C1412 C1410 1.327 . S
C1412 C1431 1.429 . S
C1412 H1436 0.950 . S
C1413 C1430 1.574 . S
C1413 C1432 1.368 . S
C1413 H1437 0.949 . S
H1414 C1418 0.949 . S
C1415 C1416 1.349 . S
C1415 C1417 1.327 . S
C1415 H1438 0.950 . S
C1416 C1415 1.349 . S
C1416 C1428 1.349 . S
C1417 C1415 1.327 . S
C1417 C1433 1.429 . S
C1417 H1439 0.950 . S
C1418 H1414 0.949 . S
C1418 C1426 1.574 . S
C1418 C1434 1.368 . S
H1419 C1427 0.950 . S
H1420 C1425 0.950 . S
H1421 C1426 0.949 . S
H1422 C1428 0.950 . S
H1423 C1429 0.950 . S
H1424 C1430 0.949 . S
C1425 H1420 0.950 . S
C1425 C1427 1.327 . S
C1425 C1431 1.429 . S
C1426 C1418 1.574 . S
C1426 H1421 0.949 . S
C1426 C1432 1.368 . S
C1427 C1411 1.349 . S
C1427 H1419 0.950 . S
C1427 C1425 1.327 . S
C1428 C1416 1.349 . S
C1428 H1422 0.950 . S
C1428 C1429 1.327 . S
C1429 H1423 0.950 . S
C1429 C1428 1.327 . S
C1429 C1433 1.429 . S
C1430 C1413 1.574 . S
C1430 H1424 0.949 . S
C1430 C1434 1.368 . S
C1431 C1412 1.429 . S
C1431 C1425 1.429 . S
C1431 C1432 1.523 . S
C1432 C1413 1.368 . S
C1432 C1426 1.368 . S
C1432 C1431 1.523 . S
C1433 C1417 1.429 . S
C1433 C1429 1.429 . S
C1433 C1434 1.523 . S
C1434 C1418 1.368 . S
C1434 C1430 1.368 . S
C1434 C1433 1.523 . S
H1435 C1410 0.950 . S
H1436 C1412 0.950 . S
H1437 C1413 0.949 . S
H1438 C1415 0.950 . S
H1439 C1417 0.950 . S
C1440 C1441 1.349 . S
C1440 C1442 1.327 . S
C1440 H1465 0.950 . S
C1441 C1440 1.349 . S
C1441 C1457 1.349 . S
C1442 C1440 1.327 . S
C1442 C1461 1.429 . S
C1442 H1466 0.950 . S
C1443 C1460 1.574 . S
C1443 C1462 1.368 . S
C1443 H1467 0.949 . S
H1444 C1448 0.949 . S
C1445 C1446 1.349 . S
C1445 C1447 1.327 . S
C1445 H1468 0.950 . S
C1446 C1445 1.349 . S
C1446 C1458 1.349 . S
C1447 C1445 1.327 . S
C1447 C1463 1.429 . S
C1447 H1469 0.950 . S
C1448 H1444 0.949 . S
C1448 C1456 1.574 . S
C1448 C1464 1.368 . S
H1449 C1457 0.950 . S
H1450 C1455 0.950 . S
H1451 C1456 0.949 . S
H1452 C1458 0.950 . S
H1453 C1459 0.950 . S
H1454 C1460 0.949 . S
C1455 H1450 0.950 . S
C1455 C1457 1.327 . S
C1455 C1461 1.429 . S
C1456 C1448 1.574 . S
C1456 H1451 0.949 . S
C1456 C1462 1.368 . S
C1457 C1441 1.349 . S
C1457 H1449 0.950 . S
C1457 C1455 1.327 . S
C1458 C1446 1.349 . S
C1458 H1452 0.950 . S
C1458 C1459 1.327 . S
C1459 H1453 0.950 . S
C1459 C1458 1.327 . S
C1459 C1463 1.429 . S
C1460 C1443 1.574 . S
C1460 H1454 0.949 . S
C1460 C1464 1.368 . S
C1461 C1442 1.429 . S
C1461 C1455 1.429 . S
C1461 C1462 1.523 . S
C1462 C1443 1.368 . S
C1462 C1456 1.368 . S
C1462 C1461 1.523 . S
C1463 C1447 1.429 . S
C1463 C1459 1.429 . S
C1463 C1464 1.523 . S
C1464 C1448 1.368 . S
C1464 C1460 1.368 . S
C1464 C1463 1.523 . S
H1465 C1440 0.950 . S
H1466 C1442 0.950 . S
H1467 C1443 0.949 . S
H1468 C1445 0.950 . S
H1469 C1447 0.950 . S
C1470 C1471 1.349 . S
C1470 C1472 1.327 . S
C1470 H1495 0.950 . S
C1471 C1470 1.349 . S
C1471 C1487 1.349 . S
C1472 C1470 1.327 . S
C1472 C1491 1.429 . S
C1472 H1496 0.950 . S
C1473 C1490 1.574 . S
C1473 C1492 1.368 . S
C1473 H1497 0.949 . S
H1474 C1478 0.949 . S
C1475 C1476 1.349 . S
C1475 C1477 1.327 . S
C1475 H1498 0.950 . S
C1476 C1475 1.349 . S
C1476 C1488 1.349 . S
C1477 C1475 1.327 . S
C1477 C1493 1.429 . S
C1477 H1499 0.950 . S
C1478 H1474 0.949 . S
C1478 C1486 1.574 . S
C1478 C1494 1.368 . S
H1479 C1487 0.950 . S
H1480 C1485 0.950 . S
H1481 C1486 0.949 . S
H1482 C1488 0.950 . S
H1483 C1489 0.950 . S
H1484 C1490 0.949 . S
C1485 H1480 0.950 . S
C1485 C1487 1.327 . S
C1485 C1491 1.429 . S
C1486 C1478 1.574 . S
C1486 H1481 0.949 . S
C1486 C1492 1.368 . S
C1487 C1471 1.349 . S
C1487 H1479 0.950 . S
C1487 C1485 1.327 . S
C1488 C1476 1.349 . S
C1488 H1482 0.950 . S
C1488 C1489 1.327 . S
C1489 H1483 0.950 . S
C1489 C1488 1.327 . S
C1489 C1493 1.429 . S
C1490 C1473 1.574 . S
C1490 H1484 0.949 . S
C1490 C1494 1.368 . S
C1491 C1472 1.429 . S
C1491 C1485 1.429 . S
C1491 C1492 1.523 . S
C1492 C1473 1.368 . S
C1492 C1486 1.368 . S
C1492 C1491 1.523 . S
C1493 C1477 1.429 . S
C1493 C1489 1.429 . S
C1493 C1494 1.523 . S
C1494 C1478 1.368 . S
C1494 C1490 1.368 . S
C1494 C1493 1.523 . S
H1495 C1470 0.950 . S
H1496 C1472 0.950 . S
H1497 C1473 0.949 . S
H1498 C1475 0.950 . S
H1499 C1477 0.950 . S
C1500 C1501 1.349 . S
C1500 C1502 1.327 . S
C1500 H1525 0.950 . S
C1501 C1500 1.349 . S
C1501 C1517 1.349 . S
C1502 C1500 1.327 . S
C1502 C1521 1.429 . S
C1502 H1526 0.950 . S
C1503 C1520 1.574 . S
C1503 C1522 1.368 . S
C1503 H1527 0.949 . S
H1504 C1508 0.949 . S
C1505 C1506 1.349 . S
C1505 C1507 1.327 . S
C1505 H1528 0.950 . S
C1506 C1505 1.349 . S
C1506 C1518 1.349 . S
C1507 C1505 1.327 . S
C1507 C1523 1.429 . S
C1507 H1529 0.950 . S
C1508 H1504 0.949 . S
C1508 C1516 1.574 . S
C1508 C1524 1.368 . S
H1509 C1517 0.950 . S
H1510 C1515 0.950 . S
H1511 C1516 0.949 . S
H1512 C1518 0.950 . S
H1513 C1519 0.950 . S
H1514 C1520 0.949 . S
C1515 H1510 0.950 . S
C1515 C1517 1.327 . S
C1515 C1521 1.429 . S
C1516 C1508 1.574 . S
C1516 H1511 0.949 . S
C1516 C1522 1.368 . S
C1517 C1501 1.349 . S
C1517 H1509 0.950 . S
C1517 C1515 1.327 . S
C1518 C1506 1.349 . S
C1518 H1512 0.950 . S
C1518 C1519 1.327 . S
C1519 H1513 0.950 . S
C1519 C1518 1.327 . S
C1519 C1523 1.429 . S
C1520 C1503 1.574 . S
C1520 H1514 0.949 . S
C1520 C1524 1.368 . S
C1521 C1502 1.429 . S
C1521 C1515 1.429 . S
C1521 C1522 1.523 . S
C1522 C1503 1.368 . S
C1522 C1516 1.368 . S
C1522 C1521 1.523 . S
C1523 C1507 1.429 . S
C1523 C1519 1.429 . S
C1523 C1524 1.523 . S
C1524 C1508 1.368 . S
C1524 C1520 1.368 . S
C1524 C1523 1.523 . S
H1525 C1500 0.950 . S
H1526 C1502 0.950 . S
H1527 C1503 0.949 . S
H1528 C1505 0.950 . S
H1529 C1507 0.950 . S
C1530 C1531 1.349 . S
C1530 C1532 1.327 . S
C1530 H1555 0.950 . S
C1531 C1530 1.349 . S
C1531 C1547 1.349 . S
C1532 C1530 1.327 . S
C1532 C1551 1.429 . S
C1532 H1556 0.950 . S
C1533 C1550 1.574 . S
C1533 C1552 1.368 . S
C1533 H1557 0.949 . S
H1534 C1538 0.949 . S
C1535 C1536 1.349 . S
C1535 C1537 1.327 . S
C1535 H1558 0.950 . S
C1536 C1535 1.349 . S
C1536 C1548 1.349 . S
C1537 C1535 1.327 . S
C1537 C1553 1.429 . S
C1537 H1559 0.950 . S
C1538 H1534 0.949 . S
C1538 C1546 1.574 . S
C1538 C1554 1.368 . S
H1539 C1547 0.950 . S
H1540 C1545 0.950 . S
H1541 C1546 0.949 . S
H1542 C1548 0.950 . S
H1543 C1549 0.950 . S
H1544 C1550 0.949 . S
C1545 H1540 0.950 . S
C1545 C1547 1.327 . S
C1545 C1551 1.429 . S
C1546 C1538 1.574 . S
C1546 H1541 0.949 . S
C1546 C1552 1.368 . S
C1547 C1531 1.349 . S
C1547 H1539 0.950 . S
C1547 C1545 1.327 . S
C1548 C1536 1.349 . S
C1548 H1542 0.950 . S
C1548 C1549 1.327 . S
C1549 H1543 0.950 . S
C1549 C1548 1.327 . S
C1549 C1553 1.429 . S
C1550 C1533 1.574 . S
C1550 H1544 0.949 . S
C1550 C1554 1.368 . S
C1551 C1532 1.429 . S
C1551 C1545 1.429 . S
C1551 C1552 1.523 . S
C1552 C1533 1.368 . S
C1552 C1546 1.368 . S
C1552 C1551 1.523 . S
C1553 C1537 1.429 . S
C1553 C1549 1.429 . S
C1553 C1554 1.523 . S
C1554 C1538 1.368 . S
C1554 C1550 1.368 . S
C1554 C1553 1.523 . S
H1555 C1530 0.950 . S
H1556 C1532 0.950 . S
H1557 C1533 0.949 . S
H1558 C1535 0.950 . S
H1559 C1537 0.950 . S
C1560 C1561 1.349 . S
C1560 C1562 1.327 . S
C1560 H1585 0.950 . S
C1561 C1560 1.349 . S
C1561 C1577 1.349 . S
C1562 C1560 1.327 . S
C1562 C1581 1.429 . S
C1562 H1586 0.950 . S
C1563 C1580 1.574 1_554 S
C1563 C1582 1.368 . S
C1563 H1587 0.949 . S
H1564 C1568 0.949 . S
C1565 C1566 1.349 . S
C1565 C1567 1.327 . S
C1565 H1588 0.950 . S
C1566 C1565 1.349 . S
C1566 C1578 1.349 . S
C1567 C1565 1.327 . S
C1567 C1583 1.429 . S
C1567 H1589 0.950 . S
C1568 H1564 0.949 . S
C1568 C1576 1.574 1_556 S
C1568 C1584 1.368 . S
H1569 C1577 0.950 . S
H1570 C1575 0.950 . S
H1571 C1576 0.949 . S
H1572 C1578 0.950 . S
H1573 C1579 0.950 . S
H1574 C1580 0.949 . S
C1575 H1570 0.950 . S
C1575 C1577 1.327 . S
C1575 C1581 1.429 . S
C1576 C1568 1.574 1_554 S
C1576 H1571 0.949 . S
C1576 C1582 1.368 . S
C1577 C1561 1.349 . S
C1577 H1569 0.950 . S
C1577 C1575 1.327 . S
C1578 C1566 1.349 . S
C1578 H1572 0.950 . S
C1578 C1579 1.327 . S
C1579 H1573 0.950 . S
C1579 C1578 1.327 . S
C1579 C1583 1.429 . S
C1580 C1563 1.574 1_556 S
C1580 H1574 0.949 . S
C1580 C1584 1.368 . S
C1581 C1562 1.429 . S
C1581 C1575 1.429 . S
C1581 C1582 1.523 . S
C1582 C1563 1.368 . S
C1582 C1576 1.368 . S
C1582 C1581 1.523 . S
C1583 C1567 1.429 . S
C1583 C1579 1.429 . S
C1583 C1584 1.523 . S
C1584 C1568 1.368 . S
C1584 C1580 1.368 . S
C1584 C1583 1.523 . S
H1585 C1560 0.950 . S
H1586 C1562 0.950 . S
H1587 C1563 0.949 . S
H1588 C1565 0.950 . S
H1589 C1567 0.950 . S
C1590 C1591 1.349 . S
C1590 C1592 1.327 . S
C1590 H1615 0.950 . S
C1591 C1590 1.349 . S
C1591 C1607 1.349 . S
C1592 C1590 1.327 . S
C1592 C1611 1.429 . S
C1592 H1616 0.950 . S
C1593 C1610 1.574 . S
C1593 C1612 1.368 . S
C1593 H1617 0.949 . S
H1594 C1598 0.949 . S
C1595 C1596 1.349 . S
C1595 C1597 1.327 . S
C1595 H1618 0.950 . S
C1596 C1595 1.349 . S
C1596 C1608 1.349 . S
C1597 C1595 1.327 . S
C1597 C1613 1.429 . S
C1597 H1619 0.950 . S
C1598 H1594 0.949 . S
C1598 C1606 1.574 . S
C1598 C1614 1.368 . S
H1599 C1607 0.950 . S
H1600 C1605 0.950 . S
H1601 C1606 0.949 . S
H1602 C1608 0.950 . S
H1603 C1609 0.950 . S
H1604 C1610 0.949 . S
C1605 H1600 0.950 . S
C1605 C1607 1.327 . S
C1605 C1611 1.429 . S
C1606 C1598 1.574 . S
C1606 H1601 0.949 . S
C1606 C1612 1.368 . S
C1607 C1591 1.349 . S
C1607 H1599 0.950 . S
C1607 C1605 1.327 . S
C1608 C1596 1.349 . S
C1608 H1602 0.950 . S
C1608 C1609 1.327 . S
C1609 H1603 0.950 . S
C1609 C1608 1.327 . S
C1609 C1613 1.429 . S
C1610 C1593 1.574 . S
C1610 H1604 0.949 . S
C1610 C1614 1.368 . S
C1611 C1592 1.429 . S
C1611 C1605 1.429 . S
C1611 C1612 1.523 . S
C1612 C1593 1.368 . S
C1612 C1606 1.368 . S
C1612 C1611 1.523 . S
C1613 C1597 1.429 . S
C1613 C1609 1.429 . S
C1613 C1614 1.523 . S
C1614 C1598 1.368 . S
C1614 C1610 1.368 . S
C1614 C1613 1.523 . S
H1615 C1590 0.950 . S
H1616 C1592 0.950 . S
H1617 C1593 0.949 . S
H1618 C1595 0.950 . S
H1619 C1597 0.950 . S
C906 C867 1.637 . S
C901 C1 1.214 . S
C931 C169 1.514 . S
C936 C687 1.824 . S
C961 C283 1.450 . S
C966 C734 1.770 . S
C991 C397 1.240 . S
C996 C770 1.530 . S
C1026 C795 1.444 . S
C1021 C457 1.082 . S
C1051 C571 1.102 . S
C1056 C831 1.468 . S
C1081 C115 1.246 . S
C1086 C723 1.666 . S
C1111 C229 1.098 . S
C1116 C759 1.486 . S
C1141 C343 1.063 . S
C1146 C806 1.386 . S
C1176 C842 1.606 . S
C1171 C511 1.308 . S
C1206 C878 1.745 . S
C1201 C625 1.434 . S
C1236 C698 1.811 . S
C1231 C55 1.499 . S
C1261 C29 1.117 . S
C1266 C722 1.390 . S
C1291 C125 0.960 . S
C1296 C758 1.524 . S
C1326 C796 1.468 . S
C1321 C239 0.917 . S
C1351 C353 0.910 . S
C1356 C832 1.453 . S
C1386 C868 1.332 . S
C1381 C485 1.061 . S
C1416 C688 1.383 . S
C1411 C599 1.103 . S
C1446 C866 1.390 . S
C1441 C143 1.121 . S
C1471 C257 1.106 . S
C1476 C686 1.380 . S
C1506 C724 1.328 . S
C1501 C371 1.073 . S
C1531 C467 0.914 . S
C1536 C760 1.459 . S
C1561 C581 0.913 . S
C1566 C794 1.479 . S
C1591 C11 0.948 . S
C1596 C830 1.522 . S
