# Generated by pormake.
# Topology anh, (6,3)-cn, num edge types: 1
# Building blocks:
#     Node 0, Type 0, BuildingBlock: BETDEL_clean_sbu_0, # of connection points: 6
#     Node 1, Type 0, BuildingBlock: BETDEL_clean_sbu_0, # of connection points: 6
#     Node 2, Type 0, BuildingBlock: BETDEL_clean_sbu_0, # of connection points: 6
#     Node 3, Type 1, BuildingBlock: QEWDON_clean_linker_0, # of connection points: 3
#     Node 4, Type 1, BuildingBlock: QEWDON_clean_linker_0, # of connection points: 3
#     Node 5, Type 1, BuildingBlock: QEWDON_clean_linker_0, # of connection points: 3
#     Node 6, Type 1, BuildingBlock: QEWDON_clean_linker_0, # of connection points: 3
#     Node 7, Type 1, BuildingBlock: QEWDON_clean_linker_0, # of connection points: 3
#     Node 8, Type 1, BuildingBlock: QEWDON_clean_linker_0, # of connection points: 3
#     Edge 9, Type (0, 1), BuildingBlock: MIFKUJ_clean_linker_0, # of connection points: 2
#     Edge 10, Type (0, 1), BuildingBlock: MIFKUJ_clean_linker_0, # of connection points: 2
#     Edge 11, Type (0, 1), BuildingBlock: MIFKUJ_clean_linker_0, # of connection points: 2
#     Edge 12, Type (0, 1), BuildingBlock: MIFKUJ_clean_linker_0, # of connection points: 2
#     Edge 13, Type (0, 1), BuildingBlock: MIFKUJ_clean_linker_0, # of connection points: 2
#     Edge 14, Type (0, 1), BuildingBlock: MIFKUJ_clean_linker_0, # of connection points: 2
#     Edge 15, Type (0, 1), BuildingBlock: MIFKUJ_clean_linker_0, # of connection points: 2
#     Edge 16, Type (0, 1), BuildingBlock: MIFKUJ_clean_linker_0, # of connection points: 2
#     Edge 17, Type (0, 1), BuildingBlock: MIFKUJ_clean_linker_0, # of connection points: 2
#     Edge 18, Type (0, 1), BuildingBlock: MIFKUJ_clean_linker_0, # of connection points: 2
#     Edge 19, Type (0, 1), BuildingBlock: MIFKUJ_clean_linker_0, # of connection points: 2
#     Edge 20, Type (0, 1), BuildingBlock: MIFKUJ_clean_linker_0, # of connection points: 2
#     Edge 21, Type (0, 1), BuildingBlock: MIFKUJ_clean_linker_0, # of connection points: 2
#     Edge 22, Type (0, 1), BuildingBlock: MIFKUJ_clean_linker_0, # of connection points: 2
#     Edge 23, Type (0, 1), BuildingBlock: MIFKUJ_clean_linker_0, # of connection points: 2
#     Edge 24, Type (0, 1), BuildingBlock: MIFKUJ_clean_linker_0, # of connection points: 2
#     Edge 25, Type (0, 1), BuildingBlock: MIFKUJ_clean_linker_0, # of connection points: 2
#     Edge 26, Type (0, 1), BuildingBlock: MIFKUJ_clean_linker_0, # of connection points: 2
# Relax obj value: 0.088
# Max RMSD: 0.136
# Mean RMSD: 0.129
data_MOF--net-anh--node1-BETDEL_clean_sbu_0--node2-QEWDON_clean_linker_0--edge1-MIFKUJ_clean_linker_0
_symmetry_space_group_name_H-M    P1
_symmetry_Int_Tables_number       1
_symmetry_cell_setting            triclinic
loop_
_symmetry_equiv_pos_as_xyz
'x, y, z'
_cell_length_a     40.498994
_cell_length_b     40.58823
_cell_length_c     61.30925
_cell_angle_alpha  93.742075
_cell_angle_beta   93.968854
_cell_angle_gamma 119.87275
loop_
_atom_site_label
_atom_site_type_symbol
_atom_site_fract_x
_atom_site_fract_y
_atom_site_fract_z
_atom_type_partial_charge
Dy0 Dy 0.0759 0.52807 0.16168 0.0
C1 C 0.9862 0.59213 0.18407 0.0
C2 C 0.12491 0.50832 0.14557 0.0
Dy3 Dy 0.0336 0.56971 0.16819 0.0
O4 O 0.10492 0.49326 0.16156 0.0
O5 O 0.1171 0.53308 0.13811 0.0
O6 O 0.06882 0.50981 0.19538 0.0
O7 O 0.07393 0.56273 0.18967 0.0
C8 C 0.06666 0.53894 0.20347 0.0
C9 C 0.0412 0.55613 0.12593 0.0
O10 O 0.09231 0.62164 0.17475 0.0
O11 O 0.12319 0.59016 0.16254 0.0
O12 O 1.00254 0.60239 0.16629 0.0
O13 O 0.99649 0.57034 0.1933 0.0
O14 O 0.03971 0.5858 0.13368 0.0
O15 O 0.03458 0.53362 0.14036 0.0
O16 O 0.0161 0.47671 0.15547 0.0
O17 O 0.98789 0.5087 0.17082 0.0
C18 C 0.12356 0.62224 0.16906 0.0
C19 C 0.98632 0.47639 0.16354 0.0
Dy20 Dy 0.47613 0.02506 0.49871 0.0
C21 C 0.63545 0.11605 0.51653 0.0
C22 C 0.40005 0.97274 0.49322 0.0
Dy23 Dy 0.56057 0.06768 0.50124 0.0
O24 O 0.42072 0.98915 0.5119 0.0
O25 O 0.42072 0.98583 0.4772 0.0
O26 O 0.48285 0.05439 0.53252 0.0
O27 O 0.52182 0.03728 0.52438 0.0
C28 C 0.51332 0.05336 0.53935 0.0
C29 C 0.5373 0.05644 0.45832 0.0
O30 O 0.55356 0.00962 0.50422 0.0
O31 O 0.48742 0.9758 0.49647 0.0
O32 O 0.62271 0.08714 0.50147 0.0
O33 O 0.60673 0.11715 0.52398 0.0
O34 O 0.57268 0.07358 0.46688 0.0
O35 O 0.51474 0.04487 0.47309 0.0
O36 O 0.48159 0.08077 0.49197 0.0
O37 O 0.54604 0.11492 0.50487 0.0
C38 C 0.52055 0.97676 0.50042 0.0
C39 C 0.51346 0.1137 0.4983 0.0
Dy40 Dy 0.62218 0.56866 0.8317 0.0
C41 C 0.56978 0.41283 0.84995 0.0
C42 C 0.64965 0.63892 0.81857 0.0
Dy43 Dy 0.58555 0.47956 0.83459 0.0
O44 O 0.66217 0.6321 0.83685 0.0
O45 O 0.62314 0.60728 0.80736 0.0
O46 O 0.60547 0.57668 0.86476 0.0
O47 O 0.61679 0.53215 0.85735 0.0
C48 C 0.60444 0.54637 0.87127 0.0
C49 C 0.58666 0.49557 0.79234 0.0
O50 O 0.53672 0.48907 0.84165 0.0
O51 O 0.55841 0.54618 0.82591 0.0
O52 O 0.54827 0.41621 0.83454 0.0
O53 O 0.59889 0.44609 0.85738 0.0
O54 O 0.5736 0.46098 0.79745 0.0
O55 O 0.59804 0.51738 0.80994 0.0
O56 O 0.67468 0.56248 0.83017 0.0
O57 O 0.64722 0.49686 0.83281 0.0
C58 C 0.53113 0.51614 0.83409 0.0
C59 C 0.6772 0.53106 0.8312 0.0
H60 H 0.55941 0.08559 0.21785 0.0
C61 C 0.53795 0.05703 0.21059 0.0
C62 C 0.51209 0.0315 0.22394 0.0
C63 C 0.53448 0.04648 0.18773 0.0
H64 H 0.46389 0.97514 0.22493 0.0
C65 C 0.48358 0.99485 0.21459 0.0
C66 C 0.47929 0.9832 0.19214 0.0
C67 C 0.50476 1.00902 0.17874 0.0
C68 C 0.55949 0.07511 0.17295 0.0
H69 H 0.50143 0.99962 0.16139 0.0
C70 C 0.59842 0.10431 0.17974 0.0
C71 C 0.62055 0.1301 0.16491 0.0
C72 C 0.54348 0.07367 0.15151 0.0
H73 H 0.51371 0.05328 0.1458 0.0
C74 C 0.56514 0.09898 0.13707 0.0
H75 H 0.61173 0.10644 0.19611 0.0
C76 C 0.60323 0.1267 0.14361 0.0
H77 H 0.6192 0.14605 0.13198 0.0
H78 H 0.55219 0.09723 0.12067 0.0
H79 H 0.52737 0.5668 0.55761 0.0
C80 C 0.52545 0.5412 0.54976 0.0
C81 C 0.53524 0.51889 0.56257 0.0
C82 C 0.51236 0.53011 0.52702 0.0
H83 H 0.53656 0.46613 0.56188 0.0
C84 C 0.53135 0.48491 0.55229 0.0
C85 C 0.51967 0.47364 0.52979 0.0
C86 C 0.51044 0.49632 0.51718 0.0
C87 C 0.49838 0.55208 0.51389 0.0
H88 H 0.50204 0.48748 0.4997 0.0
C89 C 0.51199 0.59191 0.51924 0.0
C90 C 0.49641 0.61057 0.50704 0.0
C91 C 0.46924 0.53224 0.49609 0.0
H92 H 0.45657 0.50178 0.49176 0.0
C93 C 0.45473 0.55092 0.48385 0.0
H94 H 0.53429 0.6084 0.53274 0.0
C95 C 0.46807 0.58963 0.48927 0.0
H96 H 0.45581 0.60329 0.47969 0.0
H97 H 0.43243 0.53505 0.47025 0.0
H98 H 0.12727 0.53261 0.89078 0.0
C99 C 0.10108 0.53045 0.8834 0.0
C100 C 0.07438 0.52968 0.89719 0.0
C101 C 0.0953 0.53141 0.86051 0.0
H102 H 0.02139 0.52932 0.89897 0.0
C103 C 0.04156 0.52949 0.88816 0.0
C104 C 0.03438 0.52983 0.86555 0.0
C105 C 0.06076 0.52962 0.85171 0.0
C106 C 0.12694 0.53898 0.84631 0.0
H107 H 0.05494 0.52963 0.83421 0.0
C108 C 0.15406 0.52658 0.85035 0.0
C109 C 0.18394 0.53572 0.83674 0.0
C110 C 0.1314 0.56129 0.82886 0.0
H111 H 0.11292 0.57298 0.82563 0.0
C112 C 0.16063 0.57033 0.81565 0.0
H113 H 0.15165 0.50946 0.86363 0.0
C114 C 0.18653 0.55779 0.81949 0.0
H115 H 0.2093 0.56611 0.80905 0.0
H116 H 0.16354 0.58771 0.80244 0.0
H117 H 0.96122 0.52569 0.43802 0.0
C118 C 0.99088 0.5477 0.44277 0.0
C119 C 1.01486 0.56444 0.42645 0.0
C120 C 1.00479 0.56144 0.46514 0.0
H121 H 0.0708 0.60787 0.41988 0.0
C122 C 0.05261 0.59417 0.43251 0.0
C123 C 0.06662 0.60751 0.45463 0.0
C124 C 0.04303 0.5906 0.47089 0.0
C125 C 0.97923 0.54783 0.48261 0.0
H126 H 0.05393 0.6016 0.48802 0.0
C127 C 0.95428 0.50865 0.48319 0.0
C128 C 0.93164 0.49591 0.50051 0.0
C129 C 0.98059 0.57424 0.49926 0.0
H130 H 0.99912 0.60472 0.499 0.0
C131 C 0.95795 0.56161 0.51639 0.0
H132 H 0.95334 0.48806 0.4706 0.0
C133 C 0.93369 0.52261 0.51712 0.0
H134 H 0.91612 0.51329 0.53048 0.0
H135 H 0.95921 0.5821 0.52912 0.0
H136 H 0.58439 0.99428 0.77549 0.0
C137 C 0.59501 0.02388 0.78167 0.0
C138 C 0.60037 0.05045 0.76681 0.0
C139 C 0.60005 0.03492 0.80448 0.0
H140 H 0.61466 0.10828 0.76315 0.0
C141 C 0.61181 0.08813 0.77472 0.0
C142 C 0.61621 0.09912 0.7973 0.0
C143 C 0.61141 0.07276 0.81213 0.0
C144 C 0.5895 1.00629 0.82027 0.0
H145 H 0.61397 0.08099 0.82962 0.0
C146 C 0.60158 0.97947 0.81866 0.0
C147 C 0.59042 0.95149 0.83311 0.0
C148 C 0.56658 1.00514 0.83681 0.0
H149 H 0.55646 0.02527 0.83827 0.0
C150 C 0.5557 0.97731 0.85131 0.0
H151 H 0.61934 0.9801 0.80604 0.0
C152 C 0.56733 0.95029 0.84939 0.0
H153 H 0.55845 0.92856 0.86056 0.0
H154 H 0.5379 0.97646 0.86389 0.0
H155 H 0.53358 0.53624 0.10456 0.0
C156 C 0.55585 0.5318 0.11204 0.0
C157 C 0.57265 0.51546 0.09901 0.0
C158 C 0.56935 0.54449 0.13452 0.0
H159 H 0.61828 0.50207 0.09922 0.0
C160 C 0.60266 0.51153 0.10903 0.0
C161 C 0.61549 0.52362 0.13138 0.0
C162 C 0.59801 0.5387 0.14412 0.0
C163 C 0.55635 0.56661 0.1479 0.0
H164 H 0.60857 0.54808 0.16144 0.0
C165 C 0.51753 0.55565 0.14639 0.0
C166 C 0.50512 0.57578 0.15976 0.0
C167 C 0.58297 0.59863 0.16269 0.0
H168 H 0.61335 0.60846 0.16386 0.0
C169 C 0.57073 0.61846 0.17612 0.0
H170 H 0.49701 0.53144 0.1348 0.0
C171 C 0.53198 0.60704 0.1748 0.0
H172 H 0.52304 0.62263 0.18555 0.0
H173 H 0.59134 0.64276 0.18759 0.0
H174 H 0.19224 0.57158 0.14456 0.0
H175 H 0.2548 0.57711 0.14557 0.0
H176 H 0.20165 0.4541 0.14157 0.0
H177 H 0.13861 0.44892 0.14277 0.0
H178 H 0.26151 0.4855 0.16997 0.0
H179 H 0.23918 0.50996 0.09555 0.0
H180 H 0.22134 0.54263 0.06857 0.0
H181 H 0.31616 0.65113 0.09721 0.0
H182 H 0.33431 0.61922 0.1245 0.0
H183 H 0.44249 0.50351 0.15437 0.0
H184 H 0.37509 0.48581 0.14878 0.0
H185 H 0.40842 0.60526 0.15563 0.0
H186 H 0.47573 0.62317 0.15986 0.0
H187 H 0.35595 0.56785 0.12184 0.0
H188 H 0.37492 0.54885 0.19748 0.0
H189 H 0.39292 0.52133 0.22758 0.0
H190 H 0.3059 0.40832 0.19958 0.0
H191 H 0.28779 0.43514 0.16909 0.0
C192 C 0.19388 0.54567 0.14346 0.0
C193 C 0.16093 0.5097 0.14296 0.0
C194 C 0.22961 0.54883 0.14396 0.0
C195 C 0.23278 0.51592 0.14274 0.0
C196 C 0.19969 0.47979 0.14217 0.0
C197 C 0.16386 0.47676 0.14264 0.0
C198 C 0.27097 0.51976 0.14307 0.0
C199 C 0.2819 0.50274 0.15909 0.0
C200 C 0.29784 0.54323 0.12929 0.0
C201 C 0.28809 0.56214 0.11207 0.0
C202 C 0.25628 0.54077 0.09605 0.0
C203 C 0.24607 0.55918 0.08074 0.0
C204 C 0.26761 0.59892 0.08118 0.0
C205 C 0.29955 0.62034 0.09685 0.0
C206 C 0.30988 0.60209 0.1122 0.0
C207 C 0.43542 0.52597 0.15447 0.0
C208 C 0.46432 0.56474 0.15758 0.0
C209 C 0.39697 0.51581 0.1515 0.0
C210 C 0.38696 0.54427 0.15199 0.0
C211 C 0.41571 0.58292 0.15521 0.0
C212 C 0.45409 0.5931 0.1579 0.0
C213 C 0.34653 0.53414 0.14894 0.0
C214 C 0.33525 0.54991 0.13238 0.0
C215 C 0.31958 0.51007 0.16243 0.0
C216 C 0.33032 0.49397 0.18085 0.0
C217 C 0.35984 0.51811 0.19763 0.0
C218 C 0.37004 0.50264 0.21478 0.0
C219 C 0.35066 0.46309 0.21545 0.0
C220 C 0.32096 0.43894 0.19901 0.0
C221 C 0.31071 0.45426 0.18179 0.0
H222 H 0.35859 0.45117 0.22874 0.0
H223 H 0.25954 0.61312 0.06938 0.0
H224 H 0.6563 0.15011 0.48034 0.0
H225 H 0.70911 0.21389 0.47759 0.0
H226 H 0.74745 0.22558 0.5467 0.0
H227 H 0.69174 0.16235 0.5498 0.0
H228 H 0.75002 0.28731 0.53714 0.0
H229 H 0.79257 0.20694 0.5008 0.0
H230 H 0.78293 0.15471 0.4734 0.0
H231 H 0.76787 0.21327 0.42118 0.0
H232 H 0.77695 0.2656 0.44827 0.0
H233 H 0.92517 0.45564 0.53523 0.0
H234 H 0.87862 0.38837 0.5374 0.0
H235 H 0.83285 0.37669 0.4698 0.0
H236 H 0.88 0.44384 0.46743 0.0
H237 H 0.8357 0.31472 0.47843 0.0
H238 H 0.78952 0.39147 0.51136 0.0
H239 H 0.79323 0.44357 0.5364 0.0
H240 H 0.80907 0.39219 0.59223 0.0
H241 H 0.80607 0.34007 0.5675 0.0
C242 C 0.67659 0.16601 0.49482 0.0
C243 C 0.67111 0.15128 0.51514 0.0
C244 C 0.7068 0.2024 0.49323 0.0
C245 C 0.73313 0.224 0.51173 0.0
C246 C 0.72776 0.20909 0.53213 0.0
C247 C 0.69642 0.17303 0.5339 0.0
C248 C 0.76497 0.26292 0.50993 0.0
C249 C 0.76933 0.29315 0.52463 0.0
C250 C 0.78895 0.27075 0.4929 0.0
C251 C 0.7854 0.24015 0.47658 0.0
C252 C 0.78727 0.20869 0.48347 0.0
C253 C 0.78182 0.17903 0.46799 0.0
C254 C 0.77478 0.18067 0.44556 0.0
C255 C 0.77338 0.21206 0.43855 0.0
C256 C 0.77877 0.24176 0.45396 0.0
C257 C 0.90525 0.43858 0.52084 0.0
C258 C 0.90565 0.45478 0.50126 0.0
C259 C 0.87878 0.4003 0.52208 0.0
C260 C 0.8519 0.37794 0.50389 0.0
C261 C 0.85333 0.39362 0.48402 0.0
C262 C 0.88014 0.43184 0.48269 0.0
C263 C 0.82121 0.33873 0.50597 0.0
C264 C 0.81682 0.30864 0.49119 0.0
C265 C 0.79672 0.33105 0.52265 0.0
C266 C 0.79796 0.36207 0.53757 0.0
C267 C 0.79406 0.39141 0.52898 0.0
C268 C 0.79601 0.42094 0.54311 0.0
C269 C 0.80149 0.42125 0.56589 0.0
C270 C 0.80489 0.39195 0.57458 0.0
C271 C 0.80304 0.36239 0.56052 0.0
H272 H 0.80301 0.44414 0.57681 0.0
H273 H 0.77043 0.15761 0.43362 0.0
H274 H 0.60143 0.65185 0.79322 0.0
H275 H 0.60058 0.71106 0.79362 0.0
H276 H 0.70895 0.76996 0.83522 0.0
H277 H 0.70798 0.70917 0.83642 0.0
H278 H 0.66317 0.78732 0.85142 0.0
H279 H 0.69591 0.78445 0.77797 0.0
H280 H 0.68951 0.75379 0.74063 0.0
H281 H 0.57516 0.73422 0.728 0.0
H282 H 0.58063 0.76423 0.76537 0.0
H283 H 0.66204 0.96259 0.84107 0.0
H284 H 0.68128 0.91412 0.83599 0.0
H285 H 0.56388 0.82839 0.81322 0.0
H286 H 0.54451 0.87655 0.81884 0.0
H287 H 0.62398 0.83218 0.7865 0.0
H288 H 0.58842 0.82624 0.86055 0.0
H289 H 0.59222 0.85415 0.89822 0.0
H290 H 0.71162 0.88918 0.90938 0.0
H291 H 0.7087 0.86214 0.87156 0.0
C292 C 0.62564 0.67761 0.80196 0.0
C293 C 0.65496 0.67625 0.81467 0.0
C294 C 0.62525 0.7116 0.80208 0.0
C295 C 0.65517 0.74526 0.81402 0.0
C296 C 0.68569 0.74434 0.82578 0.0
C297 C 0.68536 0.70985 0.82631 0.0
C298 C 0.65228 0.78018 0.81594 0.0
C299 C 0.65572 0.79777 0.83714 0.0
C300 C 0.64148 0.7932 0.79735 0.0
C301 C 0.63873 0.77663 0.7745 0.0
C302 C 0.66941 0.77362 0.76723 0.0
C303 C 0.66591 0.75629 0.74607 0.0
C304 C 0.63196 0.74208 0.73195 0.0
C305 C 0.60147 0.74531 0.73894 0.0
C306 C 0.6048 0.76258 0.76009 0.0
C307 C 0.64053 0.93329 0.8351 0.0
C308 C 0.6019 0.92272 0.83054 0.0
C309 C 0.65146 0.90589 0.83214 0.0
C310 C 0.62388 0.86801 0.82424 0.0
C311 C 0.58539 0.85765 0.81928 0.0
C312 C 0.57437 0.88486 0.82264 0.0
C313 C 0.63482 0.83869 0.82181 0.0
C314 C 0.63261 0.82222 0.80059 0.0
C315 C 0.64682 0.82674 0.84031 0.0
C316 C 0.6485 0.8427 0.86311 0.0
C317 C 0.61561 0.8403 0.87094 0.0
C318 C 0.61757 0.85589 0.89233 0.0
C319 C 0.65218 0.87357 0.90615 0.0
C320 C 0.68486 0.87558 0.89863 0.0
C321 C 0.68307 0.86015 0.87721 0.0
H322 H 0.65365 0.8856 0.92272 0.0
H323 H 0.62927 0.72856 0.7156 0.0
H324 H 0.96121 0.63693 0.16708 0.0
H325 H 0.89535 0.62463 0.16541 0.0
H326 H 0.86691 0.53476 0.20709 0.0
H327 H 0.93289 0.54781 0.20958 0.0
H328 H 0.83161 0.53009 0.152 0.0
H329 H 0.84557 0.57047 0.23222 0.0
H330 H 0.88208 0.61876 0.26422 0.0
H331 H 0.87226 0.70354 0.23051 0.0
H332 H 0.83622 0.65579 0.19817 0.0
H333 H 0.63301 0.46794 0.13805 0.0
H334 H 0.69507 0.47787 0.15425 0.0
H335 H 0.74127 0.60016 0.16063 0.0
H336 H 0.67932 0.5901 0.14545 0.0
H337 H 0.76619 0.58318 0.1953 0.0
H338 H 0.75561 0.55251 0.11726 0.0
H339 H 0.72509 0.51338 0.08146 0.0
H340 H 0.73497 0.42116 0.10534 0.0
H341 H 0.76502 0.45957 0.14143 0.0
C342 C 0.94131 0.61576 0.17666 0.0
C343 C 0.95179 0.59323 0.18839 0.0
C344 C 0.90385 0.60866 0.1756 0.0
C345 C 0.87678 0.57885 0.18612 0.0
C346 C 0.88783 0.55815 0.19913 0.0
C347 C 0.92545 0.56575 0.20056 0.0
C348 C 0.83616 0.566 0.18086 0.0
C349 C 0.81678 0.54085 0.16166 0.0
C350 C 0.81797 0.5814 0.19315 0.0
C351 C 0.83856 0.60971 0.21277 0.0
C352 C 0.85148 0.59948 0.23159 0.0
C353 C 0.87203 0.62673 0.24979 0.0
C354 C 0.87956 0.66423 0.24938 0.0
C355 C 0.86643 0.6745 0.2308 0.0
C356 C 0.84592 0.64735 0.21255 0.0
C357 C 0.65658 0.49674 0.14307 0.0
C358 C 0.65199 0.52831 0.14063 0.0
C359 C 0.69177 0.50244 0.15228 0.0
C360 C 0.72268 0.53978 0.15851 0.0
C361 C 0.7177 0.57116 0.15614 0.0
C362 C 0.68255 0.56545 0.14735 0.0
C363 C 0.76102 0.54678 0.16636 0.0
C364 C 0.78032 0.57128 0.1859 0.0
C365 C 0.77959 0.53165 0.15393 0.0
C366 C 0.76213 0.50873 0.13213 0.0
C367 C 0.75105 0.52379 0.11492 0.0
C368 C 0.73385 0.50175 0.09458 0.0
C369 C 0.72798 0.46475 0.09115 0.0
C370 C 0.73945 0.44979 0.10804 0.0
C371 C 0.75657 0.47168 0.12844 0.0
H372 H 0.71463 0.44772 0.0754 0.0
H373 H 0.89551 0.6853 0.26348 0.0
H374 H 0.36196 0.93624 0.52652 0.0
H375 H 0.30686 0.87155 0.5237 0.0
H376 H 0.29943 0.865 0.45284 0.0
H377 H 0.35544 0.92955 0.45554 0.0
H378 H 0.23311 0.83932 0.50404 0.0
H379 H 0.28807 0.79452 0.43372 0.0
H380 H 0.34919 0.80622 0.42094 0.0
H381 H 0.39662 0.81751 0.48771 0.0
H382 H 0.33599 0.80662 0.50084 0.0
H383 H 0.08855 0.67527 0.43946 0.0
H384 H 0.14752 0.73602 0.45122 0.0
H385 H 0.18655 0.68036 0.49514 0.0
H386 H 0.12673 0.61913 0.48368 0.0
H387 H 0.24128 0.73344 0.46425 0.0
H388 H 0.16522 0.72751 0.52155 0.0
H389 H 0.10714 0.71654 0.5379 0.0
H390 H 0.10478 0.80439 0.5036 0.0
H391 H 0.16256 0.8155 0.48677 0.0
C392 C 0.34816 0.92125 0.51033 0.0
C393 C 0.3628 0.9376 0.4912 0.0
C394 C 0.31692 0.88432 0.50878 0.0
C395 C 0.29992 0.86346 0.48811 0.0
C396 C 0.31303 0.88054 0.46894 0.0
C397 C 0.34454 0.91744 0.47047 0.0
C398 C 0.26853 0.82366 0.48657 0.0
C399 C 0.23484 0.81608 0.49545 0.0
C400 C 0.27152 0.79345 0.47603 0.0
C401 C 0.30772 0.79979 0.4682 0.0
C402 C 0.31157 0.79942 0.44561 0.0
C403 C 0.34614 0.8061 0.43834 0.0
C404 C 0.37675 0.8126 0.45351 0.0
C405 C 0.37294 0.81262 0.476 0.0
C406 C 0.33859 0.80642 0.48336 0.0
C407 C 0.10994 0.67594 0.45142 0.0
C408 C 0.10361 0.64282 0.46059 0.0
C409 C 0.1433 0.71052 0.4582 0.0
C410 C 0.17088 0.7123 0.47404 0.0
C411 C 0.16525 0.67915 0.4829 0.0
C412 C 0.13137 0.64449 0.47638 0.0
C413 C 0.20542 0.74932 0.48113 0.0
C414 C 0.2397 0.7565 0.4732 0.0
C415 C 0.20316 0.77902 0.49299 0.0
C416 C 0.16801 0.77205 0.50273 0.0
C417 C 0.15205 0.74417 0.51728 0.0
C418 C 0.11925 0.73801 0.52669 0.0
C419 C 0.10222 0.75969 0.52175 0.0
C420 C 0.11798 0.78759 0.50739 0.0
C421 C 0.15078 0.79385 0.49793 0.0
H422 H 0.07687 0.75492 0.52909 0.0
H423 H 0.4034 0.81759 0.44784 0.0
H424 H 0.5219 0.34287 0.82753 0.0
H425 H 0.53247 0.28871 0.82543 0.0
H426 H 0.62811 0.34866 0.87644 0.0
H427 H 0.61816 0.40343 0.87824 0.0
H428 H 0.64779 0.32377 0.8407 0.0
H429 H 0.54623 0.26875 0.886 0.0
H430 H 0.48252 0.25089 0.89699 0.0
H431 H 0.42866 0.17767 0.83624 0.0
H432 H 0.49205 0.19555 0.82472 0.0
H433 H 0.66237 0.15169 0.83223 0.0
H434 H 0.65696 0.20588 0.84796 0.0
H435 H 0.56696 0.17975 0.79613 0.0
H436 H 0.57182 0.12584 0.78056 0.0
H437 H 0.54874 0.18717 0.8395 0.0
H438 H 0.6495 0.25386 0.79225 0.0
H439 H 0.71243 0.27159 0.77995 0.0
H440 H 0.76738 0.32121 0.84559 0.0
H441 H 0.70465 0.3035 0.85828 0.0
C442 C 0.54432 0.34396 0.83881 0.0
C443 C 0.56917 0.37712 0.85306 0.0
C444 C 0.55042 0.31308 0.83758 0.0
C445 C 0.581 0.31473 0.85086 0.0
C446 C 0.60439 0.34695 0.86608 0.0
C447 C 0.59843 0.37796 0.86723 0.0
C448 C 0.59031 0.28417 0.84735 0.0
C449 C 0.62661 0.294 0.84122 0.0
C450 C 0.5622 0.2453 0.84735 0.0
C451 C 0.52394 0.23356 0.85449 0.0
C452 C 0.5208 0.24892 0.87496 0.0
C453 C 0.48474 0.23881 0.88127 0.0
C454 C 0.45156 0.21317 0.86732 0.0
C455 C 0.45438 0.19749 0.84704 0.0
C456 C 0.49038 0.20754 0.84063 0.0
C457 C 0.64188 0.158 0.8241 0.0
C458 C 0.61777 0.13496 0.80512 0.0
C459 C 0.63878 0.1887 0.83308 0.0
C460 C 0.61137 0.19628 0.8232 0.0
C461 C 0.58809 0.17399 0.80396 0.0
C462 C 0.59131 0.14362 0.79494 0.0
C463 C 0.60602 0.22702 0.83291 0.0
C464 C 0.5704 0.21713 0.83999 0.0
C465 C 0.63476 0.26574 0.83392 0.0
C466 C 0.67248 0.27725 0.82622 0.0
C467 C 0.67503 0.26848 0.80405 0.0
C468 C 0.71062 0.27852 0.79701 0.0
C469 C 0.74388 0.29747 0.81199 0.0
C470 C 0.74159 0.30643 0.83403 0.0
C471 C 0.70604 0.29647 0.84114 0.0
H472 H 0.77142 0.30524 0.80651 0.0
H473 H 0.42367 0.20544 0.87222 0.0
H474 H 0.57875 0.96158 0.49517 0.0
H475 H 0.57755 0.90088 0.49807 0.0
H476 H 0.4609 0.84848 0.5132 0.0
H477 H 0.46135 0.90849 0.50955 0.0
H478 H 0.51553 0.83615 0.54245 0.0
H479 H 0.46644 0.82286 0.46696 0.0
H480 H 0.46717 0.84337 0.42992 0.0
H481 H 0.5733 0.84598 0.42341 0.0
H482 H 0.57353 0.82609 0.4606 0.0
H483 H 0.45794 0.63777 0.52955 0.0
H484 H 0.46579 0.70171 0.53063 0.0
H485 H 0.56557 0.73901 0.49609 0.0
H486 H 0.55698 0.67446 0.49465 0.0
H487 H 0.52166 0.76116 0.47726 0.0
H488 H 0.56917 0.77128 0.55258 0.0
H489 H 0.56895 0.7527 0.59009 0.0
H490 H 0.46662 0.75726 0.59762 0.0
H491 H 0.46593 0.77538 0.56003 0.0
C492 C 0.55278 0.9371 0.49902 0.0
C493 C 0.5201 0.93996 0.50199 0.0
C494 C 0.55214 0.90241 0.50068 0.0
C495 C 0.51912 0.87004 0.50585 0.0
C496 C 0.48669 0.87299 0.50919 0.0
C497 C 0.48697 0.90734 0.50698 0.0
C498 C 0.51831 0.83304 0.50756 0.0
C499 C 0.51648 0.81949 0.52818 0.0
C500 C 0.52036 0.81168 0.48905 0.0
C501 C 0.52025 0.82345 0.46666 0.0
C502 C 0.49014 0.82819 0.45772 0.0
C503 C 0.49032 0.83962 0.43669 0.0
C504 C 0.52031 0.84609 0.42435 0.0
C505 C 0.55012 0.84103 0.43301 0.0
C506 C 0.55011 0.82967 0.45406 0.0
C507 C 0.48233 0.66003 0.52289 0.0
C508 C 0.50746 0.65138 0.51256 0.0
C509 C 0.48678 0.69668 0.52342 0.0
C510 C 0.51657 0.7258 0.51364 0.0
C511 C 0.54241 0.71738 0.50385 0.0
C512 C 0.53787 0.6806 0.50329 0.0
C513 C 0.51907 0.7639 0.51231 0.0
C514 C 0.52104 0.77774 0.49167 0.0
C515 C 0.51715 0.78553 0.53086 0.0
C516 C 0.5173 0.77431 0.5534 0.0
C517 C 0.54642 0.76799 0.56216 0.0
C518 C 0.5465 0.75761 0.58345 0.0
C519 C 0.51773 0.7537 0.59621 0.0
C520 C 0.48886 0.76024 0.58771 0.0
C521 C 0.48863 0.7706 0.56642 0.0
H522 H 0.51786 0.74569 0.61269 0.0
H523 H 0.5204 0.85492 0.40807 0.0
H524 H 0.69288 0.47834 0.81245 0.0
H525 H 0.75404 0.47996 0.8143 0.0
H526 H 0.80872 0.58984 0.85364 0.0
H527 H 0.74777 0.58945 0.85026 0.0
H528 H 0.85751 0.59189 0.8303 0.0
H529 H 0.78246 0.49597 0.8766 0.0
H530 H 0.72472 0.43847 0.8853 0.0
H531 H 0.73202 0.37203 0.8304 0.0
H532 H 0.79037 0.42879 0.82182 0.0
H533 H 1.0153 0.58181 0.88094 0.0
H534 H 0.95634 0.58301 0.87172 0.0
H535 H 0.91644 0.48583 0.82283 0.0
H536 H 0.97587 0.48438 0.83229 0.0
H537 H 0.86074 0.47642 0.84911 0.0
H538 H 0.94469 0.57644 0.80773 0.0
H539 H 1.00373 0.63592 0.80276 0.0
H540 H 0.98001 0.69806 0.85262 0.0
H541 H 0.92102 0.63886 0.85803 0.0
C542 C 0.71803 0.50303 0.82134 0.0
C543 C 0.71534 0.53373 0.83125 0.0
C544 C 0.75311 0.50374 0.82268 0.0
C545 C 0.78635 0.5344 0.83481 0.0
C546 C 0.78383 0.5656 0.84427 0.0
C547 C 0.74887 0.56543 0.84233 0.0
C548 C 0.82341 0.53383 0.83764 0.0
C549 C 0.85804 0.56669 0.83469 0.0
C550 C 0.82488 0.501 0.84302 0.0
C551 C 0.79062 0.46655 0.84856 0.0
C552 C 0.77182 0.46898 0.86649 0.0
C553 C 0.73912 0.4365 0.87147 0.0
C554 C 0.72494 0.4015 0.85856 0.0
C555 C 0.74339 0.39892 0.84064 0.0
C556 C 0.7764 0.43118 0.83578 0.0
C557 C 0.9942 0.56092 0.86802 0.0
C558 C 1.00039 0.53298 0.85736 0.0
C559 C 0.96044 0.56174 0.86267 0.0
C560 C 0.93171 0.5347 0.84643 0.0
C561 C 0.93807 0.50712 0.83539 0.0
C562 C 0.9722 0.50647 0.84066 0.0
C563 C 0.89462 0.53447 0.84187 0.0
C564 C 0.86004 0.50148 0.84459 0.0
C565 C 0.89339 0.56749 0.8368 0.0
C566 C 0.92857 0.60318 0.83336 0.0
C567 C 0.95217 0.60276 0.8177 0.0
C568 C 0.98561 0.63643 0.81479 0.0
C569 C 0.99564 0.67073 0.82739 0.0
C570 C 0.9722 0.67147 0.84287 0.0
C571 C 0.93872 0.63789 0.84583 0.0
H572 H 0.02156 0.69676 0.82513 0.0
H573 H 0.69968 0.37646 0.8625 0.0
H574 H 0.13346 0.69373 0.16564 0.0
H575 H 0.19408 0.75461 0.16667 0.0
H576 H 0.25732 0.69647 0.17735 0.0
H577 H 0.19697 0.63535 0.17546 0.0
H578 H 0.27311 0.77808 0.20783 0.0
H579 H 0.27162 0.71172 0.13716 0.0
H580 H 0.23984 0.67614 0.10065 0.0
H581 H 0.22356 0.76817 0.08297 0.0
H582 H 0.25464 0.80397 0.1196 0.0
H583 H 0.46513 0.91492 0.20502 0.0
H584 H 0.40501 0.85367 0.19818 0.0
H585 H 0.35761 0.90243 0.15435 0.0
H586 H 0.41844 0.96396 0.16095 0.0
H587 H 0.33078 0.8272 0.13974 0.0
H588 H 0.33969 0.89771 0.20728 0.0
H589 H 0.37044 0.93499 0.24352 0.0
H590 H 0.36999 0.8378 0.26761 0.0
H591 H 0.33994 0.80014 0.23135 0.0
C592 C 0.16027 0.69389 0.16821 0.0
C593 C 0.16027 0.65955 0.17042 0.0
C594 C 0.19491 0.72872 0.16875 0.0
C595 C 0.2303 0.73013 0.17195 0.0
C596 C 0.2304 0.69608 0.17468 0.0
C597 C 0.19583 0.66113 0.17359 0.0
C598 C 0.26719 0.7671 0.17259 0.0
C599 C 0.28596 0.78862 0.19298 0.0
C600 C 0.28341 0.78156 0.1532 0.0
C601 C 0.26482 0.76018 0.13122 0.0
C602 C 0.26075 0.72411 0.12561 0.0
C603 C 0.24299 0.70396 0.10487 0.0
C604 C 0.22951 0.7198 0.08953 0.0
C605 C 0.23389 0.75588 0.09489 0.0
C606 C 0.25156 0.77609 0.11564 0.0
C607 C 0.44228 0.91229 0.19342 0.0
C608 C 0.44662 0.9443 0.18349 0.0
C609 C 0.40771 0.87731 0.18968 0.0
C610 C 0.37619 0.87343 0.17615 0.0
C611 C 0.38129 0.90458 0.16495 0.0
C612 C 0.41617 0.93972 0.16861 0.0
C613 C 0.33759 0.83787 0.17512 0.0
C614 C 0.31816 0.81677 0.15465 0.0
C615 C 0.32058 0.82391 0.19451 0.0
C616 C 0.33784 0.84618 0.21652 0.0
C617 C 0.34634 0.88434 0.22026 0.0
C618 C 0.36366 0.90555 0.24081 0.0
C619 C 0.37222 0.88879 0.25785 0.0
C620 C 0.36337 0.85075 0.25439 0.0
C621 C 0.34619 0.82945 0.23384 0.0
H622 H 0.38565 0.90526 0.27374 0.0
H623 H 0.21581 0.70419 0.07347 0.0
H624 H 0.57422 0.18741 0.50481 0.0
H625 H 0.57279 0.24695 0.50745 0.0
H626 H 0.44918 0.18281 0.49728 0.0
H627 H 0.45049 0.12302 0.49385 0.0
H628 H 0.47204 0.24196 0.47593 0.0
H629 H 0.50325 0.22735 0.55006 0.0
H630 H 0.53913 0.21737 0.58058 0.0
H631 H 0.64229 0.31904 0.5701 0.0
H632 H 0.60711 0.3294 0.53936 0.0
H633 H 0.45524 0.40504 0.51433 0.0
H634 H 0.45115 0.34286 0.50656 0.0
H635 H 0.57462 0.39864 0.51699 0.0
H636 H 0.57835 0.4602 0.52561 0.0
H637 H 0.54794 0.34148 0.53875 0.0
H638 H 0.51484 0.35505 0.46374 0.0
H639 H 0.47707 0.36394 0.4338 0.0
H640 H 0.37513 0.26343 0.44689 0.0
H641 H 0.41222 0.25419 0.47707 0.0
C642 C 0.54666 0.18584 0.50307 0.0
C643 C 0.51248 0.15017 0.4992 0.0
C644 C 0.54586 0.22009 0.50474 0.0
C645 C 0.51084 0.21978 0.50306 0.0
C646 C 0.47665 0.18416 0.49875 0.0
C647 C 0.47745 0.14985 0.49681 0.0
C648 C 0.50999 0.25647 0.50583 0.0
C649 C 0.48831 0.2635 0.48983 0.0
C650 C 0.53141 0.28511 0.5238 0.0
C651 C 0.55261 0.27896 0.54229 0.0
C652 C 0.53364 0.24744 0.55417 0.0
C653 C 0.55384 0.24174 0.57153 0.0
C654 C 0.59298 0.2675 0.57724 0.0
C655 C 0.61198 0.29908 0.56565 0.0
C656 C 0.59192 0.30491 0.54828 0.0
C657 C 0.48145 0.404 0.51433 0.0
C658 C 0.51715 0.43754 0.52025 0.0
C659 C 0.47917 0.36838 0.50991 0.0
C660 C 0.51261 0.36561 0.51101 0.0
C661 C 0.54829 0.39957 0.51606 0.0
C662 C 0.5505 0.43493 0.52076 0.0
C663 C 0.51083 0.32756 0.50854 0.0
C664 C 0.53179 0.32009 0.52476 0.0
C665 C 0.48853 0.29851 0.49087 0.0
C666 C 0.46624 0.30416 0.47279 0.0
C667 C 0.48432 0.33502 0.46034 0.0
C668 C 0.46304 0.34008 0.4433 0.0
C669 C 0.42371 0.31433 0.43849 0.0
C670 C 0.40559 0.28339 0.45066 0.0
C671 C 0.42672 0.27821 0.46771 0.0
H672 H 0.4073 0.31829 0.42529 0.0
H673 H 0.60856 0.26304 0.59068 0.0
H674 H 0.48367 0.51777 0.80094 0.0
H675 H 0.42266 0.51573 0.8033 0.0
H676 H 0.43462 0.51124 0.87343 0.0
H677 H 0.49385 0.50944 0.87049 0.0
H678 H 0.36566 0.47313 0.86242 0.0
H679 H 0.45378 0.59796 0.84482 0.0
H680 H 0.50195 0.64576 0.82405 0.0
H681 H 0.42048 0.60183 0.76595 0.0
H682 H 0.37196 0.55348 0.7863 0.0
H683 H 0.22852 0.54108 0.87486 0.0
H684 H 0.28565 0.53387 0.87725 0.0
H685 H 0.26467 0.49832 0.8075 0.0
H686 H 0.20761 0.50438 0.80514 0.0
H687 H 0.3394 0.56028 0.82123 0.0
H688 H 0.25138 0.43528 0.84236 0.0
H689 H 0.20579 0.39147 0.86587 0.0
H690 H 0.29175 0.44413 0.92184 0.0
H691 H 0.3377 0.48863 0.89871 0.0
C692 C 0.473 0.51601 0.81681 0.0
C693 C 0.49351 0.51382 0.83552 0.0
C694 C 0.43823 0.51539 0.81827 0.0
C695 C 0.42402 0.51476 0.83872 0.0
C696 C 0.44448 0.51194 0.8574 0.0
C697 C 0.47852 0.51101 0.85576 0.0
C698 C 0.38811 0.51704 0.84059 0.0
C699 C 0.36049 0.49278 0.85365 0.0
C700 C 0.38044 0.54243 0.82925 0.0
C701 C 0.40933 0.57193 0.81706 0.0
C702 C 0.44619 0.59842 0.8276 0.0
C703 C 0.47355 0.62561 0.8159 0.0
C704 C 0.4643 0.62678 0.79369 0.0
C705 C 0.42761 0.60088 0.78315 0.0
C706 C 0.40015 0.57362 0.79477 0.0
C707 C 0.23546 0.53063 0.86018 0.0
C708 C 0.2135 0.52369 0.83977 0.0
C709 C 0.26836 0.5268 0.86152 0.0
C710 C 0.27998 0.51604 0.84246 0.0
C711 C 0.25681 0.50711 0.8224 0.0
C712 C 0.22399 0.51051 0.82111 0.0
C713 C 0.31722 0.5162 0.84276 0.0
C714 C 0.34503 0.54101 0.83012 0.0
C715 C 0.3255 0.49224 0.85499 0.0
C716 C 0.29781 0.46558 0.86886 0.0
C717 C 0.26043 0.43778 0.85972 0.0
C718 C 0.23455 0.41276 0.87297 0.0
C719 C 0.24582 0.4151 0.89535 0.0
C720 C 0.28303 0.4424 0.90452 0.0
C721 C 0.309 0.46751 0.89134 0.0
H722 H 0.22575 0.39569 0.90558 0.0
H723 H 0.48555 0.64781 0.78465 0.0
H724 H 0.96211 0.4045 0.14223 0.0
H725 H 0.90198 0.34478 0.14457 0.0
H726 H 0.86864 0.40487 0.19041 0.0
H727 H 0.92827 0.46434 0.18814 0.0
H728 H 0.85325 0.33677 0.20387 0.0
H729 H 0.82906 0.38092 0.13757 0.0
H730 H 0.8415 0.4035 0.10103 0.0
H731 H 0.83177 0.29749 0.07569 0.0
H732 H 0.81982 0.27447 0.11221 0.0
H733 H 0.6517 0.19293 0.19628 0.0
H734 H 0.71544 0.25063 0.1985 0.0
H735 H 0.74536 0.19576 0.14725 0.0
H736 H 0.68169 0.13884 0.14475 0.0
H737 H 0.76312 0.26238 0.13704 0.0
H738 H 0.78574 0.21774 0.20399 0.0
H739 H 0.7753 0.19707 0.24107 0.0
H740 H 0.78884 0.30513 0.26566 0.0
H741 H 0.79875 0.32624 0.22865 0.0
C742 C 0.942 0.405 0.15282 0.0
C743 C 0.9501 0.43948 0.16482 0.0
C744 C 0.90748 0.37079 0.1541 0.0
C745 C 0.88036 0.37011 0.16758 0.0
C746 C 0.88885 0.40438 0.1799 0.0
C747 C 0.92303 0.43856 0.17843 0.0
C748 C 0.84301 0.33398 0.16872 0.0
C749 C 0.83334 0.32068 0.18927 0.0
C750 C 0.81706 0.31251 0.14972 0.0
C751 C 0.82397 0.32613 0.1277 0.0
C752 C 0.82989 0.36254 0.12426 0.0
C753 C 0.8368 0.3754 0.10354 0.0
C754 C 0.83756 0.352 0.08607 0.0
C755 C 0.83126 0.31562 0.08926 0.0
C756 C 0.82438 0.30263 0.10996 0.0
C757 C 0.67237 0.19282 0.18603 0.0
C758 C 0.66169 0.16105 0.17052 0.0
C759 C 0.70889 0.22598 0.18719 0.0
C760 C 0.73574 0.22803 0.17301 0.0
C761 C 0.7255 0.19545 0.15831 0.0
C762 C 0.68911 0.1626 0.15705 0.0
C763 C 0.7733 0.26449 0.17224 0.0
C764 C 0.78298 0.27813 0.1517 0.0
C765 C 0.79918 0.2863 0.19129 0.0
C766 C 0.79243 0.27334 0.21345 0.0
C767 C 0.78602 0.23692 0.21724 0.0
C768 C 0.7803 0.22516 0.23826 0.0
C769 C 0.78125 0.2497 0.25569 0.0
C770 C 0.78798 0.28609 0.25213 0.0
C771 C 0.79364 0.29796 0.23113 0.0
H772 H 0.77689 0.24057 0.27196 0.0
H773 H 0.84295 0.36202 0.07004 0.0
H774 H 0.03696 0.59286 0.09125 0.0
H775 H 0.04643 0.58134 0.05309 0.0
H776 H 0.06726 0.49151 0.07044 0.0
H777 H 0.05529 0.50121 0.10836 0.0
H778 H 0.11878 0.58362 0.04123 0.0
H779 H 0.02693 0.43967 0.04312 0.0
H780 H 0.96533 0.38925 0.05327 0.0
H781 H 0.90636 0.43825 0.01985 0.0
H782 H 0.96788 0.48961 0.0101 0.0
H783 H 0.08059 0.4782 0.92135 0.0
H784 H 0.08112 0.47745 0.96155 0.0
H785 H 0.08173 0.58426 0.96724 0.0
H786 H 0.08111 0.58494 0.92738 0.0
H787 H 0.02486 0.47619 0.98627 0.0
H788 H 0.13184 0.6362 0.01571 0.0
H789 H 0.19098 0.68966 0.00522 0.0
H790 H 0.21881 0.61016 0.9741 0.0
H791 H 0.16017 0.55622 0.98473 0.0
C792 C 0.04301 0.57027 0.08686 0.0
C793 C 0.04553 0.54801 0.10277 0.0
C794 C 0.04839 0.56372 0.06507 0.0
C795 C 0.05683 0.5351 0.05883 0.0
C796 C 0.05956 0.5129 0.07471 0.0
C797 C 0.05326 0.51884 0.09643 0.0
C798 C 0.06505 0.53052 0.03598 0.0
C799 C 0.09849 0.55999 0.02921 0.0
C800 C 0.03873 0.4995 0.02042 0.0
C801 C 1.00198 0.46884 0.02635 0.0
C802 C 1.00089 0.44003 0.03829 0.0
C803 C 0.96601 0.41124 0.04391 0.0
C804 C 0.93197 0.41068 0.03734 0.0
C805 C 0.93276 0.43886 0.02507 0.0
C806 C 0.96763 0.46788 0.01957 0.0
C807 C 0.08176 0.50186 0.93135 0.0
C808 C 0.08109 0.53176 0.92141 0.0
C809 C 0.08173 0.50127 0.9542 0.0
C810 C 0.08167 0.5309 0.96741 0.0
C811 C 0.08227 0.56135 0.95746 0.0
C812 C 0.08193 0.56174 0.93472 0.0
C813 C 0.07877 0.52942 0.9914 0.0
C814 C 0.04595 0.49922 0.99834 0.0
C815 C 0.10577 0.55985 0.00714 0.0
C816 C 0.14143 0.59213 0.00091 0.0
C817 C 0.15068 0.63011 0.00675 0.0
C818 C 0.18411 0.66051 0.00075 0.0
C819 C 0.20859 0.65331 0.98895 0.0
C820 C 0.19975 0.61569 0.98318 0.0
C821 C 0.1664 0.58518 0.98917 0.0
H822 H 0.23443 0.67688 0.98431 0.0
H823 H 0.90498 0.38831 0.04165 0.0
H824 H 0.46644 0.03022 0.43382 0.0
H825 H 0.45467 0.0271 0.39336 0.0
H826 H 0.57434 0.06726 0.38867 0.0
H827 H 0.58609 0.07063 0.42815 0.0
H828 H 0.55133 0.10793 0.36646 0.0
H829 H 0.50661 0.97495 0.37454 0.0
H830 H 0.46531 0.91229 0.38729 0.0
H831 H 0.36587 0.90651 0.35335 0.0
H832 H 0.40657 0.96948 0.34068 0.0
H833 H 0.57369 0.06316 0.25597 0.0
H834 H 0.57202 0.06998 0.29592 0.0
H835 H 0.45074 0.02934 0.28537 0.0
H836 H 0.45234 0.02264 0.24563 0.0
H837 H 0.46595 0.99115 0.31507 0.0
H838 H 0.51413 0.12232 0.30355 0.0
H839 H 0.55767 0.18368 0.29014 0.0
H840 H 0.65309 0.19174 0.33036 0.0
H841 H 0.61022 0.13013 0.34376 0.0
C842 C 0.48996 0.03805 0.42401 0.0
C843 C 0.5272 0.05098 0.43418 0.0
C844 C 0.48329 0.03629 0.40098 0.0
C845 C 0.5138 0.04735 0.38801 0.0
C846 C 0.55049 0.05911 0.39827 0.0
C847 C 0.55708 0.0609 0.42095 0.0
C848 C 0.50894 0.04796 0.36381 0.0
C849 C 0.53265 0.08234 0.35523 0.0
C850 C 0.48406 0.01483 0.34913 0.0
C851 C 0.45956 0.97723 0.35698 0.0
C852 C 0.47589 0.96056 0.37003 0.0
C853 C 0.4526 0.92493 0.37719 0.0
C854 C 0.41296 0.90551 0.37122 0.0
C855 C 0.39655 0.92165 0.35803 0.0
C856 C 0.41972 0.95732 0.35087 0.0
C857 C 0.54696 0.05663 0.26221 0.0
C858 C 0.51316 0.04222 0.24773 0.0
C859 C 0.54593 0.06034 0.28501 0.0
C860 C 0.51116 0.05002 0.29365 0.0
C861 C 0.47778 0.03717 0.27912 0.0
C862 C 0.4788 0.0335 0.25643 0.0
C863 C 0.50916 0.05089 0.3178 0.0
C864 C 0.48412 0.01687 0.32631 0.0
C865 C 0.53315 0.08426 0.33247 0.0
C866 C 0.55897 0.12145 0.32453 0.0
C867 C 0.54444 0.13704 0.30941 0.0
C868 C 0.569 0.17189 0.30183 0.0
C869 C 0.60813 0.19156 0.30937 0.0
C870 C 0.62278 0.17646 0.32453 0.0
C871 C 0.59835 0.14159 0.33214 0.0
H872 H 0.62709 0.21854 0.30348 0.0
H873 H 0.39499 0.87791 0.37675 0.0
H874 H 0.59484 0.46138 0.75525 0.0
H875 H 0.5926 0.47764 0.71752 0.0
H876 H 0.57427 0.56917 0.74085 0.0
H877 H 0.57647 0.55283 0.77861 0.0
H878 H 0.52176 0.51809 0.70352 0.0
H879 H 0.65763 0.59427 0.72636 0.0
H880 H 0.72017 0.60475 0.7423 0.0
H881 H 0.71405 0.52253 0.692 0.0
H882 H 0.6512 0.51113 0.67594 0.0
H883 H 0.51603 0.55818 0.59331 0.0
H884 H 0.53278 0.5691 0.63307 0.0
H885 H 0.59641 0.51021 0.62701 0.0
H886 H 0.58513 0.5048 0.58747 0.0
H887 H 0.62961 0.55656 0.65847 0.0
H888 H 0.49211 0.46895 0.63999 0.0
H889 H 0.42676 0.45059 0.6241 0.0
H890 H 0.43194 0.54316 0.66531 0.0
H891 H 0.49746 0.56224 0.68129 0.0
C892 C 0.59072 0.4852 0.75231 0.0
C893 C 0.58671 0.50647 0.76984 0.0
C894 C 0.58955 0.49452 0.73081 0.0
C895 C 0.5837 0.52489 0.72643 0.0
C896 C 0.57923 0.54591 0.74392 0.0
C897 C 0.581 0.53692 0.76548 0.0
C898 C 0.58081 0.53351 0.70344 0.0
C899 C 0.54545 0.52707 0.69368 0.0
C900 C 0.61149 0.54442 0.69056 0.0
C901 C 0.64958 0.55169 0.70003 0.0
C902 C 0.6695 0.57825 0.71878 0.0
C903 C 0.70503 0.58438 0.72782 0.0
C904 C 0.72105 0.56428 0.71819 0.0
C905 C 0.70161 0.53808 0.69945 0.0
C906 C 0.66606 0.53182 0.69035 0.0
C907 C 0.53458 0.54856 0.60031 0.0
C908 C 0.54806 0.52938 0.58684 0.0
C909 C 0.54347 0.55408 0.62327 0.0
C910 C 0.56447 0.53896 0.63343 0.0
C911 C 0.57967 0.52179 0.61993 0.0
C912 C 0.57236 0.5179 0.59707 0.0
C913 C 0.56974 0.53933 0.65792 0.0
C914 C 0.60574 0.54775 0.66814 0.0
C915 C 0.53921 0.52896 0.67107 0.0
C916 C 0.49975 0.51724 0.66163 0.0
C917 C 0.47932 0.48544 0.64559 0.0
C918 C 0.44228 0.47492 0.63657 0.0
C919 C 0.42526 0.49577 0.64364 0.0
C920 C 0.44519 0.52709 0.65981 0.0
C921 C 0.48225 0.53775 0.66886 0.0
H922 H 0.39659 0.4876 0.63662 0.0
H923 H 0.74854 0.56904 0.72523 0.0
H924 H 0.56763 0.0384 0.55604 0.0
H925 H 0.58475 0.03592 0.59466 0.0
H926 H 0.50808 0.07447 0.61402 0.0
H927 H 0.49054 0.0768 0.57524 0.0
H928 H 0.57817 0.10821 0.6417 0.0
H929 H 0.47639 0.9841 0.61069 0.0
H930 H 0.44438 0.9272 0.58311 0.0
H931 H 0.53575 0.90424 0.59758 0.0
H932 H 0.56865 0.96145 0.62503 0.0
H933 H 0.53955 0.04749 0.74441 0.0
H934 H 0.52642 0.04317 0.70451 0.0
H935 H 0.62065 0.02412 0.6959 0.0
H936 H 0.63409 0.0287 0.73621 0.0
H937 H 0.5456 0.98009 0.66265 0.0
H938 H 0.64645 0.10594 0.69503 0.0
H939 H 0.67384 0.16086 0.72389 0.0
H940 H 0.57967 0.17886 0.70742 0.0
H941 H 0.55133 0.12352 0.67872 0.0
C942 C 0.55479 0.04685 0.56854 0.0
C943 C 0.52744 0.05739 0.5627 0.0
C944 C 0.56454 0.04532 0.59055 0.0
C945 C 0.54723 0.05446 0.60708 0.0
C946 C 0.52159 0.06717 0.60143 0.0
C947 C 0.51159 0.06845 0.57933 0.0
C948 C 0.55428 0.04862 0.63009 0.0
C949 C 0.57094 0.08021 0.64627 0.0
C950 C 0.54517 0.01207 0.63596 0.0
C951 C 0.52522 0.97733 0.61972 0.0
C952 C 0.48983 0.96711 0.60786 0.0
C953 C 0.47149 0.93478 0.59228 0.0
C954 C 0.48809 0.9122 0.58854 0.0
C955 C 0.52298 0.92182 0.60046 0.0
C956 C 0.54147 0.95419 0.61605 0.0
C957 C 0.55668 0.0412 0.73394 0.0
C958 C 0.58783 0.03851 0.74313 0.0
C959 C 0.5492 0.03877 0.71124 0.0
C960 C 0.5728 0.03368 0.69742 0.0
C961 C 0.60213 0.02792 0.70643 0.0
C962 C 0.60975 0.03049 0.72932 0.0
C963 C 0.56964 0.03968 0.67409 0.0
C964 C 0.55345 1.00815 0.65792 0.0
C965 C 0.57893 0.07621 0.66821 0.0
C966 C 0.59663 0.11042 0.68485 0.0
C967 C 0.63148 0.12148 0.69765 0.0
C968 C 0.64717 0.15268 0.71397 0.0
C969 C 0.62846 0.17329 0.71752 0.0
C970 C 0.59412 0.16285 0.70467 0.0
C971 C 0.57824 0.13159 0.68835 0.0
H972 H 0.64062 0.19739 0.7302 0.0
H973 H 0.47389 0.8872 0.57644 0.0
H974 H 0.56791 0.56844 0.89865 0.0
H975 H 0.5556 0.55315 0.93614 0.0
H976 H 0.60435 0.48009 0.9305 0.0
H977 H 0.61705 0.49561 0.89274 0.0
H978 H 0.53659 0.45095 0.95386 0.0
H979 H 0.66017 0.56325 0.95479 0.0
H980 H 0.70605 0.627 0.94496 0.0
H981 H 0.64323 0.67399 0.97463 0.0
H982 H 0.59663 0.61036 0.98434 0.0
H983 H 0.57183 0.45882 0.07128 0.0
H984 H 0.57079 0.45534 0.0314 0.0
H985 H 0.54885 0.54904 0.0312 0.0
H986 H 0.55339 0.55507 0.07107 0.0
H987 H 0.60581 0.56409 0.01012 0.0
H988 H 0.48122 0.45116 0.00907 0.0
H989 H 0.43539 0.38722 0.01872 0.0
H990 H 0.49941 0.34103 0.98976 0.0
H991 H 0.54592 0.4048 0.98019 0.0
C992 C 0.57568 0.54882 0.9053 0.0
C993 C 0.59371 0.53342 0.89291 0.0
C994 C 0.56851 0.54002 0.92667 0.0
C995 C 0.57944 0.51584 0.93611 0.0
C996 C 0.59567 0.49877 0.92343 0.0
C997 C 0.6029 0.50763 0.90192 0.0
C998 C 0.57677 0.51144 0.9598 0.0
C999 C 0.55199 0.47548 0.96628 0.0
C1000 C 0.59663 0.54361 0.97585 0.0
C1001 C 0.62473 0.58196 0.97012 0.0
C1002 C 0.65596 0.58711 0.95906 0.0
C1003 C 0.68213 0.62324 0.95354 0.0
C1004 C 0.67751 0.65451 0.95912 0.0
C1005 C 0.64675 0.64973 0.97029 0.0
C1006 C 0.62047 0.61365 0.97582 0.0
C1007 C 0.56664 0.47865 0.06277 0.0
C1008 C 0.56333 0.50765 0.0746 0.0
C1009 C 0.56547 0.47621 0.03986 0.0
C1010 C 0.55973 0.50192 0.02821 0.0
C1011 C 0.55353 0.52898 0.03982 0.0
C1012 C 0.55561 0.53204 0.06273 0.0
C1013 C 0.56435 0.50372 0.0044 0.0
C1014 C 0.59007 0.53935 0.99785 0.0
C1015 C 0.54528 0.47119 0.98841 0.0
C1016 C 0.51724 0.43283 0.9941 0.0
C1017 C 0.48568 0.42742 0.00491 0.0
C1018 C 0.45955 0.3912 0.01034 0.0
C1019 C 0.46454 0.36011 0.00491 0.0
C1020 C 0.49561 0.36515 0.99398 0.0
C1021 C 0.52183 0.40131 0.98853 0.0
H1022 H 0.44428 0.33209 0.00913 0.0
H1023 H 0.6978 0.68246 0.95484 0.0
H1024 H 0.04442 0.4861 0.2322 0.0
H1025 H 0.02502 0.49014 0.26857 0.0
H1026 H 0.04416 0.60309 0.26102 0.0
H1027 H 0.0642 0.59934 0.22441 0.0
H1028 H 0.07551 0.59873 0.30132 0.0
H1029 H 0.95468 0.53036 0.257 0.0
H1030 H 0.9061 0.48047 0.22873 0.0
H1031 H 0.89889 0.39328 0.26753 0.0
H1032 H 0.94798 0.44262 0.29588 0.0
H1033 H 1.00293 0.60798 0.39937 0.0
H1034 H 0.99952 0.60131 0.35921 0.0
H1035 H 0.99538 0.49315 0.36022 0.0
H1036 H 0.99869 0.49983 0.40061 0.0
H1037 H 0.95135 0.49818 0.32206 0.0
H1038 H 0.07784 0.56575 0.36314 0.0
H1039 H 0.12754 0.61485 0.39131 0.0
H1040 H 0.1245 0.70321 0.3579 0.0
H1041 H 0.07419 0.65451 0.32973 0.0
C1042 C 0.04455 0.51184 0.23827 0.0
C1043 C 0.05576 0.54242 0.22554 0.0
C1044 C 0.03318 0.51398 0.25898 0.0
C1045 C 0.03259 0.54665 0.26733 0.0
C1046 C 0.04421 0.57753 0.25477 0.0
C1047 C 0.0556 0.57537 0.23393 0.0
C1048 C 0.02106 0.54862 0.28954 0.0
C1049 C 0.04802 0.57727 0.30573 0.0
C1050 C 0.98547 0.52005 0.29533 0.0
C1051 C 0.95524 0.49025 0.27854 0.0
C1052 C 0.94292 0.50055 0.25947 0.0
C1053 C 0.91528 0.47236 0.24342 0.0
C1054 C 0.89947 0.43373 0.24632 0.0
C1055 C 0.91118 0.42322 0.26531 0.0
C1056 C 0.93889 0.4513 0.28139 0.0
C1057 C 0.99963 0.58206 0.39089 0.0
C1058 C 1.00087 0.5543 0.40285 0.0
C1059 C 0.99788 0.57836 0.36803 0.0
C1060 C 0.99769 0.547 0.35686 0.0
C1061 C 0.99537 0.51748 0.36861 0.0
C1062 C 0.99714 0.5212 0.39159 0.0
C1063 C 1.00591 0.54807 0.33372 0.0
C1064 C 0.97848 0.51997 0.31746 0.0
C1065 C 0.04111 0.57709 0.3278 0.0
C1066 C 0.0719 0.60646 0.34449 0.0
C1067 C 0.08753 0.59563 0.3619 0.0
C1068 C 0.11585 0.62338 0.37785 0.0
C1069 C 0.12907 0.66212 0.37644 0.0
C1070 C 0.11414 0.67318 0.35901 0.0
C1071 C 0.08573 0.64551 0.34304 0.0
H1072 H 0.15096 0.68357 0.38883 0.0
H1073 H 0.87809 0.41192 0.23388 0.0
loop_
_geom_bond_atom_site_label_1
_geom_bond_atom_site_label_2
_geom_bond_distance
_geom_bond_site_symmetry_2
_ccdc_geom_bond_type
Dy0 O4 2.398 . S
Dy0 O5 2.491 . S
Dy0 O6 2.403 . S
Dy0 O7 2.664 . S
Dy0 O11 2.326 . S
Dy0 O15 2.310 . S
Dy0 O16 2.351 . S
C1 O12 1.185 . S
C1 O13 1.355 . S
C2 O4 1.185 . S
C2 O5 1.355 . S
Dy3 O7 2.310 . S
Dy3 O10 2.351 . S
Dy3 O12 2.398 1_455 S
Dy3 O13 2.491 1_455 S
Dy3 O14 2.403 . S
Dy3 O15 2.664 . S
Dy3 O17 2.326 1_455 S
O4 Dy0 2.398 . S
O4 C2 1.185 . S
O5 Dy0 2.491 . S
O5 C2 1.355 . S
O6 Dy0 2.403 . S
O6 C8 1.254 . S
O7 Dy0 2.664 . S
O7 Dy3 2.310 . S
O7 C8 1.268 . S
C8 O6 1.254 . S
C8 O7 1.268 . S
C9 O14 1.254 . S
C9 O15 1.268 . S
O10 Dy3 2.351 . S
O10 C18 1.249 . S
O11 Dy0 2.326 . S
O11 C18 1.267 . S
O12 C1 1.185 . S
O12 Dy3 2.398 1_655 S
O13 C1 1.355 . S
O13 Dy3 2.491 1_655 S
O14 Dy3 2.403 . S
O14 C9 1.254 . S
O15 Dy0 2.310 . S
O15 Dy3 2.664 . S
O15 C9 1.268 . S
O16 Dy0 2.351 . S
O16 C19 1.249 1_455 S
O17 Dy3 2.326 1_655 S
O17 C19 1.267 . S
C18 O10 1.249 . S
C18 O11 1.267 . S
C19 O16 1.249 1_655 S
C19 O17 1.267 . S
Dy20 O24 2.398 1_545 S
Dy20 O25 2.491 1_545 S
Dy20 O26 2.403 . S
Dy20 O27 2.664 . S
Dy20 O31 2.326 1_545 S
Dy20 O35 2.310 . S
Dy20 O36 2.351 . S
C21 O32 1.185 . S
C21 O33 1.355 . S
C22 O24 1.185 . S
C22 O25 1.355 . S
Dy23 O27 2.310 . S
Dy23 O30 2.351 1_545 S
Dy23 O32 2.398 . S
Dy23 O33 2.491 . S
Dy23 O34 2.403 . S
Dy23 O35 2.664 . S
Dy23 O37 2.326 . S
O24 Dy20 2.398 1_565 S
O24 C22 1.185 . S
O25 Dy20 2.491 1_565 S
O25 C22 1.355 . S
O26 Dy20 2.403 . S
O26 C28 1.254 . S
O27 Dy20 2.664 . S
O27 Dy23 2.310 . S
O27 C28 1.268 . S
C28 O26 1.254 . S
C28 O27 1.268 . S
C29 O34 1.254 . S
C29 O35 1.268 . S
O30 Dy23 2.351 1_565 S
O30 C38 1.249 . S
O31 Dy20 2.326 1_565 S
O31 C38 1.267 . S
O32 C21 1.185 . S
O32 Dy23 2.398 . S
O33 C21 1.355 . S
O33 Dy23 2.491 . S
O34 Dy23 2.403 . S
O34 C29 1.254 . S
O35 Dy20 2.310 . S
O35 Dy23 2.664 . S
O35 C29 1.268 . S
O36 Dy20 2.351 . S
O36 C39 1.249 . S
O37 Dy23 2.326 . S
O37 C39 1.267 . S
C38 O30 1.249 . S
C38 O31 1.267 . S
C39 O36 1.249 . S
C39 O37 1.267 . S
Dy40 O44 2.398 . S
Dy40 O45 2.491 . S
Dy40 O46 2.403 . S
Dy40 O47 2.664 . S
Dy40 O51 2.326 . S
Dy40 O55 2.310 . S
Dy40 O56 2.351 . S
C41 O52 1.185 . S
C41 O53 1.355 . S
C42 O44 1.185 . S
C42 O45 1.355 . S
Dy43 O47 2.310 . S
Dy43 O50 2.351 . S
Dy43 O52 2.398 . S
Dy43 O53 2.491 . S
Dy43 O54 2.403 . S
Dy43 O55 2.664 . S
Dy43 O57 2.326 . S
O44 Dy40 2.398 . S
O44 C42 1.185 . S
O45 Dy40 2.491 . S
O45 C42 1.355 . S
O46 Dy40 2.403 . S
O46 C48 1.254 . S
O47 Dy40 2.664 . S
O47 Dy43 2.310 . S
O47 C48 1.268 . S
C48 O46 1.254 . S
C48 O47 1.268 . S
C49 O54 1.254 . S
C49 O55 1.268 . S
O50 Dy43 2.351 . S
O50 C58 1.249 . S
O51 Dy40 2.326 . S
O51 C58 1.267 . S
O52 C41 1.185 . S
O52 Dy43 2.398 . S
O53 C41 1.355 . S
O53 Dy43 2.491 . S
O54 Dy43 2.403 . S
O54 C49 1.254 . S
O55 Dy40 2.310 . S
O55 Dy43 2.664 . S
O55 C49 1.268 . S
O56 Dy40 2.351 . S
O56 C59 1.249 . S
O57 Dy43 2.326 . S
O57 C59 1.267 . S
C58 O50 1.249 . S
C58 O51 1.267 . S
C59 O56 1.249 . S
C59 O57 1.267 . S
H60 C61 0.949 . S
C61 H60 0.949 . S
C61 C62 1.395 . S
C61 C63 1.391 . S
C62 C61 1.395 . S
C62 C65 1.390 1_545 S
C63 C61 1.391 . S
C63 C67 1.387 . S
C63 C68 1.491 . S
H64 C65 0.950 . S
C65 C62 1.390 1_565 S
C65 H64 0.950 . S
C65 C66 1.378 . S
C66 C65 1.378 . S
C66 C67 1.409 1_565 S
C67 C63 1.387 . S
C67 C66 1.409 1_545 S
C67 H69 0.951 1_545 S
C68 C63 1.491 . S
C68 C70 1.382 . S
C68 C72 1.404 . S
H69 C67 0.951 1_565 S
C70 C68 1.382 . S
C70 C71 1.390 . S
C70 H75 0.949 . S
C71 C70 1.390 . S
C71 C76 1.399 . S
C72 C68 1.404 . S
C72 H73 0.950 . S
C72 C74 1.375 . S
H73 C72 0.950 . S
C74 C72 1.375 . S
C74 C76 1.382 . S
C74 H78 0.950 . S
H75 C70 0.949 . S
C76 C71 1.399 . S
C76 C74 1.382 . S
C76 H77 0.952 . S
H77 C76 0.952 . S
H78 C74 0.950 . S
H79 C80 0.949 . S
C80 H79 0.949 . S
C80 C81 1.395 . S
C80 C82 1.391 . S
C81 C80 1.395 . S
C81 C84 1.390 . S
C82 C80 1.391 . S
C82 C86 1.387 . S
C82 C87 1.491 . S
H83 C84 0.950 . S
C84 C81 1.390 . S
C84 H83 0.950 . S
C84 C85 1.378 . S
C85 C84 1.378 . S
C85 C86 1.409 . S
C86 C82 1.387 . S
C86 C85 1.409 . S
C86 H88 0.951 . S
C87 C82 1.491 . S
C87 C89 1.382 . S
C87 C91 1.404 . S
H88 C86 0.951 . S
C89 C87 1.382 . S
C89 C90 1.390 . S
C89 H94 0.949 . S
C90 C89 1.390 . S
C90 C95 1.399 . S
C91 C87 1.404 . S
C91 H92 0.950 . S
C91 C93 1.375 . S
H92 C91 0.950 . S
C93 C91 1.375 . S
C93 C95 1.382 . S
C93 H97 0.950 . S
H94 C89 0.949 . S
C95 C90 1.399 . S
C95 C93 1.382 . S
C95 H96 0.952 . S
H96 C95 0.952 . S
H97 C93 0.950 . S
H98 C99 0.949 . S
C99 H98 0.949 . S
C99 C100 1.395 . S
C99 C101 1.391 . S
C100 C99 1.395 . S
C100 C103 1.390 . S
C101 C99 1.391 . S
C101 C105 1.387 . S
C101 C106 1.491 . S
H102 C103 0.950 . S
C103 C100 1.390 . S
C103 H102 0.950 . S
C103 C104 1.378 . S
C104 C103 1.378 . S
C104 C105 1.409 . S
C105 C101 1.387 . S
C105 C104 1.409 . S
C105 H107 0.951 . S
C106 C101 1.491 . S
C106 C108 1.382 . S
C106 C110 1.404 . S
H107 C105 0.951 . S
C108 C106 1.382 . S
C108 C109 1.390 . S
C108 H113 0.949 . S
C109 C108 1.390 . S
C109 C114 1.399 . S
C110 C106 1.404 . S
C110 H111 0.950 . S
C110 C112 1.375 . S
H111 C110 0.950 . S
C112 C110 1.375 . S
C112 C114 1.382 . S
C112 H116 0.950 . S
H113 C108 0.949 . S
C114 C109 1.399 . S
C114 C112 1.382 . S
C114 H115 0.952 . S
H115 C114 0.952 . S
H116 C112 0.950 . S
H117 C118 0.949 . S
C118 H117 0.949 . S
C118 C119 1.395 1_655 S
C118 C120 1.391 . S
C119 C118 1.395 1_455 S
C119 C122 1.390 . S
C120 C118 1.391 . S
C120 C124 1.387 1_655 S
C120 C125 1.491 . S
H121 C122 0.950 . S
C122 C119 1.390 . S
C122 H121 0.950 . S
C122 C123 1.378 . S
C123 C122 1.378 . S
C123 C124 1.409 . S
C124 C120 1.387 1_455 S
C124 C123 1.409 . S
C124 H126 0.951 . S
C125 C120 1.491 . S
C125 C127 1.382 . S
C125 C129 1.404 . S
H126 C124 0.951 . S
C127 C125 1.382 . S
C127 C128 1.390 . S
C127 H132 0.949 . S
C128 C127 1.390 . S
C128 C133 1.399 . S
C129 C125 1.404 . S
C129 H130 0.950 . S
C129 C131 1.375 . S
H130 C129 0.950 . S
C131 C129 1.375 . S
C131 C133 1.382 . S
C131 H135 0.950 . S
H132 C127 0.949 . S
C133 C128 1.399 . S
C133 C131 1.382 . S
C133 H134 0.952 . S
H134 C133 0.952 . S
H135 C131 0.950 . S
H136 C137 0.949 . S
C137 H136 0.949 . S
C137 C138 1.395 . S
C137 C139 1.391 . S
C138 C137 1.395 . S
C138 C141 1.390 . S
C139 C137 1.391 . S
C139 C143 1.387 . S
C139 C144 1.491 . S
H140 C141 0.950 . S
C141 C138 1.390 . S
C141 H140 0.950 . S
C141 C142 1.378 . S
C142 C141 1.378 . S
C142 C143 1.409 . S
C143 C139 1.387 . S
C143 C142 1.409 . S
C143 H145 0.951 . S
C144 C139 1.491 . S
C144 C146 1.382 1_545 S
C144 C148 1.404 1_545 S
H145 C143 0.951 . S
C146 C144 1.382 1_565 S
C146 C147 1.390 . S
C146 H151 0.949 . S
C147 C146 1.390 . S
C147 C152 1.399 . S
C148 C144 1.404 1_565 S
C148 H149 0.950 1_565 S
C148 C150 1.375 . S
H149 C148 0.950 1_545 S
C150 C148 1.375 . S
C150 C152 1.382 . S
C150 H154 0.950 . S
H151 C146 0.949 . S
C152 C147 1.399 . S
C152 C150 1.382 . S
C152 H153 0.952 . S
H153 C152 0.952 . S
H154 C150 0.950 . S
H155 C156 0.949 . S
C156 H155 0.949 . S
C156 C157 1.395 . S
C156 C158 1.391 . S
C157 C156 1.395 . S
C157 C160 1.390 . S
C158 C156 1.391 . S
C158 C162 1.387 . S
C158 C163 1.491 . S
H159 C160 0.950 . S
C160 C157 1.390 . S
C160 H159 0.950 . S
C160 C161 1.378 . S
C161 C160 1.378 . S
C161 C162 1.409 . S
C162 C158 1.387 . S
C162 C161 1.409 . S
C162 H164 0.951 . S
C163 C158 1.491 . S
C163 C165 1.382 . S
C163 C167 1.404 . S
H164 C162 0.951 . S
C165 C163 1.382 . S
C165 C166 1.390 . S
C165 H170 0.949 . S
C166 C165 1.390 . S
C166 C171 1.399 . S
C167 C163 1.404 . S
C167 H168 0.950 . S
C167 C169 1.375 . S
H168 C167 0.950 . S
C169 C167 1.375 . S
C169 C171 1.382 . S
C169 H173 0.950 . S
H170 C165 0.949 . S
C171 C166 1.399 . S
C171 C169 1.382 . S
C171 H172 0.952 . S
H172 C171 0.952 . S
H173 C169 0.950 . S
H174 C192 0.951 . S
H175 C194 0.951 . S
H176 C196 0.950 . S
H177 C197 0.950 . S
H178 C199 0.950 . S
H179 C202 0.950 . S
H180 C203 0.950 . S
H181 C205 0.950 . S
H182 C206 0.950 . S
H183 C207 0.951 . S
H184 C209 0.951 . S
H185 C211 0.950 . S
H186 C212 0.950 . S
H187 C214 0.950 . S
H188 C217 0.950 . S
H189 C218 0.950 . S
H190 C220 0.950 . S
H191 C221 0.950 . S
C192 H174 0.951 . S
C192 C193 1.366 . S
C192 C194 1.388 . S
C193 C192 1.366 . S
C193 C197 1.385 . S
C194 H175 0.951 . S
C194 C192 1.388 . S
C194 C195 1.366 . S
C195 C194 1.366 . S
C195 C196 1.414 . S
C195 C198 1.499 . S
C196 H176 0.950 . S
C196 C195 1.414 . S
C196 C197 1.374 . S
C197 H177 0.950 . S
C197 C193 1.385 . S
C197 C196 1.374 . S
C198 C195 1.499 . S
C198 C199 1.373 . S
C198 C200 1.389 . S
C199 H178 0.950 . S
C199 C198 1.373 . S
C199 C215 1.377 . S
C200 C198 1.389 . S
C200 C201 1.524 . S
C200 C214 1.377 . S
C201 C200 1.524 . S
C201 C202 1.397 . S
C201 C206 1.363 . S
C202 H179 0.950 . S
C202 C201 1.397 . S
C202 C203 1.334 . S
C203 H180 0.950 . S
C203 C202 1.334 . S
C203 C204 1.287 . S
C204 C203 1.287 . S
C204 C205 1.524 . S
C204 H223 0.913 . S
C205 H181 0.950 . S
C205 C204 1.524 . S
C205 C206 1.415 . S
C206 H182 0.950 . S
C206 C201 1.363 . S
C206 C205 1.415 . S
C207 H183 0.951 . S
C207 C208 1.366 . S
C207 C209 1.388 . S
C208 C207 1.366 . S
C208 C212 1.385 . S
C209 H184 0.951 . S
C209 C207 1.388 . S
C209 C210 1.366 . S
C210 C209 1.366 . S
C210 C211 1.414 . S
C210 C213 1.499 . S
C211 H185 0.950 . S
C211 C210 1.414 . S
C211 C212 1.374 . S
C212 H186 0.950 . S
C212 C208 1.385 . S
C212 C211 1.374 . S
C213 C210 1.499 . S
C213 C214 1.373 . S
C213 C215 1.389 . S
C214 H187 0.950 . S
C214 C200 1.377 . S
C214 C213 1.373 . S
C215 C199 1.377 . S
C215 C213 1.389 . S
C215 C216 1.524 . S
C216 C215 1.524 . S
C216 C217 1.397 . S
C216 C221 1.363 . S
C217 H188 0.950 . S
C217 C216 1.397 . S
C217 C218 1.334 . S
C218 H189 0.950 . S
C218 C217 1.334 . S
C218 C219 1.287 . S
C219 C218 1.287 . S
C219 C220 1.524 . S
C219 H222 0.999 . S
C220 H190 0.950 . S
C220 C219 1.524 . S
C220 C221 1.415 . S
C221 H191 0.950 . S
C221 C216 1.363 . S
C221 C220 1.415 . S
H222 C219 0.999 . S
H223 C204 0.913 . S
H224 C242 0.951 . S
H225 C244 0.951 . S
H226 C246 0.950 . S
H227 C247 0.950 . S
H228 C249 0.950 . S
H229 C252 0.950 . S
H230 C253 0.950 . S
H231 C255 0.950 . S
H232 C256 0.950 . S
H233 C257 0.951 . S
H234 C259 0.951 . S
H235 C261 0.950 . S
H236 C262 0.950 . S
H237 C264 0.950 . S
H238 C267 0.950 . S
H239 C268 0.950 . S
H240 C270 0.950 . S
H241 C271 0.950 . S
C242 H224 0.951 . S
C242 C243 1.366 . S
C242 C244 1.388 . S
C243 C242 1.366 . S
C243 C247 1.385 . S
C244 H225 0.951 . S
C244 C242 1.388 . S
C244 C245 1.366 . S
C245 C244 1.366 . S
C245 C246 1.414 . S
C245 C248 1.499 . S
C246 H226 0.950 . S
C246 C245 1.414 . S
C246 C247 1.374 . S
C247 H227 0.950 . S
C247 C243 1.385 . S
C247 C246 1.374 . S
C248 C245 1.499 . S
C248 C249 1.373 . S
C248 C250 1.389 . S
C249 H228 0.950 . S
C249 C248 1.373 . S
C249 C265 1.377 . S
C250 C248 1.389 . S
C250 C251 1.524 . S
C250 C264 1.377 . S
C251 C250 1.524 . S
C251 C252 1.397 . S
C251 C256 1.363 . S
C252 H229 0.950 . S
C252 C251 1.397 . S
C252 C253 1.334 . S
C253 H230 0.950 . S
C253 C252 1.334 . S
C253 C254 1.287 . S
C254 C253 1.287 . S
C254 C255 1.524 . S
C254 H273 0.913 . S
C255 H231 0.950 . S
C255 C254 1.524 . S
C255 C256 1.415 . S
C256 H232 0.950 . S
C256 C251 1.363 . S
C256 C255 1.415 . S
C257 H233 0.951 . S
C257 C258 1.366 . S
C257 C259 1.388 . S
C258 C257 1.366 . S
C258 C262 1.385 . S
C259 H234 0.951 . S
C259 C257 1.388 . S
C259 C260 1.366 . S
C260 C259 1.366 . S
C260 C261 1.414 . S
C260 C263 1.499 . S
C261 H235 0.950 . S
C261 C260 1.414 . S
C261 C262 1.374 . S
C262 H236 0.950 . S
C262 C258 1.385 . S
C262 C261 1.374 . S
C263 C260 1.499 . S
C263 C264 1.373 . S
C263 C265 1.389 . S
C264 H237 0.950 . S
C264 C250 1.377 . S
C264 C263 1.373 . S
C265 C249 1.377 . S
C265 C263 1.389 . S
C265 C266 1.524 . S
C266 C265 1.524 . S
C266 C267 1.397 . S
C266 C271 1.363 . S
C267 H238 0.950 . S
C267 C266 1.397 . S
C267 C268 1.334 . S
C268 H239 0.950 . S
C268 C267 1.334 . S
C268 C269 1.287 . S
C269 C268 1.287 . S
C269 C270 1.524 . S
C269 H272 0.999 . S
C270 H240 0.950 . S
C270 C269 1.524 . S
C270 C271 1.415 . S
C271 H241 0.950 . S
C271 C266 1.363 . S
C271 C270 1.415 . S
H272 C269 0.999 . S
H273 C254 0.913 . S
H274 C292 0.951 . S
H275 C294 0.951 . S
H276 C296 0.950 . S
H277 C297 0.950 . S
H278 C299 0.950 . S
H279 C302 0.950 . S
H280 C303 0.950 . S
H281 C305 0.950 . S
H282 C306 0.950 . S
H283 C307 0.951 . S
H284 C309 0.951 . S
H285 C311 0.950 . S
H286 C312 0.950 . S
H287 C314 0.950 . S
H288 C317 0.950 . S
H289 C318 0.950 . S
H290 C320 0.950 . S
H291 C321 0.950 . S
C292 H274 0.951 . S
C292 C293 1.366 . S
C292 C294 1.388 . S
C293 C292 1.366 . S
C293 C297 1.385 . S
C294 H275 0.951 . S
C294 C292 1.388 . S
C294 C295 1.366 . S
C295 C294 1.366 . S
C295 C296 1.414 . S
C295 C298 1.499 . S
C296 H276 0.950 . S
C296 C295 1.414 . S
C296 C297 1.374 . S
C297 H277 0.950 . S
C297 C293 1.385 . S
C297 C296 1.374 . S
C298 C295 1.499 . S
C298 C299 1.373 . S
C298 C300 1.389 . S
C299 H278 0.950 . S
C299 C298 1.373 . S
C299 C315 1.377 . S
C300 C298 1.389 . S
C300 C301 1.524 . S
C300 C314 1.377 . S
C301 C300 1.524 . S
C301 C302 1.397 . S
C301 C306 1.363 . S
C302 H279 0.950 . S
C302 C301 1.397 . S
C302 C303 1.334 . S
C303 H280 0.950 . S
C303 C302 1.334 . S
C303 C304 1.287 . S
C304 C303 1.287 . S
C304 C305 1.524 . S
C304 H323 0.913 . S
C305 H281 0.950 . S
C305 C304 1.524 . S
C305 C306 1.415 . S
C306 H282 0.950 . S
C306 C301 1.363 . S
C306 C305 1.415 . S
C307 H283 0.951 . S
C307 C308 1.366 . S
C307 C309 1.388 . S
C308 C307 1.366 . S
C308 C312 1.385 . S
C309 H284 0.951 . S
C309 C307 1.388 . S
C309 C310 1.366 . S
C310 C309 1.366 . S
C310 C311 1.414 . S
C310 C313 1.499 . S
C311 H285 0.950 . S
C311 C310 1.414 . S
C311 C312 1.374 . S
C312 H286 0.950 . S
C312 C308 1.385 . S
C312 C311 1.374 . S
C313 C310 1.499 . S
C313 C314 1.373 . S
C313 C315 1.389 . S
C314 H287 0.950 . S
C314 C300 1.377 . S
C314 C313 1.373 . S
C315 C299 1.377 . S
C315 C313 1.389 . S
C315 C316 1.524 . S
C316 C315 1.524 . S
C316 C317 1.397 . S
C316 C321 1.363 . S
C317 H288 0.950 . S
C317 C316 1.397 . S
C317 C318 1.334 . S
C318 H289 0.950 . S
C318 C317 1.334 . S
C318 C319 1.287 . S
C319 C318 1.287 . S
C319 C320 1.524 . S
C319 H322 0.999 . S
C320 H290 0.950 . S
C320 C319 1.524 . S
C320 C321 1.415 . S
C321 H291 0.950 . S
C321 C316 1.363 . S
C321 C320 1.415 . S
H322 C319 0.999 . S
H323 C304 0.913 . S
H324 C342 0.951 . S
H325 C344 0.951 . S
H326 C346 0.950 . S
H327 C347 0.950 . S
H328 C349 0.950 . S
H329 C352 0.950 . S
H330 C353 0.950 . S
H331 C355 0.950 . S
H332 C356 0.950 . S
H333 C357 0.951 . S
H334 C359 0.951 . S
H335 C361 0.950 . S
H336 C362 0.950 . S
H337 C364 0.950 . S
H338 C367 0.950 . S
H339 C368 0.950 . S
H340 C370 0.950 . S
H341 C371 0.950 . S
C342 H324 0.951 . S
C342 C343 1.366 . S
C342 C344 1.388 . S
C343 C342 1.366 . S
C343 C347 1.385 . S
C344 H325 0.951 . S
C344 C342 1.388 . S
C344 C345 1.366 . S
C345 C344 1.366 . S
C345 C346 1.414 . S
C345 C348 1.499 . S
C346 H326 0.950 . S
C346 C345 1.414 . S
C346 C347 1.374 . S
C347 H327 0.950 . S
C347 C343 1.385 . S
C347 C346 1.374 . S
C348 C345 1.499 . S
C348 C349 1.373 . S
C348 C350 1.389 . S
C349 H328 0.950 . S
C349 C348 1.373 . S
C349 C365 1.377 . S
C350 C348 1.389 . S
C350 C351 1.524 . S
C350 C364 1.377 . S
C351 C350 1.524 . S
C351 C352 1.397 . S
C351 C356 1.363 . S
C352 H329 0.950 . S
C352 C351 1.397 . S
C352 C353 1.334 . S
C353 H330 0.950 . S
C353 C352 1.334 . S
C353 C354 1.287 . S
C354 C353 1.287 . S
C354 C355 1.524 . S
C354 H373 0.913 . S
C355 H331 0.950 . S
C355 C354 1.524 . S
C355 C356 1.415 . S
C356 H332 0.950 . S
C356 C351 1.363 . S
C356 C355 1.415 . S
C357 H333 0.951 . S
C357 C358 1.366 . S
C357 C359 1.388 . S
C358 C357 1.366 . S
C358 C362 1.385 . S
C359 H334 0.951 . S
C359 C357 1.388 . S
C359 C360 1.366 . S
C360 C359 1.366 . S
C360 C361 1.414 . S
C360 C363 1.499 . S
C361 H335 0.950 . S
C361 C360 1.414 . S
C361 C362 1.374 . S
C362 H336 0.950 . S
C362 C358 1.385 . S
C362 C361 1.374 . S
C363 C360 1.499 . S
C363 C364 1.373 . S
C363 C365 1.389 . S
C364 H337 0.950 . S
C364 C350 1.377 . S
C364 C363 1.373 . S
C365 C349 1.377 . S
C365 C363 1.389 . S
C365 C366 1.524 . S
C366 C365 1.524 . S
C366 C367 1.397 . S
C366 C371 1.363 . S
C367 H338 0.950 . S
C367 C366 1.397 . S
C367 C368 1.334 . S
C368 H339 0.950 . S
C368 C367 1.334 . S
C368 C369 1.287 . S
C369 C368 1.287 . S
C369 C370 1.524 . S
C369 H372 0.999 . S
C370 H340 0.950 . S
C370 C369 1.524 . S
C370 C371 1.415 . S
C371 H341 0.950 . S
C371 C366 1.363 . S
C371 C370 1.415 . S
H372 C369 0.999 . S
H373 C354 0.913 . S
H374 C392 0.951 . S
H375 C394 0.951 . S
H376 C396 0.950 . S
H377 C397 0.950 . S
H378 C399 0.950 . S
H379 C402 0.950 . S
H380 C403 0.950 . S
H381 C405 0.950 . S
H382 C406 0.950 . S
H383 C407 0.951 . S
H384 C409 0.951 . S
H385 C411 0.950 . S
H386 C412 0.950 . S
H387 C414 0.950 . S
H388 C417 0.950 . S
H389 C418 0.950 . S
H390 C420 0.950 . S
H391 C421 0.950 . S
C392 H374 0.951 . S
C392 C393 1.366 . S
C392 C394 1.388 . S
C393 C392 1.366 . S
C393 C397 1.385 . S
C394 H375 0.951 . S
C394 C392 1.388 . S
C394 C395 1.366 . S
C395 C394 1.366 . S
C395 C396 1.414 . S
C395 C398 1.499 . S
C396 H376 0.950 . S
C396 C395 1.414 . S
C396 C397 1.374 . S
C397 H377 0.950 . S
C397 C393 1.385 . S
C397 C396 1.374 . S
C398 C395 1.499 . S
C398 C399 1.373 . S
C398 C400 1.389 . S
C399 H378 0.950 . S
C399 C398 1.373 . S
C399 C415 1.377 . S
C400 C398 1.389 . S
C400 C401 1.524 . S
C400 C414 1.377 . S
C401 C400 1.524 . S
C401 C402 1.397 . S
C401 C406 1.363 . S
C402 H379 0.950 . S
C402 C401 1.397 . S
C402 C403 1.334 . S
C403 H380 0.950 . S
C403 C402 1.334 . S
C403 C404 1.287 . S
C404 C403 1.287 . S
C404 C405 1.524 . S
C404 H423 0.913 . S
C405 H381 0.950 . S
C405 C404 1.524 . S
C405 C406 1.415 . S
C406 H382 0.950 . S
C406 C401 1.363 . S
C406 C405 1.415 . S
C407 H383 0.951 . S
C407 C408 1.366 . S
C407 C409 1.388 . S
C408 C407 1.366 . S
C408 C412 1.385 . S
C409 H384 0.951 . S
C409 C407 1.388 . S
C409 C410 1.366 . S
C410 C409 1.366 . S
C410 C411 1.414 . S
C410 C413 1.499 . S
C411 H385 0.950 . S
C411 C410 1.414 . S
C411 C412 1.374 . S
C412 H386 0.950 . S
C412 C408 1.385 . S
C412 C411 1.374 . S
C413 C410 1.499 . S
C413 C414 1.373 . S
C413 C415 1.389 . S
C414 H387 0.950 . S
C414 C400 1.377 . S
C414 C413 1.373 . S
C415 C399 1.377 . S
C415 C413 1.389 . S
C415 C416 1.524 . S
C416 C415 1.524 . S
C416 C417 1.397 . S
C416 C421 1.363 . S
C417 H388 0.950 . S
C417 C416 1.397 . S
C417 C418 1.334 . S
C418 H389 0.950 . S
C418 C417 1.334 . S
C418 C419 1.287 . S
C419 C418 1.287 . S
C419 C420 1.524 . S
C419 H422 0.999 . S
C420 H390 0.950 . S
C420 C419 1.524 . S
C420 C421 1.415 . S
C421 H391 0.950 . S
C421 C416 1.363 . S
C421 C420 1.415 . S
H422 C419 0.999 . S
H423 C404 0.913 . S
H424 C442 0.951 . S
H425 C444 0.951 . S
H426 C446 0.950 . S
H427 C447 0.950 . S
H428 C449 0.950 . S
H429 C452 0.950 . S
H430 C453 0.950 . S
H431 C455 0.950 . S
H432 C456 0.950 . S
H433 C457 0.951 . S
H434 C459 0.951 . S
H435 C461 0.950 . S
H436 C462 0.950 . S
H437 C464 0.950 . S
H438 C467 0.950 . S
H439 C468 0.950 . S
H440 C470 0.950 . S
H441 C471 0.950 . S
C442 H424 0.951 . S
C442 C443 1.366 . S
C442 C444 1.388 . S
C443 C442 1.366 . S
C443 C447 1.385 . S
C444 H425 0.951 . S
C444 C442 1.388 . S
C444 C445 1.366 . S
C445 C444 1.366 . S
C445 C446 1.414 . S
C445 C448 1.499 . S
C446 H426 0.950 . S
C446 C445 1.414 . S
C446 C447 1.374 . S
C447 H427 0.950 . S
C447 C443 1.385 . S
C447 C446 1.374 . S
C448 C445 1.499 . S
C448 C449 1.373 . S
C448 C450 1.389 . S
C449 H428 0.950 . S
C449 C448 1.373 . S
C449 C465 1.377 . S
C450 C448 1.389 . S
C450 C451 1.524 . S
C450 C464 1.377 . S
C451 C450 1.524 . S
C451 C452 1.397 . S
C451 C456 1.363 . S
C452 H429 0.950 . S
C452 C451 1.397 . S
C452 C453 1.334 . S
C453 H430 0.950 . S
C453 C452 1.334 . S
C453 C454 1.287 . S
C454 C453 1.287 . S
C454 C455 1.524 . S
C454 H473 0.913 . S
C455 H431 0.950 . S
C455 C454 1.524 . S
C455 C456 1.415 . S
C456 H432 0.950 . S
C456 C451 1.363 . S
C456 C455 1.415 . S
C457 H433 0.951 . S
C457 C458 1.366 . S
C457 C459 1.388 . S
C458 C457 1.366 . S
C458 C462 1.385 . S
C459 H434 0.951 . S
C459 C457 1.388 . S
C459 C460 1.366 . S
C460 C459 1.366 . S
C460 C461 1.414 . S
C460 C463 1.499 . S
C461 H435 0.950 . S
C461 C460 1.414 . S
C461 C462 1.374 . S
C462 H436 0.950 . S
C462 C458 1.385 . S
C462 C461 1.374 . S
C463 C460 1.499 . S
C463 C464 1.373 . S
C463 C465 1.389 . S
C464 H437 0.950 . S
C464 C450 1.377 . S
C464 C463 1.373 . S
C465 C449 1.377 . S
C465 C463 1.389 . S
C465 C466 1.524 . S
C466 C465 1.524 . S
C466 C467 1.397 . S
C466 C471 1.363 . S
C467 H438 0.950 . S
C467 C466 1.397 . S
C467 C468 1.334 . S
C468 H439 0.950 . S
C468 C467 1.334 . S
C468 C469 1.287 . S
C469 C468 1.287 . S
C469 C470 1.524 . S
C469 H472 0.999 . S
C470 H440 0.950 . S
C470 C469 1.524 . S
C470 C471 1.415 . S
C471 H441 0.950 . S
C471 C466 1.363 . S
C471 C470 1.415 . S
H472 C469 0.999 . S
H473 C454 0.913 . S
H474 C492 0.951 . S
H475 C494 0.951 . S
H476 C496 0.950 . S
H477 C497 0.950 . S
H478 C499 0.950 . S
H479 C502 0.950 . S
H480 C503 0.950 . S
H481 C505 0.950 . S
H482 C506 0.950 . S
H483 C507 0.951 . S
H484 C509 0.951 . S
H485 C511 0.950 . S
H486 C512 0.950 . S
H487 C514 0.950 . S
H488 C517 0.950 . S
H489 C518 0.950 . S
H490 C520 0.950 . S
H491 C521 0.950 . S
C492 H474 0.951 . S
C492 C493 1.366 . S
C492 C494 1.388 . S
C493 C492 1.366 . S
C493 C497 1.385 . S
C494 H475 0.951 . S
C494 C492 1.388 . S
C494 C495 1.366 . S
C495 C494 1.366 . S
C495 C496 1.414 . S
C495 C498 1.499 . S
C496 H476 0.950 . S
C496 C495 1.414 . S
C496 C497 1.374 . S
C497 H477 0.950 . S
C497 C493 1.385 . S
C497 C496 1.374 . S
C498 C495 1.499 . S
C498 C499 1.373 . S
C498 C500 1.389 . S
C499 H478 0.950 . S
C499 C498 1.373 . S
C499 C515 1.377 . S
C500 C498 1.389 . S
C500 C501 1.524 . S
C500 C514 1.377 . S
C501 C500 1.524 . S
C501 C502 1.397 . S
C501 C506 1.363 . S
C502 H479 0.950 . S
C502 C501 1.397 . S
C502 C503 1.334 . S
C503 H480 0.950 . S
C503 C502 1.334 . S
C503 C504 1.287 . S
C504 C503 1.287 . S
C504 C505 1.524 . S
C504 H523 0.913 . S
C505 H481 0.950 . S
C505 C504 1.524 . S
C505 C506 1.415 . S
C506 H482 0.950 . S
C506 C501 1.363 . S
C506 C505 1.415 . S
C507 H483 0.951 . S
C507 C508 1.366 . S
C507 C509 1.388 . S
C508 C507 1.366 . S
C508 C512 1.385 . S
C509 H484 0.951 . S
C509 C507 1.388 . S
C509 C510 1.366 . S
C510 C509 1.366 . S
C510 C511 1.414 . S
C510 C513 1.499 . S
C511 H485 0.950 . S
C511 C510 1.414 . S
C511 C512 1.374 . S
C512 H486 0.950 . S
C512 C508 1.385 . S
C512 C511 1.374 . S
C513 C510 1.499 . S
C513 C514 1.373 . S
C513 C515 1.389 . S
C514 H487 0.950 . S
C514 C500 1.377 . S
C514 C513 1.373 . S
C515 C499 1.377 . S
C515 C513 1.389 . S
C515 C516 1.524 . S
C516 C515 1.524 . S
C516 C517 1.397 . S
C516 C521 1.363 . S
C517 H488 0.950 . S
C517 C516 1.397 . S
C517 C518 1.334 . S
C518 H489 0.950 . S
C518 C517 1.334 . S
C518 C519 1.287 . S
C519 C518 1.287 . S
C519 C520 1.524 . S
C519 H522 0.999 . S
C520 H490 0.950 . S
C520 C519 1.524 . S
C520 C521 1.415 . S
C521 H491 0.950 . S
C521 C516 1.363 . S
C521 C520 1.415 . S
H522 C519 0.999 . S
H523 C504 0.913 . S
H524 C542 0.951 . S
H525 C544 0.951 . S
H526 C546 0.950 . S
H527 C547 0.950 . S
H528 C549 0.950 . S
H529 C552 0.950 . S
H530 C553 0.950 . S
H531 C555 0.950 . S
H532 C556 0.950 . S
H533 C557 0.951 . S
H534 C559 0.951 . S
H535 C561 0.950 . S
H536 C562 0.950 . S
H537 C564 0.950 . S
H538 C567 0.950 . S
H539 C568 0.950 . S
H540 C570 0.950 . S
H541 C571 0.950 . S
C542 H524 0.951 . S
C542 C543 1.366 . S
C542 C544 1.388 . S
C543 C542 1.366 . S
C543 C547 1.385 . S
C544 H525 0.951 . S
C544 C542 1.388 . S
C544 C545 1.366 . S
C545 C544 1.366 . S
C545 C546 1.414 . S
C545 C548 1.499 . S
C546 H526 0.950 . S
C546 C545 1.414 . S
C546 C547 1.374 . S
C547 H527 0.950 . S
C547 C543 1.385 . S
C547 C546 1.374 . S
C548 C545 1.499 . S
C548 C549 1.373 . S
C548 C550 1.389 . S
C549 H528 0.950 . S
C549 C548 1.373 . S
C549 C565 1.377 . S
C550 C548 1.389 . S
C550 C551 1.524 . S
C550 C564 1.377 . S
C551 C550 1.524 . S
C551 C552 1.397 . S
C551 C556 1.363 . S
C552 H529 0.950 . S
C552 C551 1.397 . S
C552 C553 1.334 . S
C553 H530 0.950 . S
C553 C552 1.334 . S
C553 C554 1.287 . S
C554 C553 1.287 . S
C554 C555 1.524 . S
C554 H573 0.913 . S
C555 H531 0.950 . S
C555 C554 1.524 . S
C555 C556 1.415 . S
C556 H532 0.950 . S
C556 C551 1.363 . S
C556 C555 1.415 . S
C557 H533 0.951 . S
C557 C558 1.366 . S
C557 C559 1.388 . S
C558 C557 1.366 . S
C558 C562 1.385 . S
C559 H534 0.951 . S
C559 C557 1.388 . S
C559 C560 1.366 . S
C560 C559 1.366 . S
C560 C561 1.414 . S
C560 C563 1.499 . S
C561 H535 0.950 . S
C561 C560 1.414 . S
C561 C562 1.374 . S
C562 H536 0.950 . S
C562 C558 1.385 . S
C562 C561 1.374 . S
C563 C560 1.499 . S
C563 C564 1.373 . S
C563 C565 1.389 . S
C564 H537 0.950 . S
C564 C550 1.377 . S
C564 C563 1.373 . S
C565 C549 1.377 . S
C565 C563 1.389 . S
C565 C566 1.524 . S
C566 C565 1.524 . S
C566 C567 1.397 . S
C566 C571 1.363 . S
C567 H538 0.950 . S
C567 C566 1.397 . S
C567 C568 1.334 . S
C568 H539 0.950 . S
C568 C567 1.334 . S
C568 C569 1.287 . S
C569 C568 1.287 . S
C569 C570 1.524 . S
C569 H572 0.999 . S
C570 H540 0.950 . S
C570 C569 1.524 . S
C570 C571 1.415 . S
C571 H541 0.950 . S
C571 C566 1.363 . S
C571 C570 1.415 . S
H572 C569 0.999 . S
H573 C554 0.913 . S
H574 C592 0.951 . S
H575 C594 0.951 . S
H576 C596 0.950 . S
H577 C597 0.950 . S
H578 C599 0.950 . S
H579 C602 0.950 . S
H580 C603 0.950 . S
H581 C605 0.950 . S
H582 C606 0.950 . S
H583 C607 0.951 . S
H584 C609 0.951 . S
H585 C611 0.950 . S
H586 C612 0.950 . S
H587 C614 0.950 . S
H588 C617 0.950 . S
H589 C618 0.950 . S
H590 C620 0.950 . S
H591 C621 0.950 . S
C592 H574 0.951 . S
C592 C593 1.366 . S
C592 C594 1.388 . S
C593 C592 1.366 . S
C593 C597 1.385 . S
C594 H575 0.951 . S
C594 C592 1.388 . S
C594 C595 1.366 . S
C595 C594 1.366 . S
C595 C596 1.414 . S
C595 C598 1.499 . S
C596 H576 0.950 . S
C596 C595 1.414 . S
C596 C597 1.374 . S
C597 H577 0.950 . S
C597 C593 1.385 . S
C597 C596 1.374 . S
C598 C595 1.499 . S
C598 C599 1.373 . S
C598 C600 1.389 . S
C599 H578 0.950 . S
C599 C598 1.373 . S
C599 C615 1.377 . S
C600 C598 1.389 . S
C600 C601 1.524 . S
C600 C614 1.377 . S
C601 C600 1.524 . S
C601 C602 1.397 . S
C601 C606 1.363 . S
C602 H579 0.950 . S
C602 C601 1.397 . S
C602 C603 1.334 . S
C603 H580 0.950 . S
C603 C602 1.334 . S
C603 C604 1.287 . S
C604 C603 1.287 . S
C604 C605 1.524 . S
C604 H623 0.913 . S
C605 H581 0.950 . S
C605 C604 1.524 . S
C605 C606 1.415 . S
C606 H582 0.950 . S
C606 C601 1.363 . S
C606 C605 1.415 . S
C607 H583 0.951 . S
C607 C608 1.366 . S
C607 C609 1.388 . S
C608 C607 1.366 . S
C608 C612 1.385 . S
C609 H584 0.951 . S
C609 C607 1.388 . S
C609 C610 1.366 . S
C610 C609 1.366 . S
C610 C611 1.414 . S
C610 C613 1.499 . S
C611 H585 0.950 . S
C611 C610 1.414 . S
C611 C612 1.374 . S
C612 H586 0.950 . S
C612 C608 1.385 . S
C612 C611 1.374 . S
C613 C610 1.499 . S
C613 C614 1.373 . S
C613 C615 1.389 . S
C614 H587 0.950 . S
C614 C600 1.377 . S
C614 C613 1.373 . S
C615 C599 1.377 . S
C615 C613 1.389 . S
C615 C616 1.524 . S
C616 C615 1.524 . S
C616 C617 1.397 . S
C616 C621 1.363 . S
C617 H588 0.950 . S
C617 C616 1.397 . S
C617 C618 1.334 . S
C618 H589 0.950 . S
C618 C617 1.334 . S
C618 C619 1.287 . S
C619 C618 1.287 . S
C619 C620 1.524 . S
C619 H622 0.999 . S
C620 H590 0.950 . S
C620 C619 1.524 . S
C620 C621 1.415 . S
C621 H591 0.950 . S
C621 C616 1.363 . S
C621 C620 1.415 . S
H622 C619 0.999 . S
H623 C604 0.913 . S
H624 C642 0.951 . S
H625 C644 0.951 . S
H626 C646 0.950 . S
H627 C647 0.950 . S
H628 C649 0.950 . S
H629 C652 0.950 . S
H630 C653 0.950 . S
H631 C655 0.950 . S
H632 C656 0.950 . S
H633 C657 0.951 . S
H634 C659 0.951 . S
H635 C661 0.950 . S
H636 C662 0.950 . S
H637 C664 0.950 . S
H638 C667 0.950 . S
H639 C668 0.950 . S
H640 C670 0.950 . S
H641 C671 0.950 . S
C642 H624 0.951 . S
C642 C643 1.366 . S
C642 C644 1.388 . S
C643 C642 1.366 . S
C643 C647 1.385 . S
C644 H625 0.951 . S
C644 C642 1.388 . S
C644 C645 1.366 . S
C645 C644 1.366 . S
C645 C646 1.414 . S
C645 C648 1.499 . S
C646 H626 0.950 . S
C646 C645 1.414 . S
C646 C647 1.374 . S
C647 H627 0.950 . S
C647 C643 1.385 . S
C647 C646 1.374 . S
C648 C645 1.499 . S
C648 C649 1.373 . S
C648 C650 1.389 . S
C649 H628 0.950 . S
C649 C648 1.373 . S
C649 C665 1.377 . S
C650 C648 1.389 . S
C650 C651 1.524 . S
C650 C664 1.377 . S
C651 C650 1.524 . S
C651 C652 1.397 . S
C651 C656 1.363 . S
C652 H629 0.950 . S
C652 C651 1.397 . S
C652 C653 1.334 . S
C653 H630 0.950 . S
C653 C652 1.334 . S
C653 C654 1.287 . S
C654 C653 1.287 . S
C654 C655 1.524 . S
C654 H673 0.913 . S
C655 H631 0.950 . S
C655 C654 1.524 . S
C655 C656 1.415 . S
C656 H632 0.950 . S
C656 C651 1.363 . S
C656 C655 1.415 . S
C657 H633 0.951 . S
C657 C658 1.366 . S
C657 C659 1.388 . S
C658 C657 1.366 . S
C658 C662 1.385 . S
C659 H634 0.951 . S
C659 C657 1.388 . S
C659 C660 1.366 . S
C660 C659 1.366 . S
C660 C661 1.414 . S
C660 C663 1.499 . S
C661 H635 0.950 . S
C661 C660 1.414 . S
C661 C662 1.374 . S
C662 H636 0.950 . S
C662 C658 1.385 . S
C662 C661 1.374 . S
C663 C660 1.499 . S
C663 C664 1.373 . S
C663 C665 1.389 . S
C664 H637 0.950 . S
C664 C650 1.377 . S
C664 C663 1.373 . S
C665 C649 1.377 . S
C665 C663 1.389 . S
C665 C666 1.524 . S
C666 C665 1.524 . S
C666 C667 1.397 . S
C666 C671 1.363 . S
C667 H638 0.950 . S
C667 C666 1.397 . S
C667 C668 1.334 . S
C668 H639 0.950 . S
C668 C667 1.334 . S
C668 C669 1.287 . S
C669 C668 1.287 . S
C669 C670 1.524 . S
C669 H672 0.999 . S
C670 H640 0.950 . S
C670 C669 1.524 . S
C670 C671 1.415 . S
C671 H641 0.950 . S
C671 C666 1.363 . S
C671 C670 1.415 . S
H672 C669 0.999 . S
H673 C654 0.913 . S
H674 C692 0.951 . S
H675 C694 0.951 . S
H676 C696 0.950 . S
H677 C697 0.950 . S
H678 C699 0.950 . S
H679 C702 0.950 . S
H680 C703 0.950 . S
H681 C705 0.950 . S
H682 C706 0.950 . S
H683 C707 0.951 . S
H684 C709 0.951 . S
H685 C711 0.950 . S
H686 C712 0.950 . S
H687 C714 0.950 . S
H688 C717 0.950 . S
H689 C718 0.950 . S
H690 C720 0.950 . S
H691 C721 0.950 . S
C692 H674 0.951 . S
C692 C693 1.366 . S
C692 C694 1.388 . S
C693 C692 1.366 . S
C693 C697 1.385 . S
C694 H675 0.951 . S
C694 C692 1.388 . S
C694 C695 1.366 . S
C695 C694 1.366 . S
C695 C696 1.414 . S
C695 C698 1.499 . S
C696 H676 0.950 . S
C696 C695 1.414 . S
C696 C697 1.374 . S
C697 H677 0.950 . S
C697 C693 1.385 . S
C697 C696 1.374 . S
C698 C695 1.499 . S
C698 C699 1.373 . S
C698 C700 1.389 . S
C699 H678 0.950 . S
C699 C698 1.373 . S
C699 C715 1.377 . S
C700 C698 1.389 . S
C700 C701 1.524 . S
C700 C714 1.377 . S
C701 C700 1.524 . S
C701 C702 1.397 . S
C701 C706 1.363 . S
C702 H679 0.950 . S
C702 C701 1.397 . S
C702 C703 1.334 . S
C703 H680 0.950 . S
C703 C702 1.334 . S
C703 C704 1.287 . S
C704 C703 1.287 . S
C704 C705 1.524 . S
C704 H723 0.913 . S
C705 H681 0.950 . S
C705 C704 1.524 . S
C705 C706 1.415 . S
C706 H682 0.950 . S
C706 C701 1.363 . S
C706 C705 1.415 . S
C707 H683 0.951 . S
C707 C708 1.366 . S
C707 C709 1.388 . S
C708 C707 1.366 . S
C708 C712 1.385 . S
C709 H684 0.951 . S
C709 C707 1.388 . S
C709 C710 1.366 . S
C710 C709 1.366 . S
C710 C711 1.414 . S
C710 C713 1.499 . S
C711 H685 0.950 . S
C711 C710 1.414 . S
C711 C712 1.374 . S
C712 H686 0.950 . S
C712 C708 1.385 . S
C712 C711 1.374 . S
C713 C710 1.499 . S
C713 C714 1.373 . S
C713 C715 1.389 . S
C714 H687 0.950 . S
C714 C700 1.377 . S
C714 C713 1.373 . S
C715 C699 1.377 . S
C715 C713 1.389 . S
C715 C716 1.524 . S
C716 C715 1.524 . S
C716 C717 1.397 . S
C716 C721 1.363 . S
C717 H688 0.950 . S
C717 C716 1.397 . S
C717 C718 1.334 . S
C718 H689 0.950 . S
C718 C717 1.334 . S
C718 C719 1.287 . S
C719 C718 1.287 . S
C719 C720 1.524 . S
C719 H722 0.999 . S
C720 H690 0.950 . S
C720 C719 1.524 . S
C720 C721 1.415 . S
C721 H691 0.950 . S
C721 C716 1.363 . S
C721 C720 1.415 . S
H722 C719 0.999 . S
H723 C704 0.913 . S
H724 C742 0.951 . S
H725 C744 0.951 . S
H726 C746 0.950 . S
H727 C747 0.950 . S
H728 C749 0.950 . S
H729 C752 0.950 . S
H730 C753 0.950 . S
H731 C755 0.950 . S
H732 C756 0.950 . S
H733 C757 0.951 . S
H734 C759 0.951 . S
H735 C761 0.950 . S
H736 C762 0.950 . S
H737 C764 0.950 . S
H738 C767 0.950 . S
H739 C768 0.950 . S
H740 C770 0.950 . S
H741 C771 0.950 . S
C742 H724 0.951 . S
C742 C743 1.366 . S
C742 C744 1.388 . S
C743 C742 1.366 . S
C743 C747 1.385 . S
C744 H725 0.951 . S
C744 C742 1.388 . S
C744 C745 1.366 . S
C745 C744 1.366 . S
C745 C746 1.414 . S
C745 C748 1.499 . S
C746 H726 0.950 . S
C746 C745 1.414 . S
C746 C747 1.374 . S
C747 H727 0.950 . S
C747 C743 1.385 . S
C747 C746 1.374 . S
C748 C745 1.499 . S
C748 C749 1.373 . S
C748 C750 1.389 . S
C749 H728 0.950 . S
C749 C748 1.373 . S
C749 C765 1.377 . S
C750 C748 1.389 . S
C750 C751 1.524 . S
C750 C764 1.377 . S
C751 C750 1.524 . S
C751 C752 1.397 . S
C751 C756 1.363 . S
C752 H729 0.950 . S
C752 C751 1.397 . S
C752 C753 1.334 . S
C753 H730 0.950 . S
C753 C752 1.334 . S
C753 C754 1.287 . S
C754 C753 1.287 . S
C754 C755 1.524 . S
C754 H773 0.913 . S
C755 H731 0.950 . S
C755 C754 1.524 . S
C755 C756 1.415 . S
C756 H732 0.950 . S
C756 C751 1.363 . S
C756 C755 1.415 . S
C757 H733 0.951 . S
C757 C758 1.366 . S
C757 C759 1.388 . S
C758 C757 1.366 . S
C758 C762 1.385 . S
C759 H734 0.951 . S
C759 C757 1.388 . S
C759 C760 1.366 . S
C760 C759 1.366 . S
C760 C761 1.414 . S
C760 C763 1.499 . S
C761 H735 0.950 . S
C761 C760 1.414 . S
C761 C762 1.374 . S
C762 H736 0.950 . S
C762 C758 1.385 . S
C762 C761 1.374 . S
C763 C760 1.499 . S
C763 C764 1.373 . S
C763 C765 1.389 . S
C764 H737 0.950 . S
C764 C750 1.377 . S
C764 C763 1.373 . S
C765 C749 1.377 . S
C765 C763 1.389 . S
C765 C766 1.524 . S
C766 C765 1.524 . S
C766 C767 1.397 . S
C766 C771 1.363 . S
C767 H738 0.950 . S
C767 C766 1.397 . S
C767 C768 1.334 . S
C768 H739 0.950 . S
C768 C767 1.334 . S
C768 C769 1.287 . S
C769 C768 1.287 . S
C769 C770 1.524 . S
C769 H772 0.999 . S
C770 H740 0.950 . S
C770 C769 1.524 . S
C770 C771 1.415 . S
C771 H741 0.950 . S
C771 C766 1.363 . S
C771 C770 1.415 . S
H772 C769 0.999 . S
H773 C754 0.913 . S
H774 C792 0.951 1_655 S
H775 C794 0.951 1_655 S
H776 C796 0.950 . S
H777 C797 0.950 . S
H778 C799 0.950 . S
H779 C802 0.950 1_455 S
H780 C803 0.950 . S
H781 C805 0.950 . S
H782 C806 0.950 . S
H783 C807 0.951 . S
H784 C809 0.951 . S
H785 C811 0.950 . S
H786 C812 0.950 . S
H787 C814 0.959 . S
H788 C817 0.950 . S
H789 C818 0.950 . S
H790 C820 0.950 1_554 S
H791 C821 0.950 . S
C792 H774 0.951 1_455 S
C792 C793 1.366 . S
C792 C794 1.388 . S
C793 C792 1.366 . S
C793 C797 1.385 . S
C794 H775 0.951 1_455 S
C794 C792 1.388 . S
C794 C795 1.366 . S
C795 C794 1.366 . S
C795 C796 1.414 . S
C795 C798 1.499 . S
C796 H776 0.950 . S
C796 C795 1.414 . S
C796 C797 1.374 . S
C797 H777 0.950 . S
C797 C793 1.385 . S
C797 C796 1.374 . S
C798 C795 1.499 . S
C798 C799 1.373 . S
C798 C800 1.389 . S
C799 H778 0.950 . S
C799 C798 1.373 . S
C799 C815 1.377 . S
C800 C798 1.389 . S
C800 C801 1.524 1_455 S
C800 C814 1.377 1_554 S
C801 C800 1.524 1_655 S
C801 C802 1.397 . S
C801 C806 1.363 . S
C802 H779 0.950 1_655 S
C802 C801 1.397 . S
C802 C803 1.334 . S
C803 H780 0.950 . S
C803 C802 1.334 . S
C803 C804 1.287 . S
C804 C803 1.287 . S
C804 C805 1.524 . S
C804 H823 0.913 . S
C805 H781 0.950 . S
C805 C804 1.524 . S
C805 C806 1.415 . S
C806 H782 0.950 . S
C806 C801 1.363 . S
C806 C805 1.415 . S
C807 H783 0.951 . S
C807 C808 1.366 . S
C807 C809 1.388 . S
C808 C807 1.366 . S
C808 C812 1.385 . S
C809 H784 0.951 . S
C809 C807 1.388 . S
C809 C810 1.366 . S
C810 C809 1.366 . S
C810 C811 1.414 . S
C810 C813 1.499 . S
C811 H785 0.950 . S
C811 C810 1.414 . S
C811 C812 1.374 . S
C812 H786 0.950 . S
C812 C808 1.385 . S
C812 C811 1.374 . S
C813 C810 1.499 . S
C813 C814 1.373 . S
C813 C815 1.389 1_556 S
C814 H787 0.959 . S
C814 C800 1.377 1_556 S
C814 C813 1.373 . S
C815 C799 1.377 . S
C815 C813 1.389 1_554 S
C815 C816 1.524 1_554 S
C816 C815 1.524 1_556 S
C816 C817 1.397 . S
C816 C821 1.363 1_556 S
C817 H788 0.950 . S
C817 C816 1.397 . S
C817 C818 1.334 . S
C818 H789 0.950 . S
C818 C817 1.334 . S
C818 C819 1.287 . S
C819 C818 1.287 . S
C819 C820 1.524 . S
C819 H822 0.999 . S
C820 H790 0.950 1_556 S
C820 C819 1.524 . S
C820 C821 1.415 1_556 S
C821 H791 0.950 . S
C821 C816 1.363 1_554 S
C821 C820 1.415 1_554 S
H822 C819 0.999 . S
H823 C804 0.913 . S
H824 C842 0.951 1_565 S
H825 C844 0.951 1_565 S
H826 C846 0.950 . S
H827 C847 0.950 . S
H828 C849 0.950 . S
H829 C852 0.950 . S
H830 C853 0.950 . S
H831 C855 0.950 . S
H832 C856 0.950 . S
H833 C857 0.951 . S
H834 C859 0.951 . S
H835 C861 0.950 1_565 S
H836 C862 0.950 1_565 S
H837 C864 0.950 . S
H838 C867 0.950 . S
H839 C868 0.950 . S
H840 C870 0.950 . S
H841 C871 0.950 . S
C842 H824 0.951 1_545 S
C842 C843 1.366 . S
C842 C844 1.388 . S
C843 C842 1.366 . S
C843 C847 1.385 . S
C844 H825 0.951 1_545 S
C844 C842 1.388 . S
C844 C845 1.366 . S
C845 C844 1.366 . S
C845 C846 1.414 . S
C845 C848 1.499 . S
C846 H826 0.950 . S
C846 C845 1.414 . S
C846 C847 1.374 . S
C847 H827 0.950 . S
C847 C843 1.385 . S
C847 C846 1.374 . S
C848 C845 1.499 . S
C848 C849 1.373 . S
C848 C850 1.389 1_545 S
C849 H828 0.950 . S
C849 C848 1.373 . S
C849 C865 1.377 . S
C850 C848 1.389 1_565 S
C850 C851 1.524 . S
C850 C864 1.377 . S
C851 C850 1.524 . S
C851 C852 1.397 . S
C851 C856 1.363 . S
C852 H829 0.950 . S
C852 C851 1.397 . S
C852 C853 1.334 . S
C853 H830 0.950 . S
C853 C852 1.334 . S
C853 C854 1.287 . S
C854 C853 1.287 . S
C854 C855 1.524 . S
C854 H873 0.913 . S
C855 H831 0.950 . S
C855 C854 1.524 . S
C855 C856 1.415 . S
C856 H832 0.950 . S
C856 C851 1.363 . S
C856 C855 1.415 . S
C857 H833 0.951 . S
C857 C858 1.366 . S
C857 C859 1.388 . S
C858 C857 1.366 . S
C858 C862 1.385 . S
C859 H834 0.951 . S
C859 C857 1.388 . S
C859 C860 1.366 . S
C860 C859 1.366 . S
C860 C861 1.414 . S
C860 C863 1.499 . S
C861 H835 0.950 1_545 S
C861 C860 1.414 . S
C861 C862 1.374 . S
C862 H836 0.950 1_545 S
C862 C858 1.385 . S
C862 C861 1.374 . S
C863 C860 1.499 . S
C863 C864 1.373 1_545 S
C863 C865 1.389 . S
C864 H837 0.950 . S
C864 C850 1.377 . S
C864 C863 1.373 1_565 S
C865 C849 1.377 . S
C865 C863 1.389 . S
C865 C866 1.524 . S
C866 C865 1.524 . S
C866 C867 1.397 . S
C866 C871 1.363 . S
C867 H838 0.950 . S
C867 C866 1.397 . S
C867 C868 1.334 . S
C868 H839 0.950 . S
C868 C867 1.334 . S
C868 C869 1.287 . S
C869 C868 1.287 . S
C869 C870 1.524 . S
C869 H872 0.999 . S
C870 H840 0.950 . S
C870 C869 1.524 . S
C870 C871 1.415 . S
C871 H841 0.950 . S
C871 C866 1.363 . S
C871 C870 1.415 . S
H872 C869 0.999 . S
H873 C854 0.913 . S
H874 C892 0.951 . S
H875 C894 0.951 . S
H876 C896 0.950 . S
H877 C897 0.950 . S
H878 C899 0.950 . S
H879 C902 0.950 . S
H880 C903 0.950 . S
H881 C905 0.950 . S
H882 C906 0.950 . S
H883 C907 0.951 . S
H884 C909 0.951 . S
H885 C911 0.950 . S
H886 C912 0.950 . S
H887 C914 0.950 . S
H888 C917 0.950 . S
H889 C918 0.950 . S
H890 C920 0.950 . S
H891 C921 0.950 . S
C892 H874 0.951 . S
C892 C893 1.366 . S
C892 C894 1.388 . S
C893 C892 1.366 . S
C893 C897 1.385 . S
C894 H875 0.951 . S
C894 C892 1.388 . S
C894 C895 1.366 . S
C895 C894 1.366 . S
C895 C896 1.414 . S
C895 C898 1.499 . S
C896 H876 0.950 . S
C896 C895 1.414 . S
C896 C897 1.374 . S
C897 H877 0.950 . S
C897 C893 1.385 . S
C897 C896 1.374 . S
C898 C895 1.499 . S
C898 C899 1.373 . S
C898 C900 1.389 . S
C899 H878 0.950 . S
C899 C898 1.373 . S
C899 C915 1.377 . S
C900 C898 1.389 . S
C900 C901 1.524 . S
C900 C914 1.377 . S
C901 C900 1.524 . S
C901 C902 1.397 . S
C901 C906 1.363 . S
C902 H879 0.950 . S
C902 C901 1.397 . S
C902 C903 1.334 . S
C903 H880 0.950 . S
C903 C902 1.334 . S
C903 C904 1.287 . S
C904 C903 1.287 . S
C904 C905 1.524 . S
C904 H923 0.913 . S
C905 H881 0.950 . S
C905 C904 1.524 . S
C905 C906 1.415 . S
C906 H882 0.950 . S
C906 C901 1.363 . S
C906 C905 1.415 . S
C907 H883 0.951 . S
C907 C908 1.366 . S
C907 C909 1.388 . S
C908 C907 1.366 . S
C908 C912 1.385 . S
C909 H884 0.951 . S
C909 C907 1.388 . S
C909 C910 1.366 . S
C910 C909 1.366 . S
C910 C911 1.414 . S
C910 C913 1.499 . S
C911 H885 0.950 . S
C911 C910 1.414 . S
C911 C912 1.374 . S
C912 H886 0.950 . S
C912 C908 1.385 . S
C912 C911 1.374 . S
C913 C910 1.499 . S
C913 C914 1.373 . S
C913 C915 1.389 . S
C914 H887 0.950 . S
C914 C900 1.377 . S
C914 C913 1.373 . S
C915 C899 1.377 . S
C915 C913 1.389 . S
C915 C916 1.524 . S
C916 C915 1.524 . S
C916 C917 1.397 . S
C916 C921 1.363 . S
C917 H888 0.950 . S
C917 C916 1.397 . S
C917 C918 1.334 . S
C918 H889 0.950 . S
C918 C917 1.334 . S
C918 C919 1.287 . S
C919 C918 1.287 . S
C919 C920 1.524 . S
C919 H922 0.999 . S
C920 H890 0.950 . S
C920 C919 1.524 . S
C920 C921 1.415 . S
C921 H891 0.950 . S
C921 C916 1.363 . S
C921 C920 1.415 . S
H922 C919 0.999 . S
H923 C904 0.913 . S
H924 C942 0.951 . S
H925 C944 0.951 . S
H926 C946 0.950 . S
H927 C947 0.950 . S
H928 C949 0.950 . S
H929 C952 0.950 . S
H930 C953 0.950 . S
H931 C955 0.950 . S
H932 C956 0.950 . S
H933 C957 0.951 . S
H934 C959 0.951 . S
H935 C961 0.950 . S
H936 C962 0.950 . S
H937 C964 0.950 1_565 S
H938 C967 0.950 . S
H939 C968 0.950 . S
H940 C970 0.950 . S
H941 C971 0.950 . S
C942 H924 0.951 . S
C942 C943 1.366 . S
C942 C944 1.388 . S
C943 C942 1.366 . S
C943 C947 1.385 . S
C944 H925 0.951 . S
C944 C942 1.388 . S
C944 C945 1.366 . S
C945 C944 1.366 . S
C945 C946 1.414 . S
C945 C948 1.499 . S
C946 H926 0.950 . S
C946 C945 1.414 . S
C946 C947 1.374 . S
C947 H927 0.950 . S
C947 C943 1.385 . S
C947 C946 1.374 . S
C948 C945 1.499 . S
C948 C949 1.373 . S
C948 C950 1.389 . S
C949 H928 0.950 . S
C949 C948 1.373 . S
C949 C965 1.377 . S
C950 C948 1.389 . S
C950 C951 1.524 1_545 S
C950 C964 1.377 . S
C951 C950 1.524 1_565 S
C951 C952 1.397 . S
C951 C956 1.363 . S
C952 H929 0.950 . S
C952 C951 1.397 . S
C952 C953 1.334 . S
C953 H930 0.950 . S
C953 C952 1.334 . S
C953 C954 1.287 . S
C954 C953 1.287 . S
C954 C955 1.524 . S
C954 H973 0.913 . S
C955 H931 0.950 . S
C955 C954 1.524 . S
C955 C956 1.415 . S
C956 H932 0.950 . S
C956 C951 1.363 . S
C956 C955 1.415 . S
C957 H933 0.951 . S
C957 C958 1.366 . S
C957 C959 1.388 . S
C958 C957 1.366 . S
C958 C962 1.385 . S
C959 H934 0.951 . S
C959 C957 1.388 . S
C959 C960 1.366 . S
C960 C959 1.366 . S
C960 C961 1.414 . S
C960 C963 1.499 . S
C961 H935 0.950 . S
C961 C960 1.414 . S
C961 C962 1.374 . S
C962 H936 0.950 . S
C962 C958 1.385 . S
C962 C961 1.374 . S
C963 C960 1.499 . S
C963 C964 1.373 . S
C963 C965 1.389 . S
C964 H937 0.950 1_545 S
C964 C950 1.377 . S
C964 C963 1.373 . S
C965 C949 1.377 . S
C965 C963 1.389 . S
C965 C966 1.524 . S
C966 C965 1.524 . S
C966 C967 1.397 . S
C966 C971 1.363 . S
C967 H938 0.950 . S
C967 C966 1.397 . S
C967 C968 1.334 . S
C968 H939 0.950 . S
C968 C967 1.334 . S
C968 C969 1.287 . S
C969 C968 1.287 . S
C969 C970 1.524 . S
C969 H972 0.999 . S
C970 H940 0.950 . S
C970 C969 1.524 . S
C970 C971 1.415 . S
C971 H941 0.950 . S
C971 C966 1.363 . S
C971 C970 1.415 . S
H972 C969 0.999 . S
H973 C954 0.913 . S
H974 C992 0.951 . S
H975 C994 0.951 . S
H976 C996 0.950 . S
H977 C997 0.950 . S
H978 C999 0.950 . S
H979 C1002 0.950 . S
H980 C1003 0.950 . S
H981 C1005 0.950 . S
H982 C1006 0.950 . S
H983 C1007 0.951 . S
H984 C1009 0.951 . S
H985 C1011 0.950 . S
H986 C1012 0.950 . S
H987 C1014 0.950 . S
H988 C1017 0.950 . S
H989 C1018 0.950 . S
H990 C1020 0.950 . S
H991 C1021 0.950 1_556 S
C992 H974 0.951 . S
C992 C993 1.366 . S
C992 C994 1.388 . S
C993 C992 1.366 . S
C993 C997 1.385 . S
C994 H975 0.951 . S
C994 C992 1.388 . S
C994 C995 1.366 . S
C995 C994 1.366 . S
C995 C996 1.414 . S
C995 C998 1.499 . S
C996 H976 0.950 . S
C996 C995 1.414 . S
C996 C997 1.374 . S
C997 H977 0.950 . S
C997 C993 1.385 . S
C997 C996 1.374 . S
C998 C995 1.499 . S
C998 C999 1.373 . S
C998 C1000 1.389 . S
C999 H978 0.950 . S
C999 C998 1.373 . S
C999 C1015 1.377 . S
C1000 C998 1.389 . S
C1000 C1001 1.524 . S
C1000 C1014 1.377 1_556 S
C1001 C1000 1.524 . S
C1001 C1002 1.397 . S
C1001 C1006 1.363 . S
C1002 H979 0.950 . S
C1002 C1001 1.397 . S
C1002 C1003 1.334 . S
C1003 H980 0.950 . S
C1003 C1002 1.334 . S
C1003 C1004 1.287 . S
C1004 C1003 1.287 . S
C1004 C1005 1.524 . S
C1004 H1023 0.913 . S
C1005 H981 0.950 . S
C1005 C1004 1.524 . S
C1005 C1006 1.415 . S
C1006 H982 0.950 . S
C1006 C1001 1.363 . S
C1006 C1005 1.415 . S
C1007 H983 0.951 . S
C1007 C1008 1.366 . S
C1007 C1009 1.388 . S
C1008 C1007 1.366 . S
C1008 C1012 1.385 . S
C1009 H984 0.951 . S
C1009 C1007 1.388 . S
C1009 C1010 1.366 . S
C1010 C1009 1.366 . S
C1010 C1011 1.414 . S
C1010 C1013 1.499 . S
C1011 H985 0.950 . S
C1011 C1010 1.414 . S
C1011 C1012 1.374 . S
C1012 H986 0.950 . S
C1012 C1008 1.385 . S
C1012 C1011 1.374 . S
C1013 C1010 1.499 . S
C1013 C1014 1.373 . S
C1013 C1015 1.389 1_554 S
C1014 H987 0.950 . S
C1014 C1000 1.377 1_554 S
C1014 C1013 1.373 . S
C1015 C999 1.377 . S
C1015 C1013 1.389 1_556 S
C1015 C1016 1.524 1_556 S
C1016 C1015 1.524 1_554 S
C1016 C1017 1.397 . S
C1016 C1021 1.363 . S
C1017 H988 0.950 . S
C1017 C1016 1.397 . S
C1017 C1018 1.334 . S
C1018 H989 0.950 . S
C1018 C1017 1.334 . S
C1018 C1019 1.287 . S
C1019 C1018 1.287 . S
C1019 C1020 1.524 . S
C1019 H1022 0.999 . S
C1020 H990 0.950 . S
C1020 C1019 1.524 . S
C1020 C1021 1.415 . S
C1021 H991 0.950 1_554 S
C1021 C1016 1.363 . S
C1021 C1020 1.415 . S
H1022 C1019 0.999 . S
H1023 C1004 0.913 . S
H1024 C1042 0.951 . S
H1025 C1044 0.951 . S
H1026 C1046 0.950 . S
H1027 C1047 0.950 . S
H1028 C1049 0.950 . S
H1029 C1052 0.950 . S
H1030 C1053 0.950 . S
H1031 C1055 0.950 . S
H1032 C1056 0.950 . S
H1033 C1057 0.951 . S
H1034 C1059 0.951 . S
H1035 C1061 0.950 . S
H1036 C1062 0.950 . S
H1037 C1064 0.950 1_655 S
H1038 C1067 0.950 . S
H1039 C1068 0.950 . S
H1040 C1070 0.950 . S
H1041 C1071 0.950 . S
C1042 H1024 0.951 . S
C1042 C1043 1.366 . S
C1042 C1044 1.388 . S
C1043 C1042 1.366 . S
C1043 C1047 1.385 . S
C1044 H1025 0.951 . S
C1044 C1042 1.388 . S
C1044 C1045 1.366 . S
C1045 C1044 1.366 . S
C1045 C1046 1.414 . S
C1045 C1048 1.499 . S
C1046 H1026 0.950 . S
C1046 C1045 1.414 . S
C1046 C1047 1.374 . S
C1047 H1027 0.950 . S
C1047 C1043 1.385 . S
C1047 C1046 1.374 . S
C1048 C1045 1.499 . S
C1048 C1049 1.373 . S
C1048 C1050 1.389 . S
C1049 H1028 0.950 . S
C1049 C1048 1.373 . S
C1049 C1065 1.377 . S
C1050 C1048 1.389 . S
C1050 C1051 1.524 1_455 S
C1050 C1064 1.377 . S
C1051 C1050 1.524 1_655 S
C1051 C1052 1.397 . S
C1051 C1056 1.363 . S
C1052 H1029 0.950 . S
C1052 C1051 1.397 . S
C1052 C1053 1.334 . S
C1053 H1030 0.950 . S
C1053 C1052 1.334 . S
C1053 C1054 1.287 . S
C1054 C1053 1.287 . S
C1054 C1055 1.524 . S
C1054 H1073 0.913 . S
C1055 H1031 0.950 . S
C1055 C1054 1.524 . S
C1055 C1056 1.415 . S
C1056 H1032 0.950 . S
C1056 C1051 1.363 . S
C1056 C1055 1.415 . S
C1057 H1033 0.951 . S
C1057 C1058 1.366 . S
C1057 C1059 1.388 . S
C1058 C1057 1.366 . S
C1058 C1062 1.385 . S
C1059 H1034 0.951 . S
C1059 C1057 1.388 . S
C1059 C1060 1.366 . S
C1060 C1059 1.366 . S
C1060 C1061 1.414 . S
C1060 C1063 1.499 . S
C1061 H1035 0.950 . S
C1061 C1060 1.414 . S
C1061 C1062 1.374 . S
C1062 H1036 0.950 . S
C1062 C1058 1.385 . S
C1062 C1061 1.374 . S
C1063 C1060 1.499 . S
C1063 C1064 1.373 . S
C1063 C1065 1.389 . S
C1064 H1037 0.950 1_455 S
C1064 C1050 1.377 . S
C1064 C1063 1.373 . S
C1065 C1049 1.377 . S
C1065 C1063 1.389 . S
C1065 C1066 1.524 . S
C1066 C1065 1.524 . S
C1066 C1067 1.397 . S
C1066 C1071 1.363 . S
C1067 H1038 0.950 . S
C1067 C1066 1.397 . S
C1067 C1068 1.334 . S
C1068 H1039 0.950 . S
C1068 C1067 1.334 . S
C1068 C1069 1.287 . S
C1069 C1068 1.287 . S
C1069 C1070 1.524 . S
C1069 H1072 0.999 . S
C1070 H1040 0.950 . S
C1070 C1069 1.524 . S
C1070 C1071 1.415 . S
C1071 H1041 0.950 . S
C1071 C1066 1.363 . S
C1071 C1070 1.415 . S
H1072 C1069 0.999 . S
H1073 C1054 0.913 . S
C193 C2 1.209 . S
C208 C166 1.171 . S
C243 C21 1.074 . S
C258 C128 1.051 . S
C293 C42 1.174 . S
C308 C147 1.140 . S
C343 C1 0.872 . S
C358 C161 0.868 . S
C408 C123 0.973 . S
C393 C22 0.981 . S
C458 C142 0.863 . S
C443 C41 0.866 . S
C493 C38 1.962 . S
C508 C90 1.903 . S
C543 C59 1.843 . S
C558 C104 1.816 1_655 S
C593 C18 1.742 . S
C608 C66 1.719 . S
C658 C85 1.815 . S
C643 C39 1.842 . S
C708 C109 1.889 . S
C693 C58 1.944 . S
C743 C19 2.072 . S
C758 C71 1.995 . S
C808 C100 1.593 . S
C793 C9 1.581 . S
C843 C29 1.572 . S
C858 C62 1.668 . S
C893 C49 1.597 . S
C908 C81 1.625 . S
C958 C138 1.586 . S
C943 C28 1.575 . S
C1008 C157 1.543 . S
C993 C48 1.511 . S
C1043 C8 1.453 . S
C1058 C119 1.497 . S
