# Generated by pormake.
# Topology sqc, (4,8)-cn, num edge types: 1
# Building blocks:
#     Node 0, Type 0, BuildingBlock: NAWXER_clean_linker_0, # of connection points: 4
#     Node 1, Type 0, BuildingBlock: NAWXER_clean_linker_0, # of connection points: 4
#     Node 2, Type 0, BuildingBlock: NAWXER_clean_linker_0, # of connection points: 4
#     Node 3, Type 0, BuildingBlock: NAWXER_clean_linker_0, # of connection points: 4
#     Node 4, Type 0, BuildingBlock: NAWXER_clean_linker_0, # of connection points: 4
#     Node 5, Type 0, BuildingBlock: NAWXER_clean_linker_0, # of connection points: 4
#     Node 6, Type 0, BuildingBlock: NAWXER_clean_linker_0, # of connection points: 4
#     Node 7, Type 0, BuildingBlock: NAWXER_clean_linker_0, # of connection points: 4
#     Node 8, Type 1, BuildingBlock: VETTIZ_charged_sbu_0, # of connection points: 8
#     Node 9, Type 1, BuildingBlock: VETTIZ_charged_sbu_0, # of connection points: 8
#     Node 10, Type 1, BuildingBlock: VETTIZ_charged_sbu_0, # of connection points: 8
#     Node 11, Type 1, BuildingBlock: VETTIZ_charged_sbu_0, # of connection points: 8
#     Edge 12, Type (0, 1), None
#     Edge 13, Type (0, 1), None
#     Edge 14, Type (0, 1), None
#     Edge 15, Type (0, 1), None
#     Edge 16, Type (0, 1), None
#     Edge 17, Type (0, 1), None
#     Edge 18, Type (0, 1), None
#     Edge 19, Type (0, 1), None
#     Edge 20, Type (0, 1), None
#     Edge 21, Type (0, 1), None
#     Edge 22, Type (0, 1), None
#     Edge 23, Type (0, 1), None
#     Edge 24, Type (0, 1), None
#     Edge 25, Type (0, 1), None
#     Edge 26, Type (0, 1), None
#     Edge 27, Type (0, 1), None
#     Edge 28, Type (0, 1), None
#     Edge 29, Type (0, 1), None
#     Edge 30, Type (0, 1), None
#     Edge 31, Type (0, 1), None
#     Edge 32, Type (0, 1), None
#     Edge 33, Type (0, 1), None
#     Edge 34, Type (0, 1), None
#     Edge 35, Type (0, 1), None
#     Edge 36, Type (0, 1), None
#     Edge 37, Type (0, 1), None
#     Edge 38, Type (0, 1), None
#     Edge 39, Type (0, 1), None
#     Edge 40, Type (0, 1), None
#     Edge 41, Type (0, 1), None
#     Edge 42, Type (0, 1), None
#     Edge 43, Type (0, 1), None
# Relax obj value: 0.124
# Max RMSD: 0.266
# Mean RMSD: 0.155
data_MOF--net-sqc--node1-VETTIZ_charged_sbu_0--node2-NAWXER_clean_linker_0--edge1-none
_symmetry_space_group_name_H-M    P1
_symmetry_Int_Tables_number       1
_symmetry_cell_setting            triclinic
loop_
_symmetry_equiv_pos_as_xyz
'x, y, z'
_cell_length_a     15.852674
_cell_length_b     15.868143
_cell_length_c     45.357579
_cell_angle_alpha  91.437806
_cell_angle_beta   89.412613
_cell_angle_gamma 89.465836
loop_
_atom_site_label
_atom_site_type_symbol
_atom_site_fract_x
_atom_site_fract_y
_atom_site_fract_z
_atom_type_partial_charge
C0 C 0.23782 0.94873 0.4703 0.0
C1 C 0.29735 0.90172 0.48601 0.0
C2 C 0.1625 0.97709 0.48393 0.0
C3 C 0.14502 0.95923 0.51358 0.0
C4 C 0.27814 0.88131 0.51534 0.0
C5 C 0.20267 0.90889 0.52881 0.0
C6 C 0.06711 0.99354 0.52855 0.0
C7 C 0.28365 0.11875 0.5704 0.0
C8 C 0.29514 0.11319 0.60107 0.0
C9 C 0.20946 0.09266 0.55705 0.0
C10 C 0.14529 0.05392 0.57323 0.0
C11 C 0.23077 0.07543 0.61772 0.0
C12 C 0.15666 0.04573 0.60388 0.0
C13 C 0.06601 0.02704 0.55781 0.0
C14 C 0.68088 0.04304 0.58081 0.0
C15 C 0.68331 0.10476 0.60345 0.0
C16 C 0.75632 0.01221 0.56773 0.0
C17 C 0.83424 0.05064 0.57432 0.0
C18 C 0.7621 0.12974 0.61417 0.0
C19 C 0.83642 0.10537 0.59922 0.0
C20 C 0.91391 0.03493 0.55647 0.0
C21 C 0.69824 0.04763 0.49138 0.0
C22 C 0.69502 0.97647 0.47233 0.0
C23 C 0.77325 0.06667 0.50664 0.0
C24 C 0.8428 0.0101 0.50515 0.0
C25 C 0.76986 0.93037 0.46678 0.0
C26 C 0.84199 0.94579 0.4833 0.0
C27 C 0.91702 0.01435 0.52553 0.0
H28 H 0.24999 0.9649 0.4476 0.0
H29 H 0.11884 0.01483 0.47149 0.0
H30 H 0.32137 0.84362 0.52797 0.0
H31 H 0.18984 0.89153 0.55135 0.0
H32 H 0.33041 0.14816 0.55655 0.0
H33 H 0.20196 0.10507 0.53387 0.0
H34 H 0.23605 0.07192 0.64143 0.0
H35 H 0.10775 0.01776 0.61718 0.0
H36 H 0.62095 0.02 0.57285 0.0
H37 H 0.75257 0.96182 0.55132 0.0
H38 H 0.76598 0.17462 0.63248 0.0
H39 H 0.89518 0.13291 0.60645 0.0
H40 H 0.64163 0.08435 0.49621 0.0
H41 H 0.774 0.12102 0.52155 0.0
H42 H 0.76949 0.87521 0.45217 0.0
H43 H 0.89522 0.90302 0.48028 0.0
N44 N 0.9934 0.99159 0.51354 0.0
N45 N 0.98933 0.04372 0.57076 0.0
C46 C 0.38439 0.49565 0.76371 0.0
C47 C 0.36405 0.47679 0.73414 0.0
C48 C 0.35773 0.57112 0.7775 0.0
C49 C 0.30739 0.62906 0.7625 0.0
C50 C 0.31819 0.53709 0.71845 0.0
C51 C 0.28999 0.61245 0.73253 0.0
C52 C 0.27159 0.70527 0.77837 0.0
C53 C 0.14616 0.48378 0.81914 0.0
C54 C 0.15374 0.47476 0.84983 0.0
C55 C 0.17398 0.55621 0.80538 0.0
C56 C 0.21342 0.62101 0.82157 0.0
C57 C 0.19525 0.53839 0.86609 0.0
C58 C 0.22454 0.61092 0.85209 0.0
C59 C 0.23528 0.70181 0.80714 0.0
C60 C 0.11318 0.06325 0.82221 0.0
C61 C 0.1393 0.08683 0.85088 0.0
C62 C 0.12997 0.9834 0.81024 0.0
C63 C 0.18381 0.92787 0.82461 0.0
C64 C 0.18828 0.02869 0.86647 0.0
C65 C 0.21166 0.95032 0.85318 0.0
C66 C 0.21737 0.85182 0.80821 0.0
C67 C 0.29381 0.08627 0.76509 0.0
C68 C 0.28489 0.09272 0.73437 0.0
C69 C 0.29002 0.00868 0.77852 0.0
C70 C 0.26197 0.93669 0.76309 0.0
C71 C 0.25871 0.02074 0.71829 0.0
C72 C 0.24532 0.94385 0.73269 0.0
C73 C 0.25057 0.85527 0.77889 0.0
H74 H 0.42094 0.45173 0.7764 0.0
H75 H 0.3751 0.58329 0.80023 0.0
H76 H 0.30211 0.52505 0.69559 0.0
H77 H 0.25237 0.65651 0.72026 0.0
H78 H 0.11399 0.43673 0.80581 0.0
H79 H 0.16115 0.56275 0.78215 0.0
H80 H 0.20094 0.53443 0.8898 0.0
H81 H 0.25375 0.66028 0.86525 0.0
H82 H 0.07755 0.1061 0.80885 0.0
H83 H 0.10565 0.96742 0.78859 0.0
H84 H 0.20822 0.04352 0.88876 0.0
H85 H 0.25262 0.90805 0.86494 0.0
H86 H 0.31632 0.1395 0.77816 0.0
H87 H 0.30981 1.00557 0.80122 0.0
H88 H 0.2546 0.02214 0.69449 0.0
H89 H 0.22523 0.88926 0.71989 0.0
N90 N 0.2766 0.78168 0.76529 0.0
N91 N 0.21087 0.77541 0.82098 0.0
C92 C 0.22166 1.00115 0.97603 0.0
C93 C 0.21643 0.08536 0.96768 0.0
C94 C 0.29869 0.96883 0.98614 0.0
C95 C 0.36955 0.02181 0.98922 0.0
C96 C 0.29064 0.13306 0.96622 0.0
C97 C 0.3662 0.10191 0.97702 0.0
C98 C 0.44351 1.00004 1.00766 0.0
C99 C 0.22499 0.95457 0.07383 0.0
C100 C 0.22832 0.87361 0.08567 0.0
C101 C 0.29028 0.98172 0.05546 0.0
C102 C 0.35736 0.92669 0.04783 0.0
C103 C 0.29472 0.81881 0.07764 0.0
C104 C 0.35819 0.84475 0.05874 0.0
C105 C 0.43562 0.9573 0.03436 0.0
C106 C 0.7437 0.97404 0.10388 0.0
C107 C 0.75041 0.88699 0.10869 0.0
C108 C 0.69058 1.00394 0.08188 0.0
C109 C 0.64751 0.94637 0.06368 0.0
C110 C 0.7038 0.83061 0.09142 0.0
C111 C 0.6533 0.85985 0.06907 0.0
C112 C 0.58246 0.97288 0.04317 0.0
C113 C 0.82774 0.07356 1.0057 0.0
C114 C 0.82194 0.14016 0.98604 0.0
C115 C 0.755 0.03108 1.01489 0.0
C116 C 0.67364 0.05812 1.00642 0.0
C117 C 0.74204 0.16315 0.97577 0.0
C118 C 0.66913 0.12449 0.98634 0.0
C119 C 0.59256 0.01864 1.01685 0.0
H120 H 0.1656 0.96279 0.97692 0.0
H121 H 0.30088 0.90447 0.99345 0.0
H122 H 0.28845 0.19787 0.95919 0.0
H123 H 0.41995 0.14353 0.97809 0.0
H124 H 0.17345 0.99744 0.07953 0.0
H125 H 0.28987 0.04613 0.04809 0.0
H126 H 0.29731 0.75558 0.08581 0.0
H127 H 0.41001 0.80168 0.0535 0.0
H128 H 0.7821 0.01824 0.11628 0.0
H129 H 0.68419 0.07113 0.07874 0.0
H130 H 0.71174 0.76338 0.09351 0.0
H131 H 0.61865 0.8145 0.05575 0.0
H132 H 0.88894 0.05179 1.01292 0.0
H133 H 0.76436 0.97581 0.02779 0.0
H134 H 0.73572 0.21152 0.95956 0.0
H135 H 0.60887 0.14679 0.97845 0.0
N136 N 0.52154 0.03 1.0003 0.0
N137 N 0.50516 0.94521 0.05041 0.0
C138 C 0.2667 0.95115 0.23274 0.0
C139 C 0.19145 0.95385 0.21677 0.0
C140 C 0.3043 0.0257 0.24274 0.0
C141 C 0.26486 0.10406 0.23827 0.0
C142 C 0.15542 0.03206 0.21023 0.0
C143 C 0.19149 0.10655 0.22108 0.0
C144 C 0.29702 0.18346 0.2519 0.0
C145 C 0.28069 0.01867 0.33468 0.0
C146 C 0.35675 0.01679 0.35043 0.0
C147 C 0.27156 0.07186 0.31079 0.0
C148 C 0.33963 0.12109 0.30177 0.0
C149 C 0.4232 0.06878 0.34204 0.0
C150 C 0.41509 0.11942 0.31774 0.0
C151 C 0.32897 0.18917 0.28085 0.0
C152 C 0.2941 0.5369 0.32225 0.0
C153 C 0.36101 0.53416 0.34237 0.0
C154 C 0.28839 0.47572 0.29962 0.0
C155 C 0.35174 0.41373 0.29608 0.0
C156 C 0.42245 0.47038 0.33916 0.0
C157 C 0.4189 0.41232 0.31594 0.0
C158 C 0.33959 0.33774 0.27753 0.0
C159 C 0.32145 0.55929 0.22274 0.0
C160 C 0.24583 0.56315 0.20717 0.0
C161 C 0.34968 0.482 0.23339 0.0
C162 C 0.29963 0.40937 0.22998 0.0
C163 C 0.20393 0.48835 0.19961 0.0
C164 C 0.2303 0.41203 0.21105 0.0
C165 C 0.31264 0.33349 0.24797 0.0
H166 H 0.29629 0.89128 0.23753 0.0
H167 H 0.3633 0.02157 0.25441 0.0
H168 H 0.0973 0.03538 0.19792 0.0
H169 H 0.16017 0.16597 0.2169 0.0
H170 H 0.22917 0.97769 0.3405 0.0
H171 H 0.21155 0.0752 0.29965 0.0
H172 H 0.48324 0.06699 0.35321 0.0
H173 H 0.46771 0.15879 0.31163 0.0
H174 H 0.24621 0.58594 0.32413 0.0
H175 H 0.23374 0.47561 0.28548 0.0
H176 H 0.47542 0.46665 0.35398 0.0
H177 H 0.4674 0.36374 0.31416 0.0
H178 H 0.35455 0.61647 0.2288 0.0
H179 H 0.40678 0.48075 0.24625 0.0
H180 H 0.14516 0.49037 0.18761 0.0
H181 H 0.19174 0.35689 0.20722 0.0
N182 N 0.29078 0.25625 0.23652 0.0
N183 N 0.34787 0.26558 0.29206 0.0
C184 C 0.89915 0.98155 0.26656 0.0
C185 C 0.88715 0.96277 0.23634 0.0
C186 C 0.86445 0.05465 0.27996 0.0
C187 C 0.81578 0.11115 0.2637 0.0
C188 C 0.84083 0.02091 0.21979 0.0
C189 C 0.806 0.09439 0.2333 0.0
C190 C 0.77624 0.18772 0.27834 0.0
C191 C 0.64073 0.96675 0.31645 0.0
C192 C 0.64188 0.95898 0.34733 0.0
C193 C 0.67159 0.03869 0.30302 0.0
C194 C 0.70676 0.10464 0.3199 0.0
C195 C 0.67942 0.02366 0.3643 0.0
C196 C 0.71106 0.09592 0.35071 0.0
C197 C 0.73153 0.18512 0.30574 0.0
C198 C 0.60595 0.54792 0.31527 0.0
C199 C 0.62643 0.57322 0.34433 0.0
C200 C 0.63004 0.4689 0.30378 0.0
C201 C 0.67908 0.41363 0.32033 0.0
C202 C 0.67359 0.51686 0.36136 0.0
C203 C 0.69983 0.43788 0.34941 0.0
C204 C 0.71533 0.33551 0.30586 0.0
C205 C 0.83494 0.56198 0.27077 0.0
C206 C 0.82136 0.57829 0.24084 0.0
C207 C 0.81776 0.48345 0.28223 0.0
C208 C 0.78078 0.41988 0.26478 0.0
C209 C 0.7837 0.51526 0.22312 0.0
C210 C 0.76314 0.43666 0.23509 0.0
C211 C 0.75873 0.33803 0.2784 0.0
H212 H 0.93521 0.93941 0.28012 0.0
H213 H 0.87554 0.0668 0.3032 0.0
H214 H 0.83054 0.00922 0.19648 0.0
H215 H 0.76972 0.13727 0.22008 0.0
H216 H 0.61152 0.91892 0.30259 0.0
H217 H 0.66429 0.04406 0.27943 0.0
H218 H 0.67991 0.02082 0.38813 0.0
H219 H 0.7369 0.14611 0.36439 0.0
H220 H 0.56849 0.58816 0.30146 0.0
H221 H 0.61166 0.45158 0.28151 0.0
H222 H 0.68905 0.53309 0.38399 0.0
H223 H 0.73776 0.39653 0.36266 0.0
H224 H 0.86535 0.60829 0.28495 0.0
H225 H 0.83446 0.4722 0.3049 0.0
H226 H 0.77508 0.5247 0.19977 0.0
H227 H 0.73482 0.38865 0.22109 0.0
N228 N 0.78743 0.26417 0.26572 0.0
N229 N 0.70349 0.25934 0.31844 0.0
C230 C 0.72785 0.08852 0.75545 0.0
C231 C 0.72744 0.09541 0.72468 0.0
C232 C 0.73336 0.0103 0.76809 0.0
C233 C 0.75747 0.93833 0.75135 0.0
C234 C 0.7501 0.02408 0.70719 0.0
C235 C 0.76737 0.94642 0.72057 0.0
C236 C 0.76783 0.85546 0.76606 0.0
C237 C 0.89975 0.047 0.82472 0.0
C238 C 0.87014 0.04854 0.85401 0.0
C239 C 0.88114 0.97992 0.80575 0.0
C240 C 0.82554 0.91806 0.81514 0.0
C241 C 0.81993 0.98378 0.86421 0.0
C242 C 0.79642 0.91948 0.84468 0.0
C243 C 0.79816 0.84918 0.79537 0.0
C244 C 0.88527 0.52061 0.82396 0.0
C245 C 0.85758 0.52417 0.85354 0.0
C246 C 0.8487 0.57221 0.80325 0.0
C247 C 0.78414 0.6281 0.81193 0.0
C248 C 0.79043 0.57708 0.86203 0.0
C249 C 0.75412 0.62931 0.84129 0.0
C250 C 0.77101 0.70328 0.7947 0.0
C251 C 0.61812 0.5043 0.75544 0.0
C252 C 0.64073 0.47802 0.72661 0.0
C253 C 0.64716 0.58025 0.76735 0.0
C254 C 0.70207 0.6311 0.7512 0.0
C255 C 0.6912 0.53134 0.70959 0.0
C256 C 0.72191 0.60726 0.72186 0.0
C257 C 0.74011 0.7066 0.76573 0.0
H258 H 0.70847 0.1416 0.76957 0.0
H259 H 0.71529 1.00685 0.79104 0.0
H260 H 0.74766 0.0265 0.68336 0.0
H261 H 0.78374 0.89188 0.70678 0.0
H262 H 0.93667 0.09834 0.81645 0.0
H263 H 0.90671 0.97849 0.7835 0.0
H264 H 0.79673 0.98453 0.88677 0.0
H265 H 0.75441 0.87129 0.85257 0.0
H266 H 0.93549 0.47767 0.8169 0.0
H267 H 0.87463 0.57256 0.78105 0.0
H268 H 0.76628 0.57789 0.88447 0.0
H269 H 0.7057 0.67417 0.84846 0.0
H270 H 0.57783 0.46596 0.76896 0.0
H271 H 0.62739 0.59857 0.78954 0.0
H272 H 0.70896 0.51322 0.68718 0.0
H273 H 0.76317 0.64588 0.70878 0.0
N274 N 0.7401 0.783 0.7522 0.0
N275 N 0.79873 0.7738 0.80786 0.0
C276 C 0.81655 0.51611 1.0072 0.0
C277 C 0.81841 0.44573 0.98777 0.0
C278 C 0.73995 0.54405 1.02008 0.0
C279 C 0.66564 0.4976 1.01563 0.0
C280 C 0.74257 0.40586 0.98068 0.0
C281 C 0.66731 0.43038 0.99484 0.0
C282 C 0.5854 0.51655 0.03198 0.0
C283 C 0.80008 0.51214 0.09576 0.0
C284 C 0.7971 0.58056 0.11605 0.0
C285 C 0.72665 0.48602 0.08101 0.0
C286 C 0.65116 0.53347 0.08404 0.0
C287 C 0.71824 0.61706 0.12309 0.0
C288 C 0.6465 0.59496 0.10694 0.0
C289 C 0.57806 0.525 0.06323 0.0
C290 C 0.19178 0.52594 0.079 0.0
C291 C 0.18877 0.58276 0.1032 0.0
C292 C 0.2698 0.50187 0.06625 0.0
C293 C 0.34476 0.54146 0.0755 0.0
C294 C 0.26488 0.61012 0.11555 0.0
C295 C 0.34176 0.59104 0.10159 0.0
C296 C 0.42655 0.53391 0.0588 0.0
C297 C 0.21619 0.57388 0.99501 0.0
C298 C 0.21266 0.50862 0.97351 0.0
C299 C 0.29154 0.58924 1.01049 0.0
C300 C 0.36197 0.53475 1.00639 0.0
C301 C 0.2881 0.46584 0.96572 0.0
C302 C 0.36136 0.4778 0.98218 0.0
C303 C 0.43455 0.53159 1.02747 0.0
H304 H 0.87408 0.5495 1.01231 0.0
H305 H 0.73963 0.59929 0.0346 0.0
H306 H 0.74211 0.35373 0.96491 0.0
H307 H 0.6106 0.39515 0.99009 0.0
H308 H 0.85991 0.48224 0.08999 0.0
H309 H 0.73104 0.43322 0.06548 0.0
H310 H 0.7137 0.66958 0.13877 0.0
H311 H 0.58884 0.63081 0.11095 0.0
H312 H 0.13401 0.50235 0.06944 0.0
H313 H 0.27052 0.45676 0.04796 0.0
H314 H 0.2649 0.6532 0.13437 0.0
H315 H 0.39831 0.61982 0.11029 0.0
H316 H 0.15917 0.60746 1.0018 0.0
H317 H 0.29168 0.6378 0.0277 0.0
H318 H 0.28742 0.41472 0.94941 0.0
H319 H 0.41528 0.43702 0.97747 0.0
N320 N 0.51351 0.52041 1.01573 0.0
N321 N 0.49878 0.53293 0.07496 0.0
C322 C 0.72336 0.46811 0.57458 0.0
C323 C 0.72989 0.39576 0.59182 0.0
C324 C 0.78284 0.48275 0.55233 0.0
C325 C 0.84677 0.42296 0.54615 0.0
C326 C 0.79524 0.33797 0.58601 0.0
C327 C 0.85133 0.34995 0.56294 0.0
C328 C 0.92239 0.44436 0.52909 0.0
C329 C 0.70178 0.47391 0.47193 0.0
C330 C 0.69844 0.55144 0.4579 0.0
C331 C 0.77841 0.44519 0.48346 0.0
C332 C 0.851 0.49621 0.48251 0.0
C333 C 0.77379 0.59479 0.45271 0.0
C334 C 0.84912 0.56792 0.46506 0.0
C335 C 0.92667 0.48059 0.50098 0.0
C336 C 0.30908 0.5324 0.48974 0.0
C337 C 0.30653 0.61214 0.47716 0.0
C338 C 0.23429 0.49347 0.49844 0.0
C339 C 0.15605 0.53547 0.496 0.0
C340 C 0.22842 0.65242 0.47332 0.0
C341 C 0.15394 0.61477 0.48288 0.0
C342 C 0.07636 0.49896 0.50736 0.0
C343 C 0.24797 0.48655 0.58879 0.0
C344 C 0.24876 0.40643 0.60138 0.0
C345 C 0.19151 0.50455 0.56629 0.0
C346 C 0.13861 0.44107 0.55529 0.0
C347 C 0.19281 0.34479 0.59138 0.0
C348 C 0.13924 0.36154 0.56828 0.0
C349 C 0.07046 0.45845 0.53463 0.0
H350 H 0.67272 0.51346 0.57848 0.0
H351 H 0.78036 0.54147 0.54069 0.0
H352 H 0.80213 0.28235 0.59883 0.0
H353 H 0.90155 0.30391 0.55918 0.0
H354 H 0.6445 0.43933 0.47614 0.0
H355 H 0.77901 0.38604 0.49479 0.0
H356 H 0.77259 0.65488 0.44183 0.0
H357 H 0.9041 0.60745 0.46293 0.0
H358 H 0.36864 0.49932 0.49209 0.0
H359 H 0.23794 0.43064 0.5071 0.0
H360 H 0.22518 0.71362 0.46328 0.0
H361 H 0.09472 0.64837 0.48041 0.0
H362 H 0.29231 0.53426 0.59592 0.0
H363 H 0.18925 0.56743 0.55757 0.0
H364 H 0.19416 0.28185 0.60012 0.0
H365 H 0.09751 0.31208 0.56058 0.0
N366 N 0.99425 0.43421 0.54402 0.0
N367 N 1.00387 0.50804 0.49152 0.0
Fe368 Fe 0.04392 0.73327 0.23406 0.0
O369 O 0.02512 0.71342 0.19193 0.0
Fe370 Fe 0.91256 0.75135 0.1719 0.0
Fe371 Fe 0.10715 0.74916 0.16126 0.0
O372 O 0.01681 0.71143 0.19216 0.0
O373 O 0.99577 0.79485 0.14227 0.0
O374 O 1.00495 0.79406 0.14159 0.0
Fe375 Fe 0.98653 0.77236 0.09927 0.0
C376 C 0.1483 0.87525 0.20857 0.0
O377 O 0.13462 0.64302 0.22637 0.0
O378 O 0.20389 0.69182 0.18534 0.0
O379 O 0.89374 0.68326 0.10321 0.0
O380 O 0.90059 0.63726 0.14893 0.0
O381 O 0.84252 0.69155 0.20591 0.0
O382 O 0.94592 0.65251 0.23885 0.0
O383 O 0.09484 0.63472 0.13993 0.0
O384 O 0.07919 0.67882 0.09464 0.0
C385 C 0.87105 0.64713 0.22782 0.0
O386 O 0.89152 0.85871 0.10574 0.0
O387 O 0.81737 0.80405 0.14526 0.0
O388 O 0.13825 0.82049 0.22824 0.0
O389 O 0.12291 0.86404 0.18233 0.0
C390 C 0.19557 0.64073 0.20715 0.0
C391 C 0.10967 0.62623 0.11252 0.0
C392 C 0.16012 0.84279 0.10446 0.0
O393 O 0.1802 0.79478 0.12625 0.0
O394 O 0.08417 0.85554 0.09532 0.0
C395 C 0.87365 0.63044 0.12258 0.0
O396 O 0.91366 0.86635 0.19526 0.0
O397 O 0.95753 0.83052 0.23993 0.0
C398 C 0.82523 0.85295 0.12251 0.0
C399 C 0.92178 0.88218 0.22286 0.0
Fe400 Fe 0.53367 0.75984 0.48222 0.0
O401 O 0.54179 0.76417 0.43879 0.0
Fe402 Fe 0.49336 0.87052 0.41714 0.0
Fe403 Fe 0.49304 0.67338 0.41303 0.0
O404 O 0.54201 0.77312 0.43896 0.0
O405 O 0.43916 0.77878 0.39305 0.0
O406 O 0.43985 0.76976 0.39267 0.0
Fe407 Fe 0.43613 0.77626 0.34984 0.0
C408 C 0.62025 0.60167 0.45738 0.0
O409 O 0.44591 0.6634 0.48314 0.0
O410 O 0.3874 0.66909 0.43913 0.0
O411 O 0.35364 0.87403 0.35867 0.0
O412 O 0.43245 0.95783 0.39009 0.0
O413 O 0.38754 0.87557 0.44421 0.0
O414 O 0.43656 0.84589 0.48867 0.0
O415 O 0.43235 0.59155 0.38357 0.0
O416 O 0.35332 0.67844 0.35462 0.0
C417 C 0.37856 0.87294 0.47208 0.0
O418 O 0.52716 0.86667 0.34578 0.0
O419 O 0.59622 0.87532 0.38837 0.0
O420 O 0.6222 0.66815 0.4745 0.0
O421 O 0.56207 0.58508 0.43789 0.0
C422 C 0.38404 0.65097 0.46605 0.0
C423 C 0.37671 0.60459 0.36319 0.0
C424 C 0.58606 0.65131 0.35738 0.0
O425 O 0.59562 0.67102 0.38461 0.0
O426 O 0.52602 0.68306 0.34269 0.0
C427 C 0.37568 0.94656 0.36964 0.0
O428 O 0.56415 0.95109 0.44597 0.0
O429 O 0.61438 0.85956 0.48094 0.0
C430 C 0.58902 0.89287 0.36107 0.0
C431 C 0.61593 0.92983 0.467 0.0
Fe432 Fe 0.5035 0.24529 0.73384 0.0
O433 O 0.50226 0.22879 0.69099 0.0
Fe434 Fe 0.39429 0.26993 0.6682 0.0
Fe435 Fe 0.59426 0.2685 0.6644 0.0
O436 O 0.49248 0.22625 0.69081 0.0
O437 O 0.48674 0.3162 0.64283 0.0
O438 O 0.49693 0.31652 0.64265 0.0
Fe439 Fe 0.48976 0.30584 0.59969 0.0
C440 C 0.61116 0.39506 0.71512 0.0
O441 O 0.59929 0.16187 0.72949 0.0
O442 O 0.6835 0.20599 0.69122 0.0
O443 O 0.39776 0.21736 0.59808 0.0
O444 O 0.38308 0.16035 0.6421 0.0
O445 O 0.31473 0.20619 0.69929 0.0
O446 O 0.41187 0.15903 0.73306 0.0
O447 O 0.58908 0.15742 0.64026 0.0
O448 O 0.58251 0.21153 0.5958 0.0
C449 C 0.33888 0.15724 0.72076 0.0
O450 O 0.39264 0.39127 0.60525 0.0
O451 O 0.30775 0.32704 0.63991 0.0
O452 O 0.59135 0.33992 0.73376 0.0
O453 O 0.60517 0.38145 0.68752 0.0
C454 C 0.66782 0.15926 0.71393 0.0
C455 C 0.60737 0.15385 0.61292 0.0
C456 C 0.66068 0.37177 0.61153 0.0
O457 O 0.67606 0.31917 0.63257 0.0
O458 O 0.5864 0.38963 0.602 0.0
C459 C 0.36599 0.16222 0.61457 0.0
O460 O 0.3934 0.38279 0.69271 0.0
O461 O 0.40992 0.33517 0.73776 0.0
C462 C 0.32086 0.37883 0.61835 0.0
C463 C 0.39061 0.39395 0.72058 0.0
Fe464 Fe 0.04927 0.29606 0.98813 0.0
O465 O 0.05826 0.29014 0.94449 0.0
Fe466 Fe 0.00986 0.39317 0.92066 0.0
Fe467 Fe 0.00944 0.19435 0.92073 0.0
O468 O 0.05838 0.29978 0.9445 0.0
O469 O 0.95622 0.29722 0.89875 0.0
O470 O 0.95669 0.28779 0.8986 0.0
Fe471 Fe 0.95198 0.28893 0.85577 0.0
C472 C 0.13592 0.13221 0.96672 0.0
O473 O 0.95816 0.20233 0.99167 0.0
O474 O 0.90325 0.19394 0.94701 0.0
O475 O 0.86836 0.38458 0.86302 0.0
O476 O 0.94658 0.47592 0.892 0.0
O477 O 0.90448 0.40162 0.9474 0.0
O478 O 0.9559 0.38832 0.99253 0.0
O479 O 0.94817 0.10771 0.89298 0.0
O480 O 0.87053 0.19226 0.86255 0.0
C481 C 0.89851 0.41219 0.97513 0.0
O482 O 0.04143 0.37974 0.8499 0.0
O483 O 0.11234 0.39338 0.89185 0.0
O484 O 0.13564 0.20088 0.98278 0.0
O485 O 0.07828 0.11117 0.94754 0.0
C486 C 0.89866 0.1815 0.9744 0.0
C487 C 0.89164 0.11995 0.87288 0.0
C488 C 0.10161 0.16525 0.86469 0.0
O489 O 0.11202 0.18476 0.89196 0.0
O490 O 0.04197 0.19757 0.85013 0.0
C491 C 0.88775 0.45888 0.87273 0.0
O492 O 0.08129 0.4783 0.94782 0.0
O493 O 0.13301 0.39251 0.98428 0.0
C494 C 0.10374 0.40815 0.86443 0.0
C495 C 0.13416 0.46027 0.96895 0.0
loop_
_geom_bond_atom_site_label_1
_geom_bond_atom_site_label_2
_geom_bond_distance
_geom_bond_site_symmetry_2
_ccdc_geom_bond_type
C0 C1 1.384 . S
C0 C2 1.384 1_565 S
C0 H28 0.931 1_565 S
C1 C0 1.384 . S
C1 C4 1.382 . S
C2 C0 1.384 1_545 S
C2 C3 1.381 1_545 S
C2 H29 0.930 . S
C3 C2 1.381 1_565 S
C3 C5 1.381 . S
C3 C6 1.487 . S
C4 C1 1.382 . S
C4 C5 1.387 . S
C4 H30 0.930 . S
C5 C3 1.381 . S
C5 C4 1.387 . S
C5 H31 0.931 . S
C6 C3 1.487 . S
C6 C13 1.399 1_565 S
C6 N44 1.343 . S
C7 C8 1.384 . S
C7 C9 1.384 . S
C7 H32 0.931 . S
C8 C7 1.384 . S
C8 C11 1.382 . S
C9 C7 1.384 . S
C9 C10 1.381 . S
C9 H33 0.930 1_545 S
C10 C9 1.381 . S
C10 C12 1.381 . S
C10 C13 1.487 . S
C11 C8 1.382 . S
C11 C12 1.387 . S
C11 H34 0.930 . S
C12 C10 1.381 . S
C12 C11 1.387 . S
C12 H35 0.931 . S
C13 C6 1.399 1_545 S
C13 C10 1.487 . S
C13 N45 1.343 . S
C14 C15 1.384 . S
C14 C16 1.384 . S
C14 H36 0.931 . S
C15 C14 1.384 . S
C15 C18 1.382 . S
C16 C14 1.384 . S
C16 C17 1.381 . S
C16 H37 0.930 1_545 S
C17 C16 1.381 . S
C17 C19 1.381 . S
C17 C20 1.487 . S
C18 C15 1.382 . S
C18 C19 1.387 . S
C18 H38 0.930 . S
C19 C17 1.381 . S
C19 C18 1.387 . S
C19 H39 0.931 . S
C20 C17 1.487 . S
C20 C27 1.399 1_545 S
C20 N45 1.343 1_655 S
C21 C22 1.384 . S
C21 C23 1.384 1_565 S
C21 H40 0.931 1_565 S
C22 C21 1.384 . S
C22 C25 1.382 . S
C23 C21 1.384 1_545 S
C23 C24 1.381 1_545 S
C23 H41 0.930 . S
C24 C23 1.381 1_565 S
C24 C26 1.381 . S
C24 C27 1.487 . S
C25 C22 1.382 . S
C25 C26 1.387 . S
C25 H42 0.930 . S
C26 C24 1.381 . S
C26 C25 1.387 . S
C26 H43 0.931 . S
C27 C20 1.399 1_565 S
C27 C24 1.487 . S
C27 N44 1.343 1_655 S
H28 C0 0.931 1_545 S
H29 C2 0.930 . S
H30 C4 0.930 . S
H31 C5 0.931 . S
H32 C7 0.931 . S
H33 C9 0.930 1_565 S
H34 C11 0.930 . S
H35 C12 0.931 . S
H36 C14 0.931 . S
H37 C16 0.930 1_565 S
H38 C18 0.930 . S
H39 C19 0.931 . S
H40 C21 0.931 1_545 S
H41 C23 0.930 . S
H42 C25 0.930 . S
H43 C26 0.931 . S
N44 C6 1.343 . S
N44 C27 1.343 1_455 S
N45 C13 1.343 . S
N45 C20 1.343 1_455 S
C46 C47 1.384 . S
C46 C48 1.384 . S
C46 H74 0.931 . S
C47 C46 1.384 . S
C47 C50 1.382 . S
C48 C46 1.384 . S
C48 C49 1.381 . S
C48 H75 0.930 . S
C49 C48 1.381 . S
C49 C51 1.381 . S
C49 C52 1.487 . S
C50 C47 1.382 . S
C50 C51 1.387 . S
C50 H76 0.930 . S
C51 C49 1.381 . S
C51 C50 1.387 . S
C51 H77 0.931 . S
C52 C49 1.487 . S
C52 C59 1.399 . S
C52 N90 1.343 . S
C53 C54 1.384 . S
C53 C55 1.384 . S
C53 H78 0.931 . S
C54 C53 1.384 . S
C54 C57 1.382 . S
C55 C53 1.384 . S
C55 C56 1.381 . S
C55 H79 0.930 . S
C56 C55 1.381 . S
C56 C58 1.381 . S
C56 C59 1.487 . S
C57 C54 1.382 . S
C57 C58 1.387 . S
C57 H80 0.930 . S
C58 C56 1.381 . S
C58 C57 1.387 . S
C58 H81 0.931 . S
C59 C52 1.399 . S
C59 C56 1.487 . S
C59 N91 1.343 . S
C60 C61 1.384 . S
C60 C62 1.384 1_545 S
C60 H82 0.931 . S
C61 C60 1.384 . S
C61 C64 1.382 1_545 S
C62 C60 1.384 1_565 S
C62 C63 1.381 . S
C62 H83 0.930 . S
C63 C62 1.381 . S
C63 C65 1.381 . S
C63 C66 1.487 . S
C64 C61 1.382 1_565 S
C64 C65 1.387 . S
C64 H84 0.930 . S
C65 C63 1.381 . S
C65 C64 1.387 . S
C65 H85 0.931 . S
C66 C63 1.487 . S
C66 C73 1.399 . S
C66 N91 1.343 . S
C67 C68 1.384 . S
C67 C69 1.384 1_545 S
C67 H86 0.931 . S
C68 C67 1.384 . S
C68 C71 1.382 1_545 S
C69 C67 1.384 1_565 S
C69 C70 1.381 . S
C69 H87 0.930 . S
C70 C69 1.381 . S
C70 C72 1.381 . S
C70 C73 1.487 . S
C71 C68 1.382 1_565 S
C71 C72 1.387 . S
C71 H88 0.930 . S
C72 C70 1.381 . S
C72 C71 1.387 . S
C72 H89 0.931 . S
C73 C66 1.399 . S
C73 C70 1.487 . S
C73 N90 1.343 . S
H74 C46 0.931 . S
H75 C48 0.930 . S
H76 C50 0.930 . S
H77 C51 0.931 . S
H78 C53 0.931 . S
H79 C55 0.930 . S
H80 C57 0.930 . S
H81 C58 0.931 . S
H82 C60 0.931 . S
H83 C62 0.930 . S
H84 C64 0.930 . S
H85 C65 0.931 . S
H86 C67 0.931 . S
H87 C69 0.930 . S
H88 C71 0.930 . S
H89 C72 0.931 . S
N90 C52 1.343 . S
N90 C73 1.343 . S
N91 C59 1.343 . S
N91 C66 1.343 . S
C92 C93 1.384 . S
C92 C94 1.384 . S
C92 H120 0.931 1_545 S
C93 C92 1.384 . S
C93 C96 1.382 . S
C94 C92 1.384 . S
C94 C95 1.381 . S
C94 H121 0.930 1_545 S
C95 C94 1.381 . S
C95 C97 1.381 . S
C95 C98 1.487 . S
C96 C93 1.382 . S
C96 C97 1.387 . S
C96 H122 0.930 . S
C97 C95 1.381 . S
C97 C96 1.387 . S
C97 H123 0.931 . S
C98 C95 1.487 . S
C98 C105 1.399 1_546 S
C98 N136 1.343 . S
C99 C100 1.384 . S
C99 C101 1.384 . S
C99 H124 0.931 1_565 S
C100 C99 1.384 . S
C100 C103 1.382 . S
C101 C99 1.384 . S
C101 C102 1.381 . S
C101 H125 0.930 1_565 S
C102 C101 1.381 . S
C102 C104 1.381 . S
C102 C105 1.487 . S
C103 C100 1.382 . S
C103 C104 1.387 . S
C103 H126 0.930 . S
C104 C102 1.381 . S
C104 C103 1.387 . S
C104 H127 0.931 . S
C105 C98 1.399 1_564 S
C105 C102 1.487 . S
C105 N137 1.343 . S
C106 C107 1.384 . S
C106 C108 1.384 . S
C106 H128 0.931 1_565 S
C107 C106 1.384 . S
C107 C110 1.382 . S
C108 C106 1.384 . S
C108 C109 1.381 . S
C108 H129 0.930 1_565 S
C109 C108 1.381 . S
C109 C111 1.381 . S
C109 C112 1.487 . S
C110 C107 1.382 . S
C110 C111 1.387 . S
C110 H130 0.930 . S
C111 C109 1.381 . S
C111 C110 1.387 . S
C111 H131 0.931 . S
C112 C109 1.487 . S
C112 C119 1.399 1_564 S
C112 N137 1.343 . S
C113 C114 1.384 . S
C113 C115 1.384 . S
C113 H132 0.931 1_545 S
C114 C113 1.384 . S
C114 C117 1.382 . S
C115 C113 1.384 . S
C115 C116 1.381 . S
C115 H133 0.930 1_545 S
C116 C115 1.381 . S
C116 C118 1.381 . S
C116 C119 1.487 . S
C117 C114 1.382 . S
C117 C118 1.387 . S
C117 H134 0.930 . S
C118 C116 1.381 . S
C118 C117 1.387 . S
C118 H135 0.931 . S
C119 C112 1.399 1_546 S
C119 C116 1.487 . S
C119 N136 1.343 . S
H120 C92 0.931 1_565 S
H121 C94 0.930 1_565 S
H122 C96 0.930 . S
H123 C97 0.931 . S
H124 C99 0.931 1_545 S
H125 C101 0.930 1_545 S
H126 C103 0.930 . S
H127 C104 0.931 . S
H128 C106 0.931 1_545 S
H129 C108 0.930 1_545 S
H130 C110 0.930 . S
H131 C111 0.931 . S
H132 C113 0.931 1_565 S
H133 C115 0.930 1_565 S
H134 C117 0.930 . S
H135 C118 0.931 . S
N136 C98 1.343 . S
N136 C119 1.343 . S
N137 C105 1.343 . S
N137 C112 1.343 . S
C138 C139 1.384 . S
C138 C140 1.384 1_565 S
C138 H166 0.931 . S
C139 C138 1.384 . S
C139 C142 1.382 1_565 S
C140 C138 1.384 1_545 S
C140 C141 1.381 . S
C140 H167 0.930 . S
C141 C140 1.381 . S
C141 C143 1.381 . S
C141 C144 1.487 . S
C142 C139 1.382 1_545 S
C142 C143 1.387 . S
C142 H168 0.930 . S
C143 C141 1.381 . S
C143 C142 1.387 . S
C143 H169 0.931 . S
C144 C141 1.487 . S
C144 C151 1.399 . S
C144 N182 1.343 . S
C145 C146 1.384 . S
C145 C147 1.384 1_565 S
C145 H170 0.931 . S
C146 C145 1.384 . S
C146 C149 1.382 1_565 S
C147 C145 1.384 1_545 S
C147 C148 1.381 . S
C147 H171 0.930 . S
C148 C147 1.381 . S
C148 C150 1.381 . S
C148 C151 1.487 . S
C149 C146 1.382 1_545 S
C149 C150 1.387 . S
C149 H172 0.930 . S
C150 C148 1.381 . S
C150 C149 1.387 . S
C150 H173 0.931 . S
C151 C144 1.399 . S
C151 C148 1.487 . S
C151 N183 1.343 . S
C152 C153 1.384 . S
C152 C154 1.384 . S
C152 H174 0.931 . S
C153 C152 1.384 . S
C153 C156 1.382 . S
C154 C152 1.384 . S
C154 C155 1.381 . S
C154 H175 0.930 . S
C155 C154 1.381 . S
C155 C157 1.381 . S
C155 C158 1.487 . S
C156 C153 1.382 . S
C156 C157 1.387 . S
C156 H176 0.930 . S
C157 C155 1.381 . S
C157 C156 1.387 . S
C157 H177 0.931 . S
C158 C155 1.487 . S
C158 C165 1.399 . S
C158 N183 1.343 . S
C159 C160 1.384 . S
C159 C161 1.384 . S
C159 H178 0.931 . S
C160 C159 1.384 . S
C160 C163 1.382 . S
C161 C159 1.384 . S
C161 C162 1.381 . S
C161 H179 0.930 . S
C162 C161 1.381 . S
C162 C164 1.381 . S
C162 C165 1.487 . S
C163 C160 1.382 . S
C163 C164 1.387 . S
C163 H180 0.930 . S
C164 C162 1.381 . S
C164 C163 1.387 . S
C164 H181 0.931 . S
C165 C158 1.399 . S
C165 C162 1.487 . S
C165 N182 1.343 . S
H166 C138 0.931 . S
H167 C140 0.930 . S
H168 C142 0.930 . S
H169 C143 0.931 . S
H170 C145 0.931 . S
H171 C147 0.930 . S
H172 C149 0.930 . S
H173 C150 0.931 . S
H174 C152 0.931 . S
H175 C154 0.930 . S
H176 C156 0.930 . S
H177 C157 0.931 . S
H178 C159 0.931 . S
H179 C161 0.930 . S
H180 C163 0.930 . S
H181 C164 0.931 . S
N182 C144 1.343 . S
N182 C165 1.343 . S
N183 C151 1.343 . S
N183 C158 1.343 . S
C184 C185 1.384 . S
C184 C186 1.384 1_565 S
C184 H212 0.931 . S
C185 C184 1.384 . S
C185 C188 1.382 1_565 S
C186 C184 1.384 1_545 S
C186 C187 1.381 . S
C186 H213 0.930 . S
C187 C186 1.381 . S
C187 C189 1.381 . S
C187 C190 1.487 . S
C188 C185 1.382 1_545 S
C188 C189 1.387 . S
C188 H214 0.930 . S
C189 C187 1.381 . S
C189 C188 1.387 . S
C189 H215 0.931 . S
C190 C187 1.487 . S
C190 C197 1.399 . S
C190 N228 1.343 . S
C191 C192 1.384 . S
C191 C193 1.384 1_565 S
C191 H216 0.931 . S
C192 C191 1.384 . S
C192 C195 1.382 1_565 S
C193 C191 1.384 1_545 S
C193 C194 1.381 . S
C193 H217 0.930 . S
C194 C193 1.381 . S
C194 C196 1.381 . S
C194 C197 1.487 . S
C195 C192 1.382 1_545 S
C195 C196 1.387 . S
C195 H218 0.930 . S
C196 C194 1.381 . S
C196 C195 1.387 . S
C196 H219 0.931 . S
C197 C190 1.399 . S
C197 C194 1.487 . S
C197 N229 1.343 . S
C198 C199 1.384 . S
C198 C200 1.384 . S
C198 H220 0.931 . S
C199 C198 1.384 . S
C199 C202 1.382 . S
C200 C198 1.384 . S
C200 C201 1.381 . S
C200 H221 0.930 . S
C201 C200 1.381 . S
C201 C203 1.381 . S
C201 C204 1.487 . S
C202 C199 1.382 . S
C202 C203 1.387 . S
C202 H222 0.930 . S
C203 C201 1.381 . S
C203 C202 1.387 . S
C203 H223 0.931 . S
C204 C201 1.487 . S
C204 C211 1.399 . S
C204 N229 1.343 . S
C205 C206 1.384 . S
C205 C207 1.384 . S
C205 H224 0.931 . S
C206 C205 1.384 . S
C206 C209 1.382 . S
C207 C205 1.384 . S
C207 C208 1.381 . S
C207 H225 0.930 . S
C208 C207 1.381 . S
C208 C210 1.381 . S
C208 C211 1.487 . S
C209 C206 1.382 . S
C209 C210 1.387 . S
C209 H226 0.930 . S
C210 C208 1.381 . S
C210 C209 1.387 . S
C210 H227 0.931 . S
C211 C204 1.399 . S
C211 C208 1.487 . S
C211 N228 1.343 . S
H212 C184 0.931 . S
H213 C186 0.930 . S
H214 C188 0.930 . S
H215 C189 0.931 . S
H216 C191 0.931 . S
H217 C193 0.930 . S
H218 C195 0.930 . S
H219 C196 0.931 . S
H220 C198 0.931 . S
H221 C200 0.930 . S
H222 C202 0.930 . S
H223 C203 0.931 . S
H224 C205 0.931 . S
H225 C207 0.930 . S
H226 C209 0.930 . S
H227 C210 0.931 . S
N228 C190 1.343 . S
N228 C211 1.343 . S
N229 C197 1.343 . S
N229 C204 1.343 . S
C230 C231 1.384 . S
C230 C232 1.384 1_545 S
C230 H258 0.931 . S
C231 C230 1.384 . S
C231 C234 1.382 1_545 S
C232 C230 1.384 1_565 S
C232 C233 1.381 . S
C232 H259 0.930 . S
C233 C232 1.381 . S
C233 C235 1.381 . S
C233 C236 1.487 . S
C234 C231 1.382 1_565 S
C234 C235 1.387 . S
C234 H260 0.930 . S
C235 C233 1.381 . S
C235 C234 1.387 . S
C235 H261 0.931 . S
C236 C233 1.487 . S
C236 C243 1.399 . S
C236 N274 1.343 . S
C237 C238 1.384 . S
C237 C239 1.384 1_545 S
C237 H262 0.931 . S
C238 C237 1.384 . S
C238 C241 1.382 1_545 S
C239 C237 1.384 1_565 S
C239 C240 1.381 . S
C239 H263 0.930 . S
C240 C239 1.381 . S
C240 C242 1.381 . S
C240 C243 1.487 . S
C241 C238 1.382 1_565 S
C241 C242 1.387 . S
C241 H264 0.930 . S
C242 C240 1.381 . S
C242 C241 1.387 . S
C242 H265 0.931 . S
C243 C236 1.399 . S
C243 C240 1.487 . S
C243 N275 1.343 . S
C244 C245 1.384 . S
C244 C246 1.384 . S
C244 H266 0.931 . S
C245 C244 1.384 . S
C245 C248 1.382 . S
C246 C244 1.384 . S
C246 C247 1.381 . S
C246 H267 0.930 . S
C247 C246 1.381 . S
C247 C249 1.381 . S
C247 C250 1.487 . S
C248 C245 1.382 . S
C248 C249 1.387 . S
C248 H268 0.930 . S
C249 C247 1.381 . S
C249 C248 1.387 . S
C249 H269 0.931 . S
C250 C247 1.487 . S
C250 C257 1.399 . S
C250 N275 1.343 . S
C251 C252 1.384 . S
C251 C253 1.384 . S
C251 H270 0.931 . S
C252 C251 1.384 . S
C252 C255 1.382 . S
C253 C251 1.384 . S
C253 C254 1.381 . S
C253 H271 0.930 . S
C254 C253 1.381 . S
C254 C256 1.381 . S
C254 C257 1.487 . S
C255 C252 1.382 . S
C255 C256 1.387 . S
C255 H272 0.930 . S
C256 C254 1.381 . S
C256 C255 1.387 . S
C256 H273 0.931 . S
C257 C250 1.399 . S
C257 C254 1.487 . S
C257 N274 1.343 . S
H258 C230 0.931 . S
H259 C232 0.930 . S
H260 C234 0.930 . S
H261 C235 0.931 . S
H262 C237 0.931 . S
H263 C239 0.930 . S
H264 C241 0.930 . S
H265 C242 0.931 . S
H266 C244 0.931 . S
H267 C246 0.930 . S
H268 C248 0.930 . S
H269 C249 0.931 . S
H270 C251 0.931 . S
H271 C253 0.930 . S
H272 C255 0.930 . S
H273 C256 0.931 . S
N274 C236 1.343 . S
N274 C257 1.343 . S
N275 C243 1.343 . S
N275 C250 1.343 . S
C276 C277 1.384 . S
C276 C278 1.384 . S
C276 H304 0.931 . S
C277 C276 1.384 . S
C277 C280 1.382 . S
C278 C276 1.384 . S
C278 C279 1.381 . S
C278 H305 0.930 . S
C279 C278 1.381 . S
C279 C281 1.381 . S
C279 C282 1.487 . S
C280 C277 1.382 . S
C280 C281 1.387 . S
C280 H306 0.930 . S
C281 C279 1.381 . S
C281 C280 1.387 . S
C281 H307 0.931 . S
C282 C279 1.487 . S
C282 C289 1.399 1_556 S
C282 N320 1.343 . S
C283 C284 1.384 . S
C283 C285 1.384 . S
C283 H308 0.931 . S
C284 C283 1.384 . S
C284 C287 1.382 . S
C285 C283 1.384 . S
C285 C286 1.381 . S
C285 H309 0.930 . S
C286 C285 1.381 . S
C286 C288 1.381 . S
C286 C289 1.487 . S
C287 C284 1.382 . S
C287 C288 1.387 . S
C287 H310 0.930 . S
C288 C286 1.381 . S
C288 C287 1.387 . S
C288 H311 0.931 . S
C289 C282 1.399 1_554 S
C289 C286 1.487 . S
C289 N321 1.343 . S
C290 C291 1.384 . S
C290 C292 1.384 . S
C290 H312 0.931 . S
C291 C290 1.384 . S
C291 C294 1.382 . S
C292 C290 1.384 . S
C292 C293 1.381 . S
C292 H313 0.930 . S
C293 C292 1.381 . S
C293 C295 1.381 . S
C293 C296 1.487 . S
C294 C291 1.382 . S
C294 C295 1.387 . S
C294 H314 0.930 . S
C295 C293 1.381 . S
C295 C294 1.387 . S
C295 H315 0.931 . S
C296 C293 1.487 . S
C296 C303 1.399 1_554 S
C296 N321 1.343 . S
C297 C298 1.384 . S
C297 C299 1.384 . S
C297 H316 0.931 . S
C298 C297 1.384 . S
C298 C301 1.382 . S
C299 C297 1.384 . S
C299 C300 1.381 . S
C299 H317 0.930 . S
C300 C299 1.381 . S
C300 C302 1.381 . S
C300 C303 1.487 . S
C301 C298 1.382 . S
C301 C302 1.387 . S
C301 H318 0.930 . S
C302 C300 1.381 . S
C302 C301 1.387 . S
C302 H319 0.931 . S
C303 C296 1.399 1_556 S
C303 C300 1.487 . S
C303 N320 1.343 . S
H304 C276 0.931 . S
H305 C278 0.930 . S
H306 C280 0.930 . S
H307 C281 0.931 . S
H308 C283 0.931 . S
H309 C285 0.930 . S
H310 C287 0.930 . S
H311 C288 0.931 . S
H312 C290 0.931 . S
H313 C292 0.930 . S
H314 C294 0.930 . S
H315 C295 0.931 . S
H316 C297 0.931 . S
H317 C299 0.930 . S
H318 C301 0.930 . S
H319 C302 0.931 . S
N320 C282 1.343 . S
N320 C303 1.343 . S
N321 C289 1.343 . S
N321 C296 1.343 . S
C322 C323 1.384 . S
C322 C324 1.384 . S
C322 H350 0.931 . S
C323 C322 1.384 . S
C323 C326 1.382 . S
C324 C322 1.384 . S
C324 C325 1.381 . S
C324 H351 0.930 . S
C325 C324 1.381 . S
C325 C327 1.381 . S
C325 C328 1.487 . S
C326 C323 1.382 . S
C326 C327 1.387 . S
C326 H352 0.930 . S
C327 C325 1.381 . S
C327 C326 1.387 . S
C327 H353 0.931 . S
C328 C325 1.487 . S
C328 C335 1.399 . S
C328 N366 1.343 1_655 S
C329 C330 1.384 . S
C329 C331 1.384 . S
C329 H354 0.931 . S
C330 C329 1.384 . S
C330 C333 1.382 . S
C331 C329 1.384 . S
C331 C332 1.381 . S
C331 H355 0.930 . S
C332 C331 1.381 . S
C332 C334 1.381 . S
C332 C335 1.487 . S
C333 C330 1.382 . S
C333 C334 1.387 . S
C333 H356 0.930 . S
C334 C332 1.381 . S
C334 C333 1.387 . S
C334 H357 0.931 . S
C335 C328 1.399 . S
C335 C332 1.487 . S
C335 N367 1.343 1_655 S
C336 C337 1.384 . S
C336 C338 1.384 . S
C336 H358 0.931 . S
C337 C336 1.384 . S
C337 C340 1.382 . S
C338 C336 1.384 . S
C338 C339 1.381 . S
C338 H359 0.930 . S
C339 C338 1.381 . S
C339 C341 1.381 . S
C339 C342 1.487 . S
C340 C337 1.382 . S
C340 C341 1.387 . S
C340 H360 0.930 . S
C341 C339 1.381 . S
C341 C340 1.387 . S
C341 H361 0.931 . S
C342 C339 1.487 . S
C342 C349 1.399 . S
C342 N367 1.343 . S
C343 C344 1.384 . S
C343 C345 1.384 . S
C343 H362 0.931 . S
C344 C343 1.384 . S
C344 C347 1.382 . S
C345 C343 1.384 . S
C345 C346 1.381 . S
C345 H363 0.930 . S
C346 C345 1.381 . S
C346 C348 1.381 . S
C346 C349 1.487 . S
C347 C344 1.382 . S
C347 C348 1.387 . S
C347 H364 0.930 . S
C348 C346 1.381 . S
C348 C347 1.387 . S
C348 H365 0.931 . S
C349 C342 1.399 . S
C349 C346 1.487 . S
C349 N366 1.343 . S
H350 C322 0.931 . S
H351 C324 0.930 . S
H352 C326 0.930 . S
H353 C327 0.931 . S
H354 C329 0.931 . S
H355 C331 0.930 . S
H356 C333 0.930 . S
H357 C334 0.931 . S
H358 C336 0.931 . S
H359 C338 0.930 . S
H360 C340 0.930 . S
H361 C341 0.931 . S
H362 C343 0.931 . S
H363 C345 0.930 . S
H364 C347 0.930 . S
H365 C348 0.931 . S
N366 C328 1.343 1_455 S
N366 C349 1.343 . S
N367 C335 1.343 1_455 S
N367 C342 1.343 . S
Fe368 O369 1.886 . S
Fe368 O372 1.715 1_455 S
Fe368 O377 2.077 . S
Fe368 O382 1.935 1_455 S
Fe368 O388 2.077 . S
Fe368 O397 1.935 1_455 S
O369 Fe368 1.886 . S
O369 Fe371 1.715 . S
Fe370 O372 1.886 . S
Fe370 O373 1.715 . S
Fe370 O380 1.935 . S
Fe370 O381 2.077 . S
Fe370 O387 1.935 . S
Fe370 O396 2.077 . S
Fe371 O369 1.715 . S
Fe371 O374 1.886 . S
Fe371 O378 1.935 . S
Fe371 O383 2.077 . S
Fe371 O389 1.935 . S
Fe371 O393 2.077 . S
O372 Fe368 1.715 1_655 S
O372 Fe370 1.886 . S
O373 Fe370 1.715 . S
O373 Fe375 1.886 . S
O374 Fe371 1.886 . S
O374 Fe375 1.715 1_455 S
Fe375 O373 1.886 . S
Fe375 O374 1.715 1_655 S
Fe375 O379 2.077 . S
Fe375 O384 1.935 1_655 S
Fe375 O386 2.077 . S
Fe375 O394 1.935 1_655 S
C376 O388 1.381 . S
C376 O389 1.421 . S
O377 Fe368 2.077 . S
O377 C390 1.381 . S
O378 Fe371 1.935 . S
O378 C390 1.421 . S
O379 Fe375 2.077 . S
O379 C395 1.381 . S
O380 Fe370 1.935 . S
O380 C395 1.421 . S
O381 Fe370 2.077 . S
O381 C385 1.381 . S
O382 Fe368 1.935 1_655 S
O382 C385 1.421 . S
O383 Fe371 2.077 . S
O383 C391 1.381 . S
O384 Fe375 1.935 1_455 S
O384 C391 1.421 . S
C385 O381 1.381 . S
C385 O382 1.421 . S
O386 Fe375 2.077 . S
O386 C398 1.381 . S
O387 Fe370 1.935 . S
O387 C398 1.421 . S
O388 Fe368 2.077 . S
O388 C376 1.381 . S
O389 Fe371 1.935 . S
O389 C376 1.421 . S
C390 O377 1.381 . S
C390 O378 1.421 . S
C391 O383 1.381 . S
C391 O384 1.421 . S
C392 O393 1.381 . S
C392 O394 1.421 . S
O393 Fe371 2.077 . S
O393 C392 1.381 . S
O394 Fe375 1.935 1_455 S
O394 C392 1.421 . S
C395 O379 1.381 . S
C395 O380 1.421 . S
O396 Fe370 2.077 . S
O396 C399 1.381 . S
O397 Fe368 1.935 1_655 S
O397 C399 1.421 . S
C398 O386 1.381 . S
C398 O387 1.421 . S
C399 O396 1.381 . S
C399 O397 1.421 . S
Fe400 O401 1.886 . S
Fe400 O404 1.715 . S
Fe400 O409 2.077 . S
Fe400 O414 1.935 . S
Fe400 O420 2.077 . S
Fe400 O429 1.935 . S
O401 Fe400 1.886 . S
O401 Fe403 1.715 . S
Fe402 O404 1.886 . S
Fe402 O405 1.715 . S
Fe402 O412 1.935 . S
Fe402 O413 2.077 . S
Fe402 O419 1.935 . S
Fe402 O428 2.077 . S
Fe403 O401 1.715 . S
Fe403 O406 1.886 . S
Fe403 O410 1.935 . S
Fe403 O415 2.077 . S
Fe403 O421 1.935 . S
Fe403 O425 2.077 . S
O404 Fe400 1.715 . S
O404 Fe402 1.886 . S
O405 Fe402 1.715 . S
O405 Fe407 1.886 . S
O406 Fe403 1.886 . S
O406 Fe407 1.715 . S
Fe407 O405 1.886 . S
Fe407 O406 1.715 . S
Fe407 O411 2.077 . S
Fe407 O416 1.935 . S
Fe407 O418 2.077 . S
Fe407 O426 1.935 . S
C408 O420 1.381 . S
C408 O421 1.421 . S
O409 Fe400 2.077 . S
O409 C422 1.381 . S
O410 Fe403 1.935 . S
O410 C422 1.421 . S
O411 Fe407 2.077 . S
O411 C427 1.381 . S
O412 Fe402 1.935 . S
O412 C427 1.421 . S
O413 Fe402 2.077 . S
O413 C417 1.381 . S
O414 Fe400 1.935 . S
O414 C417 1.421 . S
O415 Fe403 2.077 . S
O415 C423 1.381 . S
O416 Fe407 1.935 . S
O416 C423 1.421 . S
C417 O413 1.381 . S
C417 O414 1.421 . S
O418 Fe407 2.077 . S
O418 C430 1.381 . S
O419 Fe402 1.935 . S
O419 C430 1.421 . S
O420 Fe400 2.077 . S
O420 C408 1.381 . S
O421 Fe403 1.935 . S
O421 C408 1.421 . S
C422 O409 1.381 . S
C422 O410 1.421 . S
C423 O415 1.381 . S
C423 O416 1.421 . S
C424 O425 1.381 . S
C424 O426 1.421 . S
O425 Fe403 2.077 . S
O425 C424 1.381 . S
O426 Fe407 1.935 . S
O426 C424 1.421 . S
C427 O411 1.381 . S
C427 O412 1.421 . S
O428 Fe402 2.077 . S
O428 C431 1.381 . S
O429 Fe400 1.935 . S
O429 C431 1.421 . S
C430 O418 1.381 . S
C430 O419 1.421 . S
C431 O428 1.381 . S
C431 O429 1.421 . S
Fe432 O433 1.886 . S
Fe432 O436 1.715 . S
Fe432 O441 2.077 . S
Fe432 O446 1.935 . S
Fe432 O452 2.077 . S
Fe432 O461 1.935 . S
O433 Fe432 1.886 . S
O433 Fe435 1.715 . S
Fe434 O436 1.886 . S
Fe434 O437 1.715 . S
Fe434 O444 1.935 . S
Fe434 O445 2.077 . S
Fe434 O451 1.935 . S
Fe434 O460 2.077 . S
Fe435 O433 1.715 . S
Fe435 O438 1.886 . S
Fe435 O442 1.935 . S
Fe435 O447 2.077 . S
Fe435 O453 1.935 . S
Fe435 O457 2.077 . S
O436 Fe432 1.715 . S
O436 Fe434 1.886 . S
O437 Fe434 1.715 . S
O437 Fe439 1.886 . S
O438 Fe435 1.886 . S
O438 Fe439 1.715 . S
Fe439 O437 1.886 . S
Fe439 O438 1.715 . S
Fe439 O443 2.077 . S
Fe439 O448 1.935 . S
Fe439 O450 2.077 . S
Fe439 O458 1.935 . S
C440 O452 1.381 . S
C440 O453 1.421 . S
O441 Fe432 2.077 . S
O441 C454 1.381 . S
O442 Fe435 1.935 . S
O442 C454 1.421 . S
O443 Fe439 2.077 . S
O443 C459 1.381 . S
O444 Fe434 1.935 . S
O444 C459 1.421 . S
O445 Fe434 2.077 . S
O445 C449 1.381 . S
O446 Fe432 1.935 . S
O446 C449 1.421 . S
O447 Fe435 2.077 . S
O447 C455 1.381 . S
O448 Fe439 1.935 . S
O448 C455 1.421 . S
C449 O445 1.381 . S
C449 O446 1.421 . S
O450 Fe439 2.077 . S
O450 C462 1.381 . S
O451 Fe434 1.935 . S
O451 C462 1.421 . S
O452 Fe432 2.077 . S
O452 C440 1.381 . S
O453 Fe435 1.935 . S
O453 C440 1.421 . S
C454 O441 1.381 . S
C454 O442 1.421 . S
C455 O447 1.381 . S
C455 O448 1.421 . S
C456 O457 1.381 . S
C456 O458 1.421 . S
O457 Fe435 2.077 . S
O457 C456 1.381 . S
O458 Fe439 1.935 . S
O458 C456 1.421 . S
C459 O443 1.381 . S
C459 O444 1.421 . S
O460 Fe434 2.077 . S
O460 C463 1.381 . S
O461 Fe432 1.935 . S
O461 C463 1.421 . S
C462 O450 1.381 . S
C462 O451 1.421 . S
C463 O460 1.381 . S
C463 O461 1.421 . S
Fe464 O465 1.886 . S
Fe464 O468 1.715 . S
Fe464 O473 2.077 1_455 S
Fe464 O478 1.935 1_455 S
Fe464 O484 2.077 . S
Fe464 O493 1.935 . S
O465 Fe464 1.886 . S
O465 Fe467 1.715 . S
Fe466 O468 1.886 . S
Fe466 O469 1.715 . S
Fe466 O476 1.935 1_455 S
Fe466 O477 2.077 1_455 S
Fe466 O483 1.935 . S
Fe466 O492 2.077 . S
Fe467 O465 1.715 . S
Fe467 O470 1.886 . S
Fe467 O474 1.935 1_455 S
Fe467 O479 2.077 1_455 S
Fe467 O485 1.935 . S
Fe467 O489 2.077 . S
O468 Fe464 1.715 . S
O468 Fe466 1.886 . S
O469 Fe466 1.715 . S
O469 Fe471 1.886 . S
O470 Fe467 1.886 . S
O470 Fe471 1.715 . S
Fe471 O469 1.886 . S
Fe471 O470 1.715 . S
Fe471 O475 2.077 1_455 S
Fe471 O480 1.935 1_455 S
Fe471 O482 2.077 . S
Fe471 O490 1.935 . S
C472 O484 1.381 . S
C472 O485 1.421 . S
O473 Fe464 2.077 1_655 S
O473 C486 1.381 . S
O474 Fe467 1.935 1_655 S
O474 C486 1.421 . S
O475 Fe471 2.077 1_655 S
O475 C491 1.381 . S
O476 Fe466 1.935 1_655 S
O476 C491 1.421 . S
O477 Fe466 2.077 1_655 S
O477 C481 1.381 . S
O478 Fe464 1.935 1_655 S
O478 C481 1.421 . S
O479 Fe467 2.077 1_655 S
O479 C487 1.381 . S
O480 Fe471 1.935 1_655 S
O480 C487 1.421 . S
C481 O477 1.381 . S
C481 O478 1.421 . S
O482 Fe471 2.077 . S
O482 C494 1.381 . S
O483 Fe466 1.935 . S
O483 C494 1.421 . S
O484 Fe464 2.077 . S
O484 C472 1.381 . S
O485 Fe467 1.935 . S
O485 C472 1.421 . S
C486 O473 1.381 . S
C486 O474 1.421 . S
C487 O479 1.381 . S
C487 O480 1.421 . S
C488 O489 1.381 . S
C488 O490 1.421 . S
O489 Fe467 2.077 . S
O489 C488 1.381 . S
O490 Fe471 1.935 . S
O490 C488 1.421 . S
C491 O475 1.381 . S
C491 O476 1.421 . S
O492 Fe466 2.077 . S
O492 C495 1.381 . S
O493 Fe464 1.935 . S
O493 C495 1.421 . S
C494 O482 1.381 . S
C494 O483 1.421 . S
C495 O492 1.381 . S
C495 O493 1.421 . S
C417 C1 1.737 . S
C68 C449 1.719 . S
C93 C472 1.791 . S
C376 C139 1.793 . S
C459 C8 1.394 . S
C488 C61 1.389 . S
C392 C100 1.405 . S
C427 C146 1.395 . S
C15 C455 1.408 . S
C192 C430 1.375 . S
C107 C398 1.397 . S
C487 C238 1.390 . S
C431 C22 1.740 . S
C185 C399 1.719 . S
C114 C486 1.794 . S
C454 C231 1.768 . S
C277 C481 1.740 . S
C206 C385 1.719 . S
C330 C408 1.794 . S
C252 C440 1.768 . S
C395 C284 1.397 . S
C199 C424 1.389 . S
C323 C456 1.408 . S
C491 C245 1.375 . S
C291 C391 1.405 . S
C54 C494 1.375 . S
C344 C462 1.394 . S
C423 C153 1.407 . S
C495 C298 1.737 . S
C463 C47 1.719 . S
C422 C337 1.791 . S
C390 C160 1.793 . S
