# Generated by pormake.
# Topology zzz, (3,6)-cn, num edge types: 1
# Building blocks:
#     Node 0, Type 0, BuildingBlock: BETDIP_clean_linker_0, # of connection points: 3
#     Node 1, Type 0, BuildingBlock: BETDIP_clean_linker_0, # of connection points: 3
#     Node 2, Type 0, BuildingBlock: BETDIP_clean_linker_0, # of connection points: 3
#     Node 3, Type 0, BuildingBlock: BETDIP_clean_linker_0, # of connection points: 3
#     Node 4, Type 0, BuildingBlock: BETDIP_clean_linker_0, # of connection points: 3
#     Node 5, Type 0, BuildingBlock: BETDIP_clean_linker_0, # of connection points: 3
#     Node 6, Type 0, BuildingBlock: BETDIP_clean_linker_0, # of connection points: 3
#     Node 7, Type 0, BuildingBlock: BETDIP_clean_linker_0, # of connection points: 3
#     Node 8, Type 1, BuildingBlock: KUMBUR_clean_sbu_1, # of connection points: 6
#     Node 9, Type 1, BuildingBlock: KUMBUR_clean_sbu_1, # of connection points: 6
#     Node 10, Type 1, BuildingBlock: KUMBUR_clean_sbu_1, # of connection points: 6
#     Node 11, Type 1, BuildingBlock: KUMBUR_clean_sbu_1, # of connection points: 6
#     Edge 12, Type (0, 1), BuildingBlock: XIVTED_clean_linker_0, # of connection points: 2
#     Edge 13, Type (0, 1), BuildingBlock: XIVTED_clean_linker_0, # of connection points: 2
#     Edge 14, Type (0, 1), BuildingBlock: XIVTED_clean_linker_0, # of connection points: 2
#     Edge 15, Type (0, 1), BuildingBlock: XIVTED_clean_linker_0, # of connection points: 2
#     Edge 16, Type (0, 1), BuildingBlock: XIVTED_clean_linker_0, # of connection points: 2
#     Edge 17, Type (0, 1), BuildingBlock: XIVTED_clean_linker_0, # of connection points: 2
#     Edge 18, Type (0, 1), BuildingBlock: XIVTED_clean_linker_0, # of connection points: 2
#     Edge 19, Type (0, 1), BuildingBlock: XIVTED_clean_linker_0, # of connection points: 2
#     Edge 20, Type (0, 1), BuildingBlock: XIVTED_clean_linker_0, # of connection points: 2
#     Edge 21, Type (0, 1), BuildingBlock: XIVTED_clean_linker_0, # of connection points: 2
#     Edge 22, Type (0, 1), BuildingBlock: XIVTED_clean_linker_0, # of connection points: 2
#     Edge 23, Type (0, 1), BuildingBlock: XIVTED_clean_linker_0, # of connection points: 2
#     Edge 24, Type (0, 1), BuildingBlock: XIVTED_clean_linker_0, # of connection points: 2
#     Edge 25, Type (0, 1), BuildingBlock: XIVTED_clean_linker_0, # of connection points: 2
#     Edge 26, Type (0, 1), BuildingBlock: XIVTED_clean_linker_0, # of connection points: 2
#     Edge 27, Type (0, 1), BuildingBlock: XIVTED_clean_linker_0, # of connection points: 2
#     Edge 28, Type (0, 1), BuildingBlock: XIVTED_clean_linker_0, # of connection points: 2
#     Edge 29, Type (0, 1), BuildingBlock: XIVTED_clean_linker_0, # of connection points: 2
#     Edge 30, Type (0, 1), BuildingBlock: XIVTED_clean_linker_0, # of connection points: 2
#     Edge 31, Type (0, 1), BuildingBlock: XIVTED_clean_linker_0, # of connection points: 2
#     Edge 32, Type (0, 1), BuildingBlock: XIVTED_clean_linker_0, # of connection points: 2
#     Edge 33, Type (0, 1), BuildingBlock: XIVTED_clean_linker_0, # of connection points: 2
#     Edge 34, Type (0, 1), BuildingBlock: XIVTED_clean_linker_0, # of connection points: 2
#     Edge 35, Type (0, 1), BuildingBlock: XIVTED_clean_linker_0, # of connection points: 2
# Relax obj value: 0.181
# Max RMSD: 0.104
# Mean RMSD: 0.080
data_MOF--net-zzz--node1-KUMBUR_clean_sbu_1--node2-BETDIP_clean_linker_0--edge1-XIVTED_clean_linker_0
_symmetry_space_group_name_H-M    P1
_symmetry_Int_Tables_number       1
_symmetry_cell_setting            triclinic
loop_
_symmetry_equiv_pos_as_xyz
'x, y, z'
_cell_length_a     50.263064
_cell_length_b     50.379501
_cell_length_c     15.633554
_cell_angle_alpha  90.020711
_cell_angle_beta   89.958692
_cell_angle_gamma 90.413874
loop_
_atom_site_label
_atom_site_type_symbol
_atom_site_fract_x
_atom_site_fract_y
_atom_site_fract_z
_atom_type_partial_charge
H0 H 0.77063 0.54083 0.38843 0.0
H1 H 0.75446 0.56462 0.12928 0.0
H2 H 0.83529 0.55823 0.21566 0.0
H3 H 0.7171 0.58783 0.23747 0.0
C4 C 0.7121 0.56684 0.23338 0.0
C5 C 0.77769 0.54724 0.32628 0.0
C6 C 0.80556 0.55052 0.31155 0.0
C7 C 0.75902 0.55279 0.25995 0.0
C8 C 0.76858 0.56081 0.18007 0.0
C9 C 0.79584 0.56189 0.16234 0.0
C10 C 0.81412 0.55751 0.22889 0.0
N11 N 0.73087 0.54853 0.26914 0.0
H12 H 0.01724 0.77334 0.38253 0.0
H13 H 0.98572 0.7564 0.13184 0.0
H14 H 0.9831 0.8358 0.2304 0.0
H15 H 0.97074 0.71558 0.24733 0.0
C16 C 0.9918 0.71313 0.23381 0.0
C17 C 1.00735 0.77992 0.32491 0.0
C18 C 0.99939 0.80699 0.31697 0.0
C19 C 1.00156 0.76127 0.25839 0.0
C20 C 0.98918 0.77024 0.18383 0.0
C21 C 0.98315 0.79702 0.17233 0.0
C22 C 0.98748 0.81496 0.23982 0.0
N23 N 1.00948 0.73394 0.26176 0.0
H24 H 0.77989 0.02934 0.35238 0.0
H25 H 0.78946 0.96358 0.17804 0.0
H26 H 0.71691 0.97221 0.31997 0.0
H27 H 0.83463 0.96817 0.2444 0.0
C28 C 0.83575 0.98836 0.22004 0.0
C29 C 0.77253 1.01102 0.32461 0.0
C30 C 0.74668 1.00159 0.34595 0.0
C31 C 0.78873 0.99662 0.26634 0.0
C32 C 0.77813 0.97368 0.22705 0.0
C33 C 0.75224 0.9648 0.24561 0.0
C34 C 0.73726 0.97837 0.30719 0.0
N35 N 0.81463 1.00614 0.24173 0.0
H36 H 0.54742 0.78456 0.38716 0.0
H37 H 0.54982 0.79501 0.1135 0.0
H38 H 0.54126 0.71686 0.2188 0.0
H39 H 0.58816 0.82648 0.18653 0.0
C40 C 0.56955 0.83615 0.20272 0.0
C41 C 0.54714 0.77623 0.32333 0.0
C42 C 0.54468 0.74819 0.31201 0.0
C43 C 0.54951 0.79331 0.25083 0.0
C44 C 0.54872 0.78215 0.16899 0.0
C45 C 0.54556 0.75487 0.15712 0.0
C46 C 0.54396 0.73803 0.2284 0.0
N47 N 0.55167 0.82168 0.25755 0.0
H48 H 0.28346 0.51096 0.98514 0.0
H49 H 0.29438 0.49064 0.25057 0.0
H50 H 0.21639 0.4869 0.13938 0.0
H51 H 0.31719 0.54174 0.20188 0.0
C52 C 0.3306 0.52636 0.17955 0.0
C53 C 0.27536 0.50405 0.04539 0.0
C54 C 0.24758 0.49822 0.05253 0.0
C55 C 0.2924 0.50135 0.11802 0.0
C56 C 0.28146 0.49271 0.19552 0.0
C57 C 0.25423 0.48764 0.20406 0.0
C58 C 0.23765 0.49001 0.13227 0.0
N59 N 0.32019 0.50821 0.11691 0.0
H60 H 0.04219 0.28474 0.99075 0.0
H61 H 0.07068 0.29675 0.24776 0.0
H62 H 0.06617 0.21795 0.14343 0.0
H63 H 0.01639 0.31874 0.20545 0.0
C64 C 0.03189 0.33213 0.18245 0.0
C65 C 0.05067 0.27683 0.04896 0.0
C66 C 0.05464 0.24891 0.05729 0.0
C67 C 0.05619 0.29415 0.11927 0.0
C68 C 0.06643 0.28348 0.19483 0.0
C69 C 0.06994 0.25614 0.20469 0.0
C70 C 0.06441 0.23923 0.13533 0.0
N71 N 0.04978 0.32188 0.1191 0.0
H72 H 0.26819 0.0367 1.01037 0.0
H73 H 0.26637 0.07719 0.254 0.0
H74 H 0.33637 0.08106 0.09727 0.0
H75 H 0.24638 0.02763 0.26922 0.0
C76 C 0.23035 0.03603 0.23144 0.0
C77 C 0.27746 0.04975 0.0568 0.0
C78 C 0.30404 0.05874 0.04389 0.0
C79 C 0.26348 0.05674 0.13279 0.0
C80 C 0.27642 0.07251 0.19457 0.0
C81 C 0.30247 0.08167 0.18151 0.0
C82 C 0.31571 0.07516 0.10554 0.0
N83 N 0.23705 0.04718 0.14986 0.0
H84 H 0.51757 0.27615 0.02316 0.0
H85 H 0.47934 0.26176 0.26497 0.0
H86 H 0.4774 0.33969 0.15277 0.0
H87 H 0.5362 0.24923 0.25923 0.0
C88 C 0.5253 0.23304 0.22885 0.0
C89 C 0.50561 0.28318 0.07603 0.0
C90 C 0.49644 0.30991 0.07684 0.0
C91 C 0.49964 0.26586 0.14567 0.0
C92 C 0.48426 0.27532 0.21351 0.0
C93 C 0.47684 0.302 0.21888 0.0
C94 C 0.48243 0.31885 0.14914 0.0
N95 N 0.51046 0.23968 0.1535 0.0
Tb96 Tb 1.00021 0.04179 0.61389 0.0
C97 C 0.0901 0.0616 0.84202 0.0
N98 N 0.08825 0.04351 0.77766 0.0
C99 C 0.12981 0.05943 0.72042 0.0
C100 C 0.11104 0.08036 0.84518 0.0
C101 C 0.10881 0.04105 0.72092 0.0
C102 C 0.13064 0.07955 0.78174 0.0
C103 C 0.07311 0.07809 0.97709 0.0
C104 C 0.07164 0.06041 0.9074 0.0
C105 C 0.09326 0.09754 0.97883 0.0
C106 C 0.11219 0.09869 0.91295 0.0
Tb107 Tb 0.05185 1.01553 0.78302 0.0
N108 N 0.05195 0.04192 0.90192 0.0
C109 C 0.05433 0.07555 0.04286 0.0
C110 C 0.03422 0.0386 0.96743 0.0
C111 C 0.03498 0.05553 0.03842 0.0
H112 H 0.10971 0.0245 0.67749 0.0
H113 H 0.0206 0.05319 0.08945 0.0
H114 H 0.94484 1.01086 0.6669 0.0
H115 H 0.04156 0.0615 0.3 0.0
H116 H 0.01923 0.02318 0.96414 0.0
H117 H 0.05478 0.08873 0.09764 0.0
H118 H 0.03268 0.07096 0.45225 0.0
H119 H 0.14565 0.05769 0.67384 0.0
H120 H 0.0946 0.11152 0.03137 0.0
H121 H 0.12797 0.11342 0.916 0.0
H122 H 0.91344 0.97861 0.60129 0.0
H123 H 0.14708 0.09358 0.78181 0.0
H124 H 0.01883 0.02379 0.22867 0.0
N125 N 0.97056 1.01183 0.5589 0.0
C126 C 0.97413 1.00463 0.4762 0.0
C127 C 0.9306 0.98556 0.5657 0.0
C128 C 0.95691 0.98631 0.43605 0.0
C129 C 0.94839 1.00373 0.60272 0.0
C130 C 0.93519 0.97637 0.48255 0.0
N131 N 1.0078 0.037 0.46993 0.0
C132 C 0.0237 0.05366 0.42302 0.0
C133 C 0.9973 1.01194 0.3426 0.0
C134 C 0.99385 0.01739 0.43036 0.0
C135 C 1.01552 0.02736 0.29618 0.0
C136 C 0.02838 0.04866 0.33624 0.0
H137 H 0.92139 0.96233 0.45396 0.0
H138 H 0.94846 0.96523 0.31809 0.0
H139 H 0.98401 0.98761 0.23617 0.0
O140 O 0.97854 0.06886 0.53919 0.0
O141 O 1.00093 0.99799 0.63485 0.0
O142 O 0.04366 0.98795 0.67583 0.0
O143 O 0.97184 0.06569 0.6744 0.0
O144 O 0.04296 0.04944 0.58676 0.0
O145 O 0.06422 1.01401 0.64784 0.0
O146 O 0.04891 0.98633 0.87774 0.0
O147 O 0.03056 0.05369 0.79722 0.0
O148 O 0.03005 0.07018 0.66321 0.0
O149 O 0.08649 0.99468 0.81808 0.0
O150 O 1.01055 1.00287 0.80942 0.0
O151 O 0.98514 0.03533 0.74473 0.0
C152 C 0.02091 0.98117 0.63957 0.0
C153 C 0.96861 0.10785 0.61554 0.0
C154 C 0.99489 0.14871 0.60895 0.0
C155 C 0.97247 0.16284 0.63776 0.0
C156 C 0.9466 0.12216 0.64435 0.0
C157 C 0.94862 0.14956 0.65597 0.0
C158 C 0.99275 0.12102 0.60003 0.0
C159 C 0.06231 0.03191 0.58678 0.0
C160 C 0.96672 0.07902 0.60548 0.0
C161 C 0.96124 0.97954 0.34998 0.0
C162 C 0.9815 0.99228 0.30335 0.0
C163 C 0.03266 0.07415 0.74566 0.0
C164 C 0.07521 0.94978 0.8407 0.0
C165 C 0.05324 0.90761 0.80692 0.0
C166 C 0.07828 0.89514 0.80959 0.0
C167 C 0.09983 0.93702 0.84378 0.0
C168 C 0.05242 0.93529 0.8168 0.0
C169 C 0.10139 0.9099 0.82615 0.0
C170 C 0.98844 0.01676 0.80316 0.0
C171 C 0.07294 0.97799 0.86422 0.0
H172 H 0.97289 0.18423 0.6436 0.0
H173 H 0.92793 0.11214 0.65796 0.0
H174 H 0.93152 0.16062 0.67767 0.0
H175 H 1.00975 0.10952 0.58014 0.0
H176 H 0.08008 0.87385 0.80354 0.0
H177 H 0.11773 0.94795 0.86053 0.0
H178 H 0.03364 0.94546 0.81015 0.0
H179 H 0.12043 0.90004 0.82916 0.0
Tb180 Tb 0.53798 0.05181 0.80869 0.0
C181 C 0.52444 0.94593 0.666 0.0
N182 N 0.53856 0.96646 0.63182 0.0
C183 C 0.57595 0.93801 0.60951 0.0
C184 C 0.53609 0.92084 0.67728 0.0
C185 C 0.56362 0.96266 0.60047 0.0
C186 C 0.56224 0.91709 0.64893 0.0
C187 C 0.48322 0.92973 0.7279 0.0
C188 C 0.49838 0.95047 0.69125 0.0
C189 C 0.49499 0.90488 0.7419 0.0
C190 C 0.52134 0.90043 0.71647 0.0
Tb191 Tb 0.51639 1.00548 0.61786 0.0
N192 N 0.48765 0.97482 0.67673 0.0
C193 C 0.45647 0.93434 0.74703 0.0
C194 C 0.4609 0.97839 0.68744 0.0
C195 C 0.44515 0.9586 0.72505 0.0
H196 H 0.57417 0.97872 0.56935 0.0
H197 H 0.42412 0.96186 0.73522 0.0
H198 H 0.49 0.05024 0.95475 0.0
H199 H 0.60223 0.13263 0.7146 0.0
H200 H 0.45122 0.99601 0.66453 0.0
H201 H 0.44414 0.91893 0.77525 0.0
H202 H 0.58882 0.08553 0.73193 0.0
H203 H 0.59599 0.93516 0.58612 0.0
H204 H 0.48371 0.8888 0.77072 0.0
H205 H 0.53002 0.88106 0.72662 0.0
H206 H 0.4595 0.082 0.02341 0.0
H207 H 0.57191 0.89808 0.65638 0.0
H208 H 0.57267 0.16832 0.76668 0.0
N209 N 0.51015 0.07975 0.88133 0.0
C210 C 0.5141 0.1061 0.8692 0.0
C211 C 0.47454 0.08906 0.97917 0.0
C212 C 0.49793 0.12512 0.90954 0.0
C213 C 0.49156 0.07107 0.93895 0.0
C214 C 0.47745 0.11622 0.9633 0.0
N215 N 0.55168 0.09469 0.78964 0.0
C216 C 0.57578 0.10103 0.7542 0.0
C217 C 0.54277 0.14097 0.81481 0.0
C218 C 0.53598 0.11389 0.82248 0.0
C219 C 0.56667 0.14774 0.77388 0.0
C220 C 0.58343 0.12764 0.7445 0.0
H221 H 0.46454 0.13016 0.99555 0.0
H222 H 0.49123 0.16722 0.92778 0.0
H223 H 0.53066 0.18113 0.84482 0.0
O224 O 0.57361 0.03522 0.85095 0.0
O225 O 0.53471 0.0725 0.68407 0.0
O226 O 0.50673 0.04776 0.59582 0.0
O227 O 0.54991 0.05904 0.93594 0.0
O228 O 0.57071 0.03725 0.72578 0.0
O229 O 0.55408 0.02585 0.59201 0.0
O230 O 0.49172 0.98714 0.52664 0.0
O231 O 0.54092 0.99287 0.72952 0.0
O232 O 0.52011 1.0133 0.83735 0.0
O233 O 0.52942 1.00361 0.49 0.0
O234 O 0.48386 0.03024 0.67008 0.0
O235 O 0.49762 0.03407 0.80918 0.0
C236 C 0.51973 0.06995 0.6149 0.0
C237 C 0.57183 0.02133 0.99442 0.0
C238 C 0.59482 0.98151 0.04512 0.0
C239 C 0.57933 0.98242 0.12028 0.0
C240 C 0.55677 0.02178 0.06994 0.0
C241 C 0.56036 1.00221 0.13184 0.0
C242 C 0.59009 1.0007 0.98149 0.0
C243 C 0.57387 0.03222 0.6433 0.0
C244 C 0.56969 0.04258 0.92969 0.0
C245 C 0.50354 0.15226 0.89798 0.0
C246 C 0.526 0.16018 0.85082 0.0
C247 C 0.53178 0.99212 0.80833 0.0
C248 C 0.49443 1.00794 0.39302 0.0
C249 C 0.46305 0.04133 0.34412 0.0
C250 C 0.4717 0.03699 0.25952 0.0
C251 C 0.50255 1.00359 0.30861 0.0
C252 C 0.47473 0.02674 0.41049 0.0
C253 C 0.49131 0.01821 0.24211 0.0
C254 C 0.47877 0.03563 0.75104 0.0
C255 C 0.50712 0.99354 0.46318 0.0
H256 H 0.5825 0.96869 0.17235 0.0
H257 H 0.54248 0.03735 0.08175 0.0
H258 H 0.54908 1.00296 0.19057 0.0
H259 H 0.60098 1.00009 0.92186 0.0
H260 H 0.46278 0.04747 0.20645 0.0
H261 H 0.51758 0.98893 0.29448 0.0
H262 H 0.46875 0.03025 0.47612 0.0
H263 H 0.49758 1.01479 0.1768 0.0
Tb264 Tb 0.55405 0.51778 0.61991 0.0
C265 C 0.46906 0.49232 0.87656 0.0
N266 N 0.46691 0.50517 0.80041 0.0
C267 C 0.42867 0.47865 0.7641 0.0
C268 C 0.45146 0.47148 0.89832 0.0
C269 C 0.44674 0.49902 0.7448 0.0
C270 C 0.43113 0.4647 0.84091 0.0
C271 C 0.49181 0.48726 1.01213 0.0
C272 C 0.48922 0.50002 0.93223 0.0
C273 C 0.47489 0.46588 0.0329 0.0
C274 C 0.45474 0.45804 0.97621 0.0
Tb275 Tb 0.49707 0.5386 0.77756 0.0
N276 N 0.5052 0.5209 0.91032 0.0
C277 C 0.51061 0.49703 0.07026 0.0
C278 C 0.52129 0.53224 0.97098 0.0
C279 C 0.52496 0.51999 0.05031 0.0
H280 H 0.44472 0.50985 0.68555 0.0
H281 H 0.53837 0.52869 0.09687 0.0
H282 H 0.61108 0.51623 0.72819 0.0
H283 H 0.52555 0.57026 0.3322 0.0
H284 H 0.53087 0.55114 0.9601 0.0
H285 H 0.5132 0.48781 0.13228 0.0
H286 H 0.51943 0.53879 0.44991 0.0
H287 H 0.4129 0.47368 0.71967 0.0
H288 H 0.4768 0.45571 0.09362 0.0
H289 H 0.44161 0.44178 0.99366 0.0
H290 H 0.65455 0.53901 0.72401 0.0
H291 H 0.41721 0.44881 0.85537 0.0
H292 H 0.568 0.59492 0.31699 0.0
N293 N 0.59557 0.5368 0.62053 0.0
C294 C 0.60089 0.55411 0.55605 0.0
C295 C 0.63956 0.54362 0.67674 0.0
C296 C 0.62572 0.56719 0.55002 0.0
C297 C 0.61466 0.53108 0.67986 0.0
C298 C 0.64509 0.56184 0.61176 0.0
N299 N 0.55726 0.54648 0.5063 0.0
C300 C 0.5377 0.54984 0.44672 0.0
C301 C 0.58574 0.5769 0.42875 0.0
C302 C 0.58118 0.55892 0.49638 0.0
C303 C 0.56531 0.58125 0.36984 0.0
C304 C 0.54128 0.56749 0.37853 0.0
H305 H 0.66442 0.57148 0.6094 0.0
H306 H 0.64932 0.5954 0.47714 0.0
H307 H 0.6143 0.6039 0.37085 0.0
O308 O 0.54887 0.49016 0.52104 0.0
O309 O 0.55067 0.56112 0.64197 0.0
O310 O 0.50682 0.56831 0.67784 0.0
O311 O 0.58592 0.49251 0.58943 0.0
O312 O 0.51211 0.5106 0.57474 0.0
O313 O 0.48633 0.54176 0.64342 0.0
O314 O 0.48922 0.57123 0.85786 0.0
O315 O 0.50099 0.49636 0.73705 0.0
O316 O 0.54552 0.49028 0.7262 0.0
O317 O 0.45767 0.55159 0.79138 0.0
O318 O 0.53867 0.55035 0.81122 0.0
O319 O 0.56324 0.51602 0.75732 0.0
C320 C 0.52971 0.57663 0.64591 0.0
C321 C 0.569 0.44992 0.561 0.0
C322 C 0.54144 0.41076 0.59039 0.0
C323 C 0.56487 0.39584 0.60083 0.0
C324 C 0.59199 0.43468 0.57091 0.0
C325 C 0.58988 0.40786 0.59232 0.0
C326 C 0.54394 0.4381 0.57464 0.0
C327 C 0.49011 0.52492 0.5806 0.0
C328 C 0.57112 0.47827 0.53902 0.0
C329 C 0.63037 0.58515 0.48285 0.0
C330 C 0.61044 0.58999 0.42231 0.0
C331 C 0.5219 0.48114 0.74701 0.0
C332 C 0.45691 0.59802 0.78942 0.0
C333 C 0.46823 0.64341 0.74751 0.0
C334 C 0.44582 0.64401 0.69404 0.0
C335 C 0.43444 0.599 0.73587 0.0
C336 C 0.4734 0.62045 0.79553 0.0
C337 C 0.42901 0.62187 0.68851 0.0
C338 C 0.56023 0.53544 0.81267 0.0
C339 C 0.46473 0.57293 0.83145 0.0
H340 H 0.56411 0.37463 0.61144 0.0
H341 H 0.61151 0.44352 0.56225 0.0
H342 H 0.60769 0.39612 0.59956 0.0
H343 H 0.52624 0.45013 0.57068 0.0
H344 H 0.44133 0.66155 0.65686 0.0
H345 H 0.42137 0.58194 0.72928 0.0
H346 H 0.49035 0.6201 0.83832 0.0
H347 H 0.41179 0.62237 0.64702 0.0
Tb348 Tb 0.03928 0.55495 0.61378 0.0
C349 C 0.04954 0.45464 0.83469 0.0
N350 N 0.03372 0.45979 0.76631 0.0
C351 C 0.04393 0.41694 0.70769 0.0
C352 C 0.0641 0.43088 0.84047 0.0
C353 C 0.0296 0.44062 0.70565 0.0
C354 C 0.06163 0.41222 0.77465 0.0
C355 C 0.06519 0.46774 0.97533 0.0
C356 C 0.05002 0.47266 0.90135 0.0
C357 C 0.08057 0.44461 0.98005 0.0
C358 C 0.08003 0.42622 0.91272 0.0
Tb359 Tb 1.01206 0.49979 0.76948 0.0
N360 N 0.03509 0.49487 0.89412 0.0
C361 C 0.06398 0.48595 0.04288 0.0
C362 C 0.03269 0.51199 0.96145 0.0
C363 C 0.04739 0.508 0.0363 0.0
H364 H 1.01468 0.44299 0.65686 0.0
H365 H 0.0458 0.52184 0.08901 0.0
H366 H 1.00935 0.60754 0.69151 0.0
H367 H 0.04488 0.51796 0.28778 0.0
H368 H 0.01961 0.52881 0.95735 0.0
H369 H 0.07528 0.48286 0.10099 0.0
H370 H 0.06085 0.5244 0.43483 0.0
H371 H 0.04091 0.4021 0.65849 0.0
H372 H 0.09252 0.44052 0.03611 0.0
H373 H 0.09153 0.40818 0.91799 0.0
H374 H 0.97456 0.6391 0.64564 0.0
H375 H 0.07247 0.39372 0.7766 0.0
H376 H 1.00517 0.54193 0.23689 0.0
N377 N 1.00703 0.58454 0.57769 0.0
C378 C 0.99706 0.5826 0.49727 0.0
C379 C 0.98052 0.62313 0.60363 0.0
C380 C 0.97722 0.60003 0.4683 0.0
C381 C 1.00011 0.60525 0.62954 0.0
C382 C 0.9687 0.62025 0.52316 0.0
N383 N 0.02834 0.54893 0.47213 0.0
C384 C 0.04254 0.53377 0.41577 0.0
C385 C 0.99859 0.56163 0.35814 0.0
C386 C 1.00768 0.56371 0.44325 0.0
C387 C 1.01153 0.54414 0.30275 0.0
C388 C 0.03392 0.53054 0.3313 0.0
H389 H 0.95353 0.6341 0.50326 0.0
H390 H 0.95162 0.61011 0.3618 0.0
H391 H 0.97033 0.57643 0.26519 0.0
O392 O 0.06454 0.57624 0.53066 0.0
O393 O 0.99589 0.55201 0.6433 0.0
O394 O 0.98903 0.50766 0.65256 0.0
O395 O 0.06209 0.58645 0.66338 0.0
O396 O 0.04992 0.51346 0.57744 0.0
O397 O 1.0148 0.48948 0.63258 0.0
O398 O 0.97683 0.50723 0.83709 0.0
O399 O 0.05255 0.51608 0.79437 0.0
O400 O 0.069 0.52657 0.6615 0.0
O401 O 0.98888 0.46723 0.81076 0.0
O402 O 1.00388 0.54127 0.80906 0.0
O403 O 0.03827 0.5657 0.75018 0.0
C404 C 0.98047 0.53118 0.6303 0.0
C405 C 0.10378 0.58981 0.60014 0.0
C406 C 0.14517 0.56485 0.59567 0.0
C407 C 0.15906 0.58809 0.61976 0.0
C408 C 0.11783 0.61268 0.62425 0.0
C409 C 0.14539 0.61173 0.63455 0.0
C410 C 0.11737 0.56597 0.58792 0.0
C411 C 0.03419 0.4923 0.57644 0.0
C412 C 0.07478 0.59031 0.59224 0.0
C413 C 0.96711 0.59713 0.38504 0.0
C414 C 0.97773 0.57791 0.33011 0.0
C415 C 0.07276 0.51964 0.74179 0.0
C416 C 0.94399 0.47825 0.78395 0.0
C417 C 0.90138 0.49633 0.73798 0.0
C418 C 0.89867 0.47557 0.67863 0.0
C419 C 0.94105 0.45763 0.72382 0.0
C420 C 0.92386 0.49715 0.79127 0.0
C421 C 0.91842 0.45629 0.67191 0.0
C422 C 0.01948 0.56253 0.80804 0.0
C423 C 0.96917 0.48255 0.83101 0.0
H424 H 0.18053 0.5884 0.62457 0.0
H425 H 0.10749 0.63116 0.63539 0.0
H426 H 0.15627 0.62948 0.65268 0.0
H427 H 0.10611 0.54828 0.57202 0.0
H428 H 0.88141 0.47433 0.63733 0.0
H429 H 0.95641 0.44289 0.71545 0.0
H430 H 0.92586 0.5127 0.83885 0.0
H431 H 0.91637 0.44047 0.62551 0.0
H432 H 0.21248 0.99994 0.3451 0.0
H433 H 0.07967 0.07408 0.48466 0.0
H434 H 0.18617 0.06879 0.20661 0.0
H435 H 0.09547 0.99183 0.53952 0.0
H436 H 0.11822 0.07471 0.38677 0.0
H437 H 0.17019 0.99867 0.42166 0.0
C438 C 0.19758 1.01465 0.32994 0.0
C439 C 0.20287 0.03428 0.26847 0.0
C440 C 0.113 0.05647 0.41958 0.0
C441 C 0.15411 0.03347 0.35865 0.0
C442 C 0.09086 0.05604 0.4752 0.0
C443 C 0.08409 0.03283 0.52078 0.0
C444 C 0.12879 0.03366 0.4103 0.0
C445 C 0.09985 1.01027 0.50671 0.0
C446 C 0.17336 1.01395 0.37397 0.0
C447 C 0.18283 0.05304 0.25252 0.0
N448 N 0.12141 1.01135 0.45392 0.0
N449 N 0.15946 0.05238 0.29805 0.0
H450 H 0.54685 0.22393 0.38289 0.0
H451 H 0.50094 0.07216 0.44733 0.0
H452 H 0.49889 0.18437 0.19269 0.0
H453 H 0.53478 0.12186 0.64298 0.0
H454 H 0.50048 0.11056 0.34979 0.0
H455 H 0.54404 0.18482 0.47326 0.0
C456 C 0.53571 0.20689 0.35977 0.0
C457 C 0.52312 0.20769 0.27961 0.0
C458 C 0.50792 0.11306 0.41431 0.0
C459 C 0.51975 0.16191 0.38468 0.0
C460 C 0.50802 0.09107 0.4705 0.0
C461 C 0.51793 0.09339 0.55465 0.0
C462 C 0.51805 0.13774 0.4419 0.0
C463 C 0.52727 0.11861 0.57946 0.0
C464 C 0.53404 0.18443 0.41195 0.0
C465 C 0.50894 0.18478 0.25386 0.0
N466 N 0.52719 0.13947 0.5239 0.0
N467 N 0.5077 0.16281 0.30606 0.0
H468 H 0.36928 0.48564 0.18169 0.0
H469 H 0.45144 0.56146 0.55261 0.0
H470 H 0.35165 0.56273 0.28558 0.0
H471 H 0.47932 0.48684 0.45246 0.0
H472 H 0.4154 0.56078 0.45061 0.0
H473 H 0.40974 0.48423 0.27293 0.0
C474 C 0.374 0.50236 0.22261 0.0
C475 C 0.35689 0.52441 0.22556 0.0
C476 C 0.42926 0.54444 0.45001 0.0
C477 C 0.40299 0.52281 0.33085 0.0
C478 C 0.45009 0.54476 0.50909 0.0
C479 C 0.46875 0.52409 0.5125 0.0
C480 C 0.42631 0.52318 0.39237 0.0
C481 C 0.46556 0.50327 0.45265 0.0
C482 C 0.39706 0.5015 0.27504 0.0
C483 C 0.36405 0.54531 0.28069 0.0
N484 N 0.44471 0.50326 0.39554 0.0
N485 N 0.38618 0.54393 0.33054 0.0
H486 H 0.99241 0.35659 0.26625 0.0
H487 H 0.07783 0.47551 0.47857 0.0
H488 H 0.07482 0.36837 0.19996 0.0
H489 H 0.99375 0.46197 0.51293 0.0
H490 H 0.07855 0.43872 0.37319 0.0
H491 H 0.99373 0.3968 0.35204 0.0
C492 C 1.01083 0.36789 0.26887 0.0
C493 C 0.03342 0.35897 0.22489 0.0
C494 C 0.05996 0.44397 0.40355 0.0
C495 C 0.03541 0.40565 0.32654 0.0
C496 C 0.05951 0.46508 0.46358 0.0
C497 C 0.03573 0.47187 0.50598 0.0
C498 C 0.03643 0.42955 0.38543 0.0
C499 C 1.01268 0.45745 0.48347 0.0
C500 C 1.01162 0.39097 0.31852 0.0
C501 C 0.05677 0.37455 0.23181 0.0
N502 N 1.01369 0.43718 0.42591 0.0
N503 N 0.05724 0.39697 0.28224 0.0
H504 H 0.84441 0.0328 0.11654 0.0
H505 H 0.98376 0.9785 0.92984 0.0
H506 H 0.87989 0.95898 0.19351 0.0
H507 H 0.94278 0.04598 0.82446 0.0
H508 H 0.94762 0.97302 0.03419 0.0
H509 H 0.88195 0.04022 0.01744 0.0
C510 C 0.86018 0.01831 0.11334 0.0
C511 C 0.85895 0.99523 0.16365 0.0
C512 C 0.94652 0.98903 0.98817 0.0
C513 C 0.90203 1.00349 0.04995 0.0
C514 C 0.96723 0.99218 0.92836 0.0
C515 C 0.9665 1.01268 0.86739 0.0
C516 C 0.92479 1.00658 0.98792 0.0
C517 C 0.94437 0.02976 0.8695 0.0
C518 C 0.88158 0.02246 0.05639 0.0
C519 C 0.87996 0.97705 0.15604 0.0
N520 N 0.92457 0.02635 0.92841 0.0
N521 N 0.90048 0.98154 0.10067 0.0
H522 H 0.52424 0.86865 0.2074 0.0
H523 H 0.572 0.95531 0.79989 0.0
H524 H 0.59908 0.8585 0.07733 0.0
H525 H 0.50471 0.97744 0.95423 0.0
H526 H 0.58044 0.91821 0.8973 0.0
H527 H 0.51493 0.90705 0.11361 0.0
C528 C 0.53871 0.87446 0.15949 0.0
C529 C 0.56252 0.86022 0.15053 0.0
C530 C 0.56373 0.93107 0.90998 0.0
C531 C 0.55186 0.90396 0.04196 0.0
C532 C 0.55881 0.95222 0.85378 0.0
C533 C 0.53737 0.9694 0.86774 0.0
C534 C 0.54705 0.92673 0.98126 0.0
C535 C 0.52141 0.96467 0.94044 0.0
C536 C 0.53341 0.8964 0.10583 0.0
C537 C 0.58047 0.86878 0.08689 0.0
N538 N 0.52644 0.9438 0.99393 0.0
N539 N 0.57473 0.88976 0.03523 0.0
H540 H 0.69628 0.51769 0.16419 0.0
H541 H 0.57228 0.58076 0.90548 0.0
H542 H 0.67371 0.5999 0.17719 0.0
H543 H 0.59657 0.49947 0.87495 0.0
H544 H 0.60773 0.58709 1.01174 0.0
H545 H 0.65864 0.50942 0.0657 0.0
C546 C 0.68329 0.53391 0.14735 0.0
C547 C 0.68824 0.55955 0.1796 0.0
C548 C 0.60536 0.56781 0.98195 0.0
C549 C 0.64507 0.5503 0.06593 0.0
C550 C 0.58498 0.56419 0.92117 0.0
C551 C 0.58135 0.53959 0.88012 0.0
C552 C 0.62247 0.5467 1.00288 0.0
C553 C 0.59866 0.51891 0.90376 0.0
C554 C 0.66183 0.52924 0.09062 0.0
C555 C 0.67075 0.5798 0.1543 0.0
N556 N 0.61834 0.52291 0.96297 0.0
N557 N 0.65019 0.5748 0.09948 0.0
H558 H 0.03802 0.70385 0.13755 0.0
H559 H 0.98054 0.56739 0.93273 0.0
H560 H 0.96192 0.66937 0.20153 0.0
H561 H 0.05126 0.6066 0.83857 0.0
H562 H 0.97568 0.60265 0.03978 0.0
H563 H 0.04569 0.66672 0.0372 0.0
C564 C 0.02311 0.68834 0.13159 0.0
C565 C 0.99929 0.68979 0.17864 0.0
C566 C 0.99231 0.60358 0.99579 0.0
C567 C 1.00783 0.64717 0.06306 0.0
C568 C 0.99512 0.58332 0.93438 0.0
C569 C 0.01631 0.58378 0.87551 0.0
C570 C 1.01084 0.6247 0.99949 0.0
C571 C 0.03449 0.60521 0.88184 0.0
C572 C 0.02739 0.66719 0.07375 0.0
C573 C 0.98059 0.66915 0.16694 0.0
N574 N 0.03136 0.62464 0.94219 0.0
N575 N 0.98521 0.64891 0.1109 0.0
H576 H 0.0513 0.27395 0.35948 0.0
H577 H 0.03016 0.13389 0.48257 0.0
H578 H 0.09915 0.21193 0.2482 0.0
H579 H 0.01637 0.19617 0.66776 0.0
H580 H 0.06361 0.16113 0.4156 0.0
H581 H 0.0473 0.24811 0.48914 0.0
C582 C 0.06183 0.25532 0.36292 0.0
C583 C 0.07472 0.24467 0.29094 0.0
C584 C 0.05378 0.16869 0.47216 0.0
C585 C 0.0692 0.21446 0.43922 0.0
C586 C 0.03447 0.15298 0.51123 0.0
C587 C 0.01935 0.16297 0.57966 0.0
C588 C 0.05736 0.195 0.49912 0.0
C589 C 0.02633 0.18809 0.6123 0.0
C590 C 0.05941 0.24044 0.43754 0.0
C591 C 0.08792 0.22038 0.30053 0.0
N592 N 0.04421 0.20361 0.56999 0.0
N593 N 0.08407 0.20565 0.37223 0.0
H594 H 0.33557 0.1252 0.17894 0.0
H595 H 0.42279 0.03465 0.46104 0.0
H596 H 0.30695 0.06273 0.34397 0.0
H597 H 0.45191 0.08956 0.27004 0.0
H598 H 0.38144 0.05919 0.46797 0.0
H599 H 0.37643 0.1277 0.26302 0.0
C600 C 0.33737 0.11288 0.23542 0.0
C601 C 0.31851 0.09288 0.25234 0.0
C602 C 0.39709 0.06628 0.42594 0.0
C603 C 0.36523 0.0951 0.34693 0.0
C604 C 0.42085 0.05227 0.42197 0.0
C605 C 0.44054 0.05942 0.36224 0.0
C606 C 0.39273 0.08722 0.36858 0.0
C607 C 0.43678 0.0826 0.31412 0.0
C608 C 0.36079 0.11415 0.28303 0.0
C609 C 0.3214 0.0779 0.32723 0.0
N610 N 0.41305 0.09529 0.31673 0.0
N611 N 0.34484 0.07863 0.37016 0.0
H612 H 0.48915 0.28476 0.38179 0.0
H613 H 0.49836 0.42633 0.49282 0.0
H614 H 0.44382 0.34493 0.25037 0.0
H615 H 0.52292 0.36424 0.66604 0.0
H616 H 0.46409 0.39762 0.43837 0.0
H617 H 0.48645 0.31025 0.51115 0.0
C618 C 0.47782 0.30292 0.37981 0.0
C619 C 0.46785 0.3132 0.30249 0.0
C620 C 0.47648 0.39034 0.48981 0.0
C621 C 0.46613 0.34346 0.45205 0.0
C622 C 0.49629 0.40696 0.52195 0.0
C623 C 0.51507 0.39725 0.5808 0.0
C624 C 0.47611 0.36353 0.51381 0.0
C625 C 0.51029 0.37202 0.61609 0.0
C626 C 0.47644 0.3177 0.4548 0.0
C627 C 0.45331 0.33688 0.30667 0.0
N628 N 0.49196 0.35561 0.57964 0.0
N629 N 0.45372 0.35169 0.37933 0.0
H630 H 0.21311 0.45443 0.25283 0.0
H631 H 0.13039 0.52768 0.47522 0.0
H632 H 0.26824 0.51284 0.35251 0.0
H633 H 0.19315 0.54558 0.65603 0.0
H634 H 0.15767 0.49417 0.4124 0.0
H635 H 0.18609 0.45943 0.3821 0.0
C636 C 0.21979 0.46791 0.30248 0.0
C637 C 0.24234 0.48407 0.29018 0.0
C638 C 0.16529 0.5046 0.46784 0.0
C639 C 0.21144 0.4902 0.43657 0.0
C640 C 0.14955 0.5241 0.50431 0.0
C641 C 0.15961 0.54038 0.57005 0.0
C642 C 0.19169 0.50178 0.49509 0.0
C643 C 0.18493 0.53451 0.60283 0.0
C644 C 0.20438 0.47075 0.37611 0.0
C645 C 0.25073 0.50034 0.35814 0.0
N646 N 0.20048 0.51632 0.563 0.0
N647 N 0.23491 0.50348 0.42755 0.0
H648 H 0.94663 0.83486 0.1245 0.0
H649 H 1.00563 0.92101 0.88379 0.0
H650 H 1.00579 0.78211 0.02122 0.0
H651 H 0.04217 0.85746 0.74061 0.0
H652 H 0.97243 0.89097 0.93354 0.0
H653 H 0.9474 0.85974 0.99057 0.0
C654 C 0.9595 0.82832 0.07316 0.0
C655 C 0.97703 0.80713 0.08549 0.0
C656 C 0.98703 0.88337 0.88927 0.0
C657 C 0.97919 0.83625 0.93405 0.0
C658 C 1.00641 0.90091 0.85975 0.0
C659 C 0.02807 0.89167 0.81118 0.0
C660 C 0.98966 0.85614 0.87263 0.0
C661 C 0.027 0.86525 0.78259 0.0
C662 C 0.96014 0.84265 0.99675 0.0
C663 C 0.99238 0.79872 0.01562 0.0
N664 N 1.00875 0.84818 0.81636 0.0
N665 N 0.99366 0.81375 0.94388 0.0
H666 H 0.75332 0.96276 0.07099 0.0
H667 H 0.60261 0.93226 0.12209 0.0
H668 H 0.7179 0.92407 0.28956 0.0
H669 H 0.6412 0.9882 0.95137 0.0
H670 H 0.64533 0.91038 0.14179 0.0
H671 H 0.71512 0.9496 0.98539 0.0
C672 C 0.73813 0.95039 0.1003 0.0
C673 C 0.73806 0.94577 0.18879 0.0
C674 C 0.64404 0.92694 0.09787 0.0
C675 C 0.69377 0.9318 0.09202 0.0
C676 C 0.61969 0.9398 0.08743 0.0
C677 C 0.61809 0.96318 0.03826 0.0
C678 C 0.66689 0.93732 0.05808 0.0
C679 C 0.64084 0.97072 0.99127 0.0
C680 C 0.71608 0.9431 0.05136 0.0
C681 C 0.71802 0.92916 0.22228 0.0
N682 N 0.66425 0.95819 1.00376 0.0
N683 N 0.69603 0.92371 0.17479 0.0
H684 H 0.56904 0.71174 0.08266 0.0
H685 H 0.45245 0.69469 0.77041 0.0
H686 H 0.51278 0.77421 0.03381 0.0
H687 H 0.52263 0.64606 0.75631 0.0
H688 H 0.47848 0.72911 0.84154 0.0
H689 H 0.55697 0.6914 0.9459 0.0
C690 C 0.55442 0.72132 0.04244 0.0
C691 C 0.54151 0.74433 0.06994 0.0
C692 C 0.48845 0.71124 0.82079 0.0
C693 C 0.52752 0.7213 0.91415 0.0
C694 C 0.47357 0.69163 0.77953 0.0
C695 C 0.4852 0.66712 0.76078 0.0
C696 C 0.51483 0.7059 0.8447 0.0
C697 C 0.5127 0.66434 0.77318 0.0
C698 C 0.54772 0.70991 0.96405 0.0
C699 C 0.52309 0.75633 0.01502 0.0
N700 N 0.52645 0.68316 0.817 0.0
N701 N 0.51623 0.74437 0.94047 0.0
H702 H 0.77247 0.53939 0.02155 0.0
H703 H 0.9063 0.54998 0.76515 0.0
H704 H 0.83993 0.58777 0.09606 0.0
H705 H 0.84772 0.48732 0.74342 0.0
H706 H 0.8738 0.57696 0.84174 0.0
H707 H 0.79151 0.53461 0.8802 0.0
C708 C 0.79093 0.54974 1.00783 0.0
C709 C 0.80489 0.56361 0.07199 0.0
C710 C 0.86784 0.55765 0.81771 0.0
C711 C 0.8272 0.55727 0.90986 0.0
C712 C 0.88634 0.54222 0.77422 0.0
C713 C 0.88001 0.5159 0.75187 0.0
C714 C 0.84294 0.54663 0.83807 0.0
C715 C 0.85366 0.50723 0.76159 0.0
C716 C 0.80186 0.54682 0.92676 0.0
C717 C 0.82889 0.57621 0.04958 0.0
N718 N 0.83623 0.52232 0.80614 0.0
N719 N 0.8396 0.57225 0.97079 0.0
H720 H 0.07678 0.2374 0.89804 0.0
H721 H 1.01088 0.09157 0.89567 0.0
H722 H 1.01562 0.21146 0.07235 0.0
H723 H 0.05647 0.12 0.68074 0.0
H724 H 1.01359 0.13568 0.96018 0.0
H725 H 0.07002 0.19617 0.81431 0.0
C726 C 0.06135 0.22351 0.9172 0.0
C727 C 0.04646 0.22829 0.99195 0.0
C728 C 0.02292 0.13251 0.89863 0.0
C729 C 0.03941 0.18029 0.89839 0.0
C730 C 0.02147 0.10713 0.86176 0.0
C731 C 0.03346 0.10182 0.7824 0.0
C732 C 0.03678 0.15318 0.85694 0.0
C733 C 0.04679 0.12309 0.74177 0.0
C734 C 0.05773 0.19975 0.86997 0.0
C735 C 0.02735 0.20896 0.01481 0.0
N736 N 0.04828 0.14767 0.77962 0.0
N737 N 0.02464 0.18597 0.96928 0.0
H738 H 0.31582 0.0829 0.89093 0.0
H739 H 0.43499 0.05585 0.66626 0.0
H740 H 0.33678 1.01599 0.04699 0.0
H741 H 0.45732 0.01808 0.90246 0.0
H742 H 0.38894 0.05875 0.71905 0.0
H743 H 0.35657 0.07654 0.80693 0.0
C744 C 0.32834 0.06602 0.90474 0.0
C745 C 0.32225 0.04937 0.97434 0.0
C746 C 0.40393 0.05011 0.75989 0.0
C747 C 0.37002 0.04259 0.88071 0.0
C748 C 0.43027 0.04833 0.72942 0.0
C749 C 0.45037 0.03733 0.78068 0.0
C750 C 0.39741 0.04047 0.84208 0.0
C751 C 0.44283 0.02747 0.86147 0.0
C752 C 0.35189 0.06254 0.85727 0.0
C753 C 0.34012 0.02873 0.9922 0.0
N754 N 0.41716 0.02922 0.88929 0.0
N755 N 0.36323 0.02623 0.94693 0.0
H756 H 0.54492 0.33068 0.02346 0.0
H757 H 0.47831 0.4475 0.74294 0.0
H758 H 0.46075 0.3371 0.97866 0.0
H759 H 0.55937 0.45085 0.83096 0.0
H760 H 0.473 0.40401 0.81173 0.0
H761 H 0.55221 0.37073 0.93519 0.0
C762 C 0.52805 0.33999 0.99296 0.0
C763 C 0.5022 0.33009 1.00767 0.0
C764 C 0.49199 0.41418 0.81623 0.0
C765 C 0.51031 0.37659 0.9077 0.0
C766 C 0.49495 0.43925 0.77746 0.0
C767 C 0.51902 0.4535 0.78328 0.0
C768 C 0.51343 0.40271 0.86056 0.0
C769 C 0.54027 0.44093 0.82557 0.0
C770 C 0.53217 0.36312 0.9434 0.0
C771 C 0.48105 0.34367 0.96833 0.0
N772 N 0.53695 0.4165 0.8628 0.0
N773 N 0.48554 0.36604 0.92079 0.0
H774 H 0.21777 0.45937 0.97646 0.0
H775 H 0.10978 0.55906 0.77349 0.0
H776 H 0.22894 0.54411 0.97542 0.0
H777 H 0.09958 0.47437 0.78696 0.0
H778 H 0.15489 0.55441 0.83362 0.0
H779 H 0.17691 0.46464 0.89306 0.0
C780 C 0.21209 0.4791 0.95619 0.0
C781 C 0.22738 0.50125 0.98174 0.0
C782 C 0.14283 0.53679 0.82348 0.0
C783 C 0.17936 0.50767 0.88799 0.0
C784 C 0.11707 0.53945 0.78867 0.0
C785 C 0.10065 0.51707 0.77548 0.0
C786 C 0.15245 0.5115 0.84585 0.0
C787 C 0.11117 0.49221 0.79731 0.0
C788 C 0.18844 0.48215 0.90935 0.0
C789 C 0.21831 0.52639 0.9556 0.0
N790 N 0.13615 0.49012 0.83133 0.0
N791 N 0.19492 0.52892 0.91104 0.0
H792 H 0.0462 0.82502 0.39426 0.0
H793 H 0.97491 0.95361 0.59959 0.0
H794 H 0.96183 0.83898 0.38904 0.0
H795 H 0.05997 0.9446 0.59714 0.0
H796 H 0.97012 0.91004 0.5324 0.0
H797 H 0.05205 0.86595 0.47991 0.0
C798 C 0.02883 0.83622 0.41296 0.0
C799 C 1.00342 0.82818 0.38465 0.0
C800 C 0.98991 0.91748 0.54625 0.0
C801 C 1.01002 0.87572 0.48138 0.0
C802 C 0.99265 0.9427 0.58404 0.0
C803 C 0.01786 0.95354 0.60236 0.0
C804 C 1.01257 0.90235 0.52641 0.0
C805 C 0.04005 0.93746 0.58365 0.0
C806 C 0.03221 0.85984 0.46109 0.0
C807 C 0.98179 0.84412 0.40951 0.0
N808 N 0.03691 0.91293 0.54652 0.0
N809 N 0.98558 0.86691 0.45549 0.0
H810 H 0.70873 0.03602 0.29304 0.0
H811 H 0.62221 0.02657 0.72583 0.0
H812 H 0.73763 0.99695 0.51887 0.0
H813 H 0.58866 0.03842 0.47508 0.0
H814 H 0.66677 0.0244 0.66066 0.0
H815 H 0.66756 0.04696 0.36936 0.0
C816 C 0.7069 0.03079 0.36002 0.0
C817 C 0.72708 1.0162 0.40021 0.0
C818 C 0.64965 0.02768 0.62009 0.0
C819 C 0.67926 0.02774 0.48763 0.0
C820 C 0.62416 0.02902 0.65728 0.0
C821 C 0.60143 0.0326 0.60608 0.0
C822 C 0.65266 0.03045 0.53099 0.0
C823 C 0.60542 0.03547 0.51739 0.0
C824 C 0.68315 0.03659 0.40317 0.0
C825 C 0.723 1.00889 0.48614 0.0
N826 N 0.63037 0.0344 0.48301 0.0
N827 N 0.69959 1.01459 0.52677 0.0
H828 H 0.58459 0.72475 0.40474 0.0
H829 H 0.48891 0.60951 0.59519 0.0
H830 H 0.49957 0.724 0.37398 0.0
H831 H 0.5745 0.6068 0.60759 0.0
H832 H 0.49211 0.65339 0.52773 0.0
H833 H 0.58106 0.68439 0.49302 0.0
C834 C 0.56508 0.71664 0.41909 0.0
C835 C 0.54228 0.72837 0.38375 0.0
C836 C 0.51024 0.64327 0.54521 0.0
C837 C 0.53806 0.6812 0.48259 0.0
C838 C 0.50842 0.61813 0.5843 0.0
C839 C 0.53145 0.60408 0.60734 0.0
C840 C 0.53533 0.65482 0.52848 0.0
C841 C 0.55613 0.61652 0.5905 0.0
C842 C 0.56307 0.6933 0.46857 0.0
C843 C 0.51761 0.71615 0.40169 0.0
N844 N 0.55739 0.64095 0.55224 0.0
N845 N 0.51617 0.69337 0.44925 0.0
H846 H 0.82958 0.5037 0.35823 0.0
H847 H 0.94763 0.57507 0.62652 0.0
H848 H 0.83216 0.58762 0.4084 0.0
H849 H 0.9502 0.4934 0.54632 0.0
H850 H 0.90371 0.57927 0.55919 0.0
H851 H 0.87096 0.49848 0.4409 0.0
C852 C 0.83838 0.52092 0.38892 0.0
C853 C 0.8268 0.54605 0.3781 0.0
C854 C 0.91383 0.5604 0.55607 0.0
C855 C 0.87513 0.54041 0.47084 0.0
C856 C 0.93915 0.55806 0.59403 0.0
C857 C 0.95315 0.53399 0.59116 0.0
C858 C 0.90194 0.53841 0.51494 0.0
C859 C 0.94042 0.51243 0.55023 0.0
C860 C 0.86229 0.51801 0.43525 0.0
C861 C 0.83988 0.56778 0.41672 0.0
N862 N 0.91579 0.51516 0.51384 0.0
N863 N 0.86317 0.5645 0.46085 0.0
loop_
_geom_bond_atom_site_label_1
_geom_bond_atom_site_label_2
_geom_bond_distance
_geom_bond_site_symmetry_2
_ccdc_geom_bond_type
H0 C5 0.930 . S
H1 C8 0.930 . S
H2 C10 0.930 . S
H3 C4 1.016 . S
C4 H3 1.016 . S
C4 N11 1.286 . S
C5 H0 0.930 . S
C5 C6 1.397 . S
C5 C7 1.361 . S
C6 C5 1.397 . S
C6 C10 1.390 . S
C7 C5 1.361 . S
C7 C8 1.393 . S
C7 N11 1.413 . S
C8 H1 0.930 . S
C8 C7 1.393 . S
C8 C9 1.399 . S
C9 C8 1.399 . S
C9 C10 1.381 . S
C10 H2 0.930 . S
C10 C6 1.390 . S
C10 C9 1.381 . S
N11 C4 1.286 . S
N11 C7 1.413 . S
H12 C17 0.930 . S
H13 C20 0.930 . S
H14 C22 0.930 . S
H15 C16 1.016 . S
C16 H15 1.016 . S
C16 N23 1.286 . S
C17 H12 0.930 . S
C17 C18 1.397 . S
C17 C19 1.361 . S
C18 C17 1.397 . S
C18 C22 1.390 . S
C19 C17 1.361 . S
C19 C20 1.393 . S
C19 N23 1.413 . S
C20 H13 0.930 . S
C20 C19 1.393 . S
C20 C21 1.399 . S
C21 C20 1.399 . S
C21 C22 1.381 . S
C22 H14 0.930 . S
C22 C18 1.390 . S
C22 C21 1.381 . S
N23 C16 1.286 . S
N23 C19 1.413 . S
H24 C29 0.930 . S
H25 C32 0.930 . S
H26 C34 0.930 . S
H27 C28 1.016 . S
C28 H27 1.016 . S
C28 N35 1.286 . S
C29 H24 0.930 . S
C29 C30 1.397 . S
C29 C31 1.361 . S
C30 C29 1.397 . S
C30 C34 1.390 . S
C31 C29 1.361 . S
C31 C32 1.393 . S
C31 N35 1.413 . S
C32 H25 0.930 . S
C32 C31 1.393 . S
C32 C33 1.399 . S
C33 C32 1.399 . S
C33 C34 1.381 . S
C34 H26 0.930 . S
C34 C30 1.390 . S
C34 C33 1.381 . S
N35 C28 1.286 . S
N35 C31 1.413 . S
H36 C41 0.930 . S
H37 C44 0.930 . S
H38 C46 0.930 . S
H39 C40 1.016 . S
C40 H39 1.016 . S
C40 N47 1.286 . S
C41 H36 0.930 . S
C41 C42 1.397 . S
C41 C43 1.361 . S
C42 C41 1.397 . S
C42 C46 1.390 . S
C43 C41 1.361 . S
C43 C44 1.393 . S
C43 N47 1.413 . S
C44 H37 0.930 . S
C44 C43 1.393 . S
C44 C45 1.399 . S
C45 C44 1.399 . S
C45 C46 1.381 . S
C46 H38 0.930 . S
C46 C42 1.390 . S
C46 C45 1.381 . S
N47 C40 1.286 . S
N47 C43 1.413 . S
H48 C53 0.930 . S
H49 C56 0.930 . S
H50 C58 0.930 . S
H51 C52 1.016 . S
C52 H51 1.016 . S
C52 N59 1.286 . S
C53 H48 0.930 . S
C53 C54 1.397 . S
C53 C55 1.361 1_556 S
C54 C53 1.397 . S
C54 C58 1.390 1_556 S
C55 C53 1.361 1_554 S
C55 C56 1.393 . S
C55 N59 1.413 . S
C56 H49 0.930 . S
C56 C55 1.393 . S
C56 C57 1.399 . S
C57 C56 1.399 . S
C57 C58 1.381 . S
C58 H50 0.930 . S
C58 C54 1.390 1_554 S
C58 C57 1.381 . S
N59 C52 1.286 . S
N59 C55 1.413 . S
H60 C65 0.930 . S
H61 C68 0.930 . S
H62 C70 0.930 . S
H63 C64 1.016 . S
C64 H63 1.016 . S
C64 N71 1.286 . S
C65 H60 0.930 . S
C65 C66 1.397 . S
C65 C67 1.361 1_556 S
C66 C65 1.397 . S
C66 C70 1.390 1_556 S
C67 C65 1.361 1_554 S
C67 C68 1.393 . S
C67 N71 1.413 . S
C68 H61 0.930 . S
C68 C67 1.393 . S
C68 C69 1.399 . S
C69 C68 1.399 . S
C69 C70 1.381 . S
C70 H62 0.930 . S
C70 C66 1.390 1_554 S
C70 C69 1.381 . S
N71 C64 1.286 . S
N71 C67 1.413 . S
H72 C77 0.930 . S
H73 C80 0.930 . S
H74 C82 0.930 . S
H75 C76 1.016 . S
C76 H75 1.016 . S
C76 N83 1.286 . S
C77 H72 0.930 . S
C77 C78 1.397 . S
C77 C79 1.361 1_556 S
C78 C77 1.397 . S
C78 C82 1.390 1_556 S
C79 C77 1.361 1_554 S
C79 C80 1.393 . S
C79 N83 1.413 . S
C80 H73 0.930 . S
C80 C79 1.393 . S
C80 C81 1.399 . S
C81 C80 1.399 . S
C81 C82 1.381 . S
C82 H74 0.930 . S
C82 C78 1.390 1_554 S
C82 C81 1.381 . S
N83 C76 1.286 . S
N83 C79 1.413 . S
H84 C89 0.930 . S
H85 C92 0.930 . S
H86 C94 0.930 . S
H87 C88 1.016 . S
C88 H87 1.016 . S
C88 N95 1.286 . S
C89 H84 0.930 . S
C89 C90 1.397 . S
C89 C91 1.361 1_556 S
C90 C89 1.397 . S
C90 C94 1.390 1_556 S
C91 C89 1.361 1_554 S
C91 C92 1.393 . S
C91 N95 1.413 . S
C92 H85 0.930 . S
C92 C91 1.393 . S
C92 C93 1.399 . S
C93 C92 1.399 . S
C93 C94 1.381 . S
C94 H86 0.930 . S
C94 C90 1.390 1_554 S
C94 C93 1.381 . S
N95 C88 1.286 . S
N95 C91 1.413 . S
Tb96 N125 2.617 . S
Tb96 N131 2.572 . S
Tb96 O140 2.465 1_655 S
Tb96 O141 2.387 1_545 S
Tb96 O143 2.428 . S
Tb96 O144 2.308 1_655 S
Tb96 O148 2.349 1_655 S
Tb96 O151 2.393 . S
Tb96 C160 2.802 . S
C97 N98 1.379 . S
C97 C100 1.416 . S
C97 C104 1.424 . S
N98 C97 1.379 . S
N98 C101 1.334 . S
N98 Tb107 2.617 1_545 S
C99 C101 1.390 . S
C99 C102 1.339 . S
C99 H119 0.930 . S
C100 C97 1.416 . S
C100 C102 1.416 . S
C100 C106 1.448 1_556 S
C101 N98 1.334 . S
C101 C99 1.390 . S
C101 H112 0.930 1_545 S
C102 C99 1.339 . S
C102 C100 1.416 . S
C102 H123 0.930 . S
C103 C104 1.413 1_554 S
C103 C105 1.427 . S
C103 C109 1.416 . S
C104 C97 1.424 . S
C104 C103 1.413 1_556 S
C104 N108 1.361 . S
C105 C103 1.427 . S
C105 C106 1.328 . S
C105 H120 0.929 . S
C106 C100 1.448 1_554 S
C106 C105 1.328 . S
C106 H121 0.930 . S
Tb107 N98 2.617 1_565 S
Tb107 N108 2.572 1_565 S
Tb107 O142 2.349 . S
Tb107 O145 2.393 . S
Tb107 O146 2.465 . S
Tb107 O147 2.387 1_565 S
Tb107 O149 2.428 . S
Tb107 O150 2.308 1_465 S
Tb107 C171 2.802 . S
N108 C104 1.361 . S
N108 Tb107 2.572 1_545 S
N108 C110 1.340 . S
C109 C103 1.416 . S
C109 C111 1.332 . S
C109 H117 0.931 . S
C110 N108 1.340 . S
C110 C111 1.407 1_556 S
C110 H116 0.930 1_455 S
C111 C109 1.332 . S
C111 C110 1.407 1_554 S
C111 H113 0.904 1_455 S
H112 C101 0.930 1_565 S
H113 C111 0.904 1_655 S
H114 C129 0.930 . S
H115 C136 0.929 . S
H116 C110 0.930 1_655 S
H117 C109 0.931 . S
H118 C132 0.930 . S
H119 C99 0.930 . S
H120 C105 0.929 . S
H121 C106 0.930 . S
H122 C127 0.930 . S
H123 C102 0.930 . S
H124 C135 0.931 . S
N125 Tb96 2.617 . S
N125 C126 1.379 . S
N125 C129 1.334 . S
C126 N125 1.379 . S
C126 C128 1.416 1_545 S
C126 C134 1.429 . S
C127 H122 0.930 . S
C127 C129 1.390 . S
C127 C130 1.339 1_545 S
C128 C126 1.416 1_565 S
C128 C130 1.416 . S
C128 C161 1.448 . S
C129 H114 0.930 . S
C129 N125 1.334 . S
C129 C127 1.390 . S
C130 C127 1.339 1_565 S
C130 C128 1.416 . S
C130 H137 0.930 . S
N131 Tb96 2.572 . S
N131 C132 1.340 1_655 S
N131 C134 1.378 . S
C132 H118 0.930 . S
C132 N131 1.340 1_455 S
C132 C136 1.407 1_545 S
C133 C134 1.392 1_565 S
C133 C135 1.416 . S
C133 C162 1.427 . S
C134 C126 1.429 . S
C134 N131 1.378 . S
C134 C133 1.392 1_545 S
C135 H124 0.931 . S
C135 C133 1.416 . S
C135 C136 1.332 1_655 S
C136 H115 0.929 . S
C136 C132 1.407 1_565 S
C136 C135 1.332 1_455 S
H137 C130 0.930 . S
H138 C161 0.930 . S
H139 C162 0.929 . S
O140 Tb96 2.465 1_455 S
O140 C160 1.264 1_455 S
O141 Tb96 2.387 1_565 S
O141 C152 1.264 . S
O142 Tb107 2.349 . S
O142 C152 1.243 1_455 S
O143 Tb96 2.428 . S
O143 C160 1.256 . S
O144 Tb96 2.308 1_455 S
O144 C159 1.266 . S
O145 Tb107 2.393 . S
O145 C159 1.248 1_565 S
O146 Tb107 2.465 . S
O146 C171 1.264 . S
O147 Tb107 2.387 1_545 S
O147 C163 1.264 . S
O148 Tb96 2.349 1_455 S
O148 C163 1.243 . S
O149 Tb107 2.428 . S
O149 C171 1.256 . S
O150 Tb107 2.308 1_645 S
O150 C170 1.266 . S
O151 Tb96 2.393 . S
O151 C170 1.248 . S
C152 O141 1.264 . S
C152 O142 1.243 1_655 S
C153 C156 1.399 . S
C153 C158 1.383 . S
C153 C160 1.496 . S
C154 C155 1.399 . S
C154 C158 1.389 . S
C155 C154 1.399 . S
C155 C157 1.380 . S
C155 H172 0.929 . S
C156 C153 1.399 . S
C156 C157 1.392 . S
C156 H173 0.929 . S
C157 C155 1.380 . S
C157 C156 1.392 . S
C157 H174 0.929 . S
C158 C153 1.383 . S
C158 C154 1.389 . S
C158 H175 0.931 1_655 S
C159 O144 1.266 . S
C159 O145 1.248 1_545 S
C160 Tb96 2.802 . S
C160 O140 1.264 1_655 S
C160 O143 1.256 . S
C160 C153 1.496 . S
C161 C128 1.448 . S
C161 H138 0.930 . S
C161 C162 1.328 . S
C162 C133 1.427 . S
C162 H139 0.929 . S
C162 C161 1.328 . S
C163 O147 1.264 . S
C163 O148 1.243 . S
C164 C167 1.399 . S
C164 C168 1.383 . S
C164 C171 1.496 . S
C165 C166 1.399 . S
C165 C168 1.389 . S
C166 C165 1.399 . S
C166 C169 1.380 . S
C166 H176 0.929 1_556 S
C167 C164 1.399 . S
C167 C169 1.392 . S
C167 H177 0.929 . S
C168 C164 1.383 . S
C168 C165 1.389 . S
C168 H178 0.931 . S
C169 C166 1.380 . S
C169 C167 1.392 . S
C169 H179 0.929 . S
C170 O150 1.266 . S
C170 O151 1.248 . S
C171 Tb107 2.802 . S
C171 O146 1.264 . S
C171 O149 1.256 . S
C171 C164 1.496 . S
H172 C155 0.929 . S
H173 C156 0.929 . S
H174 C157 0.929 . S
H175 C158 0.931 1_455 S
H176 C166 0.929 1_554 S
H177 C167 0.929 . S
H178 C168 0.931 . S
H179 C169 0.929 . S
Tb180 N209 2.617 . S
Tb180 N215 2.572 . S
Tb180 O224 2.465 . S
Tb180 O225 2.387 . S
Tb180 O227 2.428 . S
Tb180 O228 2.308 . S
Tb180 O232 2.349 1_545 S
Tb180 O235 2.393 . S
Tb180 C244 2.802 . S
C181 N182 1.379 . S
C181 C184 1.416 . S
C181 C188 1.424 . S
N182 C181 1.379 . S
N182 C185 1.334 . S
N182 Tb191 2.617 . S
C183 C185 1.390 . S
C183 C186 1.339 . S
C183 H203 0.930 . S
C184 C181 1.416 . S
C184 C186 1.416 . S
C184 C190 1.448 . S
C185 N182 1.334 . S
C185 C183 1.390 . S
C185 H196 0.930 . S
C186 C183 1.339 . S
C186 C184 1.416 . S
C186 H207 0.930 . S
C187 C188 1.413 . S
C187 C189 1.427 . S
C187 C193 1.416 . S
C188 C181 1.424 . S
C188 C187 1.413 . S
C188 N192 1.361 . S
C189 C187 1.427 . S
C189 C190 1.328 . S
C189 H204 0.929 . S
C190 C184 1.448 . S
C190 C189 1.328 . S
C190 H205 0.930 . S
Tb191 N182 2.617 . S
Tb191 N192 2.572 . S
Tb191 O226 2.349 1_565 S
Tb191 O229 2.393 . S
Tb191 O230 2.465 . S
Tb191 O231 2.387 . S
Tb191 O233 2.428 . S
Tb191 O234 2.308 1_565 S
Tb191 C255 2.802 . S
N192 C188 1.361 . S
N192 Tb191 2.572 . S
N192 C194 1.340 . S
C193 C187 1.416 . S
C193 C195 1.332 . S
C193 H201 0.931 . S
C194 N192 1.340 . S
C194 C195 1.407 . S
C194 H200 0.930 . S
C195 C193 1.332 . S
C195 C194 1.407 . S
C195 H197 0.929 . S
H196 C185 0.930 . S
H197 C195 0.929 . S
H198 C213 0.930 . S
H199 C220 0.929 . S
H200 C194 0.930 . S
H201 C193 0.931 . S
H202 C216 0.930 . S
H203 C183 0.930 . S
H204 C189 0.929 . S
H205 C190 0.930 . S
H206 C211 0.930 . S
H207 C186 0.930 . S
H208 C219 0.931 . S
N209 Tb180 2.617 . S
N209 C210 1.379 . S
N209 C213 1.334 . S
C210 N209 1.379 . S
C210 C212 1.416 . S
C210 C218 1.424 . S
C211 H206 0.930 . S
C211 C213 1.390 . S
C211 C214 1.339 . S
C212 C210 1.416 . S
C212 C214 1.416 . S
C212 C245 1.448 . S
C213 H198 0.930 . S
C213 N209 1.334 . S
C213 C211 1.390 . S
C214 C211 1.339 . S
C214 C212 1.416 . S
C214 H221 0.930 . S
N215 Tb180 2.572 . S
N215 C216 1.340 . S
N215 C218 1.361 . S
C216 H202 0.930 . S
C216 N215 1.340 . S
C216 C220 1.407 . S
C217 C218 1.413 . S
C217 C219 1.416 . S
C217 C246 1.427 . S
C218 C210 1.424 . S
C218 N215 1.361 . S
C218 C217 1.413 . S
C219 H208 0.931 . S
C219 C217 1.416 . S
C219 C220 1.332 . S
C220 H199 0.929 . S
C220 C216 1.407 . S
C220 C219 1.332 . S
H221 C214 0.930 . S
H222 C245 0.930 . S
H223 C246 0.929 . S
O224 Tb180 2.465 . S
O224 C244 1.264 . S
O225 Tb180 2.387 . S
O225 C236 1.264 . S
O226 Tb191 2.349 1_545 S
O226 C236 1.243 . S
O227 Tb180 2.428 . S
O227 C244 1.256 . S
O228 Tb180 2.308 . S
O228 C243 1.266 . S
O229 Tb191 2.393 . S
O229 C243 1.248 1_565 S
O230 Tb191 2.465 . S
O230 C255 1.264 . S
O231 Tb191 2.387 . S
O231 C247 1.264 . S
O232 Tb180 2.349 1_565 S
O232 C247 1.243 . S
O233 Tb191 2.428 . S
O233 C255 1.256 . S
O234 Tb191 2.308 1_545 S
O234 C254 1.266 . S
O235 Tb180 2.393 . S
O235 C254 1.248 . S
C236 O225 1.264 . S
C236 O226 1.243 . S
C237 C240 1.399 1_556 S
C237 C242 1.383 . S
C237 C244 1.496 . S
C238 C239 1.399 . S
C238 C242 1.389 1_554 S
C239 C238 1.399 . S
C239 C241 1.380 . S
C239 H256 0.929 . S
C240 C237 1.399 1_554 S
C240 C241 1.392 . S
C240 H257 0.929 . S
C241 C239 1.380 . S
C241 C240 1.392 . S
C241 H258 0.929 . S
C242 C237 1.383 . S
C242 C238 1.389 1_556 S
C242 H259 0.931 . S
C243 O228 1.266 . S
C243 O229 1.248 1_545 S
C244 Tb180 2.802 . S
C244 O224 1.264 . S
C244 O227 1.256 . S
C244 C237 1.496 . S
C245 C212 1.448 . S
C245 H222 0.930 . S
C245 C246 1.328 . S
C246 C217 1.427 . S
C246 H223 0.929 . S
C246 C245 1.328 . S
C247 O231 1.264 . S
C247 O232 1.243 . S
C248 C251 1.399 . S
C248 C252 1.383 1_565 S
C248 C255 1.496 . S
C249 C250 1.399 1_545 S
C249 C252 1.389 . S
C250 C249 1.399 1_565 S
C250 C253 1.380 . S
C250 H260 0.929 . S
C251 C248 1.399 . S
C251 C253 1.392 . S
C251 H261 0.929 . S
C252 C248 1.383 1_545 S
C252 C249 1.389 . S
C252 H262 0.931 . S
C253 C250 1.380 . S
C253 C251 1.392 . S
C253 H263 0.929 . S
C254 O234 1.266 . S
C254 O235 1.248 . S
C255 Tb191 2.802 . S
C255 O230 1.264 . S
C255 O233 1.256 . S
C255 C248 1.496 . S
H256 C239 0.929 . S
H257 C240 0.929 . S
H258 C241 0.929 . S
H259 C242 0.931 . S
H260 C250 0.929 . S
H261 C251 0.929 . S
H262 C252 0.931 . S
H263 C253 0.929 . S
Tb264 N293 2.617 . S
Tb264 N299 2.572 . S
Tb264 O308 2.465 . S
Tb264 O309 2.387 . S
Tb264 O311 2.428 . S
Tb264 O312 2.308 . S
Tb264 O316 2.349 . S
Tb264 O319 2.393 . S
Tb264 C328 2.802 . S
C265 N266 1.379 . S
C265 C268 1.416 . S
C265 C272 1.424 . S
N266 C265 1.379 . S
N266 C269 1.334 . S
N266 Tb275 2.617 . S
C267 C269 1.390 . S
C267 C270 1.339 . S
C267 H287 0.930 . S
C268 C265 1.416 . S
C268 C270 1.416 . S
C268 C274 1.448 1_556 S
C269 N266 1.334 . S
C269 C267 1.390 . S
C269 H280 0.930 . S
C270 C267 1.339 . S
C270 C268 1.416 . S
C270 H291 0.930 . S
C271 C272 1.413 1_554 S
C271 C273 1.427 . S
C271 C277 1.416 . S
C272 C265 1.424 . S
C272 C271 1.413 1_556 S
C272 N276 1.361 . S
C273 C271 1.427 . S
C273 C274 1.328 . S
C273 H288 0.929 . S
C274 C268 1.448 1_554 S
C274 C273 1.328 . S
C274 H289 0.930 . S
Tb275 N266 2.617 . S
Tb275 N276 2.572 . S
Tb275 O310 2.349 . S
Tb275 O313 2.393 . S
Tb275 O314 2.465 . S
Tb275 O315 2.387 . S
Tb275 O317 2.428 . S
Tb275 O318 2.308 . S
Tb275 C339 2.802 . S
N276 C272 1.361 . S
N276 Tb275 2.572 . S
N276 C278 1.340 . S
C277 C271 1.416 . S
C277 C279 1.332 . S
C277 H285 0.931 . S
C278 N276 1.340 . S
C278 C279 1.407 1_556 S
C278 H284 0.930 . S
C279 C277 1.332 . S
C279 C278 1.407 1_554 S
C279 H281 0.929 . S
H280 C269 0.930 . S
H281 C279 0.929 . S
H282 C297 0.930 . S
H283 C304 0.929 . S
H284 C278 0.930 . S
H285 C277 0.931 . S
H286 C300 0.930 . S
H287 C267 0.930 . S
H288 C273 0.929 . S
H289 C274 0.930 . S
H290 C295 0.930 . S
H291 C270 0.930 . S
H292 C303 0.931 . S
N293 Tb264 2.617 . S
N293 C294 1.379 . S
N293 C297 1.334 . S
C294 N293 1.379 . S
C294 C296 1.416 . S
C294 C302 1.424 . S
C295 H290 0.930 . S
C295 C297 1.390 . S
C295 C298 1.339 . S
C296 C294 1.416 . S
C296 C298 1.416 . S
C296 C329 1.448 . S
C297 H282 0.930 . S
C297 N293 1.334 . S
C297 C295 1.390 . S
C298 C295 1.339 . S
C298 C296 1.416 . S
C298 H305 0.930 . S
N299 Tb264 2.572 . S
N299 C300 1.340 . S
N299 C302 1.361 . S
C300 H286 0.930 . S
C300 N299 1.340 . S
C300 C304 1.407 . S
C301 C302 1.413 . S
C301 C303 1.416 . S
C301 C330 1.427 . S
C302 C294 1.424 . S
C302 N299 1.361 . S
C302 C301 1.413 . S
C303 H292 0.931 . S
C303 C301 1.416 . S
C303 C304 1.332 . S
C304 H283 0.929 . S
C304 C300 1.407 . S
C304 C303 1.332 . S
H305 C298 0.930 . S
H306 C329 0.930 . S
H307 C330 0.929 . S
O308 Tb264 2.465 . S
O308 C328 1.264 . S
O309 Tb264 2.387 . S
O309 C320 1.264 . S
O310 Tb275 2.349 . S
O310 C320 1.243 . S
O311 Tb264 2.428 . S
O311 C328 1.256 . S
O312 Tb264 2.308 . S
O312 C327 1.266 . S
O313 Tb275 2.393 . S
O313 C327 1.248 . S
O314 Tb275 2.465 . S
O314 C339 1.264 . S
O315 Tb275 2.387 . S
O315 C331 1.264 . S
O316 Tb264 2.349 . S
O316 C331 1.243 . S
O317 Tb275 2.428 . S
O317 C339 1.256 . S
O318 Tb275 2.308 . S
O318 C338 1.266 . S
O319 Tb264 2.393 . S
O319 C338 1.248 . S
C320 O309 1.264 . S
C320 O310 1.243 . S
C321 C324 1.399 . S
C321 C326 1.383 . S
C321 C328 1.496 . S
C322 C323 1.399 . S
C322 C326 1.389 . S
C323 C322 1.399 . S
C323 C325 1.380 . S
C323 H340 0.929 . S
C324 C321 1.399 . S
C324 C325 1.392 . S
C324 H341 0.929 . S
C325 C323 1.380 . S
C325 C324 1.392 . S
C325 H342 0.929 . S
C326 C321 1.383 . S
C326 C322 1.389 . S
C326 H343 0.931 . S
C327 O312 1.266 . S
C327 O313 1.248 . S
C328 Tb264 2.802 . S
C328 O308 1.264 . S
C328 O311 1.256 . S
C328 C321 1.496 . S
C329 C296 1.448 . S
C329 H306 0.930 . S
C329 C330 1.328 . S
C330 C301 1.427 . S
C330 H307 0.929 . S
C330 C329 1.328 . S
C331 O315 1.264 . S
C331 O316 1.243 . S
C332 C335 1.399 . S
C332 C336 1.383 . S
C332 C339 1.496 . S
C333 C334 1.399 . S
C333 C336 1.389 . S
C334 C333 1.399 . S
C334 C337 1.380 . S
C334 H344 0.929 1_556 S
C335 C332 1.399 . S
C335 C337 1.392 . S
C335 H345 0.929 . S
C336 C332 1.383 . S
C336 C333 1.389 . S
C336 H346 0.931 . S
C337 C334 1.380 . S
C337 C335 1.392 . S
C337 H347 0.929 . S
C338 O318 1.266 . S
C338 O319 1.248 . S
C339 Tb275 2.802 . S
C339 O314 1.264 . S
C339 O317 1.256 . S
C339 C332 1.496 . S
H340 C323 0.929 . S
H341 C324 0.929 . S
H342 C325 0.929 . S
H343 C326 0.931 . S
H344 C334 0.929 1_554 S
H345 C335 0.929 . S
H346 C336 0.931 . S
H347 C337 0.929 . S
Tb348 N377 2.617 . S
Tb348 N383 2.572 . S
Tb348 O392 2.465 . S
Tb348 O393 2.387 1_455 S
Tb348 O395 2.428 . S
Tb348 O396 2.308 . S
Tb348 O400 2.349 . S
Tb348 O403 2.393 . S
Tb348 C412 2.802 . S
C349 N350 1.379 . S
C349 C352 1.416 . S
C349 C356 1.424 . S
N350 C349 1.379 . S
N350 C353 1.332 1_455 S
N350 Tb359 2.617 1_455 S
C351 C353 1.380 1_455 S
C351 C354 1.339 . S
C351 H371 0.930 . S
C352 C349 1.416 . S
C352 C354 1.416 . S
C352 C358 1.448 1_556 S
C353 N350 1.332 1_655 S
C353 C351 1.380 1_655 S
C353 H364 0.944 . S
C354 C351 1.339 . S
C354 C352 1.416 . S
C354 H375 0.930 . S
C355 C356 1.413 1_554 S
C355 C357 1.427 . S
C355 C361 1.416 . S
C356 C349 1.424 . S
C356 C355 1.413 1_556 S
C356 N360 1.361 . S
C357 C355 1.427 . S
C357 C358 1.328 . S
C357 H372 0.929 . S
C358 C352 1.448 1_554 S
C358 C357 1.328 . S
C358 H373 0.930 . S
Tb359 N350 2.617 1_655 S
Tb359 N360 2.572 1_655 S
Tb359 O394 2.349 . S
Tb359 O397 2.393 . S
Tb359 O398 2.465 . S
Tb359 O399 2.387 1_655 S
Tb359 O401 2.428 . S
Tb359 O402 2.308 1_655 S
Tb359 C423 2.802 . S
N360 C356 1.361 . S
N360 Tb359 2.572 1_455 S
N360 C362 1.340 . S
C361 C355 1.416 . S
C361 C363 1.332 . S
C361 H369 0.931 . S
C362 N360 1.340 . S
C362 C363 1.407 1_556 S
C362 H368 0.930 . S
C363 C361 1.332 . S
C363 C362 1.407 1_554 S
C363 H365 0.929 . S
H364 C353 0.944 . S
H365 C363 0.929 . S
H366 C381 0.930 . S
H367 C388 0.929 . S
H368 C362 0.930 . S
H369 C361 0.931 . S
H370 C384 0.930 . S
H371 C351 0.930 . S
H372 C357 0.929 . S
H373 C358 0.930 . S
H374 C379 0.930 . S
H375 C354 0.930 . S
H376 C387 0.931 . S
N377 Tb348 2.617 . S
N377 C378 1.379 . S
N377 C381 1.334 . S
C378 N377 1.379 . S
C378 C380 1.416 1_455 S
C378 C386 1.424 1_455 S
C379 H374 0.930 . S
C379 C381 1.390 . S
C379 C382 1.339 1_455 S
C380 C378 1.416 1_655 S
C380 C382 1.416 . S
C380 C413 1.448 . S
C381 H366 0.930 . S
C381 N377 1.334 . S
C381 C379 1.390 . S
C382 C379 1.339 1_655 S
C382 C380 1.416 . S
C382 H389 0.930 . S
N383 Tb348 2.572 . S
N383 C384 1.340 . S
N383 C386 1.363 1_455 S
C384 H370 0.930 . S
C384 N383 1.340 . S
C384 C388 1.407 1_455 S
C385 C386 1.410 . S
C385 C387 1.416 . S
C385 C414 1.427 . S
C386 C378 1.424 1_655 S
C386 N383 1.363 1_655 S
C386 C385 1.410 . S
C387 H376 0.931 . S
C387 C385 1.416 . S
C387 C388 1.332 . S
C388 H367 0.929 . S
C388 C384 1.407 1_655 S
C388 C387 1.332 . S
H389 C382 0.930 . S
H390 C413 0.930 . S
H391 C414 0.929 . S
O392 Tb348 2.465 . S
O392 C412 1.264 . S
O393 Tb348 2.387 1_655 S
O393 C404 1.264 . S
O394 Tb359 2.349 . S
O394 C404 1.243 . S
O395 Tb348 2.428 . S
O395 C412 1.256 . S
O396 Tb348 2.308 . S
O396 C411 1.266 . S
O397 Tb359 2.393 . S
O397 C411 1.248 1_655 S
O398 Tb359 2.465 . S
O398 C423 1.264 . S
O399 Tb359 2.387 1_455 S
O399 C415 1.264 . S
O400 Tb348 2.349 . S
O400 C415 1.243 . S
O401 Tb359 2.428 . S
O401 C423 1.256 . S
O402 Tb359 2.308 1_455 S
O402 C422 1.266 . S
O403 Tb348 2.393 . S
O403 C422 1.248 . S
C404 O393 1.264 . S
C404 O394 1.243 . S
C405 C408 1.399 . S
C405 C410 1.383 . S
C405 C412 1.496 . S
C406 C407 1.399 . S
C406 C410 1.389 . S
C407 C406 1.399 . S
C407 C409 1.380 . S
C407 H424 0.929 . S
C408 C405 1.399 . S
C408 C409 1.392 . S
C408 H425 0.929 . S
C409 C407 1.380 . S
C409 C408 1.392 . S
C409 H426 0.929 . S
C410 C405 1.383 . S
C410 C406 1.389 . S
C410 H427 0.931 . S
C411 O396 1.266 . S
C411 O397 1.248 1_455 S
C412 Tb348 2.802 . S
C412 O392 1.264 . S
C412 O395 1.256 . S
C412 C405 1.496 . S
C413 C380 1.448 . S
C413 H390 0.930 . S
C413 C414 1.328 . S
C414 C385 1.427 . S
C414 H391 0.929 . S
C414 C413 1.328 . S
C415 O399 1.264 . S
C415 O400 1.243 . S
C416 C419 1.399 . S
C416 C420 1.383 . S
C416 C423 1.496 . S
C417 C418 1.399 . S
C417 C420 1.389 . S
C418 C417 1.399 . S
C418 C421 1.380 . S
C418 H428 0.929 1_556 S
C419 C416 1.399 . S
C419 C421 1.392 . S
C419 H429 0.929 . S
C420 C416 1.383 . S
C420 C417 1.389 . S
C420 H430 0.931 . S
C421 C418 1.380 . S
C421 C419 1.392 . S
C421 H431 0.929 . S
C422 O402 1.266 . S
C422 O403 1.248 . S
C423 Tb359 2.802 . S
C423 O398 1.264 . S
C423 O401 1.256 . S
C423 C416 1.496 . S
H424 C407 0.929 . S
H425 C408 0.929 . S
H426 C409 0.929 . S
H427 C410 0.931 . S
H428 C418 0.929 1_554 S
H429 C419 0.929 . S
H430 C420 0.931 . S
H431 C421 0.929 . S
H432 C438 0.904 1_565 S
H433 C442 0.930 . S
H434 C447 0.929 . S
H435 C445 0.955 . S
H436 C440 0.929 . S
H437 C446 0.929 1_565 S
C438 H432 0.904 1_545 S
C438 C439 1.367 . S
C438 C446 1.378 . S
C439 C438 1.367 . S
C439 C447 1.433 . S
C440 H436 0.929 . S
C440 C442 1.378 . S
C440 C444 1.350 . S
C441 C444 1.463 . S
C441 C446 1.350 . S
C441 N449 1.427 . S
C442 H433 0.930 . S
C442 C440 1.378 . S
C442 C443 1.367 . S
C443 C442 1.367 . S
C443 C445 1.410 1_545 S
C444 C440 1.350 . S
C444 C441 1.463 . S
C444 N448 1.427 . S
C445 H435 0.955 . S
C445 C443 1.410 1_565 S
C445 N448 1.380 1_565 S
C446 H437 0.929 1_545 S
C446 C438 1.378 . S
C446 C441 1.350 . S
C447 H434 0.929 . S
C447 C439 1.433 . S
C447 N449 1.384 . S
N448 C444 1.427 . S
N448 C445 1.380 1_545 S
N449 C441 1.427 . S
N449 C447 1.384 . S
H450 C456 0.930 . S
H451 C460 0.930 . S
H452 C465 0.929 . S
H453 C463 0.929 . S
H454 C458 0.929 . S
H455 C464 0.929 . S
C456 H450 0.930 . S
C456 C457 1.367 . S
C456 C464 1.378 . S
C457 C456 1.367 . S
C457 C465 1.433 . S
C458 H454 0.929 . S
C458 C460 1.378 . S
C458 C462 1.350 . S
C459 C462 1.463 . S
C459 C464 1.350 . S
C459 N467 1.427 . S
C460 H451 0.930 . S
C460 C458 1.378 . S
C460 C461 1.367 . S
C461 C460 1.367 . S
C461 C463 1.433 . S
C462 C458 1.350 . S
C462 C459 1.463 . S
C462 N466 1.427 . S
C463 H453 0.929 . S
C463 C461 1.433 . S
C463 N466 1.384 . S
C464 H455 0.929 . S
C464 C456 1.378 . S
C464 C459 1.350 . S
C465 H452 0.929 . S
C465 C457 1.433 . S
C465 N467 1.384 . S
N466 C462 1.427 . S
N466 C463 1.384 . S
N467 C459 1.427 . S
N467 C465 1.384 . S
H468 C474 0.930 . S
H469 C478 0.930 . S
H470 C483 0.929 . S
H471 C481 0.929 . S
H472 C476 0.929 . S
H473 C482 0.929 . S
C474 H468 0.930 . S
C474 C475 1.367 . S
C474 C482 1.378 . S
C475 C474 1.367 . S
C475 C483 1.433 . S
C476 H472 0.929 . S
C476 C478 1.378 . S
C476 C480 1.350 . S
C477 C480 1.463 . S
C477 C482 1.350 . S
C477 N485 1.427 . S
C478 H469 0.930 . S
C478 C476 1.378 . S
C478 C479 1.367 . S
C479 C478 1.367 . S
C479 C481 1.433 . S
C480 C476 1.350 . S
C480 C477 1.463 . S
C480 N484 1.427 . S
C481 H471 0.929 . S
C481 C479 1.433 . S
C481 N484 1.384 . S
C482 H473 0.929 . S
C482 C474 1.378 . S
C482 C477 1.350 . S
C483 H470 0.929 . S
C483 C475 1.433 . S
C483 N485 1.384 . S
N484 C480 1.427 . S
N484 C481 1.384 . S
N485 C477 1.427 . S
N485 C483 1.384 . S
H486 C492 0.930 1_655 S
H487 C496 0.930 . S
H488 C501 0.929 . S
H489 C499 0.929 . S
H490 C494 0.929 . S
H491 C500 0.929 1_655 S
C492 H486 0.930 1_455 S
C492 C493 1.367 . S
C492 C500 1.378 . S
C493 C492 1.367 . S
C493 C501 1.433 . S
C494 H490 0.929 . S
C494 C496 1.378 . S
C494 C498 1.350 . S
C495 C498 1.463 . S
C495 C500 1.350 . S
C495 N503 1.427 . S
C496 H487 0.930 . S
C496 C494 1.378 . S
C496 C497 1.367 . S
C497 C496 1.367 . S
C497 C499 1.433 1_455 S
C498 C494 1.350 . S
C498 C495 1.463 . S
C498 N502 1.437 . S
C499 H489 0.929 . S
C499 C497 1.433 1_655 S
C499 N502 1.382 1_655 S
C500 H491 0.929 1_455 S
C500 C492 1.378 . S
C500 C495 1.350 . S
C501 H488 0.929 . S
C501 C493 1.433 . S
C501 N503 1.384 . S
N502 C498 1.437 . S
N502 C499 1.382 1_455 S
N503 C495 1.427 . S
N503 C501 1.384 . S
H504 C510 0.930 . S
H505 C514 0.930 . S
H506 C519 0.929 . S
H507 C517 0.929 . S
H508 C512 0.929 . S
H509 C518 0.929 . S
C510 H504 0.930 . S
C510 C511 1.367 1_545 S
C510 C518 1.378 . S
C511 C510 1.367 1_565 S
C511 C519 1.433 . S
C512 H508 0.929 . S
C512 C514 1.378 . S
C512 C516 1.350 . S
C513 C516 1.463 1_554 S
C513 C518 1.350 1_565 S
C513 N521 1.427 . S
C514 H505 0.930 . S
C514 C512 1.378 . S
C514 C515 1.368 . S
C515 C514 1.368 . S
C515 C517 1.433 1_565 S
C516 C512 1.350 . S
C516 C513 1.463 1_556 S
C516 N520 1.427 1_565 S
C517 H507 0.929 . S
C517 C515 1.433 1_545 S
C517 N520 1.384 . S
C518 H509 0.929 . S
C518 C510 1.378 . S
C518 C513 1.350 1_545 S
C519 H506 0.929 . S
C519 C511 1.433 . S
C519 N521 1.384 . S
N520 C516 1.427 1_545 S
N520 C517 1.384 . S
N521 C513 1.427 . S
N521 C519 1.384 . S
H522 C528 0.930 . S
H523 C532 0.930 . S
H524 C537 0.929 . S
H525 C535 0.929 . S
H526 C530 0.929 . S
H527 C536 0.929 . S
C528 H522 0.930 . S
C528 C529 1.367 . S
C528 C536 1.378 . S
C529 C528 1.367 . S
C529 C537 1.433 . S
C530 H526 0.929 . S
C530 C532 1.378 . S
C530 C534 1.350 . S
C531 C534 1.463 1_554 S
C531 C536 1.350 . S
C531 N539 1.427 . S
C532 H523 0.930 . S
C532 C530 1.378 . S
C532 C533 1.367 . S
C533 C532 1.367 . S
C533 C535 1.433 . S
C534 C530 1.350 . S
C534 C531 1.463 1_556 S
C534 N538 1.427 1_556 S
C535 H525 0.929 . S
C535 C533 1.433 . S
C535 N538 1.384 1_556 S
C536 H527 0.929 . S
C536 C528 1.378 . S
C536 C531 1.350 . S
C537 H524 0.929 . S
C537 C529 1.433 . S
C537 N539 1.384 . S
N538 C534 1.427 1_554 S
N538 C535 1.384 1_554 S
N539 C531 1.427 . S
N539 C537 1.384 . S
H540 C546 0.930 . S
H541 C550 0.930 . S
H542 C555 0.929 . S
H543 C553 0.929 . S
H544 C548 0.929 . S
H545 C554 0.929 . S
C546 H540 0.930 . S
C546 C547 1.367 . S
C546 C554 1.378 . S
C547 C546 1.367 . S
C547 C555 1.433 . S
C548 H544 0.929 . S
C548 C550 1.378 . S
C548 C552 1.350 . S
C549 C552 1.463 1_554 S
C549 C554 1.350 . S
C549 N557 1.427 . S
C550 H541 0.930 . S
C550 C548 1.378 . S
C550 C551 1.367 . S
C551 C550 1.367 . S
C551 C553 1.433 . S
C552 C548 1.350 . S
C552 C549 1.463 1_556 S
C552 N556 1.427 . S
C553 H543 0.929 . S
C553 C551 1.433 . S
C553 N556 1.384 . S
C554 H545 0.929 . S
C554 C546 1.378 . S
C554 C549 1.350 . S
C555 H542 0.929 . S
C555 C547 1.433 . S
C555 N557 1.384 . S
N556 C552 1.427 . S
N556 C553 1.384 . S
N557 C549 1.427 . S
N557 C555 1.384 . S
H558 C564 0.930 1_455 S
H559 C568 0.930 . S
H560 C573 0.929 . S
H561 C571 0.929 . S
H562 C566 0.929 1_554 S
H563 C572 0.922 1_455 S
C564 H558 0.930 1_655 S
C564 C565 1.367 . S
C564 C572 1.380 . S
C565 C564 1.367 . S
C565 C573 1.433 . S
C566 H562 0.929 1_556 S
C566 C568 1.378 . S
C566 C570 1.350 . S
C567 C570 1.463 1_554 S
C567 C572 1.355 . S
C567 N575 1.427 . S
C568 H559 0.930 . S
C568 C566 1.378 . S
C568 C569 1.367 . S
C569 C568 1.367 . S
C569 C571 1.433 1_655 S
C570 C566 1.350 . S
C570 C567 1.463 1_556 S
C570 N574 1.427 1_655 S
C571 H561 0.929 . S
C571 C569 1.433 1_455 S
C571 N574 1.384 . S
C572 H563 0.922 1_655 S
C572 C564 1.380 . S
C572 C567 1.355 . S
C573 H560 0.929 . S
C573 C565 1.433 . S
C573 N575 1.384 . S
N574 C570 1.427 1_455 S
N574 C571 1.384 . S
N575 C567 1.427 . S
N575 C573 1.384 . S
H576 C582 0.930 . S
H577 C586 0.930 . S
H578 C591 0.929 . S
H579 C589 0.929 . S
H580 C584 0.929 . S
H581 C590 0.929 . S
C582 H576 0.930 . S
C582 C583 1.367 . S
C582 C590 1.378 . S
C583 C582 1.367 . S
C583 C591 1.433 . S
C584 H580 0.929 . S
C584 C586 1.378 . S
C584 C588 1.350 . S
C585 C588 1.463 . S
C585 C590 1.350 . S
C585 N593 1.427 . S
C586 H577 0.930 . S
C586 C584 1.378 . S
C586 C587 1.367 . S
C587 C586 1.367 . S
C587 C589 1.433 1_455 S
C588 C584 1.350 . S
C588 C585 1.463 . S
C588 N592 1.453 . S
C589 H579 0.929 . S
C589 C587 1.433 1_655 S
C589 N592 1.374 1_655 S
C590 H581 0.929 . S
C590 C582 1.378 . S
C590 C585 1.350 . S
C591 H578 0.929 . S
C591 C583 1.433 . S
C591 N593 1.384 . S
N592 C588 1.453 . S
N592 C589 1.374 1_455 S
N593 C585 1.427 . S
N593 C591 1.384 . S
H594 C600 0.930 . S
H595 C604 0.930 . S
H596 C609 0.929 . S
H597 C607 0.929 . S
H598 C602 0.920 1_565 S
H599 C608 0.929 . S
C600 H594 0.930 . S
C600 C601 1.367 . S
C600 C608 1.378 . S
C601 C600 1.367 . S
C601 C609 1.433 . S
C602 H598 0.920 1_545 S
C602 C604 1.373 1_545 S
C602 C606 1.363 . S
C603 C606 1.463 . S
C603 C608 1.350 . S
C603 N611 1.427 . S
C604 H595 0.930 . S
C604 C602 1.373 1_565 S
C604 C605 1.367 1_565 S
C605 C604 1.367 1_545 S
C605 C607 1.433 . S
C606 C602 1.363 . S
C606 C603 1.463 . S
C606 N610 1.427 . S
C607 H597 0.929 . S
C607 C605 1.433 . S
C607 N610 1.384 . S
C608 H599 0.929 . S
C608 C600 1.378 . S
C608 C603 1.350 . S
C609 H596 0.929 . S
C609 C601 1.433 . S
C609 N611 1.384 . S
N610 C606 1.427 . S
N610 C607 1.384 . S
N611 C603 1.427 . S
N611 C609 1.384 . S
H612 C618 0.930 . S
H613 C622 0.930 . S
H614 C627 0.929 . S
H615 C625 0.929 . S
H616 C620 0.929 . S
H617 C626 0.929 . S
C618 H612 0.930 . S
C618 C619 1.367 . S
C618 C626 1.378 . S
C619 C618 1.367 . S
C619 C627 1.433 . S
C620 H616 0.929 . S
C620 C622 1.378 . S
C620 C624 1.350 . S
C621 C624 1.463 . S
C621 C626 1.350 . S
C621 N629 1.427 . S
C622 H613 0.930 . S
C622 C620 1.378 . S
C622 C623 1.367 . S
C623 C622 1.367 . S
C623 C625 1.433 . S
C624 C620 1.350 . S
C624 C621 1.463 . S
C624 N628 1.427 . S
C625 H615 0.929 . S
C625 C623 1.433 . S
C625 N628 1.384 . S
C626 H617 0.929 . S
C626 C618 1.378 . S
C626 C621 1.350 . S
C627 H614 0.929 . S
C627 C619 1.433 . S
C627 N629 1.384 . S
N628 C624 1.427 . S
N628 C625 1.384 . S
N629 C621 1.427 . S
N629 C627 1.384 . S
H630 C636 0.930 . S
H631 C640 0.930 . S
H632 C645 0.929 . S
H633 C643 0.929 . S
H634 C638 0.929 . S
H635 C644 0.929 . S
C636 H630 0.930 . S
C636 C637 1.367 . S
C636 C644 1.378 . S
C637 C636 1.367 . S
C637 C645 1.433 . S
C638 H634 0.929 . S
C638 C640 1.378 . S
C638 C642 1.350 . S
C639 C642 1.463 . S
C639 C644 1.350 . S
C639 N647 1.427 . S
C640 H631 0.930 . S
C640 C638 1.378 . S
C640 C641 1.367 . S
C641 C640 1.367 . S
C641 C643 1.433 . S
C642 C638 1.350 . S
C642 C639 1.463 . S
C642 N646 1.427 . S
C643 H633 0.929 . S
C643 C641 1.433 . S
C643 N646 1.384 . S
C644 H635 0.929 . S
C644 C636 1.378 . S
C644 C639 1.350 . S
C645 H632 0.929 . S
C645 C637 1.433 . S
C645 N647 1.384 . S
N646 C642 1.427 . S
N646 C643 1.384 . S
N647 C639 1.427 . S
N647 C645 1.384 . S
H648 C654 0.930 . S
H649 C658 0.930 . S
H650 C663 0.954 . S
H651 C661 0.929 . S
H652 C656 0.929 . S
H653 C662 0.929 . S
C654 H648 0.930 . S
C654 C655 1.367 . S
C654 C662 1.378 . S
C655 C654 1.367 . S
C655 C663 1.398 1_655 S
C656 H652 0.929 . S
C656 C658 1.378 . S
C656 C660 1.348 1_455 S
C657 C660 1.463 . S
C657 C662 1.350 . S
C657 N665 1.427 1_655 S
C658 H649 0.930 . S
C658 C656 1.378 . S
C658 C659 1.367 . S
C659 C658 1.367 . S
C659 C661 1.433 1_454 S
C660 C656 1.348 1_655 S
C660 C657 1.463 . S
C660 N664 1.428 . S
C661 H651 0.929 . S
C661 C659 1.433 1_656 S
C661 N664 1.384 1_556 S
C662 H653 0.929 . S
C662 C654 1.378 . S
C662 C657 1.350 . S
C663 H650 0.954 . S
C663 C655 1.398 1_455 S
C663 N665 1.395 . S
N664 C660 1.428 . S
N664 C661 1.384 1_554 S
N665 C657 1.427 1_455 S
N665 C663 1.395 . S
H666 C672 0.930 . S
H667 C676 0.930 . S
H668 C681 0.929 . S
H669 C679 0.929 . S
H670 C674 0.929 . S
H671 C680 0.929 . S
C672 H666 0.930 . S
C672 C673 1.367 1_545 S
C672 C680 1.378 . S
C673 C672 1.367 1_565 S
C673 C681 1.433 . S
C674 H670 0.929 . S
C674 C676 1.378 . S
C674 C678 1.375 . S
C675 C678 1.471 . S
C675 C680 1.350 1_565 S
C675 N683 1.427 . S
C676 H667 0.930 . S
C676 C674 1.378 . S
C676 C677 1.367 1_565 S
C677 C676 1.367 1_545 S
C677 C679 1.433 . S
C678 C674 1.375 . S
C678 C675 1.471 . S
C678 N682 1.393 1_565 S
C679 H669 0.929 . S
C679 C677 1.433 . S
C679 N682 1.384 . S
C680 H671 0.929 . S
C680 C672 1.378 . S
C680 C675 1.350 1_545 S
C681 H668 0.929 . S
C681 C673 1.433 . S
C681 N683 1.384 . S
N682 C678 1.393 1_545 S
N682 C679 1.384 . S
N683 C675 1.427 . S
N683 C681 1.384 . S
H684 C690 0.930 . S
H685 C694 0.930 . S
H686 C699 0.929 . S
H687 C697 0.929 1_556 S
H688 C692 0.929 . S
H689 C698 0.929 . S
C690 H684 0.930 . S
C690 C691 1.367 . S
C690 C698 1.378 . S
C691 C690 1.367 . S
C691 C699 1.433 . S
C692 H688 0.929 . S
C692 C694 1.378 . S
C692 C696 1.350 . S
C693 C696 1.463 . S
C693 C698 1.350 . S
C693 N701 1.427 . S
C694 H685 0.930 . S
C694 C692 1.378 . S
C694 C695 1.367 . S
C695 C694 1.367 . S
C695 C697 1.433 . S
C696 C692 1.350 . S
C696 C693 1.463 . S
C696 N700 1.427 . S
C697 H687 0.929 1_554 S
C697 C695 1.433 . S
C697 N700 1.384 . S
C698 H689 0.929 . S
C698 C690 1.378 . S
C698 C693 1.350 . S
C699 H686 0.929 . S
C699 C691 1.433 . S
C699 N701 1.384 . S
N700 C696 1.427 . S
N700 C697 1.384 . S
N701 C693 1.427 . S
N701 C699 1.384 . S
H702 C708 0.930 . S
H703 C712 0.930 1_556 S
H704 C717 0.929 . S
H705 C715 0.929 . S
H706 C710 0.929 . S
H707 C716 0.929 . S
C708 H702 0.930 . S
C708 C709 1.367 . S
C708 C716 1.378 . S
C709 C708 1.367 . S
C709 C717 1.433 . S
C710 H706 0.929 . S
C710 C712 1.378 . S
C710 C714 1.350 . S
C711 C714 1.463 . S
C711 C716 1.350 . S
C711 N719 1.427 . S
C712 H703 0.930 1_554 S
C712 C710 1.378 . S
C712 C713 1.367 . S
C713 C712 1.367 . S
C713 C715 1.433 . S
C714 C710 1.350 . S
C714 C711 1.463 . S
C714 N718 1.427 . S
C715 H705 0.929 . S
C715 C713 1.433 . S
C715 N718 1.384 . S
C716 H707 0.929 . S
C716 C708 1.378 . S
C716 C711 1.350 . S
C717 H704 0.929 . S
C717 C709 1.433 . S
C717 N719 1.384 . S
N718 C714 1.427 . S
N718 C715 1.384 . S
N719 C711 1.427 . S
N719 C717 1.384 . S
H720 C726 0.930 1_554 S
H721 C730 0.930 . S
H722 C735 0.929 . S
H723 C733 0.929 . S
H724 C728 0.929 . S
H725 C734 0.929 . S
C726 H720 0.930 1_556 S
C726 C727 1.367 . S
C726 C734 1.378 . S
C727 C726 1.367 . S
C727 C735 1.433 . S
C728 H724 0.929 . S
C728 C730 1.378 . S
C728 C732 1.350 . S
C729 C732 1.463 . S
C729 C734 1.350 . S
C729 N737 1.427 . S
C730 H721 0.930 . S
C730 C728 1.378 . S
C730 C731 1.367 . S
C731 C730 1.367 . S
C731 C733 1.433 . S
C732 C728 1.350 . S
C732 C729 1.463 . S
C732 N736 1.427 . S
C733 H723 0.929 . S
C733 C731 1.433 . S
C733 N736 1.384 . S
C734 H725 0.929 . S
C734 C726 1.378 . S
C734 C729 1.350 . S
C735 H722 0.929 . S
C735 C727 1.433 . S
C735 N737 1.384 . S
N736 C732 1.427 . S
N736 C733 1.384 . S
N737 C729 1.427 . S
N737 C735 1.384 . S
H738 C744 0.930 1_554 S
H739 C748 0.930 . S
H740 C753 0.929 . S
H741 C751 0.929 . S
H742 C746 0.929 . S
H743 C752 0.929 . S
C744 H738 0.930 1_556 S
C744 C745 1.367 . S
C744 C752 1.378 . S
C745 C744 1.367 . S
C745 C753 1.433 . S
C746 H742 0.929 . S
C746 C748 1.378 . S
C746 C750 1.350 . S
C747 C750 1.463 . S
C747 C752 1.350 . S
C747 N755 1.427 . S
C748 H739 0.930 . S
C748 C746 1.378 . S
C748 C749 1.367 . S
C749 C748 1.367 . S
C749 C751 1.433 . S
C750 C746 1.350 . S
C750 C747 1.463 . S
C750 N754 1.427 . S
C751 H741 0.929 . S
C751 C749 1.433 . S
C751 N754 1.384 . S
C752 H743 0.929 . S
C752 C744 1.378 . S
C752 C747 1.350 . S
C753 H740 0.929 . S
C753 C745 1.433 . S
C753 N755 1.384 . S
N754 C750 1.427 . S
N754 C751 1.384 . S
N755 C747 1.427 . S
N755 C753 1.384 . S
H756 C762 0.930 . S
H757 C766 0.930 . S
H758 C771 0.929 . S
H759 C769 0.929 . S
H760 C764 0.929 . S
H761 C770 0.929 . S
C762 H756 0.930 . S
C762 C763 1.367 . S
C762 C770 1.378 . S
C763 C762 1.367 . S
C763 C771 1.433 . S
C764 H760 0.929 . S
C764 C766 1.378 . S
C764 C768 1.350 . S
C765 C768 1.463 . S
C765 C770 1.350 . S
C765 N773 1.427 . S
C766 H757 0.930 . S
C766 C764 1.378 . S
C766 C767 1.367 . S
C767 C766 1.367 . S
C767 C769 1.433 . S
C768 C764 1.350 . S
C768 C765 1.463 . S
C768 N772 1.427 . S
C769 H759 0.929 . S
C769 C767 1.433 . S
C769 N772 1.384 . S
C770 H761 0.929 . S
C770 C762 1.378 . S
C770 C765 1.350 . S
C771 H758 0.929 . S
C771 C763 1.433 . S
C771 N773 1.384 . S
N772 C768 1.427 . S
N772 C769 1.384 . S
N773 C765 1.427 . S
N773 C771 1.384 . S
H774 C780 0.930 . S
H775 C784 0.930 . S
H776 C789 0.929 . S
H777 C787 0.929 . S
H778 C782 0.929 . S
H779 C788 0.929 . S
C780 H774 0.930 . S
C780 C781 1.367 . S
C780 C788 1.378 . S
C781 C780 1.367 . S
C781 C789 1.433 . S
C782 H778 0.929 . S
C782 C784 1.378 . S
C782 C786 1.350 . S
C783 C786 1.463 . S
C783 C788 1.350 . S
C783 N791 1.427 . S
C784 H775 0.930 . S
C784 C782 1.378 . S
C784 C785 1.367 . S
C785 C784 1.367 . S
C785 C787 1.433 . S
C786 C782 1.350 . S
C786 C783 1.463 . S
C786 N790 1.427 . S
C787 H777 0.929 . S
C787 C785 1.433 . S
C787 N790 1.384 . S
C788 H779 0.929 . S
C788 C780 1.378 . S
C788 C783 1.350 . S
C789 H776 0.929 . S
C789 C781 1.433 . S
C789 N791 1.384 . S
N790 C786 1.427 . S
N790 C787 1.384 . S
N791 C783 1.427 . S
N791 C789 1.384 . S
H792 C798 0.939 . S
H793 C802 0.930 . S
H794 C807 0.929 . S
H795 C805 0.929 . S
H796 C800 0.929 . S
H797 C806 0.929 1_455 S
C798 H792 0.939 . S
C798 C799 1.367 . S
C798 C806 1.378 . S
C799 C798 1.367 . S
C799 C807 1.433 . S
C800 H796 0.929 . S
C800 C802 1.378 . S
C800 C804 1.350 . S
C801 C804 1.463 . S
C801 C806 1.350 . S
C801 N809 1.427 . S
C802 H793 0.930 . S
C802 C800 1.378 . S
C802 C803 1.367 . S
C803 C802 1.367 . S
C803 C805 1.433 1_655 S
C804 C800 1.350 . S
C804 C801 1.463 . S
C804 N808 1.417 1_655 S
C805 H795 0.929 . S
C805 C803 1.433 1_455 S
C805 N808 1.386 . S
C806 H797 0.929 1_655 S
C806 C798 1.378 . S
C806 C801 1.350 . S
C807 H794 0.929 . S
C807 C799 1.433 . S
C807 N809 1.384 . S
N808 C804 1.417 1_455 S
N808 C805 1.386 . S
N809 C801 1.427 . S
N809 C807 1.384 . S
H810 C816 0.930 . S
H811 C820 0.930 . S
H812 C825 0.929 . S
H813 C823 0.929 . S
H814 C818 0.929 . S
H815 C824 0.929 . S
C816 H810 0.930 . S
C816 C817 1.367 1_545 S
C816 C824 1.378 . S
C817 C816 1.367 1_565 S
C817 C825 1.433 . S
C818 H814 0.929 . S
C818 C820 1.378 . S
C818 C822 1.350 . S
C819 C822 1.463 . S
C819 C824 1.350 1_565 S
C819 N827 1.427 . S
C820 H811 0.930 . S
C820 C818 1.378 . S
C820 C821 1.367 . S
C821 C820 1.367 . S
C821 C823 1.433 1_565 S
C822 C818 1.350 . S
C822 C819 1.463 . S
C822 N826 1.427 1_565 S
C823 H813 0.929 . S
C823 C821 1.433 1_545 S
C823 N826 1.384 . S
C824 H815 0.929 . S
C824 C816 1.378 . S
C824 C819 1.350 1_545 S
C825 H812 0.929 . S
C825 C817 1.433 . S
C825 N827 1.384 . S
N826 C822 1.427 1_545 S
N826 C823 1.384 . S
N827 C819 1.427 . S
N827 C825 1.384 . S
H828 C834 0.930 . S
H829 C838 0.930 . S
H830 C843 0.929 . S
H831 C841 0.929 . S
H832 C836 0.929 . S
H833 C842 0.929 . S
C834 H828 0.930 . S
C834 C835 1.367 . S
C834 C842 1.378 . S
C835 C834 1.367 . S
C835 C843 1.433 . S
C836 H832 0.929 . S
C836 C838 1.378 . S
C836 C840 1.350 . S
C837 C840 1.463 . S
C837 C842 1.350 . S
C837 N845 1.427 . S
C838 H829 0.930 . S
C838 C836 1.378 . S
C838 C839 1.367 . S
C839 C838 1.367 . S
C839 C841 1.433 . S
C840 C836 1.350 . S
C840 C837 1.463 . S
C840 N844 1.427 . S
C841 H831 0.929 . S
C841 C839 1.433 . S
C841 N844 1.384 . S
C842 H833 0.929 . S
C842 C834 1.378 . S
C842 C837 1.350 . S
C843 H830 0.929 . S
C843 C835 1.433 . S
C843 N845 1.384 . S
N844 C840 1.427 . S
N844 C841 1.384 . S
N845 C837 1.427 . S
N845 C843 1.384 . S
H846 C852 0.930 . S
H847 C856 0.930 . S
H848 C861 0.929 . S
H849 C859 0.929 . S
H850 C854 0.929 . S
H851 C860 0.929 . S
C852 H846 0.930 . S
C852 C853 1.367 . S
C852 C860 1.378 . S
C853 C852 1.367 . S
C853 C861 1.433 . S
C854 H850 0.929 . S
C854 C856 1.378 . S
C854 C858 1.350 . S
C855 C858 1.463 . S
C855 C860 1.350 . S
C855 N863 1.427 . S
C856 H847 0.930 . S
C856 C854 1.378 . S
C856 C857 1.367 . S
C857 C856 1.367 . S
C857 C859 1.433 . S
C858 C854 1.350 . S
C858 C855 1.463 . S
C858 N862 1.427 . S
C859 H849 0.929 . S
C859 C857 1.433 . S
C859 N862 1.384 . S
C860 H851 0.929 . S
C860 C852 1.378 . S
C860 C855 1.350 . S
C861 H848 0.929 . S
C861 C853 1.433 . S
C861 N863 1.384 . S
N862 C858 1.427 . S
N862 C859 1.384 . S
N863 C855 1.427 . S
N863 C861 1.384 . S
C439 C76 1.876 . S
C443 C159 2.031 . S
C461 C236 2.041 . S
C457 C88 1.877 . S
C479 C327 2.019 . S
C475 C52 1.872 . S
C497 C411 2.015 . S
C493 C64 1.865 . S
C515 C170 2.031 1_565 S
C511 C28 1.891 . S
C529 C40 1.897 . S
C533 C247 2.044 . S
C547 C4 1.877 . S
C551 C338 2.025 . S
C565 C16 1.863 . S
C569 C422 2.012 1_655 S
C587 C154 0.631 1_455 S
C583 C69 0.587 . S
C605 C249 0.613 . S
C601 C81 0.557 . S
C623 C322 0.632 . S
C619 C93 0.585 . S
C637 C57 0.580 . S
C641 C406 0.600 . S
C655 C21 0.601 . S
C659 C165 0.602 1_554 S
C677 C238 0.599 . S
C673 C33 0.559 . S
C695 C333 0.594 1_554 S
C691 C45 0.600 . S
C709 C9 0.558 . S
C713 C417 0.616 1_554 S
C727 C66 1.931 . S
C731 C163 2.121 . S
C745 C78 1.931 . S
C749 C254 2.138 . S
C767 C331 2.138 . S
C763 C90 1.946 . S
C785 C415 2.146 . S
C781 C54 1.962 . S
C799 C18 1.923 . S
C803 C152 2.121 . S
C821 C243 2.138 1_565 S
C817 C30 1.930 . S
C839 C320 2.139 . S
C835 C42 1.940 . S
C853 C6 1.947 . S
C857 C404 2.144 . S
