# Generated by pormake.
# Topology pyr, (3,6)-cn, num edge types: 1
# Building blocks:
#     Node 0, Type 0, BuildingBlock: VETTIZ_charged_linker_0, # of connection points: 3
#     Node 1, Type 0, BuildingBlock: VETTIZ_charged_linker_0, # of connection points: 3
#     Node 2, Type 0, BuildingBlock: VETTIZ_charged_linker_0, # of connection points: 3
#     Node 3, Type 0, BuildingBlock: VETTIZ_charged_linker_0, # of connection points: 3
#     Node 4, Type 0, BuildingBlock: VETTIZ_charged_linker_0, # of connection points: 3
#     Node 5, Type 0, BuildingBlock: VETTIZ_charged_linker_0, # of connection points: 3
#     Node 6, Type 0, BuildingBlock: VETTIZ_charged_linker_0, # of connection points: 3
#     Node 7, Type 0, BuildingBlock: VETTIZ_charged_linker_0, # of connection points: 3
#     Node 8, Type 1, BuildingBlock: MIDCAF_clean_sbu_0, # of connection points: 6
#     Node 9, Type 1, BuildingBlock: MIDCAF_clean_sbu_0, # of connection points: 6
#     Node 10, Type 1, BuildingBlock: MIDCAF_clean_sbu_0, # of connection points: 6
#     Node 11, Type 1, BuildingBlock: MIDCAF_clean_sbu_0, # of connection points: 6
#     Edge 12, Type (0, 1), BuildingBlock: EZIPEK_clean_linker_0, # of connection points: 2
#     Edge 13, Type (0, 1), BuildingBlock: EZIPEK_clean_linker_0, # of connection points: 2
#     Edge 14, Type (0, 1), BuildingBlock: EZIPEK_clean_linker_0, # of connection points: 2
#     Edge 15, Type (0, 1), BuildingBlock: EZIPEK_clean_linker_0, # of connection points: 2
#     Edge 16, Type (0, 1), BuildingBlock: EZIPEK_clean_linker_0, # of connection points: 2
#     Edge 17, Type (0, 1), BuildingBlock: EZIPEK_clean_linker_0, # of connection points: 2
#     Edge 18, Type (0, 1), BuildingBlock: EZIPEK_clean_linker_0, # of connection points: 2
#     Edge 19, Type (0, 1), BuildingBlock: EZIPEK_clean_linker_0, # of connection points: 2
#     Edge 20, Type (0, 1), BuildingBlock: EZIPEK_clean_linker_0, # of connection points: 2
#     Edge 21, Type (0, 1), BuildingBlock: EZIPEK_clean_linker_0, # of connection points: 2
#     Edge 22, Type (0, 1), BuildingBlock: EZIPEK_clean_linker_0, # of connection points: 2
#     Edge 23, Type (0, 1), BuildingBlock: EZIPEK_clean_linker_0, # of connection points: 2
#     Edge 24, Type (0, 1), BuildingBlock: EZIPEK_clean_linker_0, # of connection points: 2
#     Edge 25, Type (0, 1), BuildingBlock: EZIPEK_clean_linker_0, # of connection points: 2
#     Edge 26, Type (0, 1), BuildingBlock: EZIPEK_clean_linker_0, # of connection points: 2
#     Edge 27, Type (0, 1), BuildingBlock: EZIPEK_clean_linker_0, # of connection points: 2
#     Edge 28, Type (0, 1), BuildingBlock: EZIPEK_clean_linker_0, # of connection points: 2
#     Edge 29, Type (0, 1), BuildingBlock: EZIPEK_clean_linker_0, # of connection points: 2
#     Edge 30, Type (0, 1), BuildingBlock: EZIPEK_clean_linker_0, # of connection points: 2
#     Edge 31, Type (0, 1), BuildingBlock: EZIPEK_clean_linker_0, # of connection points: 2
#     Edge 32, Type (0, 1), BuildingBlock: EZIPEK_clean_linker_0, # of connection points: 2
#     Edge 33, Type (0, 1), BuildingBlock: EZIPEK_clean_linker_0, # of connection points: 2
#     Edge 34, Type (0, 1), BuildingBlock: EZIPEK_clean_linker_0, # of connection points: 2
#     Edge 35, Type (0, 1), BuildingBlock: EZIPEK_clean_linker_0, # of connection points: 2
# Relax obj value: 0.019
# Max RMSD: 0.063
# Mean RMSD: 0.021
data_MOF--net-pry--node1-MIDCAF_clean_sbu_0--node2-VETTIZ_charged_linker_0--edge1-EZIPEK_clean_linker_0
_symmetry_space_group_name_H-M    P1
_symmetry_Int_Tables_number       1
_symmetry_cell_setting            triclinic
loop_
_symmetry_equiv_pos_as_xyz
'x, y, z'
_cell_length_a     33.973398
_cell_length_b     33.995238
_cell_length_c     33.997022
_cell_angle_alpha  89.933085
_cell_angle_beta   90.007835
_cell_angle_gamma 90.075791
loop_
_atom_site_label
_atom_site_type_symbol
_atom_site_fract_x
_atom_site_fract_y
_atom_site_fract_z
_atom_type_partial_charge
C0 C 0.1704 0.1673 0.34105 0.0
C1 C 0.13655 0.18291 0.35859 0.0
C2 C 0.12169 0.21925 0.34541 0.0
C3 C 0.1725 0.22208 0.29514 0.0
C4 C 0.18779 0.18721 0.30948 0.0
C5 C 0.22202 0.17276 0.28562 0.0
H6 H 0.33824 0.18938 0.12538 0.0
C7 C 0.19581 0.23339 0.26001 0.0
C8 C 0.22512 0.20479 0.25468 0.0
H9 H 0.33213 0.09423 0.20941 0.0
H10 H 0.28597 0.13093 0.24864 0.0
H11 H 0.33011 0.265 0.1889 0.0
H12 H 0.24803 0.19744 0.11982 0.0
H13 H 0.2331 0.24669 0.11741 0.0
H14 H 0.28051 0.23302 0.09812 0.0
H15 H 0.32704 0.26919 0.13634 0.0
H16 H 0.2958 0.29783 0.16828 0.0
C17 C 0.25872 0.17185 0.31265 0.0
C18 C 0.21069 0.13232 0.26755 0.0
C19 C 0.15179 0.34776 0.17426 0.0
C20 C 0.1657 0.36285 0.13841 0.0
C21 C 0.20128 0.34869 0.12276 0.0
C22 C 0.22188 0.31835 0.14175 0.0
C23 C 0.20645 0.30182 0.17648 0.0
C24 C 0.17255 0.31733 0.19277 0.0
C25 C 0.16051 0.29618 0.2298 0.0
C26 C 0.19203 0.26466 0.23244 0.0
C27 C 0.21868 0.26787 0.20091 0.0
C28 C 0.16301 0.32556 0.26448 0.0
C29 C 0.11903 0.27836 0.22319 0.0
C30 C 0.3276 0.17713 0.15283 0.0
C31 C 0.3391 0.13917 0.16471 0.0
C32 C 0.32398 0.12358 0.2 0.0
C33 C 0.29682 0.14479 0.22246 0.0
C34 C 0.28359 0.18156 0.20895 0.0
C35 C 0.29922 0.19739 0.17489 0.0
C36 C 0.27879 0.23491 0.16308 0.0
C37 C 0.24859 0.23907 0.19583 0.0
C38 C 0.25173 0.20778 0.22262 0.0
C39 C 0.30937 0.26867 0.16383 0.0
C40 C 0.2592 0.22812 0.12241 0.0
H41 H 0.12654 0.26617 0.30437 0.0
H42 H 0.18199 0.13917 0.35055 0.0
H43 H 0.17825 0.12926 0.26413 0.0
H44 H 0.22228 0.12831 0.23743 0.0
H45 H 0.22089 0.10761 0.28635 0.0
H46 H 0.25939 0.19813 0.33212 0.0
H47 H 0.25851 0.14533 0.33176 0.0
H48 H 0.2867 0.17282 0.29616 0.0
H49 H 0.12447 0.35839 0.18674 0.0
H50 H 0.21234 0.36025 0.09518 0.0
H51 H 0.2484 0.30813 0.12804 0.0
H52 H 0.18752 0.34687 0.26009 0.0
H53 H 0.13536 0.34271 0.26737 0.0
H54 H 0.16961 0.31101 0.2928 0.0
H55 H 0.11651 0.26589 0.19304 0.0
H56 H 0.11227 0.25371 0.24317 0.0
H57 H 0.09583 0.30112 0.22648 0.0
H58 H 0.09544 0.23148 0.35869 0.0
C59 C 0.13964 0.23905 0.31381 0.0
C60 C 0.20096 0.86642 0.65316 0.0
C61 C 0.18196 0.89797 0.6717 0.0
C62 C 0.19298 0.90868 0.71011 0.0
C63 C 0.24343 0.85811 0.71004 0.0
C64 C 0.23148 0.84691 0.67281 0.0
C65 C 0.25619 0.81411 0.65643 0.0
H66 H 0.4095 0.68863 0.6771 0.0
C67 C 0.27736 0.8332 0.72126 0.0
C68 C 0.28456 0.80695 0.69021 0.0
H69 H 0.3384 0.7095 0.57393 0.0
H70 H 0.29765 0.75482 0.61042 0.0
H71 H 0.42063 0.77547 0.69215 0.0
H72 H 0.3388 0.69571 0.74687 0.0
H73 H 0.36044 0.72487 0.78391 0.0
H74 H 0.3911 0.69343 0.75418 0.0
H75 H 0.43557 0.74234 0.73041 0.0
H76 H 0.41645 0.79064 0.74109 0.0
C77 C 0.27754 0.8295 0.61906 0.0
C78 C 0.22909 0.77821 0.64923 0.0
C79 C 0.35636 0.86537 0.84378 0.0
C80 C 0.3912 0.84967 0.85937 0.0
C81 C 0.40625 0.81431 0.84411 0.0
C82 C 0.38809 0.79612 0.81181 0.0
C83 C 0.35486 0.81379 0.79449 0.0
C84 C 0.33871 0.84705 0.81137 0.0
C85 C 0.30341 0.86177 0.78905 0.0
C86 C 0.30227 0.83311 0.75484 0.0
C87 C 0.33265 0.80525 0.75802 0.0
C88 C 0.312 0.9044 0.77528 0.0
C89 C 0.26675 0.85764 0.81587 0.0
C90 C 0.38449 0.70233 0.66284 0.0
C91 C 0.37667 0.6952 0.62285 0.0
C92 C 0.34466 0.71435 0.60481 0.0
C93 C 0.32131 0.7409 0.62597 0.0
C94 C 0.33079 0.74941 0.66531 0.0
C95 C 0.36198 0.73027 0.6831 0.0
C96 C 0.37098 0.74673 0.7232 0.0
C97 C 0.3394 0.77813 0.72695 0.0
C98 C 0.31571 0.77924 0.69311 0.0
C99 C 0.41309 0.76455 0.7221 0.0
C100 C 0.36536 0.71356 0.75388 0.0
H101 H 0.23122 0.89866 0.75845 0.0
H102 H 0.19305 0.858 0.62346 0.0
H103 H 0.20861 0.77398 0.67443 0.0
H104 H 0.24543 0.75031 0.64657 0.0
H105 H 0.21103 0.78245 0.62232 0.0
H106 H 0.28135 0.86202 0.61984 0.0
H107 H 0.26073 0.82227 0.59198 0.0
H108 H 0.30784 0.81796 0.61626 0.0
H109 H 0.34437 0.89254 0.85528 0.0
H110 H 0.43307 0.80189 0.85604 0.0
H111 H 0.40147 0.76986 0.8006 0.0
H112 H 0.34274 0.90699 0.76425 0.0
H113 H 0.30843 0.92558 0.79987 0.0
H114 H 0.29322 0.91399 0.75065 0.0
H115 H 0.27004 0.83264 0.83678 0.0
H116 H 0.23969 0.85081 0.79912 0.0
H117 H 0.26197 0.88468 0.83354 0.0
H118 H 0.17857 0.93308 0.72463 0.0
C119 C 0.22356 0.88877 0.72949 0.0
C120 C 0.68433 0.19094 0.89543 0.0
C121 C 0.64947 0.17127 0.88508 0.0
C122 C 0.63076 0.18039 0.84932 0.0
C123 C 0.67866 0.23173 0.83691 0.0
C124 C 0.69825 0.22125 0.87103 0.0
C125 C 0.73298 0.2476 0.87906 0.0
H126 H 0.82117 0.42228 0.84788 0.0
C127 C 0.69811 0.26696 0.82038 0.0
C128 C 0.73024 0.27624 0.84474 0.0
H129 H 0.85363 0.33313 0.9323 0.0
H130 H 0.80684 0.28771 0.90309 0.0
H131 H 0.72831 0.40855 0.84677 0.0
H132 H 0.8222 0.36356 0.77542 0.0
H133 H 0.78067 0.36354 0.74463 0.0
H134 H 0.79901 0.40951 0.76413 0.0
H135 H 0.75787 0.4377 0.81397 0.0
H136 H 0.71461 0.4127 0.79692 0.0
C137 C 0.72601 0.26808 0.91913 0.0
C138 C 0.77099 0.22252 0.87732 0.0
C139 C 0.635 0.33997 0.70552 0.0
C140 C 0.64444 0.37569 0.68692 0.0
C141 C 0.67887 0.39593 0.69775 0.0
C142 C 0.703 0.3817 0.72787 0.0
C143 C 0.69243 0.34695 0.74762 0.0
C144 C 0.65948 0.32616 0.7358 0.0
C145 C 0.65314 0.28981 0.76036 0.0
C146 C 0.68783 0.29221 0.78861 0.0
C147 C 0.71023 0.32614 0.78133 0.0
C148 C 0.61311 0.29425 0.7818 0.0
C149 C 0.65596 0.25345 0.73309 0.0
C150 C 0.81839 0.39278 0.85968 0.0
C151 C 0.84018 0.38132 0.89281 0.0
C152 C 0.83666 0.34251 0.907 0.0
C153 C 0.80935 0.31644 0.89025 0.0
C154 C 0.78567 0.32929 0.85885 0.0
C155 C 0.79185 0.36617 0.84285 0.0
C156 C 0.76626 0.37368 0.80759 0.0
C157 C 0.74215 0.33603 0.80639 0.0
C158 C 0.75292 0.31059 0.83712 0.0
C159 C 0.74041 0.41016 0.81639 0.0
C160 C 0.79319 0.37808 0.77097 0.0
H161 H 0.62922 0.21656 0.79861 0.0
H162 H 0.69918 0.18411 0.92278 0.0
H163 H 0.7672 0.19644 0.85794 0.0
H164 H 0.79605 0.23888 0.86441 0.0
H165 H 0.77937 0.2116 0.90697 0.0
H166 H 0.69554 0.27992 0.92074 0.0
H167 H 0.72989 0.24701 0.94382 0.0
H168 H 0.74565 0.29331 0.92433 0.0
H169 H 0.60861 0.32397 0.69749 0.0
H170 H 0.68648 0.42343 0.68348 0.0
H171 H 0.72836 0.39891 0.73533 0.0
H172 H 0.6083 0.32528 0.79103 0.0
H173 H 0.58828 0.28577 0.7623 0.0
H174 H 0.61121 0.27708 0.80926 0.0
H175 H 0.67794 0.25837 0.70932 0.0
H176 H 0.66632 0.22684 0.74864 0.0
H177 H 0.62721 0.24709 0.71887 0.0
H178 H 0.60399 0.1652 0.84092 0.0
C179 C 0.6453 0.21035 0.82504 0.0
C180 C 0.877 0.85289 0.36141 0.0
C181 C 0.86299 0.86712 0.39746 0.0
C182 C 0.82787 0.85181 0.41323 0.0
C183 C 0.82401 0.80494 0.35951 0.0
C184 C 0.85718 0.82184 0.343 0.0
C185 C 0.87014 0.80106 0.30621 0.0
H186 H 0.85716 0.64223 0.18767 0.0
C187 C 0.81331 0.77025 0.33547 0.0
C188 C 0.84006 0.76812 0.30397 0.0
H189 H 0.93851 0.73933 0.17855 0.0
H190 H 0.90535 0.77272 0.23227 0.0
H191 H 0.86041 0.63397 0.27534 0.0
H192 H 0.77712 0.69693 0.20421 0.0
H193 H 0.75032 0.6719 0.24079 0.0
H194 H 0.77967 0.64423 0.20636 0.0
H195 H 0.82038 0.60944 0.25124 0.0
H196 H 0.81539 0.62972 0.30004 0.0
C197 C 0.9124 0.78526 0.31297 0.0
C198 C 0.86625 0.83005 0.27124 0.0
C199 C 0.7079 0.675 0.38377 0.0
C200 C 0.69714 0.63701 0.37137 0.0
C201 C 0.7132 0.62186 0.33639 0.0
C202 C 0.74045 0.64368 0.31453 0.0
C203 C 0.75255 0.68077 0.32822 0.0
C204 C 0.73612 0.69606 0.36212 0.0
C205 C 0.75486 0.73455 0.37369 0.0
C206 C 0.78487 0.73996 0.34092 0.0
C207 C 0.78327 0.70834 0.31444 0.0
C208 C 0.77467 0.72883 0.41439 0.0
C209 C 0.72284 0.76686 0.37272 0.0
C210 C 0.8672 0.67105 0.19691 0.0
C211 C 0.90022 0.68843 0.1793 0.0
C212 C 0.91298 0.72571 0.19196 0.0
C213 C 0.89382 0.74478 0.22318 0.0
C214 C 0.86188 0.72611 0.24197 0.0
C215 C 0.84857 0.69028 0.22809 0.0
C216 C 0.81487 0.67432 0.25187 0.0
C217 C 0.81002 0.70644 0.28242 0.0
C218 C 0.83786 0.73647 0.27681 0.0
C219 C 0.82802 0.6347 0.27049 0.0
C220 C 0.77848 0.67131 0.22458 0.0
H221 H 0.7821 0.80955 0.40816 0.0
H222 H 0.90402 0.86436 0.34891 0.0
H223 H 0.84115 0.85058 0.27571 0.0
H224 H 0.85969 0.81503 0.24317 0.0
H225 H 0.8933 0.8481 0.26777 0.0
H226 H 0.91564 0.77358 0.34339 0.0
H227 H 0.93461 0.80893 0.30895 0.0
H228 H 0.92009 0.76045 0.29361 0.0
H229 H 0.69624 0.687 0.41087 0.0
H230 H 0.70528 0.5926 0.32652 0.0
H231 H 0.75196 0.63022 0.28846 0.0
H232 H 0.78753 0.69884 0.41701 0.0
H233 H 0.75302 0.7324 0.43861 0.0
H234 H 0.79963 0.74893 0.41948 0.0
H235 H 0.70234 0.76216 0.34763 0.0
H236 H 0.73514 0.79661 0.36816 0.0
H237 H 0.70512 0.76664 0.40018 0.0
H238 H 0.81677 0.86268 0.44104 0.0
C239 C 0.80815 0.82084 0.39429 0.0
C240 C 0.92697 0.8072 0.99647 0.0
C241 C 0.95758 0.78236 0.98421 0.0
C242 C 0.98401 0.79531 0.95512 0.0
C243 C 0.94617 0.85493 0.9467 0.0
C244 C 0.92159 0.84324 0.97701 0.0
C245 C 0.88799 0.87144 0.98287 0.0
H246 H 0.77494 0.01714 0.90939 0.0
C247 C 0.92981 0.89111 0.92909 0.0
C248 C 0.89586 0.90121 0.95032 0.0
H249 H 0.75734 0.94966 0.01556 0.0
H250 H 0.82131 0.91963 0.00798 0.0
H251 H 0.81021 0.94903 0.85835 0.0
H252 H 0.86835 0.03749 0.92774 0.0
H253 H 0.89737 0.0304 0.88562 0.0
H254 H 0.84757 0.0483 0.88044 0.0
H255 H 0.81132 1.00007 0.84479 0.0
H256 H 0.85009 0.96694 0.83073 0.0
C257 C 0.84911 0.84846 0.97616 0.0
C258 C 0.89194 0.89005 0.02429 0.0
C259 C 0.98803 0.94338 0.80151 0.0
C260 C 0.97518 0.97236 0.77507 0.0
C261 C 0.94304 0.99637 0.78512 0.0
C262 C 0.92269 0.99056 0.82044 0.0
C263 C 0.93434 0.96005 0.84576 0.0
C264 C 0.96696 0.93754 0.83652 0.0
C265 C 0.97401 0.90553 0.86622 0.0
C266 C 0.9404 0.91267 0.89485 0.0
C267 C 0.91714 0.94449 0.88254 0.0
C268 C 0.97024 0.86536 0.84481 0.0
C269 C 0.01457 0.91294 0.88567 0.0
C270 C 0.78544 0.99639 0.93118 0.0
C271 C 0.76142 0.98529 0.96291 0.0
C272 C 0.77563 0.95833 0.9909 0.0
C273 C 0.81253 0.94075 0.98626 0.0
C274 C 0.83523 0.9499 0.95299 0.0
C275 C 0.82237 0.97842 0.92693 0.0
C276 C 0.85109 0.9848 0.89384 0.0
C277 C 0.88264 0.95468 0.90383 0.0
C278 C 0.87271 0.93381 0.9381 0.0
C279 C 0.82981 0.97503 0.8547 0.0
C280 C 0.86689 0.02749 0.89662 0.0
H281 H 0.99914 0.83932 0.91376 0.0
H282 H 0.90642 0.79763 0.01888 0.0
H283 H 0.92318 0.89092 0.03409 0.0
H284 H 0.88229 0.92113 0.02488 0.0
H285 H 0.87509 0.87306 0.04658 0.0
H286 H 0.8517 0.8289 0.95007 0.0
H287 H 0.84196 0.82973 0.00199 0.0
H288 H 0.82365 0.86751 0.97003 0.0
H289 H 0.01267 0.92457 0.79417 0.0
H290 H 0.93308 0.01902 0.765 0.0
H291 H 0.89796 0.00929 0.82607 0.0
H292 H 0.94928 0.86717 0.81971 0.0
H293 H 0.99905 0.85561 0.83287 0.0
H294 H 0.95804 0.84188 0.86367 0.0
H295 H 0.01962 0.94496 0.89019 0.0
H296 H 0.01695 0.89975 0.9153 0.0
H297 H 0.03885 0.90169 0.86694 0.0
H298 H 0.00793 0.77649 0.9457 0.0
C299 C 0.97867 0.8316 0.93651 0.0
C300 C 0.75204 0.07822 0.46265 0.0
C301 C 0.76976 0.04676 0.44282 0.0
C302 C 0.74998 0.02866 0.41133 0.0
C303 C 0.69693 0.07615 0.41738 0.0
C304 C 0.71575 0.09242 0.44953 0.0
C305 C 0.69425 0.12743 0.46578 0.0
H306 H 0.55335 0.26536 0.44346 0.0
C307 C 0.66158 0.10021 0.40918 0.0
C308 C 0.65966 0.13002 0.43769 0.0
H309 H 0.64092 0.25753 0.53502 0.0
H310 H 0.66276 0.19462 0.50946 0.0
H311 H 0.52665 0.17363 0.44792 0.0
H312 H 0.60796 0.23543 0.37263 0.0
H313 H 0.57798 0.20495 0.34335 0.0
H314 H 0.55573 0.24352 0.37173 0.0
H315 H 0.51 0.20367 0.40782 0.0
H316 H 0.52277 0.15255 0.40094 0.0
C317 C 0.68092 0.11759 0.50826 0.0
C318 C 0.72183 0.16368 0.46245 0.0
C319 C 0.58173 0.07412 0.28582 0.0
C320 C 0.5486 0.09229 0.26922 0.0
C321 C 0.53029 0.12347 0.28932 0.0
C322 C 0.54579 0.13728 0.32505 0.0
C323 C 0.57976 0.11951 0.34081 0.0
C324 C 0.59663 0.08797 0.32154 0.0
C325 C 0.63184 0.07192 0.34294 0.0
C326 C 0.63365 0.09922 0.37814 0.0
C327 C 0.60344 0.12738 0.37651 0.0
C328 C 0.62281 0.02893 0.35523 0.0
C329 C 0.66816 0.07665 0.31574 0.0
C330 C 0.57696 0.24967 0.45805 0.0
C331 C 0.59584 0.26604 0.4909 0.0
C332 C 0.62624 0.24514 0.50959 0.0
C333 C 0.63887 0.20887 0.49455 0.0
C334 C 0.621 0.19362 0.46041 0.0
C335 C 0.58987 0.21348 0.44337 0.0
C336 C 0.57406 0.19265 0.40764 0.0
C337 C 0.60152 0.15753 0.40537 0.0
C338 C 0.62917 0.1585 0.4361 0.0
C339 C 0.53104 0.18009 0.41612 0.0
C340 C 0.57884 0.22043 0.3718 0.0
H341 H 0.70009 0.02886 0.37379 0.0
H342 H 0.76698 0.09248 0.48693 0.0
H343 H 0.73864 0.16295 0.43437 0.0
H344 H 0.70598 0.19193 0.46191 0.0
H345 H 0.74348 0.16425 0.48694 0.0
H346 H 0.67443 0.08565 0.51155 0.0
H347 H 0.70413 0.12523 0.52998 0.0
H348 H 0.6532 0.13247 0.51646 0.0
H349 H 0.59586 0.04968 0.27106 0.0
H350 H 0.50435 0.13734 0.27705 0.0
H351 H 0.53099 0.16147 0.33884 0.0
H352 H 0.59094 0.02491 0.36168 0.0
H353 H 0.63077 0.00796 0.3315 0.0
H354 H 0.63794 0.02026 0.38269 0.0
H355 H 0.66703 0.10517 0.29968 0.0
H356 H 0.69632 0.07725 0.33183 0.0
H357 H 0.66926 0.05278 0.29348 0.0
H358 H 0.76351 0.00435 0.39584 0.0
C359 C 0.71346 0.04316 0.39855 0.0
C360 C 0.48701 0.58596 0.23178 0.0
C361 C 0.47339 0.55613 0.25694 0.0
C362 C 0.44258 0.53139 0.24461 0.0
C363 C 0.43625 0.5688 0.18445 0.0
C364 C 0.46768 0.59203 0.19583 0.0
C365 C 0.47527 0.62495 0.1672 0.0
H366 H 0.40974 0.73564 0.01576 0.0
C367 C 0.42037 0.58479 0.14738 0.0
C368 C 0.44325 0.61751 0.13681 0.0
H369 H 0.50983 0.75617 0.09113 0.0
H370 H 0.50161 0.6921 0.12083 0.0
H371 H 0.3544 0.70082 0.08218 0.0
H372 H 0.42886 0.64285 0.99789 0.0
H373 H 0.38785 0.61209 0.00479 0.0
H374 H 0.38105 0.66088 0.9847 0.0
H375 H 0.34564 0.70143 0.03007 0.0
H376 H 0.32756 0.66225 0.06048 0.0
C377 C 0.46925 0.66435 0.18941 0.0
C378 C 0.51694 0.61936 0.14962 0.0
C379 C 0.29077 0.53226 0.09513 0.0
C380 C 0.26666 0.54453 0.06403 0.0
C381 C 0.28091 0.57214 0.03665 0.0
C382 C 0.3179 0.58954 0.04171 0.0
C383 C 0.34048 0.57957 0.07482 0.0
C384 C 0.32763 0.55016 0.09991 0.0
C385 C 0.35565 0.54346 0.1334 0.0
C386 C 0.38681 0.57439 0.12483 0.0
C387 C 0.37737 0.59595 0.09091 0.0
C388 C 0.33326 0.55185 0.17231 0.0
C389 C 0.37224 0.50115 0.1298 0.0
C390 C 0.4301 0.72571 0.03818 0.0
C391 C 0.46011 0.75066 0.05173 0.0
C392 C 0.48635 0.73724 0.08075 0.0
C393 C 0.48132 0.70026 0.09808 0.0
C394 C 0.44927 0.67677 0.0867 0.0
C395 C 0.42507 0.68893 0.05629 0.0
C396 C 0.39219 0.66021 0.04874 0.0
C397 C 0.40005 0.62951 0.08038 0.0
C398 C 0.43323 0.63974 0.10282 0.0
C399 C 0.35272 0.68205 0.05543 0.0
C400 C 0.39735 0.64317 0.00681 0.0
H401 H 0.40032 0.518 0.20103 0.0
H402 H 0.51086 0.60514 0.24074 0.0
H403 H 0.52395 0.58758 0.14615 0.0
H404 H 0.51978 0.63186 0.11973 0.0
H405 H 0.53981 0.63246 0.16896 0.0
H406 H 0.44502 0.6618 0.2113 0.0
H407 H 0.49631 0.67303 0.20556 0.0
H408 H 0.46023 0.68881 0.17013 0.0
H409 H 0.28012 0.51112 0.11651 0.0
H410 H 0.26245 0.58171 0.01247 0.0
H411 H 0.32668 0.61139 0.02068 0.0
H412 H 0.31234 0.57674 0.16855 0.0
H413 H 0.31598 0.52578 0.18187 0.0
H414 H 0.35264 0.56106 0.19663 0.0
H415 H 0.37406 0.49181 0.09848 0.0
H416 H 0.40274 0.49865 0.1409 0.0
H417 H 0.35324 0.47959 0.14541 0.0
H418 H 0.43215 0.50796 0.2636 0.0
C419 C 0.42415 0.53734 0.20836 0.0
C420 C 0.07933 0.29097 0.57974 0.0
C421 C 0.09894 0.27397 0.54772 0.0
C422 C 0.13091 0.2937 0.53036 0.0
C423 C 0.12566 0.34525 0.57949 0.0
C424 C 0.09306 0.32655 0.59507 0.0
C425 C 0.07668 0.34763 0.6303 0.0
H426 H 0.09702 0.48909 0.76829 0.0
C427 C 0.13405 0.37999 0.60425 0.0
C428 C 0.10519 0.38183 0.63374 0.0
H429 H 0.00504 0.40195 0.75905 0.0
H430 H 0.03277 0.37857 0.69763 0.0
H431 H 0.09497 0.51477 0.67805 0.0
H432 H 0.16967 0.43281 0.73961 0.0
H433 H 0.19902 0.46418 0.71047 0.0
H434 H 0.16945 0.48481 0.74899 0.0
H435 H 0.13548 0.53117 0.7077 0.0
H436 H 0.1419 0.51802 0.6566 0.0
C437 C 0.03444 0.36158 0.62028 0.0
C438 C 0.07928 0.31945 0.6661 0.0
C439 C 0.25918 0.4579 0.58125 0.0
C440 C 0.27553 0.49125 0.59922 0.0
C441 C 0.25461 0.51033 0.62941 0.0
C442 C 0.21848 0.49514 0.64267 0.0
C443 C 0.20303 0.4609 0.62513 0.0
C444 C 0.22295 0.44353 0.59429 0.0
C445 C 0.2013 0.40886 0.57749 0.0
C446 C 0.16543 0.40755 0.60395 0.0
C447 C 0.16687 0.43764 0.63223 0.0
C448 C 0.19026 0.41835 0.53423 0.0
C449 C 0.22766 0.37205 0.58263 0.0
C450 C 0.08305 0.46496 0.75283 0.0
C451 C 0.04942 0.44668 0.76839 0.0
C452 C 0.0313 0.41592 0.7475 0.0
C453 C 0.04748 0.4025 0.71201 0.0
C454 C 0.08206 0.42013 0.69739 0.0
C455 C 0.09882 0.45133 0.71738 0.0
C456 C 0.1349 0.46707 0.69705 0.0
C457 C 0.13761 0.43958 0.66201 0.0
C458 C 0.10678 0.41198 0.66256 0.0
C459 C 0.12678 0.51009 0.68431 0.0
C460 C 0.17029 0.46229 0.72536 0.0
H461 H 0.16948 0.34275 0.53232 0.0
H462 H 0.05458 0.27611 0.59334 0.0
H463 H 0.10727 0.30248 0.66544 0.0
H464 H 0.07955 0.33486 0.69461 0.0
H465 H 0.0546 0.29799 0.66599 0.0
H466 H 0.03157 0.36863 0.58843 0.0
H467 H 0.01235 0.33851 0.62733 0.0
H468 H 0.0264 0.38912 0.63554 0.0
H469 H 0.27437 0.44334 0.55733 0.0
H470 H 0.26653 0.53662 0.64292 0.0
H471 H 0.20405 0.51046 0.66616 0.0
H472 H 0.1865 0.45054 0.52965 0.0
H473 H 0.21343 0.40817 0.51359 0.0
H474 H 0.16165 0.40543 0.52552 0.0
H475 H 0.24194 0.37208 0.6121 0.0
H476 H 0.2112 0.34414 0.58118 0.0
H477 H 0.25135 0.37142 0.56012 0.0
H478 H 0.14617 0.28075 0.50558 0.0
C479 C 0.14439 0.32941 0.5461 0.0
Zn480 Zn 0.96421 0.08143 0.57238 0.0
Zn481 Zn 0.06044 0.98545 0.48086 0.0
Zn482 Zn 0.01282 0.03219 0.52817 0.0
C483 C 0.07149 0.06573 0.46135 0.0
C484 C 0.9803 0.96555 0.46903 0.0
O485 O 0.01919 0.01424 0.58968 0.0
O486 O 0.97501 0.05053 0.62121 0.0
C487 C 0.02391 0.12647 0.53674 0.0
O488 O 0.04986 0.07062 0.492 0.0
O489 O 0.07868 0.03162 0.44846 0.0
O490 O 0.01461 0.95296 0.46209 0.0
O491 O 0.97489 0.99587 0.49096 0.0
O492 O 0.99609 0.12954 0.56117 0.0
O493 O 0.03241 0.09315 0.521 0.0
O494 O 0.95193 0.02467 0.50826 0.0
O495 O 0.91664 0.06941 0.53999 0.0
C496 C 0.91907 0.04223 0.51482 0.0
O497 O 0.04805 0.99534 0.56755 0.0
O498 O 0.09177 0.96759 0.52784 0.0
C499 C 0.00081 0.02379 0.62133 0.0
C500 C 0.07875 0.97392 0.56211 0.0
Zn501 Zn 0.47047 0.04346 0.98048 0.0
Zn502 Zn 0.56157 0.95939 0.07339 0.0
Zn503 Zn 0.5131 0.00258 0.02999 0.0
C504 C 0.60697 0.99493 0.01631 0.0
C505 C 0.50687 0.90835 0.04222 0.0
O506 O 0.47033 0.0345 0.06839 0.0
O507 O 0.43279 0.05946 0.02206 0.0
C508 C 0.54509 0.07089 0.97019 0.0
O509 O 0.57445 0.01369 0.01102 0.0
O510 O 0.60878 0.96654 0.04014 0.0
O511 O 0.53197 0.9091 0.06957 0.0
O512 O 0.49826 0.93982 0.02301 0.0
O513 O 0.51063 0.08144 0.96136 0.0
O514 O 0.55084 0.04128 0.99319 0.0
O515 O 0.47987 0.96067 0.99362 0.0
O516 O 0.45532 0.99802 0.94626 0.0
C517 C 0.46088 0.96438 0.96106 0.0
O518 O 0.50477 0.02347 0.09042 0.0
O519 O 0.55529 0.99431 0.11964 0.0
C520 C 0.43803 0.05162 0.05799 0.0
C521 C 0.52744 0.01885 0.12049 0.0
Zn522 Zn 0.55828 0.55108 0.54998 0.0
Zn523 Zn 0.46932 0.46193 0.47262 0.0
Zn524 Zn 0.5156 0.51072 0.50606 0.0
C525 C 0.52611 0.41577 0.5025 0.0
C526 C 0.49815 0.51407 0.41606 0.0
O527 O 0.47743 0.55774 0.53296 0.0
O528 O 0.52239 0.59571 0.55951 0.0
C529 C 0.56557 0.47897 0.58108 0.0
O530 O 0.53287 0.44901 0.51947 0.0
O531 O 0.50028 0.41309 0.47606 0.0
O532 O 0.4695 0.49127 0.42239 0.0
O533 O 0.52299 0.52211 0.44352 0.0
O534 O 0.57044 0.51364 0.59335 0.0
O535 O 0.54821 0.47278 0.54795 0.0
O536 O 0.55759 0.53765 0.46319 0.0
O537 O 0.59902 0.55819 0.5084 0.0
C538 C 0.59183 0.55127 0.47258 0.0
O539 O 0.45507 0.52365 0.52626 0.0
O540 O 0.42469 0.46869 0.50883 0.0
C541 C 0.48725 0.59104 0.54849 0.0
C542 C 0.42472 0.50079 0.52735 0.0
Zn543 Zn 0.06208 0.5764 0.96422 0.0
Zn544 Zn 0.97515 0.49188 0.0616 0.0
Zn545 Zn 0.01542 0.53174 0.00854 0.0
C546 C 0.05017 0.46409 0.06795 0.0
C547 C 0.94035 0.48168 0.98459 0.0
O548 O 1.00004 0.59467 0.01527 0.0
O549 O 0.03309 0.62668 0.96906 0.0
C550 C 0.10956 0.5395 0.01831 0.0
O551 O 0.05468 0.4932 0.04403 0.0
O552 O 0.01624 0.45403 0.0792 0.0
O553 O 0.9361 0.47569 0.02106 0.0
O554 O 0.97215 0.49846 0.97226 0.0
O555 O 0.1105 0.5686 0.99529 0.0
O556 O 0.07723 0.52072 0.02465 0.0
O557 O 0.00519 0.51107 0.94854 0.0
O558 O 0.05393 0.54203 0.91798 0.0
C559 C 0.02666 0.51677 0.9178 0.0
O560 O 0.98368 0.57383 0.0458 0.0
O561 O 0.96189 0.53796 0.09566 0.0
C562 C 0.00806 0.62659 0.99645 0.0
C563 C 0.96654 0.5711 0.07945 0.0
C564 C 0.08378 0.13377 0.37427 0.0
C565 C 0.11469 0.15855 0.38757 0.0
C566 C 0.11472 0.12516 0.45156 0.0
C567 C 0.08407 0.10027 0.43802 0.0
N568 N 0.03181 0.08804 0.39168 0.0
N569 N 0.15287 0.1848 0.44107 0.0
C570 C 0.06615 0.10691 0.40097 0.0
C571 C 0.12792 0.15655 0.42708 0.0
N572 N 0.07253 0.13457 0.33565 0.0
N573 N 0.13243 0.11761 0.48686 0.0
H574 H 0.16303 0.20793 0.42356 0.0
H575 H 0.1606 0.18739 0.4706 0.0
H576 H 0.12316 0.09512 0.5056 0.0
H577 H 0.15761 0.1321 0.49663 0.0
H578 H 0.05372 0.11383 0.32318 0.0
H579 H 0.08395 0.15445 0.31524 0.0
H580 H 0.01515 0.09464 0.36682 0.0
H581 H 0.01788 0.06839 0.41077 0.0
C582 C 0.44527 0.89762 0.87419 0.0
C583 C 0.41424 0.87325 0.88803 0.0
C584 C 0.41773 0.90454 0.95289 0.0
C585 C 0.44829 0.92926 0.93868 0.0
N586 N 0.49935 0.94103 0.89099 0.0
N587 N 0.37768 0.84618 0.94229 0.0
C588 C 0.46472 0.92305 0.90093 0.0
C589 C 0.40276 0.87425 0.92811 0.0
N590 N 0.45485 0.89799 0.83512 0.0
N591 N 0.40163 0.91137 0.98908 0.0
H592 H 0.36616 0.82392 0.92455 0.0
H593 H 0.37109 0.84283 0.97202 0.0
H594 H 0.41209 0.93304 0.00809 0.0
H595 H 0.37655 0.89713 0.99946 0.0
H596 H 0.47382 0.91861 0.82263 0.0
H597 H 0.44179 0.87948 0.81445 0.0
H598 H 0.51486 0.93472 0.86534 0.0
H599 H 0.51469 0.95931 0.91033 0.0
C600 C 0.58526 0.41679 0.67088 0.0
C601 C 0.61765 0.39401 0.65774 0.0
C602 C 0.61189 0.42232 0.59177 0.0
C603 C 0.58002 0.44572 0.60515 0.0
N604 N 0.52903 0.45696 0.65297 0.0
N605 N 0.6543 0.36621 0.60406 0.0
C606 C 0.56427 0.44016 0.64332 0.0
C607 C 0.62832 0.39373 0.61747 0.0
N608 N 0.57589 0.41776 0.70997 0.0
N609 N 0.62823 0.42923 0.55567 0.0
H610 H 0.66678 0.34507 0.62253 0.0
H611 H 0.66041 0.36192 0.57435 0.0
H612 H 0.61739 0.45022 0.53611 0.0
H613 H 0.65414 0.41603 0.54607 0.0
H614 H 0.5558 0.4375 0.72197 0.0
H615 H 0.58993 0.40037 0.73099 0.0
H616 H 0.51412 0.45107 0.67908 0.0
H617 H 0.51282 0.47385 0.63309 0.0
C618 C 0.95529 0.64209 0.16373 0.0
C619 C 0.92322 0.66524 0.15042 0.0
C620 C 0.92342 0.63078 0.08717 0.0
C621 C 0.95478 0.60695 0.101 0.0
N622 N 0.00844 0.59785 0.14638 0.0
N623 N 0.8838 0.68945 0.09689 0.0
C624 C 0.97329 0.61524 0.1374 0.0
C625 C 0.90971 0.66223 0.1111 0.0
N626 N 0.96728 0.6443 0.20207 0.0
N627 N 0.90531 0.62197 0.05237 0.0
H628 H 0.87325 0.71258 0.11407 0.0
H629 H 0.87566 0.6913 0.06741 0.0
H630 H 0.91467 0.59929 0.03401 0.0
H631 H 0.87965 0.63558 0.04267 0.0
H632 H 0.98712 0.62467 0.21469 0.0
H633 H 0.95557 0.66432 0.22211 0.0
H634 H 0.02533 0.60553 0.17076 0.0
H635 H 0.02267 0.57851 0.12728 0.0
C636 C 0.3467 0.10283 0.10056 0.0
C637 C 0.36241 0.11353 0.13787 0.0
C638 C 0.41523 0.06608 0.12773 0.0
C639 C 0.40728 0.06522 0.08706 0.0
N640 N 0.35637 0.07123 0.03754 0.0
N641 N 0.41427 0.10578 0.18617 0.0
C642 C 0.37027 0.08039 0.07409 0.0
C643 C 0.39748 0.09533 0.15125 0.0
N644 N 0.30835 0.11145 0.09169 0.0
N645 N 0.43437 0.03561 0.14506 0.0
H646 H 0.40308 0.12815 0.20391 0.0
H647 H 0.44128 0.09434 0.19531 0.0
H648 H 0.44172 0.01028 0.12943 0.0
H649 H 0.43616 0.03298 0.17559 0.0
H650 H 0.29393 0.10161 0.06656 0.0
H651 H 0.28933 0.12541 0.11123 0.0
H652 H 0.33403 0.0868 0.0235 0.0
H653 H 0.36634 0.04686 0.02186 0.0
C654 C 0.16563 0.95559 0.6286 0.0
C655 C 0.15283 0.92161 0.64929 0.0
C656 C 0.08822 0.92549 0.61725 0.0
C657 C 0.10143 0.95895 0.59608 0.0
N658 N 0.14752 0.01233 0.58921 0.0
N659 N 0.10007 0.87941 0.6707 0.0
C660 C 0.13854 0.9761 0.60429 0.0
C661 C 0.11335 0.90831 0.64607 0.0
N662 N 0.20413 0.96719 0.63077 0.0
N663 N 0.05253 0.90912 0.60842 0.0
H664 H 0.11804 0.86612 0.69176 0.0
H665 H 0.07071 0.87083 0.67258 0.0
H666 H 0.03325 0.92145 0.58797 0.0
H667 H 0.04279 0.88235 0.61967 0.0
H668 H 0.21637 0.98871 0.6127 0.0
H669 H 0.22472 0.95358 0.649 0.0
H670 H 0.17248 0.02826 0.59712 0.0
H671 H 0.12803 0.0282 0.57155 0.0
C672 C 0.85037 0.4237 0.95259 0.0
C673 C 0.86338 0.41121 0.91481 0.0
C674 C 0.91539 0.46094 0.91691 0.0
C675 C 0.90902 0.46577 0.95756 0.0
N676 N 0.85727 0.47102 0.00557 0.0
N677 N 0.90991 0.4175 0.86124 0.0
C678 C 0.87258 0.45255 0.97332 0.0
C679 C 0.89619 0.42988 0.89687 0.0
N680 N 0.81684 0.40812 0.96857 0.0
N681 N 0.93423 0.48953 0.89627 0.0
H682 H 0.89727 0.39423 0.84573 0.0
H683 H 0.93594 0.42835 0.84902 0.0
H684 H 0.94192 0.51618 0.90935 0.0
H685 H 0.93542 0.4895 0.86562 0.0
H686 H 0.80888 0.41156 0.99792 0.0
H687 H 0.79734 0.39044 0.95283 0.0
H688 H 0.82963 0.46507 0.01733 0.0
H689 H 0.87006 0.49629 0.01742 0.0
C690 C 0.63497 0.59802 0.38158 0.0
C691 C 0.67172 0.6114 0.39625 0.0
C692 C 0.66176 0.57145 0.45579 0.0
C693 C 0.6228 0.56299 0.44301 0.0
N694 N 0.58924 0.54423 0.38421 0.0
N695 N 0.72259 0.60777 0.44586 0.0
C696 C 0.61359 0.56953 0.40316 0.0
C697 C 0.686 0.59704 0.43294 0.0
N698 N 0.61984 0.61296 0.34749 0.0
N699 N 0.67674 0.55148 0.48735 0.0
H700 H 0.74281 0.62291 0.42843 0.0
H701 H 0.73267 0.60293 0.47435 0.0
H702 H 0.6615 0.5284 0.50074 0.0
H703 H 0.70563 0.55387 0.49718 0.0
H704 H 0.59149 0.6062 0.33779 0.0
H705 H 0.63407 0.63463 0.33101 0.0
H706 H 0.58459 0.54547 0.35391 0.0
H707 H 0.58055 0.51802 0.39758 0.0
C708 C 0.11587 0.3763 0.08556 0.0
C709 C 0.14086 0.3908 0.11575 0.0
C710 C 0.10935 0.45552 0.11149 0.0
C711 C 0.08452 0.44095 0.08128 0.0
N712 N 0.07076 0.39167 0.03239 0.0
N713 N 0.16825 0.44586 0.15086 0.0
C714 C 0.08999 0.40262 0.06599 0.0
C715 C 0.13986 0.43107 0.12652 0.0
N716 N 0.11552 0.33703 0.07686 0.0
N717 N 0.1025 0.49188 0.12712 0.0
H718 H 0.19072 0.42847 0.16248 0.0
H719 H 0.17159 0.47574 0.15668 0.0
H720 H 0.08061 0.51061 0.11656 0.0
H721 H 0.11681 0.50259 0.15199 0.0
H722 H 0.09467 0.32399 0.05858 0.0
H723 H 0.13442 0.31677 0.09003 0.0
H724 H 0.07645 0.36555 0.01747 0.0
H725 H 0.05173 0.41045 0.0173 0.0
C726 C 0.60774 0.15866 0.94476 0.0
C727 C 0.63 0.14362 0.91278 0.0
C728 C 0.60129 0.07824 0.92274 0.0
C729 C 0.57867 0.0935 0.95427 0.0
N730 N 0.56856 0.14405 0.00265 0.0
N731 N 0.65642 0.08784 0.87827 0.0
C732 C 0.58473 0.1324 0.96775 0.0
C733 C 0.62964 0.10284 0.90417 0.0
N734 N 0.60669 0.19825 0.95177 0.0
N735 N 0.59403 0.04115 0.90908 0.0
H736 H 0.67742 0.10541 0.86431 0.0
H737 H 0.66021 0.05783 0.87351 0.0
H738 H 0.57351 0.02235 0.92206 0.0
H739 H 0.60653 0.02984 0.88353 0.0
H740 H 0.58731 0.21128 0.97156 0.0
H741 H 0.62329 0.21861 0.9359 0.0
H742 H 0.57493 0.17085 0.01603 0.0
H743 H 0.55173 0.1252 0.02017 0.0
C744 C 0.89002 0.93474 0.40999 0.0
C745 C 0.88805 0.89443 0.42056 0.0
C746 C 0.93955 0.90463 0.46992 0.0
C747 C 0.94608 0.94286 0.45464 0.0
N748 N 0.92934 0.99436 0.40882 0.0
N749 N 0.91285 0.83965 0.45851 0.0
C750 C 0.92146 0.95823 0.42465 0.0
C751 C 0.91303 0.87905 0.4503 0.0
N752 N 0.86165 0.95046 0.38625 0.0
N753 N 0.95818 0.89308 0.50367 0.0
H754 H 0.89358 0.81979 0.44525 0.0
H755 H 0.93375 0.82613 0.47638 0.0
H756 H 0.97753 0.91131 0.51905 0.0
H757 H 0.95156 0.86706 0.51848 0.0
H758 H 0.8591 0.98047 0.38065 0.0
H759 H 0.83842 0.93374 0.37506 0.0
H760 H 0.91505 0.00546 0.38411 0.0
H761 H 0.95198 0.01242 0.41902 0.0
C762 C 0.39087 0.63742 0.57839 0.0
C763 C 0.40442 0.67129 0.59872 0.0
C764 C 0.47073 0.66021 0.57181 0.0
C765 C 0.45792 0.62306 0.55741 0.0
N766 N 0.40296 0.59674 0.52187 0.0
N767 N 0.45622 0.71889 0.60978 0.0
C768 C 0.41708 0.617 0.55333 0.0
C769 C 0.44412 0.68399 0.59381 0.0
N770 N 0.35353 0.6236 0.58385 0.0
N771 N 0.50649 0.67464 0.5602 0.0
H772 H 0.43679 0.73961 0.62127 0.0
H773 H 0.48559 0.72712 0.61255 0.0
H774 H 0.52332 0.66099 0.53851 0.0
H775 H 0.5172 0.70235 0.5675 0.0
H776 H 0.34395 0.59711 0.5717 0.0
H777 H 0.33356 0.63658 0.60315 0.0
H778 H 0.37307 0.59636 0.51489 0.0
H779 H 0.42143 0.58651 0.49962 0.0
C780 C 0.97824 0.95384 0.70403 0.0
C781 C 0.99315 0.97675 0.73555 0.0
C782 C 0.02821 0.01907 0.68888 0.0
C783 C 0.00663 0.00144 0.65804 0.0
N784 N 0.96391 0.9503 0.6341 0.0
N785 N 0.03555 0.02818 0.75942 0.0
C786 C 0.98329 0.96755 0.66485 0.0
C787 C 0.01985 0.00805 0.72838 0.0
N788 N 0.95855 0.9196 0.71177 0.0
N789 N 0.05622 0.04656 0.68002 0.0
H790 H 0.03118 0.01944 0.78854 0.0
H791 H 0.05187 0.05395 0.75661 0.0
H792 H 0.0627 0.05443 0.65102 0.0
H793 H 0.07509 0.05904 0.70064 0.0
H794 H 0.94987 0.89971 0.6902 0.0
H795 H 0.95352 0.90938 0.74025 0.0
H796 H 0.94261 0.92853 0.63729 0.0
H797 H 0.96829 0.95887 0.60494 0.0
C798 C 0.51666 0.03952 0.22943 0.0
C799 C 0.53339 0.07765 0.23095 0.0
C800 C 0.53126 0.0817 0.15887 0.0
C801 C 0.52176 0.04109 0.15749 0.0
N802 N 0.50421 0.98092 0.19084 0.0
N803 N 0.55812 0.13528 0.19757 0.0
C804 C 0.51387 0.01994 0.19268 0.0
C805 C 0.54032 0.09923 0.19581 0.0
N806 N 0.50314 0.02235 0.26322 0.0
N807 N 0.53263 0.1032 0.12491 0.0
H808 H 0.56512 0.14919 0.22397 0.0
H809 H 0.56839 0.15037 0.17296 0.0
H810 H 0.52758 0.09103 0.09725 0.0
H811 H 0.53544 0.13369 0.12434 0.0
H812 H 0.48741 0.99606 0.26382 0.0
H813 H 0.5045 0.03637 0.29049 0.0
H814 H 0.50306 0.96255 0.21533 0.0
H815 H 0.49863 0.96648 0.16434 0.0
C816 C 0.50998 0.5153 0.30556 0.0
C817 C 0.48984 0.55072 0.29697 0.0
C818 C 0.4901 0.56796 0.36697 0.0
C819 C 0.50276 0.52932 0.37574 0.0
N820 N 0.52595 0.46585 0.35441 0.0
N821 N 0.459 0.61075 0.31926 0.0
C822 C 0.51339 0.50295 0.34526 0.0
C823 C 0.48019 0.57759 0.3275 0.0
N824 N 0.52585 0.49375 0.2756 0.0
N825 N 0.48671 0.59502 0.39646 0.0
H826 H 0.45085 0.6189 0.29086 0.0
H827 H 0.44706 0.6289 0.34081 0.0
H828 H 0.493 0.58841 0.42576 0.0
H829 H 0.48121 0.62474 0.39147 0.0
H830 H 0.54378 0.46933 0.27998 0.0
H831 H 0.52406 0.50263 0.24624 0.0
H832 H 0.52958 0.44365 0.33367 0.0
H833 H 0.53127 0.45678 0.38327 0.0
C834 C 0.04174 0.43822 0.84153 0.0
C835 C 0.03377 0.46012 0.80683 0.0
C836 C 0.01104 0.51584 0.84613 0.0
C837 C 0.02063 0.49465 0.88084 0.0
N838 N 0.03479 0.43276 0.91242 0.0
N839 N 0.00109 0.51443 0.7754 0.0
C840 C 0.03214 0.45466 0.87878 0.0
C841 C 0.01508 0.49725 0.80898 0.0
N842 N 0.06093 0.40298 0.83901 0.0
N843 N 0.99884 0.55406 0.84889 0.0
H844 H 0.00356 0.50117 0.74784 0.0
H845 H 0.98415 0.53991 0.7751 0.0
H846 H 0.9926 0.56747 0.87579 0.0
H847 H 0.99609 0.57285 0.82486 0.0
H848 H 0.07195 0.38787 0.86326 0.0
H849 H 0.06819 0.38979 0.81232 0.0
H850 H 0.03926 0.40247 0.91256 0.0
H851 H 0.02912 0.44421 0.94025 0.0
C852 C 0.69051 0.97222 0.94896 0.0
C853 C 0.71958 0.99746 0.96515 0.0
C854 C 0.66954 0.03176 0.00395 0.0
C855 C 0.64183 0.00313 0.99177 0.0
N856 N 0.62123 0.95444 0.94498 0.0
N857 N 0.73655 0.05708 0.99899 0.0
C858 C 0.65082 0.97629 0.96133 0.0
C859 C 0.70882 0.02956 0.98942 0.0
N860 N 0.70148 0.9429 0.92373 0.0
N861 N 0.65847 0.05958 0.03072 0.0
H862 H 0.76534 0.05567 0.98837 0.0
H863 H 0.73081 0.0824 0.01511 0.0
H864 H 0.6294 0.06235 0.04027 0.0
H865 H 0.67761 0.0796 0.04372 0.0
H866 H 0.68285 0.92054 0.91426 0.0
H867 H 0.73008 0.94022 0.91291 0.0
H868 H 0.62477 0.93626 0.92066 0.0
H869 H 0.59196 0.95709 0.95395 0.0
C870 C 0.81823 0.00851 0.48342 0.0
C871 C 0.81076 0.03619 0.4531 0.0
C872 C 0.87852 0.06021 0.45663 0.0
C873 C 0.88497 0.03484 0.48909 0.0
N874 N 0.86668 0.97737 0.52599 0.0
N875 N 0.83553 0.07979 0.40303 0.0
C876 C 0.85666 0.00627 0.49991 0.0
C877 C 0.8417 0.05904 0.43695 0.0
N878 N 0.78809 0.98591 0.49754 0.0
N879 N 0.9071 0.08646 0.44579 0.0
H880 H 0.80862 0.07965 0.38825 0.0
H881 H 0.85767 0.09437 0.38768 0.0
H882 H 0.9352 0.08652 0.45822 0.0
H883 H 0.90278 0.10907 0.4256 0.0
H884 H 0.79027 0.96825 0.52246 0.0
H885 H 0.7601 0.98602 0.48488 0.0
H886 H 0.84857 0.95364 0.53287 0.0
H887 H 0.89479 0.97542 0.53825 0.0
C888 C 0.19694 0.55929 0.08119 0.0
C889 C 0.22448 0.53379 0.06295 0.0
C890 C 0.17176 0.50129 0.02625 0.0
C891 C 0.14543 0.53012 0.04062 0.0
N892 N 0.12837 0.57778 0.08976 0.0
N893 N 0.23822 0.47441 0.0273 0.0
C894 C 0.15658 0.55603 0.07112 0.0
C895 C 0.21175 0.50238 0.03872 0.0
N896 N 0.20987 0.58807 0.10616 0.0
N897 N 0.15871 0.47444 0.99935 0.0
H898 H 0.26758 0.47504 0.03634 0.0
H899 H 0.23091 0.4494 0.0113 0.0
H900 H 0.12913 0.47241 0.99127 0.0
H901 H 0.17676 0.45457 0.98473 0.0
H902 H 0.1922 0.61061 0.11687 0.0
H903 H 0.23908 0.59029 0.11535 0.0
H904 H 0.13364 0.59515 0.11437 0.0
H905 H 0.09857 0.57568 0.08248 0.0
C906 C 0.3165 0.51859 0.54503 0.0
C907 C 0.31405 0.50605 0.58467 0.0
C908 C 0.3861 0.50783 0.58948 0.0
C909 C 0.38812 0.51171 0.54807 0.0
N910 N 0.35574 0.52134 0.48568 0.0
N911 N 0.34641 0.48772 0.64524 0.0
C912 C 0.35341 0.51768 0.52566 0.0
C913 C 0.34881 0.50132 0.60747 0.0
N914 N 0.28338 0.53132 0.52611 0.0
N915 N 0.41983 0.50907 0.61132 0.0
H916 H 0.31977 0.48241 0.65947 0.0
H917 H 0.3708 0.4792 0.6617 0.0
H918 H 0.44756 0.51286 0.59871 0.0
H919 H 0.42004 0.50994 0.64193 0.0
H920 H 0.28371 0.54403 0.49823 0.0
H921 H 0.25604 0.53271 0.54006 0.0
H922 H 0.33127 0.52073 0.46723 0.0
H923 H 0.38252 0.52354 0.47078 0.0
C924 C 0.98921 0.73095 0.02664 0.0
C925 C 0.96048 0.74112 0.99815 0.0
C926 C 0.9537 0.67216 0.97874 0.0
C927 C 0.98558 0.66289 0.0039 0.0
N928 N 0.02543 0.67885 0.05996 0.0
N929 N 0.90741 0.72135 0.95546 0.0
C930 C 0.00041 0.69085 0.03087 0.0
C931 C 0.93976 0.71151 0.97727 0.0
N932 N 0.00695 0.75999 0.04804 0.0
N933 N 0.93834 0.64362 0.95491 0.0
H934 H 0.89701 0.7501 0.95324 0.0
H935 H 0.889 0.70096 0.94198 0.0
H936 H 0.9467 0.61415 0.95703 0.0
H937 H 0.91826 0.64893 0.93244 0.0
H938 H 0.03106 0.75547 0.06635 0.0
H939 H 0.99787 0.78928 0.04654 0.0
H940 H 0.03534 0.69698 0.08251 0.0
H941 H 0.0337 0.64946 0.06327 0.0
C942 C 0.49011 0.80402 0.0104 0.0
C943 C 0.46233 0.7924 0.0393 0.0
C944 C 0.45457 0.8606 0.06078 0.0
C945 C 0.48537 0.8714 0.03488 0.0
N946 N 0.52392 0.85788 0.97728 0.0
N947 N 0.41003 0.80963 0.0839 0.0
C948 C 0.50011 0.84452 0.00682 0.0
C949 C 0.44157 0.82089 0.06157 0.0
N950 N 0.50812 0.77601 0.98795 0.0
N951 N 0.43925 0.88809 0.0858 0.0
H952 H 0.40031 0.78057 0.08554 0.0
H953 H 0.39156 0.82918 0.09844 0.0
H954 H 0.4468 0.91783 0.08421 0.0
H955 H 0.42004 0.88162 0.10874 0.0
H956 H 0.53171 0.78167 0.96927 0.0
H957 H 0.49994 0.74642 0.98901 0.0
H958 H 0.53353 0.84055 0.95399 0.0
H959 H 0.53141 0.88754 0.9744 0.0
C960 C 0.05597 0.22862 0.50838 0.0
C961 C 0.08746 0.23386 0.53524 0.0
C962 C 0.08342 0.16492 0.55532 0.0
C963 C 0.05006 0.16051 0.53068 0.0
N964 N 0.01155 0.18283 0.47581 0.0
N965 N 0.13857 0.20567 0.57539 0.0
C966 C 0.03872 0.19069 0.50438 0.0
C967 C 0.10382 0.20136 0.55556 0.0
N968 N 0.04158 0.26028 0.48824 0.0
N969 N 0.09426 0.13493 0.5799 0.0
H970 H 0.15383 0.23228 0.57652 0.0
H971 H 0.15405 0.18236 0.58781 0.0
H972 H 0.08102 0.10723 0.57926 0.0
H973 H 0.11517 0.13778 0.60208 0.0
H974 H 0.01594 0.25958 0.4715 0.0
H975 H 0.05479 0.28799 0.48951 0.0
H976 H 0.00412 0.2025 0.45355 0.0
H977 H 0.9989 0.15502 0.47246 0.0
C978 C 0.60347 0.3387 0.48384 0.0
C979 C 0.58537 0.3065 0.50329 0.0
C980 C 0.53876 0.3513 0.53503 0.0
C981 C 0.55178 0.38156 0.5096 0.0
N982 N 0.59759 0.40628 0.4615 0.0
N983 N 0.53786 0.28126 0.54941 0.0
C984 C 0.58505 0.37614 0.48509 0.0
C985 C 0.55404 0.31265 0.53014 0.0
N986 N 0.63797 0.33317 0.46391 0.0
N987 N 0.51171 0.35978 0.56349 0.0
H988 H 0.54945 0.25292 0.54739 0.0
H989 H 0.51225 0.28285 0.56611 0.0
H990 H 0.50061 0.38814 0.56743 0.0
H991 H 0.50292 0.33996 0.58513 0.0
H992 H 0.65464 0.35598 0.45204 0.0
H993 H 0.65178 0.30586 0.46202 0.0
H994 H 0.61843 0.40309 0.43931 0.0
H995 H 0.58589 0.43461 0.46317 0.0
loop_
_geom_bond_atom_site_label_1
_geom_bond_atom_site_label_2
_geom_bond_distance
_geom_bond_site_symmetry_2
_ccdc_geom_bond_type
C0 C1 1.391 . S
C0 C4 1.391 . S
C0 H42 0.948 . S
C1 C0 1.391 . S
C1 C2 1.391 . S
C2 C1 1.391 . S
C2 H58 0.947 . S
C2 C59 1.392 . S
C3 C4 1.391 . S
C3 C7 1.397 . S
C3 C59 1.419 . S
C4 C0 1.391 . S
C4 C3 1.391 . S
C4 C5 1.399 . S
C5 C4 1.399 . S
C5 C8 1.396 . S
C5 C17 1.453 . S
C5 C18 1.684 . S
H6 C30 0.948 . S
C7 C3 1.397 . S
C7 C8 1.394 . S
C7 C26 1.723 . S
C8 C5 1.396 . S
C8 C7 1.394 . S
C8 C38 1.723 . S
H9 C32 0.947 . S
H10 C33 0.948 . S
H11 C39 0.982 . S
H12 C40 0.979 . S
H13 C40 0.980 . S
H14 C40 0.983 . S
H15 C39 0.979 . S
H16 C39 0.977 . S
C17 C5 1.453 . S
C17 H46 0.982 . S
C17 H47 0.979 . S
C17 H48 0.977 . S
C18 C5 1.684 . S
C18 H43 0.979 . S
C18 H44 0.980 . S
C18 H45 0.983 . S
C19 C20 1.391 . S
C19 C24 1.391 . S
C19 H49 0.948 . S
C20 C19 1.391 . S
C20 C21 1.391 . S
C21 C20 1.391 . S
C21 C22 1.392 . S
C21 H50 0.947 . S
C22 C21 1.392 . S
C22 C23 1.419 . S
C22 H51 0.948 . S
C23 C22 1.419 . S
C23 C24 1.391 . S
C23 C27 1.397 . S
C24 C19 1.391 . S
C24 C23 1.391 . S
C24 C25 1.399 . S
C25 C24 1.399 . S
C25 C26 1.396 . S
C25 C28 1.453 . S
C25 C29 1.684 . S
C26 C7 1.723 . S
C26 C25 1.396 . S
C26 C27 1.394 . S
C27 C23 1.397 . S
C27 C26 1.394 . S
C27 C37 1.723 . S
C28 C25 1.453 . S
C28 H52 0.982 . S
C28 H53 0.979 . S
C28 H54 0.977 . S
C29 C25 1.684 . S
C29 H55 0.979 . S
C29 H56 0.980 . S
C29 H57 0.983 . S
C30 H6 0.948 . S
C30 C31 1.391 . S
C30 C35 1.391 . S
C31 C30 1.391 . S
C31 C32 1.391 . S
C32 H9 0.947 . S
C32 C31 1.391 . S
C32 C33 1.392 . S
C33 H10 0.948 . S
C33 C32 1.392 . S
C33 C34 1.419 . S
C34 C33 1.419 . S
C34 C35 1.391 . S
C34 C38 1.397 . S
C35 C30 1.391 . S
C35 C34 1.391 . S
C35 C36 1.399 . S
C36 C35 1.399 . S
C36 C37 1.396 . S
C36 C39 1.453 . S
C36 C40 1.684 . S
C37 C27 1.723 . S
C37 C36 1.396 . S
C37 C38 1.394 . S
C38 C8 1.723 . S
C38 C34 1.397 . S
C38 C37 1.394 . S
C39 H11 0.982 . S
C39 H15 0.979 . S
C39 H16 0.977 . S
C39 C36 1.453 . S
C40 H12 0.979 . S
C40 H13 0.980 . S
C40 H14 0.983 . S
C40 C36 1.684 . S
H41 C59 0.948 . S
H42 C0 0.948 . S
H43 C18 0.979 . S
H44 C18 0.980 . S
H45 C18 0.983 . S
H46 C17 0.982 . S
H47 C17 0.979 . S
H48 C17 0.977 . S
H49 C19 0.948 . S
H50 C21 0.947 . S
H51 C22 0.948 . S
H52 C28 0.982 . S
H53 C28 0.979 . S
H54 C28 0.977 . S
H55 C29 0.979 . S
H56 C29 0.980 . S
H57 C29 0.983 . S
H58 C2 0.947 . S
C59 C2 1.392 . S
C59 C3 1.419 . S
C59 H41 0.948 . S
C60 C61 1.391 . S
C60 C64 1.391 . S
C60 H102 0.948 . S
C61 C60 1.391 . S
C61 C62 1.391 . S
C62 C61 1.391 . S
C62 H118 0.947 . S
C62 C119 1.392 . S
C63 C64 1.391 . S
C63 C67 1.397 . S
C63 C119 1.419 . S
C64 C60 1.391 . S
C64 C63 1.391 . S
C64 C65 1.399 . S
C65 C64 1.399 . S
C65 C68 1.396 . S
C65 C77 1.453 . S
C65 C78 1.684 . S
H66 C90 0.948 . S
C67 C63 1.397 . S
C67 C68 1.394 . S
C67 C86 1.723 . S
C68 C65 1.396 . S
C68 C67 1.394 . S
C68 C98 1.723 . S
H69 C92 0.947 . S
H70 C93 0.948 . S
H71 C99 0.982 . S
H72 C100 0.979 . S
H73 C100 0.980 . S
H74 C100 0.983 . S
H75 C99 0.979 . S
H76 C99 0.977 . S
C77 C65 1.453 . S
C77 H106 0.982 . S
C77 H107 0.979 . S
C77 H108 0.977 . S
C78 C65 1.684 . S
C78 H103 0.979 . S
C78 H104 0.980 . S
C78 H105 0.983 . S
C79 C80 1.391 . S
C79 C84 1.391 . S
C79 H109 0.948 . S
C80 C79 1.391 . S
C80 C81 1.391 . S
C81 C80 1.391 . S
C81 C82 1.392 . S
C81 H110 0.947 . S
C82 C81 1.392 . S
C82 C83 1.419 . S
C82 H111 0.948 . S
C83 C82 1.419 . S
C83 C84 1.391 . S
C83 C87 1.397 . S
C84 C79 1.391 . S
C84 C83 1.391 . S
C84 C85 1.399 . S
C85 C84 1.399 . S
C85 C86 1.396 . S
C85 C88 1.453 . S
C85 C89 1.684 . S
C86 C67 1.723 . S
C86 C85 1.396 . S
C86 C87 1.394 . S
C87 C83 1.397 . S
C87 C86 1.394 . S
C87 C97 1.723 . S
C88 C85 1.453 . S
C88 H112 0.982 . S
C88 H113 0.979 . S
C88 H114 0.977 . S
C89 C85 1.684 . S
C89 H115 0.979 . S
C89 H116 0.980 . S
C89 H117 0.983 . S
C90 H66 0.948 . S
C90 C91 1.391 . S
C90 C95 1.391 . S
C91 C90 1.391 . S
C91 C92 1.391 . S
C92 H69 0.947 . S
C92 C91 1.391 . S
C92 C93 1.392 . S
C93 H70 0.948 . S
C93 C92 1.392 . S
C93 C94 1.419 . S
C94 C93 1.419 . S
C94 C95 1.391 . S
C94 C98 1.397 . S
C95 C90 1.391 . S
C95 C94 1.391 . S
C95 C96 1.399 . S
C96 C95 1.399 . S
C96 C97 1.396 . S
C96 C99 1.453 . S
C96 C100 1.684 . S
C97 C87 1.723 . S
C97 C96 1.396 . S
C97 C98 1.394 . S
C98 C68 1.723 . S
C98 C94 1.397 . S
C98 C97 1.394 . S
C99 H71 0.982 . S
C99 H75 0.979 . S
C99 H76 0.977 . S
C99 C96 1.453 . S
C100 H72 0.979 . S
C100 H73 0.980 . S
C100 H74 0.983 . S
C100 C96 1.684 . S
H101 C119 0.948 . S
H102 C60 0.948 . S
H103 C78 0.979 . S
H104 C78 0.980 . S
H105 C78 0.983 . S
H106 C77 0.982 . S
H107 C77 0.979 . S
H108 C77 0.977 . S
H109 C79 0.948 . S
H110 C81 0.947 . S
H111 C82 0.948 . S
H112 C88 0.982 . S
H113 C88 0.979 . S
H114 C88 0.977 . S
H115 C89 0.979 . S
H116 C89 0.980 . S
H117 C89 0.983 . S
H118 C62 0.947 . S
C119 C62 1.392 . S
C119 C63 1.419 . S
C119 H101 0.948 . S
C120 C121 1.391 . S
C120 C124 1.391 . S
C120 H162 0.948 . S
C121 C120 1.391 . S
C121 C122 1.391 . S
C122 C121 1.391 . S
C122 H178 0.947 . S
C122 C179 1.392 . S
C123 C124 1.391 . S
C123 C127 1.397 . S
C123 C179 1.419 . S
C124 C120 1.391 . S
C124 C123 1.391 . S
C124 C125 1.399 . S
C125 C124 1.399 . S
C125 C128 1.396 . S
C125 C137 1.453 . S
C125 C138 1.684 . S
H126 C150 0.948 . S
C127 C123 1.397 . S
C127 C128 1.394 . S
C127 C146 1.723 . S
C128 C125 1.396 . S
C128 C127 1.394 . S
C128 C158 1.723 . S
H129 C152 0.947 . S
H130 C153 0.948 . S
H131 C159 0.982 . S
H132 C160 0.979 . S
H133 C160 0.980 . S
H134 C160 0.983 . S
H135 C159 0.979 . S
H136 C159 0.977 . S
C137 C125 1.453 . S
C137 H166 0.982 . S
C137 H167 0.979 . S
C137 H168 0.977 . S
C138 C125 1.684 . S
C138 H163 0.979 . S
C138 H164 0.980 . S
C138 H165 0.983 . S
C139 C140 1.391 . S
C139 C144 1.391 . S
C139 H169 0.948 . S
C140 C139 1.391 . S
C140 C141 1.391 . S
C141 C140 1.391 . S
C141 C142 1.392 . S
C141 H170 0.947 . S
C142 C141 1.392 . S
C142 C143 1.419 . S
C142 H171 0.948 . S
C143 C142 1.419 . S
C143 C144 1.391 . S
C143 C147 1.397 . S
C144 C139 1.391 . S
C144 C143 1.391 . S
C144 C145 1.399 . S
C145 C144 1.399 . S
C145 C146 1.396 . S
C145 C148 1.453 . S
C145 C149 1.684 . S
C146 C127 1.723 . S
C146 C145 1.396 . S
C146 C147 1.394 . S
C147 C143 1.397 . S
C147 C146 1.394 . S
C147 C157 1.723 . S
C148 C145 1.453 . S
C148 H172 0.982 . S
C148 H173 0.979 . S
C148 H174 0.977 . S
C149 C145 1.684 . S
C149 H175 0.979 . S
C149 H176 0.980 . S
C149 H177 0.983 . S
C150 H126 0.948 . S
C150 C151 1.391 . S
C150 C155 1.391 . S
C151 C150 1.391 . S
C151 C152 1.391 . S
C152 H129 0.947 . S
C152 C151 1.391 . S
C152 C153 1.392 . S
C153 H130 0.948 . S
C153 C152 1.392 . S
C153 C154 1.419 . S
C154 C153 1.419 . S
C154 C155 1.391 . S
C154 C158 1.397 . S
C155 C150 1.391 . S
C155 C154 1.391 . S
C155 C156 1.399 . S
C156 C155 1.399 . S
C156 C157 1.396 . S
C156 C159 1.453 . S
C156 C160 1.684 . S
C157 C147 1.723 . S
C157 C156 1.396 . S
C157 C158 1.394 . S
C158 C128 1.723 . S
C158 C154 1.397 . S
C158 C157 1.394 . S
C159 H131 0.982 . S
C159 H135 0.979 . S
C159 H136 0.977 . S
C159 C156 1.453 . S
C160 H132 0.979 . S
C160 H133 0.980 . S
C160 H134 0.983 . S
C160 C156 1.684 . S
H161 C179 0.948 . S
H162 C120 0.948 . S
H163 C138 0.979 . S
H164 C138 0.980 . S
H165 C138 0.983 . S
H166 C137 0.982 . S
H167 C137 0.979 . S
H168 C137 0.977 . S
H169 C139 0.948 . S
H170 C141 0.947 . S
H171 C142 0.948 . S
H172 C148 0.982 . S
H173 C148 0.979 . S
H174 C148 0.977 . S
H175 C149 0.979 . S
H176 C149 0.980 . S
H177 C149 0.983 . S
H178 C122 0.947 . S
C179 C122 1.392 . S
C179 C123 1.419 . S
C179 H161 0.948 . S
C180 C181 1.391 . S
C180 C184 1.391 . S
C180 H222 0.948 . S
C181 C180 1.391 . S
C181 C182 1.391 . S
C182 C181 1.391 . S
C182 H238 0.947 . S
C182 C239 1.392 . S
C183 C184 1.391 . S
C183 C187 1.397 . S
C183 C239 1.419 . S
C184 C180 1.391 . S
C184 C183 1.391 . S
C184 C185 1.399 . S
C185 C184 1.399 . S
C185 C188 1.396 . S
C185 C197 1.453 . S
C185 C198 1.684 . S
H186 C210 0.948 . S
C187 C183 1.397 . S
C187 C188 1.394 . S
C187 C206 1.723 . S
C188 C185 1.396 . S
C188 C187 1.394 . S
C188 C218 1.723 . S
H189 C212 0.947 . S
H190 C213 0.948 . S
H191 C219 0.982 . S
H192 C220 0.979 . S
H193 C220 0.980 . S
H194 C220 0.983 . S
H195 C219 0.979 . S
H196 C219 0.977 . S
C197 C185 1.453 . S
C197 H226 0.982 . S
C197 H227 0.979 . S
C197 H228 0.977 . S
C198 C185 1.684 . S
C198 H223 0.979 . S
C198 H224 0.980 . S
C198 H225 0.983 . S
C199 C200 1.391 . S
C199 C204 1.391 . S
C199 H229 0.948 . S
C200 C199 1.391 . S
C200 C201 1.391 . S
C201 C200 1.391 . S
C201 C202 1.392 . S
C201 H230 0.947 . S
C202 C201 1.392 . S
C202 C203 1.419 . S
C202 H231 0.948 . S
C203 C202 1.419 . S
C203 C204 1.391 . S
C203 C207 1.397 . S
C204 C199 1.391 . S
C204 C203 1.391 . S
C204 C205 1.399 . S
C205 C204 1.399 . S
C205 C206 1.396 . S
C205 C208 1.453 . S
C205 C209 1.684 . S
C206 C187 1.723 . S
C206 C205 1.396 . S
C206 C207 1.394 . S
C207 C203 1.397 . S
C207 C206 1.394 . S
C207 C217 1.723 . S
C208 C205 1.453 . S
C208 H232 0.982 . S
C208 H233 0.979 . S
C208 H234 0.977 . S
C209 C205 1.684 . S
C209 H235 0.979 . S
C209 H236 0.980 . S
C209 H237 0.983 . S
C210 H186 0.948 . S
C210 C211 1.391 . S
C210 C215 1.391 . S
C211 C210 1.391 . S
C211 C212 1.391 . S
C212 H189 0.947 . S
C212 C211 1.391 . S
C212 C213 1.392 . S
C213 H190 0.948 . S
C213 C212 1.392 . S
C213 C214 1.419 . S
C214 C213 1.419 . S
C214 C215 1.391 . S
C214 C218 1.397 . S
C215 C210 1.391 . S
C215 C214 1.391 . S
C215 C216 1.399 . S
C216 C215 1.399 . S
C216 C217 1.396 . S
C216 C219 1.453 . S
C216 C220 1.684 . S
C217 C207 1.723 . S
C217 C216 1.396 . S
C217 C218 1.394 . S
C218 C188 1.723 . S
C218 C214 1.397 . S
C218 C217 1.394 . S
C219 H191 0.982 . S
C219 H195 0.979 . S
C219 H196 0.977 . S
C219 C216 1.453 . S
C220 H192 0.979 . S
C220 H193 0.980 . S
C220 H194 0.983 . S
C220 C216 1.684 . S
H221 C239 0.948 . S
H222 C180 0.948 . S
H223 C198 0.979 . S
H224 C198 0.980 . S
H225 C198 0.983 . S
H226 C197 0.982 . S
H227 C197 0.979 . S
H228 C197 0.977 . S
H229 C199 0.948 . S
H230 C201 0.947 . S
H231 C202 0.948 . S
H232 C208 0.982 . S
H233 C208 0.979 . S
H234 C208 0.977 . S
H235 C209 0.979 . S
H236 C209 0.980 . S
H237 C209 0.983 . S
H238 C182 0.947 . S
C239 C182 1.392 . S
C239 C183 1.419 . S
C239 H221 0.948 . S
C240 C241 1.391 1_654 S
C240 C244 1.391 1_554 S
C240 H282 0.948 . S
C241 C240 1.391 1_456 S
C241 C242 1.391 . S
C242 C241 1.391 . S
C242 H298 0.947 . S
C242 C299 1.392 . S
C243 C244 1.391 . S
C243 C247 1.397 . S
C243 C299 1.419 1_655 S
C244 C240 1.391 1_556 S
C244 C243 1.391 . S
C244 C245 1.402 . S
C245 C244 1.402 . S
C245 C248 1.407 . S
C245 C257 1.452 1_556 S
C245 C258 1.670 1_556 S
H246 C270 0.948 . S
C247 C243 1.397 . S
C247 C248 1.394 . S
C247 C266 1.723 . S
C248 C245 1.407 . S
C248 C247 1.394 . S
C248 C278 1.723 . S
H249 C272 0.947 . S
H250 C273 0.948 . S
H251 C279 0.982 1_565 S
H252 C280 0.979 . S
H253 C280 0.980 . S
H254 C280 0.983 . S
H255 C279 0.979 . S
H256 C279 0.977 . S
C257 C245 1.452 1_554 S
C257 H286 0.982 1_554 S
C257 H287 0.979 . S
C257 H288 0.977 . S
C258 C245 1.670 1_554 S
C258 H283 0.979 . S
C258 H284 0.980 . S
C258 H285 0.983 . S
C259 C260 1.391 1_465 S
C259 C264 1.391 1_455 S
C259 H289 0.948 . S
C260 C259 1.391 1_645 S
C260 C261 1.391 . S
C261 C260 1.391 . S
C261 C262 1.392 . S
C261 H290 0.947 . S
C262 C261 1.392 . S
C262 C263 1.419 1_545 S
C262 H291 0.948 . S
C263 C262 1.419 1_565 S
C263 C264 1.391 . S
C263 C267 1.397 . S
C264 C259 1.391 1_655 S
C264 C263 1.391 . S
C264 C265 1.399 . S
C265 C264 1.399 . S
C265 C266 1.396 . S
C265 C268 1.453 . S
C265 C269 1.684 1_655 S
C266 C247 1.723 . S
C266 C265 1.396 . S
C266 C267 1.394 . S
C267 C263 1.397 . S
C267 C266 1.394 . S
C267 C277 1.723 . S
C268 C265 1.453 . S
C268 H292 0.982 . S
C268 H293 0.979 1_655 S
C268 H294 0.977 1_655 S
C269 C265 1.684 1_455 S
C269 H295 0.979 . S
C269 H296 0.980 . S
C269 H297 0.983 . S
C270 H246 0.948 . S
C270 C271 1.391 1_546 S
C270 C275 1.391 1_545 S
C271 C270 1.391 1_564 S
C271 C272 1.391 . S
C272 H249 0.947 . S
C272 C271 1.391 . S
C272 C273 1.392 . S
C273 H250 0.948 . S
C273 C272 1.392 . S
C273 C274 1.419 1_554 S
C274 C273 1.419 1_556 S
C274 C275 1.391 . S
C274 C278 1.397 . S
C275 C270 1.391 1_565 S
C275 C274 1.391 . S
C275 C276 1.399 . S
C276 C275 1.399 . S
C276 C277 1.396 . S
C276 C279 1.453 1_565 S
C276 C280 1.684 1_565 S
C277 C267 1.723 . S
C277 C276 1.396 . S
C277 C278 1.394 . S
C278 C248 1.723 . S
C278 C274 1.397 . S
C278 C277 1.394 . S
C279 H251 0.982 1_545 S
C279 H255 0.979 . S
C279 H256 0.977 . S
C279 C276 1.453 1_545 S
C280 H252 0.979 . S
C280 H253 0.980 . S
C280 H254 0.983 . S
C280 C276 1.684 1_545 S
H281 C299 0.948 . S
H282 C240 0.948 . S
H283 C258 0.979 . S
H284 C258 0.980 . S
H285 C258 0.983 . S
H286 C257 0.982 1_556 S
H287 C257 0.979 . S
H288 C257 0.977 . S
H289 C259 0.948 . S
H290 C261 0.947 . S
H291 C262 0.948 . S
H292 C268 0.982 . S
H293 C268 0.979 1_455 S
H294 C268 0.977 1_455 S
H295 C269 0.979 . S
H296 C269 0.980 . S
H297 C269 0.983 . S
H298 C242 0.947 . S
C299 C242 1.392 . S
C299 C243 1.419 1_455 S
C299 H281 0.948 . S
C300 C301 1.391 . S
C300 C304 1.391 . S
C300 H342 0.948 . S
C301 C300 1.391 . S
C301 C302 1.391 . S
C302 C301 1.391 . S
C302 H358 0.947 . S
C302 C359 1.392 . S
C303 C304 1.391 . S
C303 C307 1.397 . S
C303 C359 1.419 . S
C304 C300 1.391 . S
C304 C303 1.391 . S
C304 C305 1.399 . S
C305 C304 1.399 . S
C305 C308 1.396 . S
C305 C317 1.453 . S
C305 C318 1.684 . S
H306 C330 0.948 . S
C307 C303 1.397 . S
C307 C308 1.394 . S
C307 C326 1.723 . S
C308 C305 1.396 . S
C308 C307 1.394 . S
C308 C338 1.723 . S
H309 C332 0.947 . S
H310 C333 0.948 . S
H311 C339 0.982 . S
H312 C340 0.979 . S
H313 C340 0.980 . S
H314 C340 0.983 . S
H315 C339 0.979 . S
H316 C339 0.977 . S
C317 C305 1.453 . S
C317 H346 0.982 . S
C317 H347 0.979 . S
C317 H348 0.977 . S
C318 C305 1.684 . S
C318 H343 0.979 . S
C318 H344 0.980 . S
C318 H345 0.983 . S
C319 C320 1.391 . S
C319 C324 1.391 . S
C319 H349 0.948 . S
C320 C319 1.391 . S
C320 C321 1.391 . S
C321 C320 1.391 . S
C321 C322 1.392 . S
C321 H350 0.947 . S
C322 C321 1.392 . S
C322 C323 1.419 . S
C322 H351 0.948 . S
C323 C322 1.419 . S
C323 C324 1.391 . S
C323 C327 1.397 . S
C324 C319 1.391 . S
C324 C323 1.391 . S
C324 C325 1.399 . S
C325 C324 1.399 . S
C325 C326 1.396 . S
C325 C328 1.453 . S
C325 C329 1.684 . S
C326 C307 1.723 . S
C326 C325 1.396 . S
C326 C327 1.394 . S
C327 C323 1.397 . S
C327 C326 1.394 . S
C327 C337 1.723 . S
C328 C325 1.453 . S
C328 H352 0.982 . S
C328 H353 0.979 1_545 S
C328 H354 0.977 . S
C329 C325 1.684 . S
C329 H355 0.979 . S
C329 H356 0.980 . S
C329 H357 0.983 . S
C330 H306 0.948 . S
C330 C331 1.391 . S
C330 C335 1.391 . S
C331 C330 1.391 . S
C331 C332 1.391 . S
C332 H309 0.947 . S
C332 C331 1.391 . S
C332 C333 1.392 . S
C333 H310 0.948 . S
C333 C332 1.392 . S
C333 C334 1.419 . S
C334 C333 1.419 . S
C334 C335 1.391 . S
C334 C338 1.397 . S
C335 C330 1.391 . S
C335 C334 1.391 . S
C335 C336 1.399 . S
C336 C335 1.399 . S
C336 C337 1.396 . S
C336 C339 1.453 . S
C336 C340 1.684 . S
C337 C327 1.723 . S
C337 C336 1.396 . S
C337 C338 1.394 . S
C338 C308 1.723 . S
C338 C334 1.397 . S
C338 C337 1.394 . S
C339 H311 0.982 . S
C339 H315 0.979 . S
C339 H316 0.977 . S
C339 C336 1.453 . S
C340 H312 0.979 . S
C340 H313 0.980 . S
C340 H314 0.983 . S
C340 C336 1.684 . S
H341 C359 0.948 . S
H342 C300 0.948 . S
H343 C318 0.979 . S
H344 C318 0.980 . S
H345 C318 0.983 . S
H346 C317 0.982 . S
H347 C317 0.979 . S
H348 C317 0.977 . S
H349 C319 0.948 . S
H350 C321 0.947 . S
H351 C322 0.948 . S
H352 C328 0.982 . S
H353 C328 0.979 1_565 S
H354 C328 0.977 . S
H355 C329 0.979 . S
H356 C329 0.980 . S
H357 C329 0.983 . S
H358 C302 0.947 . S
C359 C302 1.392 . S
C359 C303 1.419 . S
C359 H341 0.948 . S
C360 C361 1.391 . S
C360 C364 1.391 . S
C360 H402 0.948 . S
C361 C360 1.391 . S
C361 C362 1.391 . S
C362 C361 1.391 . S
C362 H418 0.947 . S
C362 C419 1.392 . S
C363 C364 1.391 . S
C363 C367 1.397 . S
C363 C419 1.419 . S
C364 C360 1.391 . S
C364 C363 1.391 . S
C364 C365 1.399 . S
C365 C364 1.399 . S
C365 C368 1.396 . S
C365 C377 1.453 . S
C365 C378 1.684 . S
H366 C390 0.948 . S
C367 C363 1.397 . S
C367 C368 1.394 . S
C367 C386 1.723 . S
C368 C365 1.396 . S
C368 C367 1.394 . S
C368 C398 1.723 . S
H369 C392 0.947 . S
H370 C393 0.948 . S
H371 C399 0.982 . S
H372 C400 0.979 . S
H373 C400 0.980 . S
H374 C400 0.983 . S
H375 C399 0.979 . S
H376 C399 0.977 . S
C377 C365 1.453 . S
C377 H406 0.982 . S
C377 H407 0.979 . S
C377 H408 0.977 . S
C378 C365 1.684 . S
C378 H403 0.979 . S
C378 H404 0.980 . S
C378 H405 0.983 . S
C379 C380 1.391 . S
C379 C384 1.391 . S
C379 H409 0.948 . S
C380 C379 1.391 . S
C380 C381 1.391 . S
C381 C380 1.391 . S
C381 C382 1.392 . S
C381 H410 0.947 1_554 S
C382 C381 1.392 . S
C382 C383 1.419 . S
C382 H411 0.948 . S
C383 C382 1.419 . S
C383 C384 1.391 . S
C383 C387 1.397 . S
C384 C379 1.391 . S
C384 C383 1.391 . S
C384 C385 1.399 . S
C385 C384 1.399 . S
C385 C386 1.396 . S
C385 C388 1.453 . S
C385 C389 1.684 . S
C386 C367 1.723 . S
C386 C385 1.396 . S
C386 C387 1.394 . S
C387 C383 1.397 . S
C387 C386 1.394 . S
C387 C397 1.723 . S
C388 C385 1.453 . S
C388 H412 0.982 . S
C388 H413 0.979 . S
C388 H414 0.977 . S
C389 C385 1.684 . S
C389 H415 0.979 . S
C389 H416 0.980 . S
C389 H417 0.983 . S
C390 H366 0.948 . S
C390 C391 1.391 . S
C390 C395 1.391 . S
C391 C390 1.391 . S
C391 C392 1.391 . S
C392 H369 0.947 . S
C392 C391 1.391 . S
C392 C393 1.392 . S
C393 H370 0.948 . S
C393 C392 1.392 . S
C393 C394 1.419 . S
C394 C393 1.419 . S
C394 C395 1.391 . S
C394 C398 1.397 . S
C395 C390 1.391 . S
C395 C394 1.391 . S
C395 C396 1.399 . S
C396 C395 1.399 . S
C396 C397 1.396 . S
C396 C399 1.453 . S
C396 C400 1.684 1_554 S
C397 C387 1.723 . S
C397 C396 1.396 . S
C397 C398 1.394 . S
C398 C368 1.723 . S
C398 C394 1.397 . S
C398 C397 1.394 . S
C399 H371 0.982 . S
C399 H375 0.979 . S
C399 H376 0.977 . S
C399 C396 1.453 . S
C400 H372 0.979 . S
C400 H373 0.980 . S
C400 H374 0.983 . S
C400 C396 1.684 1_556 S
H401 C419 0.948 . S
H402 C360 0.948 . S
H403 C378 0.979 . S
H404 C378 0.980 . S
H405 C378 0.983 . S
H406 C377 0.982 . S
H407 C377 0.979 . S
H408 C377 0.977 . S
H409 C379 0.948 . S
H410 C381 0.947 1_556 S
H411 C382 0.948 . S
H412 C388 0.982 . S
H413 C388 0.979 . S
H414 C388 0.977 . S
H415 C389 0.979 . S
H416 C389 0.980 . S
H417 C389 0.983 . S
H418 C362 0.947 . S
C419 C362 1.392 . S
C419 C363 1.419 . S
C419 H401 0.948 . S
C420 C421 1.391 . S
C420 C424 1.391 . S
C420 H462 0.948 . S
C421 C420 1.391 . S
C421 C422 1.391 . S
C422 C421 1.391 . S
C422 H478 0.947 . S
C422 C479 1.392 . S
C423 C424 1.391 . S
C423 C427 1.397 . S
C423 C479 1.419 . S
C424 C420 1.391 . S
C424 C423 1.391 . S
C424 C425 1.399 . S
C425 C424 1.399 . S
C425 C428 1.396 . S
C425 C437 1.453 1_455 S
C425 C438 1.684 . S
H426 C450 0.948 . S
C427 C423 1.397 . S
C427 C428 1.394 . S
C427 C446 1.723 . S
C428 C425 1.396 . S
C428 C427 1.394 . S
C428 C458 1.723 . S
H429 C452 0.947 1_655 S
H430 C453 0.948 . S
H431 C459 0.982 . S
H432 C460 0.979 . S
H433 C460 0.980 . S
H434 C460 0.983 . S
H435 C459 0.979 . S
H436 C459 0.977 . S
C437 C425 1.453 1_655 S
C437 H466 0.982 . S
C437 H467 0.979 . S
C437 H468 0.977 . S
C438 C425 1.684 . S
C438 H463 0.979 . S
C438 H464 0.980 . S
C438 H465 0.983 . S
C439 C440 1.391 . S
C439 C444 1.391 . S
C439 H469 0.948 . S
C440 C439 1.391 . S
C440 C441 1.391 . S
C441 C440 1.391 . S
C441 C442 1.392 . S
C441 H470 0.947 . S
C442 C441 1.392 . S
C442 C443 1.419 . S
C442 H471 0.948 . S
C443 C442 1.419 . S
C443 C444 1.391 . S
C443 C447 1.397 . S
C444 C439 1.391 . S
C444 C443 1.391 . S
C444 C445 1.399 . S
C445 C444 1.399 . S
C445 C446 1.396 . S
C445 C448 1.453 . S
C445 C449 1.684 . S
C446 C427 1.723 . S
C446 C445 1.396 . S
C446 C447 1.394 . S
C447 C443 1.397 . S
C447 C446 1.394 . S
C447 C457 1.723 . S
C448 C445 1.453 . S
C448 H472 0.982 . S
C448 H473 0.979 . S
C448 H474 0.977 . S
C449 C445 1.684 . S
C449 H475 0.979 . S
C449 H476 0.980 . S
C449 H477 0.983 . S
C450 H426 0.948 . S
C450 C451 1.391 . S
C450 C455 1.391 . S
C451 C450 1.391 . S
C451 C452 1.391 . S
C452 H429 0.947 1_455 S
C452 C451 1.391 . S
C452 C453 1.392 . S
C453 H430 0.948 . S
C453 C452 1.392 . S
C453 C454 1.419 . S
C454 C453 1.419 . S
C454 C455 1.391 . S
C454 C458 1.397 . S
C455 C450 1.391 . S
C455 C454 1.391 . S
C455 C456 1.399 . S
C456 C455 1.399 . S
C456 C457 1.396 . S
C456 C459 1.453 . S
C456 C460 1.684 . S
C457 C447 1.723 . S
C457 C456 1.396 . S
C457 C458 1.394 . S
C458 C428 1.723 . S
C458 C454 1.397 . S
C458 C457 1.394 . S
C459 H431 0.982 . S
C459 H435 0.979 . S
C459 H436 0.977 . S
C459 C456 1.453 . S
C460 H432 0.979 . S
C460 H433 0.980 . S
C460 H434 0.983 . S
C460 C456 1.684 . S
H461 C479 0.948 . S
H462 C420 0.948 . S
H463 C438 0.979 . S
H464 C438 0.980 . S
H465 C438 0.983 . S
H466 C437 0.982 . S
H467 C437 0.979 . S
H468 C437 0.977 . S
H469 C439 0.948 . S
H470 C441 0.947 . S
H471 C442 0.948 . S
H472 C448 0.982 . S
H473 C448 0.979 . S
H474 C448 0.977 . S
H475 C449 0.979 . S
H476 C449 0.980 . S
H477 C449 0.983 . S
H478 C422 0.947 . S
C479 C422 1.392 . S
C479 C423 1.419 . S
C479 H461 0.948 . S
Zn480 O486 1.920 . S
Zn480 O492 1.898 . S
Zn480 O495 1.905 . S
Zn481 O489 1.905 1_565 S
Zn481 O490 1.898 . S
Zn481 O498 1.920 . S
Zn482 O485 2.080 1_455 S
Zn482 O488 2.114 . S
Zn482 O491 2.120 1_445 S
Zn482 O493 2.120 . S
Zn482 O494 2.114 1_455 S
Zn482 O497 2.080 . S
C483 O488 1.166 . S
C483 O489 1.182 . S
C484 O490 1.167 1_655 S
C484 O491 1.299 . S
O485 Zn482 2.080 1_655 S
O485 C499 1.305 . S
O486 Zn480 1.920 . S
O486 C499 1.234 . S
C487 O492 1.167 1_455 S
C487 O493 1.299 . S
O488 Zn482 2.114 . S
O488 C483 1.166 . S
O489 Zn481 1.905 1_545 S
O489 C483 1.182 . S
O490 Zn481 1.898 . S
O490 C484 1.167 1_455 S
O491 Zn482 2.120 1_665 S
O491 C484 1.299 . S
O492 Zn480 1.898 . S
O492 C487 1.167 1_655 S
O493 Zn482 2.120 . S
O493 C487 1.299 . S
O494 Zn482 2.114 1_655 S
O494 C496 1.166 . S
O495 Zn480 1.905 . S
O495 C496 1.182 . S
C496 O494 1.166 . S
C496 O495 1.182 . S
O497 Zn482 2.080 . S
O497 C500 1.305 1_545 S
O498 Zn481 1.920 . S
O498 C500 1.234 . S
C499 O485 1.305 . S
C499 O486 1.234 . S
C500 O497 1.305 1_565 S
C500 O498 1.234 . S
Zn501 O507 1.920 1_556 S
Zn501 O513 1.898 . S
Zn501 O516 1.905 . S
Zn502 O510 1.905 . S
Zn502 O511 1.898 . S
Zn502 O519 1.920 . S
Zn503 O506 2.080 . S
Zn503 O509 2.114 1_545 S
Zn503 O512 2.120 1_545 S
Zn503 O514 2.120 . S
Zn503 O515 2.114 1_544 S
Zn503 O518 2.080 . S
C504 O509 1.166 . S
C504 O510 1.182 . S
C505 O511 1.167 . S
C505 O512 1.299 . S
O506 Zn503 2.080 . S
O506 C520 1.305 . S
O507 Zn501 1.920 1_554 S
O507 C520 1.234 . S
C508 O513 1.167 . S
C508 O514 1.299 1_556 S
O509 Zn503 2.114 1_565 S
O509 C504 1.166 . S
O510 Zn502 1.905 . S
O510 C504 1.182 . S
O511 Zn502 1.898 . S
O511 C505 1.167 . S
O512 Zn503 2.120 1_565 S
O512 C505 1.299 . S
O513 Zn501 1.898 . S
O513 C508 1.167 . S
O514 Zn503 2.120 . S
O514 C508 1.299 1_554 S
O515 Zn503 2.114 1_566 S
O515 C517 1.166 . S
O516 Zn501 1.905 . S
O516 C517 1.182 1_545 S
C517 O515 1.166 . S
C517 O516 1.182 1_565 S
O518 Zn503 2.080 . S
O518 C521 1.305 . S
O519 Zn502 1.920 . S
O519 C521 1.234 1_565 S
C520 O506 1.305 . S
C520 O507 1.234 . S
C521 O518 1.305 . S
C521 O519 1.234 1_545 S
Zn522 O528 1.920 . S
Zn522 O534 1.898 . S
Zn522 O537 1.905 . S
Zn523 O531 1.905 . S
Zn523 O532 1.898 . S
Zn523 O540 1.920 . S
Zn524 O527 2.080 . S
Zn524 O530 2.114 . S
Zn524 O533 2.120 . S
Zn524 O535 2.120 . S
Zn524 O536 2.114 . S
Zn524 O539 2.080 . S
C525 O530 1.166 . S
C525 O531 1.182 . S
C526 O532 1.167 . S
C526 O533 1.299 . S
O527 Zn524 2.080 . S
O527 C541 1.305 . S
O528 Zn522 1.920 . S
O528 C541 1.234 . S
C529 O534 1.167 . S
C529 O535 1.299 . S
O530 Zn524 2.114 . S
O530 C525 1.166 . S
O531 Zn523 1.905 . S
O531 C525 1.182 . S
O532 Zn523 1.898 . S
O532 C526 1.167 . S
O533 Zn524 2.120 . S
O533 C526 1.299 . S
O534 Zn522 1.898 . S
O534 C529 1.167 . S
O535 Zn524 2.120 . S
O535 C529 1.299 . S
O536 Zn524 2.114 . S
O536 C538 1.166 . S
O537 Zn522 1.905 . S
O537 C538 1.182 . S
C538 O536 1.166 . S
C538 O537 1.182 . S
O539 Zn524 2.080 . S
O539 C542 1.305 . S
O540 Zn523 1.920 . S
O540 C542 1.234 . S
C541 O527 1.305 . S
C541 O528 1.234 . S
C542 O539 1.305 . S
C542 O540 1.234 . S
Zn543 O549 1.920 . S
Zn543 O555 1.898 . S
Zn543 O558 1.905 . S
Zn544 O552 1.905 1_655 S
Zn544 O553 1.898 . S
Zn544 O561 1.920 . S
Zn545 O548 2.080 1_554 S
Zn545 O551 2.114 . S
Zn545 O554 2.120 1_454 S
Zn545 O556 2.120 . S
Zn545 O557 2.114 1_554 S
Zn545 O560 2.080 . S
C546 O551 1.166 . S
C546 O552 1.182 . S
C547 O553 1.167 1_556 S
C547 O554 1.299 . S
O548 Zn545 2.080 1_556 S
O548 C562 1.305 . S
O549 Zn543 1.920 . S
O549 C562 1.234 . S
C550 O555 1.167 1_554 S
C550 O556 1.299 . S
O551 Zn545 2.114 . S
O551 C546 1.166 . S
O552 Zn544 1.905 1_455 S
O552 C546 1.182 . S
O553 Zn544 1.898 . S
O553 C547 1.167 1_554 S
O554 Zn545 2.120 1_656 S
O554 C547 1.299 . S
O555 Zn543 1.898 . S
O555 C550 1.167 1_556 S
O556 Zn545 2.120 . S
O556 C550 1.299 . S
O557 Zn545 2.114 1_556 S
O557 C559 1.166 . S
O558 Zn543 1.905 . S
O558 C559 1.182 . S
C559 O557 1.166 . S
C559 O558 1.182 . S
O560 Zn545 2.080 . S
O560 C563 1.305 1_455 S
O561 Zn544 1.920 . S
O561 C563 1.234 . S
C562 O548 1.305 . S
C562 O549 1.234 . S
C563 O560 1.305 1_655 S
C563 O561 1.234 . S
C564 C565 1.363 . S
C564 C570 1.379 . S
C564 N572 1.356 . S
C565 C564 1.363 . S
C565 C571 1.363 . S
C566 C567 1.363 . S
C566 C571 1.379 . S
C566 N573 1.356 . S
C567 C566 1.363 . S
C567 C570 1.363 . S
N568 C570 1.356 . S
N568 H580 0.984 1_455 S
N568 H581 0.985 . S
N569 C571 1.356 . S
N569 H574 0.984 . S
N569 H575 0.985 . S
C570 C564 1.379 . S
C570 C567 1.363 . S
C570 N568 1.356 . S
C571 C565 1.363 . S
C571 C566 1.379 . S
C571 N569 1.356 . S
N572 C564 1.356 . S
N572 H578 0.984 . S
N572 H579 0.984 . S
N573 C566 1.356 . S
N573 H576 0.984 . S
N573 H577 0.985 . S
H574 N569 0.984 . S
H575 N569 0.985 . S
H576 N573 0.984 . S
H577 N573 0.985 . S
H578 N572 0.984 . S
H579 N572 0.984 . S
H580 N568 0.984 1_655 S
H581 N568 0.985 . S
C582 C583 1.363 . S
C582 C588 1.379 . S
C582 N590 1.356 . S
C583 C582 1.363 . S
C583 C589 1.363 . S
C584 C585 1.363 . S
C584 C589 1.379 . S
C584 N591 1.356 . S
C585 C584 1.363 . S
C585 C588 1.363 . S
N586 C588 1.356 1_545 S
N586 H598 0.984 . S
N586 H599 0.985 . S
N587 C589 1.356 . S
N587 H592 0.984 . S
N587 H593 0.985 . S
C588 C582 1.379 . S
C588 C585 1.363 . S
C588 N586 1.356 1_565 S
C589 C583 1.363 . S
C589 C584 1.379 . S
C589 N587 1.356 . S
N590 C582 1.356 . S
N590 H596 0.984 1_565 S
N590 H597 0.984 . S
N591 C584 1.356 . S
N591 H594 0.984 . S
N591 H595 0.985 . S
H592 N587 0.984 . S
H593 N587 0.985 . S
H594 N591 0.984 . S
H595 N591 0.985 . S
H596 N590 0.984 1_545 S
H597 N590 0.984 . S
H598 N586 0.984 . S
H599 N586 0.985 . S
C600 C601 1.363 . S
C600 C606 1.379 . S
C600 N608 1.356 . S
C601 C600 1.363 . S
C601 C607 1.363 . S
C602 C603 1.363 . S
C602 C607 1.379 . S
C602 N609 1.356 . S
C603 C602 1.363 . S
C603 C606 1.363 . S
N604 C606 1.356 . S
N604 H616 0.984 . S
N604 H617 0.985 . S
N605 C607 1.356 . S
N605 H610 0.984 . S
N605 H611 0.985 . S
C606 C600 1.379 . S
C606 C603 1.363 . S
C606 N604 1.356 . S
C607 C601 1.363 . S
C607 C602 1.379 . S
C607 N605 1.356 . S
N608 C600 1.356 . S
N608 H614 0.984 . S
N608 H615 0.984 . S
N609 C602 1.356 . S
N609 H612 0.984 . S
N609 H613 0.985 . S
H610 N605 0.984 . S
H611 N605 0.985 . S
H612 N609 0.984 . S
H613 N609 0.985 . S
H614 N608 0.984 . S
H615 N608 0.984 . S
H616 N604 0.984 . S
H617 N604 0.985 . S
C618 C619 1.363 . S
C618 C624 1.379 . S
C618 N626 1.356 . S
C619 C618 1.363 . S
C619 C625 1.363 . S
C620 C621 1.363 . S
C620 C625 1.379 . S
C620 N627 1.356 . S
C621 C620 1.363 . S
C621 C624 1.363 . S
N622 C624 1.348 1_455 S
N622 H634 0.990 . S
N622 H635 0.988 . S
N623 C625 1.356 . S
N623 H628 0.984 . S
N623 H629 0.985 . S
C624 C618 1.379 . S
C624 C621 1.363 . S
C624 N622 1.348 1_655 S
C625 C619 1.363 . S
C625 C620 1.379 . S
C625 N623 1.356 . S
N626 C618 1.356 . S
N626 H632 0.984 . S
N626 H633 0.984 . S
N627 C620 1.356 . S
N627 H630 0.984 . S
N627 H631 0.985 . S
H628 N623 0.984 . S
H629 N623 0.985 . S
H630 N627 0.984 . S
H631 N627 0.985 . S
H632 N626 0.984 . S
H633 N626 0.984 . S
H634 N622 0.990 . S
H635 N622 0.988 . S
C636 C637 1.363 . S
C636 C642 1.379 . S
C636 N644 1.356 . S
C637 C636 1.363 . S
C637 C643 1.363 . S
C638 C639 1.363 . S
C638 C643 1.379 . S
C638 N645 1.356 . S
C639 C638 1.363 . S
C639 C642 1.363 . S
N640 C642 1.356 . S
N640 H652 0.984 1_554 S
N640 H653 0.985 . S
N641 C643 1.356 . S
N641 H646 0.984 . S
N641 H647 0.985 . S
C642 C636 1.379 . S
C642 C639 1.363 . S
C642 N640 1.356 . S
C643 C637 1.363 . S
C643 C638 1.379 . S
C643 N641 1.356 . S
N644 C636 1.356 . S
N644 H650 0.984 . S
N644 H651 0.984 . S
N645 C638 1.356 . S
N645 H648 0.984 . S
N645 H649 0.985 . S
H646 N641 0.984 . S
H647 N641 0.985 . S
H648 N645 0.984 . S
H649 N645 0.985 . S
H650 N644 0.984 . S
H651 N644 0.984 . S
H652 N640 0.984 1_556 S
H653 N640 0.985 . S
C654 C655 1.363 . S
C654 C660 1.379 . S
C654 N662 1.356 . S
C655 C654 1.363 . S
C655 C661 1.363 . S
C656 C657 1.363 . S
C656 C661 1.379 . S
C656 N663 1.356 . S
C657 C656 1.363 . S
C657 C660 1.363 . S
N658 C660 1.356 1_545 S
N658 H670 0.984 . S
N658 H671 0.985 . S
N659 C661 1.356 . S
N659 H664 0.984 . S
N659 H665 0.985 . S
C660 C654 1.379 . S
C660 C657 1.363 . S
C660 N658 1.356 1_565 S
C661 C655 1.363 . S
C661 C656 1.379 . S
C661 N659 1.356 . S
N662 C654 1.356 . S
N662 H668 0.984 1_565 S
N662 H669 0.984 . S
N663 C656 1.356 . S
N663 H666 0.984 . S
N663 H667 0.985 . S
H664 N659 0.984 . S
H665 N659 0.985 . S
H666 N663 0.984 . S
H667 N663 0.985 . S
H668 N662 0.984 1_545 S
H669 N662 0.984 . S
H670 N658 0.984 . S
H671 N658 0.985 . S
C672 C673 1.363 . S
C672 C678 1.379 . S
C672 N680 1.356 . S
C673 C672 1.363 . S
C673 C679 1.363 . S
C674 C675 1.363 . S
C674 C679 1.379 . S
C674 N681 1.356 . S
C675 C674 1.363 . S
C675 C678 1.363 . S
N676 C678 1.356 1_554 S
N676 H688 0.984 . S
N676 H689 0.985 . S
N677 C679 1.356 . S
N677 H682 0.984 . S
N677 H683 0.985 . S
C678 C672 1.379 . S
C678 C675 1.363 . S
C678 N676 1.356 1_556 S
C679 C673 1.363 . S
C679 C674 1.379 . S
C679 N677 1.356 . S
N680 C672 1.356 . S
N680 H686 0.981 1_556 S
N680 H687 0.984 . S
N681 C674 1.356 . S
N681 H684 0.984 . S
N681 H685 0.985 . S
H682 N677 0.984 . S
H683 N677 0.985 . S
H684 N681 0.984 . S
H685 N681 0.985 . S
H686 N680 0.981 1_554 S
H687 N680 0.984 . S
H688 N676 0.984 . S
H689 N676 0.985 . S
C690 C691 1.363 . S
C690 C696 1.379 . S
C690 N698 1.356 . S
C691 C690 1.363 . S
C691 C697 1.363 . S
C692 C693 1.363 . S
C692 C697 1.379 . S
C692 N699 1.356 . S
C693 C692 1.363 . S
C693 C696 1.363 . S
N694 C696 1.356 . S
N694 H706 0.984 . S
N694 H707 0.985 . S
N695 C697 1.356 . S
N695 H700 0.984 . S
N695 H701 0.985 . S
C696 C690 1.379 . S
C696 C693 1.363 . S
C696 N694 1.356 . S
C697 C691 1.363 . S
C697 C692 1.379 . S
C697 N695 1.356 . S
N698 C690 1.356 . S
N698 H704 0.984 . S
N698 H705 0.984 . S
N699 C692 1.356 . S
N699 H702 0.984 . S
N699 H703 0.985 . S
H700 N695 0.984 . S
H701 N695 0.985 . S
H702 N699 0.984 . S
H703 N699 0.985 . S
H704 N698 0.984 . S
H705 N698 0.984 . S
H706 N694 0.984 . S
H707 N694 0.985 . S
C708 C709 1.363 . S
C708 C714 1.379 . S
C708 N716 1.356 . S
C709 C708 1.363 . S
C709 C715 1.363 . S
C710 C711 1.363 . S
C710 C715 1.379 . S
C710 N717 1.356 . S
C711 C710 1.363 . S
C711 C714 1.363 . S
N712 C714 1.356 . S
N712 H724 0.984 1_554 S
N712 H725 0.985 . S
N713 C715 1.356 . S
N713 H718 0.984 . S
N713 H719 0.985 . S
C714 C708 1.379 . S
C714 C711 1.363 . S
C714 N712 1.356 . S
C715 C709 1.363 . S
C715 C710 1.379 . S
C715 N713 1.356 . S
N716 C708 1.356 . S
N716 H722 0.984 . S
N716 H723 0.984 . S
N717 C710 1.356 . S
N717 H720 0.984 . S
N717 H721 0.985 . S
H718 N713 0.984 . S
H719 N713 0.985 . S
H720 N717 0.984 . S
H721 N717 0.985 . S
H722 N716 0.984 . S
H723 N716 0.984 . S
H724 N712 0.984 1_556 S
H725 N712 0.985 . S
C726 C727 1.363 . S
C726 C732 1.379 . S
C726 N734 1.356 . S
C727 C726 1.363 . S
C727 C733 1.363 . S
C728 C729 1.363 . S
C728 C733 1.379 . S
C728 N735 1.356 . S
C729 C728 1.363 . S
C729 C732 1.363 . S
N730 C732 1.356 1_554 S
N730 H742 0.984 . S
N730 H743 0.985 . S
N731 C733 1.356 . S
N731 H736 0.984 . S
N731 H737 0.985 . S
C732 C726 1.379 . S
C732 C729 1.363 . S
C732 N730 1.356 1_556 S
C733 C727 1.363 . S
C733 C728 1.379 . S
C733 N731 1.356 . S
N734 C726 1.356 . S
N734 H740 0.984 1_556 S
N734 H741 0.984 . S
N735 C728 1.356 . S
N735 H738 0.984 . S
N735 H739 0.985 . S
H736 N731 0.984 . S
H737 N731 0.985 . S
H738 N735 0.984 . S
H739 N735 0.985 . S
H740 N734 0.984 1_554 S
H741 N734 0.984 . S
H742 N730 0.984 . S
H743 N730 0.985 . S
C744 C745 1.363 . S
C744 C750 1.379 . S
C744 N752 1.356 . S
C745 C744 1.363 . S
C745 C751 1.363 . S
C746 C747 1.363 . S
C746 C751 1.379 . S
C746 N753 1.356 . S
C747 C746 1.363 . S
C747 C750 1.363 . S
N748 C750 1.356 . S
N748 H760 0.984 1_655 S
N748 H761 0.991 . S
N749 C751 1.356 . S
N749 H754 0.984 . S
N749 H755 0.985 . S
C750 C744 1.379 . S
C750 C747 1.363 . S
C750 N748 1.356 . S
C751 C745 1.363 . S
C751 C746 1.379 . S
C751 N749 1.356 . S
N752 C744 1.356 . S
N752 H758 0.984 . S
N752 H759 0.984 . S
N753 C746 1.356 . S
N753 H756 0.984 . S
N753 H757 0.985 . S
H754 N749 0.984 . S
H755 N749 0.985 . S
H756 N753 0.984 . S
H757 N753 0.985 . S
H758 N752 0.984 . S
H759 N752 0.984 . S
H760 N748 0.984 1_455 S
H761 N748 0.991 . S
C762 C763 1.363 . S
C762 C768 1.379 . S
C762 N770 1.356 . S
C763 C762 1.363 . S
C763 C769 1.363 . S
C764 C765 1.363 . S
C764 C769 1.379 . S
C764 N771 1.356 . S
C765 C764 1.363 . S
C765 C768 1.363 . S
N766 C768 1.356 . S
N766 H778 0.984 . S
N766 H779 0.985 . S
N767 C769 1.356 . S
N767 H772 0.984 . S
N767 H773 0.985 . S
C768 C762 1.379 . S
C768 C765 1.363 . S
C768 N766 1.356 . S
C769 C763 1.363 . S
C769 C764 1.379 . S
C769 N767 1.356 . S
N770 C762 1.356 . S
N770 H776 0.984 . S
N770 H777 0.984 . S
N771 C764 1.356 . S
N771 H774 0.984 . S
N771 H775 0.985 . S
H772 N767 0.984 . S
H773 N767 0.985 . S
H774 N771 0.984 . S
H775 N771 0.985 . S
H776 N770 0.984 . S
H777 N770 0.984 . S
H778 N766 0.984 . S
H779 N766 0.985 . S
C780 C781 1.363 1_465 S
C780 C786 1.379 . S
C780 N788 1.356 . S
C781 C780 1.363 1_645 S
C781 C787 1.363 . S
C782 C783 1.363 . S
C782 C787 1.379 . S
C782 N789 1.356 . S
C783 C782 1.363 . S
C783 C786 1.363 1_645 S
N784 C786 1.356 . S
N784 H796 0.984 . S
N784 H797 0.985 . S
N785 C787 1.356 . S
N785 H790 0.984 . S
N785 H791 0.985 . S
C786 C780 1.379 . S
C786 C783 1.363 1_465 S
C786 N784 1.356 . S
C787 C781 1.363 . S
C787 C782 1.379 . S
C787 N785 1.356 . S
N788 C780 1.356 . S
N788 H794 0.984 . S
N788 H795 0.984 . S
N789 C782 1.356 . S
N789 H792 0.984 . S
N789 H793 0.985 . S
H790 N785 0.984 . S
H791 N785 0.985 . S
H792 N789 0.984 . S
H793 N789 0.985 . S
H794 N788 0.984 . S
H795 N788 0.984 . S
H796 N784 0.984 . S
H797 N784 0.985 . S
C798 C799 1.351 1_565 S
C798 C804 1.379 . S
C798 N806 1.365 . S
C799 C798 1.351 1_545 S
C799 C805 1.363 . S
C800 C801 1.363 . S
C800 C805 1.379 . S
C800 N807 1.356 . S
C801 C800 1.363 . S
C801 C804 1.349 1_545 S
N802 C804 1.367 . S
N802 H814 0.984 . S
N802 H815 0.985 . S
N803 C805 1.356 . S
N803 H808 0.984 . S
N803 H809 0.985 . S
C804 C798 1.379 . S
C804 C801 1.349 1_565 S
C804 N802 1.367 . S
C805 C799 1.363 . S
C805 C800 1.379 . S
C805 N803 1.356 . S
N806 C798 1.365 . S
N806 H812 0.984 . S
N806 H813 0.984 . S
N807 C800 1.356 . S
N807 H810 0.984 . S
N807 H811 0.985 . S
H808 N803 0.984 . S
H809 N803 0.985 . S
H810 N807 0.984 . S
H811 N807 0.985 . S
H812 N806 0.984 . S
H813 N806 0.984 . S
H814 N802 0.984 . S
H815 N802 0.985 . S
C816 C817 1.363 . S
C816 C822 1.379 . S
C816 N824 1.356 . S
C817 C816 1.363 . S
C817 C823 1.363 . S
C818 C819 1.363 . S
C818 C823 1.379 . S
C818 N825 1.356 . S
C819 C818 1.363 . S
C819 C822 1.363 . S
N820 C822 1.356 . S
N820 H832 0.984 . S
N820 H833 0.985 . S
N821 C823 1.356 . S
N821 H826 0.984 . S
N821 H827 0.985 . S
C822 C816 1.379 . S
C822 C819 1.363 . S
C822 N820 1.356 . S
C823 C817 1.363 . S
C823 C818 1.379 . S
C823 N821 1.356 . S
N824 C816 1.356 . S
N824 H830 0.984 . S
N824 H831 0.984 . S
N825 C818 1.356 . S
N825 H828 0.984 . S
N825 H829 0.985 . S
H826 N821 0.984 . S
H827 N821 0.985 . S
H828 N825 0.984 . S
H829 N825 0.985 . S
H830 N824 0.984 . S
H831 N824 0.984 . S
H832 N820 0.984 . S
H833 N820 0.985 . S
C834 C835 1.363 . S
C834 C840 1.379 . S
C834 N842 1.361 . S
C835 C834 1.363 . S
C835 C841 1.363 . S
C836 C837 1.363 . S
C836 C841 1.379 . S
C836 N843 1.356 . S
C837 C836 1.363 . S
C837 C840 1.363 . S
N838 C840 1.356 . S
N838 H850 0.984 1_455 S
N838 H851 0.985 . S
N839 C841 1.356 . S
N839 H844 0.984 . S
N839 H845 0.985 . S
C840 C834 1.379 . S
C840 C837 1.363 . S
C840 N838 1.356 . S
C841 C835 1.363 . S
C841 C836 1.379 . S
C841 N839 1.356 . S
N842 C834 1.361 . S
N842 H848 0.979 1_455 S
N842 H849 0.985 . S
N843 C836 1.356 . S
N843 H846 0.984 . S
N843 H847 0.985 . S
H844 N839 0.984 . S
H845 N839 0.985 . S
H846 N843 0.984 . S
H847 N843 0.985 . S
H848 N842 0.979 1_655 S
H849 N842 0.985 . S
H850 N838 0.984 1_655 S
H851 N838 0.985 . S
C852 C853 1.363 1_556 S
C852 C858 1.379 . S
C852 N860 1.356 . S
C853 C852 1.363 1_554 S
C853 C859 1.363 1_565 S
C854 C855 1.363 1_545 S
C854 C859 1.379 . S
C854 N861 1.356 . S
C855 C854 1.363 1_565 S
C855 C858 1.363 1_554 S
N856 C858 1.356 . S
N856 H868 0.984 . S
N856 H869 0.985 . S
N857 C859 1.356 . S
N857 H862 0.984 . S
N857 H863 0.985 . S
C858 C852 1.379 . S
C858 C855 1.363 1_556 S
C858 N856 1.356 . S
C859 C853 1.363 1_545 S
C859 C854 1.379 . S
C859 N857 1.356 . S
N860 C852 1.356 . S
N860 H866 0.984 . S
N860 H867 0.984 . S
N861 C854 1.356 . S
N861 H864 0.984 . S
N861 H865 0.985 . S
H862 N857 0.984 . S
H863 N857 0.985 . S
H864 N861 0.984 . S
H865 N861 0.985 . S
H866 N860 0.984 . S
H867 N860 0.984 . S
H868 N856 0.984 . S
H869 N856 0.985 . S
C870 C871 1.363 . S
C870 C876 1.379 . S
C870 N878 1.356 . S
C871 C870 1.363 . S
C871 C877 1.363 . S
C872 C873 1.363 . S
C872 C877 1.379 . S
C872 N879 1.356 . S
C873 C872 1.363 . S
C873 C876 1.363 . S
N874 C876 1.356 . S
N874 H886 0.984 . S
N874 H887 0.985 . S
N875 C877 1.356 . S
N875 H880 0.984 . S
N875 H881 0.985 1_545 S
C876 C870 1.379 . S
C876 C873 1.363 . S
C876 N874 1.356 . S
C877 C871 1.363 . S
C877 C872 1.379 . S
C877 N875 1.356 . S
N878 C870 1.356 . S
N878 H884 0.984 . S
N878 H885 0.984 . S
N879 C872 1.356 . S
N879 H882 0.984 . S
N879 H883 0.985 1_545 S
H880 N875 0.984 . S
H881 N875 0.985 1_565 S
H882 N879 0.984 . S
H883 N879 0.985 1_565 S
H884 N878 0.984 . S
H885 N878 0.984 . S
H886 N874 0.984 . S
H887 N874 0.985 . S
C888 C889 1.363 . S
C888 C894 1.379 . S
C888 N896 1.356 . S
C889 C888 1.363 . S
C889 C895 1.363 . S
C890 C891 1.363 . S
C890 C895 1.379 . S
C890 N897 1.356 . S
C891 C890 1.363 . S
C891 C894 1.363 . S
N892 C894 1.356 . S
N892 H904 0.984 1_554 S
N892 H905 0.985 . S
N893 C895 1.356 . S
N893 H898 0.984 . S
N893 H899 0.985 . S
C894 C888 1.379 . S
C894 C891 1.363 . S
C894 N892 1.356 . S
C895 C889 1.363 . S
C895 C890 1.379 . S
C895 N893 1.356 . S
N896 C888 1.356 . S
N896 H902 0.984 1_554 S
N896 H903 0.984 . S
N897 C890 1.356 . S
N897 H900 0.984 . S
N897 H901 0.985 . S
H898 N893 0.984 . S
H899 N893 0.985 . S
H900 N897 0.984 . S
H901 N897 0.985 . S
H902 N896 0.984 1_556 S
H903 N896 0.984 . S
H904 N892 0.984 1_556 S
H905 N892 0.985 . S
C906 C907 1.363 . S
C906 C912 1.379 . S
C906 N914 1.356 . S
C907 C906 1.363 . S
C907 C913 1.363 . S
C908 C909 1.363 . S
C908 C913 1.379 . S
C908 N915 1.356 . S
C909 C908 1.363 . S
C909 C912 1.363 . S
N910 C912 1.356 . S
N910 H922 0.984 . S
N910 H923 0.985 . S
N911 C913 1.356 . S
N911 H916 0.984 . S
N911 H917 0.985 . S
C912 C906 1.379 . S
C912 C909 1.363 . S
C912 N910 1.356 . S
C913 C907 1.363 . S
C913 C908 1.379 . S
C913 N911 1.356 . S
N914 C906 1.356 . S
N914 H920 0.984 . S
N914 H921 0.984 . S
N915 C908 1.356 . S
N915 H918 0.984 . S
N915 H919 0.985 . S
H916 N911 0.984 . S
H917 N911 0.985 . S
H918 N915 0.984 . S
H919 N915 0.985 . S
H920 N914 0.984 . S
H921 N914 0.984 . S
H922 N910 0.984 . S
H923 N910 0.985 . S
C924 C925 1.343 1_554 S
C924 C930 1.379 . S
C924 N932 1.356 . S
C925 C924 1.343 1_556 S
C925 C931 1.386 1_455 S
C926 C927 1.363 1_655 S
C926 C931 1.379 . S
C926 N933 1.356 . S
C927 C926 1.363 1_455 S
C927 C930 1.363 1_556 S
N928 C930 1.356 . S
N928 H940 0.984 . S
N928 H941 0.985 . S
N929 C931 1.356 . S
N929 H934 0.984 . S
N929 H935 0.985 . S
C930 C924 1.379 . S
C930 C927 1.363 1_554 S
C930 N928 1.356 . S
C931 C925 1.386 1_655 S
C931 C926 1.379 . S
C931 N929 1.356 . S
N932 C924 1.356 . S
N932 H938 0.984 . S
N932 H939 0.984 . S
N933 C926 1.356 . S
N933 H936 0.984 . S
N933 H937 0.985 . S
H934 N929 0.984 . S
H935 N929 0.985 . S
H936 N933 0.984 . S
H937 N933 0.985 . S
H938 N932 0.984 . S
H939 N932 0.984 . S
H940 N928 0.984 . S
H941 N928 0.985 . S
C942 C943 1.363 . S
C942 C948 1.379 . S
C942 N950 1.356 1_554 S
C943 C942 1.363 . S
C943 C949 1.363 . S
C944 C945 1.363 . S
C944 C949 1.379 . S
C944 N951 1.356 . S
C945 C944 1.363 . S
C945 C948 1.363 . S
N946 C948 1.356 1_556 S
N946 H958 0.984 . S
N946 H959 0.985 1_556 S
N947 C949 1.356 . S
N947 H952 0.984 . S
N947 H953 0.985 . S
C948 C942 1.379 . S
C948 C945 1.363 . S
C948 N946 1.356 1_554 S
C949 C943 1.363 . S
C949 C944 1.379 . S
C949 N947 1.356 . S
N950 C942 1.356 1_556 S
N950 H956 0.984 . S
N950 H957 0.984 . S
N951 C944 1.356 . S
N951 H954 0.984 . S
N951 H955 0.985 . S
H952 N947 0.984 . S
H953 N947 0.985 . S
H954 N951 0.984 . S
H955 N951 0.985 . S
H956 N950 0.984 . S
H957 N950 0.984 . S
H958 N946 0.984 . S
H959 N946 0.985 1_554 S
C960 C961 1.363 . S
C960 C966 1.379 . S
C960 N968 1.356 1_455 S
C961 C960 1.363 . S
C961 C967 1.363 . S
C962 C963 1.363 . S
C962 C967 1.379 . S
C962 N969 1.356 . S
C963 C962 1.363 . S
C963 C966 1.363 . S
N964 C966 1.356 1_655 S
N964 H976 0.984 . S
N964 H977 0.985 . S
N965 C967 1.356 . S
N965 H970 0.984 . S
N965 H971 0.985 . S
C966 C960 1.379 . S
C966 C963 1.363 . S
C966 N964 1.356 1_455 S
C967 C961 1.363 . S
C967 C962 1.379 . S
C967 N965 1.356 . S
N968 C960 1.356 1_655 S
N968 H974 0.984 . S
N968 H975 0.984 . S
N969 C962 1.356 . S
N969 H972 0.984 . S
N969 H973 0.985 . S
H970 N965 0.984 . S
H971 N965 0.985 . S
H972 N969 0.984 . S
H973 N969 0.985 . S
H974 N968 0.984 . S
H975 N968 0.984 . S
H976 N964 0.984 . S
H977 N964 0.985 . S
C978 C979 1.363 . S
C978 C984 1.379 . S
C978 N986 1.356 . S
C979 C978 1.363 . S
C979 C985 1.363 . S
C980 C981 1.363 . S
C980 C985 1.379 . S
C980 N987 1.356 . S
C981 C980 1.363 . S
C981 C984 1.363 . S
N982 C984 1.356 . S
N982 H994 0.984 . S
N982 H995 0.985 . S
N983 C985 1.356 . S
N983 H988 0.984 . S
N983 H989 0.985 . S
C984 C978 1.379 . S
C984 C981 1.363 . S
C984 N982 1.356 . S
C985 C979 1.363 . S
C985 C980 1.379 . S
C985 N983 1.356 . S
N986 C978 1.356 . S
N986 H992 0.984 . S
N986 H993 0.984 . S
N987 C980 1.356 . S
N987 H990 0.984 . S
N987 H991 0.985 . S
H988 N983 0.984 . S
H989 N983 0.985 . S
H990 N987 0.984 . S
H991 N987 0.985 . S
H992 N986 0.984 . S
H993 N986 0.984 . S
H994 N982 0.984 . S
H995 N982 0.985 . S
C565 C1 1.515 . S
C567 C483 1.433 . S
C583 C80 1.497 . S
C585 C517 1.417 . S
C603 C529 1.408 . S
C601 C140 1.476 . S
C619 C211 1.496 . S
C621 C563 1.415 . S
C639 C520 1.421 . S
C637 C31 1.507 . S
C657 C500 1.411 . S
C655 C61 1.495 . S
C675 C547 1.401 . S
C673 C151 1.470 . S
C693 C538 1.422 . S
C691 C200 1.501 . S
C709 C20 1.509 . S
C711 C546 1.426 . S
C729 C508 1.408 . S
C727 C121 1.479 . S
C745 C181 1.496 . S
C747 C484 1.407 . S
C763 C91 1.496 . S
C765 C541 1.412 . S
C783 C499 1.669 . S
C781 C260 1.762 . S
C799 C320 1.657 . S
C801 C521 1.666 . S
C817 C361 1.786 . S
C819 C526 1.691 . S
C835 C451 1.685 . S
C837 C559 1.707 . S
C853 C271 1.775 . S
C855 C504 1.689 . S
C873 C496 1.692 . S
C871 C301 1.676 . S
C891 C550 1.693 . S
C889 C380 1.788 . S
C909 C542 1.678 . S
C907 C440 1.665 . S
C925 C241 1.758 . S
C927 C562 1.667 . S
C945 C505 1.694 . S
C943 C391 1.787 . S
C963 C487 1.665 . S
C961 C421 1.658 . S
C979 C331 1.668 . S
C981 C525 1.687 . S
