# Generated by pormake.
# Topology zzz, (3,6)-cn, num edge types: 1
# Building blocks:
#     Node 0, Type 0, BuildingBlock: PAMTOO_clean_linker_0, # of connection points: 3
#     Node 1, Type 0, BuildingBlock: PAMTOO_clean_linker_0, # of connection points: 3
#     Node 2, Type 0, BuildingBlock: PAMTOO_clean_linker_0, # of connection points: 3
#     Node 3, Type 0, BuildingBlock: PAMTOO_clean_linker_0, # of connection points: 3
#     Node 4, Type 0, BuildingBlock: PAMTOO_clean_linker_0, # of connection points: 3
#     Node 5, Type 0, BuildingBlock: PAMTOO_clean_linker_0, # of connection points: 3
#     Node 6, Type 0, BuildingBlock: PAMTOO_clean_linker_0, # of connection points: 3
#     Node 7, Type 0, BuildingBlock: PAMTOO_clean_linker_0, # of connection points: 3
#     Node 8, Type 1, BuildingBlock: KUMJIN_clean_sbu_1, # of connection points: 6
#     Node 9, Type 1, BuildingBlock: KUMJIN_clean_sbu_1, # of connection points: 6
#     Node 10, Type 1, BuildingBlock: KUMJIN_clean_sbu_1, # of connection points: 6
#     Node 11, Type 1, BuildingBlock: KUMJIN_clean_sbu_1, # of connection points: 6
#     Edge 12, Type (0, 1), BuildingBlock: OJICUG_clean_linker_0, # of connection points: 2
#     Edge 13, Type (0, 1), BuildingBlock: OJICUG_clean_linker_0, # of connection points: 2
#     Edge 14, Type (0, 1), BuildingBlock: OJICUG_clean_linker_0, # of connection points: 2
#     Edge 15, Type (0, 1), BuildingBlock: OJICUG_clean_linker_0, # of connection points: 2
#     Edge 16, Type (0, 1), BuildingBlock: OJICUG_clean_linker_0, # of connection points: 2
#     Edge 17, Type (0, 1), BuildingBlock: OJICUG_clean_linker_0, # of connection points: 2
#     Edge 18, Type (0, 1), BuildingBlock: OJICUG_clean_linker_0, # of connection points: 2
#     Edge 19, Type (0, 1), BuildingBlock: OJICUG_clean_linker_0, # of connection points: 2
#     Edge 20, Type (0, 1), BuildingBlock: OJICUG_clean_linker_0, # of connection points: 2
#     Edge 21, Type (0, 1), BuildingBlock: OJICUG_clean_linker_0, # of connection points: 2
#     Edge 22, Type (0, 1), BuildingBlock: OJICUG_clean_linker_0, # of connection points: 2
#     Edge 23, Type (0, 1), BuildingBlock: OJICUG_clean_linker_0, # of connection points: 2
#     Edge 24, Type (0, 1), BuildingBlock: OJICUG_clean_linker_0, # of connection points: 2
#     Edge 25, Type (0, 1), BuildingBlock: OJICUG_clean_linker_0, # of connection points: 2
#     Edge 26, Type (0, 1), BuildingBlock: OJICUG_clean_linker_0, # of connection points: 2
#     Edge 27, Type (0, 1), BuildingBlock: OJICUG_clean_linker_0, # of connection points: 2
#     Edge 28, Type (0, 1), BuildingBlock: OJICUG_clean_linker_0, # of connection points: 2
#     Edge 29, Type (0, 1), BuildingBlock: OJICUG_clean_linker_0, # of connection points: 2
#     Edge 30, Type (0, 1), BuildingBlock: OJICUG_clean_linker_0, # of connection points: 2
#     Edge 31, Type (0, 1), BuildingBlock: OJICUG_clean_linker_0, # of connection points: 2
#     Edge 32, Type (0, 1), BuildingBlock: OJICUG_clean_linker_0, # of connection points: 2
#     Edge 33, Type (0, 1), BuildingBlock: OJICUG_clean_linker_0, # of connection points: 2
#     Edge 34, Type (0, 1), BuildingBlock: OJICUG_clean_linker_0, # of connection points: 2
#     Edge 35, Type (0, 1), BuildingBlock: OJICUG_clean_linker_0, # of connection points: 2
# Relax obj value: 0.241
# Max RMSD: 0.125
# Mean RMSD: 0.083
data_MOF--net-zzz--node1-KUMJIN_clean_sbu_1--node2-PAMTOO_clean_linker_0--edge1-OJICUG_clean_linker_0
_symmetry_space_group_name_H-M    P1
_symmetry_Int_Tables_number       1
_symmetry_cell_setting            triclinic
loop_
_symmetry_equiv_pos_as_xyz
'x, y, z'
_cell_length_a     36.78237
_cell_length_b     36.799551
_cell_length_c     11.689667
_cell_angle_alpha  89.709649
_cell_angle_beta   90.582632
_cell_angle_gamma 90.440038
loop_
_atom_site_label
_atom_site_type_symbol
_atom_site_fract_x
_atom_site_fract_y
_atom_site_fract_z
_atom_type_partial_charge
H0 H 0.84884 0.46048 0.35163 0.0
H1 H 0.75046 0.48035 0.16309 0.0
H2 H 0.7866 0.55684 0.41933 0.0
H3 H 0.68684 0.55307 0.31675 0.0
C4 C 0.69847 0.53428 0.25323 0.0
O5 O 0.73603 0.54224 0.24483 0.0
H6 H 0.69455 0.50668 0.2907 0.0
C7 C 0.82456 0.47658 0.33987 0.0
C8 C 0.82091 0.50849 0.40451 0.0
C9 C 0.79956 0.46626 0.25389 0.0
C10 C 0.76946 0.48803 0.23032 0.0
C11 C 0.76394 0.52064 0.28711 0.0
C12 C 0.79 0.53126 0.37564 0.0
H13 H 0.95862 0.84776 0.34505 0.0
H14 H 0.95414 0.73612 0.24156 0.0
H15 H 0.03605 0.77193 0.48184 0.0
H16 H 0.06076 0.71306 0.24638 0.0
C17 C 0.0313 0.70834 0.23005 0.0
O18 O 1.01314 0.71626 0.33306 0.0
H19 H 0.02367 0.72848 0.16283 0.0
C20 C 0.96804 0.82021 0.35318 0.0
C21 C 0.99552 0.81316 0.43502 0.0
C22 C 0.95593 0.79366 0.27399 0.0
C23 C 0.966 0.75757 0.29323 0.0
C24 C 0.99757 0.74977 0.35456 0.0
C25 C 1.01247 0.77776 0.429 0.0
H26 H 0.70652 0.09154 0.41946 0.0
H27 H 0.80205 0.08335 0.21263 0.0
H28 H 0.76726 0.99207 0.41783 0.0
H29 H 0.86375 1.00525 0.3544 0.0
C30 C 0.85511 0.02371 0.2838 0.0
O31 O 0.81786 0.01738 0.26303 0.0
H32 H 0.85944 0.05185 0.31586 0.0
C33 C 0.73052 0.07664 0.39479 0.0
C34 C 0.73402 0.04084 0.43395 0.0
C35 C 0.75424 0.09188 0.31372 0.0
C36 C 0.78413 0.07188 0.27663 0.0
C37 C 0.79012 0.03631 0.31441 0.0
C38 C 0.76441 0.02027 0.39291 0.0
H39 H 0.58351 0.69421 0.29539 0.0
H40 H 0.58473 0.80286 0.15569 0.0
H41 H 0.5182 0.77726 0.44586 0.0
H42 H 0.48726 0.84785 0.24053 0.0
C43 C 0.51386 0.84285 0.1996 0.0
O44 O 0.53806 0.83015 0.28534 0.0
H45 H 0.50845 0.82089 0.13638 0.0
C46 C 0.57514 0.72229 0.29785 0.0
C47 C 0.55175 0.73218 0.38666 0.0
C48 C 0.58459 0.74638 0.20765 0.0
C49 C 0.57542 0.78313 0.21793 0.0
C50 C 0.54987 0.79456 0.29664 0.0
C51 C 0.53786 0.76888 0.38322 0.0
H52 H 0.19885 0.50917 0.23993 0.0
H53 H 0.30991 0.49315 0.34174 0.0
H54 H 0.28434 0.52053 0.99148 0.0
H55 H 0.34326 0.56107 0.23173 0.0
C56 C 0.36094 0.53834 0.20438 0.0
O57 O 0.33927 0.5104 0.1561 0.0
H58 H 0.3779 0.55004 0.13507 0.0
C59 C 0.22706 0.50675 0.21598 0.0
C60 C 0.23671 0.51254 0.10089 0.0
C61 C 0.25341 0.50035 0.30211 0.0
C62 C 0.28992 0.49821 0.27467 0.0
C63 C 0.30203 0.5077 0.16709 0.0
C64 C 0.27531 0.51415 0.07713 0.0
H65 H 0.96397 0.20252 0.15411 0.0
H66 H 0.9796 0.30414 0.3264 0.0
H67 H 0.06116 0.26588 0.09434 0.0
H68 H 1.0061 0.35876 0.20579 0.0
C69 C 0.03444 0.35613 0.23885 0.0
O70 O 0.04291 0.31896 0.25493 0.0
H71 H 0.05202 0.3667 0.16928 0.0
C72 C 0.97969 0.22729 0.16522 0.0
C73 C 1.01275 0.23071 0.1067 0.0
C74 C 0.96773 0.2532 0.24435 0.0
C75 C 0.98873 0.28429 0.26519 0.0
C76 C 0.02235 0.28981 0.21409 0.0
C77 C 0.03482 0.26258 0.13355 0.0
H78 H 0.35101 0.09482 0.11152 0.0
H79 H 0.2524 0.09931 0.3053 0.0
H80 H 0.28281 0.99998 0.1357 0.0
H81 H 0.2377 0.04524 0.43283 0.0
C82 C 0.22231 0.02605 0.37692 0.0
O83 O 0.22945 0.03404 0.26123 0.0
H84 H 0.23359 0.99874 0.39611 0.0
C85 C 0.3259 0.08222 0.13977 0.0
C86 C 0.32052 0.04574 0.11245 0.0
C87 C 0.30282 0.10117 0.21356 0.0
C88 C 0.27036 0.08463 0.24931 0.0
C89 C 0.26212 0.04832 0.22217 0.0
C90 C 0.28797 0.02831 0.15466 0.0
H91 H 0.45499 0.35605 0.15451 0.0
H92 H 0.47188 0.25499 0.33404 0.0
H93 H 0.53726 0.28161 0.04466 0.0
H94 H 0.51319 0.18186 0.14499 0.0
C95 C 0.50609 0.19681 0.22323 0.0
O96 O 0.52286 0.23151 0.21854 0.0
H97 H 0.47601 0.19952 0.2174 0.0
C98 C 0.46867 0.33045 0.16369 0.0
C99 C 0.49657 0.32275 0.08519 0.0
C100 C 0.46052 0.30758 0.25847 0.0
C101 C 0.47766 0.27371 0.26523 0.0
C102 C 0.50485 0.26342 0.19083 0.0
C103 C 0.51508 0.28845 0.10051 0.0
Eu104 Eu 0.99141 0.0349 0.64982 0.0
C105 C 0.13079 0.04183 0.9838 0.0
N106 N 0.12123 0.01825 0.89954 0.0
C107 C 0.18373 1.01318 0.84507 0.0
C108 C 0.16732 0.05272 1.00029 0.0
C109 C 0.14715 1.0032 0.83203 0.0
C110 C 0.19385 0.03828 0.92897 0.0
C111 C 0.11296 0.07857 0.14525 0.0
C112 C 0.10402 0.0547 0.05501 0.0
C113 C 0.14912 0.09024 0.16007 0.0
C114 C 0.17619 0.07748 0.08743 0.0
Eu115 Eu 0.05847 1.00434 0.87948 0.0
N116 N 0.06909 0.04412 0.03531 0.0
C117 C 0.08518 0.0904 0.21673 0.0
C118 C 0.04199 0.05485 0.10649 0.0
C119 C 0.04954 0.07846 0.19722 0.0
H120 H 0.13981 0.983 0.76904 0.0
H121 H 0.02789 0.0873 0.2523 0.0
H122 H 0.91175 1.00134 0.74748 0.0
H123 H 0.06621 0.99845 0.26058 0.0
H124 H 0.01443 0.04563 0.09269 0.0
H125 H 0.09095 0.10871 0.28702 0.0
H126 H 0.04905 0.03877 0.41669 0.0
H127 H 0.20411 1.00134 0.79082 0.0
H128 H 0.15641 0.10923 0.22714 0.0
H129 H 0.20393 0.08684 0.09955 0.0
H130 H 0.8671 0.95375 0.69565 0.0
H131 H 0.22222 0.04589 0.93914 0.0
H132 H 0.02877 0.94421 0.21719 0.0
N133 N 0.94707 0.98972 0.60943 0.0
C134 C 0.95263 0.96964 0.51358 0.0
C135 C 0.89113 0.95779 0.64431 0.0
C136 C 0.9279 0.94184 0.48212 0.0
C137 C 0.91662 0.98455 0.67394 0.0
C138 C 0.89685 0.93625 0.54836 0.0
N139 N 1.00708 1.00369 0.47906 0.0
C140 C 0.03427 1.01365 0.40612 0.0
C141 C 0.99102 0.95391 0.35376 0.0
C142 C 0.98392 0.97599 0.44936 0.0
C143 C 0.02196 0.96114 0.28907 0.0
C144 C 0.04325 0.99157 0.31387 0.0
H145 H 0.87721 0.91525 0.52648 0.0
H146 H 0.91642 0.89861 0.36212 0.0
H147 H 0.97199 0.90876 0.25074 0.0
O148 O 0.98506 0.08635 0.55496 0.0
O149 O 0.99287 0.97399 0.70729 0.0
O150 O 0.05264 0.96507 0.72548 0.0
O151 O 0.94065 0.04855 0.56344 0.0
O152 O 0.05281 0.04899 0.61302 0.0
O153 O 0.07981 1.00044 0.69797 0.0
O154 O 0.03452 0.9653 0.99602 0.0
O155 O 0.05449 0.06773 0.87132 0.0
O156 O 0.99848 0.07899 0.78969 0.0
O157 O 0.09203 0.96208 0.95952 0.0
O158 O 0.99802 1.00215 0.9369 0.0
O159 O 0.96296 0.03932 0.82216 0.0
C160 C 0.02084 0.95244 0.69138 0.0
C161 C 0.92558 0.1096 0.5752 0.0
C162 C 0.89661 0.16777 0.54103 0.0
C163 C 0.87993 0.16565 0.64811 0.0
C164 C 0.90834 0.10732 0.68187 0.0
C165 C 0.88543 0.13513 0.71766 0.0
C166 C 0.91911 0.13949 0.50472 0.0
C167 C 0.0812 0.02702 0.62317 0.0
C168 C 0.95044 0.08117 0.53696 0.0
C169 C 0.93516 0.92003 0.38721 0.0
C170 C 0.96683 0.92575 0.32408 0.0
C171 C 0.02687 0.09001 0.85162 0.0
C172 C 0.05644 0.90782 0.954 0.0
C173 C 1.0109 0.85974 0.92612 0.0
C174 C 0.03244 0.8452 0.83874 0.0
C175 C 0.07786 0.89242 0.86836 0.0
C176 C 0.02389 0.89062 0.98459 0.0
C177 C 0.06601 0.861 0.81224 0.0
C178 C 0.96742 0.02006 0.91655 0.0
C179 C 0.06336 0.94485 0.99706 0.0
H180 H 0.86349 0.18783 0.67857 0.0
H181 H 0.9128 0.08423 0.73758 0.0
H182 H 0.87261 0.13339 0.80047 0.0
H183 H 0.93315 0.14164 0.42368 0.0
H184 H 0.02362 0.82159 0.79087 0.0
H185 H 0.10295 0.90532 0.84155 0.0
H186 H 1.00859 0.90203 0.05421 0.0
H187 H 0.0824 0.84949 0.74533 0.0
Eu188 Eu 0.53878 0.06579 0.85451 0.0
C189 C 0.52975 0.91989 0.54888 0.0
N190 N 0.53223 0.95488 0.5133 0.0
C191 C 0.57328 0.93771 0.36559 0.0
C192 C 0.55018 0.89239 0.4971 0.0
C193 C 0.55222 0.96393 0.41973 0.0
C194 C 0.57278 0.90187 0.4058 0.0
C195 C 0.5007 0.87529 0.67108 0.0
C196 C 0.50581 0.91157 0.63524 0.0
C197 C 0.52208 0.84785 0.62352 0.0
C198 C 0.54718 0.85651 0.53787 0.0
Eu199 Eu 0.50512 0.99901 0.63032 0.0
N200 N 0.48703 0.9391 0.68292 0.0
C201 C 0.47435 0.86783 0.75364 0.0
C202 C 0.46006 0.93185 0.75949 0.0
C203 C 0.45351 0.89619 0.79657 0.0
H204 H 0.55264 0.9917 0.38906 0.0
H205 H 0.43273 0.89066 0.85934 0.0
H206 H 0.46032 0.09273 0.98124 0.0
H207 H 0.63613 0.14656 0.6064 0.0
H208 H 0.4443 0.95355 0.79498 0.0
H209 H 0.46957 0.84032 0.78365 0.0
H210 H 0.61345 0.09249 0.707 0.0
H211 H 0.58987 0.94516 0.29308 0.0
H212 H 0.51928 0.81989 0.65184 0.0
H213 H 0.56376 0.83521 0.50274 0.0
H214 H 0.42244 0.14695 0.99001 0.0
H215 H 0.58914 0.88162 0.36391 0.0
H216 H 0.60005 0.20293 0.60431 0.0
N217 N 0.49925 0.11635 0.86852 0.0
C218 C 0.5108 0.14758 0.81634 0.0
C219 C 0.44701 0.14739 0.93986 0.0
C220 C 0.49015 0.1797 0.82207 0.0
C221 C 0.46833 0.11625 0.93244 0.0
C222 C 0.4578 0.17917 0.88393 0.0
N223 N 0.56335 0.11633 0.75372 0.0
C224 C 0.59661 0.11612 0.70314 0.0
C225 C 0.55632 0.17966 0.70405 0.0
C226 C 0.54378 0.14763 0.75827 0.0
C227 C 0.58957 0.17893 0.64719 0.0
C228 C 0.60993 0.14712 0.64764 0.0
H229 H 0.44129 0.20331 0.89064 0.0
H230 H 0.48694 0.23627 0.77065 0.0
H231 H 0.54465 0.23617 0.66688 0.0
O232 O 0.59054 0.07339 0.94524 0.0
O233 O 0.50736 0.08515 0.69072 0.0
O234 O 0.53173 0.05039 0.55615 0.0
O235 O 0.5413 0.09394 0.01849 0.0
O236 O 0.5867 0.03504 0.76883 0.0
O237 O 0.56389 0.01743 0.59385 0.0
O238 O 0.47712 0.98909 0.46708 0.0
O239 O 0.5269 0.96809 0.78944 0.0
O240 O 0.53079 1.00879 0.93939 0.0
O241 O 0.4542 0.02608 0.5913 0.0
O242 O 0.4605 0.01764 0.75787 0.0
O243 O 0.48774 0.03754 0.9246 0.0
C244 C 0.51957 0.0823 0.58553 0.0
C245 C 0.59497 0.12984 0.03906 0.0
C246 C 0.6504 0.16348 0.08595 0.0
C247 C 0.63187 0.19637 0.07327 0.0
C248 C 0.57682 0.16303 0.02434 0.0
C249 C 0.59516 0.19605 0.04128 0.0
C250 C 0.63178 0.13042 0.06908 0.0
C251 C 0.59198 0.02401 0.6623 0.0
C252 C 0.57661 0.09434 0.02248 0.0
C253 C 0.50254 0.21143 0.76732 0.0
C254 C 0.53545 0.2114 0.70837 0.0
C255 C 0.53039 0.9749 0.9001 0.0
C256 C 0.45131 0.04485 0.40018 0.0
C257 C 0.42298 0.10272 0.34307 0.0
C258 C 0.45074 0.10735 0.26166 0.0
C259 C 0.47809 0.05011 0.31723 0.0
C260 C 0.42383 0.07081 0.41139 0.0
C261 C 0.47757 0.08111 0.24837 0.0
C262 C 0.45855 0.02628 0.86771 0.0
C263 C 0.45376 1.01507 0.48518 0.0
H264 H 0.64568 0.22201 0.08853 0.0
H265 H 0.54844 0.16355 1.0015 0.0
H266 H 0.58073 0.2214 0.03089 0.0
H267 H 0.64585 0.10489 0.08222 0.0
H268 H 0.45218 0.13098 0.20694 0.0
H269 H 0.49993 0.03086 0.30734 0.0
H270 H 0.40303 0.06519 0.4737 0.0
H271 H 0.49852 0.08517 0.18554 0.0
Eu272 Eu 0.56361 0.50791 0.61351 0.0
C273 C 0.45437 0.47973 0.98017 0.0
N274 N 0.45002 0.5011 0.88603 0.0
C275 C 0.39065 0.4757 0.85292 0.0
C276 C 0.42757 0.45394 1.01071 0.0
C277 C 0.41843 0.50011 0.82394 0.0
C278 C 0.39535 0.45227 0.94615 0.0
C279 C 0.49296 0.45891 0.1358 0.0
C280 C 0.48643 0.48274 0.04313 0.0
C281 C 0.46685 0.43263 0.1647 0.0
C282 C 0.43399 0.43039 0.10337 0.0
Eu283 Eu 0.4979 0.54178 0.84186 0.0
N284 N 0.51112 0.50891 0.01414 0.0
C285 C 0.52544 0.46238 0.19775 0.0
C286 C 0.54025 0.5153 0.08465 0.0
C287 C 0.54898 0.49107 0.17302 0.0
H288 H 0.41461 0.51817 0.75208 0.0
H289 H 0.57336 0.49518 0.2241 0.0
H290 H 0.64636 0.4941 0.73623 0.0
H291 H 0.53848 0.58415 0.21804 0.0
H292 H 0.55655 0.53937 0.07567 0.0
H293 H 0.53182 0.44395 0.26753 0.0
H294 H 0.5281 0.53588 0.36304 0.0
H295 H 0.36572 0.47485 0.80299 0.0
H296 H 0.47181 0.41442 0.23578 0.0
H297 H 0.41381 0.41029 0.12764 0.0
H298 H 0.70538 0.52585 0.75421 0.0
H299 H 0.374 0.43303 0.96749 0.0
H300 H 0.59249 0.62409 0.23383 0.0
N301 N 0.62364 0.53313 0.62165 0.0
C302 C 0.63092 0.56165 0.55144 0.0
C303 C 0.68446 0.53664 0.69813 0.0
C304 C 0.66453 0.58031 0.55663 0.0
C305 C 0.65071 0.51903 0.68901 0.0
C306 C 0.69112 0.56797 0.63356 0.0
N307 N 0.57534 0.54935 0.46054 0.0
C308 C 0.5522 0.5528 0.36866 0.0
C309 C 0.61309 0.59763 0.38674 0.0
C310 C 0.60596 0.56991 0.46723 0.0
C311 C 0.58817 0.60303 0.29715 0.0
C312 C 0.55784 0.5802 0.2872 0.0
H313 H 0.71738 0.58141 0.63995 0.0
H314 H 0.69644 0.62458 0.48521 0.0
H315 H 0.65098 0.64009 0.33682 0.0
O316 O 0.5496 0.47115 0.4753 0.0
O317 O 0.5383 0.56481 0.58388 0.0
O318 O 0.53236 0.58832 0.76082 0.0
O319 O 0.6014 0.46541 0.55882 0.0
O320 O 0.50267 0.50017 0.56229 0.0
O321 O 0.47196 0.54396 0.66175 0.0
O322 O 0.47929 0.57289 0.98841 0.0
O323 O 0.4957 0.48053 0.79038 0.0
O324 O 0.5549 0.46868 0.76712 0.0
O325 O 0.45259 0.57925 0.8244 0.0
O326 O 0.55863 0.55607 0.88121 0.0
O327 O 0.58524 0.50715 0.79984 0.0
C328 C 0.53643 0.59351 0.65005 0.0
C329 C 0.56553 0.41234 0.5335 0.0
C330 C 0.51666 0.36818 0.57065 0.0
C331 C 0.54356 0.34221 0.59841 0.0
C332 C 0.59158 0.38593 0.55892 0.0
C333 C 0.58054 0.3513 0.59423 0.0
C334 C 0.52845 0.40376 0.54678 0.0
C335 C 0.4741 0.52168 0.57372 0.0
C336 C 0.57631 0.44943 0.49803 0.0
C337 C 0.67103 0.60953 0.48143 0.0
C338 C 0.64523 0.61828 0.39673 0.0
C339 C 0.52296 0.4577 0.80383 0.0
C340 C 0.4635 0.63166 0.92806 0.0
C341 C 0.50694 0.68218 0.92374 0.0
C342 C 0.47726 0.70627 0.9142 0.0
C343 C 0.43455 0.65586 0.91805 0.0
C344 C 0.49934 0.64482 0.92853 0.0
C345 C 0.44151 0.6931 0.91055 0.0
C346 C 0.58688 0.53409 0.87361 0.0
C347 C 0.45707 0.59242 0.92646 0.0
H348 H 0.53666 0.31426 0.61752 0.0
H349 H 0.62032 0.39213 0.55225 0.0
H350 H 0.60075 0.33092 0.61403 0.0
H351 H 0.50863 0.42485 0.53405 0.0
H352 H 0.48116 0.73542 0.91405 0.0
H353 H 0.40675 0.64596 0.91489 0.0
H354 H 0.52121 0.62552 0.93376 0.0
H355 H 0.4191 0.71191 0.90365 0.0
Eu356 Eu 0.03927 0.56202 0.65982 0.0
C357 C 0.08628 0.45496 1.00836 0.0
N358 N 0.06602 0.44884 0.91195 0.0
C359 C 0.10268 0.39731 0.86658 0.0
C360 C 0.11658 0.43302 0.03474 0.0
C361 C 0.07333 0.42006 0.84236 0.0
C362 C 0.12454 0.40394 0.96265 0.0
C363 C 0.09902 0.49157 0.17645 0.0
C364 C 0.07744 0.48409 0.0785 0.0
C365 C 0.12955 0.47019 0.20134 0.0
C366 C 0.13828 0.44099 0.13091 0.0
Eu367 Eu 0.01694 0.48904 0.87829 0.0
N368 N 0.04742 0.50438 0.05335 0.0
C369 C 0.08882 0.51978 0.24858 0.0
C370 C 0.03483 0.52817 0.133 0.0
C371 C 0.05621 0.53768 0.2279 0.0
H372 H 0.0564 0.41462 0.76838 0.0
H373 H 0.04724 0.55844 0.28614 0.0
H374 H 0.03706 0.64359 0.79458 0.0
H375 H 0.9624 0.51622 0.28157 0.0
H376 H 1.00824 0.54 0.12509 0.0
H377 H 0.10502 0.52674 0.32336 0.0
H378 H 1.00429 0.50986 0.44387 0.0
H379 H 0.1085 0.37472 0.81092 0.0
H380 H 0.1459 0.47531 0.27717 0.0
H381 H 0.16175 0.42457 0.15206 0.0
H382 H 1.00723 0.70263 0.77151 0.0
H383 H 0.14751 0.38647 0.98037 0.0
H384 H 0.9333 0.57523 0.24125 0.0
N385 N 1.01077 0.61963 0.64967 0.0
C386 C 0.98846 0.62527 0.55771 0.0
C387 C 1.00143 0.68101 0.71143 0.0
C388 C 0.97141 0.65914 0.54024 0.0
C389 C 0.01777 0.64709 0.72547 0.0
C390 C 0.97813 0.68707 0.61856 0.0
N391 N 0.99824 0.56427 0.50155 0.0
C392 C 0.99148 0.5356 0.43039 0.0
C393 C 0.95855 0.60194 0.38665 0.0
C394 C 0.98237 0.59703 0.48097 0.0
C395 C 0.95152 0.57255 0.31418 0.0
C396 C 0.96777 0.53918 0.33692 0.0
H397 H 0.96568 0.71348 0.60764 0.0
H398 H 0.93484 0.68995 0.43106 0.0
H399 H 0.92321 0.63976 0.29767 0.0
O400 O 0.08299 0.5552 0.5382 0.0
O401 O 0.97707 0.55422 0.68065 0.0
O402 O 0.97154 0.49492 0.73864 0.0
O403 O 0.06861 0.60921 0.59195 0.0
O404 O 0.04897 0.5023 0.59348 0.0
O405 O 1.01289 0.46375 0.70039 0.0
O406 O 0.96764 0.47707 0.97701 0.0
O407 O 0.07711 0.49568 0.81886 0.0
O408 O 0.08166 0.55619 0.80718 0.0
O409 O 1.00662 0.43516 0.94859 0.0
O410 O 1.00012 0.54849 0.92945 0.0
O411 O 0.04528 0.58099 0.84504 0.0
C412 C 0.95755 0.52402 0.68752 0.0
C413 C 0.13022 0.59311 0.60342 0.0
C414 C 0.18653 0.56199 0.65029 0.0
C415 C 0.19341 0.58651 0.73948 0.0
C416 C 0.13701 0.61748 0.69393 0.0
C417 C 0.16874 0.6144 0.76044 0.0
C418 C 0.15585 0.56671 0.58001 0.0
C419 C 0.03271 0.47002 0.60889 0.0
C420 C 0.09391 0.58887 0.55066 0.0
C421 C 0.94815 0.66415 0.44561 0.0
C422 C 0.94164 0.63561 0.36937 0.0
C423 C 0.09699 0.52517 0.83492 0.0
C424 C 0.94556 0.41747 0.94229 0.0
C425 C 0.88508 0.39192 0.96672 0.0
C426 C 0.88776 0.37378 0.86214 0.0
C427 C 0.94843 0.39872 0.83813 0.0
C428 C 0.9142 0.41336 1.00678 0.0
C429 C 0.91972 0.37677 0.79888 0.0
C430 C 0.02061 0.57839 0.92508 0.0
C431 C 0.97428 0.44241 0.98284 0.0
H432 H 0.21763 0.58407 0.79233 0.0
H433 H 0.11733 0.63795 0.71615 0.0
H434 H 0.17373 0.63305 0.83025 0.0
H435 H 0.15102 0.54879 0.50787 0.0
H436 H 0.86502 0.35809 0.82877 0.0
H437 H 0.97258 0.4014 0.78663 0.0
H438 H 0.91161 0.42854 0.08566 0.0
H439 H 0.92191 0.36282 0.71797 0.0
C440 C 0.16363 0.06005 0.44045 0.0
C441 C 0.18161 0.02714 0.41492 0.0
H442 H 0.11815 0.08639 0.52205 0.0
C443 C 0.16385 0.99482 0.44968 0.0
H444 H 0.17652 0.08566 0.41874 0.0
C445 C 0.13104 0.99528 0.51206 0.0
C446 C 0.11374 0.02805 0.5419 0.0
H447 H 0.1765 0.96885 0.43436 0.0
H448 H 0.11965 0.96955 0.54012 0.0
C449 C 0.1301 0.06049 0.50125 0.0
C450 C 0.54126 0.14456 0.32455 0.0
C451 C 0.51503 0.17242 0.33011 0.0
H452 H 0.56301 0.09496 0.39638 0.0
C453 C 0.49215 0.1716 0.42684 0.0
H454 H 0.55923 0.14349 0.25221 0.0
C455 C 0.49418 0.14333 0.51031 0.0
C456 C 0.51905 0.11435 0.50084 0.0
H457 H 0.47108 0.19179 0.43475 0.0
H458 H 0.47506 0.14339 0.5801 0.0
C459 C 0.54312 0.11617 0.40739 0.0
C460 C 0.41972 0.50862 0.28792 0.0
C461 C 0.38704 0.52759 0.30577 0.0
H462 H 0.47175 0.49099 0.35533 0.0
C463 C 0.38294 0.54304 0.41542 0.0
H464 H 0.4249 0.49791 0.20425 0.0
C465 C 0.41049 0.54058 0.50121 0.0
C466 C 0.44347 0.52195 0.48297 0.0
H467 H 0.35892 0.55876 0.43346 0.0
H468 H 0.4061 0.55425 0.58158 0.0
C469 C 0.44704 0.50533 0.37475 0.0
C470 C 0.06095 0.41321 0.34195 0.0
C471 C 0.03826 0.38187 0.34583 0.0
H472 H 0.07766 0.46436 0.41757 0.0
C473 C 0.01447 0.37979 0.43993 0.0
H474 H 0.07907 0.41673 0.27065 0.0
C475 C 1.01326 0.40766 0.52437 0.0
C476 C 0.03546 0.43942 0.51899 0.0
H477 H 0.99566 0.35714 0.44634 0.0
H478 H 0.99391 0.40462 0.59282 0.0
C479 C 0.05973 0.44112 0.42612 0.0
C480 C 0.87679 0.0388 0.07653 0.0
C481 C 0.88073 0.01881 0.17934 0.0
H482 H 0.89988 0.05489 0.91486 0.0
C483 C 0.91325 0.99893 0.1924 0.0
H484 H 0.85296 0.05547 0.06352 0.0
C485 C 0.94049 0.99871 0.10754 0.0
C486 C 0.93694 0.01897 1.00526 0.0
H487 H 0.91822 0.98435 0.27117 0.0
H488 H 0.96486 0.98315 0.12357 0.0
C489 C 0.90418 0.03871 0.99116 0.0
C490 C 0.51508 0.9133 0.16919 0.0
C491 C 0.52523 0.8782 0.1323 0.0
H492 H 0.50931 0.97053 0.12963 0.0
C493 C 0.53928 0.87622 0.02023 0.0
H494 H 0.50301 0.91635 0.25265 0.0
C495 C 0.54186 0.90732 0.94769 0.0
C496 C 0.53103 0.94229 0.98358 0.0
H497 H 0.54665 0.85002 0.98599 0.0
H498 H 0.55176 0.90369 0.86162 0.0
C499 C 0.51839 0.94464 0.09739 0.0
C500 C 0.65428 0.56789 0.11257 0.0
C501 C 0.67509 0.5367 0.14002 0.0
H502 H 0.61091 0.59184 1.01157 0.0
C503 C 0.66784 0.50556 0.0728 0.0
H504 H 0.65831 0.59243 0.16176 0.0
C505 C 0.64042 0.5052 0.98585 0.0
C506 C 0.61856 0.5359 0.96145 0.0
H507 H 0.68226 0.48064 0.09126 0.0
H508 H 0.63537 0.48004 0.9406 0.0
C509 C 0.62662 0.56747 0.02605 0.0
C510 C 0.05679 0.65038 0.13919 0.0
C511 C 0.02583 0.66969 0.17507 0.0
H512 H 0.07938 0.60824 0.0355 0.0
C513 C 0.99192 0.65645 0.13289 0.0
H514 H 0.08363 0.65964 0.16525 0.0
C515 C 0.98942 0.62561 0.05845 0.0
C516 C 0.02087 0.60764 0.01911 0.0
H517 H 0.96737 0.67099 0.15308 0.0
H518 H 0.96296 0.61723 0.02646 0.0
C519 C 0.05441 0.62066 0.06282 0.0
C520 C 0.90799 0.22206 0.28083 0.0
C521 C 0.93684 0.2441 0.32049 0.0
H522 H 0.87065 0.17948 0.32498 0.0
C523 C 0.94043 0.25016 0.43901 0.0
H524 H 0.90345 0.21806 0.19005 0.0
C525 C 0.92045 0.22926 0.51585 0.0
C526 C 0.89753 0.20165 0.47479 0.0
H527 H 0.96194 0.26719 0.4736 0.0
H528 H 0.92753 0.23061 0.606 0.0
C529 C 0.88865 0.2005 0.35791 0.0
C530 C 0.32648 0.12497 0.3927 0.0
C531 C 0.31878 0.13254 0.27722 0.0
H532 H 0.36858 0.11051 0.51052 0.0
C533 C 0.34474 0.15381 0.21937 0.0
H534 H 0.30588 0.11306 0.44718 0.0
C535 C 0.3814 0.14948 0.24998 0.0
C536 C 0.3905 0.12747 0.34546 0.0
H537 H 0.33853 0.16429 0.13468 0.0
H538 H 0.40143 0.15878 0.18954 0.0
C539 C 0.36287 0.12197 0.42699 0.0
C540 C 0.44704 0.3034 0.46904 0.0
C541 C 0.44202 0.32201 0.36394 0.0
H542 H 0.47719 0.30425 0.62653 0.0
C543 C 0.43821 0.35972 0.3741 0.0
H544 H 0.44213 0.27449 0.47677 0.0
C545 C 0.45784 0.37753 0.46033 0.0
C546 C 0.47846 0.35677 0.53975 0.0
H547 H 0.42632 0.37566 0.30583 0.0
H548 H 0.46035 0.40667 0.4528 0.0
C549 C 0.46703 0.32054 0.55602 0.0
C550 C 0.21428 0.48751 0.4714 0.0
C551 C 0.24444 0.50496 0.42341 0.0
H552 H 0.17332 0.4906 0.59889 0.0
C553 C 0.26281 0.53228 0.48568 0.0
H554 H 0.20041 0.4657 0.42643 0.0
C555 C 0.24709 0.54685 0.58253 0.0
C556 C 0.21282 0.53434 0.61596 0.0
H557 H 0.28666 0.54576 0.45143 0.0
H558 H 0.25855 0.57166 0.61762 0.0
C559 C 0.19928 0.50138 0.57095 0.0
C560 C 0.96053 0.78444 0.0629 0.0
C561 C 0.94605 0.80479 0.15396 0.0
H562 H 0.99459 0.78636 0.91783 0.0
C563 C 0.93654 0.84098 0.12983 0.0
H564 H 0.96537 0.7556 0.06976 0.0
C565 C 0.9525 0.85884 0.03698 0.0
C566 C 0.97803 0.8404 0.96966 0.0
H567 H 0.92175 0.85689 0.19118 0.0
H568 H 0.94903 0.88795 0.02897 0.0
C569 C 0.97751 0.80232 0.97277 0.0
C570 C 0.72214 0.15157 0.30365 0.0
C571 C 0.74193 0.12429 0.24846 0.0
H572 H 0.67611 0.18669 0.29143 0.0
C573 C 0.73989 0.12201 0.12847 0.0
H574 H 0.72403 0.1547 0.39564 0.0
C575 C 0.71298 0.14085 0.06883 0.0
C576 C 0.68805 0.16195 0.12875 0.0
H577 H 0.75503 0.10172 0.08252 0.0
H578 H 0.70827 0.13459 0.97936 0.0
C579 C 0.69491 0.17017 0.24393 0.0
C580 C 0.59583 0.69383 0.07915 0.0
C581 C 0.593 0.73164 0.09095 0.0
H582 H 0.56688 0.64685 0.02647 0.0
C583 C 0.57873 0.75035 0.99484 0.0
H584 H 0.61213 0.67815 0.13872 0.0
C585 C 0.55367 0.73258 0.92383 0.0
C586 C 0.54466 0.69608 0.9464 0.0
H587 H 0.58089 0.77953 0.98626 0.0
H588 H 0.53844 0.74851 0.86202 0.0
C589 C 0.5697 0.67575 1.01285 0.0
C590 C 0.82801 0.40576 0.2171 0.0
C591 C 0.80868 0.43603 0.17586 0.0
H592 H 0.86818 0.36606 0.17797 0.0
C593 C 0.80511 0.44107 0.05678 0.0
H594 H 0.83014 0.40033 0.30808 0.0
C595 C 0.82568 0.42039 0.98233 0.0
C596 C 0.85049 0.39518 0.02651 0.0
H597 H 0.7903 0.46387 0.02126 0.0
H598 H 0.82643 0.42818 0.89281 0.0
C599 C 0.8492 0.38561 0.14265 0.0
C600 C 0.0527 0.17682 0.03366 0.0
C601 C 0.02135 0.19886 0.02434 0.0
H602 H 0.07982 0.12708 0.98628 0.0
C603 C 0.99362 0.18537 0.94988 0.0
H604 H 0.07467 0.18505 0.09037 0.0
C605 C 0.99597 0.15133 0.89344 0.0
C606 C 0.02642 0.12841 0.90645 0.0
H607 H 0.96879 0.20069 0.93893 0.0
H608 H 0.97305 0.14255 0.84134 0.0
C609 C 0.05529 0.14271 0.97517 0.0
C610 C 0.3543 0.02819 0.92927 0.0
C611 C 0.35268 0.02861 0.05023 0.0
H612 H 0.38763 0.02663 0.77775 0.0
C613 C 0.38646 0.02546 0.10883 0.0
H614 H 0.32962 0.03226 0.87972 0.0
C615 C 0.42003 0.02346 0.05027 0.0
C616 C 0.42182 0.02443 0.92957 0.0
H617 H 0.38716 0.02725 0.20131 0.0
H618 H 0.4449 0.02233 0.10033 0.0
C619 C 0.38801 0.02562 0.87034 0.0
C620 C 0.47789 0.36998 0.93127 0.0
C621 C 0.50586 0.35298 0.99634 0.0
H622 H 0.46099 0.41407 0.82044 0.0
C623 C 0.54057 0.36987 0.98934 0.0
H624 H 0.45062 0.3587 0.93329 0.0
C625 C 0.54643 0.40262 0.92473 0.0
C626 C 0.51787 0.42039 0.8643 0.0
H627 H 0.563 0.35878 0.03862 0.0
H628 H 0.57328 0.41488 0.9261 0.0
C629 C 0.48376 0.40244 0.86673 0.0
C630 C 0.18141 0.54871 0.02706 0.0
C631 C 0.2051 0.51879 0.01467 0.0
H632 H 0.1308 0.57464 0.98114 0.0
C633 C 0.19315 0.49162 0.93714 0.0
H634 H 0.18847 0.5699 0.08744 0.0
C635 C 0.15905 0.49397 0.87748 0.0
C636 C 0.13512 0.52361 0.89195 0.0
H637 H 0.20938 0.46748 0.92662 0.0
H638 H 0.15104 0.47194 0.82137 0.0
C639 C 0.14771 0.55129 0.96631 0.0
C640 C 0.03887 0.86458 0.51058 0.0
C641 C 1.00558 0.845 0.51616 0.0
H642 H 0.06988 0.91267 0.55876 0.0
C643 C 0.97832 0.86101 0.58415 0.0
H644 H 0.06041 0.85449 0.45723 0.0
C645 C 0.98366 0.89461 0.64212 0.0
C646 C 0.01643 0.91473 0.63438 0.0
H647 H 0.95194 0.84788 0.58985 0.0
H648 H 0.96154 0.90522 0.69202 0.0
C649 C 0.04418 0.89853 0.56846 0.0
C650 C 0.69676 0.03614 0.61844 0.0
C651 C 0.70165 0.02645 0.5024 0.0
H652 H 0.65997 0.0423 0.76037 0.0
C653 C 0.67036 1.014 0.44348 0.0
H654 H 0.71946 0.04752 0.66627 0.0
C655 C 0.63583 1.01236 0.49619 0.0
C656 C 0.63049 0.02269 0.61136 0.0
H657 H 0.67203 1.00797 0.35308 0.0
H658 H 0.61294 1.00452 0.44364 0.0
C659 C 0.66216 0.03373 0.67227 0.0
C660 C 0.52259 0.66985 0.42278 0.0
C661 C 0.54038 0.70093 0.46834 0.0
H662 H 0.50672 0.61371 0.44235 0.0
C663 C 0.55474 0.6968 0.58088 0.0
H664 H 0.51188 0.67084 0.33614 0.0
C665 C 0.55218 0.66305 0.6426 0.0
C666 C 0.53574 0.63164 0.59384 0.0
H667 H 0.56976 0.71912 0.6192 0.0
H668 H 0.56484 0.66106 0.72635 0.0
C669 C 0.52023 0.63642 0.48365 0.0
C670 C 0.86689 0.48619 0.55735 0.0
C671 C 0.85168 0.51572 0.49423 0.0
H672 H 0.91045 0.46499 0.66255 0.0
C673 C 0.87038 0.54928 0.50605 0.0
H674 H 0.85374 0.45978 0.55429 0.0
C675 C 0.90327 0.55241 0.57233 0.0
C676 C 0.91975 0.52205 0.62772 0.0
H677 H 0.86051 0.57293 0.46028 0.0
H678 H 0.91622 0.57879 0.57804 0.0
C679 C 0.89995 0.48913 0.62082 0.0
loop_
_geom_bond_atom_site_label_1
_geom_bond_atom_site_label_2
_geom_bond_distance
_geom_bond_site_symmetry_2
_ccdc_geom_bond_type
H0 C7 0.929 . S
H1 C10 0.930 . S
H2 C12 0.929 . S
H3 C4 0.969 . S
C4 H3 0.969 . S
C4 O5 1.550 . S
C4 H6 0.973 . S
O5 C4 1.550 . S
O5 C11 1.412 . S
H6 C4 0.973 . S
C7 H0 0.929 . S
C7 C8 1.400 . S
C7 C9 1.364 . S
C8 C7 1.400 . S
C8 C12 1.377 . S
C9 C7 1.364 . S
C9 C10 1.374 . S
C10 H1 0.930 . S
C10 C9 1.374 . S
C10 C11 1.383 . S
C11 O5 1.412 . S
C11 C10 1.383 . S
C11 C12 1.394 . S
C12 H2 0.929 . S
C12 C8 1.377 . S
C12 C11 1.394 . S
H13 C20 0.929 . S
H14 C23 0.930 . S
H15 C25 0.929 . S
H16 C17 0.969 1_455 S
C17 H16 0.969 1_655 S
C17 O18 1.550 . S
C17 H19 0.973 . S
O18 C17 1.550 . S
O18 C24 1.412 . S
H19 C17 0.973 . S
C20 H13 0.929 . S
C20 C21 1.400 . S
C20 C22 1.364 . S
C21 C20 1.400 . S
C21 C25 1.377 . S
C22 C20 1.364 . S
C22 C23 1.374 . S
C23 H14 0.930 . S
C23 C22 1.374 . S
C23 C24 1.383 . S
C24 O18 1.412 . S
C24 C23 1.383 . S
C24 C25 1.394 . S
C25 H15 0.929 . S
C25 C21 1.377 . S
C25 C24 1.394 . S
H26 C33 0.929 . S
H27 C36 0.930 . S
H28 C38 0.929 . S
H29 C30 0.969 1_545 S
C30 H29 0.969 1_565 S
C30 O31 1.550 . S
C30 H32 0.973 . S
O31 C30 1.550 . S
O31 C37 1.412 . S
H32 C30 0.973 . S
C33 H26 0.929 . S
C33 C34 1.400 . S
C33 C35 1.364 . S
C34 C33 1.400 . S
C34 C38 1.377 . S
C35 C33 1.364 . S
C35 C36 1.374 . S
C36 H27 0.930 . S
C36 C35 1.374 . S
C36 C37 1.383 . S
C37 O31 1.412 . S
C37 C36 1.383 . S
C37 C38 1.394 . S
C38 H28 0.929 . S
C38 C34 1.377 . S
C38 C37 1.394 . S
H39 C46 0.929 . S
H40 C49 0.930 . S
H41 C51 0.929 . S
H42 C43 0.969 . S
C43 H42 0.969 . S
C43 O44 1.550 . S
C43 H45 0.973 . S
O44 C43 1.550 . S
O44 C50 1.412 . S
H45 C43 0.973 . S
C46 H39 0.929 . S
C46 C47 1.400 . S
C46 C48 1.364 . S
C47 C46 1.400 . S
C47 C51 1.377 . S
C48 C46 1.364 . S
C48 C49 1.374 . S
C49 H40 0.930 . S
C49 C48 1.374 . S
C49 C50 1.383 . S
C50 O44 1.412 . S
C50 C49 1.383 . S
C50 C51 1.394 . S
C51 H41 0.929 . S
C51 C47 1.377 . S
C51 C50 1.394 . S
H52 C59 0.929 . S
H53 C62 0.930 . S
H54 C64 0.929 . S
H55 C56 0.969 . S
C56 H55 0.969 . S
C56 O57 1.550 . S
C56 H58 0.973 . S
O57 C56 1.550 . S
O57 C63 1.412 . S
H58 C56 0.973 . S
C59 H52 0.929 . S
C59 C60 1.400 1_554 S
C59 C61 1.364 . S
C60 C59 1.400 1_556 S
C60 C64 1.377 . S
C61 C59 1.364 . S
C61 C62 1.374 . S
C62 H53 0.930 . S
C62 C61 1.374 . S
C62 C63 1.383 . S
C63 O57 1.412 . S
C63 C62 1.383 . S
C63 C64 1.394 1_554 S
C64 H54 0.929 . S
C64 C60 1.377 . S
C64 C63 1.394 1_556 S
H65 C72 0.929 . S
H66 C75 0.930 . S
H67 C77 0.929 . S
H68 C69 0.969 . S
C69 H68 0.969 . S
C69 O70 1.550 . S
C69 H71 0.973 . S
O70 C69 1.550 . S
O70 C76 1.412 . S
H71 C69 0.973 . S
C72 H65 0.929 . S
C72 C73 1.400 1_554 S
C72 C74 1.364 . S
C73 C72 1.400 1_556 S
C73 C77 1.377 . S
C74 C72 1.364 . S
C74 C75 1.374 . S
C75 H66 0.930 . S
C75 C74 1.374 . S
C75 C76 1.383 . S
C76 O70 1.412 . S
C76 C75 1.383 . S
C76 C77 1.394 1_554 S
C77 H67 0.929 . S
C77 C73 1.377 . S
C77 C76 1.394 1_556 S
H78 C85 0.929 . S
H79 C88 0.930 . S
H80 C90 0.929 . S
H81 C82 0.969 . S
C82 H81 0.969 . S
C82 O83 1.550 . S
C82 H84 0.973 . S
O83 C82 1.550 . S
O83 C89 1.412 . S
H84 C82 0.973 . S
C85 H78 0.929 . S
C85 C86 1.400 1_554 S
C85 C87 1.364 . S
C86 C85 1.400 1_556 S
C86 C90 1.377 . S
C87 C85 1.364 . S
C87 C88 1.374 . S
C88 H79 0.930 . S
C88 C87 1.374 . S
C88 C89 1.383 . S
C89 O83 1.412 . S
C89 C88 1.383 . S
C89 C90 1.394 1_554 S
C90 H80 0.929 . S
C90 C86 1.377 . S
C90 C89 1.394 1_556 S
H91 C98 0.929 . S
H92 C101 0.930 . S
H93 C103 0.929 . S
H94 C95 0.969 . S
C95 H94 0.969 . S
C95 O96 1.550 . S
C95 H97 0.973 . S
O96 C95 1.550 . S
O96 C102 1.412 . S
H97 C95 0.973 . S
C98 H91 0.929 . S
C98 C99 1.400 1_554 S
C98 C100 1.364 . S
C99 C98 1.400 1_556 S
C99 C103 1.377 . S
C100 C98 1.364 . S
C100 C101 1.374 . S
C101 H92 0.930 . S
C101 C100 1.374 . S
C101 C102 1.383 . S
C102 O96 1.412 . S
C102 C101 1.383 . S
C102 C103 1.394 1_554 S
C103 H93 0.929 . S
C103 C99 1.377 . S
C103 C102 1.394 1_556 S
Eu104 N133 2.600 . S
Eu104 N139 2.562 . S
Eu104 O148 2.462 . S
Eu104 O149 2.373 1_545 S
Eu104 O151 2.432 . S
Eu104 O152 2.291 1_655 S
Eu104 O156 2.335 1_655 S
Eu104 O159 2.372 . S
Eu104 C168 2.787 . S
C105 N106 1.365 1_554 S
C105 C108 1.405 . S
C105 C112 1.448 . S
N106 C105 1.365 1_556 S
N106 C109 1.319 . S
N106 Eu115 2.600 1_545 S
C107 C109 1.397 . S
C107 C110 1.367 . S
C107 H127 0.931 . S
C108 C105 1.405 . S
C108 C110 1.403 1_554 S
C108 C114 1.439 . S
C109 N106 1.319 . S
C109 C107 1.397 . S
C109 H120 0.930 1_545 S
C110 C107 1.367 . S
C110 C108 1.403 1_556 S
C110 H131 0.929 . S
C111 C112 1.430 . S
C111 C113 1.387 . S
C111 C117 1.404 . S
C112 C105 1.448 . S
C112 C111 1.430 . S
C112 N116 1.351 . S
C113 C111 1.387 . S
C113 C114 1.374 . S
C113 H128 0.931 . S
C114 C108 1.439 . S
C114 C113 1.374 . S
C114 H129 0.931 . S
Eu115 N106 2.600 1_565 S
Eu115 N116 2.562 1_566 S
Eu115 O150 2.335 . S
Eu115 O153 2.372 . S
Eu115 O154 2.462 . S
Eu115 O155 2.373 1_565 S
Eu115 O157 2.432 . S
Eu115 O158 2.291 1_465 S
Eu115 C179 2.787 . S
N116 C112 1.351 . S
N116 Eu115 2.562 1_544 S
N116 C118 1.325 . S
C117 C111 1.404 . S
C117 C119 1.366 . S
C117 H125 0.930 . S
C118 N116 1.325 . S
C118 C119 1.416 . S
C118 H124 0.929 . S
C119 C117 1.366 . S
C119 C118 1.416 . S
C119 H121 0.930 . S
H120 C109 0.930 1_565 S
H121 C119 0.930 . S
H122 C137 0.930 . S
H123 C144 0.930 1_455 S
H124 C118 0.929 . S
H125 C117 0.930 . S
H126 C140 0.929 1_455 S
H127 C107 0.931 . S
H128 C113 0.931 . S
H129 C114 0.931 . S
H130 C135 0.931 . S
H131 C110 0.929 . S
H132 C143 0.930 . S
N133 Eu104 2.600 . S
N133 C134 1.365 1_545 S
N133 C137 1.319 . S
C134 N133 1.365 1_565 S
C134 C136 1.405 . S
C134 C142 1.448 . S
C135 H130 0.931 . S
C135 C137 1.397 . S
C135 C138 1.367 1_545 S
C136 C134 1.405 . S
C136 C138 1.403 . S
C136 C169 1.439 . S
C137 H122 0.930 . S
C137 N133 1.319 . S
C137 C135 1.397 . S
C138 C135 1.367 1_565 S
C138 C136 1.403 . S
C138 H145 0.929 . S
N139 Eu104 2.562 . S
N139 C140 1.325 . S
N139 C142 1.351 1_545 S
C140 H126 0.929 1_655 S
C140 N139 1.325 . S
C140 C144 1.416 1_545 S
C141 C142 1.430 . S
C141 C143 1.404 . S
C141 C170 1.387 . S
C142 C134 1.448 . S
C142 N139 1.351 1_565 S
C142 C141 1.430 . S
C143 H132 0.930 . S
C143 C141 1.404 . S
C143 C144 1.366 . S
C144 H123 0.930 1_655 S
C144 C140 1.416 1_565 S
C144 C143 1.366 . S
H145 C138 0.929 . S
H146 C169 0.931 . S
H147 C170 0.931 . S
O148 Eu104 2.462 . S
O148 C168 1.252 . S
O149 Eu104 2.373 1_565 S
O149 C160 1.249 . S
O150 Eu115 2.335 . S
O150 C160 1.264 1_455 S
O151 Eu104 2.432 . S
O151 C168 1.268 . S
O152 Eu104 2.291 1_455 S
O152 C167 1.255 . S
O153 Eu115 2.372 . S
O153 C167 1.257 1_565 S
O154 Eu115 2.462 . S
O154 C179 1.252 . S
O155 Eu115 2.373 1_545 S
O155 C171 1.249 . S
O156 Eu104 2.335 1_455 S
O156 C171 1.264 . S
O157 Eu115 2.432 . S
O157 C179 1.268 . S
O158 Eu115 2.291 1_645 S
O158 C178 1.255 . S
O159 Eu104 2.372 . S
O159 C178 1.257 . S
C160 O149 1.249 . S
C160 O150 1.264 1_655 S
C161 C164 1.382 . S
C161 C166 1.390 . S
C161 C168 1.506 . S
C162 C163 1.398 . S
C162 C166 1.392 . S
C163 C162 1.398 . S
C163 C165 1.372 . S
C163 H180 0.931 . S
C164 C161 1.382 . S
C164 C165 1.390 . S
C164 H181 0.931 . S
C165 C163 1.372 . S
C165 C164 1.390 . S
C165 H182 0.929 . S
C166 C161 1.390 . S
C166 C162 1.392 . S
C166 H183 0.930 1_655 S
C167 O152 1.255 . S
C167 O153 1.257 1_545 S
C168 Eu104 2.787 . S
C168 O148 1.252 . S
C168 O151 1.268 . S
C168 C161 1.506 . S
C169 C136 1.439 . S
C169 H146 0.931 . S
C169 C170 1.374 . S
C170 C141 1.387 . S
C170 H147 0.931 . S
C170 C169 1.374 . S
C171 O155 1.249 . S
C171 O156 1.264 . S
C172 C175 1.382 . S
C172 C176 1.390 . S
C172 C179 1.506 1_554 S
C173 C174 1.398 . S
C173 C176 1.392 . S
C174 C173 1.398 . S
C174 C177 1.372 . S
C174 H184 0.931 . S
C175 C172 1.382 . S
C175 C177 1.390 . S
C175 H185 0.931 1_554 S
C176 C172 1.390 . S
C176 C173 1.392 . S
C176 H186 0.930 . S
C177 C174 1.372 . S
C177 C175 1.390 . S
C177 H187 0.929 . S
C178 O158 1.255 . S
C178 O159 1.257 . S
C179 Eu115 2.787 . S
C179 O154 1.252 . S
C179 O157 1.268 . S
C179 C172 1.506 1_556 S
H180 C163 0.931 . S
H181 C164 0.931 . S
H182 C165 0.929 . S
H183 C166 0.930 1_455 S
H184 C174 0.931 . S
H185 C175 0.931 1_556 S
H186 C176 0.930 . S
H187 C177 0.929 . S
Eu188 N217 2.600 . S
Eu188 N223 2.562 . S
Eu188 O232 2.462 . S
Eu188 O233 2.373 . S
Eu188 O235 2.432 1_556 S
Eu188 O236 2.291 . S
Eu188 O240 2.335 1_545 S
Eu188 O243 2.372 . S
Eu188 C252 2.787 1_556 S
C189 N190 1.365 . S
C189 C192 1.405 . S
C189 C196 1.448 . S
N190 C189 1.365 . S
N190 C193 1.319 . S
N190 Eu199 2.600 . S
C191 C193 1.397 . S
C191 C194 1.367 . S
C191 H211 0.931 . S
C192 C189 1.405 . S
C192 C194 1.403 . S
C192 C198 1.439 . S
C193 N190 1.319 . S
C193 C191 1.397 . S
C193 H204 0.930 . S
C194 C191 1.367 . S
C194 C192 1.403 . S
C194 H215 0.929 . S
C195 C196 1.430 . S
C195 C197 1.387 . S
C195 C201 1.404 . S
C196 C189 1.448 . S
C196 C195 1.430 . S
C196 N200 1.351 . S
C197 C195 1.387 . S
C197 C198 1.374 . S
C197 H212 0.931 . S
C198 C192 1.439 . S
C198 C197 1.374 . S
C198 H213 0.931 . S
Eu199 N190 2.600 . S
Eu199 N200 2.562 . S
Eu199 O234 2.335 1_565 S
Eu199 O237 2.372 . S
Eu199 O238 2.462 . S
Eu199 O239 2.373 . S
Eu199 O241 2.432 . S
Eu199 O242 2.291 1_565 S
Eu199 C263 2.787 . S
N200 C196 1.351 . S
N200 Eu199 2.562 . S
N200 C202 1.325 . S
C201 C195 1.404 . S
C201 C203 1.366 . S
C201 H209 0.930 . S
C202 N200 1.325 . S
C202 C203 1.416 . S
C202 H208 0.929 . S
C203 C201 1.366 . S
C203 C202 1.416 . S
C203 H205 0.930 . S
H204 C193 0.930 . S
H205 C203 0.930 . S
H206 C221 0.930 1_554 S
H207 C228 0.930 . S
H208 C202 0.929 . S
H209 C201 0.930 . S
H210 C224 0.929 . S
H211 C191 0.931 . S
H212 C197 0.931 . S
H213 C198 0.931 . S
H214 C219 0.931 . S
H215 C194 0.929 . S
H216 C227 0.930 . S
N217 Eu188 2.600 . S
N217 C218 1.365 . S
N217 C221 1.319 . S
C218 N217 1.365 . S
C218 C220 1.405 . S
C218 C226 1.448 . S
C219 H214 0.931 . S
C219 C221 1.397 1_554 S
C219 C222 1.367 1_554 S
C220 C218 1.405 . S
C220 C222 1.403 . S
C220 C253 1.439 . S
C221 H206 0.930 1_556 S
C221 N217 1.319 . S
C221 C219 1.397 1_556 S
C222 C219 1.367 1_556 S
C222 C220 1.403 . S
C222 H229 0.929 1_556 S
N223 Eu188 2.562 . S
N223 C224 1.325 . S
N223 C226 1.351 . S
C224 H210 0.929 . S
C224 N223 1.325 . S
C224 C228 1.416 . S
C225 C226 1.430 . S
C225 C227 1.404 . S
C225 C254 1.387 . S
C226 C218 1.448 . S
C226 N223 1.351 . S
C226 C225 1.430 . S
C227 H216 0.930 . S
C227 C225 1.404 . S
C227 C228 1.366 . S
C228 H207 0.930 . S
C228 C224 1.416 . S
C228 C227 1.366 . S
H229 C222 0.929 1_554 S
H230 C253 0.931 . S
H231 C254 0.931 . S
O232 Eu188 2.462 . S
O232 C252 1.252 1_556 S
O233 Eu188 2.373 . S
O233 C244 1.249 . S
O234 Eu199 2.335 1_545 S
O234 C244 1.264 . S
O235 Eu188 2.432 1_554 S
O235 C252 1.268 . S
O236 Eu188 2.291 . S
O236 C251 1.261 . S
O237 Eu199 2.372 . S
O237 C251 1.253 1_565 S
O238 Eu199 2.462 . S
O238 C263 1.252 . S
O239 Eu199 2.373 . S
O239 C255 1.249 . S
O240 Eu188 2.335 1_565 S
O240 C255 1.264 . S
O241 Eu199 2.432 . S
O241 C263 1.268 . S
O242 Eu199 2.291 1_545 S
O242 C262 1.255 . S
O243 Eu188 2.372 . S
O243 C262 1.257 . S
C244 O233 1.249 . S
C244 O234 1.264 . S
C245 C248 1.382 . S
C245 C250 1.390 . S
C245 C252 1.506 . S
C246 C247 1.398 . S
C246 C250 1.392 . S
C247 C246 1.398 . S
C247 C249 1.372 . S
C247 H264 0.931 . S
C248 C245 1.382 . S
C248 C249 1.390 . S
C248 H265 0.931 . S
C249 C247 1.372 . S
C249 C248 1.390 . S
C249 H266 0.929 . S
C250 C245 1.390 . S
C250 C246 1.392 . S
C250 H267 0.930 . S
C251 O236 1.261 . S
C251 O237 1.253 1_545 S
C252 Eu188 2.787 1_554 S
C252 O232 1.252 1_554 S
C252 O235 1.268 . S
C252 C245 1.506 . S
C253 C220 1.439 . S
C253 H230 0.931 . S
C253 C254 1.374 . S
C254 C225 1.387 . S
C254 H231 0.931 . S
C254 C253 1.374 . S
C255 O239 1.249 . S
C255 O240 1.264 . S
C256 C259 1.382 . S
C256 C260 1.390 . S
C256 C263 1.506 . S
C257 C258 1.398 . S
C257 C260 1.392 . S
C258 C257 1.398 . S
C258 C261 1.372 . S
C258 H268 0.931 . S
C259 C256 1.382 . S
C259 C261 1.390 . S
C259 H269 0.931 . S
C260 C256 1.390 . S
C260 C257 1.392 . S
C260 H270 0.930 1_565 S
C261 C258 1.372 . S
C261 C259 1.390 . S
C261 H271 0.929 . S
C262 O242 1.255 . S
C262 O243 1.257 . S
C263 Eu199 2.787 . S
C263 O238 1.252 . S
C263 O241 1.268 . S
C263 C256 1.506 . S
H264 C247 0.931 . S
H265 C248 0.931 . S
H266 C249 0.929 . S
H267 C250 0.930 . S
H268 C258 0.931 . S
H269 C259 0.931 . S
H270 C260 0.930 1_545 S
H271 C261 0.929 . S
Eu272 N301 2.600 . S
Eu272 N307 2.562 . S
Eu272 O316 2.462 . S
Eu272 O317 2.373 . S
Eu272 O319 2.432 . S
Eu272 O320 2.291 . S
Eu272 O324 2.335 . S
Eu272 O327 2.372 . S
Eu272 C336 2.787 . S
C273 N274 1.365 1_554 S
C273 C276 1.405 . S
C273 C280 1.448 . S
N274 C273 1.365 1_556 S
N274 C277 1.319 . S
N274 Eu283 2.600 . S
C275 C277 1.397 . S
C275 C278 1.367 . S
C275 H295 0.931 . S
C276 C273 1.405 . S
C276 C278 1.403 1_554 S
C276 C282 1.439 . S
C277 N274 1.319 . S
C277 C275 1.397 . S
C277 H288 0.930 . S
C278 C275 1.367 . S
C278 C276 1.403 1_556 S
C278 H299 0.929 . S
C279 C280 1.430 . S
C279 C281 1.387 . S
C279 C285 1.404 . S
C280 C273 1.448 . S
C280 C279 1.430 . S
C280 N284 1.351 . S
C281 C279 1.387 . S
C281 C282 1.374 . S
C281 H296 0.931 . S
C282 C276 1.439 . S
C282 C281 1.374 . S
C282 H297 0.931 . S
Eu283 N274 2.600 . S
Eu283 N284 2.562 1_556 S
Eu283 O318 2.335 . S
Eu283 O321 2.372 . S
Eu283 O322 2.462 . S
Eu283 O323 2.373 . S
Eu283 O325 2.432 . S
Eu283 O326 2.291 . S
Eu283 C347 2.787 . S
N284 C280 1.351 . S
N284 Eu283 2.562 1_554 S
N284 C286 1.325 . S
C285 C279 1.404 . S
C285 C287 1.366 . S
C285 H293 0.930 . S
C286 N284 1.325 . S
C286 C287 1.416 . S
C286 H292 0.929 . S
C287 C285 1.366 . S
C287 C286 1.416 . S
C287 H289 0.930 . S
H288 C277 0.930 . S
H289 C287 0.930 . S
H290 C305 0.930 . S
H291 C312 0.930 . S
H292 C286 0.929 . S
H293 C285 0.930 . S
H294 C308 0.929 . S
H295 C275 0.931 . S
H296 C281 0.931 . S
H297 C282 0.931 . S
H298 C303 0.931 . S
H299 C278 0.929 . S
H300 C311 0.930 . S
N301 Eu272 2.600 . S
N301 C302 1.365 . S
N301 C305 1.319 . S
C302 N301 1.365 . S
C302 C304 1.405 . S
C302 C310 1.448 . S
C303 H298 0.931 . S
C303 C305 1.397 . S
C303 C306 1.367 . S
C304 C302 1.405 . S
C304 C306 1.403 . S
C304 C337 1.439 . S
C305 H290 0.930 . S
C305 N301 1.319 . S
C305 C303 1.397 . S
C306 C303 1.367 . S
C306 C304 1.403 . S
C306 H313 0.929 . S
N307 Eu272 2.562 . S
N307 C308 1.325 . S
N307 C310 1.351 . S
C308 H294 0.929 . S
C308 N307 1.325 . S
C308 C312 1.416 . S
C309 C310 1.430 . S
C309 C311 1.404 . S
C309 C338 1.387 . S
C310 C302 1.448 . S
C310 N307 1.351 . S
C310 C309 1.430 . S
C311 H300 0.930 . S
C311 C309 1.404 . S
C311 C312 1.366 . S
C312 H291 0.930 . S
C312 C308 1.416 . S
C312 C311 1.366 . S
H313 C306 0.929 . S
H314 C337 0.931 . S
H315 C338 0.931 . S
O316 Eu272 2.462 . S
O316 C336 1.252 . S
O317 Eu272 2.373 . S
O317 C328 1.249 . S
O318 Eu283 2.335 . S
O318 C328 1.264 . S
O319 Eu272 2.432 . S
O319 C336 1.268 . S
O320 Eu272 2.291 . S
O320 C335 1.255 . S
O321 Eu283 2.372 . S
O321 C335 1.257 . S
O322 Eu283 2.462 . S
O322 C347 1.252 . S
O323 Eu283 2.373 . S
O323 C339 1.249 . S
O324 Eu272 2.335 . S
O324 C339 1.264 . S
O325 Eu283 2.432 . S
O325 C347 1.268 . S
O326 Eu283 2.291 . S
O326 C346 1.255 . S
O327 Eu272 2.372 . S
O327 C346 1.257 . S
C328 O317 1.249 . S
C328 O318 1.264 . S
C329 C332 1.382 . S
C329 C334 1.390 . S
C329 C336 1.506 . S
C330 C331 1.398 . S
C330 C334 1.392 . S
C331 C330 1.398 . S
C331 C333 1.372 . S
C331 H348 0.931 . S
C332 C329 1.382 . S
C332 C333 1.390 . S
C332 H349 0.931 . S
C333 C331 1.372 . S
C333 C332 1.390 . S
C333 H350 0.929 . S
C334 C329 1.390 . S
C334 C330 1.392 . S
C334 H351 0.930 . S
C335 O320 1.255 . S
C335 O321 1.257 . S
C336 Eu272 2.787 . S
C336 O316 1.252 . S
C336 O319 1.268 . S
C336 C329 1.506 . S
C337 C304 1.439 . S
C337 H314 0.931 . S
C337 C338 1.374 . S
C338 C309 1.387 . S
C338 H315 0.931 . S
C338 C337 1.374 . S
C339 O323 1.249 . S
C339 O324 1.264 . S
C340 C343 1.382 . S
C340 C344 1.390 . S
C340 C347 1.506 1_554 S
C341 C342 1.398 . S
C341 C344 1.392 . S
C342 C341 1.398 . S
C342 C345 1.372 . S
C342 H352 0.931 . S
C343 C340 1.382 . S
C343 C345 1.390 . S
C343 H353 0.931 1_554 S
C344 C340 1.390 . S
C344 C341 1.392 . S
C344 H354 0.930 . S
C345 C342 1.372 . S
C345 C343 1.390 . S
C345 H355 0.929 . S
C346 O326 1.255 . S
C346 O327 1.257 . S
C347 Eu283 2.787 . S
C347 O322 1.252 . S
C347 O325 1.268 . S
C347 C340 1.506 1_556 S
H348 C331 0.931 . S
H349 C332 0.931 . S
H350 C333 0.929 . S
H351 C334 0.930 . S
H352 C342 0.931 . S
H353 C343 0.931 1_556 S
H354 C344 0.930 . S
H355 C345 0.929 . S
Eu356 N385 2.600 . S
Eu356 N391 2.562 . S
Eu356 O400 2.462 . S
Eu356 O401 2.373 1_455 S
Eu356 O403 2.432 . S
Eu356 O404 2.291 . S
Eu356 O408 2.335 . S
Eu356 O411 2.372 . S
Eu356 C420 2.787 . S
C357 N358 1.365 1_554 S
C357 C360 1.405 . S
C357 C364 1.448 . S
N358 C357 1.365 1_556 S
N358 C361 1.320 . S
N358 Eu367 2.600 1_455 S
C359 C361 1.401 . S
C359 C362 1.367 . S
C359 H379 0.931 . S
C360 C357 1.405 . S
C360 C362 1.403 1_554 S
C360 C366 1.439 . S
C361 N358 1.320 . S
C361 C359 1.401 . S
C361 H372 0.924 1_455 S
C362 C359 1.367 . S
C362 C360 1.403 1_556 S
C362 H383 0.929 . S
C363 C364 1.430 . S
C363 C365 1.387 . S
C363 C369 1.404 . S
C364 C357 1.448 . S
C364 C363 1.430 . S
C364 N368 1.351 . S
C365 C363 1.387 . S
C365 C366 1.374 . S
C365 H380 0.931 . S
C366 C360 1.439 . S
C366 C365 1.374 . S
C366 H381 0.931 . S
Eu367 N358 2.600 1_655 S
Eu367 N368 2.562 1_656 S
Eu367 O402 2.335 . S
Eu367 O405 2.372 . S
Eu367 O406 2.462 . S
Eu367 O407 2.373 1_655 S
Eu367 O409 2.432 . S
Eu367 O410 2.291 1_655 S
Eu367 C431 2.787 . S
N368 C364 1.351 . S
N368 Eu367 2.562 1_454 S
N368 C370 1.325 . S
C369 C363 1.404 . S
C369 C371 1.366 . S
C369 H377 0.930 . S
C370 N368 1.325 . S
C370 C371 1.416 . S
C370 H376 0.929 . S
C371 C369 1.366 . S
C371 C370 1.416 . S
C371 H373 0.930 . S
H372 C361 0.924 1_655 S
H373 C371 0.930 . S
H374 C389 0.930 . S
H375 C396 0.930 . S
H376 C370 0.929 . S
H377 C369 0.930 . S
H378 C392 0.929 . S
H379 C359 0.931 . S
H380 C365 0.931 . S
H381 C366 0.931 . S
H382 C387 0.931 . S
H383 C362 0.929 . S
H384 C395 0.930 . S
N385 Eu356 2.600 . S
N385 C386 1.365 1_455 S
N385 C389 1.319 . S
C386 N385 1.365 1_655 S
C386 C388 1.405 . S
C386 C394 1.448 . S
C387 H382 0.931 . S
C387 C389 1.397 . S
C387 C390 1.367 1_455 S
C388 C386 1.405 . S
C388 C390 1.403 . S
C388 C421 1.439 . S
C389 H374 0.930 . S
C389 N385 1.319 . S
C389 C387 1.397 . S
C390 C387 1.367 1_655 S
C390 C388 1.403 . S
C390 H397 0.929 . S
N391 Eu356 2.562 . S
N391 C392 1.325 . S
N391 C394 1.351 1_455 S
C392 H378 0.929 . S
C392 N391 1.325 . S
C392 C396 1.416 1_455 S
C393 C394 1.430 . S
C393 C395 1.404 . S
C393 C422 1.387 . S
C394 C386 1.448 . S
C394 N391 1.351 1_655 S
C394 C393 1.430 . S
C395 H384 0.930 . S
C395 C393 1.404 . S
C395 C396 1.366 . S
C396 H375 0.930 . S
C396 C392 1.416 1_655 S
C396 C395 1.366 . S
H397 C390 0.929 . S
H398 C421 0.931 . S
H399 C422 0.931 . S
O400 Eu356 2.462 . S
O400 C420 1.252 . S
O401 Eu356 2.373 1_655 S
O401 C412 1.249 . S
O402 Eu367 2.335 . S
O402 C412 1.264 . S
O403 Eu356 2.432 . S
O403 C420 1.268 . S
O404 Eu356 2.291 . S
O404 C419 1.255 . S
O405 Eu367 2.372 . S
O405 C419 1.257 1_655 S
O406 Eu367 2.462 . S
O406 C431 1.252 . S
O407 Eu367 2.373 1_455 S
O407 C423 1.249 . S
O408 Eu356 2.335 . S
O408 C423 1.264 . S
O409 Eu367 2.432 . S
O409 C431 1.268 . S
O410 Eu367 2.291 1_455 S
O410 C430 1.255 . S
O411 Eu356 2.372 . S
O411 C430 1.257 . S
C412 O401 1.249 . S
C412 O402 1.264 . S
C413 C416 1.382 . S
C413 C418 1.390 . S
C413 C420 1.506 . S
C414 C415 1.398 . S
C414 C418 1.392 . S
C415 C414 1.398 . S
C415 C417 1.372 . S
C415 H432 0.931 . S
C416 C413 1.382 . S
C416 C417 1.390 . S
C416 H433 0.931 . S
C417 C415 1.372 . S
C417 C416 1.390 . S
C417 H434 0.929 . S
C418 C413 1.390 . S
C418 C414 1.392 . S
C418 H435 0.930 . S
C419 O404 1.255 . S
C419 O405 1.257 1_455 S
C420 Eu356 2.787 . S
C420 O400 1.252 . S
C420 O403 1.268 . S
C420 C413 1.506 . S
C421 C388 1.439 . S
C421 H398 0.931 . S
C421 C422 1.374 . S
C422 C393 1.387 . S
C422 H399 0.931 . S
C422 C421 1.374 . S
C423 O407 1.249 . S
C423 O408 1.264 . S
C424 C427 1.382 . S
C424 C428 1.390 . S
C424 C431 1.506 1_554 S
C425 C426 1.398 . S
C425 C428 1.392 . S
C426 C425 1.398 . S
C426 C429 1.372 . S
C426 H436 0.931 . S
C427 C424 1.382 . S
C427 C429 1.390 . S
C427 H437 0.931 1_554 S
C428 C424 1.390 . S
C428 C425 1.392 . S
C428 H438 0.930 . S
C429 C426 1.372 . S
C429 C427 1.390 . S
C429 H439 0.929 . S
C430 O410 1.255 . S
C430 O411 1.257 . S
C431 Eu367 2.787 . S
C431 O406 1.252 . S
C431 O409 1.268 . S
C431 C424 1.506 1_556 S
H432 C415 0.931 . S
H433 C416 0.931 . S
H434 C417 0.929 . S
H435 C418 0.930 . S
H436 C426 0.931 . S
H437 C427 0.931 1_556 S
H438 C428 0.930 . S
H439 C429 0.929 . S
C440 C441 1.387 . S
C440 H444 0.950 . S
C440 C449 1.390 . S
C441 C440 1.387 . S
C441 C443 1.387 . S
H442 C449 0.950 . S
C443 C441 1.387 . S
C443 C445 1.390 1_545 S
C443 H447 0.950 1_545 S
H444 C440 0.950 . S
C445 C443 1.390 1_565 S
C445 C446 1.387 1_565 S
C445 H448 0.950 . S
C446 C445 1.387 1_545 S
C446 C449 1.387 . S
H447 C443 0.950 1_565 S
H448 C445 0.950 . S
C449 C440 1.390 . S
C449 H442 0.950 . S
C449 C446 1.387 . S
C450 C451 1.387 . S
C450 H454 0.950 . S
C450 C459 1.390 . S
C451 C450 1.387 . S
C451 C453 1.387 . S
H452 C459 0.950 . S
C453 C451 1.387 . S
C453 C455 1.390 . S
C453 H457 0.950 . S
H454 C450 0.950 . S
C455 C453 1.390 . S
C455 C456 1.387 . S
C455 H458 0.950 . S
C456 C455 1.387 . S
C456 C459 1.387 . S
H457 C453 0.950 . S
H458 C455 0.950 . S
C459 C450 1.390 . S
C459 H452 0.950 . S
C459 C456 1.387 . S
C460 C461 1.387 . S
C460 H464 0.950 . S
C460 C469 1.390 . S
C461 C460 1.387 . S
C461 C463 1.387 . S
H462 C469 0.950 . S
C463 C461 1.387 . S
C463 C465 1.390 . S
C463 H467 0.950 . S
H464 C460 0.950 . S
C465 C463 1.390 . S
C465 C466 1.387 . S
C465 H468 0.950 . S
C466 C465 1.387 . S
C466 C469 1.387 . S
H467 C463 0.950 . S
H468 C465 0.950 . S
C469 C460 1.390 . S
C469 H462 0.950 . S
C469 C466 1.387 . S
C470 C471 1.387 . S
C470 H474 0.950 . S
C470 C479 1.390 . S
C471 C470 1.387 . S
C471 C473 1.387 1_455 S
H472 C479 0.950 . S
C473 C471 1.387 1_655 S
C473 C475 1.390 . S
C473 H477 0.950 . S
H474 C470 0.950 . S
C475 C473 1.390 . S
C475 C476 1.387 1_655 S
C475 H478 0.950 . S
C476 C475 1.387 1_455 S
C476 C479 1.387 . S
H477 C473 0.950 . S
H478 C475 0.950 . S
C479 C470 1.390 . S
C479 H472 0.950 . S
C479 C476 1.387 . S
C480 C481 1.387 1_545 S
C480 H484 0.950 . S
C480 C489 1.390 . S
C481 C480 1.387 1_565 S
C481 C483 1.387 . S
H482 C489 0.950 . S
C483 C481 1.387 . S
C483 C485 1.390 . S
C483 H487 0.950 . S
H484 C480 0.950 . S
C485 C483 1.390 . S
C485 C486 1.410 . S
C485 H488 0.950 . S
C486 C485 1.410 . S
C486 C489 1.368 1_565 S
H487 C483 0.950 . S
H488 C485 0.950 . S
C489 C480 1.390 . S
C489 H482 0.950 . S
C489 C486 1.368 1_545 S
C490 C491 1.387 . S
C490 H494 0.950 . S
C490 C499 1.390 . S
C491 C490 1.387 . S
C491 C493 1.387 . S
H492 C499 0.950 . S
C493 C491 1.387 . S
C493 C495 1.390 . S
C493 H497 0.950 . S
H494 C490 0.950 . S
C495 C493 1.390 . S
C495 C496 1.387 . S
C495 H498 0.950 1_554 S
C496 C495 1.387 . S
C496 C499 1.387 . S
H497 C493 0.950 . S
H498 C495 0.950 1_556 S
C499 C490 1.390 . S
C499 H492 0.950 . S
C499 C496 1.387 . S
C500 C501 1.387 . S
C500 H504 0.950 . S
C500 C509 1.390 . S
C501 C500 1.387 . S
C501 C503 1.387 . S
H502 C509 0.950 . S
C503 C501 1.387 . S
C503 C505 1.390 . S
C503 H507 0.950 . S
H504 C500 0.950 . S
C505 C503 1.390 . S
C505 C506 1.387 . S
C505 H508 0.950 . S
C506 C505 1.387 . S
C506 C509 1.387 . S
H507 C503 0.950 . S
H508 C505 0.950 . S
C509 C500 1.390 . S
C509 H502 0.950 . S
C509 C506 1.387 . S
C510 C511 1.387 1_455 S
C510 H514 0.950 . S
C510 C519 1.390 . S
C511 C510 1.387 1_655 S
C511 C513 1.387 . S
H512 C519 0.950 . S
C513 C511 1.387 . S
C513 C515 1.390 . S
C513 H517 0.950 . S
H514 C510 0.950 . S
C515 C513 1.390 . S
C515 C516 1.387 . S
C515 H518 0.950 1_554 S
C516 C515 1.387 . S
C516 C519 1.387 1_655 S
H517 C513 0.950 . S
H518 C515 0.950 1_556 S
C519 C510 1.390 . S
C519 H512 0.950 . S
C519 C516 1.387 1_455 S
C520 C521 1.387 . S
C520 H524 0.950 . S
C520 C529 1.390 1_455 S
C521 C520 1.387 . S
C521 C523 1.387 . S
H522 C529 0.950 . S
C523 C521 1.387 . S
C523 C525 1.390 . S
C523 H527 0.950 . S
H524 C520 0.950 . S
C525 C523 1.390 . S
C525 C526 1.387 1_455 S
C525 H528 0.950 . S
C526 C525 1.387 1_655 S
C526 C529 1.387 . S
H527 C523 0.950 . S
H528 C525 0.950 . S
C529 C520 1.390 1_655 S
C529 H522 0.950 . S
C529 C526 1.387 . S
C530 C531 1.387 . S
C530 H534 0.950 1_545 S
C530 C539 1.390 1_545 S
C531 C530 1.387 . S
C531 C533 1.387 . S
H532 C539 0.950 . S
C533 C531 1.387 . S
C533 C535 1.390 . S
C533 H537 0.950 . S
H534 C530 0.950 1_565 S
C535 C533 1.390 . S
C535 C536 1.417 . S
C535 H538 0.950 . S
C536 C535 1.417 . S
C536 C539 1.374 1_545 S
H537 C533 0.950 . S
H538 C535 0.950 . S
C539 C530 1.390 1_565 S
C539 H532 0.950 . S
C539 C536 1.374 1_565 S
C540 C541 1.387 . S
C540 H544 0.950 . S
C540 C549 1.390 . S
C541 C540 1.387 . S
C541 C543 1.387 . S
H542 C549 0.950 . S
C543 C541 1.387 . S
C543 C545 1.390 . S
C543 H547 0.950 . S
H544 C540 0.950 . S
C545 C543 1.390 . S
C545 C546 1.387 . S
C545 H548 0.950 . S
C546 C545 1.387 . S
C546 C549 1.387 . S
H547 C543 0.950 . S
H548 C545 0.950 . S
C549 C540 1.390 . S
C549 H542 0.950 . S
C549 C546 1.387 . S
C550 C551 1.387 . S
C550 H554 0.950 . S
C550 C559 1.390 . S
C551 C550 1.387 . S
C551 C553 1.387 . S
H552 C559 0.950 . S
C553 C551 1.387 . S
C553 C555 1.390 . S
C553 H557 0.950 . S
H554 C550 0.950 . S
C555 C553 1.390 . S
C555 C556 1.387 . S
C555 H558 0.950 . S
C556 C555 1.387 . S
C556 C559 1.387 . S
H557 C553 0.950 . S
H558 C555 0.950 . S
C559 C550 1.390 . S
C559 H552 0.950 . S
C559 C556 1.387 . S
C560 C561 1.387 1_455 S
C560 H564 0.949 1_455 S
C560 C569 1.390 . S
C561 C560 1.387 1_655 S
C561 C563 1.387 . S
H562 C569 0.950 . S
C563 C561 1.387 . S
C563 C565 1.390 1_655 S
C563 H567 0.950 . S
H564 C560 0.949 1_655 S
C565 C563 1.390 1_455 S
C565 C566 1.387 . S
C565 H568 0.950 . S
C566 C565 1.387 . S
C566 C569 1.387 . S
H567 C563 0.950 . S
H568 C565 0.950 . S
C569 C560 1.390 . S
C569 H562 0.950 . S
C569 C566 1.387 . S
C570 C571 1.387 1_545 S
C570 H574 0.946 1_545 S
C570 C579 1.390 . S
C571 C570 1.387 1_565 S
C571 C573 1.387 . S
H572 C579 0.950 . S
C573 C571 1.387 . S
C573 C575 1.390 1_565 S
C573 H577 0.950 . S
H574 C570 0.946 1_565 S
C575 C573 1.390 1_545 S
C575 C576 1.387 . S
C575 H578 0.950 . S
C576 C575 1.387 . S
C576 C579 1.387 . S
H577 C573 0.950 . S
H578 C575 0.950 . S
C579 C570 1.390 . S
C579 H572 0.950 . S
C579 C576 1.387 . S
C580 C581 1.387 . S
C580 H584 0.950 . S
C580 C589 1.390 . S
C581 C580 1.387 . S
C581 C583 1.387 . S
H582 C589 0.950 . S
C583 C581 1.387 . S
C583 C585 1.390 . S
C583 H587 0.950 . S
H584 C580 0.950 . S
C585 C583 1.390 . S
C585 C586 1.387 . S
C585 H588 0.950 . S
C586 C585 1.387 . S
C586 C589 1.387 . S
H587 C583 0.950 . S
H588 C585 0.950 . S
C589 C580 1.390 . S
C589 H582 0.950 . S
C589 C586 1.387 . S
C590 C591 1.387 . S
C590 H594 0.950 . S
C590 C599 1.390 . S
C591 C590 1.387 . S
C591 C593 1.387 . S
H592 C599 0.950 . S
C593 C591 1.387 . S
C593 C595 1.390 . S
C593 H597 0.950 . S
H594 C590 0.950 . S
C595 C593 1.390 . S
C595 C596 1.387 . S
C595 H598 0.950 . S
C596 C595 1.387 . S
C596 C599 1.387 . S
H597 C593 0.950 . S
H598 C595 0.950 . S
C599 C590 1.390 . S
C599 H592 0.950 . S
C599 C596 1.387 . S
C600 C601 1.387 . S
C600 H604 0.950 . S
C600 C609 1.390 . S
C601 C600 1.387 . S
C601 C603 1.387 . S
H602 C609 0.950 . S
C603 C601 1.387 . S
C603 C605 1.390 . S
C603 H607 0.950 1_455 S
H604 C600 0.950 . S
C605 C603 1.390 . S
C605 C606 1.387 . S
C605 H608 0.950 1_455 S
C606 C605 1.387 . S
C606 C609 1.387 . S
H607 C603 0.950 1_655 S
H608 C605 0.950 1_655 S
C609 C600 1.390 . S
C609 H602 0.950 . S
C609 C606 1.387 . S
C610 C611 1.387 . S
C610 H614 0.950 . S
C610 C619 1.390 . S
C611 C610 1.387 . S
C611 C613 1.387 . S
H612 C619 0.950 . S
C613 C611 1.387 . S
C613 C615 1.390 . S
C613 H617 0.950 1_545 S
H614 C610 0.950 . S
C615 C613 1.390 . S
C615 C616 1.387 . S
C615 H618 0.950 1_545 S
C616 C615 1.387 . S
C616 C619 1.387 . S
H617 C613 0.950 1_565 S
H618 C615 0.950 1_565 S
C619 C610 1.390 . S
C619 H612 0.950 . S
C619 C616 1.387 . S
C620 C621 1.387 . S
C620 H624 0.950 . S
C620 C629 1.390 . S
C621 C620 1.387 . S
C621 C623 1.387 . S
H622 C629 0.950 . S
C623 C621 1.387 . S
C623 C625 1.390 . S
C623 H627 0.950 . S
H624 C620 0.950 . S
C625 C623 1.390 . S
C625 C626 1.387 . S
C625 H628 0.950 . S
C626 C625 1.387 . S
C626 C629 1.387 . S
H627 C623 0.950 . S
H628 C625 0.950 . S
C629 C620 1.390 . S
C629 H622 0.950 . S
C629 C626 1.387 . S
C630 C631 1.387 . S
C630 H634 0.950 . S
C630 C639 1.390 . S
C631 C630 1.387 . S
C631 C633 1.387 . S
H632 C639 0.950 . S
C633 C631 1.387 . S
C633 C635 1.390 . S
C633 H637 0.950 . S
H634 C630 0.950 . S
C635 C633 1.390 . S
C635 C636 1.387 . S
C635 H638 0.950 . S
C636 C635 1.387 . S
C636 C639 1.387 . S
H637 C633 0.950 . S
H638 C635 0.950 . S
C639 C630 1.390 . S
C639 H632 0.950 . S
C639 C636 1.387 . S
C640 C641 1.387 . S
C640 H644 0.950 1_655 S
C640 C649 1.391 . S
C641 C640 1.387 . S
C641 C643 1.387 . S
H642 C649 0.944 1_455 S
C643 C641 1.387 . S
C643 C645 1.390 . S
C643 H647 0.950 . S
H644 C640 0.950 1_455 S
C645 C643 1.390 . S
C645 C646 1.387 . S
C645 H648 0.950 . S
C646 C645 1.387 . S
C646 C649 1.393 . S
H647 C643 0.950 . S
H648 C645 0.950 . S
C649 C640 1.391 . S
C649 H642 0.944 1_655 S
C649 C646 1.393 . S
C650 C651 1.387 1_545 S
C650 H654 0.950 . S
C650 C659 1.390 . S
C651 C650 1.387 1_565 S
C651 C653 1.387 . S
H652 C659 0.950 . S
C653 C651 1.387 . S
C653 C655 1.390 . S
C653 H657 0.950 . S
H654 C650 0.950 . S
C655 C653 1.390 . S
C655 C656 1.387 . S
C655 H658 0.950 . S
C656 C655 1.387 . S
C656 C659 1.387 1_565 S
H657 C653 0.950 . S
H658 C655 0.950 . S
C659 C650 1.390 . S
C659 H652 0.950 . S
C659 C656 1.387 1_545 S
C660 C661 1.387 . S
C660 H664 0.950 . S
C660 C669 1.390 . S
C661 C660 1.387 . S
C661 C663 1.387 . S
H662 C669 0.950 . S
C663 C661 1.387 . S
C663 C665 1.390 . S
C663 H667 0.950 . S
H664 C660 0.950 . S
C665 C663 1.390 . S
C665 C666 1.387 . S
C665 H668 0.950 . S
C666 C665 1.387 . S
C666 C669 1.387 . S
H667 C663 0.950 . S
H668 C665 0.950 . S
C669 C660 1.390 . S
C669 H662 0.950 . S
C669 C666 1.387 . S
C670 C671 1.387 . S
C670 H674 0.950 . S
C670 C679 1.390 . S
C671 C670 1.387 . S
C671 C673 1.387 . S
H672 C679 0.950 . S
C673 C671 1.387 . S
C673 C675 1.390 . S
C673 H677 0.950 . S
H674 C670 0.950 . S
C675 C673 1.390 . S
C675 C676 1.387 . S
C675 H678 0.950 . S
C676 C675 1.387 . S
C676 C679 1.387 . S
H677 C673 0.950 . S
H678 C675 0.950 . S
C679 C670 1.390 . S
C679 H672 0.950 . S
C679 C676 1.387 . S
C441 C82 1.804 . S
C446 C167 2.174 . S
C456 C244 2.178 . S
C451 C95 1.800 . S
C466 C335 2.174 . S
C461 C56 1.801 . S
C476 C419 2.163 . S
C471 C69 1.796 . S
C486 C178 2.169 1_564 S
C481 C30 1.769 . S
C491 C43 1.764 . S
C496 C255 2.177 1_554 S
C501 C4 1.772 . S
C506 C346 2.175 1_554 S
C511 C17 1.762 . S
C516 C430 2.164 1_654 S
C526 C162 0.775 . S
C521 C74 0.769 . S
C536 C257 0.748 1_545 S
C531 C87 0.760 . S
C546 C330 0.776 . S
C541 C100 0.778 . S
C551 C61 0.758 . S
C556 C414 0.756 . S
C561 C22 0.767 . S
C566 C173 0.774 . S
C576 C246 0.761 . S
C571 C35 0.761 . S
C586 C341 0.776 . S
C581 C48 0.777 . S
C591 C9 0.756 . S
C596 C425 0.756 . S
C601 C73 2.030 . S
C606 C171 2.287 . S
C611 C86 2.041 . S
C616 C262 2.336 . S
C626 C339 2.300 . S
C621 C99 2.040 . S
C636 C423 2.303 . S
C631 C60 2.043 . S
C641 C21 2.028 . S
C646 C160 2.286 . S
C656 C251 2.335 1_565 S
C651 C34 2.039 . S
C666 C328 2.299 . S
C661 C47 2.038 . S
C671 C8 2.045 . S
C676 C412 2.304 . S
