# Generated by pormake.
# Topology dag, (6,3)-cn, num edge types: 1
# Building blocks:
#     Node 0, Type 0, BuildingBlock: IZENUY_clean_sbu_0, # of connection points: 6
#     Node 1, Type 0, BuildingBlock: IZENUY_clean_sbu_0, # of connection points: 6
#     Node 2, Type 0, BuildingBlock: IZENUY_clean_sbu_0, # of connection points: 6
#     Node 3, Type 0, BuildingBlock: IZENUY_clean_sbu_0, # of connection points: 6
#     Node 4, Type 1, BuildingBlock: CUQRIR_clean_linker_1, # of connection points: 3
#     Node 5, Type 1, BuildingBlock: CUQRIR_clean_linker_1, # of connection points: 3
#     Node 6, Type 1, BuildingBlock: CUQRIR_clean_linker_1, # of connection points: 3
#     Node 7, Type 1, BuildingBlock: CUQRIR_clean_linker_1, # of connection points: 3
#     Node 8, Type 1, BuildingBlock: CUQRIR_clean_linker_1, # of connection points: 3
#     Node 9, Type 1, BuildingBlock: CUQRIR_clean_linker_1, # of connection points: 3
#     Node 10, Type 1, BuildingBlock: CUQRIR_clean_linker_1, # of connection points: 3
#     Node 11, Type 1, BuildingBlock: CUQRIR_clean_linker_1, # of connection points: 3
#     Edge 12, Type (0, 1), BuildingBlock: OJICUG_clean_linker_0, # of connection points: 2
#     Edge 13, Type (0, 1), BuildingBlock: OJICUG_clean_linker_0, # of connection points: 2
#     Edge 14, Type (0, 1), BuildingBlock: OJICUG_clean_linker_0, # of connection points: 2
#     Edge 15, Type (0, 1), BuildingBlock: OJICUG_clean_linker_0, # of connection points: 2
#     Edge 16, Type (0, 1), BuildingBlock: OJICUG_clean_linker_0, # of connection points: 2
#     Edge 17, Type (0, 1), BuildingBlock: OJICUG_clean_linker_0, # of connection points: 2
#     Edge 18, Type (0, 1), BuildingBlock: OJICUG_clean_linker_0, # of connection points: 2
#     Edge 19, Type (0, 1), BuildingBlock: OJICUG_clean_linker_0, # of connection points: 2
#     Edge 20, Type (0, 1), BuildingBlock: OJICUG_clean_linker_0, # of connection points: 2
#     Edge 21, Type (0, 1), BuildingBlock: OJICUG_clean_linker_0, # of connection points: 2
#     Edge 22, Type (0, 1), BuildingBlock: OJICUG_clean_linker_0, # of connection points: 2
#     Edge 23, Type (0, 1), BuildingBlock: OJICUG_clean_linker_0, # of connection points: 2
#     Edge 24, Type (0, 1), BuildingBlock: OJICUG_clean_linker_0, # of connection points: 2
#     Edge 25, Type (0, 1), BuildingBlock: OJICUG_clean_linker_0, # of connection points: 2
#     Edge 26, Type (0, 1), BuildingBlock: OJICUG_clean_linker_0, # of connection points: 2
#     Edge 27, Type (0, 1), BuildingBlock: OJICUG_clean_linker_0, # of connection points: 2
#     Edge 28, Type (0, 1), BuildingBlock: OJICUG_clean_linker_0, # of connection points: 2
#     Edge 29, Type (0, 1), BuildingBlock: OJICUG_clean_linker_0, # of connection points: 2
#     Edge 30, Type (0, 1), BuildingBlock: OJICUG_clean_linker_0, # of connection points: 2
#     Edge 31, Type (0, 1), BuildingBlock: OJICUG_clean_linker_0, # of connection points: 2
#     Edge 32, Type (0, 1), BuildingBlock: OJICUG_clean_linker_0, # of connection points: 2
#     Edge 33, Type (0, 1), BuildingBlock: OJICUG_clean_linker_0, # of connection points: 2
#     Edge 34, Type (0, 1), BuildingBlock: OJICUG_clean_linker_0, # of connection points: 2
#     Edge 35, Type (0, 1), BuildingBlock: OJICUG_clean_linker_0, # of connection points: 2
# Relax obj value: 0.079
# Max RMSD: 0.083
# Mean RMSD: 0.076
data_MOF--net-dag--node1-IZENUY_clean_sbu_0--node2-CUQRIR_clean_linker_1--edge1-OJICUG_clean_linker_0
_symmetry_space_group_name_H-M    P1
_symmetry_Int_Tables_number       1
_symmetry_cell_setting            triclinic
loop_
_symmetry_equiv_pos_as_xyz
'x, y, z'
_cell_length_a     26.10802
_cell_length_b     26.448103
_cell_length_c     24.096309
_cell_angle_alpha  91.412787
_cell_angle_beta   89.980858
_cell_angle_gamma 90.17276
loop_
_atom_site_label
_atom_site_type_symbol
_atom_site_fract_x
_atom_site_fract_y
_atom_site_fract_z
_atom_type_partial_charge
Fe0 Fe 0.1964 0.90485 0.02601 0.0
Fe1 Fe 0.08274 0.93146 0.01704 0.0
O2 O 0.13143 0.88554 0.02315 0.0
Fe3 Fe 0.1154 0.82048 0.02631 0.0
O4 O 0.14594 0.81499 0.09369 0.0
O5 O 0.21723 0.85311 0.07012 0.0
O6 O 0.18528 0.9423 0.08902 0.0
C7 C 0.153 0.97765 0.09195 0.0
C8 C 0.20391 0.82158 0.95789 0.0
O9 O 0.11699 0.98054 0.05709 0.0
C10 C 0.04938 0.85181 0.94613 0.0
O11 O 0.18804 0.96012 0.98194 0.0
O12 O 0.10895 0.95334 0.95206 0.0
O13 O 0.1733 0.79864 0.98956 0.0
O14 O 0.21115 0.86861 0.96337 0.0
C15 C 0.03807 0.86844 0.09169 0.0
O16 O 0.04002 0.89089 0.97552 0.0
O17 O 0.08395 0.82117 0.95915 0.0
C18 C 0.15379 0.97043 0.94677 0.0
O19 O 0.053 0.91274 0.08163 0.0
O20 O 0.05465 0.83091 0.06338 0.0
C21 C 0.19274 0.82441 0.10207 0.0
Fe22 Fe 0.69699 0.60652 0.50373 0.0
Fe23 Fe 0.61528 0.69035 0.51527 0.0
O24 O 0.63246 0.62535 0.51352 0.0
Fe25 Fe 0.58461 0.57873 0.522 0.0
O26 O 0.61492 0.55687 0.58459 0.0
O27 O 0.69214 0.55106 0.54834 0.0
O28 O 0.71756 0.64253 0.56498 0.0
C29 C 0.70988 0.68919 0.57318 0.0
C30 C 0.64982 0.53256 0.44203 0.0
O31 O 0.67531 0.71225 0.54721 0.0
C32 C 0.53585 0.64302 0.45293 0.0
O33 O 0.71312 0.65854 0.45766 0.0
O34 O 0.64072 0.69979 0.4463 0.0
O35 O 0.61633 0.52987 0.47961 0.0
O36 O 0.68116 0.56892 0.44164 0.0
C37 C 0.55454 0.65507 0.59822 0.0
O38 O 0.55217 0.6797 0.48292 0.0
O39 O 0.5519 0.59857 0.45969 0.0
C40 C 0.68583 0.6893 0.4312 0.0
O41 O 0.58872 0.6863 0.58494 0.0
O42 O 0.54363 0.61785 0.56665 0.0
C43 C 0.6603 0.54075 0.5862 0.0
Fe44 Fe 0.89446 0.18874 0.01642 0.0
Fe45 Fe 0.92574 0.07739 0.0132 0.0
O46 O 0.87736 0.12401 0.01007 0.0
Fe47 Fe 0.81257 0.10555 0.00053 0.0
O48 O 0.80676 0.14174 0.93753 0.0
O49 O 0.84408 0.21088 0.97029 0.0
O50 O 0.93629 0.18407 0.95608 0.0
C51 C 0.97415 0.15466 0.95363 0.0
C52 C 0.80702 0.18744 0.07871 0.0
O53 O 0.97646 0.11674 0.98432 0.0
C54 C 0.84346 0.03194 0.0698 0.0
O55 O 0.94756 0.17813 0.06487 0.0
O56 O 0.94253 0.09729 0.08364 0.0
O57 O 0.78623 0.15749 0.04359 0.0
O58 O 0.85399 0.19825 0.07652 0.0
C59 C 0.86792 0.03851 0.92839 0.0
O60 O 0.8847 0.02869 0.04263 0.0
O61 O 0.81313 0.06819 0.06295 0.0
C62 C 0.95671 0.14175 0.09676 0.0
O63 O 0.91145 0.05506 0.943 0.0
O64 O 0.82799 0.05005 0.95592 0.0
C65 C 0.81585 0.18853 0.93473 0.0
Fe66 Fe 0.42587 0.43242 0.51238 0.0
Fe67 Fe 0.31278 0.40518 0.52638 0.0
O68 O 0.37755 0.38618 0.52005 0.0
Fe69 Fe 0.39419 0.32124 0.52129 0.0
O70 O 0.45626 0.33207 0.55546 0.0
O71 O 0.45697 0.41359 0.57608 0.0
O72 O 0.39301 0.48171 0.55313 0.0
C73 C 0.35844 0.47912 0.58962 0.0
C74 C 0.45724 0.35434 0.43895 0.0
O75 O 0.3265 0.4432 0.58873 0.0
C76 C 0.30196 0.32153 0.45879 0.0
O77 O 0.39758 0.4536 0.44837 0.0
O78 O 0.31942 0.4602 0.48156 0.0
O79 O 0.423 0.32321 0.45248 0.0
O80 O 0.46762 0.39233 0.46967 0.0
C81 C 0.3202 0.32397 0.60135 0.0
O82 O 0.29475 0.36852 0.46474 0.0
O83 O 0.33505 0.29905 0.48755 0.0
C84 C 0.35242 0.46994 0.44471 0.0
O85 O 0.29437 0.35351 0.57176 0.0
O86 O 0.36642 0.31437 0.58996 0.0
C87 C 0.47248 0.36925 0.58466 0.0
C88 C 0.12695 0.20517 0.29663 0.0
N89 N 0.11492 0.16893 0.25815 0.0
N90 N 0.17592 0.19964 0.3141 0.0
C91 C 0.09037 0.24451 0.31881 0.0
C92 C 0.19333 0.1589 0.28467 0.0
N93 N 0.15626 0.14025 0.25085 0.0
C94 C 0.24792 0.14066 0.28466 0.0
H95 H 0.09382 0.27895 0.2937 0.0
H96 H 0.09956 0.25487 0.3626 0.0
H97 H 0.05026 0.23066 0.31602 0.0
H98 H 0.25215 0.11156 0.3167 0.0
H99 H 0.27483 0.17216 0.2945 0.0
H100 H 0.25844 0.12335 0.24385 0.0
C101 C 0.31297 0.66406 0.77615 0.0
N102 N 0.35144 0.64739 0.74298 0.0
N103 N 0.32784 0.70572 0.80579 0.0
C104 C 0.25941 0.64275 0.77549 0.0
C105 C 0.37669 0.714 0.78921 0.0
N106 N 0.39105 0.67863 0.75084 0.0
C107 C 0.41132 0.7545 0.81315 0.0
H108 H 0.23087 0.67257 0.7856 0.0
H109 H 0.25651 0.61304 0.80704 0.0
H110 H 0.25005 0.62542 0.73432 0.0
H111 H 0.40076 0.76386 0.85681 0.0
H112 H 0.4073 0.78916 0.78853 0.0
H113 H 0.45195 0.74237 0.81143 0.0
C114 C 0.77846 0.84804 0.24373 0.0
N115 N 0.81761 0.86728 0.21409 0.0
N116 N 0.79509 0.80975 0.27561 0.0
C117 C 0.7234 0.86348 0.23741 0.0
C118 C 0.84596 0.80668 0.26399 0.0
N119 N 0.85956 0.8415 0.22645 0.0
C120 C 0.88317 0.77246 0.29223 0.0
H121 H 0.71473 0.89419 0.26814 0.0
H122 H 0.69724 0.8312 0.24478 0.0
H123 H 0.7162 0.878 0.19532 0.0
H124 H 0.8855 0.73606 0.2685 0.0
H125 H 0.8705 0.76471 0.33516 0.0
H126 H 0.92202 0.7896 0.29358 0.0
C127 C 0.71958 0.35609 0.76124 0.0
N128 N 0.68155 0.37557 0.73048 0.0
N129 N 0.70488 0.31129 0.78261 0.0
C130 C 0.77175 0.37967 0.76809 0.0
C131 C 0.65661 0.30421 0.7629 0.0
N132 N 0.64251 0.34335 0.73124 0.0
C133 C 0.62231 0.26053 0.77665 0.0
H134 H 0.78229 0.40156 0.73108 0.0
H135 H 0.80126 0.35042 0.77509 0.0
H136 H 0.77112 0.40618 0.80448 0.0
H137 H 0.63025 0.24725 0.81911 0.0
H138 H 0.62963 0.22886 0.74668 0.0
H139 H 0.58139 0.27131 0.77349 0.0
C140 C 0.63332 0.29513 0.24592 0.0
N141 N 0.61915 0.33051 0.28438 0.0
N142 N 0.68255 0.30267 0.22996 0.0
C143 C 0.59791 0.25578 0.22101 0.0
C144 C 0.6977 0.34402 0.26014 0.0
N145 N 0.65909 0.36116 0.29281 0.0
C146 C 0.7516 0.3644 0.26228 0.0
H147 H 0.6007 0.22073 0.24517 0.0
H148 H 0.60854 0.24676 0.1773 0.0
H149 H 0.5576 0.26893 0.22256 0.0
H150 H 0.75583 0.39416 0.23093 0.0
H151 H 0.77984 0.33409 0.25303 0.0
H152 H 0.76026 0.38156 0.30371 0.0
C153 C 0.16894 0.21958 0.78899 0.0
N154 N 0.15149 0.18075 0.8192 0.0
N155 N 0.21175 0.20591 0.76052 0.0
C156 C 0.14668 0.27202 0.791 0.0
C157 C 0.21974 0.15725 0.77486 0.0
N158 N 0.18308 0.14198 0.81058 0.0
C159 C 0.26097 0.12361 0.75106 0.0
H160 H 0.1164 0.27458 0.75892 0.0
H161 H 0.17651 0.30082 0.78271 0.0
H162 H 0.12904 0.28044 0.83209 0.0
H163 H 0.29609 0.1283 0.77659 0.0
H164 H 0.27017 0.13401 0.70785 0.0
H165 H 0.24917 0.08329 0.75159 0.0
C166 C 0.29351 0.65374 0.26789 0.0
N167 N 0.33093 0.63505 0.30014 0.0
N168 N 0.30536 0.70136 0.25235 0.0
C169 C 0.24646 0.6247 0.25028 0.0
C170 C 0.35125 0.71091 0.2771 0.0
N171 N 0.36676 0.67047 0.30589 0.0
C172 C 0.38026 0.76001 0.27425 0.0
H173 H 0.23432 0.63527 0.20801 0.0
H174 H 0.21491 0.63378 0.2797 0.0
H175 H 0.25347 0.58336 0.25099 0.0
H176 H 0.40345 0.76713 0.31217 0.0
H177 H 0.3537 0.79215 0.2686 0.0
H178 H 0.40685 0.75798 0.23835 0.0
C179 C 0.82831 0.85471 0.73882 0.0
N180 N 0.86576 0.871 0.77371 0.0
N181 N 0.83981 0.80834 0.71691 0.0
C182 C 0.77919 0.88269 0.72868 0.0
C183 C 0.88533 0.79688 0.74054 0.0
N184 N 0.90099 0.83492 0.77503 0.0
C185 C 0.91537 0.74942 0.72885 0.0
H186 H 0.74679 0.8558 0.72308 0.0
H187 H 0.78325 0.90452 0.6902 0.0
H188 H 0.77019 0.90975 0.76313 0.0
H189 H 0.90771 0.73448 0.68621 0.0
H190 H 0.90392 0.72035 0.7589 0.0
H191 H 0.95703 0.75665 0.73387 0.0
C192 C 0.14897 0.06918 0.11563 0.0
C193 C 0.16007 0.0198 0.13191 0.0
H194 H 0.14151 0.14693 0.14098 0.0
C195 C 0.17453 0.0112 0.18693 0.0
H196 H 0.13841 0.07677 0.07314 0.0
C197 C 0.17476 0.05123 0.22597 0.0
C198 C 0.16153 0.10016 0.20996 0.0
H199 H 0.18318 0.97333 0.20022 0.0
H200 H 0.18345 0.04387 0.26895 0.0
C201 C 0.15055 0.10916 0.1542 0.0
C202 C 0.50552 0.62434 0.67874 0.0
C203 C 0.52082 0.66497 0.64609 0.0
H204 H 0.45297 0.59777 0.73995 0.0
C205 C 0.49744 0.71226 0.65416 0.0
H206 H 0.52314 0.58751 0.67314 0.0
C207 C 0.45637 0.71761 0.69119 0.0
C208 C 0.43895 0.676 0.7212 0.0
H209 H 0.50825 0.74389 0.62888 0.0
H210 H 0.43611 0.75323 0.69374 0.0
C211 C 0.46543 0.63006 0.71663 0.0
C212 C 0.84071 0.93977 0.08591 0.0
C213 C 0.82865 0.98915 0.1042 0.0
H214 H 0.84415 0.86152 0.10641 0.0
C215 C 0.80646 0.99695 0.15675 0.0
H216 H 0.85716 0.93278 0.04514 0.0
C217 C 0.80021 0.95619 0.19217 0.0
C218 C 0.81522 0.90734 0.17488 0.0
H219 H 0.79686 0.03476 0.17155 0.0
H220 H 0.78623 0.96305 0.23398 0.0
C221 C 0.83328 0.89912 0.12069 0.0
C222 C 0.54599 0.3183 0.61926 0.0
C223 C 0.51432 0.36111 0.62478 0.0
H224 H 0.61237 0.27963 0.64911 0.0
C225 C 0.52345 0.39607 0.66852 0.0
H226 H 0.53994 0.29064 0.58599 0.0
C227 C 0.56404 0.3888 0.70528 0.0
C228 C 0.59695 0.34734 0.69805 0.0
H229 H 0.49919 0.42894 0.67437 0.0
H230 H 0.57008 0.41581 0.73907 0.0
C231 C 0.58718 0.31172 0.65537 0.0
C232 C 0.64448 0.43991 0.42276 0.0
C233 C 0.65634 0.48852 0.40401 0.0
H234 H 0.63819 0.36086 0.40222 0.0
C235 C 0.67245 0.49419 0.34895 0.0
H236 H 0.63273 0.43435 0.46533 0.0
C237 C 0.67423 0.45209 0.31258 0.0
C238 C 0.66093 0.40381 0.33113 0.0
H239 H 0.68179 0.53126 0.3336 0.0
H240 H 0.68466 0.45728 0.2696 0.0
C241 C 0.64749 0.3979 0.38686 0.0
C242 C 0.01498 0.18633 0.86709 0.0
C243 C 0.01962 0.16755 0.92079 0.0
H244 H 0.05434 0.2041 0.79168 0.0
C245 C 0.06856 0.15792 0.94228 0.0
H246 H 0.97759 0.19389 0.84975 0.0
C247 C 0.11207 0.16524 0.90995 0.0
C248 C 0.10734 0.18069 0.855 0.0
H249 H 0.07313 0.14405 0.98393 0.0
H250 H 0.14938 0.15708 0.9271 0.0
C251 C 0.05865 0.19234 0.83413 0.0
C252 C 0.30477 0.54633 0.4145 0.0
C253 C 0.34105 0.50826 0.40304 0.0
H254 H 0.27367 0.61748 0.38982 0.0
C255 C 0.36917 0.50956 0.35336 0.0
H256 H 0.28264 0.54636 0.45253 0.0
C257 C 0.36284 0.5495 0.31715 0.0
C258 C 0.32951 0.58927 0.33086 0.0
H259 H 0.39691 0.48038 0.34321 0.0
H260 H 0.38551 0.55054 0.2796 0.0
C261 C 0.29941 0.58681 0.37881 0.0
C262 C 0.98057 0.80236 0.89801 0.0
C263 C 0.01687 0.84151 0.89772 0.0
H264 H 0.91392 0.7702 0.85827 0.0
C265 C 0.01773 0.87519 0.85372 0.0
H266 H 0.97911 0.77644 0.93211 0.0
C267 C 0.98155 0.87085 0.8113 0.0
C268 C 0.94306 0.83396 0.8134 0.0
H269 H 0.04558 0.90565 0.85297 0.0
H270 H 0.98258 0.8972 0.77772 0.0
C271 C 0.94356 0.79881 0.85611 0.0
C272 C 0.83289 0.95547 0.89507 0.0
C273 C 0.86503 0.99726 0.88624 0.0
H274 H 0.80921 0.88156 0.86601 0.0
C275 C 0.89597 0.99777 0.83859 0.0
H276 H 0.80907 0.95393 0.93183 0.0
C277 C 0.8947 0.95705 0.80038 0.0
C278 C 0.86409 0.9146 0.81048 0.0
H279 H 0.92092 0.02964 0.83088 0.0
H280 H 0.91814 0.95822 0.76339 0.0
C281 C 0.83296 0.91418 0.8578 0.0
C282 C 0.51399 0.297 0.38257 0.0
C283 C 0.49073 0.34431 0.39089 0.0
H284 H 0.57475 0.25594 0.34201 0.0
C285 C 0.50542 0.3848 0.35769 0.0
H286 H 0.50355 0.26545 0.40812 0.0
C287 C 0.5449 0.37897 0.31908 0.0
C288 C 0.57141 0.33307 0.31431 0.0
H289 H 0.48779 0.42162 0.36335 0.0
H290 H 0.55698 0.41118 0.29541 0.0
C291 C 0.55448 0.29155 0.34478 0.0
C292 C 0.12563 0.02447 0.868 0.0
C293 C 0.16407 0.00972 0.90516 0.0
H294 H 0.10234 0.07808 0.80749 0.0
C295 C 0.21128 0.03562 0.90504 0.0
H296 H 0.08898 1.00518 0.86659 0.0
C297 C 0.21862 0.07729 0.87128 0.0
C298 C 0.17908 0.09374 0.83687 0.0
H299 H 0.24186 0.0252 0.93285 0.0
H300 H 0.25412 0.09846 0.87428 0.0
C301 C 0.13319 0.06601 0.83407 0.0
C302 C 0.45446 0.68631 0.42787 0.0
C303 C 0.49338 0.6516 0.41403 0.0
H304 H 0.38252 0.7186 0.40394 0.0
C305 C 0.49132 0.62526 0.36279 0.0
H306 H 0.45513 0.70696 0.46726 0.0
C307 C 0.45094 0.6335 0.32605 0.0
C308 C 0.41117 0.6667 0.34082 0.0
H309 H 0.5212 0.59877 0.35096 0.0
H310 H 0.45025 0.61345 0.28638 0.0
C311 C 0.41324 0.69322 0.39182 0.0
C312 C 0.3366 0.51565 0.68361 0.0
C313 C 0.35219 0.52244 0.62856 0.0
H314 H 0.32563 0.55085 0.76405 0.0
C315 C 0.36449 0.57131 0.611 0.0
H316 H 0.32711 0.47831 0.69805 0.0
C317 C 0.36228 0.61253 0.64805 0.0
C318 C 0.34928 0.60549 0.70372 0.0
H319 H 0.376 0.57766 0.56851 0.0
H320 H 0.37176 0.64984 0.63358 0.0
C321 C 0.33568 0.55692 0.72113 0.0
C322 C 0.97329 0.81251 0.13692 0.0
C323 C 0.99579 0.86065 0.13194 0.0
H324 H 0.91192 0.76903 0.17104 0.0
C325 C 0.97565 0.90137 0.16365 0.0
H326 H 0.98778 0.78021 0.11336 0.0
C327 C 0.93267 0.89446 0.19746 0.0
C328 C 0.90873 0.84693 0.19979 0.0
H329 H 0.99218 0.93886 0.16122 0.0
H330 H 0.91677 0.92661 0.22012 0.0
C331 C 0.93015 0.80583 0.17032 0.0
C332 C 0.69863 0.45745 0.60808 0.0
C333 C 0.67262 0.50134 0.626 0.0
H334 H 0.72095 0.3819 0.62821 0.0
C335 C 0.65449 0.50509 0.68079 0.0
H336 H 0.71249 0.45357 0.5658 0.0
C337 C 0.66097 0.46487 0.71662 0.0
C338 C 0.68375 0.41987 0.69741 0.0
H339 H 0.63441 0.53865 0.69543 0.0
H340 H 0.64586 0.46773 0.75842 0.0
C341 C 0.70353 0.41667 0.64344 0.0
C342 C 0.01458 0.19819 0.15362 0.0
C343 C 0.99176 0.15038 0.14452 0.0
H344 H 0.07215 0.24128 0.19721 0.0
C345 C 0.00558 0.11057 0.17911 0.0
H346 H 1.00474 0.22983 0.12804 0.0
C347 C 0.04356 0.11773 0.21954 0.0
C348 C 0.06866 0.16457 0.22573 0.0
H349 H 0.9885 0.07341 0.17361 0.0
H350 H 0.05532 0.08604 0.24408 0.0
C351 C 0.05278 0.2051 0.19365 0.0
C352 C 0.19681 0.77218 0.18779 0.0
C353 C 0.22159 0.79474 0.14286 0.0
H354 H 0.2048 0.72584 0.25922 0.0
C355 C 0.2744 0.78674 0.13535 0.0
H356 H 0.15619 0.77777 0.19468 0.0
C357 C 0.3016 0.75606 0.17119 0.0
C358 C 0.27699 0.73355 0.21605 0.0
H359 H 0.29456 0.80297 0.10072 0.0
H360 H 0.3418 0.74913 0.16325 0.0
C361 C 0.22443 0.74225 0.22441 0.0
C362 C 0.76664 0.69754 0.65671 0.0
C363 C 0.74482 0.71882 0.60947 0.0
H364 H 0.81277 0.71039 0.72937 0.0
C365 C 0.75611 0.7693 0.5972 0.0
H366 H 0.75829 0.65878 0.66716 0.0
C367 C 0.78843 0.79809 0.63165 0.0
C368 C 0.80904 0.77744 0.67978 0.0
H369 H 0.74033 0.78643 0.56059 0.0
H370 H 0.79724 0.83661 0.62084 0.0
C371 C 0.79799 0.72687 0.69199 0.0
C372 C 0.74365 0.19189 0.15588 0.0
C373 C 0.77443 0.21647 0.11721 0.0
H374 H 0.69155 0.20071 0.2242 0.0
C375 C 0.77363 0.26935 0.11489 0.0
H376 H 0.74394 0.15102 0.15812 0.0
C377 C 0.74226 0.29744 0.15084 0.0
C378 C 0.71251 0.27322 0.19085 0.0
H379 H 0.79668 0.28883 0.08466 0.0
H380 H 0.74132 0.33816 0.14755 0.0
C381 C 0.71347 0.22017 0.19311 0.0
C382 C 0.31984 0.26891 0.68524 0.0
C383 C 0.29307 0.2944 0.64377 0.0
H384 H 0.31439 0.22137 0.75613 0.0
C385 C 0.23941 0.2899 0.64145 0.0
H386 H 0.36116 0.27163 0.68805 0.0
C387 C 0.21316 0.26038 0.67929 0.0
C388 C 0.23966 0.23541 0.72105 0.0
H389 H 0.21758 0.30834 0.60957 0.0
H390 H 0.17199 0.25663 0.67564 0.0
C391 C 0.29325 0.23994 0.72386 0.0
C392 C 0.70298 0.772 0.38708 0.0
C393 C 0.71038 0.71946 0.38791 0.0
H394 H 0.72623 0.84223 0.35227 0.0
C395 C 0.74474 0.69678 0.35013 0.0
H396 H 0.67732 0.79046 0.41649 0.0
C397 C 0.77134 0.72622 0.31216 0.0
C398 C 0.76548 0.77904 0.31264 0.0
H399 H 0.75099 0.6563 0.35001 0.0
H400 H 0.79682 0.70774 0.28269 0.0
C401 C 0.73085 0.80158 0.35035 0.0
C402 C 0.76519 0.19763 0.84654 0.0
C403 C 0.78812 0.21953 0.89417 0.0
H404 H 0.72161 0.21036 0.77255 0.0
C405 C 0.78322 0.27195 0.90407 0.0
H406 H 0.76839 0.15741 0.83773 0.0
C407 C 0.75569 0.30169 0.86764 0.0
C408 C 0.73312 0.28003 0.81993 0.0
H409 H 0.79979 0.29004 0.94071 0.0
H410 H 0.75144 0.34168 0.87707 0.0
C411 C 0.73824 0.22776 0.80949 0.0
C412 C 0.26348 0.23856 0.42994 0.0
C413 C 0.26769 0.29098 0.42247 0.0
H414 H 0.22934 0.16875 0.40193 0.0
C415 C 0.23896 0.31338 0.38036 0.0
H416 H 0.28453 0.22022 0.46249 0.0
C417 C 0.20783 0.28355 0.34537 0.0
C418 C 0.2045 0.23112 0.35248 0.0
H419 H 0.24147 0.35366 0.37364 0.0
H420 H 0.18746 0.30112 0.31185 0.0
C421 C 0.23192 0.20906 0.39552 0.0
C422 C 0.26271 0.81587 0.87586 0.0
C423 C 0.23596 0.79195 0.91858 0.0
H424 H 0.31248 0.80646 0.80552 0.0
C425 C 0.2407 0.73937 0.92401 0.0
H426 H 0.25964 0.85629 0.87052 0.0
C427 C 0.27161 0.71132 0.88754 0.0
C428 C 0.29778 0.73514 0.84459 0.0
H429 H 0.22099 0.71988 0.95681 0.0
H430 H 0.27521 0.67096 0.8928 0.0
C431 C 0.29315 0.78758 0.83896 0.0
loop_
_geom_bond_atom_site_label_1
_geom_bond_atom_site_label_2
_geom_bond_distance
_geom_bond_site_symmetry_2
_ccdc_geom_bond_type
Fe0 O2 1.918 . S
Fe0 O5 1.997 . S
Fe0 O6 2.002 . S
Fe0 O11 1.976 1_554 S
Fe0 O14 1.996 1_554 S
Fe1 O2 1.918 . S
Fe1 O9 1.997 . S
Fe1 O12 1.996 1_554 S
Fe1 O16 1.976 1_554 S
Fe1 O19 2.002 . S
O2 Fe0 1.918 . S
O2 Fe1 1.918 . S
O2 Fe3 1.918 . S
Fe3 O2 1.918 . S
Fe3 O4 2.002 . S
Fe3 O13 1.976 1_554 S
Fe3 O17 1.996 1_554 S
Fe3 O20 1.997 . S
O4 Fe3 2.002 . S
O4 C21 1.295 . S
O5 Fe0 1.997 . S
O5 C21 1.235 . S
O6 Fe0 2.002 . S
O6 C7 1.295 . S
C7 O6 1.295 . S
C7 O9 1.235 . S
C8 O13 1.287 . S
C8 O14 1.255 . S
O9 Fe1 1.997 . S
O9 C7 1.235 . S
C10 O16 1.287 . S
C10 O17 1.255 . S
O11 Fe0 1.976 1_556 S
O11 C18 1.287 . S
O12 Fe1 1.996 1_556 S
O12 C18 1.255 . S
O13 Fe3 1.976 1_556 S
O13 C8 1.287 . S
O14 Fe0 1.996 1_556 S
O14 C8 1.255 . S
C15 O19 1.295 . S
C15 O20 1.235 . S
O16 Fe1 1.976 1_556 S
O16 C10 1.287 . S
O17 Fe3 1.996 1_556 S
O17 C10 1.255 . S
C18 O11 1.287 . S
C18 O12 1.255 . S
O19 Fe1 2.002 . S
O19 C15 1.295 . S
O20 Fe3 1.997 . S
O20 C15 1.235 . S
C21 O4 1.295 . S
C21 O5 1.235 . S
Fe22 O24 1.918 . S
Fe22 O27 1.997 . S
Fe22 O28 2.002 . S
Fe22 O33 1.976 . S
Fe22 O36 1.996 . S
Fe23 O24 1.918 . S
Fe23 O31 1.997 . S
Fe23 O34 1.996 . S
Fe23 O38 1.976 . S
Fe23 O41 2.002 . S
O24 Fe22 1.918 . S
O24 Fe23 1.918 . S
O24 Fe25 1.918 . S
Fe25 O24 1.918 . S
Fe25 O26 2.002 . S
Fe25 O35 1.976 . S
Fe25 O39 1.996 . S
Fe25 O42 1.997 . S
O26 Fe25 2.002 . S
O26 C43 1.295 . S
O27 Fe22 1.997 . S
O27 C43 1.235 . S
O28 Fe22 2.002 . S
O28 C29 1.295 . S
C29 O28 1.295 . S
C29 O31 1.235 . S
C30 O35 1.287 . S
C30 O36 1.255 . S
O31 Fe23 1.997 . S
O31 C29 1.235 . S
C32 O38 1.287 . S
C32 O39 1.255 . S
O33 Fe22 1.976 . S
O33 C40 1.287 . S
O34 Fe23 1.996 . S
O34 C40 1.255 . S
O35 Fe25 1.976 . S
O35 C30 1.287 . S
O36 Fe22 1.996 . S
O36 C30 1.255 . S
C37 O41 1.295 . S
C37 O42 1.235 . S
O38 Fe23 1.976 . S
O38 C32 1.287 . S
O39 Fe25 1.996 . S
O39 C32 1.255 . S
C40 O33 1.287 . S
C40 O34 1.255 . S
O41 Fe23 2.002 . S
O41 C37 1.295 . S
O42 Fe25 1.997 . S
O42 C37 1.235 . S
C43 O26 1.295 . S
C43 O27 1.235 . S
Fe44 O46 1.918 . S
Fe44 O49 1.997 1_554 S
Fe44 O50 2.002 1_554 S
Fe44 O55 1.976 . S
Fe44 O58 1.996 . S
Fe45 O46 1.918 . S
Fe45 O53 1.997 1_554 S
Fe45 O56 1.996 . S
Fe45 O60 1.976 . S
Fe45 O63 2.002 1_554 S
O46 Fe44 1.918 . S
O46 Fe45 1.918 . S
O46 Fe47 1.918 1_554 S
Fe47 O46 1.918 1_556 S
Fe47 O48 2.002 . S
Fe47 O57 1.976 1_556 S
Fe47 O61 1.996 1_556 S
Fe47 O64 1.997 . S
O48 Fe47 2.002 . S
O48 C65 1.295 . S
O49 Fe44 1.997 1_556 S
O49 C65 1.235 . S
O50 Fe44 2.002 1_556 S
O50 C51 1.295 . S
C51 O50 1.295 . S
C51 O53 1.235 . S
C52 O57 1.287 . S
C52 O58 1.255 . S
O53 Fe45 1.997 1_556 S
O53 C51 1.235 . S
C54 O60 1.287 . S
C54 O61 1.255 . S
O55 Fe44 1.976 . S
O55 C62 1.287 . S
O56 Fe45 1.996 . S
O56 C62 1.255 . S
O57 Fe47 1.976 1_554 S
O57 C52 1.287 . S
O58 Fe44 1.996 . S
O58 C52 1.255 . S
C59 O63 1.295 . S
C59 O64 1.235 . S
O60 Fe45 1.976 . S
O60 C54 1.287 . S
O61 Fe47 1.996 1_554 S
O61 C54 1.255 . S
C62 O55 1.287 . S
C62 O56 1.255 . S
O63 Fe45 2.002 1_556 S
O63 C59 1.295 . S
O64 Fe47 1.997 . S
O64 C59 1.235 . S
C65 O48 1.295 . S
C65 O49 1.235 . S
Fe66 O68 1.918 . S
Fe66 O71 1.997 . S
Fe66 O72 2.002 . S
Fe66 O77 1.976 . S
Fe66 O80 1.996 . S
Fe67 O68 1.918 . S
Fe67 O75 1.997 . S
Fe67 O78 1.996 . S
Fe67 O82 1.976 . S
Fe67 O85 2.002 . S
O68 Fe66 1.918 . S
O68 Fe67 1.918 . S
O68 Fe69 1.918 . S
Fe69 O68 1.918 . S
Fe69 O70 2.002 . S
Fe69 O79 1.976 . S
Fe69 O83 1.996 . S
Fe69 O86 1.997 . S
O70 Fe69 2.002 . S
O70 C87 1.295 . S
O71 Fe66 1.997 . S
O71 C87 1.235 . S
O72 Fe66 2.002 . S
O72 C73 1.295 . S
C73 O72 1.295 . S
C73 O75 1.235 . S
C74 O79 1.287 . S
C74 O80 1.255 . S
O75 Fe67 1.997 . S
O75 C73 1.235 . S
C76 O82 1.287 . S
C76 O83 1.255 . S
O77 Fe66 1.976 . S
O77 C84 1.287 . S
O78 Fe67 1.996 . S
O78 C84 1.255 . S
O79 Fe69 1.976 . S
O79 C74 1.287 . S
O80 Fe66 1.996 . S
O80 C74 1.255 . S
C81 O85 1.295 . S
C81 O86 1.235 . S
O82 Fe67 1.976 . S
O82 C76 1.287 . S
O83 Fe69 1.996 . S
O83 C76 1.255 . S
C84 O77 1.287 . S
C84 O78 1.255 . S
O85 Fe67 2.002 . S
O85 C81 1.295 . S
O86 Fe69 1.997 . S
O86 C81 1.235 . S
C87 O70 1.295 . S
C87 O71 1.235 . S
C88 N89 1.317 . S
C88 N90 1.348 . S
C88 C91 1.485 . S
N89 C88 1.317 . S
N89 N93 1.370 . S
N90 C88 1.348 . S
N90 C92 1.346 . S
C91 C88 1.485 . S
C91 H95 0.960 . S
C91 H96 0.961 . S
C91 H97 0.960 . S
C92 N90 1.346 . S
C92 N93 1.307 . S
C92 C94 1.486 . S
N93 N89 1.370 . S
N93 C92 1.307 . S
C94 C92 1.486 . S
C94 H98 0.960 . S
C94 H99 0.960 . S
C94 H100 0.959 . S
H95 C91 0.960 . S
H96 C91 0.961 . S
H97 C91 0.960 . S
H98 C94 0.960 . S
H99 C94 0.960 . S
H100 C94 0.959 . S
C101 N102 1.317 . S
C101 N103 1.348 . S
C101 C104 1.485 . S
N102 C101 1.317 . S
N102 N106 1.370 . S
N103 C101 1.348 . S
N103 C105 1.346 . S
C104 C101 1.485 . S
C104 H108 0.960 . S
C104 H109 0.961 . S
C104 H110 0.960 . S
C105 N103 1.346 . S
C105 N106 1.307 . S
C105 C107 1.486 . S
N106 N102 1.370 . S
N106 C105 1.307 . S
C107 C105 1.486 . S
C107 H111 0.960 . S
C107 H112 0.960 . S
C107 H113 0.959 . S
H108 C104 0.960 . S
H109 C104 0.961 . S
H110 C104 0.960 . S
H111 C107 0.960 . S
H112 C107 0.960 . S
H113 C107 0.959 . S
C114 N115 1.317 . S
C114 N116 1.348 . S
C114 C117 1.485 . S
N115 C114 1.317 . S
N115 N119 1.370 . S
N116 C114 1.348 . S
N116 C118 1.346 . S
C117 C114 1.485 . S
C117 H121 0.960 . S
C117 H122 0.961 . S
C117 H123 0.960 . S
C118 N116 1.346 . S
C118 N119 1.307 . S
C118 C120 1.486 . S
N119 N115 1.370 . S
N119 C118 1.307 . S
C120 C118 1.486 . S
C120 H124 0.960 . S
C120 H125 0.960 . S
C120 H126 0.959 . S
H121 C117 0.960 . S
H122 C117 0.961 . S
H123 C117 0.960 . S
H124 C120 0.960 . S
H125 C120 0.960 . S
H126 C120 0.959 . S
C127 N128 1.317 . S
C127 N129 1.348 . S
C127 C130 1.485 . S
N128 C127 1.317 . S
N128 N132 1.370 . S
N129 C127 1.348 . S
N129 C131 1.346 . S
C130 C127 1.485 . S
C130 H134 0.960 . S
C130 H135 0.961 . S
C130 H136 0.960 . S
C131 N129 1.346 . S
C131 N132 1.307 . S
C131 C133 1.486 . S
N132 N128 1.370 . S
N132 C131 1.307 . S
C133 C131 1.486 . S
C133 H137 0.960 . S
C133 H138 0.960 . S
C133 H139 0.959 . S
H134 C130 0.960 . S
H135 C130 0.961 . S
H136 C130 0.960 . S
H137 C133 0.960 . S
H138 C133 0.960 . S
H139 C133 0.959 . S
C140 N141 1.317 . S
C140 N142 1.348 . S
C140 C143 1.485 . S
N141 C140 1.317 . S
N141 N145 1.370 . S
N142 C140 1.348 . S
N142 C144 1.346 . S
C143 C140 1.485 . S
C143 H147 0.960 . S
C143 H148 0.961 . S
C143 H149 0.960 . S
C144 N142 1.346 . S
C144 N145 1.307 . S
C144 C146 1.486 . S
N145 N141 1.370 . S
N145 C144 1.307 . S
C146 C144 1.486 . S
C146 H150 0.960 . S
C146 H151 0.960 . S
C146 H152 0.959 . S
H147 C143 0.960 . S
H148 C143 0.961 . S
H149 C143 0.960 . S
H150 C146 0.960 . S
H151 C146 0.960 . S
H152 C146 0.959 . S
C153 N154 1.317 . S
C153 N155 1.348 . S
C153 C156 1.485 . S
N154 C153 1.317 . S
N154 N158 1.370 . S
N155 C153 1.348 . S
N155 C157 1.346 . S
C156 C153 1.485 . S
C156 H160 0.960 . S
C156 H161 0.961 . S
C156 H162 0.960 . S
C157 N155 1.346 . S
C157 N158 1.307 . S
C157 C159 1.486 . S
N158 N154 1.370 . S
N158 C157 1.307 . S
C159 C157 1.486 . S
C159 H163 0.960 . S
C159 H164 0.960 . S
C159 H165 0.959 . S
H160 C156 0.960 . S
H161 C156 0.961 . S
H162 C156 0.960 . S
H163 C159 0.960 . S
H164 C159 0.960 . S
H165 C159 0.959 . S
C166 N167 1.317 . S
C166 N168 1.348 . S
C166 C169 1.485 . S
N167 C166 1.317 . S
N167 N171 1.370 . S
N168 C166 1.348 . S
N168 C170 1.346 . S
C169 C166 1.485 . S
C169 H173 0.960 . S
C169 H174 0.961 . S
C169 H175 0.960 . S
C170 N168 1.346 . S
C170 N171 1.307 . S
C170 C172 1.486 . S
N171 N167 1.370 . S
N171 C170 1.307 . S
C172 C170 1.486 . S
C172 H176 0.960 . S
C172 H177 0.960 . S
C172 H178 0.959 . S
H173 C169 0.960 . S
H174 C169 0.961 . S
H175 C169 0.960 . S
H176 C172 0.960 . S
H177 C172 0.960 . S
H178 C172 0.959 . S
C179 N180 1.317 . S
C179 N181 1.348 . S
C179 C182 1.485 . S
N180 C179 1.317 . S
N180 N184 1.370 . S
N181 C179 1.348 . S
N181 C183 1.346 . S
C182 C179 1.485 . S
C182 H186 0.960 . S
C182 H187 0.961 . S
C182 H188 0.960 . S
C183 N181 1.346 . S
C183 N184 1.307 . S
C183 C185 1.486 . S
N184 N180 1.370 . S
N184 C183 1.307 . S
C185 C183 1.486 . S
C185 H189 0.960 . S
C185 H190 0.960 . S
C185 H191 0.959 . S
H186 C182 0.960 . S
H187 C182 0.961 . S
H188 C182 0.960 . S
H189 C185 0.960 . S
H190 C185 0.960 . S
H191 C185 0.959 . S
C192 C193 1.387 1_545 S
C192 H196 0.950 . S
C192 C201 1.390 . S
C193 C192 1.387 1_565 S
C193 C195 1.387 1_565 S
H194 C201 0.950 . S
C195 C193 1.387 1_545 S
C195 C197 1.390 . S
C195 H199 0.950 1_545 S
H196 C192 0.950 . S
C197 C195 1.390 . S
C197 C198 1.387 . S
C197 H200 0.950 . S
C198 C197 1.387 . S
C198 C201 1.387 . S
H199 C195 0.950 1_565 S
H200 C197 0.950 . S
C201 C192 1.390 . S
C201 H194 0.950 . S
C201 C198 1.387 . S
C202 C203 1.387 . S
C202 H206 0.950 . S
C202 C211 1.390 . S
C203 C202 1.387 . S
C203 C205 1.387 . S
H204 C211 0.950 . S
C205 C203 1.387 . S
C205 C207 1.390 . S
C205 H209 0.950 . S
H206 C202 0.950 . S
C207 C205 1.390 . S
C207 C208 1.387 . S
C207 H210 0.950 . S
C208 C207 1.387 . S
C208 C211 1.387 . S
H209 C205 0.950 . S
H210 C207 0.950 . S
C211 C202 1.390 . S
C211 H204 0.950 . S
C211 C208 1.387 . S
C212 C213 1.387 . S
C212 H216 0.950 . S
C212 C221 1.390 . S
C213 C212 1.387 . S
C213 C215 1.387 . S
H214 C221 0.950 . S
C215 C213 1.387 . S
C215 C217 1.390 . S
C215 H219 0.950 1_565 S
H216 C212 0.950 . S
C217 C215 1.390 . S
C217 C218 1.387 . S
C217 H220 0.950 . S
C218 C217 1.387 . S
C218 C221 1.387 . S
H219 C215 0.950 1_545 S
H220 C217 0.950 . S
C221 C212 1.390 . S
C221 H214 0.950 . S
C221 C218 1.387 . S
C222 C223 1.387 . S
C222 H226 0.950 . S
C222 C231 1.390 . S
C223 C222 1.387 . S
C223 C225 1.387 . S
H224 C231 0.950 . S
C225 C223 1.387 . S
C225 C227 1.390 . S
C225 H229 0.950 . S
H226 C222 0.950 . S
C227 C225 1.390 . S
C227 C228 1.387 . S
C227 H230 0.950 . S
C228 C227 1.387 . S
C228 C231 1.387 . S
H229 C225 0.950 . S
H230 C227 0.950 . S
C231 C222 1.390 . S
C231 H224 0.950 . S
C231 C228 1.387 . S
C232 C233 1.387 . S
C232 H236 0.950 . S
C232 C241 1.390 . S
C233 C232 1.387 . S
C233 C235 1.387 . S
H234 C241 0.950 . S
C235 C233 1.387 . S
C235 C237 1.390 . S
C235 H239 0.950 . S
H236 C232 0.950 . S
C237 C235 1.390 . S
C237 C238 1.387 . S
C237 H240 0.950 . S
C238 C237 1.387 . S
C238 C241 1.387 . S
H239 C235 0.950 . S
H240 C237 0.950 . S
C241 C232 1.390 . S
C241 H234 0.950 . S
C241 C238 1.387 . S
C242 C243 1.387 . S
C242 H246 0.950 . S
C242 C251 1.390 . S
C243 C242 1.387 . S
C243 C245 1.387 . S
H244 C251 0.950 . S
C245 C243 1.387 . S
C245 C247 1.390 . S
C245 H249 0.950 . S
H246 C242 0.950 . S
C247 C245 1.390 . S
C247 C248 1.387 . S
C247 H250 0.950 . S
C248 C247 1.387 . S
C248 C251 1.387 . S
H249 C245 0.950 . S
H250 C247 0.950 . S
C251 C242 1.390 . S
C251 H244 0.950 . S
C251 C248 1.387 . S
C252 C253 1.387 . S
C252 H256 0.950 . S
C252 C261 1.390 . S
C253 C252 1.387 . S
C253 C255 1.387 . S
H254 C261 0.950 . S
C255 C253 1.387 . S
C255 C257 1.390 . S
C255 H259 0.950 . S
H256 C252 0.950 . S
C257 C255 1.390 . S
C257 C258 1.387 . S
C257 H260 0.950 . S
C258 C257 1.387 . S
C258 C261 1.387 . S
H259 C255 0.950 . S
H260 C257 0.950 . S
C261 C252 1.390 . S
C261 H254 0.950 . S
C261 C258 1.387 . S
C262 C263 1.387 1_655 S
C262 H266 0.950 1_655 S
C262 C271 1.390 . S
C263 C262 1.387 1_455 S
C263 C265 1.387 1_455 S
H264 C271 0.950 . S
C265 C263 1.387 1_655 S
C265 C267 1.390 . S
C265 H269 0.950 1_655 S
H266 C262 0.950 1_455 S
C267 C265 1.390 . S
C267 C268 1.387 . S
C267 H270 0.950 . S
C268 C267 1.387 . S
C268 C271 1.387 . S
H269 C265 0.950 1_455 S
H270 C267 0.950 . S
C271 C262 1.390 . S
C271 H264 0.950 . S
C271 C268 1.387 . S
C272 C273 1.372 1_565 S
C272 H276 0.950 . S
C272 C281 1.390 . S
C273 C272 1.372 1_545 S
C273 C275 1.388 . S
H274 C281 0.950 . S
C275 C273 1.388 . S
C275 C277 1.390 1_545 S
C275 H279 0.950 . S
H276 C272 0.950 . S
C277 C275 1.390 1_565 S
C277 C278 1.387 . S
C277 H280 0.950 . S
C278 C277 1.387 . S
C278 C281 1.387 . S
H279 C275 0.950 . S
H280 C277 0.950 . S
C281 C272 1.390 . S
C281 H274 0.950 . S
C281 C278 1.387 . S
C282 C283 1.387 . S
C282 H286 0.950 . S
C282 C291 1.390 . S
C283 C282 1.387 . S
C283 C285 1.387 . S
H284 C291 0.950 . S
C285 C283 1.387 . S
C285 C287 1.390 . S
C285 H289 0.950 . S
H286 C282 0.950 . S
C287 C285 1.390 . S
C287 C288 1.387 . S
C287 H290 0.950 . S
C288 C287 1.387 . S
C288 C291 1.387 . S
H289 C285 0.950 . S
H290 C287 0.950 . S
C291 C282 1.390 . S
C291 H284 0.950 . S
C291 C288 1.387 . S
C292 C293 1.387 . S
C292 H296 0.950 1_545 S
C292 C301 1.390 . S
C293 C292 1.387 . S
C293 C295 1.387 . S
H294 C301 0.950 . S
C295 C293 1.387 . S
C295 C297 1.390 . S
C295 H299 0.950 . S
H296 C292 0.950 1_565 S
C297 C295 1.390 . S
C297 C298 1.387 . S
C297 H300 0.950 . S
C298 C297 1.387 . S
C298 C301 1.387 . S
H299 C295 0.950 . S
H300 C297 0.950 . S
C301 C292 1.390 . S
C301 H294 0.950 . S
C301 C298 1.387 . S
C302 C303 1.387 . S
C302 H306 0.950 . S
C302 C311 1.390 . S
C303 C302 1.387 . S
C303 C305 1.387 . S
H304 C311 0.950 . S
C305 C303 1.387 . S
C305 C307 1.390 . S
C305 H309 0.950 . S
H306 C302 0.950 . S
C307 C305 1.390 . S
C307 C308 1.387 . S
C307 H310 0.950 . S
C308 C307 1.387 . S
C308 C311 1.387 . S
H309 C305 0.950 . S
H310 C307 0.950 . S
C311 C302 1.390 . S
C311 H304 0.950 . S
C311 C308 1.387 . S
C312 C313 1.387 . S
C312 H316 0.950 . S
C312 C321 1.390 . S
C313 C312 1.387 . S
C313 C315 1.387 . S
H314 C321 0.950 . S
C315 C313 1.387 . S
C315 C317 1.390 . S
C315 H319 0.950 . S
H316 C312 0.950 . S
C317 C315 1.390 . S
C317 C318 1.387 . S
C317 H320 0.950 . S
C318 C317 1.387 . S
C318 C321 1.387 . S
H319 C315 0.950 . S
H320 C317 0.950 . S
C321 C312 1.390 . S
C321 H314 0.950 . S
C321 C318 1.387 . S
C322 C323 1.387 . S
C322 H326 0.950 . S
C322 C331 1.390 . S
C323 C322 1.387 . S
C323 C325 1.387 . S
H324 C331 0.950 . S
C325 C323 1.387 . S
C325 C327 1.390 . S
C325 H329 0.950 . S
H326 C322 0.950 . S
C327 C325 1.390 . S
C327 C328 1.387 . S
C327 H330 0.950 . S
C328 C327 1.387 . S
C328 C331 1.387 . S
H329 C325 0.950 . S
H330 C327 0.950 . S
C331 C322 1.390 . S
C331 H324 0.950 . S
C331 C328 1.387 . S
C332 C333 1.387 . S
C332 H336 0.950 . S
C332 C341 1.390 . S
C333 C332 1.387 . S
C333 C335 1.387 . S
H334 C341 0.950 . S
C335 C333 1.387 . S
C335 C337 1.390 . S
C335 H339 0.950 . S
H336 C332 0.950 . S
C337 C335 1.390 . S
C337 C338 1.387 . S
C337 H340 0.950 . S
C338 C337 1.387 . S
C338 C341 1.387 . S
H339 C335 0.950 . S
H340 C337 0.950 . S
C341 C332 1.390 . S
C341 H334 0.950 . S
C341 C338 1.387 . S
C342 C343 1.387 1_455 S
C342 H346 0.950 1_455 S
C342 C351 1.390 . S
C343 C342 1.387 1_655 S
C343 C345 1.387 1_655 S
H344 C351 0.950 . S
C345 C343 1.387 1_455 S
C345 C347 1.390 . S
C345 H349 0.950 1_455 S
H346 C342 0.950 1_655 S
C347 C345 1.390 . S
C347 C348 1.387 . S
C347 H350 0.950 . S
C348 C347 1.387 . S
C348 C351 1.387 . S
H349 C345 0.950 1_655 S
H350 C347 0.950 . S
C351 C342 1.390 . S
C351 H344 0.950 . S
C351 C348 1.387 . S
C352 C353 1.387 . S
C352 H356 0.950 . S
C352 C361 1.390 . S
C353 C352 1.387 . S
C353 C355 1.387 . S
H354 C361 0.950 . S
C355 C353 1.387 . S
C355 C357 1.390 . S
C355 H359 0.950 . S
H356 C352 0.950 . S
C357 C355 1.390 . S
C357 C358 1.387 . S
C357 H360 0.950 . S
C358 C357 1.387 . S
C358 C361 1.387 . S
H359 C355 0.950 . S
H360 C357 0.950 . S
C361 C352 1.390 . S
C361 H354 0.950 . S
C361 C358 1.387 . S
C362 C363 1.387 . S
C362 H366 0.950 . S
C362 C371 1.390 . S
C363 C362 1.387 . S
C363 C365 1.387 . S
H364 C371 0.950 . S
C365 C363 1.387 . S
C365 C367 1.390 . S
C365 H369 0.950 . S
H366 C362 0.950 . S
C367 C365 1.390 . S
C367 C368 1.387 . S
C367 H370 0.950 . S
C368 C367 1.387 . S
C368 C371 1.387 . S
H369 C365 0.950 . S
H370 C367 0.950 . S
C371 C362 1.390 . S
C371 H364 0.950 . S
C371 C368 1.387 . S
C372 C373 1.387 . S
C372 H376 0.950 . S
C372 C381 1.390 . S
C373 C372 1.387 . S
C373 C375 1.387 . S
H374 C381 0.950 . S
C375 C373 1.387 . S
C375 C377 1.390 . S
C375 H379 0.950 . S
H376 C372 0.950 . S
C377 C375 1.390 . S
C377 C378 1.387 . S
C377 H380 0.950 . S
C378 C377 1.387 . S
C378 C381 1.387 . S
H379 C375 0.950 . S
H380 C377 0.950 . S
C381 C372 1.390 . S
C381 H374 0.950 . S
C381 C378 1.387 . S
C382 C383 1.387 . S
C382 H386 0.950 . S
C382 C391 1.390 . S
C383 C382 1.387 . S
C383 C385 1.387 . S
H384 C391 0.950 . S
C385 C383 1.387 . S
C385 C387 1.390 . S
C385 H389 0.950 . S
H386 C382 0.950 . S
C387 C385 1.390 . S
C387 C388 1.387 . S
C387 H390 0.950 . S
C388 C387 1.387 . S
C388 C391 1.387 . S
H389 C385 0.950 . S
H390 C387 0.950 . S
C391 C382 1.390 . S
C391 H384 0.950 . S
C391 C388 1.387 . S
C392 C393 1.387 . S
C392 H396 0.950 . S
C392 C401 1.390 . S
C393 C392 1.387 . S
C393 C395 1.387 . S
H394 C401 0.950 . S
C395 C393 1.387 . S
C395 C397 1.390 . S
C395 H399 0.950 . S
H396 C392 0.950 . S
C397 C395 1.390 . S
C397 C398 1.387 . S
C397 H400 0.950 . S
C398 C397 1.387 . S
C398 C401 1.387 . S
H399 C395 0.950 . S
H400 C397 0.950 . S
C401 C392 1.390 . S
C401 H394 0.950 . S
C401 C398 1.387 . S
C402 C403 1.387 . S
C402 H406 0.950 . S
C402 C411 1.390 . S
C403 C402 1.387 . S
C403 C405 1.387 . S
H404 C411 0.950 . S
C405 C403 1.387 . S
C405 C407 1.390 . S
C405 H409 0.950 . S
H406 C402 0.950 . S
C407 C405 1.390 . S
C407 C408 1.387 . S
C407 H410 0.950 . S
C408 C407 1.387 . S
C408 C411 1.387 . S
H409 C405 0.950 . S
H410 C407 0.950 . S
C411 C402 1.390 . S
C411 H404 0.950 . S
C411 C408 1.387 . S
C412 C413 1.387 . S
C412 H416 0.950 . S
C412 C421 1.390 . S
C413 C412 1.387 . S
C413 C415 1.387 . S
H414 C421 0.950 . S
C415 C413 1.387 . S
C415 C417 1.390 . S
C415 H419 0.950 . S
H416 C412 0.950 . S
C417 C415 1.390 . S
C417 C418 1.387 . S
C417 H420 0.950 . S
C418 C417 1.387 . S
C418 C421 1.387 . S
H419 C415 0.950 . S
H420 C417 0.950 . S
C421 C412 1.390 . S
C421 H414 0.950 . S
C421 C418 1.387 . S
C422 C423 1.387 . S
C422 H426 0.950 . S
C422 C431 1.390 . S
C423 C422 1.387 . S
C423 C425 1.387 . S
H424 C431 0.950 . S
C425 C423 1.387 . S
C425 C427 1.390 . S
C425 H429 0.950 . S
H426 C422 0.950 . S
C427 C425 1.390 . S
C427 C428 1.387 . S
C427 H430 0.950 . S
C428 C427 1.387 . S
C428 C431 1.387 . S
H429 C425 0.950 . S
H430 C427 0.950 . S
C431 C422 1.390 . S
C431 H424 0.950 . S
C431 C428 1.387 . S
C193 C7 1.415 . S
C198 N93 1.421 . S
C203 C37 1.374 . S
C208 N106 1.382 . S
C213 C54 1.359 1_565 S
C218 N115 1.363 . S
C228 N132 1.434 . S
C223 C87 1.414 . S
C238 N145 1.393 . S
C233 C30 1.396 . S
C243 C51 1.417 1_455 S
C248 N154 1.444 . S
C253 C84 1.387 . S
C258 N167 1.392 . S
C263 C10 1.357 . S
C268 N184 1.355 . S
C273 C59 1.435 . S
C278 N180 1.442 . S
C288 N141 1.356 . S
C283 C74 1.350 . S
C298 N158 1.388 . S
C293 C18 1.381 1_545 S
C303 C32 1.412 . S
C308 N171 1.421 . S
C318 N102 1.436 . S
C313 C73 1.421 . S
C323 C15 1.412 1_655 S
C328 N119 1.437 . S
C338 N128 1.409 . S
C333 C43 1.395 . S
C348 N89 1.356 . S
C343 C62 1.349 . S
C358 N168 1.443 . S
C353 C21 1.451 . S
C368 N181 1.424 . S
C363 C29 1.416 . S
C373 C52 1.402 . S
C378 N142 1.400 . S
C388 N155 1.435 . S
C383 C81 1.440 . S
C398 N116 1.423 . S
C393 C40 1.429 . S
C403 C65 1.445 . S
C408 N129 1.432 . S
C418 N90 1.404 . S
C413 C76 1.404 . S
C428 N103 1.427 . S
C423 C8 1.430 . S
