# Generated by pormake.
# Topology rtl, (3,6)-cn, num edge types: 1
# Building blocks:
#     Node 0, Type 0, BuildingBlock: BELTOD_clean_linker_0, # of connection points: 3
#     Node 1, Type 0, BuildingBlock: BELTOD_clean_linker_0, # of connection points: 3
#     Node 2, Type 0, BuildingBlock: BELTOD_clean_linker_0, # of connection points: 3
#     Node 3, Type 0, BuildingBlock: BELTOD_clean_linker_0, # of connection points: 3
#     Node 4, Type 1, BuildingBlock: FUNLAD_clean_sbu_0, # of connection points: 6
#     Node 5, Type 1, BuildingBlock: FUNLAD_clean_sbu_0, # of connection points: 6
#     Edge 6, Type (0, 1), BuildingBlock: OJICUG_clean_linker_0, # of connection points: 2
#     Edge 7, Type (0, 1), BuildingBlock: OJICUG_clean_linker_0, # of connection points: 2
#     Edge 8, Type (0, 1), BuildingBlock: OJICUG_clean_linker_0, # of connection points: 2
#     Edge 9, Type (0, 1), BuildingBlock: OJICUG_clean_linker_0, # of connection points: 2
#     Edge 10, Type (0, 1), BuildingBlock: OJICUG_clean_linker_0, # of connection points: 2
#     Edge 11, Type (0, 1), BuildingBlock: OJICUG_clean_linker_0, # of connection points: 2
#     Edge 12, Type (0, 1), BuildingBlock: OJICUG_clean_linker_0, # of connection points: 2
#     Edge 13, Type (0, 1), BuildingBlock: OJICUG_clean_linker_0, # of connection points: 2
#     Edge 14, Type (0, 1), BuildingBlock: OJICUG_clean_linker_0, # of connection points: 2
#     Edge 15, Type (0, 1), BuildingBlock: OJICUG_clean_linker_0, # of connection points: 2
#     Edge 16, Type (0, 1), BuildingBlock: OJICUG_clean_linker_0, # of connection points: 2
#     Edge 17, Type (0, 1), BuildingBlock: OJICUG_clean_linker_0, # of connection points: 2
# Relax obj value: 0.021
# Max RMSD: 0.105
# Mean RMSD: 0.086
data_MOF--net-rtl--node1-FUNLAD_clean_sbu_0--node2-BELTOD_clean_linker_0--edge1-OJICUG_clean_linker_0
_symmetry_space_group_name_H-M    P1
_symmetry_Int_Tables_number       1
_symmetry_cell_setting            triclinic
loop_
_symmetry_equiv_pos_as_xyz
'x, y, z'
_cell_length_a     36.435483
_cell_length_b     29.317967
_cell_length_c     19.76785
_cell_angle_alpha  88.985819
_cell_angle_beta   90.895285
_cell_angle_gamma 90.320616
loop_
_atom_site_label
_atom_site_type_symbol
_atom_site_fract_x
_atom_site_fract_y
_atom_site_fract_z
_atom_type_partial_charge
P0 P 0.14331 0.80811 0.99256 0.0
H1 H 0.16709 0.86512 0.10415 0.0
H2 H 0.13632 0.89108 0.20419 0.0
H3 H 0.0442 0.8023 0.15954 0.0
H4 H 0.07524 0.77722 0.05735 0.0
H5 H 0.19447 0.77008 0.89807 0.0
H6 H 0.23637 0.70559 0.90557 0.0
H7 H 0.19314 0.66831 0.10105 0.0
H8 H 0.14997 0.73207 0.09221 0.0
H9 H 0.07959 0.86673 0.97734 0.0
H10 H 0.13233 0.76354 0.86035 0.0
O11 O 0.17382 0.84938 0.97633 0.0
H12 H 0.04231 0.8887 0.87909 0.0
H13 H 0.09605 0.78708 0.76101 0.0
C14 C 0.12314 0.81991 0.07284 0.0
C15 C 0.14049 0.85075 0.11615 0.0
C16 C 0.12287 0.86533 0.17386 0.0
C17 C 0.08762 0.84893 0.18991 0.0
C18 C 0.07108 0.81608 0.14809 0.0
C19 C 0.08885 0.80148 0.09007 0.0
C20 C 0.16858 0.75549 -0.00611 0.0
C21 C 0.19287 0.74702 0.94134 0.0
C22 C 0.21693 0.71023 0.94576 0.0
C23 C 0.21784 0.68192 0.00375 0.0
C24 C 0.19283 0.68962 0.05572 0.0
C25 C 0.16814 0.726 0.05058 0.0
C26 C 0.10876 0.8132 0.92676 0.0
C27 C 0.08227 0.84753 0.93142 0.0
C28 C 0.06091 0.8602 0.87512 0.0
C29 C 0.06643 0.83961 0.81264 0.0
C30 C 0.09134 0.8034 0.80883 0.0
C31 C 0.11223 0.7901 0.86567 0.0
P32 P 0.63971 0.70533 0.51402 0.0
H33 H 0.66851 0.68363 0.3827 0.0
H34 H 0.63941 0.65428 0.28037 0.0
H35 H 0.53265 0.6741 0.36745 0.0
H36 H 0.56206 0.7064 0.46777 0.0
H37 H 0.68915 0.74622 0.6124 0.0
H38 H 0.73122 0.81108 0.6047 0.0
H39 H 0.68527 0.84716 0.40851 0.0
H40 H 0.64225 0.78306 0.41734 0.0
H41 H 0.58897 0.63087 0.53697 0.0
H42 H 0.62403 0.75133 0.64323 0.0
O43 O 0.67294 0.66662 0.52231 0.0
H44 H 0.55355 0.6062 0.63465 0.0
H45 H 0.59028 0.72484 0.74305 0.0
C46 C 0.61747 0.69521 0.43376 0.0
C47 C 0.63882 0.6826 0.37907 0.0
C48 C 0.62211 0.66552 0.32084 0.0
C49 C 0.58373 0.66013 0.31685 0.0
C50 C 0.56226 0.6773 0.36908 0.0
C51 C 0.57909 0.6953 0.42689 0.0
C52 C 0.66232 0.75997 0.51585 0.0
C53 C 0.68695 0.76923 0.56907 0.0
C54 C 0.71107 0.80624 0.56454 0.0
C55 C 0.7115 0.83396 0.5059 0.0
C56 C 0.68546 0.82617 0.45417 0.0
C57 C 0.66084 0.78956 0.45932 0.0
C58 C 0.60875 0.69332 0.58218 0.0
C59 C 0.58829 0.65269 0.58058 0.0
C60 C 0.56809 0.63852 0.63638 0.0
C61 C 0.56906 0.66393 0.69573 0.0
C62 C 0.58895 0.70506 0.69729 0.0
C63 C 0.60839 0.71998 0.64043 0.0
P64 P 0.91296 0.28974 0.98131 0.0
H65 H 0.9426 0.30843 0.84715 0.0
H66 H 0.95484 0.25972 0.75091 0.0
H67 H 0.91163 0.14357 0.86187 0.0
H68 H 0.89918 0.19225 0.95712 0.0
H69 H 0.88179 0.37717 0.01723 0.0
H70 H 0.81908 0.40544 0.01966 0.0
H71 H 0.77911 0.27474 0.9508 0.0
H72 H 0.84213 0.24766 0.9453 0.0
H73 H 0.97645 0.28727 0.07355 0.0
H74 H 0.87012 0.22261 0.05907 0.0
O75 O 0.94164 0.33427 0.97677 0.0
H76 H 0.99094 0.24131 0.17417 0.0
H77 H 0.88526 0.17402 0.15604 0.0
C78 C 0.9207 0.25388 0.90996 0.0
C79 C 0.9358 0.27248 0.85078 0.0
C80 C 0.94283 0.24461 0.79586 0.0
C81 C 0.93441 0.19776 0.79902 0.0
C82 C 0.9182 0.17958 0.85769 0.0
C83 C 0.91139 0.20742 0.91261 0.0
C84 C 0.86666 0.31057 0.98021 0.0
C85 C 0.85955 0.35481 0.00185 0.0
C86 C 0.82356 0.37074 0.00395 0.0
C87 C 0.79388 0.34235 0.98564 0.0
C88 C 0.80124 0.29785 0.96417 0.0
C89 C 0.83732 0.28218 0.96133 0.0
C90 C 0.92215 0.25855 0.05891 0.0
C91 C 0.95616 0.26321 0.0921 0.0
C92 C 0.96458 0.23636 0.14929 0.0
C93 C 0.93947 0.20337 0.17337 0.0
C94 C 0.90515 0.19943 0.14018 0.0
C95 C 0.89649 0.22706 0.08403 0.0
P96 P 0.41534 0.21215 0.51343 0.0
H97 H 0.44298 0.19619 0.6512 0.0
H98 H 0.45358 0.24697 0.74655 0.0
H99 H 0.41108 0.36011 0.62677 0.0
H100 H 0.40039 0.3091 0.53181 0.0
H101 H 0.38456 0.11988 0.50682 0.0
H102 H 0.32162 0.09096 0.50579 0.0
H103 H 0.28128 0.22908 0.51581 0.0
H104 H 0.34436 0.25754 0.51873 0.0
H105 H 0.48009 0.26211 0.47164 0.0
H106 H 0.373 0.23156 0.38726 0.0
O107 O 0.44477 0.16886 0.5207 0.0
H108 H 0.49391 0.30936 0.37211 0.0
H109 H 0.3867 0.2786 0.28756 0.0
C110 C 0.42166 0.24914 0.58418 0.0
C111 C 0.43596 0.23191 0.64553 0.0
C112 C 0.442 0.26094 0.69988 0.0
C113 C 0.43343 0.30758 0.69386 0.0
C114 C 0.41776 0.32431 0.63302 0.0
C115 C 0.41192 0.29527 0.57859 0.0
C116 C 0.36906 0.19079 0.51345 0.0
C117 C 0.36218 0.1439 0.50922 0.0
C118 C 0.32614 0.12744 0.5081 0.0
C119 C 0.29639 0.15771 0.51069 0.0
C120 C 0.30353 0.20478 0.51486 0.0
C121 C 0.33958 0.22114 0.51631 0.0
C122 C 0.42548 0.2437 0.43715 0.0
C123 C 0.45968 0.26529 0.4314 0.0
C124 C 0.46758 0.29211 0.37441 0.0
C125 C 0.44132 0.29776 0.3221 0.0
C126 C 0.40726 0.27533 0.32748 0.0
C127 C 0.39946 0.24832 0.38449 0.0
C128 C 0.01921 0.95319 0.39595 0.0
N129 N 0.07613 0.05455 0.49821 0.0
C130 C 0.10485 0.02508 0.50082 0.0
C131 C 0.1408 0.04152 0.50301 0.0
C132 C 0.14729 0.08874 0.50288 0.0
C133 C 0.11716 0.11842 0.50083 0.0
C134 C 0.0816 0.10049 0.49828 0.0
Zn135 Zn 0.02417 0.02868 0.49342 0.0
C136 C 0.97786 0.07643 0.39048 0.0
N137 N 0.9159 0.97289 0.48402 0.0
C138 C 0.91147 0.92724 0.47552 0.0
C139 C 0.88647 1.00078 0.491 0.0
C140 C 0.85089 0.98274 0.49088 0.0
C141 C 0.84569 0.93582 0.48196 0.0
C142 C 0.87641 0.90798 0.47368 0.0
Zn143 Zn 0.9679 0.99914 0.48845 0.0
O144 O 0.04099 0.98164 0.42293 0.0
C145 C 0.01471 0.95119 0.59055 0.0
O146 O 0.98544 0.95325 0.41141 0.0
H147 H 0.89056 0.03703 0.49727 0.0
H148 H 0.09991 0.98867 0.5011 0.0
H149 H 0.93518 0.90558 0.47094 0.0
O150 O 0.03736 0.98146 0.57077 0.0
O151 O 0.98252 0.95015 0.56491 0.0
H152 H 0.05835 0.12328 0.496 0.0
O153 O 0.95197 0.04512 0.56491 0.0
O154 O 0.00704 0.07567 0.56542 0.0
O155 O 0.95389 0.0486 0.41293 0.0
O156 O 0.01038 0.07519 0.41452 0.0
C157 C 0.97453 0.0746 0.58756 0.0
H158 H 0.16329 0.0175 0.50544 0.0
H159 H 0.12105 0.15508 0.50005 0.0
H160 H 0.82771 0.00514 0.49732 0.0
H161 H 0.87336 0.87149 0.46757 0.0
C162 C 0.47313 0.4321 0.90673 0.0
N163 N 0.57508 0.44633 0.00376 0.0
C164 C 0.57948 0.40076 -0.00517 0.0
C165 C 0.61464 0.38224 0.99159 0.0
C166 C 0.64543 0.41084 -0.00145 0.0
C167 C 0.64009 0.45763 0.00791 0.0
C168 C 0.60453 0.47478 0.00993 0.0
Zn169 Zn 0.52367 0.47345 0.00783 0.0
C170 C 0.51616 0.55436 0.91556 0.0
N171 N 0.41681 0.53238 0.01459 0.0
C172 C 0.38612 0.50613 0.00677 0.0
C173 C 0.41438 0.57802 0.02492 0.0
C174 C 0.3802 0.5989 0.02838 0.0
C175 C 0.34817 0.57278 0.01979 0.0
C176 C 0.35128 0.52588 0.00847 0.0
Zn177 Zn 0.468 0.5042 0.01043 0.0
O178 O 0.50601 0.43187 0.92883 0.0
C179 C 0.47613 0.42349 0.10379 0.0
O180 O 0.4502 0.45939 0.93189 0.0
H181 H 0.43902 0.59847 0.03001 0.0
H182 H 0.5557 0.37872 0.99029 0.0
H183 H 0.38863 0.46988 -0.00111 0.0
O184 O 0.50796 0.42304 0.07848 0.0
O185 O 0.45348 0.45423 0.08483 0.0
H186 H 0.60048 0.51095 0.01636 0.0
O187 O 0.48744 0.54861 0.08896 0.0
O188 O 0.54083 0.51474 0.08654 0.0
O189 O 0.48327 0.55347 0.93598 0.0
O190 O 0.53886 0.5248 0.93785 0.0
C191 C 0.52021 0.54462 0.11126 0.0
H192 H 0.61773 0.34589 0.98475 0.0
H193 H 0.6632 0.48083 0.01269 0.0
H194 H 0.37882 0.63533 0.03615 0.0
H195 H 0.32707 0.50476 0.00157 0.0
C196 C 0.23104 0.15944 0.54915 0.0
C197 C 0.25807 0.14028 0.5085 0.0
H198 H 0.17489 0.15793 0.57959 0.0
C199 C 0.24823 0.10434 0.46561 0.0
H200 H 0.23784 0.18673 0.58346 0.0
C201 C 0.21228 0.08771 0.46377 0.0
C202 C 0.18532 0.1068 0.50451 0.0
H203 H 0.2682 0.08939 0.43272 0.0
H204 H 0.20545 0.06026 0.42974 0.0
C205 C 0.19501 0.14295 0.54702 0.0
C206 C 0.27086 0.64993 0.06999 0.0
C207 C 0.24771 0.64823 0.01261 0.0
H208 H 0.32114 0.62731 0.11693 0.0
C209 C 0.25601 0.61809 0.96056 0.0
H210 H 0.26528 0.67324 0.11044 0.0
C211 C 0.28772 0.59146 0.96466 0.0
C212 C 0.31196 0.59527 0.02022 0.0
H213 H 0.23856 0.61625 0.91581 0.0
H214 H 0.29428 0.56971 0.92283 0.0
C215 C 0.30288 0.62397 0.07349 0.0
C216 C 0.75347 0.89631 0.54599 0.0
C217 C 0.74241 0.86605 0.49516 0.0
H218 H 0.79491 0.943 0.58081 0.0
C219 C 0.76385 0.86232 0.43709 0.0
H220 H 0.7374 0.89964 0.59126 0.0
C221 C 0.79684 0.88641 0.43167 0.0
C222 C 0.80864 0.91522 0.48369 0.0
H223 H 0.75617 0.8388 0.39758 0.0
H224 H 0.81371 0.88153 0.38775 0.0
C225 C 0.7862 0.92109 0.53996 0.0
C226 C 0.72889 0.34657 0.94082 0.0
C227 C 0.75549 0.35904 0.98958 0.0
H228 H 0.67319 0.35316 0.90557 0.0
C229 C 0.74517 0.38786 0.0421 0.0
H230 H 0.73593 0.32499 0.89912 0.0
C231 C 0.70942 0.40448 0.04505 0.0
C232 C 0.68303 0.3922 -0.00389 0.0
H233 H 0.76462 0.39737 0.08142 0.0
H234 H 0.7023 0.42664 0.08606 0.0
C235 C 0.69297 0.36277 0.94431 0.0
C236 C 0.03035 0.88017 0.24168 0.0
C237 C 0.0678 0.8687 0.24758 0.0
H238 H 0.98518 0.91588 0.28484 0.0
C239 C 0.08729 0.88065 0.30658 0.0
H240 H 0.01457 0.87169 0.19672 0.0
C241 C 0.07076 0.90664 0.35574 0.0
C242 C 0.03411 0.9205 0.34791 0.0
H243 H 0.11582 0.8713 0.31375 0.0
H244 H 0.08703 0.91689 0.39931 0.0
C245 C 0.01353 0.90564 0.29183 0.0
C246 C 0.51648 0.63083 0.76002 0.0
C247 C 0.55363 0.64363 0.75777 0.0
H248 H 0.47512 0.59305 0.81345 0.0
C249 C 0.57745 0.63056 0.81093 0.0
H250 H 0.49782 0.64029 0.719 0.0
C251 C 0.56484 0.60265 0.86359 0.0
C252 C 0.52803 0.58826 0.86461 0.0
H253 H 0.60631 0.6396 0.80958 0.0
H254 H 0.58412 0.59127 0.90255 0.0
C255 C 0.50361 0.60385 0.81375 0.0
C256 C 0.98597 0.15732 0.24052 0.0
C257 C 0.9495 0.17208 0.23096 0.0
H258 H 0.02349 0.11598 0.29876 0.0
C259 C 0.9226 0.15547 0.27567 0.0
H260 H 0.00739 0.16834 0.20651 0.0
C261 C 0.93175 0.12419 0.32727 0.0
C262 C 0.96814 0.10966 0.33641 0.0
H263 H 0.8944 0.16668 0.27115 0.0
H264 H 0.91041 0.11178 0.36054 0.0
C265 C 0.99523 0.12691 0.29311 0.0
C266 C 0.41795 0.37278 0.76926 0.0
C267 C 0.44269 0.33902 0.74954 0.0
H268 H 0.40797 0.42866 0.83507 0.0
C269 C 0.47711 0.3361 0.78213 0.0
H270 H 0.39114 0.37562 0.74515 0.0
C271 C 0.48676 0.36637 0.83303 0.0
C272 C 0.46215 0.40021 0.85288 0.0
H273 H 0.49694 0.3109 0.76738 0.0
H274 H 0.51365 0.36319 0.85675 0.0
C275 C 0.42752 0.40299 0.82079 0.0
C276 C 0.58497 0.59219 0.2429 0.0
C277 C 0.56694 0.63188 0.26282 0.0
H278 H 0.58437 0.53386 0.18032 0.0
C279 C 0.53249 0.64234 0.23343 0.0
H280 H 0.61094 0.58216 0.26585 0.0
C281 C 0.51672 0.61381 0.1846 0.0
C282 C 0.53523 0.5745 0.16441 0.0
H283 H 0.51789 0.67268 0.2477 0.0
H284 H 0.49035 0.62278 0.1622 0.0
C285 C 0.56946 0.56408 0.19422 0.0
C286 C 0.97807 0.17147 0.7115 0.0
C287 C 0.94376 0.16752 0.74253 0.0
H288 H 0.01471 0.1452 0.63856 0.0
C289 C 0.91914 0.13346 0.72092 0.0
H290 H 0.99778 0.19701 0.7276 0.0
C291 C 0.92884 0.10361 0.66987 0.0
C292 C 0.96346 0.10707 0.63976 0.0
H293 H 0.89235 0.1299 0.74349 0.0
H294 H 0.90939 0.07752 0.65461 0.0
C295 C 0.98784 0.14154 0.6608 0.0
C296 C 0.48383 0.32701 0.23274 0.0
C297 C 0.44927 0.32797 0.26315 0.0
H298 H 0.51929 0.3561 0.15831 0.0
C299 C 0.42292 0.35922 0.23862 0.0
H300 H 0.5045 0.30288 0.24996 0.0
C301 C 0.43133 0.38976 0.18594 0.0
C302 C 0.46623 0.38952 0.15666 0.0
H303 H 0.39615 0.361 0.26148 0.0
H304 H 0.41071 0.41405 0.16904 0.0
C305 C 0.4922 0.35739 0.18001 0.0
C306 C 0.01401 0.8729 0.74459 0.0
C307 C 0.05136 0.86151 0.75045 0.0
H308 H 0.97275 0.9098 0.68775 0.0
C309 C 0.07567 0.87675 0.70045 0.0
H310 H 0.99486 0.86169 0.78291 0.0
C311 C 0.06334 0.90496 0.64752 0.0
C312 C 0.02632 0.91773 0.64281 0.0
H313 H 0.10468 0.86898 0.70437 0.0
H314 H 0.08299 0.91765 0.61103 0.0
C315 C 0.00145 0.90034 0.69045 0.0
loop_
_geom_bond_atom_site_label_1
_geom_bond_atom_site_label_2
_geom_bond_distance
_geom_bond_site_symmetry_2
_ccdc_geom_bond_type
P0 O11 1.490 . S
P0 C14 1.812 . S
P0 C20 1.803 . S
P0 C26 1.819 1_554 S
H1 C15 0.941 . S
H2 C16 0.939 . S
H3 C18 0.940 . S
H4 C19 0.940 . S
H5 C21 0.939 . S
H6 C22 0.942 . S
H7 C24 0.940 . S
H8 C25 0.939 . S
H9 C27 0.941 . S
H10 C31 0.939 . S
O11 P0 1.490 . S
H12 C28 0.939 . S
H13 C30 0.940 . S
C14 P0 1.812 . S
C14 C15 1.389 . S
C14 C19 1.391 . S
C15 H1 0.941 . S
C15 C14 1.389 . S
C15 C16 1.397 . S
C16 H2 0.939 . S
C16 C15 1.397 . S
C16 C17 1.378 . S
C17 C16 1.378 . S
C17 C18 1.378 . S
C18 H3 0.940 . S
C18 C17 1.378 . S
C18 C19 1.396 . S
C19 H4 0.940 . S
C19 C14 1.391 . S
C19 C18 1.396 . S
C20 P0 1.803 . S
C20 C21 1.378 1_554 S
C20 C25 1.400 . S
C21 H5 0.939 . S
C21 C20 1.378 1_556 S
C21 C22 1.361 . S
C22 H6 0.942 . S
C22 C21 1.361 . S
C22 C23 1.369 1_556 S
C23 C22 1.369 1_554 S
C23 C24 1.404 . S
C24 H7 0.940 . S
C24 C23 1.404 . S
C24 C25 1.389 . S
C25 H8 0.939 . S
C25 C20 1.400 . S
C25 C24 1.389 . S
C26 P0 1.819 1_556 S
C26 C27 1.391 . S
C26 C31 1.391 . S
C27 H9 0.941 . S
C27 C26 1.391 . S
C27 C28 1.396 . S
C28 H12 0.939 . S
C28 C27 1.396 . S
C28 C29 1.397 . S
C29 C28 1.397 . S
C29 C30 1.385 . S
C30 H13 0.940 . S
C30 C29 1.385 . S
C30 C31 1.388 . S
C31 H10 0.939 . S
C31 C26 1.391 . S
C31 C30 1.388 . S
P32 O43 1.490 . S
P32 C46 1.812 . S
P32 C52 1.803 . S
P32 C58 1.819 . S
H33 C47 0.941 . S
H34 C48 0.939 . S
H35 C50 0.940 . S
H36 C51 0.940 . S
H37 C53 0.939 . S
H38 C54 0.942 . S
H39 C56 0.940 . S
H40 C57 0.939 . S
H41 C59 0.941 . S
H42 C63 0.939 . S
O43 P32 1.490 . S
H44 C60 0.939 . S
H45 C62 0.940 . S
C46 P32 1.812 . S
C46 C47 1.389 . S
C46 C51 1.391 . S
C47 H33 0.941 . S
C47 C46 1.389 . S
C47 C48 1.397 . S
C48 H34 0.939 . S
C48 C47 1.397 . S
C48 C49 1.378 . S
C49 C48 1.378 . S
C49 C50 1.378 . S
C50 H35 0.940 . S
C50 C49 1.378 . S
C50 C51 1.396 . S
C51 H36 0.940 . S
C51 C46 1.391 . S
C51 C50 1.396 . S
C52 P32 1.803 . S
C52 C53 1.378 . S
C52 C57 1.400 . S
C53 H37 0.939 . S
C53 C52 1.378 . S
C53 C54 1.361 . S
C54 H38 0.942 . S
C54 C53 1.361 . S
C54 C55 1.369 . S
C55 C54 1.369 . S
C55 C56 1.404 . S
C56 H39 0.940 . S
C56 C55 1.404 . S
C56 C57 1.389 . S
C57 H40 0.939 . S
C57 C52 1.400 . S
C57 C56 1.389 . S
C58 P32 1.819 . S
C58 C59 1.391 . S
C58 C63 1.391 . S
C59 H41 0.941 . S
C59 C58 1.391 . S
C59 C60 1.396 . S
C60 H44 0.939 . S
C60 C59 1.396 . S
C60 C61 1.397 . S
C61 C60 1.397 . S
C61 C62 1.385 . S
C62 H45 0.940 . S
C62 C61 1.385 . S
C62 C63 1.388 . S
C63 H42 0.939 . S
C63 C58 1.391 . S
C63 C62 1.388 . S
P64 O75 1.490 . S
P64 C78 1.812 . S
P64 C84 1.803 . S
P64 C90 1.819 1_556 S
H65 C79 0.941 . S
H66 C80 0.939 . S
H67 C82 0.940 . S
H68 C83 0.940 . S
H69 C85 0.939 . S
H70 C86 0.942 . S
H71 C88 0.940 . S
H72 C89 0.939 . S
H73 C91 0.941 . S
H74 C95 0.939 . S
O75 P64 1.490 . S
H76 C92 0.939 . S
H77 C94 0.940 . S
C78 P64 1.812 . S
C78 C79 1.389 . S
C78 C83 1.391 . S
C79 H65 0.941 . S
C79 C78 1.389 . S
C79 C80 1.397 . S
C80 H66 0.939 . S
C80 C79 1.397 . S
C80 C81 1.378 . S
C81 C80 1.378 . S
C81 C82 1.378 . S
C82 H67 0.940 . S
C82 C81 1.378 . S
C82 C83 1.396 . S
C83 H68 0.940 . S
C83 C78 1.391 . S
C83 C82 1.396 . S
C84 P64 1.803 . S
C84 C85 1.378 1_556 S
C84 C89 1.400 . S
C85 H69 0.939 . S
C85 C84 1.378 1_554 S
C85 C86 1.361 . S
C86 H70 0.942 . S
C86 C85 1.361 . S
C86 C87 1.369 . S
C87 C86 1.369 . S
C87 C88 1.404 1_554 S
C88 H71 0.940 . S
C88 C87 1.404 1_556 S
C88 C89 1.389 . S
C89 H72 0.939 . S
C89 C84 1.400 . S
C89 C88 1.389 . S
C90 P64 1.819 1_554 S
C90 C91 1.391 . S
C90 C95 1.391 . S
C91 H73 0.941 . S
C91 C90 1.391 . S
C91 C92 1.396 . S
C92 H76 0.939 . S
C92 C91 1.396 . S
C92 C93 1.397 . S
C93 C92 1.397 . S
C93 C94 1.385 . S
C94 H77 0.940 . S
C94 C93 1.385 . S
C94 C95 1.388 . S
C95 H74 0.939 . S
C95 C90 1.391 . S
C95 C94 1.388 . S
P96 O107 1.490 . S
P96 C110 1.812 . S
P96 C116 1.803 . S
P96 C122 1.819 . S
H97 C111 0.941 . S
H98 C112 0.939 . S
H99 C114 0.940 . S
H100 C115 0.940 . S
H101 C117 0.939 . S
H102 C118 0.942 . S
H103 C120 0.940 . S
H104 C121 0.939 . S
H105 C123 0.941 . S
H106 C127 0.939 . S
O107 P96 1.490 . S
H108 C124 0.939 . S
H109 C126 0.940 . S
C110 P96 1.812 . S
C110 C111 1.389 . S
C110 C115 1.391 . S
C111 H97 0.941 . S
C111 C110 1.389 . S
C111 C112 1.397 . S
C112 H98 0.939 . S
C112 C111 1.397 . S
C112 C113 1.378 . S
C113 C112 1.378 . S
C113 C114 1.378 . S
C114 H99 0.940 . S
C114 C113 1.378 . S
C114 C115 1.396 . S
C115 H100 0.940 . S
C115 C110 1.391 . S
C115 C114 1.396 . S
C116 P96 1.803 . S
C116 C117 1.378 . S
C116 C121 1.400 . S
C117 H101 0.939 . S
C117 C116 1.378 . S
C117 C118 1.361 . S
C118 H102 0.942 . S
C118 C117 1.361 . S
C118 C119 1.369 . S
C119 C118 1.369 . S
C119 C120 1.404 . S
C120 H103 0.940 . S
C120 C119 1.404 . S
C120 C121 1.389 . S
C121 H104 0.939 . S
C121 C116 1.400 . S
C121 C120 1.389 . S
C122 P96 1.819 . S
C122 C123 1.391 . S
C122 C127 1.391 . S
C123 H105 0.941 . S
C123 C122 1.391 . S
C123 C124 1.396 . S
C124 H108 0.939 . S
C124 C123 1.396 . S
C124 C125 1.397 . S
C125 C124 1.397 . S
C125 C126 1.385 . S
C126 H109 0.940 . S
C126 C125 1.385 . S
C126 C127 1.388 . S
C127 H106 0.939 . S
C127 C122 1.391 . S
C127 C126 1.388 . S
C128 O144 1.251 . S
C128 O146 1.254 1_455 S
N129 C130 1.333 . S
N129 C134 1.307 . S
N129 Zn135 2.020 . S
C130 N129 1.333 . S
C130 C131 1.379 . S
C130 H148 0.952 . S
C131 C130 1.379 . S
C131 C132 1.390 . S
C131 H158 0.949 . S
C132 C131 1.390 . S
C132 C133 1.357 . S
C133 C132 1.357 . S
C133 C134 1.370 . S
C133 H159 0.950 . S
C134 N129 1.307 . S
C134 C133 1.370 . S
C134 H152 0.948 . S
Zn135 N129 2.020 . S
Zn135 O144 2.039 1_545 S
Zn135 O150 2.034 1_545 S
Zn135 O154 2.025 . S
Zn135 O156 2.024 . S
C136 O155 1.246 . S
C136 O156 1.249 1_655 S
N137 C138 1.307 . S
N137 C139 1.333 . S
N137 Zn143 2.020 . S
C138 N137 1.307 . S
C138 C142 1.370 . S
C138 H149 0.948 . S
C139 N137 1.333 . S
C139 C140 1.379 . S
C139 H147 0.952 . S
C140 C139 1.379 . S
C140 C141 1.390 . S
C140 H160 0.949 . S
C141 C140 1.390 . S
C141 C142 1.357 . S
C142 C138 1.370 . S
C142 C141 1.357 . S
C142 H161 0.950 . S
Zn143 N137 2.020 . S
Zn143 O146 2.025 . S
Zn143 O151 2.024 . S
Zn143 O153 2.039 1_565 S
Zn143 O155 2.034 1_565 S
O144 C128 1.251 . S
O144 Zn135 2.039 1_565 S
C145 O150 1.246 . S
C145 O151 1.249 1_455 S
O146 C128 1.254 1_655 S
O146 Zn143 2.025 . S
H147 C139 0.952 . S
H148 C130 0.952 . S
H149 C138 0.948 . S
O150 Zn135 2.034 1_565 S
O150 C145 1.246 . S
O151 Zn143 2.024 . S
O151 C145 1.249 1_655 S
H152 C134 0.948 . S
O153 Zn143 2.039 1_545 S
O153 C157 1.251 . S
O154 Zn135 2.025 . S
O154 C157 1.254 1_455 S
O155 C136 1.246 . S
O155 Zn143 2.034 1_545 S
O156 Zn135 2.024 . S
O156 C136 1.249 1_455 S
C157 O153 1.251 . S
C157 O154 1.254 1_655 S
H158 C131 0.949 . S
H159 C133 0.950 . S
H160 C140 0.949 . S
H161 C142 0.950 . S
C162 O178 1.251 . S
C162 O180 1.254 . S
N163 C164 1.333 1_554 S
N163 C168 1.307 . S
N163 Zn169 2.020 . S
C164 N163 1.333 1_556 S
C164 C165 1.379 . S
C164 H182 0.952 . S
C165 C164 1.379 . S
C165 C166 1.390 1_556 S
C165 H192 0.949 . S
C166 C165 1.390 1_554 S
C166 C167 1.357 . S
C167 C166 1.357 . S
C167 C168 1.370 . S
C167 H193 0.950 . S
C168 N163 1.307 . S
C168 C167 1.370 . S
C168 H186 0.948 . S
Zn169 N163 2.020 . S
Zn169 O178 2.039 1_554 S
Zn169 O184 2.034 . S
Zn169 O188 2.025 . S
Zn169 O190 2.024 1_554 S
C170 O189 1.246 . S
C170 O190 1.249 . S
N171 C172 1.307 1_554 S
N171 C173 1.333 . S
N171 Zn177 2.020 . S
C172 N171 1.307 1_556 S
C172 C176 1.370 . S
C172 H183 0.948 . S
C173 N171 1.333 . S
C173 C174 1.379 . S
C173 H181 0.952 . S
C174 C173 1.379 . S
C174 C175 1.390 . S
C174 H194 0.949 . S
C175 C174 1.390 . S
C175 C176 1.357 1_554 S
C176 C172 1.370 . S
C176 C175 1.357 1_556 S
C176 H195 0.950 . S
Zn177 N171 2.020 . S
Zn177 O180 2.025 1_554 S
Zn177 O185 2.024 . S
Zn177 O187 2.039 . S
Zn177 O189 2.034 1_554 S
O178 C162 1.251 . S
O178 Zn169 2.039 1_556 S
C179 O184 1.246 . S
C179 O185 1.249 . S
O180 C162 1.254 . S
O180 Zn177 2.025 1_556 S
H181 C173 0.952 . S
H182 C164 0.952 . S
H183 C172 0.948 . S
O184 Zn169 2.034 . S
O184 C179 1.246 . S
O185 Zn177 2.024 . S
O185 C179 1.249 . S
H186 C168 0.948 . S
O187 Zn177 2.039 . S
O187 C191 1.251 . S
O188 Zn169 2.025 . S
O188 C191 1.254 . S
O189 C170 1.246 . S
O189 Zn177 2.034 1_556 S
O190 Zn169 2.024 1_556 S
O190 C170 1.249 . S
C191 O187 1.251 . S
C191 O188 1.254 . S
H192 C165 0.949 . S
H193 C167 0.950 . S
H194 C174 0.949 . S
H195 C176 0.950 . S
C196 C197 1.387 . S
C196 H200 0.950 . S
C196 C205 1.390 . S
C197 C196 1.387 . S
C197 C199 1.387 . S
H198 C205 0.950 . S
C199 C197 1.387 . S
C199 C201 1.390 . S
C199 H203 0.950 . S
H200 C196 0.950 . S
C201 C199 1.390 . S
C201 C202 1.387 . S
C201 H204 0.950 . S
C202 C201 1.387 . S
C202 C205 1.387 . S
H203 C199 0.950 . S
H204 C201 0.950 . S
C205 C196 1.390 . S
C205 H198 0.950 . S
C205 C202 1.387 . S
C206 C207 1.387 . S
C206 H210 0.950 . S
C206 C215 1.390 . S
C207 C206 1.387 . S
C207 C209 1.387 1_554 S
H208 C215 0.950 . S
C209 C207 1.387 1_556 S
C209 C211 1.390 . S
C209 H213 0.950 . S
H210 C206 0.950 . S
C211 C209 1.390 . S
C211 C212 1.387 1_556 S
C211 H214 0.950 . S
C212 C211 1.387 1_554 S
C212 C215 1.387 . S
H213 C209 0.950 . S
H214 C211 0.950 . S
C215 C206 1.390 . S
C215 H208 0.950 . S
C215 C212 1.387 . S
C216 C217 1.387 . S
C216 H220 0.950 . S
C216 C225 1.390 . S
C217 C216 1.387 . S
C217 C219 1.387 . S
H218 C225 0.950 . S
C219 C217 1.387 . S
C219 C221 1.390 . S
C219 H223 0.950 . S
H220 C216 0.950 . S
C221 C219 1.390 . S
C221 C222 1.387 . S
C221 H224 0.950 . S
C222 C221 1.387 . S
C222 C225 1.387 . S
H223 C219 0.950 . S
H224 C221 0.950 . S
C225 C216 1.390 . S
C225 H218 0.950 . S
C225 C222 1.387 . S
C226 C227 1.387 1_556 S
C226 H230 0.950 . S
C226 C235 1.390 . S
C227 C226 1.387 1_554 S
C227 C229 1.387 . S
H228 C235 0.950 . S
C229 C227 1.387 . S
C229 C231 1.390 . S
C229 H233 0.950 . S
H230 C226 0.950 . S
C231 C229 1.390 . S
C231 C232 1.387 . S
C231 H234 0.950 . S
C232 C231 1.387 . S
C232 C235 1.387 1_554 S
H233 C229 0.950 . S
H234 C231 0.950 . S
C235 C226 1.390 . S
C235 H228 0.950 . S
C235 C232 1.387 1_556 S
C236 C237 1.387 . S
C236 H240 0.950 . S
C236 C245 1.390 . S
C237 C236 1.387 . S
C237 C239 1.387 . S
H238 C245 0.950 . S
C239 C237 1.387 . S
C239 C241 1.390 . S
C239 H243 0.950 . S
H240 C236 0.950 . S
C241 C239 1.390 . S
C241 C242 1.387 . S
C241 H244 0.950 . S
C242 C241 1.387 . S
C242 C245 1.387 . S
H243 C239 0.950 . S
H244 C241 0.950 . S
C245 C236 1.390 . S
C245 H238 0.950 . S
C245 C242 1.387 . S
C246 C247 1.387 . S
C246 H250 0.950 . S
C246 C255 1.390 . S
C247 C246 1.387 . S
C247 C249 1.387 . S
H248 C255 0.950 . S
C249 C247 1.387 . S
C249 C251 1.390 . S
C249 H253 0.950 . S
H250 C246 0.950 . S
C251 C249 1.390 . S
C251 C252 1.387 . S
C251 H254 0.950 . S
C252 C251 1.387 . S
C252 C255 1.387 . S
H253 C249 0.950 . S
H254 C251 0.950 . S
C255 C246 1.390 . S
C255 H248 0.950 . S
C255 C252 1.387 . S
C256 C257 1.387 . S
C256 H260 0.950 . S
C256 C265 1.390 . S
C257 C256 1.387 . S
C257 C259 1.387 . S
H258 C265 0.950 1_455 S
C259 C257 1.387 . S
C259 C261 1.390 . S
C259 H263 0.950 . S
H260 C256 0.950 . S
C261 C259 1.390 . S
C261 C262 1.387 . S
C261 H264 0.950 . S
C262 C261 1.387 . S
C262 C265 1.387 . S
H263 C259 0.950 . S
H264 C261 0.950 . S
C265 C256 1.390 . S
C265 H258 0.950 1_655 S
C265 C262 1.387 . S
C266 C267 1.387 . S
C266 H270 0.950 . S
C266 C275 1.390 . S
C267 C266 1.387 . S
C267 C269 1.387 . S
H268 C275 0.950 . S
C269 C267 1.387 . S
C269 C271 1.390 . S
C269 H273 0.950 . S
H270 C266 0.950 . S
C271 C269 1.390 . S
C271 C272 1.387 . S
C271 H274 0.950 . S
C272 C271 1.387 . S
C272 C275 1.387 . S
H273 C269 0.950 . S
H274 C271 0.950 . S
C275 C266 1.390 . S
C275 H268 0.950 . S
C275 C272 1.387 . S
C276 C277 1.387 . S
C276 H280 0.950 . S
C276 C285 1.390 . S
C277 C276 1.387 . S
C277 C279 1.387 . S
H278 C285 0.950 . S
C279 C277 1.387 . S
C279 C281 1.390 . S
C279 H283 0.950 . S
H280 C276 0.950 . S
C281 C279 1.390 . S
C281 C282 1.387 . S
C281 H284 0.950 . S
C282 C281 1.387 . S
C282 C285 1.387 . S
H283 C279 0.950 . S
H284 C281 0.950 . S
C285 C276 1.390 . S
C285 H278 0.950 . S
C285 C282 1.387 . S
C286 C287 1.387 . S
C286 H290 0.962 . S
C286 C295 1.390 . S
C287 C286 1.387 . S
C287 C289 1.387 . S
H288 C295 0.950 1_455 S
C289 C287 1.387 . S
C289 C291 1.390 . S
C289 H293 0.950 . S
H290 C286 0.962 . S
C291 C289 1.390 . S
C291 C292 1.387 . S
C291 H294 0.950 . S
C292 C291 1.387 . S
C292 C295 1.387 . S
H293 C289 0.950 . S
H294 C291 0.950 . S
C295 C286 1.390 . S
C295 H288 0.950 1_655 S
C295 C292 1.387 . S
C296 C297 1.387 . S
C296 H300 0.950 . S
C296 C305 1.390 . S
C297 C296 1.387 . S
C297 C299 1.387 . S
H298 C305 0.950 . S
C299 C297 1.387 . S
C299 C301 1.390 . S
C299 H303 0.950 . S
H300 C296 0.950 . S
C301 C299 1.390 . S
C301 C302 1.387 . S
C301 H304 0.950 . S
C302 C301 1.387 . S
C302 C305 1.387 . S
H303 C299 0.950 . S
H304 C301 0.950 . S
C305 C296 1.390 . S
C305 H298 0.950 . S
C305 C302 1.387 . S
C306 C307 1.387 . S
C306 H310 0.950 1_455 S
C306 C315 1.390 . S
C307 C306 1.387 . S
C307 C309 1.387 . S
H308 C315 0.950 1_655 S
C309 C307 1.387 . S
C309 C311 1.390 . S
C309 H313 0.950 . S
H310 C306 0.950 1_655 S
C311 C309 1.390 . S
C311 C312 1.387 . S
C311 H314 0.950 . S
C312 C311 1.387 . S
C312 C315 1.387 . S
H313 C309 0.950 . S
H314 C311 0.950 . S
C315 C306 1.390 . S
C315 H308 0.950 1_455 S
C315 C312 1.387 . S
C202 C132 1.616 . S
C197 C119 1.620 . S
C207 C23 1.461 . S
C212 C175 1.552 . S
C217 C55 1.493 . S
C222 C141 1.616 . S
C227 C87 1.567 . S
C232 C166 1.554 . S
C242 C128 1.608 . S
C237 C17 1.492 . S
C252 C170 1.689 . S
C247 C61 1.521 . S
C257 C93 1.611 . S
C262 C136 1.595 . S
C267 C113 1.690 . S
C272 C162 1.685 . S
C282 C191 1.686 . S
C277 C49 1.538 . S
C292 C157 1.609 . S
C287 C81 1.618 . S
C302 C179 1.688 . S
C297 C125 1.698 . S
C307 C29 1.472 . S
C312 C145 1.596 . S
