# Generated by pormake.
# Topology anh, (6,3)-cn, num edge types: 1
# Building blocks:
#     Node 0, Type 0, BuildingBlock: MIFKUJ_clean_sbu_0, # of connection points: 6
#     Node 1, Type 0, BuildingBlock: MIFKUJ_clean_sbu_0, # of connection points: 6
#     Node 2, Type 0, BuildingBlock: MIFKUJ_clean_sbu_0, # of connection points: 6
#     Node 3, Type 1, BuildingBlock: ESEHIV_clean_linker_0, # of connection points: 3
#     Node 4, Type 1, BuildingBlock: ESEHIV_clean_linker_0, # of connection points: 3
#     Node 5, Type 1, BuildingBlock: ESEHIV_clean_linker_0, # of connection points: 3
#     Node 6, Type 1, BuildingBlock: ESEHIV_clean_linker_0, # of connection points: 3
#     Node 7, Type 1, BuildingBlock: ESEHIV_clean_linker_0, # of connection points: 3
#     Node 8, Type 1, BuildingBlock: ESEHIV_clean_linker_0, # of connection points: 3
#     Edge 9, Type (0, 1), BuildingBlock: ZUJKAS_clean_linker_0, # of connection points: 2
#     Edge 10, Type (0, 1), BuildingBlock: ZUJKAS_clean_linker_0, # of connection points: 2
#     Edge 11, Type (0, 1), BuildingBlock: ZUJKAS_clean_linker_0, # of connection points: 2
#     Edge 12, Type (0, 1), BuildingBlock: ZUJKAS_clean_linker_0, # of connection points: 2
#     Edge 13, Type (0, 1), BuildingBlock: ZUJKAS_clean_linker_0, # of connection points: 2
#     Edge 14, Type (0, 1), BuildingBlock: ZUJKAS_clean_linker_0, # of connection points: 2
#     Edge 15, Type (0, 1), BuildingBlock: ZUJKAS_clean_linker_0, # of connection points: 2
#     Edge 16, Type (0, 1), BuildingBlock: ZUJKAS_clean_linker_0, # of connection points: 2
#     Edge 17, Type (0, 1), BuildingBlock: ZUJKAS_clean_linker_0, # of connection points: 2
#     Edge 18, Type (0, 1), BuildingBlock: ZUJKAS_clean_linker_0, # of connection points: 2
#     Edge 19, Type (0, 1), BuildingBlock: ZUJKAS_clean_linker_0, # of connection points: 2
#     Edge 20, Type (0, 1), BuildingBlock: ZUJKAS_clean_linker_0, # of connection points: 2
#     Edge 21, Type (0, 1), BuildingBlock: ZUJKAS_clean_linker_0, # of connection points: 2
#     Edge 22, Type (0, 1), BuildingBlock: ZUJKAS_clean_linker_0, # of connection points: 2
#     Edge 23, Type (0, 1), BuildingBlock: ZUJKAS_clean_linker_0, # of connection points: 2
#     Edge 24, Type (0, 1), BuildingBlock: ZUJKAS_clean_linker_0, # of connection points: 2
#     Edge 25, Type (0, 1), BuildingBlock: ZUJKAS_clean_linker_0, # of connection points: 2
#     Edge 26, Type (0, 1), BuildingBlock: ZUJKAS_clean_linker_0, # of connection points: 2
# Relax obj value: 0.135
# Max RMSD: 0.184
# Mean RMSD: 0.144
data_MOF--net-anh--node1-MIFKUJ_clean_sbu_0--node2-ESEHIV_clean_linker_0--edge1-ZUJKAS_clean_linker_0
_symmetry_space_group_name_H-M    P1
_symmetry_Int_Tables_number       1
_symmetry_cell_setting            triclinic
loop_
_symmetry_equiv_pos_as_xyz
'x, y, z'
_cell_length_a     37.546257
_cell_length_b     37.548501
_cell_length_c     64.807033
_cell_angle_alpha  93.678849
_cell_angle_beta   90.748279
_cell_angle_gamma 120.01313
loop_
_atom_site_label
_atom_site_type_symbol
_atom_site_fract_x
_atom_site_fract_y
_atom_site_fract_z
_atom_type_partial_charge
Zn0 Zn 0.0422 0.56468 0.16443 0.0
Zn1 Zn 0.95676 0.47268 0.16065 0.0
C2 C 0.11464 0.55953 0.17215 0.0
O3 O 0.11941 0.58816 0.1865 0.0
C4 C 0.88612 0.47822 0.14866 0.0
O5 O 0.88418 0.45054 0.13451 0.0
O6 O 0.0787 0.62585 0.16565 0.0
O7 O 0.00457 0.55139 0.13921 0.0
O8 O 0.98805 0.48656 0.13463 0.0
C9 C 0.09624 0.64223 0.14942 0.0
O10 O 0.0888 0.61866 0.13219 0.0
O11 O 0.08181 0.54221 0.16044 0.0
C12 C 0.90378 0.39201 0.17317 0.0
O13 O 0.91354 0.41246 0.1915 0.0
O14 O 0.91965 0.41133 0.15736 0.0
O15 O 0.9883 0.48452 0.18813 0.0
O16 O 0.01779 0.55233 0.19231 0.0
O17 O 0.91672 0.49508 0.16184 0.0
C18 C 0.99755 0.5204 0.12716 0.0
C19 C 0.00385 0.51772 0.19988 0.0
Zn20 Zn 0.5331 0.05496 0.49957 0.0
Zn21 Zn 0.53016 0.96359 0.49833 0.0
C22 C 0.61473 0.12192 0.50732 0.0
O23 O 0.59487 0.12903 0.52208 0.0
C24 C 0.45109 0.89621 0.48162 0.0
O25 O 0.47353 0.89693 0.46608 0.0
O26 O 0.51437 0.09576 0.49744 0.0
O27 O 0.50166 0.01283 0.47594 0.0
O28 O 0.54851 0.99502 0.47284 0.0
C29 C 0.52526 0.11629 0.48159 0.0
O30 O 0.54594 0.10829 0.46764 0.0
O31 O 0.59507 0.089 0.49531 0.0
C32 C 0.54255 0.89949 0.50919 0.0
O33 O 0.5159 0.89699 0.5228 0.0
O34 O 0.55476 0.92738 0.49664 0.0
O35 O 0.54647 0.99247 0.52714 0.0
O36 O 0.52431 0.03724 0.52849 0.0
O37 O 0.46803 0.92343 0.4968 0.0
C38 C 0.52415 0.0047 0.46454 0.0
C39 C 0.5369 0.01616 0.53747 0.0
Zn40 Zn 0.56999 0.52343 0.83522 0.0
Zn41 Zn 0.47901 0.51935 0.83019 0.0
C42 C 0.55623 0.44355 0.84506 0.0
O43 O 0.5712 0.46433 0.86315 0.0
C44 C 0.48961 0.5953 0.8174 0.0
O45 O 0.4641 0.56854 0.80269 0.0
O46 O 0.63109 0.55194 0.83741 0.0
O47 O 0.55919 0.54567 0.81004 0.0
O48 O 0.49422 0.49858 0.80428 0.0
C49 C 0.64965 0.54655 0.82237 0.0
O50 O 0.62803 0.52164 0.80618 0.0
O51 O 0.55093 0.46177 0.83038 0.0
C52 C 0.40225 0.50591 0.84173 0.0
O53 O 0.42495 0.52476 0.85883 0.0
O54 O 0.41862 0.49793 0.82646 0.0
O55 O 0.48612 0.50158 0.85804 0.0
O56 O 0.55381 0.53615 0.86289 0.0
O57 O 0.50353 0.58225 0.83133 0.0
C58 C 0.5292 0.5221 0.79746 0.0
C59 C 0.51825 0.51835 0.87008 0.0
H60 H 0.44074 0.98428 0.24353 0.0
H61 H 0.5657 0.08358 0.24257 0.0
H62 H 0.49356 0.02816 0.18545 0.0
C63 C 0.46645 0.00537 0.23494 0.0
C64 C 0.46252 0.00292 0.21323 0.0
C65 C 0.50365 0.03416 0.24563 0.0
C66 C 0.53683 0.06126 0.23443 0.0
C67 C 0.53323 0.05936 0.21275 0.0
C68 C 0.4961 0.03007 0.20222 0.0
H69 H 0.60584 0.60477 0.57917 0.0
H70 H 0.59476 0.48492 0.5762 0.0
H71 H 0.60468 0.54435 0.52031 0.0
C72 C 0.6048 0.5788 0.57025 0.0
C73 C 0.60648 0.57882 0.54863 0.0
C74 C 0.60074 0.54514 0.58036 0.0
C75 C 0.59958 0.51182 0.56865 0.0
C76 C 0.60099 0.51143 0.547 0.0
C77 C 0.60481 0.54515 0.53707 0.0
H78 H 0.00333 0.58861 0.90853 0.0
H79 H 0.08645 0.54149 0.90491 0.0
H80 H 0.04281 0.56773 0.84933 0.0
C81 C 0.02214 0.57977 0.89945 0.0
C82 C 0.02145 0.5811 0.87786 0.0
C83 C 0.04493 0.56481 0.90927 0.0
C84 C 0.06775 0.55178 0.89727 0.0
C85 C 0.06722 0.55267 0.87561 0.0
C86 C 0.04391 0.56737 0.86603 0.0
H87 H 0.9654 0.44234 0.42216 0.0
H88 H 0.07409 0.56168 0.4247 0.0
H89 H 0.02908 0.50249 0.481 0.0
C90 C 0.99086 0.46815 0.4311 0.0
C91 C 0.99404 0.46762 0.45273 0.0
C92 C 0.01926 0.50207 0.42091 0.0
C93 C 0.05125 0.53597 0.43259 0.0
C94 C 0.05505 0.53684 0.45424 0.0
C95 C 0.02633 0.50233 0.46433 0.0
H96 H 0.54473 0.08178 0.76335 0.0
H97 H 0.5294 0.96054 0.7613 0.0
H98 H 0.53126 0.02277 0.81993 0.0
C99 C 0.54132 0.05584 0.77135 0.0
C100 C 0.5394 0.05709 0.79301 0.0
C101 C 0.53746 0.02116 0.75979 0.0
C102 C 0.53142 0.98707 0.77013 0.0
C103 C 0.52893 0.98703 0.79176 0.0
C104 C 0.53307 0.02236 0.80325 0.0
H105 H 0.44715 0.5293 0.09442 0.0
H106 H 0.5503 0.50963 0.09388 0.0
H107 H 0.49817 0.51715 0.15174 0.0
C108 C 0.46963 0.52467 0.10267 0.0
C109 C 0.46895 0.52378 0.12431 0.0
C110 C 0.49875 0.51954 0.09158 0.0
C111 C 0.52777 0.51374 0.1024 0.0
C112 C 0.52812 0.51293 0.12405 0.0
C113 C 0.49842 0.51792 0.13506 0.0
H114 H 0.1164 0.50098 0.14479 0.0
H115 H 0.17414 0.48871 0.13935 0.0
H116 H 0.24784 0.58622 0.18646 0.0
H117 H 0.1904 0.59777 0.19235 0.0
H118 H 0.2483 0.53796 0.12619 0.0
H119 H 0.26972 0.49876 0.20431 0.0
H120 H 0.2247 0.50106 0.19641 0.0
H121 H 0.2716 0.54748 0.20536 0.0
C122 C 0.14473 0.5194 0.15418 0.0
C123 C 0.14852 0.55017 0.16911 0.0
C124 C 0.17779 0.51241 0.15104 0.0
C125 C 0.2153 0.53594 0.16278 0.0
C126 C 0.21902 0.5667 0.17762 0.0
H127 H 0.45494 0.58804 0.12397 0.0
H128 H 0.39336 0.58957 0.13456 0.0
C129 C 0.18605 0.5735 0.18086 0.0
C130 C 0.25146 0.53041 0.15869 0.0
H131 H 0.32704 0.51933 0.1824 0.0
C132 C 0.26519 0.53345 0.13848 0.0
C133 C 0.2734 0.52383 0.17458 0.0
C134 C 0.25882 0.51714 0.19632 0.0
C135 C 0.30082 0.53166 0.13388 0.0
C136 C 0.32427 0.52785 0.15002 0.0
C137 C 0.30968 0.5231 0.17008 0.0
C138 C 0.36407 0.5291 0.14626 0.0
C139 C 0.31272 0.53354 0.11165 0.0
C140 C 0.36966 0.49591 0.15063 0.0
C141 C 0.40546 0.49544 0.14498 0.0
C142 C 0.43622 0.52815 0.13486 0.0
C143 C 0.43169 0.56241 0.13173 0.0
C144 C 0.39624 0.56305 0.13754 0.0
H145 H 0.28574 0.52353 0.10072 0.0
H146 H 0.33575 0.56585 0.10896 0.0
H147 H 0.32646 0.51383 0.10801 0.0
H148 H 0.34552 0.46951 0.15754 0.0
H149 H 0.40797 0.46847 0.14737 0.0
H150 H 0.66468 0.12197 0.47646 0.0
H151 H 0.73374 0.17799 0.4697 0.0
H152 H 0.7303 0.25126 0.52282 0.0
H153 H 0.66221 0.19553 0.5299 0.0
H154 H 0.75575 0.25543 0.46054 0.0
H155 H 0.84311 0.26602 0.53233 0.0
H156 H 0.79257 0.22263 0.52517 0.0
H157 H 0.79818 0.26969 0.53745 0.0
C158 C 0.67895 0.14974 0.48689 0.0
C159 C 0.65785 0.15404 0.50379 0.0
C160 C 0.71842 0.18182 0.48299 0.0
C161 C 0.73772 0.21874 0.49595 0.0
C162 C 0.71678 0.22283 0.5129 0.0
H163 H 0.94948 0.46489 0.48662 0.0
H164 H 0.88888 0.40376 0.49829 0.0
C165 C 0.67752 0.19086 0.51683 0.0
C166 C 0.77833 0.2541 0.49101 0.0
H167 H 0.87547 0.32319 0.51137 0.0
C168 C 0.782 0.2699 0.47159 0.0
C169 C 0.8127 0.27336 0.50546 0.0
C170 C 0.81165 0.25682 0.52619 0.0
C171 C 0.81854 0.30472 0.46641 0.0
C172 C 0.85269 0.32418 0.48091 0.0
C173 C 0.84922 0.30841 0.5003 0.0
C174 C 0.89232 0.36048 0.47587 0.0
C175 C 0.82003 0.32103 0.44555 0.0
C176 C 0.91537 0.35622 0.46005 0.0
C177 C 0.94992 0.39087 0.45348 0.0
C178 C 0.96234 0.4307 0.46258 0.0
C179 C 0.94083 0.43468 0.47936 0.0
C180 C 0.90609 0.39981 0.48595 0.0
H181 H 0.78877 0.30854 0.43814 0.0
H182 H 0.83564 0.35525 0.447 0.0
H183 H 0.83785 0.31187 0.43516 0.0
H184 H 0.90582 0.32614 0.45231 0.0
H185 H 0.96618 0.38666 0.44072 0.0
H186 H 0.45797 0.62837 0.79166 0.0
H187 H 0.46822 0.69794 0.79396 0.0
H188 H 0.55074 0.73105 0.84765 0.0
H189 H 0.54046 0.66078 0.84557 0.0
H190 H 0.45222 0.73834 0.8307 0.0
H191 H 0.61393 0.82374 0.80637 0.0
H192 H 0.58118 0.76893 0.79997 0.0
H193 H 0.60161 0.78803 0.82601 0.0
C194 C 0.47859 0.65035 0.80393 0.0
C195 C 0.49845 0.6388 0.81842 0.0
C196 C 0.4843 0.69021 0.80523 0.0
C197 C 0.51033 0.71982 0.82091 0.0
C198 C 0.53076 0.7088 0.8353 0.0
H199 H 0.57396 0.98142 0.82401 0.0
H200 H 0.56952 0.91804 0.83544 0.0
C201 C 0.52482 0.66861 0.8341 0.0
C202 C 0.5148 0.76167 0.82217 0.0
H203 H 0.5797 0.86135 0.81136 0.0
C204 C 0.48028 0.76537 0.82673 0.0
C205 C 0.55148 0.79703 0.8172 0.0
C206 C 0.58928 0.7946 0.812 0.0
C207 C 0.48102 0.80308 0.82583 0.0
C208 C 0.51693 0.83796 0.81966 0.0
C209 C 0.55212 0.83473 0.81605 0.0
C210 C 0.51722 0.87647 0.81475 0.0
C211 C 0.44306 0.80499 0.83133 0.0
C212 C 0.48907 0.87437 0.79956 0.0
C213 C 0.49144 0.9103 0.79316 0.0
C214 C 0.52225 0.94946 0.80163 0.0
C215 C 0.54956 0.95171 0.8174 0.0
C216 C 0.54725 0.91552 0.8238 0.0
H217 H 0.42508 0.78212 0.84255 0.0
H218 H 0.45106 0.8362 0.83808 0.0
H219 H 0.42293 0.79739 0.81714 0.0
H220 H 0.46619 0.8449 0.79196 0.0
H221 H 0.47002 0.90753 0.78093 0.0
H222 H 0.81464 0.44097 0.1247 0.0
H223 H 0.75559 0.45114 0.12726 0.0
H224 H 0.81822 0.54393 0.17788 0.0
H225 H 0.87801 0.53381 0.1755 0.0
H226 H 0.70853 0.44234 0.16461 0.0
H227 H 0.77771 0.59837 0.13517 0.0
H228 H 0.79873 0.56493 0.12979 0.0
H229 H 0.80596 0.59016 0.15519 0.0
C230 C 0.81622 0.4638 0.13634 0.0
C231 C 0.85132 0.48664 0.14987 0.0
C232 C 0.78223 0.46947 0.1378 0.0
C233 C 0.78243 0.49837 0.15269 0.0
C234 C 0.8175 0.52168 0.16614 0.0
H235 H 0.58539 0.56256 0.15517 0.0
H236 H 0.64669 0.5597 0.16662 0.0
C237 C 0.85163 0.51582 0.16478 0.0
C238 C 0.7453 0.50297 0.15411 0.0
H239 H 0.70741 0.56539 0.14183 0.0
C240 C 0.70839 0.46947 0.15988 0.0
C241 C 0.74514 0.53848 0.14814 0.0
C242 C 0.78384 0.57512 0.14161 0.0
C243 C 0.67118 0.46999 0.15924 0.0
C244 C 0.67046 0.50453 0.1521 0.0
C245 C 0.70778 0.53885 0.14727 0.0
C246 C 0.63102 0.50391 0.14748 0.0
C247 C 0.63289 0.43325 0.16605 0.0
C248 C 0.6014 0.47325 0.13321 0.0
C249 C 0.5665 0.47474 0.12682 0.0
C250 C 0.56033 0.50709 0.13439 0.0
C251 C 0.58899 0.53693 0.14933 0.0
C252 C 0.6242 0.5355 0.15571 0.0
H253 H 0.64065 0.41744 0.17773 0.0
H254 H 0.61125 0.44236 0.17275 0.0
H255 H 0.61701 0.41069 0.15249 0.0
H256 H 0.60617 0.44908 0.12623 0.0
H257 H 0.54512 0.45149 0.11518 0.0
H258 H 0.40176 0.8731 0.51488 0.0
H259 H 0.3335 0.81171 0.51639 0.0
H260 H 0.33457 0.77982 0.45137 0.0
H261 H 0.40301 0.8402 0.44989 0.0
H262 H 0.2597 0.78549 0.49779 0.0
H263 H 0.30976 0.67389 0.4747 0.0
H264 H 0.34593 0.72776 0.48154 0.0
H265 H 0.32211 0.7106 0.45578 0.0
C266 C 0.38736 0.85309 0.50088 0.0
C267 C 0.40808 0.86143 0.48229 0.0
C268 C 0.34834 0.81791 0.50178 0.0
C269 C 0.3292 0.79036 0.48413 0.0
C270 C 0.34914 0.7997 0.46539 0.0
H271 H 0.07843 0.61712 0.45009 0.0
H272 H 0.14383 0.67794 0.46153 0.0
C273 C 0.38821 0.83455 0.46451 0.0
C274 C 0.28832 0.75209 0.48512 0.0
H275 H 0.23691 0.64828 0.47153 0.0
C276 C 0.25486 0.75541 0.49229 0.0
C277 C 0.28192 0.71248 0.47855 0.0
C278 C 0.31697 0.70586 0.47244 0.0
C279 C 0.21495 0.72075 0.49193 0.0
C280 C 0.20795 0.68175 0.48368 0.0
C281 C 0.24186 0.67809 0.47762 0.0
C282 C 0.16568 0.64527 0.47944 0.0
C283 C 0.18074 0.72646 0.5004 0.0
C284 C 0.15558 0.60614 0.48564 0.0
C285 C 0.11805 0.57089 0.47879 0.0
C286 C 0.09012 0.57413 0.46548 0.0
C287 C 0.09933 0.61358 0.4603 0.0
C288 C 0.13671 0.64858 0.46702 0.0
H289 H 0.19278 0.75189 0.51293 0.0
H290 H 0.16673 0.73499 0.48785 0.0
H291 H 0.15637 0.69786 0.50658 0.0
H292 H 0.17742 0.60264 0.49512 0.0
H293 H 0.11204 0.54092 0.48287 0.0
H294 H 0.55725 0.3944 0.87413 0.0
H295 H 0.55134 0.32666 0.86859 0.0
H296 H 0.53447 0.32808 0.80279 0.0
H297 H 0.53951 0.39576 0.80825 0.0
H298 H 0.48268 0.25174 0.81642 0.0
H299 H 0.64245 0.30902 0.84694 0.0
H300 H 0.61136 0.31811 0.86492 0.0
H301 H 0.62367 0.34329 0.84121 0.0
C302 C 0.55207 0.3803 0.85845 0.0
C303 C 0.54922 0.40082 0.84161 0.0
C304 C 0.54895 0.34157 0.85531 0.0
C305 C 0.54343 0.32253 0.83523 0.0
C306 C 0.53904 0.3422 0.81843 0.0
H307 H 0.5984 0.13676 0.78916 0.0
H308 H 0.5978 0.19928 0.80142 0.0
C309 C 0.54191 0.38094 0.82157 0.0
C310 C 0.54302 0.28258 0.83175 0.0
H311 H 0.60106 0.23697 0.83899 0.0
C312 C 0.50852 0.24847 0.82141 0.0
C313 C 0.5769 0.2783 0.83806 0.0
C314 C 0.61586 0.31419 0.84822 0.0
C315 C 0.507 0.21042 0.81717 0.0
C316 C 0.54062 0.20598 0.82378 0.0
C317 C 0.57502 0.24006 0.83419 0.0
C318 C 0.54246 0.16767 0.8183 0.0
C319 C 0.47002 0.17581 0.80496 0.0
C320 C 0.51251 0.12892 0.82438 0.0
C321 C 0.51284 0.09285 0.81734 0.0
C322 C 0.54315 0.09498 0.80413 0.0
C323 C 0.57444 0.13405 0.79918 0.0
C324 C 0.57411 0.16988 0.80619 0.0
H325 H 0.45135 0.18697 0.79716 0.0
H326 H 0.47961 0.16013 0.79305 0.0
H327 H 0.45007 0.15267 0.81561 0.0
H328 H 0.48829 0.12643 0.83412 0.0
H329 H 0.48826 0.06323 0.82135 0.0
H330 H 0.51806 0.83348 0.53199 0.0
H331 H 0.53893 0.78147 0.52898 0.0
H332 H 0.61861 0.8438 0.48026 0.0
H333 H 0.59792 0.89635 0.4831 0.0
H334 H 0.53325 0.7322 0.48779 0.0
H335 H 0.68924 0.82613 0.52756 0.0
H336 H 0.64931 0.83842 0.53281 0.0
H337 H 0.67201 0.84734 0.50815 0.0
C338 C 0.54015 0.83633 0.52068 0.0
C339 C 0.55637 0.86901 0.5078 0.0
C340 C 0.55192 0.80656 0.51895 0.0
C341 C 0.58021 0.80904 0.50441 0.0
C342 C 0.59681 0.84165 0.49159 0.0
H343 H 0.65598 0.62341 0.51837 0.0
H344 H 0.65388 0.67912 0.50125 0.0
C345 C 0.58495 0.87152 0.49326 0.0
C346 C 0.59164 0.77684 0.50295 0.0
H347 H 0.66092 0.75406 0.52379 0.0
C348 C 0.56167 0.73706 0.49509 0.0
C349 C 0.62893 0.78362 0.51228 0.0
C350 C 0.66194 0.82612 0.52073 0.0
C351 C 0.5666 0.70313 0.49793 0.0
C352 C 0.60203 0.70937 0.50915 0.0
C353 C 0.63376 0.74957 0.51524 0.0
C354 C 0.60281 0.67482 0.51821 0.0
C355 C 0.5327 0.66056 0.49014 0.0
C356 C 0.57518 0.65476 0.53348 0.0
C357 C 0.5766 0.62365 0.54332 0.0
C358 C 0.60571 0.61206 0.53806 0.0
C359 C 0.63323 0.63189 0.52261 0.0
C360 C 0.63207 0.66351 0.51286 0.0
H361 H 0.51482 0.66177 0.47667 0.0
H362 H 0.54531 0.64018 0.48559 0.0
H363 H 0.51118 0.64667 0.50265 0.0
H364 H 0.55283 0.66363 0.538 0.0
H365 H 0.55473 0.60846 0.55498 0.0
H366 H 0.70371 0.61097 0.84901 0.0
H367 H 0.77758 0.63761 0.85419 0.0
H368 H 0.77098 0.55151 0.80475 0.0
H369 H 0.6974 0.5257 0.79904 0.0
H370 H 0.80493 0.58991 0.86677 0.0
H371 H 0.87862 0.65166 0.79413 0.0
H372 H 0.8277 0.64232 0.79955 0.0
H373 H 0.83498 0.60071 0.78944 0.0
C374 C 0.71821 0.59835 0.83895 0.0
C375 C 0.69482 0.56597 0.82377 0.0
C376 C 0.76042 0.61376 0.84185 0.0
C377 C 0.77988 0.59689 0.82971 0.0
C378 C 0.75688 0.56579 0.81392 0.0
H379 H 0.96858 0.5425 0.84413 0.0
H380 H 0.91612 0.55685 0.831 0.0
C381 C 0.71471 0.55072 0.81083 0.0
C382 C 0.8221 0.60672 0.83576 0.0
H383 H 0.9148 0.62947 0.81666 0.0
C384 C 0.82931 0.5996 0.85597 0.0
C385 C 0.85371 0.61907 0.82158 0.0
C386 C 0.84847 0.62928 0.80003 0.0
C387 C 0.86641 0.60216 0.86207 0.0
C388 C 0.89733 0.61271 0.84763 0.0
C389 C 0.89093 0.62149 0.82766 0.0
C390 C 0.93439 0.61023 0.85255 0.0
C391 C 0.87127 0.59115 0.88355 0.0
C392 C 0.96287 0.63658 0.86844 0.0
C393 C 0.99274 0.62836 0.87603 0.0
C394 C 0.99462 0.59387 0.86771 0.0
C395 C 0.96798 0.56942 0.85075 0.0
C396 C 0.93805 0.57757 0.84323 0.0
H397 H 0.84187 0.57728 0.89157 0.0
H398 H 0.88281 0.56906 0.88286 0.0
H399 H 0.8941 0.61945 0.89301 0.0
H400 H 0.9606 0.66215 0.87565 0.0
H401 H 0.01338 0.64805 0.8889 0.0
H402 H 0.14062 0.68705 0.11794 0.0
H403 H 0.20018 0.75714 0.12113 0.0
H404 H 0.18443 0.76621 0.1867 0.0
H405 H 0.12462 0.69684 0.18365 0.0
H406 H 0.20801 0.83987 0.16803 0.0
H407 H 0.30719 0.77257 0.14777 0.0
H408 H 0.26707 0.76291 0.129 0.0
H409 H 0.2539 0.74092 0.15349 0.0
C410 C 0.14947 0.70425 0.13298 0.0
C411 C 0.12837 0.68621 0.15061 0.0
C412 C 0.18351 0.7442 0.13476 0.0
C413 C 0.19703 0.76642 0.1542 0.0
C414 C 0.17446 0.74945 0.17156 0.0
H415 H 0.41712 0.92202 0.2207 0.0
H416 H 0.353 0.86891 0.20278 0.0
C417 C 0.14039 0.70972 0.16979 0.0
C418 C 0.23677 0.80543 0.1572 0.0
H419 H 0.34033 0.84229 0.1597 0.0
C420 C 0.23705 0.84082 0.16583 0.0
C421 C 0.27446 0.8062 0.15441 0.0
C422 C 0.27595 0.76865 0.1458 0.0
C423 C 0.27406 0.87638 0.17282 0.0
C424 C 0.31151 0.87643 0.17083 0.0
C425 C 0.3114 0.84194 0.1611 0.0
C426 C 0.35034 0.90936 0.18125 0.0
C427 C 0.27269 0.91257 0.18348 0.0
C428 C 0.37003 0.9496 0.17497 0.0
C429 C 0.40661 0.98021 0.18533 0.0
C430 C 0.42388 0.97084 0.20208 0.0
C431 C 0.40417 0.93033 0.20811 0.0
C432 C 0.36777 0.89991 0.19779 0.0
H433 H 0.24067 0.90555 0.18598 0.0
H434 H 0.29015 0.92193 0.19869 0.0
H435 H 0.28744 0.93923 0.17387 0.0
H436 H 0.35718 0.95727 0.16208 0.0
H437 H 0.42111 0.01123 0.18041 0.0
H438 H 0.46743 0.13033 0.49904 0.0
H439 H 0.46899 0.19632 0.5032 0.0
H440 H 0.57862 0.25225 0.46838 0.0
H441 H 0.57568 0.18602 0.46319 0.0
H442 H 0.52624 0.25753 0.52491 0.0
H443 H 0.52462 0.31151 0.448 0.0
H444 H 0.51036 0.25871 0.45131 0.0
H445 H 0.56373 0.29767 0.44981 0.0
C446 C 0.491 0.15649 0.49172 0.0
C447 C 0.52154 0.15332 0.4809 0.0
C448 C 0.49188 0.1941 0.49407 0.0
C449 C 0.52378 0.22927 0.486 0.0
C450 C 0.55302 0.22546 0.47425 0.0
H451 H 0.64139 0.46882 0.55095 0.0
H452 H 0.62202 0.40088 0.53402 0.0
C453 C 0.55154 0.1876 0.47145 0.0
C454 C 0.53061 0.27071 0.49281 0.0
H455 H 0.55853 0.36528 0.47629 0.0
C456 C 0.53248 0.28077 0.51418 0.0
C457 C 0.53845 0.30107 0.4789 0.0
C458 C 0.53371 0.29146 0.45573 0.0
C459 C 0.54353 0.32066 0.52208 0.0
C460 C 0.5547 0.35182 0.50828 0.0
C461 C 0.551 0.34151 0.48685 0.0
C462 C 0.57014 0.39515 0.516 0.0
C463 C 0.54304 0.32889 0.54517 0.0
C464 C 0.54901 0.41534 0.51042 0.0
C465 C 0.56059 0.45441 0.51973 0.0
C466 C 0.5933 0.47358 0.5348 0.0
C467 C 0.61584 0.45433 0.53951 0.0
C468 C 0.60465 0.41558 0.52996 0.0
H469 H 0.52193 0.3002 0.5525 0.0
H470 H 0.57444 0.34095 0.55227 0.0
H471 H 0.53334 0.35199 0.54881 0.0
H472 H 0.52245 0.40014 0.49958 0.0
H473 H 0.54264 0.46867 0.51597 0.0
H474 H 0.35285 0.48353 0.80624 0.0
H475 H 0.28794 0.48384 0.80208 0.0
H476 H 0.29274 0.51486 0.86767 0.0
H477 H 0.35734 0.51485 0.87201 0.0
H478 H 0.20817 0.44123 0.82418 0.0
H479 H 0.29528 0.61188 0.83646 0.0
H480 H 0.31933 0.58194 0.82907 0.0
H481 H 0.30819 0.58712 0.85564 0.0
C482 C 0.33966 0.4897 0.81982 0.0
C483 C 0.36039 0.49971 0.83943 0.0
C484 C 0.30269 0.48986 0.81739 0.0
C485 C 0.28621 0.50001 0.83452 0.0
C486 C 0.3055 0.50749 0.85425 0.0
H487 H 0.07801 0.487 0.88112 0.0
H488 H 0.12637 0.47097 0.8643 0.0
C489 C 0.34234 0.50744 0.85669 0.0
C490 C 0.25052 0.50586 0.83202 0.0
H491 H 0.22325 0.57858 0.84262 0.0
C492 C 0.21127 0.47131 0.82774 0.0
C493 C 0.25497 0.54531 0.83603 0.0
C494 C 0.29676 0.58378 0.83935 0.0
C495 C 0.17586 0.47482 0.8292 0.0
C496 C 0.18022 0.51365 0.83555 0.0
C497 C 0.21973 0.54867 0.83796 0.0
C498 C 0.14534 0.51822 0.84269 0.0
C499 C 0.13428 0.43674 0.8245 0.0
C500 C 0.13994 0.5503 0.83628 0.0
C501 C 0.11338 0.56058 0.84645 0.0
C502 C 0.09154 0.53877 0.86314 0.0
C503 C 0.09504 0.50499 0.86863 0.0
C504 C 0.12202 0.49514 0.85867 0.0
H505 H 0.13602 0.41585 0.81212 0.0
H506 H 0.12417 0.41953 0.83856 0.0
H507 H 0.11076 0.44457 0.81957 0.0
H508 H 0.1579 0.56876 0.82411 0.0
H509 H 0.11164 0.58695 0.84191 0.0
H510 H 0.86922 0.3402 0.20364 0.0
H511 H 0.80799 0.27181 0.20035 0.0
H512 H 0.80195 0.27673 0.13415 0.0
H513 H 0.86336 0.34557 0.1373 0.0
H514 H 0.7307 0.26242 0.1529 0.0
H515 H 0.77973 0.15547 0.17875 0.0
H516 H 0.79967 0.20108 0.1962 0.0
H517 H 0.81554 0.20523 0.16993 0.0
C518 C 0.85545 0.32642 0.18833 0.0
C519 C 0.87089 0.34836 0.17076 0.0
C520 C 0.82068 0.28713 0.18644 0.0
C521 C 0.80082 0.26904 0.16697 0.0
C522 C 0.81717 0.29007 0.14927 0.0
H523 H 0.56661 0.03937 0.17996 0.0
H524 H 0.62926 0.08609 0.16275 0.0
C525 C 0.85219 0.32936 0.15113 0.0
C526 C 0.75992 0.23132 0.16581 0.0
H527 H 0.70865 0.1368 0.18485 0.0
C528 C 0.72584 0.23442 0.15931 0.0
C529 C 0.75367 0.19467 0.1739 0.0
C530 C 0.78918 0.18873 0.17988 0.0
C531 C 0.68566 0.20336 0.16256 0.0
C532 C 0.6797 0.16872 0.17266 0.0
C533 C 0.71346 0.16375 0.17732 0.0
C534 C 0.63996 0.14084 0.18131 0.0
C535 C 0.65003 0.20885 0.1562 0.0
C536 C 0.62561 0.15638 0.19738 0.0
C537 C 0.59035 0.12994 0.20727 0.0
C538 C 0.56881 0.08753 0.20121 0.0
C539 C 0.58259 0.07208 0.18476 0.0
C540 C 0.61825 0.09857 0.17498 0.0
H541 H 0.65791 0.22939 0.14336 0.0
H542 H 0.6223 0.17869 0.15127 0.0
H543 H 0.64233 0.22326 0.16959 0.0
H544 H 0.64245 0.18885 0.20269 0.0
H545 H 0.58018 0.14254 0.21986 0.0
H546 H 0.99263 0.46287 0.09737 0.0
H547 H 0.00314 0.47084 0.06039 0.0
H548 H 0.02305 0.59444 0.06912 0.0
H549 H 0.01312 0.58703 0.10609 0.0
H550 H 0.95978 0.4881 0.03129 0.0
H551 H 0.12438 0.61084 0.03884 0.0
H552 H 0.09789 0.58036 0.0599 0.0
H553 H 0.09115 0.62271 0.05376 0.0
C554 C 0.99928 0.49177 0.09143 0.0
C555 C 0.00236 0.52444 0.10469 0.0
C556 C 0.00531 0.49626 0.07032 0.0
C557 C 0.01463 0.53349 0.06214 0.0
C558 C 0.01687 0.56582 0.07524 0.0
H559 H 0.04923 0.62091 0.93978 0.0
H560 H 0.04216 0.61255 0.97695 0.0
C561 C 0.01093 0.56141 0.09634 0.0
C562 C 0.02103 0.53817 0.03979 0.0
H563 H 0.09088 0.59632 0.00542 0.0
C564 C 0.98851 0.51155 0.0256 0.0
C565 C 0.05858 0.56885 0.03249 0.0
C566 C 0.09516 0.5971 0.04701 0.0
C567 C 0.99222 0.51537 0.00424 0.0
C568 C 0.02964 0.54625 0.99696 0.0
C569 C 0.06224 0.57275 0.01113 0.0
C570 C 0.03534 0.55169 0.97465 0.0
C571 C 0.95578 0.48701 0.98967 0.0
C572 C 0.03462 0.52053 0.96121 0.0
C573 C 0.03849 0.52513 0.94001 0.0
C574 C 0.0433 0.56107 0.93192 0.0
C575 C 0.04503 0.59267 0.94554 0.0
C576 C 0.04123 0.58805 0.96675 0.0
H577 H 0.92672 0.4715 0.99792 0.0
H578 H 0.95193 0.50427 0.97737 0.0
H579 H 0.96101 0.46278 0.98209 0.0
H580 H 0.03068 0.49249 0.9671 0.0
H581 H 0.0367 0.50011 0.9299 0.0
H582 H 0.57428 0.99797 0.4362 0.0
H583 H 0.57414 0.00672 0.39912 0.0
H584 H 0.47251 0.02906 0.40495 0.0
H585 H 0.473 0.02134 0.44204 0.0
H586 H 0.51283 0.9625 0.36926 0.0
H587 H 0.553 0.1265 0.37458 0.0
H588 H 0.55833 0.10195 0.39653 0.0
H589 H 0.50878 0.09459 0.3887 0.0
C590 C 0.55202 0.00492 0.42961 0.0
C591 C 0.52378 0.00916 0.44207 0.0
C592 C 0.552 0.00993 0.40843 0.0
C593 C 0.52384 0.0193 0.39938 0.0
C594 C 0.49521 0.02291 0.41173 0.0
H595 H 0.45036 0.03178 0.27457 0.0
H596 H 0.45681 0.02905 0.31207 0.0
C597 C 0.49534 0.01814 0.4329 0.0
C598 C 0.52334 0.02381 0.37689 0.0
H599 H 0.52901 0.08949 0.3413 0.0
C600 C 0.51674 0.99039 0.36314 0.0
C601 C 0.52852 0.0603 0.36898 0.0
C602 C 0.53796 0.09803 0.38296 0.0
C603 C 0.51415 0.99209 0.34166 0.0
C604 C 0.51851 0.02822 0.33381 0.0
C605 C 0.52549 0.0618 0.34749 0.0
C606 C 0.51554 0.03145 0.31137 0.0
C607 C 0.5059 0.95501 0.32747 0.0
C608 C 0.54678 0.03431 0.29878 0.0
C609 C 0.54323 0.03595 0.27744 0.0
C610 C 0.50831 0.03463 0.26838 0.0
C611 C 0.47739 0.03244 0.28113 0.0
C612 C 0.4811 0.03108 0.3025 0.0
H613 H 0.4967 0.92725 0.33605 0.0
H614 H 0.48122 0.94787 0.31555 0.0
H615 H 0.53422 0.96195 0.31934 0.0
H616 H 0.57369 0.03489 0.30545 0.0
H617 H 0.56735 0.03725 0.26796 0.0
H618 H 0.60122 0.56541 0.77841 0.0
H619 H 0.61149 0.56811 0.74135 0.0
H620 H 0.48149 0.48473 0.72841 0.0
H621 H 0.47084 0.48128 0.76563 0.0
H622 H 0.53192 0.46468 0.70466 0.0
H623 H 0.5787 0.62981 0.70248 0.0
H624 H 0.60818 0.62073 0.72128 0.0
H625 H 0.554 0.60059 0.72419 0.0
C626 C 0.57471 0.54767 0.76773 0.0
C627 C 0.53513 0.52331 0.77497 0.0
C628 C 0.58066 0.54943 0.74655 0.0
C629 C 0.54716 0.5272 0.7322 0.0
C630 C 0.50768 0.50231 0.7393 0.0
H631 H 0.55011 0.56486 0.60172 0.0
H632 H 0.53642 0.55924 0.63846 0.0
C633 C 0.50167 0.50041 0.76054 0.0
C634 C 0.55361 0.52972 0.70977 0.0
H635 H 0.58986 0.59763 0.67238 0.0
C636 C 0.54436 0.49366 0.69753 0.0
C637 C 0.56939 0.56752 0.70056 0.0
C638 C 0.57779 0.60681 0.71275 0.0
C639 C 0.55132 0.49456 0.67631 0.0
C640 C 0.56864 0.53268 0.66727 0.0
C641 C 0.57707 0.56856 0.67944 0.0
C642 C 0.57734 0.53597 0.64507 0.0
C643 C 0.53954 0.45467 0.6637 0.0
C644 C 0.60537 0.52531 0.63671 0.0
C645 C 0.61336 0.52859 0.61571 0.0
C646 C 0.59379 0.54306 0.60281 0.0
C647 C 0.56617 0.55425 0.61134 0.0
C648 C 0.5581 0.5508 0.63227 0.0
H649 H 0.51717 0.4274 0.67161 0.0
H650 H 0.52589 0.45366 0.64822 0.0
H651 H 0.56751 0.45223 0.66143 0.0
H652 H 0.62123 0.51467 0.64645 0.0
H653 H 0.63505 0.52012 0.60958 0.0
H654 H 0.55376 0.96907 0.56192 0.0
H655 H 0.55475 0.97028 0.59967 0.0
H656 H 0.52725 0.06903 0.60278 0.0
H657 H 0.52549 0.06766 0.565 0.0
H658 H 0.60291 0.03261 0.62958 0.0
H659 H 0.43773 0.98358 0.63636 0.0
H660 H 0.45895 0.97997 0.61201 0.0
H661 H 0.46567 0.02863 0.62242 0.0
C662 C 0.54794 0.99111 0.5706 0.0
C663 C 0.53921 0.01807 0.56039 0.0
C664 C 0.54854 0.99175 0.59218 0.0
C665 C 0.54038 0.01925 0.604 0.0
C666 C 0.5327 0.04691 0.59393 0.0
H667 H 0.58965 0.08349 0.73662 0.0
H668 H 0.59086 0.08286 0.69889 0.0
C669 C 0.53192 0.04621 0.57233 0.0
C670 C 0.54002 0.01896 0.62685 0.0
H671 H 0.47904 0.00507 0.66768 0.0
C672 C 0.57583 0.02651 0.63793 0.0
C673 C 0.50444 0.01038 0.63766 0.0
C674 C 0.46437 0.99978 0.62652 0.0
C675 C 0.57721 0.02631 0.65958 0.0
C676 C 0.54205 0.01909 0.67044 0.0
C677 C 0.50607 0.01096 0.65933 0.0
C678 C 0.54171 0.01942 0.69332 0.0
C679 C 0.61603 0.03307 0.67058 0.0
C680 C 0.51304 0.98429 0.70271 0.0
C681 C 0.51185 0.98473 0.72426 0.0
C682 C 0.53926 0.02042 0.73686 0.0
C683 C 0.56792 0.0556 0.72737 0.0
C684 C 0.569 0.05515 0.70581 0.0
H685 H 0.63555 0.02688 0.65989 0.0
H686 H 0.63428 0.06568 0.67703 0.0
H687 H 0.60877 0.01299 0.68357 0.0
H688 H 0.49149 0.95649 0.69333 0.0
H689 H 0.48899 0.95733 0.73104 0.0
H690 H 0.44744 0.48321 0.89133 0.0
H691 H 0.44153 0.48373 0.92892 0.0
H692 H 0.57387 0.55189 0.93777 0.0
H693 H 0.58023 0.55183 0.90033 0.0
H694 H 0.47485 0.45277 0.9582 0.0
H695 H 0.5362 0.62117 0.97334 0.0
H696 H 0.51841 0.59465 0.94784 0.0
H697 H 0.56842 0.60784 0.95838 0.0
C698 C 0.47532 0.49838 0.90126 0.0
C699 C 0.51433 0.51769 0.89279 0.0
C700 C 0.47184 0.49861 0.92272 0.0
C701 C 0.50725 0.5184 0.93607 0.0
C702 C 0.54617 0.53714 0.92771 0.0
H703 H 0.5651 0.55727 0.06755 0.0
H704 H 0.56513 0.55559 0.02976 0.0
C705 C 0.54971 0.53687 0.90629 0.0
C706 C 0.50366 0.51886 0.95879 0.0
H707 H 0.52797 0.58347 0.00271 0.0
C708 C 0.48611 0.48126 0.96796 0.0
C709 C 0.51847 0.55613 0.97141 0.0
C710 C 0.53612 0.59726 0.96228 0.0
C711 C 0.48412 0.48003 0.98954 0.0
C712 C 0.49937 0.51737 0.00219 0.0
C713 C 0.51639 0.55492 0.99297 0.0
C714 C 0.49888 0.51829 0.02507 0.0
C715 C 0.46695 0.43892 -0.00136 0.0
C716 C 0.46157 0.49835 0.03495 0.0
C717 C 0.46146 0.49896 0.05654 0.0
C718 C 0.49869 0.51978 0.06865 0.0
C719 C 0.53595 0.54039 0.05867 0.0
C720 C 0.53601 0.5397 0.0371 0.0
H721 H 0.46609 0.41487 0.98738 0.0
H722 H 0.48549 0.44147 0.01274 0.0
H723 H 0.43497 0.42849 0.0031 0.0
H724 H 0.43252 0.48231 0.02596 0.0
H725 H 0.43226 0.48256 0.06373 0.0
H726 H 0.98296 0.44999 0.22128 0.0
H727 H 0.9843 0.44675 0.25881 0.0
H728 H 0.02984 0.57756 0.26756 0.0
H729 H 0.02845 0.58122 0.23002 0.0
H730 H 0.05432 0.49276 0.28792 0.0
H731 H 0.92696 0.52439 0.30316 0.0
H732 H 0.93494 0.50783 0.27772 0.0
H733 H 0.96708 0.5604 0.28801 0.0
C734 C 0.99314 0.4781 0.23115 0.0
C735 C 0.00535 0.51585 0.22262 0.0
C736 C 0.99395 0.47616 0.25259 0.0
C737 C 0.00664 0.51179 0.2659 0.0
C738 C 0.01931 0.5496 0.2575 0.0
H739 H 0.03066 0.56616 0.39863 0.0
H740 H 0.02804 0.56755 0.36102 0.0
C741 C 0.01868 0.55164 0.23605 0.0
C742 C 0.00725 0.50949 0.28859 0.0
H743 H 0.96385 0.52193 0.3324 0.0
C744 C 0.03446 0.49894 0.29768 0.0
C745 C 0.98132 0.51769 0.30119 0.0
C746 C 0.95063 0.5279 0.29208 0.0
C747 C 0.03708 0.49719 0.31918 0.0
C748 C 0.01105 0.50529 0.33182 0.0
C749 C 0.98372 0.51569 0.32268 0.0
C750 C 0.01223 0.50391 0.35461 0.0
C751 C 0.06847 0.48784 0.32821 0.0
C752 C 0.00357 0.46747 0.36349 0.0
C753 C 0.00551 0.46669 0.385 0.0
C754 C 0.01579 0.50229 0.39804 0.0
C755 C 0.02342 0.53844 0.38905 0.0
C756 C 0.02164 0.53921 0.36756 0.0
H757 H 0.093 0.49331 0.31732 0.0
H758 H 0.08311 0.50696 0.34294 0.0
H759 H 0.05294 0.45489 0.33148 0.0
H760 H 0.99538 0.43962 0.35378 0.0
H761 H 0.99966 0.43842 0.3914 0.0
loop_
_geom_bond_atom_site_label_1
_geom_bond_atom_site_label_2
_geom_bond_distance
_geom_bond_site_symmetry_2
_ccdc_geom_bond_type
Zn0 O6 1.969 . S
Zn0 O7 1.965 . S
Zn0 O11 2.024 . S
Zn0 O16 1.969 . S
Zn1 O8 1.969 . S
Zn1 O14 1.969 . S
Zn1 O15 1.965 . S
Zn1 O17 2.024 . S
C2 O3 1.229 . S
C2 O11 1.058 . S
O3 C2 1.229 . S
C4 O5 1.229 . S
C4 O17 1.058 . S
O5 C4 1.229 . S
O6 Zn0 1.969 . S
O6 C9 1.267 . S
O7 Zn0 1.965 . S
O7 C18 1.260 1_455 S
O8 Zn1 1.969 . S
O8 C18 1.258 . S
C9 O6 1.267 . S
C9 O10 1.228 . S
O10 C9 1.228 . S
O11 Zn0 2.024 . S
O11 C2 1.058 . S
C12 O13 1.228 . S
C12 O14 1.267 . S
O13 C12 1.228 . S
O14 Zn1 1.969 . S
O14 C12 1.267 . S
O15 Zn1 1.965 . S
O15 C19 1.260 1_655 S
O16 Zn0 1.969 . S
O16 C19 1.258 . S
O17 Zn1 2.024 . S
O17 C4 1.058 . S
C18 O7 1.260 1_655 S
C18 O8 1.258 . S
C19 O15 1.260 1_455 S
C19 O16 1.258 . S
Zn20 O26 1.969 . S
Zn20 O27 1.965 . S
Zn20 O31 2.024 . S
Zn20 O36 1.969 . S
Zn21 O28 1.969 . S
Zn21 O34 1.969 . S
Zn21 O35 1.965 . S
Zn21 O37 2.024 . S
C22 O23 1.229 . S
C22 O31 1.058 . S
O23 C22 1.229 . S
C24 O25 1.229 . S
C24 O37 1.058 . S
O25 C24 1.229 . S
O26 Zn20 1.969 . S
O26 C29 1.267 . S
O27 Zn20 1.965 . S
O27 C38 1.260 . S
O28 Zn21 1.969 . S
O28 C38 1.258 1_565 S
C29 O26 1.267 . S
C29 O30 1.228 . S
O30 C29 1.228 . S
O31 Zn20 2.024 . S
O31 C22 1.058 . S
C32 O33 1.228 . S
C32 O34 1.267 . S
O33 C32 1.228 . S
O34 Zn21 1.969 . S
O34 C32 1.267 . S
O35 Zn21 1.965 . S
O35 C39 1.260 1_565 S
O36 Zn20 1.969 . S
O36 C39 1.258 . S
O37 Zn21 2.024 . S
O37 C24 1.058 . S
C38 O27 1.260 . S
C38 O28 1.258 1_545 S
C39 O35 1.260 1_545 S
C39 O36 1.258 . S
Zn40 O46 1.969 . S
Zn40 O47 1.965 . S
Zn40 O51 2.024 . S
Zn40 O56 1.969 . S
Zn41 O48 1.969 . S
Zn41 O54 1.969 . S
Zn41 O55 1.965 . S
Zn41 O57 2.024 . S
C42 O43 1.229 . S
C42 O51 1.058 . S
O43 C42 1.229 . S
C44 O45 1.229 . S
C44 O57 1.058 . S
O45 C44 1.229 . S
O46 Zn40 1.969 . S
O46 C49 1.267 . S
O47 Zn40 1.965 . S
O47 C58 1.260 . S
O48 Zn41 1.969 . S
O48 C58 1.258 . S
C49 O46 1.267 . S
C49 O50 1.228 . S
O50 C49 1.228 . S
O51 Zn40 2.024 . S
O51 C42 1.058 . S
C52 O53 1.228 . S
C52 O54 1.267 . S
O53 C52 1.228 . S
O54 Zn41 1.969 . S
O54 C52 1.267 . S
O55 Zn41 1.965 . S
O55 C59 1.260 . S
O56 Zn40 1.969 . S
O56 C59 1.258 . S
O57 Zn41 2.024 . S
O57 C44 1.058 . S
C58 O47 1.260 . S
C58 O48 1.258 . S
C59 O55 1.260 . S
C59 O56 1.258 . S
H60 C63 0.927 1_565 S
H61 C66 0.928 . S
H62 C68 0.930 . S
C63 H60 0.927 1_545 S
C63 C64 1.415 1_545 S
C63 C65 1.363 . S
C64 C63 1.415 1_565 S
C64 C68 1.425 1_565 S
C65 C63 1.363 . S
C65 C66 1.372 . S
C66 H61 0.928 . S
C66 C65 1.372 . S
C66 C67 1.404 . S
C67 C66 1.404 . S
C67 C68 1.391 . S
C68 H62 0.930 . S
C68 C64 1.425 1_545 S
C68 C67 1.391 . S
H69 C72 0.931 . S
H70 C75 0.928 . S
H71 C77 0.930 . S
C72 H69 0.931 . S
C72 C73 1.413 . S
C72 C74 1.360 . S
C73 C72 1.413 . S
C73 C77 1.429 . S
C74 C72 1.360 . S
C74 C75 1.372 . S
C75 H70 0.928 . S
C75 C74 1.372 . S
C75 C76 1.404 . S
C76 C75 1.404 . S
C76 C77 1.391 . S
C77 H71 0.930 . S
C77 C73 1.429 . S
C77 C76 1.391 . S
H78 C81 0.931 1_655 S
H79 C84 0.928 . S
H80 C86 0.930 . S
C81 H78 0.931 1_455 S
C81 C82 1.413 . S
C81 C83 1.360 . S
C82 C81 1.413 . S
C82 C86 1.429 . S
C83 C81 1.360 . S
C83 C84 1.372 . S
C84 H79 0.928 . S
C84 C83 1.372 . S
C84 C85 1.404 . S
C85 C84 1.404 . S
C85 C86 1.391 . S
C86 H80 0.930 . S
C86 C82 1.429 . S
C86 C85 1.391 . S
H87 C90 0.931 . S
H88 C93 0.928 . S
H89 C95 0.930 . S
C90 H87 0.931 . S
C90 C91 1.413 . S
C90 C92 1.360 1_655 S
C91 C90 1.413 . S
C91 C95 1.429 1_655 S
C92 C90 1.360 1_455 S
C92 C93 1.372 . S
C93 H88 0.928 . S
C93 C92 1.372 . S
C93 C94 1.404 . S
C94 C93 1.404 . S
C94 C95 1.391 . S
C95 H89 0.930 . S
C95 C91 1.429 1_455 S
C95 C94 1.391 . S
H96 C99 0.931 . S
H97 C102 0.928 . S
H98 C104 0.930 . S
C99 H96 0.931 . S
C99 C100 1.413 . S
C99 C101 1.360 . S
C100 C99 1.413 . S
C100 C104 1.429 . S
C101 C99 1.360 . S
C101 C102 1.372 1_545 S
C102 H97 0.928 . S
C102 C101 1.372 1_565 S
C102 C103 1.404 . S
C103 C102 1.404 . S
C103 C104 1.391 1_565 S
C104 H98 0.930 . S
C104 C100 1.429 . S
C104 C103 1.391 1_545 S
H105 C108 0.931 . S
H106 C111 0.928 . S
H107 C113 0.930 . S
C108 H105 0.931 . S
C108 C109 1.413 . S
C108 C110 1.360 . S
C109 C108 1.413 . S
C109 C113 1.429 . S
C110 C108 1.360 . S
C110 C111 1.372 . S
C111 H106 0.928 . S
C111 C110 1.372 . S
C111 C112 1.404 . S
C112 C111 1.404 . S
C112 C113 1.391 . S
C113 H107 0.930 . S
C113 C109 1.429 . S
C113 C112 1.391 . S
H114 C122 0.929 . S
H115 C124 0.930 . S
H116 C126 0.930 . S
H117 C129 0.929 . S
H118 C132 0.930 . S
H119 C134 0.960 . S
H120 C134 0.960 . S
H121 C134 0.960 . S
C122 H114 0.929 . S
C122 C123 1.377 . S
C122 C124 1.384 . S
C123 C122 1.377 . S
C123 C129 1.390 . S
C124 H115 0.930 . S
C124 C122 1.384 . S
C124 C125 1.372 . S
C125 C124 1.372 . S
C125 C126 1.400 . S
C125 C130 1.490 . S
C126 H116 0.930 . S
C126 C125 1.400 . S
C126 C129 1.386 . S
H127 C143 0.930 . S
H128 C144 0.931 . S
C129 H117 0.929 . S
C129 C123 1.390 . S
C129 C126 1.386 . S
C130 C125 1.490 . S
C130 C132 1.395 . S
C130 C133 1.403 . S
H131 C137 0.930 . S
C132 H118 0.930 . S
C132 C130 1.395 . S
C132 C135 1.403 . S
C133 C130 1.403 . S
C133 C134 1.524 . S
C133 C137 1.400 . S
C134 H119 0.960 . S
C134 H120 0.960 . S
C134 H121 0.960 . S
C134 C133 1.524 . S
C135 C132 1.403 . S
C135 C136 1.392 . S
C135 C139 1.495 . S
C136 C135 1.392 . S
C136 C137 1.385 . S
C136 C138 1.478 . S
C137 H131 0.930 . S
C137 C133 1.400 . S
C137 C136 1.385 . S
C138 C136 1.478 . S
C138 C140 1.381 . S
C138 C144 1.383 . S
C139 C135 1.495 . S
C139 H145 0.959 . S
C139 H146 0.961 . S
C139 H147 0.960 . S
C140 C138 1.381 . S
C140 C141 1.394 . S
C140 H148 0.930 . S
C141 C140 1.394 . S
C141 C142 1.383 . S
C141 H149 0.929 . S
C142 C141 1.383 . S
C142 C143 1.377 . S
C143 H127 0.930 . S
C143 C142 1.377 . S
C143 C144 1.379 . S
C144 H128 0.931 . S
C144 C138 1.383 . S
C144 C143 1.379 . S
H145 C139 0.959 . S
H146 C139 0.961 . S
H147 C139 0.960 . S
H148 C140 0.930 . S
H149 C141 0.929 . S
H150 C158 0.929 . S
H151 C160 0.930 . S
H152 C162 0.930 . S
H153 C165 0.929 . S
H154 C168 0.930 . S
H155 C170 0.960 . S
H156 C170 0.960 . S
H157 C170 0.960 . S
C158 H150 0.929 . S
C158 C159 1.377 . S
C158 C160 1.384 . S
C159 C158 1.377 . S
C159 C165 1.390 . S
C160 H151 0.930 . S
C160 C158 1.384 . S
C160 C161 1.372 . S
C161 C160 1.372 . S
C161 C162 1.400 . S
C161 C166 1.490 . S
C162 H152 0.930 . S
C162 C161 1.400 . S
C162 C165 1.386 . S
H163 C179 0.930 . S
H164 C180 0.931 . S
C165 H153 0.929 . S
C165 C159 1.390 . S
C165 C162 1.386 . S
C166 C161 1.490 . S
C166 C168 1.395 . S
C166 C169 1.403 . S
H167 C173 0.930 . S
C168 H154 0.930 . S
C168 C166 1.395 . S
C168 C171 1.403 . S
C169 C166 1.403 . S
C169 C170 1.524 . S
C169 C173 1.400 . S
C170 H155 0.960 . S
C170 H156 0.960 . S
C170 H157 0.960 . S
C170 C169 1.524 . S
C171 C168 1.403 . S
C171 C172 1.392 . S
C171 C175 1.495 . S
C172 C171 1.392 . S
C172 C173 1.385 . S
C172 C174 1.478 . S
C173 H167 0.930 . S
C173 C169 1.400 . S
C173 C172 1.385 . S
C174 C172 1.478 . S
C174 C176 1.381 . S
C174 C180 1.383 . S
C175 C171 1.495 . S
C175 H181 0.959 . S
C175 H182 0.961 . S
C175 H183 0.960 . S
C176 C174 1.381 . S
C176 C177 1.394 . S
C176 H184 0.930 . S
C177 C176 1.394 . S
C177 C178 1.383 . S
C177 H185 0.929 . S
C178 C177 1.383 . S
C178 C179 1.377 . S
C179 H163 0.930 . S
C179 C178 1.377 . S
C179 C180 1.379 . S
C180 H164 0.931 . S
C180 C174 1.383 . S
C180 C179 1.379 . S
H181 C175 0.959 . S
H182 C175 0.961 . S
H183 C175 0.960 . S
H184 C176 0.930 . S
H185 C177 0.929 . S
H186 C194 0.929 . S
H187 C196 0.930 . S
H188 C198 0.930 . S
H189 C201 0.929 . S
H190 C204 0.930 . S
H191 C206 0.960 . S
H192 C206 0.960 . S
H193 C206 0.960 . S
C194 H186 0.929 . S
C194 C195 1.377 . S
C194 C196 1.384 . S
C195 C194 1.377 . S
C195 C201 1.390 . S
C196 H187 0.930 . S
C196 C194 1.384 . S
C196 C197 1.372 . S
C197 C196 1.372 . S
C197 C198 1.400 . S
C197 C202 1.490 . S
C198 H188 0.930 . S
C198 C197 1.400 . S
C198 C201 1.386 . S
H199 C215 0.930 . S
H200 C216 0.931 . S
C201 H189 0.929 . S
C201 C195 1.390 . S
C201 C198 1.386 . S
C202 C197 1.490 . S
C202 C204 1.395 . S
C202 C205 1.403 . S
H203 C209 0.930 . S
C204 H190 0.930 . S
C204 C202 1.395 . S
C204 C207 1.403 . S
C205 C202 1.403 . S
C205 C206 1.524 . S
C205 C209 1.400 . S
C206 H191 0.960 . S
C206 H192 0.960 . S
C206 H193 0.960 . S
C206 C205 1.524 . S
C207 C204 1.403 . S
C207 C208 1.392 . S
C207 C211 1.495 . S
C208 C207 1.392 . S
C208 C209 1.385 . S
C208 C210 1.478 . S
C209 H203 0.930 . S
C209 C205 1.400 . S
C209 C208 1.385 . S
C210 C208 1.478 . S
C210 C212 1.381 . S
C210 C216 1.383 . S
C211 C207 1.495 . S
C211 H217 0.959 . S
C211 H218 0.961 . S
C211 H219 0.960 . S
C212 C210 1.381 . S
C212 C213 1.394 . S
C212 H220 0.930 . S
C213 C212 1.394 . S
C213 C214 1.383 . S
C213 H221 0.929 . S
C214 C213 1.383 . S
C214 C215 1.377 . S
C215 H199 0.930 . S
C215 C214 1.377 . S
C215 C216 1.379 . S
C216 H200 0.931 . S
C216 C210 1.383 . S
C216 C215 1.379 . S
H217 C211 0.959 . S
H218 C211 0.961 . S
H219 C211 0.960 . S
H220 C212 0.930 . S
H221 C213 0.929 . S
H222 C230 0.929 . S
H223 C232 0.930 . S
H224 C234 0.930 . S
H225 C237 0.929 . S
H226 C240 0.930 . S
H227 C242 0.960 . S
H228 C242 0.960 . S
H229 C242 0.960 . S
C230 H222 0.929 . S
C230 C231 1.377 . S
C230 C232 1.384 . S
C231 C230 1.377 . S
C231 C237 1.390 . S
C232 H223 0.930 . S
C232 C230 1.384 . S
C232 C233 1.372 . S
C233 C232 1.372 . S
C233 C234 1.400 . S
C233 C238 1.490 . S
C234 H224 0.930 . S
C234 C233 1.400 . S
C234 C237 1.386 . S
H235 C251 0.930 . S
H236 C252 0.931 . S
C237 H225 0.929 . S
C237 C231 1.390 . S
C237 C234 1.386 . S
C238 C233 1.490 . S
C238 C240 1.395 . S
C238 C241 1.403 . S
H239 C245 0.930 . S
C240 H226 0.930 . S
C240 C238 1.395 . S
C240 C243 1.403 . S
C241 C238 1.403 . S
C241 C242 1.524 . S
C241 C245 1.400 . S
C242 H227 0.960 . S
C242 H228 0.960 . S
C242 H229 0.960 . S
C242 C241 1.524 . S
C243 C240 1.403 . S
C243 C244 1.392 . S
C243 C247 1.495 . S
C244 C243 1.392 . S
C244 C245 1.385 . S
C244 C246 1.478 . S
C245 H239 0.930 . S
C245 C241 1.400 . S
C245 C244 1.385 . S
C246 C244 1.478 . S
C246 C248 1.381 . S
C246 C252 1.383 . S
C247 C243 1.495 . S
C247 H253 0.959 . S
C247 H254 0.961 . S
C247 H255 0.960 . S
C248 C246 1.381 . S
C248 C249 1.394 . S
C248 H256 0.930 . S
C249 C248 1.394 . S
C249 C250 1.383 . S
C249 H257 0.929 . S
C250 C249 1.383 . S
C250 C251 1.377 . S
C251 H235 0.930 . S
C251 C250 1.377 . S
C251 C252 1.379 . S
C252 H236 0.931 . S
C252 C246 1.383 . S
C252 C251 1.379 . S
H253 C247 0.959 . S
H254 C247 0.961 . S
H255 C247 0.960 . S
H256 C248 0.930 . S
H257 C249 0.929 . S
H258 C266 0.929 . S
H259 C268 0.930 . S
H260 C270 0.930 . S
H261 C273 0.929 . S
H262 C276 0.930 . S
H263 C278 0.960 . S
H264 C278 0.960 . S
H265 C278 0.960 . S
C266 H258 0.929 . S
C266 C267 1.377 . S
C266 C268 1.384 . S
C267 C266 1.377 . S
C267 C273 1.390 . S
C268 H259 0.930 . S
C268 C266 1.384 . S
C268 C269 1.372 . S
C269 C268 1.372 . S
C269 C270 1.400 . S
C269 C274 1.490 . S
C270 H260 0.930 . S
C270 C269 1.400 . S
C270 C273 1.386 . S
H271 C287 0.930 . S
H272 C288 0.931 . S
C273 H261 0.929 . S
C273 C267 1.390 . S
C273 C270 1.386 . S
C274 C269 1.490 . S
C274 C276 1.395 . S
C274 C277 1.403 . S
H275 C281 0.930 . S
C276 H262 0.930 . S
C276 C274 1.395 . S
C276 C279 1.403 . S
C277 C274 1.403 . S
C277 C278 1.524 . S
C277 C281 1.400 . S
C278 H263 0.960 . S
C278 H264 0.960 . S
C278 H265 0.960 . S
C278 C277 1.524 . S
C279 C276 1.403 . S
C279 C280 1.392 . S
C279 C283 1.495 . S
C280 C279 1.392 . S
C280 C281 1.385 . S
C280 C282 1.478 . S
C281 H275 0.930 . S
C281 C277 1.400 . S
C281 C280 1.385 . S
C282 C280 1.478 . S
C282 C284 1.381 . S
C282 C288 1.383 . S
C283 C279 1.495 . S
C283 H289 0.959 . S
C283 H290 0.961 . S
C283 H291 0.960 . S
C284 C282 1.381 . S
C284 C285 1.394 . S
C284 H292 0.930 . S
C285 C284 1.394 . S
C285 C286 1.383 . S
C285 H293 0.929 . S
C286 C285 1.383 . S
C286 C287 1.377 . S
C287 H271 0.930 . S
C287 C286 1.377 . S
C287 C288 1.379 . S
C288 H272 0.931 . S
C288 C282 1.383 . S
C288 C287 1.379 . S
H289 C283 0.959 . S
H290 C283 0.961 . S
H291 C283 0.960 . S
H292 C284 0.930 . S
H293 C285 0.929 . S
H294 C302 0.929 . S
H295 C304 0.930 . S
H296 C306 0.930 . S
H297 C309 0.929 . S
H298 C312 0.930 . S
H299 C314 0.960 . S
H300 C314 0.960 . S
H301 C314 0.960 . S
C302 H294 0.929 . S
C302 C303 1.377 . S
C302 C304 1.384 . S
C303 C302 1.377 . S
C303 C309 1.390 . S
C304 H295 0.930 . S
C304 C302 1.384 . S
C304 C305 1.372 . S
C305 C304 1.372 . S
C305 C306 1.400 . S
C305 C310 1.490 . S
C306 H296 0.930 . S
C306 C305 1.400 . S
C306 C309 1.386 . S
H307 C323 0.930 . S
H308 C324 0.931 . S
C309 H297 0.929 . S
C309 C303 1.390 . S
C309 C306 1.386 . S
C310 C305 1.490 . S
C310 C312 1.395 . S
C310 C313 1.403 . S
H311 C317 0.930 . S
C312 H298 0.930 . S
C312 C310 1.395 . S
C312 C315 1.403 . S
C313 C310 1.403 . S
C313 C314 1.524 . S
C313 C317 1.400 . S
C314 H299 0.960 . S
C314 H300 0.960 . S
C314 H301 0.960 . S
C314 C313 1.524 . S
C315 C312 1.403 . S
C315 C316 1.392 . S
C315 C319 1.495 . S
C316 C315 1.392 . S
C316 C317 1.385 . S
C316 C318 1.478 . S
C317 H311 0.930 . S
C317 C313 1.400 . S
C317 C316 1.385 . S
C318 C316 1.478 . S
C318 C320 1.381 . S
C318 C324 1.383 . S
C319 C315 1.495 . S
C319 H325 0.959 . S
C319 H326 0.961 . S
C319 H327 0.960 . S
C320 C318 1.381 . S
C320 C321 1.394 . S
C320 H328 0.930 . S
C321 C320 1.394 . S
C321 C322 1.383 . S
C321 H329 0.929 . S
C322 C321 1.383 . S
C322 C323 1.377 . S
C323 H307 0.930 . S
C323 C322 1.377 . S
C323 C324 1.379 . S
C324 H308 0.931 . S
C324 C318 1.383 . S
C324 C323 1.379 . S
H325 C319 0.959 . S
H326 C319 0.961 . S
H327 C319 0.960 . S
H328 C320 0.930 . S
H329 C321 0.929 . S
H330 C338 0.929 . S
H331 C340 0.930 . S
H332 C342 0.930 . S
H333 C345 0.929 . S
H334 C348 0.930 . S
H335 C350 0.960 . S
H336 C350 0.960 . S
H337 C350 0.960 . S
C338 H330 0.929 . S
C338 C339 1.377 . S
C338 C340 1.384 . S
C339 C338 1.377 . S
C339 C345 1.390 . S
C340 H331 0.930 . S
C340 C338 1.384 . S
C340 C341 1.372 . S
C341 C340 1.372 . S
C341 C342 1.400 . S
C341 C346 1.490 . S
C342 H332 0.930 . S
C342 C341 1.400 . S
C342 C345 1.386 . S
H343 C359 0.930 . S
H344 C360 0.931 . S
C345 H333 0.929 . S
C345 C339 1.390 . S
C345 C342 1.386 . S
C346 C341 1.490 . S
C346 C348 1.395 . S
C346 C349 1.403 . S
H347 C353 0.930 . S
C348 H334 0.930 . S
C348 C346 1.395 . S
C348 C351 1.403 . S
C349 C346 1.403 . S
C349 C350 1.524 . S
C349 C353 1.400 . S
C350 H335 0.960 . S
C350 H336 0.960 . S
C350 H337 0.960 . S
C350 C349 1.524 . S
C351 C348 1.403 . S
C351 C352 1.392 . S
C351 C355 1.495 . S
C352 C351 1.392 . S
C352 C353 1.385 . S
C352 C354 1.478 . S
C353 H347 0.930 . S
C353 C349 1.400 . S
C353 C352 1.385 . S
C354 C352 1.478 . S
C354 C356 1.381 . S
C354 C360 1.383 . S
C355 C351 1.495 . S
C355 H361 0.959 . S
C355 H362 0.961 . S
C355 H363 0.960 . S
C356 C354 1.381 . S
C356 C357 1.394 . S
C356 H364 0.930 . S
C357 C356 1.394 . S
C357 C358 1.383 . S
C357 H365 0.929 . S
C358 C357 1.383 . S
C358 C359 1.377 . S
C359 H343 0.930 . S
C359 C358 1.377 . S
C359 C360 1.379 . S
C360 H344 0.931 . S
C360 C354 1.383 . S
C360 C359 1.379 . S
H361 C355 0.959 . S
H362 C355 0.961 . S
H363 C355 0.960 . S
H364 C356 0.930 . S
H365 C357 0.929 . S
H366 C374 0.929 . S
H367 C376 0.930 . S
H368 C378 0.930 . S
H369 C381 0.929 . S
H370 C384 0.930 . S
H371 C386 0.960 . S
H372 C386 0.960 . S
H373 C386 0.960 . S
C374 H366 0.929 . S
C374 C375 1.377 . S
C374 C376 1.384 . S
C375 C374 1.377 . S
C375 C381 1.390 . S
C376 H367 0.930 . S
C376 C374 1.384 . S
C376 C377 1.372 . S
C377 C376 1.372 . S
C377 C378 1.400 . S
C377 C382 1.490 . S
C378 H368 0.930 . S
C378 C377 1.400 . S
C378 C381 1.386 . S
H379 C395 0.930 . S
H380 C396 0.931 . S
C381 H369 0.929 . S
C381 C375 1.390 . S
C381 C378 1.386 . S
C382 C377 1.490 . S
C382 C384 1.395 . S
C382 C385 1.403 . S
H383 C389 0.930 . S
C384 H370 0.930 . S
C384 C382 1.395 . S
C384 C387 1.403 . S
C385 C382 1.403 . S
C385 C386 1.524 . S
C385 C389 1.400 . S
C386 H371 0.960 . S
C386 H372 0.960 . S
C386 H373 0.960 . S
C386 C385 1.524 . S
C387 C384 1.403 . S
C387 C388 1.392 . S
C387 C391 1.495 . S
C388 C387 1.392 . S
C388 C389 1.385 . S
C388 C390 1.478 . S
C389 H383 0.930 . S
C389 C385 1.400 . S
C389 C388 1.385 . S
C390 C388 1.478 . S
C390 C392 1.381 . S
C390 C396 1.383 . S
C391 C387 1.495 . S
C391 H397 0.959 . S
C391 H398 0.961 . S
C391 H399 0.960 . S
C392 C390 1.381 . S
C392 C393 1.394 . S
C392 H400 0.930 . S
C393 C392 1.394 . S
C393 C394 1.383 . S
C393 H401 0.929 . S
C394 C393 1.383 . S
C394 C395 1.377 . S
C395 H379 0.930 . S
C395 C394 1.377 . S
C395 C396 1.379 . S
C396 H380 0.931 . S
C396 C390 1.383 . S
C396 C395 1.379 . S
H397 C391 0.959 . S
H398 C391 0.961 . S
H399 C391 0.960 . S
H400 C392 0.930 . S
H401 C393 0.929 . S
H402 C410 0.929 . S
H403 C412 0.930 . S
H404 C414 0.930 . S
H405 C417 0.929 . S
H406 C420 0.930 . S
H407 C422 0.960 . S
H408 C422 0.960 . S
H409 C422 0.960 . S
C410 H402 0.929 . S
C410 C411 1.377 . S
C410 C412 1.384 . S
C411 C410 1.377 . S
C411 C417 1.390 . S
C412 H403 0.930 . S
C412 C410 1.384 . S
C412 C413 1.372 . S
C413 C412 1.372 . S
C413 C414 1.400 . S
C413 C418 1.490 . S
C414 H404 0.930 . S
C414 C413 1.400 . S
C414 C417 1.386 . S
H415 C431 0.930 . S
H416 C432 0.931 . S
C417 H405 0.929 . S
C417 C411 1.390 . S
C417 C414 1.386 . S
C418 C413 1.490 . S
C418 C420 1.395 . S
C418 C421 1.403 . S
H419 C425 0.930 . S
C420 H406 0.930 . S
C420 C418 1.395 . S
C420 C423 1.403 . S
C421 C418 1.403 . S
C421 C422 1.524 . S
C421 C425 1.400 . S
C422 H407 0.960 . S
C422 H408 0.960 . S
C422 H409 0.960 . S
C422 C421 1.524 . S
C423 C420 1.403 . S
C423 C424 1.392 . S
C423 C427 1.495 . S
C424 C423 1.392 . S
C424 C425 1.385 . S
C424 C426 1.478 . S
C425 H419 0.930 . S
C425 C421 1.400 . S
C425 C424 1.385 . S
C426 C424 1.478 . S
C426 C428 1.381 . S
C426 C432 1.383 . S
C427 C423 1.495 . S
C427 H433 0.959 . S
C427 H434 0.961 . S
C427 H435 0.960 . S
C428 C426 1.381 . S
C428 C429 1.394 . S
C428 H436 0.930 . S
C429 C428 1.394 . S
C429 C430 1.383 . S
C429 H437 0.929 . S
C430 C429 1.383 . S
C430 C431 1.377 . S
C431 H415 0.930 . S
C431 C430 1.377 . S
C431 C432 1.379 . S
C432 H416 0.931 . S
C432 C426 1.383 . S
C432 C431 1.379 . S
H433 C427 0.959 . S
H434 C427 0.961 . S
H435 C427 0.960 . S
H436 C428 0.930 . S
H437 C429 0.929 . S
H438 C446 0.929 . S
H439 C448 0.930 . S
H440 C450 0.930 . S
H441 C453 0.929 . S
H442 C456 0.930 . S
H443 C458 0.960 . S
H444 C458 0.960 . S
H445 C458 0.960 . S
C446 H438 0.929 . S
C446 C447 1.377 . S
C446 C448 1.384 . S
C447 C446 1.377 . S
C447 C453 1.390 . S
C448 H439 0.930 . S
C448 C446 1.384 . S
C448 C449 1.372 . S
C449 C448 1.372 . S
C449 C450 1.400 . S
C449 C454 1.490 . S
C450 H440 0.930 . S
C450 C449 1.400 . S
C450 C453 1.386 . S
H451 C467 0.930 . S
H452 C468 0.931 . S
C453 H441 0.929 . S
C453 C447 1.390 . S
C453 C450 1.386 . S
C454 C449 1.490 . S
C454 C456 1.395 . S
C454 C457 1.403 . S
H455 C461 0.930 . S
C456 H442 0.930 . S
C456 C454 1.395 . S
C456 C459 1.403 . S
C457 C454 1.403 . S
C457 C458 1.524 . S
C457 C461 1.400 . S
C458 H443 0.960 . S
C458 H444 0.960 . S
C458 H445 0.960 . S
C458 C457 1.524 . S
C459 C456 1.403 . S
C459 C460 1.392 . S
C459 C463 1.495 . S
C460 C459 1.392 . S
C460 C461 1.385 . S
C460 C462 1.478 . S
C461 H455 0.930 . S
C461 C457 1.400 . S
C461 C460 1.385 . S
C462 C460 1.478 . S
C462 C464 1.381 . S
C462 C468 1.383 . S
C463 C459 1.495 . S
C463 H469 0.959 . S
C463 H470 0.961 . S
C463 H471 0.960 . S
C464 C462 1.381 . S
C464 C465 1.394 . S
C464 H472 0.930 . S
C465 C464 1.394 . S
C465 C466 1.383 . S
C465 H473 0.929 . S
C466 C465 1.383 . S
C466 C467 1.377 . S
C467 H451 0.930 . S
C467 C466 1.377 . S
C467 C468 1.379 . S
C468 H452 0.931 . S
C468 C462 1.383 . S
C468 C467 1.379 . S
H469 C463 0.959 . S
H470 C463 0.961 . S
H471 C463 0.960 . S
H472 C464 0.930 . S
H473 C465 0.929 . S
H474 C482 0.929 . S
H475 C484 0.930 . S
H476 C486 0.930 . S
H477 C489 0.929 . S
H478 C492 0.930 . S
H479 C494 0.960 . S
H480 C494 0.960 . S
H481 C494 0.960 . S
C482 H474 0.929 . S
C482 C483 1.377 . S
C482 C484 1.384 . S
C483 C482 1.377 . S
C483 C489 1.390 . S
C484 H475 0.930 . S
C484 C482 1.384 . S
C484 C485 1.372 . S
C485 C484 1.372 . S
C485 C486 1.400 . S
C485 C490 1.490 . S
C486 H476 0.930 . S
C486 C485 1.400 . S
C486 C489 1.386 . S
H487 C503 0.930 . S
H488 C504 0.931 . S
C489 H477 0.929 . S
C489 C483 1.390 . S
C489 C486 1.386 . S
C490 C485 1.490 . S
C490 C492 1.395 . S
C490 C493 1.403 . S
H491 C497 0.930 . S
C492 H478 0.930 . S
C492 C490 1.395 . S
C492 C495 1.403 . S
C493 C490 1.403 . S
C493 C494 1.524 . S
C493 C497 1.400 . S
C494 H479 0.960 . S
C494 H480 0.960 . S
C494 H481 0.960 . S
C494 C493 1.524 . S
C495 C492 1.403 . S
C495 C496 1.392 . S
C495 C499 1.495 . S
C496 C495 1.392 . S
C496 C497 1.385 . S
C496 C498 1.478 . S
C497 H491 0.930 . S
C497 C493 1.400 . S
C497 C496 1.385 . S
C498 C496 1.478 . S
C498 C500 1.381 . S
C498 C504 1.383 . S
C499 C495 1.495 . S
C499 H505 0.959 . S
C499 H506 0.961 . S
C499 H507 0.960 . S
C500 C498 1.381 . S
C500 C501 1.394 . S
C500 H508 0.930 . S
C501 C500 1.394 . S
C501 C502 1.383 . S
C501 H509 0.929 . S
C502 C501 1.383 . S
C502 C503 1.377 . S
C503 H487 0.930 . S
C503 C502 1.377 . S
C503 C504 1.379 . S
C504 H488 0.931 . S
C504 C498 1.383 . S
C504 C503 1.379 . S
H505 C499 0.959 . S
H506 C499 0.961 . S
H507 C499 0.960 . S
H508 C500 0.930 . S
H509 C501 0.929 . S
H510 C518 0.929 . S
H511 C520 0.930 . S
H512 C522 0.930 . S
H513 C525 0.929 . S
H514 C528 0.930 . S
H515 C530 0.960 . S
H516 C530 0.960 . S
H517 C530 0.960 . S
C518 H510 0.929 . S
C518 C519 1.377 . S
C518 C520 1.384 . S
C519 C518 1.377 . S
C519 C525 1.390 . S
C520 H511 0.930 . S
C520 C518 1.384 . S
C520 C521 1.372 . S
C521 C520 1.372 . S
C521 C522 1.400 . S
C521 C526 1.490 . S
C522 H512 0.930 . S
C522 C521 1.400 . S
C522 C525 1.386 . S
H523 C539 0.930 . S
H524 C540 0.931 . S
C525 H513 0.929 . S
C525 C519 1.390 . S
C525 C522 1.386 . S
C526 C521 1.490 . S
C526 C528 1.395 . S
C526 C529 1.403 . S
H527 C533 0.930 . S
C528 H514 0.930 . S
C528 C526 1.395 . S
C528 C531 1.403 . S
C529 C526 1.403 . S
C529 C530 1.524 . S
C529 C533 1.400 . S
C530 H515 0.960 . S
C530 H516 0.960 . S
C530 H517 0.960 . S
C530 C529 1.524 . S
C531 C528 1.403 . S
C531 C532 1.392 . S
C531 C535 1.495 . S
C532 C531 1.392 . S
C532 C533 1.385 . S
C532 C534 1.478 . S
C533 H527 0.930 . S
C533 C529 1.400 . S
C533 C532 1.385 . S
C534 C532 1.478 . S
C534 C536 1.381 . S
C534 C540 1.383 . S
C535 C531 1.495 . S
C535 H541 0.959 . S
C535 H542 0.961 . S
C535 H543 0.960 . S
C536 C534 1.381 . S
C536 C537 1.394 . S
C536 H544 0.930 . S
C537 C536 1.394 . S
C537 C538 1.383 . S
C537 H545 0.929 . S
C538 C537 1.383 . S
C538 C539 1.377 . S
C539 H523 0.930 . S
C539 C538 1.377 . S
C539 C540 1.379 . S
C540 H524 0.931 . S
C540 C534 1.383 . S
C540 C539 1.379 . S
H541 C535 0.959 . S
H542 C535 0.961 . S
H543 C535 0.960 . S
H544 C536 0.930 . S
H545 C537 0.929 . S
H546 C554 0.929 . S
H547 C556 0.930 . S
H548 C558 0.930 . S
H549 C561 0.929 . S
H550 C564 0.930 1_655 S
H551 C566 0.960 . S
H552 C566 0.960 . S
H553 C566 0.960 . S
C554 H546 0.929 . S
C554 C555 1.377 . S
C554 C556 1.384 . S
C555 C554 1.377 . S
C555 C561 1.390 1_455 S
C556 H547 0.930 . S
C556 C554 1.384 . S
C556 C557 1.372 . S
C557 C556 1.372 . S
C557 C558 1.400 1_455 S
C557 C562 1.490 . S
C558 H548 0.930 . S
C558 C557 1.400 1_655 S
C558 C561 1.386 . S
H559 C575 0.930 1_655 S
H560 C576 0.906 1_655 S
C561 H549 0.929 . S
C561 C555 1.390 1_655 S
C561 C558 1.386 . S
C562 C557 1.490 . S
C562 C564 1.395 . S
C562 C565 1.403 . S
H563 C569 0.930 . S
C564 H550 0.930 1_455 S
C564 C562 1.395 . S
C564 C567 1.403 . S
C565 C562 1.403 . S
C565 C566 1.524 . S
C565 C569 1.400 . S
C566 H551 0.960 . S
C566 H552 0.960 . S
C566 H553 0.960 . S
C566 C565 1.524 . S
C567 C564 1.403 . S
C567 C568 1.392 . S
C567 C571 1.497 1_455 S
C568 C567 1.392 . S
C568 C569 1.385 . S
C568 C570 1.478 1_554 S
C569 H563 0.930 . S
C569 C565 1.400 . S
C569 C568 1.385 . S
C570 C568 1.478 1_556 S
C570 C572 1.381 . S
C570 C576 1.406 . S
C571 C567 1.497 1_655 S
C571 H577 0.962 . S
C571 H578 0.959 1_554 S
C571 H579 0.957 1_654 S
C572 C570 1.381 . S
C572 C573 1.394 . S
C572 H580 0.930 . S
C573 C572 1.394 . S
C573 C574 1.383 . S
C573 H581 0.929 . S
C574 C573 1.383 . S
C574 C575 1.377 . S
C575 H559 0.930 1_455 S
C575 C574 1.377 . S
C575 C576 1.381 . S
C576 H560 0.906 1_455 S
C576 C570 1.406 . S
C576 C575 1.381 . S
H577 C571 0.962 . S
H578 C571 0.959 1_556 S
H579 C571 0.957 1_456 S
H580 C572 0.930 . S
H581 C573 0.929 . S
H582 C590 0.929 . S
H583 C592 0.930 . S
H584 C594 0.930 . S
H585 C597 0.929 . S
H586 C600 0.930 . S
H587 C602 0.960 . S
H588 C602 0.960 . S
H589 C602 0.960 . S
C590 H582 0.929 . S
C590 C591 1.377 . S
C590 C592 1.384 . S
C591 C590 1.377 . S
C591 C597 1.390 . S
C592 H583 0.930 . S
C592 C590 1.384 . S
C592 C593 1.372 . S
C593 C592 1.372 . S
C593 C594 1.400 . S
C593 C598 1.490 . S
C594 H584 0.930 . S
C594 C593 1.400 . S
C594 C597 1.386 . S
H595 C611 0.930 . S
H596 C612 0.931 . S
C597 H585 0.929 . S
C597 C591 1.390 . S
C597 C594 1.386 . S
C598 C593 1.490 . S
C598 C600 1.395 1_545 S
C598 C601 1.403 . S
H599 C605 0.930 . S
C600 H586 0.930 . S
C600 C598 1.395 1_565 S
C600 C603 1.403 . S
C601 C598 1.403 . S
C601 C602 1.524 . S
C601 C605 1.400 . S
C602 H587 0.960 . S
C602 H588 0.960 . S
C602 H589 0.960 . S
C602 C601 1.524 . S
C603 C600 1.403 . S
C603 C604 1.392 1_565 S
C603 C607 1.495 . S
C604 C603 1.392 1_545 S
C604 C605 1.385 . S
C604 C606 1.478 . S
C605 H599 0.930 . S
C605 C601 1.400 . S
C605 C604 1.385 . S
C606 C604 1.478 . S
C606 C608 1.381 . S
C606 C612 1.383 . S
C607 C603 1.495 . S
C607 H613 0.959 . S
C607 H614 0.961 . S
C607 H615 0.960 . S
C608 C606 1.381 . S
C608 C609 1.394 . S
C608 H616 0.930 . S
C609 C608 1.394 . S
C609 C610 1.383 . S
C609 H617 0.929 . S
C610 C609 1.383 . S
C610 C611 1.377 . S
C611 H595 0.930 . S
C611 C610 1.377 . S
C611 C612 1.379 . S
C612 H596 0.931 . S
C612 C606 1.383 . S
C612 C611 1.379 . S
H613 C607 0.959 . S
H614 C607 0.961 . S
H615 C607 0.960 . S
H616 C608 0.930 . S
H617 C609 0.929 . S
H618 C626 0.929 . S
H619 C628 0.930 . S
H620 C630 0.930 . S
H621 C633 0.929 . S
H622 C636 0.930 . S
H623 C638 0.960 . S
H624 C638 0.960 . S
H625 C638 0.960 . S
C626 H618 0.929 . S
C626 C627 1.377 . S
C626 C628 1.384 . S
C627 C626 1.377 . S
C627 C633 1.390 . S
C628 H619 0.930 . S
C628 C626 1.384 . S
C628 C629 1.372 . S
C629 C628 1.372 . S
C629 C630 1.400 . S
C629 C634 1.490 . S
C630 H620 0.930 . S
C630 C629 1.400 . S
C630 C633 1.386 . S
H631 C647 0.930 . S
H632 C648 0.931 . S
C633 H621 0.929 . S
C633 C627 1.390 . S
C633 C630 1.386 . S
C634 C629 1.490 . S
C634 C636 1.395 . S
C634 C637 1.403 . S
H635 C641 0.930 . S
C636 H622 0.930 . S
C636 C634 1.395 . S
C636 C639 1.403 . S
C637 C634 1.403 . S
C637 C638 1.524 . S
C637 C641 1.400 . S
C638 H623 0.960 . S
C638 H624 0.960 . S
C638 H625 0.960 . S
C638 C637 1.524 . S
C639 C636 1.403 . S
C639 C640 1.392 . S
C639 C643 1.495 . S
C640 C639 1.392 . S
C640 C641 1.385 . S
C640 C642 1.478 . S
C641 H635 0.930 . S
C641 C637 1.400 . S
C641 C640 1.385 . S
C642 C640 1.478 . S
C642 C644 1.381 . S
C642 C648 1.383 . S
C643 C639 1.495 . S
C643 H649 0.959 . S
C643 H650 0.961 . S
C643 H651 0.960 . S
C644 C642 1.381 . S
C644 C645 1.394 . S
C644 H652 0.930 . S
C645 C644 1.394 . S
C645 C646 1.383 . S
C645 H653 0.929 . S
C646 C645 1.383 . S
C646 C647 1.377 . S
C647 H631 0.930 . S
C647 C646 1.377 . S
C647 C648 1.379 . S
C648 H632 0.931 . S
C648 C642 1.383 . S
C648 C647 1.379 . S
H649 C643 0.959 . S
H650 C643 0.961 . S
H651 C643 0.960 . S
H652 C644 0.930 . S
H653 C645 0.929 . S
H654 C662 0.929 . S
H655 C664 0.930 . S
H656 C666 0.930 . S
H657 C669 0.929 . S
H658 C672 0.930 . S
H659 C674 0.960 . S
H660 C674 0.960 . S
H661 C674 0.960 . S
C662 H654 0.929 . S
C662 C663 1.377 1_565 S
C662 C664 1.384 . S
C663 C662 1.377 1_545 S
C663 C669 1.390 . S
C664 H655 0.930 . S
C664 C662 1.384 . S
C664 C665 1.372 1_565 S
C665 C664 1.372 1_545 S
C665 C666 1.400 . S
C665 C670 1.490 . S
C666 H656 0.930 . S
C666 C665 1.400 . S
C666 C669 1.386 . S
H667 C683 0.930 . S
H668 C684 0.931 . S
C669 H657 0.929 . S
C669 C663 1.390 . S
C669 C666 1.386 . S
C670 C665 1.490 . S
C670 C672 1.395 1_545 S
C670 C673 1.403 . S
H671 C677 0.930 . S
C672 H658 0.930 . S
C672 C670 1.395 1_565 S
C672 C675 1.403 . S
C673 C670 1.403 . S
C673 C674 1.524 . S
C673 C677 1.400 . S
C674 H659 0.960 . S
C674 H660 0.960 . S
C674 H661 0.960 . S
C674 C673 1.524 . S
C675 C672 1.403 . S
C675 C676 1.392 1_565 S
C675 C679 1.495 . S
C676 C675 1.392 1_545 S
C676 C677 1.385 . S
C676 C678 1.478 . S
C677 H671 0.930 . S
C677 C673 1.400 . S
C677 C676 1.385 . S
C678 C676 1.478 . S
C678 C680 1.381 1_545 S
C678 C684 1.383 . S
C679 C675 1.495 . S
C679 H685 0.959 . S
C679 H686 0.961 . S
C679 H687 0.960 . S
C680 C678 1.381 1_565 S
C680 C681 1.394 . S
C680 H688 0.930 . S
C681 C680 1.394 . S
C681 C682 1.383 1_565 S
C681 H689 0.929 . S
C682 C681 1.383 1_545 S
C682 C683 1.377 . S
C683 H667 0.930 . S
C683 C682 1.377 . S
C683 C684 1.379 . S
C684 H668 0.931 . S
C684 C678 1.383 . S
C684 C683 1.379 . S
H685 C679 0.959 . S
H686 C679 0.961 . S
H687 C679 0.960 . S
H688 C680 0.930 . S
H689 C681 0.929 . S
H690 C698 0.929 . S
H691 C700 0.930 . S
H692 C702 0.930 . S
H693 C705 0.929 . S
H694 C708 0.930 . S
H695 C710 0.960 . S
H696 C710 0.960 . S
H697 C710 0.960 . S
C698 H690 0.929 . S
C698 C699 1.377 . S
C698 C700 1.384 . S
C699 C698 1.377 . S
C699 C705 1.390 . S
C700 H691 0.930 . S
C700 C698 1.384 . S
C700 C701 1.372 . S
C701 C700 1.372 . S
C701 C702 1.400 . S
C701 C706 1.490 . S
C702 H692 0.930 . S
C702 C701 1.400 . S
C702 C705 1.386 . S
H703 C719 0.930 . S
H704 C720 0.931 . S
C705 H693 0.929 . S
C705 C699 1.390 . S
C705 C702 1.386 . S
C706 C701 1.490 . S
C706 C708 1.395 . S
C706 C709 1.403 . S
H707 C713 0.930 . S
C708 H694 0.930 . S
C708 C706 1.395 . S
C708 C711 1.403 . S
C709 C706 1.403 . S
C709 C710 1.524 . S
C709 C713 1.400 . S
C710 H695 0.960 . S
C710 H696 0.960 . S
C710 H697 0.960 . S
C710 C709 1.524 . S
C711 C708 1.403 . S
C711 C712 1.392 . S
C711 C715 1.495 . S
C712 C711 1.392 . S
C712 C713 1.385 . S
C712 C714 1.478 1_556 S
C713 H707 0.930 . S
C713 C709 1.400 . S
C713 C712 1.385 . S
C714 C712 1.478 1_554 S
C714 C716 1.381 . S
C714 C720 1.383 . S
C715 C711 1.495 . S
C715 H721 0.959 . S
C715 H722 0.961 . S
C715 H723 0.960 . S
C716 C714 1.381 . S
C716 C717 1.394 . S
C716 H724 0.930 . S
C717 C716 1.394 . S
C717 C718 1.383 . S
C717 H725 0.929 . S
C718 C717 1.383 . S
C718 C719 1.377 . S
C719 H703 0.930 . S
C719 C718 1.377 . S
C719 C720 1.379 . S
C720 H704 0.931 . S
C720 C714 1.383 . S
C720 C719 1.379 . S
H721 C715 0.959 . S
H722 C715 0.961 . S
H723 C715 0.960 . S
H724 C716 0.930 . S
H725 C717 0.929 . S
H726 C734 0.929 . S
H727 C736 0.930 . S
H728 C738 0.930 . S
H729 C741 0.929 . S
H730 C744 0.930 . S
H731 C746 0.960 . S
H732 C746 0.960 . S
H733 C746 0.960 . S
C734 H726 0.929 . S
C734 C735 1.378 . S
C734 C736 1.384 . S
C735 C734 1.378 . S
C735 C741 1.390 1_655 S
C736 H727 0.930 . S
C736 C734 1.384 . S
C736 C737 1.372 1_655 S
C737 C736 1.372 1_455 S
C737 C738 1.400 . S
C737 C742 1.490 . S
C738 H728 0.930 . S
C738 C737 1.400 . S
C738 C741 1.386 . S
H739 C755 0.930 . S
H740 C756 0.931 . S
C741 H729 0.929 . S
C741 C735 1.390 1_455 S
C741 C738 1.386 . S
C742 C737 1.490 . S
C742 C744 1.395 . S
C742 C745 1.403 1_455 S
H743 C749 0.930 . S
C744 H730 0.930 . S
C744 C742 1.395 . S
C744 C747 1.403 . S
C745 C742 1.403 1_655 S
C745 C746 1.524 . S
C745 C749 1.400 . S
C746 H731 0.960 . S
C746 H732 0.960 . S
C746 H733 0.960 . S
C746 C745 1.524 . S
C747 C744 1.403 . S
C747 C748 1.392 . S
C747 C751 1.495 . S
C748 C747 1.392 . S
C748 C749 1.385 1_455 S
C748 C750 1.478 . S
C749 H743 0.930 . S
C749 C745 1.400 . S
C749 C748 1.385 1_655 S
C750 C748 1.478 . S
C750 C752 1.381 . S
C750 C756 1.383 . S
C751 C747 1.495 . S
C751 H757 0.959 . S
C751 H758 0.961 . S
C751 H759 0.960 . S
C752 C750 1.381 . S
C752 C753 1.394 . S
C752 H760 0.927 . S
C753 C752 1.394 . S
C753 C754 1.383 . S
C753 H761 0.929 1_455 S
C754 C753 1.383 . S
C754 C755 1.377 . S
C755 H739 0.930 . S
C755 C754 1.377 . S
C755 C756 1.379 . S
C756 H740 0.931 . S
C756 C750 1.383 . S
C756 C755 1.379 . S
H757 C751 0.959 . S
H758 C751 0.961 . S
H759 C751 0.960 . S
H760 C752 0.927 . S
H761 C753 0.929 1_655 S
C123 C2 1.271 . S
C142 C109 1.327 . S
C159 C22 1.263 . S
C178 C91 1.327 . S
C195 C44 1.256 . S
C214 C103 1.360 . S
C231 C4 1.383 . S
C250 C112 1.489 . S
C286 C94 1.496 . S
C267 C24 1.409 . S
C322 C100 1.455 . S
C303 C42 1.384 . S
C339 C32 1.189 . S
C358 C73 1.236 . S
C375 C49 1.172 . S
C394 C82 1.169 1_655 S
C411 C9 1.152 . S
C430 C64 1.182 . S
C466 C76 1.131 . S
C447 C29 1.128 . S
C502 C85 1.188 . S
C483 C52 1.139 . S
C519 C12 1.128 . S
C538 C67 1.197 . S
C574 C83 1.432 . S
C555 C18 1.425 1_455 S
C591 C38 1.423 . S
C610 C65 1.434 . S
C627 C58 1.417 . S
C646 C74 1.434 . S
C682 C101 1.501 . S
C663 C39 1.489 . S
C718 C110 1.489 . S
C699 C59 1.470 . S
C735 C19 1.469 1_655 S
C754 C92 1.488 . S
