# Generated by pormake.
# Topology sqc, (4,8)-cn, num edge types: 1
# Building blocks:
#     Node 0, Type 0, BuildingBlock: NAWXER_clean_linker_0, # of connection points: 4
#     Node 1, Type 0, BuildingBlock: NAWXER_clean_linker_0, # of connection points: 4
#     Node 2, Type 0, BuildingBlock: NAWXER_clean_linker_0, # of connection points: 4
#     Node 3, Type 0, BuildingBlock: NAWXER_clean_linker_0, # of connection points: 4
#     Node 4, Type 0, BuildingBlock: NAWXER_clean_linker_0, # of connection points: 4
#     Node 5, Type 0, BuildingBlock: NAWXER_clean_linker_0, # of connection points: 4
#     Node 6, Type 0, BuildingBlock: NAWXER_clean_linker_0, # of connection points: 4
#     Node 7, Type 0, BuildingBlock: NAWXER_clean_linker_0, # of connection points: 4
#     Node 8, Type 1, BuildingBlock: TAGTUT_clean_sbu_3, # of connection points: 8
#     Node 9, Type 1, BuildingBlock: TAGTUT_clean_sbu_3, # of connection points: 8
#     Node 10, Type 1, BuildingBlock: TAGTUT_clean_sbu_3, # of connection points: 8
#     Node 11, Type 1, BuildingBlock: TAGTUT_clean_sbu_3, # of connection points: 8
#     Edge 12, Type (0, 1), None
#     Edge 13, Type (0, 1), None
#     Edge 14, Type (0, 1), None
#     Edge 15, Type (0, 1), None
#     Edge 16, Type (0, 1), None
#     Edge 17, Type (0, 1), None
#     Edge 18, Type (0, 1), None
#     Edge 19, Type (0, 1), None
#     Edge 20, Type (0, 1), None
#     Edge 21, Type (0, 1), None
#     Edge 22, Type (0, 1), None
#     Edge 23, Type (0, 1), None
#     Edge 24, Type (0, 1), None
#     Edge 25, Type (0, 1), None
#     Edge 26, Type (0, 1), None
#     Edge 27, Type (0, 1), None
#     Edge 28, Type (0, 1), None
#     Edge 29, Type (0, 1), None
#     Edge 30, Type (0, 1), None
#     Edge 31, Type (0, 1), None
#     Edge 32, Type (0, 1), None
#     Edge 33, Type (0, 1), None
#     Edge 34, Type (0, 1), None
#     Edge 35, Type (0, 1), None
#     Edge 36, Type (0, 1), None
#     Edge 37, Type (0, 1), None
#     Edge 38, Type (0, 1), None
#     Edge 39, Type (0, 1), None
#     Edge 40, Type (0, 1), None
#     Edge 41, Type (0, 1), None
#     Edge 42, Type (0, 1), None
#     Edge 43, Type (0, 1), None
# Relax obj value: 0.130
# Max RMSD: 0.251
# Mean RMSD: 0.155
data_MOF--net-sqc--node1-TAGTUT_clean_sbu_3--node2-NAWXER_clean_linker_0--edge1-none
_symmetry_space_group_name_H-M    P1
_symmetry_Int_Tables_number       1
_symmetry_cell_setting            triclinic
loop_
_symmetry_equiv_pos_as_xyz
'x, y, z'
_cell_length_a     16.151727
_cell_length_b     16.081784
_cell_length_c     48.850209
_cell_angle_alpha  91.168355
_cell_angle_beta   89.796874
_cell_angle_gamma 90.292933
loop_
_atom_site_label
_atom_site_type_symbol
_atom_site_fract_x
_atom_site_fract_y
_atom_site_fract_z
_atom_type_partial_charge
C0 C 0.31451 0.96293 0.44911 0.0
C1 C 0.31857 0.8831 0.4369 0.0
C2 C 0.24428 0.98719 0.46418 0.0
C3 C 0.17808 0.93121 0.46785 0.0
C4 C 0.25331 0.8267 0.44149 0.0
C5 C 0.18411 0.85042 0.4568 0.0
C6 C 0.10035 0.95605 0.48191 0.0
C7 C 0.30826 -0.00882 0.54332 0.0
C8 C 0.31076 0.0721 0.55475 0.0
C9 C 0.23926 0.96406 0.52822 0.0
C10 C 0.17273 0.01818 0.52373 0.0
C11 C 0.24472 0.12633 0.54971 0.0
C12 C 0.17664 0.09968 0.53436 0.0
C13 C 0.09777 -0.00865 0.50853 0.0
C14 C 0.8009 0.00412 0.56645 0.0
C15 C 0.74826 0.06774 0.55801 0.0
C16 C 0.86243 0.97345 0.54891 0.0
C17 C 0.87188 0.00537 0.52257 0.0
C18 C 0.75202 0.09356 0.53074 0.0
C19 C 0.81373 0.06269 0.51309 0.0
C20 C 0.94955 0.98849 0.50737 0.0
C21 C 0.81711 0.9515 0.41775 0.0
C22 C 0.75793 0.89138 0.42477 0.0
C23 C 0.87661 0.97777 0.43666 0.0
C24 C 0.87783 0.94476 0.463 0.0
C25 C 0.75401 0.86414 0.45189 0.0
C26 C 0.81392 0.89055 0.47094 0.0
C27 C 0.95223 0.95872 0.4801 0.0
H28 H 0.36265 0.00849 0.44539 0.0
H29 H 0.24044 0.05049 0.47205 0.0
H30 H 0.25349 0.76538 0.43192 0.0
H31 H 0.13397 0.80615 0.45934 0.0
H32 H 0.35717 0.94734 0.54739 0.0
H33 H 0.237 0.90032 0.52066 0.0
H34 H 0.24411 0.18868 0.55852 0.0
H35 H 0.12625 0.1426 0.53114 0.0
H36 H 0.80041 0.98475 0.58757 0.0
H37 H 0.90655 0.92922 0.55664 0.0
H38 H 0.71386 0.14449 0.52408 0.0
H39 H 0.8205 0.08918 0.49299 0.0
H40 H 0.82227 0.97207 0.39681 0.0
H41 H 0.92511 0.01982 0.43012 0.0
H42 H 0.71046 0.8159 0.45751 0.0
H43 H 0.8142 0.8634 0.49104 0.0
N44 N 0.02749 0.94212 0.46863 0.0
N45 N 0.02247 0.00519 0.52034 0.0
C46 C 0.51184 0.42891 0.69764 0.0
C47 C 0.449 0.39711 0.6805 0.0
C48 C 0.49283 0.48781 0.71815 0.0
C49 C 0.41103 0.51498 0.72167 0.0
C50 C 0.36748 0.42521 0.68407 0.0
C51 C 0.3491 0.4847 0.70412 0.0
C52 C 0.39353 0.5901 0.73787 0.0
C53 C 0.24819 0.39542 0.78675 0.0
C54 C 0.26952 0.3964 0.81453 0.0
C55 C 0.28102 0.45529 0.76935 0.0
C56 C 0.33727 0.51547 0.77938 0.0
C57 C 0.33085 0.45195 0.82399 0.0
C58 C 0.36453 0.511 0.80653 0.0
C59 C 0.35544 0.5913 0.76379 0.0
C60 C 0.20639 0.8895 0.80063 0.0
C61 C 0.25974 0.95757 0.80569 0.0
C62 C 0.23358 0.81996 0.78571 0.0
C63 C 0.31418 0.81733 0.77506 0.0
C64 C 0.33889 0.95714 0.79362 0.0
C65 C 0.36601 0.88736 0.77846 0.0
C66 C 0.34403 0.73948 0.76175 0.0
C67 C 0.47524 0.87137 0.68239 0.0
C68 C 0.40874 0.92295 0.67579 0.0
C69 C 0.46769 0.81518 0.70341 0.0
C70 C 0.39332 0.8087 0.71808 0.0
C71 C 0.33485 0.91842 0.69095 0.0
C72 C 0.32669 0.86061 0.71174 0.0
C73 C 0.38251 0.73707 0.73585 0.0
H74 H 0.57519 0.40808 0.69528 0.0
H75 H 0.54213 0.51413 0.73062 0.0
H76 H 0.31804 0.40264 0.6709 0.0
H77 H 0.28684 0.50939 0.70527 0.0
H78 H 0.19868 0.35533 0.7793 0.0
H79 H 0.25574 0.45927 0.74902 0.0
H80 H 0.3465 0.45518 0.84555 0.0
H81 H 0.40709 0.55728 0.8148 0.0
H82 H 0.14476 0.88804 0.80945 0.0
H83 H 0.19215 0.7672 0.78306 0.0
H84 H 0.38174 0.00809 0.79739 0.0
H85 H 0.42872 0.88656 0.77054 0.0
H86 H 0.53371 0.87492 0.67151 0.0
H87 H 0.51946 0.77491 0.70775 0.0
H88 H 0.283 0.95817 0.68632 0.0
H89 H 0.26758 0.85442 0.72205 0.0
N90 N 0.4057 0.66267 0.72508 0.0
N91 N 0.33235 0.66625 0.77487 0.0
C92 C 0.40206 -0.00695 0.94871 0.0
C93 C 0.39943 0.06422 0.93255 0.0
C94 C 0.46003 0.98777 0.96976 0.0
C95 C 0.51466 0.05433 0.97515 0.0
C96 C 0.45097 0.13229 0.93908 0.0
C97 C 0.50763 0.12751 0.96027 0.0
C98 C 0.59186 0.04075 0.99009 0.0
C99 C 0.41041 0.02405 0.05997 0.0
C100 C 0.41256 0.95001 0.07481 0.0
C101 C 0.46845 0.03838 0.03934 0.0
C102 C 0.5286 0.97828 0.03305 0.0
C103 C 0.47346 0.89061 0.0686 0.0
C104 C 0.53051 0.90446 0.04786 0.0
C105 C 0.59797 -0.00377 0.01453 0.0
C106 C 0.94327 -0.00739 0.04691 0.0
C107 C 0.94662 0.9096 0.05558 0.0
C108 C 0.8809 0.01786 0.02941 0.0
C109 C 0.82133 0.96044 0.02035 0.0
C110 C 0.89035 0.8512 0.04473 0.0
C111 C 0.82771 0.87668 0.02735 0.0
C112 C 0.74382 -0.01053 0.00873 0.0
C113 C 0.91795 0.00876 0.93752 0.0
C114 C 0.92914 0.08987 0.9278 0.0
C115 C 0.8582 -0.00748 0.95724 0.0
C116 C 0.80875 0.05704 0.96762 0.0
C117 C 0.87956 0.15446 0.93834 0.0
C118 C 0.81926 0.13795 0.95799 0.0
C119 C 0.73833 0.03824 0.98536 0.0
H120 H 0.36179 0.94039 0.94436 0.0
H121 H 0.46581 0.92974 0.98044 0.0
H122 H 0.44836 0.18919 0.92761 0.0
H123 H 0.5496 0.17934 0.96397 0.0
H124 H 0.36379 0.07078 0.06423 0.0
H125 H 0.4676 0.09718 0.02894 0.0
H126 H 0.47599 0.83227 0.07926 0.0
H127 H 0.57698 0.85751 0.04359 0.0
H128 H 0.98667 0.03909 0.05451 0.0
H129 H 0.87601 0.08304 0.02448 0.0
H130 H 0.89281 0.7867 0.05045 0.0
H131 H 0.78178 0.83193 0.02031 0.0
H132 H 0.95501 0.9574 0.92981 0.0
H133 H 0.84888 0.92908 0.96368 0.0
H134 H 0.88769 0.2176 0.9316 0.0
H135 H 0.78039 0.18816 0.96557 0.0
N136 N 0.66256 0.06108 0.97674 0.0
N137 N 0.67383 0.97181 0.02267 0.0
C138 C 0.30103 0.01048 0.20595 0.0
C139 C 0.22226 0.00544 0.19388 0.0
C140 C 0.32488 0.08216 0.22081 0.0
C141 C 0.26994 0.1494 0.22412 0.0
C142 C 0.16534 0.06984 0.19931 0.0
C143 C 0.18906 0.14109 0.21411 0.0
C144 C 0.29868 0.23147 0.23498 0.0
C145 C 0.31446 0.06704 0.30774 0.0
C146 C 0.3922 0.06353 0.32042 0.0
C147 C 0.30049 0.12356 0.28703 0.0
C148 C 0.36488 0.17558 0.27814 0.0
C149 C 0.45556 0.11767 0.3122 0.0
C150 C 0.44207 0.17292 0.29117 0.0
C151 C 0.34968 0.24114 0.25823 0.0
C152 C 0.35001 0.58381 0.29149 0.0
C153 C 0.43272 0.59231 0.30022 0.0
C154 C 0.32755 0.52116 0.27286 0.0
C155 C 0.38739 0.46621 0.2625 0.0
C156 C 0.49333 0.54077 0.28832 0.0
C157 C 0.47065 0.47771 0.26973 0.0
C158 C 0.36107 0.3863 0.2504 0.0
C159 C 0.30196 0.55987 0.18001 0.0
C160 C 0.21628 0.56875 0.17664 0.0
C161 C 0.33245 0.50112 0.19825 0.0
C162 C 0.27725 0.45003 0.21271 0.0
C163 C 0.1618 0.52228 0.19286 0.0
C164 C 0.19197 0.46287 0.21051 0.0
C165 C 0.30661 0.3782 0.22817 0.0
H166 H 0.3467 0.9627 0.20184 0.0
H167 H 0.38807 0.08722 0.22801 0.0
H168 H 0.10422 0.06822 0.19026 0.0
H169 H 0.14531 0.19161 0.21654 0.0
H170 H 0.26459 0.02594 0.31379 0.0
H171 H 0.23905 0.12737 0.27837 0.0
H172 H 0.51654 0.11541 0.32133 0.0
H173 H 0.49217 0.21372 0.28506 0.0
H174 H 0.30162 0.62312 0.29994 0.0
H175 H 0.26258 0.51196 0.26819 0.0
H176 H 0.55763 0.54745 0.29401 0.0
H177 H 0.51737 0.43516 0.262 0.0
H178 H 0.34482 0.59348 0.16714 0.0
H179 H 0.39863 0.49164 0.19965 0.0
H180 H 0.09538 0.52706 0.19016 0.0
H181 H 0.14851 0.42435 0.22158 0.0
N182 N 0.27808 0.30091 0.22104 0.0
N183 N 0.37969 0.31777 0.26466 0.0
C184 C 0.98197 0.92219 0.19761 0.0
C185 C 0.92389 0.89128 0.1786 0.0
C186 C 0.95878 0.98331 0.21681 0.0
C187 C 0.87764 0.01355 0.21702 0.0
C188 C 0.84205 0.92005 0.17959 0.0
C189 C 0.81954 0.98163 0.19839 0.0
C190 C 0.85915 0.09257 0.23057 0.0
C191 C 0.72967 0.90336 0.28469 0.0
C192 C 0.75039 0.91218 0.31243 0.0
C193 C 0.7571 0.96231 0.26595 0.0
C194 C 0.80714 0.02967 0.27464 0.0
C195 C 0.80502 0.97603 0.3207 0.0
C196 C 0.83314 0.03424 0.30198 0.0
C197 C 0.82351 0.10104 0.25669 0.0
C198 C 0.68237 0.40507 0.28774 0.0
C199 C 0.73801 0.47167 0.29218 0.0
C200 C 0.70622 0.33452 0.27287 0.0
C201 C 0.78599 0.32889 0.2618 0.0
C202 C 0.81579 0.46904 0.27917 0.0
C203 C 0.83979 0.39779 0.26411 0.0
C204 C 0.81362 0.24792 0.25034 0.0
C205 C 0.94782 0.36159 0.16854 0.0
C206 C 0.88515 0.41806 0.16219 0.0
C207 C 0.93669 0.30601 0.18962 0.0
C208 C 0.86257 0.30516 0.20465 0.0
C209 C 0.81049 0.41695 0.17707 0.0
C210 C 0.79883 0.36007 0.19797 0.0
C211 C 0.84969 0.23815 0.2242 0.0
H212 H 0.04514 0.89995 0.19742 0.0
H213 H 0.0049 0.00989 0.23051 0.0
H214 H 0.79612 0.8974 0.16511 0.0
H215 H 0.75762 0.00718 0.19759 0.0
H216 H 0.68527 0.85648 0.27805 0.0
H217 H 0.7332 0.95878 0.24534 0.0
H218 H 0.82035 0.985 0.34215 0.0
H219 H 0.87129 0.08573 0.3092 0.0
H220 H 0.62227 0.40442 0.29762 0.0
H221 H 0.66346 0.28252 0.27112 0.0
H222 H 0.86046 0.51864 0.28251 0.0
H223 H 0.90196 0.39452 0.25579 0.0
H224 H 0.00667 0.36192 0.15783 0.0
H225 H 0.98619 0.26318 0.19415 0.0
H226 H 0.7613 0.46011 0.1726 0.0
H227 H 0.73969 0.35804 0.20844 0.0
N228 N 0.87099 0.16093 0.21548 0.0
N229 N 0.80223 0.17882 0.26571 0.0
C230 C 0.74181 0.07624 0.69755 0.0
C231 C 0.76434 0.07669 0.66982 0.0
C232 C 0.7749 0.01675 0.71486 0.0
C233 C 0.83254 0.95836 0.70482 0.0
C234 C 0.82661 0.02266 0.66033 0.0
C235 C 0.86051 0.96401 0.67771 0.0
C236 C 0.85189 0.88298 0.72037 0.0
C237 C 0.01305 0.04479 0.78602 0.0
C238 C 0.95032 0.07726 0.80307 0.0
C239 C -0.00664 0.98642 0.76541 0.0
C240 C 0.91101 0.96049 0.76169 0.0
C241 C 0.86826 0.05037 0.79931 0.0
C242 C 0.84918 -0.00853 0.77916 0.0
C243 C 0.89263 0.88503 0.74576 0.0
C244 C 0.97794 0.60436 0.80095 0.0
C245 C 0.912 0.55163 0.80789 0.0
C246 C 0.96901 0.66109 0.78016 0.0
C247 C 0.89385 0.66686 0.7661 0.0
C248 C 0.8372 0.55582 0.79343 0.0
C249 C 0.8277 0.61408 0.77291 0.0
C250 C 0.88199 0.73805 0.74825 0.0
C251 C 0.70193 0.58137 0.6858 0.0
C252 C 0.75557 0.51422 0.68038 0.0
C253 C 0.72957 0.6518 0.70023 0.0
C254 C 0.81093 0.65621 0.71 0.0
C255 C 0.8355 0.51637 0.69167 0.0
C256 C 0.86309 0.58705 0.70631 0.0
C257 C 0.84118 0.73477 0.72283 0.0
H258 H 0.69153 0.11499 0.70501 0.0
H259 H 0.74904 0.01168 0.73515 0.0
H260 H 0.84315 0.02041 0.6388 0.0
H261 H 0.90405 0.91899 0.6694 0.0
H262 H 0.07682 0.06462 0.78855 0.0
H263 H 0.04252 0.95935 0.75305 0.0
H264 H 0.81886 0.07334 0.81245 0.0
H265 H 0.78652 0.96726 0.77804 0.0
H266 H 0.03695 0.60121 0.81136 0.0
H267 H 0.02043 0.70209 0.77549 0.0
H268 H 0.78567 0.51538 0.79839 0.0
H269 H 0.76796 0.61977 0.76315 0.0
H270 H 0.63977 0.5815 0.67752 0.0
H271 H 0.68791 0.70388 0.70315 0.0
H272 H 0.87859 0.46623 0.68756 0.0
H273 H 0.92638 0.58922 0.71356 0.0
N274 N 0.82804 0.80758 0.70971 0.0
N275 N 0.90615 0.81287 0.75855 0.0
C276 C 0.80656 0.48523 0.93868 0.0
C277 C 0.8092 0.40368 0.92781 0.0
C278 C 0.73703 0.51287 0.95342 0.0
C279 C 0.67004 0.45871 0.95815 0.0
C280 C 0.74237 0.3496 0.93289 0.0
C281 C 0.67373 0.37679 0.94791 0.0
C282 C 0.59569 0.48565 0.97374 0.0
C283 C 0.81441 0.51433 0.03202 0.0
C284 C 0.81984 0.59474 0.04374 0.0
C285 C 0.74356 0.48982 0.01737 0.0
C286 C 0.67833 0.54615 0.01365 0.0
C287 C 0.75578 0.65149 0.03891 0.0
C288 C 0.68607 0.62755 0.02402 0.0
C289 C 0.59979 0.52124 0.00026 0.0
C290 C 0.3216 0.53249 0.06695 0.0
C291 C 0.26055 0.5897 0.05976 0.0
C292 C 0.3799 0.50523 0.04772 0.0
C293 C 0.37847 0.53461 0.02089 0.0
C294 C 0.25426 0.6136 0.03234 0.0
C295 C 0.31323 0.58649 0.01299 0.0
C296 C 0.45177 0.51971 0.00315 0.0
C297 C 0.29738 0.47325 0.91773 0.0
C298 C 0.24558 0.40848 0.9263 0.0
C299 C 0.35899 0.50479 0.93504 0.0
C300 C 0.3692 0.47261 0.96128 0.0
C301 C 0.24978 0.38268 0.95356 0.0
C302 C 0.31151 0.41447 0.97099 0.0
C303 C 0.44759 0.48942 0.97593 0.0
H304 H 0.85598 0.52901 0.93452 0.0
H305 H 0.73498 0.57693 0.96066 0.0
H306 H 0.74183 0.28678 0.92446 0.0
H307 H 0.62299 0.33383 0.95134 0.0
H308 H 0.86158 0.46854 0.036 0.0
H309 H 0.73835 0.42612 0.00992 0.0
H310 H 0.75679 0.71305 0.04827 0.0
H311 H 0.63667 0.67204 0.0214 0.0
H312 H 0.32848 0.51434 0.08807 0.0
H313 H 0.4294 0.46509 0.0543 0.0
H314 H 0.20913 0.65955 0.02652 0.0
H315 H 0.31148 0.61124 -0.00745 0.0
H316 H 0.29654 0.49264 0.89661 0.0
H317 H 0.40281 0.54966 0.92716 0.0
H318 H 0.2122 0.33094 0.96032 0.0
H319 H 0.31888 0.38792 0.99103 0.0
N320 N 0.51973 0.47198 0.96248 0.0
N321 N 0.52779 0.53593 0.01402 0.0
C322 C 0.90671 0.48859 0.53925 0.0
C323 C 0.90374 0.41635 0.5549 0.0
C324 C 0.96477 0.49561 0.51818 0.0
C325 C 0.01918 0.42975 0.51226 0.0
C326 C 0.95561 0.34929 0.54801 0.0
C327 C 0.01241 0.35581 0.52679 0.0
C328 C 0.09538 0.44422 0.49668 0.0
C329 C 0.91139 0.46219 0.42808 0.0
C330 C 0.9136 0.53641 0.41334 0.0
C331 C 0.96947 0.44816 0.44853 0.0
C332 C 0.02963 0.50879 0.45478 0.0
C333 C 0.97383 0.59682 0.41971 0.0
C334 C 0.03093 0.58327 0.4403 0.0
C335 C 0.10008 0.49033 0.47254 0.0
C336 C 0.44097 0.48857 0.43545 0.0
C337 C 0.4454 0.57136 0.42657 0.0
C338 C 0.38018 0.46465 0.45394 0.0
C339 C 0.3232 0.52313 0.46379 0.0
C340 C 0.39142 0.6307 0.43792 0.0
C341 C 0.33032 0.60655 0.45631 0.0
C342 C 0.24647 0.4953 0.47656 0.0
C343 C 0.42641 0.46806 0.54559 0.0
C344 C 0.43395 0.3869 0.55557 0.0
C345 C 0.36683 0.48614 0.52617 0.0
C346 C 0.31382 0.42343 0.51633 0.0
C347 C 0.38151 0.3239 0.54533 0.0
C348 C 0.3214 0.34225 0.52598 0.0
C349 C 0.24225 0.44482 0.49962 0.0
H350 H 0.86625 0.54054 0.5439 0.0
H351 H 0.97048 0.55423 0.50779 0.0
H352 H 0.95283 0.29167 0.55911 0.0
H353 H 0.05426 0.30452 0.52268 0.0
H354 H 0.86517 0.41477 0.42369 0.0
H355 H 0.96899 0.38895 0.45869 0.0
H356 H 0.97614 0.65539 0.40916 0.0
H357 H 0.07736 0.63065 0.44457 0.0
H358 H 0.48254 0.44132 0.42743 0.0
H359 H 0.37441 0.39966 0.45912 0.0
H360 H 0.3949 0.69507 0.43208 0.0
H361 H 0.28616 0.65216 0.46382 0.0
H362 H 0.46586 0.51828 0.55298 0.0
H363 H 0.36007 0.54981 0.51974 0.0
H364 H 0.38675 0.26073 0.55227 0.0
H365 H 0.2799 0.29337 0.51882 0.0
N366 N 0.16681 0.42229 0.509 0.0
N367 N 0.17557 0.5146 0.46365 0.0
C368 C 0.18205 0.60453 0.15179 0.0
C369 C 0.90297 0.48459 0.14286 0.0
C370 C 0.8785 0.6132 0.06622 0.0
Mg371 Mg 0.26655 0.77579 0.13219 0.0
Mg372 Mg 0.16294 0.93671 0.11042 0.0
O373 O 0.17705 0.82228 0.10943 0.0
Mg374 Mg 0.08794 0.74189 0.11678 0.0
O375 O 0.00624 0.65376 0.12407 0.0
Mg376 Mg 0.05218 0.56022 0.1017 0.0
Mg377 Mg 0.89257 0.6661 0.12613 0.0
C378 C 0.00737 0.88559 0.07631 0.0
O379 O 0.02203 0.82262 0.14978 0.0
O380 O 0.35273 0.86387 0.1084 0.0
O381 O 0.88884 0.77902 0.14961 0.0
O382 O 0.24982 0.88085 0.16694 0.0
O383 O 0.27741 0.96876 0.09197 0.0
O384 O 0.1599 0.97448 0.15181 0.0
O385 O 0.14608 0.65542 0.08338 0.0
O386 O 0.27652 0.67941 0.09749 0.0
C387 C 0.22446 0.64208 0.08169 0.0
C388 C 0.34539 0.92913 0.09387 0.0
O389 O 0.01035 0.80971 0.08422 0.0
O390 O 0.96492 0.47579 0.12651 0.0
O391 O 0.05547 0.94274 0.08567 0.0
O392 O 0.94723 0.57356 0.06818 0.0
O393 O 0.86505 0.55354 0.14624 0.0
O394 O 0.85054 0.65909 0.08564 0.0
O395 O 0.17001 0.68322 0.15005 0.0
O396 O 0.14568 0.55189 0.13587 0.0
C397 C 0.20654 0.94728 0.17051 0.0
C398 C 0.94657 0.82777 0.15809 0.0
C399 C 0.72478 0.83809 0.40264 0.0
C400 C 0.84788 0.55557 0.39378 0.0
C401 C 0.72159 0.53026 0.31533 0.0
Mg402 Mg 0.55672 0.91968 0.38075 0.0
Mg403 Mg 0.39887 0.81349 0.355 0.0
O404 O 0.51269 0.82679 0.35741 0.0
Mg405 Mg 0.59227 0.73812 0.36562 0.0
O406 O 0.68014 0.65815 0.37405 0.0
Mg407 Mg 0.77432 0.70475 0.35303 0.0
Mg408 Mg 0.66851 0.54382 0.37487 0.0
C409 C 0.45416 0.65424 0.32179 0.0
O410 O 0.51009 0.66994 0.39728 0.0
O411 O 0.47353 0.00511 0.35531 0.0
O412 O 0.55703 0.53797 0.39769 0.0
O413 O 0.4473 0.90554 0.41297 0.0
O414 O 0.37234 0.92764 0.33597 0.0
O415 O 0.35304 0.81724 0.39533 0.0
O416 O 0.68121 0.79744 0.33399 0.0
O417 O 0.6568 0.92871 0.34835 0.0
C418 C 0.69576 0.87613 0.33316 0.0
C419 C 0.41109 -0.00348 0.33928 0.0
O420 O 0.52844 0.65779 0.33135 0.0
O421 O 0.85725 0.61868 0.37835 0.0
O422 O 0.39651 0.70319 0.33 0.0
O423 O 0.76257 0.59875 0.31836 0.0
O424 O 0.77941 0.51617 0.39569 0.0
O425 O 0.67483 0.50254 0.3341 0.0
O426 O 0.64673 0.82387 0.3999 0.0
O427 O 0.77911 0.80114 0.38765 0.0
C428 C 0.37878 0.86468 0.41471 0.0
C429 C 0.5069 0.59465 0.4058 0.0
C430 C 0.70398 0.10641 0.65002 0.0
C431 C 0.42063 0.98581 0.65482 0.0
C432 C 0.37246 0.09512 0.57592 0.0
Mg433 Mg 0.77756 0.27112 0.6238 0.0
Mg434 Mg 0.66855 0.42717 0.6005 0.0
O435 O 0.67987 0.31307 0.60381 0.0
Mg436 Mg 0.59409 0.23516 0.61639 0.0
O437 O 0.51608 0.14922 0.62888 0.0
Mg438 Mg 0.556 0.05098 0.60727 0.0
Mg439 Mg 0.40273 0.16248 0.63373 0.0
C440 C 0.49922 0.36861 0.5755 0.0
O441 O 0.53875 0.32354 0.6497 0.0
O442 O 0.85477 0.34955 0.59432 0.0
O443 O 0.40597 0.28099 0.65441 0.0
O444 O 0.77265 0.38366 0.65594 0.0
O445 O 0.77462 0.44665 0.57543 0.0
O446 O 0.6847 0.47835 0.64013 0.0
O447 O 0.64159 0.14096 0.58325 0.0
O448 O 0.77591 0.16744 0.59176 0.0
C449 C 0.71898 0.12685 0.57906 0.0
C450 C 0.84259 0.40677 0.57689 0.0
O451 O 0.50513 0.29507 0.58526 0.0
O452 O 0.47806 0.97371 0.63697 0.0
O453 O 0.55095 0.42705 0.58103 0.0
O454 O 0.44191 0.05662 0.57718 0.0
O455 O 0.38218 0.05475 0.65755 0.0
O456 O 0.34868 0.14559 0.59475 0.0
O457 O 0.68864 0.18415 0.64733 0.0
O458 O 0.66221 0.04978 0.63744 0.0
C459 C 0.73383 0.45311 0.65848 0.0
C460 C 0.46574 0.33107 0.66006 0.0
C461 C 0.2179 0.34825 0.90536 0.0
C462 C 0.3397 0.0714 0.91013 0.0
C463 C 0.23807 0.01875 0.82761 0.0
Mg464 Mg 0.05811 0.42331 0.87627 0.0
Mg465 Mg 0.9054 0.31158 0.84973 0.0
O466 O 0.01874 0.32496 0.8545 0.0
Mg467 Mg 0.09501 0.23887 0.86748 0.0
O468 O 0.17915 0.16105 0.88069 0.0
Mg469 Mg 0.27918 0.20293 0.86155 0.0
Mg470 Mg 0.16791 0.04724 0.88522 0.0
C471 C 0.9676 0.14302 0.82356 0.0
O472 O 0.00351 0.17985 0.89811 0.0
O473 O 0.98251 0.50061 0.84625 0.0
O474 O 0.04795 0.04826 0.9035 0.0
O475 O 0.94195 0.41852 0.9059 0.0
O476 O 0.88579 0.41932 0.82602 0.0
O477 O 0.84947 0.32802 0.8885 0.0
O478 O 0.19272 0.28891 0.83705 0.0
O479 O 0.16603 0.4234 0.84652 0.0
C480 C 0.20832 0.36673 0.83426 0.0
C481 C 0.92485 0.48833 0.82858 0.0
O482 O 0.04042 0.15024 0.834 0.0
O483 O 0.35369 0.12659 0.89207 0.0
O484 O 0.90835 0.19331 0.82913 0.0
O485 O 0.27612 0.08912 0.82978 0.0
O486 O 0.27131 0.03147 0.91161 0.0
O487 O 0.18866 -0.00652 0.84608 0.0
O488 O 0.14093 0.33333 0.90069 0.0
O489 O 0.27569 0.30768 0.89319 0.0
C490 C 0.87226 0.37966 0.90711 0.0
C491 C -0.00393 0.10681 0.90818 0.0
loop_
_geom_bond_atom_site_label_1
_geom_bond_atom_site_label_2
_geom_bond_distance
_geom_bond_site_symmetry_2
_ccdc_geom_bond_type
C0 C1 1.384 . S
C0 C2 1.384 . S
C0 H28 0.931 1_565 S
C1 C0 1.384 . S
C1 C4 1.382 . S
C2 C0 1.384 . S
C2 C3 1.381 . S
C2 H29 0.930 1_565 S
C3 C2 1.381 . S
C3 C5 1.381 . S
C3 C6 1.487 . S
C4 C1 1.382 . S
C4 C5 1.387 . S
C4 H30 0.930 . S
C5 C3 1.381 . S
C5 C4 1.387 . S
C5 H31 0.931 . S
C6 C3 1.487 . S
C6 C13 1.399 1_565 S
C6 N44 1.343 . S
C7 C8 1.384 . S
C7 C9 1.384 . S
C7 H32 0.931 1_545 S
C8 C7 1.384 . S
C8 C11 1.382 . S
C9 C7 1.384 . S
C9 C10 1.381 . S
C9 H33 0.930 1_545 S
C10 C9 1.381 . S
C10 C12 1.381 . S
C10 C13 1.487 . S
C11 C8 1.382 . S
C11 C12 1.387 . S
C11 H34 0.930 . S
C12 C10 1.381 . S
C12 C11 1.387 . S
C12 H35 0.931 . S
C13 C6 1.399 1_545 S
C13 C10 1.487 . S
C13 N45 1.343 . S
C14 C15 1.384 . S
C14 C16 1.384 . S
C14 H36 0.931 1_545 S
C15 C14 1.384 . S
C15 C18 1.382 . S
C16 C14 1.384 . S
C16 C17 1.381 . S
C16 H37 0.930 1_545 S
C17 C16 1.381 . S
C17 C19 1.381 . S
C17 C20 1.487 . S
C18 C15 1.382 . S
C18 C19 1.387 . S
C18 H38 0.930 . S
C19 C17 1.381 . S
C19 C18 1.387 . S
C19 H39 0.931 . S
C20 C17 1.487 . S
C20 C27 1.399 1_545 S
C20 N45 1.343 1_655 S
C21 C22 1.384 . S
C21 C23 1.384 . S
C21 H40 0.931 1_565 S
C22 C21 1.384 . S
C22 C25 1.382 . S
C23 C21 1.384 . S
C23 C24 1.381 . S
C23 H41 0.930 1_565 S
C24 C23 1.381 . S
C24 C26 1.381 . S
C24 C27 1.487 . S
C25 C22 1.382 . S
C25 C26 1.387 . S
C25 H42 0.930 . S
C26 C24 1.381 . S
C26 C25 1.387 . S
C26 H43 0.931 . S
C27 C20 1.399 1_565 S
C27 C24 1.487 . S
C27 N44 1.343 1_655 S
H28 C0 0.931 1_545 S
H29 C2 0.930 1_545 S
H30 C4 0.930 . S
H31 C5 0.931 . S
H32 C7 0.931 1_565 S
H33 C9 0.930 1_565 S
H34 C11 0.930 . S
H35 C12 0.931 . S
H36 C14 0.931 1_565 S
H37 C16 0.930 1_565 S
H38 C18 0.930 . S
H39 C19 0.931 . S
H40 C21 0.931 1_545 S
H41 C23 0.930 1_545 S
H42 C25 0.930 . S
H43 C26 0.931 . S
N44 C6 1.343 . S
N44 C27 1.343 1_455 S
N45 C13 1.343 . S
N45 C20 1.343 1_455 S
C46 C47 1.384 . S
C46 C48 1.384 . S
C46 H74 0.931 . S
C47 C46 1.384 . S
C47 C50 1.382 . S
C48 C46 1.384 . S
C48 C49 1.381 . S
C48 H75 0.930 . S
C49 C48 1.381 . S
C49 C51 1.381 . S
C49 C52 1.487 . S
C50 C47 1.382 . S
C50 C51 1.387 . S
C50 H76 0.930 . S
C51 C49 1.381 . S
C51 C50 1.387 . S
C51 H77 0.931 . S
C52 C49 1.487 . S
C52 C59 1.399 . S
C52 N90 1.343 . S
C53 C54 1.384 . S
C53 C55 1.384 . S
C53 H78 0.931 . S
C54 C53 1.384 . S
C54 C57 1.382 . S
C55 C53 1.384 . S
C55 C56 1.381 . S
C55 H79 0.930 . S
C56 C55 1.381 . S
C56 C58 1.381 . S
C56 C59 1.487 . S
C57 C54 1.382 . S
C57 C58 1.387 . S
C57 H80 0.930 . S
C58 C56 1.381 . S
C58 C57 1.387 . S
C58 H81 0.931 . S
C59 C52 1.399 . S
C59 C56 1.487 . S
C59 N91 1.343 . S
C60 C61 1.384 . S
C60 C62 1.384 . S
C60 H82 0.931 . S
C61 C60 1.384 . S
C61 C64 1.382 . S
C62 C60 1.384 . S
C62 C63 1.381 . S
C62 H83 0.930 . S
C63 C62 1.381 . S
C63 C65 1.381 . S
C63 C66 1.487 . S
C64 C61 1.382 . S
C64 C65 1.387 . S
C64 H84 0.930 . S
C65 C63 1.381 . S
C65 C64 1.387 . S
C65 H85 0.931 . S
C66 C63 1.487 . S
C66 C73 1.399 . S
C66 N91 1.343 . S
C67 C68 1.384 . S
C67 C69 1.384 . S
C67 H86 0.931 . S
C68 C67 1.384 . S
C68 C71 1.382 . S
C69 C67 1.384 . S
C69 C70 1.381 . S
C69 H87 0.930 . S
C70 C69 1.381 . S
C70 C72 1.381 . S
C70 C73 1.487 . S
C71 C68 1.382 . S
C71 C72 1.387 . S
C71 H88 0.930 . S
C72 C70 1.381 . S
C72 C71 1.387 . S
C72 H89 0.931 . S
C73 C66 1.399 . S
C73 C70 1.487 . S
C73 N90 1.343 . S
H74 C46 0.931 . S
H75 C48 0.930 . S
H76 C50 0.930 . S
H77 C51 0.931 . S
H78 C53 0.931 . S
H79 C55 0.930 . S
H80 C57 0.930 . S
H81 C58 0.931 . S
H82 C60 0.931 . S
H83 C62 0.930 . S
H84 C64 0.930 . S
H85 C65 0.931 . S
H86 C67 0.931 . S
H87 C69 0.930 . S
H88 C71 0.930 . S
H89 C72 0.931 . S
N90 C52 1.343 . S
N90 C73 1.343 . S
N91 C59 1.343 . S
N91 C66 1.343 . S
C92 C93 1.384 . S
C92 C94 1.384 . S
C92 H120 0.931 1_545 S
C93 C92 1.384 . S
C93 C96 1.382 . S
C94 C92 1.384 . S
C94 C95 1.381 . S
C94 H121 0.930 1_545 S
C95 C94 1.381 . S
C95 C97 1.381 . S
C95 C98 1.487 . S
C96 C93 1.382 . S
C96 C97 1.387 . S
C96 H122 0.930 . S
C97 C95 1.381 . S
C97 C96 1.387 . S
C97 H123 0.931 . S
C98 C95 1.487 . S
C98 C105 1.399 1_546 S
C98 N136 1.343 . S
C99 C100 1.384 . S
C99 C101 1.384 . S
C99 H124 0.931 1_565 S
C100 C99 1.384 . S
C100 C103 1.382 . S
C101 C99 1.384 . S
C101 C102 1.381 . S
C101 H125 0.930 1_565 S
C102 C101 1.381 . S
C102 C104 1.381 . S
C102 C105 1.487 . S
C103 C100 1.382 . S
C103 C104 1.387 . S
C103 H126 0.930 . S
C104 C102 1.381 . S
C104 C103 1.387 . S
C104 H127 0.931 . S
C105 C98 1.399 1_564 S
C105 C102 1.487 . S
C105 N137 1.343 . S
C106 C107 1.384 . S
C106 C108 1.384 . S
C106 H128 0.931 1_665 S
C107 C106 1.384 . S
C107 C110 1.382 . S
C108 C106 1.384 . S
C108 C109 1.381 . S
C108 H129 0.930 1_565 S
C109 C108 1.381 . S
C109 C111 1.381 . S
C109 C112 1.487 . S
C110 C107 1.382 . S
C110 C111 1.387 . S
C110 H130 0.930 . S
C111 C109 1.381 . S
C111 C110 1.387 . S
C111 H131 0.931 . S
C112 C109 1.487 . S
C112 C119 1.399 1_564 S
C112 N137 1.343 . S
C113 C114 1.384 . S
C113 C115 1.384 . S
C113 H132 0.931 1_645 S
C114 C113 1.384 . S
C114 C117 1.382 . S
C115 C113 1.384 . S
C115 C116 1.381 . S
C115 H133 0.930 1_545 S
C116 C115 1.381 . S
C116 C118 1.381 . S
C116 C119 1.487 . S
C117 C114 1.382 . S
C117 C118 1.387 . S
C117 H134 0.930 . S
C118 C116 1.381 . S
C118 C117 1.387 . S
C118 H135 0.931 . S
C119 C112 1.399 1_546 S
C119 C116 1.487 . S
C119 N136 1.343 . S
H120 C92 0.931 1_565 S
H121 C94 0.930 1_565 S
H122 C96 0.930 . S
H123 C97 0.931 . S
H124 C99 0.931 1_545 S
H125 C101 0.930 1_545 S
H126 C103 0.930 . S
H127 C104 0.931 . S
H128 C106 0.931 1_445 S
H129 C108 0.930 1_545 S
H130 C110 0.930 . S
H131 C111 0.931 . S
H132 C113 0.931 1_465 S
H133 C115 0.930 1_565 S
H134 C117 0.930 . S
H135 C118 0.931 . S
N136 C98 1.343 . S
N136 C119 1.343 . S
N137 C105 1.343 . S
N137 C112 1.343 . S
C138 C139 1.384 . S
C138 C140 1.384 . S
C138 H166 0.931 . S
C139 C138 1.384 . S
C139 C142 1.382 . S
C140 C138 1.384 . S
C140 C141 1.381 . S
C140 H167 0.930 . S
C141 C140 1.381 . S
C141 C143 1.381 . S
C141 C144 1.487 . S
C142 C139 1.382 . S
C142 C143 1.387 . S
C142 H168 0.930 . S
C143 C141 1.381 . S
C143 C142 1.387 . S
C143 H169 0.931 . S
C144 C141 1.487 . S
C144 C151 1.399 . S
C144 N182 1.343 . S
C145 C146 1.384 . S
C145 C147 1.384 . S
C145 H170 0.931 . S
C146 C145 1.384 . S
C146 C149 1.382 . S
C147 C145 1.384 . S
C147 C148 1.381 . S
C147 H171 0.930 . S
C148 C147 1.381 . S
C148 C150 1.381 . S
C148 C151 1.487 . S
C149 C146 1.382 . S
C149 C150 1.387 . S
C149 H172 0.930 . S
C150 C148 1.381 . S
C150 C149 1.387 . S
C150 H173 0.931 . S
C151 C144 1.399 . S
C151 C148 1.487 . S
C151 N183 1.343 . S
C152 C153 1.384 . S
C152 C154 1.384 . S
C152 H174 0.931 . S
C153 C152 1.384 . S
C153 C156 1.382 . S
C154 C152 1.384 . S
C154 C155 1.381 . S
C154 H175 0.930 . S
C155 C154 1.381 . S
C155 C157 1.381 . S
C155 C158 1.487 . S
C156 C153 1.382 . S
C156 C157 1.387 . S
C156 H176 0.930 . S
C157 C155 1.381 . S
C157 C156 1.387 . S
C157 H177 0.931 . S
C158 C155 1.487 . S
C158 C165 1.399 . S
C158 N183 1.343 . S
C159 C160 1.384 . S
C159 C161 1.384 . S
C159 H178 0.931 . S
C160 C159 1.384 . S
C160 C163 1.382 . S
C161 C159 1.384 . S
C161 C162 1.381 . S
C161 H179 0.930 . S
C162 C161 1.381 . S
C162 C164 1.381 . S
C162 C165 1.487 . S
C163 C160 1.382 . S
C163 C164 1.387 . S
C163 H180 0.930 . S
C164 C162 1.381 . S
C164 C163 1.387 . S
C164 H181 0.931 . S
C165 C158 1.399 . S
C165 C162 1.487 . S
C165 N182 1.343 . S
H166 C138 0.931 . S
H167 C140 0.930 . S
H168 C142 0.930 . S
H169 C143 0.931 . S
H170 C145 0.931 . S
H171 C147 0.930 . S
H172 C149 0.930 . S
H173 C150 0.931 . S
H174 C152 0.931 . S
H175 C154 0.930 . S
H176 C156 0.930 . S
H177 C157 0.931 . S
H178 C159 0.931 . S
H179 C161 0.930 . S
H180 C163 0.930 . S
H181 C164 0.931 . S
N182 C144 1.343 . S
N182 C165 1.343 . S
N183 C151 1.343 . S
N183 C158 1.343 . S
C184 C185 1.384 . S
C184 C186 1.384 . S
C184 H212 0.931 1_655 S
C185 C184 1.384 . S
C185 C188 1.382 . S
C186 C184 1.384 . S
C186 C187 1.381 1_565 S
C186 H213 0.930 . S
C187 C186 1.381 1_545 S
C187 C189 1.381 . S
C187 C190 1.487 . S
C188 C185 1.382 . S
C188 C189 1.387 1_565 S
C188 H214 0.930 . S
C189 C187 1.381 . S
C189 C188 1.387 1_545 S
C189 H215 0.931 . S
C190 C187 1.487 . S
C190 C197 1.399 . S
C190 N228 1.343 . S
C191 C192 1.384 . S
C191 C193 1.384 . S
C191 H216 0.931 . S
C192 C191 1.384 . S
C192 C195 1.382 . S
C193 C191 1.384 . S
C193 C194 1.381 1_565 S
C193 H217 0.930 . S
C194 C193 1.381 1_545 S
C194 C196 1.381 . S
C194 C197 1.487 . S
C195 C192 1.382 . S
C195 C196 1.387 1_565 S
C195 H218 0.930 . S
C196 C194 1.381 . S
C196 C195 1.387 1_545 S
C196 H219 0.931 . S
C197 C190 1.399 . S
C197 C194 1.487 . S
C197 N229 1.343 . S
C198 C199 1.384 . S
C198 C200 1.384 . S
C198 H220 0.931 . S
C199 C198 1.384 . S
C199 C202 1.382 . S
C200 C198 1.384 . S
C200 C201 1.381 . S
C200 H221 0.930 . S
C201 C200 1.381 . S
C201 C203 1.381 . S
C201 C204 1.487 . S
C202 C199 1.382 . S
C202 C203 1.387 . S
C202 H222 0.930 . S
C203 C201 1.381 . S
C203 C202 1.387 . S
C203 H223 0.931 . S
C204 C201 1.487 . S
C204 C211 1.399 . S
C204 N229 1.343 . S
C205 C206 1.384 . S
C205 C207 1.384 . S
C205 H224 0.928 1_655 S
C206 C205 1.384 . S
C206 C209 1.382 . S
C207 C205 1.384 . S
C207 C208 1.381 . S
C207 H225 0.930 . S
C208 C207 1.381 . S
C208 C210 1.381 . S
C208 C211 1.487 . S
C209 C206 1.382 . S
C209 C210 1.387 . S
C209 H226 0.930 . S
C210 C208 1.381 . S
C210 C209 1.387 . S
C210 H227 0.931 . S
C211 C204 1.399 . S
C211 C208 1.487 . S
C211 N228 1.343 . S
H212 C184 0.931 1_455 S
H213 C186 0.930 . S
H214 C188 0.930 . S
H215 C189 0.931 . S
H216 C191 0.931 . S
H217 C193 0.930 . S
H218 C195 0.930 . S
H219 C196 0.931 . S
H220 C198 0.931 . S
H221 C200 0.930 . S
H222 C202 0.930 . S
H223 C203 0.931 . S
H224 C205 0.928 1_455 S
H225 C207 0.930 . S
H226 C209 0.930 . S
H227 C210 0.931 . S
N228 C190 1.343 . S
N228 C211 1.343 . S
N229 C197 1.343 . S
N229 C204 1.343 . S
C230 C231 1.384 . S
C230 C232 1.384 . S
C230 H258 0.931 . S
C231 C230 1.384 . S
C231 C234 1.382 . S
C232 C230 1.384 . S
C232 C233 1.381 1_545 S
C232 H259 0.930 . S
C233 C232 1.381 1_565 S
C233 C235 1.381 . S
C233 C236 1.487 . S
C234 C231 1.382 . S
C234 C235 1.387 1_545 S
C234 H260 0.930 . S
C235 C233 1.381 . S
C235 C234 1.387 1_565 S
C235 H261 0.931 . S
C236 C233 1.487 . S
C236 C243 1.399 . S
C236 N274 1.343 . S
C237 C238 1.384 . S
C237 C239 1.384 . S
C237 H262 0.931 1_655 S
C238 C237 1.384 . S
C238 C241 1.382 . S
C239 C237 1.384 . S
C239 C240 1.381 1_545 S
C239 H263 0.930 . S
C240 C239 1.381 1_565 S
C240 C242 1.381 . S
C240 C243 1.487 . S
C241 C238 1.382 . S
C241 C242 1.387 1_545 S
C241 H264 0.930 . S
C242 C240 1.381 . S
C242 C241 1.387 1_565 S
C242 H265 0.931 . S
C243 C236 1.399 . S
C243 C240 1.487 . S
C243 N275 1.343 . S
C244 C245 1.384 . S
C244 C246 1.384 . S
C244 H266 0.928 1_655 S
C245 C244 1.384 . S
C245 C248 1.382 . S
C246 C244 1.384 . S
C246 C247 1.381 . S
C246 H267 0.930 . S
C247 C246 1.381 . S
C247 C249 1.381 . S
C247 C250 1.487 . S
C248 C245 1.382 . S
C248 C249 1.387 . S
C248 H268 0.930 . S
C249 C247 1.381 . S
C249 C248 1.387 . S
C249 H269 0.931 . S
C250 C247 1.487 . S
C250 C257 1.399 . S
C250 N275 1.343 . S
C251 C252 1.384 . S
C251 C253 1.384 . S
C251 H270 0.931 . S
C252 C251 1.384 . S
C252 C255 1.382 . S
C253 C251 1.384 . S
C253 C254 1.381 . S
C253 H271 0.930 . S
C254 C253 1.381 . S
C254 C256 1.381 . S
C254 C257 1.487 . S
C255 C252 1.382 . S
C255 C256 1.387 . S
C255 H272 0.930 . S
C256 C254 1.381 . S
C256 C255 1.387 . S
C256 H273 0.931 . S
C257 C250 1.399 . S
C257 C254 1.487 . S
C257 N274 1.343 . S
H258 C230 0.931 . S
H259 C232 0.930 . S
H260 C234 0.930 . S
H261 C235 0.931 . S
H262 C237 0.931 1_455 S
H263 C239 0.930 . S
H264 C241 0.930 . S
H265 C242 0.931 . S
H266 C244 0.928 1_455 S
H267 C246 0.930 . S
H268 C248 0.930 . S
H269 C249 0.931 . S
H270 C251 0.931 . S
H271 C253 0.930 . S
H272 C255 0.930 . S
H273 C256 0.931 . S
N274 C236 1.343 . S
N274 C257 1.343 . S
N275 C243 1.343 . S
N275 C250 1.343 . S
C276 C277 1.384 . S
C276 C278 1.384 . S
C276 H304 0.931 . S
C277 C276 1.384 . S
C277 C280 1.382 . S
C278 C276 1.384 . S
C278 C279 1.381 . S
C278 H305 0.930 . S
C279 C278 1.381 . S
C279 C281 1.381 . S
C279 C282 1.487 . S
C280 C277 1.382 . S
C280 C281 1.387 . S
C280 H306 0.930 . S
C281 C279 1.381 . S
C281 C280 1.387 . S
C281 H307 0.931 . S
C282 C279 1.487 . S
C282 C289 1.399 1_556 S
C282 N320 1.343 . S
C283 C284 1.384 . S
C283 C285 1.384 . S
C283 H308 0.931 . S
C284 C283 1.384 . S
C284 C287 1.382 . S
C285 C283 1.384 . S
C285 C286 1.381 . S
C285 H309 0.930 . S
C286 C285 1.381 . S
C286 C288 1.381 . S
C286 C289 1.487 . S
C287 C284 1.382 . S
C287 C288 1.387 . S
C287 H310 0.930 . S
C288 C286 1.381 . S
C288 C287 1.387 . S
C288 H311 0.931 . S
C289 C282 1.399 1_554 S
C289 C286 1.487 . S
C289 N321 1.343 . S
C290 C291 1.384 . S
C290 C292 1.384 . S
C290 H312 0.931 . S
C291 C290 1.384 . S
C291 C294 1.382 . S
C292 C290 1.384 . S
C292 C293 1.381 . S
C292 H313 0.930 . S
C293 C292 1.381 . S
C293 C295 1.381 . S
C293 C296 1.487 . S
C294 C291 1.382 . S
C294 C295 1.387 . S
C294 H314 0.930 . S
C295 C293 1.381 . S
C295 C294 1.387 . S
C295 H315 0.931 . S
C296 C293 1.487 . S
C296 C303 1.399 1_554 S
C296 N321 1.343 . S
C297 C298 1.384 . S
C297 C299 1.384 . S
C297 H316 0.931 . S
C298 C297 1.384 . S
C298 C301 1.382 . S
C299 C297 1.384 . S
C299 C300 1.381 . S
C299 H317 0.930 . S
C300 C299 1.381 . S
C300 C302 1.381 . S
C300 C303 1.487 . S
C301 C298 1.382 . S
C301 C302 1.387 . S
C301 H318 0.930 . S
C302 C300 1.381 . S
C302 C301 1.387 . S
C302 H319 0.931 . S
C303 C296 1.399 1_556 S
C303 C300 1.487 . S
C303 N320 1.343 . S
H304 C276 0.931 . S
H305 C278 0.930 . S
H306 C280 0.930 . S
H307 C281 0.931 . S
H308 C283 0.931 . S
H309 C285 0.930 . S
H310 C287 0.930 . S
H311 C288 0.931 . S
H312 C290 0.931 . S
H313 C292 0.930 . S
H314 C294 0.930 . S
H315 C295 0.931 . S
H316 C297 0.931 . S
H317 C299 0.930 . S
H318 C301 0.930 . S
H319 C302 0.931 . S
N320 C282 1.343 . S
N320 C303 1.343 . S
N321 C289 1.343 . S
N321 C296 1.343 . S
C322 C323 1.384 . S
C322 C324 1.384 . S
C322 H350 0.931 . S
C323 C322 1.384 . S
C323 C326 1.382 . S
C324 C322 1.384 . S
C324 C325 1.381 1_655 S
C324 H351 0.930 . S
C325 C324 1.381 1_455 S
C325 C327 1.381 . S
C325 C328 1.487 . S
C326 C323 1.382 . S
C326 C327 1.387 1_655 S
C326 H352 0.930 . S
C327 C325 1.381 . S
C327 C326 1.387 1_455 S
C327 H353 0.931 . S
C328 C325 1.487 . S
C328 C335 1.399 . S
C328 N366 1.343 . S
C329 C330 1.384 . S
C329 C331 1.384 . S
C329 H354 0.931 . S
C330 C329 1.384 . S
C330 C333 1.382 . S
C331 C329 1.384 . S
C331 C332 1.381 1_655 S
C331 H355 0.930 . S
C332 C331 1.381 1_455 S
C332 C334 1.381 . S
C332 C335 1.487 . S
C333 C330 1.382 . S
C333 C334 1.387 1_655 S
C333 H356 0.930 . S
C334 C332 1.381 . S
C334 C333 1.387 1_455 S
C334 H357 0.931 . S
C335 C328 1.399 . S
C335 C332 1.487 . S
C335 N367 1.343 . S
C336 C337 1.384 . S
C336 C338 1.384 . S
C336 H358 0.931 . S
C337 C336 1.384 . S
C337 C340 1.382 . S
C338 C336 1.384 . S
C338 C339 1.381 . S
C338 H359 0.930 . S
C339 C338 1.381 . S
C339 C341 1.381 . S
C339 C342 1.487 . S
C340 C337 1.382 . S
C340 C341 1.387 . S
C340 H360 0.930 . S
C341 C339 1.381 . S
C341 C340 1.387 . S
C341 H361 0.931 . S
C342 C339 1.487 . S
C342 C349 1.399 . S
C342 N367 1.343 . S
C343 C344 1.384 . S
C343 C345 1.384 . S
C343 H362 0.931 . S
C344 C343 1.384 . S
C344 C347 1.382 . S
C345 C343 1.384 . S
C345 C346 1.381 . S
C345 H363 0.930 . S
C346 C345 1.381 . S
C346 C348 1.381 . S
C346 C349 1.487 . S
C347 C344 1.382 . S
C347 C348 1.387 . S
C347 H364 0.930 . S
C348 C346 1.381 . S
C348 C347 1.387 . S
C348 H365 0.931 . S
C349 C342 1.399 . S
C349 C346 1.487 . S
C349 N366 1.343 . S
H350 C322 0.931 . S
H351 C324 0.930 . S
H352 C326 0.930 . S
H353 C327 0.931 . S
H354 C329 0.931 . S
H355 C331 0.930 . S
H356 C333 0.930 . S
H357 C334 0.931 . S
H358 C336 0.931 . S
H359 C338 0.930 . S
H360 C340 0.930 . S
H361 C341 0.931 . S
H362 C343 0.931 . S
H363 C345 0.930 . S
H364 C347 0.930 . S
H365 C348 0.931 . S
N366 C328 1.343 . S
N366 C349 1.343 . S
N367 C335 1.343 . S
N367 C342 1.343 . S
C368 O395 1.312 . S
C368 O396 1.208 . S
C369 O390 1.331 . S
C369 O393 1.244 . S
C370 O392 1.264 . S
C370 O394 1.273 . S
Mg371 O373 1.936 . S
Mg371 O380 2.081 . S
Mg371 O382 2.023 . S
Mg371 O386 2.031 . S
Mg371 O395 2.291 . S
Mg372 O373 1.963 . S
Mg372 O383 1.942 . S
Mg372 O384 1.955 . S
Mg372 O391 1.986 . S
O373 Mg371 1.936 . S
O373 Mg372 1.963 . S
O373 Mg374 1.915 . S
Mg374 O373 1.915 . S
Mg374 O375 1.915 . S
Mg374 O379 2.013 . S
Mg374 O385 2.114 . S
Mg374 O389 2.013 . S
Mg374 O395 2.114 . S
O375 Mg374 1.915 . S
O375 Mg376 1.936 . S
O375 Mg377 1.963 1_455 S
Mg376 O375 1.936 . S
Mg376 O385 2.291 . S
Mg376 O390 2.081 1_455 S
Mg376 O392 2.023 1_455 S
Mg376 O396 2.031 . S
Mg377 O375 1.963 1_655 S
Mg377 O381 1.986 . S
Mg377 O393 1.942 . S
Mg377 O394 1.955 . S
C378 O389 1.191 . S
C378 O391 1.307 . S
O379 Mg374 2.013 . S
O379 C398 1.191 1_455 S
O380 Mg371 2.081 . S
O380 C388 1.331 . S
O381 Mg377 1.986 . S
O381 C398 1.307 . S
O382 Mg371 2.023 . S
O382 C397 1.264 . S
O383 Mg372 1.942 . S
O383 C388 1.244 . S
O384 Mg372 1.955 . S
O384 C397 1.273 . S
O385 Mg374 2.114 . S
O385 Mg376 2.291 . S
O385 C387 1.312 . S
O386 Mg371 2.031 . S
O386 C387 1.208 . S
C387 O385 1.312 . S
C387 O386 1.208 . S
C388 O380 1.331 . S
C388 O383 1.244 . S
O389 Mg374 2.013 . S
O389 C378 1.191 . S
O390 C369 1.331 . S
O390 Mg376 2.081 1_655 S
O391 Mg372 1.986 . S
O391 C378 1.307 . S
O392 C370 1.264 . S
O392 Mg376 2.023 1_655 S
O393 C369 1.244 . S
O393 Mg377 1.942 . S
O394 C370 1.273 . S
O394 Mg377 1.955 . S
O395 C368 1.312 . S
O395 Mg371 2.291 . S
O395 Mg374 2.114 . S
O396 C368 1.208 . S
O396 Mg376 2.031 . S
C397 O382 1.264 . S
C397 O384 1.273 . S
C398 O379 1.191 1_655 S
C398 O381 1.307 . S
C399 O426 1.312 . S
C399 O427 1.208 . S
C400 O421 1.331 . S
C400 O424 1.244 . S
C401 O423 1.264 . S
C401 O425 1.273 . S
Mg402 O404 1.936 . S
Mg402 O411 2.081 . S
Mg402 O413 2.023 . S
Mg402 O417 2.031 . S
Mg402 O426 2.291 . S
Mg403 O404 1.963 . S
Mg403 O414 1.942 . S
Mg403 O415 1.955 . S
Mg403 O422 1.986 . S
O404 Mg402 1.936 . S
O404 Mg403 1.963 . S
O404 Mg405 1.915 . S
Mg405 O404 1.915 . S
Mg405 O406 1.915 . S
Mg405 O410 2.013 . S
Mg405 O416 2.114 . S
Mg405 O420 2.013 . S
Mg405 O426 2.114 . S
O406 Mg405 1.915 . S
O406 Mg407 1.936 . S
O406 Mg408 1.963 . S
Mg407 O406 1.936 . S
Mg407 O416 2.291 . S
Mg407 O421 2.081 . S
Mg407 O423 2.023 . S
Mg407 O427 2.031 . S
Mg408 O406 1.963 . S
Mg408 O412 1.986 . S
Mg408 O424 1.942 . S
Mg408 O425 1.955 . S
C409 O420 1.191 . S
C409 O422 1.307 . S
O410 Mg405 2.013 . S
O410 C429 1.191 . S
O411 Mg402 2.081 . S
O411 C419 1.331 . S
O412 Mg408 1.986 . S
O412 C429 1.307 . S
O413 Mg402 2.023 . S
O413 C428 1.264 . S
O414 Mg403 1.942 . S
O414 C419 1.244 . S
O415 Mg403 1.955 . S
O415 C428 1.273 . S
O416 Mg405 2.114 . S
O416 Mg407 2.291 . S
O416 C418 1.312 . S
O417 Mg402 2.031 . S
O417 C418 1.208 . S
C418 O416 1.312 . S
C418 O417 1.208 . S
C419 O411 1.331 . S
C419 O414 1.244 . S
O420 Mg405 2.013 . S
O420 C409 1.191 . S
O421 C400 1.331 . S
O421 Mg407 2.081 . S
O422 Mg403 1.986 . S
O422 C409 1.307 . S
O423 C401 1.264 . S
O423 Mg407 2.023 . S
O424 C400 1.244 . S
O424 Mg408 1.942 . S
O425 C401 1.273 . S
O425 Mg408 1.955 . S
O426 C399 1.312 . S
O426 Mg402 2.291 . S
O426 Mg405 2.114 . S
O427 C399 1.208 . S
O427 Mg407 2.031 . S
C428 O413 1.264 . S
C428 O415 1.273 . S
C429 O410 1.191 . S
C429 O412 1.307 . S
C430 O457 1.312 . S
C430 O458 1.208 . S
C431 O452 1.331 . S
C431 O455 1.244 . S
C432 O454 1.264 . S
C432 O456 1.273 . S
Mg433 O435 1.936 . S
Mg433 O442 2.081 . S
Mg433 O444 2.023 . S
Mg433 O448 2.031 . S
Mg433 O457 2.291 . S
Mg434 O435 1.963 . S
Mg434 O445 1.942 . S
Mg434 O446 1.955 . S
Mg434 O453 1.986 . S
O435 Mg433 1.936 . S
O435 Mg434 1.963 . S
O435 Mg436 1.915 . S
Mg436 O435 1.915 . S
Mg436 O437 1.915 . S
Mg436 O441 2.013 . S
Mg436 O447 2.114 . S
Mg436 O451 2.013 . S
Mg436 O457 2.114 . S
O437 Mg436 1.915 . S
O437 Mg438 1.936 . S
O437 Mg439 1.963 . S
Mg438 O437 1.936 . S
Mg438 O447 2.291 . S
Mg438 O452 2.081 . S
Mg438 O454 2.023 . S
Mg438 O458 2.031 . S
Mg439 O437 1.963 . S
Mg439 O443 1.986 . S
Mg439 O455 1.942 . S
Mg439 O456 1.955 . S
C440 O451 1.191 . S
C440 O453 1.307 . S
O441 Mg436 2.013 . S
O441 C460 1.191 . S
O442 Mg433 2.081 . S
O442 C450 1.331 . S
O443 Mg439 1.986 . S
O443 C460 1.307 . S
O444 Mg433 2.023 . S
O444 C459 1.264 . S
O445 Mg434 1.942 . S
O445 C450 1.244 . S
O446 Mg434 1.955 . S
O446 C459 1.273 . S
O447 Mg436 2.114 . S
O447 Mg438 2.291 . S
O447 C449 1.312 . S
O448 Mg433 2.031 . S
O448 C449 1.208 . S
C449 O447 1.312 . S
C449 O448 1.208 . S
C450 O442 1.331 . S
C450 O445 1.244 . S
O451 Mg436 2.013 . S
O451 C440 1.191 . S
O452 C431 1.331 . S
O452 Mg438 2.081 . S
O453 Mg434 1.986 . S
O453 C440 1.307 . S
O454 C432 1.264 . S
O454 Mg438 2.023 . S
O455 C431 1.244 . S
O455 Mg439 1.942 . S
O456 C432 1.273 . S
O456 Mg439 1.955 . S
O457 C430 1.312 . S
O457 Mg433 2.291 . S
O457 Mg436 2.114 . S
O458 C430 1.208 . S
O458 Mg438 2.031 . S
C459 O444 1.264 . S
C459 O446 1.273 . S
C460 O441 1.191 . S
C460 O443 1.307 . S
C461 O488 1.312 . S
C461 O489 1.208 . S
C462 O483 1.331 . S
C462 O486 1.244 . S
C463 O485 1.264 . S
C463 O487 1.273 . S
Mg464 O466 1.936 . S
Mg464 O473 2.081 1_455 S
Mg464 O475 2.023 1_455 S
Mg464 O479 2.031 . S
Mg464 O488 2.291 . S
Mg465 O466 1.963 1_655 S
Mg465 O476 1.942 . S
Mg465 O477 1.955 . S
Mg465 O484 1.986 . S
O466 Mg464 1.936 . S
O466 Mg465 1.963 1_455 S
O466 Mg467 1.915 . S
Mg467 O466 1.915 . S
Mg467 O468 1.915 . S
Mg467 O472 2.013 . S
Mg467 O478 2.114 . S
Mg467 O482 2.013 . S
Mg467 O488 2.114 . S
O468 Mg467 1.915 . S
O468 Mg469 1.936 . S
O468 Mg470 1.963 . S
Mg469 O468 1.936 . S
Mg469 O478 2.291 . S
Mg469 O483 2.081 . S
Mg469 O485 2.023 . S
Mg469 O489 2.031 . S
Mg470 O468 1.963 . S
Mg470 O474 1.986 . S
Mg470 O486 1.942 . S
Mg470 O487 1.955 . S
C471 O482 1.191 1_655 S
C471 O484 1.307 . S
O472 Mg467 2.013 . S
O472 C491 1.191 . S
O473 Mg464 2.081 1_655 S
O473 C481 1.331 . S
O474 Mg470 1.986 . S
O474 C491 1.307 . S
O475 Mg464 2.023 1_655 S
O475 C490 1.264 . S
O476 Mg465 1.942 . S
O476 C481 1.244 . S
O477 Mg465 1.955 . S
O477 C490 1.273 . S
O478 Mg467 2.114 . S
O478 Mg469 2.291 . S
O478 C480 1.312 . S
O479 Mg464 2.031 . S
O479 C480 1.208 . S
C480 O478 1.312 . S
C480 O479 1.208 . S
C481 O473 1.331 . S
C481 O476 1.244 . S
O482 Mg467 2.013 . S
O482 C471 1.191 1_455 S
O483 C462 1.331 . S
O483 Mg469 2.081 . S
O484 Mg465 1.986 . S
O484 C471 1.307 . S
O485 C463 1.264 . S
O485 Mg469 2.023 . S
O486 C462 1.244 . S
O486 Mg470 1.942 . S
O487 C463 1.273 . S
O487 Mg470 1.955 . S
O488 C461 1.312 . S
O488 Mg464 2.291 . S
O488 Mg467 2.114 . S
O489 C461 1.208 . S
O489 Mg469 2.031 . S
C490 O475 1.264 . S
C490 O477 1.273 . S
C491 O472 1.191 . S
C491 O474 1.307 . S
C428 C1 2.225 . S
C68 C431 2.111 1_565 S
C93 C462 2.137 . S
C397 C139 2.209 1_565 S
C432 C8 2.225 . S
C463 C61 2.170 1_545 S
C388 C100 2.136 . S
C419 C146 2.153 1_565 S
C15 C449 1.536 . S
C192 C418 1.522 . S
C107 C378 1.476 1_655 S
C471 C238 1.467 . S
C399 C22 1.537 . S
C185 C398 1.467 . S
C114 C491 1.476 1_655 S
C430 C231 1.522 . S
C277 C490 2.225 . S
C206 C369 2.111 . S
C330 C400 2.136 . S
C252 C459 2.170 . S
C370 C284 2.225 . S
C199 C401 2.169 . S
C323 C450 2.136 . S
C481 C245 2.111 . S
C291 C387 1.537 . S
C54 C480 1.522 . S
C344 C440 1.476 . S
C409 C153 1.484 . S
C461 C298 1.537 . S
C460 C47 1.467 . S
C429 C337 1.476 . S
C368 C160 1.534 . S
