# Generated by pormake.
# Topology ptr, (4,4)-cn, num edge types: 1
# Building blocks:
#     Node 0, Type 0, BuildingBlock: QUQFOY_clean_sbu_1, # of connection points: 4
#     Node 1, Type 0, BuildingBlock: QUQFOY_clean_sbu_1, # of connection points: 4
#     Node 2, Type 0, BuildingBlock: QUQFOY_clean_sbu_1, # of connection points: 4
#     Node 3, Type 0, BuildingBlock: QUQFOY_clean_sbu_1, # of connection points: 4
#     Node 4, Type 0, BuildingBlock: QUQFOY_clean_sbu_1, # of connection points: 4
#     Node 5, Type 0, BuildingBlock: QUQFOY_clean_sbu_1, # of connection points: 4
#     Node 6, Type 0, BuildingBlock: QUQFOY_clean_sbu_1, # of connection points: 4
#     Node 7, Type 0, BuildingBlock: QUQFOY_clean_sbu_1, # of connection points: 4
#     Node 8, Type 0, BuildingBlock: QUQFOY_clean_sbu_1, # of connection points: 4
#     Node 9, Type 0, BuildingBlock: QUQFOY_clean_sbu_1, # of connection points: 4
#     Node 10, Type 0, BuildingBlock: QUQFOY_clean_sbu_1, # of connection points: 4
#     Node 11, Type 0, BuildingBlock: QUQFOY_clean_sbu_1, # of connection points: 4
#     Node 12, Type 0, BuildingBlock: QUQFOY_clean_sbu_1, # of connection points: 4
#     Node 13, Type 0, BuildingBlock: QUQFOY_clean_sbu_1, # of connection points: 4
#     Node 14, Type 0, BuildingBlock: QUQFOY_clean_sbu_1, # of connection points: 4
#     Node 15, Type 0, BuildingBlock: QUQFOY_clean_sbu_1, # of connection points: 4
#     Node 16, Type 0, BuildingBlock: QUQFOY_clean_sbu_1, # of connection points: 4
#     Node 17, Type 0, BuildingBlock: QUQFOY_clean_sbu_1, # of connection points: 4
#     Node 18, Type 1, BuildingBlock: NAHDIM_clean_linker_0, # of connection points: 4
#     Node 19, Type 1, BuildingBlock: NAHDIM_clean_linker_0, # of connection points: 4
#     Node 20, Type 1, BuildingBlock: NAHDIM_clean_linker_0, # of connection points: 4
#     Node 21, Type 1, BuildingBlock: NAHDIM_clean_linker_0, # of connection points: 4
#     Node 22, Type 1, BuildingBlock: NAHDIM_clean_linker_0, # of connection points: 4
#     Node 23, Type 1, BuildingBlock: NAHDIM_clean_linker_0, # of connection points: 4
#     Node 24, Type 1, BuildingBlock: NAHDIM_clean_linker_0, # of connection points: 4
#     Node 25, Type 1, BuildingBlock: NAHDIM_clean_linker_0, # of connection points: 4
#     Node 26, Type 1, BuildingBlock: NAHDIM_clean_linker_0, # of connection points: 4
#     Node 27, Type 1, BuildingBlock: NAHDIM_clean_linker_0, # of connection points: 4
#     Node 28, Type 1, BuildingBlock: NAHDIM_clean_linker_0, # of connection points: 4
#     Node 29, Type 1, BuildingBlock: NAHDIM_clean_linker_0, # of connection points: 4
#     Node 30, Type 1, BuildingBlock: NAHDIM_clean_linker_0, # of connection points: 4
#     Node 31, Type 1, BuildingBlock: NAHDIM_clean_linker_0, # of connection points: 4
#     Node 32, Type 1, BuildingBlock: NAHDIM_clean_linker_0, # of connection points: 4
#     Node 33, Type 1, BuildingBlock: NAHDIM_clean_linker_0, # of connection points: 4
#     Node 34, Type 1, BuildingBlock: NAHDIM_clean_linker_0, # of connection points: 4
#     Node 35, Type 1, BuildingBlock: NAHDIM_clean_linker_0, # of connection points: 4
#     Edge 36, Type (0, 1), BuildingBlock: OJICUG_clean_linker_0, # of connection points: 2
#     Edge 37, Type (0, 1), BuildingBlock: OJICUG_clean_linker_0, # of connection points: 2
#     Edge 38, Type (0, 1), BuildingBlock: OJICUG_clean_linker_0, # of connection points: 2
#     Edge 39, Type (0, 1), BuildingBlock: OJICUG_clean_linker_0, # of connection points: 2
#     Edge 40, Type (0, 1), BuildingBlock: OJICUG_clean_linker_0, # of connection points: 2
#     Edge 41, Type (0, 1), BuildingBlock: OJICUG_clean_linker_0, # of connection points: 2
#     Edge 42, Type (0, 1), BuildingBlock: OJICUG_clean_linker_0, # of connection points: 2
#     Edge 43, Type (0, 1), BuildingBlock: OJICUG_clean_linker_0, # of connection points: 2
#     Edge 44, Type (0, 1), BuildingBlock: OJICUG_clean_linker_0, # of connection points: 2
#     Edge 45, Type (0, 1), BuildingBlock: OJICUG_clean_linker_0, # of connection points: 2
#     Edge 46, Type (0, 1), BuildingBlock: OJICUG_clean_linker_0, # of connection points: 2
#     Edge 47, Type (0, 1), BuildingBlock: OJICUG_clean_linker_0, # of connection points: 2
#     Edge 48, Type (0, 1), BuildingBlock: OJICUG_clean_linker_0, # of connection points: 2
#     Edge 49, Type (0, 1), BuildingBlock: OJICUG_clean_linker_0, # of connection points: 2
#     Edge 50, Type (0, 1), BuildingBlock: OJICUG_clean_linker_0, # of connection points: 2
#     Edge 51, Type (0, 1), BuildingBlock: OJICUG_clean_linker_0, # of connection points: 2
#     Edge 52, Type (0, 1), BuildingBlock: OJICUG_clean_linker_0, # of connection points: 2
#     Edge 53, Type (0, 1), BuildingBlock: OJICUG_clean_linker_0, # of connection points: 2
#     Edge 54, Type (0, 1), BuildingBlock: OJICUG_clean_linker_0, # of connection points: 2
#     Edge 55, Type (0, 1), BuildingBlock: OJICUG_clean_linker_0, # of connection points: 2
#     Edge 56, Type (0, 1), BuildingBlock: OJICUG_clean_linker_0, # of connection points: 2
#     Edge 57, Type (0, 1), BuildingBlock: OJICUG_clean_linker_0, # of connection points: 2
#     Edge 58, Type (0, 1), BuildingBlock: OJICUG_clean_linker_0, # of connection points: 2
#     Edge 59, Type (0, 1), BuildingBlock: OJICUG_clean_linker_0, # of connection points: 2
#     Edge 60, Type (0, 1), BuildingBlock: OJICUG_clean_linker_0, # of connection points: 2
#     Edge 61, Type (0, 1), BuildingBlock: OJICUG_clean_linker_0, # of connection points: 2
#     Edge 62, Type (0, 1), BuildingBlock: OJICUG_clean_linker_0, # of connection points: 2
#     Edge 63, Type (0, 1), BuildingBlock: OJICUG_clean_linker_0, # of connection points: 2
#     Edge 64, Type (0, 1), BuildingBlock: OJICUG_clean_linker_0, # of connection points: 2
#     Edge 65, Type (0, 1), BuildingBlock: OJICUG_clean_linker_0, # of connection points: 2
#     Edge 66, Type (0, 1), BuildingBlock: OJICUG_clean_linker_0, # of connection points: 2
#     Edge 67, Type (0, 1), BuildingBlock: OJICUG_clean_linker_0, # of connection points: 2
#     Edge 68, Type (0, 1), BuildingBlock: OJICUG_clean_linker_0, # of connection points: 2
#     Edge 69, Type (0, 1), BuildingBlock: OJICUG_clean_linker_0, # of connection points: 2
#     Edge 70, Type (0, 1), BuildingBlock: OJICUG_clean_linker_0, # of connection points: 2
#     Edge 71, Type (0, 1), BuildingBlock: OJICUG_clean_linker_0, # of connection points: 2
#     Edge 72, Type (0, 1), BuildingBlock: OJICUG_clean_linker_0, # of connection points: 2
#     Edge 73, Type (0, 1), BuildingBlock: OJICUG_clean_linker_0, # of connection points: 2
#     Edge 74, Type (0, 1), BuildingBlock: OJICUG_clean_linker_0, # of connection points: 2
#     Edge 75, Type (0, 1), BuildingBlock: OJICUG_clean_linker_0, # of connection points: 2
#     Edge 76, Type (0, 1), BuildingBlock: OJICUG_clean_linker_0, # of connection points: 2
#     Edge 77, Type (0, 1), BuildingBlock: OJICUG_clean_linker_0, # of connection points: 2
#     Edge 78, Type (0, 1), BuildingBlock: OJICUG_clean_linker_0, # of connection points: 2
#     Edge 79, Type (0, 1), BuildingBlock: OJICUG_clean_linker_0, # of connection points: 2
#     Edge 80, Type (0, 1), BuildingBlock: OJICUG_clean_linker_0, # of connection points: 2
#     Edge 81, Type (0, 1), BuildingBlock: OJICUG_clean_linker_0, # of connection points: 2
#     Edge 82, Type (0, 1), BuildingBlock: OJICUG_clean_linker_0, # of connection points: 2
#     Edge 83, Type (0, 1), BuildingBlock: OJICUG_clean_linker_0, # of connection points: 2
#     Edge 84, Type (0, 1), BuildingBlock: OJICUG_clean_linker_0, # of connection points: 2
#     Edge 85, Type (0, 1), BuildingBlock: OJICUG_clean_linker_0, # of connection points: 2
#     Edge 86, Type (0, 1), BuildingBlock: OJICUG_clean_linker_0, # of connection points: 2
#     Edge 87, Type (0, 1), BuildingBlock: OJICUG_clean_linker_0, # of connection points: 2
#     Edge 88, Type (0, 1), BuildingBlock: OJICUG_clean_linker_0, # of connection points: 2
#     Edge 89, Type (0, 1), BuildingBlock: OJICUG_clean_linker_0, # of connection points: 2
#     Edge 90, Type (0, 1), BuildingBlock: OJICUG_clean_linker_0, # of connection points: 2
#     Edge 91, Type (0, 1), BuildingBlock: OJICUG_clean_linker_0, # of connection points: 2
#     Edge 92, Type (0, 1), BuildingBlock: OJICUG_clean_linker_0, # of connection points: 2
#     Edge 93, Type (0, 1), BuildingBlock: OJICUG_clean_linker_0, # of connection points: 2
#     Edge 94, Type (0, 1), BuildingBlock: OJICUG_clean_linker_0, # of connection points: 2
#     Edge 95, Type (0, 1), BuildingBlock: OJICUG_clean_linker_0, # of connection points: 2
#     Edge 96, Type (0, 1), BuildingBlock: OJICUG_clean_linker_0, # of connection points: 2
#     Edge 97, Type (0, 1), BuildingBlock: OJICUG_clean_linker_0, # of connection points: 2
#     Edge 98, Type (0, 1), BuildingBlock: OJICUG_clean_linker_0, # of connection points: 2
#     Edge 99, Type (0, 1), BuildingBlock: OJICUG_clean_linker_0, # of connection points: 2
#     Edge 100, Type (0, 1), BuildingBlock: OJICUG_clean_linker_0, # of connection points: 2
#     Edge 101, Type (0, 1), BuildingBlock: OJICUG_clean_linker_0, # of connection points: 2
#     Edge 102, Type (0, 1), BuildingBlock: OJICUG_clean_linker_0, # of connection points: 2
#     Edge 103, Type (0, 1), BuildingBlock: OJICUG_clean_linker_0, # of connection points: 2
#     Edge 104, Type (0, 1), BuildingBlock: OJICUG_clean_linker_0, # of connection points: 2
#     Edge 105, Type (0, 1), BuildingBlock: OJICUG_clean_linker_0, # of connection points: 2
#     Edge 106, Type (0, 1), BuildingBlock: OJICUG_clean_linker_0, # of connection points: 2
#     Edge 107, Type (0, 1), BuildingBlock: OJICUG_clean_linker_0, # of connection points: 2
# Relax obj value: 0.009
# Max RMSD: 0.099
# Mean RMSD: 0.054
data_MOF--net-ptr--node1-QUQFOY_clean_sbu_1--node2-NAHDIM_clean_linker_0--edge1-OJICUG_clean_linker_0
_symmetry_space_group_name_H-M    P1
_symmetry_Int_Tables_number       1
_symmetry_cell_setting            triclinic
loop_
_symmetry_equiv_pos_as_xyz
'x, y, z'
_cell_length_a     78.176129
_cell_length_b     77.762576
_cell_length_c     66.5545
_cell_angle_alpha  91.025067
_cell_angle_beta   90.412357
_cell_angle_gamma 119.91843
loop_
_atom_site_label
_atom_site_type_symbol
_atom_site_fract_x
_atom_site_fract_y
_atom_site_fract_z
_atom_type_partial_charge
O0 O 0.00776 0.36961 0.03573 0.0
Cd1 Cd 0.02199 0.36291 0.01363 0.0
Cd2 Cd 0.98509 0.34237 0.99815 0.0
O3 O 0.9771 0.35023 0.02481 0.0
O4 O 0.04732 0.36717 0.02571 0.0
O5 O 0.0229 0.33771 0.01574 0.0
C6 C 0.04022 0.34825 0.0239 0.0
C7 C 0.9705 0.30987 0.98586 0.0
C8 C 0.98929 0.3625 0.03783 0.0
C9 C 0.01519 0.37679 0.97456 0.0
O10 O 0.9972 0.36371 0.97668 0.0
O11 O 0.02818 0.37853 0.98732 0.0
O12 O 0.96153 0.31992 0.98445 0.0
O13 O 0.98738 0.31789 0.99513 0.0
O14 O 0.62049 0.62456 0.04596 0.0
Cd15 Cd 0.63023 0.65036 0.03041 0.0
Cd16 Cd 0.65131 0.63696 0.01058 0.0
O17 O 0.64168 0.61651 0.03333 0.0
O18 O 0.62956 0.67088 0.04838 0.0
O19 O 0.65709 0.67341 0.03624 0.0
C20 C 0.64856 0.68068 0.0472 0.0
C21 C 0.68443 0.65283 0.00128 0.0
C22 C 0.6279 0.6133 0.04535 0.0
C23 C 0.61854 0.63896 0.98782 0.0
O24 O 0.63114 0.63314 0.98813 0.0
O25 O 0.61638 0.64761 0.00318 0.0
O26 O 0.67255 0.63441 0.99667 0.0
O27 O 0.67758 0.6622 0.01159 0.0
O28 O 0.37145 0.01348 0.97953 0.0
Cd29 Cd 0.36323 0.02571 0.00259 0.0
Cd30 Cd 0.3451 0.98818 0.01567 0.0
O31 O 0.35445 0.9823 0.98872 0.0
O32 O 0.36564 0.05087 0.99257 0.0
O33 O 0.33716 0.02468 1.00025 0.0
C34 C 0.34668 0.04251 0.99362 0.0
C35 C 0.31203 0.97071 0.02478 0.0
C36 C 0.36586 0.99523 0.97644 0.0
C37 C 0.37789 0.01923 0.04182 0.0
O38 O 0.36568 0.00089 0.03875 0.0
O39 O 0.37882 0.03199 0.02951 0.0
O40 O 0.32308 0.96276 0.0258 0.0
O41 O 0.31968 0.98846 0.01804 0.0
O42 O 0.99367 0.62722 0.97814 0.0
Cd43 Cd 0.97975 0.63416 1.00039 0.0
Cd44 Cd 0.01666 0.65217 0.01704 0.0
O45 O 0.02417 0.64383 0.99029 0.0
O46 O 0.95585 0.63225 0.9871 0.0
O47 O 0.98078 0.6604 0.99922 0.0
C48 C 0.96401 0.65123 0.98974 0.0
C49 C 0.03265 0.68507 0.02864 0.0
C50 C 0.01194 0.63306 0.97649 0.0
C51 C 0.98396 0.61916 0.04008 0.0
O52 O 0.00234 0.63125 0.03862 0.0
O53 O 0.97192 0.61816 0.02651 0.0
O54 O 0.04067 0.67415 0.03073 0.0
O55 O 0.01587 0.67748 0.01921 0.0
O56 O 0.37286 0.37338 0.97559 0.0
Cd57 Cd 0.36671 0.35358 0.99837 0.0
Cd58 Cd 0.34898 0.37295 0.01497 0.0
O59 O 0.35782 0.38852 0.98856 0.0
O60 O 0.36856 0.33048 0.98739 0.0
O61 O 0.34064 0.32832 0.99742 0.0
C62 C 0.34979 0.31977 0.98999 0.0
C63 C 0.31585 0.35746 0.02385 0.0
C64 C 0.36761 0.38641 0.97449 0.0
C65 C 0.38199 0.37359 0.03895 0.0
O66 O 0.3694 0.37936 0.03781 0.0
O67 O 0.38325 0.36307 0.02482 0.0
O68 O 0.32719 0.37639 0.02619 0.0
O69 O 0.32331 0.34735 0.01617 0.0
O70 O 0.6314 0.9933 0.04101 0.0
Cd71 Cd 0.63968 0.98228 0.0169 0.0
Cd72 Cd 0.65992 0.02102 0.00711 0.0
O73 O 0.64995 0.0251 0.03458 0.0
O74 O 0.63532 0.95568 0.02459 0.0
O75 O 0.6649 0.98152 0.01962 0.0
C76 C 0.65424 0.9632 0.02452 0.0
C77 C 0.69341 0.03794 0.99951 0.0
C78 C 0.63774 0.01143 0.04575 0.0
C79 C 0.62805 0.99322 0.9781 0.0
O80 O 0.64054 0.01111 0.9829 0.0
O81 O 0.62582 0.97917 0.9893 0.0
O82 O 0.68315 0.04679 0.99945 0.0
O83 O 0.68472 0.01955 0.00448 0.0
O84 O 0.66589 0.70263 0.37466 0.0
Cd85 Cd 0.68315 0.69695 0.35544 0.0
Cd86 Cd 0.649 0.67895 0.33379 0.0
O87 O 0.63742 0.68624 0.35816 0.0
O88 O 0.70522 0.69874 0.37235 0.0
O89 O 0.68266 0.671 0.35694 0.0
C90 C 0.69798 0.68003 0.36865 0.0
C91 C 0.63451 0.64678 0.32055 0.0
C92 C 0.64754 0.69672 0.37328 0.0
C93 C 0.68413 0.71402 0.31551 0.0
O94 O 0.66587 0.70116 0.31429 0.0
O95 O 0.69443 0.71472 0.33072 0.0
O96 O 0.6271 0.65797 0.31685 0.0
O97 O 0.64974 0.65356 0.3324 0.0
O98 O 0.29612 0.96518 0.3868 0.0
Cd99 Cd 0.30427 0.98796 0.36705 0.0
Cd100 Cd 0.31917 0.96802 0.34681 0.0
O101 O 0.30968 0.94977 0.37134 0.0
O102 O 0.30426 0.00985 0.38307 0.0
O103 O 0.3312 0.01211 0.36973 0.0
C104 C 0.32304 0.01993 0.38048 0.0
C105 C 0.35149 0.98093 0.33594 0.0
C106 C 0.30005 0.95118 0.38597 0.0
C107 C 0.2871 0.97239 0.32607 0.0
O108 O 0.29852 0.96514 0.32554 0.0
O109 O 0.2872 0.98253 0.34132 0.0
O110 O 0.33836 0.96261 0.33245 0.0
O111 O 0.34632 0.99191 0.346 0.0
O112 O 0.03762 0.33561 0.30488 0.0
Cd113 Cd 0.03257 0.34963 0.32876 0.0
Cd114 Cd 0.01656 0.31258 0.34426 0.0
O115 O 0.02464 0.30552 0.31714 0.0
O116 O 0.03724 0.37542 0.31818 0.0
O117 O 0.00803 0.35186 0.32801 0.0
C118 C 0.01873 0.3692 0.32058 0.0
C119 C 0.98364 0.29638 0.35378 0.0
C120 C 0.03323 0.31758 0.30312 0.0
C121 C 0.0501 0.3454 0.36772 0.0
O122 O 0.03789 0.32688 0.36642 0.0
O123 O 0.05018 0.35695 0.35438 0.0
O124 O 0.99432 0.28807 0.35554 0.0
O125 O 0.99167 0.31388 0.34628 0.0
O126 O 0.67266 0.95839 0.31236 0.0
Cd127 Cd 0.65465 0.96347 0.33104 0.0
Cd128 Cd 0.69068 0.98655 0.35126 0.0
O129 O 0.70142 0.97751 0.32748 0.0
O130 O 0.6292 0.95062 0.3157 0.0
O131 O 0.64671 0.98306 0.32146 0.0
C132 C 0.63156 0.96802 0.31309 0.0
C133 C 0.7048 0.02052 0.35771 0.0
C134 C 0.69127 0.96579 0.31309 0.0
C135 C 0.65822 0.95408 0.37443 0.0
O136 O 0.67631 0.96749 0.37432 0.0
O137 O 0.64724 0.95068 0.35896 0.0
O138 O 0.71358 0.01098 0.36309 0.0
O139 O 0.68778 0.01067 0.3487 0.0
O140 O 0.0439 0.71112 0.31394 0.0
Cd141 Cd 0.03727 0.69032 0.3358 0.0
Cd142 Cd 0.01771 0.70793 0.35218 0.0
O143 O 0.02787 0.72519 0.32695 0.0
O144 O 0.04212 0.66931 0.32424 0.0
O145 O 0.01249 0.66389 0.3325 0.0
C146 C 0.02341 0.65715 0.32543 0.0
C147 C 0.98394 0.69088 0.35828 0.0
C148 C 0.03842 0.72398 0.31314 0.0
C149 C 0.04946 0.70802 0.37778 0.0
O150 O 0.03656 0.71336 0.37633 0.0
O151 O 0.05205 0.69874 0.36327 0.0
O152 O 0.99457 0.70969 0.3621 0.0
O153 O 0.99252 0.68176 0.3508 0.0
O154 O 0.29685 0.33079 0.37944 0.0
Cd155 Cd 0.30349 0.31722 0.35628 0.0
Cd156 Cd 0.32111 0.35437 0.34075 0.0
O157 O 0.31181 0.361 0.36736 0.0
O158 O 0.30135 0.29222 0.36649 0.0
O159 O 0.32952 0.31805 0.35742 0.0
C160 C 0.32016 0.30028 0.36421 0.0
C161 C 0.35433 0.37224 0.33233 0.0
C162 C 0.30193 0.34905 0.38109 0.0
C163 C 0.28887 0.32165 0.31568 0.0
O164 O 0.30117 0.34012 0.31742 0.0
O165 O 0.28752 0.30996 0.32949 0.0
O166 O 0.34294 0.3797 0.33026 0.0
O167 O 0.34688 0.35468 0.33952 0.0
O168 O 0.33206 0.03773 0.7056 0.0
Cd169 Cd 0.34985 0.03281 0.68645 0.0
Cd170 Cd 0.31569 0.01393 0.6648 0.0
O171 O 0.30371 0.02099 0.68899 0.0
O172 O 0.37252 0.03665 0.70373 0.0
O173 O 0.3514 0.00792 0.68886 0.0
C174 C 0.36649 0.01807 0.70064 0.0
C175 C 0.30147 0.98155 0.65215 0.0
C176 C 0.31366 0.03151 0.70416 0.0
C177 C 0.35019 0.04952 0.6464 0.0
O178 O 0.3321 0.03617 0.64509 0.0
O179 O 0.36058 0.05062 0.66169 0.0
O180 O 0.29388 0.99253 0.64818 0.0
O181 O 0.31688 0.98872 0.66381 0.0
O182 O 0.95247 0.28653 0.7064 0.0
Cd183 Cd 0.96153 0.31194 0.69032 0.0
Cd184 Cd 0.9834 0.29898 0.67107 0.0
O185 O 0.97399 0.27878 0.6941 0.0
O186 O 0.95807 0.33111 0.70775 0.0
O187 O 0.98716 0.33654 0.69711 0.0
C188 C 0.97699 0.34238 0.70743 0.0
C189 C 0.0167 0.31559 0.6623 0.0
C190 C 0.96019 0.27554 0.70611 0.0
C191 C 0.95043 0.29989 0.6476 0.0
O192 O 0.96333 0.29447 0.6482 0.0
O193 O 0.94788 0.30842 0.66282 0.0
O194 O 0.00525 0.29706 0.65777 0.0
O195 O 0.00931 0.32469 0.67223 0.0
O196 O 0.70052 0.67062 0.63918 0.0
Cd197 Cd 0.69468 0.685 0.6623 0.0
Cd198 Cd 0.68234 0.65 0.68005 0.0
O199 O 0.68779 0.64112 0.65265 0.0
O200 O 0.69667 0.70925 0.65024 0.0
O201 O 0.66893 0.68503 0.66216 0.0
C202 C 0.67815 0.70199 0.65363 0.0
C203 C 0.65072 0.63429 0.69317 0.0
C204 C 0.6962 0.65254 0.63809 0.0
C205 C 0.71719 0.68498 0.6991 0.0
O206 O 0.70652 0.6662 0.69878 0.0
O207 O 0.71413 0.69539 0.68664 0.0
O208 O 0.6618 0.62636 0.69425 0.0
O209 O 0.65767 0.65118 0.68455 0.0
O210 O 0.32798 0.2993 0.64537 0.0
Cd211 Cd 0.31416 0.30538 0.66847 0.0
Cd212 Cd 0.35096 0.32334 0.68598 0.0
O213 O 0.3576 0.31349 0.65969 0.0
O214 O 0.28923 0.3032 0.65762 0.0
O215 O 0.31469 0.33142 0.66884 0.0
C216 C 0.29704 0.32202 0.6612 0.0
C217 C 0.36933 0.35708 0.69447 0.0
C218 C 0.34606 0.30403 0.64494 0.0
C219 C 0.31841 0.29055 0.70878 0.0
O220 O 0.33664 0.30356 0.70851 0.0
O221 O 0.307 0.28879 0.69419 0.0
O222 O 0.37637 0.34541 0.69733 0.0
O223 O 0.35174 0.34951 0.68683 0.0
O224 O 0.70999 0.04029 0.63834 0.0
Cd225 Cd 0.70378 0.02102 0.66167 0.0
Cd226 Cd 0.6877 0.04198 0.67835 0.0
O227 O 0.69674 0.05701 0.65168 0.0
O228 O 0.7044 0.99713 0.65114 0.0
O229 O 0.67723 0.99631 0.66174 0.0
C230 C 0.68569 0.98703 0.65435 0.0
C231 C 0.65494 0.02934 0.68765 0.0
C232 C 0.7056 0.05395 0.6373 0.0
C233 C 0.72026 0.04124 0.70193 0.0
O234 O 0.70804 0.0475 0.70104 0.0
O235 O 0.72102 0.03054 0.68768 0.0
O236 O 0.66765 0.048 0.68967 0.0
O237 O 0.66085 0.01779 0.68019 0.0
O238 O 0.95321 0.66476 0.70676 0.0
Cd239 Cd 0.95956 0.65045 0.68412 0.0
Cd240 Cd 0.97976 0.68771 0.66913 0.0
O241 O 0.96945 0.69491 0.69468 0.0
O242 O 0.95357 0.62415 0.6945 0.0
O243 O 0.98367 0.64764 0.68686 0.0
C244 C 0.97213 0.62999 0.69324 0.0
C245 C 0.0136 0.70418 0.66338 0.0
C246 C 0.95876 0.68314 0.70816 0.0
C247 C 0.94768 0.65654 0.64273 0.0
O248 O 0.96098 0.67468 0.64467 0.0
O249 O 0.94477 0.64454 0.65675 0.0
O250 O 0.0032 0.71255 0.66003 0.0
O251 O 0.00474 0.68639 0.67018 0.0
C252 C 0.22033 0.30619 0.02798 0.0
C253 C 0.23315 0.31928 0.04564 0.0
C254 C 0.21777 0.30752 0.07784 0.0
C255 C 0.2204 0.32511 0.08691 0.0
C256 C 0.20733 0.32462 0.10153 0.0
C257 C 0.19129 0.30613 0.10711 0.0
C258 C 0.18925 0.28832 0.09873 0.0
C259 C 0.20274 0.28926 0.08436 0.0
C260 C 0.21026 0.34387 0.11053 0.0
C261 C 0.17232 0.26836 0.1043 0.0
C262 C 0.09504 0.30887 0.03918 0.0
C263 C 0.08339 0.31156 0.05622 0.0
C264 C 0.10672 0.31879 0.08457 0.0
C265 C 0.10328 0.29937 0.08676 0.0
C266 C 0.11545 0.29561 0.0994 0.0
C267 C 0.13137 0.31156 0.11 0.0
C268 C 0.13443 0.331 0.10838 0.0
C269 C 0.12193 0.33431 0.09579 0.0
C270 C 0.11162 0.27465 0.10106 0.0
C271 C 0.15128 0.34836 0.11945 0.0
C272 C 0.09466 0.29425 0.23926 0.0
C273 C 0.09354 0.27658 0.23263 0.0
C274 C 0.10888 0.27675 0.22163 0.0
C275 C 0.12593 0.29509 0.21763 0.0
C276 C 0.12755 0.31299 0.22518 0.0
C277 C 0.11188 0.31238 0.23593 0.0
C278 C 0.10674 0.25738 0.21399 0.0
C279 C 0.14578 0.33274 0.22172 0.0
C280 C 0.25568 0.27512 0.23172 0.0
C281 C 0.24762 0.28824 0.23958 0.0
C282 C 0.21389 0.28125 0.23301 0.0
C283 C 0.19547 0.26558 0.22688 0.0
C284 C 0.18142 0.26913 0.21754 0.0
C285 C 0.18582 0.2889 0.21467 0.0
C286 C 0.20409 0.30486 0.22176 0.0
C287 C 0.21797 0.30088 0.23087 0.0
C288 C 0.162 0.25175 0.2104 0.0
C289 C 0.20901 0.3261 0.21945 0.0
C290 C 0.17557 0.30558 0.11995 0.0
C291 C 0.16116 0.3084 0.11053 0.0
C292 C 0.14582 0.30818 0.12134 0.0
C293 C 0.14465 0.30497 0.14224 0.0
C294 C 0.1293 0.30446 0.15356 0.0
C295 C 0.12833 0.30137 0.17416 0.0
C296 C 0.14269 0.29869 0.18423 0.0
C297 C 0.14186 0.29559 0.20518 0.0
C298 C 0.15623 0.29271 0.21466 0.0
C299 C 0.17151 0.29282 0.20378 0.0
C300 C 0.17271 0.29608 0.18285 0.0
C301 C 0.18796 0.29641 0.17145 0.0
C302 C 0.18903 0.29966 0.15088 0.0
C303 C 0.17475 0.30246 0.14087 0.0
C304 C 0.15921 0.30215 0.15205 0.0
C305 C 0.15823 0.29901 0.17307 0.0
C306 C 0.06389 0.31057 0.26468 0.0
C307 C 0.07194 0.30633 0.24624 0.0
O308 O 0.2293 0.30781 0.06255 0.0
O309 O 0.22728 0.27685 0.24091 0.0
O310 O 0.079 0.29331 0.24894 0.0
O311 O 0.09606 0.32336 0.07168 0.0
H312 H 0.22896 0.33091 0.04803 0.0
H313 H 0.20449 0.30017 0.03143 0.0
H314 H 0.22283 0.29351 0.02513 0.0
H315 H 0.22364 0.31503 0.01415 0.0
H316 H 0.23254 0.33923 0.08236 0.0
H317 H 0.20106 0.27577 0.07745 0.0
H318 H 0.19846 0.34658 0.10481 0.0
H319 H 0.22479 0.35671 0.1067 0.0
H320 H 0.20909 0.34294 0.12714 0.0
H321 H 0.17282 0.2559 0.09644 0.0
H322 H 0.15809 0.26758 0.10048 0.0
H323 H 0.17264 0.26645 0.12076 0.0
H324 H 0.07257 0.29681 0.06208 0.0
H325 H 0.10624 0.32352 0.03343 0.0
H326 H 0.10275 0.30105 0.04454 0.0
H327 H 0.0849 0.29984 0.02662 0.0
H328 H 0.09134 0.2871 0.07851 0.0
H329 H 0.12437 0.3492 0.09416 0.0
H330 H 0.12395 0.27355 0.09419 0.0
H331 H 0.0976 0.26364 0.09341 0.0
H332 H 0.11105 0.27079 0.11711 0.0
H333 H 0.15148 0.36253 0.11683 0.0
H334 H 0.16552 0.34992 0.11452 0.0
H335 H 0.15016 0.34564 0.13583 0.0
H336 H 0.08152 0.31941 0.23697 0.0
H337 H 0.08032 0.26265 0.2356 0.0
H338 H 0.11317 0.32605 0.24184 0.0
H339 H 0.10857 0.25778 0.19744 0.0
H340 H 0.09219 0.24446 0.21759 0.0
H341 H 0.11853 0.25525 0.22079 0.0
H342 H 0.14535 0.34517 0.22974 0.0
H343 H 0.14722 0.33574 0.20539 0.0
H344 H 0.15913 0.33233 0.2268 0.0
H345 H 0.25178 0.30006 0.22833 0.0
H346 H 0.27202 0.2839 0.23066 0.0
H347 H 0.2494 0.26912 0.21649 0.0
H348 H 0.25165 0.26242 0.24175 0.0
H349 H 0.19236 0.2505 0.22892 0.0
H350 H 0.23191 0.31309 0.23635 0.0
H351 H 0.15977 0.25291 0.19409 0.0
H352 H 0.14973 0.25203 0.21841 0.0
H353 H 0.16116 0.23728 0.21303 0.0
H354 H 0.22321 0.33679 0.22704 0.0
H355 H 0.19706 0.32822 0.22576 0.0
H356 H 0.21002 0.32955 0.20324 0.0
H357 H 0.16193 0.31085 0.09447 0.0
H358 H 0.11786 0.30644 0.1466 0.0
H359 H 0.11617 0.30111 0.18208 0.0
H360 H 0.15542 0.29021 0.2307 0.0
H361 H 0.1993 0.29421 0.17832 0.0
H362 H 0.20114 0.29986 0.14288 0.0
H363 H 0.03371 0.29805 0.25782 0.0
H364 H 0.07382 0.32692 0.26789 0.0
H365 H 0.06959 0.30577 0.27778 0.0
C366 C 0.70229 0.91532 0.02873 0.0
C367 C 0.68965 0.91545 0.04612 0.0
C368 C 0.70118 0.91065 0.07827 0.0
C369 C 0.68357 0.89676 0.08714 0.0
C370 C 0.68347 0.88352 0.10126 0.0
C371 C 0.70136 0.88409 0.10641 0.0
C372 C 0.71929 0.89875 0.09816 0.0
C373 C 0.71899 0.91208 0.08437 0.0
C374 C 0.66414 0.86848 0.11015 0.0
C375 C 0.73863 0.8998 0.10327 0.0
C376 C 0.67185 0.73491 0.0592 0.0
C377 C 0.68347 0.75547 0.06775 0.0
C378 C 0.67793 0.78038 0.08492 0.0
C379 C 0.69795 0.79377 0.0894 0.0
C380 C 0.70361 0.81137 0.10056 0.0
C381 C 0.68896 0.81547 0.10766 0.0
C382 C 0.66881 0.80188 0.10338 0.0
C383 C 0.6636 0.78459 0.09192 0.0
C384 C 0.72525 0.82564 0.10468 0.0
C385 C 0.65277 0.80567 0.11084 0.0
C386 C 0.70591 0.79324 0.23683 0.0
C387 C 0.72438 0.80813 0.23025 0.0
C388 C 0.72603 0.82418 0.21934 0.0
C389 C 0.70895 0.8255 0.2152 0.0
C390 C 0.69044 0.81081 0.22226 0.0
C391 C 0.68917 0.79481 0.23287 0.0
C392 C 0.74599 0.83962 0.21204 0.0
C393 C 0.67196 0.81191 0.21841 0.0
C394 C 0.74811 0.98164 0.23855 0.0
C395 C 0.73214 0.96036 0.24292 0.0
C396 C 0.73456 0.93085 0.23537 0.0
C397 C 0.74864 0.92577 0.22967 0.0
C398 C 0.74317 0.90803 0.21891 0.0
C399 C 0.72299 0.89485 0.21424 0.0
C400 C 0.70855 0.89949 0.2208 0.0
C401 C 0.71449 0.91752 0.23121 0.0
C402 C 0.75896 0.90348 0.21239 0.0
C403 C 0.68685 0.88542 0.21678 0.0
C404 C 0.70095 0.86812 0.11872 0.0
C405 C 0.69594 0.85015 0.10883 0.0
C406 C 0.6947 0.83414 0.11924 0.0
C407 C 0.69861 0.836 0.14018 0.0
C408 C 0.69734 0.82013 0.15114 0.0
C409 C 0.70128 0.8221 0.17172 0.0
C410 C 0.70647 0.83996 0.18219 0.0
C411 C 0.71035 0.84203 0.20315 0.0
C412 C 0.71554 0.86 0.21308 0.0
C413 C 0.71703 0.87613 0.20266 0.0
C414 C 0.71311 0.87433 0.18169 0.0
C415 C 0.71438 0.89021 0.17069 0.0
C416 C 0.71026 0.88819 0.1501 0.0
C417 C 0.70506 0.87033 0.13965 0.0
C418 C 0.70386 0.85418 0.1504 0.0
C419 C 0.70781 0.85616 0.17144 0.0
C420 C 0.72331 0.76369 0.23469 0.0
C421 C 0.71752 0.77225 0.25262 0.0
O422 O 0.70124 0.9225 0.0635 0.0
O423 O 0.74082 0.94868 0.24482 0.0
O424 O 0.70335 0.77703 0.2468 0.0
O425 O 0.67182 0.76334 0.07392 0.0
H426 H 0.6777 0.89977 0.04784 0.0
H427 H 0.70801 0.90513 0.03206 0.0
H428 H 0.71508 0.93039 0.0265 0.0
H429 H 0.69332 0.91002 0.0146 0.0
H430 H 0.66988 0.89613 0.08281 0.0
H431 H 0.73254 0.92308 0.07759 0.0
H432 H 0.65958 0.85359 0.1035 0.0
H433 H 0.65221 0.87197 0.10717 0.0
H434 H 0.66585 0.86775 0.12664 0.0
H435 H 0.75125 0.91198 0.09545 0.0
H436 H 0.73779 0.88552 0.09904 0.0
H437 H 0.7415 0.90213 0.11972 0.0
H438 H 0.69629 0.76588 0.05864 0.0
H439 H 0.67639 0.7361 0.04303 0.0
H440 H 0.65665 0.73235 0.05552 0.0
H441 H 0.6769 0.71778 0.07983 0.0
H442 H 0.70923 0.7907 0.0841 0.0
H443 H 0.64821 0.77417 0.08843 0.0
H444 H 0.72918 0.84066 0.09955 0.0
H445 H 0.73488 0.8209 0.09708 0.0
H446 H 0.72831 0.82681 0.12111 0.0
H447 H 0.63779 0.79273 0.10801 0.0
H448 H 0.65378 0.81867 0.10313 0.0
H449 H 0.65479 0.80924 0.12722 0.0
H450 H 0.73083 0.78575 0.25874 0.0
H451 H 0.73753 0.80729 0.23334 0.0
H452 H 0.67501 0.78331 0.23809 0.0
H453 H 0.74534 0.84111 0.19553 0.0
H454 H 0.7577 0.83596 0.21558 0.0
H455 H 0.75015 0.85424 0.21916 0.0
H456 H 0.65899 0.80012 0.22618 0.0
H457 H 0.66863 0.81036 0.20202 0.0
H458 H 0.67428 0.82661 0.22351 0.0
H459 H 0.72189 0.95532 0.22962 0.0
H460 H 0.74152 0.99137 0.23741 0.0
H461 H 0.75513 0.98188 0.22403 0.0
H462 H 0.75978 0.98769 0.2505 0.0
H463 H 0.76406 0.93604 0.23322 0.0
H464 H 0.70346 0.92108 0.23622 0.0
H465 H 0.75736 0.89975 0.19604 0.0
H466 H 0.75722 0.89036 0.22046 0.0
H467 H 0.77407 0.9161 0.21553 0.0
H468 H 0.6774 0.89034 0.22448 0.0
H469 H 0.68274 0.87033 0.22184 0.0
H470 H 0.68372 0.88434 0.20037 0.0
H471 H 0.69282 0.84856 0.09278 0.0
H472 H 0.6933 0.80599 0.14392 0.0
H473 H 0.70015 0.8094 0.17933 0.0
H474 H 0.7185 0.86146 0.22917 0.0
H475 H 0.71846 0.90436 0.17791 0.0
H476 H 0.71129 0.90083 0.14244 0.0
H477 H 0.71016 0.75038 0.22813 0.0
H478 H 0.73433 0.75948 0.23953 0.0
H479 H 0.73 0.77481 0.22277 0.0
C480 C 0.21767 0.91717 0.03733 0.0
C481 C 0.23185 0.92928 0.0547 0.0
C482 C 0.21551 0.90696 0.0829 0.0
C483 C 0.19945 0.91028 0.08447 0.0
C484 C 0.18368 0.89878 0.09716 0.0
C485 C 0.18399 0.88373 0.1085 0.0
C486 C 0.20044 0.88081 0.10745 0.0
C487 C 0.21603 0.89257 0.09474 0.0
C488 C 0.16647 0.90243 0.09818 0.0
C489 C 0.20131 0.86491 0.11934 0.0
C490 C 0.04857 0.75761 0.08696 0.0
C491 C 0.06364 0.76133 0.07054 0.0
C492 C 0.09449 0.78519 0.08856 0.0
C493 C 0.11069 0.78666 0.09906 0.0
C494 C 0.124 0.80413 0.10956 0.0
C495 C 0.12104 0.82065 0.10944 0.0
C496 C 0.10482 0.81944 0.0986 0.0
C497 C 0.09168 0.8017 0.08822 0.0
C498 C 0.1412 0.80492 0.12085 0.0
C499 C 0.10137 0.83686 0.09812 0.0
C500 C 0.08 0.80544 0.23667 0.0
C501 C 0.09571 0.80218 0.23229 0.0
C502 C 0.11232 0.81642 0.22216 0.0
C503 C 0.11318 0.83425 0.21629 0.0
C504 C 0.09772 0.83789 0.22142 0.0
C505 C 0.0814 0.82348 0.23177 0.0
C506 C 0.12887 0.81236 0.21756 0.0
C507 C 0.09828 0.85684 0.21565 0.0
C508 C 0.23974 0.9708 0.2443 0.0
C509 C 0.23145 0.95415 0.25956 0.0
C510 C 0.21173 0.92309 0.23962 0.0
C511 C 0.21104 0.90552 0.23335 0.0
C512 C 0.19498 0.89093 0.22205 0.0
C513 C 0.17928 0.89415 0.21667 0.0
C514 C 0.17983 0.9119 0.22293 0.0
C515 C 0.19604 0.92622 0.2344 0.0
C516 C 0.19481 0.87207 0.21586 0.0
C517 C 0.16332 0.91576 0.21737 0.0
C518 C 0.16655 0.87009 0.12034 0.0
C519 C 0.15152 0.85333 0.11032 0.0
C520 C 0.13511 0.83919 0.12055 0.0
C521 C 0.1333 0.84197 0.14131 0.0
C522 C 0.11675 0.82825 0.15195 0.0
C523 C 0.11545 0.8307 0.17254 0.0
C524 C 0.1308 0.84679 0.18334 0.0
C525 C 0.13005 0.84889 0.20443 0.0
C526 C 0.1458 0.86478 0.21474 0.0
C527 C 0.16233 0.87883 0.20454 0.0
C528 C 0.16312 0.87728 0.18339 0.0
C529 C 0.17933 0.8914 0.1726 0.0
C530 C 0.18033 0.8893 0.15189 0.0
C531 C 0.16527 0.8729 0.14122 0.0
C532 C 0.14858 0.85873 0.15173 0.0
C533 C 0.14743 0.86102 0.17281 0.0
C534 C 0.03376 0.76481 0.23196 0.0
C535 C 0.0539 0.77134 0.24179 0.0
O536 O 0.23066 0.91695 0.0701 0.0
O537 O 0.22789 0.93648 0.25045 0.0
O538 O 0.06344 0.79163 0.24577 0.0
O539 O 0.08209 0.76757 0.07912 0.0
H540 H 0.22807 0.94045 0.06052 0.0
H541 H 0.21908 0.92704 0.02482 0.0
H542 H 0.22094 0.90561 0.03163 0.0
H543 H 0.20214 0.90973 0.0423 0.0
H544 H 0.19896 0.92161 0.07572 0.0
H545 H 0.22855 0.89023 0.09358 0.0
H546 H 0.15302 0.88927 0.09191 0.0
H547 H 0.16909 0.91567 0.08968 0.0
H548 H 0.16354 0.9045 0.11409 0.0
H549 H 0.21526 0.86469 0.11702 0.0
H550 H 0.1887 0.85015 0.11487 0.0
H551 H 0.19997 0.86731 0.1356 0.0
H552 H 0.06447 0.7728 0.0602 0.0
H553 H 0.03372 0.75241 0.08013 0.0
H554 H 0.05279 0.77145 0.09576 0.0
H555 H 0.04768 0.74623 0.09743 0.0
H556 H 0.11278 0.77388 0.09915 0.0
H557 H 0.07933 0.80089 0.07995 0.0
H558 H 0.14036 0.80797 0.13707 0.0
H559 H 0.15526 0.81723 0.11526 0.0
H560 H 0.14155 0.79085 0.11925 0.0
H561 H 0.08791 0.8335 0.08927 0.0
H562 H 0.1143 0.84975 0.09147 0.0
H563 H 0.09991 0.84128 0.11369 0.0
H564 H 0.06219 0.76751 0.23075 0.0
H565 H 0.09507 0.78859 0.23688 0.0
H566 H 0.06935 0.82599 0.23556 0.0
H567 H 0.12976 0.81078 0.20105 0.0
H568 H 0.12676 0.79862 0.22464 0.0
H569 H 0.14319 0.82505 0.22291 0.0
H570 H 0.0848 0.85716 0.22022 0.0
H571 H 0.09985 0.8586 0.19913 0.0
H572 H 0.11135 0.86972 0.22287 0.0
H573 H 0.21751 0.95247 0.26573 0.0
H574 H 0.24273 0.98502 0.25163 0.0
H575 H 0.22897 0.96732 0.23178 0.0
H576 H 0.25366 0.9727 0.23792 0.0
H577 H 0.22321 0.90325 0.23744 0.0
H578 H 0.19636 0.93977 0.23903 0.0
H579 H 0.19527 0.87111 0.19923 0.0
H580 H 0.18094 0.85897 0.22072 0.0
H581 H 0.20755 0.87132 0.22235 0.0
H582 H 0.16629 0.93065 0.22265 0.0
H583 H 0.14936 0.90431 0.22405 0.0
H584 H 0.16108 0.91456 0.20079 0.0
H585 H 0.1529 0.85096 0.09444 0.0
H586 H 0.10463 0.81543 0.14448 0.0
H587 H 0.10237 0.81965 0.17993 0.0
H588 H 0.14537 0.866 0.23097 0.0
H589 H 0.19147 0.9042 0.18008 0.0
H590 H 0.1932 0.90056 0.14438 0.0
H591 H 0.02575 0.74854 0.22881 0.0
H592 H 0.03581 0.77246 0.21749 0.0
H593 H 0.02464 0.7686 0.24181 0.0
C594 C 0.30248 0.09356 0.98229 0.0
C595 C 0.30566 0.08265 0.96455 0.0
C596 C 0.31125 0.10597 0.93732 0.0
C597 C 0.29161 0.10176 0.93507 0.0
C598 C 0.28688 0.11323 0.92258 0.0
C599 C 0.30205 0.12921 0.91219 0.0
C600 C 0.32172 0.13311 0.91399 0.0
C601 C 0.326 0.12132 0.92643 0.0
C602 C 0.26572 0.10853 0.92075 0.0
C603 C 0.33829 0.15005 0.90316 0.0
C604 C 0.29581 0.2241 0.99183 0.0
C605 C 0.30839 0.2346 0.97368 0.0
C606 C 0.29618 0.21666 0.94181 0.0
C607 C 0.3137 0.21894 0.93374 0.0
C608 C 0.31325 0.20505 0.91968 0.0
C609 C 0.2949 0.18856 0.91363 0.0
C610 C 0.27716 0.18681 0.92097 0.0
C611 C 0.27805 0.2011 0.93481 0.0
C612 C 0.33242 0.20767 0.91175 0.0
C613 C 0.25734 0.16945 0.9148 0.0
C614 C 0.27707 0.2105 0.78537 0.0
C615 C 0.2961 0.21388 0.78984 0.0
C616 C 0.29876 0.19947 0.79954 0.0
C617 C 0.28205 0.18135 0.80482 0.0
C618 C 0.26291 0.17758 0.79951 0.0
C619 C 0.26069 0.19218 0.78966 0.0
C620 C 0.31941 0.20368 0.80438 0.0
C621 C 0.24479 0.1583 0.80464 0.0
C622 C 0.27055 0.04358 0.78238 0.0
C623 C 0.27845 0.05816 0.76508 0.0
C624 C 0.29079 0.09094 0.78198 0.0
C625 C 0.30793 0.10854 0.78753 0.0
C626 C 0.30705 0.12378 0.79821 0.0
C627 C 0.28849 0.12122 0.80365 0.0
C628 C 0.27101 0.10357 0.79785 0.0
C629 C 0.27231 0.08861 0.78698 0.0
C630 C 0.32599 0.14252 0.80389 0.0
C631 C 0.25099 0.10044 0.8034 0.0
C632 C 0.29763 0.1427 0.90055 0.0
C633 C 0.29734 0.15824 0.91109 0.0
C634 C 0.29441 0.17227 0.90118 0.0
C635 C 0.29166 0.17085 0.88007 0.0
C636 C 0.28897 0.18486 0.86956 0.0
C637 C 0.28646 0.18341 0.84875 0.0
C638 C 0.28671 0.16798 0.83762 0.0
C639 C 0.28456 0.16659 0.81642 0.0
C640 C 0.28497 0.1511 0.80584 0.0
C641 C 0.28745 0.13683 0.81587 0.0
C642 C 0.28954 0.13791 0.83706 0.0
C643 C 0.292 0.12375 0.84763 0.0
C644 C 0.29452 0.1252 0.86843 0.0
C645 C 0.29463 0.14083 0.87947 0.0
C646 C 0.29177 0.15505 0.86918 0.0
C647 C 0.28928 0.15361 0.84795 0.0
C648 C 0.27157 0.25199 0.7893 0.0
C649 C 0.28498 0.24477 0.78052 0.0
O650 O 0.31677 0.09594 0.94991 0.0
O651 O 0.29296 0.07671 0.77209 0.0
O652 O 0.27395 0.22445 0.77683 0.0
O653 O 0.29641 0.22905 0.95657 0.0
H654 H 0.29113 0.07132 0.95801 0.0
H655 H 0.29398 0.10072 0.97739 0.0
H656 H 0.31688 0.10522 0.98875 0.0
H657 H 0.294 0.08293 0.99419 0.0
H658 H 0.27993 0.08972 0.94312 0.0
H659 H 0.34106 0.12436 0.92812 0.0
H660 H 0.26433 0.1209 0.92757 0.0
H661 H 0.25539 0.09459 0.92833 0.0
H662 H 0.26128 0.10715 0.90465 0.0
H663 H 0.35285 0.15133 0.90642 0.0
H664 H 0.33903 0.16424 0.90763 0.0
H665 H 0.33539 0.14791 0.8867 0.0
H666 H 0.31945 0.22958 0.97254 0.0
H667 H 0.30506 0.22885 0.0058 0.0
H668 H 0.28929 0.20779 0.98977 0.0
H669 H 0.28357 0.22732 0.99357 0.0
H670 H 0.32772 0.23146 0.93862 0.0
H671 H 0.2646 0.19969 0.94091 0.0
H672 H 0.33151 0.20576 0.89513 0.0
H673 H 0.33515 0.1961 0.91801 0.0
H674 H 0.34517 0.22248 0.91588 0.0
H675 H 0.24491 0.17028 0.92182 0.0
H676 H 0.25661 0.15539 0.91917 0.0
H677 H 0.25546 0.16892 0.89822 0.0
H678 H 0.29674 0.24843 0.79209 0.0
H679 H 0.30888 0.2277 0.7857 0.0
H680 H 0.24609 0.18958 0.78578 0.0
H681 H 0.32169 0.20461 0.82093 0.0
H682 H 0.33086 0.21779 0.7979 0.0
H683 H 0.32141 0.19134 0.79855 0.0
H684 H 0.23092 0.15783 0.79985 0.0
H685 H 0.24446 0.15614 0.82111 0.0
H686 H 0.2454 0.14573 0.7972 0.0
H687 H 0.26612 0.05931 0.75801 0.0
H688 H 0.25919 0.02864 0.77664 0.0
H689 H 0.26361 0.04857 0.79382 0.0
H690 H 0.2827 0.04243 0.78982 0.0
H691 H 0.3221 0.11024 0.78353 0.0
H692 H 0.25887 0.07516 0.78268 0.0
H693 H 0.32785 0.14384 0.8205 0.0
H694 H 0.32532 0.15568 0.79875 0.0
H695 H 0.33913 0.14277 0.79733 0.0
H696 H 0.23879 0.0857 0.79818 0.0
H697 H 0.24878 0.11216 0.79666 0.0
H698 H 0.25022 0.10175 0.81997 0.0
H699 H 0.29973 0.1596 0.92726 0.0
H700 H 0.2888 0.19713 0.87733 0.0
H701 H 0.28442 0.19462 0.84148 0.0
H702 H 0.28349 0.15024 0.78958 0.0
H703 H 0.29209 0.11141 0.83992 0.0
H704 H 0.29644 0.11394 0.87576 0.0
H705 H 0.25903 0.24845 0.77886 0.0
H706 H 0.28006 0.26828 0.79226 0.0
H707 H 0.26551 0.24458 0.80374 0.0
C708 C 0.78851 0.07757 0.9928 0.0
C709 C 0.77591 0.07997 0.9766 0.0
C710 C 0.79028 0.08535 0.94363 0.0
C711 C 0.78732 0.10052 0.93647 0.0
C712 C 0.80042 0.11422 0.9228 0.0
C713 C 0.81692 0.1128 0.91641 0.0
C714 C 0.81928 0.09682 0.92278 0.0
C715 C 0.8057 0.08308 0.93614 0.0
C716 C 0.79706 0.13069 0.91591 0.0
C717 C 0.83666 0.09481 0.91625 0.0
C718 C 0.9377 0.25527 0.97495 0.0
C719 C 0.92811 0.23462 0.96646 0.0
C720 C 0.89821 0.21212 0.9469 0.0
C721 C 0.90418 0.19836 0.9415 0.0
C722 C 0.89252 0.18226 0.92835 0.0
C723 C 0.87469 0.18002 0.92032 0.0
C724 C 0.86883 0.19403 0.92552 0.0
C725 C 0.88062 0.2098 0.93888 0.0
C726 C 0.8991 0.16751 0.92318 0.0
C727 C 0.85001 0.19223 0.91711 0.0
C728 C 0.9118 0.21219 0.79016 0.0
C729 C 0.91429 0.19581 0.7938 0.0
C730 C 0.9002 0.1796 0.80457 0.0
C731 C 0.88317 0.17964 0.81158 0.0
C732 C 0.88062 0.1961 0.80787 0.0
C733 C 0.89513 0.21227 0.79744 0.0
C734 C 0.90348 0.16238 0.80838 0.0
C735 C 0.86248 0.19654 0.81473 0.0
C736 C 0.75847 0.03061 0.78286 0.0
C737 C 0.76484 0.05155 0.7758 0.0
C738 C 0.79809 0.07857 0.78419 0.0
C739 C 0.81649 0.08103 0.78954 0.0
C740 C 0.83008 0.09748 0.80125 0.0
C741 C 0.82521 0.11201 0.80738 0.0
C742 C 0.80696 0.11008 0.80119 0.0
C743 C 0.79357 0.09336 0.78963 0.0
C744 C 0.84952 0.09921 0.80733 0.0
C745 C 0.80158 0.12562 0.80693 0.0
C746 C 0.83287 0.12933 0.90521 0.0
C747 C 0.84648 0.14601 0.91648 0.0
C748 C 0.86162 0.16254 0.90728 0.0
C749 C 0.8635 0.16249 0.88617 0.0
C750 C 0.87865 0.17883 0.87644 0.0
C751 C 0.88025 0.17873 0.85563 0.0
C752 C 0.86663 0.16239 0.84373 0.0
C753 C 0.86786 0.16235 0.82252 0.0
C754 C 0.85417 0.14577 0.81118 0.0
C755 C 0.83914 0.12912 0.82041 0.0
C756 C 0.83755 0.12894 0.84159 0.0
C757 C 0.8225 0.11251 0.85137 0.0
C758 C 0.82089 0.1126 0.8722 0.0
C759 C 0.8344 0.12902 0.88406 0.0
C760 C 0.8498 0.14569 0.87452 0.0
C761 C 0.85134 0.14566 0.85326 0.0
C762 C 0.94676 0.24492 0.75245 0.0
C763 C 0.9395 0.22868 0.76724 0.0
O764 O 0.7788 0.07319 0.95822 0.0
O765 O 0.78516 0.06187 0.77368 0.0
O766 O 0.92493 0.22802 0.77955 0.0
O767 O 0.9089 0.22778 0.95972 0.0
H768 H 0.78105 0.09616 0.97621 0.0
H769 H 0.80439 0.08684 0.98924 0.0
H770 H 0.78498 0.06188 0.99359 0.0
H771 H 0.78603 0.08251 0.00772 0.0
H772 H 0.77498 0.10184 0.94189 0.0
H773 H 0.80765 0.07112 0.9416 0.0
H774 H 0.80773 0.14472 0.92384 0.0
H775 H 0.78189 0.12766 0.91913 0.0
H776 H 0.7996 0.13289 0.89952 0.0
H777 H 0.83621 0.08137 0.92229 0.0
H778 H 0.8506 0.1081 0.92146 0.0
H779 H 0.83694 0.09408 0.8996 0.0
H780 H 0.92971 0.2237 0.97576 0.0
H781 H 0.94069 0.25387 0.99125 0.0
H782 H 0.92552 0.25863 0.97817 0.0
H783 H 0.96034 0.27161 0.95477 0.0
H784 H 0.91776 0.19997 0.94768 0.0
H785 H 0.87619 0.22053 0.94308 0.0
H786 H 0.88766 0.15245 0.92769 0.0
H787 H 0.91332 0.17128 0.93069 0.0
H788 H 0.90078 0.16695 0.90667 0.0
H789 H 0.84842 0.20525 0.92125 0.0
H790 H 0.83718 0.17869 0.92293 0.0
H791 H 0.84959 0.19063 0.90048 0.0
H792 H 0.95119 0.2274 0.77563 0.0
H793 H 0.92722 0.19565 0.78836 0.0
H794 H 0.89334 0.22496 0.79453 0.0
H795 H 0.90162 0.15876 0.82457 0.0
H796 H 0.91838 0.16549 0.80382 0.0
H797 H 0.89227 0.14909 0.79979 0.0
H798 H 0.86182 0.20952 0.80896 0.0
H799 H 0.86243 0.19719 0.8314 0.0
H800 H 0.84896 0.18275 0.80963 0.0
H801 H 0.76023 0.05852 0.78774 0.0
H802 H 0.74217 0.02194 0.78439 0.0
H803 H 0.76539 0.03149 0.79776 0.0
H804 H 0.76311 0.02267 0.77213 0.0
H805 H 0.81997 0.06969 0.78495 0.0
H806 H 0.77968 0.09197 0.78475 0.0
H807 H 0.85128 0.1005 0.82396 0.0
H808 H 0.86183 0.1129 0.80107 0.0
H809 H 0.85078 0.08628 0.80197 0.0
H810 H 0.78735 0.12256 0.79993 0.0
H811 H 0.81338 0.14047 0.8023 0.0
H812 H 0.80039 0.12621 0.82351 0.0
H813 H 0.8451 0.14624 0.93268 0.0
H814 H 0.88945 0.19189 0.88481 0.0
H815 H 0.89226 0.1917 0.84898 0.0
H816 H 0.85518 0.14584 0.79493 0.0
H817 H 0.81172 0.09943 0.84303 0.0
H818 H 0.80894 0.09963 0.87892 0.0
H819 H 0.9628 0.25497 0.7566 0.0
H820 H 0.94203 0.25567 0.75796 0.0
H821 H 0.93752 0.2298 0.72456 0.0
C822 C 0.7788 0.6936 0.98878 0.0
C823 C 0.76479 0.69259 0.97194 0.0
C824 C 0.78109 0.68776 0.94244 0.0
C825 C 0.79725 0.7072 0.94197 0.0
C826 C 0.813 0.71191 0.92898 0.0
C827 C 0.8126 0.69691 0.91628 0.0
C828 C 0.79611 0.67748 0.91638 0.0
C829 C 0.78051 0.67325 0.92935 0.0
C830 C 0.83024 0.73283 0.92901 0.0
C831 C 0.79518 0.66105 0.90315 0.0
C832 C 0.94897 0.70836 0.93394 0.0
C833 C 0.93362 0.69667 0.94987 0.0
C834 C 0.90285 0.68946 0.93192 0.0
C835 C 0.88665 0.67458 0.92121 0.0
C836 C 0.87313 0.67854 0.91138 0.0
C837 C 0.87589 0.69795 0.91237 0.0
C838 C 0.89216 0.71311 0.92335 0.0
C839 C 0.9055 0.70872 0.93307 0.0
C840 C 0.85586 0.66194 0.89994 0.0
C841 C 0.89542 0.73392 0.92471 0.0
C842 C 0.9131 0.72129 0.78461 0.0
C843 C 0.89783 0.70224 0.78921 0.0
C844 C 0.88124 0.69971 0.79971 0.0
C845 C 0.87999 0.71658 0.80579 0.0
C846 C 0.89498 0.73573 0.80039 0.0
C847 C 0.91126 0.73779 0.78965 0.0
C848 C 0.86519 0.67903 0.80458 0.0
C849 C 0.89399 0.75401 0.80637 0.0
C850 C 0.7476 0.70503 0.74683 0.0
C851 C 0.76386 0.71495 0.76212 0.0
C852 C 0.78038 0.7049 0.78673 0.0
C853 C 0.78028 0.68836 0.79467 0.0
C854 C 0.79673 0.69022 0.80524 0.0
C855 C 0.81347 0.70929 0.80852 0.0
C856 C 0.81352 0.72618 0.80086 0.0
C857 C 0.79702 0.7238 0.7899 0.0
C858 C 0.79625 0.67176 0.81269 0.0
C859 C 0.83102 0.74672 0.80422 0.0
C860 C 0.82991 0.70116 0.90387 0.0
C861 C 0.84533 0.69986 0.91309 0.0
C862 C 0.86147 0.70213 0.90213 0.0
C863 C 0.86258 0.70624 0.88143 0.0
C864 C 0.8788 0.709 0.87005 0.0
C865 C 0.87932 0.71211 0.84948 0.0
C866 C 0.86347 0.71221 0.83944 0.0
C867 C 0.86337 0.71428 0.81837 0.0
C868 C 0.84708 0.71369 0.80882 0.0
C869 C 0.83092 0.71143 0.81981 0.0
C870 C 0.83107 0.71004 0.84097 0.0
C871 C 0.8154 0.70847 0.85257 0.0
C872 C 0.81517 0.70599 0.87325 0.0
C873 C 0.83055 0.70488 0.88308 0.0
C874 C 0.84688 0.70725 0.8718 0.0
C875 C 0.84721 0.70999 0.85074 0.0
C876 C 0.95965 0.72918 0.78995 0.0
C877 C 0.94007 0.71453 0.7795 0.0
O878 O 0.76589 0.68219 0.95532 0.0
O879 O 0.76433 0.70193 0.77581 0.0
O880 O 0.92966 0.7242 0.7752 0.0
O881 O 0.91538 0.68439 0.94077 0.0
H882 H 0.76878 0.70787 0.96759 0.0
H883 H 0.79436 0.7018 0.98389 0.0
H884 H 0.77525 0.67843 0.99301 0.0
H885 H 0.77752 0.70152 0.00224 0.0
H886 H 0.79778 0.71871 0.95176 0.0
H887 H 0.76792 0.65835 0.92971 0.0
H888 H 0.84362 0.73297 0.93497 0.0
H889 H 0.82756 0.74321 0.93834 0.0
H890 H 0.83335 0.73828 0.91341 0.0
H891 H 0.78164 0.64657 0.90558 0.0
H892 H 0.80828 0.65942 0.90614 0.0
H893 H 0.79549 0.66486 0.88711 0.0
H894 H 0.93248 0.70712 0.96068 0.0
H895 H 0.96365 0.71814 0.94116 0.0
H896 H 0.94475 0.7179 0.92552 0.0
H897 H 0.95022 0.69805 0.92305 0.0
H898 H 0.8847 0.65977 0.92048 0.0
H899 H 0.91787 0.72037 0.94149 0.0
H900 H 0.85656 0.66571 0.88384 0.0
H901 H 0.84183 0.66012 0.90584 0.0
H902 H 0.85559 0.64756 0.90101 0.0
H903 H 0.90909 0.74422 0.93334 0.0
H904 H 0.88263 0.73374 0.93208 0.0
H905 H 0.89637 0.73968 0.90937 0.0
H906 H 0.93195 0.70239 0.79026 0.0
H907 H 0.89881 0.68936 0.78451 0.0
H908 H 0.92297 0.7524 0.78568 0.0
H909 H 0.86498 0.67703 0.82106 0.0
H910 H 0.86736 0.66741 0.79705 0.0
H911 H 0.85055 0.67685 0.79995 0.0
H912 H 0.90712 0.76788 0.80152 0.0
H913 H 0.89281 0.75475 0.82295 0.0
H914 H 0.88056 0.75315 0.79957 0.0
H915 H 0.76548 0.72874 0.76935 0.0
H916 H 0.73783 0.71162 0.74955 0.0
H917 H 0.73676 0.69008 0.75288 0.0
H918 H 0.76244 0.70836 0.71974 0.0
H919 H 0.76738 0.67385 0.7921 0.0
H920 H 0.79716 0.73674 0.78396 0.0
H921 H 0.79531 0.67149 0.82932 0.0
H922 H 0.81001 0.67177 0.80864 0.0
H923 H 0.78341 0.65799 0.80642 0.0
H924 H 0.82793 0.75848 0.79926 0.0
H925 H 0.84376 0.74803 0.7957 0.0
H926 H 0.83539 0.74931 0.82039 0.0
H927 H 0.84443 0.69633 0.92889 0.0
H928 H 0.89125 0.70871 0.87691 0.0
H929 H 0.89217 0.71407 0.8415 0.0
H930 H 0.84686 0.71469 0.79259 0.0
H931 H 0.80304 0.70897 0.84575 0.0
H932 H 0.80264 0.70465 0.88139 0.0
H933 H 0.96836 0.72179 0.7933 0.0
H934 H 0.95674 0.73462 0.80435 0.0
H935 H 0.96851 0.74217 0.78041 0.0
C936 C 0.88856 0.63577 0.3528 0.0
C937 C 0.89923 0.64932 0.37105 0.0
C938 C 0.88213 0.63898 0.40264 0.0
C939 C 0.88525 0.65717 0.41056 0.0
C940 C 0.87196 0.65786 0.42417 0.0
C941 C 0.85516 0.63997 0.42983 0.0
C942 C 0.85255 0.62156 0.42262 0.0
C943 C 0.8663 0.62131 0.40931 0.0
C944 C 0.87553 0.67774 0.43198 0.0
C945 C 0.83484 0.6022 0.42833 0.0
C946 C 0.73269 0.6609 0.37824 0.0
C947 C 0.74302 0.65047 0.38572 0.0
C948 C 0.77307 0.65836 0.40487 0.0
C949 C 0.76767 0.63856 0.40865 0.0
C950 C 0.77982 0.63413 0.42055 0.0
C951 C 0.79761 0.64978 0.42891 0.0
C952 C 0.80299 0.6697 0.42524 0.0
C953 C 0.79066 0.6737 0.41318 0.0
C954 C 0.77372 0.61274 0.42414 0.0
C955 C 0.8218 0.68675 0.43402 0.0
C956 C 0.75711 0.63759 0.55693 0.0
C957 C 0.75412 0.61937 0.549 0.0
C958 C 0.76928 0.61827 0.5389 0.0
C959 C 0.78774 0.6357 0.53663 0.0
C960 C 0.79086 0.65397 0.54478 0.0
C961 C 0.77548 0.65465 0.55481 0.0
C962 C 0.76551 0.59854 0.5304 0.0
C963 C 0.81039 0.67282 0.54267 0.0
C964 C 0.91404 0.612 0.55781 0.0
C965 C 0.90666 0.6256 0.566 0.0
C966 C 0.87326 0.61914 0.5584 0.0
C967 C 0.85487 0.60345 0.5522 0.0
C968 C 0.84123 0.60694 0.54186 0.0
C969 C 0.84605 0.62667 0.53799 0.0
C970 C 0.86423 0.64268 0.54519 0.0
C971 C 0.87767 0.63875 0.55536 0.0
C972 C 0.82184 0.58954 0.53468 0.0
C973 C 0.86955 0.66391 0.54187 0.0
C974 C 0.83945 0.64067 0.44164 0.0
C975 C 0.82599 0.64421 0.43117 0.0
C976 C 0.8109 0.64537 0.44107 0.0
C977 C 0.80895 0.64277 0.46206 0.0
C978 C 0.7939 0.64379 0.47249 0.0
C979 C 0.79209 0.64119 0.49315 0.0
C980 C 0.80532 0.63756 0.5042 0.0
C981 C 0.8036 0.63491 0.52521 0.0
C982 C 0.81708 0.63147 0.53577 0.0
C983 C 0.83233 0.63053 0.52589 0.0
C984 C 0.83426 0.63306 0.50486 0.0
C985 C 0.8494 0.63217 0.49442 0.0
C986 C 0.85121 0.63475 0.47374 0.0
C987 C 0.83784 0.63815 0.46267 0.0
C988 C 0.82248 0.63913 0.47289 0.0
C989 C 0.82069 0.63659 0.494 0.0
C990 C 0.71037 0.62032 0.55189 0.0
C991 C 0.72371 0.62488 0.57053 0.0
O992 O 0.89393 0.63813 0.38826 0.0
O993 O 0.88627 0.61477 0.56732 0.0
O994 O 0.74283 0.63955 0.56651 0.0
O995 O 0.76181 0.66333 0.39339 0.0
H996 H 0.89419 0.66043 0.37163 0.0
H997 H 0.87237 0.62937 0.35427 0.0
H998 H 0.89166 0.62332 0.35164 0.0
H999 H 0.89318 0.64435 0.33876 0.0
H1000 H 0.89794 0.67082 0.40589 0.0
H1001 H 0.86422 0.60734 0.40331 0.0
H1002 H 0.8647 0.6811 0.42482 0.0
H1003 H 0.89063 0.68991 0.42868 0.0
H1004 H 0.87335 0.67737 0.44847 0.0
H1005 H 0.83482 0.58916 0.42121 0.0
H1006 H 0.82108 0.60207 0.42376 0.0
H1007 H 0.83461 0.60071 0.4449 0.0
H1008 H 0.74247 0.63877 0.37536 0.0
H1009 H 0.7305 0.65735 0.36162 0.0
H1010 H 0.74434 0.67691 0.37637 0.0
H1011 H 0.70903 0.65212 0.39786 0.0
H1012 H 0.75409 0.62653 0.40228 0.0
H1013 H 0.79467 0.68891 0.41021 0.0
H1014 H 0.78536 0.60965 0.41877 0.0
H1015 H 0.75954 0.60224 0.4164 0.0
H1016 H 0.77215 0.60995 0.44051 0.0
H1017 H 0.82336 0.7014 0.43062 0.0
H1018 H 0.83467 0.68617 0.42788 0.0
H1019 H 0.82218 0.68543 0.45058 0.0
H1020 H 0.72363 0.61112 0.57503 0.0
H1021 H 0.74003 0.60598 0.55043 0.0
H1022 H 0.77768 0.66862 0.56098 0.0
H1023 H 0.7672 0.59939 0.51383 0.0
H1024 H 0.75051 0.58624 0.53381 0.0
H1025 H 0.77661 0.59503 0.53661 0.0
H1026 H 0.81057 0.68581 0.55015 0.0
H1027 H 0.81357 0.67596 0.52649 0.0
H1028 H 0.82241 0.67094 0.54928 0.0
H1029 H 0.91127 0.6377 0.55501 0.0
H1030 H 0.93038 0.62032 0.55672 0.0
H1031 H 0.90763 0.60633 0.54254 0.0
H1032 H 0.9096 0.59911 0.56766 0.0
H1033 H 0.85147 0.58839 0.55497 0.0
H1034 H 0.89154 0.651 0.56095 0.0
H1035 H 0.82037 0.58993 0.51811 0.0
H1036 H 0.80945 0.5906 0.54146 0.0
H1037 H 0.82044 0.57508 0.53864 0.0
H1038 H 0.88365 0.67469 0.54955 0.0
H1039 H 0.85761 0.66645 0.54743 0.0
H1040 H 0.87094 0.66681 0.52552 0.0
H1041 H 0.82736 0.64623 0.41505 0.0
H1042 H 0.7833 0.64657 0.46478 0.0
H1043 H 0.78017 0.64209 0.50035 0.0
H1044 H 0.81568 0.62946 0.55189 0.0
H1045 H 0.86007 0.6295 0.50212 0.0
H1046 H 0.86319 0.634 0.46651 0.0
H1047 H 0.71041 0.63391 0.54692 0.0
H1048 H 0.69499 0.6088 0.55526 0.0
H1049 H 0.71557 0.61465 0.53932 0.0
C1050 C 0.37398 0.25863 0.35996 0.0
C1051 C 0.36078 0.25591 0.3779 0.0
C1052 C 0.37088 0.24907 0.40998 0.0
C1053 C 0.35259 0.23432 0.41694 0.0
C1054 C 0.35151 0.22045 0.43082 0.0
C1055 C 0.3691 0.22132 0.43776 0.0
C1056 C 0.3876 0.23679 0.43148 0.0
C1057 C 0.38824 0.25068 0.41786 0.0
C1058 C 0.33155 0.20451 0.4376 0.0
C1059 C 0.40665 0.23821 0.43859 0.0
C1060 C 0.34452 0.07445 0.38964 0.0
C1061 C 0.35561 0.09545 0.39711 0.0
C1062 C 0.34877 0.11905 0.41528 0.0
C1063 C 0.3686 0.13315 0.41968 0.0
C1064 C 0.37348 0.15029 0.43133 0.0
C1065 C 0.35825 0.15329 0.43882 0.0
C1066 C 0.33829 0.13901 0.43457 0.0
C1067 C 0.33385 0.12213 0.42276 0.0
C1068 C 0.3949 0.16528 0.43557 0.0
C1069 C 0.32166 0.14165 0.44241 0.0
C1070 C 0.36943 0.12912 0.56877 0.0
C1071 C 0.38777 0.14484 0.56292 0.0
C1072 C 0.3889 0.16077 0.55221 0.0
C1073 C 0.37138 0.16106 0.5474 0.0
C1074 C 0.35297 0.14549 0.55364 0.0
C1075 C 0.35226 0.1297 0.56418 0.0
C1076 C 0.40877 0.17719 0.54579 0.0
C1077 C 0.33403 0.14543 0.54894 0.0
C1078 C 0.3923 0.31103 0.56375 0.0
C1079 C 0.37861 0.29046 0.57203 0.0
C1080 C 0.3856 0.2634 0.56649 0.0
C1081 C 0.40158 0.26074 0.56207 0.0
C1082 C 0.39876 0.24343 0.5521 0.0
C1083 C 0.3794 0.2283 0.5468 0.0
C1084 C 0.36307 0.23045 0.55218 0.0
C1085 C 0.36634 0.24799 0.56201 0.0
C1086 C 0.41648 0.24149 0.54686 0.0
C1087 C 0.34221 0.21432 0.5473 0.0
C1088 C 0.36804 0.20512 0.45014 0.0
C1089 C 0.36452 0.18769 0.44009 0.0
C1090 C 0.36309 0.17163 0.45056 0.0
C1091 C 0.36552 0.17299 0.4717 0.0
C1092 C 0.36445 0.15721 0.48268 0.0
C1093 C 0.3668 0.15866 0.5035 0.0
C1094 C 0.37008 0.17586 0.51417 0.0
C1095 C 0.37227 0.17738 0.53536 0.0
C1096 C 0.37527 0.19459 0.54552 0.0
C1097 C 0.37627 0.2105 0.53507 0.0
C1098 C 0.37432 0.20934 0.51385 0.0
C1099 C 0.37542 0.22513 0.50284 0.0
C1100 C 0.37334 0.22379 0.48198 0.0
C1101 C 0.37018 0.20665 0.47133 0.0
C1102 C 0.36901 0.19054 0.48212 0.0
C1103 C 0.37115 0.19192 0.5034 0.0
C1104 C 0.38876 0.10133 0.56652 0.0
C1105 C 0.38209 0.10899 0.5845 0.0
O1106 O 0.37216 0.26167 0.39544 0.0
O1107 O 0.38934 0.28091 0.57515 0.0
O1108 O 0.36744 0.11304 0.57859 0.0
O1109 O 0.34335 0.10236 0.40393 0.0
H1110 H 0.34966 0.23978 0.37789 0.0
H1111 H 0.38032 0.2487 0.36135 0.0
H1112 H 0.38638 0.27415 0.35935 0.0
H1113 H 0.36524 0.25472 0.34569 0.0
H1114 H 0.33917 0.23356 0.41138 0.0
H1115 H 0.40229 0.26233 0.41259 0.0
H1116 H 0.32819 0.19007 0.43063 0.0
H1117 H 0.31961 0.2076 0.43327 0.0
H1118 H 0.33161 0.20306 0.45417 0.0
H1119 H 0.4198 0.25094 0.43205 0.0
H1120 H 0.40665 0.22431 0.43445 0.0
H1121 H 0.40789 0.23987 0.45522 0.0
H1122 H 0.3674 0.10599 0.38706 0.0
H1123 H 0.34796 0.07513 0.37317 0.0
H1124 H 0.32876 0.07073 0.38701 0.0
H1125 H 0.35244 0.05933 0.41014 0.0
H1126 H 0.38031 0.13094 0.41395 0.0
H1127 H 0.31861 0.11115 0.41932 0.0
H1128 H 0.3983 0.17993 0.42974 0.0
H1129 H 0.40504 0.16084 0.42862 0.0
H1130 H 0.39775 0.16714 0.45205 0.0
H1131 H 0.30693 0.12868 0.43867 0.0
H1132 H 0.32251 0.15507 0.43588 0.0
H1133 H 0.32314 0.14395 0.45899 0.0
H1134 H 0.39494 0.12268 0.59096 0.0
H1135 H 0.40125 0.14477 0.56645 0.0
H1136 H 0.33819 0.11756 0.56881 0.0
H1137 H 0.40887 0.1784 0.52918 0.0
H1138 H 0.42102 0.17471 0.55048 0.0
H1139 H 0.41149 0.19157 0.55239 0.0
H1140 H 0.32101 0.13274 0.55572 0.0
H1141 H 0.33165 0.14463 0.53241 0.0
H1142 H 0.33511 0.15948 0.55458 0.0
H1143 H 0.3668 0.28244 0.56038 0.0
H1144 H 0.38406 0.31905 0.56123 0.0
H1145 H 0.39826 0.3095 0.54914 0.0
H1146 H 0.4049 0.31996 0.57429 0.0
H1147 H 0.41636 0.27256 0.56595 0.0
H1148 H 0.35384 0.24959 0.56624 0.0
H1149 H 0.4167 0.23918 0.53037 0.0
H1150 H 0.41541 0.22829 0.5542 0.0
H1151 H 0.4306 0.25478 0.55167 0.0
H1152 H 0.33107 0.21763 0.55377 0.0
H1153 H 0.33968 0.19995 0.55311 0.0
H1154 H 0.33994 0.21253 0.53074 0.0
H1155 H 0.36266 0.18653 0.42385 0.0
H1156 H 0.36186 0.14358 0.47529 0.0
H1157 H 0.36592 0.14607 0.51113 0.0
H1158 H 0.37683 0.19561 0.56178 0.0
H1159 H 0.37788 0.23872 0.51021 0.0
H1160 H 0.37424 0.23637 0.4743 0.0
H1161 H 0.37607 0.08782 0.55963 0.0
H1162 H 0.4002 0.09772 0.5714 0.0
H1163 H 0.39523 0.11277 0.55485 0.0
C1164 C 0.88886 0.24674 0.36173 0.0
C1165 C 0.90219 0.25651 0.38033 0.0
C1166 C 0.88293 0.23203 0.406 0.0
C1167 C 0.86789 0.23687 0.40787 0.0
C1168 C 0.85123 0.22533 0.41951 0.0
C1169 C 0.84951 0.2086 0.4294 0.0
C1170 C 0.86477 0.20391 0.42783 0.0
C1171 C 0.88134 0.2158 0.41628 0.0
C1172 C 0.83534 0.23089 0.42111 0.0
C1173 C 0.86342 0.18613 0.4381 0.0
C1174 C 0.73877 0.11531 0.34982 0.0
C1175 C 0.74386 0.10644 0.36771 0.0
C1176 C 0.75256 0.12471 0.39962 0.0
C1177 C 0.76789 0.12162 0.40619 0.0
C1178 C 0.78237 0.13496 0.4199 0.0
C1179 C 0.78157 0.15179 0.42705 0.0
C1180 C 0.76569 0.15451 0.421 0.0
C1181 C 0.75118 0.1407 0.40759 0.0
C1182 C 0.79878 0.13128 0.42642 0.0
C1183 C 0.76439 0.17233 0.4282 0.0
C1184 C 0.74344 0.12984 0.55623 0.0
C1185 C 0.7586 0.12571 0.55189 0.0
C1186 C 0.77552 0.13948 0.54179 0.0
C1187 C 0.77731 0.15774 0.53603 0.0
C1188 C 0.7624 0.16222 0.54109 0.0
C1189 C 0.74571 0.14824 0.5513 0.0
C1190 C 0.79144 0.13449 0.53715 0.0
C1191 C 0.76398 0.18165 0.53544 0.0
C1192 C 0.90722 0.29266 0.56091 0.0
C1193 C 0.89768 0.27792 0.57786 0.0
C1194 C 0.87697 0.24545 0.56061 0.0
C1195 C 0.87532 0.22701 0.55639 0.0
C1196 C 0.85928 0.21228 0.54514 0.0
C1197 C 0.84452 0.21616 0.53789 0.0
C1198 C 0.84597 0.23472 0.54219 0.0
C1199 C 0.86219 0.24922 0.55348 0.0
C1200 C 0.85818 0.19263 0.54085 0.0
C1201 C 0.83042 0.23927 0.53468 0.0
C1202 C 0.83145 0.19555 0.44077 0.0
C1203 C 0.81519 0.18075 0.43 0.0
C1204 C 0.79803 0.16719 0.43971 0.0
C1205 C 0.797 0.16832 0.46088 0.0
C1206 C 0.78019 0.15466 0.47122 0.0
C1207 C 0.77934 0.1559 0.49206 0.0
C1208 C 0.79533 0.17079 0.50336 0.0
C1209 C 0.7947 0.17206 0.52456 0.0
C1210 C 0.81085 0.18706 0.53531 0.0
C1211 C 0.82777 0.20089 0.52548 0.0
C1212 C 0.82872 0.19984 0.50431 0.0
C1213 C 0.84557 0.21346 0.49396 0.0
C1214 C 0.84646 0.21216 0.47315 0.0
C1215 C 0.83054 0.19719 0.46188 0.0
C1216 C 0.8133 0.18345 0.47197 0.0
C1217 C 0.81243 0.18472 0.49322 0.0
C1218 C 0.69622 0.08887 0.55427 0.0
C1219 C 0.71697 0.09611 0.56287 0.0
O1220 O 0.89905 0.24232 0.39442 0.0
O1221 O 0.89311 0.25902 0.57138 0.0
O1222 O 0.72658 0.1166 0.56536 0.0
O1223 O 0.73915 0.11269 0.38541 0.0
H1224 H 0.89899 0.26777 0.38708 0.0
H1225 H 0.87307 0.23959 0.36577 0.0
H1226 H 0.89168 0.23524 0.35497 0.0
H1227 H 0.89163 0.25806 0.35032 0.0
H1228 H 0.86896 0.24953 0.40026 0.0
H1229 H 0.89303 0.21223 0.41487 0.0
H1230 H 0.82149 0.21901 0.41392 0.0
H1231 H 0.83949 0.24513 0.41377 0.0
H1232 H 0.83223 0.23212 0.43716 0.0
H1233 H 0.87616 0.18403 0.43472 0.0
H1234 H 0.8496 0.17251 0.4333 0.0
H1235 H 0.86285 0.18796 0.45462 0.0
H1236 H 0.76009 0.11236 0.36691 0.0
H1237 H 0.74144 0.10962 0.33544 0.0
H1238 H 0.74828 0.13172 0.3504 0.0
H1239 H 0.72315 0.11176 0.35015 0.0
H1240 H 0.76857 0.10884 0.4005 0.0
H1241 H 0.73912 0.14278 0.40259 0.0
H1242 H 0.80079 0.13291 0.44302 0.0
H1243 H 0.81282 0.1425 0.41969 0.0
H1244 H 0.79589 0.11628 0.42168 0.0
H1245 H 0.75165 0.1728 0.42129 0.0
H1246 H 0.77817 0.18618 0.42459 0.0
H1247 H 0.76289 0.17205 0.44477 0.0
H1248 H 0.72453 0.09155 0.55166 0.0
H1249 H 0.75736 0.11186 0.55651 0.0
H1250 H 0.73409 0.15142 0.55506 0.0
H1251 H 0.79287 0.13375 0.52061 0.0
H1252 H 0.78829 0.1201 0.54347 0.0
H1253 H 0.80586 0.14638 0.5433 0.0
H1254 H 0.75091 0.18272 0.5401 0.0
H1255 H 0.76555 0.18341 0.51892 0.0
H1256 H 0.77739 0.19414 0.54264 0.0
H1257 H 0.88404 0.27786 0.58262 0.0
H1258 H 0.91112 0.30784 0.5662 0.0
H1259 H 0.89683 0.28848 0.5479 0.0
H1260 H 0.9208 0.29284 0.55575 0.0
H1261 H 0.88676 0.22422 0.56192 0.0
H1262 H 0.86321 0.26341 0.55649 0.0
H1263 H 0.85804 0.19012 0.52436 0.0
H1264 H 0.84422 0.18041 0.54674 0.0
H1265 H 0.87078 0.19188 0.54771 0.0
H1266 H 0.83346 0.25428 0.53959 0.0
H1267 H 0.81574 0.22807 0.54023 0.0
H1268 H 0.82965 0.23828 0.518 0.0
H1269 H 0.81599 0.17961 0.41379 0.0
H1270 H 0.76749 0.14283 0.46332 0.0
H1271 H 0.766 0.145 0.4992 0.0
H1272 H 0.81029 0.1879 0.55156 0.0
H1273 H 0.8583 0.22527 0.50184 0.0
H1274 H 0.85982 0.22303 0.466 0.0
H1275 H 0.68815 0.07245 0.55225 0.0
H1276 H 0.69723 0.09551 0.53938 0.0
H1277 H 0.68771 0.09325 0.56437 0.0
C1278 C 0.98201 0.42741 0.31298 0.0
C1279 C 0.98505 0.41722 0.29452 0.0
C1280 C 0.9935 0.44279 0.269 0.0
C1281 C 0.97435 0.43974 0.26596 0.0
C1282 C 0.97107 0.45238 0.25374 0.0
C1283 C 0.98724 0.46846 0.24449 0.0
C1284 C 0.00647 0.4714 0.24728 0.0
C1285 C 0.0093 0.45839 0.25938 0.0
C1286 C 0.95034 0.44872 0.25087 0.0
C1287 C 0.02406 0.48845 0.23773 0.0
C1288 C 0.97787 0.56116 0.32255 0.0
C1289 C 0.99039 0.57335 0.30504 0.0
C1290 C 0.97941 0.55529 0.27312 0.0
C1291 C 0.99731 0.55835 0.26532 0.0
C1292 C 0.99767 0.5447 0.25149 0.0
C1293 C 0.97974 0.52766 0.2454 0.0
C1294 C 0.9616 0.52506 0.25255 0.0
C1295 C 0.96168 0.53912 0.26615 0.0
C1296 C 0.01722 0.54818 0.24379 0.0
C1297 C 0.94222 0.50707 0.24641 0.0
C1298 C 0.95103 0.54205 0.1183 0.0
C1299 C 0.97104 0.54793 0.1213 0.0
C1300 C 0.97656 0.53534 0.13067 0.0
C1301 C 0.96176 0.51657 0.13722 0.0
C1302 C 0.94163 0.51033 0.13344 0.0
C1303 C 0.93656 0.5231 0.12379 0.0
C1304 C 0.99816 0.54217 0.13385 0.0
C1305 C 0.92546 0.49031 0.13995 0.0
C1306 C 0.96003 0.38246 0.12227 0.0
C1307 C 0.96278 0.39393 0.10294 0.0
C1308 C 0.97479 0.42824 0.11551 0.0
C1309 C 0.99152 0.44704 0.11763 0.0
C1310 C 0.99081 0.4626 0.12784 0.0
C1311 C 0.97282 0.45922 0.13612 0.0
C1312 C 0.95568 0.44036 0.13368 0.0
C1313 C 0.95681 0.42503 0.12342 0.0
C1314 C 0.00936 0.48255 0.13013 0.0
C1315 C 0.93624 0.43633 0.14225 0.0
C1316 C 0.98409 0.48265 0.2326 0.0
C1317 C 0.98355 0.49811 0.24302 0.0
C1318 C 0.98013 0.51179 0.23302 0.0
C1319 C 0.9771 0.51005 0.21193 0.0
C1320 C 0.9734 0.5234 0.20139 0.0
C1321 C 0.97005 0.5213 0.18068 0.0
C1322 C 0.97064 0.50599 0.16966 0.0
C1323 C 0.96721 0.50369 0.1486 0.0
C1324 C 0.96815 0.48844 0.13811 0.0
C1325 C 0.97217 0.47516 0.14812 0.0
C1326 C 0.97532 0.47702 0.16919 0.0
C1327 C 0.97906 0.46369 0.17976 0.0
C1328 C 0.98187 0.46545 0.20052 0.0
C1329 C 0.98129 0.48076 0.21149 0.0
C1330 C 0.97772 0.49448 0.20114 0.0
C1331 C 0.97462 0.49254 0.17997 0.0
C1332 C 0.93954 0.57993 0.12205 0.0
C1333 C 0.95436 0.5746 0.11321 0.0
O1334 O 0.99753 0.43129 0.28113 0.0
O1335 O 0.97684 0.41377 0.10598 0.0
O1336 O 0.94518 0.55421 0.11014 0.0
O1337 O 0.9789 0.56756 0.28757 0.0
H1338 H 0.97056 0.4072 0.28701 0.0
H1339 H 0.97495 0.43613 0.30854 0.0
H1340 H 0.99639 0.43761 0.32056 0.0
H1341 H 0.97222 0.41615 0.32383 0.0
H1342 H 0.96189 0.42764 0.2731 0.0
H1343 H 0.024 0.46059 0.26173 0.0
H1344 H 0.94928 0.46129 0.25768 0.0
H1345 H 0.93917 0.43477 0.25784 0.0
H1346 H 0.94674 0.44797 0.23459 0.0
H1347 H 0.03813 0.48895 0.24172 0.0
H1348 H 0.02513 0.5027 0.24258 0.0
H1349 H 0.02212 0.48715 0.22113 0.0
H1350 H 0.0027 0.57009 0.30382 0.0
H1351 H 0.98669 0.56603 0.3368 0.0
H1352 H 0.97294 0.54522 0.31974 0.0
H1353 H 0.96456 0.56268 0.32426 0.0
H1354 H 0.011 0.57132 0.27017 0.0
H1355 H 0.94793 0.5371 0.27207 0.0
H1356 H 0.01655 0.54647 0.22715 0.0
H1357 H 0.02043 0.5369 0.24997 0.0
H1358 H 0.02956 0.56317 0.24814 0.0
H1359 H 0.92942 0.50712 0.2535 0.0
H1360 H 0.94231 0.49337 0.25068 0.0
H1361 H 0.94024 0.5065 0.22983 0.0
H1362 H 0.96653 0.57976 0.12462 0.0
H1363 H 0.98233 0.5623 0.11628 0.0
H1364 H 0.92118 0.51859 0.12107 0.0
H1365 H 0.00178 0.54423 0.15019 0.0
H1366 H 0.00785 0.55637 0.12634 0.0
H1367 H 0.00145 0.53067 0.12801 0.0
H1368 H 0.91051 0.48802 0.13665 0.0
H1369 H 0.9269 0.48877 0.15635 0.0
H1370 H 0.92695 0.47843 0.1321 0.0
H1371 H 0.94846 0.39259 0.09827 0.0
H1372 H 0.94905 0.36649 0.11968 0.0
H1373 H 0.95456 0.38828 0.13445 0.0
H1374 H 0.97425 0.38386 0.12738 0.0
H1375 H 0.0053 0.44942 0.11142 0.0
H1376 H 0.94365 0.41062 0.12186 0.0
H1377 H 0.01315 0.48628 0.14633 0.0
H1378 H 0.00682 0.49422 0.12378 0.0
H1379 H 0.02212 0.48289 0.1225 0.0
H1380 H 0.92404 0.42115 0.13833 0.0
H1381 H 0.93231 0.44729 0.13659 0.0
H1382 H 0.93763 0.43812 0.15888 0.0
H1383 H 0.98572 0.49946 0.25922 0.0
H1384 H 0.97289 0.53552 0.20907 0.0
H1385 H 0.96707 0.53189 0.17342 0.0
H1386 H 0.96551 0.48677 0.12198 0.0
H1387 H 0.97974 0.45164 0.17212 0.0
H1388 H 0.98454 0.45468 0.20786 0.0
H1389 H 0.94651 0.59627 0.12432 0.0
H1390 H 0.9346 0.57288 0.13685 0.0
H1391 H 0.92635 0.5746 0.11202 0.0
C1392 C 0.4499 0.41632 0.32837 0.0
C1393 C 0.43718 0.41728 0.3113 0.0
C1394 C 0.45277 0.42237 0.27897 0.0
C1395 C 0.44981 0.43733 0.27116 0.0
C1396 C 0.46316 0.4509 0.25759 0.0
C1397 C 0.47984 0.44952 0.25186 0.0
C1398 C 0.48218 0.4337 0.25881 0.0
C1399 C 0.4684 0.42012 0.27213 0.0
C1400 C 0.45986 0.46722 0.25004 0.0
C1401 C 0.49972 0.4317 0.25291 0.0
C1402 C 0.60043 0.5926 0.30966 0.0
C1403 C 0.59046 0.57177 0.30166 0.0
C1404 C 0.56116 0.54958 0.28116 0.0
C1405 C 0.56672 0.53525 0.27711 0.0
C1406 C 0.55508 0.5188 0.26435 0.0
C1407 C 0.53765 0.51673 0.25542 0.0
C1408 C 0.53216 0.53125 0.25933 0.0
C1409 C 0.54397 0.54743 0.27225 0.0
C1410 C 0.56129 0.50354 0.26047 0.0
C1411 C 0.51375 0.52959 0.24996 0.0
C1412 C 0.57674 0.54792 0.12695 0.0
C1413 C 0.57882 0.53128 0.1304 0.0
C1414 C 0.56423 0.51488 0.14054 0.0
C1415 C 0.54711 0.51503 0.14708 0.0
C1416 C 0.54491 0.53171 0.1434 0.0
C1417 C 0.55992 0.54805 0.13363 0.0
C1418 C 0.56712 0.49742 0.14432 0.0
C1419 C 0.52669 0.53226 0.14975 0.0
C1420 C 0.42129 0.36647 0.12101 0.0
C1421 C 0.4275 0.38701 0.11287 0.0
C1422 C 0.46095 0.41402 0.12046 0.0
C1423 C 0.47932 0.41632 0.12572 0.0
C1424 C 0.49316 0.4329 0.13712 0.0
C1425 C 0.48858 0.44769 0.14302 0.0
C1426 C 0.4704 0.44593 0.13686 0.0
C1427 C 0.45675 0.4291 0.12561 0.0
C1428 C 0.51252 0.43445 0.14317 0.0
C1429 C 0.46533 0.46176 0.14233 0.0
C1430 C 0.49591 0.46589 0.24066 0.0
C1431 C 0.50946 0.48267 0.25183 0.0
C1432 C 0.52471 0.49905 0.24257 0.0
C1433 C 0.52682 0.49869 0.22152 0.0
C1434 C 0.54217 0.51483 0.21175 0.0
C1435 C 0.54394 0.51449 0.19099 0.0
C1436 C 0.53026 0.4981 0.17915 0.0
C1437 C 0.53161 0.49788 0.15797 0.0
C1438 C 0.51785 0.48129 0.14668 0.0
C1439 C 0.50265 0.4648 0.15596 0.0
C1440 C 0.50098 0.4648 0.17712 0.0
C1441 C 0.48581 0.44853 0.18697 0.0
C1442 C 0.4841 0.44882 0.20777 0.0
C1443 C 0.49759 0.46532 0.21954 0.0
C1444 C 0.51312 0.48182 0.20995 0.0
C1445 C 0.51481 0.48156 0.18873 0.0
C1446 C 0.61308 0.58142 0.09078 0.0
C1447 C 0.60526 0.56478 0.1051 0.0
O1448 O 0.44107 0.41037 0.29354 0.0
O1449 O 0.44776 0.39719 0.1103 0.0
O1450 O 0.59046 0.56403 0.1171 0.0
O1451 O 0.57187 0.56565 0.2935 0.0
H1452 H 0.44147 0.43322 0.31024 0.0
H1453 H 0.46576 0.42637 0.32522 0.0
H1454 H 0.44744 0.40105 0.32982 0.0
H1455 H 0.44649 0.42119 0.34285 0.0
H1456 H 0.43726 0.43858 0.27599 0.0
H1457 H 0.47034 0.4083 0.27805 0.0
H1458 H 0.47066 0.48148 0.25753 0.0
H1459 H 0.44475 0.4644 0.25319 0.0
H1460 H 0.46229 0.46887 0.2336 0.0
H1461 H 0.49915 0.41829 0.2592 0.0
H1462 H 0.51353 0.44502 0.25832 0.0
H1463 H 0.50038 0.43092 0.23629 0.0
H1464 H 0.59079 0.56071 0.31185 0.0
H1465 H 0.60218 0.59137 0.32629 0.0
H1466 H 0.58864 0.59681 0.31134 0.0
H1467 H 0.62463 0.60762 0.29078 0.0
H1468 H 0.57999 0.53672 0.28397 0.0
H1469 H 0.53984 0.55859 0.27542 0.0
H1470 H 0.5496 0.48881 0.26551 0.0
H1471 H 0.57537 0.50737 0.26836 0.0
H1472 H 0.56308 0.50217 0.24409 0.0
H1473 H 0.51201 0.54259 0.2538 0.0
H1474 H 0.50061 0.51598 0.25522 0.0
H1475 H 0.51412 0.52821 0.23336 0.0
H1476 H 0.61663 0.56312 0.11369 0.0
H1477 H 0.59187 0.53109 0.12539 0.0
H1478 H 0.55844 0.56094 0.13084 0.0
H1479 H 0.56513 0.49376 0.1605 0.0
H1480 H 0.58196 0.50028 0.13984 0.0
H1481 H 0.5558 0.48423 0.13568 0.0
H1482 H 0.52623 0.54526 0.14374 0.0
H1483 H 0.52636 0.533 0.1664 0.0
H1484 H 0.51321 0.51849 0.14454 0.0
H1485 H 0.42311 0.39457 0.12439 0.0
H1486 H 0.40504 0.35792 0.12296 0.0
H1487 H 0.42855 0.36807 0.13588 0.0
H1488 H 0.42567 0.35801 0.11068 0.0
H1489 H 0.48255 0.40477 0.12133 0.0
H1490 H 0.4429 0.42781 0.12076 0.0
H1491 H 0.51435 0.43586 0.15979 0.0
H1492 H 0.52489 0.44801 0.13679 0.0
H1493 H 0.51359 0.42137 0.13792 0.0
H1494 H 0.4512 0.45887 0.13524 0.0
H1495 H 0.47731 0.47648 0.13763 0.0
H1496 H 0.46411 0.4625 0.1589 0.0
H1497 H 0.50791 0.48312 0.268 0.0
H1498 H 0.55301 0.52791 0.22007 0.0
H1499 H 0.5561 0.52731 0.18432 0.0
H1500 H 0.51893 0.48123 0.13043 0.0
H1501 H 0.475 0.4354 0.17869 0.0
H1502 H 0.47205 0.43596 0.21454 0.0
H1503 H 0.62903 0.59122 0.0954 0.0
H1504 H 0.60839 0.59217 0.09641 0.0
H1505 H 0.60441 0.56706 0.06246 0.0
C1506 C 0.44416 0.01336 0.32141 0.0
C1507 C 0.43061 0.01297 0.30439 0.0
C1508 C 0.44556 0.00525 0.27558 0.0
C1509 C 0.46255 0.02407 0.2744 0.0
C1510 C 0.47809 0.02707 0.26181 0.0
C1511 C 0.47665 0.01096 0.25021 0.0
C1512 C 0.45934 0.99217 0.2509 0.0
C1513 C 0.44395 0.98962 0.26347 0.0
C1514 C 0.49626 0.04736 0.26119 0.0
C1515 C 0.45731 0.97466 0.23874 0.0
C1516 C 0.5889 0.97369 0.29463 0.0
C1517 C 0.57346 0.97441 0.28205 0.0
C1518 C 0.56153 0.99674 0.27235 0.0
C1519 C 0.54781 0.98346 0.25793 0.0
C1520 C 0.53583 0.98861 0.24676 0.0
C1521 C 0.53789 0.00763 0.24966 0.0
C1522 C 0.55192 0.02119 0.26385 0.0
C1523 C 0.56348 0.0155 0.2751 0.0
C1524 C 0.52075 0.97356 0.23206 0.0
C1525 C 0.55457 0.04162 0.26722 0.0
C1526 C 0.58521 0.03884 0.12512 0.0
C1527 C 0.56907 0.01969 0.12747 0.0
C1528 C 0.55193 0.01686 0.13706 0.0
C1529 C 0.55097 0.03355 0.14442 0.0
C1530 C 0.56691 0.05289 0.14133 0.0
C1531 C 0.58376 0.05527 0.1315 0.0
C1532 C 0.53494 0.99606 0.1395 0.0
C1533 C 0.56627 0.071 0.14874 0.0
C1534 C 0.42534 0.04671 0.12792 0.0
C1535 C 0.43405 0.04313 0.10881 0.0
C1536 C 0.45441 0.02944 0.12175 0.0
C1537 C 0.45519 0.01198 0.12359 0.0
C1538 C 0.47067 0.0118 0.13418 0.0
C1539 C 0.48581 0.02961 0.14313 0.0
C1540 C 0.48539 0.04747 0.14101 0.0
C1541 C 0.46967 0.04722 0.13037 0.0
C1542 C 0.4707 0.9925 0.13607 0.0
C1543 C 0.50141 0.06673 0.15027 0.0
C1544 C 0.49379 0.01346 0.23846 0.0
C1545 C 0.50805 0.01082 0.24846 0.0
C1546 C 0.5246 0.0128 0.23853 0.0
C1547 C 0.52733 0.01804 0.21808 0.0
C1548 C 0.5442 0.02097 0.20783 0.0
C1549 C 0.54641 0.02544 0.18753 0.0
C1550 C 0.53173 0.02692 0.17663 0.0
C1551 C 0.53352 0.03078 0.15582 0.0
C1552 C 0.51849 0.03185 0.14541 0.0
C1553 C 0.50169 0.02935 0.15527 0.0
C1554 C 0.49981 0.02587 0.17614 0.0
C1555 C 0.48325 0.02363 0.18659 0.0
C1556 C 0.48139 0.01989 0.20707 0.0
C1557 C 0.49583 0.0179 0.2178 0.0
C1558 C 0.5127 0.02023 0.2076 0.0
C1559 C 0.51479 0.02443 0.18679 0.0
C1560 C 0.62966 0.04339 0.13368 0.0
C1561 C 0.61162 0.03119 0.11994 0.0
O1562 O 0.43054 0.00135 0.28827 0.0
O1563 O 0.43861 0.02824 0.11172 0.0
O1564 O 0.60219 0.042 0.11647 0.0
O1565 O 0.57297 0.99196 0.28386 0.0
H1566 H 0.4358 0.02834 0.29938 0.0
H1567 H 0.45965 0.0202 0.3164 0.0
H1568 H 0.43938 0.99805 0.32632 0.0
H1569 H 0.44383 0.02229 0.33447 0.0
H1570 H 0.46392 0.03643 0.28338 0.0
H1571 H 0.43074 0.97521 0.26433 0.0
H1572 H 0.50911 0.0467 0.26748 0.0
H1573 H 0.49454 0.05871 0.26989 0.0
H1574 H 0.49962 0.05211 0.24538 0.0
H1575 H 0.44284 0.96103 0.24087 0.0
H1576 H 0.46926 0.97161 0.24311 0.0
H1577 H 0.45896 0.97817 0.22253 0.0
H1578 H 0.55853 0.96094 0.28286 0.0
H1579 H 0.58053 0.9615 0.30555 0.0
H1580 H 0.5939 0.98605 0.30626 0.0
H1581 H 0.60792 0.97236 0.27338 0.0
H1582 H 0.54616 0.96893 0.25542 0.0
H1583 H 0.57412 0.0257 0.28616 0.0
H1584 H 0.52496 0.97877 0.2165 0.0
H1585 H 0.50601 0.97192 0.23473 0.0
H1586 H 0.51954 0.95875 0.23315 0.0
H1587 H 0.56758 0.05119 0.27705 0.0
H1588 H 0.54119 0.04031 0.27435 0.0
H1589 H 0.55631 0.04896 0.25261 0.0
H1590 H 0.60188 0.01733 0.12802 0.0
H1591 H 0.56974 0.00694 0.12166 0.0
H1592 H 0.59616 0.07 0.12925 0.0
H1593 H 0.53294 0.99257 0.15571 0.0
H1594 H 0.53733 0.98478 0.13154 0.0
H1595 H 0.52106 0.99495 0.13368 0.0
H1596 H 0.5801 0.085 0.14561 0.0
H1597 H 0.56379 0.07017 0.16519 0.0
H1598 H 0.5537 0.07144 0.14138 0.0
H1599 H 0.4476 0.05709 0.10483 0.0
H1600 H 0.42138 0.0584 0.12544 0.0
H1601 H 0.43623 0.05174 0.14056 0.0
H1602 H 0.41192 0.03285 0.13231 0.0
H1603 H 0.44342 0.99836 0.11684 0.0
H1604 H 0.4694 0.06092 0.12906 0.0
H1605 H 0.47032 0.98888 0.15219 0.0
H1606 H 0.48452 0.99405 0.12984 0.0
H1607 H 0.45791 0.97995 0.1281 0.0
H1608 H 0.49941 0.07951 0.14662 0.0
H1609 H 0.51604 0.06974 0.1449 0.0
H1610 H 0.50149 0.06547 0.16686 0.0
H1611 H 0.50605 0.00677 0.26415 0.0
H1612 H 0.55587 0.01981 0.21542 0.0
H1613 H 0.5597 0.02748 0.18043 0.0
H1614 H 0.5198 0.0345 0.12939 0.0
H1615 H 0.47154 0.02475 0.17907 0.0
H1616 H 0.46836 0.01832 0.21434 0.0
H1617 H 0.6376 0.0351 0.13641 0.0
H1618 H 0.62486 0.04634 0.14839 0.0
H1619 H 0.63996 0.05785 0.12694 0.0
C1620 C 0.55946 0.98611 0.69128 0.0
C1621 C 0.57288 0.99919 0.70863 0.0
C1622 C 0.55622 0.98932 0.7405 0.0
C1623 C 0.55946 0.00756 0.74841 0.0
C1624 C 0.5463 0.00834 0.76214 0.0
C1625 C 0.5296 0.99049 0.76801 0.0
C1626 C 0.52689 0.97203 0.76082 0.0
C1627 C 0.54045 0.9717 0.74732 0.0
C1628 C 0.54993 0.02825 0.76993 0.0
C1629 C 0.50928 0.95272 0.76682 0.0
C1630 C 0.40402 0.00322 0.71371 0.0
C1631 C 0.4153 0.9943 0.72252 0.0
C1632 C 0.44508 0.00446 0.74318 0.0
C1633 C 0.44073 0.98508 0.74761 0.0
C1634 C 0.45348 0.98186 0.75992 0.0
C1635 C 0.47087 0.9983 0.76799 0.0
C1636 C 0.47515 0.01779 0.76375 0.0
C1637 C 0.46218 0.02059 0.75136 0.0
C1638 C 0.44852 0.96088 0.76415 0.0
C1639 C 0.49353 0.03565 0.77217 0.0
C1640 C 0.43239 0.98607 0.89691 0.0
C1641 C 0.42968 0.96831 0.88799 0.0
C1642 C 0.44506 0.96788 0.87764 0.0
C1643 C 0.46346 0.98553 0.87606 0.0
C1644 C 0.46631 0.00334 0.88521 0.0
C1645 C 0.45073 0.00334 0.89554 0.0
C1646 C 0.4416 0.9486 0.86816 0.0
C1647 C 0.48575 0.02242 0.88383 0.0
C1648 C 0.58796 0.96278 0.88967 0.0
C1649 C 0.5832 0.97604 0.90299 0.0
C1650 C 0.55004 0.9707 0.89678 0.0
C1651 C 0.53169 0.95494 0.89059 0.0
C1652 C 0.51798 0.9583 0.88021 0.0
C1653 C 0.52266 0.978 0.87633 0.0
C1654 C 0.54084 0.99408 0.88344 0.0
C1655 C 0.55436 0.99026 0.89363 0.0
C1656 C 0.49862 0.94082 0.87312 0.0
C1657 C 0.54602 0.01526 0.88011 0.0
C1658 C 0.5141 0.99124 0.78015 0.0
C1659 C 0.50016 0.99421 0.76991 0.0
C1660 C 0.48505 0.9951 0.78008 0.0
C1661 C 0.48367 0.99292 0.80115 0.0
C1662 C 0.46866 0.99374 0.81187 0.0
C1663 C 0.46732 0.99138 0.83259 0.0
C1664 C 0.48094 0.98811 0.84338 0.0
C1665 C 0.47955 0.98545 0.8644 0.0
C1666 C 0.4934 0.98236 0.87468 0.0
C1667 C 0.50869 0.98173 0.86452 0.0
C1668 C 0.51028 0.98427 0.84347 0.0
C1669 C 0.52542 0.98365 0.83274 0.0
C1670 C 0.5268 0.98607 0.81203 0.0
C1671 C 0.51301 0.98903 0.80122 0.0
C1672 C 0.49768 0.98981 0.81174 0.0
C1673 C 0.49633 0.98744 0.83289 0.0
C1674 C 0.38626 0.96956 0.89012 0.0
C1675 C 0.39847 0.97259 0.90933 0.0
O1676 O 0.56794 0.98837 0.72609 0.0
O1677 O 0.56302 0.96653 0.90608 0.0
O1678 O 0.41788 0.98738 0.90678 0.0
O1679 O 0.43328 0.00825 0.73112 0.0
H1680 H 0.57023 0.01195 0.71013 0.0
H1681 H 0.54391 0.98179 0.69443 0.0
H1682 H 0.56032 0.97234 0.68937 0.0
H1683 H 0.56368 0.99436 0.67703 0.0
H1684 H 0.57216 0.02119 0.74371 0.0
H1685 H 0.53831 0.95769 0.74134 0.0
H1686 H 0.5386 0.03128 0.76345 0.0
H1687 H 0.56476 0.04051 0.76594 0.0
H1688 H 0.54854 0.02811 0.78653 0.0
H1689 H 0.50925 0.93963 0.75981 0.0
H1690 H 0.49546 0.95249 0.76232 0.0
H1691 H 0.50923 0.95143 0.7834 0.0
H1692 H 0.41635 0.98311 0.7127 0.0
H1693 H 0.40299 0.99961 0.69713 0.0
H1694 H 0.41483 0.01952 0.71202 0.0
H1695 H 0.37907 0.99271 0.73179 0.0
H1696 H 0.42751 0.97243 0.74141 0.0
H1697 H 0.46539 0.03547 0.74793 0.0
H1698 H 0.44758 0.95862 0.78062 0.0
H1699 H 0.46046 0.95834 0.75859 0.0
H1700 H 0.43432 0.94966 0.75694 0.0
H1701 H 0.49427 0.04983 0.76826 0.0
H1702 H 0.50677 0.03567 0.76623 0.0
H1703 H 0.49405 0.03483 0.78878 0.0
H1704 H 0.39796 0.95844 0.91301 0.0
H1705 H 0.41564 0.95476 0.88888 0.0
H1706 H 0.45273 0.01695 0.90248 0.0
H1707 H 0.44294 0.95006 0.8516 0.0
H1708 H 0.4268 0.93594 0.87155 0.0
H1709 H 0.45303 0.9452 0.87359 0.0
H1710 H 0.48557 0.03507 0.89164 0.0
H1711 H 0.48933 0.0261 0.8678 0.0
H1712 H 0.49772 0.0205 0.89056 0.0
H1713 H 0.58826 0.99004 0.89476 0.0
H1714 H 0.60412 0.97001 0.88729 0.0
H1715 H 0.58046 0.96029 0.87478 0.0
H1716 H 0.5828 0.94812 0.89656 0.0
H1717 H 0.52835 0.93991 0.89347 0.0
H1718 H 0.56815 0.00257 0.89929 0.0
H1719 H 0.49694 0.94131 0.85659 0.0
H1720 H 0.48623 0.94167 0.88018 0.0
H1721 H 0.49743 0.9264 0.87685 0.0
H1722 H 0.5602 0.02612 0.88761 0.0
H1723 H 0.53412 0.01776 0.88588 0.0
H1724 H 0.54717 0.01811 0.86376 0.0
H1725 H 0.50107 0.99586 0.75372 0.0
H1726 H 0.45775 0.99617 0.80435 0.0
H1727 H 0.45543 0.99212 0.84003 0.0
H1728 H 0.4922 0.98028 0.89079 0.0
H1729 H 0.53638 0.98128 0.84023 0.0
H1730 H 0.53877 0.9855 0.80455 0.0
H1731 H 0.37065 0.95793 0.89229 0.0
H1732 H 0.39209 0.96473 0.8774 0.0
H1733 H 0.38675 0.9836 0.88604 0.0
C1734 C 0.01332 0.57565 0.69162 0.0
C1735 C 0.00144 0.57596 0.70968 0.0
C1736 C 0.01219 0.56809 0.74078 0.0
C1737 C 0.99411 0.55363 0.74843 0.0
C1738 C 0.99328 0.5395 0.76183 0.0
C1739 C 0.01092 0.53988 0.76764 0.0
C1740 C 0.02926 0.55498 0.76056 0.0
C1741 C 0.02966 0.56909 0.74742 0.0
C1742 C 0.97354 0.52394 0.76948 0.0
C1743 C 0.04836 0.55585 0.76645 0.0
C1744 C 0.99443 0.39564 0.72032 0.0
C1745 C 0.00386 0.41606 0.72934 0.0
C1746 C 0.99456 0.43836 0.74632 0.0
C1747 C 0.01393 0.45289 0.75193 0.0
C1748 C 0.01757 0.4699 0.76314 0.0
C1749 C 0.00153 0.47231 0.76911 0.0
C1750 C 0.98203 0.45764 0.76364 0.0
C1751 C 0.97883 0.4409 0.75222 0.0
C1752 C 0.03858 0.48536 0.76854 0.0
C1753 C 0.96458 0.45966 0.76984 0.0
C1754 C 0.02135 0.45211 0.89725 0.0
C1755 C 0.03846 0.46679 0.88808 0.0
C1756 C 0.03824 0.48228 0.87778 0.0
C1757 C 0.0206 0.48315 0.87668 0.0
C1758 C 0.00349 0.46866 0.88623 0.0
C1759 C 0.00412 0.45332 0.89638 0.0
C1760 C 0.05677 0.49756 0.86779 0.0
C1761 C 0.98448 0.46919 0.88537 0.0
C1762 C 0.05508 0.63788 0.89316 0.0
C1763 C 0.04019 0.61769 0.90146 0.0
C1764 C 0.04283 0.58809 0.89492 0.0
C1765 C 0.05692 0.58319 0.88875 0.0
C1766 C 0.05132 0.56504 0.87881 0.0
C1767 C 0.03103 0.55126 0.87544 0.0
C1768 C 0.01664 0.55572 0.88256 0.0
C1769 C 0.02268 0.57414 0.8922 0.0
C1770 C 0.06709 0.56069 0.87169 0.0
C1771 C 0.99489 0.54109 0.87983 0.0
C1772 C 0.01006 0.52381 0.78009 0.0
C1773 C 0.00607 0.50613 0.77023 0.0
C1774 C 0.00521 0.49036 0.78078 0.0
C1775 C 0.00832 0.49214 0.80186 0.0
C1776 C 0.00737 0.4765 0.81298 0.0
C1777 C 0.01101 0.47858 0.83362 0.0
C1778 C 0.01566 0.49637 0.84396 0.0
C1779 C 0.01991 0.49881 0.86485 0.0
C1780 C 0.0244 0.51663 0.87471 0.0
C1781 C 0.02499 0.53233 0.86421 0.0
C1782 C 0.02086 0.53021 0.84327 0.0
C1783 C 0.02144 0.54572 0.83218 0.0
C1784 C 0.01764 0.54358 0.81154 0.0
C1785 C 0.0134 0.52596 0.80114 0.0
C1786 C 0.01259 0.51006 0.81204 0.0
C1787 C 0.01626 0.51218 0.83313 0.0
C1788 C 0.03764 0.42231 0.88943 0.0
C1789 C 0.03548 0.43177 0.90897 0.0
O1790 O 0.01318 0.58115 0.72694 0.0
O1791 O 0.0492 0.60631 0.90351 0.0
O1792 O 0.02062 0.43646 0.90684 0.0
O1793 O 0.99041 0.42179 0.73527 0.0
H1794 H 0.98862 0.56063 0.71059 0.0
H1795 H 0.01753 0.56409 0.69362 0.0
H1796 H 0.02704 0.59018 0.69012 0.0
H1797 H 0.00431 0.57208 0.67756 0.0
H1798 H 0.98064 0.55336 0.7439 0.0
H1799 H 0.04357 0.58053 0.74164 0.0
H1800 H 0.96991 0.50917 0.76315 0.0
H1801 H 0.96148 0.52689 0.76526 0.0
H1802 H 0.9742 0.52325 0.7861 0.0
H1803 H 0.06131 0.56813 0.75912 0.0
H1804 H 0.04763 0.5416 0.76228 0.0
H1805 H 0.05062 0.55794 0.78299 0.0
H1806 H 0.01635 0.4276 0.72067 0.0
H1807 H 0.99952 0.3977 0.70431 0.0
H1808 H 0.97877 0.39139 0.71622 0.0
H1809 H 0.0014 0.37988 0.74094 0.0
H1810 H 0.02628 0.45113 0.74752 0.0
H1811 H 0.96395 0.42962 0.74787 0.0
H1812 H 0.04072 0.48629 0.78511 0.0
H1813 H 0.04163 0.50017 0.76356 0.0
H1814 H 0.04949 0.48196 0.76164 0.0
H1815 H 0.95028 0.44627 0.76568 0.0
H1816 H 0.96527 0.47268 0.76249 0.0
H1817 H 0.96512 0.46232 0.78635 0.0
H1818 H 0.0497 0.44543 0.9128 0.0
H1819 H 0.05199 0.46623 0.88867 0.0
H1820 H 0.99101 0.44199 0.90356 0.0
H1821 H 0.05411 0.49695 0.85131 0.0
H1822 H 0.06949 0.49525 0.87061 0.0
H1823 H 0.0607 0.51266 0.87335 0.0
H1824 H 0.97253 0.45699 0.89386 0.0
H1825 H 0.97951 0.468 0.86947 0.0
H1826 H 0.98697 0.48361 0.89163 0.0
H1827 H 0.02788 0.61081 0.89014 0.0
H1828 H 0.04826 0.64738 0.89169 0.0
H1829 H 0.0598 0.63578 0.87805 0.0
H1830 H 0.06839 0.64561 0.90312 0.0
H1831 H 0.07241 0.59393 0.89124 0.0
H1832 H 0.01168 0.57755 0.89772 0.0
H1833 H 0.06487 0.55656 0.85544 0.0
H1834 H 0.06595 0.54788 0.87991 0.0
H1835 H 0.08219 0.57355 0.87415 0.0
H1836 H 0.98557 0.5461 0.88763 0.0
H1837 H 0.99146 0.52643 0.88564 0.0
H1838 H 0.99092 0.539 0.86357 0.0
H1839 H 0.00375 0.50469 0.75405 0.0
H1840 H 0.00392 0.46249 0.80583 0.0
H1841 H 0.0102 0.46607 0.84136 0.0
H1842 H 0.02784 0.51844 0.8907 0.0
H1843 H 0.02486 0.55972 0.83932 0.0
H1844 H 0.01826 0.556 0.80379 0.0
H1845 H 0.02347 0.40881 0.88513 0.0
H1846 H 0.04924 0.41817 0.89134 0.0
H1847 H 0.04198 0.43288 0.87696 0.0
C1848 C 0.5571 0.58359 0.70569 0.0
C1849 C 0.57081 0.59411 0.72389 0.0
C1850 C 0.55241 0.56991 0.75004 0.0
C1851 C 0.53709 0.57432 0.75199 0.0
C1852 C 0.52047 0.5624 0.76352 0.0
C1853 C 0.51912 0.54575 0.77326 0.0
C1854 C 0.53474 0.54158 0.77173 0.0
C1855 C 0.55125 0.55384 0.76026 0.0
C1856 C 0.50419 0.56741 0.7651 0.0
C1857 C 0.5338 0.52395 0.7819 0.0
C1858 C 0.41602 0.45281 0.6905 0.0
C1859 C 0.41748 0.44222 0.70906 0.0
C1860 C 0.42449 0.46089 0.74066 0.0
C1861 C 0.4391 0.45751 0.74887 0.0
C1862 C 0.45286 0.47086 0.76312 0.0
C1863 C 0.45195 0.48791 0.76923 0.0
C1864 C 0.43663 0.49082 0.76166 0.0
C1865 C 0.42291 0.47707 0.74763 0.0
C1866 C 0.46867 0.46701 0.77129 0.0
C1867 C 0.43519 0.5088 0.76788 0.0
C1868 C 0.40921 0.46537 0.89667 0.0
C1869 C 0.42436 0.46113 0.89274 0.0
C1870 C 0.4417 0.47502 0.88332 0.0
C1871 C 0.4439 0.49349 0.87776 0.0
C1872 C 0.42897 0.49807 0.88243 0.0
C1873 C 0.41188 0.48399 0.89202 0.0
C1874 C 0.45762 0.46992 0.87915 0.0
C1875 C 0.43094 0.51773 0.87698 0.0
C1876 C 0.57255 0.62963 0.9021 0.0
C1877 C 0.56386 0.61551 0.91968 0.0
C1878 C 0.54317 0.58244 0.90355 0.0
C1879 C 0.54187 0.5641 0.89972 0.0
C1880 C 0.52591 0.54898 0.88875 0.0
C1881 C 0.51088 0.55237 0.88134 0.0
C1882 C 0.51187 0.57077 0.88541 0.0
C1883 C 0.52801 0.58565 0.89648 0.0
C1884 C 0.52526 0.5295 0.88476 0.0
C1885 C 0.49602 0.57479 0.87773 0.0
C1886 C 0.50098 0.53214 0.78421 0.0
C1887 C 0.48521 0.51717 0.77305 0.0
C1888 C 0.46785 0.50339 0.7823 0.0
C1889 C 0.4661 0.50443 0.80336 0.0
C1890 C 0.44897 0.49066 0.81321 0.0
C1891 C 0.44742 0.49182 0.83396 0.0
C1892 C 0.463 0.50673 0.84568 0.0
C1893 C 0.46167 0.50791 0.86681 0.0
C1894 C 0.47742 0.52296 0.87797 0.0
C1895 C 0.49458 0.53697 0.86859 0.0
C1896 C 0.49621 0.53601 0.8475 0.0
C1897 C 0.51331 0.54984 0.83762 0.0
C1898 C 0.51488 0.54867 0.8169 0.0
C1899 C 0.49942 0.53362 0.80525 0.0
C1900 C 0.48195 0.51964 0.81486 0.0
C1901 C 0.48037 0.52081 0.83603 0.0
C1902 C 0.3618 0.42522 0.8922 0.0
C1903 C 0.38206 0.43163 0.90167 0.0
O1904 O 0.5684 0.58048 0.73835 0.0
O1905 O 0.55939 0.5965 0.91384 0.0
O1906 O 0.39197 0.45201 0.90511 0.0
O1907 O 0.41191 0.44892 0.72586 0.0
H1908 H 0.56742 0.60532 0.73044 0.0
H1909 H 0.5414 0.57629 0.71009 0.0
H1910 H 0.56007 0.57209 0.69918 0.0
H1911 H 0.55934 0.59447 0.69395 0.0
H1912 H 0.53786 0.58689 0.74448 0.0
H1913 H 0.56318 0.55063 0.75882 0.0
H1914 H 0.49054 0.5554 0.75774 0.0
H1915 H 0.50807 0.58166 0.75792 0.0
H1916 H 0.50086 0.56835 0.78115 0.0
H1917 H 0.547 0.52251 0.77892 0.0
H1918 H 0.52043 0.51012 0.77659 0.0
H1919 H 0.53259 0.52536 0.79838 0.0
H1920 H 0.43326 0.44619 0.7103 0.0
H1921 H 0.41982 0.44717 0.67678 0.0
H1922 H 0.42657 0.46899 0.69218 0.0
H1923 H 0.40094 0.45064 0.6886 0.0
H1924 H 0.43982 0.44451 0.74406 0.0
H1925 H 0.41135 0.47934 0.74141 0.0
H1926 H 0.46934 0.46836 0.78796 0.0
H1927 H 0.48324 0.47835 0.76565 0.0
H1928 H 0.46609 0.45207 0.76677 0.0
H1929 H 0.42251 0.509 0.76047 0.0
H1930 H 0.449 0.52251 0.76405 0.0
H1931 H 0.43353 0.50907 0.78442 0.0
H1932 H 0.38993 0.42732 0.89058 0.0
H1933 H 0.42276 0.44707 0.89715 0.0
H1934 H 0.40024 0.48724 0.89547 0.0
H1935 H 0.45927 0.46907 0.86266 0.0
H1936 H 0.45429 0.45552 0.88563 0.0
H1937 H 0.47199 0.48177 0.88544 0.0
H1938 H 0.41771 0.51875 0.88103 0.0
H1939 H 0.43331 0.51996 0.86058 0.0
H1940 H 0.44405 0.52996 0.88487 0.0
H1941 H 0.55029 0.61538 0.92482 0.0
H1942 H 0.57646 0.64494 0.90694 0.0
H1943 H 0.56164 0.62489 0.88951 0.0
H1944 H 0.58599 0.6298 0.8965 0.0
H1945 H 0.55359 0.56174 0.90527 0.0
H1946 H 0.52871 0.59973 0.89928 0.0
H1947 H 0.52576 0.52713 0.86832 0.0
H1948 H 0.51117 0.51709 0.8902 0.0
H1949 H 0.53774 0.52894 0.89219 0.0
H1950 H 0.49867 0.58969 0.88254 0.0
H1951 H 0.48142 0.56337 0.88325 0.0
H1952 H 0.49533 0.57374 0.86105 0.0
H1953 H 0.48652 0.51615 0.75691 0.0
H1954 H 0.43658 0.47881 0.80496 0.0
H1955 H 0.43387 0.48083 0.8407 0.0
H1956 H 0.47633 0.52375 0.89417 0.0
H1957 H 0.52572 0.56173 0.8458 0.0
H1958 H 0.5284 0.5597 0.81011 0.0
H1959 H 0.35306 0.42948 0.90209 0.0
H1960 H 0.35349 0.40889 0.88946 0.0
H1961 H 0.36368 0.43256 0.87756 0.0
C1962 C 0.63501 0.7544 0.64778 0.0
C1963 C 0.63811 0.74458 0.62905 0.0
C1964 C 0.6442 0.76976 0.60367 0.0
C1965 C 0.62468 0.76595 0.60172 0.0
C1966 C 0.62025 0.77818 0.59007 0.0
C1967 C 0.63561 0.7945 0.58023 0.0
C1968 C 0.65519 0.79813 0.58189 0.0
C1969 C 0.65917 0.7856 0.59348 0.0
C1970 C 0.59918 0.77379 0.58838 0.0
C1971 C 0.67198 0.81543 0.57168 0.0
C1972 C 0.62917 0.89185 0.65998 0.0
C1973 C 0.642 0.90132 0.64168 0.0
C1974 C 0.63011 0.88268 0.61008 0.0
C1975 C 0.64773 0.88462 0.60267 0.0
C1976 C 0.64741 0.8706 0.58886 0.0
C1977 C 0.62908 0.8543 0.5824 0.0
C1978 C 0.61128 0.85284 0.58916 0.0
C1979 C 0.61205 0.86726 0.60274 0.0
C1980 C 0.66666 0.87292 0.58156 0.0
C1981 C 0.59148 0.83569 0.58257 0.0
C1982 C 0.61397 0.87879 0.45424 0.0
C1983 C 0.63284 0.88165 0.45856 0.0
C1984 C 0.63509 0.86694 0.46816 0.0
C1985 C 0.61814 0.84903 0.47345 0.0
C1986 C 0.59915 0.84579 0.46831 0.0
C1987 C 0.59734 0.86069 0.4586 0.0
C1988 C 0.65557 0.8706 0.47289 0.0
C1989 C 0.58078 0.82675 0.47346 0.0
C1990 C 0.60572 0.71071 0.45151 0.0
C1991 C 0.61328 0.72484 0.43382 0.0
C1992 C 0.62573 0.7579 0.45013 0.0
C1993 C 0.6429 0.77553 0.45553 0.0
C1994 C 0.6421 0.79082 0.46619 0.0
C1995 C 0.62357 0.78831 0.47169 0.0
C1996 C 0.60606 0.77066 0.46598 0.0
C1997 C 0.60729 0.75563 0.45518 0.0
C1998 C 0.66107 0.80953 0.47183 0.0
C1999 C 0.58608 0.76759 0.4716 0.0
C2000 C 0.63142 0.80828 0.56884 0.0
C2001 C 0.63115 0.82374 0.57957 0.0
C2002 C 0.62861 0.8381 0.5698 0.0
C2003 C 0.62625 0.83707 0.54864 0.0
C2004 C 0.62403 0.85144 0.53826 0.0
C2005 C 0.6219 0.85037 0.51741 0.0
C2006 C 0.62205 0.83497 0.50613 0.0
C2007 C 0.62023 0.83394 0.4849 0.0
C2008 C 0.62054 0.81849 0.47416 0.0
C2009 C 0.62262 0.8039 0.48404 0.0
C2010 C 0.62437 0.80462 0.50525 0.0
C2011 C 0.62644 0.79016 0.51567 0.0
C2012 C 0.6286 0.79123 0.5365 0.0
C2013 C 0.62875 0.80679 0.54772 0.0
C2014 C 0.6263 0.82133 0.53758 0.0
C2015 C 0.62418 0.82027 0.51631 0.0
C2016 C 0.61081 0.92221 0.45599 0.0
C2017 C 0.62325 0.91337 0.44837 0.0
O2018 O 0.64943 0.7588 0.61523 0.0
O2019 O 0.62784 0.74359 0.44033 0.0
O2020 O 0.6112 0.893 0.44578 0.0
O2021 O 0.63014 0.89531 0.62445 0.0
H2022 H 0.62357 0.73379 0.62209 0.0
H2023 H 0.62683 0.76217 0.64383 0.0
H2024 H 0.64944 0.76541 0.65475 0.0
H2025 H 0.62624 0.74302 0.65899 0.0
H2026 H 0.61286 0.75359 0.60928 0.0
H2027 H 0.67415 0.78834 0.59496 0.0
H2028 H 0.59798 0.78617 0.59544 0.0
H2029 H 0.58871 0.75978 0.59577 0.0
H2030 H 0.59477 0.7727 0.5723 0.0
H2031 H 0.68648 0.81664 0.57507 0.0
H2032 H 0.6726 0.82947 0.57652 0.0
H2033 H 0.66941 0.81376 0.55516 0.0
H2034 H 0.6527 0.89581 0.64133 0.0
H2035 H 0.6383 0.89707 0.67401 0.0
H2036 H 0.62234 0.87546 0.65873 0.0
H2037 H 0.61712 0.89546 0.66097 0.0
H2038 H 0.66173 0.89702 0.60778 0.0
H2039 H 0.59854 0.86609 0.60834 0.0
H2040 H 0.6662 0.87118 0.56493 0.0
H2041 H 0.66893 0.8611 0.58795 0.0
H2042 H 0.67947 0.88757 0.58602 0.0
H2043 H 0.57901 0.83654 0.58944 0.0
H2044 H 0.59053 0.82147 0.58676 0.0
H2045 H 0.58989 0.83546 0.56597 0.0
H2046 H 0.63479 0.91694 0.46017 0.0
H2047 H 0.64583 0.89528 0.45438 0.0
H2048 H 0.58286 0.85849 0.45485 0.0
H2049 H 0.65778 0.87111 0.48943 0.0
H2050 H 0.66725 0.88475 0.46669 0.0
H2051 H 0.65726 0.85819 0.46668 0.0
H2052 H 0.56707 0.82658 0.46858 0.0
H2053 H 0.58035 0.82466 0.48995 0.0
H2054 H 0.58109 0.81397 0.46615 0.0
H2055 H 0.60081 0.72576 0.4268 0.0
H2056 H 0.59435 0.69561 0.44616 0.0
H2057 H 0.59889 0.71591 0.46286 0.0
H2058 H 0.61803 0.70982 0.45893 0.0
H2059 H 0.65705 0.77719 0.45149 0.0
H2060 H 0.59382 0.74216 0.45099 0.0
H2061 H 0.66286 0.81097 0.48845 0.0
H2062 H 0.66049 0.82269 0.46652 0.0
H2063 H 0.6742 0.80966 0.46539 0.0
H2064 H 0.57382 0.753 0.46613 0.0
H2065 H 0.584 0.77953 0.4652 0.0
H2066 H 0.58526 0.76858 0.4882 0.0
H2067 H 0.63329 0.82481 0.59578 0.0
H2068 H 0.62395 0.8637 0.54615 0.0
H2069 H 0.62023 0.86185 0.51025 0.0
H2070 H 0.6193 0.81789 0.45788 0.0
H2071 H 0.62649 0.77786 0.50783 0.0
H2072 H 0.63021 0.77973 0.5437 0.0
H2073 H 0.62013 0.93856 0.45817 0.0
H2074 H 0.60432 0.91574 0.47066 0.0
H2075 H 0.59858 0.91895 0.4452 0.0
C2076 C 0.10882 0.7439 0.66989 0.0
C2077 C 0.09853 0.74697 0.65178 0.0
C2078 C 0.1161 0.75376 0.62036 0.0
C2079 C 0.11341 0.7691 0.61314 0.0
C2080 C 0.12686 0.78293 0.59979 0.0
C2081 C 0.14339 0.78142 0.59368 0.0
C2082 C 0.14561 0.76541 0.60026 0.0
C2083 C 0.13171 0.75158 0.61331 0.0
C2084 C 0.1237 0.79946 0.59268 0.0
C2085 C 0.16302 0.76332 0.59405 0.0
C2086 C 0.26696 0.92716 0.64357 0.0
C2087 C 0.25659 0.90602 0.63649 0.0
C2088 C 0.22636 0.88296 0.61762 0.0
C2089 C 0.23159 0.86832 0.61405 0.0
C2090 C 0.21925 0.85119 0.6024 0.0
C2091 C 0.20143 0.84874 0.5941 0.0
C2092 C 0.19623 0.86354 0.59759 0.0
C2093 C 0.20874 0.88041 0.60938 0.0
C2094 C 0.22518 0.83566 0.59898 0.0
C2095 C 0.17741 0.86149 0.58887 0.0
C2096 C 0.23867 0.87302 0.46448 0.0
C2097 C 0.2412 0.85724 0.47076 0.0
C2098 C 0.22642 0.84152 0.48149 0.0
C2099 C 0.20873 0.8415 0.48589 0.0
C2100 C 0.20601 0.85718 0.4793 0.0
C2101 C 0.22108 0.87276 0.46875 0.0
C2102 C 0.22973 0.82498 0.4883 0.0
C2103 C 0.18726 0.85753 0.48356 0.0
C2104 C 0.07931 0.69285 0.46141 0.0
C2105 C 0.08793 0.71429 0.45474 0.0
C2106 C 0.12164 0.74024 0.46362 0.0
C2107 C 0.13974 0.74231 0.46964 0.0
C2108 C 0.15376 0.75927 0.48043 0.0
C2109 C 0.14962 0.77465 0.48498 0.0
C2110 C 0.13169 0.77305 0.47813 0.0
C2111 C 0.11788 0.75586 0.46746 0.0
C2112 C 0.17286 0.76064 0.48722 0.0
C2113 C 0.1271 0.78946 0.48224 0.0
C2114 C 0.15908 0.79743 0.58176 0.0
C2115 C 0.17295 0.81465 0.59215 0.0
C2116 C 0.18798 0.83057 0.58209 0.0
C2117 C 0.1895 0.82928 0.56103 0.0
C2118 C 0.20457 0.84494 0.55045 0.0
C2119 C 0.20587 0.84359 0.5297 0.0
C2120 C 0.19206 0.8266 0.5187 0.0
C2121 C 0.19314 0.8252 0.49757 0.0
C2122 C 0.17913 0.80814 0.48708 0.0
C2123 C 0.16396 0.7923 0.49711 0.0
C2124 C 0.16264 0.7934 0.51825 0.0
C2125 C 0.14756 0.77773 0.52884 0.0
C2126 C 0.14632 0.77902 0.54962 0.0
C2127 C 0.16019 0.79595 0.56064 0.0
C2128 C 0.17552 0.81193 0.55026 0.0
C2129 C 0.17675 0.81063 0.52906 0.0
C2130 C 0.28569 0.90035 0.46663 0.0
C2131 C 0.27117 0.89244 0.44869 0.0
O2132 O 0.10403 0.7411 0.63434 0.0
O2133 O 0.1083 0.72306 0.45409 0.0
O2134 O 0.25268 0.88883 0.45448 0.0
O2135 O 0.23778 0.89973 0.62883 0.0
H2136 H 0.10372 0.76318 0.65181 0.0
H2137 H 0.12505 0.75363 0.66876 0.0
H2138 H 0.10554 0.72829 0.67047 0.0
H2139 H 0.10404 0.74785 0.68408 0.0
H2140 H 0.10088 0.77034 0.61807 0.0
H2141 H 0.13345 0.73949 0.61877 0.0
H2142 H 0.13481 0.81364 0.60007 0.0
H2143 H 0.10875 0.79688 0.59627 0.0
H2144 H 0.12577 0.80113 0.57619 0.0
H2145 H 0.16288 0.75032 0.6009 0.0
H2146 H 0.17698 0.77694 0.59855 0.0
H2147 H 0.16296 0.76165 0.57745 0.0
H2148 H 0.25715 0.89536 0.6471 0.0
H2149 H 0.26921 0.92663 0.66023 0.0
H2150 H 0.25534 0.9316 0.64526 0.0
H2151 H 0.29055 0.94113 0.6238 0.0
H2152 H 0.24519 0.8701 0.62038 0.0
H2153 H 0.20486 0.8918 0.61219 0.0
H2154 H 0.21357 0.8212 0.60466 0.0
H2155 H 0.23945 0.83967 0.60654 0.0
H2156 H 0.22648 0.83363 0.58261 0.0
H2157 H 0.17587 0.87468 0.59232 0.0
H2158 H 0.16454 0.84819 0.595 0.0
H2159 H 0.177 0.85931 0.5723 0.0
H2160 H 0.27011 0.87849 0.44266 0.0
H2161 H 0.25466 0.85709 0.46754 0.0
H2162 H 0.21921 0.88495 0.4638 0.0
H2163 H 0.22833 0.8237 0.50487 0.0
H2164 H 0.24448 0.82737 0.48412 0.0
H2165 H 0.21823 0.81067 0.48146 0.0
H2166 H 0.18709 0.87036 0.47668 0.0
H2167 H 0.18558 0.8583 0.50005 0.0
H2168 H 0.17432 0.84361 0.47772 0.0
H2169 H 0.08349 0.72179 0.46628 0.0
H2170 H 0.06295 0.68544 0.46195 0.0
H2171 H 0.08505 0.69269 0.47668 0.0
H2172 H 0.0835 0.68431 0.45096 0.0
H2173 H 0.14263 0.73032 0.46628 0.0
H2174 H 0.10426 0.75475 0.46205 0.0
H2175 H 0.17447 0.76264 0.50383 0.0
H2176 H 0.18549 0.77383 0.48061 0.0
H2177 H 0.17368 0.74723 0.4828 0.0
H2178 H 0.11292 0.78636 0.47511 0.0
H2179 H 0.13914 0.80368 0.47657 0.0
H2180 H 0.12629 0.79141 0.4987 0.0
H2181 H 0.17188 0.81578 0.60832 0.0
H2182 H 0.21555 0.85841 0.55812 0.0
H2183 H 0.21782 0.85609 0.52239 0.0
H2184 H 0.18002 0.8072 0.47087 0.0
H2185 H 0.13651 0.76431 0.52117 0.0
H2186 H 0.13435 0.76656 0.55697 0.0
H2187 H 0.30057 0.90353 0.46187 0.0
H2188 H 0.28078 0.88923 0.47863 0.0
H2189 H 0.28679 0.91417 0.47304 0.0
C2190 C 0.1115 0.35939 0.65337 0.0
C2191 C 0.09801 0.35671 0.63531 0.0
C2192 C 0.11671 0.35159 0.60835 0.0
C2193 C 0.13203 0.37141 0.60721 0.0
C2194 C 0.14877 0.37636 0.59564 0.0
C2195 C 0.15028 0.36122 0.5851 0.0
C2196 C 0.13468 0.34134 0.58587 0.0
C2197 C 0.11802 0.33686 0.59732 0.0
C2198 C 0.165 0.39774 0.5949 0.0
C2199 C 0.13582 0.32474 0.575 0.0
C2200 C 0.25467 0.375 0.66899 0.0
C2201 C 0.25204 0.36235 0.65008 0.0
C2202 C 0.24508 0.37316 0.61854 0.0
C2203 C 0.23044 0.35485 0.6104 0.0
C2204 C 0.21675 0.35393 0.59604 0.0
C2205 C 0.21774 0.37169 0.58976 0.0
C2206 C 0.23306 0.39022 0.59726 0.0
C2207 C 0.24674 0.3907 0.61139 0.0
C2208 C 0.20093 0.33396 0.58794 0.0
C2209 C 0.23458 0.40944 0.59086 0.0
C2210 C 0.2604 0.38676 0.46149 0.0
C2211 C 0.24526 0.36747 0.4656 0.0
C2212 C 0.22813 0.36437 0.4754 0.0
C2213 C 0.22609 0.38087 0.4811 0.0
C2214 C 0.24102 0.40025 0.47635 0.0
C2215 C 0.25793 0.40291 0.46643 0.0
C2216 C 0.2122 0.34347 0.4797 0.0
C2217 C 0.2392 0.41814 0.48195 0.0
C2218 C 0.0967 0.38343 0.45213 0.0
C2219 C 0.10612 0.37774 0.43503 0.0
C2220 C 0.12687 0.36693 0.45275 0.0
C2221 C 0.12833 0.35034 0.45777 0.0
C2222 C 0.14407 0.35221 0.46967 0.0
C2223 C 0.15875 0.37123 0.47673 0.0
C2224 C 0.15753 0.38816 0.47157 0.0
C2225 C 0.1416 0.38586 0.45963 0.0
C2226 C 0.14496 0.33385 0.47484 0.0
C2227 C 0.17301 0.40865 0.47884 0.0
C2228 C 0.16865 0.36593 0.5743 0.0
C2229 C 0.18445 0.36738 0.58563 0.0
C2230 C 0.2019 0.37078 0.57654 0.0
C2231 C 0.20374 0.37278 0.55547 0.0
C2232 C 0.22094 0.37588 0.54577 0.0
C2233 C 0.22254 0.3777 0.525 0.0
C2234 C 0.20694 0.37634 0.51311 0.0
C2235 C 0.20829 0.37786 0.49195 0.0
C2236 C 0.19245 0.37633 0.4806 0.0
C2237 C 0.17518 0.37333 0.48979 0.0
C2238 C 0.17357 0.37187 0.51092 0.0
C2239 C 0.15643 0.36893 0.52064 0.0
C2240 C 0.15484 0.36716 0.54141 0.0
C2241 C 0.1703 0.3682 0.55325 0.0
C2242 C 0.18787 0.37149 0.54379 0.0
C2243 C 0.18948 0.37329 0.5226 0.0
C2244 C 0.30754 0.39375 0.46491 0.0
C2245 C 0.28726 0.37985 0.45532 0.0
O2246 O 0.10058 0.34591 0.61997 0.0
O2247 O 0.11097 0.36382 0.44144 0.0
O2248 O 0.27739 0.39033 0.45252 0.0
O2249 O 0.2576 0.37433 0.63344 0.0
H2250 H 0.10149 0.3715 0.62975 0.0
H2251 H 0.12725 0.36795 0.64919 0.0
H2252 H 0.10842 0.34473 0.65888 0.0
H2253 H 0.10915 0.3677 0.66579 0.0
H2254 H 0.13113 0.38307 0.61538 0.0
H2255 H 0.10609 0.32164 0.59816 0.0
H2256 H 0.1784 0.3995 0.6027 0.0
H2257 H 0.16076 0.40802 0.60216 0.0
H2258 H 0.1689 0.40208 0.57905 0.0
H2259 H 0.12289 0.30995 0.57795 0.0
H2260 H 0.14947 0.32471 0.57968 0.0
H2261 H 0.13657 0.32715 0.55857 0.0
H2262 H 0.23603 0.35105 0.64922 0.0
H2263 H 0.25092 0.36579 0.68258 0.0
H2264 H 0.24465 0.38125 0.66804 0.0
H2265 H 0.27006 0.38754 0.67058 0.0
H2266 H 0.22965 0.34128 0.61536 0.0
H2267 H 0.2583 0.40477 0.61756 0.0
H2268 H 0.20028 0.33402 0.57127 0.0
H2269 H 0.18635 0.33089 0.59352 0.0
H2270 H 0.20348 0.32175 0.59258 0.0
H2271 H 0.24723 0.4226 0.59828 0.0
H2272 H 0.22076 0.40947 0.59455 0.0
H2273 H 0.23633 0.41079 0.57433 0.0
H2274 H 0.2794 0.36766 0.46609 0.0
H2275 H 0.24666 0.35482 0.46096 0.0
H2276 H 0.26954 0.4177 0.46286 0.0
H2277 H 0.21031 0.34167 0.49619 0.0
H2278 H 0.21565 0.33217 0.4736 0.0
H2279 H 0.19791 0.34062 0.47308 0.0
H2280 H 0.25239 0.43228 0.47773 0.0
H2281 H 0.23708 0.41855 0.4984 0.0
H2282 H 0.22599 0.41702 0.4743 0.0
H2283 H 0.11961 0.39123 0.43003 0.0
H2284 H 0.09263 0.39443 0.44692 0.0
H2285 H 0.10721 0.39019 0.46502 0.0
H2286 H 0.08324 0.37011 0.45743 0.0
H2287 H 0.11694 0.33581 0.45239 0.0
H2288 H 0.14078 0.39891 0.45592 0.0
H2289 H 0.14437 0.33217 0.4914 0.0
H2290 H 0.15916 0.33538 0.46985 0.0
H2291 H 0.13263 0.32018 0.46777 0.0
H2292 H 0.16999 0.42036 0.47353 0.0
H2293 H 0.18773 0.41192 0.47347 0.0
H2294 H 0.1737 0.40925 0.49552 0.0
H2295 H 0.18306 0.36558 0.60177 0.0
H2296 H 0.23335 0.37692 0.55416 0.0
H2297 H 0.23613 0.38009 0.51836 0.0
H2298 H 0.19353 0.37736 0.46437 0.0
H2299 H 0.144 0.36791 0.5123 0.0
H2300 H 0.14129 0.36488 0.54808 0.0
H2301 H 0.31583 0.38573 0.46714 0.0
H2302 H 0.30571 0.39924 0.47981 0.0
H2303 H 0.31629 0.40676 0.45535 0.0
C2304 C 0.96223 0.36423 0.05627 0.0
C2305 C 0.98219 0.36944 0.05502 0.0
H2306 H 0.94052 0.36792 0.07232 0.0
C2307 C 0.99559 0.38216 0.06995 0.0
H2308 H 0.95151 0.35441 0.04507 0.0
C2309 C 0.98929 0.38987 0.08547 0.0
C2310 C 0.96949 0.38525 0.0863 0.0
H2311 H 0.01104 0.38636 0.06957 0.0
H2312 H 0.99997 0.39966 0.09671 0.0
C2313 C 0.95594 0.37203 0.07179 0.0
C2314 C 0.63309 0.58306 0.0623 0.0
C2315 C 0.61917 0.59539 0.05734 0.0
H2316 H 0.63099 0.55366 0.08035 0.0
C2317 C 0.59364 0.58486 0.0642 0.0
H2318 H 0.64805 0.58938 0.05707 0.0
C2319 C 0.5814 0.56209 0.07763 0.0
C2320 C 0.59809 0.55331 0.08727 0.0
H2321 H 0.5855 0.59218 0.06001 0.0
H2322 H 0.56657 0.5564 0.08306 0.0
C2323 C 0.62226 0.56023 0.07578 0.0
C2324 C 0.38998 0.0117 0.0736 0.0
C2325 C 0.39164 0.02559 0.05937 0.0
H2326 H 0.40186 0.00635 0.10032 0.0
C2327 C 0.40697 0.04538 0.06174 0.0
H2328 H 0.37826 0.99637 0.07235 0.0
C2329 C 0.4206 0.05103 0.07771 0.0
C2330 C 0.41925 0.03701 0.09157 0.0
H2331 H 0.40863 0.05648 0.05112 0.0
H2332 H 0.43233 0.06634 0.07912 0.0
C2333 C 0.40354 0.01737 0.08959 0.0
C2334 C 0.38559 0.00339 0.94498 0.0
C2335 C 0.37343 0.98922 0.9589 0.0
H2336 H 0.40288 0.00925 0.91851 0.0
C2337 C 0.36917 0.96948 0.95622 0.0
H2338 H 0.38907 0.01869 0.94649 0.0
C2339 C 0.37724 0.96414 0.94023 0.0
C2340 C 0.38981 0.97843 0.92667 0.0
H2341 H 0.35979 0.95818 0.96659 0.0
H2342 H 0.37376 0.94885 0.93855 0.0
C2343 C 0.39359 0.99803 0.929 0.0
C2344 C 0.04014 0.40616 0.95553 0.0
C2345 C 0.0207 0.39041 0.95748 0.0
H2346 H 0.05998 0.43154 0.93872 0.0
C2347 C 0.00629 0.38806 0.9432 0.0
H2348 H 0.05161 0.40834 0.96621 0.0
C2349 C 0.01109 0.40133 0.92757 0.0
C2350 C 0.03037 0.41739 0.92592 0.0
H2351 H 0.9912 0.37602 0.94414 0.0
H2352 H 0.99966 0.39913 0.91681 0.0
C2353 C 0.04493 0.41949 0.93986 0.0
C2354 C 0.58976 0.63834 0.9701 0.0
C2355 C 0.6055 0.63445 0.9699 0.0
H2356 H 0.56433 0.63542 0.95445 0.0
C2357 C 0.60804 0.62517 0.95277 0.0
H2358 H 0.58742 0.64554 0.98302 0.0
C2359 C 0.59482 0.61937 0.93648 0.0
C2360 C 0.57862 0.62254 0.93702 0.0
H2361 H 0.62009 0.62207 0.95202 0.0
H2362 H 0.59703 0.61208 0.92357 0.0
C2363 C 0.57648 0.63248 0.9538 0.0
C2364 C 0.00611 0.61935 0.94121 0.0
C2365 C 0.01895 0.62792 0.95793 0.0
H2366 H 0.00277 0.60951 0.91044 0.0
C2367 C 0.03857 0.63208 0.95641 0.0
H2368 H 0.9909 0.61594 0.94183 0.0
C2369 C 0.04529 0.62816 0.93841 0.0
C2370 C 0.03259 0.62022 0.92152 0.0
H2371 H 0.04881 0.63856 0.96903 0.0
H2372 H 0.06054 0.63173 0.93754 0.0
C2373 C 0.01288 0.61564 0.9232 0.0
C2374 C 0.36828 0.41441 0.95559 0.0
C2375 C 0.37244 0.3988 0.95643 0.0
H2376 H 0.3683 0.43715 0.93779 0.0
C2377 C 0.38074 0.39474 0.93958 0.0
H2378 H 0.36195 0.41798 0.9683 0.0
C2379 C 0.38428 0.40567 0.92213 0.0
C2380 C 0.37981 0.42103 0.92118 0.0
H2381 H 0.38411 0.38282 0.93969 0.0
H2382 H 0.39023 0.40189 0.90923 0.0
C2383 C 0.37196 0.42543 0.93816 0.0
C2384 C 0.60049 0.96961 0.95482 0.0
C2385 C 0.61621 0.98883 0.95926 0.0
H2386 H 0.57758 0.9506 0.93377 0.0
C2387 C 0.62063 0.0039 0.94543 0.0
H2388 H 0.59663 0.95768 0.96517 0.0
C2389 C 0.60981 0.9998 0.92746 0.0
C2390 C 0.59419 0.98058 0.92296 0.0
H2391 H 0.63265 0.01886 0.94835 0.0
H2392 H 0.61377 0.01165 0.91698 0.0
C2393 C 0.58955 0.96555 0.93689 0.0
C2394 C 0.61945 0.0017 0.07813 0.0
C2395 C 0.63079 0.01652 0.0644 0.0
H2396 H 0.60461 0.99473 0.10626 0.0
C2397 C 0.63537 0.03615 0.06871 0.0
H2398 H 0.61566 0.98643 0.07531 0.0
C2399 C 0.62884 0.04084 0.0864 0.0
C2400 C 0.61771 0.02603 0.10021 0.0
H2401 H 0.64401 0.04791 0.05844 0.0
H2402 H 0.63267 0.05609 0.08942 0.0
C2403 C 0.61307 0.00642 0.09586 0.0
C2404 C 0.95684 0.59154 0.05917 0.0
C2405 C 0.9766 0.60683 0.05814 0.0
H2406 H 0.93445 0.56913 0.07719 0.0
C2407 C 0.98923 0.61071 0.07486 0.0
H2408 H 0.94675 0.58809 0.04652 0.0
C2409 C 0.98213 0.6 0.09242 0.0
C2410 C 0.96229 0.58504 0.09361 0.0
H2411 H 0.00454 0.62237 0.0746 0.0
H2412 H 0.99209 0.60366 0.10521 0.0
C2413 C 0.94979 0.58068 0.07669 0.0
C2414 C 0.40995 0.3739 0.0581 0.0
C2415 C 0.39464 0.37842 0.05725 0.0
H2416 H 0.43249 0.37336 0.07617 0.0
C2417 C 0.39099 0.38687 0.07439 0.0
H2418 H 0.41321 0.36746 0.04515 0.0
C2419 C 0.40195 0.3901 0.09215 0.0
C2420 C 0.41692 0.38516 0.09312 0.0
H2421 H 0.37931 0.39053 0.07429 0.0
H2422 H 0.39844 0.39613 0.10526 0.0
C2423 C 0.42102 0.3773 0.07582 0.0
C2424 C 0.64906 0.71287 0.40661 0.0
C2425 C 0.63828 0.70287 0.38907 0.0
H2426 H 0.64961 0.7274 0.43441 0.0
C2427 C 0.61896 0.69953 0.38655 0.0
H2428 H 0.6639 0.71554 0.40915 0.0
C2429 C 0.61085 0.70652 0.40101 0.0
C2430 C 0.62189 0.71704 0.41823 0.0
H2431 H 0.61023 0.6918 0.37325 0.0
H2432 H 0.596 0.7039 0.39865 0.0
C2433 C 0.64092 0.71974 0.42107 0.0
C2434 C 0.28316 0.93843 0.41866 0.0
C2435 C 0.29302 0.93633 0.40202 0.0
H2436 H 0.26871 0.9264 0.44635 0.0
C2437 C 0.29583 0.91983 0.40083 0.0
H2438 H 0.28086 0.95102 0.42016 0.0
C2439 C 0.28872 0.90564 0.41583 0.0
C2440 C 0.27857 0.90759 0.43226 0.0
H2441 H 0.30344 0.9178 0.38828 0.0
H2442 H 0.29111 0.89309 0.41458 0.0
C2443 C 0.27613 0.9243 0.43365 0.0
C2444 C 0.06316 0.34146 0.40082 0.0
C2445 C 0.06437 0.35359 0.38484 0.0
H2446 H 0.07515 0.33956 0.42919 0.0
C2447 C 0.07932 0.37365 0.38543 0.0
H2448 H 0.05172 0.326 0.40095 0.0
C2449 C 0.09284 0.38134 0.40153 0.0
C2450 C 0.09178 0.36916 0.41736 0.0
H2451 H 0.08063 0.38343 0.37343 0.0
H2452 H 0.10415 0.39686 0.40164 0.0
C2453 C 0.07661 0.3492 0.41697 0.0
C2454 C 0.03541 0.28637 0.28287 0.0
C2455 C 0.03771 0.31067 0.28433 0.0
H2456 H 0.04068 0.26354 0.25921 0.0
C2457 C 0.04376 0.32629 0.26274 0.0
H2458 H 0.03093 0.27711 0.2959 0.0
C2459 C 0.04913 0.3187 0.23906 0.0
C2460 C 0.05204 0.2964 0.24011 0.0
H2461 H 0.0442 0.34038 0.26401 0.0
H2462 H 0.05445 0.3287 0.22661 0.0
C2463 C 0.04052 0.27738 0.25985 0.0
C2464 C 0.68181 0.72691 0.28204 0.0
C2465 C 0.69309 0.72852 0.29928 0.0
H2466 H 0.68069 0.73927 0.25393 0.0
C2467 C 0.71264 0.74433 0.30096 0.0
H2468 H 0.66676 0.71485 0.28014 0.0
C2469 C 0.72058 0.75843 0.2859 0.0
C2470 C 0.70909 0.75703 0.26894 0.0
H2471 H 0.72174 0.74596 0.314 0.0
H2472 H 0.73564 0.77051 0.28758 0.0
C2473 C 0.68975 0.74093 0.26703 0.0
C2474 C 0.25794 0.97285 0.31052 0.0
C2475 C 0.27335 0.96853 0.30894 0.0
H2476 H 0.23264 0.97159 0.29623 0.0
C2477 C 0.2753 0.96005 0.29088 0.0
H2478 H 0.25609 0.97948 0.32419 0.0
C2479 C 0.26197 0.95566 0.27492 0.0
C2480 C 0.24613 0.95929 0.27675 0.0
H2481 H 0.28713 0.95676 0.28905 0.0
H2482 H 0.26392 0.94921 0.26118 0.0
C2483 C 0.24447 0.96827 0.29458 0.0
C2484 C 0.69107 0.95464 0.27757 0.0
C2485 C 0.70123 0.9622 0.29602 0.0
H2486 H 0.69289 0.94834 0.24647 0.0
C2487 C 0.72127 0.96762 0.29741 0.0
H2488 H 0.67563 0.95031 0.27595 0.0
C2489 C 0.73108 0.9662 0.28051 0.0
C2490 C 0.72115 0.95971 0.26181 0.0
H2491 H 0.72946 0.97335 0.31145 0.0
H2492 H 0.74659 0.97077 0.2819 0.0
C2493 C 0.70096 0.95354 0.26064 0.0
C2494 C 0.0527 0.73386 0.27885 0.0
C2495 C 0.04368 0.73707 0.2956 0.0
H2496 H 0.06294 0.74211 0.24887 0.0
C2497 C 0.03907 0.75238 0.29505 0.0
H2498 H 0.05644 0.7222 0.27873 0.0
C2499 C 0.04296 0.7639 0.27796 0.0
C2500 C 0.05147 0.76029 0.26103 0.0
H2501 H 0.03217 0.7553 0.3077 0.0
H2502 H 0.03892 0.77534 0.27779 0.0
C2503 C 0.05645 0.74528 0.26173 0.0
C2504 C 0.28094 0.32558 0.28007 0.0
C2505 C 0.27695 0.31354 0.2969 0.0
H2506 H 0.27485 0.32701 0.2489 0.0
C2507 C 0.26225 0.29343 0.29519 0.0
H2508 H 0.29218 0.34112 0.28084 0.0
C2509 C 0.25222 0.28542 0.27691 0.0
C2510 C 0.25676 0.29732 0.25992 0.0
H2511 H 0.25875 0.28375 0.30787 0.0
H2512 H 0.24129 0.26978 0.27587 0.0
C2513 C 0.27103 0.31752 0.26176 0.0
C2514 C 0.30102 0.37635 0.40099 0.0
C2515 C 0.29691 0.35657 0.39946 0.0
H2516 H 0.30096 0.39908 0.41966 0.0
C2517 C 0.28857 0.34421 0.41598 0.0
H2518 H 0.30738 0.38626 0.38855 0.0
C2519 C 0.28498 0.35161 0.43378 0.0
C2520 C 0.28946 0.37146 0.43542 0.0
H2521 H 0.28522 0.32891 0.41535 0.0
H2522 H 0.27903 0.34188 0.44641 0.0
C2523 C 0.2973 0.3837 0.41876 0.0
C2524 C 0.66109 0.94744 0.41074 0.0
C2525 C 0.64968 0.94275 0.39292 0.0
H2526 H 0.66169 0.94182 0.44207 0.0
C2527 C 0.62981 0.92756 0.39315 0.0
H2528 H 0.67643 0.95907 0.41113 0.0
C2529 C 0.62144 0.91763 0.41086 0.0
C2530 C 0.63276 0.92262 0.42874 0.0
H2531 H 0.62058 0.92354 0.37972 0.0
H2532 H 0.60597 0.90633 0.41072 0.0
C2533 C 0.65269 0.93754 0.42846 0.0
C2534 C 0.07565 0.70656 0.39849 0.0
C2535 C 0.06069 0.71153 0.39691 0.0
H2536 H 0.0961 0.70375 0.41788 0.0
C2537 C 0.05578 0.7188 0.41413 0.0
H2538 H 0.07985 0.70097 0.38553 0.0
C2539 C 0.06505 0.7203 0.43264 0.0
C2540 C 0.07958 0.71478 0.43431 0.0
H2541 H 0.04432 0.72275 0.41348 0.0
H2542 H 0.06052 0.72533 0.44577 0.0
C2543 C 0.085 0.70819 0.41698 0.0
C2544 C 0.28483 0.03392 0.71733 0.0
C2545 C 0.30412 0.03726 0.72 0.0
H2546 H 0.26166 0.03798 0.72942 0.0
C2547 C 0.31464 0.04686 0.73779 0.0
H2548 H 0.2763 0.02649 0.70384 0.0
C2549 C 0.30627 0.05336 0.75235 0.0
C2550 C 0.28727 0.05069 0.74938 0.0
H2551 H 0.32946 0.0495 0.74046 0.0
H2552 H 0.31476 0.06071 0.76589 0.0
C2553 C 0.27648 0.04056 0.7319 0.0
C2554 C 0.96616 0.24599 0.7236 0.0
C2555 C 0.9519 0.25796 0.7186 0.0
H2556 H 0.96485 0.21725 0.74229 0.0
C2557 C 0.92653 0.24741 0.7261 0.0
H2558 H 0.98099 0.25228 0.71801 0.0
C2559 C 0.91483 0.225 0.74019 0.0
C2560 C 0.93195 0.21672 0.74974 0.0
H2561 H 0.91816 0.25448 0.72189 0.0
H2562 H 0.90013 0.21935 0.74598 0.0
C2563 C 0.95588 0.22356 0.73772 0.0
C2564 C 0.74448 0.67999 0.72243 0.0
C2565 C 0.7344 0.69466 0.71268 0.0
H2566 H 0.77227 0.68256 0.74447 0.0
C2567 C 0.74678 0.72129 0.71628 0.0
H2568 H 0.73722 0.66425 0.71897 0.0
C2569 C 0.76919 0.73413 0.73114 0.0
C2570 C 0.7756 0.71763 0.74529 0.0
H2571 H 0.74081 0.72967 0.70931 0.0
H2572 H 0.77577 0.74979 0.73482 0.0
C2573 C 0.76683 0.69137 0.73742 0.0
C2574 C 0.6986 0.62552 0.61939 0.0
C2575 C 0.70208 0.6451 0.6203 0.0
H2576 H 0.70267 0.60386 0.60304 0.0
C2577 C 0.71211 0.6578 0.60446 0.0
H2578 H 0.69085 0.6153 0.63127 0.0
C2579 C 0.71893 0.65124 0.58836 0.0
C2580 C 0.716 0.63187 0.58779 0.0
H2581 H 0.71497 0.67294 0.60461 0.0
H2582 H 0.72672 0.66139 0.57644 0.0
C2583 C 0.70543 0.61897 0.60327 0.0
C2584 C 0.37805 0.08057 0.63224 0.0
C2585 C 0.35879 0.06426 0.63031 0.0
H2586 H 0.40044 0.10744 0.61933 0.0
C2587 C 0.34744 0.06246 0.61308 0.0
H2588 H 0.38721 0.08237 0.64528 0.0
C2589 C 0.355 0.0768 0.59832 0.0
C2590 C 0.37402 0.09341 0.60051 0.0
H2591 H 0.33261 0.05003 0.611 0.0
H2592 H 0.3459 0.075 0.58522 0.0
C2593 C 0.3856 0.09498 0.61745 0.0
C2594 C 0.94039 0.28591 0.6125 0.0
C2595 C 0.93767 0.29531 0.62943 0.0
H2596 H 0.93004 0.27319 0.58303 0.0
C2597 C 0.92217 0.29956 0.62909 0.0
H2598 H 0.95225 0.28253 0.61218 0.0
C2599 C 0.90938 0.29408 0.61241 0.0
C2600 C 0.91174 0.28414 0.59577 0.0
H2601 H 0.9197 0.30687 0.64183 0.0
H2602 H 0.89747 0.29741 0.61261 0.0
C2603 C 0.92763 0.28048 0.59583 0.0
C2604 C 0.37358 0.30319 0.62658 0.0
C2605 C 0.35393 0.29917 0.62684 0.0
H2606 H 0.39666 0.30339 0.6092 0.0
C2607 C 0.34212 0.29119 0.60936 0.0
H2608 H 0.38308 0.3093 0.63978 0.0
C2609 C 0.34995 0.28787 0.59186 0.0
C2610 C 0.36968 0.29227 0.59151 0.0
H2611 H 0.32693 0.28793 0.60901 0.0
H2612 H 0.34066 0.28221 0.57847 0.0
C2613 C 0.38136 0.29976 0.60911 0.0
C2614 C 0.70615 0.08158 0.61782 0.0
C2615 C 0.71003 0.06578 0.61887 0.0
H2616 H 0.70551 0.10363 0.59945 0.0
C2617 C 0.71735 0.06084 0.6018 0.0
H2618 H 0.70054 0.08582 0.63068 0.0
C2619 C 0.72013 0.07103 0.58394 0.0
C2620 C 0.71585 0.08651 0.58278 0.0
H2621 H 0.72047 0.04875 0.60205 0.0
H2622 H 0.72526 0.06653 0.57087 0.0
C2623 C 0.70904 0.09183 0.59998 0.0
C2624 C 0.92053 0.62941 0.6217 0.0
C2625 C 0.9361 0.64913 0.62366 0.0
H2626 H 0.89892 0.60664 0.60208 0.0
C2627 C 0.94109 0.66142 0.60692 0.0
H2628 H 0.91626 0.61956 0.63429 0.0
C2629 C 0.93118 0.65397 0.58849 0.0
C2630 C 0.91595 0.63414 0.58643 0.0
H2631 H 0.95302 0.67667 0.60788 0.0
H2632 H 0.93572 0.6636 0.5757 0.0
C2633 C 0.91055 0.62201 0.6033 0.0
C2634 C 0.94393 0.67874 0.74229 0.0
C2635 C 0.95309 0.69093 0.72585 0.0
H2636 H 0.93273 0.67663 0.77196 0.0
C2637 C 0.95714 0.7107 0.72673 0.0
H2638 H 0.94061 0.66344 0.74214 0.0
C2639 C 0.95243 0.71818 0.74378 0.0
C2640 C 0.94369 0.70609 0.76037 0.0
H2641 H 0.96411 0.72048 0.71432 0.0
H2642 H 0.95594 0.73353 0.74417 0.0
C2643 C 0.93938 0.68626 0.75938 0.0
C2644 C 0.32201 0.28147 0.74392 0.0
C2645 C 0.31026 0.27789 0.72653 0.0
H2646 H 0.32323 0.27385 0.77448 0.0
C2647 C 0.29044 0.26257 0.72657 0.0
H2648 H 0.33733 0.29315 0.74443 0.0
C2649 C 0.28244 0.25144 0.74376 0.0
C2650 C 0.29407 0.25539 0.76129 0.0
H2651 H 0.28098 0.25937 0.71343 0.0
H2652 H 0.26703 0.24001 0.74352 0.0
C2653 C 0.31397 0.27041 0.76113 0.0
C2654 C 0.74793 0.04063 0.72069 0.0
C2655 C 0.73288 0.04553 0.72017 0.0
H2656 H 0.77003 0.03903 0.73853 0.0
C2657 C 0.72932 0.05366 0.73761 0.0
H2658 H 0.75113 0.03444 0.7075 0.0
C2659 C 0.74003 0.05611 0.75537 0.0
C2660 C 0.75467 0.05068 0.75605 0.0
H2661 H 0.71784 0.0576 0.73775 0.0
H2662 H 0.73655 0.06185 0.76872 0.0
C2663 C 0.75877 0.04327 0.73842 0.0
C2664 C 0.04237 0.31815 0.03266 0.0
C2665 C 0.05137 0.3389 0.03161 0.0
H2666 H 0.0454 0.29338 0.04141 0.0
C2667 C 0.07098 0.35069 0.03853 0.0
H2668 H 0.0273 0.30865 0.0274 0.0
C2669 C 0.08131 0.34193 0.0465 0.0
C2670 C 0.07214 0.3212 0.04808 0.0
H2671 H 0.07839 0.36671 0.03778 0.0
H2672 H 0.09649 0.3514 0.05147 0.0
C2673 C 0.05266 0.3094 0.04079 0.0
C2674 C 0.64837 0.70627 0.07769 0.0
C2675 C 0.66024 0.6994 0.0585 0.0
H2676 H 0.65492 0.73389 0.1028 0.0
C2677 C 0.68642 0.71395 0.05412 0.0
H2678 H 0.63284 0.6967 0.08048 0.0
C2679 C 0.70153 0.73687 0.06791 0.0
C2680 C 0.68749 0.74581 0.08313 0.0
H2681 H 0.69313 0.70891 0.04306 0.0
H2682 H 0.7168 0.74654 0.06412 0.0
C2683 C 0.66216 0.72889 0.09234 0.0
C2684 C 0.2829 0.94021 0.03776 0.0
C2685 C 0.29143 0.96002 0.03181 0.0
H2686 H 0.25749 0.91499 0.04943 0.0
C2687 C 0.28029 0.96965 0.03323 0.0
H2688 H 0.29102 0.93231 0.03672 0.0
C2689 C 0.26116 0.95978 0.04075 0.0
C2690 C 0.25279 0.9401 0.04709 0.0
H2691 H 0.28642 0.9849 0.0287 0.0
H2692 H 0.25288 0.96753 0.04167 0.0
C2693 C 0.26374 0.93031 0.04515 0.0
C2694 C 0.34685 0.07287 0.98148 0.0
C2695 C 0.33619 0.05284 0.98679 0.0
H2696 H 0.34567 0.098 0.97057 0.0
C2697 C 0.31549 0.04268 0.98498 0.0
H2698 H 0.3628 0.08117 0.98286 0.0
C2699 C 0.30569 0.05227 0.97767 0.0
C2700 C 0.31638 0.07219 0.97196 0.0
H2701 H 0.30684 0.02726 0.98902 0.0
H2702 H 0.28973 0.04412 0.97642 0.0
C2703 C 0.33706 0.08249 0.97433 0.0
C2704 C 0.97313 0.27507 0.98093 0.0
C2705 C 0.96244 0.29046 0.97567 0.0
H2706 H 0.96982 0.24177 0.97163 0.0
C2707 C 0.94417 0.2842 0.95592 0.0
H2708 H 0.98476 0.27985 0.99218 0.0
C2709 C 0.93486 0.26141 0.94151 0.0
C2710 C 0.94221 0.24376 0.9515 0.0
H2711 H 0.93893 0.29434 0.95251 0.0
H2712 H 0.92292 0.25685 0.93064 0.0
C2713 C 0.96475 0.25188 0.96743 0.0
C2714 C 0.71683 0.68372 0.99585 0.0
C2715 C 0.70506 0.66295 0.99441 0.0
H2716 H 0.74479 0.70929 0.9897 0.0
C2717 C 0.71301 0.65189 0.98581 0.0
H2718 H 0.71113 0.69265 0.00247 0.0
C2719 C 0.73224 0.6614 0.97862 0.0
C2720 C 0.74382 0.68223 0.97946 0.0
H2721 H 0.70439 0.63585 0.98465 0.0
H2722 H 0.73803 0.65244 0.97231 0.0
C2723 C 0.73602 0.69326 0.98845 0.0
C2724 C 0.94062 0.6534 0.9656 0.0
C2725 C 0.95506 0.66229 0.98091 0.0
H2726 H 0.9229 0.65717 0.94351 0.0
C2727 C 0.96178 0.68216 0.98663 0.0
H2728 H 0.93534 0.6382 0.96066 0.0
C2729 C 0.95433 0.69298 0.97704 0.0
C2730 C 0.94016 0.68422 0.96143 0.0
H2731 H 0.97299 0.68943 0.99833 0.0
H2732 H 0.95996 0.70837 0.98149 0.0
C2733 C 0.93346 0.6643 0.95577 0.0
C2734 C 0.34973 0.28833 0.98109 0.0
C2735 C 0.33918 0.29828 0.98489 0.0
H2736 H 0.34829 0.26055 0.97468 0.0
C2737 C 0.31844 0.28744 0.98404 0.0
H2738 H 0.36572 0.29628 0.98156 0.0
C2739 C 0.30847 0.26701 0.97981 0.0
C2740 C 0.31903 0.25694 0.97675 0.0
H2741 H 0.3099 0.29473 0.98669 0.0
H2742 H 0.29249 0.25901 0.97927 0.0
C2743 C 0.33976 0.26787 0.97715 0.0
C2744 C 0.72435 0.03803 0.98955 0.0
C2745 C 0.71436 0.04851 0.99359 0.0
H2746 H 0.75139 0.03963 0.98052 0.0
C2747 C 0.72445 0.0692 0.99147 0.0
H2748 H 0.71691 0.02205 0.99085 0.0
C2749 C 0.74419 0.07924 0.98576 0.0
C2750 C 0.75425 0.06882 0.98185 0.0
H2751 H 0.71716 0.07771 0.9944 0.0
H2752 H 0.75164 0.09523 0.98453 0.0
C2753 C 0.74405 0.04806 0.98359 0.0
C2754 C 0.65152 0.93066 0.03281 0.0
C2755 C 0.66335 0.9512 0.03024 0.0
H2756 H 0.65053 0.9034 0.03978 0.0
C2757 C 0.68385 0.96015 0.0335 0.0
H2758 H 0.63567 0.92331 0.03046 0.0
C2759 C 0.69233 0.94874 0.03911 0.0
C2760 C 0.68051 0.92814 0.04137 0.0
H2761 H 0.69335 0.97597 0.03178 0.0
H2762 H 0.70817 0.95598 0.04148 0.0
C2763 C 0.66001 0.91925 0.03821 0.0
C2764 C 0.05634 0.71085 0.05311 0.0
C2765 C 0.04176 0.70517 0.03798 0.0
H2766 H 0.07433 0.73257 0.07549 0.0
C2767 C 0.03508 0.71833 0.03293 0.0
H2768 H 0.0616 0.70094 0.05752 0.0
C2769 C 0.04269 0.73672 0.043 0.0
C2770 C 0.057 0.74226 0.05841 0.0
H2771 H 0.02377 0.71431 0.02141 0.0
H2772 H 0.03706 0.74646 0.03908 0.0
C2773 C 0.06367 0.72905 0.0634 0.0
C2774 C 0.28604 0.35908 0.03453 0.0
C2775 C 0.29494 0.34768 0.02984 0.0
H2776 H 0.25968 0.35906 0.04308 0.0
C2777 C 0.28369 0.32691 0.03102 0.0
H2778 H 0.29433 0.37511 0.03382 0.0
C2779 C 0.2639 0.31774 0.0366 0.0
C2780 C 0.25487 0.32912 0.04079 0.0
H2781 H 0.29019 0.31774 0.02768 0.0
H2782 H 0.25558 0.30172 0.03742 0.0
C2783 C 0.26621 0.34989 0.03985 0.0
C2784 C 0.72371 0.68103 0.39906 0.0
C2785 C 0.70639 0.66911 0.37838 0.0
H2786 H 0.74525 0.67551 0.42374 0.0
C2787 C 0.6974 0.6435 0.37102 0.0
H2788 H 0.72798 0.69607 0.40365 0.0
C2789 C 0.70664 0.62922 0.38327 0.0
C2790 C 0.72834 0.64398 0.40032 0.0
H2791 H 0.68635 0.63663 0.35916 0.0
H2792 H 0.70268 0.61449 0.3778 0.0
C2793 C 0.73381 0.66806 0.41232 0.0
C2794 C 0.36043 0.05482 0.38382 0.0
C2795 C 0.33485 0.03943 0.39036 0.0
H2796 H 0.39028 0.0887 0.3911 0.0
C2797 C 0.32374 0.04636 0.41028 0.0
H2798 H 0.36677 0.04975 0.3724 0.0
C2799 C 0.33754 0.0698 0.42354 0.0
C2800 C 0.36169 0.0872 0.41223 0.0
H2801 H 0.30865 0.03631 0.41438 0.0
H2802 H 0.3306 0.07473 0.43444 0.0
C2803 C 0.37552 0.07864 0.39613 0.0
C2804 C 0.95363 0.26628 0.36612 0.0
C2805 C 0.96292 0.28623 0.36048 0.0
H2806 H 0.92728 0.24122 0.37653 0.0
C2807 C 0.95228 0.2964 0.36151 0.0
H2808 H 0.96135 0.25797 0.36534 0.0
C2809 C 0.93284 0.28686 0.36824 0.0
C2810 C 0.92361 0.26698 0.37409 0.0
H2811 H 0.95899 0.31176 0.35722 0.0
H2812 H 0.92493 0.295 0.36878 0.0
C2813 C 0.93413 0.2567 0.37265 0.0
C2814 C 0.02246 0.40145 0.30959 0.0
C2815 C 0.0101 0.38149 0.31449 0.0
H2816 H 0.02437 0.42841 0.2998 0.0
C2817 C 0.98954 0.37336 0.31303 0.0
H2818 H 0.03836 0.40821 0.31075 0.0
C2819 C 0.98153 0.38487 0.3064 0.0
C2820 C 0.99389 0.40472 0.30112 0.0
H2821 H 0.97964 0.35805 0.31677 0.0
H2822 H 0.96563 0.37827 0.30537 0.0
C2823 C 0.01445 0.413 0.3032 0.0
C2824 C 0.60973 0.62153 0.2894 0.0
C2825 C 0.62649 0.6273 0.31054 0.0
H2826 H 0.5891 0.59414 0.26391 0.0
C2827 C 0.63551 0.61097 0.31792 0.0
H2828 H 0.60546 0.63215 0.28482 0.0
C2829 C 0.62684 0.58736 0.30518 0.0
C2830 C 0.60558 0.58001 0.28755 0.0
H2831 H 0.64626 0.61539 0.33006 0.0
H2832 H 0.63079 0.57675 0.31061 0.0
C2833 C 0.60022 0.59836 0.27564 0.0
C2834 C 0.38496 0.00966 0.32872 0.0
C2835 C 0.37171 0.9891 0.3282 0.0
H2836 H 0.4138 0.03321 0.3214 0.0
C2837 C 0.37782 0.97636 0.31984 0.0
H2838 H 0.38071 0.01985 0.33512 0.0
C2839 C 0.39673 0.98399 0.31209 0.0
C2840 C 0.40984 0.00459 0.31213 0.0
H2841 H 0.36802 0.96043 0.31937 0.0
H2842 H 0.40111 0.97376 0.30605 0.0
C2843 C 0.40383 0.01731 0.32077 0.0
C2844 C 0.6243 0.99484 0.29133 0.0
C2845 C 0.61809 0.97039 0.29953 0.0
H2846 H 0.61195 0.01242 0.26859 0.0
C2847 C 0.59763 0.94812 0.28859 0.0
H2848 H 0.63734 0.00776 0.29738 0.0
C2849 C 0.5817 0.94951 0.26991 0.0
C2850 C 0.58546 0.97478 0.26632 0.0
H2851 H 0.59503 0.93373 0.2931 0.0
H2852 H 0.56852 0.93632 0.26452 0.0
C2853 C 0.60923 0.99787 0.27264 0.0
C2854 C 0.99436 0.62351 0.31732 0.0
C2855 C 0.01489 0.63603 0.31927 0.0
H2856 H 0.97054 0.59405 0.31079 0.0
C2857 C 0.02731 0.62812 0.31561 0.0
H2858 H 0.98441 0.62921 0.31987 0.0
C2859 C 0.01937 0.608 0.3107 0.0
C2860 C 0.99884 0.59536 0.30916 0.0
H2861 H 0.0432 0.63738 0.31693 0.0
H2862 H 0.02932 0.60226 0.30836 0.0
C2863 C 0.98641 0.6034 0.31214 0.0
C2864 C 0.38419 0.40385 0.32266 0.0
C2865 C 0.37528 0.38349 0.32651 0.0
H2866 H 0.4106 0.43037 0.31495 0.0
C2867 C 0.38652 0.37402 0.32462 0.0
H2868 H 0.3759 0.41156 0.32391 0.0
C2869 C 0.40634 0.38475 0.31919 0.0
C2870 C 0.41542 0.40525 0.31593 0.0
H2871 H 0.37999 0.35829 0.32726 0.0
H2872 H 0.41465 0.37708 0.31778 0.0
C2873 C 0.40406 0.41462 0.31752 0.0
C2874 C 0.35128 0.29911 0.37012 0.0
C2875 C 0.33056 0.28927 0.36881 0.0
H2876 H 0.37703 0.29645 0.37463 0.0
C2877 C 0.31983 0.26867 0.37156 0.0
H2878 H 0.35995 0.31501 0.36829 0.0
C2879 C 0.32961 0.25803 0.37485 0.0
C2880 C 0.35033 0.26777 0.37564 0.0
H2881 H 0.30385 0.26067 0.37071 0.0
H2882 H 0.32095 0.24211 0.37647 0.0
C2883 C 0.36106 0.2885 0.37372 0.0
C2884 C 0.70335 0.05201 0.3604 0.0
C2885 C 0.71433 0.04222 0.36133 0.0
H2886 H 0.7038 0.07976 0.36247 0.0
C2887 C 0.73472 0.05342 0.36545 0.0
H2888 H 0.68756 0.04373 0.35756 0.0
C2889 C 0.74408 0.07404 0.3678 0.0
C2890 C 0.73325 0.08395 0.36627 0.0
H2891 H 0.74359 0.0463 0.36637 0.0
H2892 H 0.75989 0.08229 0.3705 0.0
C2893 C 0.71266 0.07264 0.36316 0.0
C2894 C 0.95262 0.69083 0.3659 0.0
C2895 C 0.96253 0.68021 0.36225 0.0
H2896 H 0.92501 0.68941 0.37144 0.0
C2897 C 0.95177 0.65936 0.36238 0.0
H2898 H 0.96051 0.7069 0.36599 0.0
C2899 C 0.93146 0.64935 0.36582 0.0
C2900 C 0.92143 0.65998 0.36873 0.0
H2901 H 0.95905 0.65078 0.35987 0.0
H2902 H 0.92355 0.63329 0.3659 0.0
C2903 C 0.93229 0.68082 0.36902 0.0
C2904 C 0.36923 0.98337 0.7045 0.0
C2905 C 0.37586 0.00855 0.71133 0.0
H2906 H 0.37693 0.9563 0.7131 0.0
C2907 C 0.39168 0.02155 0.73278 0.0
H2908 H 0.35896 0.97576 0.69215 0.0
C2909 C 0.40263 0.01019 0.74745 0.0
C2910 C 0.39977 0.98676 0.73619 0.0
H2911 H 0.39449 0.03623 0.737 0.0
H2912 H 0.41324 0.01836 0.75939 0.0
C2913 C 0.37946 0.97069 0.71814 0.0
C2914 C 0.01266 0.37813 0.7155 0.0
C2915 C 0.98671 0.36112 0.71906 0.0
H2916 H 0.04038 0.41213 0.72656 0.0
C2917 C 0.97275 0.36553 0.73794 0.0
H2918 H 0.02069 0.37455 0.70463 0.0
C2919 C 0.98405 0.38802 0.75312 0.0
C2920 C 0.00895 0.40723 0.74473 0.0
H2921 H 0.95747 0.35456 0.74024 0.0
H2922 H 0.97548 0.3915 0.76338 0.0
C2923 C 0.02534 0.40109 0.72984 0.0
C2924 C 0.62209 0.60462 0.70809 0.0
C2925 C 0.6306 0.62423 0.7015 0.0
H2926 H 0.59662 0.57968 0.72006 0.0
C2927 C 0.61962 0.63403 0.70273 0.0
H2928 H 0.63009 0.5966 0.70718 0.0
C2929 C 0.60054 0.62442 0.71041 0.0
C2930 C 0.59203 0.60483 0.71704 0.0
H2931 H 0.62573 0.64912 0.69772 0.0
H2932 H 0.59231 0.63223 0.71097 0.0
C2933 C 0.60295 0.59496 0.71558 0.0
C2934 C 0.67882 0.73274 0.64213 0.0
C2935 C 0.66788 0.7128 0.64766 0.0
H2936 H 0.67818 0.75845 0.63232 0.0
C2937 C 0.64716 0.70333 0.64719 0.0
H2938 H 0.69481 0.74052 0.64255 0.0
C2939 C 0.6376 0.71354 0.64094 0.0
C2940 C 0.64856 0.7334 0.6351 0.0
H2941 H 0.63832 0.688 0.65145 0.0
H2942 H 0.62162 0.70593 0.6407 0.0
C2943 C 0.66929 0.74299 0.63616 0.0
C2944 C 0.27584 0.95522 0.62209 0.0
C2945 C 0.29323 0.96174 0.64279 0.0
H2946 H 0.25424 0.92685 0.59793 0.0
C2947 C 0.30227 0.94556 0.65066 0.0
H2948 H 0.2715 0.9657 0.6172 0.0
C2949 C 0.29302 0.9214 0.63893 0.0
C2950 C 0.27125 0.91351 0.62185 0.0
H2951 H 0.31334 0.95038 0.66253 0.0
H2952 H 0.29701 0.91094 0.64471 0.0
C2953 C 0.26573 0.93147 0.60933 0.0
C2954 C 0.04878 0.34689 0.65682 0.0
C2955 C 0.03748 0.32607 0.65579 0.0
H2956 H 0.07658 0.37277 0.6509 0.0
C2957 C 0.04608 0.31528 0.64802 0.0
H2958 H 0.04259 0.35563 0.66276 0.0
C2959 C 0.06552 0.32507 0.64136 0.0
C2960 C 0.07668 0.34593 0.64187 0.0
H2961 H 0.03783 0.29921 0.6472 0.0
H2962 H 0.07181 0.3163 0.6358 0.0
C2963 C 0.06817 0.35671 0.64991 0.0
C2964 C 0.29546 0.35321 0.65733 0.0
C2965 C 0.28588 0.33237 0.65714 0.0
H2966 H 0.29242 0.379 0.65464 0.0
C2967 C 0.26539 0.32147 0.65352 0.0
H2968 H 0.31126 0.36202 0.65986 0.0
C2969 C 0.25459 0.33118 0.65087 0.0
C2970 C 0.26406 0.35201 0.6516 0.0
H2971 H 0.25759 0.30539 0.65321 0.0
H2972 H 0.23875 0.32237 0.64857 0.0
C2973 C 0.28468 0.36293 0.65437 0.0
C2974 C 0.6537 0.95504 0.64968 0.0
C2975 C 0.67445 0.96539 0.65007 0.0
H2976 H 0.62719 0.92686 0.64609 0.0
C2977 C 0.68443 0.9548 0.64666 0.0
H2978 H 0.64559 0.96282 0.65202 0.0
C2979 C 0.67391 0.93422 0.64361 0.0
C2980 C 0.65318 0.92377 0.64372 0.0
H2981 H 0.70041 0.96235 0.64678 0.0
H2982 H 0.68203 0.92642 0.64144 0.0
C2983 C 0.64317 0.93446 0.64631 0.0
C2984 C 0.04566 0.70458 0.65904 0.0
C2985 C 0.03507 0.71481 0.65967 0.0
H2986 H 0.07381 0.70655 0.65541 0.0
C2987 C 0.04521 0.73539 0.65677 0.0
H2988 H 0.03822 0.68868 0.66096 0.0
C2989 C 0.06558 0.74563 0.65392 0.0
C2990 C 0.07628 0.73551 0.65373 0.0
H2991 H 0.03746 0.74369 0.65707 0.0
H2992 H 0.07303 0.76155 0.65211 0.0
C2993 C 0.06602 0.7148 0.65587 0.0
C2994 C 0.96656 0.59634 0.70146 0.0
C2995 C 0.97974 0.61659 0.69848 0.0
H2996 H 0.96307 0.56778 0.70722 0.0
C2997 C 1.00014 0.62371 0.70017 0.0
H2998 H 0.95076 0.59039 0.70031 0.0
C2999 C 0.00718 0.61076 0.7044 0.0
C3000 C 0.99398 0.59037 0.70668 0.0
H3001 H 0.01066 0.63927 0.69813 0.0
H3002 H 0.02297 0.6166 0.70554 0.0
C3003 C 0.9736 0.58338 0.70542 0.0
C3004 C 0.37258 0.3906 0.69969 0.0
C3005 C 0.38128 0.37856 0.69933 0.0
H3006 H 0.37705 0.42 0.70362 0.0
C3007 C 0.40167 0.38732 0.70321 0.0
H3008 H 0.35687 0.38425 0.69696 0.0
C3009 C 0.41322 0.40778 0.7067 0.0
C3010 C 0.40463 0.41992 0.70657 0.0
H3011 H 0.4088 0.37843 0.7031 0.0
H3012 H 0.42896 0.41417 0.70921 0.0
C3013 C 0.38411 0.41105 0.70348 0.0
C3014 C 0.62714 0.03466 0.69772 0.0
C3015 C 0.63421 0.02155 0.69359 0.0
H3016 H 0.60235 0.03787 0.70558 0.0
C3017 C 0.6213 0.00104 0.69515 0.0
H3018 H 0.63674 0.05055 0.69671 0.0
C3019 C 0.60164 0.99379 0.70052 0.0
C3020 C 0.59442 0.0069 0.70405 0.0
H3021 H 0.62637 0.99058 0.69227 0.0
H3022 H 0.592 0.97793 0.70165 0.0
C3023 C 0.60745 0.02741 0.7028 0.0
loop_
_geom_bond_atom_site_label_1
_geom_bond_atom_site_label_2
_geom_bond_distance
_geom_bond_site_symmetry_2
_ccdc_geom_bond_type
O0 Cd1 2.223 . S
O0 C8 1.315 . S
Cd1 O0 2.223 . S
Cd1 O4 2.297 . S
Cd1 O5 2.439 . S
Cd1 O11 2.240 1_554 S
Cd2 O3 2.240 . S
Cd2 O10 2.223 1_554 S
Cd2 O12 2.297 1_554 S
Cd2 O13 2.439 1_554 S
O3 Cd2 2.240 . S
O3 C8 1.279 1_655 S
O4 Cd1 2.297 . S
O4 C6 1.247 . S
O5 Cd1 2.439 . S
O5 C6 1.208 . S
C6 O4 1.247 . S
C6 O5 1.208 . S
C7 O12 1.247 . S
C7 O13 1.208 . S
C8 O0 1.315 . S
C8 O3 1.279 1_455 S
C9 O10 1.315 1_455 S
C9 O11 1.279 . S
O10 Cd2 2.223 1_556 S
O10 C9 1.315 1_655 S
O11 Cd1 2.240 1_556 S
O11 C9 1.279 . S
O12 Cd2 2.297 1_556 S
O12 C7 1.247 . S
O13 Cd2 2.439 1_556 S
O13 C7 1.208 . S
O14 Cd15 2.223 . S
O14 C22 1.315 . S
Cd15 O14 2.223 . S
Cd15 O18 2.297 . S
Cd15 O19 2.439 . S
Cd15 O25 2.240 1_554 S
Cd16 O17 2.240 . S
Cd16 O24 2.223 1_554 S
Cd16 O26 2.297 1_554 S
Cd16 O27 2.439 1_554 S
O17 Cd16 2.240 . S
O17 C22 1.279 . S
O18 Cd15 2.297 . S
O18 C20 1.247 . S
O19 Cd15 2.439 . S
O19 C20 1.208 . S
C20 O18 1.247 . S
C20 O19 1.208 . S
C21 O26 1.247 . S
C21 O27 1.208 . S
C22 O14 1.315 . S
C22 O17 1.279 . S
C23 O24 1.315 . S
C23 O25 1.279 . S
O24 Cd16 2.223 1_556 S
O24 C23 1.315 . S
O25 Cd15 2.240 1_556 S
O25 C23 1.279 . S
O26 Cd16 2.297 1_556 S
O26 C21 1.247 . S
O27 Cd16 2.439 1_556 S
O27 C21 1.208 . S
O28 Cd29 2.223 1_556 S
O28 C36 1.315 . S
Cd29 O28 2.223 1_554 S
Cd29 O32 2.297 1_554 S
Cd29 O33 2.439 1_554 S
Cd29 O39 2.240 . S
Cd30 O31 2.240 1_554 S
Cd30 O38 2.223 . S
Cd30 O40 2.297 . S
Cd30 O41 2.439 . S
O31 Cd30 2.240 1_556 S
O31 C36 1.279 1_565 S
O32 Cd29 2.297 1_556 S
O32 C34 1.247 . S
O33 Cd29 2.439 1_556 S
O33 C34 1.208 . S
C34 O32 1.247 . S
C34 O33 1.208 . S
C35 O40 1.247 . S
C35 O41 1.208 . S
C36 O28 1.315 . S
C36 O31 1.279 1_545 S
C37 O38 1.315 1_545 S
C37 O39 1.279 . S
O38 Cd30 2.223 . S
O38 C37 1.315 1_565 S
O39 Cd29 2.240 . S
O39 C37 1.279 . S
O40 Cd30 2.297 . S
O40 C35 1.247 . S
O41 Cd30 2.439 . S
O41 C35 1.208 . S
O42 Cd43 2.223 1_556 S
O42 C50 1.349 . S
Cd43 O42 2.223 1_554 S
Cd43 O46 2.297 1_554 S
Cd43 O47 2.439 1_554 S
Cd43 O53 2.240 . S
Cd44 O45 2.240 1_554 S
Cd44 O52 2.223 . S
Cd44 O54 2.297 . S
Cd44 O55 2.439 . S
O45 Cd44 2.240 1_556 S
O45 C50 1.281 1_455 S
O46 Cd43 2.297 1_556 S
O46 C48 1.247 . S
O47 Cd43 2.439 1_556 S
O47 C48 1.208 . S
C48 O46 1.247 . S
C48 O47 1.208 . S
C49 O54 1.247 . S
C49 O55 1.208 . S
C50 O42 1.349 . S
C50 O45 1.281 1_655 S
C51 O52 1.369 . S
C51 O53 1.230 1_455 S
O52 Cd44 2.223 . S
O52 C51 1.369 . S
O53 Cd43 2.240 . S
O53 C51 1.230 1_655 S
O54 Cd44 2.297 . S
O54 C49 1.247 . S
O55 Cd44 2.439 . S
O55 C49 1.208 . S
O56 Cd57 2.223 . S
O56 C64 1.315 . S
Cd57 O56 2.223 . S
Cd57 O60 2.297 . S
Cd57 O61 2.439 . S
Cd57 O67 2.240 1_556 S
Cd58 O59 2.240 1_554 S
Cd58 O66 2.223 . S
Cd58 O68 2.297 . S
Cd58 O69 2.439 . S
O59 Cd58 2.240 1_556 S
O59 C64 1.279 . S
O60 Cd57 2.297 . S
O60 C62 1.247 . S
O61 Cd57 2.439 . S
O61 C62 1.208 . S
C62 O60 1.247 . S
C62 O61 1.208 . S
C63 O68 1.247 . S
C63 O69 1.208 . S
C64 O56 1.315 . S
C64 O59 1.279 . S
C65 O66 1.315 . S
C65 O67 1.279 . S
O66 Cd58 2.223 . S
O66 C65 1.315 . S
O67 Cd57 2.240 1_554 S
O67 C65 1.279 . S
O68 Cd58 2.297 . S
O68 C63 1.247 . S
O69 Cd58 2.439 . S
O69 C63 1.208 . S
O70 Cd71 2.223 . S
O70 C78 1.320 1_565 S
Cd71 O70 2.223 . S
Cd71 O74 2.297 . S
Cd71 O75 2.439 . S
Cd71 O81 2.240 1_554 S
Cd72 O73 2.240 . S
Cd72 O80 2.223 1_554 S
Cd72 O82 2.297 1_554 S
Cd72 O83 2.439 1_554 S
O73 Cd72 2.240 . S
O73 C78 1.279 . S
O74 Cd71 2.297 . S
O74 C76 1.247 . S
O75 Cd71 2.439 . S
O75 C76 1.208 . S
C76 O74 1.247 . S
C76 O75 1.208 . S
C77 O82 1.247 . S
C77 O83 1.208 . S
C78 O70 1.320 1_545 S
C78 O73 1.279 . S
C79 O80 1.352 . S
C79 O81 1.245 1_545 S
O80 Cd72 2.223 1_556 S
O80 C79 1.352 . S
O81 Cd71 2.240 1_556 S
O81 C79 1.245 1_565 S
O82 Cd72 2.297 1_556 S
O82 C77 1.247 . S
O83 Cd72 2.439 1_556 S
O83 C77 1.208 . S
O84 Cd85 2.223 . S
O84 C92 1.315 . S
Cd85 O84 2.223 . S
Cd85 O88 2.297 . S
Cd85 O89 2.439 . S
Cd85 O95 2.240 . S
Cd86 O87 2.240 . S
Cd86 O94 2.223 . S
Cd86 O96 2.297 . S
Cd86 O97 2.439 . S
O87 Cd86 2.240 . S
O87 C92 1.279 . S
O88 Cd85 2.297 . S
O88 C90 1.247 . S
O89 Cd85 2.439 . S
O89 C90 1.208 . S
C90 O88 1.247 . S
C90 O89 1.208 . S
C91 O96 1.247 . S
C91 O97 1.208 . S
C92 O84 1.315 . S
C92 O87 1.279 . S
C93 O94 1.315 . S
C93 O95 1.279 . S
O94 Cd86 2.223 . S
O94 C93 1.315 . S
O95 Cd85 2.240 . S
O95 C93 1.279 . S
O96 Cd86 2.297 . S
O96 C91 1.247 . S
O97 Cd86 2.439 . S
O97 C91 1.208 . S
O98 Cd99 2.223 . S
O98 C106 1.315 . S
Cd99 O98 2.223 . S
Cd99 O102 2.297 1_565 S
Cd99 O103 2.439 1_565 S
Cd99 O109 2.240 . S
Cd100 O101 2.240 . S
Cd100 O108 2.223 . S
Cd100 O110 2.297 . S
Cd100 O111 2.439 . S
O101 Cd100 2.240 . S
O101 C106 1.279 . S
O102 Cd99 2.297 1_545 S
O102 C104 1.247 . S
O103 Cd99 2.439 1_545 S
O103 C104 1.208 . S
C104 O102 1.247 . S
C104 O103 1.208 . S
C105 O110 1.247 . S
C105 O111 1.208 . S
C106 O98 1.315 . S
C106 O101 1.279 . S
C107 O108 1.315 . S
C107 O109 1.279 . S
O108 Cd100 2.223 . S
O108 C107 1.315 . S
O109 Cd99 2.240 . S
O109 C107 1.279 . S
O110 Cd100 2.297 . S
O110 C105 1.247 . S
O111 Cd100 2.439 . S
O111 C105 1.208 . S
O112 Cd113 2.223 . S
O112 C120 1.315 . S
Cd113 O112 2.223 . S
Cd113 O116 2.297 . S
Cd113 O117 2.439 . S
Cd113 O123 2.240 . S
Cd114 O115 2.240 . S
Cd114 O122 2.223 . S
Cd114 O124 2.297 1_455 S
Cd114 O125 2.439 1_455 S
O115 Cd114 2.240 . S
O115 C120 1.279 . S
O116 Cd113 2.297 . S
O116 C118 1.247 . S
O117 Cd113 2.439 . S
O117 C118 1.208 . S
C118 O116 1.247 . S
C118 O117 1.208 . S
C119 O124 1.247 . S
C119 O125 1.208 . S
C120 O112 1.315 . S
C120 O115 1.279 . S
C121 O122 1.315 . S
C121 O123 1.279 . S
O122 Cd114 2.223 . S
O122 C121 1.315 . S
O123 Cd113 2.240 . S
O123 C121 1.279 . S
O124 Cd114 2.297 1_655 S
O124 C119 1.247 . S
O125 Cd114 2.439 1_655 S
O125 C119 1.208 . S
O126 Cd127 2.223 . S
O126 C134 1.315 . S
Cd127 O126 2.223 . S
Cd127 O130 2.297 . S
Cd127 O131 2.439 . S
Cd127 O137 2.240 . S
Cd128 O129 2.240 . S
Cd128 O136 2.223 . S
Cd128 O138 2.297 1_565 S
Cd128 O139 2.439 1_565 S
O129 Cd128 2.240 . S
O129 C134 1.279 . S
O130 Cd127 2.297 . S
O130 C132 1.247 . S
O131 Cd127 2.439 . S
O131 C132 1.208 . S
C132 O130 1.247 . S
C132 O131 1.208 . S
C133 O138 1.247 . S
C133 O139 1.208 . S
C134 O126 1.315 . S
C134 O129 1.279 . S
C135 O136 1.315 . S
C135 O137 1.279 . S
O136 Cd128 2.223 . S
O136 C135 1.315 . S
O137 Cd127 2.240 . S
O137 C135 1.279 . S
O138 Cd128 2.297 1_545 S
O138 C133 1.247 . S
O139 Cd128 2.439 1_545 S
O139 C133 1.208 . S
O140 Cd141 2.223 . S
O140 C148 1.315 . S
Cd141 O140 2.223 . S
Cd141 O144 2.297 . S
Cd141 O145 2.439 . S
Cd141 O151 2.240 . S
Cd142 O143 2.240 . S
Cd142 O150 2.223 . S
Cd142 O152 2.297 1_455 S
Cd142 O153 2.439 1_455 S
O143 Cd142 2.240 . S
O143 C148 1.279 . S
O144 Cd141 2.297 . S
O144 C146 1.247 . S
O145 Cd141 2.439 . S
O145 C146 1.208 . S
C146 O144 1.247 . S
C146 O145 1.208 . S
C147 O152 1.247 . S
C147 O153 1.208 . S
C148 O140 1.315 . S
C148 O143 1.279 . S
C149 O150 1.315 . S
C149 O151 1.279 . S
O150 Cd142 2.223 . S
O150 C149 1.315 . S
O151 Cd141 2.240 . S
O151 C149 1.279 . S
O152 Cd142 2.297 1_655 S
O152 C147 1.247 . S
O153 Cd142 2.439 1_655 S
O153 C147 1.208 . S
O154 Cd155 2.223 . S
O154 C162 1.315 . S
Cd155 O154 2.223 . S
Cd155 O158 2.297 . S
Cd155 O159 2.439 . S
Cd155 O165 2.240 . S
Cd156 O157 2.240 . S
Cd156 O164 2.223 . S
Cd156 O166 2.297 . S
Cd156 O167 2.439 . S
O157 Cd156 2.240 . S
O157 C162 1.279 . S
O158 Cd155 2.297 . S
O158 C160 1.247 . S
O159 Cd155 2.439 . S
O159 C160 1.208 . S
C160 O158 1.247 . S
C160 O159 1.208 . S
C161 O166 1.247 . S
C161 O167 1.208 . S
C162 O154 1.315 . S
C162 O157 1.279 . S
C163 O164 1.315 . S
C163 O165 1.279 . S
O164 Cd156 2.223 . S
O164 C163 1.315 . S
O165 Cd155 2.240 . S
O165 C163 1.279 . S
O166 Cd156 2.297 . S
O166 C161 1.247 . S
O167 Cd156 2.439 . S
O167 C161 1.208 . S
O168 Cd169 2.223 . S
O168 C176 1.315 . S
Cd169 O168 2.223 . S
Cd169 O172 2.297 . S
Cd169 O173 2.439 . S
Cd169 O179 2.240 . S
Cd170 O171 2.240 . S
Cd170 O178 2.223 . S
Cd170 O180 2.297 1_545 S
Cd170 O181 2.439 1_545 S
O171 Cd170 2.240 . S
O171 C176 1.279 . S
O172 Cd169 2.297 . S
O172 C174 1.247 . S
O173 Cd169 2.439 . S
O173 C174 1.208 . S
C174 O172 1.247 . S
C174 O173 1.208 . S
C175 O180 1.247 . S
C175 O181 1.208 . S
C176 O168 1.315 . S
C176 O171 1.279 . S
C177 O178 1.315 . S
C177 O179 1.279 . S
O178 Cd170 2.223 . S
O178 C177 1.315 . S
O179 Cd169 2.240 . S
O179 C177 1.279 . S
O180 Cd170 2.297 1_565 S
O180 C175 1.247 . S
O181 Cd170 2.439 1_565 S
O181 C175 1.208 . S
O182 Cd183 2.223 . S
O182 C190 1.315 . S
Cd183 O182 2.223 . S
Cd183 O186 2.297 . S
Cd183 O187 2.439 . S
Cd183 O193 2.240 . S
Cd184 O185 2.240 . S
Cd184 O192 2.223 . S
Cd184 O194 2.297 1_655 S
Cd184 O195 2.439 1_655 S
O185 Cd184 2.240 . S
O185 C190 1.279 . S
O186 Cd183 2.297 . S
O186 C188 1.247 . S
O187 Cd183 2.439 . S
O187 C188 1.208 . S
C188 O186 1.247 . S
C188 O187 1.208 . S
C189 O194 1.247 . S
C189 O195 1.208 . S
C190 O182 1.315 . S
C190 O185 1.279 . S
C191 O192 1.315 . S
C191 O193 1.279 . S
O192 Cd184 2.223 . S
O192 C191 1.315 . S
O193 Cd183 2.240 . S
O193 C191 1.279 . S
O194 Cd184 2.297 1_455 S
O194 C189 1.247 . S
O195 Cd184 2.439 1_455 S
O195 C189 1.208 . S
O196 Cd197 2.223 . S
O196 C204 1.315 . S
Cd197 O196 2.223 . S
Cd197 O200 2.297 . S
Cd197 O201 2.439 . S
Cd197 O207 2.240 . S
Cd198 O199 2.240 . S
Cd198 O206 2.223 . S
Cd198 O208 2.297 . S
Cd198 O209 2.439 . S
O199 Cd198 2.240 . S
O199 C204 1.279 . S
O200 Cd197 2.297 . S
O200 C202 1.247 . S
O201 Cd197 2.439 . S
O201 C202 1.208 . S
C202 O200 1.247 . S
C202 O201 1.208 . S
C203 O208 1.247 . S
C203 O209 1.208 . S
C204 O196 1.315 . S
C204 O199 1.279 . S
C205 O206 1.315 . S
C205 O207 1.279 . S
O206 Cd198 2.223 . S
O206 C205 1.315 . S
O207 Cd197 2.240 . S
O207 C205 1.279 . S
O208 Cd198 2.297 . S
O208 C203 1.247 . S
O209 Cd198 2.439 . S
O209 C203 1.208 . S
O210 Cd211 2.223 . S
O210 C218 1.315 . S
Cd211 O210 2.223 . S
Cd211 O214 2.297 . S
Cd211 O215 2.439 . S
Cd211 O221 2.240 . S
Cd212 O213 2.240 . S
Cd212 O220 2.223 . S
Cd212 O222 2.297 . S
Cd212 O223 2.439 . S
O213 Cd212 2.240 . S
O213 C218 1.279 . S
O214 Cd211 2.297 . S
O214 C216 1.247 . S
O215 Cd211 2.439 . S
O215 C216 1.208 . S
C216 O214 1.247 . S
C216 O215 1.208 . S
C217 O222 1.247 . S
C217 O223 1.208 . S
C218 O210 1.315 . S
C218 O213 1.279 . S
C219 O220 1.315 . S
C219 O221 1.279 . S
O220 Cd212 2.223 . S
O220 C219 1.315 . S
O221 Cd211 2.240 . S
O221 C219 1.279 . S
O222 Cd212 2.297 . S
O222 C217 1.247 . S
O223 Cd212 2.439 . S
O223 C217 1.208 . S
O224 Cd225 2.223 . S
O224 C232 1.315 . S
Cd225 O224 2.223 . S
Cd225 O228 2.297 1_545 S
Cd225 O229 2.439 1_545 S
Cd225 O235 2.240 . S
Cd226 O227 2.240 . S
Cd226 O234 2.223 . S
Cd226 O236 2.297 . S
Cd226 O237 2.439 . S
O227 Cd226 2.240 . S
O227 C232 1.279 . S
O228 Cd225 2.297 1_565 S
O228 C230 1.247 . S
O229 Cd225 2.439 1_565 S
O229 C230 1.208 . S
C230 O228 1.247 . S
C230 O229 1.208 . S
C231 O236 1.247 . S
C231 O237 1.208 . S
C232 O224 1.315 . S
C232 O227 1.279 . S
C233 O234 1.315 . S
C233 O235 1.279 . S
O234 Cd226 2.223 . S
O234 C233 1.315 . S
O235 Cd225 2.240 . S
O235 C233 1.279 . S
O236 Cd226 2.297 . S
O236 C231 1.247 . S
O237 Cd226 2.439 . S
O237 C231 1.208 . S
O238 Cd239 2.223 . S
O238 C246 1.315 . S
Cd239 O238 2.223 . S
Cd239 O242 2.297 . S
Cd239 O243 2.439 . S
Cd239 O249 2.240 . S
Cd240 O241 2.240 . S
Cd240 O248 2.223 . S
Cd240 O250 2.297 1_655 S
Cd240 O251 2.439 1_655 S
O241 Cd240 2.240 . S
O241 C246 1.279 . S
O242 Cd239 2.297 . S
O242 C244 1.247 . S
O243 Cd239 2.439 . S
O243 C244 1.208 . S
C244 O242 1.247 . S
C244 O243 1.208 . S
C245 O250 1.247 . S
C245 O251 1.208 . S
C246 O238 1.315 . S
C246 O241 1.279 . S
C247 O248 1.315 . S
C247 O249 1.279 . S
O248 Cd240 2.223 . S
O248 C247 1.315 . S
O249 Cd239 2.240 . S
O249 C247 1.279 . S
O250 Cd240 2.297 1_455 S
O250 C245 1.247 . S
O251 Cd240 2.439 1_455 S
O251 C245 1.208 . S
C252 C253 1.560 . S
C252 H313 0.959 . S
C252 H314 0.959 . S
C252 H315 0.960 . S
C253 C252 1.560 . S
C253 O308 1.426 . S
C253 H312 0.980 . S
C254 C255 1.407 . S
C254 C259 1.418 . S
C254 O308 1.334 . S
C255 C254 1.407 . S
C255 C256 1.360 . S
C255 H316 0.929 . S
C256 C255 1.360 . S
C256 C257 1.401 . S
C256 C260 1.527 . S
C257 C256 1.401 . S
C257 C258 1.405 . S
C257 C290 1.587 . S
C258 C257 1.405 . S
C258 C259 1.332 . S
C258 C261 1.496 . S
C259 C254 1.418 . S
C259 C258 1.332 . S
C259 H317 0.929 . S
C260 C256 1.527 . S
C260 H318 0.959 . S
C260 H319 0.961 . S
C260 H320 0.961 . S
C261 C258 1.496 . S
C261 H321 0.960 . S
C261 H322 0.960 . S
C261 H323 0.961 . S
C262 C263 1.517 . S
C262 H325 0.961 . S
C262 H326 0.960 . S
C262 H327 0.959 . S
C263 C262 1.517 . S
C263 O311 1.468 . S
C263 H324 0.980 . S
C264 C265 1.349 . S
C264 C269 1.367 . S
C264 O311 1.408 . S
C265 C264 1.349 . S
C265 C266 1.407 . S
C265 H328 0.930 . S
C266 C265 1.407 . S
C266 C267 1.449 . S
C266 C270 1.535 . S
C267 C266 1.449 . S
C267 C268 1.384 . S
C267 C292 1.553 . S
C268 C267 1.384 . S
C268 C269 1.364 . S
C268 C271 1.450 . S
C269 C264 1.367 . S
C269 C268 1.364 . S
C269 H329 0.931 . S
C270 C266 1.535 . S
C270 H330 0.959 . S
C270 H331 0.961 . S
C270 H332 0.959 . S
C271 C268 1.450 . S
C271 H333 0.960 . S
C271 H334 0.960 . S
C271 H335 0.960 . S
C272 C273 1.309 . S
C272 C277 1.304 . S
C272 O310 1.435 . S
C273 C272 1.309 . S
C273 C274 1.476 . S
C273 H337 0.930 . S
C274 C273 1.476 . S
C274 C275 1.400 . S
C274 C278 1.567 . S
C275 C274 1.400 . S
C275 C276 1.373 . S
C275 C297 1.432 . S
C276 C275 1.373 . S
C276 C277 1.339 . S
C276 C279 1.530 . S
C277 C272 1.304 . S
C277 C276 1.339 . S
C277 H338 0.930 . S
C278 C274 1.567 . S
C278 H339 0.961 . S
C278 H340 0.960 . S
C278 H341 0.958 . S
C279 C276 1.530 . S
C279 H342 0.961 . S
C279 H343 0.960 . S
C279 H344 0.960 . S
C280 C281 1.530 . S
C280 H346 0.961 . S
C280 H347 0.961 . S
C280 H348 0.959 . S
C281 C280 1.530 . S
C281 O309 1.412 . S
C281 H345 0.980 . S
C282 C283 1.288 . S
C282 C287 1.377 . S
C282 O309 1.393 . S
C283 C282 1.288 . S
C283 C284 1.369 . S
C283 H349 0.932 . S
C284 C283 1.369 . S
C284 C285 1.398 . S
C284 C288 1.527 . S
C285 C284 1.398 . S
C285 C286 1.380 . S
C285 C299 1.497 . S
C286 C285 1.380 . S
C286 C287 1.383 . S
C286 C289 1.603 . S
C287 C282 1.377 . S
C287 C286 1.383 . S
C287 H350 0.929 . S
C288 C284 1.527 . S
C288 H351 0.961 . S
C288 H352 0.959 . S
C288 H353 0.959 . S
C289 C286 1.603 . S
C289 H354 0.960 . S
C289 H355 0.962 . S
C289 H356 0.961 . S
C290 C257 1.587 . S
C290 C291 1.360 . S
C290 C303 1.412 . S
C291 C290 1.360 . S
C291 C292 1.365 . S
C291 H357 0.929 . S
C292 C267 1.553 . S
C292 C291 1.365 . S
C292 C293 1.404 . S
C293 C292 1.404 . S
C293 C294 1.395 . S
C293 C304 1.451 . S
C294 C293 1.395 . S
C294 C295 1.322 . S
C294 H358 0.930 . S
C295 C294 1.322 . S
C295 C296 1.459 . S
C295 H359 0.929 . S
C296 C295 1.459 . S
C296 C297 1.445 . S
C296 C305 1.395 . S
C297 C275 1.432 . S
C297 C296 1.445 . S
C297 C298 1.370 . S
C298 C297 1.370 . S
C298 C299 1.438 . S
C298 H360 0.930 . S
C299 C285 1.497 . S
C299 C298 1.438 . S
C299 C300 1.360 . S
C300 C299 1.360 . S
C300 C301 1.401 . S
C300 C305 1.446 . S
C301 C300 1.401 . S
C301 C302 1.347 . S
C301 H361 0.929 . S
C302 C301 1.347 . S
C302 C303 1.455 . S
C302 H362 0.930 . S
C303 C290 1.412 . S
C303 C302 1.455 . S
C303 C304 1.331 . S
C304 C293 1.451 . S
C304 C303 1.331 . S
C304 C305 1.497 . S
C305 C296 1.395 . S
C305 C300 1.446 . S
C305 C304 1.497 . S
C306 C307 1.582 . S
C306 H363 0.962 . S
C306 H364 0.959 . S
C306 H365 0.958 . S
C307 C306 1.582 . S
C307 O310 1.458 . S
C307 H336 0.980 . S
O308 C253 1.426 . S
O308 C254 1.334 . S
O309 C281 1.412 . S
O309 C282 1.393 . S
O310 C272 1.435 . S
O310 C307 1.458 . S
O311 C263 1.468 . S
O311 C264 1.408 . S
H312 C253 0.980 . S
H313 C252 0.959 . S
H314 C252 0.959 . S
H315 C252 0.960 . S
H316 C255 0.929 . S
H317 C259 0.929 . S
H318 C260 0.959 . S
H319 C260 0.961 . S
H320 C260 0.961 . S
H321 C261 0.960 . S
H322 C261 0.960 . S
H323 C261 0.961 . S
H324 C263 0.980 . S
H325 C262 0.961 . S
H326 C262 0.960 . S
H327 C262 0.959 . S
H328 C265 0.930 . S
H329 C269 0.931 . S
H330 C270 0.959 . S
H331 C270 0.961 . S
H332 C270 0.959 . S
H333 C271 0.960 . S
H334 C271 0.960 . S
H335 C271 0.960 . S
H336 C307 0.980 . S
H337 C273 0.930 . S
H338 C277 0.930 . S
H339 C278 0.961 . S
H340 C278 0.960 . S
H341 C278 0.958 . S
H342 C279 0.961 . S
H343 C279 0.960 . S
H344 C279 0.960 . S
H345 C281 0.980 . S
H346 C280 0.961 . S
H347 C280 0.961 . S
H348 C280 0.959 . S
H349 C283 0.932 . S
H350 C287 0.929 . S
H351 C288 0.961 . S
H352 C288 0.959 . S
H353 C288 0.959 . S
H354 C289 0.960 . S
H355 C289 0.962 . S
H356 C289 0.961 . S
H357 C291 0.929 . S
H358 C294 0.930 . S
H359 C295 0.929 . S
H360 C298 0.930 . S
H361 C301 0.929 . S
H362 C302 0.930 . S
H363 C306 0.962 . S
H364 C306 0.959 . S
H365 C306 0.958 . S
C366 C367 1.560 . S
C366 H427 0.959 . S
C366 H428 0.959 . S
C366 H429 0.960 . S
C367 C366 1.560 . S
C367 O422 1.426 . S
C367 H426 0.980 . S
C368 C369 1.407 . S
C368 C373 1.418 . S
C368 O422 1.334 . S
C369 C368 1.407 . S
C369 C370 1.360 . S
C369 H430 0.929 . S
C370 C369 1.360 . S
C370 C371 1.401 . S
C370 C374 1.527 . S
C371 C370 1.401 . S
C371 C372 1.405 . S
C371 C404 1.587 . S
C372 C371 1.405 . S
C372 C373 1.332 . S
C372 C375 1.496 . S
C373 C368 1.418 . S
C373 C372 1.332 . S
C373 H431 0.929 . S
C374 C370 1.527 . S
C374 H432 0.959 . S
C374 H433 0.961 . S
C374 H434 0.961 . S
C375 C372 1.496 . S
C375 H435 0.960 . S
C375 H436 0.960 . S
C375 H437 0.961 . S
C376 C377 1.517 . S
C376 H439 0.961 . S
C376 H440 0.960 . S
C376 H441 0.959 . S
C377 C376 1.517 . S
C377 O425 1.468 . S
C377 H438 0.980 . S
C378 C379 1.349 . S
C378 C383 1.367 . S
C378 O425 1.408 . S
C379 C378 1.349 . S
C379 C380 1.407 . S
C379 H442 0.930 . S
C380 C379 1.407 . S
C380 C381 1.449 . S
C380 C384 1.535 . S
C381 C380 1.449 . S
C381 C382 1.384 . S
C381 C406 1.553 . S
C382 C381 1.384 . S
C382 C383 1.364 . S
C382 C385 1.450 . S
C383 C378 1.367 . S
C383 C382 1.364 . S
C383 H443 0.931 . S
C384 C380 1.535 . S
C384 H444 0.959 . S
C384 H445 0.961 . S
C384 H446 0.959 . S
C385 C382 1.450 . S
C385 H447 0.960 . S
C385 H448 0.960 . S
C385 H449 0.960 . S
C386 C387 1.309 . S
C386 C391 1.304 . S
C386 O424 1.435 . S
C387 C386 1.309 . S
C387 C388 1.476 . S
C387 H451 0.930 . S
C388 C387 1.476 . S
C388 C389 1.400 . S
C388 C392 1.567 . S
C389 C388 1.400 . S
C389 C390 1.373 . S
C389 C411 1.432 . S
C390 C389 1.373 . S
C390 C391 1.339 . S
C390 C393 1.530 . S
C391 C386 1.304 . S
C391 C390 1.339 . S
C391 H452 0.930 . S
C392 C388 1.567 . S
C392 H453 0.961 . S
C392 H454 0.960 . S
C392 H455 0.958 . S
C393 C390 1.530 . S
C393 H456 0.961 . S
C393 H457 0.960 . S
C393 H458 0.960 . S
C394 C395 1.530 . S
C394 H460 0.961 . S
C394 H461 0.961 . S
C394 H462 0.959 . S
C395 C394 1.530 . S
C395 O423 1.412 . S
C395 H459 0.980 . S
C396 C397 1.288 . S
C396 C401 1.377 . S
C396 O423 1.393 . S
C397 C396 1.288 . S
C397 C398 1.369 . S
C397 H463 0.932 . S
C398 C397 1.369 . S
C398 C399 1.398 . S
C398 C402 1.527 . S
C399 C398 1.398 . S
C399 C400 1.380 . S
C399 C413 1.497 . S
C400 C399 1.380 . S
C400 C401 1.383 . S
C400 C403 1.603 . S
C401 C396 1.377 . S
C401 C400 1.383 . S
C401 H464 0.929 . S
C402 C398 1.527 . S
C402 H465 0.961 . S
C402 H466 0.959 . S
C402 H467 0.959 . S
C403 C400 1.603 . S
C403 H468 0.960 . S
C403 H469 0.962 . S
C403 H470 0.961 . S
C404 C371 1.587 . S
C404 C405 1.360 . S
C404 C417 1.412 . S
C405 C404 1.360 . S
C405 C406 1.365 . S
C405 H471 0.929 . S
C406 C381 1.553 . S
C406 C405 1.365 . S
C406 C407 1.404 . S
C407 C406 1.404 . S
C407 C408 1.395 . S
C407 C418 1.451 . S
C408 C407 1.395 . S
C408 C409 1.322 . S
C408 H472 0.930 . S
C409 C408 1.322 . S
C409 C410 1.459 . S
C409 H473 0.929 . S
C410 C409 1.459 . S
C410 C411 1.445 . S
C410 C419 1.395 . S
C411 C389 1.432 . S
C411 C410 1.445 . S
C411 C412 1.370 . S
C412 C411 1.370 . S
C412 C413 1.438 . S
C412 H474 0.930 . S
C413 C399 1.497 . S
C413 C412 1.438 . S
C413 C414 1.360 . S
C414 C413 1.360 . S
C414 C415 1.401 . S
C414 C419 1.446 . S
C415 C414 1.401 . S
C415 C416 1.347 . S
C415 H475 0.929 . S
C416 C415 1.347 . S
C416 C417 1.455 . S
C416 H476 0.930 . S
C417 C404 1.412 . S
C417 C416 1.455 . S
C417 C418 1.331 . S
C418 C407 1.451 . S
C418 C417 1.331 . S
C418 C419 1.497 . S
C419 C410 1.395 . S
C419 C414 1.446 . S
C419 C418 1.497 . S
C420 C421 1.582 . S
C420 H477 0.962 . S
C420 H478 0.959 . S
C420 H479 0.958 . S
C421 C420 1.582 . S
C421 O424 1.458 . S
C421 H450 0.980 . S
O422 C367 1.426 . S
O422 C368 1.334 . S
O423 C395 1.412 . S
O423 C396 1.393 . S
O424 C386 1.435 . S
O424 C421 1.458 . S
O425 C377 1.468 . S
O425 C378 1.408 . S
H426 C367 0.980 . S
H427 C366 0.959 . S
H428 C366 0.959 . S
H429 C366 0.960 . S
H430 C369 0.929 . S
H431 C373 0.929 . S
H432 C374 0.959 . S
H433 C374 0.961 . S
H434 C374 0.961 . S
H435 C375 0.960 . S
H436 C375 0.960 . S
H437 C375 0.961 . S
H438 C377 0.980 . S
H439 C376 0.961 . S
H440 C376 0.960 . S
H441 C376 0.959 . S
H442 C379 0.930 . S
H443 C383 0.931 . S
H444 C384 0.959 . S
H445 C384 0.961 . S
H446 C384 0.959 . S
H447 C385 0.960 . S
H448 C385 0.960 . S
H449 C385 0.960 . S
H450 C421 0.980 . S
H451 C387 0.930 . S
H452 C391 0.930 . S
H453 C392 0.961 . S
H454 C392 0.960 . S
H455 C392 0.958 . S
H456 C393 0.961 . S
H457 C393 0.960 . S
H458 C393 0.960 . S
H459 C395 0.980 . S
H460 C394 0.961 . S
H461 C394 0.961 . S
H462 C394 0.959 . S
H463 C397 0.932 . S
H464 C401 0.929 . S
H465 C402 0.961 . S
H466 C402 0.959 . S
H467 C402 0.959 . S
H468 C403 0.960 . S
H469 C403 0.962 . S
H470 C403 0.961 . S
H471 C405 0.929 . S
H472 C408 0.930 . S
H473 C409 0.929 . S
H474 C412 0.930 . S
H475 C415 0.929 . S
H476 C416 0.930 . S
H477 C420 0.962 . S
H478 C420 0.959 . S
H479 C420 0.958 . S
C480 C481 1.560 . S
C480 H541 0.959 . S
C480 H542 0.959 . S
C480 H543 0.960 . S
C481 C480 1.560 . S
C481 O536 1.426 . S
C481 H540 0.980 . S
C482 C483 1.407 . S
C482 C487 1.418 . S
C482 O536 1.334 . S
C483 C482 1.407 . S
C483 C484 1.360 . S
C483 H544 0.929 . S
C484 C483 1.360 . S
C484 C485 1.401 . S
C484 C488 1.527 . S
C485 C484 1.401 . S
C485 C486 1.405 . S
C485 C518 1.587 . S
C486 C485 1.405 . S
C486 C487 1.332 . S
C486 C489 1.496 . S
C487 C482 1.418 . S
C487 C486 1.332 . S
C487 H545 0.929 . S
C488 C484 1.527 . S
C488 H546 0.959 . S
C488 H547 0.961 . S
C488 H548 0.961 . S
C489 C486 1.496 . S
C489 H549 0.960 . S
C489 H550 0.960 . S
C489 H551 0.961 . S
C490 C491 1.517 . S
C490 H553 0.961 . S
C490 H554 0.960 . S
C490 H555 0.959 . S
C491 C490 1.517 . S
C491 O539 1.468 . S
C491 H552 0.980 . S
C492 C493 1.349 . S
C492 C497 1.367 . S
C492 O539 1.408 . S
C493 C492 1.349 . S
C493 C494 1.407 . S
C493 H556 0.930 . S
C494 C493 1.407 . S
C494 C495 1.449 . S
C494 C498 1.535 . S
C495 C494 1.449 . S
C495 C496 1.384 . S
C495 C520 1.553 . S
C496 C495 1.384 . S
C496 C497 1.364 . S
C496 C499 1.450 . S
C497 C492 1.367 . S
C497 C496 1.364 . S
C497 H557 0.931 . S
C498 C494 1.535 . S
C498 H558 0.959 . S
C498 H559 0.961 . S
C498 H560 0.959 . S
C499 C496 1.450 . S
C499 H561 0.960 . S
C499 H562 0.960 . S
C499 H563 0.960 . S
C500 C501 1.309 . S
C500 C505 1.304 . S
C500 O538 1.435 . S
C501 C500 1.309 . S
C501 C502 1.476 . S
C501 H565 0.930 . S
C502 C501 1.476 . S
C502 C503 1.400 . S
C502 C506 1.567 . S
C503 C502 1.400 . S
C503 C504 1.373 . S
C503 C525 1.432 . S
C504 C503 1.373 . S
C504 C505 1.339 . S
C504 C507 1.530 . S
C505 C500 1.304 . S
C505 C504 1.339 . S
C505 H566 0.930 . S
C506 C502 1.567 . S
C506 H567 0.961 . S
C506 H568 0.960 . S
C506 H569 0.958 . S
C507 C504 1.530 . S
C507 H570 0.961 . S
C507 H571 0.960 . S
C507 H572 0.960 . S
C508 C509 1.530 . S
C508 H574 0.961 . S
C508 H575 0.961 . S
C508 H576 0.959 . S
C509 C508 1.530 . S
C509 O537 1.412 . S
C509 H573 0.980 . S
C510 C511 1.288 . S
C510 C515 1.377 . S
C510 O537 1.393 . S
C511 C510 1.288 . S
C511 C512 1.369 . S
C511 H577 0.932 . S
C512 C511 1.369 . S
C512 C513 1.398 . S
C512 C516 1.527 . S
C513 C512 1.398 . S
C513 C514 1.380 . S
C513 C527 1.497 . S
C514 C513 1.380 . S
C514 C515 1.383 . S
C514 C517 1.603 . S
C515 C510 1.377 . S
C515 C514 1.383 . S
C515 H578 0.929 . S
C516 C512 1.527 . S
C516 H579 0.961 . S
C516 H580 0.959 . S
C516 H581 0.959 . S
C517 C514 1.603 . S
C517 H582 0.960 . S
C517 H583 0.962 . S
C517 H584 0.961 . S
C518 C485 1.587 . S
C518 C519 1.360 . S
C518 C531 1.412 . S
C519 C518 1.360 . S
C519 C520 1.365 . S
C519 H585 0.929 . S
C520 C495 1.553 . S
C520 C519 1.365 . S
C520 C521 1.404 . S
C521 C520 1.404 . S
C521 C522 1.395 . S
C521 C532 1.451 . S
C522 C521 1.395 . S
C522 C523 1.322 . S
C522 H586 0.930 . S
C523 C522 1.322 . S
C523 C524 1.459 . S
C523 H587 0.929 . S
C524 C523 1.459 . S
C524 C525 1.445 . S
C524 C533 1.395 . S
C525 C503 1.432 . S
C525 C524 1.445 . S
C525 C526 1.370 . S
C526 C525 1.370 . S
C526 C527 1.438 . S
C526 H588 0.930 . S
C527 C513 1.497 . S
C527 C526 1.438 . S
C527 C528 1.360 . S
C528 C527 1.360 . S
C528 C529 1.401 . S
C528 C533 1.446 . S
C529 C528 1.401 . S
C529 C530 1.347 . S
C529 H589 0.929 . S
C530 C529 1.347 . S
C530 C531 1.455 . S
C530 H590 0.930 . S
C531 C518 1.412 . S
C531 C530 1.455 . S
C531 C532 1.331 . S
C532 C521 1.451 . S
C532 C531 1.331 . S
C532 C533 1.497 . S
C533 C524 1.395 . S
C533 C528 1.446 . S
C533 C532 1.497 . S
C534 C535 1.582 . S
C534 H591 0.962 . S
C534 H592 0.959 . S
C534 H593 0.958 . S
C535 C534 1.582 . S
C535 O538 1.458 . S
C535 H564 0.980 . S
O536 C481 1.426 . S
O536 C482 1.334 . S
O537 C509 1.412 . S
O537 C510 1.393 . S
O538 C500 1.435 . S
O538 C535 1.458 . S
O539 C491 1.468 . S
O539 C492 1.408 . S
H540 C481 0.980 . S
H541 C480 0.959 . S
H542 C480 0.959 . S
H543 C480 0.960 . S
H544 C483 0.929 . S
H545 C487 0.929 . S
H546 C488 0.959 . S
H547 C488 0.961 . S
H548 C488 0.961 . S
H549 C489 0.960 . S
H550 C489 0.960 . S
H551 C489 0.961 . S
H552 C491 0.980 . S
H553 C490 0.961 . S
H554 C490 0.960 . S
H555 C490 0.959 . S
H556 C493 0.930 . S
H557 C497 0.931 . S
H558 C498 0.959 . S
H559 C498 0.961 . S
H560 C498 0.959 . S
H561 C499 0.960 . S
H562 C499 0.960 . S
H563 C499 0.960 . S
H564 C535 0.980 . S
H565 C501 0.930 . S
H566 C505 0.930 . S
H567 C506 0.961 . S
H568 C506 0.960 . S
H569 C506 0.958 . S
H570 C507 0.961 . S
H571 C507 0.960 . S
H572 C507 0.960 . S
H573 C509 0.980 . S
H574 C508 0.961 . S
H575 C508 0.961 . S
H576 C508 0.959 . S
H577 C511 0.932 . S
H578 C515 0.929 . S
H579 C516 0.961 . S
H580 C516 0.959 . S
H581 C516 0.959 . S
H582 C517 0.960 . S
H583 C517 0.962 . S
H584 C517 0.961 . S
H585 C519 0.929 . S
H586 C522 0.930 . S
H587 C523 0.929 . S
H588 C526 0.930 . S
H589 C529 0.929 . S
H590 C530 0.930 . S
H591 C534 0.962 . S
H592 C534 0.959 . S
H593 C534 0.958 . S
C594 C595 1.560 . S
C594 H655 0.959 . S
C594 H656 0.959 . S
C594 H657 0.960 . S
C595 C594 1.560 . S
C595 O650 1.426 . S
C595 H654 0.980 . S
C596 C597 1.407 . S
C596 C601 1.418 . S
C596 O650 1.334 . S
C597 C596 1.407 . S
C597 C598 1.360 . S
C597 H658 0.929 . S
C598 C597 1.360 . S
C598 C599 1.401 . S
C598 C602 1.527 . S
C599 C598 1.401 . S
C599 C600 1.405 . S
C599 C632 1.587 . S
C600 C599 1.405 . S
C600 C601 1.332 . S
C600 C603 1.496 . S
C601 C596 1.418 . S
C601 C600 1.332 . S
C601 H659 0.929 . S
C602 C598 1.527 . S
C602 H660 0.959 . S
C602 H661 0.961 . S
C602 H662 0.961 . S
C603 C600 1.496 . S
C603 H663 0.960 . S
C603 H664 0.960 . S
C603 H665 0.961 . S
C604 C605 1.517 . S
C604 H667 0.961 . S
C604 H668 0.960 . S
C604 H669 0.959 . S
C605 C604 1.517 . S
C605 O653 1.468 . S
C605 H666 0.980 . S
C606 C607 1.349 . S
C606 C611 1.367 . S
C606 O653 1.408 . S
C607 C606 1.349 . S
C607 C608 1.407 . S
C607 H670 0.930 . S
C608 C607 1.407 . S
C608 C609 1.449 . S
C608 C612 1.535 . S
C609 C608 1.449 . S
C609 C610 1.384 . S
C609 C634 1.553 . S
C610 C609 1.384 . S
C610 C611 1.364 . S
C610 C613 1.450 . S
C611 C606 1.367 . S
C611 C610 1.364 . S
C611 H671 0.931 . S
C612 C608 1.535 . S
C612 H672 0.959 . S
C612 H673 0.961 . S
C612 H674 0.959 . S
C613 C610 1.450 . S
C613 H675 0.960 . S
C613 H676 0.960 . S
C613 H677 0.960 . S
C614 C615 1.309 . S
C614 C619 1.304 . S
C614 O652 1.435 . S
C615 C614 1.309 . S
C615 C616 1.476 . S
C615 H679 0.930 . S
C616 C615 1.476 . S
C616 C617 1.400 . S
C616 C620 1.567 . S
C617 C616 1.400 . S
C617 C618 1.373 . S
C617 C639 1.432 . S
C618 C617 1.373 . S
C618 C619 1.339 . S
C618 C621 1.530 . S
C619 C614 1.304 . S
C619 C618 1.339 . S
C619 H680 0.930 . S
C620 C616 1.567 . S
C620 H681 0.961 . S
C620 H682 0.960 . S
C620 H683 0.958 . S
C621 C618 1.530 . S
C621 H684 0.961 . S
C621 H685 0.960 . S
C621 H686 0.960 . S
C622 C623 1.530 . S
C622 H688 0.961 . S
C622 H689 0.961 . S
C622 H690 0.959 . S
C623 C622 1.530 . S
C623 O651 1.412 . S
C623 H687 0.980 . S
C624 C625 1.288 . S
C624 C629 1.377 . S
C624 O651 1.393 . S
C625 C624 1.288 . S
C625 C626 1.369 . S
C625 H691 0.932 . S
C626 C625 1.369 . S
C626 C627 1.398 . S
C626 C630 1.527 . S
C627 C626 1.398 . S
C627 C628 1.380 . S
C627 C641 1.497 . S
C628 C627 1.380 . S
C628 C629 1.383 . S
C628 C631 1.603 . S
C629 C624 1.377 . S
C629 C628 1.383 . S
C629 H692 0.929 . S
C630 C626 1.527 . S
C630 H693 0.961 . S
C630 H694 0.959 . S
C630 H695 0.959 . S
C631 C628 1.603 . S
C631 H696 0.960 . S
C631 H697 0.962 . S
C631 H698 0.961 . S
C632 C599 1.587 . S
C632 C633 1.360 . S
C632 C645 1.412 . S
C633 C632 1.360 . S
C633 C634 1.365 . S
C633 H699 0.929 . S
C634 C609 1.553 . S
C634 C633 1.365 . S
C634 C635 1.404 . S
C635 C634 1.404 . S
C635 C636 1.395 . S
C635 C646 1.451 . S
C636 C635 1.395 . S
C636 C637 1.322 . S
C636 H700 0.930 . S
C637 C636 1.322 . S
C637 C638 1.459 . S
C637 H701 0.929 . S
C638 C637 1.459 . S
C638 C639 1.445 . S
C638 C647 1.395 . S
C639 C617 1.432 . S
C639 C638 1.445 . S
C639 C640 1.370 . S
C640 C639 1.370 . S
C640 C641 1.438 . S
C640 H702 0.930 . S
C641 C627 1.497 . S
C641 C640 1.438 . S
C641 C642 1.360 . S
C642 C641 1.360 . S
C642 C643 1.401 . S
C642 C647 1.446 . S
C643 C642 1.401 . S
C643 C644 1.347 . S
C643 H703 0.929 . S
C644 C643 1.347 . S
C644 C645 1.455 . S
C644 H704 0.930 . S
C645 C632 1.412 . S
C645 C644 1.455 . S
C645 C646 1.331 . S
C646 C635 1.451 . S
C646 C645 1.331 . S
C646 C647 1.497 . S
C647 C638 1.395 . S
C647 C642 1.446 . S
C647 C646 1.497 . S
C648 C649 1.582 . S
C648 H705 0.962 . S
C648 H706 0.959 . S
C648 H707 0.958 . S
C649 C648 1.582 . S
C649 O652 1.458 . S
C649 H678 0.980 . S
O650 C595 1.426 . S
O650 C596 1.334 . S
O651 C623 1.412 . S
O651 C624 1.393 . S
O652 C614 1.435 . S
O652 C649 1.458 . S
O653 C605 1.468 . S
O653 C606 1.408 . S
H654 C595 0.980 . S
H655 C594 0.959 . S
H656 C594 0.959 . S
H657 C594 0.960 . S
H658 C597 0.929 . S
H659 C601 0.929 . S
H660 C602 0.959 . S
H661 C602 0.961 . S
H662 C602 0.961 . S
H663 C603 0.960 . S
H664 C603 0.960 . S
H665 C603 0.961 . S
H666 C605 0.980 . S
H667 C604 0.961 . S
H668 C604 0.960 . S
H669 C604 0.959 . S
H670 C607 0.930 . S
H671 C611 0.931 . S
H672 C612 0.959 . S
H673 C612 0.961 . S
H674 C612 0.959 . S
H675 C613 0.960 . S
H676 C613 0.960 . S
H677 C613 0.960 . S
H678 C649 0.980 . S
H679 C615 0.930 . S
H680 C619 0.930 . S
H681 C620 0.961 . S
H682 C620 0.960 . S
H683 C620 0.958 . S
H684 C621 0.961 . S
H685 C621 0.960 . S
H686 C621 0.960 . S
H687 C623 0.980 . S
H688 C622 0.961 . S
H689 C622 0.961 . S
H690 C622 0.959 . S
H691 C625 0.932 . S
H692 C629 0.929 . S
H693 C630 0.961 . S
H694 C630 0.959 . S
H695 C630 0.959 . S
H696 C631 0.960 . S
H697 C631 0.962 . S
H698 C631 0.961 . S
H699 C633 0.929 . S
H700 C636 0.930 . S
H701 C637 0.929 . S
H702 C640 0.930 . S
H703 C643 0.929 . S
H704 C644 0.930 . S
H705 C648 0.962 . S
H706 C648 0.959 . S
H707 C648 0.958 . S
C708 C709 1.560 . S
C708 H769 0.959 . S
C708 H770 0.959 . S
C708 H771 0.960 . S
C709 C708 1.560 . S
C709 O764 1.426 . S
C709 H768 0.980 . S
C710 C711 1.407 . S
C710 C715 1.418 . S
C710 O764 1.334 . S
C711 C710 1.407 . S
C711 C712 1.360 . S
C711 H772 0.929 . S
C712 C711 1.360 . S
C712 C713 1.401 . S
C712 C716 1.527 . S
C713 C712 1.401 . S
C713 C714 1.405 . S
C713 C746 1.587 . S
C714 C713 1.405 . S
C714 C715 1.332 . S
C714 C717 1.496 . S
C715 C710 1.418 . S
C715 C714 1.332 . S
C715 H773 0.929 . S
C716 C712 1.527 . S
C716 H774 0.959 . S
C716 H775 0.961 . S
C716 H776 0.961 . S
C717 C714 1.496 . S
C717 H777 0.960 . S
C717 H778 0.960 . S
C717 H779 0.961 . S
C718 C719 1.517 . S
C718 H781 0.961 . S
C718 H782 0.960 . S
C718 H783 0.959 . S
C719 C718 1.517 . S
C719 O767 1.468 . S
C719 H780 0.980 . S
C720 C721 1.349 . S
C720 C725 1.367 . S
C720 O767 1.408 . S
C721 C720 1.349 . S
C721 C722 1.407 . S
C721 H784 0.930 . S
C722 C721 1.407 . S
C722 C723 1.449 . S
C722 C726 1.535 . S
C723 C722 1.449 . S
C723 C724 1.384 . S
C723 C748 1.553 . S
C724 C723 1.384 . S
C724 C725 1.364 . S
C724 C727 1.450 . S
C725 C720 1.367 . S
C725 C724 1.364 . S
C725 H785 0.931 . S
C726 C722 1.535 . S
C726 H786 0.959 . S
C726 H787 0.961 . S
C726 H788 0.959 . S
C727 C724 1.450 . S
C727 H789 0.960 . S
C727 H790 0.960 . S
C727 H791 0.960 . S
C728 C729 1.309 . S
C728 C733 1.304 . S
C728 O766 1.435 . S
C729 C728 1.309 . S
C729 C730 1.476 . S
C729 H793 0.930 . S
C730 C729 1.476 . S
C730 C731 1.400 . S
C730 C734 1.567 . S
C731 C730 1.400 . S
C731 C732 1.373 . S
C731 C753 1.432 . S
C732 C731 1.373 . S
C732 C733 1.339 . S
C732 C735 1.530 . S
C733 C728 1.304 . S
C733 C732 1.339 . S
C733 H794 0.930 . S
C734 C730 1.567 . S
C734 H795 0.961 . S
C734 H796 0.960 . S
C734 H797 0.958 . S
C735 C732 1.530 . S
C735 H798 0.961 . S
C735 H799 0.960 . S
C735 H800 0.960 . S
C736 C737 1.530 . S
C736 H802 0.961 . S
C736 H803 0.961 . S
C736 H804 0.959 . S
C737 C736 1.530 . S
C737 O765 1.412 . S
C737 H801 0.980 . S
C738 C739 1.288 . S
C738 C743 1.377 . S
C738 O765 1.393 . S
C739 C738 1.288 . S
C739 C740 1.369 . S
C739 H805 0.932 . S
C740 C739 1.369 . S
C740 C741 1.398 . S
C740 C744 1.527 . S
C741 C740 1.398 . S
C741 C742 1.380 . S
C741 C755 1.497 . S
C742 C741 1.380 . S
C742 C743 1.383 . S
C742 C745 1.603 . S
C743 C738 1.377 . S
C743 C742 1.383 . S
C743 H806 0.929 . S
C744 C740 1.527 . S
C744 H807 0.961 . S
C744 H808 0.959 . S
C744 H809 0.959 . S
C745 C742 1.603 . S
C745 H810 0.960 . S
C745 H811 0.962 . S
C745 H812 0.961 . S
C746 C713 1.587 . S
C746 C747 1.360 . S
C746 C759 1.412 . S
C747 C746 1.360 . S
C747 C748 1.365 . S
C747 H813 0.929 . S
C748 C723 1.553 . S
C748 C747 1.365 . S
C748 C749 1.404 . S
C749 C748 1.404 . S
C749 C750 1.395 . S
C749 C760 1.451 . S
C750 C749 1.395 . S
C750 C751 1.322 . S
C750 H814 0.930 . S
C751 C750 1.322 . S
C751 C752 1.459 . S
C751 H815 0.929 . S
C752 C751 1.459 . S
C752 C753 1.445 . S
C752 C761 1.395 . S
C753 C731 1.432 . S
C753 C752 1.445 . S
C753 C754 1.370 . S
C754 C753 1.370 . S
C754 C755 1.438 . S
C754 H816 0.930 . S
C755 C741 1.497 . S
C755 C754 1.438 . S
C755 C756 1.360 . S
C756 C755 1.360 . S
C756 C757 1.401 . S
C756 C761 1.446 . S
C757 C756 1.401 . S
C757 C758 1.347 . S
C757 H817 0.929 . S
C758 C757 1.347 . S
C758 C759 1.455 . S
C758 H818 0.930 . S
C759 C746 1.412 . S
C759 C758 1.455 . S
C759 C760 1.331 . S
C760 C749 1.451 . S
C760 C759 1.331 . S
C760 C761 1.497 . S
C761 C752 1.395 . S
C761 C756 1.446 . S
C761 C760 1.497 . S
C762 C763 1.582 . S
C762 H819 0.962 . S
C762 H820 0.959 . S
C762 H821 0.958 . S
C763 C762 1.582 . S
C763 O766 1.458 . S
C763 H792 0.980 . S
O764 C709 1.426 . S
O764 C710 1.334 . S
O765 C737 1.412 . S
O765 C738 1.393 . S
O766 C728 1.435 . S
O766 C763 1.458 . S
O767 C719 1.468 . S
O767 C720 1.408 . S
H768 C709 0.980 . S
H769 C708 0.959 . S
H770 C708 0.959 . S
H771 C708 0.960 . S
H772 C711 0.929 . S
H773 C715 0.929 . S
H774 C716 0.959 . S
H775 C716 0.961 . S
H776 C716 0.961 . S
H777 C717 0.960 . S
H778 C717 0.960 . S
H779 C717 0.961 . S
H780 C719 0.980 . S
H781 C718 0.961 . S
H782 C718 0.960 . S
H783 C718 0.959 . S
H784 C721 0.930 . S
H785 C725 0.931 . S
H786 C726 0.959 . S
H787 C726 0.961 . S
H788 C726 0.959 . S
H789 C727 0.960 . S
H790 C727 0.960 . S
H791 C727 0.960 . S
H792 C763 0.980 . S
H793 C729 0.930 . S
H794 C733 0.930 . S
H795 C734 0.961 . S
H796 C734 0.960 . S
H797 C734 0.958 . S
H798 C735 0.961 . S
H799 C735 0.960 . S
H800 C735 0.960 . S
H801 C737 0.980 . S
H802 C736 0.961 . S
H803 C736 0.961 . S
H804 C736 0.959 . S
H805 C739 0.932 . S
H806 C743 0.929 . S
H807 C744 0.961 . S
H808 C744 0.959 . S
H809 C744 0.959 . S
H810 C745 0.960 . S
H811 C745 0.962 . S
H812 C745 0.961 . S
H813 C747 0.929 . S
H814 C750 0.930 . S
H815 C751 0.929 . S
H816 C754 0.930 . S
H817 C757 0.929 . S
H818 C758 0.930 . S
H819 C762 0.962 . S
H820 C762 0.959 . S
H821 C762 0.958 . S
C822 C823 1.560 . S
C822 H883 0.959 . S
C822 H884 0.959 . S
C822 H885 0.960 . S
C823 C822 1.560 . S
C823 O878 1.426 . S
C823 H882 0.980 . S
C824 C825 1.407 . S
C824 C829 1.418 . S
C824 O878 1.334 . S
C825 C824 1.407 . S
C825 C826 1.360 . S
C825 H886 0.929 . S
C826 C825 1.360 . S
C826 C827 1.401 . S
C826 C830 1.527 . S
C827 C826 1.401 . S
C827 C828 1.405 . S
C827 C860 1.587 . S
C828 C827 1.405 . S
C828 C829 1.332 . S
C828 C831 1.496 . S
C829 C824 1.418 . S
C829 C828 1.332 . S
C829 H887 0.929 . S
C830 C826 1.527 . S
C830 H888 0.959 . S
C830 H889 0.961 . S
C830 H890 0.961 . S
C831 C828 1.496 . S
C831 H891 0.960 . S
C831 H892 0.960 . S
C831 H893 0.961 . S
C832 C833 1.517 . S
C832 H895 0.961 . S
C832 H896 0.960 . S
C832 H897 0.959 . S
C833 C832 1.517 . S
C833 O881 1.468 . S
C833 H894 0.980 . S
C834 C835 1.349 . S
C834 C839 1.367 . S
C834 O881 1.408 . S
C835 C834 1.349 . S
C835 C836 1.407 . S
C835 H898 0.930 . S
C836 C835 1.407 . S
C836 C837 1.449 . S
C836 C840 1.535 . S
C837 C836 1.449 . S
C837 C838 1.384 . S
C837 C862 1.553 . S
C838 C837 1.384 . S
C838 C839 1.364 . S
C838 C841 1.450 . S
C839 C834 1.367 . S
C839 C838 1.364 . S
C839 H899 0.931 . S
C840 C836 1.535 . S
C840 H900 0.959 . S
C840 H901 0.961 . S
C840 H902 0.959 . S
C841 C838 1.450 . S
C841 H903 0.960 . S
C841 H904 0.960 . S
C841 H905 0.960 . S
C842 C843 1.309 . S
C842 C847 1.304 . S
C842 O880 1.435 . S
C843 C842 1.309 . S
C843 C844 1.476 . S
C843 H907 0.930 . S
C844 C843 1.476 . S
C844 C845 1.400 . S
C844 C848 1.567 . S
C845 C844 1.400 . S
C845 C846 1.373 . S
C845 C867 1.432 . S
C846 C845 1.373 . S
C846 C847 1.339 . S
C846 C849 1.530 . S
C847 C842 1.304 . S
C847 C846 1.339 . S
C847 H908 0.930 . S
C848 C844 1.567 . S
C848 H909 0.961 . S
C848 H910 0.960 . S
C848 H911 0.958 . S
C849 C846 1.530 . S
C849 H912 0.961 . S
C849 H913 0.960 . S
C849 H914 0.960 . S
C850 C851 1.530 . S
C850 H916 0.961 . S
C850 H917 0.961 . S
C850 H918 0.959 . S
C851 C850 1.530 . S
C851 O879 1.412 . S
C851 H915 0.980 . S
C852 C853 1.288 . S
C852 C857 1.377 . S
C852 O879 1.393 . S
C853 C852 1.288 . S
C853 C854 1.369 . S
C853 H919 0.932 . S
C854 C853 1.369 . S
C854 C855 1.398 . S
C854 C858 1.527 . S
C855 C854 1.398 . S
C855 C856 1.380 . S
C855 C869 1.497 . S
C856 C855 1.380 . S
C856 C857 1.383 . S
C856 C859 1.603 . S
C857 C852 1.377 . S
C857 C856 1.383 . S
C857 H920 0.929 . S
C858 C854 1.527 . S
C858 H921 0.961 . S
C858 H922 0.959 . S
C858 H923 0.959 . S
C859 C856 1.603 . S
C859 H924 0.960 . S
C859 H925 0.962 . S
C859 H926 0.961 . S
C860 C827 1.587 . S
C860 C861 1.360 . S
C860 C873 1.412 . S
C861 C860 1.360 . S
C861 C862 1.365 . S
C861 H927 0.929 . S
C862 C837 1.553 . S
C862 C861 1.365 . S
C862 C863 1.404 . S
C863 C862 1.404 . S
C863 C864 1.395 . S
C863 C874 1.451 . S
C864 C863 1.395 . S
C864 C865 1.322 . S
C864 H928 0.930 . S
C865 C864 1.322 . S
C865 C866 1.459 . S
C865 H929 0.929 . S
C866 C865 1.459 . S
C866 C867 1.445 . S
C866 C875 1.395 . S
C867 C845 1.432 . S
C867 C866 1.445 . S
C867 C868 1.370 . S
C868 C867 1.370 . S
C868 C869 1.438 . S
C868 H930 0.930 . S
C869 C855 1.497 . S
C869 C868 1.438 . S
C869 C870 1.360 . S
C870 C869 1.360 . S
C870 C871 1.401 . S
C870 C875 1.446 . S
C871 C870 1.401 . S
C871 C872 1.347 . S
C871 H931 0.929 . S
C872 C871 1.347 . S
C872 C873 1.455 . S
C872 H932 0.930 . S
C873 C860 1.412 . S
C873 C872 1.455 . S
C873 C874 1.331 . S
C874 C863 1.451 . S
C874 C873 1.331 . S
C874 C875 1.497 . S
C875 C866 1.395 . S
C875 C870 1.446 . S
C875 C874 1.497 . S
C876 C877 1.582 . S
C876 H933 0.962 . S
C876 H934 0.959 . S
C876 H935 0.958 . S
C877 C876 1.582 . S
C877 O880 1.458 . S
C877 H906 0.980 . S
O878 C823 1.426 . S
O878 C824 1.334 . S
O879 C851 1.412 . S
O879 C852 1.393 . S
O880 C842 1.435 . S
O880 C877 1.458 . S
O881 C833 1.468 . S
O881 C834 1.408 . S
H882 C823 0.980 . S
H883 C822 0.959 . S
H884 C822 0.959 . S
H885 C822 0.960 . S
H886 C825 0.929 . S
H887 C829 0.929 . S
H888 C830 0.959 . S
H889 C830 0.961 . S
H890 C830 0.961 . S
H891 C831 0.960 . S
H892 C831 0.960 . S
H893 C831 0.961 . S
H894 C833 0.980 . S
H895 C832 0.961 . S
H896 C832 0.960 . S
H897 C832 0.959 . S
H898 C835 0.930 . S
H899 C839 0.931 . S
H900 C840 0.959 . S
H901 C840 0.961 . S
H902 C840 0.959 . S
H903 C841 0.960 . S
H904 C841 0.960 . S
H905 C841 0.960 . S
H906 C877 0.980 . S
H907 C843 0.930 . S
H908 C847 0.930 . S
H909 C848 0.961 . S
H910 C848 0.960 . S
H911 C848 0.958 . S
H912 C849 0.961 . S
H913 C849 0.960 . S
H914 C849 0.960 . S
H915 C851 0.980 . S
H916 C850 0.961 . S
H917 C850 0.961 . S
H918 C850 0.959 . S
H919 C853 0.932 . S
H920 C857 0.929 . S
H921 C858 0.961 . S
H922 C858 0.959 . S
H923 C858 0.959 . S
H924 C859 0.960 . S
H925 C859 0.962 . S
H926 C859 0.961 . S
H927 C861 0.929 . S
H928 C864 0.930 . S
H929 C865 0.929 . S
H930 C868 0.930 . S
H931 C871 0.929 . S
H932 C872 0.930 . S
H933 C876 0.962 . S
H934 C876 0.959 . S
H935 C876 0.958 . S
C936 C937 1.560 . S
C936 H997 0.959 . S
C936 H998 0.959 . S
C936 H999 0.960 . S
C937 C936 1.560 . S
C937 O992 1.426 . S
C937 H996 0.980 . S
C938 C939 1.407 . S
C938 C943 1.418 . S
C938 O992 1.334 . S
C939 C938 1.407 . S
C939 C940 1.360 . S
C939 H1000 0.929 . S
C940 C939 1.360 . S
C940 C941 1.401 . S
C940 C944 1.527 . S
C941 C940 1.401 . S
C941 C942 1.405 . S
C941 C974 1.587 . S
C942 C941 1.405 . S
C942 C943 1.332 . S
C942 C945 1.496 . S
C943 C938 1.418 . S
C943 C942 1.332 . S
C943 H1001 0.929 . S
C944 C940 1.527 . S
C944 H1002 0.959 . S
C944 H1003 0.961 . S
C944 H1004 0.961 . S
C945 C942 1.496 . S
C945 H1005 0.960 . S
C945 H1006 0.960 . S
C945 H1007 0.961 . S
C946 C947 1.517 . S
C946 H1009 0.961 . S
C946 H1010 0.960 . S
C946 H1011 0.959 . S
C947 C946 1.517 . S
C947 O995 1.468 . S
C947 H1008 0.980 . S
C948 C949 1.349 . S
C948 C953 1.367 . S
C948 O995 1.408 . S
C949 C948 1.349 . S
C949 C950 1.407 . S
C949 H1012 0.930 . S
C950 C949 1.407 . S
C950 C951 1.449 . S
C950 C954 1.535 . S
C951 C950 1.449 . S
C951 C952 1.384 . S
C951 C976 1.553 . S
C952 C951 1.384 . S
C952 C953 1.364 . S
C952 C955 1.450 . S
C953 C948 1.367 . S
C953 C952 1.364 . S
C953 H1013 0.931 . S
C954 C950 1.535 . S
C954 H1014 0.959 . S
C954 H1015 0.961 . S
C954 H1016 0.959 . S
C955 C952 1.450 . S
C955 H1017 0.960 . S
C955 H1018 0.960 . S
C955 H1019 0.960 . S
C956 C957 1.309 . S
C956 C961 1.304 . S
C956 O994 1.435 . S
C957 C956 1.309 . S
C957 C958 1.476 . S
C957 H1021 0.930 . S
C958 C957 1.476 . S
C958 C959 1.400 . S
C958 C962 1.567 . S
C959 C958 1.400 . S
C959 C960 1.373 . S
C959 C981 1.432 . S
C960 C959 1.373 . S
C960 C961 1.339 . S
C960 C963 1.530 . S
C961 C956 1.304 . S
C961 C960 1.339 . S
C961 H1022 0.930 . S
C962 C958 1.567 . S
C962 H1023 0.961 . S
C962 H1024 0.960 . S
C962 H1025 0.958 . S
C963 C960 1.530 . S
C963 H1026 0.961 . S
C963 H1027 0.960 . S
C963 H1028 0.960 . S
C964 C965 1.530 . S
C964 H1030 0.961 . S
C964 H1031 0.961 . S
C964 H1032 0.959 . S
C965 C964 1.530 . S
C965 O993 1.412 . S
C965 H1029 0.980 . S
C966 C967 1.288 . S
C966 C971 1.377 . S
C966 O993 1.393 . S
C967 C966 1.288 . S
C967 C968 1.369 . S
C967 H1033 0.932 . S
C968 C967 1.369 . S
C968 C969 1.398 . S
C968 C972 1.527 . S
C969 C968 1.398 . S
C969 C970 1.380 . S
C969 C983 1.497 . S
C970 C969 1.380 . S
C970 C971 1.383 . S
C970 C973 1.603 . S
C971 C966 1.377 . S
C971 C970 1.383 . S
C971 H1034 0.929 . S
C972 C968 1.527 . S
C972 H1035 0.961 . S
C972 H1036 0.959 . S
C972 H1037 0.959 . S
C973 C970 1.603 . S
C973 H1038 0.960 . S
C973 H1039 0.962 . S
C973 H1040 0.961 . S
C974 C941 1.587 . S
C974 C975 1.360 . S
C974 C987 1.412 . S
C975 C974 1.360 . S
C975 C976 1.365 . S
C975 H1041 0.929 . S
C976 C951 1.553 . S
C976 C975 1.365 . S
C976 C977 1.404 . S
C977 C976 1.404 . S
C977 C978 1.395 . S
C977 C988 1.451 . S
C978 C977 1.395 . S
C978 C979 1.322 . S
C978 H1042 0.930 . S
C979 C978 1.322 . S
C979 C980 1.459 . S
C979 H1043 0.929 . S
C980 C979 1.459 . S
C980 C981 1.445 . S
C980 C989 1.395 . S
C981 C959 1.432 . S
C981 C980 1.445 . S
C981 C982 1.370 . S
C982 C981 1.370 . S
C982 C983 1.438 . S
C982 H1044 0.930 . S
C983 C969 1.497 . S
C983 C982 1.438 . S
C983 C984 1.360 . S
C984 C983 1.360 . S
C984 C985 1.401 . S
C984 C989 1.446 . S
C985 C984 1.401 . S
C985 C986 1.347 . S
C985 H1045 0.929 . S
C986 C985 1.347 . S
C986 C987 1.455 . S
C986 H1046 0.930 . S
C987 C974 1.412 . S
C987 C986 1.455 . S
C987 C988 1.331 . S
C988 C977 1.451 . S
C988 C987 1.331 . S
C988 C989 1.497 . S
C989 C980 1.395 . S
C989 C984 1.446 . S
C989 C988 1.497 . S
C990 C991 1.582 . S
C990 H1047 0.962 . S
C990 H1048 0.959 . S
C990 H1049 0.958 . S
C991 C990 1.582 . S
C991 O994 1.458 . S
C991 H1020 0.980 . S
O992 C937 1.426 . S
O992 C938 1.334 . S
O993 C965 1.412 . S
O993 C966 1.393 . S
O994 C956 1.435 . S
O994 C991 1.458 . S
O995 C947 1.468 . S
O995 C948 1.408 . S
H996 C937 0.980 . S
H997 C936 0.959 . S
H998 C936 0.959 . S
H999 C936 0.960 . S
H1000 C939 0.929 . S
H1001 C943 0.929 . S
H1002 C944 0.959 . S
H1003 C944 0.961 . S
H1004 C944 0.961 . S
H1005 C945 0.960 . S
H1006 C945 0.960 . S
H1007 C945 0.961 . S
H1008 C947 0.980 . S
H1009 C946 0.961 . S
H1010 C946 0.960 . S
H1011 C946 0.959 . S
H1012 C949 0.930 . S
H1013 C953 0.931 . S
H1014 C954 0.959 . S
H1015 C954 0.961 . S
H1016 C954 0.959 . S
H1017 C955 0.960 . S
H1018 C955 0.960 . S
H1019 C955 0.960 . S
H1020 C991 0.980 . S
H1021 C957 0.930 . S
H1022 C961 0.930 . S
H1023 C962 0.961 . S
H1024 C962 0.960 . S
H1025 C962 0.958 . S
H1026 C963 0.961 . S
H1027 C963 0.960 . S
H1028 C963 0.960 . S
H1029 C965 0.980 . S
H1030 C964 0.961 . S
H1031 C964 0.961 . S
H1032 C964 0.959 . S
H1033 C967 0.932 . S
H1034 C971 0.929 . S
H1035 C972 0.961 . S
H1036 C972 0.959 . S
H1037 C972 0.959 . S
H1038 C973 0.960 . S
H1039 C973 0.962 . S
H1040 C973 0.961 . S
H1041 C975 0.929 . S
H1042 C978 0.930 . S
H1043 C979 0.929 . S
H1044 C982 0.930 . S
H1045 C985 0.929 . S
H1046 C986 0.930 . S
H1047 C990 0.962 . S
H1048 C990 0.959 . S
H1049 C990 0.958 . S
C1050 C1051 1.560 . S
C1050 H1111 0.959 . S
C1050 H1112 0.959 . S
C1050 H1113 0.960 . S
C1051 C1050 1.560 . S
C1051 O1106 1.426 . S
C1051 H1110 0.980 . S
C1052 C1053 1.407 . S
C1052 C1057 1.418 . S
C1052 O1106 1.334 . S
C1053 C1052 1.407 . S
C1053 C1054 1.360 . S
C1053 H1114 0.929 . S
C1054 C1053 1.360 . S
C1054 C1055 1.401 . S
C1054 C1058 1.527 . S
C1055 C1054 1.401 . S
C1055 C1056 1.405 . S
C1055 C1088 1.587 . S
C1056 C1055 1.405 . S
C1056 C1057 1.332 . S
C1056 C1059 1.496 . S
C1057 C1052 1.418 . S
C1057 C1056 1.332 . S
C1057 H1115 0.929 . S
C1058 C1054 1.527 . S
C1058 H1116 0.959 . S
C1058 H1117 0.961 . S
C1058 H1118 0.961 . S
C1059 C1056 1.496 . S
C1059 H1119 0.960 . S
C1059 H1120 0.960 . S
C1059 H1121 0.961 . S
C1060 C1061 1.517 . S
C1060 H1123 0.961 . S
C1060 H1124 0.960 . S
C1060 H1125 0.959 . S
C1061 C1060 1.517 . S
C1061 O1109 1.468 . S
C1061 H1122 0.980 . S
C1062 C1063 1.349 . S
C1062 C1067 1.367 . S
C1062 O1109 1.408 . S
C1063 C1062 1.349 . S
C1063 C1064 1.407 . S
C1063 H1126 0.930 . S
C1064 C1063 1.407 . S
C1064 C1065 1.449 . S
C1064 C1068 1.535 . S
C1065 C1064 1.449 . S
C1065 C1066 1.384 . S
C1065 C1090 1.553 . S
C1066 C1065 1.384 . S
C1066 C1067 1.364 . S
C1066 C1069 1.450 . S
C1067 C1062 1.367 . S
C1067 C1066 1.364 . S
C1067 H1127 0.931 . S
C1068 C1064 1.535 . S
C1068 H1128 0.959 . S
C1068 H1129 0.961 . S
C1068 H1130 0.959 . S
C1069 C1066 1.450 . S
C1069 H1131 0.960 . S
C1069 H1132 0.960 . S
C1069 H1133 0.960 . S
C1070 C1071 1.309 . S
C1070 C1075 1.304 . S
C1070 O1108 1.435 . S
C1071 C1070 1.309 . S
C1071 C1072 1.476 . S
C1071 H1135 0.930 . S
C1072 C1071 1.476 . S
C1072 C1073 1.400 . S
C1072 C1076 1.567 . S
C1073 C1072 1.400 . S
C1073 C1074 1.373 . S
C1073 C1095 1.432 . S
C1074 C1073 1.373 . S
C1074 C1075 1.339 . S
C1074 C1077 1.530 . S
C1075 C1070 1.304 . S
C1075 C1074 1.339 . S
C1075 H1136 0.930 . S
C1076 C1072 1.567 . S
C1076 H1137 0.961 . S
C1076 H1138 0.960 . S
C1076 H1139 0.958 . S
C1077 C1074 1.530 . S
C1077 H1140 0.961 . S
C1077 H1141 0.960 . S
C1077 H1142 0.960 . S
C1078 C1079 1.530 . S
C1078 H1144 0.961 . S
C1078 H1145 0.961 . S
C1078 H1146 0.959 . S
C1079 C1078 1.530 . S
C1079 O1107 1.412 . S
C1079 H1143 0.980 . S
C1080 C1081 1.288 . S
C1080 C1085 1.377 . S
C1080 O1107 1.393 . S
C1081 C1080 1.288 . S
C1081 C1082 1.369 . S
C1081 H1147 0.932 . S
C1082 C1081 1.369 . S
C1082 C1083 1.398 . S
C1082 C1086 1.527 . S
C1083 C1082 1.398 . S
C1083 C1084 1.380 . S
C1083 C1097 1.497 . S
C1084 C1083 1.380 . S
C1084 C1085 1.383 . S
C1084 C1087 1.603 . S
C1085 C1080 1.377 . S
C1085 C1084 1.383 . S
C1085 H1148 0.929 . S
C1086 C1082 1.527 . S
C1086 H1149 0.961 . S
C1086 H1150 0.959 . S
C1086 H1151 0.959 . S
C1087 C1084 1.603 . S
C1087 H1152 0.960 . S
C1087 H1153 0.962 . S
C1087 H1154 0.961 . S
C1088 C1055 1.587 . S
C1088 C1089 1.360 . S
C1088 C1101 1.412 . S
C1089 C1088 1.360 . S
C1089 C1090 1.365 . S
C1089 H1155 0.929 . S
C1090 C1065 1.553 . S
C1090 C1089 1.365 . S
C1090 C1091 1.404 . S
C1091 C1090 1.404 . S
C1091 C1092 1.395 . S
C1091 C1102 1.451 . S
C1092 C1091 1.395 . S
C1092 C1093 1.322 . S
C1092 H1156 0.930 . S
C1093 C1092 1.322 . S
C1093 C1094 1.459 . S
C1093 H1157 0.929 . S
C1094 C1093 1.459 . S
C1094 C1095 1.445 . S
C1094 C1103 1.395 . S
C1095 C1073 1.432 . S
C1095 C1094 1.445 . S
C1095 C1096 1.370 . S
C1096 C1095 1.370 . S
C1096 C1097 1.438 . S
C1096 H1158 0.930 . S
C1097 C1083 1.497 . S
C1097 C1096 1.438 . S
C1097 C1098 1.360 . S
C1098 C1097 1.360 . S
C1098 C1099 1.401 . S
C1098 C1103 1.446 . S
C1099 C1098 1.401 . S
C1099 C1100 1.347 . S
C1099 H1159 0.929 . S
C1100 C1099 1.347 . S
C1100 C1101 1.455 . S
C1100 H1160 0.930 . S
C1101 C1088 1.412 . S
C1101 C1100 1.455 . S
C1101 C1102 1.331 . S
C1102 C1091 1.451 . S
C1102 C1101 1.331 . S
C1102 C1103 1.497 . S
C1103 C1094 1.395 . S
C1103 C1098 1.446 . S
C1103 C1102 1.497 . S
C1104 C1105 1.582 . S
C1104 H1161 0.962 . S
C1104 H1162 0.959 . S
C1104 H1163 0.958 . S
C1105 C1104 1.582 . S
C1105 O1108 1.458 . S
C1105 H1134 0.980 . S
O1106 C1051 1.426 . S
O1106 C1052 1.334 . S
O1107 C1079 1.412 . S
O1107 C1080 1.393 . S
O1108 C1070 1.435 . S
O1108 C1105 1.458 . S
O1109 C1061 1.468 . S
O1109 C1062 1.408 . S
H1110 C1051 0.980 . S
H1111 C1050 0.959 . S
H1112 C1050 0.959 . S
H1113 C1050 0.960 . S
H1114 C1053 0.929 . S
H1115 C1057 0.929 . S
H1116 C1058 0.959 . S
H1117 C1058 0.961 . S
H1118 C1058 0.961 . S
H1119 C1059 0.960 . S
H1120 C1059 0.960 . S
H1121 C1059 0.961 . S
H1122 C1061 0.980 . S
H1123 C1060 0.961 . S
H1124 C1060 0.960 . S
H1125 C1060 0.959 . S
H1126 C1063 0.930 . S
H1127 C1067 0.931 . S
H1128 C1068 0.959 . S
H1129 C1068 0.961 . S
H1130 C1068 0.959 . S
H1131 C1069 0.960 . S
H1132 C1069 0.960 . S
H1133 C1069 0.960 . S
H1134 C1105 0.980 . S
H1135 C1071 0.930 . S
H1136 C1075 0.930 . S
H1137 C1076 0.961 . S
H1138 C1076 0.960 . S
H1139 C1076 0.958 . S
H1140 C1077 0.961 . S
H1141 C1077 0.960 . S
H1142 C1077 0.960 . S
H1143 C1079 0.980 . S
H1144 C1078 0.961 . S
H1145 C1078 0.961 . S
H1146 C1078 0.959 . S
H1147 C1081 0.932 . S
H1148 C1085 0.929 . S
H1149 C1086 0.961 . S
H1150 C1086 0.959 . S
H1151 C1086 0.959 . S
H1152 C1087 0.960 . S
H1153 C1087 0.962 . S
H1154 C1087 0.961 . S
H1155 C1089 0.929 . S
H1156 C1092 0.930 . S
H1157 C1093 0.929 . S
H1158 C1096 0.930 . S
H1159 C1099 0.929 . S
H1160 C1100 0.930 . S
H1161 C1104 0.962 . S
H1162 C1104 0.959 . S
H1163 C1104 0.958 . S
C1164 C1165 1.560 . S
C1164 H1225 0.959 . S
C1164 H1226 0.959 . S
C1164 H1227 0.960 . S
C1165 C1164 1.560 . S
C1165 O1220 1.426 . S
C1165 H1224 0.980 . S
C1166 C1167 1.407 . S
C1166 C1171 1.418 . S
C1166 O1220 1.334 . S
C1167 C1166 1.407 . S
C1167 C1168 1.360 . S
C1167 H1228 0.929 . S
C1168 C1167 1.360 . S
C1168 C1169 1.401 . S
C1168 C1172 1.527 . S
C1169 C1168 1.401 . S
C1169 C1170 1.405 . S
C1169 C1202 1.587 . S
C1170 C1169 1.405 . S
C1170 C1171 1.332 . S
C1170 C1173 1.496 . S
C1171 C1166 1.418 . S
C1171 C1170 1.332 . S
C1171 H1229 0.929 . S
C1172 C1168 1.527 . S
C1172 H1230 0.959 . S
C1172 H1231 0.961 . S
C1172 H1232 0.961 . S
C1173 C1170 1.496 . S
C1173 H1233 0.960 . S
C1173 H1234 0.960 . S
C1173 H1235 0.961 . S
C1174 C1175 1.517 . S
C1174 H1237 0.961 . S
C1174 H1238 0.960 . S
C1174 H1239 0.959 . S
C1175 C1174 1.517 . S
C1175 O1223 1.468 . S
C1175 H1236 0.980 . S
C1176 C1177 1.349 . S
C1176 C1181 1.367 . S
C1176 O1223 1.408 . S
C1177 C1176 1.349 . S
C1177 C1178 1.407 . S
C1177 H1240 0.930 . S
C1178 C1177 1.407 . S
C1178 C1179 1.449 . S
C1178 C1182 1.535 . S
C1179 C1178 1.449 . S
C1179 C1180 1.384 . S
C1179 C1204 1.553 . S
C1180 C1179 1.384 . S
C1180 C1181 1.364 . S
C1180 C1183 1.450 . S
C1181 C1176 1.367 . S
C1181 C1180 1.364 . S
C1181 H1241 0.931 . S
C1182 C1178 1.535 . S
C1182 H1242 0.959 . S
C1182 H1243 0.961 . S
C1182 H1244 0.959 . S
C1183 C1180 1.450 . S
C1183 H1245 0.960 . S
C1183 H1246 0.960 . S
C1183 H1247 0.960 . S
C1184 C1185 1.309 . S
C1184 C1189 1.304 . S
C1184 O1222 1.435 . S
C1185 C1184 1.309 . S
C1185 C1186 1.476 . S
C1185 H1249 0.930 . S
C1186 C1185 1.476 . S
C1186 C1187 1.400 . S
C1186 C1190 1.567 . S
C1187 C1186 1.400 . S
C1187 C1188 1.373 . S
C1187 C1209 1.432 . S
C1188 C1187 1.373 . S
C1188 C1189 1.339 . S
C1188 C1191 1.530 . S
C1189 C1184 1.304 . S
C1189 C1188 1.339 . S
C1189 H1250 0.930 . S
C1190 C1186 1.567 . S
C1190 H1251 0.961 . S
C1190 H1252 0.960 . S
C1190 H1253 0.958 . S
C1191 C1188 1.530 . S
C1191 H1254 0.961 . S
C1191 H1255 0.960 . S
C1191 H1256 0.960 . S
C1192 C1193 1.530 . S
C1192 H1258 0.961 . S
C1192 H1259 0.961 . S
C1192 H1260 0.959 . S
C1193 C1192 1.530 . S
C1193 O1221 1.412 . S
C1193 H1257 0.980 . S
C1194 C1195 1.288 . S
C1194 C1199 1.377 . S
C1194 O1221 1.393 . S
C1195 C1194 1.288 . S
C1195 C1196 1.369 . S
C1195 H1261 0.932 . S
C1196 C1195 1.369 . S
C1196 C1197 1.398 . S
C1196 C1200 1.527 . S
C1197 C1196 1.398 . S
C1197 C1198 1.380 . S
C1197 C1211 1.497 . S
C1198 C1197 1.380 . S
C1198 C1199 1.383 . S
C1198 C1201 1.603 . S
C1199 C1194 1.377 . S
C1199 C1198 1.383 . S
C1199 H1262 0.929 . S
C1200 C1196 1.527 . S
C1200 H1263 0.961 . S
C1200 H1264 0.959 . S
C1200 H1265 0.959 . S
C1201 C1198 1.603 . S
C1201 H1266 0.960 . S
C1201 H1267 0.962 . S
C1201 H1268 0.961 . S
C1202 C1169 1.587 . S
C1202 C1203 1.360 . S
C1202 C1215 1.412 . S
C1203 C1202 1.360 . S
C1203 C1204 1.365 . S
C1203 H1269 0.929 . S
C1204 C1179 1.553 . S
C1204 C1203 1.365 . S
C1204 C1205 1.404 . S
C1205 C1204 1.404 . S
C1205 C1206 1.395 . S
C1205 C1216 1.451 . S
C1206 C1205 1.395 . S
C1206 C1207 1.322 . S
C1206 H1270 0.930 . S
C1207 C1206 1.322 . S
C1207 C1208 1.459 . S
C1207 H1271 0.929 . S
C1208 C1207 1.459 . S
C1208 C1209 1.445 . S
C1208 C1217 1.395 . S
C1209 C1187 1.432 . S
C1209 C1208 1.445 . S
C1209 C1210 1.370 . S
C1210 C1209 1.370 . S
C1210 C1211 1.438 . S
C1210 H1272 0.930 . S
C1211 C1197 1.497 . S
C1211 C1210 1.438 . S
C1211 C1212 1.360 . S
C1212 C1211 1.360 . S
C1212 C1213 1.401 . S
C1212 C1217 1.446 . S
C1213 C1212 1.401 . S
C1213 C1214 1.347 . S
C1213 H1273 0.929 . S
C1214 C1213 1.347 . S
C1214 C1215 1.455 . S
C1214 H1274 0.930 . S
C1215 C1202 1.412 . S
C1215 C1214 1.455 . S
C1215 C1216 1.331 . S
C1216 C1205 1.451 . S
C1216 C1215 1.331 . S
C1216 C1217 1.497 . S
C1217 C1208 1.395 . S
C1217 C1212 1.446 . S
C1217 C1216 1.497 . S
C1218 C1219 1.582 . S
C1218 H1275 0.962 . S
C1218 H1276 0.959 . S
C1218 H1277 0.958 . S
C1219 C1218 1.582 . S
C1219 O1222 1.458 . S
C1219 H1248 0.980 . S
O1220 C1165 1.426 . S
O1220 C1166 1.334 . S
O1221 C1193 1.412 . S
O1221 C1194 1.393 . S
O1222 C1184 1.435 . S
O1222 C1219 1.458 . S
O1223 C1175 1.468 . S
O1223 C1176 1.408 . S
H1224 C1165 0.980 . S
H1225 C1164 0.959 . S
H1226 C1164 0.959 . S
H1227 C1164 0.960 . S
H1228 C1167 0.929 . S
H1229 C1171 0.929 . S
H1230 C1172 0.959 . S
H1231 C1172 0.961 . S
H1232 C1172 0.961 . S
H1233 C1173 0.960 . S
H1234 C1173 0.960 . S
H1235 C1173 0.961 . S
H1236 C1175 0.980 . S
H1237 C1174 0.961 . S
H1238 C1174 0.960 . S
H1239 C1174 0.959 . S
H1240 C1177 0.930 . S
H1241 C1181 0.931 . S
H1242 C1182 0.959 . S
H1243 C1182 0.961 . S
H1244 C1182 0.959 . S
H1245 C1183 0.960 . S
H1246 C1183 0.960 . S
H1247 C1183 0.960 . S
H1248 C1219 0.980 . S
H1249 C1185 0.930 . S
H1250 C1189 0.930 . S
H1251 C1190 0.961 . S
H1252 C1190 0.960 . S
H1253 C1190 0.958 . S
H1254 C1191 0.961 . S
H1255 C1191 0.960 . S
H1256 C1191 0.960 . S
H1257 C1193 0.980 . S
H1258 C1192 0.961 . S
H1259 C1192 0.961 . S
H1260 C1192 0.959 . S
H1261 C1195 0.932 . S
H1262 C1199 0.929 . S
H1263 C1200 0.961 . S
H1264 C1200 0.959 . S
H1265 C1200 0.959 . S
H1266 C1201 0.960 . S
H1267 C1201 0.962 . S
H1268 C1201 0.961 . S
H1269 C1203 0.929 . S
H1270 C1206 0.930 . S
H1271 C1207 0.929 . S
H1272 C1210 0.930 . S
H1273 C1213 0.929 . S
H1274 C1214 0.930 . S
H1275 C1218 0.962 . S
H1276 C1218 0.959 . S
H1277 C1218 0.958 . S
C1278 C1279 1.560 . S
C1278 H1339 0.959 . S
C1278 H1340 0.959 . S
C1278 H1341 0.960 . S
C1279 C1278 1.560 . S
C1279 O1334 1.426 . S
C1279 H1338 0.980 . S
C1280 C1281 1.407 1_455 S
C1280 C1285 1.418 . S
C1280 O1334 1.334 . S
C1281 C1280 1.407 1_655 S
C1281 C1282 1.360 . S
C1281 H1342 0.929 . S
C1282 C1281 1.360 . S
C1282 C1283 1.401 1_655 S
C1282 C1286 1.527 . S
C1283 C1282 1.401 1_455 S
C1283 C1284 1.405 . S
C1283 C1316 1.587 1_455 S
C1284 C1283 1.405 . S
C1284 C1285 1.332 . S
C1284 C1287 1.496 . S
C1285 C1280 1.418 . S
C1285 C1284 1.332 . S
C1285 H1343 0.929 . S
C1286 C1282 1.527 . S
C1286 H1344 0.959 . S
C1286 H1345 0.961 . S
C1286 H1346 0.961 . S
C1287 C1284 1.496 . S
C1287 H1347 0.960 . S
C1287 H1348 0.960 . S
C1287 H1349 0.961 . S
C1288 C1289 1.517 . S
C1288 H1351 0.993 . S
C1288 H1352 0.960 . S
C1288 H1353 0.959 . S
C1289 C1288 1.517 . S
C1289 O1337 1.468 . S
C1289 H1350 0.980 1_655 S
C1290 C1291 1.349 . S
C1290 C1295 1.367 . S
C1290 O1337 1.408 . S
C1291 C1290 1.349 . S
C1291 C1292 1.376 1_655 S
C1291 H1354 0.930 1_655 S
C1292 C1291 1.376 1_455 S
C1292 C1293 1.421 1_455 S
C1292 C1296 1.590 . S
C1293 C1292 1.421 1_655 S
C1293 C1294 1.384 . S
C1293 C1318 1.553 . S
C1294 C1293 1.384 . S
C1294 C1295 1.364 . S
C1294 C1297 1.450 . S
C1295 C1290 1.367 . S
C1295 C1294 1.364 . S
C1295 H1355 0.931 . S
C1296 C1292 1.590 . S
C1296 H1356 0.959 . S
C1296 H1357 0.961 . S
C1296 H1358 0.959 . S
C1297 C1294 1.450 . S
C1297 H1359 0.960 . S
C1297 H1360 0.960 . S
C1297 H1361 0.960 . S
C1298 C1299 1.309 . S
C1298 C1303 1.304 . S
C1298 O1336 1.435 . S
C1299 C1298 1.309 . S
C1299 C1300 1.449 1_655 S
C1299 H1363 0.930 1_655 S
C1300 C1299 1.449 1_455 S
C1300 C1301 1.383 1_455 S
C1300 C1304 1.610 . S
C1301 C1300 1.383 1_655 S
C1301 C1302 1.373 . S
C1301 C1323 1.432 . S
C1302 C1301 1.373 . S
C1302 C1303 1.339 . S
C1302 C1305 1.530 . S
C1303 C1298 1.304 . S
C1303 C1302 1.339 . S
C1303 H1364 0.930 . S
C1304 C1300 1.610 . S
C1304 H1365 0.961 . S
C1304 H1366 0.960 . S
C1304 H1367 0.958 . S
C1305 C1302 1.530 . S
C1305 H1368 0.961 . S
C1305 H1369 0.960 . S
C1305 H1370 0.960 . S
C1306 C1307 1.532 1_455 S
C1306 H1372 0.961 . S
C1306 H1373 0.961 . S
C1306 H1374 0.959 . S
C1307 C1306 1.532 1_655 S
C1307 O1335 1.412 1_655 S
C1307 H1371 0.979 . S
C1308 C1309 1.288 . S
C1308 C1313 1.377 1_455 S
C1308 O1335 1.393 . S
C1309 C1308 1.288 . S
C1309 C1310 1.369 . S
C1309 H1375 0.932 . S
C1310 C1309 1.369 . S
C1310 C1311 1.398 1_455 S
C1310 C1314 1.527 . S
C1311 C1310 1.398 1_655 S
C1311 C1312 1.380 . S
C1311 C1325 1.497 . S
C1312 C1311 1.380 . S
C1312 C1313 1.383 . S
C1312 C1315 1.603 . S
C1313 C1308 1.377 1_655 S
C1313 C1312 1.383 . S
C1313 H1376 0.929 . S
C1314 C1310 1.527 . S
C1314 H1377 0.961 . S
C1314 H1378 0.959 . S
C1314 H1379 0.959 . S
C1315 C1312 1.603 . S
C1315 H1380 0.960 . S
C1315 H1381 0.962 . S
C1315 H1382 0.961 . S
C1316 C1283 1.587 1_655 S
C1316 C1317 1.360 . S
C1316 C1329 1.412 . S
C1317 C1316 1.360 . S
C1317 C1318 1.365 . S
C1317 H1383 0.929 . S
C1318 C1293 1.553 . S
C1318 C1317 1.365 . S
C1318 C1319 1.404 . S
C1319 C1318 1.404 . S
C1319 C1320 1.395 . S
C1319 C1330 1.451 . S
C1320 C1319 1.395 . S
C1320 C1321 1.322 . S
C1320 H1384 0.930 . S
C1321 C1320 1.322 . S
C1321 C1322 1.459 . S
C1321 H1385 0.929 . S
C1322 C1321 1.459 . S
C1322 C1323 1.445 . S
C1322 C1331 1.395 . S
C1323 C1301 1.432 . S
C1323 C1322 1.445 . S
C1323 C1324 1.370 . S
C1324 C1323 1.370 . S
C1324 C1325 1.438 . S
C1324 H1386 0.930 . S
C1325 C1311 1.497 . S
C1325 C1324 1.438 . S
C1325 C1326 1.360 . S
C1326 C1325 1.360 . S
C1326 C1327 1.401 . S
C1326 C1331 1.446 . S
C1327 C1326 1.401 . S
C1327 C1328 1.347 . S
C1327 H1387 0.929 . S
C1328 C1327 1.347 . S
C1328 C1329 1.455 . S
C1328 H1388 0.930 . S
C1329 C1316 1.412 . S
C1329 C1328 1.455 . S
C1329 C1330 1.331 . S
C1330 C1319 1.451 . S
C1330 C1329 1.331 . S
C1330 C1331 1.497 . S
C1331 C1322 1.395 . S
C1331 C1326 1.446 . S
C1331 C1330 1.497 . S
C1332 C1333 1.582 . S
C1332 H1389 0.962 . S
C1332 H1390 0.959 . S
C1332 H1391 0.958 . S
C1333 C1332 1.582 . S
C1333 O1336 1.458 . S
C1333 H1362 0.980 . S
O1334 C1279 1.426 . S
O1334 C1280 1.334 . S
O1335 C1307 1.412 1_455 S
O1335 C1308 1.393 . S
O1336 C1298 1.435 . S
O1336 C1333 1.458 . S
O1337 C1289 1.468 . S
O1337 C1290 1.408 . S
H1338 C1279 0.980 . S
H1339 C1278 0.959 . S
H1340 C1278 0.959 . S
H1341 C1278 0.960 . S
H1342 C1281 0.929 . S
H1343 C1285 0.929 . S
H1344 C1286 0.959 . S
H1345 C1286 0.961 . S
H1346 C1286 0.961 . S
H1347 C1287 0.960 . S
H1348 C1287 0.960 . S
H1349 C1287 0.961 . S
H1350 C1289 0.980 1_455 S
H1351 C1288 0.993 . S
H1352 C1288 0.960 . S
H1353 C1288 0.959 . S
H1354 C1291 0.930 1_455 S
H1355 C1295 0.931 . S
H1356 C1296 0.959 . S
H1357 C1296 0.961 . S
H1358 C1296 0.959 . S
H1359 C1297 0.960 . S
H1360 C1297 0.960 . S
H1361 C1297 0.960 . S
H1362 C1333 0.980 . S
H1363 C1299 0.930 1_455 S
H1364 C1303 0.930 . S
H1365 C1304 0.961 . S
H1366 C1304 0.960 . S
H1367 C1304 0.958 . S
H1368 C1305 0.961 . S
H1369 C1305 0.960 . S
H1370 C1305 0.960 . S
H1371 C1307 0.979 . S
H1372 C1306 0.961 . S
H1373 C1306 0.961 . S
H1374 C1306 0.959 . S
H1375 C1309 0.932 . S
H1376 C1313 0.929 . S
H1377 C1314 0.961 . S
H1378 C1314 0.959 . S
H1379 C1314 0.959 . S
H1380 C1315 0.960 . S
H1381 C1315 0.962 . S
H1382 C1315 0.961 . S
H1383 C1317 0.929 . S
H1384 C1320 0.930 . S
H1385 C1321 0.929 . S
H1386 C1324 0.930 . S
H1387 C1327 0.929 . S
H1388 C1328 0.930 . S
H1389 C1332 0.962 . S
H1390 C1332 0.959 . S
H1391 C1332 0.958 . S
C1392 C1393 1.560 . S
C1392 H1453 0.959 . S
C1392 H1454 0.959 . S
C1392 H1455 0.960 . S
C1393 C1392 1.560 . S
C1393 O1448 1.426 . S
C1393 H1452 0.980 . S
C1394 C1395 1.407 . S
C1394 C1399 1.418 . S
C1394 O1448 1.334 . S
C1395 C1394 1.407 . S
C1395 C1396 1.360 . S
C1395 H1456 0.929 . S
C1396 C1395 1.360 . S
C1396 C1397 1.401 . S
C1396 C1400 1.527 . S
C1397 C1396 1.401 . S
C1397 C1398 1.405 . S
C1397 C1430 1.587 . S
C1398 C1397 1.405 . S
C1398 C1399 1.332 . S
C1398 C1401 1.496 . S
C1399 C1394 1.418 . S
C1399 C1398 1.332 . S
C1399 H1457 0.929 . S
C1400 C1396 1.527 . S
C1400 H1458 0.959 . S
C1400 H1459 0.961 . S
C1400 H1460 0.961 . S
C1401 C1398 1.496 . S
C1401 H1461 0.960 . S
C1401 H1462 0.960 . S
C1401 H1463 0.961 . S
C1402 C1403 1.517 . S
C1402 H1465 0.961 . S
C1402 H1466 0.960 . S
C1402 H1467 0.959 . S
C1403 C1402 1.517 . S
C1403 O1451 1.468 . S
C1403 H1464 0.980 . S
C1404 C1405 1.349 . S
C1404 C1409 1.367 . S
C1404 O1451 1.408 . S
C1405 C1404 1.349 . S
C1405 C1406 1.407 . S
C1405 H1468 0.930 . S
C1406 C1405 1.407 . S
C1406 C1407 1.449 . S
C1406 C1410 1.535 . S
C1407 C1406 1.449 . S
C1407 C1408 1.384 . S
C1407 C1432 1.553 . S
C1408 C1407 1.384 . S
C1408 C1409 1.364 . S
C1408 C1411 1.450 . S
C1409 C1404 1.367 . S
C1409 C1408 1.364 . S
C1409 H1469 0.931 . S
C1410 C1406 1.535 . S
C1410 H1470 0.959 . S
C1410 H1471 0.961 . S
C1410 H1472 0.959 . S
C1411 C1408 1.450 . S
C1411 H1473 0.960 . S
C1411 H1474 0.960 . S
C1411 H1475 0.960 . S
C1412 C1413 1.309 . S
C1412 C1417 1.304 . S
C1412 O1450 1.435 . S
C1413 C1412 1.309 . S
C1413 C1414 1.476 . S
C1413 H1477 0.930 . S
C1414 C1413 1.476 . S
C1414 C1415 1.400 . S
C1414 C1418 1.567 . S
C1415 C1414 1.400 . S
C1415 C1416 1.373 . S
C1415 C1437 1.432 . S
C1416 C1415 1.373 . S
C1416 C1417 1.339 . S
C1416 C1419 1.530 . S
C1417 C1412 1.304 . S
C1417 C1416 1.339 . S
C1417 H1478 0.930 . S
C1418 C1414 1.567 . S
C1418 H1479 0.961 . S
C1418 H1480 0.960 . S
C1418 H1481 0.958 . S
C1419 C1416 1.530 . S
C1419 H1482 0.961 . S
C1419 H1483 0.960 . S
C1419 H1484 0.960 . S
C1420 C1421 1.530 . S
C1420 H1486 0.961 . S
C1420 H1487 0.961 . S
C1420 H1488 0.959 . S
C1421 C1420 1.530 . S
C1421 O1449 1.412 . S
C1421 H1485 0.980 . S
C1422 C1423 1.288 . S
C1422 C1427 1.377 . S
C1422 O1449 1.393 . S
C1423 C1422 1.288 . S
C1423 C1424 1.369 . S
C1423 H1489 0.932 . S
C1424 C1423 1.369 . S
C1424 C1425 1.398 . S
C1424 C1428 1.527 . S
C1425 C1424 1.398 . S
C1425 C1426 1.380 . S
C1425 C1439 1.497 . S
C1426 C1425 1.380 . S
C1426 C1427 1.383 . S
C1426 C1429 1.603 . S
C1427 C1422 1.377 . S
C1427 C1426 1.383 . S
C1427 H1490 0.929 . S
C1428 C1424 1.527 . S
C1428 H1491 0.961 . S
C1428 H1492 0.959 . S
C1428 H1493 0.959 . S
C1429 C1426 1.603 . S
C1429 H1494 0.960 . S
C1429 H1495 0.962 . S
C1429 H1496 0.961 . S
C1430 C1397 1.587 . S
C1430 C1431 1.360 . S
C1430 C1443 1.412 . S
C1431 C1430 1.360 . S
C1431 C1432 1.365 . S
C1431 H1497 0.929 . S
C1432 C1407 1.553 . S
C1432 C1431 1.365 . S
C1432 C1433 1.404 . S
C1433 C1432 1.404 . S
C1433 C1434 1.395 . S
C1433 C1444 1.451 . S
C1434 C1433 1.395 . S
C1434 C1435 1.322 . S
C1434 H1498 0.930 . S
C1435 C1434 1.322 . S
C1435 C1436 1.459 . S
C1435 H1499 0.929 . S
C1436 C1435 1.459 . S
C1436 C1437 1.445 . S
C1436 C1445 1.395 . S
C1437 C1415 1.432 . S
C1437 C1436 1.445 . S
C1437 C1438 1.370 . S
C1438 C1437 1.370 . S
C1438 C1439 1.438 . S
C1438 H1500 0.930 . S
C1439 C1425 1.497 . S
C1439 C1438 1.438 . S
C1439 C1440 1.360 . S
C1440 C1439 1.360 . S
C1440 C1441 1.401 . S
C1440 C1445 1.446 . S
C1441 C1440 1.401 . S
C1441 C1442 1.347 . S
C1441 H1501 0.929 . S
C1442 C1441 1.347 . S
C1442 C1443 1.455 . S
C1442 H1502 0.930 . S
C1443 C1430 1.412 . S
C1443 C1442 1.455 . S
C1443 C1444 1.331 . S
C1444 C1433 1.451 . S
C1444 C1443 1.331 . S
C1444 C1445 1.497 . S
C1445 C1436 1.395 . S
C1445 C1440 1.446 . S
C1445 C1444 1.497 . S
C1446 C1447 1.582 . S
C1446 H1503 0.962 . S
C1446 H1504 0.959 . S
C1446 H1505 0.958 . S
C1447 C1446 1.582 . S
C1447 O1450 1.458 . S
C1447 H1476 0.980 . S
O1448 C1393 1.426 . S
O1448 C1394 1.334 . S
O1449 C1421 1.412 . S
O1449 C1422 1.393 . S
O1450 C1412 1.435 . S
O1450 C1447 1.458 . S
O1451 C1403 1.468 . S
O1451 C1404 1.408 . S
H1452 C1393 0.980 . S
H1453 C1392 0.959 . S
H1454 C1392 0.959 . S
H1455 C1392 0.960 . S
H1456 C1395 0.929 . S
H1457 C1399 0.929 . S
H1458 C1400 0.959 . S
H1459 C1400 0.961 . S
H1460 C1400 0.961 . S
H1461 C1401 0.960 . S
H1462 C1401 0.960 . S
H1463 C1401 0.961 . S
H1464 C1403 0.980 . S
H1465 C1402 0.961 . S
H1466 C1402 0.960 . S
H1467 C1402 0.959 . S
H1468 C1405 0.930 . S
H1469 C1409 0.931 . S
H1470 C1410 0.959 . S
H1471 C1410 0.961 . S
H1472 C1410 0.959 . S
H1473 C1411 0.960 . S
H1474 C1411 0.960 . S
H1475 C1411 0.960 . S
H1476 C1447 0.980 . S
H1477 C1413 0.930 . S
H1478 C1417 0.930 . S
H1479 C1418 0.961 . S
H1480 C1418 0.960 . S
H1481 C1418 0.958 . S
H1482 C1419 0.961 . S
H1483 C1419 0.960 . S
H1484 C1419 0.960 . S
H1485 C1421 0.980 . S
H1486 C1420 0.961 . S
H1487 C1420 0.961 . S
H1488 C1420 0.959 . S
H1489 C1423 0.932 . S
H1490 C1427 0.929 . S
H1491 C1428 0.961 . S
H1492 C1428 0.959 . S
H1493 C1428 0.959 . S
H1494 C1429 0.960 . S
H1495 C1429 0.962 . S
H1496 C1429 0.961 . S
H1497 C1431 0.929 . S
H1498 C1434 0.930 . S
H1499 C1435 0.929 . S
H1500 C1438 0.930 . S
H1501 C1441 0.929 . S
H1502 C1442 0.930 . S
H1503 C1446 0.962 . S
H1504 C1446 0.959 . S
H1505 C1446 0.958 . S
C1506 C1507 1.560 . S
C1506 H1567 0.959 . S
C1506 H1568 0.959 . S
C1506 H1569 0.960 . S
C1507 C1506 1.560 . S
C1507 O1562 1.426 . S
C1507 H1566 0.980 . S
C1508 C1509 1.407 1_565 S
C1508 C1513 1.418 . S
C1508 O1562 1.334 . S
C1509 C1508 1.407 1_545 S
C1509 C1510 1.360 . S
C1509 H1570 0.929 . S
C1510 C1509 1.360 . S
C1510 C1511 1.401 1_545 S
C1510 C1514 1.527 . S
C1511 C1510 1.401 1_565 S
C1511 C1512 1.405 . S
C1511 C1544 1.587 1_565 S
C1512 C1511 1.405 . S
C1512 C1513 1.332 . S
C1512 C1515 1.496 . S
C1513 C1508 1.418 . S
C1513 C1512 1.332 . S
C1513 H1571 0.929 . S
C1514 C1510 1.527 . S
C1514 H1572 0.959 . S
C1514 H1573 0.961 . S
C1514 H1574 0.961 . S
C1515 C1512 1.496 . S
C1515 H1575 0.960 . S
C1515 H1576 0.960 . S
C1515 H1577 0.961 . S
C1516 C1517 1.517 . S
C1516 H1579 0.962 1_545 S
C1516 H1580 0.960 . S
C1516 H1581 0.959 . S
C1517 C1516 1.517 . S
C1517 O1565 1.468 . S
C1517 H1578 0.980 1_545 S
C1518 C1519 1.349 . S
C1518 C1523 1.367 . S
C1518 O1565 1.408 . S
C1519 C1518 1.349 . S
C1519 C1520 1.407 1_545 S
C1519 H1582 0.930 1_545 S
C1520 C1519 1.407 1_565 S
C1520 C1521 1.449 1_565 S
C1520 C1524 1.535 . S
C1521 C1520 1.449 1_545 S
C1521 C1522 1.384 . S
C1521 C1546 1.553 . S
C1522 C1521 1.384 . S
C1522 C1523 1.364 . S
C1522 C1525 1.450 . S
C1523 C1518 1.367 . S
C1523 C1522 1.364 . S
C1523 H1583 0.931 . S
C1524 C1520 1.535 . S
C1524 H1584 0.959 . S
C1524 H1585 0.961 . S
C1524 H1586 0.959 . S
C1525 C1522 1.450 . S
C1525 H1587 0.960 . S
C1525 H1588 0.960 . S
C1525 H1589 0.960 . S
C1526 C1527 1.309 . S
C1526 C1531 1.304 . S
C1526 O1564 1.435 . S
C1527 C1526 1.309 . S
C1527 C1528 1.497 1_545 S
C1527 H1591 0.930 1_545 S
C1528 C1527 1.497 1_565 S
C1528 C1529 1.333 1_565 S
C1528 C1532 1.614 . S
C1529 C1528 1.333 1_545 S
C1529 C1530 1.373 . S
C1529 C1551 1.432 . S
C1530 C1529 1.373 . S
C1530 C1531 1.339 . S
C1530 C1533 1.530 . S
C1531 C1526 1.304 . S
C1531 C1530 1.339 . S
C1531 H1592 0.930 . S
C1532 C1528 1.614 . S
C1532 H1593 0.961 . S
C1532 H1594 0.960 . S
C1532 H1595 0.958 . S
C1533 C1530 1.530 . S
C1533 H1596 0.961 . S
C1533 H1597 0.960 . S
C1533 H1598 0.960 . S
C1534 C1535 1.523 1_565 S
C1534 H1600 0.961 . S
C1534 H1601 0.961 . S
C1534 H1602 0.959 . S
C1535 C1534 1.523 1_545 S
C1535 O1563 1.355 1_545 S
C1535 H1599 1.010 . S
C1536 C1537 1.288 . S
C1536 C1541 1.377 1_565 S
C1536 O1563 1.393 . S
C1537 C1536 1.288 . S
C1537 C1538 1.369 . S
C1537 H1603 0.932 . S
C1538 C1537 1.369 . S
C1538 C1539 1.398 1_565 S
C1538 C1542 1.527 . S
C1539 C1538 1.398 1_545 S
C1539 C1540 1.380 . S
C1539 C1553 1.497 . S
C1540 C1539 1.380 . S
C1540 C1541 1.383 . S
C1540 C1543 1.603 . S
C1541 C1536 1.377 1_545 S
C1541 C1540 1.383 . S
C1541 H1604 0.929 . S
C1542 C1538 1.527 . S
C1542 H1605 0.961 . S
C1542 H1606 0.959 . S
C1542 H1607 0.959 . S
C1543 C1540 1.603 . S
C1543 H1608 0.960 . S
C1543 H1609 0.962 . S
C1543 H1610 0.961 . S
C1544 C1511 1.587 1_545 S
C1544 C1545 1.360 . S
C1544 C1557 1.412 . S
C1545 C1544 1.360 . S
C1545 C1546 1.365 . S
C1545 H1611 0.929 . S
C1546 C1521 1.553 . S
C1546 C1545 1.365 . S
C1546 C1547 1.404 . S
C1547 C1546 1.404 . S
C1547 C1548 1.395 . S
C1547 C1558 1.451 . S
C1548 C1547 1.395 . S
C1548 C1549 1.322 . S
C1548 H1612 0.930 . S
C1549 C1548 1.322 . S
C1549 C1550 1.459 . S
C1549 H1613 0.929 . S
C1550 C1549 1.459 . S
C1550 C1551 1.445 . S
C1550 C1559 1.395 . S
C1551 C1529 1.432 . S
C1551 C1550 1.445 . S
C1551 C1552 1.370 . S
C1552 C1551 1.370 . S
C1552 C1553 1.438 . S
C1552 H1614 0.930 . S
C1553 C1539 1.497 . S
C1553 C1552 1.438 . S
C1553 C1554 1.360 . S
C1554 C1553 1.360 . S
C1554 C1555 1.401 . S
C1554 C1559 1.446 . S
C1555 C1554 1.401 . S
C1555 C1556 1.347 . S
C1555 H1615 0.929 . S
C1556 C1555 1.347 . S
C1556 C1557 1.455 . S
C1556 H1616 0.930 . S
C1557 C1544 1.412 . S
C1557 C1556 1.455 . S
C1557 C1558 1.331 . S
C1558 C1547 1.451 . S
C1558 C1557 1.331 . S
C1558 C1559 1.497 . S
C1559 C1550 1.395 . S
C1559 C1554 1.446 . S
C1559 C1558 1.497 . S
C1560 C1561 1.582 . S
C1560 H1617 0.962 . S
C1560 H1618 0.959 . S
C1560 H1619 0.958 . S
C1561 C1560 1.582 . S
C1561 O1564 1.458 . S
C1561 H1590 0.980 . S
O1562 C1507 1.426 . S
O1562 C1508 1.334 . S
O1563 C1535 1.355 1_565 S
O1563 C1536 1.393 . S
O1564 C1526 1.435 . S
O1564 C1561 1.458 . S
O1565 C1517 1.468 . S
O1565 C1518 1.408 . S
H1566 C1507 0.980 . S
H1567 C1506 0.959 . S
H1568 C1506 0.959 . S
H1569 C1506 0.960 . S
H1570 C1509 0.929 . S
H1571 C1513 0.929 . S
H1572 C1514 0.959 . S
H1573 C1514 0.961 . S
H1574 C1514 0.961 . S
H1575 C1515 0.960 . S
H1576 C1515 0.960 . S
H1577 C1515 0.961 . S
H1578 C1517 0.980 1_565 S
H1579 C1516 0.962 1_565 S
H1580 C1516 0.960 . S
H1581 C1516 0.959 . S
H1582 C1519 0.930 1_565 S
H1583 C1523 0.931 . S
H1584 C1524 0.959 . S
H1585 C1524 0.961 . S
H1586 C1524 0.959 . S
H1587 C1525 0.960 . S
H1588 C1525 0.960 . S
H1589 C1525 0.960 . S
H1590 C1561 0.980 . S
H1591 C1527 0.930 1_565 S
H1592 C1531 0.930 . S
H1593 C1532 0.961 . S
H1594 C1532 0.960 . S
H1595 C1532 0.958 . S
H1596 C1533 0.961 . S
H1597 C1533 0.960 . S
H1598 C1533 0.960 . S
H1599 C1535 1.010 . S
H1600 C1534 0.961 . S
H1601 C1534 0.961 . S
H1602 C1534 0.959 . S
H1603 C1537 0.932 . S
H1604 C1541 0.929 . S
H1605 C1542 0.961 . S
H1606 C1542 0.959 . S
H1607 C1542 0.959 . S
H1608 C1543 0.960 . S
H1609 C1543 0.962 . S
H1610 C1543 0.961 . S
H1611 C1545 0.929 . S
H1612 C1548 0.930 . S
H1613 C1549 0.929 . S
H1614 C1552 0.930 . S
H1615 C1555 0.929 . S
H1616 C1556 0.930 . S
H1617 C1560 0.962 . S
H1618 C1560 0.959 . S
H1619 C1560 0.958 . S
C1620 C1621 1.560 . S
C1620 H1681 0.959 . S
C1620 H1682 0.959 . S
C1620 H1683 0.960 . S
C1621 C1620 1.560 . S
C1621 O1676 1.426 . S
C1621 H1680 0.980 1_565 S
C1622 C1623 1.407 1_565 S
C1622 C1627 1.418 . S
C1622 O1676 1.334 . S
C1623 C1622 1.407 1_545 S
C1623 C1624 1.360 . S
C1623 H1684 0.929 . S
C1624 C1623 1.360 . S
C1624 C1625 1.401 . S
C1624 C1628 1.527 . S
C1625 C1624 1.401 . S
C1625 C1626 1.405 1_545 S
C1625 C1658 1.587 . S
C1626 C1625 1.405 1_565 S
C1626 C1627 1.332 . S
C1626 C1629 1.496 . S
C1627 C1622 1.418 . S
C1627 C1626 1.332 . S
C1627 H1685 0.929 . S
C1628 C1624 1.527 . S
C1628 H1686 0.959 . S
C1628 H1687 0.961 . S
C1628 H1688 0.961 . S
C1629 C1626 1.496 . S
C1629 H1689 0.960 . S
C1629 H1690 0.960 . S
C1629 H1691 0.961 . S
C1630 C1631 1.517 . S
C1630 H1693 0.961 . S
C1630 H1694 0.960 . S
C1630 H1695 0.959 . S
C1631 C1630 1.517 . S
C1631 O1679 1.468 . S
C1631 H1692 0.980 . S
C1632 C1633 1.349 . S
C1632 C1637 1.367 . S
C1632 O1679 1.408 . S
C1633 C1632 1.349 . S
C1633 C1634 1.407 . S
C1633 H1696 0.911 1_545 S
C1634 C1633 1.407 . S
C1634 C1635 1.449 . S
C1634 C1638 1.535 1_545 S
C1635 C1634 1.449 . S
C1635 C1636 1.384 . S
C1635 C1660 1.553 . S
C1636 C1635 1.384 . S
C1636 C1637 1.364 . S
C1636 C1639 1.450 . S
C1637 C1632 1.367 . S
C1637 C1636 1.364 . S
C1637 H1697 0.931 . S
C1638 C1634 1.535 1_565 S
C1638 H1698 0.959 . S
C1638 H1699 0.961 . S
C1638 H1700 0.959 . S
C1639 C1636 1.450 . S
C1639 H1701 0.960 . S
C1639 H1702 0.960 . S
C1639 H1703 0.960 . S
C1640 C1641 1.309 1_545 S
C1640 C1645 1.304 . S
C1640 O1678 1.435 . S
C1641 C1640 1.309 1_565 S
C1641 C1642 1.476 . S
C1641 H1705 0.930 . S
C1642 C1641 1.476 . S
C1642 C1643 1.400 1_565 S
C1642 C1646 1.567 . S
C1643 C1642 1.400 1_545 S
C1643 C1644 1.373 . S
C1643 C1665 1.432 . S
C1644 C1643 1.373 . S
C1644 C1645 1.339 . S
C1644 C1647 1.530 . S
C1645 C1640 1.304 . S
C1645 C1644 1.339 . S
C1645 H1706 0.930 . S
C1646 C1642 1.567 . S
C1646 H1707 0.961 . S
C1646 H1708 0.960 . S
C1646 H1709 0.958 . S
C1647 C1644 1.530 . S
C1647 H1710 0.961 . S
C1647 H1711 0.960 . S
C1647 H1712 0.960 . S
C1648 C1649 1.530 . S
C1648 H1714 0.961 . S
C1648 H1715 0.961 . S
C1648 H1716 0.959 . S
C1649 C1648 1.530 . S
C1649 O1677 1.412 . S
C1649 H1713 0.980 . S
C1650 C1651 1.288 . S
C1650 C1655 1.377 1_565 S
C1650 O1677 1.393 . S
C1651 C1650 1.288 . S
C1651 C1652 1.369 . S
C1651 H1717 0.932 . S
C1652 C1651 1.369 . S
C1652 C1653 1.398 . S
C1652 C1656 1.527 . S
C1653 C1652 1.398 . S
C1653 C1654 1.380 1_565 S
C1653 C1667 1.497 1_565 S
C1654 C1653 1.380 1_545 S
C1654 C1655 1.383 . S
C1654 C1657 1.603 . S
C1655 C1650 1.377 1_545 S
C1655 C1654 1.383 . S
C1655 H1718 0.929 . S
C1656 C1652 1.527 . S
C1656 H1719 0.961 . S
C1656 H1720 0.959 . S
C1656 H1721 0.959 . S
C1657 C1654 1.603 . S
C1657 H1722 0.960 . S
C1657 H1723 0.962 . S
C1657 H1724 0.961 . S
C1658 C1625 1.587 . S
C1658 C1659 1.360 . S
C1658 C1671 1.412 . S
C1659 C1658 1.360 . S
C1659 C1660 1.365 . S
C1659 H1725 0.929 . S
C1660 C1635 1.553 . S
C1660 C1659 1.365 . S
C1660 C1661 1.404 . S
C1661 C1660 1.404 . S
C1661 C1662 1.395 . S
C1661 C1672 1.451 . S
C1662 C1661 1.395 . S
C1662 C1663 1.322 . S
C1662 H1726 0.930 . S
C1663 C1662 1.322 . S
C1663 C1664 1.459 . S
C1663 H1727 0.929 . S
C1664 C1663 1.459 . S
C1664 C1665 1.445 . S
C1664 C1673 1.395 . S
C1665 C1643 1.432 . S
C1665 C1664 1.445 . S
C1665 C1666 1.370 . S
C1666 C1665 1.370 . S
C1666 C1667 1.438 . S
C1666 H1728 0.930 . S
C1667 C1653 1.497 1_545 S
C1667 C1666 1.438 . S
C1667 C1668 1.360 . S
C1668 C1667 1.360 . S
C1668 C1669 1.401 . S
C1668 C1673 1.446 . S
C1669 C1668 1.401 . S
C1669 C1670 1.347 . S
C1669 H1729 0.929 . S
C1670 C1669 1.347 . S
C1670 C1671 1.455 . S
C1670 H1730 0.930 . S
C1671 C1658 1.412 . S
C1671 C1670 1.455 . S
C1671 C1672 1.331 . S
C1672 C1661 1.451 . S
C1672 C1671 1.331 . S
C1672 C1673 1.497 . S
C1673 C1664 1.395 . S
C1673 C1668 1.446 . S
C1673 C1672 1.497 . S
C1674 C1675 1.582 . S
C1674 H1731 0.962 . S
C1674 H1732 0.959 . S
C1674 H1733 0.958 . S
C1675 C1674 1.582 . S
C1675 O1678 1.458 . S
C1675 H1704 0.980 1_545 S
O1676 C1621 1.426 . S
O1676 C1622 1.334 . S
O1677 C1649 1.412 . S
O1677 C1650 1.393 . S
O1678 C1640 1.435 . S
O1678 C1675 1.458 . S
O1679 C1631 1.468 . S
O1679 C1632 1.408 . S
H1680 C1621 0.980 1_545 S
H1681 C1620 0.959 . S
H1682 C1620 0.959 . S
H1683 C1620 0.960 . S
H1684 C1623 0.929 . S
H1685 C1627 0.929 . S
H1686 C1628 0.959 . S
H1687 C1628 0.961 . S
H1688 C1628 0.961 . S
H1689 C1629 0.960 . S
H1690 C1629 0.960 . S
H1691 C1629 0.961 . S
H1692 C1631 0.980 . S
H1693 C1630 0.961 . S
H1694 C1630 0.960 . S
H1695 C1630 0.959 . S
H1696 C1633 0.911 1_565 S
H1697 C1637 0.931 . S
H1698 C1638 0.959 . S
H1699 C1638 0.961 . S
H1700 C1638 0.959 . S
H1701 C1639 0.960 . S
H1702 C1639 0.960 . S
H1703 C1639 0.960 . S
H1704 C1675 0.980 1_565 S
H1705 C1641 0.930 . S
H1706 C1645 0.930 . S
H1707 C1646 0.961 . S
H1708 C1646 0.960 . S
H1709 C1646 0.958 . S
H1710 C1647 0.961 . S
H1711 C1647 0.960 . S
H1712 C1647 0.960 . S
H1713 C1649 0.980 . S
H1714 C1648 0.961 . S
H1715 C1648 0.961 . S
H1716 C1648 0.959 . S
H1717 C1651 0.932 . S
H1718 C1655 0.929 . S
H1719 C1656 0.961 . S
H1720 C1656 0.959 . S
H1721 C1656 0.959 . S
H1722 C1657 0.960 . S
H1723 C1657 0.962 . S
H1724 C1657 0.961 . S
H1725 C1659 0.929 . S
H1726 C1662 0.930 . S
H1727 C1663 0.929 . S
H1728 C1666 0.930 . S
H1729 C1669 0.929 . S
H1730 C1670 0.930 . S
H1731 C1674 0.962 . S
H1732 C1674 0.959 . S
H1733 C1674 0.958 . S
C1734 C1735 1.560 . S
C1734 H1795 0.959 . S
C1734 H1796 0.959 . S
C1734 H1797 0.960 . S
C1735 C1734 1.560 . S
C1735 O1790 1.426 . S
C1735 H1794 0.980 1_455 S
C1736 C1737 1.407 1_455 S
C1736 C1741 1.418 . S
C1736 O1790 1.334 . S
C1737 C1736 1.407 1_655 S
C1737 C1738 1.360 . S
C1737 H1798 0.929 . S
C1738 C1737 1.360 . S
C1738 C1739 1.401 . S
C1738 C1742 1.527 . S
C1739 C1738 1.401 . S
C1739 C1740 1.405 1_655 S
C1739 C1772 1.587 . S
C1740 C1739 1.405 1_455 S
C1740 C1741 1.332 . S
C1740 C1743 1.496 . S
C1741 C1736 1.418 . S
C1741 C1740 1.332 . S
C1741 H1799 0.929 . S
C1742 C1738 1.527 . S
C1742 H1800 0.959 . S
C1742 H1801 0.961 . S
C1742 H1802 0.961 . S
C1743 C1740 1.496 . S
C1743 H1803 0.960 . S
C1743 H1804 0.960 . S
C1743 H1805 0.961 . S
C1744 C1745 1.517 . S
C1744 H1807 0.961 . S
C1744 H1808 0.960 . S
C1744 H1809 0.959 . S
C1745 C1744 1.517 . S
C1745 O1793 1.468 . S
C1745 H1806 0.980 . S
C1746 C1747 1.349 . S
C1746 C1751 1.367 . S
C1746 O1793 1.408 . S
C1747 C1746 1.349 . S
C1747 C1748 1.407 . S
C1747 H1810 0.884 1_655 S
C1748 C1747 1.407 . S
C1748 C1749 1.449 . S
C1748 C1752 1.535 1_655 S
C1749 C1748 1.449 . S
C1749 C1750 1.384 . S
C1749 C1774 1.553 . S
C1750 C1749 1.384 . S
C1750 C1751 1.364 . S
C1750 C1753 1.450 . S
C1751 C1746 1.367 . S
C1751 C1750 1.364 . S
C1751 H1811 0.931 . S
C1752 C1748 1.535 1_455 S
C1752 H1812 0.959 . S
C1752 H1813 0.961 . S
C1752 H1814 0.959 . S
C1753 C1750 1.450 . S
C1753 H1815 0.960 . S
C1753 H1816 0.960 . S
C1753 H1817 0.960 . S
C1754 C1755 1.309 1_655 S
C1754 C1759 1.304 . S
C1754 O1792 1.435 . S
C1755 C1754 1.309 1_455 S
C1755 C1756 1.476 . S
C1755 H1819 0.930 . S
C1756 C1755 1.476 . S
C1756 C1757 1.400 1_455 S
C1756 C1760 1.567 . S
C1757 C1756 1.400 1_655 S
C1757 C1758 1.373 . S
C1757 C1779 1.432 . S
C1758 C1757 1.373 . S
C1758 C1759 1.339 . S
C1758 C1761 1.530 . S
C1759 C1754 1.304 . S
C1759 C1758 1.339 . S
C1759 H1820 0.930 . S
C1760 C1756 1.567 . S
C1760 H1821 0.961 . S
C1760 H1822 0.960 . S
C1760 H1823 0.958 . S
C1761 C1758 1.530 . S
C1761 H1824 0.961 . S
C1761 H1825 0.960 . S
C1761 H1826 0.960 . S
C1762 C1763 1.530 . S
C1762 H1828 0.961 . S
C1762 H1829 0.961 . S
C1762 H1830 0.959 . S
C1763 C1762 1.530 . S
C1763 O1791 1.412 . S
C1763 H1827 0.978 1_455 S
C1764 C1765 1.288 . S
C1764 C1769 1.377 1_455 S
C1764 O1791 1.393 . S
C1765 C1764 1.288 . S
C1765 C1766 1.369 . S
C1765 H1831 0.932 . S
C1766 C1765 1.369 . S
C1766 C1767 1.398 . S
C1766 C1770 1.527 . S
C1767 C1766 1.398 . S
C1767 C1768 1.380 1_455 S
C1767 C1781 1.497 1_455 S
C1768 C1767 1.380 1_655 S
C1768 C1769 1.383 . S
C1768 C1771 1.603 . S
C1769 C1764 1.377 1_655 S
C1769 C1768 1.383 . S
C1769 H1832 0.929 . S
C1770 C1766 1.527 . S
C1770 H1833 0.961 . S
C1770 H1834 0.959 . S
C1770 H1835 0.959 . S
C1771 C1768 1.603 . S
C1771 H1836 0.960 . S
C1771 H1837 0.962 . S
C1771 H1838 0.961 . S
C1772 C1739 1.587 . S
C1772 C1773 1.360 . S
C1772 C1785 1.412 . S
C1773 C1772 1.360 . S
C1773 C1774 1.365 . S
C1773 H1839 0.929 . S
C1774 C1749 1.553 . S
C1774 C1773 1.365 . S
C1774 C1775 1.404 . S
C1775 C1774 1.404 . S
C1775 C1776 1.395 . S
C1775 C1786 1.451 . S
C1776 C1775 1.395 . S
C1776 C1777 1.322 . S
C1776 H1840 0.930 . S
C1777 C1776 1.322 . S
C1777 C1778 1.459 . S
C1777 H1841 0.929 . S
C1778 C1777 1.459 . S
C1778 C1779 1.445 . S
C1778 C1787 1.395 . S
C1779 C1757 1.432 . S
C1779 C1778 1.445 . S
C1779 C1780 1.370 . S
C1780 C1779 1.370 . S
C1780 C1781 1.438 . S
C1780 H1842 0.930 . S
C1781 C1767 1.497 1_655 S
C1781 C1780 1.438 . S
C1781 C1782 1.360 . S
C1782 C1781 1.360 . S
C1782 C1783 1.401 . S
C1782 C1787 1.446 . S
C1783 C1782 1.401 . S
C1783 C1784 1.347 . S
C1783 H1843 0.929 . S
C1784 C1783 1.347 . S
C1784 C1785 1.455 . S
C1784 H1844 0.930 . S
C1785 C1772 1.412 . S
C1785 C1784 1.455 . S
C1785 C1786 1.331 . S
C1786 C1775 1.451 . S
C1786 C1785 1.331 . S
C1786 C1787 1.497 . S
C1787 C1778 1.395 . S
C1787 C1782 1.446 . S
C1787 C1786 1.497 . S
C1788 C1789 1.582 . S
C1788 H1845 0.962 . S
C1788 H1846 0.959 . S
C1788 H1847 0.958 . S
C1789 C1788 1.582 . S
C1789 O1792 1.458 . S
C1789 H1818 0.980 1_655 S
O1790 C1735 1.426 . S
O1790 C1736 1.334 . S
O1791 C1763 1.412 . S
O1791 C1764 1.393 . S
O1792 C1754 1.435 . S
O1792 C1789 1.458 . S
O1793 C1745 1.468 . S
O1793 C1746 1.408 . S
H1794 C1735 0.980 1_655 S
H1795 C1734 0.959 . S
H1796 C1734 0.959 . S
H1797 C1734 0.960 . S
H1798 C1737 0.929 . S
H1799 C1741 0.929 . S
H1800 C1742 0.959 . S
H1801 C1742 0.961 . S
H1802 C1742 0.961 . S
H1803 C1743 0.960 . S
H1804 C1743 0.960 . S
H1805 C1743 0.961 . S
H1806 C1745 0.980 . S
H1807 C1744 0.961 . S
H1808 C1744 0.960 . S
H1809 C1744 0.959 . S
H1810 C1747 0.884 1_455 S
H1811 C1751 0.931 . S
H1812 C1752 0.959 . S
H1813 C1752 0.961 . S
H1814 C1752 0.959 . S
H1815 C1753 0.960 . S
H1816 C1753 0.960 . S
H1817 C1753 0.960 . S
H1818 C1789 0.980 1_455 S
H1819 C1755 0.930 . S
H1820 C1759 0.930 . S
H1821 C1760 0.961 . S
H1822 C1760 0.960 . S
H1823 C1760 0.958 . S
H1824 C1761 0.961 . S
H1825 C1761 0.960 . S
H1826 C1761 0.960 . S
H1827 C1763 0.978 1_655 S
H1828 C1762 0.961 . S
H1829 C1762 0.961 . S
H1830 C1762 0.959 . S
H1831 C1765 0.932 . S
H1832 C1769 0.929 . S
H1833 C1770 0.961 . S
H1834 C1770 0.959 . S
H1835 C1770 0.959 . S
H1836 C1771 0.960 . S
H1837 C1771 0.962 . S
H1838 C1771 0.961 . S
H1839 C1773 0.929 . S
H1840 C1776 0.930 . S
H1841 C1777 0.929 . S
H1842 C1780 0.930 . S
H1843 C1783 0.929 . S
H1844 C1784 0.930 . S
H1845 C1788 0.962 . S
H1846 C1788 0.959 . S
H1847 C1788 0.958 . S
C1848 C1849 1.560 . S
C1848 H1909 0.959 . S
C1848 H1910 0.959 . S
C1848 H1911 0.960 . S
C1849 C1848 1.560 . S
C1849 O1904 1.426 . S
C1849 H1908 0.980 . S
C1850 C1851 1.407 . S
C1850 C1855 1.418 . S
C1850 O1904 1.334 . S
C1851 C1850 1.407 . S
C1851 C1852 1.360 . S
C1851 H1912 0.929 . S
C1852 C1851 1.360 . S
C1852 C1853 1.401 . S
C1852 C1856 1.527 . S
C1853 C1852 1.401 . S
C1853 C1854 1.405 . S
C1853 C1886 1.587 . S
C1854 C1853 1.405 . S
C1854 C1855 1.332 . S
C1854 C1857 1.496 . S
C1855 C1850 1.418 . S
C1855 C1854 1.332 . S
C1855 H1913 0.929 . S
C1856 C1852 1.527 . S
C1856 H1914 0.959 . S
C1856 H1915 0.961 . S
C1856 H1916 0.961 . S
C1857 C1854 1.496 . S
C1857 H1917 0.960 . S
C1857 H1918 0.960 . S
C1857 H1919 0.961 . S
C1858 C1859 1.517 . S
C1858 H1921 0.961 . S
C1858 H1922 0.960 . S
C1858 H1923 0.959 . S
C1859 C1858 1.517 . S
C1859 O1907 1.468 . S
C1859 H1920 0.980 . S
C1860 C1861 1.349 . S
C1860 C1865 1.367 . S
C1860 O1907 1.408 . S
C1861 C1860 1.349 . S
C1861 C1862 1.407 . S
C1861 H1924 0.930 . S
C1862 C1861 1.407 . S
C1862 C1863 1.449 . S
C1862 C1866 1.535 . S
C1863 C1862 1.449 . S
C1863 C1864 1.384 . S
C1863 C1888 1.553 . S
C1864 C1863 1.384 . S
C1864 C1865 1.364 . S
C1864 C1867 1.450 . S
C1865 C1860 1.367 . S
C1865 C1864 1.364 . S
C1865 H1925 0.931 . S
C1866 C1862 1.535 . S
C1866 H1926 0.959 . S
C1866 H1927 0.961 . S
C1866 H1928 0.959 . S
C1867 C1864 1.450 . S
C1867 H1929 0.960 . S
C1867 H1930 0.960 . S
C1867 H1931 0.960 . S
C1868 C1869 1.309 . S
C1868 C1873 1.304 . S
C1868 O1906 1.435 . S
C1869 C1868 1.309 . S
C1869 C1870 1.476 . S
C1869 H1933 0.930 . S
C1870 C1869 1.476 . S
C1870 C1871 1.400 . S
C1870 C1874 1.567 . S
C1871 C1870 1.400 . S
C1871 C1872 1.373 . S
C1871 C1893 1.432 . S
C1872 C1871 1.373 . S
C1872 C1873 1.339 . S
C1872 C1875 1.530 . S
C1873 C1868 1.304 . S
C1873 C1872 1.339 . S
C1873 H1934 0.930 . S
C1874 C1870 1.567 . S
C1874 H1935 0.961 . S
C1874 H1936 0.960 . S
C1874 H1937 0.958 . S
C1875 C1872 1.530 . S
C1875 H1938 0.961 . S
C1875 H1939 0.960 . S
C1875 H1940 0.960 . S
C1876 C1877 1.530 . S
C1876 H1942 0.961 . S
C1876 H1943 0.961 . S
C1876 H1944 0.959 . S
C1877 C1876 1.530 . S
C1877 O1905 1.412 . S
C1877 H1941 0.980 . S
C1878 C1879 1.288 . S
C1878 C1883 1.377 . S
C1878 O1905 1.393 . S
C1879 C1878 1.288 . S
C1879 C1880 1.369 . S
C1879 H1945 0.932 . S
C1880 C1879 1.369 . S
C1880 C1881 1.398 . S
C1880 C1884 1.527 . S
C1881 C1880 1.398 . S
C1881 C1882 1.380 . S
C1881 C1895 1.497 . S
C1882 C1881 1.380 . S
C1882 C1883 1.383 . S
C1882 C1885 1.603 . S
C1883 C1878 1.377 . S
C1883 C1882 1.383 . S
C1883 H1946 0.929 . S
C1884 C1880 1.527 . S
C1884 H1947 0.961 . S
C1884 H1948 0.959 . S
C1884 H1949 0.959 . S
C1885 C1882 1.603 . S
C1885 H1950 0.960 . S
C1885 H1951 0.962 . S
C1885 H1952 0.961 . S
C1886 C1853 1.587 . S
C1886 C1887 1.360 . S
C1886 C1899 1.412 . S
C1887 C1886 1.360 . S
C1887 C1888 1.365 . S
C1887 H1953 0.929 . S
C1888 C1863 1.553 . S
C1888 C1887 1.365 . S
C1888 C1889 1.404 . S
C1889 C1888 1.404 . S
C1889 C1890 1.395 . S
C1889 C1900 1.451 . S
C1890 C1889 1.395 . S
C1890 C1891 1.322 . S
C1890 H1954 0.930 . S
C1891 C1890 1.322 . S
C1891 C1892 1.459 . S
C1891 H1955 0.929 . S
C1892 C1891 1.459 . S
C1892 C1893 1.445 . S
C1892 C1901 1.395 . S
C1893 C1871 1.432 . S
C1893 C1892 1.445 . S
C1893 C1894 1.370 . S
C1894 C1893 1.370 . S
C1894 C1895 1.438 . S
C1894 H1956 0.930 . S
C1895 C1881 1.497 . S
C1895 C1894 1.438 . S
C1895 C1896 1.360 . S
C1896 C1895 1.360 . S
C1896 C1897 1.401 . S
C1896 C1901 1.446 . S
C1897 C1896 1.401 . S
C1897 C1898 1.347 . S
C1897 H1957 0.929 . S
C1898 C1897 1.347 . S
C1898 C1899 1.455 . S
C1898 H1958 0.930 . S
C1899 C1886 1.412 . S
C1899 C1898 1.455 . S
C1899 C1900 1.331 . S
C1900 C1889 1.451 . S
C1900 C1899 1.331 . S
C1900 C1901 1.497 . S
C1901 C1892 1.395 . S
C1901 C1896 1.446 . S
C1901 C1900 1.497 . S
C1902 C1903 1.582 . S
C1902 H1959 0.962 . S
C1902 H1960 0.959 . S
C1902 H1961 0.958 . S
C1903 C1902 1.582 . S
C1903 O1906 1.458 . S
C1903 H1932 0.980 . S
O1904 C1849 1.426 . S
O1904 C1850 1.334 . S
O1905 C1877 1.412 . S
O1905 C1878 1.393 . S
O1906 C1868 1.435 . S
O1906 C1903 1.458 . S
O1907 C1859 1.468 . S
O1907 C1860 1.408 . S
H1908 C1849 0.980 . S
H1909 C1848 0.959 . S
H1910 C1848 0.959 . S
H1911 C1848 0.960 . S
H1912 C1851 0.929 . S
H1913 C1855 0.929 . S
H1914 C1856 0.959 . S
H1915 C1856 0.961 . S
H1916 C1856 0.961 . S
H1917 C1857 0.960 . S
H1918 C1857 0.960 . S
H1919 C1857 0.961 . S
H1920 C1859 0.980 . S
H1921 C1858 0.961 . S
H1922 C1858 0.960 . S
H1923 C1858 0.959 . S
H1924 C1861 0.930 . S
H1925 C1865 0.931 . S
H1926 C1866 0.959 . S
H1927 C1866 0.961 . S
H1928 C1866 0.959 . S
H1929 C1867 0.960 . S
H1930 C1867 0.960 . S
H1931 C1867 0.960 . S
H1932 C1903 0.980 . S
H1933 C1869 0.930 . S
H1934 C1873 0.930 . S
H1935 C1874 0.961 . S
H1936 C1874 0.960 . S
H1937 C1874 0.958 . S
H1938 C1875 0.961 . S
H1939 C1875 0.960 . S
H1940 C1875 0.960 . S
H1941 C1877 0.980 . S
H1942 C1876 0.961 . S
H1943 C1876 0.961 . S
H1944 C1876 0.959 . S
H1945 C1879 0.932 . S
H1946 C1883 0.929 . S
H1947 C1884 0.961 . S
H1948 C1884 0.959 . S
H1949 C1884 0.959 . S
H1950 C1885 0.960 . S
H1951 C1885 0.962 . S
H1952 C1885 0.961 . S
H1953 C1887 0.929 . S
H1954 C1890 0.930 . S
H1955 C1891 0.929 . S
H1956 C1894 0.930 . S
H1957 C1897 0.929 . S
H1958 C1898 0.930 . S
H1959 C1902 0.962 . S
H1960 C1902 0.959 . S
H1961 C1902 0.958 . S
C1962 C1963 1.560 . S
C1962 H2023 0.959 . S
C1962 H2024 0.959 . S
C1962 H2025 0.960 . S
C1963 C1962 1.560 . S
C1963 O2018 1.426 . S
C1963 H2022 0.980 . S
C1964 C1965 1.407 . S
C1964 C1969 1.418 . S
C1964 O2018 1.334 . S
C1965 C1964 1.407 . S
C1965 C1966 1.360 . S
C1965 H2026 0.929 . S
C1966 C1965 1.360 . S
C1966 C1967 1.401 . S
C1966 C1970 1.527 . S
C1967 C1966 1.401 . S
C1967 C1968 1.405 . S
C1967 C2000 1.587 . S
C1968 C1967 1.405 . S
C1968 C1969 1.332 . S
C1968 C1971 1.496 . S
C1969 C1964 1.418 . S
C1969 C1968 1.332 . S
C1969 H2027 0.929 . S
C1970 C1966 1.527 . S
C1970 H2028 0.959 . S
C1970 H2029 0.961 . S
C1970 H2030 0.961 . S
C1971 C1968 1.496 . S
C1971 H2031 0.960 . S
C1971 H2032 0.960 . S
C1971 H2033 0.961 . S
C1972 C1973 1.517 . S
C1972 H2035 0.961 . S
C1972 H2036 0.960 . S
C1972 H2037 0.959 . S
C1973 C1972 1.517 . S
C1973 O2021 1.468 . S
C1973 H2034 0.980 . S
C1974 C1975 1.349 . S
C1974 C1979 1.367 . S
C1974 O2021 1.408 . S
C1975 C1974 1.349 . S
C1975 C1976 1.407 . S
C1975 H2038 0.930 . S
C1976 C1975 1.407 . S
C1976 C1977 1.449 . S
C1976 C1980 1.535 . S
C1977 C1976 1.449 . S
C1977 C1978 1.384 . S
C1977 C2002 1.553 . S
C1978 C1977 1.384 . S
C1978 C1979 1.364 . S
C1978 C1981 1.450 . S
C1979 C1974 1.367 . S
C1979 C1978 1.364 . S
C1979 H2039 0.931 . S
C1980 C1976 1.535 . S
C1980 H2040 0.959 . S
C1980 H2041 0.961 . S
C1980 H2042 0.959 . S
C1981 C1978 1.450 . S
C1981 H2043 0.960 . S
C1981 H2044 0.960 . S
C1981 H2045 0.960 . S
C1982 C1983 1.309 . S
C1982 C1987 1.304 . S
C1982 O2020 1.435 . S
C1983 C1982 1.309 . S
C1983 C1984 1.476 . S
C1983 H2047 0.930 . S
C1984 C1983 1.476 . S
C1984 C1985 1.400 . S
C1984 C1988 1.567 . S
C1985 C1984 1.400 . S
C1985 C1986 1.373 . S
C1985 C2007 1.432 . S
C1986 C1985 1.373 . S
C1986 C1987 1.339 . S
C1986 C1989 1.530 . S
C1987 C1982 1.304 . S
C1987 C1986 1.339 . S
C1987 H2048 0.930 . S
C1988 C1984 1.567 . S
C1988 H2049 0.961 . S
C1988 H2050 0.960 . S
C1988 H2051 0.958 . S
C1989 C1986 1.530 . S
C1989 H2052 0.961 . S
C1989 H2053 0.960 . S
C1989 H2054 0.960 . S
C1990 C1991 1.530 . S
C1990 H2056 0.961 . S
C1990 H2057 0.961 . S
C1990 H2058 0.959 . S
C1991 C1990 1.530 . S
C1991 O2019 1.412 . S
C1991 H2055 0.980 . S
C1992 C1993 1.288 . S
C1992 C1997 1.377 . S
C1992 O2019 1.393 . S
C1993 C1992 1.288 . S
C1993 C1994 1.369 . S
C1993 H2059 0.932 . S
C1994 C1993 1.369 . S
C1994 C1995 1.398 . S
C1994 C1998 1.527 . S
C1995 C1994 1.398 . S
C1995 C1996 1.380 . S
C1995 C2009 1.497 . S
C1996 C1995 1.380 . S
C1996 C1997 1.383 . S
C1996 C1999 1.603 . S
C1997 C1992 1.377 . S
C1997 C1996 1.383 . S
C1997 H2060 0.929 . S
C1998 C1994 1.527 . S
C1998 H2061 0.961 . S
C1998 H2062 0.959 . S
C1998 H2063 0.959 . S
C1999 C1996 1.603 . S
C1999 H2064 0.960 . S
C1999 H2065 0.962 . S
C1999 H2066 0.961 . S
C2000 C1967 1.587 . S
C2000 C2001 1.360 . S
C2000 C2013 1.412 . S
C2001 C2000 1.360 . S
C2001 C2002 1.365 . S
C2001 H2067 0.929 . S
C2002 C1977 1.553 . S
C2002 C2001 1.365 . S
C2002 C2003 1.404 . S
C2003 C2002 1.404 . S
C2003 C2004 1.395 . S
C2003 C2014 1.451 . S
C2004 C2003 1.395 . S
C2004 C2005 1.322 . S
C2004 H2068 0.930 . S
C2005 C2004 1.322 . S
C2005 C2006 1.459 . S
C2005 H2069 0.929 . S
C2006 C2005 1.459 . S
C2006 C2007 1.445 . S
C2006 C2015 1.395 . S
C2007 C1985 1.432 . S
C2007 C2006 1.445 . S
C2007 C2008 1.370 . S
C2008 C2007 1.370 . S
C2008 C2009 1.438 . S
C2008 H2070 0.930 . S
C2009 C1995 1.497 . S
C2009 C2008 1.438 . S
C2009 C2010 1.360 . S
C2010 C2009 1.360 . S
C2010 C2011 1.401 . S
C2010 C2015 1.446 . S
C2011 C2010 1.401 . S
C2011 C2012 1.347 . S
C2011 H2071 0.929 . S
C2012 C2011 1.347 . S
C2012 C2013 1.455 . S
C2012 H2072 0.930 . S
C2013 C2000 1.412 . S
C2013 C2012 1.455 . S
C2013 C2014 1.331 . S
C2014 C2003 1.451 . S
C2014 C2013 1.331 . S
C2014 C2015 1.497 . S
C2015 C2006 1.395 . S
C2015 C2010 1.446 . S
C2015 C2014 1.497 . S
C2016 C2017 1.582 . S
C2016 H2073 0.962 . S
C2016 H2074 0.959 . S
C2016 H2075 0.958 . S
C2017 C2016 1.582 . S
C2017 O2020 1.458 . S
C2017 H2046 0.980 . S
O2018 C1963 1.426 . S
O2018 C1964 1.334 . S
O2019 C1991 1.412 . S
O2019 C1992 1.393 . S
O2020 C1982 1.435 . S
O2020 C2017 1.458 . S
O2021 C1973 1.468 . S
O2021 C1974 1.408 . S
H2022 C1963 0.980 . S
H2023 C1962 0.959 . S
H2024 C1962 0.959 . S
H2025 C1962 0.960 . S
H2026 C1965 0.929 . S
H2027 C1969 0.929 . S
H2028 C1970 0.959 . S
H2029 C1970 0.961 . S
H2030 C1970 0.961 . S
H2031 C1971 0.960 . S
H2032 C1971 0.960 . S
H2033 C1971 0.961 . S
H2034 C1973 0.980 . S
H2035 C1972 0.961 . S
H2036 C1972 0.960 . S
H2037 C1972 0.959 . S
H2038 C1975 0.930 . S
H2039 C1979 0.931 . S
H2040 C1980 0.959 . S
H2041 C1980 0.961 . S
H2042 C1980 0.959 . S
H2043 C1981 0.960 . S
H2044 C1981 0.960 . S
H2045 C1981 0.960 . S
H2046 C2017 0.980 . S
H2047 C1983 0.930 . S
H2048 C1987 0.930 . S
H2049 C1988 0.961 . S
H2050 C1988 0.960 . S
H2051 C1988 0.958 . S
H2052 C1989 0.961 . S
H2053 C1989 0.960 . S
H2054 C1989 0.960 . S
H2055 C1991 0.980 . S
H2056 C1990 0.961 . S
H2057 C1990 0.961 . S
H2058 C1990 0.959 . S
H2059 C1993 0.932 . S
H2060 C1997 0.929 . S
H2061 C1998 0.961 . S
H2062 C1998 0.959 . S
H2063 C1998 0.959 . S
H2064 C1999 0.960 . S
H2065 C1999 0.962 . S
H2066 C1999 0.961 . S
H2067 C2001 0.929 . S
H2068 C2004 0.930 . S
H2069 C2005 0.929 . S
H2070 C2008 0.930 . S
H2071 C2011 0.929 . S
H2072 C2012 0.930 . S
H2073 C2016 0.962 . S
H2074 C2016 0.959 . S
H2075 C2016 0.958 . S
C2076 C2077 1.560 . S
C2076 H2137 0.959 . S
C2076 H2138 0.959 . S
C2076 H2139 0.960 . S
C2077 C2076 1.560 . S
C2077 O2132 1.426 . S
C2077 H2136 0.980 . S
C2078 C2079 1.407 . S
C2078 C2083 1.418 . S
C2078 O2132 1.334 . S
C2079 C2078 1.407 . S
C2079 C2080 1.360 . S
C2079 H2140 0.929 . S
C2080 C2079 1.360 . S
C2080 C2081 1.401 . S
C2080 C2084 1.527 . S
C2081 C2080 1.401 . S
C2081 C2082 1.405 . S
C2081 C2114 1.587 . S
C2082 C2081 1.405 . S
C2082 C2083 1.332 . S
C2082 C2085 1.496 . S
C2083 C2078 1.418 . S
C2083 C2082 1.332 . S
C2083 H2141 0.929 . S
C2084 C2080 1.527 . S
C2084 H2142 0.959 . S
C2084 H2143 0.961 . S
C2084 H2144 0.961 . S
C2085 C2082 1.496 . S
C2085 H2145 0.960 . S
C2085 H2146 0.960 . S
C2085 H2147 0.961 . S
C2086 C2087 1.517 . S
C2086 H2149 0.961 . S
C2086 H2150 0.960 . S
C2086 H2151 0.959 . S
C2087 C2086 1.517 . S
C2087 O2135 1.468 . S
C2087 H2148 0.980 . S
C2088 C2089 1.349 . S
C2088 C2093 1.367 . S
C2088 O2135 1.408 . S
C2089 C2088 1.349 . S
C2089 C2090 1.407 . S
C2089 H2152 0.930 . S
C2090 C2089 1.407 . S
C2090 C2091 1.449 . S
C2090 C2094 1.535 . S
C2091 C2090 1.449 . S
C2091 C2092 1.384 . S
C2091 C2116 1.553 . S
C2092 C2091 1.384 . S
C2092 C2093 1.364 . S
C2092 C2095 1.450 . S
C2093 C2088 1.367 . S
C2093 C2092 1.364 . S
C2093 H2153 0.931 . S
C2094 C2090 1.535 . S
C2094 H2154 0.959 . S
C2094 H2155 0.961 . S
C2094 H2156 0.959 . S
C2095 C2092 1.450 . S
C2095 H2157 0.960 . S
C2095 H2158 0.960 . S
C2095 H2159 0.960 . S
C2096 C2097 1.309 . S
C2096 C2101 1.304 . S
C2096 O2134 1.435 . S
C2097 C2096 1.309 . S
C2097 C2098 1.476 . S
C2097 H2161 0.930 . S
C2098 C2097 1.476 . S
C2098 C2099 1.400 . S
C2098 C2102 1.567 . S
C2099 C2098 1.400 . S
C2099 C2100 1.373 . S
C2099 C2121 1.432 . S
C2100 C2099 1.373 . S
C2100 C2101 1.339 . S
C2100 C2103 1.530 . S
C2101 C2096 1.304 . S
C2101 C2100 1.339 . S
C2101 H2162 0.930 . S
C2102 C2098 1.567 . S
C2102 H2163 0.961 . S
C2102 H2164 0.960 . S
C2102 H2165 0.958 . S
C2103 C2100 1.530 . S
C2103 H2166 0.961 . S
C2103 H2167 0.960 . S
C2103 H2168 0.960 . S
C2104 C2105 1.530 . S
C2104 H2170 0.961 . S
C2104 H2171 0.961 . S
C2104 H2172 0.959 . S
C2105 C2104 1.530 . S
C2105 O2133 1.412 . S
C2105 H2169 0.980 . S
C2106 C2107 1.288 . S
C2106 C2111 1.377 . S
C2106 O2133 1.393 . S
C2107 C2106 1.288 . S
C2107 C2108 1.369 . S
C2107 H2173 0.932 . S
C2108 C2107 1.369 . S
C2108 C2109 1.398 . S
C2108 C2112 1.527 . S
C2109 C2108 1.398 . S
C2109 C2110 1.380 . S
C2109 C2123 1.497 . S
C2110 C2109 1.380 . S
C2110 C2111 1.383 . S
C2110 C2113 1.603 . S
C2111 C2106 1.377 . S
C2111 C2110 1.383 . S
C2111 H2174 0.929 . S
C2112 C2108 1.527 . S
C2112 H2175 0.961 . S
C2112 H2176 0.959 . S
C2112 H2177 0.959 . S
C2113 C2110 1.603 . S
C2113 H2178 0.960 . S
C2113 H2179 0.962 . S
C2113 H2180 0.961 . S
C2114 C2081 1.587 . S
C2114 C2115 1.360 . S
C2114 C2127 1.412 . S
C2115 C2114 1.360 . S
C2115 C2116 1.365 . S
C2115 H2181 0.929 . S
C2116 C2091 1.553 . S
C2116 C2115 1.365 . S
C2116 C2117 1.404 . S
C2117 C2116 1.404 . S
C2117 C2118 1.395 . S
C2117 C2128 1.451 . S
C2118 C2117 1.395 . S
C2118 C2119 1.322 . S
C2118 H2182 0.930 . S
C2119 C2118 1.322 . S
C2119 C2120 1.459 . S
C2119 H2183 0.929 . S
C2120 C2119 1.459 . S
C2120 C2121 1.445 . S
C2120 C2129 1.395 . S
C2121 C2099 1.432 . S
C2121 C2120 1.445 . S
C2121 C2122 1.370 . S
C2122 C2121 1.370 . S
C2122 C2123 1.438 . S
C2122 H2184 0.930 . S
C2123 C2109 1.497 . S
C2123 C2122 1.438 . S
C2123 C2124 1.360 . S
C2124 C2123 1.360 . S
C2124 C2125 1.401 . S
C2124 C2129 1.446 . S
C2125 C2124 1.401 . S
C2125 C2126 1.347 . S
C2125 H2185 0.929 . S
C2126 C2125 1.347 . S
C2126 C2127 1.455 . S
C2126 H2186 0.930 . S
C2127 C2114 1.412 . S
C2127 C2126 1.455 . S
C2127 C2128 1.331 . S
C2128 C2117 1.451 . S
C2128 C2127 1.331 . S
C2128 C2129 1.497 . S
C2129 C2120 1.395 . S
C2129 C2124 1.446 . S
C2129 C2128 1.497 . S
C2130 C2131 1.582 . S
C2130 H2187 0.962 . S
C2130 H2188 0.959 . S
C2130 H2189 0.958 . S
C2131 C2130 1.582 . S
C2131 O2134 1.458 . S
C2131 H2160 0.980 . S
O2132 C2077 1.426 . S
O2132 C2078 1.334 . S
O2133 C2105 1.412 . S
O2133 C2106 1.393 . S
O2134 C2096 1.435 . S
O2134 C2131 1.458 . S
O2135 C2087 1.468 . S
O2135 C2088 1.408 . S
H2136 C2077 0.980 . S
H2137 C2076 0.959 . S
H2138 C2076 0.959 . S
H2139 C2076 0.960 . S
H2140 C2079 0.929 . S
H2141 C2083 0.929 . S
H2142 C2084 0.959 . S
H2143 C2084 0.961 . S
H2144 C2084 0.961 . S
H2145 C2085 0.960 . S
H2146 C2085 0.960 . S
H2147 C2085 0.961 . S
H2148 C2087 0.980 . S
H2149 C2086 0.961 . S
H2150 C2086 0.960 . S
H2151 C2086 0.959 . S
H2152 C2089 0.930 . S
H2153 C2093 0.931 . S
H2154 C2094 0.959 . S
H2155 C2094 0.961 . S
H2156 C2094 0.959 . S
H2157 C2095 0.960 . S
H2158 C2095 0.960 . S
H2159 C2095 0.960 . S
H2160 C2131 0.980 . S
H2161 C2097 0.930 . S
H2162 C2101 0.930 . S
H2163 C2102 0.961 . S
H2164 C2102 0.960 . S
H2165 C2102 0.958 . S
H2166 C2103 0.961 . S
H2167 C2103 0.960 . S
H2168 C2103 0.960 . S
H2169 C2105 0.980 . S
H2170 C2104 0.961 . S
H2171 C2104 0.961 . S
H2172 C2104 0.959 . S
H2173 C2107 0.932 . S
H2174 C2111 0.929 . S
H2175 C2112 0.961 . S
H2176 C2112 0.959 . S
H2177 C2112 0.959 . S
H2178 C2113 0.960 . S
H2179 C2113 0.962 . S
H2180 C2113 0.961 . S
H2181 C2115 0.929 . S
H2182 C2118 0.930 . S
H2183 C2119 0.929 . S
H2184 C2122 0.930 . S
H2185 C2125 0.929 . S
H2186 C2126 0.930 . S
H2187 C2130 0.962 . S
H2188 C2130 0.959 . S
H2189 C2130 0.958 . S
C2190 C2191 1.560 . S
C2190 H2251 0.959 . S
C2190 H2252 0.959 . S
C2190 H2253 0.960 . S
C2191 C2190 1.560 . S
C2191 O2246 1.426 . S
C2191 H2250 0.980 . S
C2192 C2193 1.407 . S
C2192 C2197 1.418 . S
C2192 O2246 1.334 . S
C2193 C2192 1.407 . S
C2193 C2194 1.360 . S
C2193 H2254 0.929 . S
C2194 C2193 1.360 . S
C2194 C2195 1.401 . S
C2194 C2198 1.527 . S
C2195 C2194 1.401 . S
C2195 C2196 1.405 . S
C2195 C2228 1.587 . S
C2196 C2195 1.405 . S
C2196 C2197 1.332 . S
C2196 C2199 1.496 . S
C2197 C2192 1.418 . S
C2197 C2196 1.332 . S
C2197 H2255 0.929 . S
C2198 C2194 1.527 . S
C2198 H2256 0.959 . S
C2198 H2257 0.961 . S
C2198 H2258 0.961 . S
C2199 C2196 1.496 . S
C2199 H2259 0.960 . S
C2199 H2260 0.960 . S
C2199 H2261 0.961 . S
C2200 C2201 1.517 . S
C2200 H2263 0.961 . S
C2200 H2264 0.960 . S
C2200 H2265 0.959 . S
C2201 C2200 1.517 . S
C2201 O2249 1.468 . S
C2201 H2262 0.980 . S
C2202 C2203 1.349 . S
C2202 C2207 1.367 . S
C2202 O2249 1.408 . S
C2203 C2202 1.349 . S
C2203 C2204 1.407 . S
C2203 H2266 0.930 . S
C2204 C2203 1.407 . S
C2204 C2205 1.449 . S
C2204 C2208 1.535 . S
C2205 C2204 1.449 . S
C2205 C2206 1.384 . S
C2205 C2230 1.553 . S
C2206 C2205 1.384 . S
C2206 C2207 1.364 . S
C2206 C2209 1.450 . S
C2207 C2202 1.367 . S
C2207 C2206 1.364 . S
C2207 H2267 0.931 . S
C2208 C2204 1.535 . S
C2208 H2268 0.959 . S
C2208 H2269 0.961 . S
C2208 H2270 0.959 . S
C2209 C2206 1.450 . S
C2209 H2271 0.960 . S
C2209 H2272 0.960 . S
C2209 H2273 0.960 . S
C2210 C2211 1.309 . S
C2210 C2215 1.304 . S
C2210 O2248 1.435 . S
C2211 C2210 1.309 . S
C2211 C2212 1.476 . S
C2211 H2275 0.930 . S
C2212 C2211 1.476 . S
C2212 C2213 1.400 . S
C2212 C2216 1.567 . S
C2213 C2212 1.400 . S
C2213 C2214 1.373 . S
C2213 C2235 1.432 . S
C2214 C2213 1.373 . S
C2214 C2215 1.339 . S
C2214 C2217 1.530 . S
C2215 C2210 1.304 . S
C2215 C2214 1.339 . S
C2215 H2276 0.930 . S
C2216 C2212 1.567 . S
C2216 H2277 0.961 . S
C2216 H2278 0.960 . S
C2216 H2279 0.958 . S
C2217 C2214 1.530 . S
C2217 H2280 0.961 . S
C2217 H2281 0.960 . S
C2217 H2282 0.960 . S
C2218 C2219 1.530 . S
C2218 H2284 0.961 . S
C2218 H2285 0.961 . S
C2218 H2286 0.959 . S
C2219 C2218 1.530 . S
C2219 O2247 1.412 . S
C2219 H2283 0.980 . S
C2220 C2221 1.288 . S
C2220 C2225 1.377 . S
C2220 O2247 1.393 . S
C2221 C2220 1.288 . S
C2221 C2222 1.369 . S
C2221 H2287 0.932 . S
C2222 C2221 1.369 . S
C2222 C2223 1.398 . S
C2222 C2226 1.527 . S
C2223 C2222 1.398 . S
C2223 C2224 1.380 . S
C2223 C2237 1.497 . S
C2224 C2223 1.380 . S
C2224 C2225 1.383 . S
C2224 C2227 1.603 . S
C2225 C2220 1.377 . S
C2225 C2224 1.383 . S
C2225 H2288 0.929 . S
C2226 C2222 1.527 . S
C2226 H2289 0.961 . S
C2226 H2290 0.959 . S
C2226 H2291 0.959 . S
C2227 C2224 1.603 . S
C2227 H2292 0.960 . S
C2227 H2293 0.962 . S
C2227 H2294 0.961 . S
C2228 C2195 1.587 . S
C2228 C2229 1.360 . S
C2228 C2241 1.412 . S
C2229 C2228 1.360 . S
C2229 C2230 1.365 . S
C2229 H2295 0.929 . S
C2230 C2205 1.553 . S
C2230 C2229 1.365 . S
C2230 C2231 1.404 . S
C2231 C2230 1.404 . S
C2231 C2232 1.395 . S
C2231 C2242 1.451 . S
C2232 C2231 1.395 . S
C2232 C2233 1.322 . S
C2232 H2296 0.930 . S
C2233 C2232 1.322 . S
C2233 C2234 1.459 . S
C2233 H2297 0.929 . S
C2234 C2233 1.459 . S
C2234 C2235 1.445 . S
C2234 C2243 1.395 . S
C2235 C2213 1.432 . S
C2235 C2234 1.445 . S
C2235 C2236 1.370 . S
C2236 C2235 1.370 . S
C2236 C2237 1.438 . S
C2236 H2298 0.930 . S
C2237 C2223 1.497 . S
C2237 C2236 1.438 . S
C2237 C2238 1.360 . S
C2238 C2237 1.360 . S
C2238 C2239 1.401 . S
C2238 C2243 1.446 . S
C2239 C2238 1.401 . S
C2239 C2240 1.347 . S
C2239 H2299 0.929 . S
C2240 C2239 1.347 . S
C2240 C2241 1.455 . S
C2240 H2300 0.930 . S
C2241 C2228 1.412 . S
C2241 C2240 1.455 . S
C2241 C2242 1.331 . S
C2242 C2231 1.451 . S
C2242 C2241 1.331 . S
C2242 C2243 1.497 . S
C2243 C2234 1.395 . S
C2243 C2238 1.446 . S
C2243 C2242 1.497 . S
C2244 C2245 1.582 . S
C2244 H2301 0.962 . S
C2244 H2302 0.959 . S
C2244 H2303 0.958 . S
C2245 C2244 1.582 . S
C2245 O2248 1.458 . S
C2245 H2274 0.980 . S
O2246 C2191 1.426 . S
O2246 C2192 1.334 . S
O2247 C2219 1.412 . S
O2247 C2220 1.393 . S
O2248 C2210 1.435 . S
O2248 C2245 1.458 . S
O2249 C2201 1.468 . S
O2249 C2202 1.408 . S
H2250 C2191 0.980 . S
H2251 C2190 0.959 . S
H2252 C2190 0.959 . S
H2253 C2190 0.960 . S
H2254 C2193 0.929 . S
H2255 C2197 0.929 . S
H2256 C2198 0.959 . S
H2257 C2198 0.961 . S
H2258 C2198 0.961 . S
H2259 C2199 0.960 . S
H2260 C2199 0.960 . S
H2261 C2199 0.961 . S
H2262 C2201 0.980 . S
H2263 C2200 0.961 . S
H2264 C2200 0.960 . S
H2265 C2200 0.959 . S
H2266 C2203 0.930 . S
H2267 C2207 0.931 . S
H2268 C2208 0.959 . S
H2269 C2208 0.961 . S
H2270 C2208 0.959 . S
H2271 C2209 0.960 . S
H2272 C2209 0.960 . S
H2273 C2209 0.960 . S
H2274 C2245 0.980 . S
H2275 C2211 0.930 . S
H2276 C2215 0.930 . S
H2277 C2216 0.961 . S
H2278 C2216 0.960 . S
H2279 C2216 0.958 . S
H2280 C2217 0.961 . S
H2281 C2217 0.960 . S
H2282 C2217 0.960 . S
H2283 C2219 0.980 . S
H2284 C2218 0.961 . S
H2285 C2218 0.961 . S
H2286 C2218 0.959 . S
H2287 C2221 0.932 . S
H2288 C2225 0.929 . S
H2289 C2226 0.961 . S
H2290 C2226 0.959 . S
H2291 C2226 0.959 . S
H2292 C2227 0.960 . S
H2293 C2227 0.962 . S
H2294 C2227 0.961 . S
H2295 C2229 0.929 . S
H2296 C2232 0.930 . S
H2297 C2233 0.929 . S
H2298 C2236 0.930 . S
H2299 C2239 0.929 . S
H2300 C2240 0.930 . S
H2301 C2244 0.962 . S
H2302 C2244 0.959 . S
H2303 C2244 0.958 . S
C2304 C2305 1.387 . S
C2304 H2308 0.950 . S
C2304 C2313 1.390 . S
C2305 C2304 1.387 . S
C2305 C2307 1.387 1_655 S
H2306 C2313 0.950 . S
C2307 C2305 1.387 1_455 S
C2307 C2309 1.365 1_455 S
C2307 H2311 0.950 . S
H2308 C2304 0.950 . S
C2309 C2307 1.365 1_655 S
C2309 C2310 1.400 . S
C2309 H2312 0.965 1_655 S
C2310 C2309 1.400 . S
C2310 C2313 1.387 . S
H2311 C2307 0.950 . S
H2312 C2309 0.965 1_455 S
C2313 C2304 1.390 . S
C2313 H2306 0.950 . S
C2313 C2310 1.387 . S
C2314 C2315 1.387 . S
C2314 H2318 0.950 . S
C2314 C2323 1.390 . S
C2315 C2314 1.387 . S
C2315 C2317 1.387 . S
H2316 C2323 0.950 . S
C2317 C2315 1.387 . S
C2317 C2319 1.390 . S
C2317 H2321 0.950 . S
H2318 C2314 0.950 . S
C2319 C2317 1.390 . S
C2319 C2320 1.387 . S
C2319 H2322 0.950 . S
C2320 C2319 1.387 . S
C2320 C2323 1.387 . S
H2321 C2317 0.950 . S
H2322 C2319 0.950 . S
C2323 C2314 1.390 . S
C2323 H2316 0.950 . S
C2323 C2320 1.387 . S
C2324 C2325 1.387 1_565 S
C2324 H2328 0.950 . S
C2324 C2333 1.390 . S
C2325 C2324 1.387 1_545 S
C2325 C2327 1.387 . S
H2326 C2333 0.950 . S
C2327 C2325 1.387 . S
C2327 C2329 1.390 . S
C2327 H2331 0.950 . S
H2328 C2324 0.950 . S
C2329 C2327 1.390 . S
C2329 C2330 1.387 . S
C2329 H2332 0.950 . S
C2330 C2329 1.387 . S
C2330 C2333 1.387 1_545 S
H2331 C2327 0.950 . S
H2332 C2329 0.950 . S
C2333 C2324 1.390 . S
C2333 H2326 0.950 . S
C2333 C2330 1.387 1_565 S
C2334 C2335 1.387 1_545 S
C2334 H2338 0.950 . S
C2334 C2343 1.390 . S
C2335 C2334 1.387 1_565 S
C2335 C2337 1.387 . S
H2336 C2343 0.950 . S
C2337 C2335 1.387 . S
C2337 C2339 1.390 . S
C2337 H2341 0.950 . S
H2338 C2334 0.950 . S
C2339 C2337 1.390 . S
C2339 C2340 1.387 . S
C2339 H2342 0.950 . S
C2340 C2339 1.387 . S
C2340 C2343 1.387 1_565 S
H2341 C2337 0.950 . S
H2342 C2339 0.950 . S
C2343 C2334 1.390 . S
C2343 H2336 0.950 . S
C2343 C2340 1.387 1_545 S
C2344 C2345 1.387 . S
C2344 H2348 0.950 . S
C2344 C2353 1.390 . S
C2345 C2344 1.387 . S
C2345 C2347 1.387 1_455 S
H2346 C2353 0.950 . S
C2347 C2345 1.387 1_655 S
C2347 C2349 1.390 . S
C2347 H2351 0.950 . S
H2348 C2344 0.950 . S
C2349 C2347 1.390 . S
C2349 C2350 1.387 1_655 S
C2349 H2352 0.950 . S
C2350 C2349 1.387 1_455 S
C2350 C2353 1.387 . S
H2351 C2347 0.950 . S
H2352 C2349 0.950 . S
C2353 C2344 1.390 . S
C2353 H2346 0.950 . S
C2353 C2350 1.387 . S
C2354 C2355 1.387 . S
C2354 H2358 0.950 . S
C2354 C2363 1.390 . S
C2355 C2354 1.387 . S
C2355 C2357 1.387 . S
H2356 C2363 0.950 . S
C2357 C2355 1.387 . S
C2357 C2359 1.390 . S
C2357 H2361 0.950 . S
H2358 C2354 0.950 . S
C2359 C2357 1.390 . S
C2359 C2360 1.387 . S
C2359 H2362 0.950 . S
C2360 C2359 1.387 . S
C2360 C2363 1.387 . S
H2361 C2357 0.950 . S
H2362 C2359 0.950 . S
C2363 C2354 1.390 . S
C2363 H2356 0.950 . S
C2363 C2360 1.387 . S
C2364 C2365 1.387 1_655 S
C2364 H2368 0.950 . S
C2364 C2373 1.390 . S
C2365 C2364 1.387 1_455 S
C2365 C2367 1.387 . S
H2366 C2373 0.950 . S
C2367 C2365 1.387 . S
C2367 C2369 1.390 . S
C2367 H2371 0.950 . S
H2368 C2364 0.950 . S
C2369 C2367 1.390 . S
C2369 C2370 1.387 . S
C2369 H2372 0.950 . S
C2370 C2369 1.387 . S
C2370 C2373 1.387 1_455 S
H2371 C2367 0.950 . S
H2372 C2369 0.950 . S
C2373 C2364 1.390 . S
C2373 H2366 0.950 . S
C2373 C2370 1.387 1_655 S
C2374 C2375 1.387 . S
C2374 H2378 0.950 . S
C2374 C2383 1.390 . S
C2375 C2374 1.387 . S
C2375 C2377 1.387 . S
H2376 C2383 0.950 . S
C2377 C2375 1.387 . S
C2377 C2379 1.390 . S
C2377 H2381 0.950 . S
H2378 C2374 0.950 . S
C2379 C2377 1.390 . S
C2379 C2380 1.387 . S
C2379 H2382 0.950 . S
C2380 C2379 1.387 . S
C2380 C2383 1.387 . S
H2381 C2377 0.950 . S
H2382 C2379 0.950 . S
C2383 C2374 1.390 . S
C2383 H2376 0.950 . S
C2383 C2380 1.387 . S
C2384 C2385 1.387 . S
C2384 H2388 0.950 . S
C2384 C2393 1.390 . S
C2385 C2384 1.387 . S
C2385 C2387 1.387 1_565 S
H2386 C2393 0.950 . S
C2387 C2385 1.387 1_545 S
C2387 C2389 1.390 . S
C2387 H2391 0.950 . S
H2388 C2384 0.950 . S
C2389 C2387 1.390 . S
C2389 C2390 1.387 1_545 S
C2389 H2392 0.950 . S
C2390 C2389 1.387 1_565 S
C2390 C2393 1.387 . S
H2391 C2387 0.950 . S
H2392 C2389 0.950 . S
C2393 C2384 1.390 . S
C2393 H2386 0.950 . S
C2393 C2390 1.387 . S
C2394 C2395 1.387 1_565 S
C2394 H2398 0.950 . S
C2394 C2403 1.390 . S
C2395 C2394 1.387 1_545 S
C2395 C2397 1.387 . S
H2396 C2403 0.950 . S
C2397 C2395 1.387 . S
C2397 C2399 1.390 . S
C2397 H2401 0.950 . S
H2398 C2394 0.950 . S
C2399 C2397 1.390 . S
C2399 C2400 1.387 . S
C2399 H2402 0.950 . S
C2400 C2399 1.387 . S
C2400 C2403 1.387 1_545 S
H2401 C2397 0.950 . S
H2402 C2399 0.950 . S
C2403 C2394 1.390 . S
C2403 H2396 0.950 . S
C2403 C2400 1.387 1_565 S
C2404 C2405 1.387 . S
C2404 H2408 0.950 . S
C2404 C2413 1.390 . S
C2405 C2404 1.387 . S
C2405 C2407 1.387 1_655 S
H2406 C2413 0.950 . S
C2407 C2405 1.387 1_455 S
C2407 C2409 1.390 . S
C2407 H2411 0.950 . S
H2408 C2404 0.950 . S
C2409 C2407 1.390 . S
C2409 C2410 1.387 1_455 S
C2409 H2412 0.950 . S
C2410 C2409 1.387 1_655 S
C2410 C2413 1.387 . S
H2411 C2407 0.950 . S
H2412 C2409 0.950 . S
C2413 C2404 1.390 . S
C2413 H2406 0.950 . S
C2413 C2410 1.387 . S
C2414 C2415 1.387 . S
C2414 H2418 0.950 . S
C2414 C2423 1.390 . S
C2415 C2414 1.387 . S
C2415 C2417 1.387 . S
H2416 C2423 0.950 . S
C2417 C2415 1.387 . S
C2417 C2419 1.390 . S
C2417 H2421 0.950 . S
H2418 C2414 0.950 . S
C2419 C2417 1.390 . S
C2419 C2420 1.387 . S
C2419 H2422 0.950 . S
C2420 C2419 1.387 . S
C2420 C2423 1.387 . S
H2421 C2417 0.950 . S
H2422 C2419 0.950 . S
C2423 C2414 1.390 . S
C2423 H2416 0.950 . S
C2423 C2420 1.387 . S
C2424 C2425 1.387 . S
C2424 H2428 0.950 . S
C2424 C2433 1.390 . S
C2425 C2424 1.387 . S
C2425 C2427 1.387 . S
H2426 C2433 0.950 . S
C2427 C2425 1.387 . S
C2427 C2429 1.390 . S
C2427 H2431 0.950 . S
H2428 C2424 0.950 . S
C2429 C2427 1.390 . S
C2429 C2430 1.387 . S
C2429 H2432 0.950 . S
C2430 C2429 1.387 . S
C2430 C2433 1.387 . S
H2431 C2427 0.950 . S
H2432 C2429 0.950 . S
C2433 C2424 1.390 . S
C2433 H2426 0.950 . S
C2433 C2430 1.387 . S
C2434 C2435 1.387 . S
C2434 H2438 0.950 . S
C2434 C2443 1.390 . S
C2435 C2434 1.387 . S
C2435 C2437 1.387 . S
H2436 C2443 0.950 . S
C2437 C2435 1.387 . S
C2437 C2439 1.390 . S
C2437 H2441 0.950 . S
H2438 C2434 0.950 . S
C2439 C2437 1.390 . S
C2439 C2440 1.387 . S
C2439 H2442 0.950 . S
C2440 C2439 1.387 . S
C2440 C2443 1.387 . S
H2441 C2437 0.950 . S
H2442 C2439 0.950 . S
C2443 C2434 1.390 . S
C2443 H2436 0.950 . S
C2443 C2440 1.387 . S
C2444 C2445 1.387 . S
C2444 H2448 0.950 . S
C2444 C2453 1.390 . S
C2445 C2444 1.387 . S
C2445 C2447 1.387 . S
H2446 C2453 0.950 . S
C2447 C2445 1.387 . S
C2447 C2449 1.390 . S
C2447 H2451 0.950 . S
H2448 C2444 0.950 . S
C2449 C2447 1.390 . S
C2449 C2450 1.387 . S
C2449 H2452 0.950 . S
C2450 C2449 1.387 . S
C2450 C2453 1.387 . S
H2451 C2447 0.950 . S
H2452 C2449 0.950 . S
C2453 C2444 1.390 . S
C2453 H2446 0.950 . S
C2453 C2450 1.387 . S
C2454 C2455 1.387 . S
C2454 H2458 0.950 . S
C2454 C2463 1.390 . S
C2455 C2454 1.387 . S
C2455 C2457 1.387 . S
H2456 C2463 0.950 . S
C2457 C2455 1.387 . S
C2457 C2459 1.390 . S
C2457 H2461 0.950 . S
H2458 C2454 0.950 . S
C2459 C2457 1.390 . S
C2459 C2460 1.387 . S
C2459 H2462 0.950 . S
C2460 C2459 1.387 . S
C2460 C2463 1.387 . S
H2461 C2457 0.950 . S
H2462 C2459 0.950 . S
C2463 C2454 1.390 . S
C2463 H2456 0.950 . S
C2463 C2460 1.387 . S
C2464 C2465 1.387 . S
C2464 H2468 0.950 . S
C2464 C2473 1.390 . S
C2465 C2464 1.387 . S
C2465 C2467 1.387 . S
H2466 C2473 0.950 . S
C2467 C2465 1.387 . S
C2467 C2469 1.390 . S
C2467 H2471 0.950 . S
H2468 C2464 0.950 . S
C2469 C2467 1.390 . S
C2469 C2470 1.387 . S
C2469 H2472 0.950 . S
C2470 C2469 1.387 . S
C2470 C2473 1.387 . S
H2471 C2467 0.950 . S
H2472 C2469 0.950 . S
C2473 C2464 1.390 . S
C2473 H2466 0.950 . S
C2473 C2470 1.387 . S
C2474 C2475 1.387 . S
C2474 H2478 0.950 . S
C2474 C2483 1.390 . S
C2475 C2474 1.387 . S
C2475 C2477 1.387 . S
H2476 C2483 0.950 . S
C2477 C2475 1.387 . S
C2477 C2479 1.390 . S
C2477 H2481 0.950 . S
H2478 C2474 0.950 . S
C2479 C2477 1.390 . S
C2479 C2480 1.387 . S
C2479 H2482 0.950 . S
C2480 C2479 1.387 . S
C2480 C2483 1.387 . S
H2481 C2477 0.950 . S
H2482 C2479 0.950 . S
C2483 C2474 1.390 . S
C2483 H2476 0.950 . S
C2483 C2480 1.387 . S
C2484 C2485 1.387 . S
C2484 H2488 0.950 . S
C2484 C2493 1.390 . S
C2485 C2484 1.387 . S
C2485 C2487 1.387 . S
H2486 C2493 0.950 . S
C2487 C2485 1.387 . S
C2487 C2489 1.390 . S
C2487 H2491 0.950 . S
H2488 C2484 0.950 . S
C2489 C2487 1.390 . S
C2489 C2490 1.387 . S
C2489 H2492 0.950 . S
C2490 C2489 1.387 . S
C2490 C2493 1.387 . S
H2491 C2487 0.950 . S
H2492 C2489 0.950 . S
C2493 C2484 1.390 . S
C2493 H2486 0.950 . S
C2493 C2490 1.387 . S
C2494 C2495 1.387 . S
C2494 H2498 0.950 . S
C2494 C2503 1.390 . S
C2495 C2494 1.387 . S
C2495 C2497 1.387 . S
H2496 C2503 0.950 . S
C2497 C2495 1.387 . S
C2497 C2499 1.390 . S
C2497 H2501 0.950 . S
H2498 C2494 0.950 . S
C2499 C2497 1.390 . S
C2499 C2500 1.387 . S
C2499 H2502 0.950 . S
C2500 C2499 1.387 . S
C2500 C2503 1.387 . S
H2501 C2497 0.950 . S
H2502 C2499 0.950 . S
C2503 C2494 1.390 . S
C2503 H2496 0.950 . S
C2503 C2500 1.387 . S
C2504 C2505 1.387 . S
C2504 H2508 0.950 . S
C2504 C2513 1.390 . S
C2505 C2504 1.387 . S
C2505 C2507 1.387 . S
H2506 C2513 0.950 . S
C2507 C2505 1.387 . S
C2507 C2509 1.390 . S
C2507 H2511 0.950 . S
H2508 C2504 0.950 . S
C2509 C2507 1.390 . S
C2509 C2510 1.387 . S
C2509 H2512 0.950 . S
C2510 C2509 1.387 . S
C2510 C2513 1.387 . S
H2511 C2507 0.950 . S
H2512 C2509 0.950 . S
C2513 C2504 1.390 . S
C2513 H2506 0.950 . S
C2513 C2510 1.387 . S
C2514 C2515 1.387 . S
C2514 H2518 0.950 . S
C2514 C2523 1.390 . S
C2515 C2514 1.387 . S
C2515 C2517 1.387 . S
H2516 C2523 0.950 . S
C2517 C2515 1.387 . S
C2517 C2519 1.390 . S
C2517 H2521 0.950 . S
H2518 C2514 0.950 . S
C2519 C2517 1.390 . S
C2519 C2520 1.387 . S
C2519 H2522 0.950 . S
C2520 C2519 1.387 . S
C2520 C2523 1.387 . S
H2521 C2517 0.950 . S
H2522 C2519 0.950 . S
C2523 C2514 1.390 . S
C2523 H2516 0.950 . S
C2523 C2520 1.387 . S
C2524 C2525 1.387 . S
C2524 H2528 0.950 . S
C2524 C2533 1.390 . S
C2525 C2524 1.387 . S
C2525 C2527 1.387 . S
H2526 C2533 0.950 . S
C2527 C2525 1.387 . S
C2527 C2529 1.390 . S
C2527 H2531 0.950 . S
H2528 C2524 0.950 . S
C2529 C2527 1.390 . S
C2529 C2530 1.387 . S
C2529 H2532 0.950 . S
C2530 C2529 1.387 . S
C2530 C2533 1.387 . S
H2531 C2527 0.950 . S
H2532 C2529 0.950 . S
C2533 C2524 1.390 . S
C2533 H2526 0.950 . S
C2533 C2530 1.387 . S
C2534 C2535 1.387 . S
C2534 H2538 0.950 . S
C2534 C2543 1.390 . S
C2535 C2534 1.387 . S
C2535 C2537 1.387 . S
H2536 C2543 0.950 . S
C2537 C2535 1.387 . S
C2537 C2539 1.390 . S
C2537 H2541 0.950 . S
H2538 C2534 0.950 . S
C2539 C2537 1.390 . S
C2539 C2540 1.387 . S
C2539 H2542 0.950 . S
C2540 C2539 1.387 . S
C2540 C2543 1.387 . S
H2541 C2537 0.950 . S
H2542 C2539 0.950 . S
C2543 C2534 1.390 . S
C2543 H2536 0.950 . S
C2543 C2540 1.387 . S
C2544 C2545 1.387 . S
C2544 H2548 0.950 . S
C2544 C2553 1.390 . S
C2545 C2544 1.387 . S
C2545 C2547 1.387 . S
H2546 C2553 0.950 . S
C2547 C2545 1.387 . S
C2547 C2549 1.390 . S
C2547 H2551 0.950 . S
H2548 C2544 0.950 . S
C2549 C2547 1.390 . S
C2549 C2550 1.387 . S
C2549 H2552 0.950 . S
C2550 C2549 1.387 . S
C2550 C2553 1.387 . S
H2551 C2547 0.950 . S
H2552 C2549 0.950 . S
C2553 C2544 1.390 . S
C2553 H2546 0.950 . S
C2553 C2550 1.387 . S
C2554 C2555 1.387 . S
C2554 H2558 0.950 . S
C2554 C2563 1.390 . S
C2555 C2554 1.387 . S
C2555 C2557 1.387 . S
H2556 C2563 0.950 . S
C2557 C2555 1.387 . S
C2557 C2559 1.390 . S
C2557 H2561 0.950 . S
H2558 C2554 0.950 . S
C2559 C2557 1.390 . S
C2559 C2560 1.387 . S
C2559 H2562 0.950 . S
C2560 C2559 1.387 . S
C2560 C2563 1.387 . S
H2561 C2557 0.950 . S
H2562 C2559 0.950 . S
C2563 C2554 1.390 . S
C2563 H2556 0.950 . S
C2563 C2560 1.387 . S
C2564 C2565 1.387 . S
C2564 H2568 0.950 . S
C2564 C2573 1.390 . S
C2565 C2564 1.387 . S
C2565 C2567 1.387 . S
H2566 C2573 0.950 . S
C2567 C2565 1.387 . S
C2567 C2569 1.390 . S
C2567 H2571 0.950 . S
H2568 C2564 0.950 . S
C2569 C2567 1.390 . S
C2569 C2570 1.387 . S
C2569 H2572 0.950 . S
C2570 C2569 1.387 . S
C2570 C2573 1.387 . S
H2571 C2567 0.950 . S
H2572 C2569 0.950 . S
C2573 C2564 1.390 . S
C2573 H2566 0.950 . S
C2573 C2570 1.387 . S
C2574 C2575 1.387 . S
C2574 H2578 0.950 . S
C2574 C2583 1.390 . S
C2575 C2574 1.387 . S
C2575 C2577 1.387 . S
H2576 C2583 0.950 . S
C2577 C2575 1.387 . S
C2577 C2579 1.390 . S
C2577 H2581 0.950 . S
H2578 C2574 0.950 . S
C2579 C2577 1.390 . S
C2579 C2580 1.387 . S
C2579 H2582 0.950 . S
C2580 C2579 1.387 . S
C2580 C2583 1.387 . S
H2581 C2577 0.950 . S
H2582 C2579 0.950 . S
C2583 C2574 1.390 . S
C2583 H2576 0.950 . S
C2583 C2580 1.387 . S
C2584 C2585 1.387 . S
C2584 H2588 0.950 . S
C2584 C2593 1.390 . S
C2585 C2584 1.387 . S
C2585 C2587 1.387 . S
H2586 C2593 0.950 . S
C2587 C2585 1.387 . S
C2587 C2589 1.390 . S
C2587 H2591 0.950 . S
H2588 C2584 0.950 . S
C2589 C2587 1.390 . S
C2589 C2590 1.387 . S
C2589 H2592 0.950 . S
C2590 C2589 1.387 . S
C2590 C2593 1.387 . S
H2591 C2587 0.950 . S
H2592 C2589 0.950 . S
C2593 C2584 1.390 . S
C2593 H2586 0.950 . S
C2593 C2590 1.387 . S
C2594 C2595 1.387 . S
C2594 H2598 0.950 . S
C2594 C2603 1.390 . S
C2595 C2594 1.387 . S
C2595 C2597 1.387 . S
H2596 C2603 0.950 . S
C2597 C2595 1.387 . S
C2597 C2599 1.390 . S
C2597 H2601 0.950 . S
H2598 C2594 0.950 . S
C2599 C2597 1.390 . S
C2599 C2600 1.387 . S
C2599 H2602 0.950 . S
C2600 C2599 1.387 . S
C2600 C2603 1.387 . S
H2601 C2597 0.950 . S
H2602 C2599 0.950 . S
C2603 C2594 1.390 . S
C2603 H2596 0.950 . S
C2603 C2600 1.387 . S
C2604 C2605 1.387 . S
C2604 H2608 0.950 . S
C2604 C2613 1.390 . S
C2605 C2604 1.387 . S
C2605 C2607 1.387 . S
H2606 C2613 0.950 . S
C2607 C2605 1.387 . S
C2607 C2609 1.390 . S
C2607 H2611 0.950 . S
H2608 C2604 0.950 . S
C2609 C2607 1.390 . S
C2609 C2610 1.387 . S
C2609 H2612 0.950 . S
C2610 C2609 1.387 . S
C2610 C2613 1.387 . S
H2611 C2607 0.950 . S
H2612 C2609 0.950 . S
C2613 C2604 1.390 . S
C2613 H2606 0.950 . S
C2613 C2610 1.387 . S
C2614 C2615 1.387 . S
C2614 H2618 0.950 . S
C2614 C2623 1.390 . S
C2615 C2614 1.387 . S
C2615 C2617 1.387 . S
H2616 C2623 0.950 . S
C2617 C2615 1.387 . S
C2617 C2619 1.390 . S
C2617 H2621 0.950 . S
H2618 C2614 0.950 . S
C2619 C2617 1.390 . S
C2619 C2620 1.387 . S
C2619 H2622 0.950 . S
C2620 C2619 1.387 . S
C2620 C2623 1.387 . S
H2621 C2617 0.950 . S
H2622 C2619 0.950 . S
C2623 C2614 1.390 . S
C2623 H2616 0.950 . S
C2623 C2620 1.387 . S
C2624 C2625 1.387 . S
C2624 H2628 0.950 . S
C2624 C2633 1.390 . S
C2625 C2624 1.387 . S
C2625 C2627 1.387 . S
H2626 C2633 0.950 . S
C2627 C2625 1.387 . S
C2627 C2629 1.390 . S
C2627 H2631 0.950 . S
H2628 C2624 0.950 . S
C2629 C2627 1.390 . S
C2629 C2630 1.387 . S
C2629 H2632 0.950 . S
C2630 C2629 1.387 . S
C2630 C2633 1.387 . S
H2631 C2627 0.950 . S
H2632 C2629 0.950 . S
C2633 C2624 1.390 . S
C2633 H2626 0.950 . S
C2633 C2630 1.387 . S
C2634 C2635 1.387 . S
C2634 H2638 0.950 . S
C2634 C2643 1.390 . S
C2635 C2634 1.387 . S
C2635 C2637 1.387 . S
H2636 C2643 0.950 . S
C2637 C2635 1.387 . S
C2637 C2639 1.390 . S
C2637 H2641 0.950 . S
H2638 C2634 0.950 . S
C2639 C2637 1.390 . S
C2639 C2640 1.387 . S
C2639 H2642 0.950 . S
C2640 C2639 1.387 . S
C2640 C2643 1.387 . S
H2641 C2637 0.950 . S
H2642 C2639 0.950 . S
C2643 C2634 1.390 . S
C2643 H2636 0.950 . S
C2643 C2640 1.387 . S
C2644 C2645 1.387 . S
C2644 H2648 0.950 . S
C2644 C2653 1.390 . S
C2645 C2644 1.387 . S
C2645 C2647 1.387 . S
H2646 C2653 0.950 . S
C2647 C2645 1.387 . S
C2647 C2649 1.390 . S
C2647 H2651 0.950 . S
H2648 C2644 0.950 . S
C2649 C2647 1.390 . S
C2649 C2650 1.387 . S
C2649 H2652 0.950 . S
C2650 C2649 1.387 . S
C2650 C2653 1.387 . S
H2651 C2647 0.950 . S
H2652 C2649 0.950 . S
C2653 C2644 1.390 . S
C2653 H2646 0.950 . S
C2653 C2650 1.387 . S
C2654 C2655 1.387 . S
C2654 H2658 0.950 . S
C2654 C2663 1.390 . S
C2655 C2654 1.387 . S
C2655 C2657 1.387 . S
H2656 C2663 0.950 . S
C2657 C2655 1.387 . S
C2657 C2659 1.390 . S
C2657 H2661 0.950 . S
H2658 C2654 0.950 . S
C2659 C2657 1.390 . S
C2659 C2660 1.387 . S
C2659 H2662 0.950 . S
C2660 C2659 1.387 . S
C2660 C2663 1.387 . S
H2661 C2657 0.950 . S
H2662 C2659 0.950 . S
C2663 C2654 1.390 . S
C2663 H2656 0.950 . S
C2663 C2660 1.387 . S
C2664 C2665 1.387 . S
C2664 H2668 0.950 . S
C2664 C2673 1.390 . S
C2665 C2664 1.387 . S
C2665 C2667 1.387 . S
H2666 C2673 0.950 . S
C2667 C2665 1.387 . S
C2667 C2669 1.390 . S
C2667 H2671 0.950 . S
H2668 C2664 0.950 . S
C2669 C2667 1.390 . S
C2669 C2670 1.387 . S
C2669 H2672 0.950 . S
C2670 C2669 1.387 . S
C2670 C2673 1.387 . S
H2671 C2667 0.950 . S
H2672 C2669 0.950 . S
C2673 C2664 1.390 . S
C2673 H2666 0.950 . S
C2673 C2670 1.387 . S
C2674 C2675 1.387 . S
C2674 H2678 0.950 . S
C2674 C2683 1.390 . S
C2675 C2674 1.387 . S
C2675 C2677 1.387 . S
H2676 C2683 0.950 . S
C2677 C2675 1.387 . S
C2677 C2679 1.390 . S
C2677 H2681 0.950 . S
H2678 C2674 0.950 . S
C2679 C2677 1.390 . S
C2679 C2680 1.387 . S
C2679 H2682 0.950 . S
C2680 C2679 1.387 . S
C2680 C2683 1.387 . S
H2681 C2677 0.950 . S
H2682 C2679 0.950 . S
C2683 C2674 1.390 . S
C2683 H2676 0.950 . S
C2683 C2680 1.387 . S
C2684 C2685 1.387 . S
C2684 H2688 0.950 . S
C2684 C2693 1.390 . S
C2685 C2684 1.387 . S
C2685 C2687 1.387 . S
H2686 C2693 0.950 . S
C2687 C2685 1.387 . S
C2687 C2689 1.390 . S
C2687 H2691 0.950 . S
H2688 C2684 0.950 . S
C2689 C2687 1.390 . S
C2689 C2690 1.387 . S
C2689 H2692 0.950 . S
C2690 C2689 1.387 . S
C2690 C2693 1.387 . S
H2691 C2687 0.950 . S
H2692 C2689 0.950 . S
C2693 C2684 1.390 . S
C2693 H2686 0.950 . S
C2693 C2690 1.387 . S
C2694 C2695 1.387 . S
C2694 H2698 0.950 . S
C2694 C2703 1.390 . S
C2695 C2694 1.387 . S
C2695 C2697 1.387 . S
H2696 C2703 0.950 . S
C2697 C2695 1.387 . S
C2697 C2699 1.390 . S
C2697 H2701 0.950 . S
H2698 C2694 0.950 . S
C2699 C2697 1.390 . S
C2699 C2700 1.387 . S
C2699 H2702 0.950 . S
C2700 C2699 1.387 . S
C2700 C2703 1.387 . S
H2701 C2697 0.950 . S
H2702 C2699 0.950 . S
C2703 C2694 1.390 . S
C2703 H2696 0.950 . S
C2703 C2700 1.387 . S
C2704 C2705 1.387 . S
C2704 H2708 0.950 . S
C2704 C2713 1.390 . S
C2705 C2704 1.387 . S
C2705 C2707 1.387 . S
H2706 C2713 0.950 . S
C2707 C2705 1.387 . S
C2707 C2709 1.390 . S
C2707 H2711 0.950 . S
H2708 C2704 0.950 . S
C2709 C2707 1.390 . S
C2709 C2710 1.387 . S
C2709 H2712 0.950 . S
C2710 C2709 1.387 . S
C2710 C2713 1.387 . S
H2711 C2707 0.950 . S
H2712 C2709 0.950 . S
C2713 C2704 1.390 . S
C2713 H2706 0.950 . S
C2713 C2710 1.387 . S
C2714 C2715 1.387 . S
C2714 H2718 0.950 . S
C2714 C2723 1.390 . S
C2715 C2714 1.387 . S
C2715 C2717 1.387 . S
H2716 C2723 0.950 . S
C2717 C2715 1.387 . S
C2717 C2719 1.390 . S
C2717 H2721 0.950 . S
H2718 C2714 0.950 . S
C2719 C2717 1.390 . S
C2719 C2720 1.387 . S
C2719 H2722 0.950 . S
C2720 C2719 1.387 . S
C2720 C2723 1.387 . S
H2721 C2717 0.950 . S
H2722 C2719 0.950 . S
C2723 C2714 1.390 . S
C2723 H2716 0.950 . S
C2723 C2720 1.387 . S
C2724 C2725 1.387 . S
C2724 H2728 0.950 . S
C2724 C2733 1.390 . S
C2725 C2724 1.387 . S
C2725 C2727 1.387 . S
H2726 C2733 0.950 . S
C2727 C2725 1.387 . S
C2727 C2729 1.390 . S
C2727 H2731 0.950 . S
H2728 C2724 0.950 . S
C2729 C2727 1.390 . S
C2729 C2730 1.387 . S
C2729 H2732 0.950 . S
C2730 C2729 1.387 . S
C2730 C2733 1.387 . S
H2731 C2727 0.950 . S
H2732 C2729 0.950 . S
C2733 C2724 1.390 . S
C2733 H2726 0.950 . S
C2733 C2730 1.387 . S
C2734 C2735 1.387 . S
C2734 H2738 0.950 . S
C2734 C2743 1.390 . S
C2735 C2734 1.387 . S
C2735 C2737 1.387 . S
H2736 C2743 0.950 . S
C2737 C2735 1.387 . S
C2737 C2739 1.390 . S
C2737 H2741 0.950 . S
H2738 C2734 0.950 . S
C2739 C2737 1.390 . S
C2739 C2740 1.387 . S
C2739 H2742 0.950 . S
C2740 C2739 1.387 . S
C2740 C2743 1.387 . S
H2741 C2737 0.950 . S
H2742 C2739 0.950 . S
C2743 C2734 1.390 . S
C2743 H2736 0.950 . S
C2743 C2740 1.387 . S
C2744 C2745 1.387 . S
C2744 H2748 0.950 . S
C2744 C2753 1.390 . S
C2745 C2744 1.387 . S
C2745 C2747 1.387 . S
H2746 C2753 0.950 . S
C2747 C2745 1.387 . S
C2747 C2749 1.390 . S
C2747 H2751 0.950 . S
H2748 C2744 0.950 . S
C2749 C2747 1.390 . S
C2749 C2750 1.387 . S
C2749 H2752 0.950 . S
C2750 C2749 1.387 . S
C2750 C2753 1.387 . S
H2751 C2747 0.950 . S
H2752 C2749 0.950 . S
C2753 C2744 1.390 . S
C2753 H2746 0.950 . S
C2753 C2750 1.387 . S
C2754 C2755 1.387 . S
C2754 H2758 0.950 . S
C2754 C2763 1.390 . S
C2755 C2754 1.387 . S
C2755 C2757 1.387 . S
H2756 C2763 0.950 . S
C2757 C2755 1.387 . S
C2757 C2759 1.390 . S
C2757 H2761 0.950 . S
H2758 C2754 0.950 . S
C2759 C2757 1.390 . S
C2759 C2760 1.387 . S
C2759 H2762 0.950 . S
C2760 C2759 1.387 . S
C2760 C2763 1.387 . S
H2761 C2757 0.950 . S
H2762 C2759 0.950 . S
C2763 C2754 1.390 . S
C2763 H2756 0.950 . S
C2763 C2760 1.387 . S
C2764 C2765 1.387 . S
C2764 H2768 0.950 . S
C2764 C2773 1.390 . S
C2765 C2764 1.387 . S
C2765 C2767 1.387 . S
H2766 C2773 0.950 . S
C2767 C2765 1.387 . S
C2767 C2769 1.390 . S
C2767 H2771 0.950 . S
H2768 C2764 0.950 . S
C2769 C2767 1.390 . S
C2769 C2770 1.387 . S
C2769 H2772 0.950 . S
C2770 C2769 1.387 . S
C2770 C2773 1.387 . S
H2771 C2767 0.950 . S
H2772 C2769 0.950 . S
C2773 C2764 1.390 . S
C2773 H2766 0.950 . S
C2773 C2770 1.387 . S
C2774 C2775 1.387 . S
C2774 H2778 0.950 . S
C2774 C2783 1.390 . S
C2775 C2774 1.387 . S
C2775 C2777 1.387 . S
H2776 C2783 0.950 . S
C2777 C2775 1.387 . S
C2777 C2779 1.390 . S
C2777 H2781 0.950 . S
H2778 C2774 0.950 . S
C2779 C2777 1.390 . S
C2779 C2780 1.387 . S
C2779 H2782 0.950 . S
C2780 C2779 1.387 . S
C2780 C2783 1.387 . S
H2781 C2777 0.950 . S
H2782 C2779 0.950 . S
C2783 C2774 1.390 . S
C2783 H2776 0.950 . S
C2783 C2780 1.387 . S
C2784 C2785 1.387 . S
C2784 H2788 0.950 . S
C2784 C2793 1.390 . S
C2785 C2784 1.387 . S
C2785 C2787 1.387 . S
H2786 C2793 0.950 . S
C2787 C2785 1.387 . S
C2787 C2789 1.390 . S
C2787 H2791 0.950 . S
H2788 C2784 0.950 . S
C2789 C2787 1.390 . S
C2789 C2790 1.387 . S
C2789 H2792 0.950 . S
C2790 C2789 1.387 . S
C2790 C2793 1.387 . S
H2791 C2787 0.950 . S
H2792 C2789 0.950 . S
C2793 C2784 1.390 . S
C2793 H2786 0.950 . S
C2793 C2790 1.387 . S
C2794 C2795 1.387 . S
C2794 H2798 0.950 . S
C2794 C2803 1.390 . S
C2795 C2794 1.387 . S
C2795 C2797 1.387 . S
H2796 C2803 0.950 . S
C2797 C2795 1.387 . S
C2797 C2799 1.390 . S
C2797 H2801 0.950 . S
H2798 C2794 0.950 . S
C2799 C2797 1.390 . S
C2799 C2800 1.387 . S
C2799 H2802 0.950 . S
C2800 C2799 1.387 . S
C2800 C2803 1.387 . S
H2801 C2797 0.950 . S
H2802 C2799 0.950 . S
C2803 C2794 1.390 . S
C2803 H2796 0.950 . S
C2803 C2800 1.387 . S
C2804 C2805 1.387 . S
C2804 H2808 0.950 . S
C2804 C2813 1.390 . S
C2805 C2804 1.387 . S
C2805 C2807 1.387 . S
H2806 C2813 0.950 . S
C2807 C2805 1.387 . S
C2807 C2809 1.390 . S
C2807 H2811 0.950 . S
H2808 C2804 0.950 . S
C2809 C2807 1.390 . S
C2809 C2810 1.387 . S
C2809 H2812 0.950 . S
C2810 C2809 1.387 . S
C2810 C2813 1.387 . S
H2811 C2807 0.950 . S
H2812 C2809 0.950 . S
C2813 C2804 1.390 . S
C2813 H2806 0.950 . S
C2813 C2810 1.387 . S
C2814 C2815 1.387 . S
C2814 H2818 0.950 . S
C2814 C2823 1.390 . S
C2815 C2814 1.387 . S
C2815 C2817 1.387 1_455 S
H2816 C2823 0.950 . S
C2817 C2815 1.387 1_655 S
C2817 C2819 1.390 . S
C2817 H2821 0.950 . S
H2818 C2814 0.950 . S
C2819 C2817 1.390 . S
C2819 C2820 1.387 1_655 S
C2819 H2822 0.950 . S
C2820 C2819 1.387 1_455 S
C2820 C2823 1.387 . S
H2821 C2817 0.950 . S
H2822 C2819 0.950 . S
C2823 C2814 1.390 . S
C2823 H2816 0.950 . S
C2823 C2820 1.387 . S
C2824 C2825 1.387 . S
C2824 H2828 0.950 . S
C2824 C2833 1.390 . S
C2825 C2824 1.387 . S
C2825 C2827 1.387 . S
H2826 C2833 0.950 . S
C2827 C2825 1.387 . S
C2827 C2829 1.390 . S
C2827 H2831 0.950 . S
H2828 C2824 0.950 . S
C2829 C2827 1.390 . S
C2829 C2830 1.387 . S
C2829 H2832 0.950 . S
C2830 C2829 1.387 . S
C2830 C2833 1.387 . S
H2831 C2827 0.950 . S
H2832 C2829 0.950 . S
C2833 C2824 1.390 . S
C2833 H2826 0.950 . S
C2833 C2830 1.387 . S
C2834 C2835 1.387 1_545 S
C2834 H2838 0.950 . S
C2834 C2843 1.390 . S
C2835 C2834 1.387 1_565 S
C2835 C2837 1.387 . S
H2836 C2843 0.950 . S
C2837 C2835 1.387 . S
C2837 C2839 1.390 . S
C2837 H2841 0.950 . S
H2838 C2834 0.950 . S
C2839 C2837 1.390 . S
C2839 C2840 1.387 . S
C2839 H2842 0.950 . S
C2840 C2839 1.387 . S
C2840 C2843 1.387 1_565 S
H2841 C2837 0.950 . S
H2842 C2839 0.950 . S
C2843 C2834 1.390 . S
C2843 H2836 0.950 . S
C2843 C2840 1.387 1_545 S
C2844 C2845 1.387 1_545 S
C2844 H2848 0.950 . S
C2844 C2853 1.390 . S
C2845 C2844 1.387 1_565 S
C2845 C2847 1.387 . S
H2846 C2853 0.950 . S
C2847 C2845 1.387 . S
C2847 C2849 1.390 . S
C2847 H2851 0.950 . S
H2848 C2844 0.950 . S
C2849 C2847 1.390 . S
C2849 C2850 1.387 . S
C2849 H2852 0.950 . S
C2850 C2849 1.387 . S
C2850 C2853 1.387 1_565 S
H2851 C2847 0.950 . S
H2852 C2849 0.950 . S
C2853 C2844 1.390 . S
C2853 H2846 0.950 . S
C2853 C2850 1.387 1_545 S
C2854 C2855 1.370 1_655 S
C2854 H2858 0.986 . S
C2854 C2863 1.375 . S
C2855 C2854 1.370 1_455 S
C2855 C2857 1.387 . S
H2856 C2863 0.950 . S
C2857 C2855 1.387 . S
C2857 C2859 1.390 . S
C2857 H2861 0.950 . S
H2858 C2854 0.986 . S
C2859 C2857 1.390 . S
C2859 C2860 1.387 . S
C2859 H2862 0.950 . S
C2860 C2859 1.387 . S
C2860 C2863 1.387 1_455 S
H2861 C2857 0.950 . S
H2862 C2859 0.950 . S
C2863 C2854 1.375 . S
C2863 H2856 0.950 . S
C2863 C2860 1.387 1_655 S
C2864 C2865 1.387 . S
C2864 H2868 0.950 . S
C2864 C2873 1.390 . S
C2865 C2864 1.387 . S
C2865 C2867 1.387 . S
H2866 C2873 0.950 . S
C2867 C2865 1.387 . S
C2867 C2869 1.390 . S
C2867 H2871 0.950 . S
H2868 C2864 0.950 . S
C2869 C2867 1.390 . S
C2869 C2870 1.387 . S
C2869 H2872 0.950 . S
C2870 C2869 1.387 . S
C2870 C2873 1.387 . S
H2871 C2867 0.950 . S
H2872 C2869 0.950 . S
C2873 C2864 1.390 . S
C2873 H2866 0.950 . S
C2873 C2870 1.387 . S
C2874 C2875 1.387 . S
C2874 H2878 0.950 . S
C2874 C2883 1.390 . S
C2875 C2874 1.387 . S
C2875 C2877 1.387 . S
H2876 C2883 0.950 . S
C2877 C2875 1.387 . S
C2877 C2879 1.390 . S
C2877 H2881 0.950 . S
H2878 C2874 0.950 . S
C2879 C2877 1.390 . S
C2879 C2880 1.387 . S
C2879 H2882 0.950 . S
C2880 C2879 1.387 . S
C2880 C2883 1.387 . S
H2881 C2877 0.950 . S
H2882 C2879 0.950 . S
C2883 C2874 1.390 . S
C2883 H2876 0.950 . S
C2883 C2880 1.387 . S
C2884 C2885 1.387 . S
C2884 H2888 0.950 . S
C2884 C2893 1.390 . S
C2885 C2884 1.387 . S
C2885 C2887 1.387 . S
H2886 C2893 0.950 . S
C2887 C2885 1.387 . S
C2887 C2889 1.390 . S
C2887 H2891 0.950 . S
H2888 C2884 0.950 . S
C2889 C2887 1.390 . S
C2889 C2890 1.387 . S
C2889 H2892 0.950 . S
C2890 C2889 1.387 . S
C2890 C2893 1.387 . S
H2891 C2887 0.950 . S
H2892 C2889 0.950 . S
C2893 C2884 1.390 . S
C2893 H2886 0.950 . S
C2893 C2890 1.387 . S
C2894 C2895 1.387 . S
C2894 H2898 0.950 . S
C2894 C2903 1.390 . S
C2895 C2894 1.387 . S
C2895 C2897 1.387 . S
H2896 C2903 0.950 . S
C2897 C2895 1.387 . S
C2897 C2899 1.390 . S
C2897 H2901 0.950 . S
H2898 C2894 0.950 . S
C2899 C2897 1.390 . S
C2899 C2900 1.387 . S
C2899 H2902 0.950 . S
C2900 C2899 1.387 . S
C2900 C2903 1.387 . S
H2901 C2897 0.950 . S
H2902 C2899 0.950 . S
C2903 C2894 1.390 . S
C2903 H2896 0.950 . S
C2903 C2900 1.387 . S
C2904 C2905 1.387 1_565 S
C2904 H2908 0.950 . S
C2904 C2913 1.390 . S
C2905 C2904 1.387 1_545 S
C2905 C2907 1.387 . S
H2906 C2913 0.950 . S
C2907 C2905 1.387 . S
C2907 C2909 1.390 . S
C2907 H2911 0.950 . S
H2908 C2904 0.950 . S
C2909 C2907 1.390 . S
C2909 C2910 1.387 . S
C2909 H2912 0.950 . S
C2910 C2909 1.387 . S
C2910 C2913 1.387 1_545 S
H2911 C2907 0.950 . S
H2912 C2909 0.950 . S
C2913 C2904 1.390 . S
C2913 H2906 0.950 . S
C2913 C2910 1.387 1_565 S
C2914 C2915 1.387 1_455 S
C2914 H2918 0.950 . S
C2914 C2923 1.390 . S
C2915 C2914 1.387 1_655 S
C2915 C2917 1.387 . S
H2916 C2923 0.950 . S
C2917 C2915 1.387 . S
C2917 C2919 1.390 . S
C2917 H2921 0.950 . S
H2918 C2914 0.950 . S
C2919 C2917 1.390 . S
C2919 C2920 1.387 . S
C2919 H2922 0.950 . S
C2920 C2919 1.387 . S
C2920 C2923 1.387 1_655 S
H2921 C2917 0.950 . S
H2922 C2919 0.950 . S
C2923 C2914 1.390 . S
C2923 H2916 0.950 . S
C2923 C2920 1.387 1_455 S
C2924 C2925 1.387 . S
C2924 H2928 0.950 . S
C2924 C2933 1.390 . S
C2925 C2924 1.387 . S
C2925 C2927 1.387 . S
H2926 C2933 0.950 . S
C2927 C2925 1.387 . S
C2927 C2929 1.390 . S
C2927 H2931 0.950 . S
H2928 C2924 0.950 . S
C2929 C2927 1.390 . S
C2929 C2930 1.387 . S
C2929 H2932 0.950 . S
C2930 C2929 1.387 . S
C2930 C2933 1.387 . S
H2931 C2927 0.950 . S
H2932 C2929 0.950 . S
C2933 C2924 1.390 . S
C2933 H2926 0.950 . S
C2933 C2930 1.387 . S
C2934 C2935 1.387 . S
C2934 H2938 0.950 . S
C2934 C2943 1.390 . S
C2935 C2934 1.387 . S
C2935 C2937 1.387 . S
H2936 C2943 0.950 . S
C2937 C2935 1.387 . S
C2937 C2939 1.390 . S
C2937 H2941 0.950 . S
H2938 C2934 0.950 . S
C2939 C2937 1.390 . S
C2939 C2940 1.387 . S
C2939 H2942 0.950 . S
C2940 C2939 1.387 . S
C2940 C2943 1.387 . S
H2941 C2937 0.950 . S
H2942 C2939 0.950 . S
C2943 C2934 1.390 . S
C2943 H2936 0.950 . S
C2943 C2940 1.387 . S
C2944 C2945 1.387 . S
C2944 H2948 0.950 . S
C2944 C2953 1.390 . S
C2945 C2944 1.387 . S
C2945 C2947 1.387 . S
H2946 C2953 0.950 . S
C2947 C2945 1.387 . S
C2947 C2949 1.390 . S
C2947 H2951 0.950 . S
H2948 C2944 0.950 . S
C2949 C2947 1.390 . S
C2949 C2950 1.387 . S
C2949 H2952 0.950 . S
C2950 C2949 1.387 . S
C2950 C2953 1.387 . S
H2951 C2947 0.950 . S
H2952 C2949 0.950 . S
C2953 C2944 1.390 . S
C2953 H2946 0.950 . S
C2953 C2950 1.387 . S
C2954 C2955 1.387 . S
C2954 H2958 0.950 . S
C2954 C2963 1.390 . S
C2955 C2954 1.387 . S
C2955 C2957 1.387 . S
H2956 C2963 0.950 . S
C2957 C2955 1.387 . S
C2957 C2959 1.390 . S
C2957 H2961 0.950 . S
H2958 C2954 0.950 . S
C2959 C2957 1.390 . S
C2959 C2960 1.387 . S
C2959 H2962 0.950 . S
C2960 C2959 1.387 . S
C2960 C2963 1.387 . S
H2961 C2957 0.950 . S
H2962 C2959 0.950 . S
C2963 C2954 1.390 . S
C2963 H2956 0.950 . S
C2963 C2960 1.387 . S
C2964 C2965 1.387 . S
C2964 H2968 0.950 . S
C2964 C2973 1.390 . S
C2965 C2964 1.387 . S
C2965 C2967 1.387 . S
H2966 C2973 0.950 . S
C2967 C2965 1.387 . S
C2967 C2969 1.390 . S
C2967 H2971 0.950 . S
H2968 C2964 0.950 . S
C2969 C2967 1.390 . S
C2969 C2970 1.387 . S
C2969 H2972 0.950 . S
C2970 C2969 1.387 . S
C2970 C2973 1.387 . S
H2971 C2967 0.950 . S
H2972 C2969 0.950 . S
C2973 C2964 1.390 . S
C2973 H2966 0.950 . S
C2973 C2970 1.387 . S
C2974 C2975 1.387 . S
C2974 H2978 0.950 . S
C2974 C2983 1.390 . S
C2975 C2974 1.387 . S
C2975 C2977 1.387 . S
H2976 C2983 0.950 . S
C2977 C2975 1.387 . S
C2977 C2979 1.390 . S
C2977 H2981 0.950 . S
H2978 C2974 0.950 . S
C2979 C2977 1.390 . S
C2979 C2980 1.387 . S
C2979 H2982 0.950 . S
C2980 C2979 1.387 . S
C2980 C2983 1.387 . S
H2981 C2977 0.950 . S
H2982 C2979 0.950 . S
C2983 C2974 1.390 . S
C2983 H2976 0.950 . S
C2983 C2980 1.387 . S
C2984 C2985 1.387 . S
C2984 H2988 0.950 . S
C2984 C2993 1.390 . S
C2985 C2984 1.387 . S
C2985 C2987 1.387 . S
H2986 C2993 0.950 . S
C2987 C2985 1.387 . S
C2987 C2989 1.390 . S
C2987 H2991 0.950 . S
H2988 C2984 0.950 . S
C2989 C2987 1.390 . S
C2989 C2990 1.387 . S
C2989 H2992 0.950 . S
C2990 C2989 1.387 . S
C2990 C2993 1.387 . S
H2991 C2987 0.950 . S
H2992 C2989 0.950 . S
C2993 C2984 1.390 . S
C2993 H2986 0.950 . S
C2993 C2990 1.387 . S
C2994 C2995 1.387 . S
C2994 H2998 0.950 . S
C2994 C3003 1.390 . S
C2995 C2994 1.387 . S
C2995 C2997 1.387 1_655 S
H2996 C3003 0.950 . S
C2997 C2995 1.387 1_455 S
C2997 C2999 1.390 . S
C2997 H3001 0.950 . S
H2998 C2994 0.950 . S
C2999 C2997 1.390 . S
C2999 C3000 1.387 1_455 S
C2999 H3002 0.950 . S
C3000 C2999 1.387 1_655 S
C3000 C3003 1.387 . S
H3001 C2997 0.950 . S
H3002 C2999 0.950 . S
C3003 C2994 1.390 . S
C3003 H2996 0.950 . S
C3003 C3000 1.387 . S
C3004 C3005 1.387 . S
C3004 H3008 0.950 . S
C3004 C3013 1.390 . S
C3005 C3004 1.387 . S
C3005 C3007 1.387 . S
H3006 C3013 0.950 . S
C3007 C3005 1.387 . S
C3007 C3009 1.390 . S
C3007 H3011 0.950 . S
H3008 C3004 0.950 . S
C3009 C3007 1.390 . S
C3009 C3010 1.387 . S
C3009 H3012 0.950 . S
C3010 C3009 1.387 . S
C3010 C3013 1.387 . S
H3011 C3007 0.950 . S
H3012 C3009 0.950 . S
C3013 C3004 1.390 . S
C3013 H3006 0.950 . S
C3013 C3010 1.387 . S
C3014 C3015 1.387 . S
C3014 H3018 0.950 . S
C3014 C3023 1.390 . S
C3015 C3014 1.387 . S
C3015 C3017 1.387 1_545 S
H3016 C3023 0.950 . S
C3017 C3015 1.387 1_565 S
C3017 C3019 1.390 . S
C3017 H3021 0.950 . S
H3018 C3014 0.950 . S
C3019 C3017 1.390 . S
C3019 C3020 1.387 1_565 S
C3019 H3022 0.950 . S
C3020 C3019 1.387 1_545 S
C3020 C3023 1.387 . S
H3021 C3017 0.950 . S
H3022 C3019 0.950 . S
C3023 C3014 1.390 . S
C3023 H3016 0.950 . S
C3023 C3020 1.387 . S
C2305 C8 1.400 1_655 S
C2310 C1307 1.077 . S
C2315 C22 1.781 . S
C2320 C1447 1.061 . S
C2330 C1535 1.186 . S
C2325 C37 1.421 . S
C2335 C36 1.470 1_565 S
C2340 C1675 1.071 1_565 S
C2345 C9 1.423 . S
C2350 C1789 1.042 1_455 S
C2355 C23 1.804 . S
C2360 C1877 1.243 . S
C2365 C50 1.328 1_455 S
C2370 C1763 1.084 . S
C2380 C1903 1.412 . S
C2375 C64 1.655 . S
C2390 C1649 1.167 . S
C2385 C79 1.417 1_565 S
C2395 C78 1.423 . S
C2400 C1561 1.075 . S
C2410 C1333 1.070 . S
C2405 C51 1.425 1_655 S
C2415 C65 1.674 . S
C2420 C1421 1.504 . S
C2425 C92 1.845 . S
C2430 C1991 1.256 . S
C2435 C106 1.874 . S
C2440 C2131 1.147 . S
C2450 C2219 1.262 . S
C2445 C121 1.815 . S
C2455 C120 1.828 . S
C2460 C307 1.117 . S
C2465 C93 1.833 . S
C2470 C421 1.102 . S
C2475 C107 1.868 . S
C2480 C509 1.297 . S
C2485 C134 1.606 . S
C2490 C395 1.431 . S
C2495 C148 1.718 . S
C2500 C535 1.502 . S
C2510 C281 1.504 . S
C2505 C163 1.677 . S
C2520 C2245 1.585 . S
C2515 C162 1.809 . S
C2530 C2017 1.485 . S
C2525 C135 1.714 . S
C2540 C2105 1.616 . S
C2535 C149 1.760 . S
C2545 C176 1.745 . S
C2550 C623 1.153 . S
C2555 C190 1.853 . S
C2560 C763 1.115 . S
C2565 C205 1.807 . S
C2570 C851 1.259 . S
C2575 C204 1.930 . S
C2580 C991 1.207 . S
C2590 C1105 1.102 . S
C2585 C177 1.847 . S
C2600 C1193 1.334 . S
C2595 C191 1.894 . S
C2610 C1079 1.532 . S
C2605 C218 1.715 . S
C2620 C1219 1.526 . S
C2615 C232 1.744 . S
C2625 C247 1.679 . S
C2630 C965 1.518 . S
C2640 C877 1.485 . S
C2635 C246 1.699 . S
C2645 C219 1.705 . S
C2650 C649 1.468 . S
C2660 C737 1.588 . S
C2655 C233 1.729 . S
C2670 C263 0.896 . S
C2665 C6 1.781 . S
C2675 C20 1.618 . S
C2680 C377 0.865 . S
C2690 C481 1.185 . S
C2685 C35 1.709 . S
C2700 C595 1.152 . S
C2695 C34 1.628 . S
C2710 C719 0.900 . S
C2705 C7 1.749 . S
C2720 C823 1.152 . S
C2715 C21 1.638 . S
C2725 C48 1.898 . S
C2730 C833 1.400 . S
C2735 C62 1.737 . S
C2740 C605 1.330 . S
C2745 C77 1.842 . S
C2750 C709 1.604 . S
C2755 C76 1.759 . S
C2760 C367 1.549 . S
C2770 C491 1.433 . S
C2765 C49 1.878 . S
C2775 C63 1.760 . S
C2780 C253 1.539 . S
C2790 C947 0.931 . S
C2785 C90 1.707 . S
C2795 C104 1.703 . S
C2800 C1061 0.960 . S
C2805 C119 1.687 . S
C2810 C1165 1.263 . S
C2820 C1279 1.133 . S
C2815 C118 1.324 . S
C2825 C91 1.663 . S
C2830 C1403 0.906 . S
C2835 C105 1.411 . S
C2840 C1507 1.164 . S
C2845 C132 1.513 . S
C2850 C1517 0.959 1_565 S
C2855 C146 1.438 . S
C2860 C1289 0.954 1_455 S
C2870 C1393 1.527 . S
C2865 C161 1.751 . S
C2875 C160 1.706 . S
C2880 C1051 1.535 . S
C2885 C133 1.826 . S
C2890 C1175 1.418 . S
C2900 C937 1.605 . S
C2895 C147 1.828 . S
C2910 C1631 0.960 . S
C2905 C174 1.496 . S
C2915 C188 1.408 . S
C2920 C1745 0.940 . S
C2925 C203 1.630 . S
C2930 C1849 1.181 . S
C2940 C1963 1.176 . S
C2935 C202 1.576 . S
C2950 C2087 0.986 . S
C2945 C175 1.719 . S
C2955 C189 1.713 . S
C2960 C2191 1.255 . S
C2965 C216 1.824 . S
C2970 C2201 1.372 . S
C2975 C230 1.812 . S
C2980 C1973 1.391 . S
C2990 C2077 1.600 . S
C2985 C245 1.799 . S
C3000 C1735 1.134 1_655 S
C2995 C244 1.339 . S
C3010 C1859 1.354 . S
C3005 C217 1.781 . S
C3015 C231 1.445 . S
C3020 C1621 1.184 1_545 S
