# Generated by pormake.
# Topology pto, (3,4)-cn, num edge types: 1
# Building blocks:
#     Node 0, Type 0, BuildingBlock: WUSLED_clean_sbu_0, # of connection points: 3
#     Node 1, Type 0, BuildingBlock: WUSLED_clean_sbu_0, # of connection points: 3
#     Node 2, Type 0, BuildingBlock: WUSLED_clean_sbu_0, # of connection points: 3
#     Node 3, Type 0, BuildingBlock: WUSLED_clean_sbu_0, # of connection points: 3
#     Node 4, Type 0, BuildingBlock: WUSLED_clean_sbu_0, # of connection points: 3
#     Node 5, Type 0, BuildingBlock: WUSLED_clean_sbu_0, # of connection points: 3
#     Node 6, Type 0, BuildingBlock: WUSLED_clean_sbu_0, # of connection points: 3
#     Node 7, Type 0, BuildingBlock: WUSLED_clean_sbu_0, # of connection points: 3
#     Node 8, Type 1, BuildingBlock: AZAVOO_clean_linker_0, # of connection points: 4
#     Node 9, Type 1, BuildingBlock: AZAVOO_clean_linker_0, # of connection points: 4
#     Node 10, Type 1, BuildingBlock: AZAVOO_clean_linker_0, # of connection points: 4
#     Node 11, Type 1, BuildingBlock: AZAVOO_clean_linker_0, # of connection points: 4
#     Node 12, Type 1, BuildingBlock: AZAVOO_clean_linker_0, # of connection points: 4
#     Node 13, Type 1, BuildingBlock: AZAVOO_clean_linker_0, # of connection points: 4
#     Edge 14, Type (0, 1), BuildingBlock: XIVTED_clean_linker_0, # of connection points: 2
#     Edge 15, Type (0, 1), BuildingBlock: XIVTED_clean_linker_0, # of connection points: 2
#     Edge 16, Type (0, 1), BuildingBlock: XIVTED_clean_linker_0, # of connection points: 2
#     Edge 17, Type (0, 1), BuildingBlock: XIVTED_clean_linker_0, # of connection points: 2
#     Edge 18, Type (0, 1), BuildingBlock: XIVTED_clean_linker_0, # of connection points: 2
#     Edge 19, Type (0, 1), BuildingBlock: XIVTED_clean_linker_0, # of connection points: 2
#     Edge 20, Type (0, 1), BuildingBlock: XIVTED_clean_linker_0, # of connection points: 2
#     Edge 21, Type (0, 1), BuildingBlock: XIVTED_clean_linker_0, # of connection points: 2
#     Edge 22, Type (0, 1), BuildingBlock: XIVTED_clean_linker_0, # of connection points: 2
#     Edge 23, Type (0, 1), BuildingBlock: XIVTED_clean_linker_0, # of connection points: 2
#     Edge 24, Type (0, 1), BuildingBlock: XIVTED_clean_linker_0, # of connection points: 2
#     Edge 25, Type (0, 1), BuildingBlock: XIVTED_clean_linker_0, # of connection points: 2
#     Edge 26, Type (0, 1), BuildingBlock: XIVTED_clean_linker_0, # of connection points: 2
#     Edge 27, Type (0, 1), BuildingBlock: XIVTED_clean_linker_0, # of connection points: 2
#     Edge 28, Type (0, 1), BuildingBlock: XIVTED_clean_linker_0, # of connection points: 2
#     Edge 29, Type (0, 1), BuildingBlock: XIVTED_clean_linker_0, # of connection points: 2
#     Edge 30, Type (0, 1), BuildingBlock: XIVTED_clean_linker_0, # of connection points: 2
#     Edge 31, Type (0, 1), BuildingBlock: XIVTED_clean_linker_0, # of connection points: 2
#     Edge 32, Type (0, 1), BuildingBlock: XIVTED_clean_linker_0, # of connection points: 2
#     Edge 33, Type (0, 1), BuildingBlock: XIVTED_clean_linker_0, # of connection points: 2
#     Edge 34, Type (0, 1), BuildingBlock: XIVTED_clean_linker_0, # of connection points: 2
#     Edge 35, Type (0, 1), BuildingBlock: XIVTED_clean_linker_0, # of connection points: 2
#     Edge 36, Type (0, 1), BuildingBlock: XIVTED_clean_linker_0, # of connection points: 2
#     Edge 37, Type (0, 1), BuildingBlock: XIVTED_clean_linker_0, # of connection points: 2
# Relax obj value: 0.054
# Max RMSD: 0.243
# Mean RMSD: 0.095
data_MOF--net-pto--node1-WUSLED_clean_sbu_0--node2-AZAVOO_clean_linker_0--edge1-XIVTED_clean_linker_0
_symmetry_space_group_name_H-M    P1
_symmetry_Int_Tables_number       1
_symmetry_cell_setting            triclinic
loop_
_symmetry_equiv_pos_as_xyz
'x, y, z'
_cell_length_a     61.376402
_cell_length_b     61.288429
_cell_length_c     60.903673
_cell_angle_alpha  88.854713
_cell_angle_beta   90.174039
_cell_angle_gamma 92.462851
loop_
_atom_site_label
_atom_site_type_symbol
_atom_site_fract_x
_atom_site_fract_y
_atom_site_fract_z
_atom_type_partial_charge
C0 C 0.24389 0.25388 0.29282 0.0
C1 C 0.26179 0.24043 0.29219 0.0
C2 C 0.24766 0.21937 0.32383 0.0
C3 C 0.26368 0.22334 0.30757 0.0
C4 C 0.2297 0.23292 0.32427 0.0
C5 C 0.22786 0.25002 0.3089 0.0
U6 U 0.26354 0.28379 0.2411 0.0
O7 O 0.24533 0.2981 0.21355 0.0
O8 O 0.26759 0.31888 0.23314 0.0
C9 C 0.25257 0.31809 0.21771 0.0
C10 C 0.24178 0.27182 0.27667 0.0
C11 C 0.23575 0.33436 0.21921 0.0
C12 C 0.20717 0.35139 0.23941 0.0
C13 C 0.22308 0.33578 0.23821 0.0
C14 C 0.21635 0.36421 0.20256 0.0
C15 C 0.2036 0.36582 0.22159 0.0
C16 C 0.23228 0.34862 0.20141 0.0
C17 C 0.31273 0.26074 0.2118 0.0
C18 C 0.33219 0.27853 0.18119 0.0
C19 C 0.34138 0.24218 0.19339 0.0
C20 C 0.32536 0.24245 0.20957 0.0
C21 C 0.34516 0.26027 0.17911 0.0
C22 C 0.31609 0.27876 0.19744 0.0
C23 C 0.29641 0.26064 0.22938 0.0
O24 O 0.25789 0.28667 0.27654 0.0
O25 O 0.23581 0.26579 0.25689 0.0
O26 O 0.27617 0.25607 0.22339 0.0
O27 O 0.29832 0.27684 0.24317 0.0
H28 H 0.27434 0.24319 0.27984 0.0
H29 H 0.27785 0.21344 0.30689 0.0
H30 H 0.21689 0.23014 0.33632 0.0
H31 H 0.21387 0.26018 0.30953 0.0
H32 H 0.19787 0.35233 0.25442 0.0
H33 H 0.22556 0.32486 0.25213 0.0
H34 H 0.21383 0.37478 0.18841 0.0
H35 H 0.24185 0.34766 0.18657 0.0
H36 H 0.33477 0.29277 0.17056 0.0
H37 H 0.35074 0.22768 0.19199 0.0
H38 H 0.32287 0.22835 0.22044 0.0
H39 H 0.30641 0.29303 0.19894 0.0
C40 C 0.24026 0.82103 0.72775 0.0
C41 C 0.26016 0.83304 0.72552 0.0
C42 C 0.24544 0.85386 0.69469 0.0
C43 C 0.26273 0.84935 0.70913 0.0
C44 C 0.22537 0.84217 0.69751 0.0
C45 C 0.22285 0.82592 0.71385 0.0
U46 U 0.2553 0.78819 0.78007 0.0
O47 O 0.2337 0.7704 0.80367 0.0
O48 O 0.25695 0.75252 0.78434 0.0
C49 C 0.2404 0.7512 0.79802 0.0
C50 C 0.23748 0.80261 0.74357 0.0
C51 C 0.22342 0.73399 0.79351 0.0
C52 C 0.18557 0.72193 0.78751 0.0
C53 C 0.20136 0.73876 0.79064 0.0
C54 C 0.21362 0.69537 0.78958 0.0
C55 C 0.19151 0.70002 0.78702 0.0
C56 C 0.22936 0.71216 0.79286 0.0
C57 C 0.30177 0.80641 0.81809 0.0
C58 C 0.31448 0.78309 0.84783 0.0
C59 C 0.32947 0.82013 0.84349 0.0
C60 C 0.316 0.82331 0.82523 0.0
C61 C 0.32898 0.79994 0.85496 0.0
C62 C 0.30096 0.78632 0.82958 0.0
C63 C 0.2881 0.80987 0.79852 0.0
O64 O 0.25318 0.78868 0.74406 0.0
O65 O 0.23037 0.8073 0.76319 0.0
O66 O 0.26759 0.81374 0.80242 0.0
O67 O 0.29051 0.79597 0.78264 0.0
H68 H 0.27381 0.8295 0.73614 0.0
H69 H 0.27843 0.85793 0.70735 0.0
H70 H 0.21159 0.84548 0.687 0.0
H71 H 0.20734 0.81689 0.71538 0.0
H72 H 0.1687 0.72607 0.78537 0.0
H73 H 0.19626 0.75545 0.79099 0.0
H74 H 0.21872 0.67867 0.78958 0.0
H75 H 0.24622 0.70805 0.79518 0.0
H76 H 0.31349 0.76744 0.85641 0.0
H77 H 0.34061 0.83336 0.84832 0.0
H78 H 0.31685 0.83892 0.81653 0.0
H79 H 0.28996 0.77311 0.82437 0.0
C80 C 0.71806 0.78102 0.23872 0.0
C81 C 0.71602 0.76262 0.22541 0.0
C82 C 0.68511 0.77815 0.20628 0.0
C83 C 0.69966 0.76117 0.20937 0.0
C84 C 0.68738 0.79658 0.21966 0.0
C85 C 0.70368 0.79797 0.23572 0.0
U86 U 0.77141 0.76352 0.26515 0.0
O87 O 0.79849 0.7833 0.27912 0.0
O88 O 0.77986 0.75983 0.30022 0.0
C89 C 0.79472 0.77592 0.29923 0.0
C90 C 0.73505 0.78283 0.25576 0.0
C91 C 0.79358 0.7925 0.31642 0.0
C92 C 0.7907 0.83017 0.32753 0.0
C93 C 0.79029 0.81454 0.31111 0.0
C94 C 0.79685 0.8019 0.35494 0.0
C95 C 0.79418 0.82404 0.34959 0.0
C96 C 0.79666 0.7863 0.33847 0.0
C97 C 0.80425 0.71888 0.24029 0.0
C98 C 0.83571 0.70396 0.25867 0.0
C99 C 0.82874 0.69639 0.22034 0.0
C100 C 0.81017 0.70879 0.22091 0.0
C101 C 0.84175 0.69375 0.23922 0.0
C102 C 0.81716 0.71646 0.25918 0.0
C103 C 0.785 0.73237 0.24033 0.0
O104 O 0.73606 0.76606 0.26947 0.0
O105 O 0.7543 0.79032 0.24897 0.0
O106 O 0.78899 0.75323 0.23596 0.0
O107 O 0.77137 0.72877 0.25676 0.0
H108 H 0.72702 0.74936 0.22749 0.0
H109 H 0.69827 0.74662 0.19958 0.0
H110 H 0.67675 0.81012 0.21753 0.0
H111 H 0.70511 0.81234 0.24579 0.0
H112 H 0.78831 0.84707 0.32297 0.0
H113 H 0.78768 0.81979 0.29425 0.0
H114 H 0.79971 0.79673 0.37177 0.0
H115 H 0.79927 0.76941 0.34294 0.0
H116 H 0.84516 0.70211 0.27358 0.0
H117 H 0.83307 0.68915 0.20496 0.0
H118 H 0.80052 0.71067 0.20612 0.0
H119 H 0.8129 0.72427 0.27429 0.0
C120 C 0.81906 0.13561 0.78034 0.0
C121 C 0.83853 0.13946 0.76862 0.0
C122 C 0.82781 0.11064 0.74326 0.0
C123 C 0.84291 0.12703 0.75027 0.0
C124 C 0.80859 0.10654 0.75549 0.0
C125 C 0.80428 0.11893 0.77386 0.0
U126 U 0.82824 0.18755 0.81298 0.0
O127 O 0.80469 0.21101 0.82372 0.0
O128 O 0.82377 0.19329 0.84828 0.0
C129 C 0.8076 0.20629 0.84464 0.0
C130 C 0.81322 0.14986 0.79829 0.0
C131 C 0.78752 0.20109 0.8571 0.0
C132 C 0.75096 0.1844 0.85939 0.0
C133 C 0.77073 0.18767 0.84823 0.0
C134 C 0.76494 0.20702 0.88889 0.0
C135 C 0.74775 0.1943 0.87968 0.0
C136 C 0.78464 0.21044 0.87763 0.0
C137 C 0.87382 0.22898 0.79796 0.0
C138 C 0.87277 0.26764 0.80584 0.0
C139 C 0.9067 0.25233 0.79478 0.0
C140 C 0.89614 0.23172 0.79333 0.0
C141 C 0.89503 0.27057 0.8007 0.0
C142 C 0.86229 0.247 0.80462 0.0
C143 C 0.86257 0.20754 0.79505 0.0
O144 O 0.82734 0.1516 0.81451 0.0
O145 O 0.80568 0.16868 0.79186 0.0
O146 O 0.84286 0.20817 0.78663 0.0
O147 O 0.86393 0.19355 0.8116 0.0
H148 H 0.85009 0.15238 0.77339 0.0
H149 H 0.85798 0.13044 0.74141 0.0
H150 H 0.79645 0.09431 0.7504 0.0
H151 H 0.78909 0.11589 0.78264 0.0
H152 H 0.73809 0.17431 0.85203 0.0
H153 H 0.77274 0.18015 0.83246 0.0
H154 H 0.76288 0.21501 0.9044 0.0
H155 H 0.79745 0.22082 0.88471 0.0
H156 H 0.86344 0.28134 0.81074 0.0
H157 H 0.92383 0.25413 0.7906 0.0
H158 H 0.9053 0.21798 0.78821 0.0
H159 H 0.84508 0.2452 0.80851 0.0
C160 C 0.821 0.70591 0.77685 0.0
C161 C 0.84016 0.71184 0.76527 0.0
C162 C 0.856 0.67745 0.77625 0.0
C163 C 0.85752 0.69776 0.765 0.0
C164 C 0.83649 0.67142 0.78735 0.0
C165 C 0.8192 0.68554 0.78767 0.0
U166 U 0.79091 0.75547 0.75597 0.0
O167 O 0.75584 0.76119 0.75393 0.0
O168 O 0.77713 0.78219 0.77438 0.0
C169 C 0.75704 0.77683 0.76843 0.0
C170 C 0.80306 0.72099 0.77833 0.0
C171 C 0.74073 0.7756 0.78622 0.0
C172 C 0.71487 0.7552 0.80986 0.0
C173 C 0.73094 0.75563 0.79354 0.0
C174 C 0.71859 0.79459 0.81209 0.0
C175 C 0.70837 0.77472 0.81924 0.0
C176 C 0.73452 0.79501 0.79573 0.0
C177 C 0.81199 0.78733 0.70517 0.0
C178 C 0.80351 0.82475 0.69571 0.0
C179 C 0.81905 0.80187 0.66835 0.0
C180 C 0.81947 0.78463 0.68372 0.0
C181 C 0.81124 0.82219 0.67422 0.0
C182 C 0.80378 0.80744 0.71102 0.0
C183 C 0.81314 0.76912 0.72122 0.0
O184 O 0.80888 0.74112 0.78354 0.0
O185 O 0.78855 0.71992 0.76243 0.0
O186 O 0.79709 0.75426 0.72039 0.0
O187 O 0.81852 0.77453 0.74137 0.0
H188 H 0.84183 0.72751 0.75674 0.0
H189 H 0.87233 0.70304 0.75645 0.0
H190 H 0.83455 0.65575 0.79582 0.0
H191 H 0.80448 0.68064 0.79657 0.0
H192 H 0.70725 0.73962 0.81479 0.0
H193 H 0.7355 0.7404 0.7865 0.0
H194 H 0.71437 0.8099 0.81921 0.0
H195 H 0.74195 0.81057 0.7904 0.0
H196 H 0.79712 0.84011 0.70064 0.0
H197 H 0.82529 0.79944 0.652 0.0
H198 H 0.82584 0.76922 0.6789 0.0
H199 H 0.7977 0.8098 0.72745 0.0
C200 C 0.66944 0.27376 0.26694 0.0
C201 C 0.67302 0.28496 0.24688 0.0
C202 C 0.63709 0.2725 0.23393 0.0
C203 C 0.65705 0.28425 0.2305 0.0
C204 C 0.63334 0.26193 0.2544 0.0
C205 C 0.64942 0.26252 0.27074 0.0
U206 U 0.72296 0.2965 0.28996 0.0
O207 O 0.73465 0.29913 0.32414 0.0
O208 O 0.7523 0.27997 0.30047 0.0
C209 C 0.75021 0.28542 0.32109 0.0
C210 C 0.68684 0.27306 0.28352 0.0
C211 C 0.75117 0.26714 0.33698 0.0
C212 C 0.74136 0.22963 0.34768 0.0
C213 C 0.73867 0.24775 0.33379 0.0
C214 C 0.76832 0.25043 0.36871 0.0
C215 C 0.75648 0.23066 0.36507 0.0
C216 C 0.76573 0.2685 0.3547 0.0
C217 C 0.75161 0.34541 0.26156 0.0
C218 C 0.78581 0.36112 0.27546 0.0
C219 C 0.77347 0.37085 0.23885 0.0
C220 C 0.75479 0.35728 0.24186 0.0
C221 C 0.78928 0.37278 0.25555 0.0
C222 C 0.76717 0.34746 0.2784 0.0
C223 C 0.73275 0.32999 0.26381 0.0
O224 O 0.70591 0.26779 0.27597 0.0
O225 O 0.6881 0.28956 0.29699 0.0
O226 O 0.72114 0.33152 0.2818 0.0
O227 O 0.73667 0.30976 0.25894 0.0
H228 H 0.68839 0.29379 0.24369 0.0
H229 H 0.6607 0.29233 0.21489 0.0
H230 H 0.61804 0.25304 0.25777 0.0
H231 H 0.64636 0.25391 0.28621 0.0
H232 H 0.7318 0.21472 0.34466 0.0
H233 H 0.72725 0.24645 0.32023 0.0
H234 H 0.78019 0.25167 0.38187 0.0
H235 H 0.77553 0.28335 0.35736 0.0
H236 H 0.7978 0.36207 0.28853 0.0
H237 H 0.77556 0.3798 0.22344 0.0
H238 H 0.74296 0.3558 0.22867 0.0
H239 H 0.76508 0.33819 0.29365 0.0
C240 C 0.26045 0.23742 0.70661 0.0
C241 C 0.26859 0.21785 0.71499 0.0
C242 C 0.26336 0.20084 0.67943 0.0
C243 C 0.26991 0.1997 0.70157 0.0
C244 C 0.25544 0.22056 0.67106 0.0
C245 C 0.25395 0.23866 0.68456 0.0
U246 U 0.27978 0.26941 0.7561 0.0
O247 O 0.28524 0.30467 0.76113 0.0
O248 O 0.2616 0.28576 0.78168 0.0
C249 C 0.27014 0.30517 0.77637 0.0
C250 C 0.25892 0.25661 0.72065 0.0
C251 C 0.25463 0.32278 0.77433 0.0
C252 C 0.23084 0.34564 0.75273 0.0
C253 C 0.24542 0.32867 0.75405 0.0
C254 C 0.2344 0.35077 0.79193 0.0
C255 C 0.22517 0.35694 0.77168 0.0
C256 C 0.24898 0.3339 0.7932 0.0
C257 C 0.32566 0.24557 0.79068 0.0
C258 C 0.34422 0.26452 0.82053 0.0
C259 C 0.35027 0.22627 0.81465 0.0
C260 C 0.33594 0.22643 0.79681 0.0
C261 C 0.3547 0.24532 0.8267 0.0
C262 C 0.32978 0.26463 0.80267 0.0
C263 C 0.31063 0.24515 0.77187 0.0
O264 O 0.25161 0.25247 0.74064 0.0
O265 O 0.2759 0.27043 0.7201 0.0
O266 O 0.31411 0.26054 0.75679 0.0
O267 O 0.28991 0.24176 0.77675 0.0
H268 H 0.27394 0.21662 0.73192 0.0
H269 H 0.27637 0.18487 0.70843 0.0
H270 H 0.25011 0.22192 0.65414 0.0
H271 H 0.2477 0.25364 0.67778 0.0
H272 H 0.22423 0.35006 0.73683 0.0
H273 H 0.24955 0.32023 0.73927 0.0
H274 H 0.23012 0.35876 0.80692 0.0
H275 H 0.25582 0.32949 0.80902 0.0
H276 H 0.34738 0.27952 0.82931 0.0
H277 H 0.35768 0.21109 0.81915 0.0
H278 H 0.33281 0.21153 0.78782 0.0
H279 H 0.3219 0.27956 0.79818 0.0
C280 C 0.22673 0.72839 0.28058 0.0
C281 C 0.23131 0.71297 0.26469 0.0
C282 C 0.19556 0.69478 0.27049 0.0
C283 C 0.21586 0.69628 0.25969 0.0
C284 C 0.19106 0.71052 0.2862 0.0
C285 C 0.20651 0.7271 0.2912 0.0
U286 U 0.27923 0.76332 0.27016 0.0
O287 O 0.28539 0.79863 0.27391 0.0
O288 O 0.30375 0.77559 0.29397 0.0
C289 C 0.29897 0.79606 0.29042 0.0
C290 C 0.24272 0.74592 0.2864 0.0
C291 C 0.29459 0.80875 0.31015 0.0
C292 C 0.2693 0.82401 0.33579 0.0
C293 C 0.27321 0.81109 0.31763 0.0
C294 C 0.30812 0.83183 0.33966 0.0
C295 C 0.2867 0.83469 0.34693 0.0
C296 C 0.312 0.81903 0.32142 0.0
C297 C 0.31337 0.75267 0.21852 0.0
C298 C 0.35047 0.76615 0.21069 0.0
C299 C 0.32798 0.75081 0.18161 0.0
C300 C 0.31089 0.74695 0.19647 0.0
C301 C 0.34799 0.76045 0.1885 0.0
C302 C 0.33325 0.76238 0.22557 0.0
C303 C 0.29493 0.74819 0.23364 0.0
O304 O 0.26211 0.73962 0.29234 0.0
O305 O 0.24348 0.7631 0.27313 0.0
O306 O 0.28028 0.76319 0.23403 0.0
O307 O 0.29965 0.74029 0.25324 0.0
H308 H 0.24687 0.71376 0.25628 0.0
H309 H 0.21995 0.68437 0.24765 0.0
H310 H 0.17549 0.71017 0.29454 0.0
H311 H 0.20264 0.73896 0.3034 0.0
H312 H 0.25264 0.82563 0.34113 0.0
H313 H 0.25953 0.80312 0.3093 0.0
H314 H 0.32187 0.83997 0.34771 0.0
H315 H 0.32861 0.8174 0.31591 0.0
H316 H 0.36561 0.77377 0.21647 0.0
H317 H 0.32561 0.74592 0.16474 0.0
H318 H 0.29569 0.73938 0.19074 0.0
H319 H 0.33546 0.76703 0.24253 0.0
H320 H 0.02537 0.37432 0.23862 0.0
H321 H 0.8771 0.57658 0.20868 0.0
H322 H 0.0471 0.4915 0.26532 0.0
H323 H 0.07944 0.46955 0.26504 0.0
H324 H 0.08846 0.48512 0.19606 0.0
H325 H 0.05611 0.50727 0.19661 0.0
H326 H 0.00947 0.46437 0.26209 0.0
H327 H 0.01548 0.42532 0.25885 0.0
H328 H 0.02199 0.43398 0.18848 0.0
H329 H 0.01586 0.47297 0.19199 0.0
H330 H 0.97205 0.48258 0.26597 0.0
H331 H 0.93873 0.45962 0.27006 0.0
H332 H 0.92613 0.4671 0.20046 0.0
H333 H 0.96005 0.48945 0.1965 0.0
H334 H 0.95894 0.53262 0.26406 0.0
H335 H 0.92318 0.5489 0.26401 0.0
H336 H 0.92479 0.55315 0.19306 0.0
H337 H 0.96052 0.53686 0.1934 0.0
H338 H 0.9967 0.56485 0.2656 0.0
H339 H 0.9744 0.59695 0.2663 0.0
H340 H 0.97516 0.60023 0.19539 0.0
H341 H 0.99719 0.56796 0.1949 0.0
H342 H 0.05036 0.53628 0.2666 0.0
H343 H 0.08092 0.56226 0.27264 0.0
H344 H 0.07048 0.59105 0.20826 0.0
H345 H 0.04054 0.56415 0.20199 0.0
O346 O 0.02293 0.38976 0.23953 0.0
O347 O 0.02625 0.39513 0.20345 0.0
O348 O 0.89046 0.56624 0.24559 0.0
O349 O 0.89086 0.56947 0.20915 0.0
C350 C 0.02725 0.50994 0.23023 0.0
C351 C 0.00896 0.49511 0.22918 0.0
C352 C 0.98772 0.50287 0.22919 0.0
C353 C 0.98469 0.52548 0.22894 0.0
C354 C 1.00288 0.54046 0.22961 0.0
C355 C 0.02426 0.53273 0.23074 0.0
C356 C 0.04934 0.50103 0.23102 0.0
C357 C 0.05643 0.49065 0.25031 0.0
C358 C 0.07474 0.47793 0.25004 0.0
C359 C 0.08634 0.47534 0.23045 0.0
C360 C 0.07997 0.48688 0.21144 0.0
C361 C 0.06155 0.4996 0.21172 0.0
C362 C 0.0121 0.47138 0.22726 0.0
C363 C 0.01204 0.45774 0.24599 0.0
C364 C 0.01555 0.43547 0.24409 0.0
C365 C 0.0192 0.42652 0.2234 0.0
C366 C 0.01921 0.44033 0.20466 0.0
C367 C 0.01568 0.46258 0.2066 0.0
C368 C 0.96852 0.48745 0.23092 0.0
C369 C 0.96227 0.47889 0.25156 0.0
C370 C 0.94308 0.46602 0.25389 0.0
C371 C 0.92963 0.46165 0.23562 0.0
C372 C 0.93621 0.46994 0.21483 0.0
C373 C 0.95552 0.48275 0.21252 0.0
C374 C 0.96225 0.53364 0.22875 0.0
C375 C 0.9514 0.53689 0.24854 0.0
C376 C 0.93104 0.54625 0.24846 0.0
C377 C 0.92117 0.55243 0.22852 0.0
C378 C 0.93193 0.54863 0.20869 0.0
C379 C 0.9523 0.53928 0.20882 0.0
C380 C 0.99856 0.56407 0.23021 0.0
C381 C 0.99306 0.57322 0.25028 0.0
C382 C 0.98015 0.59148 0.25062 0.0
C383 C 0.9726 0.60078 0.23087 0.0
C384 C 0.98039 0.59314 0.21086 0.0
C385 C 0.99331 0.57493 0.21054 0.0
C386 C 0.04321 0.54827 0.23385 0.0
C387 C 0.05486 0.54801 0.25368 0.0
C388 C 0.07218 0.56307 0.25719 0.0
C389 C 0.07811 0.57894 0.24102 0.0
C390 C 0.06655 0.57896 0.221 0.0
C391 C 0.04929 0.56373 0.21745 0.0
C392 C 0.02301 0.40289 0.22143 0.0
C393 C 0.8999 0.56307 0.22836 0.0
H394 H 0.0844 0.36739 0.80805 0.0
H395 H 0.88183 0.50459 0.76926 0.0
H396 H 0.0773 0.48685 0.81546 0.0
H397 H 0.11214 0.46935 0.81186 0.0
H398 H 0.10766 0.47615 0.74126 0.0
H399 H 0.07268 0.49342 0.74507 0.0
H400 H 0.0427 0.45032 0.82028 0.0
H401 H 0.05957 0.41484 0.82183 0.0
H402 H 0.06494 0.41633 0.75101 0.0
H403 H 0.0478 0.45169 0.74973 0.0
H404 H 0.99682 0.45836 0.82323 0.0
H405 H 0.97539 0.42379 0.82758 0.0
H406 H 0.97413 0.41708 0.7571 0.0
H407 H 0.99571 0.45154 0.75296 0.0
H408 H 0.97902 0.5106 0.81883 0.0
H409 H 0.93956 0.51485 0.82013 0.0
H410 H 0.93418 0.49411 0.75278 0.0
H411 H 0.97368 0.49017 0.75168 0.0
H412 H 0.01195 0.54692 0.8143 0.0
H413 H 0.98873 0.57843 0.81277 0.0
H414 H 0.9747 0.56575 0.74448 0.0
H415 H 0.99848 0.5348 0.74608 0.0
H416 H 0.05492 0.53826 0.81646 0.0
H417 H 0.0794 0.57087 0.81616 0.0
H418 H 0.08216 0.56923 0.7453 0.0
H419 H 0.0577 0.53645 0.74587 0.0
O420 O 0.0775 0.38127 0.80705 0.0
O421 O 0.08022 0.38301 0.77064 0.0
O422 O 0.90109 0.51365 0.8038 0.0
O423 O 0.89743 0.50298 0.76924 0.0
C424 C 0.04872 0.49435 0.78229 0.0
C425 C 0.03475 0.47544 0.78413 0.0
C426 C 0.01203 0.47735 0.78533 0.0
C427 C 1.00311 0.49813 0.78425 0.0
C428 C 0.01699 0.51713 0.78231 0.0
C429 C 0.03988 0.51526 0.7817 0.0
C430 C 0.07253 0.49149 0.78054 0.0
C431 C 0.08435 0.48547 0.79928 0.0
C432 C 0.1042 0.47533 0.79717 0.0
C433 C 0.11247 0.47102 0.77625 0.0
C434 C 0.10153 0.47893 0.75758 0.0
C435 C 0.08172 0.48913 0.75973 0.0
C436 C 0.04406 0.45348 0.7849 0.0
C437 C 0.04737 0.44283 0.80513 0.0
C438 C 0.05708 0.42263 0.80596 0.0
C439 C 0.06366 0.41277 0.78654 0.0
C440 C 0.06008 0.42347 0.76627 0.0
C441 C 0.05029 0.44363 0.76547 0.0
C442 C 0.99766 0.45741 0.7878 0.0
C443 C 0.99172 0.44948 0.80877 0.0
C444 C 0.97964 0.42973 0.81121 0.0
C445 C 0.97312 0.41776 0.79267 0.0
C446 C 0.97873 0.42606 0.77165 0.0
C447 C 0.99105 0.44567 0.76925 0.0
C448 C 0.97912 0.50004 0.78519 0.0
C449 C 0.96926 0.50696 0.80441 0.0
C450 C 0.94673 0.50937 0.80509 0.0
C451 C 0.9337 0.50481 0.78654 0.0
C452 C 0.94371 0.49774 0.76735 0.0
C453 C 0.96624 0.4954 0.76669 0.0
C454 C 0.00705 0.53872 0.78025 0.0
C455 C 1.00445 0.55146 0.79884 0.0
C456 C 0.9909 0.56924 0.798 0.0
C457 C 0.97961 0.5745 0.77856 0.0
C458 C 0.98328 0.56237 0.75965 0.0
C459 C 0.99688 0.54466 0.7605 0.0
C460 C 0.05454 0.53509 0.7812 0.0
C461 C 0.06077 0.54502 0.80089 0.0
C462 C 0.07466 0.5637 0.80066 0.0
C463 C 0.08269 0.57271 0.78069 0.0
C464 C 0.07642 0.5626 0.76095 0.0
C465 C 0.0624 0.54396 0.76122 0.0
C466 C 0.07428 0.39146 0.7875 0.0
C467 C 0.90979 0.50744 0.78714 0.0
H468 H 0.23361 0.9876 0.36375 0.0
H469 H 0.29197 0.16865 0.53159 0.0
H470 H 0.22839 0.98089 0.48222 0.0
H471 H 0.22966 0.94707 0.46174 0.0
H472 H 0.29931 0.94654 0.47241 0.0
H473 H 0.29767 0.98003 0.49338 0.0
H474 H 0.22672 0.02268 0.45199 0.0
H475 H 0.22327 0.00977 0.4143 0.0
H476 H 0.29118 0.99359 0.41533 0.0
H477 H 0.29444 0.00681 0.4529 0.0
H478 H 0.22904 0.07053 0.47493 0.0
H479 H 0.22671 0.09958 0.44698 0.0
H480 H 0.2913 0.08588 0.42435 0.0
H481 H 0.2934 0.05676 0.45237 0.0
H482 H 0.23341 0.07482 0.52356 0.0
H483 H 0.23624 0.11298 0.5347 0.0
H484 H 0.30233 0.11829 0.51012 0.0
H485 H 0.29935 0.08001 0.49932 0.0
H486 H 0.23452 0.03735 0.55375 0.0
H487 H 0.23594 0.06158 0.58532 0.0
H488 H 0.30444 0.07584 0.57329 0.0
H489 H 0.30284 0.05167 0.54183 0.0
H490 H 0.23069 0.98507 0.529 0.0
H491 H 0.2286 0.95823 0.55921 0.0
H492 H 0.29516 0.97585 0.57712 0.0
H493 H 0.29698 1.00287 0.54687 0.0
O494 O 0.23541 0.99294 0.37852 0.0
O495 O 0.27034 0.98473 0.37999 0.0
O496 O 0.25631 0.14999 0.53958 0.0
O497 O 0.29029 0.15364 0.52704 0.0
C498 C 0.26321 0.00627 0.49543 0.0
C499 C 0.2625 0.02234 0.47839 0.0
C500 C 0.26304 0.04469 0.48343 0.0
C501 C 0.265 0.05108 0.50547 0.0
C502 C 0.26608 0.03514 0.52257 0.0
C503 C 0.26474 0.01264 0.51765 0.0
C504 C 0.26293 0.9829 0.48931 0.0
C505 C 0.24376 0.97297 0.48086 0.0
C506 C 0.2446 0.95382 0.46885 0.0
C507 C 0.26467 0.9443 0.46496 0.0
C508 C 0.28356 0.95331 0.47511 0.0
C509 C 0.28267 0.97243 0.48722 0.0
C510 C 0.2608 0.01561 0.45513 0.0
C511 C 0.24086 0.01651 0.44395 0.0
C512 C 0.23893 0.00905 0.42247 0.0
C513 C 0.25693 1.00056 0.41183 0.0
C514 C 0.27698 0.99997 0.42305 0.0
C515 C 0.2789 0.00751 0.44449 0.0
C516 C 0.26139 0.06157 0.46569 0.0
C517 C 0.24265 0.07379 0.46388 0.0
C518 C 0.24141 0.09044 0.44798 0.0
C519 C 0.25888 0.09514 0.4335 0.0
C520 C 0.27749 0.08255 0.4351 0.0
C521 C 0.27875 0.06595 0.45111 0.0
C522 C 0.26621 0.07467 0.51074 0.0
C523 C 0.24846 0.08429 0.52055 0.0
C524 C 0.25012 0.10608 0.5269 0.0
C525 C 0.26955 0.11867 0.52338 0.0
C526 C 0.28716 0.10905 0.51312 0.0
C527 C 0.28548 0.08723 0.50685 0.0
C528 C 0.26856 0.0428 0.54547 0.0
C529 C 0.25003 0.04491 0.55857 0.0
C530 C 0.25085 0.0589 0.5765 0.0
C531 C 0.27021 0.07097 0.58147 0.0
C532 C 0.28921 0.06707 0.5696 0.0
C533 C 0.28841 0.05303 0.55182 0.0
C534 C 0.264 0.99589 0.53566 0.0
C535 C 0.24488 0.98301 0.53934 0.0
C536 C 0.24374 0.96763 0.5566 0.0
C537 C 0.26173 0.96481 0.57062 0.0
C538 C 0.28092 0.97776 0.56684 0.0
C539 C 0.28204 0.99313 0.5495 0.0
C540 C 0.25473 0.99226 0.38916 0.0
C541 C 0.27156 0.14169 0.53049 0.0
H542 H 0.49359 0.80456 0.86532 0.0
H543 H 0.66869 0.75157 0.03459 0.0
H544 H 0.48876 0.81632 0.98513 0.0
H545 H 0.45386 0.81904 0.9662 0.0
H546 H 0.43894 0.75067 0.98055 0.0
H547 H 0.47425 0.74809 0.99921 0.0
H548 H 0.5289 0.81321 0.95421 0.0
H549 H 0.51678 0.81575 0.91595 0.0
H550 H 0.48897 0.7498 0.92112 0.0
H551 H 0.50144 0.74741 0.95927 0.0
H552 H 0.57441 0.80957 0.97515 0.0
H553 H 0.602 0.80845 0.94623 0.0
H554 H 0.58024 0.74223 0.932 0.0
H555 H 0.55283 0.74348 0.96111 0.0
H556 H 0.57823 0.808 0.02737 0.0
H557 H 0.61666 0.80611 0.03774 0.0
H558 H 0.61653 0.7396 0.01528 0.0
H559 H 0.57801 0.74165 1.00524 0.0
H560 H 0.53965 0.80759 0.05772 0.0
H561 H 0.56139 0.80665 0.09155 0.0
H562 H 0.57259 0.73844 0.08153 0.0
H563 H 0.55102 0.73961 0.04775 0.0
H564 H 0.48741 0.81007 0.03382 0.0
H565 H 0.45987 0.80908 0.0629 0.0
H566 H 0.47565 0.74276 0.07965 0.0
H567 H 0.50298 0.74382 0.05042 0.0
O568 O 0.49839 0.80314 0.88042 0.0
O569 O 0.48428 0.76923 0.88398 0.0
O570 O 0.65267 0.78698 0.04199 0.0
O571 O 0.65353 0.7528 0.03054 0.0
C572 C 0.50721 0.7794 0.99979 0.0
C573 C 0.52293 0.77886 0.98283 0.0
C574 C 0.5452 0.77719 0.98801 0.0
C575 C 0.55182 0.77595 0.01015 0.0
C576 C 0.53613 0.77569 0.02719 0.0
C577 C 0.51373 0.77747 0.02207 0.0
C578 C 0.48402 0.78203 0.99357 0.0
C579 C 0.47765 0.8021 0.98478 0.0
C580 C 0.45767 0.8036 0.97394 0.0
C581 C 0.44365 0.78501 0.97164 0.0
C582 C 0.44949 0.76522 0.98175 0.0
C583 C 0.46951 0.76376 0.99267 0.0
C584 C 0.51601 0.78015 0.95946 0.0
C585 C 0.5203 0.7993 0.94698 0.0
C586 C 0.5133 0.80072 0.92517 0.0
C587 C 0.50186 0.78299 0.91548 0.0
C588 C 0.49772 0.76376 0.92807 0.0
C589 C 0.50479 0.76236 0.94986 0.0
C590 C 0.56165 0.77661 0.97019 0.0
C591 C 0.57562 0.79486 0.96575 0.0
C592 C 0.59127 0.79421 0.94916 0.0
C593 C 0.59331 0.77524 0.93681 0.0
C594 C 0.57924 0.75699 0.94136 0.0
C595 C 0.5635 0.75771 0.95786 0.0
C596 C 0.57538 0.77496 0.01559 0.0
C597 C 0.58655 0.79305 0.02471 0.0
C598 C 0.60849 0.79192 0.0306 0.0
C599 C 0.61967 0.77268 0.02737 0.0
C600 C 0.60842 0.75465 0.01801 0.0
C601 C 0.58645 0.75579 0.01218 0.0
C602 C 0.54381 0.77369 0.05027 0.0
C603 C 0.54617 0.79228 0.06328 0.0
C604 C 0.55868 0.79172 0.08254 0.0
C605 C 0.56904 0.77256 0.089 0.0
C606 C 0.56518 0.75355 0.07677 0.0
C607 C 0.55265 0.75411 0.05762 0.0
C608 C 0.4972 0.777 0.03992 0.0
C609 C 0.48484 0.7953 0.04371 0.0
C610 C 0.46911 0.79469 0.06032 0.0
C611 C 0.46556 0.77583 0.07362 0.0
C612 C 0.47815 0.75762 0.06991 0.0
C613 C 0.49374 0.75818 0.05317 0.0
C614 C 0.49429 0.78462 0.89236 0.0
C615 C 0.64294 0.77134 0.03376 0.0
H616 H 0.76437 0.01549 0.36825 0.0
H617 H 0.84088 0.15631 0.55572 0.0
H618 H 0.7717 0.97913 0.48284 0.0
H619 H 0.77026 0.94619 0.46064 0.0
H620 H 0.8401 0.94215 0.46701 0.0
H621 H 0.84137 0.97514 0.48922 0.0
H622 H 0.76689 0.02694 0.46339 0.0
H623 H 0.75947 0.02381 0.42403 0.0
H624 H 0.82592 0.00561 0.41367 0.0
H625 H 0.83317 0.00906 0.453 0.0
H626 H 0.77204 0.06681 0.49912 0.0
H627 H 0.76359 0.09961 0.47772 0.0
H628 H 0.82124 0.09224 0.43847 0.0
H629 H 0.82975 0.05956 0.46021 0.0
H630 H 0.78536 0.06083 0.54688 0.0
H631 H 0.78966 0.09682 0.56342 0.0
H632 H 0.84798 0.11033 0.52495 0.0
H633 H 0.84364 0.07418 0.50877 0.0
H634 H 0.78866 0.01444 0.56523 0.0
H635 H 0.79543 0.02446 0.60344 0.0
H636 H 0.86007 0.04944 0.58569 0.0
H637 H 0.85302 0.03955 0.54752 0.0
H638 H 0.77952 0.97322 0.52977 0.0
H639 H 0.78012 0.94139 0.55458 0.0
H640 H 0.84804 0.95648 0.56886 0.0
H641 H 0.84737 0.98821 0.5437 0.0
O642 O 0.76765 0.01664 0.38375 0.0
O643 O 0.80192 0.0072 0.37935 0.0
O644 O 0.80885 0.13417 0.56903 0.0
O645 O 0.83882 0.142 0.54948 0.0
C646 C 0.80794 1.00119 0.498 0.0
C647 C 0.80506 0.02017 0.48487 0.0
C648 C 0.80645 0.04097 0.49445 0.0
C649 C 0.81181 0.04288 0.51691 0.0
C650 C 0.81488 0.02392 0.53002 0.0
C651 C 0.8124 1.003 0.5207 0.0
C652 C 0.80664 0.97948 0.48759 0.0
C653 C 0.78661 0.97085 0.4798 0.0
C654 C 0.78582 0.95204 0.46718 0.0
C655 C 0.8051 0.9417 0.46198 0.0
C656 C 0.82503 0.94992 0.47058 0.0
C657 C 0.82577 0.96861 0.48339 0.0
C658 C 0.80055 0.01822 0.46101 0.0
C659 C 0.77982 0.02234 0.45256 0.0
C660 C 0.77563 0.0205 0.43009 0.0
C661 C 0.79211 0.01445 0.4157 0.0
C662 C 0.81287 0.0103 0.42429 0.0
C663 C 0.81704 0.0122 0.44674 0.0
C664 C 0.8015 0.06081 0.48122 0.0
C665 C 0.78291 0.07237 0.48598 0.0
C666 C 0.77814 0.0911 0.4738 0.0
C667 C 0.79177 0.09849 0.45644 0.0
C668 C 0.81034 0.0868 0.45162 0.0
C669 C 0.81523 0.06818 0.464 0.0
C670 C 0.81425 0.06487 0.52672 0.0
C671 C 0.7991 0.07155 0.54214 0.0
C672 C 0.80157 0.09213 0.55151 0.0
C673 C 0.81919 0.10646 0.54552 0.0
C674 C 0.83425 0.09972 0.52994 0.0
C675 C 0.83179 0.0791 0.52064 0.0
C676 C 0.82031 0.02637 0.55364 0.0
C677 C 0.80445 0.02159 0.56974 0.0
C678 C 0.80838 0.02731 0.59154 0.0
C679 C 0.82822 0.03796 0.59754 0.0
C680 C 0.8445 0.04159 0.58153 0.0
C681 C 0.84058 0.03582 0.55977 0.0
C682 C 0.8134 0.98303 0.53488 0.0
C683 C 0.79461 0.96948 0.538 0.0
C684 C 0.79499 0.9513 0.55217 0.0
C685 C 0.81412 0.94645 0.5637 0.0
C686 C 0.833 0.95994 0.56038 0.0
C687 C 0.83267 0.97801 0.54599 0.0
C688 C 0.78761 0.01252 0.39184 0.0
C689 C 0.82189 0.12834 0.55543 0.0
H690 H 0.5091 0.22157 0.86343 0.0
H691 H 0.65922 0.20007 0.07159 0.0
H692 H 0.4922 0.26624 0.98539 0.0
H693 H 0.46197 0.2699 0.95944 0.0
H694 H 0.45236 0.19967 0.95895 0.0
H695 H 0.48251 0.1962 0.98504 0.0
H696 H 0.52359 0.25287 0.95261 0.0
H697 H 0.51733 0.24624 0.91356 0.0
H698 H 0.52177 0.17683 0.92593 0.0
H699 H 0.52775 0.1837 0.965 0.0
H700 H 0.5718 0.24673 0.96637 0.0
H701 H 0.60428 0.23839 0.94532 0.0
H702 H 0.60205 0.17309 0.97352 0.0
H703 H 0.56932 0.18147 0.99422 0.0
H704 H 0.582 0.2575 0.02288 0.0
H705 H 0.61837 0.25611 0.03942 0.0
H706 H 0.6074 0.18684 0.05222 0.0
H707 H 0.57109 0.18853 0.03573 0.0
H708 H 0.5341 0.26972 0.04963 0.0
H709 H 0.54424 0.27878 0.08733 0.0
H710 H 0.55331 0.21036 0.10179 0.0
H711 H 0.54189 0.20148 0.06449 0.0
H712 H 0.49238 0.26991 0.0264 0.0
H713 H 0.46309 0.27637 0.05256 0.0
H714 H 0.46323 0.20866 0.07372 0.0
H715 H 0.49235 0.20239 0.04756 0.0
O716 O 0.51177 0.22384 0.8789 0.0
O717 O 0.5145 0.18834 0.88608 0.0
O718 O 0.64972 0.23678 0.05823 0.0
O719 O 0.64494 0.20111 0.06503 0.0
C720 C 0.51081 0.22863 0.99816 0.0
C721 C 0.52882 0.22273 0.98542 0.0
C722 C 0.54935 0.22026 0.99539 0.0
C723 C 0.55205 0.2241 0.018 0.0
C724 C 0.53412 0.22996 0.03077 0.0
C725 C 0.51339 0.23194 0.02091 0.0
C726 C 0.48939 0.23097 0.98725 0.0
C727 C 0.48296 0.25171 0.98039 0.0
C728 C 0.46579 0.25376 0.96545 0.0
C729 C 0.45498 0.23506 0.95698 0.0
C730 C 0.46059 0.21435 0.965 0.0
C731 C 0.47761 0.21234 0.98007 0.0
C732 C 0.52604 0.21876 0.96159 0.0
C733 C 0.5232 0.23625 0.94683 0.0
C734 C 0.51964 0.23241 0.92454 0.0
C735 C 0.519 0.21099 0.91663 0.0
C736 C 0.52214 0.19352 0.93148 0.0
C737 C 0.52563 0.19739 0.95378 0.0
C738 C 0.56838 0.21477 0.98193 0.0
C739 C 0.57823 0.23058 0.96781 0.0
C740 C 0.5967 0.22577 0.95579 0.0
C741 C 0.60571 0.20511 0.95786 0.0
C742 C 0.59559 0.1892 0.97181 0.0
C743 C 0.57695 0.19395 0.98361 0.0
C744 C 0.57402 0.22312 0.02808 0.0
C745 C 0.58753 0.24207 0.02928 0.0
C746 C 0.60826 0.24121 0.03872 0.0
C747 C 0.61581 0.22133 0.04712 0.0
C748 C 0.60213 0.20239 0.0459 0.0
C749 C 0.5814 0.20329 0.03647 0.0
C750 C 0.53747 0.23498 0.05431 0.0
C751 C 0.5378 0.25668 0.06114 0.0
C752 C 0.54385 0.26183 0.08262 0.0
C753 C 0.54994 0.24536 0.0976 0.0
C754 C 0.54856 0.22348 0.09088 0.0
C755 C 0.54224 0.21835 0.06948 0.0
C756 C 0.49428 0.23563 0.03495 0.0
C757 C 0.48572 0.25641 0.03636 0.0
C758 C 0.46906 0.26007 0.05133 0.0
C759 C 0.46096 0.24304 0.06528 0.0
C760 C 0.46932 0.22216 0.06341 0.0
C761 C 0.48581 0.2185 0.04838 0.0
C762 C 0.51498 0.20695 0.89298 0.0
C763 C 0.63784 0.22031 0.05711 0.0
H764 H 0.2055 0.40824 0.20579 0.0
H765 H 0.08637 0.43429 0.24882 0.0
H766 H 0.16284 0.36132 0.24012 0.0
H767 H 0.12612 0.47986 0.20968 0.0
H768 H 0.11492 0.40793 0.24689 0.0
H769 H 0.17722 0.43503 0.20774 0.0
C770 C 0.19016 0.4035 0.21364 0.0
C771 C 0.18661 0.38242 0.2228 0.0
C772 C 0.11747 0.4237 0.23875 0.0
C773 C 0.15421 0.4132 0.22533 0.0
C774 C 0.10123 0.43885 0.24 0.0
C775 C 0.10393 0.45943 0.22956 0.0
C776 C 0.13667 0.42908 0.227 0.0
C777 C 0.12332 0.46418 0.2179 0.0
C778 C 0.17406 0.41887 0.21485 0.0
C779 C 0.1665 0.37742 0.2331 0.0
N780 N 0.13897 0.44914 0.21698 0.0
N781 N 0.15111 0.39267 0.23407 0.0
H782 H 0.19357 0.66358 0.76176 0.0
H783 H 0.08018 0.60959 0.80522 0.0
H784 H 0.15126 0.69522 0.8065 0.0
H785 H 0.11961 0.5807 0.75595 0.0
H786 H 0.10593 0.64114 0.80582 0.0
H787 H 0.16659 0.63319 0.75924 0.0
C788 C 0.1786 0.66414 0.77107 0.0
C789 C 0.17473 0.68197 0.78443 0.0
C790 C 0.10892 0.62795 0.79481 0.0
C791 C 0.14368 0.6472 0.78158 0.0
C792 C 0.09428 0.60986 0.79454 0.0
C793 C 0.09776 0.5924 0.78057 0.0
C794 C 0.12731 0.6286 0.78109 0.0
C795 C 0.11615 0.59385 0.76684 0.0
C796 C 0.16315 0.64682 0.76954 0.0
C797 C 0.15487 0.68193 0.79585 0.0
N798 N 0.13027 0.61155 0.76754 0.0
N799 N 0.14017 0.66477 0.79427 0.0
H800 H 0.88149 0.70139 0.25953 0.0
H801 H 0.9361 0.5993 0.20528 0.0
H802 H 0.84723 0.65566 0.21728 0.0
H803 H 0.96691 0.63604 0.25743 0.0
H804 H 0.90463 0.62202 0.20737 0.0
H805 H 0.9138 0.67946 0.25748 0.0
C806 C 0.88066 0.68669 0.24994 0.0
C807 C 0.86152 0.68046 0.2385 0.0
C808 C 0.9183 0.62526 0.21829 0.0
C809 C 0.89865 0.65548 0.23581 0.0
C810 C 0.93641 0.61241 0.21694 0.0
C811 C 0.95431 0.61591 0.23105 0.0
C812 C 0.918 0.6419 0.23377 0.0
C813 C 0.95347 0.63279 0.24624 0.0
C814 C 0.89918 0.67425 0.24869 0.0
C815 C 0.86165 0.6614 0.22606 0.0
N816 N 0.93564 0.64522 0.24717 0.0
N817 N 0.87989 0.64967 0.22502 0.0
H818 H 0.87976 0.30831 0.78307 0.0
H819 H 0.982 0.3839 0.82079 0.0
H820 H 0.93481 0.28315 0.81807 0.0
H821 H 0.93686 0.40302 0.77024 0.0
H822 H 0.96249 0.34824 0.82387 0.0
H823 H 0.8981 0.34454 0.78212 0.0
C824 C 0.89564 0.31047 0.79072 0.0
C825 C 0.90579 0.29271 0.80066 0.0
C826 C 0.95685 0.36026 0.81214 0.0
C827 C 0.92689 0.3341 0.79957 0.0
C828 C 0.96787 0.38063 0.81047 0.0
C829 C 0.96103 0.3964 0.79522 0.0
C830 C 0.93871 0.35571 0.79862 0.0
C831 C 0.94278 0.39124 0.78207 0.0
C832 C 0.90615 0.33111 0.79004 0.0
C833 C 0.9265 0.29637 0.81008 0.0
N834 N 0.93222 0.37136 0.78411 0.0
N835 N 0.93635 0.31668 0.80936 0.0
H836 H 0.2378 0.2192 0.36779 0.0
H837 H 0.27217 0.09603 0.39042 0.0
H838 H 0.26214 0.17811 0.31744 0.0
H839 H 0.24316 0.13583 0.43915 0.0
H840 H 0.27004 0.12629 0.36376 0.0
H841 H 0.24069 0.18912 0.39436 0.0
C842 C 0.24364 0.20382 0.36226 0.0
C843 C 0.24965 0.20122 0.34026 0.0
C844 C 0.26413 0.1284 0.38029 0.0
C845 C 0.25329 0.16668 0.37079 0.0
C846 C 0.26545 0.11116 0.39555 0.0
C847 C 0.25777 0.11335 0.41706 0.0
C848 C 0.25515 0.14803 0.38657 0.0
C849 C 0.24898 0.13327 0.42268 0.0
C850 C 0.24541 0.18667 0.3775 0.0
C851 C 0.25754 0.18099 0.33424 0.0
N852 N 0.24794 0.14981 0.40757 0.0
N853 N 0.2591 0.16452 0.34939 0.0
H854 H 0.3519 0.76354 0.86511 0.0
H855 H 0.41442 0.81769 0.96758 0.0
H856 H 0.34034 0.82821 0.88799 0.0
H857 H 0.42866 0.75469 0.94205 0.0
H858 H 0.38501 0.82052 0.94061 0.0
H859 H 0.37767 0.75866 0.89529 0.0
C860 C 0.35459 0.77664 0.8766 0.0
C861 C 0.34395 0.79637 0.87389 0.0
C862 C 0.39445 0.806 0.94102 0.0
C863 C 0.37372 0.79096 0.90846 0.0
C864 C 0.41129 0.80439 0.9564 0.0
C865 C 0.42412 0.78595 0.95709 0.0
C866 C 0.39039 0.78908 0.92612 0.0
C867 C 0.41907 0.7691 0.94235 0.0
C868 C 0.36943 0.77389 0.89378 0.0
C869 C 0.34839 0.81286 0.88919 0.0
N870 N 0.40273 0.77114 0.92741 0.0
N871 N 0.36294 0.80981 0.90574 0.0
H872 H 0.77516 0.82278 0.39036 0.0
H873 H 0.83188 0.93631 0.427 0.0
H874 H 0.81691 0.86336 0.34811 0.0
H875 H 0.77686 0.90572 0.46123 0.0
H876 H 0.82966 0.90719 0.40014 0.0
H877 H 0.77838 0.85073 0.41861 0.0
C878 C 0.78504 0.83754 0.38707 0.0
C879 C 0.79571 0.84081 0.36684 0.0
C880 C 0.81811 0.9068 0.41356 0.0
C881 C 0.79954 0.87273 0.39903 0.0
C882 C 0.81949 0.92331 0.429 0.0
C883 C 0.80456 0.92339 0.4464 0.0
C884 C 0.80179 0.89011 0.41559 0.0
C885 C 0.78859 0.90633 0.44798 0.0
C886 C 0.78679 0.8535 0.40313 0.0
C887 C 0.80819 0.8603 0.36337 0.0
N888 N 0.78765 0.89033 0.43279 0.0
N889 N 0.80983 0.87547 0.37932 0.0
H890 H 0.70765 0.19835 0.8608 0.0
H891 H 0.64191 0.18564 0.97395 0.0
H892 H 0.73869 0.1866 0.92333 0.0
H893 H 0.61559 0.21415 0.91477 0.0
H894 H 0.67607 0.18013 0.95451 0.0
H895 H 0.67236 0.19827 0.87928 0.0
C896 C 0.707 0.19546 0.87839 0.0
C897 C 0.72614 0.19255 0.89057 0.0
C898 C 0.66278 0.1875 0.94577 0.0
C899 C 0.68582 0.19264 0.91184 0.0
C900 C 0.64326 0.19052 0.9568 0.0
C901 C 0.62596 0.20047 0.94596 0.0
C902 C 0.66493 0.1943 0.9237 0.0
C903 C 0.62863 0.20667 0.9238 0.0
C904 C 0.68687 0.19558 0.88894 0.0
C905 C 0.72435 0.18915 0.91337 0.0
N906 N 0.64775 0.2035 0.9134 0.0
N907 N 0.70454 0.18932 0.92329 0.0
H908 H 0.23029 0.85065 0.65247 0.0
H909 H 0.27807 0.9686 0.61262 0.0
H910 H 0.26749 0.89407 0.6947 0.0
H911 H 0.24225 0.92363 0.57084 0.0
H912 H 0.27491 0.94165 0.64278 0.0
H913 H 0.23464 0.87742 0.62252 0.0
C914 C 0.23926 0.86589 0.65552 0.0
C915 C 0.24839 0.87012 0.67627 0.0
C916 C 0.26776 0.93768 0.627 0.0
C917 C 0.25372 0.90091 0.64173 0.0
C918 C 0.26967 0.95302 0.60971 0.0
C919 C 0.26036 0.94846 0.58909 0.0
C920 C 0.25648 0.91757 0.62371 0.0
C921 C 0.2494 0.92807 0.58647 0.0
C922 C 0.24187 0.88115 0.63831 0.0
C923 C 0.26028 0.89001 0.67898 0.0
N924 N 0.24776 0.91345 0.60353 0.0
N925 N 0.26254 0.90468 0.66196 0.0
H926 H 0.68767 0.76161 0.1648 0.0
H927 H 0.56646 0.79156 0.12946 0.0
H928 H 0.64293 0.79157 0.20843 0.0
H929 H 0.60904 0.75466 0.08956 0.0
H930 H 0.59445 0.79276 0.1583 0.0
H931 H 0.65915 0.75963 0.13684 0.0
C932 C 0.67181 0.76763 0.1686 0.0
C933 C 0.66777 0.77674 0.1891 0.0
C934 C 0.5976 0.7843 0.14327 0.0
C935 C 0.635 0.77482 0.15688 0.0
C936 C 0.58166 0.78367 0.1268 0.0
C937 C 0.58532 0.77283 0.10714 0.0
C938 C 0.61743 0.77418 0.13999 0.0
C939 C 0.60531 0.76283 0.1046 0.0
C940 C 0.65554 0.7666 0.15254 0.0
C941 C 0.64695 0.78467 0.19281 0.0
N942 N 0.62059 0.76381 0.12077 0.0
N943 N 0.63138 0.78354 0.17687 0.0
H944 H 0.84488 0.12708 0.70449 0.0
H945 H 0.81656 0.01875 0.63725 0.0
H946 H 0.81852 0.0673 0.73461 0.0
H947 H 0.84626 0.07777 0.60871 0.0
H948 H 0.81899 0.03533 0.67347 0.0
H949 H 0.84786 0.10828 0.66984 0.0
C950 C 0.84 0.10991 0.70394 0.0
C951 C 0.83134 0.09881 0.72255 0.0
C952 C 0.82516 0.04457 0.6593 0.0
C953 C 0.8343 0.07722 0.68263 0.0
C954 C 0.82369 0.03514 0.63862 0.0
C955 C 0.8312 0.04688 0.6199 0.0
C956 C 0.83404 0.06596 0.66127 0.0
C957 C 0.84052 0.06798 0.62268 0.0
C958 C 0.84156 0.0992 0.68405 0.0
C959 C 0.82494 0.07663 0.72063 0.0
N960 N 0.84153 0.07687 0.64292 0.0
N961 N 0.82642 0.06661 0.701 0.0
H962 H 0.34445 0.2755 0.13625 0.0
H963 H 0.4608 0.22907 0.1081 0.0
H964 H 0.38596 0.24437 0.18369 0.0
H965 H 0.42377 0.26636 0.06144 0.0
H966 H 0.43324 0.23474 0.13589 0.0
H967 H 0.37314 0.27301 0.10862 0.0
C968 C 0.35964 0.26832 0.14092 0.0
C969 C 0.36268 0.25994 0.16231 0.0
C970 C 0.4311 0.24175 0.11961 0.0
C971 C 0.39547 0.25683 0.13071 0.0
C972 C 0.44678 0.23839 0.10368 0.0
C973 C 0.44447 0.24708 0.08235 0.0
C974 C 0.41282 0.25382 0.11423 0.0
C975 C 0.4262 0.25943 0.0777 0.0
C976 C 0.37596 0.2668 0.12511 0.0
C977 C 0.38265 0.25063 0.16733 0.0
N978 N 0.41098 0.26232 0.09348 0.0
N979 N 0.39818 0.24925 0.15166 0.0
H980 H 0.87023 0.65248 0.8109 0.0
H981 H 0.97029 0.60448 0.74588 0.0
H982 H 0.88489 0.66912 0.74317 0.0
H983 H 0.95006 0.58256 0.81077 0.0
H984 H 0.94067 0.62998 0.74523 0.0
H985 H 0.9008 0.62838 0.8117 0.0
C986 C 0.87976 0.65097 0.79612 0.0
C987 C 0.8748 0.66281 0.77688 0.0
C988 C 0.9428 0.61966 0.75964 0.0
C989 C 0.91025 0.63538 0.77783 0.0
C990 C 0.95969 0.60505 0.76001 0.0
C991 C 0.96277 0.59132 0.77843 0.0
C992 C 0.92885 0.6206 0.77781 0.0
C993 C 0.94863 0.59303 0.79636 0.0
C994 C 0.89735 0.63729 0.79664 0.0
C995 C 0.88817 0.66052 0.75843 0.0
N996 N 0.9323 0.60732 0.79556 0.0
N997 N 0.90524 0.64706 0.75935 0.0
H998 H 0.81506 0.37557 0.21888 0.0
H999 H 0.90018 0.46375 0.2692 0.0
H1000 H 0.80983 0.40096 0.28415 0.0
H1001 H 0.91083 0.43084 0.20838 0.0
H1002 H 0.86594 0.44252 0.27393 0.0
H1003 H 0.84884 0.39762 0.21357 0.0
C1004 C 0.82093 0.38591 0.23204 0.0
C1005 C 0.80959 0.38643 0.252 0.0
C1006 C 0.87577 0.43991 0.25956 0.0
C1007 C 0.84836 0.41159 0.24608 0.0
C1008 C 0.89542 0.45195 0.2569 0.0
C1009 C 0.90856 0.44899 0.23843 0.0
C1010 C 0.86905 0.42484 0.24359 0.0
C1011 C 0.90119 0.43382 0.22278 0.0
C1012 C 0.8403 0.39838 0.22905 0.0
C1013 C 0.81815 0.39989 0.26859 0.0
N1014 N 0.88195 0.42231 0.22573 0.0
N1015 N 0.83699 0.41195 0.26525 0.0
H1016 H 0.18793 0.35941 0.74665 0.0
H1017 H 0.15075 0.47032 0.79986 0.0
H1018 H 0.22659 0.39549 0.79412 0.0
H1019 H 0.11562 0.43738 0.7478 0.0
H1020 H 0.17909 0.44349 0.79763 0.0
H1021 H 0.16178 0.38834 0.74619 0.0
C1022 C 0.19107 0.37349 0.75683 0.0
C1023 C 0.20951 0.37488 0.77052 0.0
C1024 C 0.16528 0.44225 0.78655 0.0
C1025 C 0.17935 0.40804 0.77031 0.0
C1026 C 0.14909 0.45755 0.78786 0.0
C1027 C 0.13085 0.4562 0.77391 0.0
C1028 C 0.16313 0.42534 0.77134 0.0
C1029 C 0.12957 0.43932 0.75862 0.0
C1030 C 0.17603 0.38998 0.75665 0.0
C1031 C 0.21244 0.39345 0.78359 0.0
N1032 N 0.1454 0.42451 0.75783 0.0
N1033 N 0.19751 0.40921 0.78323 0.0
H1034 H 0.18489 0.67685 0.23049 0.0
H1035 H 0.08748 0.59984 0.27955 0.0
H1036 H 0.16865 0.67179 0.29938 0.0
H1037 H 0.10922 0.59657 0.21238 0.0
H1038 H 0.1166 0.62703 0.2866 0.0
H1039 H 0.15696 0.64818 0.22305 0.0
C1040 C 0.17559 0.66964 0.24408 0.0
C1041 C 0.1791 0.67691 0.2656 0.0
C1042 C 0.11507 0.62034 0.27032 0.0
C1043 C 0.14688 0.64426 0.25712 0.0
C1044 C 0.09848 0.60466 0.26629 0.0
C1045 C 0.09588 0.5957 0.24534 0.0
C1046 C 0.12923 0.62735 0.25328 0.0
C1047 C 0.1104 0.60314 0.22873 0.0
C1048 C 0.15956 0.65334 0.23979 0.0
C1049 C 0.1663 0.66709 0.28248 0.0
N1050 N 0.12643 0.61852 0.23304 0.0
N1051 N 0.15077 0.65137 0.27786 0.0
H1052 H 0.82381 0.86499 0.68096 0.0
H1053 H 0.7964 0.90506 0.55841 0.0
H1054 H 0.79943 0.82161 0.63074 0.0
H1055 H 0.83167 0.94522 0.6051 0.0
H1056 H 0.79549 0.8748 0.58526 0.0
H1057 H 0.82471 0.89517 0.65405 0.0
C1058 C 0.81851 0.86184 0.6643 0.0
C1059 C 0.81153 0.84073 0.6581 0.0
C1060 C 0.80349 0.8902 0.58962 0.0
C1061 C 0.81266 0.8752 0.62714 0.0
C1062 C 0.80393 0.90751 0.57433 0.0
C1063 C 0.81414 0.92769 0.57953 0.0
C1064 C 0.81315 0.89313 0.61035 0.0
C1065 C 0.82384 0.92987 0.60032 0.0
C1066 C 0.81918 0.87905 0.6489 0.0
C1067 C 0.80514 0.83757 0.63619 0.0
N1068 N 0.82302 0.91285 0.615 0.0
N1069 N 0.8058 0.85461 0.62153 0.0
H1070 H 0.62618 0.30343 0.20287 0.0
H1071 H 0.54479 0.22282 0.13702 0.0
H1072 H 0.61097 0.23664 0.22337 0.0
H1073 H 0.57659 0.28074 0.10821 0.0
H1074 H 0.56342 0.23063 0.17171 0.0
H1075 H 0.60238 0.29824 0.17102 0.0
C1076 C 0.61783 0.28769 0.20075 0.0
C1077 C 0.62086 0.27038 0.21577 0.0
C1078 C 0.56614 0.2417 0.1578 0.0
C1079 C 0.59326 0.26448 0.17947 0.0
C1080 C 0.55559 0.23721 0.13795 0.0
C1081 C 0.5592 0.25102 0.11949 0.0
C1082 C 0.58029 0.26021 0.15932 0.0
C1083 C 0.57303 0.26972 0.12195 0.0
C1084 C 0.60416 0.28479 0.1826 0.0
C1085 C 0.60907 0.25054 0.21239 0.0
N1086 N 0.58312 0.27369 0.14143 0.0
N1087 N 0.59591 0.2481 0.19455 0.0
H1088 H 0.27806 0.19985 0.63702 0.0
H1089 H 0.25145 0.07178 0.62247 0.0
H1090 H 0.25211 0.15789 0.68923 0.0
H1091 H 0.28793 0.11223 0.57553 0.0
H1092 H 0.25 0.10321 0.64672 0.0
H1093 H 0.28015 0.16805 0.61366 0.0
C1094 C 0.27271 0.18395 0.64354 0.0
C1095 C 0.26486 0.18156 0.66512 0.0
C1096 C 0.25845 0.10514 0.63117 0.0
C1097 C 0.26731 0.14497 0.63845 0.0
C1098 C 0.25923 0.08723 0.61733 0.0
C1099 C 0.27003 0.08932 0.59707 0.0
C1100 C 0.26828 0.12536 0.62456 0.0
C1101 C 0.27981 0.10974 0.59119 0.0
C1102 C 0.27404 0.16577 0.63024 0.0
C1103 C 0.25845 0.16047 0.67277 0.0
N1104 N 0.27863 0.12694 0.6048 0.0
N1105 N 0.25972 0.14302 0.65944 0.0
H1106 H 0.39162 0.75341 0.19424 0.0
H1107 H 0.42417 0.79086 0.07127 0.0
H1108 H 0.34567 0.77631 0.14618 0.0
H1109 H 0.4681 0.75884 0.11562 0.0
H1110 H 0.39612 0.78861 0.09972 0.0
H1111 H 0.42074 0.75834 0.16691 0.0
C1112 C 0.38768 0.75965 0.17801 0.0
C1113 C 0.36612 0.76434 0.17248 0.0
C1114 C 0.4119 0.7821 0.10326 0.0
C1115 C 0.39935 0.76988 0.14106 0.0
C1116 C 0.42798 0.78351 0.08706 0.0
C1117 C 0.44854 0.775 0.09102 0.0
C1118 C 0.41637 0.77222 0.12371 0.0
C1119 C 0.45241 0.76538 0.11174 0.0
C1120 C 0.40428 0.76232 0.16237 0.0
C1121 C 0.36197 0.77217 0.1511 0.0
N1122 N 0.4365 0.76427 0.12729 0.0
N1123 N 0.37839 0.77467 0.13621 0.0
H1124 H 0.76159 0.18912 0.35106 0.0
H1125 H 0.7787 0.13771 0.47134 0.0
H1126 H 0.7613 0.22725 0.40984 0.0
H1127 H 0.79267 0.10413 0.41175 0.0
H1128 H 0.76939 0.16987 0.44934 0.0
H1129 H 0.76982 0.1569 0.37333 0.0
C1130 C 0.76306 0.19066 0.36869 0.0
C1131 C 0.76071 0.21089 0.37862 0.0
C1132 C 0.77453 0.15548 0.44108 0.0
C1133 C 0.77035 0.1741 0.40421 0.0
C1134 C 0.77974 0.1371 0.45362 0.0
C1135 C 0.78647 0.11824 0.44334 0.0
C1136 C 0.77586 0.15493 0.41809 0.0
C1137 C 0.78777 0.11841 0.42034 0.0
C1138 C 0.76794 0.1723 0.38137 0.0
C1139 C 0.76315 0.21201 0.40151 0.0
N1140 N 0.78243 0.13644 0.40848 0.0
N1141 N 0.76779 0.19385 0.41354 0.0
H1142 H 0.3931 0.22424 0.83005 0.0
H1143 H 0.42174 0.26345 0.95176 0.0
H1144 H 0.35167 0.26567 0.86646 0.0
H1145 H 0.45355 0.21153 0.91947 0.0
H1146 H 0.39758 0.26706 0.91979 0.0
H1147 H 0.41723 0.22207 0.86177 0.0
C1148 C 0.38899 0.23282 0.84475 0.0
C1149 C 0.37013 0.24496 0.8456 0.0
C1150 C 0.40978 0.25481 0.91979 0.0
C1151 C 0.398 0.24277 0.88203 0.0
C1152 C 0.42357 0.25278 0.93798 0.0
C1153 C 0.4395 0.23701 0.93836 0.0
C1154 C 0.41215 0.24116 0.90176 0.0
C1155 C 0.44122 0.22362 0.92007 0.0
C1156 C 0.40286 0.23163 0.86285 0.0
C1157 C 0.36606 0.25621 0.86496 0.0
N1158 N 0.42778 0.22604 0.90253 0.0
N1159 N 0.37985 0.2548 0.88244 0.0
H1160 H 0.30906 0.83838 0.386 0.0
H1161 H 0.24284 0.93994 0.42586 0.0
H1162 H 0.2549 0.86453 0.35032 0.0
H1163 H 0.29051 0.90847 0.46645 0.0
H1164 H 0.24698 0.91222 0.39826 0.0
H1165 H 0.3028 0.86383 0.4156 0.0
C1166 C 0.29585 0.84947 0.38438 0.0
C1167 C 0.28252 0.84932 0.36558 0.0
C1168 C 0.25643 0.91124 0.41327 0.0
C1169 C 0.27523 0.87851 0.39947 0.0
C1170 C 0.25393 0.927 0.42919 0.0
C1171 C 0.26621 0.92652 0.44871 0.0
C1172 C 0.27147 0.89486 0.41666 0.0
C1173 C 0.28082 0.90964 0.45164 0.0
C1174 C 0.29222 0.86392 0.40135 0.0
C1175 C 0.26546 0.86388 0.36456 0.0
N1176 N 0.28309 0.89455 0.43578 0.0
N1177 N 0.26241 0.87793 0.38116 0.0
H1178 H 0.67623 0.80405 0.82418 0.0
H1179 H 0.62043 0.74208 0.92792 0.0
H1180 H 0.70035 0.74481 0.853 0.0
H1181 H 0.60434 0.80674 0.90574 0.0
H1182 H 0.64804 0.7414 0.89902 0.0
H1183 H 0.64827 0.80403 0.85253 0.0
C1184 C 0.67578 0.79109 0.83653 0.0
C1185 C 0.69087 0.77449 0.83621 0.0
C1186 C 0.63847 0.75573 0.90049 0.0
C1187 C 0.65848 0.77419 0.86864 0.0
C1188 C 0.62263 0.75609 0.9169 0.0
C1189 C 0.61006 0.77451 0.91928 0.0
C1190 C 0.6417 0.77387 0.88622 0.0
C1191 C 0.61381 0.7923 0.90469 0.0
C1192 C 0.65969 0.79103 0.85267 0.0
C1193 C 0.689 0.75784 0.8524 0.0
N1194 N 0.62923 0.79151 0.88878 0.0
N1195 N 0.67314 0.75813 0.86795 0.0
loop_
_geom_bond_atom_site_label_1
_geom_bond_atom_site_label_2
_geom_bond_distance
_geom_bond_site_symmetry_2
_ccdc_geom_bond_type
C0 C1 1.264 . S
C0 C5 1.479 . S
C0 C10 1.465 . S
C1 C0 1.264 . S
C1 C3 1.339 . S
C1 H28 0.931 . S
C2 C3 1.395 . S
C2 C4 1.320 . S
C3 C1 1.339 . S
C3 C2 1.395 . S
C3 H29 0.929 . S
C4 C2 1.320 . S
C4 C5 1.405 . S
C4 H30 0.930 . S
C5 C0 1.479 . S
C5 C4 1.405 . S
C5 H31 0.931 . S
U6 O7 2.454 . S
U6 O8 2.458 . S
U6 C9 2.984 . S
U6 C10 2.847 . S
U6 C23 2.882 . S
U6 O24 2.441 . S
U6 O25 2.420 . S
U6 O26 2.455 . S
U6 O27 2.449 . S
O7 U6 2.454 . S
O7 C9 1.353 . S
O8 U6 2.458 . S
O8 C9 1.286 . S
C9 U6 2.984 . S
C9 O7 1.353 . S
C9 O8 1.286 . S
C9 C11 1.363 . S
C10 C0 1.465 . S
C10 U6 2.847 . S
C10 O24 1.249 . S
C10 O25 1.202 . S
C11 C9 1.363 . S
C11 C13 1.408 . S
C11 C16 1.342 . S
C12 C13 1.310 . S
C12 C15 1.461 . S
C12 H32 0.932 . S
C13 C11 1.408 . S
C13 C12 1.310 . S
C13 H33 0.930 . S
C14 C15 1.474 . S
C14 C16 1.285 . S
C14 H34 0.929 . S
C15 C12 1.461 . S
C15 C14 1.474 . S
C16 C11 1.342 . S
C16 C14 1.285 . S
C16 H35 0.930 . S
C17 C20 1.424 . S
C17 C22 1.245 . S
C17 C23 1.428 . S
C18 C21 1.260 . S
C18 C22 1.477 . S
C18 H36 0.932 . S
C19 C20 1.384 . S
C19 C21 1.479 . S
C19 H37 0.929 . S
C20 C17 1.424 . S
C20 C19 1.384 . S
C20 H38 0.928 . S
C21 C18 1.260 . S
C21 C19 1.479 . S
C22 C17 1.245 . S
C22 C18 1.477 . S
C22 H39 0.932 . S
C23 U6 2.882 . S
C23 C17 1.428 . S
C23 O26 1.301 . S
C23 O27 1.282 . S
O24 U6 2.441 . S
O24 C10 1.249 . S
O25 U6 2.420 . S
O25 C10 1.202 . S
O26 U6 2.455 . S
O26 C23 1.301 . S
O27 U6 2.449 . S
O27 C23 1.282 . S
H28 C1 0.931 . S
H29 C3 0.929 . S
H30 C4 0.930 . S
H31 C5 0.931 . S
H32 C12 0.932 . S
H33 C13 0.930 . S
H34 C14 0.929 . S
H35 C16 0.930 . S
H36 C18 0.932 . S
H37 C19 0.929 . S
H38 C20 0.928 . S
H39 C22 0.932 . S
C40 C41 1.264 . S
C40 C45 1.479 . S
C40 C50 1.465 . S
C41 C40 1.264 . S
C41 C43 1.339 . S
C41 H68 0.931 . S
C42 C43 1.395 . S
C42 C44 1.320 . S
C43 C41 1.339 . S
C43 C42 1.395 . S
C43 H69 0.929 . S
C44 C42 1.320 . S
C44 C45 1.405 . S
C44 H70 0.930 . S
C45 C40 1.479 . S
C45 C44 1.405 . S
C45 H71 0.931 . S
U46 O47 2.454 . S
U46 O48 2.458 . S
U46 C49 2.984 . S
U46 C50 2.847 . S
U46 C63 2.882 . S
U46 O64 2.441 . S
U46 O65 2.420 . S
U46 O66 2.455 . S
U46 O67 2.449 . S
O47 U46 2.454 . S
O47 C49 1.353 . S
O48 U46 2.458 . S
O48 C49 1.286 . S
C49 U46 2.984 . S
C49 O47 1.353 . S
C49 O48 1.286 . S
C49 C51 1.363 . S
C50 C40 1.465 . S
C50 U46 2.847 . S
C50 O64 1.249 . S
C50 O65 1.202 . S
C51 C49 1.363 . S
C51 C53 1.408 . S
C51 C56 1.342 . S
C52 C53 1.310 . S
C52 C55 1.461 . S
C52 H72 0.932 . S
C53 C51 1.408 . S
C53 C52 1.310 . S
C53 H73 0.930 . S
C54 C55 1.474 . S
C54 C56 1.285 . S
C54 H74 0.929 . S
C55 C52 1.461 . S
C55 C54 1.474 . S
C56 C51 1.342 . S
C56 C54 1.285 . S
C56 H75 0.930 . S
C57 C60 1.424 . S
C57 C62 1.245 . S
C57 C63 1.428 . S
C58 C61 1.260 . S
C58 C62 1.477 . S
C58 H76 0.932 . S
C59 C60 1.384 . S
C59 C61 1.479 . S
C59 H77 0.929 . S
C60 C57 1.424 . S
C60 C59 1.384 . S
C60 H78 0.928 . S
C61 C58 1.260 . S
C61 C59 1.479 . S
C62 C57 1.245 . S
C62 C58 1.477 . S
C62 H79 0.932 . S
C63 U46 2.882 . S
C63 C57 1.428 . S
C63 O66 1.301 . S
C63 O67 1.282 . S
O64 U46 2.441 . S
O64 C50 1.249 . S
O65 U46 2.420 . S
O65 C50 1.202 . S
O66 U46 2.455 . S
O66 C63 1.301 . S
O67 U46 2.449 . S
O67 C63 1.282 . S
H68 C41 0.931 . S
H69 C43 0.929 . S
H70 C44 0.930 . S
H71 C45 0.931 . S
H72 C52 0.932 . S
H73 C53 0.930 . S
H74 C54 0.929 . S
H75 C56 0.930 . S
H76 C58 0.932 . S
H77 C59 0.929 . S
H78 C60 0.928 . S
H79 C62 0.932 . S
C80 C81 1.264 . S
C80 C85 1.479 . S
C80 C90 1.465 . S
C81 C80 1.264 . S
C81 C83 1.339 . S
C81 H108 0.931 . S
C82 C83 1.395 . S
C82 C84 1.320 . S
C83 C81 1.339 . S
C83 C82 1.395 . S
C83 H109 0.929 . S
C84 C82 1.320 . S
C84 C85 1.405 . S
C84 H110 0.930 . S
C85 C80 1.479 . S
C85 C84 1.405 . S
C85 H111 0.931 . S
U86 O87 2.454 . S
U86 O88 2.458 . S
U86 C89 2.984 . S
U86 C90 2.847 . S
U86 C103 2.882 . S
U86 O104 2.441 . S
U86 O105 2.420 . S
U86 O106 2.455 . S
U86 O107 2.449 . S
O87 U86 2.454 . S
O87 C89 1.353 . S
O88 U86 2.458 . S
O88 C89 1.286 . S
C89 U86 2.984 . S
C89 O87 1.353 . S
C89 O88 1.286 . S
C89 C91 1.363 . S
C90 C80 1.465 . S
C90 U86 2.847 . S
C90 O104 1.249 . S
C90 O105 1.202 . S
C91 C89 1.363 . S
C91 C93 1.408 . S
C91 C96 1.342 . S
C92 C93 1.310 . S
C92 C95 1.461 . S
C92 H112 0.932 . S
C93 C91 1.408 . S
C93 C92 1.310 . S
C93 H113 0.930 . S
C94 C95 1.474 . S
C94 C96 1.285 . S
C94 H114 0.929 . S
C95 C92 1.461 . S
C95 C94 1.474 . S
C96 C91 1.342 . S
C96 C94 1.285 . S
C96 H115 0.930 . S
C97 C100 1.424 . S
C97 C102 1.245 . S
C97 C103 1.428 . S
C98 C101 1.260 . S
C98 C102 1.477 . S
C98 H116 0.932 . S
C99 C100 1.384 . S
C99 C101 1.479 . S
C99 H117 0.929 . S
C100 C97 1.424 . S
C100 C99 1.384 . S
C100 H118 0.928 . S
C101 C98 1.260 . S
C101 C99 1.479 . S
C102 C97 1.245 . S
C102 C98 1.477 . S
C102 H119 0.932 . S
C103 U86 2.882 . S
C103 C97 1.428 . S
C103 O106 1.301 . S
C103 O107 1.282 . S
O104 U86 2.441 . S
O104 C90 1.249 . S
O105 U86 2.420 . S
O105 C90 1.202 . S
O106 U86 2.455 . S
O106 C103 1.301 . S
O107 U86 2.449 . S
O107 C103 1.282 . S
H108 C81 0.931 . S
H109 C83 0.929 . S
H110 C84 0.930 . S
H111 C85 0.931 . S
H112 C92 0.932 . S
H113 C93 0.930 . S
H114 C94 0.929 . S
H115 C96 0.930 . S
H116 C98 0.932 . S
H117 C99 0.929 . S
H118 C100 0.928 . S
H119 C102 0.932 . S
C120 C121 1.264 . S
C120 C125 1.479 . S
C120 C130 1.465 . S
C121 C120 1.264 . S
C121 C123 1.339 . S
C121 H148 0.931 . S
C122 C123 1.395 . S
C122 C124 1.320 . S
C123 C121 1.339 . S
C123 C122 1.395 . S
C123 H149 0.929 . S
C124 C122 1.320 . S
C124 C125 1.405 . S
C124 H150 0.930 . S
C125 C120 1.479 . S
C125 C124 1.405 . S
C125 H151 0.931 . S
U126 O127 2.454 . S
U126 O128 2.458 . S
U126 C129 2.984 . S
U126 C130 2.847 . S
U126 C143 2.882 . S
U126 O144 2.441 . S
U126 O145 2.420 . S
U126 O146 2.455 . S
U126 O147 2.449 . S
O127 U126 2.454 . S
O127 C129 1.353 . S
O128 U126 2.458 . S
O128 C129 1.286 . S
C129 U126 2.984 . S
C129 O127 1.353 . S
C129 O128 1.286 . S
C129 C131 1.363 . S
C130 C120 1.465 . S
C130 U126 2.847 . S
C130 O144 1.249 . S
C130 O145 1.202 . S
C131 C129 1.363 . S
C131 C133 1.408 . S
C131 C136 1.342 . S
C132 C133 1.310 . S
C132 C135 1.461 . S
C132 H152 0.932 . S
C133 C131 1.408 . S
C133 C132 1.310 . S
C133 H153 0.930 . S
C134 C135 1.474 . S
C134 C136 1.285 . S
C134 H154 0.929 . S
C135 C132 1.461 . S
C135 C134 1.474 . S
C136 C131 1.342 . S
C136 C134 1.285 . S
C136 H155 0.930 . S
C137 C140 1.424 . S
C137 C142 1.245 . S
C137 C143 1.428 . S
C138 C141 1.260 . S
C138 C142 1.477 . S
C138 H156 0.932 . S
C139 C140 1.384 . S
C139 C141 1.479 . S
C139 H157 0.929 . S
C140 C137 1.424 . S
C140 C139 1.384 . S
C140 H158 0.928 . S
C141 C138 1.260 . S
C141 C139 1.479 . S
C142 C137 1.245 . S
C142 C138 1.477 . S
C142 H159 0.932 . S
C143 U126 2.882 . S
C143 C137 1.428 . S
C143 O146 1.301 . S
C143 O147 1.282 . S
O144 U126 2.441 . S
O144 C130 1.249 . S
O145 U126 2.420 . S
O145 C130 1.202 . S
O146 U126 2.455 . S
O146 C143 1.301 . S
O147 U126 2.449 . S
O147 C143 1.282 . S
H148 C121 0.931 . S
H149 C123 0.929 . S
H150 C124 0.930 . S
H151 C125 0.931 . S
H152 C132 0.932 . S
H153 C133 0.930 . S
H154 C134 0.929 . S
H155 C136 0.930 . S
H156 C138 0.932 . S
H157 C139 0.929 . S
H158 C140 0.928 . S
H159 C142 0.932 . S
C160 C161 1.264 . S
C160 C165 1.479 . S
C160 C170 1.465 . S
C161 C160 1.264 . S
C161 C163 1.339 . S
C161 H188 0.931 . S
C162 C163 1.395 . S
C162 C164 1.320 . S
C163 C161 1.339 . S
C163 C162 1.395 . S
C163 H189 0.929 . S
C164 C162 1.320 . S
C164 C165 1.405 . S
C164 H190 0.930 . S
C165 C160 1.479 . S
C165 C164 1.405 . S
C165 H191 0.931 . S
U166 O167 2.454 . S
U166 O168 2.458 . S
U166 C169 2.984 . S
U166 C170 2.847 . S
U166 C183 2.882 . S
U166 O184 2.441 . S
U166 O185 2.420 . S
U166 O186 2.455 . S
U166 O187 2.449 . S
O167 U166 2.454 . S
O167 C169 1.353 . S
O168 U166 2.458 . S
O168 C169 1.286 . S
C169 U166 2.984 . S
C169 O167 1.353 . S
C169 O168 1.286 . S
C169 C171 1.363 . S
C170 C160 1.465 . S
C170 U166 2.847 . S
C170 O184 1.249 . S
C170 O185 1.202 . S
C171 C169 1.363 . S
C171 C173 1.408 . S
C171 C176 1.342 . S
C172 C173 1.310 . S
C172 C175 1.461 . S
C172 H192 0.932 . S
C173 C171 1.408 . S
C173 C172 1.310 . S
C173 H193 0.930 . S
C174 C175 1.474 . S
C174 C176 1.285 . S
C174 H194 0.929 . S
C175 C172 1.461 . S
C175 C174 1.474 . S
C176 C171 1.342 . S
C176 C174 1.285 . S
C176 H195 0.930 . S
C177 C180 1.424 . S
C177 C182 1.245 . S
C177 C183 1.428 . S
C178 C181 1.260 . S
C178 C182 1.477 . S
C178 H196 0.932 . S
C179 C180 1.384 . S
C179 C181 1.479 . S
C179 H197 0.929 . S
C180 C177 1.424 . S
C180 C179 1.384 . S
C180 H198 0.928 . S
C181 C178 1.260 . S
C181 C179 1.479 . S
C182 C177 1.245 . S
C182 C178 1.477 . S
C182 H199 0.932 . S
C183 U166 2.882 . S
C183 C177 1.428 . S
C183 O186 1.301 . S
C183 O187 1.282 . S
O184 U166 2.441 . S
O184 C170 1.249 . S
O185 U166 2.420 . S
O185 C170 1.202 . S
O186 U166 2.455 . S
O186 C183 1.301 . S
O187 U166 2.449 . S
O187 C183 1.282 . S
H188 C161 0.931 . S
H189 C163 0.929 . S
H190 C164 0.930 . S
H191 C165 0.931 . S
H192 C172 0.932 . S
H193 C173 0.930 . S
H194 C174 0.929 . S
H195 C176 0.930 . S
H196 C178 0.932 . S
H197 C179 0.929 . S
H198 C180 0.928 . S
H199 C182 0.932 . S
C200 C201 1.264 . S
C200 C205 1.479 . S
C200 C210 1.465 . S
C201 C200 1.264 . S
C201 C203 1.339 . S
C201 H228 0.931 . S
C202 C203 1.395 . S
C202 C204 1.320 . S
C203 C201 1.339 . S
C203 C202 1.395 . S
C203 H229 0.929 . S
C204 C202 1.320 . S
C204 C205 1.405 . S
C204 H230 0.930 . S
C205 C200 1.479 . S
C205 C204 1.405 . S
C205 H231 0.931 . S
U206 O207 2.454 . S
U206 O208 2.458 . S
U206 C209 2.984 . S
U206 C210 2.847 . S
U206 C223 2.882 . S
U206 O224 2.441 . S
U206 O225 2.420 . S
U206 O226 2.455 . S
U206 O227 2.449 . S
O207 U206 2.454 . S
O207 C209 1.353 . S
O208 U206 2.458 . S
O208 C209 1.286 . S
C209 U206 2.984 . S
C209 O207 1.353 . S
C209 O208 1.286 . S
C209 C211 1.363 . S
C210 C200 1.465 . S
C210 U206 2.847 . S
C210 O224 1.249 . S
C210 O225 1.202 . S
C211 C209 1.363 . S
C211 C213 1.408 . S
C211 C216 1.342 . S
C212 C213 1.310 . S
C212 C215 1.461 . S
C212 H232 0.932 . S
C213 C211 1.408 . S
C213 C212 1.310 . S
C213 H233 0.930 . S
C214 C215 1.474 . S
C214 C216 1.285 . S
C214 H234 0.929 . S
C215 C212 1.461 . S
C215 C214 1.474 . S
C216 C211 1.342 . S
C216 C214 1.285 . S
C216 H235 0.930 . S
C217 C220 1.424 . S
C217 C222 1.245 . S
C217 C223 1.428 . S
C218 C221 1.260 . S
C218 C222 1.477 . S
C218 H236 0.932 . S
C219 C220 1.384 . S
C219 C221 1.479 . S
C219 H237 0.929 . S
C220 C217 1.424 . S
C220 C219 1.384 . S
C220 H238 0.928 . S
C221 C218 1.260 . S
C221 C219 1.479 . S
C222 C217 1.245 . S
C222 C218 1.477 . S
C222 H239 0.932 . S
C223 U206 2.882 . S
C223 C217 1.428 . S
C223 O226 1.301 . S
C223 O227 1.282 . S
O224 U206 2.441 . S
O224 C210 1.249 . S
O225 U206 2.420 . S
O225 C210 1.202 . S
O226 U206 2.455 . S
O226 C223 1.301 . S
O227 U206 2.449 . S
O227 C223 1.282 . S
H228 C201 0.931 . S
H229 C203 0.929 . S
H230 C204 0.930 . S
H231 C205 0.931 . S
H232 C212 0.932 . S
H233 C213 0.930 . S
H234 C214 0.929 . S
H235 C216 0.930 . S
H236 C218 0.932 . S
H237 C219 0.929 . S
H238 C220 0.928 . S
H239 C222 0.932 . S
C240 C241 1.264 . S
C240 C245 1.479 . S
C240 C250 1.465 . S
C241 C240 1.264 . S
C241 C243 1.339 . S
C241 H268 0.931 . S
C242 C243 1.395 . S
C242 C244 1.320 . S
C243 C241 1.339 . S
C243 C242 1.395 . S
C243 H269 0.929 . S
C244 C242 1.320 . S
C244 C245 1.405 . S
C244 H270 0.930 . S
C245 C240 1.479 . S
C245 C244 1.405 . S
C245 H271 0.931 . S
U246 O247 2.454 . S
U246 O248 2.458 . S
U246 C249 2.984 . S
U246 C250 2.847 . S
U246 C263 2.882 . S
U246 O264 2.441 . S
U246 O265 2.420 . S
U246 O266 2.455 . S
U246 O267 2.449 . S
O247 U246 2.454 . S
O247 C249 1.353 . S
O248 U246 2.458 . S
O248 C249 1.286 . S
C249 U246 2.984 . S
C249 O247 1.353 . S
C249 O248 1.286 . S
C249 C251 1.363 . S
C250 C240 1.465 . S
C250 U246 2.847 . S
C250 O264 1.249 . S
C250 O265 1.202 . S
C251 C249 1.363 . S
C251 C253 1.408 . S
C251 C256 1.342 . S
C252 C253 1.310 . S
C252 C255 1.461 . S
C252 H272 0.932 . S
C253 C251 1.408 . S
C253 C252 1.310 . S
C253 H273 0.930 . S
C254 C255 1.474 . S
C254 C256 1.285 . S
C254 H274 0.929 . S
C255 C252 1.461 . S
C255 C254 1.474 . S
C256 C251 1.342 . S
C256 C254 1.285 . S
C256 H275 0.930 . S
C257 C260 1.424 . S
C257 C262 1.245 . S
C257 C263 1.428 . S
C258 C261 1.260 . S
C258 C262 1.477 . S
C258 H276 0.932 . S
C259 C260 1.384 . S
C259 C261 1.479 . S
C259 H277 0.929 . S
C260 C257 1.424 . S
C260 C259 1.384 . S
C260 H278 0.928 . S
C261 C258 1.260 . S
C261 C259 1.479 . S
C262 C257 1.245 . S
C262 C258 1.477 . S
C262 H279 0.932 . S
C263 U246 2.882 . S
C263 C257 1.428 . S
C263 O266 1.301 . S
C263 O267 1.282 . S
O264 U246 2.441 . S
O264 C250 1.249 . S
O265 U246 2.420 . S
O265 C250 1.202 . S
O266 U246 2.455 . S
O266 C263 1.301 . S
O267 U246 2.449 . S
O267 C263 1.282 . S
H268 C241 0.931 . S
H269 C243 0.929 . S
H270 C244 0.930 . S
H271 C245 0.931 . S
H272 C252 0.932 . S
H273 C253 0.930 . S
H274 C254 0.929 . S
H275 C256 0.930 . S
H276 C258 0.932 . S
H277 C259 0.929 . S
H278 C260 0.928 . S
H279 C262 0.932 . S
C280 C281 1.264 . S
C280 C285 1.479 . S
C280 C290 1.465 . S
C281 C280 1.264 . S
C281 C283 1.339 . S
C281 H308 0.931 . S
C282 C283 1.395 . S
C282 C284 1.320 . S
C283 C281 1.339 . S
C283 C282 1.395 . S
C283 H309 0.929 . S
C284 C282 1.320 . S
C284 C285 1.405 . S
C284 H310 0.930 . S
C285 C280 1.479 . S
C285 C284 1.405 . S
C285 H311 0.931 . S
U286 O287 2.454 . S
U286 O288 2.458 . S
U286 C289 2.984 . S
U286 C290 2.847 . S
U286 C303 2.882 . S
U286 O304 2.441 . S
U286 O305 2.420 . S
U286 O306 2.455 . S
U286 O307 2.449 . S
O287 U286 2.454 . S
O287 C289 1.353 . S
O288 U286 2.458 . S
O288 C289 1.286 . S
C289 U286 2.984 . S
C289 O287 1.353 . S
C289 O288 1.286 . S
C289 C291 1.363 . S
C290 C280 1.465 . S
C290 U286 2.847 . S
C290 O304 1.249 . S
C290 O305 1.202 . S
C291 C289 1.363 . S
C291 C293 1.408 . S
C291 C296 1.342 . S
C292 C293 1.310 . S
C292 C295 1.461 . S
C292 H312 0.932 . S
C293 C291 1.408 . S
C293 C292 1.310 . S
C293 H313 0.930 . S
C294 C295 1.474 . S
C294 C296 1.285 . S
C294 H314 0.929 . S
C295 C292 1.461 . S
C295 C294 1.474 . S
C296 C291 1.342 . S
C296 C294 1.285 . S
C296 H315 0.930 . S
C297 C300 1.424 . S
C297 C302 1.245 . S
C297 C303 1.428 . S
C298 C301 1.260 . S
C298 C302 1.477 . S
C298 H316 0.932 . S
C299 C300 1.384 . S
C299 C301 1.479 . S
C299 H317 0.929 . S
C300 C297 1.424 . S
C300 C299 1.384 . S
C300 H318 0.928 . S
C301 C298 1.260 . S
C301 C299 1.479 . S
C302 C297 1.245 . S
C302 C298 1.477 . S
C302 H319 0.932 . S
C303 U286 2.882 . S
C303 C297 1.428 . S
C303 O306 1.301 . S
C303 O307 1.282 . S
O304 U286 2.441 . S
O304 C290 1.249 . S
O305 U286 2.420 . S
O305 C290 1.202 . S
O306 U286 2.455 . S
O306 C303 1.301 . S
O307 U286 2.449 . S
O307 C303 1.282 . S
H308 C281 0.931 . S
H309 C283 0.929 . S
H310 C284 0.930 . S
H311 C285 0.931 . S
H312 C292 0.932 . S
H313 C293 0.930 . S
H314 C294 0.929 . S
H315 C296 0.930 . S
H316 C298 0.932 . S
H317 C299 0.929 . S
H318 C300 0.928 . S
H319 C302 0.932 . S
H320 O346 0.856 1_455 S
H321 O349 0.854 . S
H322 C357 0.930 . S
H323 C358 0.930 . S
H324 C360 0.930 . S
H325 C361 0.930 . S
H326 C363 0.931 . S
H327 C364 0.930 . S
H328 C366 0.930 . S
H329 C367 0.928 . S
H330 C369 0.930 . S
H331 C370 0.931 . S
H332 C372 0.930 . S
H333 C373 0.929 . S
H334 C375 0.931 . S
H335 C376 0.930 . S
H336 C378 0.930 . S
H337 C379 0.932 . S
H338 C381 0.930 . S
H339 C382 0.929 . S
H340 C384 0.931 . S
H341 C385 0.930 . S
H342 C387 0.929 . S
H343 C388 0.931 . S
H344 C390 0.930 . S
H345 C391 0.929 . S
O346 H320 0.856 1_655 S
O346 C392 1.300 1_655 S
O347 C392 1.209 . S
O348 C393 1.199 . S
O349 H321 0.854 . S
O349 C393 1.297 . S
C350 C351 1.404 1_455 S
C350 C355 1.397 1_455 S
C350 C356 1.492 . S
C351 C350 1.404 1_655 S
C351 C352 1.396 . S
C351 C362 1.492 . S
C352 C351 1.396 . S
C352 C353 1.397 . S
C352 C368 1.509 . S
C353 C352 1.397 . S
C353 C354 1.412 . S
C353 C374 1.485 . S
C354 C353 1.412 . S
C354 C355 1.388 . S
C354 C380 1.490 . S
C355 C350 1.397 1_655 S
C355 C354 1.388 . S
C355 C386 1.519 1_655 S
C356 C350 1.492 . S
C356 C357 1.363 . S
C356 C361 1.390 . S
C357 H322 0.930 . S
C357 C356 1.363 . S
C357 C358 1.372 . S
C358 H323 0.930 . S
C358 C357 1.372 . S
C358 C359 1.383 . S
C359 C358 1.383 . S
C359 C360 1.395 . S
C360 H324 0.930 . S
C360 C359 1.395 . S
C360 C361 1.362 . S
C361 H325 0.930 . S
C361 C356 1.390 . S
C361 C360 1.362 . S
C362 C351 1.492 . S
C362 C363 1.377 . S
C362 C367 1.398 1_655 S
C363 H326 0.931 . S
C363 C362 1.377 . S
C363 C364 1.376 . S
C364 H327 0.930 . S
C364 C363 1.376 . S
C364 C365 1.373 1_655 S
C365 C364 1.373 1_455 S
C365 C366 1.380 . S
C365 C392 1.488 . S
C366 H328 0.930 . S
C366 C365 1.380 . S
C366 C367 1.376 . S
C367 H329 0.928 . S
C367 C362 1.398 1_455 S
C367 C366 1.376 . S
C368 C352 1.509 . S
C368 C369 1.391 . S
C368 C373 1.386 . S
C369 H330 0.930 . S
C369 C368 1.391 . S
C369 C370 1.375 . S
C370 H331 0.931 . S
C370 C369 1.375 . S
C370 C371 1.375 . S
C371 C370 1.375 . S
C371 C372 1.361 . S
C372 H332 0.930 . S
C372 C371 1.361 . S
C372 C373 1.399 . S
C373 H333 0.929 . S
C373 C368 1.386 . S
C373 C372 1.399 . S
C374 C353 1.485 . S
C374 C375 1.394 . S
C374 C379 1.360 . S
C375 H334 0.931 . S
C375 C374 1.394 . S
C375 C376 1.372 . S
C376 H335 0.930 . S
C376 C375 1.372 . S
C376 C377 1.397 . S
C377 C376 1.397 . S
C377 C378 1.390 . S
C377 C393 1.476 . S
C378 H336 0.930 . S
C378 C377 1.390 . S
C378 C379 1.366 . S
C379 H337 0.932 . S
C379 C374 1.360 . S
C379 C378 1.366 . S
C380 C354 1.490 . S
C380 C381 1.380 . S
C380 C385 1.386 . S
C381 H338 0.930 . S
C381 C380 1.380 . S
C381 C382 1.381 . S
C382 H339 0.929 . S
C382 C381 1.381 . S
C382 C383 1.371 . S
C383 C382 1.371 . S
C383 C384 1.380 . S
C384 H340 0.931 . S
C384 C383 1.380 . S
C384 C385 1.387 . S
C385 H341 0.930 . S
C385 C380 1.386 . S
C385 C384 1.387 . S
C386 C355 1.519 1_455 S
C386 C387 1.377 . S
C386 C391 1.361 . S
C387 H342 0.929 . S
C387 C386 1.377 . S
C387 C388 1.386 . S
C388 H343 0.931 . S
C388 C387 1.386 . S
C388 C389 1.363 . S
C389 C388 1.363 . S
C389 C390 1.385 . S
C390 H344 0.930 . S
C390 C389 1.385 . S
C390 C391 1.396 . S
C391 H345 0.929 . S
C391 C386 1.361 . S
C391 C390 1.396 . S
C392 O346 1.300 1_455 S
C392 O347 1.209 . S
C392 C365 1.488 . S
C393 O348 1.199 . S
C393 O349 1.297 . S
C393 C377 1.476 . S
H394 O420 0.856 . S
H395 O423 0.854 . S
H396 C431 0.930 . S
H397 C432 0.930 . S
H398 C434 0.930 . S
H399 C435 0.930 . S
H400 C437 0.931 . S
H401 C438 0.930 . S
H402 C440 0.930 . S
H403 C441 0.929 . S
H404 C443 0.930 . S
H405 C444 0.931 . S
H406 C446 0.930 . S
H407 C447 0.929 . S
H408 C449 0.931 . S
H409 C450 0.930 . S
H410 C452 0.930 . S
H411 C453 0.932 . S
H412 C455 0.930 1_455 S
H413 C456 0.929 . S
H414 C458 0.931 . S
H415 C459 0.930 . S
H416 C461 0.929 . S
H417 C462 0.931 . S
H418 C464 0.930 . S
H419 C465 0.929 . S
O420 H394 0.856 . S
O420 C466 1.300 . S
O421 C466 1.209 . S
O422 C467 1.199 . S
O423 H395 0.854 . S
O423 C467 1.297 . S
C424 C425 1.404 . S
C424 C429 1.397 . S
C424 C430 1.492 . S
C425 C424 1.404 . S
C425 C426 1.396 1_455 S
C425 C436 1.492 . S
C426 C425 1.396 1_655 S
C426 C427 1.397 . S
C426 C442 1.509 . S
C427 C426 1.397 . S
C427 C428 1.412 1_655 S
C427 C448 1.485 . S
C428 C427 1.412 1_455 S
C428 C429 1.388 . S
C428 C454 1.490 1_455 S
C429 C424 1.397 . S
C429 C428 1.388 . S
C429 C460 1.519 . S
C430 C424 1.492 . S
C430 C431 1.363 . S
C430 C435 1.390 . S
C431 H396 0.930 . S
C431 C430 1.363 . S
C431 C432 1.372 . S
C432 H397 0.930 . S
C432 C431 1.372 . S
C432 C433 1.383 . S
C433 C432 1.383 . S
C433 C434 1.395 . S
C434 H398 0.930 . S
C434 C433 1.395 . S
C434 C435 1.362 . S
C435 H399 0.930 . S
C435 C430 1.390 . S
C435 C434 1.362 . S
C436 C425 1.492 . S
C436 C437 1.377 . S
C436 C441 1.397 . S
C437 H400 0.931 . S
C437 C436 1.377 . S
C437 C438 1.376 . S
C438 H401 0.930 . S
C438 C437 1.376 . S
C438 C439 1.376 . S
C439 C438 1.376 . S
C439 C440 1.378 . S
C439 C466 1.486 . S
C440 H402 0.930 . S
C440 C439 1.378 . S
C440 C441 1.376 . S
C441 H403 0.929 . S
C441 C436 1.397 . S
C441 C440 1.376 . S
C442 C426 1.509 . S
C442 C443 1.391 . S
C442 C447 1.386 . S
C443 H404 0.930 . S
C443 C442 1.391 . S
C443 C444 1.375 . S
C444 H405 0.931 . S
C444 C443 1.375 . S
C444 C445 1.375 . S
C445 C444 1.375 . S
C445 C446 1.361 . S
C446 H406 0.930 . S
C446 C445 1.361 . S
C446 C447 1.399 . S
C447 H407 0.929 . S
C447 C442 1.386 . S
C447 C446 1.399 . S
C448 C427 1.485 . S
C448 C449 1.394 . S
C448 C453 1.360 . S
C449 H408 0.931 . S
C449 C448 1.394 . S
C449 C450 1.372 . S
C450 H409 0.930 . S
C450 C449 1.372 . S
C450 C451 1.397 . S
C451 C450 1.397 . S
C451 C452 1.390 . S
C451 C467 1.476 . S
C452 H410 0.930 . S
C452 C451 1.390 . S
C452 C453 1.366 . S
C453 H411 0.932 . S
C453 C448 1.360 . S
C453 C452 1.366 . S
C454 C428 1.490 1_655 S
C454 C455 1.380 . S
C454 C459 1.386 . S
C455 H412 0.930 1_655 S
C455 C454 1.380 . S
C455 C456 1.381 . S
C456 H413 0.929 . S
C456 C455 1.381 . S
C456 C457 1.371 . S
C457 C456 1.371 . S
C457 C458 1.380 . S
C458 H414 0.931 . S
C458 C457 1.380 . S
C458 C459 1.387 . S
C459 H415 0.930 . S
C459 C454 1.386 . S
C459 C458 1.387 . S
C460 C429 1.519 . S
C460 C461 1.377 . S
C460 C465 1.361 . S
C461 H416 0.929 . S
C461 C460 1.377 . S
C461 C462 1.386 . S
C462 H417 0.931 . S
C462 C461 1.386 . S
C462 C463 1.363 . S
C463 C462 1.363 . S
C463 C464 1.385 . S
C464 H418 0.930 . S
C464 C463 1.385 . S
C464 C465 1.396 . S
C465 H419 0.929 . S
C465 C460 1.361 . S
C465 C464 1.396 . S
C466 O420 1.300 . S
C466 O421 1.209 . S
C466 C439 1.486 . S
C467 O422 1.199 . S
C467 O423 1.297 . S
C467 C451 1.476 . S
H468 O494 0.856 . S
H469 O497 0.854 . S
H470 C505 0.930 . S
H471 C506 0.930 . S
H472 C508 0.930 . S
H473 C509 0.930 . S
H474 C511 0.931 . S
H475 C512 0.930 . S
H476 C514 0.930 1_565 S
H477 C515 0.929 . S
H478 C517 0.930 . S
H479 C518 0.931 . S
H480 C520 0.930 . S
H481 C521 0.929 . S
H482 C523 0.931 . S
H483 C524 0.930 . S
H484 C526 0.930 . S
H485 C527 0.932 . S
H486 C529 0.930 . S
H487 C530 0.929 . S
H488 C532 0.931 . S
H489 C533 0.930 . S
H490 C535 0.929 . S
H491 C536 0.931 . S
H492 C538 0.930 . S
H493 C539 0.929 . S
O494 H468 0.856 . S
O494 C540 1.317 . S
O495 C540 1.179 1_565 S
O496 C541 1.199 . S
O497 H469 0.854 . S
O497 C541 1.297 . S
C498 C499 1.404 . S
C498 C503 1.397 . S
C498 C504 1.492 1_545 S
C499 C498 1.404 . S
C499 C500 1.396 . S
C499 C510 1.492 . S
C500 C499 1.396 . S
C500 C501 1.397 . S
C500 C516 1.509 . S
C501 C500 1.397 . S
C501 C502 1.412 . S
C501 C522 1.485 . S
C502 C501 1.412 . S
C502 C503 1.388 . S
C502 C528 1.490 . S
C503 C498 1.397 . S
C503 C502 1.388 . S
C503 C534 1.519 . S
C504 C498 1.492 1_565 S
C504 C505 1.363 . S
C504 C509 1.390 . S
C505 H470 0.930 . S
C505 C504 1.363 . S
C505 C506 1.372 . S
C506 H471 0.930 . S
C506 C505 1.372 . S
C506 C507 1.383 . S
C507 C506 1.383 . S
C507 C508 1.395 . S
C508 H472 0.930 . S
C508 C507 1.395 . S
C508 C509 1.362 . S
C509 H473 0.930 . S
C509 C504 1.390 . S
C509 C508 1.362 . S
C510 C499 1.492 . S
C510 C511 1.377 . S
C510 C515 1.397 . S
C511 H474 0.931 . S
C511 C510 1.377 . S
C511 C512 1.376 . S
C512 H475 0.930 . S
C512 C511 1.376 . S
C512 C513 1.376 . S
C513 C512 1.376 . S
C513 C514 1.378 . S
C513 C540 1.504 . S
C514 H476 0.930 1_545 S
C514 C513 1.378 . S
C514 C515 1.376 . S
C515 H477 0.929 . S
C515 C510 1.397 . S
C515 C514 1.376 . S
C516 C500 1.509 . S
C516 C517 1.391 . S
C516 C521 1.386 . S
C517 H478 0.930 . S
C517 C516 1.391 . S
C517 C518 1.375 . S
C518 H479 0.931 . S
C518 C517 1.375 . S
C518 C519 1.375 . S
C519 C518 1.375 . S
C519 C520 1.361 . S
C520 H480 0.930 . S
C520 C519 1.361 . S
C520 C521 1.399 . S
C521 H481 0.929 . S
C521 C516 1.386 . S
C521 C520 1.399 . S
C522 C501 1.485 . S
C522 C523 1.394 . S
C522 C527 1.360 . S
C523 H482 0.931 . S
C523 C522 1.394 . S
C523 C524 1.372 . S
C524 H483 0.930 . S
C524 C523 1.372 . S
C524 C525 1.397 . S
C525 C524 1.397 . S
C525 C526 1.390 . S
C525 C541 1.476 . S
C526 H484 0.930 . S
C526 C525 1.390 . S
C526 C527 1.366 . S
C527 H485 0.932 . S
C527 C522 1.360 . S
C527 C526 1.366 . S
C528 C502 1.490 . S
C528 C529 1.380 . S
C528 C533 1.386 . S
C529 H486 0.930 . S
C529 C528 1.380 . S
C529 C530 1.381 . S
C530 H487 0.929 . S
C530 C529 1.381 . S
C530 C531 1.371 . S
C531 C530 1.371 . S
C531 C532 1.380 . S
C532 H488 0.931 . S
C532 C531 1.380 . S
C532 C533 1.387 . S
C533 H489 0.930 . S
C533 C528 1.386 . S
C533 C532 1.387 . S
C534 C503 1.519 . S
C534 C535 1.377 1_545 S
C534 C539 1.361 . S
C535 H490 0.929 . S
C535 C534 1.377 1_565 S
C535 C536 1.386 . S
C536 H491 0.931 . S
C536 C535 1.386 . S
C536 C537 1.363 . S
C537 C536 1.363 . S
C537 C538 1.385 . S
C538 H492 0.930 . S
C538 C537 1.385 . S
C538 C539 1.396 1_565 S
C539 H493 0.929 . S
C539 C534 1.361 . S
C539 C538 1.396 1_545 S
C540 O494 1.317 . S
C540 O495 1.179 1_545 S
C540 C513 1.504 . S
C541 O496 1.199 . S
C541 O497 1.297 . S
C541 C525 1.476 . S
H542 O568 0.856 . S
H543 O571 0.854 . S
H544 C579 0.930 . S
H545 C580 0.930 . S
H546 C582 0.930 . S
H547 C583 0.930 . S
H548 C585 0.931 . S
H549 C586 0.930 . S
H550 C588 0.930 . S
H551 C589 0.929 . S
H552 C591 0.930 . S
H553 C592 0.931 . S
H554 C594 0.930 . S
H555 C595 0.929 . S
H556 C597 0.931 . S
H557 C598 0.930 . S
H558 C600 0.930 . S
H559 C601 0.916 1_556 S
H560 C603 0.930 . S
H561 C604 0.929 . S
H562 C606 0.931 . S
H563 C607 0.930 . S
H564 C609 0.929 . S
H565 C610 0.931 . S
H566 C612 0.930 . S
H567 C613 0.929 . S
O568 H542 0.856 . S
O568 C614 1.300 . S
O569 C614 1.209 . S
O570 C615 1.199 . S
O571 H543 0.854 . S
O571 C615 1.297 . S
C572 C573 1.404 . S
C572 C577 1.397 1_556 S
C572 C578 1.492 . S
C573 C572 1.404 . S
C573 C574 1.396 . S
C573 C584 1.492 . S
C574 C573 1.396 . S
C574 C575 1.414 . S
C574 C590 1.509 . S
C575 C574 1.414 . S
C575 C576 1.400 1_556 S
C575 C596 1.481 1_556 S
C576 C575 1.400 1_554 S
C576 C577 1.388 . S
C576 C602 1.490 . S
C577 C572 1.397 1_554 S
C577 C576 1.388 . S
C577 C608 1.519 . S
C578 C572 1.492 . S
C578 C579 1.363 . S
C578 C583 1.390 . S
C579 H544 0.930 . S
C579 C578 1.363 . S
C579 C580 1.372 . S
C580 H545 0.930 . S
C580 C579 1.372 . S
C580 C581 1.383 . S
C581 C580 1.383 . S
C581 C582 1.395 . S
C582 H546 0.930 . S
C582 C581 1.395 . S
C582 C583 1.362 . S
C583 H547 0.930 . S
C583 C578 1.390 . S
C583 C582 1.362 . S
C584 C573 1.492 . S
C584 C585 1.377 . S
C584 C589 1.397 . S
C585 H548 0.931 . S
C585 C584 1.377 . S
C585 C586 1.376 . S
C586 H549 0.930 . S
C586 C585 1.376 . S
C586 C587 1.376 . S
C587 C586 1.376 . S
C587 C588 1.378 . S
C587 C614 1.486 . S
C588 H550 0.930 . S
C588 C587 1.378 . S
C588 C589 1.376 . S
C589 H551 0.929 . S
C589 C584 1.397 . S
C589 C588 1.376 . S
C590 C574 1.509 . S
C590 C591 1.391 . S
C590 C595 1.386 . S
C591 H552 0.930 . S
C591 C590 1.391 . S
C591 C592 1.375 . S
C592 H553 0.931 . S
C592 C591 1.375 . S
C592 C593 1.375 . S
C593 C592 1.375 . S
C593 C594 1.361 . S
C594 H554 0.930 . S
C594 C593 1.361 . S
C594 C595 1.399 . S
C595 H555 0.929 . S
C595 C590 1.386 . S
C595 C594 1.399 . S
C596 C575 1.481 1_554 S
C596 C597 1.394 . S
C596 C601 1.368 . S
C597 H556 0.931 . S
C597 C596 1.394 . S
C597 C598 1.372 . S
C598 H557 0.930 . S
C598 C597 1.372 . S
C598 C599 1.397 . S
C599 C598 1.397 . S
C599 C600 1.390 . S
C599 C615 1.476 . S
C600 H558 0.930 . S
C600 C599 1.390 . S
C600 C601 1.374 . S
C601 H559 0.916 1_554 S
C601 C596 1.368 . S
C601 C600 1.374 . S
C602 C576 1.490 . S
C602 C603 1.380 . S
C602 C607 1.386 . S
C603 H560 0.930 . S
C603 C602 1.380 . S
C603 C604 1.381 . S
C604 H561 0.929 . S
C604 C603 1.381 . S
C604 C605 1.371 . S
C605 C604 1.371 . S
C605 C606 1.380 . S
C606 H562 0.931 . S
C606 C605 1.380 . S
C606 C607 1.387 . S
C607 H563 0.930 . S
C607 C602 1.386 . S
C607 C606 1.387 . S
C608 C577 1.519 . S
C608 C609 1.377 . S
C608 C613 1.361 . S
C609 H564 0.929 . S
C609 C608 1.377 . S
C609 C610 1.386 . S
C610 H565 0.931 . S
C610 C609 1.386 . S
C610 C611 1.363 . S
C611 C610 1.363 . S
C611 C612 1.385 . S
C612 H566 0.930 . S
C612 C611 1.385 . S
C612 C613 1.396 . S
C613 H567 0.929 . S
C613 C608 1.361 . S
C613 C612 1.396 . S
C614 O568 1.300 . S
C614 O569 1.209 . S
C614 C587 1.486 . S
C615 O570 1.199 . S
C615 O571 1.297 . S
C615 C599 1.476 . S
H616 O642 0.856 . S
H617 O645 0.854 . S
H618 C653 0.930 . S
H619 C654 0.930 . S
H620 C656 0.930 . S
H621 C657 0.930 . S
H622 C659 0.931 . S
H623 C660 0.930 . S
H624 C662 0.930 1_565 S
H625 C663 0.929 . S
H626 C665 0.930 . S
H627 C666 0.931 . S
H628 C668 0.930 . S
H629 C669 0.929 . S
H630 C671 0.931 . S
H631 C672 0.930 . S
H632 C674 0.930 . S
H633 C675 0.932 . S
H634 C677 0.930 . S
H635 C678 0.929 . S
H636 C680 0.931 . S
H637 C681 0.930 . S
H638 C683 0.929 . S
H639 C684 0.931 . S
H640 C686 0.930 . S
H641 C687 0.929 . S
O642 H616 0.856 . S
O642 C688 1.300 . S
O643 C688 1.209 1_565 S
O644 C689 1.199 . S
O645 H617 0.854 . S
O645 C689 1.297 . S
C646 C647 1.404 . S
C646 C651 1.397 . S
C646 C652 1.492 1_545 S
C647 C646 1.404 . S
C647 C648 1.396 . S
C647 C658 1.492 . S
C648 C647 1.396 . S
C648 C649 1.397 . S
C648 C664 1.509 . S
C649 C648 1.397 . S
C649 C650 1.412 . S
C649 C670 1.485 . S
C650 C649 1.412 . S
C650 C651 1.388 . S
C650 C676 1.490 . S
C651 C646 1.397 . S
C651 C650 1.388 . S
C651 C682 1.519 1_545 S
C652 C646 1.492 1_565 S
C652 C653 1.363 . S
C652 C657 1.390 . S
C653 H618 0.930 . S
C653 C652 1.363 . S
C653 C654 1.372 . S
C654 H619 0.930 . S
C654 C653 1.372 . S
C654 C655 1.383 . S
C655 C654 1.383 . S
C655 C656 1.395 . S
C656 H620 0.930 . S
C656 C655 1.395 . S
C656 C657 1.362 . S
C657 H621 0.930 . S
C657 C652 1.390 . S
C657 C656 1.362 . S
C658 C647 1.492 . S
C658 C659 1.377 . S
C658 C663 1.397 . S
C659 H622 0.931 . S
C659 C658 1.377 . S
C659 C660 1.376 . S
C660 H623 0.930 . S
C660 C659 1.376 . S
C660 C661 1.376 . S
C661 C660 1.376 . S
C661 C662 1.378 . S
C661 C688 1.486 . S
C662 H624 0.930 1_545 S
C662 C661 1.378 . S
C662 C663 1.376 . S
C663 H625 0.929 . S
C663 C658 1.397 . S
C663 C662 1.376 . S
C664 C648 1.509 . S
C664 C665 1.391 . S
C664 C669 1.386 . S
C665 H626 0.930 . S
C665 C664 1.391 . S
C665 C666 1.375 . S
C666 H627 0.931 . S
C666 C665 1.375 . S
C666 C667 1.375 . S
C667 C666 1.375 . S
C667 C668 1.361 . S
C668 H628 0.930 . S
C668 C667 1.361 . S
C668 C669 1.399 . S
C669 H629 0.929 . S
C669 C664 1.386 . S
C669 C668 1.399 . S
C670 C649 1.485 . S
C670 C671 1.394 . S
C670 C675 1.360 . S
C671 H630 0.931 . S
C671 C670 1.394 . S
C671 C672 1.372 . S
C672 H631 0.930 . S
C672 C671 1.372 . S
C672 C673 1.397 . S
C673 C672 1.397 . S
C673 C674 1.390 . S
C673 C689 1.476 . S
C674 H632 0.930 . S
C674 C673 1.390 . S
C674 C675 1.366 . S
C675 H633 0.932 . S
C675 C670 1.360 . S
C675 C674 1.366 . S
C676 C650 1.490 . S
C676 C677 1.380 . S
C676 C681 1.386 . S
C677 H634 0.930 . S
C677 C676 1.380 . S
C677 C678 1.381 . S
C678 H635 0.929 . S
C678 C677 1.381 . S
C678 C679 1.371 . S
C679 C678 1.371 . S
C679 C680 1.380 . S
C680 H636 0.931 . S
C680 C679 1.380 . S
C680 C681 1.387 . S
C681 H637 0.930 . S
C681 C676 1.386 . S
C681 C680 1.387 . S
C682 C651 1.519 1_565 S
C682 C683 1.377 . S
C682 C687 1.361 . S
C683 H638 0.929 . S
C683 C682 1.377 . S
C683 C684 1.386 . S
C684 H639 0.931 . S
C684 C683 1.386 . S
C684 C685 1.363 . S
C685 C684 1.363 . S
C685 C686 1.385 . S
C686 H640 0.930 . S
C686 C685 1.385 . S
C686 C687 1.396 . S
C687 H641 0.929 . S
C687 C682 1.361 . S
C687 C686 1.396 . S
C688 O642 1.300 . S
C688 O643 1.209 1_545 S
C688 C661 1.486 . S
C689 O644 1.199 . S
C689 O645 1.297 . S
C689 C673 1.476 . S
H690 O716 0.856 . S
H691 O719 0.854 . S
H692 C727 0.930 . S
H693 C728 0.930 . S
H694 C730 0.930 . S
H695 C731 0.930 . S
H696 C733 0.931 . S
H697 C734 0.930 . S
H698 C736 0.930 . S
H699 C737 0.929 . S
H700 C739 0.930 . S
H701 C740 0.931 . S
H702 C742 0.930 . S
H703 C743 0.929 . S
H704 C745 0.931 . S
H705 C746 0.930 . S
H706 C748 0.930 . S
H707 C749 0.932 . S
H708 C751 0.930 . S
H709 C752 0.929 . S
H710 C754 0.931 . S
H711 C755 0.930 . S
H712 C757 0.929 . S
H713 C758 0.931 . S
H714 C760 0.930 . S
H715 C761 0.929 . S
O716 H690 0.856 . S
O716 C762 1.300 . S
O717 C762 1.209 . S
O718 C763 1.199 . S
O719 H691 0.854 . S
O719 C763 1.297 . S
C720 C721 1.404 . S
C720 C725 1.397 1_556 S
C720 C726 1.492 . S
C721 C720 1.404 . S
C721 C722 1.396 . S
C721 C732 1.492 . S
C722 C721 1.396 . S
C722 C723 1.397 1_556 S
C722 C738 1.509 . S
C723 C722 1.397 1_554 S
C723 C724 1.412 . S
C723 C744 1.485 . S
C724 C723 1.412 . S
C724 C725 1.388 . S
C724 C750 1.490 . S
C725 C720 1.397 1_554 S
C725 C724 1.388 . S
C725 C756 1.519 . S
C726 C720 1.492 . S
C726 C727 1.363 . S
C726 C731 1.390 . S
C727 H692 0.930 . S
C727 C726 1.363 . S
C727 C728 1.372 . S
C728 H693 0.930 . S
C728 C727 1.372 . S
C728 C729 1.383 . S
C729 C728 1.383 . S
C729 C730 1.395 . S
C730 H694 0.930 . S
C730 C729 1.395 . S
C730 C731 1.362 . S
C731 H695 0.930 . S
C731 C726 1.390 . S
C731 C730 1.362 . S
C732 C721 1.492 . S
C732 C733 1.377 . S
C732 C737 1.397 . S
C733 H696 0.931 . S
C733 C732 1.377 . S
C733 C734 1.376 . S
C734 H697 0.930 . S
C734 C733 1.376 . S
C734 C735 1.376 . S
C735 C734 1.376 . S
C735 C736 1.378 . S
C735 C762 1.486 . S
C736 H698 0.930 . S
C736 C735 1.378 . S
C736 C737 1.376 . S
C737 H699 0.929 . S
C737 C732 1.397 . S
C737 C736 1.376 . S
C738 C722 1.509 . S
C738 C739 1.391 . S
C738 C743 1.386 . S
C739 H700 0.930 . S
C739 C738 1.391 . S
C739 C740 1.375 . S
C740 H701 0.931 . S
C740 C739 1.375 . S
C740 C741 1.375 . S
C741 C740 1.375 . S
C741 C742 1.361 . S
C742 H702 0.930 . S
C742 C741 1.361 . S
C742 C743 1.399 . S
C743 H703 0.929 . S
C743 C738 1.386 . S
C743 C742 1.399 . S
C744 C723 1.485 . S
C744 C745 1.394 . S
C744 C749 1.360 . S
C745 H704 0.931 . S
C745 C744 1.394 . S
C745 C746 1.372 . S
C746 H705 0.930 . S
C746 C745 1.372 . S
C746 C747 1.397 . S
C747 C746 1.397 . S
C747 C748 1.390 . S
C747 C763 1.476 . S
C748 H706 0.930 . S
C748 C747 1.390 . S
C748 C749 1.366 . S
C749 H707 0.932 . S
C749 C744 1.360 . S
C749 C748 1.366 . S
C750 C724 1.490 . S
C750 C751 1.380 . S
C750 C755 1.386 . S
C751 H708 0.930 . S
C751 C750 1.380 . S
C751 C752 1.381 . S
C752 H709 0.929 . S
C752 C751 1.381 . S
C752 C753 1.371 . S
C753 C752 1.371 . S
C753 C754 1.380 . S
C754 H710 0.931 . S
C754 C753 1.380 . S
C754 C755 1.387 . S
C755 H711 0.930 . S
C755 C750 1.386 . S
C755 C754 1.387 . S
C756 C725 1.519 . S
C756 C757 1.377 . S
C756 C761 1.361 . S
C757 H712 0.929 . S
C757 C756 1.377 . S
C757 C758 1.386 . S
C758 H713 0.931 . S
C758 C757 1.386 . S
C758 C759 1.363 . S
C759 C758 1.363 . S
C759 C760 1.385 . S
C760 H714 0.930 . S
C760 C759 1.385 . S
C760 C761 1.396 . S
C761 H715 0.929 . S
C761 C756 1.361 . S
C761 C760 1.396 . S
C762 O716 1.300 . S
C762 O717 1.209 . S
C762 C735 1.486 . S
C763 O718 1.199 . S
C763 O719 1.297 . S
C763 C747 1.476 . S
H764 C770 0.930 . S
H765 C774 0.930 . S
H766 C779 0.929 . S
H767 C777 0.929 . S
H768 C772 0.929 . S
H769 C778 0.929 . S
C770 H764 0.930 . S
C770 C771 1.367 . S
C770 C778 1.378 . S
C771 C770 1.367 . S
C771 C779 1.433 . S
C772 H768 0.929 . S
C772 C774 1.378 . S
C772 C776 1.350 . S
C773 C776 1.463 . S
C773 C778 1.350 . S
C773 N781 1.427 . S
C774 H765 0.930 . S
C774 C772 1.378 . S
C774 C775 1.367 . S
C775 C774 1.367 . S
C775 C777 1.433 . S
C776 C772 1.350 . S
C776 C773 1.463 . S
C776 N780 1.427 . S
C777 H767 0.929 . S
C777 C775 1.433 . S
C777 N780 1.384 . S
C778 H769 0.929 . S
C778 C770 1.378 . S
C778 C773 1.350 . S
C779 H766 0.929 . S
C779 C771 1.433 . S
C779 N781 1.384 . S
N780 C776 1.427 . S
N780 C777 1.384 . S
N781 C773 1.427 . S
N781 C779 1.384 . S
H782 C788 0.930 . S
H783 C792 0.930 . S
H784 C797 0.929 . S
H785 C795 0.929 . S
H786 C790 0.929 . S
H787 C796 0.929 . S
C788 H782 0.930 . S
C788 C789 1.367 . S
C788 C796 1.378 . S
C789 C788 1.367 . S
C789 C797 1.433 . S
C790 H786 0.929 . S
C790 C792 1.378 . S
C790 C794 1.350 . S
C791 C794 1.463 . S
C791 C796 1.350 . S
C791 N799 1.427 . S
C792 H783 0.930 . S
C792 C790 1.378 . S
C792 C793 1.367 . S
C793 C792 1.367 . S
C793 C795 1.433 . S
C794 C790 1.350 . S
C794 C791 1.463 . S
C794 N798 1.427 . S
C795 H785 0.929 . S
C795 C793 1.433 . S
C795 N798 1.384 . S
C796 H787 0.929 . S
C796 C788 1.378 . S
C796 C791 1.350 . S
C797 H784 0.929 . S
C797 C789 1.433 . S
C797 N799 1.384 . S
N798 C794 1.427 . S
N798 C795 1.384 . S
N799 C791 1.427 . S
N799 C797 1.384 . S
H800 C806 0.930 . S
H801 C810 0.930 . S
H802 C815 0.929 . S
H803 C813 0.929 . S
H804 C808 0.929 . S
H805 C814 0.929 . S
C806 H800 0.930 . S
C806 C807 1.367 . S
C806 C814 1.378 . S
C807 C806 1.367 . S
C807 C815 1.433 . S
C808 H804 0.929 . S
C808 C810 1.378 . S
C808 C812 1.350 . S
C809 C812 1.463 . S
C809 C814 1.350 . S
C809 N817 1.427 . S
C810 H801 0.930 . S
C810 C808 1.378 . S
C810 C811 1.367 . S
C811 C810 1.367 . S
C811 C813 1.433 . S
C812 C808 1.350 . S
C812 C809 1.463 . S
C812 N816 1.427 . S
C813 H803 0.929 . S
C813 C811 1.433 . S
C813 N816 1.384 . S
C814 H805 0.929 . S
C814 C806 1.378 . S
C814 C809 1.350 . S
C815 H802 0.929 . S
C815 C807 1.433 . S
C815 N817 1.384 . S
N816 C812 1.427 . S
N816 C813 1.384 . S
N817 C809 1.427 . S
N817 C815 1.384 . S
H818 C824 0.930 . S
H819 C828 0.930 . S
H820 C833 0.929 . S
H821 C831 0.929 . S
H822 C826 0.929 . S
H823 C832 0.929 . S
C824 H818 0.930 . S
C824 C825 1.367 . S
C824 C832 1.378 . S
C825 C824 1.367 . S
C825 C833 1.433 . S
C826 H822 0.929 . S
C826 C828 1.378 . S
C826 C830 1.350 . S
C827 C830 1.463 . S
C827 C832 1.350 . S
C827 N835 1.427 . S
C828 H819 0.930 . S
C828 C826 1.378 . S
C828 C829 1.367 . S
C829 C828 1.367 . S
C829 C831 1.433 . S
C830 C826 1.350 . S
C830 C827 1.463 . S
C830 N834 1.427 . S
C831 H821 0.929 . S
C831 C829 1.433 . S
C831 N834 1.384 . S
C832 H823 0.929 . S
C832 C824 1.378 . S
C832 C827 1.350 . S
C833 H820 0.929 . S
C833 C825 1.433 . S
C833 N835 1.384 . S
N834 C830 1.427 . S
N834 C831 1.384 . S
N835 C827 1.427 . S
N835 C833 1.384 . S
H836 C842 0.930 . S
H837 C846 0.930 . S
H838 C851 0.929 . S
H839 C849 0.929 . S
H840 C844 0.929 . S
H841 C850 0.929 . S
C842 H836 0.930 . S
C842 C843 1.367 . S
C842 C850 1.378 . S
C843 C842 1.367 . S
C843 C851 1.433 . S
C844 H840 0.929 . S
C844 C846 1.378 . S
C844 C848 1.350 . S
C845 C848 1.463 . S
C845 C850 1.350 . S
C845 N853 1.427 . S
C846 H837 0.930 . S
C846 C844 1.378 . S
C846 C847 1.367 . S
C847 C846 1.367 . S
C847 C849 1.433 . S
C848 C844 1.350 . S
C848 C845 1.463 . S
C848 N852 1.427 . S
C849 H839 0.929 . S
C849 C847 1.433 . S
C849 N852 1.384 . S
C850 H841 0.929 . S
C850 C842 1.378 . S
C850 C845 1.350 . S
C851 H838 0.929 . S
C851 C843 1.433 . S
C851 N853 1.384 . S
N852 C848 1.427 . S
N852 C849 1.384 . S
N853 C845 1.427 . S
N853 C851 1.384 . S
H854 C860 0.930 . S
H855 C864 0.930 . S
H856 C869 0.929 . S
H857 C867 0.929 . S
H858 C862 0.929 . S
H859 C868 0.929 . S
C860 H854 0.930 . S
C860 C861 1.367 . S
C860 C868 1.378 . S
C861 C860 1.367 . S
C861 C869 1.433 . S
C862 H858 0.929 . S
C862 C864 1.378 . S
C862 C866 1.350 . S
C863 C866 1.463 . S
C863 C868 1.350 . S
C863 N871 1.427 . S
C864 H855 0.930 . S
C864 C862 1.378 . S
C864 C865 1.367 . S
C865 C864 1.367 . S
C865 C867 1.433 . S
C866 C862 1.350 . S
C866 C863 1.463 . S
C866 N870 1.427 . S
C867 H857 0.929 . S
C867 C865 1.433 . S
C867 N870 1.384 . S
C868 H859 0.929 . S
C868 C860 1.378 . S
C868 C863 1.350 . S
C869 H856 0.929 . S
C869 C861 1.433 . S
C869 N871 1.384 . S
N870 C866 1.427 . S
N870 C867 1.384 . S
N871 C863 1.427 . S
N871 C869 1.384 . S
H872 C878 0.930 . S
H873 C882 0.930 . S
H874 C887 0.929 . S
H875 C885 0.929 . S
H876 C880 0.929 . S
H877 C886 0.929 . S
C878 H872 0.930 . S
C878 C879 1.367 . S
C878 C886 1.378 . S
C879 C878 1.367 . S
C879 C887 1.433 . S
C880 H876 0.929 . S
C880 C882 1.378 . S
C880 C884 1.350 . S
C881 C884 1.463 . S
C881 C886 1.350 . S
C881 N889 1.427 . S
C882 H873 0.930 . S
C882 C880 1.378 . S
C882 C883 1.367 . S
C883 C882 1.367 . S
C883 C885 1.433 . S
C884 C880 1.350 . S
C884 C881 1.463 . S
C884 N888 1.427 . S
C885 H875 0.929 . S
C885 C883 1.433 . S
C885 N888 1.384 . S
C886 H877 0.929 . S
C886 C878 1.378 . S
C886 C881 1.350 . S
C887 H874 0.929 . S
C887 C879 1.433 . S
C887 N889 1.384 . S
N888 C884 1.427 . S
N888 C885 1.384 . S
N889 C881 1.427 . S
N889 C887 1.384 . S
H890 C896 0.930 . S
H891 C900 0.930 . S
H892 C905 0.929 . S
H893 C903 0.929 . S
H894 C898 0.929 . S
H895 C904 0.929 . S
C896 H890 0.930 . S
C896 C897 1.367 . S
C896 C904 1.378 . S
C897 C896 1.367 . S
C897 C905 1.433 . S
C898 H894 0.929 . S
C898 C900 1.378 . S
C898 C902 1.350 . S
C899 C902 1.463 . S
C899 C904 1.350 . S
C899 N907 1.427 . S
C900 H891 0.930 . S
C900 C898 1.378 . S
C900 C901 1.367 . S
C901 C900 1.367 . S
C901 C903 1.433 . S
C902 C898 1.350 . S
C902 C899 1.463 . S
C902 N906 1.427 . S
C903 H893 0.929 . S
C903 C901 1.433 . S
C903 N906 1.384 . S
C904 H895 0.929 . S
C904 C896 1.378 . S
C904 C899 1.350 . S
C905 H892 0.929 . S
C905 C897 1.433 . S
C905 N907 1.384 . S
N906 C902 1.427 . S
N906 C903 1.384 . S
N907 C899 1.427 . S
N907 C905 1.384 . S
H908 C914 0.930 . S
H909 C918 0.930 . S
H910 C923 0.929 . S
H911 C921 0.929 . S
H912 C916 0.929 . S
H913 C922 0.929 . S
C914 H908 0.930 . S
C914 C915 1.367 . S
C914 C922 1.378 . S
C915 C914 1.367 . S
C915 C923 1.433 . S
C916 H912 0.929 . S
C916 C918 1.378 . S
C916 C920 1.350 . S
C917 C920 1.463 . S
C917 C922 1.350 . S
C917 N925 1.427 . S
C918 H909 0.930 . S
C918 C916 1.378 . S
C918 C919 1.367 . S
C919 C918 1.367 . S
C919 C921 1.433 . S
C920 C916 1.350 . S
C920 C917 1.463 . S
C920 N924 1.427 . S
C921 H911 0.929 . S
C921 C919 1.433 . S
C921 N924 1.384 . S
C922 H913 0.929 . S
C922 C914 1.378 . S
C922 C917 1.350 . S
C923 H910 0.929 . S
C923 C915 1.433 . S
C923 N925 1.384 . S
N924 C920 1.427 . S
N924 C921 1.384 . S
N925 C917 1.427 . S
N925 C923 1.384 . S
H926 C932 0.930 . S
H927 C936 0.930 . S
H928 C941 0.929 . S
H929 C939 0.929 . S
H930 C934 0.929 . S
H931 C940 0.929 . S
C932 H926 0.930 . S
C932 C933 1.367 . S
C932 C940 1.378 . S
C933 C932 1.367 . S
C933 C941 1.433 . S
C934 H930 0.929 . S
C934 C936 1.378 . S
C934 C938 1.350 . S
C935 C938 1.463 . S
C935 C940 1.350 . S
C935 N943 1.427 . S
C936 H927 0.930 . S
C936 C934 1.378 . S
C936 C937 1.367 . S
C937 C936 1.367 . S
C937 C939 1.433 . S
C938 C934 1.350 . S
C938 C935 1.463 . S
C938 N942 1.427 . S
C939 H929 0.929 . S
C939 C937 1.433 . S
C939 N942 1.384 . S
C940 H931 0.929 . S
C940 C932 1.378 . S
C940 C935 1.350 . S
C941 H928 0.929 . S
C941 C933 1.433 . S
C941 N943 1.384 . S
N942 C938 1.427 . S
N942 C939 1.384 . S
N943 C935 1.427 . S
N943 C941 1.384 . S
H944 C950 0.930 . S
H945 C954 0.930 . S
H946 C959 0.929 . S
H947 C957 0.929 . S
H948 C952 0.929 . S
H949 C958 0.929 . S
C950 H944 0.930 . S
C950 C951 1.367 . S
C950 C958 1.378 . S
C951 C950 1.367 . S
C951 C959 1.433 . S
C952 H948 0.929 . S
C952 C954 1.378 . S
C952 C956 1.350 . S
C953 C956 1.463 . S
C953 C958 1.350 . S
C953 N961 1.427 . S
C954 H945 0.930 . S
C954 C952 1.378 . S
C954 C955 1.367 . S
C955 C954 1.367 . S
C955 C957 1.433 . S
C956 C952 1.350 . S
C956 C953 1.463 . S
C956 N960 1.427 . S
C957 H947 0.929 . S
C957 C955 1.433 . S
C957 N960 1.384 . S
C958 H949 0.929 . S
C958 C950 1.378 . S
C958 C953 1.350 . S
C959 H946 0.929 . S
C959 C951 1.433 . S
C959 N961 1.384 . S
N960 C956 1.427 . S
N960 C957 1.384 . S
N961 C953 1.427 . S
N961 C959 1.384 . S
H962 C968 0.930 . S
H963 C972 0.930 . S
H964 C977 0.929 . S
H965 C975 0.929 . S
H966 C970 0.929 . S
H967 C976 0.929 . S
C968 H962 0.930 . S
C968 C969 1.367 . S
C968 C976 1.378 . S
C969 C968 1.367 . S
C969 C977 1.433 . S
C970 H966 0.929 . S
C970 C972 1.378 . S
C970 C974 1.350 . S
C971 C974 1.463 . S
C971 C976 1.350 . S
C971 N979 1.427 . S
C972 H963 0.930 . S
C972 C970 1.378 . S
C972 C973 1.367 . S
C973 C972 1.367 . S
C973 C975 1.433 . S
C974 C970 1.350 . S
C974 C971 1.463 . S
C974 N978 1.427 . S
C975 H965 0.929 . S
C975 C973 1.433 . S
C975 N978 1.384 . S
C976 H967 0.929 . S
C976 C968 1.378 . S
C976 C971 1.350 . S
C977 H964 0.929 . S
C977 C969 1.433 . S
C977 N979 1.384 . S
N978 C974 1.427 . S
N978 C975 1.384 . S
N979 C971 1.427 . S
N979 C977 1.384 . S
H980 C986 0.930 . S
H981 C990 0.930 . S
H982 C995 0.929 . S
H983 C993 0.929 . S
H984 C988 0.929 . S
H985 C994 0.929 . S
C986 H980 0.930 . S
C986 C987 1.367 . S
C986 C994 1.378 . S
C987 C986 1.367 . S
C987 C995 1.433 . S
C988 H984 0.929 . S
C988 C990 1.378 . S
C988 C992 1.350 . S
C989 C992 1.463 . S
C989 C994 1.350 . S
C989 N997 1.427 . S
C990 H981 0.930 . S
C990 C988 1.378 . S
C990 C991 1.367 . S
C991 C990 1.367 . S
C991 C993 1.433 . S
C992 C988 1.350 . S
C992 C989 1.463 . S
C992 N996 1.427 . S
C993 H983 0.929 . S
C993 C991 1.433 . S
C993 N996 1.384 . S
C994 H985 0.929 . S
C994 C986 1.378 . S
C994 C989 1.350 . S
C995 H982 0.929 . S
C995 C987 1.433 . S
C995 N997 1.384 . S
N996 C992 1.427 . S
N996 C993 1.384 . S
N997 C989 1.427 . S
N997 C995 1.384 . S
H998 C1004 0.930 . S
H999 C1008 0.930 . S
H1000 C1013 0.929 . S
H1001 C1011 0.929 . S
H1002 C1006 0.929 . S
H1003 C1012 0.929 . S
C1004 H998 0.930 . S
C1004 C1005 1.367 . S
C1004 C1012 1.378 . S
C1005 C1004 1.367 . S
C1005 C1013 1.433 . S
C1006 H1002 0.929 . S
C1006 C1008 1.378 . S
C1006 C1010 1.350 . S
C1007 C1010 1.463 . S
C1007 C1012 1.350 . S
C1007 N1015 1.427 . S
C1008 H999 0.930 . S
C1008 C1006 1.378 . S
C1008 C1009 1.367 . S
C1009 C1008 1.367 . S
C1009 C1011 1.433 . S
C1010 C1006 1.350 . S
C1010 C1007 1.463 . S
C1010 N1014 1.427 . S
C1011 H1001 0.929 . S
C1011 C1009 1.433 . S
C1011 N1014 1.384 . S
C1012 H1003 0.929 . S
C1012 C1004 1.378 . S
C1012 C1007 1.350 . S
C1013 H1000 0.929 . S
C1013 C1005 1.433 . S
C1013 N1015 1.384 . S
N1014 C1010 1.427 . S
N1014 C1011 1.384 . S
N1015 C1007 1.427 . S
N1015 C1013 1.384 . S
H1016 C1022 0.930 . S
H1017 C1026 0.930 . S
H1018 C1031 0.929 . S
H1019 C1029 0.929 . S
H1020 C1024 0.929 . S
H1021 C1030 0.929 . S
C1022 H1016 0.930 . S
C1022 C1023 1.367 . S
C1022 C1030 1.378 . S
C1023 C1022 1.367 . S
C1023 C1031 1.433 . S
C1024 H1020 0.929 . S
C1024 C1026 1.378 . S
C1024 C1028 1.350 . S
C1025 C1028 1.463 . S
C1025 C1030 1.350 . S
C1025 N1033 1.427 . S
C1026 H1017 0.930 . S
C1026 C1024 1.378 . S
C1026 C1027 1.367 . S
C1027 C1026 1.367 . S
C1027 C1029 1.433 . S
C1028 C1024 1.350 . S
C1028 C1025 1.463 . S
C1028 N1032 1.427 . S
C1029 H1019 0.929 . S
C1029 C1027 1.433 . S
C1029 N1032 1.384 . S
C1030 H1021 0.929 . S
C1030 C1022 1.378 . S
C1030 C1025 1.350 . S
C1031 H1018 0.929 . S
C1031 C1023 1.433 . S
C1031 N1033 1.384 . S
N1032 C1028 1.427 . S
N1032 C1029 1.384 . S
N1033 C1025 1.427 . S
N1033 C1031 1.384 . S
H1034 C1040 0.930 . S
H1035 C1044 0.930 . S
H1036 C1049 0.929 . S
H1037 C1047 0.929 . S
H1038 C1042 0.929 . S
H1039 C1048 0.929 . S
C1040 H1034 0.930 . S
C1040 C1041 1.367 . S
C1040 C1048 1.378 . S
C1041 C1040 1.367 . S
C1041 C1049 1.433 . S
C1042 H1038 0.929 . S
C1042 C1044 1.378 . S
C1042 C1046 1.350 . S
C1043 C1046 1.463 . S
C1043 C1048 1.350 . S
C1043 N1051 1.427 . S
C1044 H1035 0.930 . S
C1044 C1042 1.378 . S
C1044 C1045 1.367 . S
C1045 C1044 1.367 . S
C1045 C1047 1.433 . S
C1046 C1042 1.350 . S
C1046 C1043 1.463 . S
C1046 N1050 1.427 . S
C1047 H1037 0.929 . S
C1047 C1045 1.433 . S
C1047 N1050 1.384 . S
C1048 H1039 0.929 . S
C1048 C1040 1.378 . S
C1048 C1043 1.350 . S
C1049 H1036 0.929 . S
C1049 C1041 1.433 . S
C1049 N1051 1.384 . S
N1050 C1046 1.427 . S
N1050 C1047 1.384 . S
N1051 C1043 1.427 . S
N1051 C1049 1.384 . S
H1052 C1058 0.930 . S
H1053 C1062 0.930 . S
H1054 C1067 0.929 . S
H1055 C1065 0.929 . S
H1056 C1060 0.929 . S
H1057 C1066 0.929 . S
C1058 H1052 0.930 . S
C1058 C1059 1.367 . S
C1058 C1066 1.378 . S
C1059 C1058 1.367 . S
C1059 C1067 1.433 . S
C1060 H1056 0.929 . S
C1060 C1062 1.378 . S
C1060 C1064 1.350 . S
C1061 C1064 1.463 . S
C1061 C1066 1.350 . S
C1061 N1069 1.427 . S
C1062 H1053 0.930 . S
C1062 C1060 1.378 . S
C1062 C1063 1.367 . S
C1063 C1062 1.367 . S
C1063 C1065 1.433 . S
C1064 C1060 1.350 . S
C1064 C1061 1.463 . S
C1064 N1068 1.427 . S
C1065 H1055 0.929 . S
C1065 C1063 1.433 . S
C1065 N1068 1.384 . S
C1066 H1057 0.929 . S
C1066 C1058 1.378 . S
C1066 C1061 1.350 . S
C1067 H1054 0.929 . S
C1067 C1059 1.433 . S
C1067 N1069 1.384 . S
N1068 C1064 1.427 . S
N1068 C1065 1.384 . S
N1069 C1061 1.427 . S
N1069 C1067 1.384 . S
H1070 C1076 0.930 . S
H1071 C1080 0.930 . S
H1072 C1085 0.929 . S
H1073 C1083 0.929 . S
H1074 C1078 0.929 . S
H1075 C1084 0.929 . S
C1076 H1070 0.930 . S
C1076 C1077 1.367 . S
C1076 C1084 1.378 . S
C1077 C1076 1.367 . S
C1077 C1085 1.433 . S
C1078 H1074 0.929 . S
C1078 C1080 1.378 . S
C1078 C1082 1.350 . S
C1079 C1082 1.463 . S
C1079 C1084 1.350 . S
C1079 N1087 1.427 . S
C1080 H1071 0.930 . S
C1080 C1078 1.378 . S
C1080 C1081 1.367 . S
C1081 C1080 1.367 . S
C1081 C1083 1.433 . S
C1082 C1078 1.350 . S
C1082 C1079 1.463 . S
C1082 N1086 1.427 . S
C1083 H1073 0.929 . S
C1083 C1081 1.433 . S
C1083 N1086 1.384 . S
C1084 H1075 0.929 . S
C1084 C1076 1.378 . S
C1084 C1079 1.350 . S
C1085 H1072 0.929 . S
C1085 C1077 1.433 . S
C1085 N1087 1.384 . S
N1086 C1082 1.427 . S
N1086 C1083 1.384 . S
N1087 C1079 1.427 . S
N1087 C1085 1.384 . S
H1088 C1094 0.930 . S
H1089 C1098 0.930 . S
H1090 C1103 0.929 . S
H1091 C1101 0.929 . S
H1092 C1096 0.929 . S
H1093 C1102 0.929 . S
C1094 H1088 0.930 . S
C1094 C1095 1.367 . S
C1094 C1102 1.378 . S
C1095 C1094 1.367 . S
C1095 C1103 1.433 . S
C1096 H1092 0.929 . S
C1096 C1098 1.378 . S
C1096 C1100 1.350 . S
C1097 C1100 1.463 . S
C1097 C1102 1.350 . S
C1097 N1105 1.427 . S
C1098 H1089 0.930 . S
C1098 C1096 1.378 . S
C1098 C1099 1.367 . S
C1099 C1098 1.367 . S
C1099 C1101 1.433 . S
C1100 C1096 1.350 . S
C1100 C1097 1.463 . S
C1100 N1104 1.427 . S
C1101 H1091 0.929 . S
C1101 C1099 1.433 . S
C1101 N1104 1.384 . S
C1102 H1093 0.929 . S
C1102 C1094 1.378 . S
C1102 C1097 1.350 . S
C1103 H1090 0.929 . S
C1103 C1095 1.433 . S
C1103 N1105 1.384 . S
N1104 C1100 1.427 . S
N1104 C1101 1.384 . S
N1105 C1097 1.427 . S
N1105 C1103 1.384 . S
H1106 C1112 0.930 . S
H1107 C1116 0.930 . S
H1108 C1121 0.929 . S
H1109 C1119 0.929 . S
H1110 C1114 0.929 . S
H1111 C1120 0.929 . S
C1112 H1106 0.930 . S
C1112 C1113 1.367 . S
C1112 C1120 1.378 . S
C1113 C1112 1.367 . S
C1113 C1121 1.433 . S
C1114 H1110 0.929 . S
C1114 C1116 1.378 . S
C1114 C1118 1.350 . S
C1115 C1118 1.463 . S
C1115 C1120 1.350 . S
C1115 N1123 1.427 . S
C1116 H1107 0.930 . S
C1116 C1114 1.378 . S
C1116 C1117 1.367 . S
C1117 C1116 1.367 . S
C1117 C1119 1.433 . S
C1118 C1114 1.350 . S
C1118 C1115 1.463 . S
C1118 N1122 1.427 . S
C1119 H1109 0.929 . S
C1119 C1117 1.433 . S
C1119 N1122 1.384 . S
C1120 H1111 0.929 . S
C1120 C1112 1.378 . S
C1120 C1115 1.350 . S
C1121 H1108 0.929 . S
C1121 C1113 1.433 . S
C1121 N1123 1.384 . S
N1122 C1118 1.427 . S
N1122 C1119 1.384 . S
N1123 C1115 1.427 . S
N1123 C1121 1.384 . S
H1124 C1130 0.930 . S
H1125 C1134 0.930 . S
H1126 C1139 0.929 . S
H1127 C1137 0.929 . S
H1128 C1132 0.929 . S
H1129 C1138 0.929 . S
C1130 H1124 0.930 . S
C1130 C1131 1.367 . S
C1130 C1138 1.378 . S
C1131 C1130 1.367 . S
C1131 C1139 1.433 . S
C1132 H1128 0.929 . S
C1132 C1134 1.378 . S
C1132 C1136 1.350 . S
C1133 C1136 1.463 . S
C1133 C1138 1.350 . S
C1133 N1141 1.427 . S
C1134 H1125 0.930 . S
C1134 C1132 1.378 . S
C1134 C1135 1.367 . S
C1135 C1134 1.367 . S
C1135 C1137 1.433 . S
C1136 C1132 1.350 . S
C1136 C1133 1.463 . S
C1136 N1140 1.427 . S
C1137 H1127 0.929 . S
C1137 C1135 1.433 . S
C1137 N1140 1.384 . S
C1138 H1129 0.929 . S
C1138 C1130 1.378 . S
C1138 C1133 1.350 . S
C1139 H1126 0.929 . S
C1139 C1131 1.433 . S
C1139 N1141 1.384 . S
N1140 C1136 1.427 . S
N1140 C1137 1.384 . S
N1141 C1133 1.427 . S
N1141 C1139 1.384 . S
H1142 C1148 0.930 . S
H1143 C1152 0.930 . S
H1144 C1157 0.929 . S
H1145 C1155 0.929 . S
H1146 C1150 0.929 . S
H1147 C1156 0.929 . S
C1148 H1142 0.930 . S
C1148 C1149 1.367 . S
C1148 C1156 1.378 . S
C1149 C1148 1.367 . S
C1149 C1157 1.433 . S
C1150 H1146 0.929 . S
C1150 C1152 1.378 . S
C1150 C1154 1.350 . S
C1151 C1154 1.463 . S
C1151 C1156 1.350 . S
C1151 N1159 1.427 . S
C1152 H1143 0.930 . S
C1152 C1150 1.378 . S
C1152 C1153 1.367 . S
C1153 C1152 1.367 . S
C1153 C1155 1.433 . S
C1154 C1150 1.350 . S
C1154 C1151 1.463 . S
C1154 N1158 1.427 . S
C1155 H1145 0.929 . S
C1155 C1153 1.433 . S
C1155 N1158 1.384 . S
C1156 H1147 0.929 . S
C1156 C1148 1.378 . S
C1156 C1151 1.350 . S
C1157 H1144 0.929 . S
C1157 C1149 1.433 . S
C1157 N1159 1.384 . S
N1158 C1154 1.427 . S
N1158 C1155 1.384 . S
N1159 C1151 1.427 . S
N1159 C1157 1.384 . S
H1160 C1166 0.930 . S
H1161 C1170 0.930 . S
H1162 C1175 0.929 . S
H1163 C1173 0.929 . S
H1164 C1168 0.929 . S
H1165 C1174 0.929 . S
C1166 H1160 0.930 . S
C1166 C1167 1.367 . S
C1166 C1174 1.378 . S
C1167 C1166 1.367 . S
C1167 C1175 1.433 . S
C1168 H1164 0.929 . S
C1168 C1170 1.378 . S
C1168 C1172 1.350 . S
C1169 C1172 1.463 . S
C1169 C1174 1.350 . S
C1169 N1177 1.427 . S
C1170 H1161 0.930 . S
C1170 C1168 1.378 . S
C1170 C1171 1.367 . S
C1171 C1170 1.367 . S
C1171 C1173 1.433 . S
C1172 C1168 1.350 . S
C1172 C1169 1.463 . S
C1172 N1176 1.427 . S
C1173 H1163 0.929 . S
C1173 C1171 1.433 . S
C1173 N1176 1.384 . S
C1174 H1165 0.929 . S
C1174 C1166 1.378 . S
C1174 C1169 1.350 . S
C1175 H1162 0.929 . S
C1175 C1167 1.433 . S
C1175 N1177 1.384 . S
N1176 C1172 1.427 . S
N1176 C1173 1.384 . S
N1177 C1169 1.427 . S
N1177 C1175 1.384 . S
H1178 C1184 0.930 . S
H1179 C1188 0.930 . S
H1180 C1193 0.929 . S
H1181 C1191 0.929 . S
H1182 C1186 0.929 . S
H1183 C1192 0.929 . S
C1184 H1178 0.930 . S
C1184 C1185 1.367 . S
C1184 C1192 1.378 . S
C1185 C1184 1.367 . S
C1185 C1193 1.433 . S
C1186 H1182 0.929 . S
C1186 C1188 1.378 . S
C1186 C1190 1.350 . S
C1187 C1190 1.463 . S
C1187 C1192 1.350 . S
C1187 N1195 1.427 . S
C1188 H1179 0.930 . S
C1188 C1186 1.378 . S
C1188 C1189 1.367 . S
C1189 C1188 1.367 . S
C1189 C1191 1.433 . S
C1190 C1186 1.350 . S
C1190 C1187 1.463 . S
C1190 N1194 1.427 . S
C1191 H1181 0.929 . S
C1191 C1189 1.433 . S
C1191 N1194 1.384 . S
C1192 H1183 0.929 . S
C1192 C1184 1.378 . S
C1192 C1187 1.350 . S
C1193 H1180 0.929 . S
C1193 C1185 1.433 . S
C1193 N1195 1.384 . S
N1194 C1190 1.427 . S
N1194 C1191 1.384 . S
N1195 C1187 1.427 . S
N1195 C1193 1.384 . S
C775 C359 1.498 . S
C771 C15 1.534 . S
C793 C463 2.025 . S
C789 C55 2.043 . S
C811 C383 1.401 . S
C807 C101 1.444 . S
C829 C445 1.500 . S
C825 C141 1.420 . S
C847 C519 1.377 . S
C843 C2 1.364 . S
C865 C581 1.745 . S
C861 C61 1.799 . S
C879 C95 1.034 . S
C883 C655 1.005 . S
C901 C741 1.138 . S
C897 C135 1.124 . S
C919 C537 2.422 . S
C915 C42 2.439 . S
C933 C82 1.774 . S
C937 C605 1.746 . S
C955 C679 1.203 . S
C951 C122 1.154 . S
C973 C759 1.704 . S
C969 C21 1.678 . S
C987 C162 1.623 . S
C991 C457 1.555 . S
C1009 C371 1.860 . S
C1005 C221 1.946 . S
C1023 C255 1.364 . S
C1027 C433 1.292 . S
C1041 C282 2.381 . S
C1045 C389 2.388 . S
C1063 C685 1.775 . S
C1059 C181 1.828 . S
C1081 C753 1.384 . S
C1077 C202 1.385 . S
C1099 C531 1.905 . S
C1095 C242 2.026 . S
C1113 C301 2.453 . S
C1117 C611 2.519 . S
C1135 C667 1.628 . S
C1131 C215 1.637 . S
C1153 C729 1.206 . S
C1149 C261 1.251 . S
C1171 C507 1.944 . S
C1167 C295 2.019 . S
C1185 C175 1.424 . S
C1189 C593 1.425 . S
