# Generated by pormake.
# Topology tsx, (6,3)-cn, num edge types: 1
# Building blocks:
#     Node 0, Type 0, BuildingBlock: JUFBIX_clean_sbu_0, # of connection points: 6
#     Node 1, Type 0, BuildingBlock: JUFBIX_clean_sbu_0, # of connection points: 6
#     Node 2, Type 1, BuildingBlock: BETDIP_clean_linker_0, # of connection points: 3
#     Node 3, Type 1, BuildingBlock: BETDIP_clean_linker_0, # of connection points: 3
#     Node 4, Type 1, BuildingBlock: BETDIP_clean_linker_0, # of connection points: 3
#     Node 5, Type 1, BuildingBlock: BETDIP_clean_linker_0, # of connection points: 3
#     Edge 6, Type (0, 1), BuildingBlock: XUDNAN_clean_linker_2, # of connection points: 2
#     Edge 7, Type (0, 1), BuildingBlock: XUDNAN_clean_linker_2, # of connection points: 2
#     Edge 8, Type (0, 1), BuildingBlock: XUDNAN_clean_linker_2, # of connection points: 2
#     Edge 9, Type (0, 1), BuildingBlock: XUDNAN_clean_linker_2, # of connection points: 2
#     Edge 10, Type (0, 1), BuildingBlock: XUDNAN_clean_linker_2, # of connection points: 2
#     Edge 11, Type (0, 1), BuildingBlock: XUDNAN_clean_linker_2, # of connection points: 2
#     Edge 12, Type (0, 1), BuildingBlock: XUDNAN_clean_linker_2, # of connection points: 2
#     Edge 13, Type (0, 1), BuildingBlock: XUDNAN_clean_linker_2, # of connection points: 2
#     Edge 14, Type (0, 1), BuildingBlock: XUDNAN_clean_linker_2, # of connection points: 2
#     Edge 15, Type (0, 1), BuildingBlock: XUDNAN_clean_linker_2, # of connection points: 2
#     Edge 16, Type (0, 1), BuildingBlock: XUDNAN_clean_linker_2, # of connection points: 2
#     Edge 17, Type (0, 1), BuildingBlock: XUDNAN_clean_linker_2, # of connection points: 2
# Relax obj value: 0.106
# Max RMSD: 0.132
# Mean RMSD: 0.118
data_MOF--net-tsx--node1-JUFBIX_clean_sbu_0--node2-BETDIP_clean_linker_0--edge1-XUDNAN_clean_linker_2
_symmetry_space_group_name_H-M    P1
_symmetry_Int_Tables_number       1
_symmetry_cell_setting            triclinic
loop_
_symmetry_equiv_pos_as_xyz
'x, y, z'
_cell_length_a     20.250003
_cell_length_b     23.924775
_cell_length_c     32.769214
_cell_angle_alpha  92.03112
_cell_angle_beta   99.419642
_cell_angle_gamma 98.834674
loop_
_atom_site_label
_atom_site_type_symbol
_atom_site_fract_x
_atom_site_fract_y
_atom_site_fract_z
_atom_type_partial_charge
Co0 Co 0.07313 0.98589 -0.00502 0.0
C1 C 0.98589 0.0223 0.9277 0.0
Co2 Co 1.00085 0.04107 0.01056 0.0
C3 C 0.16277 0.90033 0.98968 0.0
C4 C 0.16332 0.95945 0.94219 0.0
N5 N 0.13505 0.94562 0.9757 0.0
N6 N 0.20742 0.88573 0.9661 0.0
C7 C 0.20714 0.92292 0.93612 0.0
H8 H 0.15114 0.87919 0.01689 0.0
H9 H 0.15285 0.99422 0.92324 0.0
C10 C 0.08902 0.00659 0.07772 0.0
N11 N 0.93922 0.08105 0.02994 0.0
C12 C 0.91446 0.12799 0.01699 0.0
C13 C 0.90946 0.06669 0.06282 0.0
N14 N 0.87035 0.14332 0.04064 0.0
C15 C 0.86768 0.10471 0.06956 0.0
C16 C 0.95274 0.92361 0.00411 0.0
O17 O 0.11369 0.98026 0.05101 0.0
O18 O 0.04061 0.03348 0.06611 0.0
O19 O 0.93901 0.97293 0.01033 0.0
O20 O 1.01147 0.91771 -0.00264 0.0
O21 O 0.96297 0.04931 0.95489 0.0
H22 H 0.91779 0.03072 0.08095 0.0
H23 H 0.928 0.14985 0.99047 0.0
O24 O 0.03146 0.99225 0.93912 0.0
O25 O 0.13403 0.05515 0.99282 0.0
O26 O 0.06244 0.10828 0.01011 0.0
C27 C 0.11989 0.10406 0.00058 0.0
H28 H 0.23586 0.92352 0.91102 0.0
H29 H 0.83828 0.10401 0.09432 0.0
Co30 Co 0.55491 0.46718 0.49051 0.0
C31 C 0.47536 0.50863 0.42337 0.0
Co32 Co 0.48315 0.5221 0.507 0.0
C33 C 0.64472 0.38177 0.48714 0.0
C34 C 0.65195 0.4435 0.44168 0.0
N35 N 0.61861 0.42761 0.47286 0.0
N36 N 0.69338 0.369 0.46614 0.0
C37 C 0.69743 0.40774 0.43741 0.0
H38 H 0.62958 0.35921 0.51303 0.0
H39 H 0.64433 0.47949 0.42342 0.0
C40 C 0.5633 0.48129 0.57412 0.0
N41 N 0.41964 0.56159 0.52463 0.0
C42 C 0.39217 0.60585 0.50867 0.0
C43 C 0.38738 0.5477 0.55664 0.0
N44 N 0.34376 0.61969 0.5294 0.0
C45 C 0.34111 0.58323 0.55972 0.0
C46 C 0.4328 0.4047 0.49593 0.0
O47 O 0.58815 0.45631 0.54678 0.0
O48 O 0.51814 0.51166 0.56298 0.0
O49 O 0.4203 0.45386 0.50449 0.0
O50 O 0.49101 0.39942 0.4879 0.0
O51 O 0.4497 0.53287 0.45066 0.0
H52 H 0.39592 0.51302 0.5761 0.0
H53 H 0.40583 0.62617 0.48157 0.0
O54 O 0.5204 0.47816 0.43461 0.0
O55 O 0.61832 0.53603 0.49333 0.0
O56 O 0.54612 0.58936 0.50941 0.0
C57 C 0.6047 0.5849 0.50177 0.0
H58 H 0.73074 0.41006 0.41464 0.0
H59 H 0.30785 0.58201 0.58248 0.0
H60 H 0.06136 0.95985 0.48184 0.0
H61 H 0.049 0.05951 0.37505 0.0
H62 H 0.15847 0.91949 0.37931 0.0
H63 H 0.04814 0.12845 0.42712 0.0
C64 C 1.00896 0.10536 0.44196 0.0
C65 C 0.0738 0.9682 0.45149 0.0
C66 C 0.1137 0.93427 0.43343 0.0
C67 C 0.05147 0.01419 0.43106 0.0
C68 C 0.06808 0.0255 0.39183 0.0
C69 C 0.10664 0.99142 0.37311 0.0
C70 C 0.12913 0.94599 0.39402 0.0
N71 N 1.01067 0.04745 0.44978 0.0
H72 H 0.9567 0.97239 0.51275 0.0
H73 H 1.01006 0.08801 0.62106 0.0
H74 H 0.87058 0.93422 0.62224 0.0
H75 H 0.02417 0.15196 0.56929 0.0
C76 C 0.05313 0.12859 0.55161 0.0
C77 C 0.95122 0.98377 0.54418 0.0
C78 C 0.90758 0.94773 0.56463 0.0
C79 C 0.98709 0.03509 0.56386 0.0
C80 C 0.98033 0.04983 0.60477 0.0
C81 C 0.93867 0.01324 0.62587 0.0
C82 C 0.90212 0.9627 0.60558 0.0
N83 N 0.03283 0.06931 0.54286 0.0
H84 H 0.5934 0.49346 -0.00593 0.0
H85 H 0.53036 0.53782 0.8695 0.0
H86 H 0.67232 0.42176 0.8938 0.0
H87 H 0.53278 0.62515 0.9065 0.0
C88 C 0.50446 0.60876 0.93016 0.0
C89 C 0.59644 0.48978 0.96142 0.0
C90 C 0.63729 0.45341 0.94718 0.0
C91 C 0.56004 0.5221 0.93376 0.0
C92 C 0.56209 0.51589 0.89111 0.0
C93 C 0.60214 0.47928 0.87618 0.0
C94 C 0.64079 0.44962 0.90477 0.0
N95 N 0.51937 0.55865 0.94922 0.0
H96 H 0.47258 0.49233 0.00912 0.0
H97 H 0.53782 0.59556 0.12313 0.0
H98 H 0.38657 0.44738 0.11748 0.0
H99 H 0.64496 0.59235 0.09358 0.0
C100 C 0.6231 0.60839 0.06466 0.0
C101 C 0.4691 0.50086 0.04129 0.0
C102 C 0.42376 0.46441 0.06032 0.0
C103 C 0.51109 0.54765 0.06391 0.0
C104 C 0.50613 0.55913 0.10558 0.0
C105 C 0.46084 0.52312 0.12477 0.0
C106 C 0.42022 0.47589 0.10212 0.0
N107 N 0.55744 0.58304 0.04415 0.0
H108 H 0.11414 0.21229 0.02781 0.0
H109 H 0.23993 0.11172 0.97111 0.0
H110 H 0.32624 0.19709 0.97209 0.0
H111 H 0.15888 0.34429 0.97644 0.0
H112 H 0.15893 0.38817 0.02231 0.0
H113 H 0.10368 0.32074 0.01251 0.0
H114 H 0.15509 0.28992 0.08431 0.0
H115 H 0.21021 0.35715 0.09437 0.0
H116 H 0.24557 0.29241 0.09731 0.0
H117 H 0.40277 0.2919 0.98447 0.0
H118 H 0.46585 0.38625 0.01156 0.0
H119 H 0.28995 0.42394 0.06032 0.0
C120 C 0.15927 0.20835 0.0149 0.0
C121 C 0.17018 0.15543 -0.0008 0.0
C122 C 0.23047 0.1519 0.98326 0.0
C123 C 0.27959 0.2002 0.98344 0.0
C124 C 0.26755 0.25166 -0.00043 0.0
C125 C 0.20887 0.25595 0.01508 0.0
C126 C 0.21055 0.31489 0.03393 0.0
C127 C 0.15469 0.34372 0.00985 0.0
C128 C 0.20507 0.31347 0.08021 0.0
C129 C 0.28022 0.34267 0.02777 0.0
C130 C 0.3119 0.30593 0.00723 0.0
C131 C 0.37813 0.32127 0.00011 0.0
C132 C 0.41349 0.375 0.01542 0.0
C133 C 0.38277 0.41227 0.03802 0.0
C134 C 0.3147 0.39625 0.04318 0.0
H135 H 0.32351 0.87922 0.93577 0.0
H136 H 0.18295 0.78862 0.00672 0.0
H137 H 0.24805 0.70881 0.00974 0.0
H138 H 0.33785 0.76193 0.87251 0.0
H139 H 0.42627 0.78465 0.87045 0.0
H140 H 0.37284 0.83632 0.87797 0.0
H141 H 0.45485 0.87699 0.94531 0.0
H142 H 0.50866 0.82539 0.93798 0.0
H143 H 0.47612 0.83038 0.98575 0.0
H144 H 0.32714 0.636 0.00109 0.0
H145 H 0.40917 0.57807 0.98032 0.0
H146 H 0.49198 0.71641 0.91231 0.0
C147 C 0.30588 0.84279 0.95197 0.0
C148 C 0.24747 0.84041 0.97078 0.0
C149 C 0.22769 0.79193 0.99233 0.0
C150 C 0.26431 0.74624 -0.00592 0.0
C151 C 0.32071 0.74971 0.97424 0.0
C152 C 0.34127 0.79699 0.95368 0.0
C153 C 0.40113 0.78976 0.93292 0.0
C154 C 0.38342 0.79336 0.88567 0.0
C155 C 0.4639 0.83321 0.95162 0.0
C156 C 0.41047 0.73045 0.94415 0.0
C157 C 0.36443 0.70808 0.96851 0.0
C158 C 0.36344 0.65335 0.98216 0.0
C159 C 0.41024 0.62075 0.97028 0.0
C160 C 0.4567 0.64289 0.94467 0.0
C161 C 0.45681 0.69846 0.9318 0.0
H162 H 0.95596 0.82657 0.04618 0.0
H163 H 0.82652 0.91297 0.95998 0.0
H164 H 0.72983 0.8367 0.96142 0.0
H165 H 0.8765 0.67901 0.01022 0.0
H166 H 0.88374 0.65537 0.06215 0.0
H167 H 0.94517 0.71233 0.04986 0.0
H168 H 0.91988 0.77669 0.10878 0.0
H169 H 0.85822 0.72011 0.12108 0.0
H170 H 0.83393 0.78786 0.10914 0.0
H171 H 0.64571 0.7555 0.97561 0.0
H172 H 0.57815 0.67647 0.00436 0.0
H173 H 0.75943 0.6444 0.08431 0.0
C174 C 0.90762 0.8283 0.02682 0.0
C175 C 0.89846 0.87473 0.00236 0.0
C176 C 0.83421 0.87717 0.97853 0.0
C177 C 0.7792 0.83409 0.97909 0.0
C178 C 0.78917 0.78927 0.00411 0.0
C179 C 0.85158 0.7861 0.02775 0.0
C180 C 0.84665 0.73632 0.05509 0.0
C181 C 0.89063 0.6932 0.04363 0.0
C182 C 0.86579 0.75647 0.10125 0.0
C183 C 0.7717 0.71265 0.0435 0.0
C184 C 0.73978 0.74334 0.01355 0.0
C185 C 0.67029 0.73069 -0.00131 0.0
C186 C 0.63232 0.68555 0.015 0.0
C187 C 0.66383 0.65398 0.046 0.0
C188 C 0.73435 0.66772 0.06034 0.0
H189 H 0.8969 0.2387 -0.00162 0.0
H190 H 0.75553 0.15372 0.07156 0.0
H191 H 0.69023 0.23199 0.06392 0.0
H192 H 0.88988 0.38475 0.03435 0.0
H193 H 0.89255 0.41138 0.98378 0.0
H194 H 0.93349 0.35167 -0.00121 0.0
H195 H 0.8639 0.29193 0.93402 0.0
H196 H 0.82332 0.35152 0.91868 0.0
H197 H 0.77265 0.28465 0.92515 0.0
H198 H 0.63398 0.31499 0.04376 0.0
H199 H 0.58716 0.39282 0.00787 0.0
H200 H 0.76428 0.42516 0.94819 0.0
C201 C 0.85253 0.23653 0.01304 0.0
C202 C 0.8324 0.18991 0.0361 0.0
C203 C 0.77355 0.18919 0.05459 0.0
C204 C 0.73573 0.23359 0.05037 0.0
C205 C 0.75707 0.27876 0.02758 0.0
C206 C 0.81389 0.28051 0.00903 0.0
C207 C 0.8227 0.33184 0.98349 0.0
C208 C 0.88857 0.3723 0.00117 0.0
C209 C 0.82048 0.31389 0.93763 0.0
C210 C 0.7608 0.35752 0.98959 0.0
C211 C 0.72419 0.32675 0.01566 0.0
C212 C 0.66268 0.33996 0.02373 0.0
C213 C 0.63664 0.38456 0.00342 0.0
C214 C 0.67181 0.41509 0.97512 0.0
C215 C 0.73592 0.40248 0.96947 0.0
H216 H 0.59891 0.6931 0.52947 0.0
H217 H 0.72867 0.59167 0.47732 0.0
H218 H 0.81708 0.67625 0.4815 0.0
H219 H 0.64935 0.82398 0.47973 0.0
H220 H 0.64631 0.86838 0.52477 0.0
H221 H 0.59111 0.80101 0.51421 0.0
H222 H 0.63756 0.77085 0.58721 0.0
H223 H 0.69269 0.83805 0.59801 0.0
H224 H 0.72766 0.77322 0.6026 0.0
H225 H 0.89408 0.77115 0.49523 0.0
H226 H 0.95488 0.86691 0.52103 0.0
H227 H 0.77444 0.90511 0.56412 0.0
C228 C 0.64553 0.68876 0.5184 0.0
C229 C 0.65679 0.63583 0.50294 0.0
C230 C 0.71891 0.63183 0.48929 0.0
C231 C 0.76931 0.67968 0.49135 0.0
C232 C 0.75676 0.73117 0.50707 0.0
C233 C 0.69641 0.73592 0.52043 0.0
C234 C 0.69706 0.79508 0.53852 0.0
C235 C 0.64273 0.8238 0.51276 0.0
C236 C 0.68825 0.79421 0.58429 0.0
C237 C 0.76773 0.82258 0.53411 0.0
C238 C 0.80117 0.78538 0.51537 0.0
C239 C 0.86814 0.8008 0.50955 0.0
C240 C 0.90216 0.85529 0.52406 0.0
C241 C 0.86929 0.89326 0.54447 0.0
C242 C 0.80085 0.87684 0.54871 0.0
H243 H 0.82016 0.37068 0.44906 0.0
H244 H 0.65942 0.26611 0.49717 0.0
H245 H 0.72659 0.18742 0.50173 0.0
H246 H 0.85542 0.2645 0.38391 0.0
H247 H 0.94552 0.28924 0.39191 0.0
H248 H 0.88819 0.33849 0.39705 0.0
H249 H 0.95148 0.36996 0.47188 0.0
H250 H 1.00944 0.32145 0.46584 0.0
H251 H 0.96421 0.31703 0.50896 0.0
H252 H 0.80919 0.11725 0.49485 0.0
H253 H 0.89812 0.06406 0.47797 0.0
H254 H 1.00207 0.21619 0.43385 0.0
C255 C 0.79892 0.33141 0.46075 0.0
C256 C 0.7342 0.32453 0.47253 0.0
C257 C 0.70907 0.27256 0.48828 0.0
C258 C 0.74682 0.22761 0.49083 0.0
C259 C 0.80982 0.23555 0.47787 0.0
C260 C 0.83568 0.28649 0.46343 0.0
C261 C 0.90252 0.28391 0.44913 0.0
C262 C 0.89756 0.29465 0.40276 0.0
C263 C 0.9603 0.32557 0.47558 0.0
C264 C 0.91005 0.22322 0.45705 0.0
C265 C 0.8565 0.19585 0.4739 0.0
C266 C 0.85157 0.13858 0.48205 0.0
C267 C 0.90226 0.10867 0.47236 0.0
C268 C 0.95691 0.13621 0.45469 0.0
C269 C 0.96093 0.19423 0.44749 0.0
H270 H 0.31353 0.40263 0.52461 0.0
H271 H 0.43348 0.29369 0.47066 0.0
H272 H 0.3458 0.21065 0.47518 0.0
H273 H 0.26175 0.30816 0.59773 0.0
H274 H 0.17845 0.32741 0.59413 0.0
H275 H 0.248 0.37816 0.58365 0.0
H276 H 0.18066 0.391 0.51084 0.0
H277 H 0.11084 0.34126 0.52221 0.0
H278 H 0.14627 0.32941 0.4762 0.0
H279 H 0.24563 0.13905 0.48822 0.0
H280 H 0.14502 0.08527 0.51097 0.0
H281 H 0.09325 0.24224 0.55705 0.0
C282 C 0.32119 0.36147 0.5132 0.0
C283 C 0.38017 0.35469 0.49698 0.0
C284 C 0.38856 0.29989 0.48307 0.0
C285 C 0.33897 0.25256 0.48542 0.0
C286 C 0.28156 0.26085 0.50185 0.0
C287 C 0.27271 0.31402 0.51558 0.0
C288 C 0.20871 0.31162 0.53407 0.0
C289 C 0.22525 0.33256 0.58012 0.0
C290 C 0.15867 0.34531 0.5093 0.0
C291 C 0.18274 0.24867 0.52881 0.0
C292 C 0.22508 0.21999 0.50993 0.0
C293 C 0.21207 0.16117 0.50285 0.0
C294 C 0.15479 0.13099 0.51585 0.0
C295 C 0.11152 0.1598 0.53573 0.0
C296 C 0.12553 0.2193 0.54185 0.0
H297 H 0.37264 0.71747 0.49089 0.0
H298 H 0.2167 0.61797 0.54649 0.0
H299 H 0.1433 0.69033 0.53159 0.0
H300 H 0.34426 0.85538 0.52679 0.0
H301 H 0.35882 0.88809 0.47966 0.0
H302 H 0.40047 0.82931 0.49601 0.0
H303 H 0.35044 0.77454 0.42533 0.0
H304 H 0.30887 0.8332 0.40872 0.0
H305 H 0.26001 0.76337 0.40771 0.0
H306 H 0.08473 0.772 0.50851 0.0
H307 H 0.04498 0.85597 0.47717 0.0
H308 H 0.23937 0.90294 0.43768 0.0
C309 C 0.32302 0.7108 0.49981 0.0
C310 C 0.30084 0.6621 0.52017 0.0
C311 C 0.23555 0.6553 0.53158 0.0
C312 C 0.19322 0.6961 0.52308 0.0
C313 C 0.21677 0.74366 0.50319 0.0
C314 C 0.28009 0.75123 0.49165 0.0
C315 C 0.29258 0.80564 0.46986 0.0
C316 C 0.35259 0.84705 0.49457 0.0
C317 C 0.3036 0.79343 0.42526 0.0
C318 C 0.22603 0.82695 0.47045 0.0
C319 C 0.1831 0.79079 0.49001 0.0
C320 C 0.11812 0.8009 0.49339 0.0
C321 C 0.09612 0.8489 0.47577 0.0
C322 C 0.13894 0.88607 0.45498 0.0
C323 C 0.20508 0.87508 0.45297 0.0
H324 H 0.08558 0.9222 0.1317 0.0
H325 H 0.15064 0.10169 0.12271 0.0
H326 H 0.17639 0.11533 0.19905 0.0
H327 H 0.99752 0.93674 0.21027 0.0
H328 H 0.01823 0.87596 0.2376 0.0
H329 H 0.01897 0.87719 0.18286 0.0
H330 H 0.14347 0.85945 0.19444 0.0
H331 H 0.14292 0.85727 0.24933 0.0
H332 H 0.20687 0.90575 0.23058 0.0
H333 H 0.17667 0.11267 0.27448 0.0
H334 H 0.15663 0.09289 0.34535 0.0
H335 H 0.08986 0.91522 0.30642 0.0
C336 C 0.10832 0.96367 0.14606 0.0
C337 C 0.11813 0.01075 0.12185 0.0
C338 C 0.14451 0.06512 0.14116 0.0
C339 C 0.15913 0.07321 0.18437 0.0
C340 C 0.14671 0.02642 0.20771 0.0
C341 C 0.12259 0.97252 0.18935 0.0
C342 C 0.10604 0.9309 0.22147 0.0
C343 C 0.03073 0.90363 0.2125 0.0
C344 C 0.15262 0.88567 0.22411 0.0
C345 C 0.12197 0.97027 0.2603 0.0
C346 C 0.14616 0.02501 0.25171 0.0
C347 C 0.15913 0.06977 0.28182 0.0
C348 C 0.14708 0.0583 0.32182 0.0
C349 C 0.12223 1.00256 0.33128 0.0
C350 C 0.11026 0.958 0.30017 0.0
H351 H 0.99809 0.95077 0.86399 0.0
H352 H 0.92622 0.10756 0.89078 0.0
H353 H 0.90317 0.12216 0.81561 0.0
H354 H 0.08295 0.99694 0.78361 0.0
H355 H 0.05985 0.93085 0.75271 0.0
H356 H 0.06626 0.9312 0.80815 0.0
H357 H 0.94276 0.87802 0.79987 0.0
H358 H 0.93616 0.87695 0.74435 0.0
H359 H 0.87523 0.90685 0.76909 0.0
H360 H 0.89927 0.1236 0.73745 0.0
H361 H 0.90314 0.10628 0.6627 0.0
H362 H 0.97245 0.94662 0.68854 0.0
C363 C 0.97657 0.9878 0.85405 0.0
C364 C 0.96397 0.0281 0.88308 0.0
C365 C 0.93577 0.07598 0.86892 0.0
C366 C 0.92286 0.08473 0.82636 0.0
C367 C 0.93751 0.04474 0.79857 0.0
C368 C 0.96263 0.99673 0.8119 0.0
C369 C 0.97507 0.96044 0.77614 0.0
C370 C 0.0505 0.95455 0.78043 0.0
C371 C 0.92957 0.90212 0.77213 0.0
C372 C 0.9541 0.99588 0.74053 0.0
C373 C 0.93298 0.04458 0.75394 0.0
C374 C 0.91469 0.08519 0.72656 0.0
C375 C 0.91734 0.07526 0.68436 0.0
C376 C 0.93729 0.02493 0.67021 0.0
C377 C 0.95593 0.98498 0.69868 0.0
H378 H 0.56413 0.55599 0.63885 0.0
H379 H 0.60433 0.38769 0.60908 0.0
H380 H 0.62157 0.36958 0.68373 0.0
H381 H 0.69055 0.58267 0.73536 0.0
H382 H 0.63787 0.62175 0.76079 0.0
H383 H 0.63276 0.62205 0.70538 0.0
H384 H 0.50335 0.58654 0.69587 0.0
H385 H 0.50816 0.58528 0.75116 0.0
H386 H 0.47274 0.52206 0.71848 0.0
H387 H 0.61868 0.36592 0.75981 0.0
H388 H 0.61324 0.38057 0.83354 0.0
H389 H 0.58821 0.55576 0.81497 0.0
C390 C 0.57768 0.51567 0.64818 0.0
C391 C 0.58284 0.47307 0.61846 0.0
C392 C 0.60072 0.4209 0.63157 0.0
C393 C 0.6102 0.41021 0.67377 0.0
C394 C 0.60305 0.45266 0.70226 0.0
C395 C 0.58881 0.50483 0.69013 0.0
C396 C 0.58367 0.54313 0.7269 0.0
C397 C 0.63956 0.59549 0.73243 0.0
C398 C 0.51276 0.56023 0.72284 0.0
C399 C 0.59539 0.50378 0.76156 0.0
C400 C 0.60589 0.45171 0.7466 0.0
C401 C 0.61274 0.40708 0.77213 0.0
C402 C 0.61013 0.41616 0.81423 0.0
C403 C 0.60229 0.46998 0.83087 0.0
C404 C 0.5945 0.51414 0.80375 0.0
H405 H 0.48763 0.44005 0.35825 0.0
H406 H 0.42606 0.60003 0.38882 0.0
H407 H 0.41355 0.62166 0.31475 0.0
H408 H 0.5862 0.48782 0.28498 0.0
H409 H 0.56139 0.42484 0.25068 0.0
H410 H 0.56036 0.42039 0.30528 0.0
H411 H 0.43361 0.37432 0.28988 0.0
H412 H 0.43446 0.37784 0.23514 0.0
H413 H 0.37312 0.40958 0.25824 0.0
H414 H 0.42005 0.6293 0.23794 0.0
H415 H 0.43116 0.61691 0.16387 0.0
H416 H 0.48355 0.45021 0.18495 0.0
C417 C 0.47038 0.47923 0.34928 0.0
C418 C 0.45781 0.51845 0.37908 0.0
C419 C 0.43535 0.56925 0.36627 0.0
C420 C 0.42854 0.58199 0.32438 0.0
C421 C 0.44336 0.54299 0.2959 0.0
C422 C 0.46249 0.49213 0.3078 0.0
C423 C 0.47646 0.45756 0.27163 0.0
C424 C 0.55049 0.44707 0.27858 0.0
C425 C 0.42641 0.40152 0.26323 0.0
C426 C 0.46354 0.49728 0.2375 0.0
C427 C 0.44491 0.54655 0.25198 0.0
C428 C 0.43363 0.59055 0.22619 0.0
C429 C 0.44047 0.58342 0.1844 0.0
C430 C 0.45767 0.53253 0.16907 0.0
C431 C 0.46956 0.48922 0.19602 0.0
loop_
_geom_bond_atom_site_label_1
_geom_bond_atom_site_label_2
_geom_bond_distance
_geom_bond_site_symmetry_2
_ccdc_geom_bond_type
Co0 N5 2.057 . S
Co0 O17 2.021 . S
Co0 O20 2.062 1_455 S
Co0 O24 2.117 1_554 S
Co0 O25 2.020 1_565 S
C1 O21 1.259 1_455 S
C1 O24 1.258 1_545 S
Co2 N11 2.057 . S
Co2 O18 2.117 1_655 S
Co2 O19 2.020 1_545 S
Co2 O21 2.021 1_554 S
Co2 O26 2.062 1_655 S
C3 N5 1.316 . S
C3 N6 1.347 . S
C3 H8 0.931 . S
C4 N5 1.375 1_556 S
C4 C7 1.350 . S
C4 H9 0.930 . S
N5 Co0 2.057 . S
N5 C3 1.316 . S
N5 C4 1.375 1_554 S
N6 C3 1.347 . S
N6 C7 1.373 1_554 S
C7 C4 1.350 . S
C7 N6 1.373 1_556 S
C7 H28 0.931 . S
H8 C3 0.931 . S
H9 C4 0.930 . S
C10 O17 1.259 1_545 S
C10 O18 1.258 . S
N11 Co2 2.057 . S
N11 C12 1.316 1_554 S
N11 C13 1.375 . S
C12 N11 1.316 1_556 S
C12 N14 1.347 1_556 S
C12 H23 0.931 . S
C13 N11 1.375 . S
C13 C15 1.350 . S
C13 H22 0.930 . S
N14 C12 1.347 1_554 S
N14 C15 1.373 . S
C15 C13 1.350 . S
C15 N14 1.373 . S
C15 H29 0.931 . S
C16 O19 1.256 . S
C16 O20 1.255 . S
O17 Co0 2.021 . S
O17 C10 1.259 1_565 S
O18 Co2 2.117 1_455 S
O18 C10 1.258 . S
O19 Co2 2.020 1_565 S
O19 C16 1.256 . S
O20 Co0 2.062 1_655 S
O20 C16 1.255 . S
O21 C1 1.259 1_655 S
O21 Co2 2.021 1_556 S
H22 C13 0.930 . S
H23 C12 0.931 . S
O24 Co0 2.117 1_556 S
O24 C1 1.258 1_565 S
O25 Co0 2.020 1_545 S
O25 C27 1.256 . S
O26 Co2 2.062 1_455 S
O26 C27 1.255 . S
C27 O25 1.256 . S
C27 O26 1.255 . S
H28 C7 0.931 . S
H29 C15 0.931 . S
Co30 N35 2.057 . S
Co30 O47 2.021 . S
Co30 O50 2.062 . S
Co30 O54 2.117 . S
Co30 O55 2.020 . S
C31 O51 1.259 . S
C31 O54 1.258 . S
Co32 N41 2.057 . S
Co32 O48 2.117 . S
Co32 O49 2.020 . S
Co32 O51 2.021 . S
Co32 O56 2.062 . S
C33 N35 1.316 . S
C33 N36 1.347 . S
C33 H38 0.931 . S
C34 N35 1.375 . S
C34 C37 1.350 . S
C34 H39 0.930 . S
N35 Co30 2.057 . S
N35 C33 1.316 . S
N35 C34 1.375 . S
N36 C33 1.347 . S
N36 C37 1.373 . S
C37 C34 1.350 . S
C37 N36 1.373 . S
C37 H58 0.931 . S
H38 C33 0.931 . S
H39 C34 0.930 . S
C40 O47 1.259 . S
C40 O48 1.258 . S
N41 Co32 2.057 . S
N41 C42 1.316 . S
N41 C43 1.375 . S
C42 N41 1.316 . S
C42 N44 1.347 . S
C42 H53 0.931 . S
C43 N41 1.375 . S
C43 C45 1.350 . S
C43 H52 0.930 . S
N44 C42 1.347 . S
N44 C45 1.373 . S
C45 C43 1.350 . S
C45 N44 1.373 . S
C45 H59 0.931 . S
C46 O49 1.256 . S
C46 O50 1.255 . S
O47 Co30 2.021 . S
O47 C40 1.259 . S
O48 Co32 2.117 . S
O48 C40 1.258 . S
O49 Co32 2.020 . S
O49 C46 1.256 . S
O50 Co30 2.062 . S
O50 C46 1.255 . S
O51 C31 1.259 . S
O51 Co32 2.021 . S
H52 C43 0.930 . S
H53 C42 0.931 . S
O54 Co30 2.117 . S
O54 C31 1.258 . S
O55 Co30 2.020 . S
O55 C57 1.256 . S
O56 Co32 2.062 . S
O56 C57 1.255 . S
C57 O55 1.256 . S
C57 O56 1.255 . S
H58 C37 0.931 . S
H59 C45 0.931 . S
H60 C65 0.930 . S
H61 C68 0.930 1_655 S
H62 C70 0.930 . S
H63 C64 1.016 . S
C64 H63 1.016 . S
C64 N71 1.286 . S
C65 H60 0.930 . S
C65 C66 1.397 . S
C65 C67 1.361 1_565 S
C66 C65 1.397 . S
C66 C70 1.390 . S
C67 C65 1.361 1_545 S
C67 C68 1.393 . S
C67 N71 1.413 1_455 S
C68 H61 0.930 1_455 S
C68 C67 1.393 . S
C68 C69 1.399 1_545 S
C69 C68 1.399 1_565 S
C69 C70 1.381 . S
C70 H62 0.930 . S
C70 C66 1.390 . S
C70 C69 1.381 . S
N71 C64 1.286 . S
N71 C67 1.413 1_655 S
H72 C77 0.930 . S
H73 C80 0.930 . S
H74 C82 0.930 . S
H75 C76 1.016 . S
C76 H75 1.016 . S
C76 N83 1.286 . S
C77 H72 0.930 . S
C77 C78 1.397 . S
C77 C79 1.361 1_665 S
C78 C77 1.397 . S
C78 C82 1.390 . S
C79 C77 1.361 1_445 S
C79 C80 1.393 . S
C79 N83 1.413 . S
C80 H73 0.930 . S
C80 C79 1.393 . S
C80 C81 1.399 1_445 S
C81 C80 1.399 1_665 S
C81 C82 1.381 . S
C82 H74 0.930 . S
C82 C78 1.390 . S
C82 C81 1.381 . S
N83 C76 1.286 . S
N83 C79 1.413 . S
H84 C89 0.930 1_554 S
H85 C92 0.930 . S
H86 C94 0.930 . S
H87 C88 1.016 . S
C88 H87 1.016 . S
C88 N95 1.286 . S
C89 H84 0.930 1_556 S
C89 C90 1.397 . S
C89 C91 1.361 . S
C90 C89 1.397 . S
C90 C94 1.390 . S
C91 C89 1.361 . S
C91 C92 1.393 . S
C91 N95 1.413 . S
C92 H85 0.930 . S
C92 C91 1.393 . S
C92 C93 1.399 . S
C93 C92 1.399 . S
C93 C94 1.381 . S
C94 H86 0.930 . S
C94 C90 1.390 . S
C94 C93 1.381 . S
N95 C88 1.286 . S
N95 C91 1.413 . S
H96 C101 0.930 . S
H97 C104 0.930 . S
H98 C106 0.930 . S
H99 C100 1.016 . S
C100 H99 1.016 . S
C100 N107 1.286 . S
C101 H96 0.930 . S
C101 C102 1.397 . S
C101 C103 1.361 . S
C102 C101 1.397 . S
C102 C106 1.390 . S
C103 C101 1.361 . S
C103 C104 1.393 . S
C103 N107 1.413 . S
C104 H97 0.930 . S
C104 C103 1.393 . S
C104 C105 1.399 . S
C105 C104 1.399 . S
C105 C106 1.381 . S
C106 H98 0.930 . S
C106 C102 1.390 . S
C106 C105 1.381 . S
N107 C100 1.286 . S
N107 C103 1.413 . S
H108 C120 0.930 . S
H109 C122 0.930 . S
H110 C123 0.930 . S
H111 C127 0.959 . S
H112 C127 0.959 . S
H113 C127 0.961 . S
H114 C128 0.960 . S
H115 C128 0.961 . S
H116 C128 0.959 . S
H117 C131 0.929 . S
H118 C132 0.931 . S
H119 C134 0.930 1_556 S
C120 H108 0.930 . S
C120 C121 1.399 1_556 S
C120 C125 1.399 1_556 S
C121 C120 1.399 1_554 S
C121 C122 1.376 . S
C122 H109 0.930 . S
C122 C121 1.376 . S
C122 C123 1.388 . S
C123 H110 0.930 . S
C123 C122 1.388 . S
C123 C124 1.390 . S
C124 C123 1.390 . S
C124 C125 1.394 . S
C124 C130 1.465 . S
C125 C120 1.399 1_554 S
C125 C124 1.394 . S
C125 C126 1.516 1_554 S
C126 C125 1.516 1_556 S
C126 C127 1.502 . S
C126 C128 1.561 . S
C126 C129 1.526 1_556 S
C127 H111 0.959 . S
C127 H112 0.959 . S
C127 H113 0.961 . S
C127 C126 1.502 . S
C128 H114 0.960 . S
C128 H115 0.961 . S
C128 H116 0.959 . S
C128 C126 1.561 . S
C129 C126 1.526 1_554 S
C129 C130 1.396 . S
C129 C134 1.390 . S
C130 C124 1.465 . S
C130 C129 1.396 . S
C130 C131 1.399 . S
C131 H117 0.929 . S
C131 C130 1.399 . S
C131 C132 1.385 . S
C132 H118 0.931 . S
C132 C131 1.385 . S
C132 C133 1.389 . S
C133 C132 1.389 . S
C133 C134 1.387 . S
C134 H119 0.930 1_554 S
C134 C129 1.390 . S
C134 C133 1.387 . S
H135 C147 0.930 1_556 S
H136 C149 0.930 . S
H137 C150 0.930 . S
H138 C154 0.959 . S
H139 C154 0.959 . S
H140 C154 0.961 . S
H141 C155 0.958 1_556 S
H142 C155 0.961 1_556 S
H143 C155 0.959 . S
H144 C158 0.929 . S
H145 C159 0.931 . S
H146 C161 0.930 . S
C147 H135 0.930 1_554 S
C147 C148 1.399 . S
C147 C152 1.399 . S
C148 C147 1.399 . S
C148 C149 1.376 . S
C149 H136 0.930 . S
C149 C148 1.376 . S
C149 C150 1.388 . S
C150 H137 0.930 . S
C150 C149 1.388 . S
C150 C151 1.390 . S
C151 C150 1.390 . S
C151 C152 1.394 . S
C151 C157 1.465 . S
C152 C147 1.399 . S
C152 C151 1.394 . S
C152 C153 1.516 1_554 S
C153 C152 1.516 1_556 S
C153 C154 1.502 . S
C153 C155 1.561 1_556 S
C153 C156 1.526 . S
C154 H138 0.959 . S
C154 H139 0.959 . S
C154 H140 0.961 . S
C154 C153 1.502 . S
C155 H141 0.958 1_554 S
C155 H142 0.961 1_554 S
C155 H143 0.959 . S
C155 C153 1.561 1_554 S
C156 C153 1.526 . S
C156 C157 1.396 1_556 S
C156 C161 1.390 . S
C157 C151 1.465 . S
C157 C156 1.396 1_554 S
C157 C158 1.399 . S
C158 H144 0.929 . S
C158 C157 1.399 . S
C158 C159 1.385 . S
C159 H145 0.931 . S
C159 C158 1.385 . S
C159 C160 1.389 1_554 S
C160 C159 1.389 1_556 S
C160 C161 1.387 . S
C161 H146 0.930 . S
C161 C156 1.390 . S
C161 C160 1.387 . S
H162 C174 0.930 . S
H163 C176 0.930 . S
H164 C177 0.930 . S
H165 C181 0.959 . S
H166 C181 0.959 . S
H167 C181 0.961 . S
H168 C182 0.960 . S
H169 C182 0.961 . S
H170 C182 0.959 . S
H171 C185 0.929 . S
H172 C186 0.931 . S
H173 C188 0.930 . S
C174 H162 0.930 . S
C174 C175 1.399 . S
C174 C179 1.399 . S
C175 C174 1.399 . S
C175 C176 1.376 1_554 S
C176 H163 0.930 . S
C176 C175 1.376 1_556 S
C176 C177 1.388 . S
C177 H164 0.930 . S
C177 C176 1.388 . S
C177 C178 1.390 . S
C178 C177 1.390 . S
C178 C179 1.394 1_556 S
C178 C184 1.467 . S
C179 C174 1.399 . S
C179 C178 1.394 1_554 S
C179 C180 1.516 . S
C180 C179 1.516 . S
C180 C181 1.502 . S
C180 C182 1.561 . S
C180 C183 1.526 . S
C181 H165 0.959 . S
C181 H166 0.959 . S
C181 H167 0.961 . S
C181 C180 1.502 . S
C182 H168 0.960 . S
C182 H169 0.961 . S
C182 H170 0.959 . S
C182 C180 1.561 . S
C183 C180 1.526 . S
C183 C184 1.390 1_554 S
C183 C188 1.390 . S
C184 C178 1.467 . S
C184 C183 1.390 1_556 S
C184 C185 1.402 . S
C185 H171 0.929 . S
C185 C184 1.402 . S
C185 C186 1.385 . S
C186 H172 0.931 . S
C186 C185 1.385 . S
C186 C187 1.389 1_556 S
C187 C186 1.389 1_554 S
C187 C188 1.387 . S
C188 H173 0.930 . S
C188 C183 1.390 . S
C188 C187 1.387 . S
H189 C201 0.930 . S
H190 C203 0.930 . S
H191 C204 0.930 . S
H192 C208 0.959 . S
H193 C208 0.959 . S
H194 C208 0.961 . S
H195 C209 0.960 . S
H196 C209 0.961 . S
H197 C209 0.959 . S
H198 C212 0.929 . S
H199 C213 0.931 . S
H200 C215 0.930 . S
C201 H189 0.930 . S
C201 C202 1.399 . S
C201 C206 1.399 . S
C202 C201 1.399 . S
C202 C203 1.376 1_556 S
C203 H190 0.930 . S
C203 C202 1.376 1_554 S
C203 C204 1.388 . S
C204 H191 0.930 . S
C204 C203 1.388 . S
C204 C205 1.390 1_554 S
C205 C204 1.390 1_556 S
C205 C206 1.394 . S
C205 C211 1.465 . S
C206 C201 1.399 . S
C206 C205 1.394 . S
C206 C207 1.516 . S
C207 C206 1.516 . S
C207 C208 1.502 . S
C207 C209 1.561 . S
C207 C210 1.526 . S
C208 H192 0.959 . S
C208 H193 0.959 . S
C208 H194 0.961 . S
C208 C207 1.502 . S
C209 H195 0.960 . S
C209 H196 0.961 . S
C209 H197 0.959 . S
C209 C207 1.561 . S
C210 C207 1.526 . S
C210 C211 1.396 . S
C210 C215 1.390 . S
C211 C205 1.465 . S
C211 C210 1.396 . S
C211 C212 1.399 1_556 S
C212 H198 0.929 . S
C212 C211 1.399 1_554 S
C212 C213 1.385 . S
C213 H199 0.931 . S
C213 C212 1.385 . S
C213 C214 1.389 1_554 S
C214 C213 1.389 1_556 S
C214 C215 1.387 . S
C215 H200 0.930 . S
C215 C210 1.390 . S
C215 C214 1.387 . S
H216 C228 0.930 . S
H217 C230 0.930 . S
H218 C231 0.930 . S
H219 C235 0.959 . S
H220 C235 0.959 . S
H221 C235 0.961 . S
H222 C236 0.960 . S
H223 C236 0.961 . S
H224 C236 0.959 . S
H225 C239 0.929 . S
H226 C240 0.931 . S
H227 C242 0.930 . S
C228 H216 0.930 . S
C228 C229 1.399 . S
C228 C233 1.399 . S
C229 C228 1.399 . S
C229 C230 1.376 . S
C230 H217 0.930 . S
C230 C229 1.376 . S
C230 C231 1.388 . S
C231 H218 0.930 . S
C231 C230 1.388 . S
C231 C232 1.390 . S
C232 C231 1.390 . S
C232 C233 1.394 . S
C232 C238 1.465 . S
C233 C228 1.399 . S
C233 C232 1.394 . S
C233 C234 1.516 . S
C234 C233 1.516 . S
C234 C235 1.502 . S
C234 C236 1.561 . S
C234 C237 1.526 . S
C235 H219 0.959 . S
C235 H220 0.959 . S
C235 H221 0.961 . S
C235 C234 1.502 . S
C236 H222 0.960 . S
C236 H223 0.961 . S
C236 H224 0.959 . S
C236 C234 1.561 . S
C237 C234 1.526 . S
C237 C238 1.396 . S
C237 C242 1.390 . S
C238 C232 1.465 . S
C238 C237 1.396 . S
C238 C239 1.399 . S
C239 H225 0.929 . S
C239 C238 1.399 . S
C239 C240 1.385 . S
C240 H226 0.931 . S
C240 C239 1.385 . S
C240 C241 1.389 . S
C241 C240 1.389 . S
C241 C242 1.387 . S
C242 H227 0.930 . S
C242 C237 1.390 . S
C242 C241 1.387 . S
H243 C255 0.930 . S
H244 C257 0.930 . S
H245 C258 0.930 . S
H246 C262 0.959 . S
H247 C262 0.959 . S
H248 C262 0.961 . S
H249 C263 0.960 . S
H250 C263 0.961 . S
H251 C263 0.959 . S
H252 C266 0.929 . S
H253 C267 0.931 . S
H254 C269 0.930 . S
C255 H243 0.930 . S
C255 C256 1.399 . S
C255 C260 1.399 . S
C256 C255 1.399 . S
C256 C257 1.376 . S
C257 H244 0.930 . S
C257 C256 1.376 . S
C257 C258 1.388 . S
C258 H245 0.930 . S
C258 C257 1.388 . S
C258 C259 1.390 . S
C259 C258 1.390 . S
C259 C260 1.394 . S
C259 C265 1.465 . S
C260 C255 1.399 . S
C260 C259 1.394 . S
C260 C261 1.516 . S
C261 C260 1.516 . S
C261 C262 1.502 . S
C261 C263 1.561 . S
C261 C264 1.526 . S
C262 H246 0.959 . S
C262 H247 0.959 . S
C262 H248 0.961 . S
C262 C261 1.502 . S
C263 H249 0.960 . S
C263 H250 0.961 . S
C263 H251 0.959 . S
C263 C261 1.561 . S
C264 C261 1.526 . S
C264 C265 1.396 . S
C264 C269 1.390 . S
C265 C259 1.465 . S
C265 C264 1.396 . S
C265 C266 1.399 . S
C266 H252 0.929 . S
C266 C265 1.399 . S
C266 C267 1.385 . S
C267 H253 0.931 . S
C267 C266 1.385 . S
C267 C268 1.389 . S
C268 C267 1.389 . S
C268 C269 1.387 . S
C269 H254 0.930 . S
C269 C264 1.390 . S
C269 C268 1.387 . S
H270 C282 0.930 . S
H271 C284 0.930 . S
H272 C285 0.930 . S
H273 C289 0.959 . S
H274 C289 0.959 . S
H275 C289 0.961 . S
H276 C290 0.960 . S
H277 C290 0.961 . S
H278 C290 0.959 . S
H279 C293 0.929 . S
H280 C294 0.931 . S
H281 C296 0.930 . S
C282 H270 0.930 . S
C282 C283 1.399 . S
C282 C287 1.399 . S
C283 C282 1.399 . S
C283 C284 1.376 . S
C284 H271 0.930 . S
C284 C283 1.376 . S
C284 C285 1.388 . S
C285 H272 0.930 . S
C285 C284 1.388 . S
C285 C286 1.390 . S
C286 C285 1.390 . S
C286 C287 1.394 . S
C286 C292 1.465 . S
C287 C282 1.399 . S
C287 C286 1.394 . S
C287 C288 1.516 . S
C288 C287 1.516 . S
C288 C289 1.502 . S
C288 C290 1.561 . S
C288 C291 1.526 . S
C289 H273 0.959 . S
C289 H274 0.959 . S
C289 H275 0.961 . S
C289 C288 1.502 . S
C290 H276 0.960 . S
C290 H277 0.961 . S
C290 H278 0.959 . S
C290 C288 1.561 . S
C291 C288 1.526 . S
C291 C292 1.396 . S
C291 C296 1.390 . S
C292 C286 1.465 . S
C292 C291 1.396 . S
C292 C293 1.399 . S
C293 H279 0.929 . S
C293 C292 1.399 . S
C293 C294 1.385 . S
C294 H280 0.931 . S
C294 C293 1.385 . S
C294 C295 1.389 . S
C295 C294 1.389 . S
C295 C296 1.387 . S
C296 H281 0.930 . S
C296 C291 1.390 . S
C296 C295 1.387 . S
H297 C309 0.930 . S
H298 C311 0.930 . S
H299 C312 0.930 . S
H300 C316 0.959 . S
H301 C316 0.959 . S
H302 C316 0.961 . S
H303 C317 0.960 . S
H304 C317 0.961 . S
H305 C317 0.959 . S
H306 C320 0.929 . S
H307 C321 0.931 . S
H308 C323 0.930 . S
C309 H297 0.930 . S
C309 C310 1.399 . S
C309 C314 1.399 . S
C310 C309 1.399 . S
C310 C311 1.376 . S
C311 H298 0.930 . S
C311 C310 1.376 . S
C311 C312 1.388 . S
C312 H299 0.930 . S
C312 C311 1.388 . S
C312 C313 1.390 . S
C313 C312 1.390 . S
C313 C314 1.394 . S
C313 C319 1.465 . S
C314 C309 1.399 . S
C314 C313 1.394 . S
C314 C315 1.516 . S
C315 C314 1.516 . S
C315 C316 1.502 . S
C315 C317 1.561 . S
C315 C318 1.526 . S
C316 H300 0.959 . S
C316 H301 0.959 . S
C316 H302 0.961 . S
C316 C315 1.502 . S
C317 H303 0.960 . S
C317 H304 0.961 . S
C317 H305 0.959 . S
C317 C315 1.561 . S
C318 C315 1.526 . S
C318 C319 1.396 . S
C318 C323 1.390 . S
C319 C313 1.465 . S
C319 C318 1.396 . S
C319 C320 1.399 . S
C320 H306 0.929 . S
C320 C319 1.399 . S
C320 C321 1.385 . S
C321 H307 0.931 . S
C321 C320 1.385 . S
C321 C322 1.389 . S
C322 C321 1.389 . S
C322 C323 1.387 . S
C323 H308 0.930 . S
C323 C318 1.390 . S
C323 C322 1.387 . S
H324 C336 0.930 . S
H325 C338 0.930 . S
H326 C339 0.930 . S
H327 C343 0.959 . S
H328 C343 0.959 . S
H329 C343 0.961 . S
H330 C344 0.960 . S
H331 C344 0.961 . S
H332 C344 0.959 . S
H333 C347 0.929 . S
H334 C348 0.931 . S
H335 C350 0.930 . S
C336 H324 0.930 . S
C336 C337 1.399 1_565 S
C336 C341 1.399 . S
C337 C336 1.399 1_545 S
C337 C338 1.376 . S
C338 H325 0.930 . S
C338 C337 1.376 . S
C338 C339 1.388 . S
C339 H326 0.930 . S
C339 C338 1.388 . S
C339 C340 1.390 . S
C340 C339 1.390 . S
C340 C341 1.394 1_545 S
C340 C346 1.465 . S
C341 C336 1.399 . S
C341 C340 1.394 1_565 S
C341 C342 1.516 . S
C342 C341 1.516 . S
C342 C343 1.502 1_455 S
C342 C344 1.561 . S
C342 C345 1.526 . S
C343 H327 0.959 . S
C343 H328 0.959 . S
C343 H329 0.961 . S
C343 C342 1.502 1_655 S
C344 H330 0.960 . S
C344 H331 0.961 . S
C344 H332 0.959 . S
C344 C342 1.561 . S
C345 C342 1.526 . S
C345 C346 1.396 1_565 S
C345 C350 1.390 . S
C346 C340 1.465 . S
C346 C345 1.396 1_545 S
C346 C347 1.399 . S
C347 H333 0.929 . S
C347 C346 1.399 . S
C347 C348 1.385 . S
C348 H334 0.931 . S
C348 C347 1.385 . S
C348 C349 1.389 . S
C349 C348 1.389 . S
C349 C350 1.387 1_545 S
C350 H335 0.930 . S
C350 C345 1.390 . S
C350 C349 1.387 1_565 S
H351 C363 0.930 . S
H352 C365 0.930 . S
H353 C366 0.930 . S
H354 C370 0.959 1_545 S
H355 C370 0.959 . S
H356 C370 0.961 . S
H357 C371 0.960 . S
H358 C371 0.961 . S
H359 C371 0.959 1_655 S
H360 C374 0.929 . S
H361 C375 0.931 . S
H362 C377 0.930 . S
C363 H351 0.930 . S
C363 C364 1.399 1_465 S
C363 C368 1.399 . S
C364 C363 1.399 1_645 S
C364 C365 1.376 . S
C365 H352 0.930 . S
C365 C364 1.376 . S
C365 C366 1.388 . S
C366 H353 0.930 . S
C366 C365 1.388 . S
C366 C367 1.390 . S
C367 C366 1.390 . S
C367 C368 1.394 1_645 S
C367 C373 1.465 . S
C368 C363 1.399 . S
C368 C367 1.394 1_465 S
C368 C369 1.516 . S
C369 C368 1.516 . S
C369 C370 1.502 . S
C369 C371 1.561 . S
C369 C372 1.526 . S
C370 H354 0.959 1_565 S
C370 H355 0.959 . S
C370 H356 0.961 . S
C370 C369 1.502 . S
C371 H357 0.960 . S
C371 H358 0.961 . S
C371 H359 0.959 1_455 S
C371 C369 1.561 . S
C372 C369 1.526 . S
C372 C373 1.396 1_465 S
C372 C377 1.390 . S
C373 C367 1.465 . S
C373 C372 1.396 1_645 S
C373 C374 1.399 . S
C374 H360 0.929 . S
C374 C373 1.399 . S
C374 C375 1.385 . S
C375 H361 0.931 . S
C375 C374 1.385 . S
C375 C376 1.389 . S
C376 C375 1.389 . S
C376 C377 1.387 1_645 S
C377 H362 0.930 . S
C377 C372 1.390 . S
C377 C376 1.387 1_465 S
H378 C390 0.930 . S
H379 C392 0.930 . S
H380 C393 0.930 . S
H381 C397 0.959 . S
H382 C397 0.959 . S
H383 C397 0.961 . S
H384 C398 0.960 . S
H385 C398 0.961 . S
H386 C398 0.959 . S
H387 C401 0.929 . S
H388 C402 0.931 . S
H389 C404 0.930 . S
C390 H378 0.930 . S
C390 C391 1.399 . S
C390 C395 1.399 . S
C391 C390 1.399 . S
C391 C392 1.376 . S
C392 H379 0.930 . S
C392 C391 1.376 . S
C392 C393 1.388 . S
C393 H380 0.930 . S
C393 C392 1.388 . S
C393 C394 1.390 . S
C394 C393 1.390 . S
C394 C395 1.394 . S
C394 C400 1.465 . S
C395 C390 1.399 . S
C395 C394 1.394 . S
C395 C396 1.516 . S
C396 C395 1.516 . S
C396 C397 1.502 . S
C396 C398 1.561 . S
C396 C399 1.526 . S
C397 H381 0.959 . S
C397 H382 0.959 . S
C397 H383 0.961 . S
C397 C396 1.502 . S
C398 H384 0.960 . S
C398 H385 0.961 . S
C398 H386 0.959 . S
C398 C396 1.561 . S
C399 C396 1.526 . S
C399 C400 1.396 . S
C399 C404 1.390 . S
C400 C394 1.465 . S
C400 C399 1.396 . S
C400 C401 1.399 . S
C401 H387 0.929 . S
C401 C400 1.399 . S
C401 C402 1.385 . S
C402 H388 0.931 . S
C402 C401 1.385 . S
C402 C403 1.389 . S
C403 C402 1.389 . S
C403 C404 1.387 . S
C404 H389 0.930 . S
C404 C399 1.390 . S
C404 C403 1.387 . S
H405 C417 0.930 . S
H406 C419 0.930 . S
H407 C420 0.930 . S
H408 C424 0.959 . S
H409 C424 0.959 . S
H410 C424 0.961 . S
H411 C425 0.960 . S
H412 C425 0.961 . S
H413 C425 0.959 . S
H414 C428 0.929 . S
H415 C429 0.931 . S
H416 C431 0.930 . S
C417 H405 0.930 . S
C417 C418 1.399 . S
C417 C422 1.399 . S
C418 C417 1.399 . S
C418 C419 1.376 . S
C419 H406 0.930 . S
C419 C418 1.376 . S
C419 C420 1.388 . S
C420 H407 0.930 . S
C420 C419 1.388 . S
C420 C421 1.390 . S
C421 C420 1.390 . S
C421 C422 1.394 . S
C421 C427 1.465 . S
C422 C417 1.399 . S
C422 C421 1.394 . S
C422 C423 1.516 . S
C423 C422 1.516 . S
C423 C424 1.502 . S
C423 C425 1.561 . S
C423 C426 1.526 . S
C424 H408 0.959 . S
C424 H409 0.959 . S
C424 H410 0.961 . S
C424 C423 1.502 . S
C425 H411 0.960 . S
C425 H412 0.961 . S
C425 H413 0.959 . S
C425 C423 1.561 . S
C426 C423 1.526 . S
C426 C427 1.396 . S
C426 C431 1.390 . S
C427 C421 1.465 . S
C427 C426 1.396 . S
C427 C428 1.399 . S
C428 H414 0.929 . S
C428 C427 1.399 . S
C428 C429 1.385 . S
C429 H415 0.931 . S
C429 C428 1.385 . S
C429 C430 1.389 . S
C430 C429 1.389 . S
C430 C431 1.387 . S
C431 H416 0.930 . S
C431 C426 1.390 . S
C431 C430 1.387 . S
C133 C102 1.422 . S
C121 C27 1.474 . S
C148 N6 1.392 . S
C160 C88 1.396 . S
C175 C16 1.423 . S
C187 C100 1.405 . S
C202 N14 1.409 1_556 S
C214 C90 1.444 . S
C229 C57 1.473 . S
C241 C78 1.424 . S
C256 N36 1.369 . S
C268 C64 1.397 . S
C295 C76 1.413 . S
C283 C46 1.428 . S
C322 C66 1.444 . S
C310 N44 1.410 . S
C337 C10 1.469 . S
C349 C69 1.475 1_545 S
C364 C1 1.532 1_655 S
C376 C81 1.540 1_545 S
C403 C93 1.462 . S
C391 C40 1.470 . S
C418 C31 1.532 . S
C430 C105 1.542 . S
