# Generated by pormake.
# Topology zzz, (3,6)-cn, num edge types: 1
# Building blocks:
#     Node 0, Type 0, BuildingBlock: KAKCAD_clean_linker_0, # of connection points: 3
#     Node 1, Type 0, BuildingBlock: KAKCAD_clean_linker_0, # of connection points: 3
#     Node 2, Type 0, BuildingBlock: KAKCAD_clean_linker_0, # of connection points: 3
#     Node 3, Type 0, BuildingBlock: KAKCAD_clean_linker_0, # of connection points: 3
#     Node 4, Type 0, BuildingBlock: KAKCAD_clean_linker_0, # of connection points: 3
#     Node 5, Type 0, BuildingBlock: KAKCAD_clean_linker_0, # of connection points: 3
#     Node 6, Type 0, BuildingBlock: KAKCAD_clean_linker_0, # of connection points: 3
#     Node 7, Type 0, BuildingBlock: KAKCAD_clean_linker_0, # of connection points: 3
#     Node 8, Type 1, BuildingBlock: NUHQIS_clean_sbu_0, # of connection points: 6
#     Node 9, Type 1, BuildingBlock: NUHQIS_clean_sbu_0, # of connection points: 6
#     Node 10, Type 1, BuildingBlock: NUHQIS_clean_sbu_0, # of connection points: 6
#     Node 11, Type 1, BuildingBlock: NUHQIS_clean_sbu_0, # of connection points: 6
#     Edge 12, Type (0, 1), BuildingBlock: TEMPAE_clean_linker_10, # of connection points: 2
#     Edge 13, Type (0, 1), BuildingBlock: TEMPAE_clean_linker_10, # of connection points: 2
#     Edge 14, Type (0, 1), BuildingBlock: TEMPAE_clean_linker_10, # of connection points: 2
#     Edge 15, Type (0, 1), BuildingBlock: TEMPAE_clean_linker_10, # of connection points: 2
#     Edge 16, Type (0, 1), BuildingBlock: TEMPAE_clean_linker_10, # of connection points: 2
#     Edge 17, Type (0, 1), BuildingBlock: TEMPAE_clean_linker_10, # of connection points: 2
#     Edge 18, Type (0, 1), BuildingBlock: TEMPAE_clean_linker_10, # of connection points: 2
#     Edge 19, Type (0, 1), BuildingBlock: TEMPAE_clean_linker_10, # of connection points: 2
#     Edge 20, Type (0, 1), BuildingBlock: TEMPAE_clean_linker_10, # of connection points: 2
#     Edge 21, Type (0, 1), BuildingBlock: TEMPAE_clean_linker_10, # of connection points: 2
#     Edge 22, Type (0, 1), BuildingBlock: TEMPAE_clean_linker_10, # of connection points: 2
#     Edge 23, Type (0, 1), BuildingBlock: TEMPAE_clean_linker_10, # of connection points: 2
#     Edge 24, Type (0, 1), BuildingBlock: TEMPAE_clean_linker_10, # of connection points: 2
#     Edge 25, Type (0, 1), BuildingBlock: TEMPAE_clean_linker_10, # of connection points: 2
#     Edge 26, Type (0, 1), BuildingBlock: TEMPAE_clean_linker_10, # of connection points: 2
#     Edge 27, Type (0, 1), BuildingBlock: TEMPAE_clean_linker_10, # of connection points: 2
#     Edge 28, Type (0, 1), BuildingBlock: TEMPAE_clean_linker_10, # of connection points: 2
#     Edge 29, Type (0, 1), BuildingBlock: TEMPAE_clean_linker_10, # of connection points: 2
#     Edge 30, Type (0, 1), BuildingBlock: TEMPAE_clean_linker_10, # of connection points: 2
#     Edge 31, Type (0, 1), BuildingBlock: TEMPAE_clean_linker_10, # of connection points: 2
#     Edge 32, Type (0, 1), BuildingBlock: TEMPAE_clean_linker_10, # of connection points: 2
#     Edge 33, Type (0, 1), BuildingBlock: TEMPAE_clean_linker_10, # of connection points: 2
#     Edge 34, Type (0, 1), BuildingBlock: TEMPAE_clean_linker_10, # of connection points: 2
#     Edge 35, Type (0, 1), BuildingBlock: TEMPAE_clean_linker_10, # of connection points: 2
# Relax obj value: 0.416
# Max RMSD: 0.255
# Mean RMSD: 0.232
data_MOF--net-zzz--node1-NUHQIS_clean_sbu_0--node2-KAKCAD_clean_linker_0--edge1-TEMPAE_clean_linker_10
_symmetry_space_group_name_H-M    P1
_symmetry_Int_Tables_number       1
_symmetry_cell_setting            triclinic
loop_
_symmetry_equiv_pos_as_xyz
'x, y, z'
_cell_length_a     60.355452
_cell_length_b     60.341592
_cell_length_c     19.245896
_cell_angle_alpha  89.84211
_cell_angle_beta   89.860854
_cell_angle_gamma 90.027811
loop_
_atom_site_label
_atom_site_type_symbol
_atom_site_fract_x
_atom_site_fract_y
_atom_site_fract_z
_atom_type_partial_charge
C0 C 0.8062 0.47888 0.05747 0.0
C1 C 0.79586 0.46439 0.01031 0.0
C2 C 0.79443 0.48808 0.11245 0.0
C3 C 0.7721 0.48265 0.1232 0.0
C4 C 0.76142 0.46877 0.07506 0.0
C5 C 0.77317 0.4598 0.01898 0.0
C6 C 0.76051 0.49057 0.18659 0.0
C7 C 0.73847 0.49751 0.18389 0.0
C8 C 0.72737 0.50464 0.24388 0.0
C9 C 0.7387 0.50502 0.30828 0.0
C10 C 0.76107 0.49797 0.31176 0.0
C11 C 0.77158 0.49088 0.25047 0.0
C12 C 0.77447 0.49771 0.37717 0.0
C13 C 0.77703 0.51675 0.41827 0.0
C14 C 0.78803 0.4793 0.39142 0.0
C15 C 0.80503 0.4805 0.44041 0.0
C16 C 0.80879 0.50001 0.47878 0.0
C17 C 0.7037 0.51065 0.23539 0.0
C18 C 0.69828 0.52989 0.19784 0.0
C19 C 0.68742 0.49427 0.24442 0.0
C20 C 0.66671 0.49631 0.21199 0.0
C21 C 0.66188 0.51477 0.16962 0.0
C22 C 0.67758 0.532 0.16565 0.0
C23 C 0.7939 0.51784 0.46874 0.0
H24 H 0.82373 0.48254 0.054 0.0
H25 H 0.80306 0.49907 0.14761 0.0
H26 H 0.7442 0.46421 0.08202 0.0
H27 H 0.76458 0.44892 0.9834 0.0
H28 H 0.72978 0.4974 0.1346 0.0
H29 H 0.78867 0.4854 0.25264 0.0
H30 H 0.73018 0.51041 0.35485 0.0
H31 H 0.7669 0.53124 0.40865 0.0
H32 H 0.7864 0.46426 0.36121 0.0
H33 H 0.81596 0.46638 0.44472 0.0
H34 H 0.71076 0.54247 0.18844 0.0
H35 H 0.69136 0.47903 0.27161 0.0
H36 H 0.79564 0.53299 0.49819 0.0
H37 H 0.6746 0.54636 0.13313 0.0
H38 H 0.65492 0.48286 0.21708 0.0
C39 C 0.94411 0.80261 0.09152 0.0
C40 C 0.95963 0.80197 0.03689 0.0
C41 C 0.94556 0.78758 0.14657 0.0
C42 C 0.96223 0.77138 0.14695 0.0
C43 C 0.97589 0.76898 0.08833 0.0
C44 C 0.97465 0.78419 0.03381 0.0
C45 C 0.9678 0.75938 0.21158 0.0
C46 C 0.97232 0.73672 0.21015 0.0
C47 C 0.98093 0.7258 0.26853 0.0
C48 C 0.98544 0.73808 0.32963 0.0
C49 C 0.98021 0.76098 0.33217 0.0
C50 C 0.97132 0.77124 0.27291 0.0
C51 C 0.98446 0.77543 0.39354 0.0
C52 C 0.96693 0.78805 0.42099 0.0
C53 C 1.00619 0.78068 0.41367 0.0
C54 C 0.01035 0.79909 0.45656 0.0
C55 C 0.99285 0.81267 0.48028 0.0
C56 C 0.98529 0.7017 0.26077 0.0
C57 C 0.96737 0.6876 0.24614 0.0
C58 C 0.00686 0.69407 0.24763 0.0
C59 C 0.01031 0.67341 0.21573 0.0
C60 C 0.99223 0.66003 0.19568 0.0
C61 C 0.97076 0.66709 0.21407 0.0
C62 C 0.97104 0.80634 0.46372 0.0
H63 H 0.932 0.81582 0.09451 0.0
H64 H 0.93459 0.78946 0.19079 0.0
H65 H 0.9889 0.75663 0.08741 0.0
H66 H 0.98696 0.78321 0.99289 0.0
H67 H 0.96958 0.72757 0.16245 0.0
H68 H 0.96828 0.78897 0.27343 0.0
H69 H 0.99251 0.72991 0.37458 0.0
H70 H 0.95003 0.78462 0.40549 0.0
H71 H 0.02005 0.77151 0.39241 0.0
H72 H 0.02736 0.80315 0.46894 0.0
H73 H 0.95054 0.6933 0.25426 0.0
H74 H 0.02094 0.70479 0.25701 0.0
H75 H 0.95708 0.81635 0.47988 0.0
H76 H 0.95633 0.65759 0.19913 0.0
H77 H 0.02712 0.66843 0.20385 0.0
C78 C 0.72408 0.93647 0.08009 0.0
C79 C 0.72459 0.95125 0.02339 0.0
C80 C 0.73912 0.93881 0.13461 0.0
C81 C 0.75519 0.95562 0.13242 0.0
C82 C 0.7575 0.96841 0.07182 0.0
C83 C 0.74232 0.96629 0.01784 0.0
C84 C 0.76712 0.96232 0.196 0.0
C85 C 0.78957 0.96771 0.19296 0.0
C86 C 0.80029 0.97771 0.24934 0.0
C87 C 0.78797 0.9826 0.31033 0.0
C88 C 0.76532 0.97636 0.31487 0.0
C89 C 0.75529 0.96622 0.25735 0.0
C90 C 0.75087 0.98073 0.37652 0.0
C91 C 0.73855 0.96316 0.40535 0.0
C92 C 0.74547 1.00247 0.39632 0.0
C93 C 0.72723 1.00655 0.44033 0.0
C94 C 0.71394 0.98898 0.46557 0.0
C95 C 0.82414 0.98317 0.23925 0.0
C96 C 0.8388 0.96598 0.22161 0.0
C97 C 0.83087 1.00514 0.22738 0.0
C98 C 0.85109 0.00968 0.19363 0.0
C99 C 0.86493 0.99232 0.17026 0.0
C100 C 0.85881 0.97044 0.18746 0.0
C101 C 0.72041 0.96719 0.44909 0.0
H102 H 0.71094 0.92434 0.08506 0.0
H103 H 0.73732 0.92846 0.18035 0.0
H104 H 0.76973 0.98153 0.06876 0.0
H105 H 0.74323 0.97806 0.97536 0.0
H106 H 0.79868 0.96468 0.14522 0.0
H107 H 0.73771 0.9625 0.25906 0.0
H108 H 0.79594 0.99071 0.35376 0.0
H109 H 0.74211 0.94623 0.39036 0.0
H110 H 0.75441 0.01638 0.37417 0.0
H111 H 0.72309 0.02355 0.45261 0.0
H112 H 0.83386 0.94886 0.22893 0.0
H113 H 0.81976 0.01871 0.23926 0.0
H114 H 0.71065 0.95314 0.46632 0.0
H115 H 0.86862 0.95649 0.17012 0.0
H116 H 0.85535 0.02679 0.18305 0.0
C117 C 0.49843 0.72347 0.45856 0.0
C118 C 0.51787 0.71095 0.4683 0.0
C119 C 0.4984 0.74219 0.41523 0.0
C120 C 0.51782 0.74899 0.3808 0.0
C121 C 0.53761 0.73756 0.39452 0.0
C122 C 0.53768 0.71882 0.43811 0.0
C123 C 0.51582 0.76237 0.31612 0.0
C124 C 0.52098 0.78521 0.31125 0.0
C125 C 0.51805 0.79647 0.24724 0.0
C126 C 0.51091 0.78459 0.18879 0.0
C127 C 0.50568 0.76204 0.19319 0.0
C128 C 0.50795 0.75124 0.25735 0.0
C129 C 0.49754 0.74973 0.13142 0.0
C130 C 0.48366 0.75991 0.08198 0.0
C131 C 0.50307 0.72733 0.12271 0.0
C132 C 0.49411 0.71511 0.06846 0.0
C133 C 0.47997 0.72508 0.01935 0.0
C134 C 0.52108 0.82075 0.23802 0.0
C135 C 0.50282 0.83338 0.21635 0.0
C136 C 0.54233 0.83012 0.23304 0.0
C137 C 0.5453 0.85116 0.20255 0.0
C138 C 0.5271 0.86312 0.17562 0.0
C139 C 0.50575 0.85415 0.1854 0.0
C140 C 0.47517 0.74778 0.02619 0.0
H141 H 0.48293 0.71815 0.48172 0.0
H142 H 0.4828 0.75035 0.40425 0.0
H143 H 0.55266 0.74199 0.36701 0.0
H144 H 0.55294 0.70957 0.44389 0.0
H145 H 0.5266 0.79415 0.35666 0.0
H146 H 0.50333 0.73394 0.26234 0.0
H147 H 0.50944 0.79313 0.13938 0.0
H148 H 0.47884 0.7771 0.08717 0.0
H149 H 0.51411 0.71899 0.15848 0.0
H150 H 0.49789 0.69759 0.06675 0.0
H151 H 0.48629 0.82637 0.21839 0.0
H152 H 0.55673 0.82059 0.24826 0.0
H153 H 0.46462 0.75617 0.98914 0.0
H154 H 0.49124 0.86237 0.16478 0.0
H155 H 0.56197 0.85758 0.19752 0.0
C156 C 0.25188 0.54742 0.39209 0.0
C157 C 0.23076 0.53932 0.40966 0.0
C158 C 0.26309 0.53911 0.33404 0.0
C159 C 0.25327 0.5227 0.29249 0.0
C160 C 0.23268 0.5139 0.31199 0.0
C161 C 0.22154 0.52213 0.36977 0.0
C162 C 0.26383 0.51547 0.22695 0.0
C163 C 0.28638 0.51048 0.22479 0.0
C164 C 0.29657 0.50372 0.16285 0.0
C165 C 0.28379 0.50186 0.10146 0.0
C166 C 0.26094 0.50723 0.10312 0.0
C167 C 0.25129 0.51388 0.16608 0.0
C168 C 0.24624 0.50685 0.04111 0.0
C169 C 0.23653 0.52679 0.01871 0.0
C170 C 0.23747 0.48676 0.01659 0.0
C171 C 0.2185 0.48664 0.97414 0.0
C172 C 0.2078 0.50662 0.95606 0.0
C173 C 0.32071 0.49936 0.16647 0.0
C174 C 0.33521 0.51747 0.172 0.0
C175 C 0.32819 0.47835 0.18735 0.0
C176 C 0.34912 0.47582 0.21801 0.0
C177 C 0.36295 0.49431 0.22923 0.0
C178 C 0.35608 0.515 0.20282 0.0
C179 C 0.21762 0.52669 0.97671 0.0
H180 H 0.25941 0.56061 0.4219 0.0
H181 H 0.27898 0.54619 0.31998 0.0
H182 H 0.22489 0.50103 0.28141 0.0
H183 H 0.20512 0.51576 0.38085 0.0
H184 H 0.29614 0.51169 0.27194 0.0
H185 H 0.23383 0.51815 0.16736 0.0
H186 H 0.29154 0.49681 0.05324 0.0
H187 H 0.24273 0.5425 0.0377 0.0
H188 H 0.24426 0.47115 0.03443 0.0
H189 H 0.21135 0.47087 0.95946 0.0
H190 H 0.32959 0.53396 0.15826 0.0
H191 H 0.31713 0.46422 0.18531 0.0
H192 H 0.21009 0.54238 0.96292 0.0
H193 H 0.36602 0.52971 0.2109 0.0
H194 H 0.35395 0.45955 0.23638 0.0
C195 C 0.93975 0.23887 0.3539 0.0
C196 C 0.94783 0.21805 0.37487 0.0
C197 C 0.95188 0.25191 0.30689 0.0
C198 C 0.97209 0.24415 0.27997 0.0
C199 C 0.98049 0.22378 0.30296 0.0
C200 C 0.96861 0.21099 0.35025 0.0
C201 C 0.9846 0.25683 0.22725 0.0
C202 C 0.99161 0.27844 0.2408 0.0
C203 C 1.00597 0.28954 0.1948 0.0
C204 C 0.01286 0.27883 0.13293 0.0
C205 C 1.00549 0.25703 0.1187 0.0
C206 C 0.99139 0.24638 0.16607 0.0
C207 C 0.01323 0.24363 0.05872 0.0
C208 C 1.00004 0.242 0.99886 0.0
C209 C 0.02982 0.22768 0.06968 0.0
C210 C 0.03223 0.20971 0.02431 0.0
C211 C 0.01811 0.20721 0.96674 0.0
C212 C 0.01446 0.31155 0.21689 0.0
C213 C 0.0072 0.33115 0.18474 0.0
C214 C 0.02627 0.31309 0.27951 0.0
C215 C 0.02966 0.33358 0.31151 0.0
C216 C 0.02131 0.35323 0.28188 0.0
C217 C 0.0106 0.35179 0.21688 0.0
C218 C 1.00259 0.22408 0.95294 0.0
H219 H 0.92381 0.24475 0.3721 0.0
H220 H 0.94521 0.26768 0.28998 0.0
H221 H 0.99629 0.21772 0.28409 0.0
H222 H 0.97566 0.19536 0.36705 0.0
H223 H 0.98664 0.28632 0.28898 0.0
H224 H 0.98611 0.22948 0.15606 0.0
H225 H 0.0243 0.287 0.09778 0.0
H226 H 0.98668 0.25366 0.99035 0.0
H227 H 0.0398 0.22821 0.11637 0.0
H228 H 0.04451 0.19717 0.03612 0.0
H229 H 0.99776 0.33039 0.13701 0.0
H230 H 0.03175 0.29819 0.30592 0.0
H231 H 0.99134 0.22263 0.90944 0.0
H232 H 1.00419 0.36654 0.19188 0.0
H233 H 0.03768 0.33377 0.36176 0.0
C234 C 0.27496 0.0219 0.37406 0.0
C235 C 0.29464 0.03393 0.38324 0.0
C236 C 0.26142 0.02617 0.31703 0.0
C237 C 0.26738 0.04253 0.26835 0.0
C238 C 0.28576 0.05611 0.28162 0.0
C239 C 0.29926 0.05189 0.33885 0.0
C240 C 0.25651 0.04293 0.19965 0.0
C241 C 0.23358 0.04072 0.19437 0.0
C242 C 0.2234 0.03739 0.12989 0.0
C243 C 0.2366 0.03636 0.06892 0.0
C244 C 0.25987 0.03923 0.07378 0.0
C245 C 0.26944 0.04259 0.13924 0.0
C246 C 0.27545 0.03764 0.01382 0.0
C247 C 0.28118 0.01684 0.98644 0.0
C248 C 0.28904 0.05591 0.99799 0.0
C249 C 0.30865 0.05324 0.95983 0.0
C250 C 0.31535 0.03217 0.93667 0.0
C251 C 0.19903 0.03419 0.13153 0.0
C252 C 0.19062 0.01396 0.15652 0.0
C253 C 0.18518 0.05288 0.13246 0.0
C254 C 0.16403 0.05177 0.16285 0.0
C255 C 0.15635 0.03198 0.19382 0.0
C256 C 0.16955 0.01284 0.18718 0.0
C257 C 0.30088 0.01414 0.94802 0.0
H258 H 0.27105 0.00787 0.40712 0.0
H259 H 0.24739 0.01537 0.30794 0.0
H260 H 0.29045 0.06909 0.24545 0.0
H261 H 0.31416 0.06166 0.34558 0.0
H262 H 0.22354 0.04102 0.24123 0.0
H263 H 0.28733 0.04369 0.14342 0.0
H264 H 0.22896 0.03335 0.01897 0.0
H265 H 0.27137 1.00236 0.99937 0.0
H266 H 0.28525 0.07206 0.01944 0.0
H267 H 0.31908 0.06759 0.95103 0.0
H268 H 0.20121 0.99947 0.15847 0.0
H269 H 0.19144 0.0688 0.11524 0.0
H270 H 0.30548 0.99764 0.93133 0.0
H271 H 0.16446 0.99734 0.21075 0.0
H272 H 0.15422 0.06676 0.16559 0.0
C273 C 0.49138 0.29986 0.97646 0.0
C274 C 0.50966 0.31013 0.94384 0.0
C275 C 0.49427 0.28055 0.01688 0.0
C276 C 0.51543 0.27112 0.02469 0.0
C277 C 0.53322 0.28043 0.9872 0.0
C278 C 0.53041 0.2997 0.94775 0.0
C279 C 0.52038 0.25497 0.08157 0.0
C280 C 0.50972 0.23417 0.0891 0.0
C281 C 0.51621 0.21961 0.14326 0.0
C282 C 0.53266 0.22627 0.19023 0.0
C283 C 0.54272 0.24704 0.18468 0.0
C284 C 0.53654 0.26116 0.13021 0.0
C285 C 0.55857 0.25484 0.2382 0.0
C286 C 0.55416 0.25134 0.30916 0.0
C287 C 0.57686 0.26791 0.21912 0.0
C288 C 0.58897 0.27921 0.26947 0.0
C289 C 0.58314 0.27751 0.3401 0.0
C290 C 0.50651 0.19725 0.15446 0.0
C291 C 0.48583 0.19493 0.18725 0.0
C292 C 0.52053 0.17872 0.15074 0.0
C293 C 0.51487 0.15884 0.18391 0.0
C294 C 0.49496 0.1569 0.22181 0.0
C295 C 0.48006 0.17494 0.22033 0.0
C296 C 0.56643 0.26247 0.35965 0.0
H297 H 0.47518 0.30753 0.97431 0.0
H298 H 0.48032 0.27394 0.04573 0.0
H299 H 0.54972 0.27353 0.99199 0.0
H300 H 0.54472 0.30698 0.92241 0.0
H301 H 0.49706 0.22917 0.05255 0.0
H302 H 0.54388 0.27753 0.12671 0.0
H303 H 0.5375 0.21517 0.23196 0.0
H304 H 0.54024 0.24129 0.32571 0.0
H305 H 0.58103 0.27046 0.1649 0.0
H306 H 0.60166 0.29068 0.25226 0.0
H307 H 0.4749 0.20908 0.19202 0.0
H308 H 0.53677 0.18021 0.12706 0.0
H309 H 0.56181 0.26048 0.41373 0.0
H310 H 0.46439 0.17401 0.24769 0.0
H311 H 0.52698 0.14562 0.18416 0.0
Tb312 Tb 0.02976 0.01012 0.72905 0.0
Eu313 Eu 0.98752 0.02089 0.63044 0.0
C314 C 0.03777 0.02164 0.56795 0.0
C315 C 0.01274 0.05857 0.71954 0.0
C316 C 0.05636 0.97599 0.85158 0.0
C317 C 0.05826 0.93578 0.8474 0.0
C318 C 0.06758 0.95648 0.8326 0.0
C319 C 0.03749 0.97437 0.89438 0.0
C320 C 0.02817 0.95378 0.90869 0.0
C321 C 0.03776 0.9345 0.88158 0.0
C322 C 0.05935 0.99602 0.80859 0.0
O323 O 1.00187 0.01435 0.80088 0.0
O324 O 0.97374 1.00506 0.72764 0.0
O325 O 0.99828 0.98664 0.59967 0.0
O326 O 0.0137 0.97835 0.70471 0.0
C327 C 0.98127 0.00816 0.79063 0.0
O328 O 0.95303 0.01471 0.60203 0.0
O329 O 0.97132 0.04118 0.55194 0.0
O330 O 0.0167 0.02635 0.55839 0.0
O331 O 0.0454 0.01455 0.62795 0.0
O332 O 0.03059 0.0461 0.7187 0.0
O333 O 0.99349 0.05051 0.70009 0.0
C334 C 1.0058 0.97199 0.64423 0.0
O335 O 0.05913 0.99204 0.74211 0.0
O336 O 0.04689 0.01301 0.82387 0.0
C337 C 0.93471 0.04854 0.58172 0.0
C338 C 0.91153 0.08801 0.60792 0.0
C339 C 0.9226 0.07703 0.66216 0.0
C340 C 0.93419 0.05745 0.64906 0.0
C341 C 0.92175 0.05808 0.5295 0.0
C342 C 0.91011 0.07763 0.54256 0.0
C343 C 0.95188 0.03242 0.56325 0.0
H344 H 0.06603 0.92099 0.82686 0.0
H345 H 0.08211 0.95727 0.79953 0.0
H346 H 0.02847 0.989 0.91054 0.0
H347 H 0.01261 0.95302 0.93682 0.0
H348 H 0.92393 0.08459 0.71298 0.0
H349 H 0.94422 0.0503 0.69003 0.0
H350 H 0.9221 0.05148 0.4772 0.0
H351 H 0.90199 0.08579 0.49936 0.0
Tb352 Tb 0.52074 0.02959 0.7414 0.0
Eu353 Eu 0.50642 0.98766 0.64742 0.0
C354 C 0.50461 0.03714 0.58803 0.0
C355 C 0.47146 0.01404 0.74092 0.0
C356 C 0.55625 0.0573 0.85707 0.0
C357 C 0.59632 0.0565 0.84461 0.0
C358 C 0.57599 0.06675 0.83153 0.0
C359 C 0.5576 0.03977 0.90525 0.0
C360 C 0.57782 0.02947 0.91774 0.0
C361 C 0.59698 0.03692 0.88381 0.0
C362 C 0.53576 0.05995 0.81622 0.0
O363 O 0.51999 1.00158 0.81415 0.0
O364 O 0.52484 0.97302 0.73769 0.0
O365 O 0.54125 0.99583 0.61282 0.0
O366 O 0.55183 0.01289 0.71366 0.0
C367 C 0.52453 0.98068 0.80129 0.0
O368 O 0.50066 0.95204 0.63878 0.0
O369 O 0.49367 0.97332 0.55126 0.0
O370 O 0.49389 0.01822 0.59087 0.0
O371 O 0.51912 0.04234 0.63582 0.0
O372 O 0.48448 0.03146 0.73549 0.0
O373 O 0.47873 0.99432 0.72381 0.0
C374 C 0.55685 1.00363 0.65368 0.0
O375 O 0.53891 0.05913 0.7493 0.0
O376 O 0.51894 0.04766 0.83477 0.0
C377 C 0.46651 0.94756 0.58228 0.0
C378 C 0.42032 0.95194 0.58045 0.0
C379 C 0.43163 0.95198 0.64388 0.0
C380 C 0.45457 0.94968 0.64487 0.0
C381 C 0.45494 0.94486 0.51985 0.0
C382 C 0.43188 0.94693 0.51898 0.0
C383 C 0.48995 0.95415 0.5805 0.0
H384 H 0.6111 0.06262 0.81885 0.0
H385 H 0.57544 0.08033 0.79462 0.0
H386 H 0.54281 0.03227 0.92697 0.0
H387 H 0.5782 0.01463 0.94959 0.0
H388 H 0.42299 0.95582 0.69181 0.0
H389 H 0.46304 0.95181 0.69397 0.0
H390 H 0.46382 0.94339 0.47108 0.0
H391 H 0.42344 0.94701 0.46936 0.0
Tb392 Tb 0.49326 0.5152 0.74663 0.0
Eu393 Eu 0.53434 0.50284 0.64391 0.0
C394 C 0.48475 0.50291 0.59053 0.0
C395 C 0.50899 0.46498 0.73501 0.0
C396 C 0.44778 0.5472 0.82454 0.0
C397 C 0.43175 0.57922 0.76635 0.0
C398 C 0.44063 0.55781 0.76347 0.0
C399 C 0.4448 0.55768 0.88848 0.0
C400 C 0.43641 0.57913 0.89132 0.0
C401 C 0.43038 0.59055 0.83012 0.0
C402 C 0.46132 0.52699 0.82235 0.0
O403 O 0.52158 0.50757 0.81303 0.0
O404 O 0.54779 0.52025 0.73832 0.0
O405 O 0.52543 0.53794 0.61541 0.0
O406 O 0.50659 0.54753 0.7147 0.0
C407 C 0.54169 0.515 0.80161 0.0
O408 O 0.56901 0.49322 0.63569 0.0
O409 O 0.55005 0.4995 0.54221 0.0
O410 O 0.50318 0.49135 0.58989 0.0
O411 O 0.48096 0.51728 0.64031 0.0
O412 O 0.49281 0.479 0.74825 0.0
O413 O 0.52719 0.4711 0.70241 0.0
C414 C 0.51634 0.55298 0.65569 0.0
O415 O 0.45911 0.51419 0.76831 0.0
O416 O 0.48206 0.53 0.83849 0.0
C417 C 0.57677 0.47064 0.54 0.0
C418 C 0.59167 0.42834 0.50058 0.0
C419 C 0.60586 0.44282 0.5361 0.0
C420 C 0.59848 0.46388 0.55531 0.0
C421 C 0.56272 0.4563 0.50343 0.0
C422 C 0.57015 0.43539 0.48364 0.0
C423 C 0.56845 0.49169 0.56819 0.0
H424 H 0.42693 0.58717 0.71825 0.0
H425 H 0.44286 0.55004 0.71326 0.0
H426 H 0.45041 0.54984 0.93604 0.0
H427 H 0.43626 0.58716 0.9415 0.0
H428 H 0.62252 0.43775 0.54958 0.0
H429 H 0.60951 0.47468 0.58393 0.0
H430 H 0.54579 0.46093 0.49182 0.0
H431 H 0.55876 0.42439 0.45724 0.0
Tb432 Tb 1.00125 0.48881 0.78425 0.0
Eu433 Eu 0.01082 0.52941 0.6773 0.0
C434 C 0.01285 0.47924 0.62777 0.0
C435 C 0.05079 0.50638 0.76468 0.0
C436 C 0.97309 0.44111 0.86491 0.0
C437 C 0.9459 0.41841 0.80475 0.0
C438 C 0.96596 0.43007 0.80467 0.0
C439 C 0.96067 0.43917 0.92594 0.0
C440 C 0.94053 0.42794 0.92577 0.0
C441 C 0.93243 0.41797 0.86459 0.0
C442 C 0.99163 0.45693 0.86342 0.0
O443 O 0.00897 0.51788 0.84703 0.0
O444 O 0.99336 0.54242 0.7728 0.0
O445 O 0.97674 0.5176 0.64934 0.0
O446 O 0.96813 0.50044 0.75254 0.0
C447 C 1.00016 0.53739 0.83548 0.0
O448 O 0.01843 0.56454 0.66695 0.0
O449 O 0.01274 0.5449 0.57482 0.0
O450 O 0.02301 0.49847 0.62313 0.0
O451 O 0.99948 0.47493 0.68005 0.0
O452 O 0.03746 0.48998 0.78223 0.0
O453 O 0.04363 0.52392 0.73084 0.0
C454 C 0.96223 0.50851 0.69152 0.0
O455 O 1.00554 0.45538 0.81171 0.0
O456 O 0.98614 0.47745 0.87583 0.0
C457 C 0.04178 0.57144 0.57195 0.0
C458 C 0.08632 0.58169 0.54255 0.0
C459 C 0.07376 0.59558 0.58575 0.0
C460 C 0.0516 0.59055 0.60001 0.0
C461 C 0.05397 0.55838 0.5253 0.0
C462 C 0.07599 0.56344 0.51084 0.0
C463 C 0.02038 0.56353 0.59956 0.0
H464 H 0.94055 0.41063 0.75704 0.0
H465 H 0.9753 0.43128 0.75669 0.0
H466 H 0.96583 0.44762 0.97283 0.0
H467 H 0.93069 0.42861 0.97278 0.0
H468 H 0.08127 0.60985 0.61029 0.0
H469 H 0.04249 0.60093 0.636 0.0
H470 H 0.04696 0.54351 0.50286 0.0
H471 H 0.08529 0.55223 0.47801 0.0
C472 C 0.13185 0.04971 0.28446 0.0
C473 C 0.13616 0.03183 0.23968 0.0
C474 C 0.11457 0.04889 0.33371 0.0
C475 C 0.10119 0.02967 0.33917 0.0
C476 C 0.10488 0.01188 0.29257 0.0
C477 C 0.12222 0.01318 0.24349 0.0
C478 C 0.11129 0.06829 0.38206 0.0
C479 C 0.09103 0.99107 0.29631 0.0
C480 C 0.0759 0.01707 0.51688 0.0
C481 C 0.05378 0.0239 0.50882 0.0
C482 C 0.0913 0.01871 0.46212 0.0
C483 C 0.08462 0.0275 0.39713 0.0
C484 C 0.06235 0.03445 0.38841 0.0
C485 C 0.04721 0.03253 0.44415 0.0
C486 C 0.1148 0.01102 0.47398 0.0
C487 C 0.05455 0.04402 0.32021 0.0
H488 H 0.14262 0.06408 0.28329 0.0
H489 H 0.1251 0.99936 0.20878 0.0
H490 H 0.09365 0.07343 0.38258 0.0
H491 H 0.11568 0.0633 0.43583 0.0
H492 H 0.12164 0.08278 0.36714 0.0
H493 H 0.09481 0.97944 0.25323 0.0
H494 H 0.09411 0.98246 0.34637 0.0
H495 H 0.07315 0.99528 0.29464 0.0
H496 H 0.08129 0.01029 0.56621 0.0
H497 H 0.03022 0.03786 0.43702 0.0
H498 H 0.12646 0.02501 0.46584 0.0
H499 H 0.11919 0.99798 0.43583 0.0
H500 H 0.11732 1.00429 0.52717 0.0
H501 H 0.06431 0.05907 0.30728 0.0
H502 H 0.0367 0.04848 0.32137 0.0
H503 H 0.05734 0.03192 0.27781 0.0
C504 C 0.48188 0.14009 0.33511 0.0
C505 C 0.49123 0.13728 0.26869 0.0
C506 C 0.48139 0.12265 0.38387 0.0
C507 C 0.49074 0.10184 0.36664 0.0
C508 C 0.4991 0.09849 0.29861 0.0
C509 C 0.49908 0.11612 0.25048 0.0
C510 C 0.47202 0.12695 0.45538 0.0
C511 C 0.50928 0.07664 0.27781 0.0
C512 C 0.51664 0.0697 0.51642 0.0
C513 C 0.50091 0.05305 0.52974 0.0
C514 C 0.51362 0.08531 0.46301 0.0
C515 C 0.49418 0.08463 0.42197 0.0
C516 C 0.47821 0.06783 0.43484 0.0
C517 C 0.48185 0.05213 0.48818 0.0
C518 C 0.53128 0.10265 0.45078 0.0
C519 C 0.45713 0.06669 0.39305 0.0
H520 H 0.47596 0.15629 0.35065 0.0
H521 H 0.5059 0.11348 0.19905 0.0
H522 H 0.46084 0.11326 0.47146 0.0
H523 H 0.48573 0.12768 0.49361 0.0
H524 H 0.4627 0.1428 0.45775 0.0
H525 H 0.5129 0.07587 0.22125 0.0
H526 H 0.52501 0.07418 0.3066 0.0
H527 H 0.49813 0.06271 0.29179 0.0
H528 H 0.53154 0.0705 0.54769 0.0
H529 H 0.46955 0.03941 0.49822 0.0
H530 H 0.52427 0.11942 0.45927 0.0
H531 H 0.53715 0.10193 0.39615 0.0
H532 H 0.54576 0.10049 0.48568 0.0
H533 H 0.4475 0.08219 0.40011 0.0
H534 H 0.44655 0.05241 0.40842 0.0
H535 H 0.46107 0.06533 0.3369 0.0
C536 C 0.40195 0.50564 0.26201 0.0
C537 C 0.383 0.49271 0.27501 0.0
C538 C 0.41969 0.50631 0.30949 0.0
C539 C 0.41861 0.49369 0.37164 0.0
C540 C 0.39999 0.47989 0.38368 0.0
C541 C 0.38246 0.47962 0.33558 0.0
C542 C 0.43921 0.52121 0.29436 0.0
C543 C 0.3981 0.4661 0.44902 0.0
C544 C 0.47078 0.4846 0.48104 0.0
C545 C 0.46819 0.50055 0.53347 0.0
C546 C 0.45493 0.48223 0.42778 0.0
C547 C 0.43604 0.4962 0.42655 0.0
C548 C 0.43347 0.51244 0.47898 0.0
C549 C 0.44947 0.51437 0.53162 0.0
C550 C 0.45828 0.46464 0.37319 0.0
C551 C 0.41368 0.52776 0.47981 0.0
H552 H 0.40278 0.51559 0.21512 0.0
H553 H 0.36785 0.46984 0.3472 0.0
H554 H 0.43974 0.5348 0.33307 0.0
H555 H 0.45493 0.51181 0.29914 0.0
H556 H 0.43839 0.52866 0.24157 0.0
H557 H 0.3836 0.45476 0.44783 0.0
H558 H 0.41333 0.45611 0.45667 0.0
H559 H 0.3964 0.47717 0.49468 0.0
H560 H 0.48513 0.47381 0.48183 0.0
H561 H 0.44722 0.52681 0.57154 0.0
H562 H 0.45833 0.47229 0.3207 0.0
H563 H 0.44432 0.45267 0.37484 0.0
H564 H 0.47403 0.45541 0.38044 0.0
H565 H 0.41276 0.5371 0.43016 0.0
H566 H 0.41432 0.53981 0.52331 0.0
H567 H 0.3982 0.51794 0.48461 0.0
C568 C 1.00392 0.38898 0.32296 0.0
C569 C 0.02218 0.37453 0.32202 0.0
C570 C 1.0033 0.40749 0.36743 0.0
C571 C 0.02127 0.41167 0.41285 0.0
C572 C 0.04016 0.39776 0.40996 0.0
C573 C 0.04043 0.37952 0.36448 0.0
C574 C 0.98291 0.42197 0.36814 0.0
C575 C 0.05969 0.40151 0.45736 0.0
C576 C 0.02527 0.46727 0.50797 0.0
C577 C 0.01558 0.46215 0.57248 0.0
C578 C 0.02717 0.45112 0.45532 0.0
C579 C 0.01947 0.42924 0.46764 0.0
C580 C 0.00992 0.42397 0.53296 0.0
C581 C 0.00801 0.44043 0.58415 0.0
C582 C 0.0372 0.45753 0.38625 0.0
C583 C 1.00171 0.40085 0.54897 0.0
H584 H 0.98958 0.38531 0.29125 0.0
H585 H 0.05484 0.36882 0.36342 0.0
H586 H 0.97383 0.41956 0.41779 0.0
H587 H 0.98764 0.43971 0.36491 0.0
H588 H 0.97151 0.41811 0.3246 0.0
H589 H 0.0738 0.39037 0.44505 0.0
H590 H 0.06544 0.41893 0.45362 0.0
H591 H 0.05459 0.39856 0.51205 0.0
H592 H 0.03108 0.48399 0.49819 0.0
H593 H 1.00061 0.43617 0.6338 0.0
H594 H 0.02502 0.45468 0.34412 0.0
H595 H 0.05181 0.44696 0.37505 0.0
H596 H 0.04245 0.47517 0.38476 0.0
H597 H 0.98849 0.39618 0.51181 0.0
H598 H 0.995 0.39934 0.60259 0.0
H599 H 0.0154 0.38876 0.54267 0.0
C600 C 0.88342 0.01353 0.07222 0.0
C601 C 0.88431 0.99658 0.1225 0.0
C602 C 0.90026 0.01615 0.02195 0.0
C603 C 0.91838 1.00122 0.0205 0.0
C604 C 0.91978 0.9845 0.07213 0.0
C605 C 0.90296 0.98256 0.12272 0.0
C606 C 0.89822 0.03447 0.96876 0.0
C607 C 0.93866 0.96809 0.07238 0.0
C608 C 0.94641 0.99298 0.84422 0.0
C609 C 0.96585 1.00557 0.8508 0.0
C610 C 0.93118 0.99104 0.89943 0.0
C611 C 0.93512 1.00235 0.96269 0.0
C612 C 0.95479 0.01501 0.96981 0.0
C613 C 0.97001 0.01626 0.91417 0.0
C614 C 0.91073 0.97696 0.88981 0.0
C615 C 0.95951 0.02768 0.03564 0.0
H616 H 0.86912 0.02433 0.07014 0.0
H617 H 0.90427 0.96969 0.16183 0.0
H618 H 0.91383 0.04415 0.96594 0.0
H619 H 0.89537 0.02721 0.91664 0.0
H620 H 0.88435 0.04595 0.98071 0.0
H621 H 0.93792 0.95665 0.11765 0.0
H622 H 0.93821 0.9581 0.02407 0.0
H623 H 0.95477 0.97691 0.07313 0.0
H624 H 0.9431 0.98452 0.79572 0.0
H625 H 0.9849 0.02615 0.91969 0.0
H626 H 0.89569 0.98745 0.89366 0.0
H627 H 0.90967 0.96431 0.93166 0.0
H628 H 0.91058 0.96839 0.83881 0.0
H629 H 0.94623 0.04006 0.04466 0.0
H630 H 0.9757 0.03644 0.03359 0.0
H631 H 0.95951 0.01626 0.0809 0.0
C632 C 0.51368 0.90005 0.12908 0.0
C633 C 0.53016 0.88357 0.13154 0.0
C634 C 0.51432 0.9172 0.07936 0.0
C635 C 0.53226 0.91851 0.03193 0.0
C636 C 0.54983 0.90305 0.03759 0.0
C637 C 0.54845 0.88566 0.08648 0.0
C638 C 0.49508 0.93312 0.07499 0.0
C639 C 0.56961 0.90419 0.98957 0.0
C640 C 0.52054 0.94283 0.85271 0.0
C641 C 0.52763 0.96484 0.85978 0.0
C642 C 0.52199 0.92771 0.90822 0.0
C643 C 0.53141 0.9345 0.97214 0.0
C644 C 0.53927 0.95656 0.9789 0.0
C645 C 0.53692 0.97158 0.92305 0.0
C646 C 0.51292 0.90458 0.89886 0.0
C647 C 0.55012 0.9643 0.04507 0.0
H648 H 0.49978 0.8992 0.16468 0.0
H649 H 0.56129 0.87314 0.08684 0.0
H650 H 0.50108 0.95048 0.07566 0.0
H651 H 0.48622 0.93065 0.02512 0.0
H652 H 0.48308 0.93081 0.11828 0.0
H653 H 0.58333 0.89331 0.00736 0.0
H654 H 0.56465 0.89891 0.93667 0.0
H655 H 0.57586 0.92145 0.98556 0.0
H656 H 0.51314 0.93756 0.8042 0.0
H657 H 0.54257 0.98853 0.92863 0.0
H658 H 0.49979 0.90133 0.93806 0.0
H659 H 0.52621 0.89219 0.9073 0.0
H660 H 0.50583 0.902 0.84628 0.0
H661 H 0.53795 0.96392 0.08831 0.0
H662 H 0.55681 0.9814 0.04029 0.0
H663 H 0.56384 0.95295 0.05936 0.0
C664 C 0.63585 0.49576 0.08693 0.0
C665 C 0.6419 0.51495 0.12353 0.0
C666 C 0.61863 0.49605 0.03778 0.0
C667 C 0.60697 0.516 0.02462 0.0
C668 C 0.61249 0.53526 0.06288 0.0
C669 C 0.6299 0.53454 0.11156 0.0
C670 C 0.61345 0.47514 0.99804 0.0
C671 C 0.60038 0.55682 0.0511 0.0
C672 C 0.58023 0.52195 0.84599 0.0
C673 C 0.55804 0.51633 0.85955 0.0
C674 C 0.59615 0.52223 0.89929 0.0
C675 C 0.58984 0.51688 0.96831 0.0
C676 C 0.5674 0.51163 0.98267 0.0
C677 C 0.55181 0.51135 0.92822 0.0
C678 C 0.61988 0.52783 0.88137 0.0
C679 C 0.5599 0.50595 0.05545 0.0
H680 H 0.6452 0.48063 0.09463 0.0
H681 H 0.63428 0.54941 0.13984 0.0
H682 H 0.59557 0.47111 1.00256 0.0
H683 H 0.61711 0.47771 0.94207 0.0
H684 H 0.62321 0.46072 0.0168 0.0
H685 H 0.60563 0.56991 0.08804 0.0
H686 H 0.60349 0.5628 0.99739 0.0
H687 H 0.58225 0.55426 0.0565 0.0
H688 H 0.58531 0.52581 0.79328 0.0
H689 H 0.53474 0.50703 0.93949 0.0
H690 H 0.63073 0.51351 0.89359 0.0
H691 H 0.62563 0.54198 0.91329 0.0
H692 H 0.62202 0.53217 0.82562 0.0
H693 H 0.56837 0.49067 0.0734 0.0
H694 H 0.54171 0.50329 0.05877 0.0
H695 H 0.56456 0.51942 0.09172 0.0
C696 C 0.98113 0.62167 0.15533 0.0
C697 C 0.99532 0.6401 0.14992 0.0
C698 C 0.98209 0.60414 0.10718 0.0
C699 C 0.99783 0.60473 0.05247 0.0
C700 C 0.01283 0.62277 0.04836 0.0
C701 C 0.01131 0.64023 0.0966 0.0
C702 C 0.96573 0.58531 0.11357 0.0
C703 C 0.03007 0.624 0.99151 0.0
C704 C 0.01111 0.55139 0.9537 0.0
C705 C 0.99894 0.55418 0.89214 0.0
C706 C 0.01091 0.56763 0.00624 0.0
C707 C 0.99798 0.58705 0.99774 0.0
C708 C 0.98537 0.58976 0.93623 0.0
C709 C 0.98614 0.57343 0.88413 0.0
C710 C 0.02485 0.56416 0.07035 0.0
C711 C 0.97112 0.61002 0.92522 0.0
H712 H 0.96897 0.62105 0.19677 0.0
H713 H 0.02217 0.6544 0.09069 0.0
H714 H 0.95493 0.58493 0.06698 0.0
H715 H 0.9746 0.56923 0.11582 0.0
H716 H 0.95507 0.58681 0.16047 0.0
H717 H 0.04162 0.63815 0.9986 0.0
H718 H 0.03984 0.60844 0.98988 0.0
H719 H 0.02181 0.62584 0.9404 0.0
H720 H 0.02118 0.53668 0.96034 0.0
H721 H 0.97661 0.57575 0.83699 0.0
H722 H 0.01428 0.56476 0.11752 0.0
H723 H 0.03719 0.57773 0.07481 0.0
H724 H 0.0338 0.54808 0.06956 0.0
H725 H 0.95916 0.61174 0.96873 0.0
H726 H 0.96175 0.60934 0.87566 0.0
H727 H 0.98163 0.62511 0.92483 0.0
C728 C 0.93438 0.18034 0.40526 0.0
C729 C 0.93468 0.20303 0.42013 0.0
C730 C 0.92502 0.16511 0.45143 0.0
C731 C 0.9149 0.17279 0.51343 0.0
C732 C 0.91339 0.19586 0.52601 0.0
C733 C 0.92356 0.21077 0.47943 0.0
C734 C 0.92708 0.14066 0.4351 0.0
C735 C 0.90199 0.20497 0.58961 0.0
C736 C 0.88853 0.12126 0.57826 0.0
C737 C 0.90685 0.11208 0.6126 0.0
C738 C 0.88895 0.14343 0.55598 0.0
C739 C 0.90836 0.15611 0.56654 0.0
C740 C 0.92484 0.14819 0.61247 0.0
C741 C 0.92383 0.12618 0.63538 0.0
C742 C 0.87014 0.15214 0.51242 0.0
C743 C 0.9454 0.16154 0.6278 0.0
H744 H 0.9422 0.17435 0.35814 0.0
H745 H 0.92352 0.22835 0.49093 0.0
H746 H 0.93616 0.13203 0.47731 0.0
H747 H 0.91041 0.13304 0.43129 0.0
H748 H 0.93599 0.13759 0.38547 0.0
H749 H 0.8934 0.22075 0.57699 0.0
H750 H 0.88976 0.19318 0.61189 0.0
H751 H 0.91459 0.20873 0.62977 0.0
H752 H 0.87497 0.1106 0.56263 0.0
H753 H 0.93789 0.11936 0.66308 0.0
H754 H 0.87382 0.14921 0.45668 0.0
H755 H 0.86801 0.17025 0.52002 0.0
H756 H 0.85436 0.14356 0.52531 0.0
H757 H 0.95634 0.16163 0.58133 0.0
H758 H 0.95487 0.15455 0.67218 0.0
H759 H 0.94102 0.17895 0.63978 0.0
C760 C 0.30694 0.01644 0.49509 0.0
C761 C 0.31208 0.02495 0.42913 0.0
C762 C 0.32267 1.00432 0.53301 0.0
C763 C 0.34396 1.00081 0.50399 0.0
C764 C 0.34947 0.01019 0.43873 0.0
C765 C 0.33348 0.02215 0.40221 0.0
C766 C 0.31633 0.99531 0.60354 0.0
C767 C 0.37198 1.00673 0.40573 0.0
C768 C 0.39574 0.98415 0.59876 0.0
C769 C 0.39828 0.96226 0.57579 0.0
C770 C 0.37706 0.99654 0.58048 0.0
C771 C 0.36051 0.98664 0.53917 0.0
C772 C 0.36207 0.96393 0.52123 0.0
C773 C 0.38118 0.95203 0.53902 0.0
C774 C 0.37599 0.02073 0.60007 0.0
C775 C 0.34441 0.95276 0.47839 0.0
H776 H 0.29043 0.01877 0.51619 0.0
H777 H 0.33741 0.02828 0.35064 0.0
H778 H 0.29812 0.99298 0.60808 0.0
H779 H 0.32461 0.97931 0.61499 0.0
H780 H 0.32143 0.00742 0.64373 0.0
H781 H 0.37382 0.01589 0.35589 0.0
H782 H 0.38526 0.01223 0.44149 0.0
H783 H 0.37459 0.98882 0.39555 0.0
H784 H 0.40914 0.99213 0.62665 0.0
H785 H 0.38325 0.9351 0.52141 0.0
H786 H 0.35948 0.02479 0.62206 0.0
H787 H 0.37834 0.03114 0.55301 0.0
H788 H 0.38896 0.02523 0.6383 0.0
H789 H 0.32774 0.9564 0.50001 0.0
H790 H 0.34669 0.9345 0.47637 0.0
H791 H 0.34492 0.95936 0.42452 0.0
C792 C 0.5758 0.30529 0.43264 0.0
C793 C 0.59118 0.29454 0.38959 0.0
C794 C 0.58081 0.3257 0.46308 0.0
C795 C 0.60167 0.33559 0.44993 0.0
C796 C 0.61825 0.32348 0.41451 0.0
C797 C 0.61279 0.30302 0.38451 0.0
C798 C 0.56275 0.33788 0.50185 0.0
C799 C 0.64097 0.33312 0.40196 0.0
C800 C 0.59396 0.39669 0.41849 0.0
C801 C 0.59854 0.40544 0.48412 0.0
C802 C 0.59655 0.37406 0.40534 0.0
C803 C 0.60396 0.35987 0.45928 0.0
C804 C 0.61037 0.3689 0.52396 0.0
C805 C 0.6075 0.39168 0.53576 0.0
C806 C 0.58974 0.36516 0.33522 0.0
C807 C 0.61869 0.35443 0.58236 0.0
H808 H 0.55905 0.29897 0.43712 0.0
H809 H 0.62496 0.29448 0.35292 0.0
H810 H 0.56939 0.34559 0.54969 0.0
H811 H 0.55613 0.35135 0.46846 0.0
H812 H 0.54882 0.32674 0.51644 0.0
H813 H 0.65325 0.32001 0.38927 0.0
H814 H 0.64023 0.34486 0.35755 0.0
H815 H 0.64681 0.34245 0.44802 0.0
H816 H 0.58743 0.40744 0.37823 0.0
H817 H 0.61105 0.39844 0.58667 0.0
H818 H 0.57471 0.35471 0.34115 0.0
H819 H 0.60303 0.35458 0.31327 0.0
H820 H 0.58604 0.37861 0.29745 0.0
H821 H 0.60434 0.34734 0.61087 0.0
H822 H 0.62875 0.3641 0.61988 0.0
H823 H 0.6288 0.34046 0.56245 0.0
C824 C 0.20208 0.53779 0.503 0.0
C825 C 0.21679 0.5504 0.46262 0.0
C826 C 0.18339 0.54758 0.53306 0.0
C827 C 0.1798 0.57058 0.52383 0.0
C828 C 0.19668 0.58389 0.49443 0.0
C829 C 0.21494 0.57359 0.46299 0.0
C830 C 0.16608 0.53281 0.56604 0.0
C831 C 0.19417 0.60869 0.48863 0.0
C832 C 0.12069 0.58061 0.47112 0.0
C833 C 0.11058 0.58449 0.53542 0.0
C834 C 0.14357 0.57752 0.46611 0.0
C835 C 0.15676 0.57903 0.52682 0.0
C836 C 0.14696 0.58544 0.5905 0.0
C837 C 0.12385 0.58783 0.59431 0.0
C838 C 0.15327 0.57077 0.39679 0.0
C839 C 0.16045 0.58827 0.65576 0.0
H840 H 0.204 0.51993 0.50526 0.0
H841 H 0.22648 0.58359 0.43313 0.0
H842 H 0.16005 0.54009 0.61531 0.0
H843 H 0.15168 0.5313 0.53057 0.0
H844 H 0.17255 0.51592 0.57695 0.0
H845 H 0.21054 0.61696 0.48329 0.0
H846 H 0.18421 0.61277 0.44194 0.0
H847 H 0.18544 0.6155 0.5347 0.0
H848 H 0.11048 0.57862 0.42527 0.0
H849 H 0.11615 0.59089 0.64431 0.0
H850 H 0.16039 0.55386 0.40074 0.0
H851 H 0.16685 0.58219 0.3817 0.0
H852 H 0.14072 0.57079 0.35464 0.0
H853 H 0.16065 0.57244 0.68515 0.0
H854 H 0.15294 0.60103 0.69 0.0
H855 H 0.17783 0.59306 0.6441 0.0
C856 C 0.96416 0.84272 0.02564 0.0
C857 C 0.96371 0.8219 0.99339 0.0
C858 C 0.97395 0.86096 0.993 0.0
C859 C 0.98351 0.85835 0.92635 0.0
C860 C 0.981 0.83812 0.89028 0.0
C861 C 0.97118 0.82001 0.92448 0.0
C862 C 0.97597 0.88242 0.03287 0.0
C863 C 0.99019 0.83507 0.81795 0.0
C864 C 1.00336 0.91334 0.85753 0.0
C865 C 0.02509 0.91366 0.88313 0.0
C866 C 0.99006 0.89448 0.86499 0.0
C867 C 0.99865 0.8758 0.90019 0.0
C868 C 0.02116 0.87551 0.92131 0.0
C869 C 0.03421 0.8945 0.91202 0.0
C870 C 0.96643 0.89524 0.83967 0.0
C871 C 0.03096 0.8558 0.95868 0.0
H872 H 0.95865 0.84441 0.07899 0.0
H873 H 0.9705 0.80406 0.89876 0.0
H874 H 0.99357 0.88525 0.04691 0.0
H875 H 0.97057 0.89661 1.00034 0.0
H876 H 0.96595 0.88231 0.08137 0.0
H877 H 0.98242 0.82073 0.79133 0.0
H878 H 0.98767 0.85017 0.78591 0.0
H879 H 0.00829 0.83203 0.82108 0.0
H880 H 0.99657 0.92808 0.83322 0.0
H881 H 0.05113 0.89479 0.93081 0.0
H882 H 0.95542 0.90017 0.88319 0.0
H883 H 0.96088 0.87879 0.82088 0.0
H884 H 0.96441 0.90757 0.79714 0.0
H885 H 0.02323 0.85419 0.01084 0.0
H886 H 0.04918 0.85736 0.96537 0.0
H887 H 0.02744 0.84032 0.92981 0.0
C888 C 0.70626 0.96225 0.91132 0.0
C889 C 0.70451 0.95493 0.98048 0.0
C890 C 0.68838 0.97284 0.8786 0.0
C891 C 0.66852 0.97615 0.91627 0.0
C892 C 0.66578 0.96626 0.98243 0.0
C893 C 0.68381 0.95575 0.01372 0.0
C894 C 0.69151 0.98223 0.80651 0.0
C895 C 0.64461 0.96894 0.0237 0.0
C896 C 0.63668 0.0298 0.91004 0.0
C897 C 0.61662 0.02257 0.88232 0.0
C898 C 0.65452 0.0151 0.91651 0.0
C899 C 0.65215 0.9929 0.8934 0.0
C900 C 0.63255 0.98625 0.85928 0.0
C901 C 0.61482 1.00112 0.85514 0.0
C902 C 0.67525 0.02286 0.95285 0.0
C903 C 0.62961 0.96311 0.83129 0.0
H904 H 0.72204 0.96114 0.88457 0.0
H905 H 0.68216 0.95021 0.06709 0.0
H906 H 0.67588 0.98156 0.77639 0.0
H907 H 0.69657 0.99986 0.81037 0.0
H908 H 0.70461 0.97318 0.77756 0.0
H909 H 0.64438 0.95839 0.0711 0.0
H910 H 0.64279 0.9865 0.03979 0.0
H911 H 0.63004 0.96465 0.99146 0.0
H912 H 0.63797 0.04653 0.93008 0.0
H913 H 0.59932 0.99582 0.83209 0.0
H914 H 0.69012 0.0187 0.92152 0.0
H915 H 0.67681 0.0142 1.00357 0.0
H916 H 0.67514 0.041 0.96241 0.0
H917 H 0.64553 0.95605 0.81284 0.0
H918 H 0.61753 0.96289 0.7878 0.0
H919 H 0.62309 0.95222 0.87315 0.0
C920 C 0.48032 0.69232 0.94004 0.0
C921 C 0.46935 0.71119 0.96475 0.0
C922 C 0.46895 0.6759 0.90361 0.0
C923 C 0.44642 0.67928 0.88574 0.0
C924 C 0.43615 0.69973 0.90159 0.0
C925 C 0.44752 0.71522 0.94263 0.0
C926 C 0.4808 0.65429 0.8891 0.0
C927 C 0.41284 0.7051 0.87898 0.0
C928 C 0.434 0.62912 0.7804 0.0
C929 C 0.42616 0.61491 0.83317 0.0
C930 C 0.43691 0.65184 0.7931 0.0
C931 C 0.43338 0.66 0.86091 0.0
C932 C 0.42223 0.64661 0.91035 0.0
C933 C 0.41799 0.62438 0.89466 0.0
C934 C 0.44562 0.66674 0.73622 0.0
C935 C 0.41715 0.6549 0.98263 0.0
H936 H 0.49759 0.68964 0.95285 0.0
H937 H 0.43878 0.72987 0.95996 0.0
H938 H 0.47078 0.63999 0.90742 0.0
H939 H 0.48336 0.65243 0.83249 0.0
H940 H 0.49728 0.65342 0.91456 0.0
H941 H 0.41232 0.72209 0.85671 0.0
H942 H 0.40634 0.69333 0.8398 0.0
H943 H 0.40172 0.70506 0.92497 0.0
H944 H 0.43964 0.62247 0.73129 0.0
H945 H 0.41026 0.61393 0.93366 0.0
H946 H 0.43692 0.68295 0.73755 0.0
H947 H 0.44346 0.65919 0.68408 0.0
H948 H 0.46349 0.67006 0.74426 0.0
H949 H 0.43268 0.66002 0.0089 0.0
H950 H 0.40883 0.64215 0.01529 0.0
H951 H 0.4062 0.6696 0.97961 0.0
C952 C 0.82816 0.46354 0.92904 0.0
C953 C 0.80954 0.45285 0.95702 0.0
C954 C 0.84509 0.45148 0.8971 0.0
C955 C 0.84256 0.42827 0.88803 0.0
C956 C 0.82216 0.41808 0.90549 0.0
C957 C 0.80605 0.43037 0.94145 0.0
C958 C 0.86652 0.46338 0.87996 0.0
C959 C 0.81762 0.39397 0.89079 0.0
C960 C 0.89586 0.41474 0.80225 0.0
C961 C 0.9088 0.4107 0.86175 0.0
C962 C 0.87268 0.416 0.80734 0.0
C963 C 0.8627 0.4149 0.87362 0.0
C964 C 0.87514 0.40684 0.9306 0.0
C965 C 0.89802 0.404 0.92301 0.0
C966 C 0.85905 0.42084 0.74358 0.0
C967 C 0.86493 0.40398 1.0018 0.0
H968 H 0.83036 0.48117 0.93708 0.0
H969 H 0.79149 0.42189 0.96103 0.0
H970 H 0.88051 0.45564 0.90843 0.0
H971 H 0.87017 0.46214 0.82368 0.0
H972 H 0.86598 0.48124 0.89374 0.0
H973 H 0.80113 0.39228 0.86587 0.0
H974 H 0.83026 0.38634 0.85641 0.0
H975 H 0.81685 0.38461 0.94045 0.0
H976 H 0.90365 0.41895 0.75323 0.0
H977 H 0.90772 0.39897 0.96766 0.0
H978 H 0.85384 0.43845 0.74324 0.0
H979 H 0.84374 0.41063 0.74422 0.0
H980 H 0.86846 0.41741 0.69512 0.0
H981 H 0.85829 0.42006 0.02048 0.0
H982 H 0.87703 0.39773 0.04062 0.0
H983 H 0.85096 0.39211 0.99915 0.0
C984 C 0.01706 0.18628 0.85288 0.0
C985 C 0.01812 0.18613 0.92578 0.0
C986 C 0.01652 0.16633 0.81468 0.0
C987 C 0.0166 0.14568 0.85012 0.0
C988 C 0.01747 0.14548 0.92371 0.0
C989 C 0.01838 0.1656 0.9604 0.0
C990 C 0.01586 0.16736 0.73636 0.0
C991 C 0.01712 0.12396 0.96394 0.0
C992 C 0.99433 0.09336 0.76289 0.0
C993 C 0.01386 0.0816 0.74786 0.0
C994 C 0.99498 0.11441 0.79442 0.0
C995 C 0.01567 0.1242 0.81087 0.0
C996 C 0.03544 0.11278 0.79348 0.0
C997 C 0.03431 0.09161 0.76276 0.0
C998 C 0.97344 0.12574 0.81255 0.0
C999 C 0.05786 0.12272 0.8087 0.0
H1000 H 0.01689 0.20202 0.82565 0.0
H1001 H 0.01875 0.16527 0.01671 0.0
H1002 H 0.01663 0.18464 0.71645 0.0
H1003 H 0.02996 0.15788 0.71429 0.0
H1004 H 1.00042 0.15953 0.71714 0.0
H1005 H 0.01758 0.12661 0.02102 0.0
H1006 H 1.00193 0.11446 0.95107 0.0
H1007 H 0.03152 0.11359 0.94896 0.0
H1008 H 0.9784 0.08588 0.75181 0.0
H1009 H 0.04951 0.08282 0.75103 0.0
H1010 H 0.97341 0.14304 0.79303 0.0
H1011 H 0.97162 0.12647 0.86989 0.0
H1012 H 0.95884 0.11696 0.7908 0.0
H1013 H 0.07162 0.11263 0.78707 0.0
H1014 H 0.06016 0.1241 0.86569 0.0
H1015 H 0.05893 0.13971 0.78674 0.0
C1016 C 0.34159 0.01466 0.84955 0.0
C1017 C 0.33804 0.02888 0.9061 0.0
C1018 C 0.36295 0.01142 0.82139 0.0
C1019 C 0.38147 0.02262 0.85045 0.0
C1020 C 0.37805 0.03635 0.90919 0.0
C1021 C 0.35649 0.0395 0.93558 0.0
C1022 C 0.36525 0.99545 0.76171 0.0
C1023 C 0.3973 0.04718 0.94586 0.0
C1024 C 0.43922 0.99957 0.80993 0.0
C1025 C 0.44842 0.0163 0.76804 0.0
C1026 C 0.41764 1.00148 0.83752 0.0
C1027 C 0.4044 0.02012 0.82036 0.0
C1028 C 0.41335 0.03663 0.77557 0.0
C1029 C 0.43539 0.03481 0.75152 0.0
C1030 C 0.40911 0.98355 0.8854 0.0
C1031 C 0.39968 0.05626 0.75255 0.0
H1032 H 0.32759 1.00612 0.82663 0.0
H1033 H 0.35416 0.04992 0.98078 0.0
H1034 H 0.38166 0.99617 0.73608 0.0
H1035 H 0.36258 0.97833 0.78123 0.0
H1036 H 0.35219 0.99866 0.72253 0.0
H1037 H 0.39221 0.05526 0.99516 0.0
H1038 H 0.41025 0.03466 0.95759 0.0
H1039 H 0.40491 0.0599 0.91172 0.0
H1040 H 0.44915 0.98517 0.8227 0.0
H1041 H 0.44225 0.04763 0.71826 0.0
H1042 H 0.39611 0.97388 0.85842 0.0
H1043 H 0.40151 0.99095 0.93253 0.0
H1044 H 0.42243 0.97196 0.90172 0.0
H1045 H 0.38224 0.05136 0.74262 0.0
H1046 H 0.40654 0.06399 0.70464 0.0
H1047 H 0.39962 0.06897 0.794 0.0
C1048 C 0.52253 0.34942 0.93115 0.0
C1049 C 0.50787 0.33255 0.91109 0.0
C1050 C 0.52165 0.37065 0.90094 0.0
C1051 C 0.50597 0.3752 0.84809 0.0
C1052 C 0.49109 0.35822 0.82751 0.0
C1053 C 0.49203 0.33718 0.85983 0.0
C1054 C 0.53752 0.38827 0.92585 0.0
C1055 C 0.47439 0.36218 0.7706 0.0
C1056 C 0.49245 0.43622 0.81479 0.0
C1057 C 0.50702 0.44162 0.76028 0.0
C1058 C 0.49159 0.41463 0.8428 0.0
C1059 C 0.5053 0.39776 0.81491 0.0
C1060 C 0.51947 0.40293 0.75818 0.0
C1061 C 0.52033 0.42478 0.73214 0.0
C1062 C 0.47657 0.41008 0.90405 0.0
C1063 C 0.53408 0.38545 0.72583 0.0
H1064 H 0.53463 0.34604 0.97136 0.0
H1065 H 0.48073 0.3242 0.84393 0.0
H1066 H 0.54828 0.39379 0.88233 0.0
H1067 H 0.52815 0.40297 0.94409 0.0
H1068 H 0.54823 0.38231 0.96887 0.0
H1069 H 0.46412 0.34728 0.76013 0.0
H1070 H 0.46329 0.37608 0.78493 0.0
H1071 H 0.48308 0.36703 0.72199 0.0
H1072 H 0.48219 0.44908 0.8373 0.0
H1073 H 0.53153 0.42868 0.68972 0.0
H1074 H 0.48669 0.40547 0.94993 0.0
H1075 H 0.4655 0.39587 0.89277 0.0
H1076 H 0.46622 0.42465 0.91777 0.0
H1077 H 0.54674 0.37999 0.76388 0.0
H1078 H 0.5427 0.39159 0.67847 0.0
H1079 H 0.52409 0.37068 0.7119 0.0
C1080 C 0.16856 0.52037 0.94727 0.0
C1081 C 0.18551 0.50663 0.92177 0.0
C1082 C 0.14718 0.52017 0.91823 0.0
C1083 C 0.14244 0.50601 0.86157 0.0
C1084 C 0.15956 0.49234 0.83469 0.0
C1085 C 0.18078 0.49266 0.86543 0.0
C1086 C 0.1295 0.53484 0.94927 0.0
C1087 C 0.1554 0.47734 0.7735 0.0
C1088 C 0.08166 0.49011 0.83646 0.0
C1089 C 0.0746 0.50538 0.78594 0.0
C1090 C 0.10371 0.48986 0.86032 0.0
C1091 C 0.11936 0.50503 0.8325 0.0
C1092 C 0.11253 0.52002 0.77983 0.0
C1093 C 0.09026 0.52015 0.75773 0.0
C1094 C 0.1101 0.47373 0.91695 0.0
C1095 C 0.12859 0.53634 0.7479 0.0
H1096 H 0.17186 0.53096 0.99146 0.0
H1097 H 0.19376 0.4821 0.84501 0.0
H1098 H 0.12266 0.54602 0.90882 0.0
H1099 H 0.1156 0.52452 0.96897 0.0
H1100 H 0.13587 0.54511 0.9927 0.0
H1101 H 0.17054 0.46822 0.75736 0.0
H1102 H 0.1423 0.46513 0.78671 0.0
H1103 H 0.14933 0.48722 0.7287 0.0
H1104 H 0.06978 0.47866 0.85893 0.0
H1105 H 0.08512 0.53196 0.71841 0.0
H1106 H 0.11531 0.48299 0.96391 0.0
H1107 H 0.12442 0.46356 0.90003 0.0
H1108 H 0.09626 0.46247 0.93145 0.0
H1109 H 0.13255 0.54944 0.78624 0.0
H1110 H 0.12174 0.5444 0.70062 0.0
H1111 H 0.14436 0.528 0.73402 0.0
C1112 C 0.98261 0.84236 0.56772 0.0
C1113 C 0.99714 0.83439 0.51625 0.0
C1114 C 0.98474 0.86393 0.59502 0.0
C1115 C 1.00188 0.87805 0.57073 0.0
C1116 C 0.01733 0.86971 0.52178 0.0
C1117 C 0.01474 0.84813 0.49502 0.0
C1118 C 0.96792 0.87195 0.64734 0.0
C1119 C 0.03616 0.88393 0.49542 0.0
C1120 C 0.99264 0.94071 0.5685 0.0
C1121 C 1.00447 0.94785 0.6271 0.0
C1122 C 0.99141 0.91813 0.55065 0.0
C1123 C 1.00253 0.90206 0.59159 0.0
C1124 C 0.01446 0.9091 0.65106 0.0
C1125 C 0.01512 0.93182 0.66841 0.0
C1126 C 0.9782 0.91147 0.4875 0.0
C1127 C 0.02659 0.89265 0.69629 0.0
H1128 H 0.96919 0.83188 0.58581 0.0
H1129 H 0.02602 0.84244 0.45499 0.0
H1130 H 0.97619 0.88068 0.69073 0.0
H1131 H 0.95662 0.88399 0.62194 0.0
H1132 H 0.95783 0.85816 0.66903 0.0
H1133 H 0.04803 0.8744 0.46295 0.0
H1134 H 0.02945 0.89777 0.46378 0.0
H1135 H 0.04527 0.89134 0.53965 0.0
H1136 H 0.98421 0.95281 0.53637 0.0
H1137 H 0.02427 0.93705 0.71391 0.0
H1138 H 0.96539 0.89913 0.50235 0.0
H1139 H 0.98925 0.9035 0.44879 0.0
H1140 H 0.96991 0.92583 0.46238 0.0
H1141 H 0.01444 0.88212 0.72445 0.0
H1142 H 0.03735 0.90093 0.73508 0.0
H1143 H 0.03697 0.88151 0.66402 0.0
C1144 C 0.68492 0.97846 0.55559 0.0
C1145 C 0.69247 0.99312 0.50359 0.0
C1146 C 0.66365 0.98059 0.58544 0.0
C1147 C 0.64938 0.99787 0.56338 0.0
C1148 C 0.65727 0.01336 0.51359 0.0
C1149 C 0.67854 0.01076 0.4842 0.0
C1150 C 0.6561 0.96363 0.63821 0.0
C1151 C 0.64289 0.03233 0.48946 0.0
C1152 C 0.58657 0.98964 0.5726 0.0
C1153 C 0.58065 1.00166 0.63223 0.0
C1154 C 0.6088 0.98803 0.55059 0.0
C1155 C 0.62575 0.99889 0.58845 0.0
C1156 C 0.61994 0.01092 0.64907 0.0
C1157 C 0.59756 0.01206 0.67036 0.0
C1158 C 0.61414 0.97474 0.48634 0.0
C1159 C 0.63737 0.02262 0.69151 0.0
H1160 H 0.69552 0.96499 0.57231 0.0
H1161 H 0.68387 0.02212 0.44379 0.0
H1162 H 0.64734 0.97168 0.68207 0.0
H1163 H 0.64424 0.95208 0.61331 0.0
H1164 H 0.67016 0.95381 0.65917 0.0
H1165 H 0.652 0.04402 0.45506 0.0
H1166 H 0.62842 0.02575 0.46061 0.0
H1167 H 0.63638 0.04161 0.53483 0.0
H1168 H 0.57379 0.98142 0.54278 0.0
H1169 H 0.59331 0.02138 0.71656 0.0
H1170 H 0.62644 0.96168 0.49898 0.0
H1171 H 0.6217 0.98566 0.44632 0.0
H1172 H 0.59923 0.96675 0.46378 0.0
H1173 H 0.64812 0.01019 0.71728 0.0
H1174 H 0.62999 0.03339 0.73213 0.0
H1175 H 0.64812 0.03293 0.6575 0.0
C1176 C 0.53394 0.68166 0.54826 0.0
C1177 C 0.51699 0.68871 0.50344 0.0
C1178 C 0.53382 0.66019 0.57762 0.0
C1179 C 0.51651 0.64518 0.56123 0.0
C1180 C 0.49918 0.65235 0.51701 0.0
C1181 C 0.4996 0.67393 0.48896 0.0
C1182 C 0.55245 0.65342 0.62531 0.0
C1183 C 0.48044 0.63698 0.49769 0.0
C1184 C 0.52769 0.5829 0.57119 0.0
C1185 C 0.51693 0.57673 0.63317 0.0
C1186 C 0.52787 0.60505 0.54785 0.0
C1187 C 0.51704 0.62167 0.58722 0.0
C1188 C 0.50624 0.6156 0.64999 0.0
C1189 C 0.50635 0.5933 0.67225 0.0
C1190 C 0.53939 0.6106 0.48028 0.0
C1191 C 0.49445 0.63265 0.69362 0.0
H1192 H 0.54735 0.69294 0.56034 0.0
H1193 H 0.48659 0.67897 0.45357 0.0
H1194 H 0.54563 0.64736 0.67547 0.0
H1195 H 0.56189 0.63955 0.60179 0.0
H1196 H 0.56408 0.66729 0.63577 0.0
H1197 H 0.46781 0.64527 0.46475 0.0
H1198 H 0.48708 0.62249 0.46905 0.0
H1199 H 0.47219 0.63057 0.54525 0.0
H1200 H 0.53591 0.57036 0.54029 0.0
H1201 H 0.49793 0.58884 0.72009 0.0
H1202 H 0.55231 0.62336 0.48912 0.0
H1203 H 0.52729 0.61766 0.44297 0.0
H1204 H 0.54729 0.59587 0.45615 0.0
H1205 H 0.50669 0.64451 0.71503 0.0
H1206 H 0.48513 0.625 0.73739 0.0
H1207 H 0.48272 0.6423 0.66124 0.0
C1208 C 0.83995 0.52249 0.53285 0.0
C1209 C 0.82912 0.50201 0.52413 0.0
C1210 C 0.86042 0.52404 0.56783 0.0
C1211 C 0.87092 0.50461 0.59291 0.0
C1212 C 0.85981 0.48404 0.58667 0.0
C1213 C 0.83895 0.48308 0.55411 0.0
C1214 C 0.87126 0.54645 0.57528 0.0
C1215 C 0.87053 0.46279 0.61081 0.0
C1216 C 0.93413 0.50545 0.59675 0.0
C1217 C 0.93876 0.50708 0.66799 0.0
C1218 C 0.91224 0.50429 0.57214 0.0
C1219 C 0.89429 0.50545 0.61959 0.0
C1220 C 0.89882 0.50716 0.69175 0.0
C1221 C 0.92099 0.50764 0.71517 0.0
C1222 C 0.90837 0.50164 0.49509 0.0
C1223 C 0.88026 0.50906 0.74405 0.0
H1224 H 0.83299 0.53733 0.51 0.0
H1225 H 0.83067 0.46721 0.55068 0.0
H1226 H 0.87738 0.54876 0.62911 0.0
H1227 H 0.88578 0.54755 0.53999 0.0
H1228 H 0.85972 0.5602 0.56246 0.0
H1229 H 0.8592 0.44835 0.60643 0.0
H1230 H 0.8855 0.45948 0.57888 0.0
H1231 H 0.87604 0.46428 0.66551 0.0
H1232 H 0.94774 0.50473 0.55994 0.0
H1233 H 0.92442 0.50904 0.77024 0.0
H1234 H 0.89926 0.51621 0.47462 0.0
H1235 H 0.89796 0.4868 0.48539 0.0
H1236 H 0.92408 0.4999 0.46544 0.0
H1237 H 0.87122 0.52483 0.73537 0.0
H1238 H 0.8864 0.50874 0.79841 0.0
H1239 H 0.86815 0.49542 0.73724 0.0
loop_
_geom_bond_atom_site_label_1
_geom_bond_atom_site_label_2
_geom_bond_distance
_geom_bond_site_symmetry_2
_ccdc_geom_bond_type
C0 C1 1.386 . S
C0 C2 1.397 . S
C0 H24 0.931 . S
C1 C0 1.386 . S
C1 C5 1.397 . S
C2 C0 1.397 . S
C2 C3 1.384 . S
C2 H25 0.930 . S
C3 C2 1.384 . S
C3 C4 1.377 . S
C3 C6 1.481 . S
C4 C3 1.377 . S
C4 C5 1.389 . S
C4 H26 0.929 . S
C5 C1 1.397 . S
C5 C4 1.389 . S
C5 H27 0.931 . S
C6 C3 1.481 . S
C6 C7 1.387 . S
C6 C11 1.390 . S
C7 C6 1.387 . S
C7 C8 1.401 . S
C7 H28 0.930 . S
C8 C7 1.401 . S
C8 C9 1.376 . S
C8 C17 1.511 . S
C9 C8 1.376 . S
C9 C10 1.392 . S
C9 H30 0.931 . S
C10 C9 1.392 . S
C10 C11 1.361 . S
C10 C12 1.500 . S
C11 C6 1.390 . S
C11 C10 1.361 . S
C11 H29 0.931 . S
C12 C10 1.500 . S
C12 C13 1.371 . S
C12 C14 1.365 . S
C13 C12 1.371 . S
C13 C23 1.386 . S
C13 H31 0.931 . S
C14 C12 1.365 . S
C14 C15 1.409 . S
C14 H32 0.929 . S
C15 C14 1.409 . S
C15 C16 1.380 . S
C15 H33 0.930 . S
C16 C15 1.380 . S
C16 C23 1.357 . S
C17 C8 1.511 . S
C17 C18 1.341 . S
C17 C19 1.371 . S
C18 C17 1.341 . S
C18 C22 1.394 . S
C18 H34 0.930 . S
C19 C17 1.371 . S
C19 C20 1.392 . S
C19 H35 0.931 . S
C20 C19 1.392 . S
C20 C21 1.331 . S
C20 H38 0.932 . S
C21 C20 1.331 . S
C21 C22 1.336 . S
C22 C18 1.394 . S
C22 C21 1.336 . S
C22 H37 0.929 . S
C23 C13 1.386 . S
C23 C16 1.357 . S
C23 H36 0.928 . S
H24 C0 0.931 . S
H25 C2 0.930 . S
H26 C4 0.929 . S
H27 C5 0.931 . S
H28 C7 0.930 . S
H29 C11 0.931 . S
H30 C9 0.931 . S
H31 C13 0.931 . S
H32 C14 0.929 . S
H33 C15 0.930 . S
H34 C18 0.930 . S
H35 C19 0.931 . S
H36 C23 0.928 . S
H37 C22 0.929 . S
H38 C20 0.932 . S
C39 C40 1.394 . S
C39 C41 1.397 . S
C39 H63 0.931 . S
C40 C39 1.394 . S
C40 C44 1.389 1_655 S
C41 C39 1.397 . S
C41 C42 1.389 . S
C41 H64 0.930 . S
C42 C41 1.389 . S
C42 C43 1.373 1_655 S
C42 C45 1.480 . S
C43 C42 1.373 1_455 S
C43 C44 1.389 . S
C43 H65 0.929 . S
C44 C40 1.389 1_455 S
C44 C43 1.389 . S
C44 H66 0.931 . S
C45 C42 1.480 . S
C45 C46 1.388 . S
C45 C50 1.390 . S
C46 C45 1.388 . S
C46 C47 1.402 . S
C46 H67 0.930 . S
C47 C46 1.402 . S
C47 C48 1.376 . S
C47 C56 1.513 . S
C48 C47 1.376 . S
C48 C49 1.392 . S
C48 H69 0.934 . S
C49 C48 1.392 . S
C49 C50 1.361 . S
C49 C51 1.499 1_655 S
C50 C45 1.390 . S
C50 C49 1.361 . S
C50 H68 0.931 . S
C51 C49 1.499 1_455 S
C51 C52 1.362 1_455 S
C51 C53 1.374 . S
C52 C51 1.362 1_655 S
C52 C62 1.386 . S
C52 H70 0.931 . S
C53 C51 1.374 . S
C53 C54 1.409 . S
C53 H71 0.929 . S
C54 C53 1.409 . S
C54 C55 1.379 . S
C54 H72 0.930 . S
C55 C54 1.379 . S
C55 C62 1.359 1_455 S
C56 C47 1.513 . S
C56 C57 1.341 . S
C56 C58 1.371 1_655 S
C57 C56 1.341 . S
C57 C61 1.394 . S
C57 H73 0.930 . S
C58 C56 1.371 1_455 S
C58 C59 1.392 . S
C58 H74 0.931 . S
C59 C58 1.392 . S
C59 C60 1.322 1_455 S
C59 H77 0.932 . S
C60 C59 1.322 1_655 S
C60 C61 1.345 . S
C61 C57 1.394 . S
C61 C60 1.345 . S
C61 H76 0.929 . S
C62 C52 1.386 . S
C62 C55 1.359 1_655 S
C62 H75 0.928 . S
H63 C39 0.931 . S
H64 C41 0.930 . S
H65 C43 0.929 . S
H66 C44 0.931 . S
H67 C46 0.930 . S
H68 C50 0.931 . S
H69 C48 0.934 . S
H70 C52 0.931 . S
H71 C53 0.929 . S
H72 C54 0.930 . S
H73 C57 0.930 . S
H74 C58 0.931 . S
H75 C62 0.928 . S
H76 C61 0.929 . S
H77 C59 0.932 . S
C78 C79 1.394 . S
C78 C80 1.397 . S
C78 H102 0.931 . S
C79 C78 1.394 . S
C79 C83 1.389 1_565 S
C80 C78 1.397 . S
C80 C81 1.389 . S
C80 H103 0.930 . S
C81 C80 1.389 . S
C81 C82 1.373 1_565 S
C81 C84 1.480 . S
C82 C81 1.373 1_545 S
C82 C83 1.389 . S
C82 H104 0.929 . S
C83 C79 1.389 1_545 S
C83 C82 1.389 . S
C83 H105 0.931 . S
C84 C81 1.480 . S
C84 C85 1.388 . S
C84 C89 1.390 . S
C85 C84 1.388 . S
C85 C86 1.402 . S
C85 H106 0.930 . S
C86 C85 1.402 . S
C86 C87 1.376 . S
C86 C95 1.513 . S
C87 C86 1.376 . S
C87 C88 1.392 . S
C87 H108 0.934 . S
C88 C87 1.392 . S
C88 C89 1.361 . S
C88 C90 1.499 1_565 S
C89 C84 1.390 . S
C89 C88 1.361 . S
C89 H107 0.931 . S
C90 C88 1.499 1_545 S
C90 C91 1.362 1_545 S
C90 C92 1.374 . S
C91 C90 1.362 1_565 S
C91 C101 1.386 . S
C91 H109 0.931 . S
C92 C90 1.374 . S
C92 C93 1.409 . S
C92 H110 0.929 . S
C93 C92 1.409 . S
C93 C94 1.379 . S
C93 H111 0.930 . S
C94 C93 1.379 . S
C94 C101 1.359 1_545 S
C95 C86 1.513 . S
C95 C96 1.341 . S
C95 C97 1.371 1_565 S
C96 C95 1.341 . S
C96 C100 1.394 . S
C96 H112 0.930 . S
C97 C95 1.371 1_545 S
C97 C98 1.392 . S
C97 H113 0.931 . S
C98 C97 1.392 . S
C98 C99 1.322 1_545 S
C98 H116 0.932 . S
C99 C98 1.322 1_565 S
C99 C100 1.345 . S
C100 C96 1.394 . S
C100 C99 1.345 . S
C100 H115 0.929 . S
C101 C91 1.386 . S
C101 C94 1.359 1_565 S
C101 H114 0.928 . S
H102 C78 0.931 . S
H103 C80 0.930 . S
H104 C82 0.929 . S
H105 C83 0.931 . S
H106 C85 0.930 . S
H107 C89 0.931 . S
H108 C87 0.934 . S
H109 C91 0.931 . S
H110 C92 0.929 . S
H111 C93 0.930 . S
H112 C96 0.930 . S
H113 C97 0.931 . S
H114 C101 0.928 . S
H115 C100 0.929 . S
H116 C98 0.932 . S
C117 C118 1.386 . S
C117 C119 1.397 . S
C117 H141 0.931 . S
C118 C117 1.386 . S
C118 C122 1.397 . S
C119 C117 1.397 . S
C119 C120 1.384 . S
C119 H142 0.930 . S
C120 C119 1.384 . S
C120 C121 1.377 . S
C120 C123 1.481 . S
C121 C120 1.377 . S
C121 C122 1.389 . S
C121 H143 0.929 . S
C122 C118 1.397 . S
C122 C121 1.389 . S
C122 H144 0.931 . S
C123 C120 1.481 . S
C123 C124 1.387 . S
C123 C128 1.390 . S
C124 C123 1.387 . S
C124 C125 1.401 . S
C124 H145 0.930 . S
C125 C124 1.401 . S
C125 C126 1.376 . S
C125 C134 1.511 . S
C126 C125 1.376 . S
C126 C127 1.392 . S
C126 H147 0.931 . S
C127 C126 1.392 . S
C127 C128 1.361 . S
C127 C129 1.500 . S
C128 C123 1.390 . S
C128 C127 1.361 . S
C128 H146 0.931 . S
C129 C127 1.500 . S
C129 C130 1.371 . S
C129 C131 1.365 . S
C130 C129 1.371 . S
C130 C140 1.386 . S
C130 H148 0.931 . S
C131 C129 1.365 . S
C131 C132 1.409 . S
C131 H149 0.929 . S
C132 C131 1.409 . S
C132 C133 1.380 . S
C132 H150 0.930 . S
C133 C132 1.380 . S
C133 C140 1.357 . S
C134 C125 1.511 . S
C134 C135 1.341 . S
C134 C136 1.371 . S
C135 C134 1.341 . S
C135 C139 1.394 . S
C135 H151 0.930 . S
C136 C134 1.371 . S
C136 C137 1.392 . S
C136 H152 0.931 . S
C137 C136 1.392 . S
C137 C138 1.331 . S
C137 H155 0.932 . S
C138 C137 1.331 . S
C138 C139 1.336 . S
C139 C135 1.394 . S
C139 C138 1.336 . S
C139 H154 0.929 . S
C140 C130 1.386 . S
C140 C133 1.357 . S
C140 H153 0.928 . S
H141 C117 0.931 . S
H142 C119 0.930 . S
H143 C121 0.929 . S
H144 C122 0.931 . S
H145 C124 0.930 . S
H146 C128 0.931 . S
H147 C126 0.931 . S
H148 C130 0.931 . S
H149 C131 0.929 . S
H150 C132 0.930 . S
H151 C135 0.930 . S
H152 C136 0.931 . S
H153 C140 0.928 . S
H154 C139 0.929 . S
H155 C137 0.932 . S
C156 C157 1.386 . S
C156 C158 1.397 . S
C156 H180 0.931 . S
C157 C156 1.386 . S
C157 C161 1.397 . S
C158 C156 1.397 . S
C158 C159 1.384 . S
C158 H181 0.930 . S
C159 C158 1.384 . S
C159 C160 1.377 . S
C159 C162 1.481 . S
C160 C159 1.377 . S
C160 C161 1.389 . S
C160 H182 0.929 . S
C161 C157 1.397 . S
C161 C160 1.389 . S
C161 H183 0.931 . S
C162 C159 1.481 . S
C162 C163 1.387 . S
C162 C167 1.390 . S
C163 C162 1.387 . S
C163 C164 1.401 . S
C163 H184 0.930 . S
C164 C163 1.401 . S
C164 C165 1.376 1_554 S
C164 C173 1.511 . S
C165 C164 1.376 1_556 S
C165 C166 1.392 . S
C165 H186 0.931 . S
C166 C165 1.392 . S
C166 C167 1.361 1_556 S
C166 C168 1.500 . S
C167 C162 1.390 . S
C167 C166 1.361 1_554 S
C167 H185 0.931 . S
C168 C166 1.500 . S
C168 C169 1.371 . S
C168 C170 1.365 . S
C169 C168 1.371 . S
C169 C179 1.386 . S
C169 H187 0.931 . S
C170 C168 1.365 . S
C170 C171 1.409 . S
C170 H188 0.929 . S
C171 C170 1.409 . S
C171 C172 1.380 . S
C171 H189 0.930 . S
C172 C171 1.380 . S
C172 C179 1.357 . S
C173 C164 1.511 . S
C173 C174 1.341 . S
C173 C175 1.371 . S
C174 C173 1.341 . S
C174 C178 1.394 . S
C174 H190 0.930 . S
C175 C173 1.371 . S
C175 C176 1.392 . S
C175 H191 0.931 1_554 S
C176 C175 1.392 . S
C176 C177 1.331 . S
C176 H194 0.932 . S
C177 C176 1.331 . S
C177 C178 1.336 . S
C178 C174 1.394 . S
C178 C177 1.336 . S
C178 H193 0.929 . S
C179 C169 1.386 . S
C179 C172 1.357 . S
C179 H192 0.928 . S
H180 C156 0.931 . S
H181 C158 0.930 . S
H182 C160 0.929 . S
H183 C161 0.931 . S
H184 C163 0.930 . S
H185 C167 0.931 . S
H186 C165 0.931 . S
H187 C169 0.931 . S
H188 C170 0.929 . S
H189 C171 0.930 . S
H190 C174 0.930 . S
H191 C175 0.931 1_556 S
H192 C179 0.928 . S
H193 C178 0.929 . S
H194 C176 0.932 . S
C195 C196 1.387 . S
C195 C197 1.397 . S
C195 H219 0.931 . S
C196 C195 1.387 . S
C196 C200 1.396 1_655 S
C197 C195 1.397 . S
C197 C198 1.381 . S
C197 H220 0.930 . S
C198 C197 1.381 . S
C198 C199 1.380 1_655 S
C198 C201 1.480 . S
C199 C198 1.380 1_455 S
C199 C200 1.389 . S
C199 H221 0.929 . S
C200 C196 1.396 1_455 S
C200 C199 1.389 . S
C200 H222 0.931 . S
C201 C198 1.480 . S
C201 C202 1.388 . S
C201 C206 1.390 . S
C202 C201 1.388 . S
C202 C203 1.402 . S
C202 H223 0.930 . S
C203 C202 1.402 . S
C203 C204 1.367 1_554 S
C203 C212 1.512 . S
C204 C203 1.367 1_556 S
C204 C205 1.394 1_655 S
C204 H225 0.940 . S
C205 C204 1.394 1_455 S
C205 C206 1.361 1_456 S
C205 C207 1.499 . S
C206 C201 1.390 . S
C206 C205 1.361 1_654 S
C206 H224 0.931 . S
C207 C205 1.499 . S
C207 C208 1.357 1_455 S
C207 C209 1.380 . S
C208 C207 1.357 1_655 S
C208 C218 1.386 . S
C208 H226 0.931 . S
C209 C207 1.380 . S
C209 C210 1.409 . S
C209 H227 0.929 . S
C210 C209 1.409 . S
C210 C211 1.384 . S
C210 H228 0.930 . S
C211 C210 1.384 . S
C211 C218 1.353 1_455 S
C212 C203 1.512 . S
C212 C213 1.341 . S
C212 C214 1.371 1_655 S
C213 C212 1.341 . S
C213 C217 1.394 . S
C213 H229 0.930 . S
C214 C212 1.371 1_455 S
C214 C215 1.392 . S
C214 H230 0.931 1_554 S
C215 C214 1.392 . S
C215 C216 1.326 1_455 S
C215 H233 0.932 . S
C216 C215 1.326 1_655 S
C216 C217 1.341 . S
C217 C213 1.394 . S
C217 C216 1.341 . S
C217 H232 0.929 . S
C218 C208 1.386 . S
C218 C211 1.353 1_655 S
C218 H231 0.928 . S
H219 C195 0.931 . S
H220 C197 0.930 . S
H221 C199 0.929 . S
H222 C200 0.931 . S
H223 C202 0.930 . S
H224 C206 0.931 . S
H225 C204 0.940 . S
H226 C208 0.931 . S
H227 C209 0.929 . S
H228 C210 0.930 . S
H229 C213 0.930 . S
H230 C214 0.931 1_556 S
H231 C218 0.928 . S
H232 C217 0.929 . S
H233 C215 0.932 . S
C234 C235 1.387 . S
C234 C236 1.397 . S
C234 H258 0.931 . S
C235 C234 1.387 . S
C235 C239 1.396 1_565 S
C236 C234 1.397 . S
C236 C237 1.381 . S
C236 H259 0.930 . S
C237 C236 1.381 . S
C237 C238 1.380 1_565 S
C237 C240 1.480 . S
C238 C237 1.380 1_545 S
C238 C239 1.389 . S
C238 H260 0.929 . S
C239 C235 1.396 1_545 S
C239 C238 1.389 . S
C239 H261 0.931 . S
C240 C237 1.480 . S
C240 C241 1.388 . S
C240 C245 1.390 . S
C241 C240 1.388 . S
C241 C242 1.402 . S
C241 H262 0.930 . S
C242 C241 1.402 . S
C242 C243 1.376 1_554 S
C242 C251 1.512 . S
C243 C242 1.376 1_556 S
C243 C244 1.392 1_565 S
C243 H264 0.933 . S
C244 C243 1.392 1_545 S
C244 C245 1.361 1_546 S
C244 C246 1.499 . S
C245 C240 1.390 . S
C245 C244 1.361 1_564 S
C245 H263 0.931 . S
C246 C244 1.499 . S
C246 C247 1.357 1_545 S
C246 C248 1.380 . S
C247 C246 1.357 1_565 S
C247 C257 1.386 . S
C247 H265 0.931 . S
C248 C246 1.380 . S
C248 C249 1.409 . S
C248 H266 0.929 . S
C249 C248 1.409 . S
C249 C250 1.384 . S
C249 H267 0.930 . S
C250 C249 1.384 . S
C250 C257 1.353 1_545 S
C251 C242 1.512 . S
C251 C252 1.341 . S
C251 C253 1.371 1_565 S
C252 C251 1.341 . S
C252 C256 1.394 . S
C252 H268 0.930 . S
C253 C251 1.371 1_545 S
C253 C254 1.392 . S
C253 H269 0.931 1_554 S
C254 C253 1.392 . S
C254 C255 1.326 1_545 S
C254 H272 0.932 . S
C255 C254 1.326 1_565 S
C255 C256 1.341 . S
C256 C252 1.394 . S
C256 C255 1.341 . S
C256 H271 0.929 . S
C257 C247 1.386 . S
C257 C250 1.353 1_565 S
C257 H270 0.928 . S
H258 C234 0.931 . S
H259 C236 0.930 . S
H260 C238 0.929 . S
H261 C239 0.931 . S
H262 C241 0.930 . S
H263 C245 0.931 . S
H264 C243 0.933 . S
H265 C247 0.931 . S
H266 C248 0.929 . S
H267 C249 0.930 . S
H268 C252 0.930 . S
H269 C253 0.931 1_556 S
H270 C257 0.928 . S
H271 C256 0.929 . S
H272 C254 0.932 . S
C273 C274 1.386 . S
C273 C275 1.397 . S
C273 H297 0.931 . S
C274 C273 1.386 . S
C274 C278 1.397 . S
C275 C273 1.397 . S
C275 C276 1.384 . S
C275 H298 0.930 . S
C276 C275 1.384 . S
C276 C277 1.377 . S
C276 C279 1.481 . S
C277 C276 1.377 . S
C277 C278 1.389 . S
C277 H299 0.929 . S
C278 C274 1.397 . S
C278 C277 1.389 . S
C278 H300 0.931 . S
C279 C276 1.481 . S
C279 C280 1.387 . S
C279 C284 1.390 1_556 S
C280 C279 1.387 . S
C280 C281 1.401 1_556 S
C280 H301 0.930 . S
C281 C280 1.401 1_554 S
C281 C282 1.376 . S
C281 C290 1.511 . S
C282 C281 1.376 . S
C282 C283 1.392 . S
C282 H303 0.931 . S
C283 C282 1.392 . S
C283 C284 1.361 . S
C283 C285 1.500 . S
C284 C279 1.390 1_554 S
C284 C283 1.361 . S
C284 H302 0.931 . S
C285 C283 1.500 . S
C285 C286 1.371 . S
C285 C287 1.365 . S
C286 C285 1.371 . S
C286 C296 1.386 . S
C286 H304 0.931 . S
C287 C285 1.365 . S
C287 C288 1.409 . S
C287 H305 0.929 . S
C288 C287 1.409 . S
C288 C289 1.380 . S
C288 H306 0.930 . S
C289 C288 1.380 . S
C289 C296 1.357 . S
C290 C281 1.511 . S
C290 C291 1.341 . S
C290 C292 1.371 . S
C291 C290 1.341 . S
C291 C295 1.394 . S
C291 H307 0.930 1_554 S
C292 C290 1.371 . S
C292 C293 1.392 . S
C292 H308 0.931 . S
C293 C292 1.392 . S
C293 C294 1.331 . S
C293 H311 0.932 . S
C294 C293 1.331 . S
C294 C295 1.336 . S
C295 C291 1.394 . S
C295 C294 1.336 . S
C295 H310 0.929 . S
C296 C286 1.386 . S
C296 C289 1.357 . S
C296 H309 0.928 . S
H297 C273 0.931 . S
H298 C275 0.930 . S
H299 C277 0.929 . S
H300 C278 0.931 . S
H301 C280 0.930 . S
H302 C284 0.931 . S
H303 C282 0.931 . S
H304 C286 0.931 . S
H305 C287 0.929 . S
H306 C288 0.930 . S
H307 C291 0.930 1_556 S
H308 C292 0.931 . S
H309 C296 0.928 . S
H310 C295 0.929 . S
H311 C293 0.932 . S
Tb312 C322 2.825 . S
Tb312 O323 2.347 1_455 S
Tb312 O326 2.366 . S
Tb312 O331 2.418 . S
Tb312 O332 2.384 1_565 S
Tb312 O335 2.479 . S
Tb312 O336 2.471 . S
Eu313 O324 2.418 . S
Eu313 O325 2.384 1_545 S
Eu313 O328 2.479 . S
Eu313 O329 2.471 . S
Eu313 O330 2.347 1_655 S
Eu313 O333 2.366 . S
Eu313 C343 2.825 . S
C314 O330 1.259 1_565 S
C314 O331 1.265 . S
C315 O332 1.255 . S
C315 O333 1.265 1_455 S
C316 C318 1.380 . S
C316 C319 1.374 . S
C316 C322 1.507 . S
C317 C318 1.384 . S
C317 C321 1.387 . S
C317 H344 0.930 . S
C318 C316 1.380 . S
C318 C317 1.384 . S
C318 H345 0.931 . S
C319 C316 1.374 . S
C319 C320 1.390 . S
C319 H346 0.930 1_455 S
C320 C319 1.390 . S
C320 C321 1.391 . S
C320 H347 0.930 1_455 S
C321 C317 1.387 . S
C321 C320 1.391 . S
C322 Tb312 2.825 . S
C322 C316 1.507 . S
C322 O335 1.238 . S
C322 O336 1.247 . S
O323 Tb312 2.347 1_655 S
O323 C327 1.259 1_565 S
O324 Eu313 2.418 . S
O324 C327 1.265 . S
O325 Eu313 2.384 1_565 S
O325 C334 1.255 . S
O326 Tb312 2.366 . S
O326 C334 1.265 1_455 S
C327 O323 1.259 1_545 S
C327 O324 1.265 . S
O328 Eu313 2.479 . S
O328 C343 1.238 . S
O329 Eu313 2.471 . S
O329 C343 1.247 . S
O330 Eu313 2.347 1_455 S
O330 C314 1.259 1_545 S
O331 Tb312 2.418 . S
O331 C314 1.265 . S
O332 Tb312 2.384 1_545 S
O332 C315 1.255 . S
O333 Eu313 2.366 . S
O333 C315 1.265 1_655 S
C334 O325 1.255 . S
C334 O326 1.265 1_655 S
O335 Tb312 2.479 . S
O335 C322 1.238 . S
O336 Tb312 2.471 . S
O336 C322 1.247 . S
C337 C340 1.380 . S
C337 C341 1.374 . S
C337 C343 1.507 . S
C338 C339 1.387 . S
C338 C342 1.391 . S
C339 C338 1.387 . S
C339 C340 1.384 . S
C339 H348 0.930 . S
C340 C337 1.380 . S
C340 C339 1.384 . S
C340 H349 0.931 . S
C341 C337 1.374 . S
C341 C342 1.390 . S
C341 H350 0.930 1_655 S
C342 C338 1.391 . S
C342 C341 1.390 . S
C342 H351 0.930 1_655 S
C343 Eu313 2.825 . S
C343 O328 1.238 . S
C343 O329 1.247 . S
C343 C337 1.507 . S
H344 C317 0.930 . S
H345 C318 0.931 . S
H346 C319 0.930 1_655 S
H347 C320 0.930 1_655 S
H348 C339 0.930 . S
H349 C340 0.931 . S
H350 C341 0.930 1_455 S
H351 C342 0.930 1_455 S
Tb352 C362 2.825 . S
Tb352 O363 2.347 1_545 S
Tb352 O366 2.366 . S
Tb352 O371 2.418 . S
Tb352 O372 2.384 . S
Tb352 O375 2.479 . S
Tb352 O376 2.471 . S
Eu353 O364 2.418 . S
Eu353 O365 2.384 . S
Eu353 O368 2.479 . S
Eu353 O369 2.471 . S
Eu353 O370 2.347 1_565 S
Eu353 O373 2.366 . S
Eu353 C383 2.825 . S
C354 O370 1.259 . S
C354 O371 1.265 . S
C355 O372 1.255 . S
C355 O373 1.265 1_545 S
C356 C358 1.380 . S
C356 C359 1.374 . S
C356 C362 1.507 . S
C357 C358 1.384 . S
C357 C361 1.387 . S
C357 H384 0.930 . S
C358 C356 1.380 . S
C358 C357 1.384 . S
C358 H385 0.931 . S
C359 C356 1.374 . S
C359 C360 1.390 . S
C359 H386 0.930 1_545 S
C360 C359 1.390 . S
C360 C361 1.391 . S
C360 H387 0.930 1_545 S
C361 C357 1.387 . S
C361 C360 1.391 . S
C362 Tb352 2.825 . S
C362 C356 1.507 . S
C362 O375 1.238 . S
C362 O376 1.247 . S
O363 Tb352 2.347 1_565 S
O363 C367 1.259 . S
O364 Eu353 2.418 . S
O364 C367 1.265 . S
O365 Eu353 2.384 . S
O365 C374 1.255 . S
O366 Tb352 2.366 . S
O366 C374 1.265 1_545 S
C367 O363 1.259 . S
C367 O364 1.265 . S
O368 Eu353 2.479 . S
O368 C383 1.238 . S
O369 Eu353 2.471 . S
O369 C383 1.247 . S
O370 Eu353 2.347 1_545 S
O370 C354 1.259 . S
O371 Tb352 2.418 . S
O371 C354 1.265 . S
O372 Tb352 2.384 . S
O372 C355 1.255 . S
O373 Eu353 2.366 . S
O373 C355 1.265 1_565 S
C374 O365 1.255 . S
C374 O366 1.265 1_565 S
O375 Tb352 2.479 . S
O375 C362 1.238 . S
O376 Tb352 2.471 . S
O376 C362 1.247 . S
C377 C380 1.380 . S
C377 C381 1.374 . S
C377 C383 1.507 . S
C378 C379 1.387 . S
C378 C382 1.391 . S
C379 C378 1.387 . S
C379 C380 1.384 . S
C379 H388 0.930 . S
C380 C377 1.380 . S
C380 C379 1.384 . S
C380 H389 0.931 . S
C381 C377 1.374 . S
C381 C382 1.390 . S
C381 H390 0.930 1_565 S
C382 C378 1.391 . S
C382 C381 1.390 . S
C382 H391 0.930 1_565 S
C383 Eu353 2.825 . S
C383 O368 1.238 . S
C383 O369 1.247 . S
C383 C377 1.507 . S
H384 C357 0.930 . S
H385 C358 0.931 . S
H386 C359 0.930 1_565 S
H387 C360 0.930 1_565 S
H388 C379 0.930 . S
H389 C380 0.931 . S
H390 C381 0.930 1_545 S
H391 C382 0.930 1_545 S
Tb392 C402 2.825 . S
Tb392 O403 2.347 . S
Tb392 O406 2.366 . S
Tb392 O411 2.418 . S
Tb392 O412 2.384 . S
Tb392 O415 2.479 . S
Tb392 O416 2.471 . S
Eu393 O404 2.418 . S
Eu393 O405 2.384 . S
Eu393 O408 2.479 . S
Eu393 O409 2.471 . S
Eu393 O410 2.347 . S
Eu393 O413 2.366 . S
Eu393 C423 2.825 . S
C394 O410 1.259 . S
C394 O411 1.265 . S
C395 O412 1.255 . S
C395 O413 1.265 . S
C396 C398 1.380 . S
C396 C399 1.374 . S
C396 C402 1.507 . S
C397 C398 1.384 . S
C397 C401 1.387 . S
C397 H424 0.930 . S
C398 C396 1.380 . S
C398 C397 1.384 . S
C398 H425 0.931 . S
C399 C396 1.374 . S
C399 C400 1.390 . S
C399 H426 0.930 . S
C400 C399 1.390 . S
C400 C401 1.391 . S
C400 H427 0.930 . S
C401 C397 1.387 . S
C401 C400 1.391 . S
C402 Tb392 2.825 . S
C402 C396 1.507 . S
C402 O415 1.238 . S
C402 O416 1.247 . S
O403 Tb392 2.347 . S
O403 C407 1.259 . S
O404 Eu393 2.418 . S
O404 C407 1.265 . S
O405 Eu393 2.384 . S
O405 C414 1.255 . S
O406 Tb392 2.366 . S
O406 C414 1.265 . S
C407 O403 1.259 . S
C407 O404 1.265 . S
O408 Eu393 2.479 . S
O408 C423 1.238 . S
O409 Eu393 2.471 . S
O409 C423 1.247 . S
O410 Eu393 2.347 . S
O410 C394 1.259 . S
O411 Tb392 2.418 . S
O411 C394 1.265 . S
O412 Tb392 2.384 . S
O412 C395 1.255 . S
O413 Eu393 2.366 . S
O413 C395 1.265 . S
C414 O405 1.255 . S
C414 O406 1.265 . S
O415 Tb392 2.479 . S
O415 C402 1.238 . S
O416 Tb392 2.471 . S
O416 C402 1.247 . S
C417 C420 1.380 . S
C417 C421 1.374 . S
C417 C423 1.507 . S
C418 C419 1.387 . S
C418 C422 1.391 . S
C419 C418 1.387 . S
C419 C420 1.384 . S
C419 H428 0.930 . S
C420 C417 1.380 . S
C420 C419 1.384 . S
C420 H429 0.931 . S
C421 C417 1.374 . S
C421 C422 1.390 . S
C421 H430 0.930 . S
C422 C418 1.391 . S
C422 C421 1.390 . S
C422 H431 0.930 . S
C423 Eu393 2.825 . S
C423 O408 1.238 . S
C423 O409 1.247 . S
C423 C417 1.507 . S
H424 C397 0.930 . S
H425 C398 0.931 . S
H426 C399 0.930 . S
H427 C400 0.930 . S
H428 C419 0.930 . S
H429 C420 0.931 . S
H430 C421 0.930 . S
H431 C422 0.930 . S
Tb432 C442 2.825 . S
Tb432 O443 2.347 . S
Tb432 O446 2.366 . S
Tb432 O451 2.418 . S
Tb432 O452 2.384 1_655 S
Tb432 O455 2.479 . S
Tb432 O456 2.471 . S
Eu433 O444 2.418 . S
Eu433 O445 2.384 1_455 S
Eu433 O448 2.479 . S
Eu433 O449 2.471 . S
Eu433 O450 2.347 . S
Eu433 O453 2.366 . S
Eu433 C463 2.825 . S
C434 O450 1.259 1_655 S
C434 O451 1.265 . S
C435 O452 1.255 . S
C435 O453 1.265 . S
C436 C438 1.380 . S
C436 C439 1.374 . S
C436 C442 1.507 . S
C437 C438 1.384 . S
C437 C441 1.387 . S
C437 H464 0.930 . S
C438 C436 1.380 . S
C438 C437 1.384 . S
C438 H465 0.931 . S
C439 C436 1.374 . S
C439 C440 1.390 . S
C439 H466 0.930 . S
C440 C439 1.390 . S
C440 C441 1.391 . S
C440 H467 0.930 . S
C441 C437 1.387 . S
C441 C440 1.391 . S
C442 Tb432 2.825 . S
C442 C436 1.507 . S
C442 O455 1.238 . S
C442 O456 1.247 . S
O443 Tb432 2.347 . S
O443 C447 1.259 1_655 S
O444 Eu433 2.418 . S
O444 C447 1.265 . S
O445 Eu433 2.384 1_655 S
O445 C454 1.255 . S
O446 Tb432 2.366 . S
O446 C454 1.265 . S
C447 O443 1.259 1_455 S
C447 O444 1.265 . S
O448 Eu433 2.479 . S
O448 C463 1.238 . S
O449 Eu433 2.471 . S
O449 C463 1.247 . S
O450 Eu433 2.347 . S
O450 C434 1.259 1_455 S
O451 Tb432 2.418 . S
O451 C434 1.265 . S
O452 Tb432 2.384 1_455 S
O452 C435 1.255 . S
O453 Eu433 2.366 . S
O453 C435 1.265 . S
C454 O445 1.255 . S
C454 O446 1.265 . S
O455 Tb432 2.479 . S
O455 C442 1.238 . S
O456 Tb432 2.471 . S
O456 C442 1.247 . S
C457 C460 1.380 . S
C457 C461 1.374 . S
C457 C463 1.507 . S
C458 C459 1.387 . S
C458 C462 1.391 . S
C459 C458 1.387 . S
C459 C460 1.384 . S
C459 H468 0.930 . S
C460 C457 1.380 . S
C460 C459 1.384 . S
C460 H469 0.931 . S
C461 C457 1.374 . S
C461 C462 1.390 . S
C461 H470 0.930 . S
C462 C458 1.391 . S
C462 C461 1.390 . S
C462 H471 0.930 . S
C463 Eu433 2.825 . S
C463 O448 1.238 . S
C463 O449 1.247 . S
C463 C457 1.507 . S
H464 C437 0.930 . S
H465 C438 0.931 . S
H466 C439 0.930 . S
H467 C440 0.930 . S
H468 C459 0.930 . S
H469 C460 0.931 . S
H470 C461 0.930 . S
H471 C462 0.930 . S
C472 C473 1.415 . S
C472 C474 1.394 . S
C472 H488 0.931 . S
C473 C472 1.415 . S
C473 C477 1.353 1_545 S
C474 C472 1.394 . S
C474 C475 1.369 . S
C474 C478 1.531 . S
C475 C474 1.369 . S
C475 C476 1.410 1_545 S
C475 C483 1.503 . S
C476 C475 1.410 1_565 S
C476 C477 1.392 . S
C476 C479 1.511 . S
C477 C473 1.353 1_565 S
C477 C476 1.392 . S
C477 H489 0.929 . S
C478 C474 1.531 . S
C478 H490 0.960 . S
C478 H491 0.962 . S
C478 H492 0.960 . S
C479 C476 1.511 . S
C479 H493 0.961 . S
C479 H494 0.961 . S
C479 H495 0.961 . S
C480 C481 1.367 1_565 S
C480 C482 1.363 . S
C480 H496 0.931 . S
C481 C480 1.367 1_545 S
C481 C485 1.414 . S
C482 C480 1.363 . S
C482 C483 1.370 1_565 S
C482 C486 1.524 . S
C483 C475 1.503 . S
C483 C482 1.370 1_545 S
C483 C484 1.403 . S
C484 C483 1.403 . S
C484 C485 1.404 . S
C484 C487 1.539 . S
C485 C481 1.414 . S
C485 C484 1.404 . S
C485 H497 0.930 . S
C486 C482 1.524 . S
C486 H498 0.956 1_565 S
C486 H499 0.961 . S
C486 H500 0.961 . S
C487 C484 1.539 . S
C487 H501 0.958 . S
C487 H502 0.961 . S
C487 H503 0.960 . S
H488 C472 0.931 . S
H489 C477 0.929 . S
H490 C478 0.960 . S
H491 C478 0.962 . S
H492 C478 0.960 . S
H493 C479 0.961 . S
H494 C479 0.961 . S
H495 C479 0.961 . S
H496 C480 0.931 . S
H497 C485 0.930 . S
H498 C486 0.956 1_545 S
H499 C486 0.961 . S
H500 C486 0.961 . S
H501 C487 0.958 . S
H502 C487 0.961 . S
H503 C487 0.960 . S
C504 C505 1.391 . S
C504 C506 1.394 . S
C504 H520 0.931 . S
C505 C504 1.391 . S
C505 C509 1.376 . S
C506 C504 1.394 . S
C506 C507 1.369 . S
C506 C510 1.531 . S
C507 C506 1.369 . S
C507 C508 1.410 . S
C507 C515 1.503 . S
C508 C507 1.410 . S
C508 C509 1.392 . S
C508 C511 1.511 . S
C509 C505 1.376 . S
C509 C508 1.392 . S
C509 H521 0.929 . S
C510 C506 1.531 . S
C510 H522 0.960 . S
C510 H523 0.962 . S
C510 H524 0.960 . S
C511 C508 1.511 . S
C511 H525 0.961 . S
C511 H526 0.961 . S
C511 H527 0.961 . S
C512 C513 1.370 . S
C512 C514 1.363 . S
C512 H528 0.931 . S
C513 C512 1.370 . S
C513 C517 1.408 . S
C514 C512 1.363 . S
C514 C515 1.370 . S
C514 C518 1.524 . S
C515 C507 1.503 . S
C515 C514 1.370 . S
C515 C516 1.403 . S
C516 C515 1.403 . S
C516 C517 1.404 . S
C516 C519 1.539 . S
C517 C513 1.408 . S
C517 C516 1.404 . S
C517 H529 0.930 . S
C518 C514 1.524 . S
C518 H530 0.956 . S
C518 H531 0.961 . S
C518 H532 0.961 . S
C519 C516 1.539 . S
C519 H533 0.958 . S
C519 H534 0.961 . S
C519 H535 0.960 . S
H520 C504 0.931 . S
H521 C509 0.929 . S
H522 C510 0.960 . S
H523 C510 0.962 . S
H524 C510 0.960 . S
H525 C511 0.961 . S
H526 C511 0.961 . S
H527 C511 0.961 . S
H528 C512 0.931 . S
H529 C517 0.930 . S
H530 C518 0.956 . S
H531 C518 0.961 . S
H532 C518 0.961 . S
H533 C519 0.958 . S
H534 C519 0.961 . S
H535 C519 0.960 . S
C536 C537 1.391 . S
C536 C538 1.394 . S
C536 H552 0.931 . S
C537 C536 1.391 . S
C537 C541 1.376 . S
C538 C536 1.394 . S
C538 C539 1.369 . S
C538 C542 1.531 . S
C539 C538 1.369 . S
C539 C540 1.410 . S
C539 C547 1.503 . S
C540 C539 1.410 . S
C540 C541 1.392 . S
C540 C543 1.511 . S
C541 C537 1.376 . S
C541 C540 1.392 . S
C541 H553 0.929 . S
C542 C538 1.531 . S
C542 H554 0.960 . S
C542 H555 0.962 . S
C542 H556 0.960 . S
C543 C540 1.511 . S
C543 H557 0.961 . S
C543 H558 0.961 . S
C543 H559 0.961 . S
C544 C545 1.370 . S
C544 C546 1.363 . S
C544 H560 0.931 . S
C545 C544 1.370 . S
C545 C549 1.408 . S
C546 C544 1.363 . S
C546 C547 1.370 . S
C546 C550 1.524 . S
C547 C539 1.503 . S
C547 C546 1.370 . S
C547 C548 1.403 . S
C548 C547 1.403 . S
C548 C549 1.404 . S
C548 C551 1.539 . S
C549 C545 1.408 . S
C549 C548 1.404 . S
C549 H561 0.930 . S
C550 C546 1.524 . S
C550 H562 0.956 . S
C550 H563 0.961 . S
C550 H564 0.961 . S
C551 C548 1.539 . S
C551 H565 0.958 . S
C551 H566 0.961 . S
C551 H567 0.960 . S
H552 C536 0.931 . S
H553 C541 0.929 . S
H554 C542 0.960 . S
H555 C542 0.962 . S
H556 C542 0.960 . S
H557 C543 0.961 . S
H558 C543 0.961 . S
H559 C543 0.961 . S
H560 C544 0.931 . S
H561 C549 0.930 . S
H562 C550 0.956 . S
H563 C550 0.961 . S
H564 C550 0.961 . S
H565 C551 0.958 . S
H566 C551 0.961 . S
H567 C551 0.960 . S
C568 C569 1.391 1_655 S
C568 C570 1.394 . S
C568 H584 0.931 . S
C569 C568 1.391 1_455 S
C569 C573 1.376 . S
C570 C568 1.394 . S
C570 C571 1.369 1_655 S
C570 C574 1.531 . S
C571 C570 1.369 1_455 S
C571 C572 1.410 . S
C571 C579 1.503 . S
C572 C571 1.410 . S
C572 C573 1.392 . S
C572 C575 1.511 . S
C573 C569 1.376 . S
C573 C572 1.392 . S
C573 H585 0.929 . S
C574 C570 1.531 . S
C574 H586 0.960 . S
C574 H587 0.962 . S
C574 H588 0.960 . S
C575 C572 1.511 . S
C575 H589 0.961 . S
C575 H590 0.961 . S
C575 H591 0.961 . S
C576 C577 1.370 1_655 S
C576 C578 1.363 . S
C576 H592 0.931 . S
C577 C576 1.370 1_455 S
C577 C581 1.408 . S
C578 C576 1.363 . S
C578 C579 1.370 1_655 S
C578 C582 1.524 . S
C579 C571 1.503 . S
C579 C578 1.370 1_455 S
C579 C580 1.403 . S
C580 C579 1.403 . S
C580 C581 1.404 . S
C580 C583 1.539 . S
C581 C577 1.408 . S
C581 C580 1.404 . S
C581 H593 0.930 . S
C582 C578 1.524 . S
C582 H594 0.956 . S
C582 H595 0.961 . S
C582 H596 0.961 . S
C583 C580 1.539 . S
C583 H597 0.958 . S
C583 H598 0.961 . S
C583 H599 0.960 . S
H584 C568 0.931 . S
H585 C573 0.929 . S
H586 C574 0.960 . S
H587 C574 0.962 . S
H588 C574 0.960 . S
H589 C575 0.961 . S
H590 C575 0.961 . S
H591 C575 0.961 . S
H592 C576 0.931 . S
H593 C581 0.930 . S
H594 C582 0.956 . S
H595 C582 0.961 . S
H596 C582 0.961 . S
H597 C583 0.958 . S
H598 C583 0.961 . S
H599 C583 0.960 . S
C600 C601 1.391 . S
C600 C602 1.394 . S
C600 H616 0.931 . S
C601 C600 1.391 . S
C601 C605 1.376 1_545 S
C602 C600 1.394 . S
C602 C603 1.369 . S
C602 C606 1.531 . S
C603 C602 1.369 . S
C603 C604 1.410 1_545 S
C603 C611 1.503 1_554 S
C604 C603 1.410 1_565 S
C604 C605 1.392 . S
C604 C607 1.511 . S
C605 C601 1.376 1_565 S
C605 C604 1.392 . S
C605 H617 0.929 . S
C606 C602 1.531 . S
C606 H618 0.960 1_554 S
C606 H619 0.962 1_554 S
C606 H620 0.960 . S
C607 C604 1.511 . S
C607 H621 0.961 . S
C607 H622 0.961 . S
C607 H623 0.961 1_565 S
C608 C609 1.357 1_565 S
C608 C610 1.363 . S
C608 H624 0.931 . S
C609 C608 1.357 1_545 S
C609 C613 1.423 . S
C610 C608 1.363 . S
C610 C611 1.370 1_565 S
C610 C614 1.524 . S
C611 C603 1.503 1_556 S
C611 C610 1.370 1_545 S
C611 C612 1.403 . S
C612 C611 1.403 . S
C612 C613 1.404 . S
C612 C615 1.539 1_556 S
C613 C609 1.423 . S
C613 C612 1.404 . S
C613 H625 0.930 . S
C614 C610 1.524 . S
C614 H626 0.956 . S
C614 H627 0.961 1_556 S
C614 H628 0.961 . S
C615 C612 1.539 1_554 S
C615 H629 0.958 . S
C615 H630 0.961 1_554 S
C615 H631 0.960 . S
H616 C600 0.931 . S
H617 C605 0.929 . S
H618 C606 0.960 1_556 S
H619 C606 0.962 1_556 S
H620 C606 0.960 . S
H621 C607 0.961 . S
H622 C607 0.961 . S
H623 C607 0.961 1_545 S
H624 C608 0.931 . S
H625 C613 0.930 . S
H626 C614 0.956 . S
H627 C614 0.961 1_554 S
H628 C614 0.961 . S
H629 C615 0.958 . S
H630 C615 0.961 1_556 S
H631 C615 0.960 . S
C632 C633 1.391 . S
C632 C634 1.394 . S
C632 H648 0.931 . S
C633 C632 1.391 . S
C633 C637 1.376 . S
C634 C632 1.394 . S
C634 C635 1.369 . S
C634 C638 1.531 . S
C635 C634 1.369 . S
C635 C636 1.410 . S
C635 C643 1.503 . S
C636 C635 1.410 . S
C636 C637 1.392 . S
C636 C639 1.511 . S
C637 C633 1.376 . S
C637 C636 1.392 . S
C637 H649 0.929 . S
C638 C634 1.531 . S
C638 H650 0.960 . S
C638 H651 0.962 . S
C638 H652 0.960 . S
C639 C636 1.511 . S
C639 H653 0.961 . S
C639 H654 0.961 1_554 S
C639 H655 0.961 . S
C640 C641 1.370 . S
C640 C642 1.363 . S
C640 H656 0.931 . S
C641 C640 1.370 . S
C641 C645 1.408 . S
C642 C640 1.363 . S
C642 C643 1.370 1_556 S
C642 C646 1.524 . S
C643 C635 1.503 . S
C643 C642 1.370 1_554 S
C643 C644 1.403 1_554 S
C644 C643 1.403 1_556 S
C644 C645 1.404 . S
C644 C647 1.539 1_556 S
C645 C641 1.408 . S
C645 C644 1.404 . S
C645 H657 0.930 . S
C646 C642 1.524 . S
C646 H658 0.956 . S
C646 H659 0.961 . S
C646 H660 0.961 . S
C647 C644 1.539 1_554 S
C647 H661 0.958 . S
C647 H662 0.961 . S
C647 H663 0.960 . S
H648 C632 0.931 . S
H649 C637 0.929 . S
H650 C638 0.960 . S
H651 C638 0.962 . S
H652 C638 0.960 . S
H653 C639 0.961 . S
H654 C639 0.961 1_556 S
H655 C639 0.961 . S
H656 C640 0.931 . S
H657 C645 0.930 . S
H658 C646 0.956 . S
H659 C646 0.961 . S
H660 C646 0.961 . S
H661 C647 0.958 . S
H662 C647 0.961 . S
H663 C647 0.960 . S
C664 C665 1.391 . S
C664 C666 1.394 . S
C664 H680 0.931 . S
C665 C664 1.391 . S
C665 C669 1.376 . S
C666 C664 1.394 . S
C666 C667 1.369 . S
C666 C670 1.531 . S
C667 C666 1.369 . S
C667 C668 1.410 . S
C667 C675 1.503 1_554 S
C668 C667 1.410 . S
C668 C669 1.392 . S
C668 C671 1.511 . S
C669 C665 1.376 . S
C669 C668 1.392 . S
C669 H681 0.929 . S
C670 C666 1.531 . S
C670 H682 0.960 1_554 S
C670 H683 0.962 1_554 S
C670 H684 0.960 . S
C671 C668 1.511 . S
C671 H685 0.961 . S
C671 H686 0.961 . S
C671 H687 0.961 . S
C672 C673 1.370 . S
C672 C674 1.363 . S
C672 H688 0.931 . S
C673 C672 1.370 . S
C673 C677 1.408 . S
C674 C672 1.363 . S
C674 C675 1.370 . S
C674 C678 1.524 . S
C675 C667 1.503 1_556 S
C675 C674 1.370 . S
C675 C676 1.403 . S
C676 C675 1.403 . S
C676 C677 1.404 . S
C676 C679 1.539 1_556 S
C677 C673 1.408 . S
C677 C676 1.404 . S
C677 H689 0.930 . S
C678 C674 1.524 . S
C678 H690 0.956 . S
C678 H691 0.961 1_556 S
C678 H692 0.961 . S
C679 C676 1.539 1_554 S
C679 H693 0.957 1_554 S
C679 H694 0.961 1_554 S
C679 H695 0.960 . S
H680 C664 0.931 . S
H681 C669 0.929 . S
H682 C670 0.960 1_556 S
H683 C670 0.962 1_556 S
H684 C670 0.960 . S
H685 C671 0.961 . S
H686 C671 0.961 . S
H687 C671 0.961 . S
H688 C672 0.931 . S
H689 C677 0.930 . S
H690 C678 0.956 . S
H691 C678 0.961 1_554 S
H692 C678 0.961 . S
H693 C679 0.957 1_556 S
H694 C679 0.961 1_556 S
H695 C679 0.960 . S
C696 C697 1.401 . S
C696 C698 1.394 . S
C696 H712 0.931 . S
C697 C696 1.401 . S
C697 C701 1.366 1_655 S
C698 C696 1.394 . S
C698 C699 1.416 . S
C698 C702 1.531 . S
C699 C698 1.416 . S
C699 C700 1.362 1_655 S
C699 C707 1.503 1_554 S
C700 C699 1.362 1_455 S
C700 C701 1.392 . S
C700 C703 1.511 . S
C701 C697 1.366 1_455 S
C701 C700 1.392 . S
C701 H713 0.929 . S
C702 C698 1.531 . S
C702 H714 0.960 . S
C702 H715 0.962 . S
C702 H716 0.960 . S
C703 C700 1.511 . S
C703 H717 0.961 . S
C703 H718 0.961 . S
C703 H719 0.961 . S
C704 C705 1.370 . S
C704 C706 1.363 . S
C704 H720 0.933 . S
C705 C704 1.370 . S
C705 C709 1.410 . S
C706 C704 1.363 . S
C706 C707 1.370 . S
C706 C710 1.523 1_656 S
C707 C699 1.503 1_556 S
C707 C706 1.370 . S
C707 C708 1.405 . S
C708 C707 1.405 . S
C708 C709 1.404 . S
C708 C711 1.541 . S
C709 C705 1.410 . S
C709 C708 1.404 . S
C709 H721 0.930 . S
C710 C706 1.523 1_454 S
C710 H722 0.944 1_455 S
C710 H723 0.971 . S
C710 H724 0.962 . S
C711 C708 1.541 . S
C711 H725 1.002 . S
C711 H726 0.939 1_655 S
C711 H727 0.939 1_655 S
H712 C696 0.931 . S
H713 C701 0.929 . S
H714 C702 0.960 . S
H715 C702 0.962 . S
H716 C702 0.960 . S
H717 C703 0.961 . S
H718 C703 0.961 . S
H719 C703 0.961 . S
H720 C704 0.933 . S
H721 C709 0.930 . S
H722 C710 0.944 1_655 S
H723 C710 0.971 . S
H724 C710 0.962 . S
H725 C711 1.002 . S
H726 C711 0.939 1_455 S
H727 C711 0.939 1_455 S
C728 C729 1.391 . S
C728 C730 1.394 . S
C728 H744 0.931 . S
C729 C728 1.391 . S
C729 C733 1.376 1_455 S
C730 C728 1.394 . S
C730 C731 1.369 1_455 S
C730 C734 1.531 . S
C731 C730 1.369 1_655 S
C731 C732 1.410 . S
C731 C739 1.503 . S
C732 C731 1.410 . S
C732 C733 1.392 . S
C732 C735 1.511 . S
C733 C729 1.376 1_655 S
C733 C732 1.392 . S
C733 H745 0.929 . S
C734 C730 1.531 . S
C734 H746 0.960 . S
C734 H747 0.962 . S
C734 H748 0.960 . S
C735 C732 1.511 . S
C735 H749 0.961 . S
C735 H750 0.961 . S
C735 H751 0.961 . S
C736 C737 1.370 . S
C736 C738 1.363 . S
C736 H752 0.931 . S
C737 C736 1.370 . S
C737 C741 1.408 . S
C738 C736 1.363 . S
C738 C739 1.370 . S
C738 C742 1.524 . S
C739 C731 1.503 . S
C739 C738 1.370 . S
C739 C740 1.403 . S
C740 C739 1.403 . S
C740 C741 1.404 . S
C740 C743 1.539 1_655 S
C741 C737 1.408 . S
C741 C740 1.404 . S
C741 H753 0.930 . S
C742 C738 1.524 . S
C742 H754 0.956 . S
C742 H755 0.961 . S
C742 H756 0.961 . S
C743 C740 1.539 1_455 S
C743 H757 0.958 . S
C743 H758 0.961 . S
C743 H759 0.960 . S
H744 C728 0.931 . S
H745 C733 0.929 . S
H746 C734 0.960 . S
H747 C734 0.962 . S
H748 C734 0.960 . S
H749 C735 0.961 . S
H750 C735 0.961 . S
H751 C735 0.961 . S
H752 C736 0.931 . S
H753 C741 0.930 . S
H754 C742 0.956 . S
H755 C742 0.961 . S
H756 C742 0.961 . S
H757 C743 0.958 . S
H758 C743 0.961 . S
H759 C743 0.960 . S
C760 C761 1.377 1_565 S
C760 C762 1.394 . S
C760 H776 0.931 . S
C761 C760 1.377 1_545 S
C761 C765 1.381 . S
C762 C760 1.394 . S
C762 C763 1.369 . S
C762 C766 1.531 . S
C763 C762 1.369 . S
C763 C764 1.410 . S
C763 C771 1.503 . S
C764 C763 1.410 . S
C764 C765 1.392 1_565 S
C764 C767 1.511 1_565 S
C765 C761 1.381 . S
C765 C764 1.392 1_545 S
C765 H777 0.929 . S
C766 C762 1.531 . S
C766 H778 0.960 . S
C766 H779 0.962 . S
C766 H780 0.960 . S
C767 C764 1.511 1_545 S
C767 H781 0.961 . S
C767 H782 0.961 . S
C767 H783 0.961 1_545 S
C768 C769 1.370 . S
C768 C770 1.363 . S
C768 H784 0.931 . S
C769 C768 1.370 . S
C769 C773 1.408 . S
C770 C768 1.363 . S
C770 C771 1.370 . S
C770 C774 1.524 1_565 S
C771 C763 1.503 . S
C771 C770 1.370 . S
C771 C772 1.403 . S
C772 C771 1.403 . S
C772 C773 1.404 . S
C772 C775 1.539 . S
C773 C769 1.408 . S
C773 C772 1.404 . S
C773 H785 0.930 . S
C774 C770 1.524 1_545 S
C774 H786 0.956 . S
C774 H787 0.961 . S
C774 H788 0.961 . S
C775 C772 1.539 . S
C775 H789 0.958 . S
C775 H790 0.961 . S
C775 H791 0.960 . S
H776 C760 0.931 . S
H777 C765 0.929 . S
H778 C766 0.960 . S
H779 C766 0.962 . S
H780 C766 0.960 . S
H781 C767 0.961 . S
H782 C767 0.961 . S
H783 C767 0.961 1_565 S
H784 C768 0.931 . S
H785 C773 0.930 . S
H786 C774 0.956 . S
H787 C774 0.961 . S
H788 C774 0.961 . S
H789 C775 0.958 . S
H790 C775 0.961 . S
H791 C775 0.960 . S
C792 C793 1.391 . S
C792 C794 1.394 . S
C792 H808 0.931 . S
C793 C792 1.391 . S
C793 C797 1.376 . S
C794 C792 1.394 . S
C794 C795 1.369 . S
C794 C798 1.531 . S
C795 C794 1.369 . S
C795 C796 1.410 . S
C795 C803 1.503 . S
C796 C795 1.410 . S
C796 C797 1.392 . S
C796 C799 1.511 . S
C797 C793 1.376 . S
C797 C796 1.392 . S
C797 H809 0.929 . S
C798 C794 1.531 . S
C798 H810 0.960 . S
C798 H811 0.962 . S
C798 H812 0.960 . S
C799 C796 1.511 . S
C799 H813 0.961 . S
C799 H814 0.961 . S
C799 H815 0.961 . S
C800 C801 1.370 . S
C800 C802 1.363 . S
C800 H816 0.931 . S
C801 C800 1.370 . S
C801 C805 1.408 . S
C802 C800 1.363 . S
C802 C803 1.370 . S
C802 C806 1.524 . S
C803 C795 1.503 . S
C803 C802 1.370 . S
C803 C804 1.403 . S
C804 C803 1.403 . S
C804 C805 1.404 . S
C804 C807 1.539 . S
C805 C801 1.408 . S
C805 C804 1.404 . S
C805 H817 0.930 . S
C806 C802 1.524 . S
C806 H818 0.956 . S
C806 H819 0.961 . S
C806 H820 0.961 . S
C807 C804 1.539 . S
C807 H821 0.958 . S
C807 H822 0.961 . S
C807 H823 0.960 . S
H808 C792 0.931 . S
H809 C797 0.929 . S
H810 C798 0.960 . S
H811 C798 0.962 . S
H812 C798 0.960 . S
H813 C799 0.961 . S
H814 C799 0.961 . S
H815 C799 0.961 . S
H816 C800 0.931 . S
H817 C805 0.930 . S
H818 C806 0.956 . S
H819 C806 0.961 . S
H820 C806 0.961 . S
H821 C807 0.958 . S
H822 C807 0.961 . S
H823 C807 0.960 . S
C824 C825 1.391 . S
C824 C826 1.394 . S
C824 H840 0.931 . S
C825 C824 1.391 . S
C825 C829 1.376 . S
C826 C824 1.394 . S
C826 C827 1.369 . S
C826 C830 1.531 . S
C827 C826 1.369 . S
C827 C828 1.410 . S
C827 C835 1.503 . S
C828 C827 1.410 . S
C828 C829 1.392 . S
C828 C831 1.511 . S
C829 C825 1.376 . S
C829 C828 1.392 . S
C829 H841 0.929 . S
C830 C826 1.531 . S
C830 H842 0.960 . S
C830 H843 0.962 . S
C830 H844 0.960 . S
C831 C828 1.511 . S
C831 H845 0.961 . S
C831 H846 0.961 . S
C831 H847 0.961 . S
C832 C833 1.370 . S
C832 C834 1.363 . S
C832 H848 0.931 . S
C833 C832 1.370 . S
C833 C837 1.408 . S
C834 C832 1.363 . S
C834 C835 1.370 . S
C834 C838 1.524 . S
C835 C827 1.503 . S
C835 C834 1.370 . S
C835 C836 1.403 . S
C836 C835 1.403 . S
C836 C837 1.404 . S
C836 C839 1.539 . S
C837 C833 1.408 . S
C837 C836 1.404 . S
C837 H849 0.930 . S
C838 C834 1.524 . S
C838 H850 0.956 . S
C838 H851 0.961 . S
C838 H852 0.961 . S
C839 C836 1.539 . S
C839 H853 0.958 . S
C839 H854 0.961 . S
C839 H855 0.960 . S
H840 C824 0.931 . S
H841 C829 0.929 . S
H842 C830 0.960 . S
H843 C830 0.962 . S
H844 C830 0.960 . S
H845 C831 0.961 . S
H846 C831 0.961 . S
H847 C831 0.961 . S
H848 C832 0.931 . S
H849 C837 0.930 . S
H850 C838 0.956 . S
H851 C838 0.961 . S
H852 C838 0.961 . S
H853 C839 0.958 . S
H854 C839 0.961 . S
H855 C839 0.960 . S
C856 C857 1.394 . S
C856 C858 1.394 1_655 S
C856 H872 0.931 . S
C857 C856 1.394 . S
C857 C861 1.363 1_655 S
C858 C856 1.394 1_455 S
C858 C859 1.369 . S
C858 C862 1.531 . S
C859 C858 1.369 . S
C859 C860 1.410 . S
C859 C867 1.503 . S
C860 C859 1.410 . S
C860 C861 1.392 . S
C860 C863 1.511 1_554 S
C861 C857 1.363 1_455 S
C861 C860 1.392 . S
C861 H873 0.929 . S
C862 C858 1.531 . S
C862 H874 0.960 . S
C862 H875 0.962 1_455 S
C862 H876 0.960 . S
C863 C860 1.511 1_556 S
C863 H877 0.961 . S
C863 H878 0.961 . S
C863 H879 0.961 . S
C864 C865 1.370 . S
C864 C866 1.363 . S
C864 H880 0.967 . S
C865 C864 1.370 . S
C865 C869 1.408 . S
C866 C864 1.363 . S
C866 C867 1.370 1_556 S
C866 C870 1.524 1_455 S
C867 C859 1.503 . S
C867 C866 1.370 1_554 S
C867 C868 1.403 . S
C868 C867 1.403 . S
C868 C869 1.404 1_554 S
C868 C871 1.539 . S
C869 C865 1.408 . S
C869 C868 1.404 1_556 S
C869 H881 0.930 . S
C870 C866 1.524 1_655 S
C870 H882 0.956 1_556 S
C870 H883 0.961 . S
C870 H884 0.961 . S
C871 C868 1.539 . S
C871 H885 0.958 . S
C871 H886 0.961 . S
C871 H887 0.960 . S
H872 C856 0.931 . S
H873 C861 0.929 . S
H874 C862 0.960 . S
H875 C862 0.962 1_655 S
H876 C862 0.960 . S
H877 C863 0.961 . S
H878 C863 0.961 . S
H879 C863 0.961 . S
H880 C864 0.967 . S
H881 C869 0.930 . S
H882 C870 0.956 1_554 S
H883 C870 0.961 . S
H884 C870 0.961 . S
H885 C871 0.958 . S
H886 C871 0.961 . S
H887 C871 0.960 . S
C888 C889 1.391 1_545 S
C888 C890 1.394 . S
C888 H904 0.931 . S
C889 C888 1.391 1_565 S
C889 C893 1.376 . S
C890 C888 1.394 . S
C890 C891 1.369 . S
C890 C894 1.531 1_554 S
C891 C890 1.369 . S
C891 C892 1.410 1_545 S
C891 C899 1.503 . S
C892 C891 1.410 1_565 S
C892 C893 1.392 . S
C892 C895 1.511 . S
C893 C889 1.376 . S
C893 C892 1.392 . S
C893 H905 0.929 . S
C894 C890 1.531 1_556 S
C894 H906 0.960 . S
C894 H907 0.962 . S
C894 H908 0.960 . S
C895 C892 1.511 . S
C895 H909 0.961 . S
C895 H910 0.961 1_565 S
C895 H911 0.961 . S
C896 C897 1.370 . S
C896 C898 1.363 1_556 S
C896 H912 0.931 . S
C897 C896 1.370 . S
C897 C901 1.408 . S
C898 C896 1.363 1_554 S
C898 C899 1.370 . S
C898 C902 1.524 . S
C899 C891 1.503 . S
C899 C898 1.370 . S
C899 C900 1.425 1_554 S
C900 C899 1.425 1_556 S
C900 C901 1.416 . S
C900 C903 1.504 1_545 S
C901 C897 1.408 . S
C901 C900 1.416 . S
C901 H913 0.908 1_545 S
C902 C898 1.524 . S
C902 H914 0.956 . S
C902 H915 0.961 . S
C902 H916 0.961 . S
C903 C900 1.504 1_565 S
C903 H917 0.958 . S
C903 H918 0.961 . S
C903 H919 0.960 . S
H904 C888 0.931 . S
H905 C893 0.929 . S
H906 C894 0.960 . S
H907 C894 0.962 . S
H908 C894 0.960 . S
H909 C895 0.961 . S
H910 C895 0.961 1_545 S
H911 C895 0.961 . S
H912 C896 0.931 . S
H913 C901 0.908 1_565 S
H914 C902 0.956 . S
H915 C902 0.961 . S
H916 C902 0.961 . S
H917 C903 0.958 . S
H918 C903 0.961 . S
H919 C903 0.960 . S
C920 C921 1.391 . S
C920 C922 1.394 . S
C920 H936 0.931 . S
C921 C920 1.391 . S
C921 C925 1.376 . S
C922 C920 1.394 . S
C922 C923 1.369 . S
C922 C926 1.531 . S
C923 C922 1.369 . S
C923 C924 1.410 . S
C923 C931 1.503 . S
C924 C923 1.410 . S
C924 C925 1.392 . S
C924 C927 1.511 . S
C925 C921 1.376 . S
C925 C924 1.392 . S
C925 H937 0.929 . S
C926 C922 1.531 . S
C926 H938 0.960 . S
C926 H939 0.962 . S
C926 H940 0.960 . S
C927 C924 1.511 . S
C927 H941 0.961 . S
C927 H942 0.961 1_554 S
C927 H943 0.961 . S
C928 C929 1.370 . S
C928 C930 1.363 . S
C928 H944 0.931 . S
C929 C928 1.370 . S
C929 C933 1.408 1_556 S
C930 C928 1.363 . S
C930 C931 1.370 1_556 S
C930 C934 1.524 . S
C931 C923 1.503 . S
C931 C930 1.370 1_554 S
C931 C932 1.403 . S
C932 C931 1.403 . S
C932 C933 1.404 . S
C932 C935 1.539 . S
C933 C929 1.408 1_554 S
C933 C932 1.404 . S
C933 H945 0.930 . S
C934 C930 1.524 . S
C934 H946 0.956 . S
C934 H947 0.961 . S
C934 H948 0.961 . S
C935 C932 1.539 . S
C935 H949 0.958 . S
C935 H950 0.961 . S
C935 H951 0.960 . S
H936 C920 0.931 . S
H937 C925 0.929 . S
H938 C926 0.960 . S
H939 C926 0.962 . S
H940 C926 0.960 . S
H941 C927 0.961 . S
H942 C927 0.961 1_556 S
H943 C927 0.961 . S
H944 C928 0.931 . S
H945 C933 0.930 . S
H946 C934 0.956 . S
H947 C934 0.961 . S
H948 C934 0.961 . S
H949 C935 0.958 . S
H950 C935 0.961 . S
H951 C935 0.960 . S
C952 C953 1.391 . S
C952 C954 1.394 . S
C952 H968 0.931 . S
C953 C952 1.391 . S
C953 C957 1.376 . S
C954 C952 1.394 . S
C954 C955 1.369 . S
C954 C958 1.531 1_554 S
C955 C954 1.369 . S
C955 C956 1.410 . S
C955 C963 1.503 . S
C956 C955 1.410 . S
C956 C957 1.392 . S
C956 C959 1.511 . S
C957 C953 1.376 . S
C957 C956 1.392 . S
C957 H969 0.929 . S
C958 C954 1.531 1_556 S
C958 H970 0.960 . S
C958 H971 0.962 . S
C958 H972 0.960 . S
C959 C956 1.511 . S
C959 H973 0.961 . S
C959 H974 0.961 . S
C959 H975 0.961 . S
C960 C961 1.370 . S
C960 C962 1.363 . S
C960 H976 0.931 . S
C961 C960 1.370 . S
C961 C965 1.408 . S
C962 C960 1.363 . S
C962 C963 1.370 1_556 S
C962 C966 1.524 . S
C963 C955 1.503 . S
C963 C962 1.370 1_554 S
C963 C964 1.403 . S
C964 C963 1.403 . S
C964 C965 1.404 1_554 S
C964 C967 1.539 . S
C965 C961 1.408 . S
C965 C964 1.404 1_556 S
C965 H977 0.930 1_556 S
C966 C962 1.524 . S
C966 H978 0.956 . S
C966 H979 0.961 . S
C966 H980 0.961 . S
C967 C964 1.539 . S
C967 H981 0.958 . S
C967 H982 0.961 . S
C967 H983 0.960 . S
H968 C952 0.931 . S
H969 C957 0.929 . S
H970 C958 0.960 . S
H971 C958 0.962 . S
H972 C958 0.960 . S
H973 C959 0.961 . S
H974 C959 0.961 . S
H975 C959 0.961 . S
H976 C960 0.931 . S
H977 C965 0.930 1_554 S
H978 C966 0.956 . S
H979 C966 0.961 . S
H980 C966 0.961 . S
H981 C967 0.958 . S
H982 C967 0.961 . S
H983 C967 0.960 . S
C984 C985 1.391 1_655 S
C984 C986 1.394 . S
C984 H1000 0.931 . S
C985 C984 1.391 1_455 S
C985 C989 1.376 . S
C986 C984 1.394 . S
C986 C987 1.369 1_655 S
C986 C990 1.531 . S
C987 C986 1.369 1_455 S
C987 C988 1.410 . S
C987 C995 1.503 . S
C988 C987 1.410 . S
C988 C989 1.392 . S
C988 C991 1.511 . S
C989 C985 1.376 . S
C989 C988 1.392 . S
C989 H1001 0.929 . S
C990 C986 1.531 . S
C990 H1002 0.960 . S
C990 H1003 0.962 . S
C990 H1004 0.960 . S
C991 C988 1.511 . S
C991 H1005 0.961 . S
C991 H1006 0.961 . S
C991 H1007 0.961 . S
C992 C993 1.380 . S
C992 C994 1.363 . S
C992 H1008 0.922 1_455 S
C993 C992 1.380 . S
C993 C997 1.408 . S
C994 C992 1.363 . S
C994 C995 1.372 . S
C994 C998 1.523 1_455 S
C995 C987 1.503 . S
C995 C994 1.372 . S
C995 C996 1.403 . S
C996 C995 1.403 . S
C996 C997 1.404 . S
C996 C999 1.539 . S
C997 C993 1.408 . S
C997 C996 1.404 . S
C997 H1009 0.930 . S
C998 C994 1.523 1_655 S
C998 H1010 0.956 . S
C998 H1011 0.961 1_655 S
C998 H1012 0.961 . S
C999 C996 1.539 . S
C999 H1013 0.958 . S
C999 H1014 0.961 . S
C999 H1015 0.960 . S
H1000 C984 0.931 . S
H1001 C989 0.929 . S
H1002 C990 0.960 . S
H1003 C990 0.962 . S
H1004 C990 0.960 . S
H1005 C991 0.961 . S
H1006 C991 0.961 . S
H1007 C991 0.961 . S
H1008 C992 0.922 1_655 S
H1009 C997 0.930 . S
H1010 C998 0.956 . S
H1011 C998 0.961 1_455 S
H1012 C998 0.961 . S
H1013 C999 0.958 . S
H1014 C999 0.961 . S
H1015 C999 0.960 . S
C1016 C1017 1.391 1_565 S
C1016 C1018 1.394 . S
C1016 H1032 0.931 . S
C1017 C1016 1.391 1_545 S
C1017 C1021 1.376 . S
C1018 C1016 1.394 . S
C1018 C1019 1.369 1_565 S
C1018 C1022 1.531 . S
C1019 C1018 1.369 1_545 S
C1019 C1020 1.410 . S
C1019 C1027 1.503 . S
C1020 C1019 1.410 . S
C1020 C1021 1.392 . S
C1020 C1023 1.511 . S
C1021 C1017 1.376 . S
C1021 C1020 1.392 . S
C1021 H1033 0.929 . S
C1022 C1018 1.531 . S
C1022 H1034 0.960 . S
C1022 H1035 0.962 . S
C1022 H1036 0.960 . S
C1023 C1020 1.511 . S
C1023 H1037 0.961 . S
C1023 H1038 0.961 . S
C1023 H1039 0.961 . S
C1024 C1025 1.370 1_565 S
C1024 C1026 1.363 . S
C1024 H1040 0.931 . S
C1025 C1024 1.370 1_545 S
C1025 C1029 1.408 . S
C1026 C1024 1.363 . S
C1026 C1027 1.370 1_565 S
C1026 C1030 1.524 . S
C1027 C1019 1.503 . S
C1027 C1026 1.370 1_545 S
C1027 C1028 1.403 . S
C1028 C1027 1.403 . S
C1028 C1029 1.404 . S
C1028 C1031 1.539 . S
C1029 C1025 1.408 . S
C1029 C1028 1.404 . S
C1029 H1041 0.930 . S
C1030 C1026 1.524 . S
C1030 H1042 0.956 . S
C1030 H1043 0.961 . S
C1030 H1044 0.961 . S
C1031 C1028 1.539 . S
C1031 H1045 0.958 . S
C1031 H1046 0.961 . S
C1031 H1047 0.960 . S
H1032 C1016 0.931 . S
H1033 C1021 0.929 . S
H1034 C1022 0.960 . S
H1035 C1022 0.962 . S
H1036 C1022 0.960 . S
H1037 C1023 0.961 . S
H1038 C1023 0.961 . S
H1039 C1023 0.961 . S
H1040 C1024 0.931 . S
H1041 C1029 0.930 . S
H1042 C1030 0.956 . S
H1043 C1030 0.961 . S
H1044 C1030 0.961 . S
H1045 C1031 0.958 . S
H1046 C1031 0.961 . S
H1047 C1031 0.960 . S
C1048 C1049 1.391 . S
C1048 C1050 1.394 . S
C1048 H1064 0.931 . S
C1049 C1048 1.391 . S
C1049 C1053 1.376 . S
C1050 C1048 1.394 . S
C1050 C1051 1.369 . S
C1050 C1054 1.531 . S
C1051 C1050 1.369 . S
C1051 C1052 1.410 . S
C1051 C1059 1.503 . S
C1052 C1051 1.410 . S
C1052 C1053 1.392 . S
C1052 C1055 1.511 . S
C1053 C1049 1.376 . S
C1053 C1052 1.392 . S
C1053 H1065 0.929 . S
C1054 C1050 1.531 . S
C1054 H1066 0.960 . S
C1054 H1067 0.962 . S
C1054 H1068 0.960 . S
C1055 C1052 1.511 . S
C1055 H1069 0.961 . S
C1055 H1070 0.961 . S
C1055 H1071 0.961 . S
C1056 C1057 1.370 . S
C1056 C1058 1.363 . S
C1056 H1072 0.931 . S
C1057 C1056 1.370 . S
C1057 C1061 1.408 . S
C1058 C1056 1.363 . S
C1058 C1059 1.370 . S
C1058 C1062 1.524 . S
C1059 C1051 1.503 . S
C1059 C1058 1.370 . S
C1059 C1060 1.403 . S
C1060 C1059 1.403 . S
C1060 C1061 1.404 . S
C1060 C1063 1.539 . S
C1061 C1057 1.408 . S
C1061 C1060 1.404 . S
C1061 H1073 0.930 . S
C1062 C1058 1.524 . S
C1062 H1074 0.956 . S
C1062 H1075 0.961 . S
C1062 H1076 0.961 . S
C1063 C1060 1.539 . S
C1063 H1077 0.958 . S
C1063 H1078 0.961 . S
C1063 H1079 0.960 . S
H1064 C1048 0.931 . S
H1065 C1053 0.929 . S
H1066 C1054 0.960 . S
H1067 C1054 0.962 . S
H1068 C1054 0.960 . S
H1069 C1055 0.961 . S
H1070 C1055 0.961 . S
H1071 C1055 0.961 . S
H1072 C1056 0.931 . S
H1073 C1061 0.930 . S
H1074 C1062 0.956 . S
H1075 C1062 0.961 . S
H1076 C1062 0.961 . S
H1077 C1063 0.958 . S
H1078 C1063 0.961 . S
H1079 C1063 0.960 . S
C1080 C1081 1.391 . S
C1080 C1082 1.394 . S
C1080 H1096 0.931 . S
C1081 C1080 1.391 . S
C1081 C1085 1.376 . S
C1082 C1080 1.394 . S
C1082 C1083 1.369 . S
C1082 C1086 1.531 . S
C1083 C1082 1.369 . S
C1083 C1084 1.410 . S
C1083 C1091 1.503 . S
C1084 C1083 1.410 . S
C1084 C1085 1.392 . S
C1084 C1087 1.511 . S
C1085 C1081 1.376 . S
C1085 C1084 1.392 . S
C1085 H1097 0.929 . S
C1086 C1082 1.531 . S
C1086 H1098 0.960 . S
C1086 H1099 0.962 . S
C1086 H1100 0.960 . S
C1087 C1084 1.511 . S
C1087 H1101 0.961 . S
C1087 H1102 0.961 . S
C1087 H1103 0.961 . S
C1088 C1089 1.370 . S
C1088 C1090 1.363 . S
C1088 H1104 0.931 . S
C1089 C1088 1.370 . S
C1089 C1093 1.408 . S
C1090 C1088 1.363 . S
C1090 C1091 1.370 . S
C1090 C1094 1.524 . S
C1091 C1083 1.503 . S
C1091 C1090 1.370 . S
C1091 C1092 1.403 . S
C1092 C1091 1.403 . S
C1092 C1093 1.404 . S
C1092 C1095 1.539 . S
C1093 C1089 1.408 . S
C1093 C1092 1.404 . S
C1093 H1105 0.930 . S
C1094 C1090 1.524 . S
C1094 H1106 0.956 . S
C1094 H1107 0.961 . S
C1094 H1108 0.961 . S
C1095 C1092 1.539 . S
C1095 H1109 0.958 . S
C1095 H1110 0.961 . S
C1095 H1111 0.960 . S
H1096 C1080 0.931 . S
H1097 C1085 0.929 . S
H1098 C1086 0.960 . S
H1099 C1086 0.962 . S
H1100 C1086 0.960 . S
H1101 C1087 0.961 . S
H1102 C1087 0.961 . S
H1103 C1087 0.961 . S
H1104 C1088 0.931 . S
H1105 C1093 0.930 . S
H1106 C1094 0.956 . S
H1107 C1094 0.961 . S
H1108 C1094 0.961 . S
H1109 C1095 0.958 . S
H1110 C1095 0.961 . S
H1111 C1095 0.960 . S
C1112 C1113 1.403 . S
C1112 C1114 1.394 . S
C1112 H1128 0.931 . S
C1113 C1112 1.403 . S
C1113 C1117 1.363 1_655 S
C1114 C1112 1.394 . S
C1114 C1115 1.375 . S
C1114 C1118 1.531 . S
C1115 C1114 1.375 . S
C1115 C1116 1.403 1_655 S
C1115 C1123 1.505 . S
C1116 C1115 1.403 1_455 S
C1116 C1117 1.392 . S
C1116 C1119 1.511 . S
C1117 C1113 1.363 1_455 S
C1117 C1116 1.392 . S
C1117 H1129 0.929 . S
C1118 C1114 1.531 . S
C1118 H1130 0.960 . S
C1118 H1131 0.962 . S
C1118 H1132 0.960 . S
C1119 C1116 1.511 . S
C1119 H1133 0.961 . S
C1119 H1134 0.961 . S
C1119 H1135 0.961 . S
C1120 C1121 1.370 . S
C1120 C1122 1.363 . S
C1120 H1136 0.931 . S
C1121 C1120 1.370 . S
C1121 C1125 1.408 1_655 S
C1122 C1120 1.363 . S
C1122 C1123 1.370 . S
C1122 C1126 1.524 . S
C1123 C1115 1.505 . S
C1123 C1122 1.370 . S
C1123 C1124 1.403 1_655 S
C1124 C1123 1.403 1_455 S
C1124 C1125 1.404 . S
C1124 C1127 1.539 . S
C1125 C1121 1.408 1_455 S
C1125 C1124 1.404 . S
C1125 H1137 0.930 . S
C1126 C1122 1.524 . S
C1126 H1138 0.956 . S
C1126 H1139 0.961 . S
C1126 H1140 0.961 . S
C1127 C1124 1.539 . S
C1127 H1141 0.958 . S
C1127 H1142 0.961 . S
C1127 H1143 0.960 . S
H1128 C1112 0.931 . S
H1129 C1117 0.929 . S
H1130 C1118 0.960 . S
H1131 C1118 0.962 . S
H1132 C1118 0.960 . S
H1133 C1119 0.961 . S
H1134 C1119 0.961 . S
H1135 C1119 0.961 . S
H1136 C1120 0.931 . S
H1137 C1125 0.930 . S
H1138 C1126 0.956 . S
H1139 C1126 0.961 . S
H1140 C1126 0.961 . S
H1141 C1127 0.958 . S
H1142 C1127 0.961 . S
H1143 C1127 0.960 . S
C1144 C1145 1.421 . S
C1144 C1146 1.394 . S
C1144 H1160 0.931 . S
C1145 C1144 1.421 . S
C1145 C1149 1.346 1_565 S
C1146 C1144 1.394 . S
C1146 C1147 1.369 . S
C1146 C1150 1.531 . S
C1147 C1146 1.369 . S
C1147 C1148 1.410 1_565 S
C1147 C1155 1.503 . S
C1148 C1147 1.410 1_545 S
C1148 C1149 1.392 . S
C1148 C1151 1.511 . S
C1149 C1145 1.346 1_545 S
C1149 C1148 1.392 . S
C1149 H1161 0.929 . S
C1150 C1146 1.531 . S
C1150 H1162 0.960 . S
C1150 H1163 0.962 . S
C1150 H1164 0.960 . S
C1151 C1148 1.511 . S
C1151 H1165 0.961 . S
C1151 H1166 0.961 . S
C1151 H1167 0.961 . S
C1152 C1153 1.370 . S
C1152 C1154 1.363 . S
C1152 H1168 0.931 . S
C1153 C1152 1.370 . S
C1153 C1157 1.408 1_565 S
C1154 C1152 1.363 . S
C1154 C1155 1.370 . S
C1154 C1158 1.524 . S
C1155 C1147 1.503 . S
C1155 C1154 1.370 . S
C1155 C1156 1.403 1_565 S
C1156 C1155 1.403 1_545 S
C1156 C1157 1.404 . S
C1156 C1159 1.539 . S
C1157 C1153 1.408 1_545 S
C1157 C1156 1.404 . S
C1157 H1169 0.930 . S
C1158 C1154 1.524 . S
C1158 H1170 0.956 . S
C1158 H1171 0.961 . S
C1158 H1172 0.961 . S
C1159 C1156 1.539 . S
C1159 H1173 0.958 . S
C1159 H1174 0.961 . S
C1159 H1175 0.960 . S
H1160 C1144 0.931 . S
H1161 C1149 0.929 . S
H1162 C1150 0.960 . S
H1163 C1150 0.962 . S
H1164 C1150 0.960 . S
H1165 C1151 0.961 . S
H1166 C1151 0.961 . S
H1167 C1151 0.961 . S
H1168 C1152 0.931 . S
H1169 C1157 0.930 . S
H1170 C1158 0.956 . S
H1171 C1158 0.961 . S
H1172 C1158 0.961 . S
H1173 C1159 0.958 . S
H1174 C1159 0.961 . S
H1175 C1159 0.960 . S
C1176 C1177 1.391 . S
C1176 C1178 1.394 . S
C1176 H1192 0.931 . S
C1177 C1176 1.391 . S
C1177 C1181 1.376 . S
C1178 C1176 1.394 . S
C1178 C1179 1.369 . S
C1178 C1182 1.531 . S
C1179 C1178 1.369 . S
C1179 C1180 1.410 . S
C1179 C1187 1.503 . S
C1180 C1179 1.410 . S
C1180 C1181 1.392 . S
C1180 C1183 1.511 . S
C1181 C1177 1.376 . S
C1181 C1180 1.392 . S
C1181 H1193 0.929 . S
C1182 C1178 1.531 . S
C1182 H1194 0.960 . S
C1182 H1195 0.962 . S
C1182 H1196 0.960 . S
C1183 C1180 1.511 . S
C1183 H1197 0.961 . S
C1183 H1198 0.961 . S
C1183 H1199 0.961 . S
C1184 C1185 1.370 . S
C1184 C1186 1.363 . S
C1184 H1200 0.931 . S
C1185 C1184 1.370 . S
C1185 C1189 1.408 . S
C1186 C1184 1.363 . S
C1186 C1187 1.370 . S
C1186 C1190 1.524 . S
C1187 C1179 1.503 . S
C1187 C1186 1.370 . S
C1187 C1188 1.403 . S
C1188 C1187 1.403 . S
C1188 C1189 1.404 . S
C1188 C1191 1.539 . S
C1189 C1185 1.408 . S
C1189 C1188 1.404 . S
C1189 H1201 0.930 . S
C1190 C1186 1.524 . S
C1190 H1202 0.956 . S
C1190 H1203 0.961 . S
C1190 H1204 0.961 . S
C1191 C1188 1.539 . S
C1191 H1205 0.958 . S
C1191 H1206 0.961 . S
C1191 H1207 0.960 . S
H1192 C1176 0.931 . S
H1193 C1181 0.929 . S
H1194 C1182 0.960 . S
H1195 C1182 0.962 . S
H1196 C1182 0.960 . S
H1197 C1183 0.961 . S
H1198 C1183 0.961 . S
H1199 C1183 0.961 . S
H1200 C1184 0.931 . S
H1201 C1189 0.930 . S
H1202 C1190 0.956 . S
H1203 C1190 0.961 . S
H1204 C1190 0.961 . S
H1205 C1191 0.958 . S
H1206 C1191 0.961 . S
H1207 C1191 0.960 . S
C1208 C1209 1.391 . S
C1208 C1210 1.394 . S
C1208 H1224 0.931 . S
C1209 C1208 1.391 . S
C1209 C1213 1.376 . S
C1210 C1208 1.394 . S
C1210 C1211 1.369 . S
C1210 C1214 1.531 . S
C1211 C1210 1.369 . S
C1211 C1212 1.410 . S
C1211 C1219 1.503 . S
C1212 C1211 1.410 . S
C1212 C1213 1.392 . S
C1212 C1215 1.511 . S
C1213 C1209 1.376 . S
C1213 C1212 1.392 . S
C1213 H1225 0.929 . S
C1214 C1210 1.531 . S
C1214 H1226 0.960 . S
C1214 H1227 0.962 . S
C1214 H1228 0.960 . S
C1215 C1212 1.511 . S
C1215 H1229 0.961 . S
C1215 H1230 0.961 . S
C1215 H1231 0.961 . S
C1216 C1217 1.370 . S
C1216 C1218 1.363 . S
C1216 H1232 0.931 . S
C1217 C1216 1.370 . S
C1217 C1221 1.408 . S
C1218 C1216 1.363 . S
C1218 C1219 1.370 . S
C1218 C1222 1.524 . S
C1219 C1211 1.503 . S
C1219 C1218 1.370 . S
C1219 C1220 1.403 . S
C1220 C1219 1.403 . S
C1220 C1221 1.404 . S
C1220 C1223 1.539 . S
C1221 C1217 1.408 . S
C1221 C1220 1.404 . S
C1221 H1233 0.930 . S
C1222 C1218 1.524 . S
C1222 H1234 0.956 . S
C1222 H1235 0.961 . S
C1222 H1236 0.961 . S
C1223 C1220 1.539 . S
C1223 H1237 0.958 . S
C1223 H1238 0.961 . S
C1223 H1239 0.960 . S
H1224 C1208 0.931 . S
H1225 C1213 0.929 . S
H1226 C1214 0.960 . S
H1227 C1214 0.962 . S
H1228 C1214 0.960 . S
H1229 C1215 0.961 . S
H1230 C1215 0.961 . S
H1231 C1215 0.961 . S
H1232 C1216 0.931 . S
H1233 C1221 0.930 . S
H1234 C1222 0.956 . S
H1235 C1222 0.961 . S
H1236 C1222 0.961 . S
H1237 C1223 0.958 . S
H1238 C1223 0.961 . S
H1239 C1223 0.960 . S
C473 C255 2.211 1_545 S
C481 C314 2.362 1_545 S
C513 C354 2.387 . S
C505 C294 2.203 . S
C545 C394 2.385 . S
C537 C177 2.167 . S
C577 C434 2.382 1_455 S
C569 C216 2.162 1_455 S
C609 C327 2.365 . S
C601 C99 2.196 1_545 S
C633 C138 2.201 . S
C641 C367 2.394 . S
C665 C21 2.210 . S
C673 C407 2.379 . S
C697 C60 2.158 . S
C705 C447 2.378 1_655 S
C737 C338 0.351 . S
C729 C196 0.478 1_455 S
C769 C378 0.392 . S
C761 C235 0.305 1_545 S
C801 C418 0.370 . S
C793 C289 0.453 . S
C825 C157 0.387 . S
C833 C458 0.386 . S
C857 C40 0.299 . S
C865 C321 0.395 . S
C897 C361 0.339 . S
C889 C79 0.465 . S
C929 C401 0.373 . S
C921 C133 0.291 . S
C953 C1 0.371 . S
C961 C441 0.338 . S
C985 C211 2.839 . S
C993 C315 3.204 . S
C1017 C250 2.796 . S
C1025 C355 3.183 . S
C1057 C395 3.176 . S
C1049 C274 2.775 . S
C1089 C435 3.191 . S
C1081 C172 2.813 . S
C1113 C55 2.829 1_655 S
C1121 C334 3.214 . S
C1153 C374 3.178 . S
C1145 C94 2.806 1_565 S
C1185 C414 3.174 . S
C1177 C118 2.810 . S
C1209 C16 2.821 . S
C1217 C454 3.199 . S
