# Generated by pormake.
# Topology anh, (6,3)-cn, num edge types: 1
# Building blocks:
#     Node 0, Type 0, BuildingBlock: GEDQOX_clean_sbu_0, # of connection points: 6
#     Node 1, Type 0, BuildingBlock: GEDQOX_clean_sbu_0, # of connection points: 6
#     Node 2, Type 0, BuildingBlock: GEDQOX_clean_sbu_0, # of connection points: 6
#     Node 3, Type 1, BuildingBlock: PAMTOO_clean_linker_0, # of connection points: 3
#     Node 4, Type 1, BuildingBlock: PAMTOO_clean_linker_0, # of connection points: 3
#     Node 5, Type 1, BuildingBlock: PAMTOO_clean_linker_0, # of connection points: 3
#     Node 6, Type 1, BuildingBlock: PAMTOO_clean_linker_0, # of connection points: 3
#     Node 7, Type 1, BuildingBlock: PAMTOO_clean_linker_0, # of connection points: 3
#     Node 8, Type 1, BuildingBlock: PAMTOO_clean_linker_0, # of connection points: 3
#     Edge 9, Type (0, 1), BuildingBlock: MIFKUJ_clean_linker_0, # of connection points: 2
#     Edge 10, Type (0, 1), BuildingBlock: MIFKUJ_clean_linker_0, # of connection points: 2
#     Edge 11, Type (0, 1), BuildingBlock: MIFKUJ_clean_linker_0, # of connection points: 2
#     Edge 12, Type (0, 1), BuildingBlock: MIFKUJ_clean_linker_0, # of connection points: 2
#     Edge 13, Type (0, 1), BuildingBlock: MIFKUJ_clean_linker_0, # of connection points: 2
#     Edge 14, Type (0, 1), BuildingBlock: MIFKUJ_clean_linker_0, # of connection points: 2
#     Edge 15, Type (0, 1), BuildingBlock: MIFKUJ_clean_linker_0, # of connection points: 2
#     Edge 16, Type (0, 1), BuildingBlock: MIFKUJ_clean_linker_0, # of connection points: 2
#     Edge 17, Type (0, 1), BuildingBlock: MIFKUJ_clean_linker_0, # of connection points: 2
#     Edge 18, Type (0, 1), BuildingBlock: MIFKUJ_clean_linker_0, # of connection points: 2
#     Edge 19, Type (0, 1), BuildingBlock: MIFKUJ_clean_linker_0, # of connection points: 2
#     Edge 20, Type (0, 1), BuildingBlock: MIFKUJ_clean_linker_0, # of connection points: 2
#     Edge 21, Type (0, 1), BuildingBlock: MIFKUJ_clean_linker_0, # of connection points: 2
#     Edge 22, Type (0, 1), BuildingBlock: MIFKUJ_clean_linker_0, # of connection points: 2
#     Edge 23, Type (0, 1), BuildingBlock: MIFKUJ_clean_linker_0, # of connection points: 2
#     Edge 24, Type (0, 1), BuildingBlock: MIFKUJ_clean_linker_0, # of connection points: 2
#     Edge 25, Type (0, 1), BuildingBlock: MIFKUJ_clean_linker_0, # of connection points: 2
#     Edge 26, Type (0, 1), BuildingBlock: MIFKUJ_clean_linker_0, # of connection points: 2
# Relax obj value: 0.135
# Max RMSD: 0.176
# Mean RMSD: 0.124
data_MOF--net-anh--node1-GEDQOX_clean_sbu_0--node2-PAMTOO_clean_linker_0--edge1-MIFKUJ_clean_linker_0
_symmetry_space_group_name_H-M    P1
_symmetry_Int_Tables_number       1
_symmetry_cell_setting            triclinic
loop_
_symmetry_equiv_pos_as_xyz
'x, y, z'
_cell_length_a     41.644942
_cell_length_b     38.903928
_cell_length_c     64.334397
_cell_angle_alpha  88.585476
_cell_angle_beta   92.025221
_cell_angle_gamma 108.76034
loop_
_atom_site_label
_atom_site_type_symbol
_atom_site_fract_x
_atom_site_fract_y
_atom_site_fract_z
_atom_type_partial_charge
Nd0 Nd 0.07977 0.5438 0.13799 0.0
Nd1 Nd 0.05674 0.46471 0.14843 0.0
C2 C 0.11102 0.60995 0.12323 0.0
C3 C 0.1442 0.63756 0.12775 0.0
C4 C 0.15751 0.66653 0.11384 0.0
C5 C 0.18864 0.69324 0.11834 0.0
C6 C 0.20696 0.69174 0.13702 0.0
C7 C 0.19347 0.66231 0.15083 0.0
C8 C 0.16257 0.63546 0.14619 0.0
C9 C 0.07554 0.52906 0.17988 0.0
C10 C 0.14071 0.50132 0.14316 0.0
C11 C 1.02769 0.40008 0.16576 0.0
C12 C 0.99339 0.37421 0.16927 0.0
C13 C 0.96676 0.3858 0.17586 0.0
C14 C 0.93472 0.36053 0.17946 0.0
C15 C 0.9286 0.3232 0.17642 0.0
C16 C 0.95534 0.31185 0.16971 0.0
C17 C 0.98734 0.33707 0.16622 0.0
C18 C 0.06503 0.48051 0.10707 0.0
C19 C 0.99528 0.50589 0.13989 0.0
O20 O 0.11165 0.58043 0.11418 0.0
O21 O 0.08934 0.60316 0.1382 0.0
O22 O 0.06734 0.55539 0.17101 0.0
O23 O 0.08724 0.51275 0.16696 0.0
O24 O 0.13214 0.53012 0.1363 0.0
O25 O 0.11612 0.47284 0.15077 0.0
O26 O 1.03667 0.43049 0.17607 0.0
O27 O 1.03788 0.40447 0.14658 0.0
O28 O 0.07375 0.45463 0.11628 0.0
O29 O 0.05096 0.49562 0.11934 0.0
O30 O 1.00355 0.47733 0.14755 0.0
O31 O 1.02047 0.53458 0.13308 0.0
H32 H 0.14384 0.6685 0.09945 0.0
H33 H 0.19837 0.71496 0.1071 0.0
H34 H 0.20636 0.66033 0.1655 0.0
H35 H 0.15274 0.61326 0.15716 0.0
H36 H 0.97066 0.41434 0.17825 0.0
H37 H 0.91464 0.37029 0.18439 0.0
H38 H 0.95172 0.28334 0.16748 0.0
H39 H 1.00751 0.32749 0.16122 0.0
Nd40 Nd 0.54491 0.99823 0.51833 0.0
Nd41 Nd 0.62278 0.02645 0.50502 0.0
C42 C 0.48506 0.96544 0.53445 0.0
C43 C 0.45621 0.93343 0.52856 0.0
C44 C 0.43235 0.91549 0.54332 0.0
C45 C 0.40479 0.88516 0.53769 0.0
C46 C 0.40058 0.8724 0.51716 0.0
C47 C 0.42482 0.89033 0.50248 0.0
C48 C 0.45244 0.92045 0.50815 0.0
C49 C 0.55618 1.00691 0.47639 0.0
C50 C 0.58675 0.93866 0.513 0.0
C51 C 0.67714 0.05235 0.48244 0.0
C52 C 0.70738 0.08482 0.48204 0.0
C53 C 0.72387 0.09608 0.46328 0.0
C54 C 0.75253 0.127 0.46252 0.0
C55 C 0.76534 0.14723 0.48057 0.0
C56 C 0.74846 0.13593 0.49936 0.0
C57 C 0.71966 0.10505 0.50007 0.0
C58 C 0.61808 0.03181 0.5476 0.0
C59 C 0.58338 0.08498 0.51555 0.0
O60 O 0.51279 0.95901 0.54086 0.0
O61 O 0.49096 0.99343 0.52173 0.0
O62 O 0.53047 0.01213 0.485 0.0
O63 O 0.57307 0.99486 0.48955 0.0
O64 O 0.55918 0.94532 0.51904 0.0
O65 O 0.61346 0.96463 0.50582 0.0
O66 O 0.64818 0.05758 0.47759 0.0
O67 O 0.67529 0.02969 0.49816 0.0
O68 O 0.64693 0.04137 0.53834 0.0
O69 O 0.59474 0.02071 0.53419 0.0
O70 O 0.60551 0.07753 0.50353 0.0
O71 O 0.56088 0.05909 0.52616 0.0
H72 H 0.43495 0.92506 0.55916 0.0
H73 H 0.38643 0.87211 0.54931 0.0
H74 H 0.42257 0.88088 0.48663 0.0
H75 H 0.47084 0.93371 0.49658 0.0
H76 H 0.7145 0.08099 0.44918 0.0
H77 H 0.7644 0.13528 0.44771 0.0
H78 H 0.75773 0.15064 0.51358 0.0
H79 H 0.70706 0.09689 0.51469 0.0
Nd80 Nd 0.54639 0.50313 0.82241 0.0
Nd81 Nd 0.61667 0.52994 0.8427 0.0
C82 C 0.49409 0.49578 0.79655 0.0
C83 C 0.47911 0.52211 0.78725 0.0
C84 C 0.46214 0.51557 0.76783 0.0
C85 C 0.4479 0.54079 0.75903 0.0
C86 C 0.45074 0.57304 0.7695 0.0
C87 C 0.46909 0.58002 0.78856 0.0
C88 C 0.48299 0.55475 0.79737 0.0
C89 C 0.54779 0.50227 0.86515 0.0
C90 C 0.58259 0.59121 0.83088 0.0
C91 C 0.67141 0.53923 0.86653 0.0
C92 C 0.699 0.52319 0.86693 0.0
C93 C 0.69259 0.48557 0.86962 0.0
C94 C 0.71866 0.47062 0.86746 0.0
C95 C 0.75123 0.49302 0.86225 0.0
C96 C 0.75777 0.53065 0.86023 0.0
C97 C 0.73195 0.54561 0.86268 0.0
C98 C 0.6157 0.53004 0.80009 0.0
C99 C 0.58056 0.44103 0.83309 0.0
O100 O 0.52448 0.49908 0.79035 0.0
O101 O 0.49105 0.49036 0.81667 0.0
O102 O 0.52642 0.47696 0.85409 0.0
O103 O 0.56581 0.52722 0.85369 0.0
O104 O 0.56199 0.56599 0.8188 0.0
O105 O 0.60327 0.58268 0.84461 0.0
O106 O 0.64132 0.51809 0.87186 0.0
O107 O 0.67043 0.5598 0.85027 0.0
O108 O 0.63731 0.55519 0.811 0.0
O109 O 0.59752 0.50557 0.81167 0.0
O110 O 0.60436 0.4667 0.84339 0.0
O111 O 0.55634 0.44873 0.82205 0.0
H112 H 0.45951 0.49077 0.75963 0.0
H113 H 0.43409 0.53475 0.74427 0.0
H114 H 0.47135 0.60423 0.79724 0.0
H115 H 0.49623 0.56044 0.81232 0.0
H116 H 0.66738 0.46759 0.87291 0.0
H117 H 0.71318 0.44156 0.86924 0.0
H118 H 0.78292 0.54854 0.85665 0.0
H119 H 0.73752 0.57466 0.86063 0.0
H120 H 0.62858 0.05573 0.25698 0.0
H121 H 0.53372 0.9714 0.24574 0.0
H122 H 0.58859 0.03212 0.19425 0.0
H123 H 0.51127 1.00928 0.18814 0.0
C124 C 0.50508 0.98708 0.20004 0.0
O125 O 0.53429 0.97879 0.20525 0.0
H126 H 0.49543 0.99671 0.21393 0.0
C127 C 0.60909 0.04019 0.24613 0.0
C128 C 0.61222 0.04786 0.22467 0.0
C129 C 0.58085 0.01298 0.25389 0.0
C130 C 0.55563 0.99258 0.23996 0.0
C131 C 0.55857 0.99926 0.21849 0.0
C132 C 0.58681 0.02685 0.21085 0.0
H133 H 0.58594 0.58896 0.57547 0.0
H134 H 0.59848 0.48361 0.57184 0.0
H135 H 0.59304 0.54442 0.51585 0.0
H136 H 0.56431 0.45911 0.50844 0.0
C137 C 0.57118 0.45351 0.52473 0.0
O138 O 0.59866 0.48241 0.53147 0.0
H139 H 0.54853 0.45089 0.53414 0.0
C140 C 0.58879 0.56712 0.56632 0.0
C141 C 0.58904 0.57066 0.54455 0.0
C142 C 0.59247 0.53614 0.57643 0.0
C143 C 0.59544 0.5077 0.56438 0.0
C144 C 0.59532 0.51031 0.54261 0.0
C145 C 0.59267 0.54215 0.53266 0.0
H146 H 0.07319 0.55159 0.9023 0.0
H147 H 0.17452 0.61934 0.88907 0.0
H148 H 0.10774 0.56368 0.83943 0.0
H149 H 0.17583 0.56091 0.83909 0.0
C150 C 0.19048 0.58842 0.84489 0.0
O151 O 0.16847 0.60714 0.84901 0.0
H152 H 0.20449 0.58495 0.85943 0.0
C153 C 0.09281 0.56332 0.89115 0.0
C154 C 0.08651 0.55433 0.87008 0.0
C155 C 0.12432 0.5867 0.89818 0.0
C156 C 0.1498 0.60177 0.88385 0.0
C157 C 0.14352 0.5937 0.86267 0.0
C158 C 0.11193 0.57023 0.85578 0.0
H159 H 1.03489 0.44147 0.40202 0.0
H160 H 0.11564 0.54301 0.40845 0.0
H161 H 0.06848 0.4854 0.46284 0.0
H162 H 0.09024 0.56484 0.46904 0.0
C163 C 0.10682 0.57287 0.45539 0.0
O164 O 0.11528 0.54334 0.44903 0.0
H165 H 0.09233 0.58214 0.44278 0.0
C166 C 0.05183 0.4622 0.41184 0.0
C167 C 0.04865 0.45945 0.43357 0.0
C168 C 0.07575 0.49225 0.40258 0.0
C169 C 0.09685 0.51974 0.4153 0.0
C170 C 0.0942 0.51716 0.43695 0.0
C171 C 0.07015 0.48714 0.44606 0.0
H172 H 0.58127 0.94783 0.76647 0.0
H173 H 0.59651 0.06047 0.77776 0.0
H174 H 0.58864 0.98618 0.8294 0.0
H175 H 0.56619 0.05554 0.84187 0.0
C176 C 0.57023 0.06464 0.82539 0.0
O177 O 0.59695 0.05476 0.81813 0.0
H178 H 0.54618 0.05041 0.81667 0.0
C179 C 0.58378 0.96945 0.77736 0.0
C180 C 0.58384 0.96204 0.79889 0.0
C181 C 0.58852 1.00472 0.7696 0.0
C182 C 0.59296 0.03313 0.78356 0.0
C183 C 0.59259 0.02656 0.80505 0.0
C184 C 0.58851 0.99107 0.81275 0.0
H185 H 0.64302 0.50208 0.08958 0.0
H186 H 0.54137 0.506 0.09232 0.0
H187 H 0.59889 0.50383 0.14941 0.0
H188 H 0.50185 0.4594 0.14194 0.0
C189 C 0.50217 0.482 0.13096 0.0
O190 O 0.53601 0.50744 0.13207 0.0
H191 H 0.49775 0.46946 0.11535 0.0
C192 C 0.62215 0.50279 0.099 0.0
C193 C 0.6265 0.50306 0.12079 0.0
C194 C 0.59163 0.50301 0.0889 0.0
C195 C 0.56406 0.50437 0.1005 0.0
C196 C 0.56477 0.50387 0.12228 0.0
C197 C 0.5968 0.50319 0.13261 0.0
H198 H 0.1971 0.54916 0.12253 0.0
H199 H 0.25601 0.54919 0.12083 0.0
H200 H 0.23226 0.45385 0.1601 0.0
H201 H 0.17313 0.45358 0.16162 0.0
H202 H 0.2949 0.49412 0.17191 0.0
H203 H 0.24886 0.45849 0.10334 0.0
H204 H 0.22088 0.46517 0.06975 0.0
H205 H 0.30029 0.56507 0.05745 0.0
H206 H 0.32842 0.55936 0.09116 0.0
H207 H 0.45125 0.45431 0.15991 0.0
H208 H 0.39434 0.4582 0.16163 0.0
H209 H 0.41584 0.53736 0.11184 0.0
H210 H 0.47294 0.5315 0.10932 0.0
H211 H 0.35435 0.5078 0.10541 0.0
H212 H 0.39945 0.54769 0.17293 0.0
H213 H 0.42745 0.54633 0.20724 0.0
H214 H 0.35112 0.44552 0.22234 0.0
H215 H 0.32286 0.44609 0.18802 0.0
C216 C 0.20397 0.5279 0.13086 0.0
C217 C 0.17864 0.50129 0.14222 0.0
C218 C 0.23849 0.5278 0.12977 0.0
C219 C 0.25054 0.50126 0.1401 0.0
C220 C 0.22532 0.47501 0.15172 0.0
C221 C 0.19066 0.47479 0.15257 0.0
C222 C 0.28856 0.50088 0.13897 0.0
C223 C 0.30734 0.49663 0.15717 0.0
C224 C 0.30725 0.50534 0.12019 0.0
C225 C 0.29057 0.50867 0.09987 0.0
C226 C 0.26023 0.48202 0.09354 0.0
C227 C 0.24434 0.48563 0.07448 0.0
C228 C 0.25875 0.51557 0.0615 0.0
C229 C 0.28913 0.54192 0.06754 0.0
C230 C 0.30505 0.53852 0.08662 0.0
C231 C 0.4448 0.47373 0.14965 0.0
C232 C 0.46912 0.49375 0.13509 0.0
C233 C 0.41115 0.47606 0.15068 0.0
C234 C 0.39871 0.49912 0.13742 0.0
C235 C 0.42302 0.51935 0.12277 0.0
C236 C 0.4568 0.51655 0.12154 0.0
C237 C 0.36094 0.50089 0.13843 0.0
C238 C 0.34209 0.50532 0.1202 0.0
C239 C 0.34233 0.49733 0.15726 0.0
C240 C 0.35927 0.49675 0.17783 0.0
C241 C 0.38877 0.52512 0.18352 0.0
C242 C 0.40466 0.52451 0.20297 0.0
C243 C 0.39113 0.4958 0.21693 0.0
C244 C 0.36161 0.4677 0.21149 0.0
C245 C 0.34563 0.46817 0.19205 0.0
H246 H 0.40347 0.49537 0.23198 0.0
H247 H 0.24641 0.51832 0.04675 0.0
H248 H 0.77809 0.21198 0.50072 0.0
H249 H 0.8282 0.26597 0.49833 0.0
H250 H 0.87178 0.21103 0.45544 0.0
H251 H 0.82268 0.15646 0.45857 0.0
H252 H 0.91909 0.24899 0.48204 0.0
H253 H 0.82994 0.27244 0.43896 0.0
H254 H 0.7729 0.27779 0.43291 0.0
H255 H 0.79423 0.36062 0.47908 0.0
H256 H 0.85132 0.35549 0.48553 0.0
H257 H 1.03217 0.38795 0.42345 0.0
H258 H 0.98594 0.33682 0.43667 0.0
H259 H 0.95946 0.40816 0.47823 0.0
H260 H 1.00533 0.45981 0.46462 0.0
H261 H 0.90416 0.36511 0.45778 0.0
H262 H 0.99638 0.34748 0.49736 0.0
H263 H 0.05319 0.34175 0.50364 0.0
H264 H 1.02638 0.24801 0.46477 0.0
H265 H 0.96955 0.25347 0.458 0.0
C266 C 0.79855 0.21117 0.49103 0.0
C267 C 0.79615 0.17991 0.47969 0.0
C268 C 0.82707 0.24222 0.48952 0.0
C269 C 0.85356 0.24278 0.47645 0.0
C270 C 0.85162 0.21133 0.46556 0.0
C271 C 0.82329 0.18025 0.46718 0.0
C272 C 0.88294 0.27628 0.47349 0.0
C273 C 0.91584 0.27432 0.4766 0.0
C274 C 0.87874 0.3097 0.46706 0.0
C275 C 0.84474 0.31335 0.46286 0.0
C276 C 0.8224 0.29169 0.44787 0.0
C277 C 0.79008 0.29469 0.44437 0.0
C278 C 0.77992 0.31947 0.45564 0.0
C279 C 0.80212 0.34142 0.47037 0.0
C280 C 0.83448 0.33851 0.47394 0.0
C281 C 1.01656 0.39278 0.43543 0.0
C282 C 1.02235 0.42796 0.44294 0.0
C283 C 0.99032 0.36345 0.44312 0.0
C284 C 0.9694 0.36857 0.45859 0.0
C285 C 0.97537 0.40357 0.46635 0.0
C286 C 1.00174 0.43298 0.45868 0.0
C287 C 0.94035 0.33754 0.46579 0.0
C288 C 0.90749 0.33996 0.46349 0.0
C289 C 0.9446 0.30454 0.47298 0.0
C290 C 0.97875 0.30105 0.47705 0.0
C291 C 1.00267 0.3258 0.49002 0.0
C292 C 1.03487 0.32257 0.49369 0.0
C293 C 0.04341 0.29457 0.48458 0.0
C294 C 1.01974 0.26969 0.47181 0.0
C295 C 0.9875 0.27281 0.46807 0.0
H296 H 0.06836 0.29212 0.48745 0.0
H297 H 0.75487 0.32171 0.45293 0.0
H298 H 0.61888 0.65052 0.85404 0.0
H299 H 0.61786 0.71298 0.85065 0.0
H300 H 0.54341 0.68113 0.80044 0.0
H301 H 0.5451 0.61904 0.80333 0.0
H302 H 0.58867 0.74253 0.7904 0.0
H303 H 0.52265 0.69971 0.8505 0.0
H304 H 0.50979 0.67146 0.88527 0.0
H305 H 0.59477 0.75498 0.9118 0.0
H306 H 0.60833 0.78348 0.87711 0.0
H307 H 0.53849 0.89879 0.78443 0.0
H308 H 0.53742 0.83665 0.79205 0.0
H309 H 0.61931 0.87611 0.83721 0.0
H310 H 0.62054 0.9388 0.82957 0.0
H311 H 0.57154 0.8118 0.85041 0.0
H312 H 0.6354 0.85519 0.78881 0.0
H313 H 0.6448 0.88273 0.75368 0.0
H314 H 0.55987 0.79637 0.72953 0.0
H315 H 0.54962 0.76861 0.76459 0.0
C316 C 0.60224 0.65674 0.84228 0.0
C317 C 0.58191 0.62942 0.82906 0.0
C318 C 0.6015 0.69256 0.84044 0.0
C319 C 0.58022 0.70204 0.82545 0.0
C320 C 0.56005 0.6748 0.81217 0.0
C321 C 0.56089 0.63907 0.81394 0.0
C322 C 0.57954 0.74036 0.82322 0.0
C323 C 0.58448 0.75739 0.80353 0.0
C324 C 0.57476 0.76043 0.84031 0.0
C325 C 0.5667 0.74348 0.86119 0.0
C326 C 0.53873 0.71187 0.86373 0.0
C327 C 0.53129 0.69586 0.88342 0.0
C328 C 0.55152 0.71136 0.90073 0.0
C329 C 0.57916 0.74298 0.89838 0.0
C330 C 0.58671 0.75909 0.87871 0.0
C331 C 0.55618 0.89434 0.79611 0.0
C332 C 0.57993 0.924 0.80617 0.0
C333 C 0.55555 0.85868 0.80045 0.0
C334 C 0.57878 0.85151 0.81489 0.0
C335 C 0.60123 0.88082 0.8259 0.0
C336 C 0.60183 0.9167 0.82158 0.0
C337 C 0.5805 0.81372 0.8176 0.0
C338 C 0.57581 0.79687 0.83735 0.0
C339 C 0.58516 0.79361 0.80051 0.0
C340 C 0.59157 0.81 0.77936 0.0
C341 C 0.61859 0.8422 0.77603 0.0
C342 C 0.62408 0.85784 0.75613 0.0
C343 C 0.6029 0.84136 0.73939 0.0
C344 C 0.57624 0.80913 0.74251 0.0
C345 C 0.57059 0.79342 0.76239 0.0
H346 H 0.60718 0.85352 0.724 0.0
H347 H 0.54573 0.69892 0.91596 0.0
H348 H 0.93402 0.44863 0.14701 0.0
H349 H 0.87468 0.44779 0.14535 0.0
H350 H 0.90759 0.5613 0.12897 0.0
H351 H 0.967 0.56206 0.13044 0.0
H352 H 0.85542 0.55299 0.15275 0.0
H353 H 0.86335 0.48452 0.09418 0.0
H354 H 0.87447 0.43612 0.07454 0.0
H355 H 0.79969 0.35531 0.10924 0.0
H356 H 0.78875 0.40317 0.12956 0.0
H357 H 0.68704 0.56151 0.12314 0.0
H358 H 0.746 0.56215 0.12684 0.0
H359 H 0.71135 0.44663 0.13732 0.0
H360 H 0.65213 0.44619 0.13311 0.0
H361 H 0.76461 0.45569 0.11709 0.0
H362 H 0.75804 0.5243 0.17653 0.0
H363 H 0.74695 0.57299 0.19596 0.0
H364 H 0.81877 0.65346 0.15923 0.0
H365 H 0.83001 0.60523 0.13943 0.0
C366 C 0.92906 0.47365 0.14293 0.0
C367 C 0.95704 0.50539 0.13879 0.0
C368 C 0.89422 0.47313 0.14185 0.0
C369 C 0.8845 0.50438 0.13673 0.0
C370 C 0.91255 0.53624 0.13294 0.0
C371 C 0.94738 0.53666 0.13373 0.0
C372 C 0.84609 0.50401 0.13545 0.0
C373 C 0.83599 0.53167 0.14464 0.0
C374 C 0.81866 0.47641 0.12543 0.0
C375 C 0.82557 0.44746 0.1136 0.0
C376 C 0.84959 0.45641 0.09784 0.0
C377 C 0.85585 0.42906 0.08658 0.0
C378 C 0.83795 0.39264 0.09076 0.0
C379 C 0.81372 0.38351 0.10618 0.0
C380 C 0.8075 0.41074 0.11758 0.0
C381 C 0.69155 0.53621 0.12711 0.0
C382 C 0.66306 0.50412 0.12894 0.0
C383 C 0.72622 0.53649 0.12915 0.0
C384 C 0.73544 0.50455 0.13298 0.0
C385 C 0.7069 0.47232 0.13464 0.0
C386 C 0.67214 0.4721 0.1326 0.0
C387 C 0.77382 0.50459 0.13451 0.0
C388 C 0.78397 0.47691 0.1253 0.0
C389 C 0.80131 0.53213 0.14456 0.0
C390 C 0.79459 0.56116 0.15636 0.0
C391 C 0.7713 0.55239 0.17251 0.0
C392 C 0.76501 0.5799 0.1836 0.0
C393 C 0.78207 0.6163 0.17879 0.0
C394 C 0.80553 0.62526 0.16292 0.0
C395 C 0.81188 0.59785 0.15176 0.0
H396 H 0.77717 0.63756 0.1874 0.0
H397 H 0.84274 0.3715 0.08198 0.0
H398 H 0.36031 0.86543 0.48199 0.0
H399 H 0.31128 0.81368 0.47177 0.0
H400 H 0.32416 0.7564 0.52806 0.0
H401 H 0.37364 0.80798 0.53826 0.0
H402 H 0.31179 0.71273 0.49345 0.0
H403 H 0.26312 0.794 0.52499 0.0
H404 H 0.25376 0.85251 0.53046 0.0
H405 H 0.21642 0.85257 0.46739 0.0
H406 H 0.22603 0.79427 0.46144 0.0
H407 H 0.14876 0.57628 0.48946 0.0
H408 H 0.19971 0.62619 0.49985 0.0
H409 H 0.18713 0.6872 0.44499 0.0
H410 H 0.13621 0.63739 0.43466 0.0
H411 H 0.19947 0.72869 0.47945 0.0
H412 H 0.24821 0.64769 0.44776 0.0
H413 H 0.25781 0.58936 0.44205 0.0
H414 H 0.29511 0.58879 0.5051 0.0
H415 H 0.28527 0.6469 0.51128 0.0
C416 C 0.35288 0.84172 0.49213 0.0
C417 C 0.37083 0.84083 0.51096 0.0
C418 C 0.32471 0.81227 0.48634 0.0
C419 C 0.31389 0.7813 0.49924 0.0
C420 C 0.33203 0.78007 0.5179 0.0
C421 C 0.36011 0.80964 0.52378 0.0
C422 C 0.28351 0.75035 0.49325 0.0
C423 C 0.28711 0.71606 0.49068 0.0
C424 C 0.25149 0.75491 0.48918 0.0
C425 C 0.24562 0.78994 0.49271 0.0
C426 C 0.25319 0.80663 0.51223 0.0
C427 C 0.24778 0.83973 0.51543 0.0
C428 C 0.23459 0.85629 0.49927 0.0
C429 C 0.22669 0.83973 0.47989 0.0
C430 C 0.23208 0.80664 0.4766 0.0
C431 C 0.15705 0.60037 0.47965 0.0
C432 C 0.13852 0.60321 0.46139 0.0
C433 C 0.18614 0.62875 0.48552 0.0
C434 C 0.19732 0.6604 0.47315 0.0
C435 C 0.17893 0.6631 0.4548 0.0
C436 C 0.14992 0.63467 0.4489 0.0
C437 C 0.22772 0.69103 0.47955 0.0
C438 C 0.22413 0.72529 0.48223 0.0
C439 C 0.25972 0.68642 0.48369 0.0
C440 C 0.26565 0.65146 0.48004 0.0
C441 C 0.25817 0.63497 0.46046 0.0
C442 C 0.26371 0.60197 0.45713 0.0
C443 C 0.27697 0.58533 0.47322 0.0
C444 C 0.28479 0.60169 0.49266 0.0
C445 C 0.27926 0.63467 0.49608 0.0
H446 H 0.28126 0.55979 0.47061 0.0
H447 H 0.23041 0.88192 0.50178 0.0
H448 H 0.54068 0.38401 0.81003 0.0
H449 H 0.54281 0.32228 0.80895 0.0
H450 H 0.62512 0.34905 0.85457 0.0
H451 H 0.6237 0.4116 0.85536 0.0
H452 H 0.63733 0.30764 0.82575 0.0
H453 H 0.54213 0.29805 0.86727 0.0
H454 H 0.48815 0.30663 0.87622 0.0
H455 H 0.43864 0.24488 0.82307 0.0
H456 H 0.49246 0.23634 0.81363 0.0
H457 H 0.61679 0.11827 0.84815 0.0
H458 H 0.62256 0.18314 0.84939 0.0
H459 H 0.54436 0.16767 0.80146 0.0
H460 H 0.53862 0.10307 0.80025 0.0
H461 H 0.53167 0.20363 0.83356 0.0
H462 H 0.62844 0.21389 0.7923 0.0
H463 H 0.68292 0.20575 0.78412 0.0
H464 H 0.72995 0.26597 0.83829 0.0
H465 H 0.67559 0.27398 0.84698 0.0
C466 C 0.55923 0.37694 0.81995 0.0
C467 C 0.58184 0.40301 0.83293 0.0
C468 C 0.56033 0.34135 0.81935 0.0
C469 C 0.58372 0.33044 0.83194 0.0
C470 C 0.6067 0.35652 0.84474 0.0
C471 C 0.60577 0.39235 0.84524 0.0
C472 C 0.58392 0.29188 0.83163 0.0
C473 C 0.6143 0.28492 0.8278 0.0
C474 C 0.55388 0.26192 0.83397 0.0
C475 C 0.52141 0.26682 0.83965 0.0
C476 C 0.51979 0.28651 0.85741 0.0
C477 C 0.48921 0.29134 0.86258 0.0
C478 C 0.46 0.27638 0.8502 0.0
C479 C 0.4613 0.25648 0.83264 0.0
C480 C 0.49182 0.2516 0.82738 0.0
C481 C 0.60133 0.12895 0.83763 0.0
C482 C 0.57724 0.10553 0.82413 0.0
C483 C 0.6046 0.16605 0.83834 0.0
C484 C 0.58388 0.18058 0.82552 0.0
C485 C 0.56057 0.15731 0.81159 0.0
C486 C 0.55741 0.12035 0.81082 0.0
C487 C 0.58494 0.21934 0.82736 0.0
C488 C 0.55474 0.22633 0.83157 0.0
C489 C 0.6152 0.2492 0.82555 0.0
C490 C 0.64782 0.24415 0.82043 0.0
C491 C 0.6503 0.22507 0.80259 0.0
C492 C 0.68119 0.22054 0.79784 0.0
C493 C 0.70985 0.23523 0.81071 0.0
C494 C 0.70771 0.25453 0.82835 0.0
C495 C 0.67687 0.25908 0.8332 0.0
H496 H 0.73375 0.23174 0.80699 0.0
H497 H 0.43636 0.28015 0.85423 0.0
H498 H 0.63642 0.91161 0.50028 0.0
H499 H 0.6371 0.84891 0.50273 0.0
H500 H 0.53905 0.81592 0.53066 0.0
H501 H 0.53824 0.87838 0.52843 0.0
H502 H 0.58078 0.78664 0.55152 0.0
H503 H 0.54927 0.79702 0.47947 0.0
H504 H 0.55613 0.82416 0.44419 0.0
H505 H 0.65098 0.80373 0.43955 0.0
H506 H 0.64491 0.7769 0.47494 0.0
H507 H 0.53731 0.59816 0.54847 0.0
H508 H 0.537 0.65959 0.53974 0.0
H509 H 0.63473 0.6835 0.51203 0.0
H510 H 0.63458 0.62131 0.52036 0.0
H511 H 0.59644 0.71826 0.4907 0.0
H512 H 0.62816 0.7071 0.56199 0.0
H513 H 0.62202 0.67954 0.59716 0.0
H514 H 0.52875 0.7026 0.60358 0.0
H515 H 0.53398 0.72968 0.56827 0.0
C516 C 0.61492 0.89105 0.5069 0.0
C517 C 0.58726 0.90034 0.51413 0.0
C518 C 0.61529 0.85505 0.50821 0.0
C519 C 0.58799 0.82735 0.51673 0.0
C520 C 0.56045 0.83661 0.52401 0.0
C521 C 0.56001 0.8725 0.52266 0.0
C522 C 0.58822 0.7889 0.51851 0.0
C523 C 0.58378 0.77163 0.53814 0.0
C524 C 0.5932 0.76936 0.50124 0.0
C525 C 0.5968 0.7853 0.47993 0.0
C526 C 0.57172 0.79857 0.47099 0.0
C527 C 0.57544 0.81385 0.45096 0.0
C528 C 0.60401 0.81576 0.43966 0.0
C529 C 0.62888 0.80228 0.44834 0.0
C530 C 0.6253 0.78701 0.46837 0.0
C531 C 0.55832 0.61622 0.54002 0.0
C532 C 0.58595 0.6049 0.53508 0.0
C533 C 0.55829 0.6515 0.53519 0.0
C534 C 0.58624 0.67672 0.52568 0.0
C535 C 0.61293 0.66475 0.51948 0.0
C536 C 0.61279 0.62915 0.52414 0.0
C537 C 0.58839 0.71591 0.52364 0.0
C538 C 0.59346 0.73333 0.50406 0.0
C539 C 0.58423 0.73578 0.54099 0.0
C540 C 0.58133 0.72015 0.5624 0.0
C541 C 0.60624 0.70611 0.57085 0.0
C542 C 0.60292 0.69057 0.59081 0.0
C543 C 0.57499 0.68927 0.60258 0.0
C544 C 0.55036 0.7036 0.59443 0.0
C545 C 0.55349 0.71905 0.57445 0.0
H546 H 0.57245 0.67721 0.61803 0.0
H547 H 0.60685 0.8276 0.42416 0.0
H548 H 0.79193 0.50428 0.82906 0.0
H549 H 0.84495 0.49056 0.827 0.0
H550 H 0.82626 0.43453 0.88631 0.0
H551 H 0.773 0.44837 0.88842 0.0
H552 H 0.88351 0.49273 0.88623 0.0
H553 H 0.83581 0.38888 0.8447 0.0
H554 H 0.80182 0.35236 0.81605 0.0
H555 H 0.86579 0.42376 0.77144 0.0
H556 H 0.8999 0.46108 0.79981 0.0
H557 H 0.04964 0.49151 0.88947 0.0
H558 H 0.98908 0.45985 0.88432 0.0
H559 H 0.987 0.52656 0.83011 0.0
H560 H 0.04738 0.55972 0.83573 0.0
H561 H 0.93853 0.45036 0.82945 0.0
H562 H 0.97952 0.55883 0.87022 0.0
H563 H 1.01209 0.5981 0.89822 0.0
H564 H 0.95518 0.52298 0.94389 0.0
H565 H 0.92452 0.48142 0.91617 0.0
C566 C 0.79873 0.48816 0.84137 0.0
C567 C 0.77886 0.47784 0.85905 0.0
C568 C 0.8288 0.47998 0.84007 0.0
C569 C 0.83948 0.46148 0.85649 0.0
C570 C 0.81828 0.44865 0.87343 0.0
C571 C 0.78798 0.45658 0.87464 0.0
C572 C 0.8753 0.4626 0.85782 0.0
C573 C 0.89539 0.48238 0.87418 0.0
C574 C 0.89077 0.45028 0.84162 0.0
C575 C 0.87034 0.42794 0.82443 0.0
C576 C 0.8425 0.397 0.82879 0.0
C577 C 0.82323 0.3761 0.81259 0.0
C578 C 0.83162 0.38576 0.79194 0.0
C579 C 0.85933 0.41631 0.78745 0.0
C580 C 0.87868 0.43731 0.80359 0.0
C581 C 1.03644 0.49909 0.87624 0.0
C582 C 0.05293 0.529 0.86345 0.0
C583 C 1.00197 0.48061 0.87318 0.0
C584 C 0.98365 0.49135 0.85706 0.0
C585 C 1.00088 0.51798 0.84264 0.0
C586 C 1.03535 0.53697 0.84591 0.0
C587 C 0.94638 0.4805 0.85783 0.0
C588 C 0.92633 0.45949 0.84182 0.0
C589 C 0.93074 0.49207 0.87426 0.0
C590 C 0.95046 0.51632 0.89102 0.0
C591 C 0.97484 0.54989 0.8862 0.0
C592 C 0.99304 0.57257 0.90206 0.0
C593 C 0.98622 0.56267 0.92285 0.0
C594 C 0.96113 0.5301 0.9278 0.0
C595 C 0.94359 0.50678 0.91201 0.0
H596 H 1.00004 0.58045 0.93512 0.0
H597 H 0.81667 0.36954 0.77942 0.0
H598 H 0.26388 0.68519 0.15772 0.0
H599 H 0.3158 0.73349 0.16776 0.0
H600 H 0.27686 0.81288 0.13789 0.0
H601 H 0.2243 0.76506 0.12843 0.0
H602 H 0.34496 0.82263 0.12876 0.0
H603 H 0.27474 0.8047 0.18876 0.0
H604 H 0.23973 0.76855 0.21672 0.0
H605 H 0.32465 0.73839 0.24059 0.0
H606 H 0.36005 0.77397 0.21258 0.0
H607 H 0.45536 0.98592 0.17104 0.0
H608 H 0.40711 0.93438 0.15959 0.0
H609 H 0.44262 0.86285 0.19973 0.0
H610 H 0.4903 0.91478 0.21178 0.0
H611 H 0.37784 0.84645 0.20321 0.0
H612 H 0.44917 0.86483 0.14487 0.0
H613 H 0.48512 0.89892 0.1167 0.0
H614 H 0.40041 0.92546 0.08928 0.0
H615 H 0.36404 0.89194 0.11745 0.0
C616 C 0.26605 0.71292 0.15344 0.0
C617 C 0.23953 0.72101 0.14231 0.0
C618 C 0.29594 0.74052 0.15911 0.0
C619 C 0.30017 0.77685 0.15369 0.0
C620 C 0.27422 0.78502 0.14218 0.0
C621 C 0.24418 0.7575 0.13668 0.0
C622 C 0.33137 0.80646 0.16031 0.0
C623 C 0.35201 0.82814 0.14503 0.0
C624 C 0.34113 0.81291 0.18153 0.0
C625 C 0.31993 0.79167 0.19844 0.0
C626 C 0.28587 0.79011 0.19987 0.0
C627 C 0.26596 0.76977 0.21574 0.0
C628 C 0.27992 0.7511 0.23039 0.0
C629 C 0.31385 0.75282 0.22922 0.0
C630 C 0.33385 0.77308 0.21335 0.0
C631 C 0.45315 0.95908 0.17715 0.0
C632 C 0.47724 0.95425 0.19179 0.0
C633 C 0.42558 0.92956 0.17056 0.0
C634 C 0.42147 0.89438 0.17838 0.0
C635 C 0.4453 0.88957 0.19326 0.0
C636 C 0.47275 0.91922 0.20001 0.0
C637 C 0.3916 0.86302 0.17164 0.0
C638 C 0.37109 0.84094 0.1869 0.0
C639 C 0.38219 0.85594 0.15037 0.0
C640 C 0.40396 0.87614 0.13339 0.0
C641 C 0.43827 0.87817 0.13292 0.0
C642 C 0.45871 0.89735 0.11694 0.0
C643 C 0.44507 0.91442 0.10124 0.0
C644 C 0.41094 0.91226 0.10147 0.0
C645 C 0.39039 0.89314 0.11743 0.0
H646 H 0.46094 0.92925 0.08888 0.0
H647 H 0.26448 0.73537 0.24267 0.0
H648 H 0.61421 0.14266 0.48982 0.0
H649 H 0.61523 0.20555 0.49221 0.0
H650 H 0.55669 0.17835 0.54778 0.0
H651 H 0.55435 0.11498 0.5449 0.0
H652 H 0.53336 0.22054 0.52588 0.0
H653 H 0.64741 0.22783 0.54628 0.0
H654 H 0.70319 0.21947 0.54265 0.0
H655 H 0.7199 0.28594 0.48726 0.0
H656 H 0.66398 0.29426 0.49037 0.0
H657 H 0.55672 0.40123 0.55576 0.0
H658 H 0.56244 0.34041 0.55537 0.0
H659 H 0.60869 0.36435 0.49552 0.0
H660 H 0.60308 0.42534 0.49599 0.0
H661 H 0.63934 0.32476 0.51989 0.0
H662 H 0.52499 0.31569 0.49908 0.0
H663 H 0.46932 0.3243 0.50265 0.0
H664 H 0.45394 0.26115 0.5593 0.0
H665 H 0.50977 0.25257 0.55621 0.0
C666 C 0.60158 0.15001 0.5026 0.0
C667 C 0.58422 0.12355 0.51719 0.0
C668 C 0.60241 0.18625 0.50405 0.0
C669 C 0.58664 0.19736 0.52043 0.0
C670 C 0.56918 0.17086 0.53498 0.0
C671 C 0.56788 0.13447 0.53334 0.0
C672 C 0.58739 0.23616 0.5221 0.0
C673 C 0.55674 0.24316 0.52493 0.0
C674 C 0.61762 0.26623 0.5203 0.0
C675 C 0.65133 0.26138 0.51846 0.0
C676 C 0.66287 0.24045 0.53324 0.0
C677 C 0.69453 0.23574 0.53128 0.0
C678 C 0.71504 0.25209 0.5147 0.0
C679 C 0.70396 0.27325 0.50007 0.0
C680 C 0.67229 0.27799 0.50193 0.0
C681 C 0.56848 0.39364 0.54265 0.0
C682 C 0.579 0.41788 0.52576 0.0
C683 C 0.5716 0.35877 0.54237 0.0
C684 C 0.58539 0.34728 0.52521 0.0
C685 C 0.59776 0.37229 0.50889 0.0
C686 C 0.59455 0.40717 0.50915 0.0
C687 C 0.58543 0.30881 0.52387 0.0
C688 C 0.61612 0.30196 0.521 0.0
C689 C 0.55532 0.27882 0.52568 0.0
C690 C 0.5217 0.28381 0.52753 0.0
C691 C 0.50985 0.30387 0.51238 0.0
C692 C 0.47825 0.30871 0.5143 0.0
C693 C 0.45814 0.29336 0.53122 0.0
C694 C 0.46956 0.27306 0.54622 0.0
C695 C 0.50117 0.26819 0.54439 0.0
H696 H 0.43368 0.29713 0.53268 0.0
H697 H 0.73954 0.24845 0.51323 0.0
H698 H 0.46955 0.64763 0.76971 0.0
H699 H 0.43023 0.68271 0.77056 0.0
H700 H 0.34697 0.58661 0.75501 0.0
H701 H 0.38567 0.55164 0.75424 0.0
H702 H 0.33265 0.65015 0.74363 0.0
H703 H 0.37579 0.59633 0.80689 0.0
H704 H 0.42459 0.59319 0.82892 0.0
H705 H 0.45944 0.70928 0.83423 0.0
H706 H 0.41073 0.71298 0.8122 0.0
H707 H 0.20153 0.56603 0.80661 0.0
H708 H 0.24876 0.59455 0.78408 0.0
H709 H 0.28389 0.68577 0.82541 0.0
H710 H 0.23673 0.65638 0.84842 0.0
H711 H 0.33175 0.65943 0.82036 0.0
H712 H 0.26366 0.69854 0.77251 0.0
H713 H 0.21331 0.69729 0.75085 0.0
H714 H 0.22429 0.60978 0.7155 0.0
H715 H 0.27436 0.61002 0.73712 0.0
C716 C 0.44301 0.63436 0.76571 0.0
C717 C 0.43051 0.59661 0.76258 0.0
C718 C 0.42064 0.65451 0.76603 0.0
C719 C 0.38561 0.637 0.76342 0.0
C720 C 0.37391 0.60067 0.75716 0.0
C721 C 0.39617 0.58057 0.75678 0.0
C722 C 0.36083 0.65198 0.77246 0.0
C723 C 0.33246 0.653 0.76035 0.0
C724 C 0.36128 0.65709 0.79419 0.0
C725 C 0.38984 0.65493 0.80792 0.0
C726 C 0.39382 0.62112 0.81285 0.0
C727 C 0.42144 0.61925 0.8253 0.0
C728 C 0.44511 0.65102 0.83295 0.0
C729 C 0.44109 0.68471 0.82828 0.0
C730 C 0.41346 0.68672 0.81585 0.0
C731 C 0.21884 0.59258 0.8106 0.0
C732 C 0.21578 0.60898 0.82926 0.0
C733 C 0.24565 0.60918 0.79757 0.0
C734 C 0.26977 0.64266 0.80285 0.0
C735 C 0.2655 0.66011 0.82092 0.0
C736 C 0.23869 0.64334 0.83405 0.0
C737 C 0.30222 0.65514 0.79171 0.0
C738 C 0.33215 0.65909 0.80351 0.0
C739 C 0.30304 0.65476 0.76972 0.0
C740 C 0.27294 0.65441 0.75647 0.0
C741 C 0.25529 0.6789 0.76018 0.0
C742 C 0.22677 0.67837 0.74789 0.0
C743 C 0.21564 0.6535 0.73179 0.0
C744 C 0.23301 0.6291 0.72794 0.0
C745 C 0.26154 0.62951 0.74018 0.0
H746 H 0.19354 0.65312 0.72231 0.0
H747 H 0.46653 0.6495 0.84251 0.0
H748 H 0.8939 0.26385 0.15319 0.0
H749 H 0.83919 0.2183 0.16024 0.0
H750 H 0.83115 0.27567 0.21531 0.0
H751 H 0.88638 0.32089 0.20864 0.0
H752 H 0.81369 0.20435 0.22333 0.0
H753 H 0.78347 0.27927 0.17194 0.0
H754 H 0.78698 0.31304 0.13879 0.0
H755 H 0.76431 0.21368 0.10511 0.0
H756 H 0.76101 0.17929 0.13818 0.0
H757 H 0.64073 0.11509 0.2415 0.0
H758 H 0.69294 0.16212 0.23174 0.0
H759 H 0.70354 0.09682 0.18089 0.0
H760 H 0.65125 0.04908 0.19078 0.0
H761 H 0.71945 0.17151 0.17047 0.0
H762 H 0.74877 0.09713 0.22414 0.0
H763 H 0.74223 0.06603 0.25835 0.0
H764 H 0.76428 0.16835 0.2888 0.0
H765 H 0.77053 0.20005 0.25473 0.0
C766 C 0.88061 0.26672 0.16687 0.0
C767 C 0.89462 0.29609 0.18035 0.0
C768 C 0.84913 0.24079 0.17079 0.0
C769 C 0.83081 0.24363 0.18823 0.0
C770 C 0.84473 0.27288 0.20174 0.0
C771 C 0.8762 0.29891 0.1978 0.0
C772 C 0.79742 0.21579 0.19251 0.0
C773 C 0.793 0.19753 0.21184 0.0
C774 C 0.77046 0.20635 0.17746 0.0
C775 C 0.77237 0.22677 0.15752 0.0
C776 C 0.77952 0.26465 0.15746 0.0
C777 C 0.78141 0.2839 0.13868 0.0
C778 C 0.77601 0.26556 0.11982 0.0
C779 C 0.76856 0.22787 0.11973 0.0
C780 C 0.76663 0.20847 0.13849 0.0
C781 C 0.65413 0.11059 0.22824 0.0
C782 C 0.64204 0.07796 0.21714 0.0
C783 C 0.68395 0.13762 0.22264 0.0
C784 C 0.70248 0.13276 0.2058 0.0
C785 C 0.6897 0.10108 0.194 0.0
C786 C 0.65977 0.07386 0.19963 0.0
C787 C 0.73587 0.16016 0.20122 0.0
C788 C 0.74027 0.17829 0.18188 0.0
C789 C 0.76268 0.16982 0.21636 0.0
C790 C 0.75987 0.15093 0.23687 0.0
C791 C 0.75208 0.11299 0.23812 0.0
C792 C 0.74843 0.09525 0.25749 0.0
C793 C 0.75277 0.11519 0.27573 0.0
C794 C 0.76092 0.15294 0.27465 0.0
C795 C 0.76457 0.17081 0.25532 0.0
H796 H 0.74987 0.1014 0.29071 0.0
H797 H 0.7775 0.28053 0.10528 0.0
H798 H 0.11426 0.46846 0.08445 0.0
H799 H 0.13326 0.49392 0.05 0.0
H800 H 0.05888 0.54968 0.04838 0.0
H801 H 0.04037 0.52513 0.08301 0.0
H802 H 0.06173 0.50131 0.01237 0.0
H803 H 0.13131 0.59669 0.05812 0.0
H804 H 0.17371 0.61789 0.08661 0.0
H805 H 0.24728 0.58924 0.05197 0.0
H806 H 0.20491 0.56624 0.02362 0.0
H807 H 0.08565 0.60763 0.92512 0.0
H808 H 0.08503 0.59748 0.96273 0.0
H809 H 0.17523 0.56629 0.95996 0.0
H810 H 0.17587 0.57633 0.92215 0.0
H811 H 0.16981 0.59916 -0.00164 0.0
H812 H 0.10802 0.50599 0.95356 0.0
H813 H 0.06879 0.47489 0.92539 0.0
H814 H 0.98474 0.48526 0.9584 0.0
H815 H 1.0237 0.51928 0.98595 0.0
C816 C 0.10196 0.4861 0.07669 0.0
C817 C 0.0757 0.49471 0.08619 0.0
C818 C 0.11298 0.50075 0.05716 0.0
C819 C 0.09752 0.5237 0.04685 0.0
C820 C 0.07112 0.53207 0.05624 0.0
C821 C 0.06055 0.51802 0.07592 0.0
C822 C 0.10762 0.53779 0.02579 0.0
C823 C 0.08506 0.52309 0.00926 0.0
C824 C 0.13908 0.56464 0.0219 0.0
C825 C 0.16472 0.57926 0.03882 0.0
C826 C 0.15636 0.59439 0.05667 0.0
C827 C 0.1804 0.60674 0.07282 0.0
C828 C 0.21311 0.60475 0.07116 0.0
C829 C 0.22187 0.59049 0.05331 0.0
C830 C 0.19782 0.57772 0.03721 0.0
C831 C 0.10604 0.59991 0.93265 0.0
C832 C 0.13048 0.59215 0.9208 0.0
C833 C 0.10568 0.59414 0.9541 0.0
C834 C 0.12965 0.58037 0.96397 0.0
C835 C 0.15649 0.57681 0.95256 0.0
C836 C 0.15685 0.58259 0.931 0.0
C837 C 0.12297 0.56393 0.98498 0.0
C838 C 0.1463 0.57764 0.00143 0.0
C839 C 0.09264 0.53511 0.98879 0.0
C840 C 0.06906 0.51609 0.97168 0.0
C841 C 0.08132 0.5028 0.95453 0.0
C842 C 0.05908 0.48473 0.93859 0.0
C843 C 1.02431 0.47879 0.93985 0.0
C844 C 1.01174 0.49081 0.95712 0.0
C845 C 1.03395 0.50973 0.97285 0.0
H846 H 1.00706 0.46449 0.9276 0.0
H847 H 0.23169 0.61438 0.08368 0.0
H848 H 0.51744 0.02572 0.44615 0.0
H849 H 0.52322 0.02491 0.40848 0.0
H850 H 0.6115 0.99061 0.41767 0.0
H851 H 0.60585 0.99145 0.4555 0.0
H852 H 0.61958 0.04397 0.38677 0.0
H853 H 0.53765 0.92923 0.40484 0.0
H854 H 0.48584 0.88961 0.42121 0.0
H855 H 0.42527 0.93931 0.38356 0.0
H856 H 0.4768 0.9796 0.36718 0.0
H857 H 0.62613 0.99878 0.28161 0.0
H858 H 0.62272 0.99437 0.31956 0.0
H859 H 0.5255 0.01206 0.31532 0.0
H860 H 0.52822 0.01464 0.27731 0.0
H861 H 0.52354 0.96499 0.34433 0.0
H862 H 0.60383 0.08141 0.32728 0.0
H863 H 0.65481 0.12263 0.31082 0.0
H864 H 0.71751 0.07279 0.34641 0.0
H865 H 0.66683 0.0309 0.36286 0.0
C866 C 0.53818 0.01818 0.44015 0.0
C867 C 0.56107 1.00842 0.45372 0.0
C868 C 0.5414 0.01762 0.41863 0.0
C869 C 0.56752 1.00723 0.41026 0.0
C870 C 0.5911 0.9986 0.4238 0.0
C871 C 0.58781 0.99902 0.44537 0.0
C872 C 0.5696 1.0046 0.38739 0.0
C873 C 0.59882 0.02634 0.37749 0.0
C874 C 0.54218 0.98218 0.37526 0.0
C875 C 0.51112 0.95763 0.3849 0.0
C876 C 0.51331 0.93187 0.40015 0.0
C877 C 0.48399 0.90927 0.40942 0.0
C878 C 0.45229 0.912 0.40346 0.0
C879 C 0.44984 0.93725 0.38817 0.0
C880 C 0.47909 0.95994 0.37887 0.0
C881 C 0.60391 1.00131 0.28885 0.0
C882 C 0.57747 1.00715 0.27664 0.0
C883 C 0.60207 0.99907 0.31052 0.0
C884 C 0.57424 1.0038 0.32042 0.0
C885 C 0.5473 1.00845 0.30812 0.0
C886 C 0.54882 1.00991 0.28642 0.0
C887 C 0.57343 1.00471 0.34353 0.0
C888 C 0.54443 0.9826 0.35353 0.0
C889 C 0.60093 0.02712 0.35571 0.0
C890 C 0.6315 0.0528 0.34616 0.0
C891 C 0.62848 0.07913 0.33152 0.0
C892 C 0.65732 0.10261 0.32219 0.0
C893 C 0.68937 0.10027 0.32753 0.0
C894 C 0.69266 0.07454 0.34227 0.0
C895 C 0.66389 0.05094 0.35162 0.0
H896 H 0.71166 0.11845 0.32027 0.0
H897 H 0.42962 0.8945 0.41067 0.0
H898 H 0.6458 0.58492 0.77294 0.0
H899 H 0.63989 0.5842 0.73487 0.0
H900 H 0.57386 0.47316 0.73766 0.0
H901 H 0.57964 0.47376 0.77569 0.0
H902 H 0.62259 0.4849 0.70753 0.0
H903 H 0.54026 0.53696 0.72938 0.0
H904 H 0.52022 0.57965 0.74874 0.0
H905 H 0.58601 0.66927 0.71448 0.0
H906 H 0.60722 0.62722 0.69528 0.0
H907 H 0.56267 0.4776 0.60188 0.0
H908 H 0.56493 0.47502 0.63995 0.0
H909 H 0.62724 0.58755 0.64138 0.0
H910 H 0.62547 0.59026 0.60343 0.0
H911 H 0.57748 0.57302 0.66964 0.0
H912 H 0.66214 0.52099 0.64956 0.0
H913 H 0.68346 0.47834 0.63104 0.0
H914 H 0.61257 0.38832 0.66227 0.0
H915 H 0.5905 0.43045 0.68077 0.0
C916 C 0.63015 0.56036 0.7654 0.0
C917 C 0.61309 0.52945 0.77719 0.0
C918 C 0.62669 0.56 0.7437 0.0
C919 C 0.60623 0.52869 0.73349 0.0
C920 C 0.58973 0.49757 0.74525 0.0
C921 C 0.59296 0.49801 0.76694 0.0
C922 C 0.60186 0.52854 0.71053 0.0
C923 C 0.61227 0.5038 0.69924 0.0
C924 C 0.58882 0.55358 0.69977 0.0
C925 C 0.57561 0.57892 0.71101 0.0
C926 C 0.55069 0.56579 0.72607 0.0
C927 C 0.53908 0.58987 0.73701 0.0
C928 C 0.55181 0.62713 0.73284 0.0
C929 C 0.57618 0.64039 0.7177 0.0
C930 C 0.58804 0.61645 0.70679 0.0
C931 C 0.5771 0.50169 0.61029 0.0
C932 C 0.59386 0.53413 0.59958 0.0
C933 C 0.57826 0.50023 0.63205 0.0
C934 C 0.59638 0.53107 0.64351 0.0
C935 C 0.61293 0.56349 0.63287 0.0
C936 C 0.61183 0.56498 0.61115 0.0
C937 C 0.59855 0.52959 0.66659 0.0
C938 C 0.58766 0.55401 0.67792 0.0
C939 C 0.61108 0.5042 0.67741 0.0
C940 C 0.62442 0.47885 0.66638 0.0
C941 C 0.65092 0.49208 0.65235 0.0
C942 C 0.66317 0.46801 0.64188 0.0
C943 C 0.64931 0.43063 0.64543 0.0
C944 C 0.62324 0.41727 0.65951 0.0
C945 C 0.61086 0.44123 0.67 0.0
H946 H 0.65883 0.41204 0.63731 0.0
H947 H 0.54277 0.64571 0.74134 0.0
H948 H 0.6661 0.0647 0.5768 0.0
H949 H 0.66006 0.06405 0.61449 0.0
H950 H 0.55488 0.99849 0.60719 0.0
H951 H 0.56058 1.00057 0.56935 0.0
H952 H 0.55991 0.04523 0.63597 0.0
H953 H 0.61954 0.96202 0.62266 0.0
H954 H 0.66436 0.9414 0.60847 0.0
H955 H 0.73998 0.02155 0.64416 0.0
H956 H 0.69562 0.04298 0.65836 0.0
H957 H 0.54289 0.96891 0.73963 0.0
H958 H 0.547 0.97791 0.70181 0.0
H959 H 0.64169 0.06447 0.71044 0.0
H960 H 0.63744 0.05592 0.74831 0.0
H961 H 0.64211 1.00832 0.68154 0.0
H962 H 0.57858 0.08846 0.6959 0.0
H963 H 0.53134 0.10436 0.71051 0.0
H964 H 0.45989 0.02323 0.67309 0.0
H965 H 0.50671 1.00645 0.65849 0.0
C966 C 0.64167 0.05031 0.58327 0.0
C967 C 0.61387 0.03241 0.57024 0.0
C968 C 0.63826 0.04976 0.60481 0.0
C969 C 0.6072 0.03052 0.6138 0.0
C970 C 0.57915 0.01339 0.60069 0.0
C971 C 0.58242 0.01446 0.57909 0.0
C972 C 0.60415 0.02783 0.63682 0.0
C973 C 0.57768 0.03674 0.64587 0.0
C974 C 0.62755 0.01719 0.64989 0.0
C975 C 0.65429 1.00434 0.64141 0.0
C976 C 0.64575 0.97542 0.62737 0.0
C977 C 0.67107 0.96356 0.61934 0.0
C978 C 0.705 0.98022 0.62537 0.0
C979 C 0.71368 1.00871 0.63948 0.0
C980 C 0.68846 0.02071 0.64754 0.0
C981 C 0.56442 0.99004 0.73342 0.0
C982 C 0.58984 0.01177 0.74684 0.0
C983 C 0.56668 0.99522 0.71188 0.0
C984 C 0.5946 0.0219 0.70338 0.0
C985 C 0.61991 0.04381 0.71674 0.0
C986 C 0.61738 0.03904 0.73831 0.0
C987 C 0.59805 0.02581 0.68053 0.0
C988 C 0.62451 0.01696 0.67156 0.0
C989 C 0.57431 0.03581 0.66756 0.0
C990 C 0.54614 0.04595 0.67626 0.0
C991 C 0.55278 0.07377 0.69093 0.0
C992 C 0.52608 0.083 0.69918 0.0
C993 C 0.49263 0.06476 0.69277 0.0
C994 C 0.48582 0.03731 0.67806 0.0
C995 C 0.51243 0.02795 0.66978 0.0
H996 H 0.47199 0.07194 0.69917 0.0
H997 H 0.72457 0.97099 0.61914 0.0
H998 H 0.59383 0.55203 0.88941 0.0
H999 H 0.6013 0.55109 0.92727 0.0
H1000 H 0.51772 0.45111 0.93078 0.0
H1001 H 0.51016 0.45186 0.89274 0.0
H1002 H 0.51566 0.50204 0.96042 0.0
H1003 H 0.59657 0.44891 0.93531 0.0
H1004 H 0.6437 0.44824 0.91334 0.0
H1005 H 0.70845 0.54496 0.94257 0.0
H1006 H 0.66151 0.54662 0.96446 0.0
H1007 H 0.54076 0.45744 0.06524 0.0
H1008 H 0.53402 0.45609 0.02734 0.0
H1009 H 0.6276 0.54506 0.02236 0.0
H1010 H 0.63495 0.54555 0.06037 0.0
H1011 H 0.62473 0.49966 0.99302 0.0
H1012 H 0.54684 0.55621 0.01676 0.0
H1013 H 0.50049 0.56249 0.03758 0.0
H1014 H 0.43152 0.4661 0.01028 0.0
H1015 H 0.47759 0.45895 0.9895 0.0
C1016 C 0.577 0.52984 0.89824 0.0
C1017 C 0.55147 0.50192 0.88812 0.0
C1018 C 0.58137 0.5293 0.91988 0.0
C1019 C 0.56029 0.50085 0.93186 0.0
C1020 C 0.53431 0.47329 0.92183 0.0
C1021 C 0.53006 0.47369 0.90012 0.0
C1022 C 0.56557 0.49984 0.95484 0.0
C1023 C 0.5393 0.50094 0.96759 0.0
C1024 C 0.59686 0.49966 0.96414 0.0
C1025 C 0.62542 0.49804 0.95143 0.0
C1026 C 0.6208 0.47015 0.93699 0.0
C1027 C 0.64748 0.4696 0.92454 0.0
C1028 C 0.67903 0.49658 0.92654 0.0
C1029 C 0.68399 0.5241 0.94103 0.0
C1030 C 0.65736 0.52484 0.95348 0.0
C1031 C 0.55988 0.47671 0.05604 0.0
C1032 C 0.58825 0.50179 0.06578 0.0
C1033 C 0.55597 0.47602 0.03435 0.0
C1034 C 0.57991 0.50099 0.02187 0.0
C1035 C 0.60869 0.52556 0.03157 0.0
C1036 C 0.61288 0.52587 0.0533 0.0
C1037 C 0.57467 0.50168 -0.00123 0.0
C1038 C 0.601 0.50062 0.98595 0.0
C1039 C 0.54359 0.50252 0.98936 0.0
C1040 C 0.51576 0.50685 0.00173 0.0
C1041 C 0.52184 0.53621 0.0153 0.0
C1042 C 0.49562 0.53994 0.02708 0.0
C1043 C 0.4631 0.51466 0.0253 0.0
C1044 C 0.45673 0.48564 0.01167 0.0
C1045 C 0.48288 0.48174 -0.00012 0.0
H1046 H 0.44283 0.51759 0.03443 0.0
H1047 H 0.69966 0.49612 0.91689 0.0
H1048 H 0.09106 0.4747 0.2014 0.0
H1049 H 0.09313 0.46617 0.23932 0.0
H1050 H 0.06598 0.56297 0.24735 0.0
H1051 H 0.0633 0.57129 0.20959 0.0
H1052 H 0.12219 0.55835 0.27297 0.0
H1053 H 1.00749 0.48587 0.25258 0.0
H1054 H 0.96638 0.43805 0.23185 0.0
H1055 H 1.00817 0.35867 0.25821 0.0
H1056 H 0.04996 0.40617 0.27884 0.0
H1057 H 0.07684 0.55025 0.37762 0.0
H1058 H 0.0787 0.5542 0.33968 0.0
H1059 H 0.08234 0.44466 0.33783 0.0
H1060 H 0.07933 0.44029 0.37581 0.0
H1061 H 0.04137 0.45271 0.30849 0.0
H1062 H 0.15395 0.5211 0.32976 0.0
H1063 H 0.19899 0.56731 0.34913 0.0
H1064 H 0.16634 0.65171 0.32042 0.0
H1065 H 0.12077 0.60596 0.30108 0.0
C1066 C 0.08543 0.49404 0.21128 0.0
C1067 C 0.07689 0.52357 0.20261 0.0
C1068 C 0.08664 0.48916 0.23288 0.0
C1069 C 0.07965 0.51394 0.24607 0.0
C1070 C 0.07153 0.54363 0.23741 0.0
C1071 C 0.06989 0.54825 0.21586 0.0
C1072 C 0.08045 0.50895 0.26894 0.0
C1073 C 0.10437 0.53547 0.28081 0.0
C1074 C 0.05792 0.4784 0.27898 0.0
C1075 C 1.03208 0.44965 0.26709 0.0
C1076 C 1.00805 0.45826 0.25386 0.0
C1077 C 0.98462 0.43121 0.24213 0.0
C1078 C 0.98473 0.39536 0.24366 0.0
C1079 C 1.00815 0.38646 0.25702 0.0
C1080 C 1.03171 0.41343 0.26874 0.0
C1081 C 0.07832 0.52715 0.3691 0.0
C1082 C 0.07813 0.49505 0.37963 0.0
C1083 C 0.07945 0.52942 0.34742 0.0
C1084 C 0.08124 0.49993 0.33584 0.0
C1085 C 0.08099 0.46778 0.34637 0.0
C1086 C 0.07933 0.46532 0.36805 0.0
C1087 C 0.08287 0.50256 0.31276 0.0
C1088 C 0.05943 0.47555 0.30077 0.0
C1089 C 0.10629 0.5324 0.30256 0.0
C1090 C 0.13375 0.56005 0.3141 0.0
C1091 C 0.15621 0.5495 0.32768 0.0
C1092 C 0.18186 0.57561 0.33864 0.0
C1093 C 0.18547 0.61241 0.33604 0.0
C1094 C 0.16349 0.62319 0.32243 0.0
C1095 C 0.13776 0.59718 0.31145 0.0
H1096 H 0.20535 0.63259 0.34454 0.0
H1097 H 0.96663 0.37448 0.23452 0.0
loop_
_geom_bond_atom_site_label_1
_geom_bond_atom_site_label_2
_geom_bond_distance
_geom_bond_site_symmetry_2
_ccdc_geom_bond_type
Nd0 C2 2.836 . S
Nd0 O20 2.500 . S
Nd0 O21 2.492 . S
Nd0 O22 2.487 . S
Nd0 O23 2.687 . S
Nd0 O24 2.410 . S
Nd0 O29 2.414 . S
Nd0 O31 2.424 1_455 S
Nd1 C11 2.836 . S
Nd1 O23 2.418 1_655 S
Nd1 O25 2.424 1_655 S
Nd1 O26 2.500 . S
Nd1 O27 2.492 . S
Nd1 O28 2.487 . S
Nd1 O29 2.682 1_655 S
Nd1 O30 2.410 . S
C2 Nd0 2.836 . S
C2 C3 1.498 . S
C2 O20 1.258 . S
C2 O21 1.239 . S
C3 C2 1.498 . S
C3 C4 1.366 . S
C3 C8 1.407 . S
C4 C3 1.366 . S
C4 C5 1.392 . S
C4 H32 0.930 . S
C5 C4 1.392 . S
C5 C6 1.398 . S
C5 H33 0.929 . S
C6 C5 1.398 . S
C6 C7 1.352 . S
C7 C6 1.352 . S
C7 C8 1.384 . S
C7 H34 0.930 . S
C8 C3 1.407 . S
C8 C7 1.384 . S
C8 H35 0.929 . S
C9 O22 1.241 . S
C9 O23 1.276 . S
C10 O24 1.251 . S
C10 O25 1.268 . S
C11 Nd1 2.836 . S
C11 C12 1.498 . S
C11 O26 1.258 . S
C11 O27 1.239 . S
C12 C11 1.498 . S
C12 C13 1.366 . S
C12 C17 1.407 . S
C13 C12 1.366 . S
C13 C14 1.392 . S
C13 H36 0.930 . S
C14 C13 1.392 . S
C14 C15 1.398 . S
C14 H37 0.929 . S
C15 C14 1.398 . S
C15 C16 1.352 . S
C16 C15 1.352 . S
C16 C17 1.384 . S
C16 H38 0.930 . S
C17 C12 1.407 . S
C17 C16 1.384 . S
C17 H39 0.929 . S
C18 O28 1.241 1_455 S
C18 O29 1.273 . S
C19 O30 1.251 . S
C19 O31 1.268 . S
O20 Nd0 2.500 . S
O20 C2 1.258 . S
O21 Nd0 2.492 . S
O21 C2 1.239 . S
O22 Nd0 2.487 . S
O22 C9 1.241 . S
O23 Nd0 2.687 . S
O23 Nd1 2.418 1_455 S
O23 C9 1.276 . S
O24 Nd0 2.410 . S
O24 C10 1.251 . S
O25 Nd1 2.424 1_455 S
O25 C10 1.268 . S
O26 Nd1 2.500 . S
O26 C11 1.258 . S
O27 Nd1 2.492 . S
O27 C11 1.239 . S
O28 Nd1 2.487 . S
O28 C18 1.241 1_655 S
O29 Nd0 2.414 . S
O29 Nd1 2.682 1_455 S
O29 C18 1.273 . S
O30 Nd1 2.410 . S
O30 C19 1.251 . S
O31 Nd0 2.424 1_655 S
O31 C19 1.268 . S
H32 C4 0.930 . S
H33 C5 0.929 . S
H34 C7 0.930 . S
H35 C8 0.929 . S
H36 C13 0.930 . S
H37 C14 0.929 . S
H38 C16 0.930 . S
H39 C17 0.929 . S
Nd40 C42 2.836 . S
Nd40 O60 2.500 . S
Nd40 O61 2.492 . S
Nd40 O62 2.487 . S
Nd40 O63 2.682 1_565 S
Nd40 O64 2.410 . S
Nd40 O69 2.414 . S
Nd40 O71 2.424 1_565 S
Nd41 C51 2.836 . S
Nd41 O63 2.414 . S
Nd41 O65 2.424 1_545 S
Nd41 O66 2.500 . S
Nd41 O67 2.492 . S
Nd41 O68 2.487 . S
Nd41 O69 2.682 1_545 S
Nd41 O70 2.410 . S
C42 Nd40 2.836 . S
C42 C43 1.498 . S
C42 O60 1.258 . S
C42 O61 1.239 . S
C43 C42 1.498 . S
C43 C44 1.366 . S
C43 C48 1.407 . S
C44 C43 1.366 . S
C44 C45 1.392 . S
C44 H72 0.930 . S
C45 C44 1.392 . S
C45 C46 1.398 . S
C45 H73 0.929 . S
C46 C45 1.398 . S
C46 C47 1.352 . S
C47 C46 1.352 . S
C47 C48 1.384 . S
C47 H74 0.930 . S
C48 C43 1.407 . S
C48 C47 1.384 . S
C48 H75 0.929 . S
C49 O62 1.241 1_545 S
C49 O63 1.273 . S
C50 O64 1.251 . S
C50 O65 1.268 . S
C51 Nd41 2.836 . S
C51 C52 1.498 . S
C51 O66 1.258 . S
C51 O67 1.239 . S
C52 C51 1.498 . S
C52 C53 1.366 . S
C52 C57 1.407 . S
C53 C52 1.366 . S
C53 C54 1.392 . S
C53 H76 0.930 . S
C54 C53 1.392 . S
C54 C55 1.398 . S
C54 H77 0.929 . S
C55 C54 1.398 . S
C55 C56 1.352 . S
C56 C55 1.352 . S
C56 C57 1.384 . S
C56 H78 0.930 . S
C57 C52 1.407 . S
C57 C56 1.384 . S
C57 H79 0.929 . S
C58 O68 1.241 . S
C58 O69 1.273 1_545 S
C59 O70 1.251 . S
C59 O71 1.268 . S
O60 Nd40 2.500 . S
O60 C42 1.258 . S
O61 Nd40 2.492 . S
O61 C42 1.239 . S
O62 Nd40 2.487 . S
O62 C49 1.241 1_565 S
O63 Nd40 2.682 1_545 S
O63 Nd41 2.414 . S
O63 C49 1.273 . S
O64 Nd40 2.410 . S
O64 C50 1.251 . S
O65 Nd41 2.424 1_565 S
O65 C50 1.268 . S
O66 Nd41 2.500 . S
O66 C51 1.258 . S
O67 Nd41 2.492 . S
O67 C51 1.239 . S
O68 Nd41 2.487 . S
O68 C58 1.241 . S
O69 Nd40 2.414 . S
O69 Nd41 2.682 1_565 S
O69 C58 1.273 1_565 S
O70 Nd41 2.410 . S
O70 C59 1.251 . S
O71 Nd40 2.424 1_545 S
O71 C59 1.268 . S
H72 C44 0.930 . S
H73 C45 0.929 . S
H74 C47 0.930 . S
H75 C48 0.929 . S
H76 C53 0.930 . S
H77 C54 0.929 . S
H78 C56 0.930 . S
H79 C57 0.929 . S
Nd80 C82 2.836 . S
Nd80 O100 2.500 . S
Nd80 O101 2.492 . S
Nd80 O102 2.487 . S
Nd80 O103 2.682 . S
Nd80 O104 2.410 . S
Nd80 O109 2.414 . S
Nd80 O111 2.424 . S
Nd81 C91 2.836 . S
Nd81 O103 2.414 . S
Nd81 O105 2.424 . S
Nd81 O106 2.500 . S
Nd81 O107 2.492 . S
Nd81 O108 2.487 . S
Nd81 O109 2.682 . S
Nd81 O110 2.410 . S
C82 Nd80 2.836 . S
C82 C83 1.498 . S
C82 O100 1.258 . S
C82 O101 1.239 . S
C83 C82 1.498 . S
C83 C84 1.366 . S
C83 C88 1.407 . S
C84 C83 1.366 . S
C84 C85 1.392 . S
C84 H112 0.930 . S
C85 C84 1.392 . S
C85 C86 1.398 . S
C85 H113 0.929 . S
C86 C85 1.398 . S
C86 C87 1.352 . S
C87 C86 1.352 . S
C87 C88 1.384 . S
C87 H114 0.930 . S
C88 C83 1.407 . S
C88 C87 1.384 . S
C88 H115 0.929 . S
C89 O102 1.241 . S
C89 O103 1.273 . S
C90 O104 1.251 . S
C90 O105 1.268 . S
C91 Nd81 2.836 . S
C91 C92 1.498 . S
C91 O106 1.258 . S
C91 O107 1.239 . S
C92 C91 1.498 . S
C92 C93 1.366 . S
C92 C97 1.407 . S
C93 C92 1.366 . S
C93 C94 1.392 . S
C93 H116 0.930 . S
C94 C93 1.392 . S
C94 C95 1.398 . S
C94 H117 0.929 . S
C95 C94 1.398 . S
C95 C96 1.352 . S
C96 C95 1.352 . S
C96 C97 1.384 . S
C96 H118 0.930 . S
C97 C92 1.407 . S
C97 C96 1.384 . S
C97 H119 0.929 . S
C98 O108 1.241 . S
C98 O109 1.273 . S
C99 O110 1.251 . S
C99 O111 1.268 . S
O100 Nd80 2.500 . S
O100 C82 1.258 . S
O101 Nd80 2.492 . S
O101 C82 1.239 . S
O102 Nd80 2.487 . S
O102 C89 1.241 . S
O103 Nd80 2.682 . S
O103 Nd81 2.414 . S
O103 C89 1.273 . S
O104 Nd80 2.410 . S
O104 C90 1.251 . S
O105 Nd81 2.424 . S
O105 C90 1.268 . S
O106 Nd81 2.500 . S
O106 C91 1.258 . S
O107 Nd81 2.492 . S
O107 C91 1.239 . S
O108 Nd81 2.487 . S
O108 C98 1.241 . S
O109 Nd80 2.414 . S
O109 Nd81 2.682 . S
O109 C98 1.273 . S
O110 Nd81 2.410 . S
O110 C99 1.251 . S
O111 Nd80 2.424 . S
O111 C99 1.268 . S
H112 C84 0.930 . S
H113 C85 0.929 . S
H114 C87 0.930 . S
H115 C88 0.929 . S
H116 C93 0.930 . S
H117 C94 0.929 . S
H118 C96 0.930 . S
H119 C97 0.929 . S
H120 C127 0.929 . S
H121 C130 0.930 . S
H122 C132 0.929 . S
H123 C124 0.969 . S
C124 H123 0.969 . S
C124 O125 1.550 . S
C124 H126 0.973 . S
O125 C124 1.550 . S
O125 C131 1.412 . S
H126 C124 0.973 . S
C127 H120 0.929 . S
C127 C128 1.400 . S
C127 C129 1.364 . S
C128 C127 1.400 . S
C128 C132 1.377 . S
C129 C127 1.364 . S
C129 C130 1.374 1_545 S
C130 H121 0.930 . S
C130 C129 1.374 1_565 S
C130 C131 1.383 . S
C131 O125 1.412 . S
C131 C130 1.383 . S
C131 C132 1.394 1_565 S
C132 H122 0.929 . S
C132 C128 1.377 . S
C132 C131 1.394 1_545 S
H133 C140 0.929 . S
H134 C143 0.930 . S
H135 C145 0.929 . S
H136 C137 0.969 . S
C137 H136 0.969 . S
C137 O138 1.550 . S
C137 H139 0.973 . S
O138 C137 1.550 . S
O138 C144 1.412 . S
H139 C137 0.973 . S
C140 H133 0.929 . S
C140 C141 1.400 . S
C140 C142 1.364 . S
C141 C140 1.400 . S
C141 C145 1.377 . S
C142 C140 1.364 . S
C142 C143 1.374 . S
C143 H134 0.930 . S
C143 C142 1.374 . S
C143 C144 1.383 . S
C144 O138 1.412 . S
C144 C143 1.383 . S
C144 C145 1.394 . S
C145 H135 0.929 . S
C145 C141 1.377 . S
C145 C144 1.394 . S
H146 C153 0.929 . S
H147 C156 0.930 . S
H148 C158 0.929 . S
H149 C150 0.969 . S
C150 H149 0.969 . S
C150 O151 1.550 . S
C150 H152 0.973 . S
O151 C150 1.550 . S
O151 C157 1.412 . S
H152 C150 0.973 . S
C153 H146 0.929 . S
C153 C154 1.400 . S
C153 C155 1.364 . S
C154 C153 1.400 . S
C154 C158 1.377 . S
C155 C153 1.364 . S
C155 C156 1.374 . S
C156 H147 0.930 . S
C156 C155 1.374 . S
C156 C157 1.383 . S
C157 O151 1.412 . S
C157 C156 1.383 . S
C157 C158 1.394 . S
C158 H148 0.929 . S
C158 C154 1.377 . S
C158 C157 1.394 . S
H159 C166 0.926 1_655 S
H160 C169 0.930 . S
H161 C171 0.929 . S
H162 C163 0.969 . S
C163 H162 0.969 . S
C163 O164 1.550 . S
C163 H165 0.973 . S
O164 C163 1.550 . S
O164 C170 1.412 . S
H165 C163 0.973 . S
C166 H159 0.926 1_455 S
C166 C167 1.399 1_455 S
C166 C168 1.367 . S
C167 C166 1.399 1_655 S
C167 C171 1.377 1_655 S
C168 C166 1.367 . S
C168 C169 1.374 . S
C169 H160 0.930 . S
C169 C168 1.374 . S
C169 C170 1.383 . S
C170 O164 1.412 . S
C170 C169 1.383 . S
C170 C171 1.394 . S
C171 H161 0.929 . S
C171 C167 1.377 1_455 S
C171 C170 1.394 . S
H172 C179 0.929 . S
H173 C182 0.930 . S
H174 C184 0.929 . S
H175 C176 0.969 . S
C176 H175 0.969 . S
C176 O177 1.550 . S
C176 H178 0.973 . S
O177 C176 1.550 . S
O177 C183 1.412 . S
H178 C176 0.973 . S
C179 H172 0.929 . S
C179 C180 1.400 . S
C179 C181 1.364 1_565 S
C180 C179 1.400 . S
C180 C184 1.377 . S
C181 C179 1.364 1_545 S
C181 C182 1.374 . S
C182 H173 0.930 . S
C182 C181 1.374 . S
C182 C183 1.383 . S
C183 O177 1.412 . S
C183 C182 1.383 . S
C183 C184 1.394 1_545 S
C184 H174 0.929 . S
C184 C180 1.377 . S
C184 C183 1.394 1_565 S
H185 C192 0.929 . S
H186 C195 0.930 . S
H187 C197 0.929 . S
H188 C189 0.969 . S
C189 H188 0.969 . S
C189 O190 1.550 . S
C189 H191 0.973 . S
O190 C189 1.550 . S
O190 C196 1.412 . S
H191 C189 0.973 . S
C192 H185 0.929 . S
C192 C193 1.400 . S
C192 C194 1.364 . S
C193 C192 1.400 . S
C193 C197 1.377 . S
C194 C192 1.364 . S
C194 C195 1.374 . S
C195 H186 0.930 . S
C195 C194 1.374 . S
C195 C196 1.383 . S
C196 O190 1.412 . S
C196 C195 1.383 . S
C196 C197 1.394 . S
C197 H187 0.929 . S
C197 C193 1.377 . S
C197 C196 1.394 . S
H198 C216 0.951 . S
H199 C218 0.951 . S
H200 C220 0.950 . S
H201 C221 0.950 . S
H202 C223 0.950 . S
H203 C226 0.950 . S
H204 C227 0.950 . S
H205 C229 0.950 . S
H206 C230 0.950 . S
H207 C231 0.951 . S
H208 C233 0.951 . S
H209 C235 0.950 . S
H210 C236 0.950 . S
H211 C238 0.950 . S
H212 C241 0.950 . S
H213 C242 0.950 . S
H214 C244 0.950 . S
H215 C245 0.950 . S
C216 H198 0.951 . S
C216 C217 1.366 . S
C216 C218 1.388 . S
C217 C216 1.366 . S
C217 C221 1.385 . S
C218 H199 0.951 . S
C218 C216 1.388 . S
C218 C219 1.366 . S
C219 C218 1.366 . S
C219 C220 1.414 . S
C219 C222 1.499 . S
C220 H200 0.950 . S
C220 C219 1.414 . S
C220 C221 1.374 . S
C221 H201 0.950 . S
C221 C217 1.385 . S
C221 C220 1.374 . S
C222 C219 1.499 . S
C222 C223 1.373 . S
C222 C224 1.389 . S
C223 H202 0.950 . S
C223 C222 1.373 . S
C223 C239 1.377 . S
C224 C222 1.389 . S
C224 C225 1.524 . S
C224 C238 1.377 . S
C225 C224 1.524 . S
C225 C226 1.397 . S
C225 C230 1.363 . S
C226 H203 0.950 . S
C226 C225 1.397 . S
C226 C227 1.334 . S
C227 H204 0.950 . S
C227 C226 1.334 . S
C227 C228 1.287 . S
C228 C227 1.287 . S
C228 C229 1.524 . S
C228 H247 0.913 . S
C229 H205 0.950 . S
C229 C228 1.524 . S
C229 C230 1.415 . S
C230 H206 0.950 . S
C230 C225 1.363 . S
C230 C229 1.415 . S
C231 H207 0.951 . S
C231 C232 1.366 . S
C231 C233 1.388 . S
C232 C231 1.366 . S
C232 C236 1.385 . S
C233 H208 0.951 . S
C233 C231 1.388 . S
C233 C234 1.366 . S
C234 C233 1.366 . S
C234 C235 1.414 . S
C234 C237 1.499 . S
C235 H209 0.950 . S
C235 C234 1.414 . S
C235 C236 1.374 . S
C236 H210 0.950 . S
C236 C232 1.385 . S
C236 C235 1.374 . S
C237 C234 1.499 . S
C237 C238 1.373 . S
C237 C239 1.389 . S
C238 H211 0.950 . S
C238 C224 1.377 . S
C238 C237 1.373 . S
C239 C223 1.377 . S
C239 C237 1.389 . S
C239 C240 1.524 . S
C240 C239 1.524 . S
C240 C241 1.397 . S
C240 C245 1.363 . S
C241 H212 0.950 . S
C241 C240 1.397 . S
C241 C242 1.334 . S
C242 H213 0.950 . S
C242 C241 1.334 . S
C242 C243 1.287 . S
C243 C242 1.287 . S
C243 C244 1.524 . S
C243 H246 0.999 . S
C244 H214 0.950 . S
C244 C243 1.524 . S
C244 C245 1.415 . S
C245 H215 0.950 . S
C245 C240 1.363 . S
C245 C244 1.415 . S
H246 C243 0.999 . S
H247 C228 0.913 . S
H248 C266 0.951 . S
H249 C268 0.951 . S
H250 C270 0.950 . S
H251 C271 0.950 . S
H252 C273 0.950 . S
H253 C276 0.950 . S
H254 C277 0.950 . S
H255 C279 0.950 . S
H256 C280 0.950 . S
H257 C281 0.951 . S
H258 C283 0.951 . S
H259 C285 0.950 . S
H260 C286 0.950 . S
H261 C288 0.950 . S
H262 C291 0.950 . S
H263 C292 0.965 . S
H264 C294 0.950 . S
H265 C295 0.950 . S
C266 H248 0.951 . S
C266 C267 1.366 . S
C266 C268 1.388 . S
C267 C266 1.366 . S
C267 C271 1.385 . S
C268 H249 0.951 . S
C268 C266 1.388 . S
C268 C269 1.366 . S
C269 C268 1.366 . S
C269 C270 1.414 . S
C269 C272 1.499 . S
C270 H250 0.950 . S
C270 C269 1.414 . S
C270 C271 1.374 . S
C271 H251 0.950 . S
C271 C267 1.385 . S
C271 C270 1.374 . S
C272 C269 1.499 . S
C272 C273 1.373 . S
C272 C274 1.389 . S
C273 H252 0.950 . S
C273 C272 1.373 . S
C273 C289 1.377 . S
C274 C272 1.389 . S
C274 C275 1.524 . S
C274 C288 1.377 . S
C275 C274 1.524 . S
C275 C276 1.397 . S
C275 C280 1.363 . S
C276 H253 0.950 . S
C276 C275 1.397 . S
C276 C277 1.334 . S
C277 H254 0.950 . S
C277 C276 1.334 . S
C277 C278 1.287 . S
C278 C277 1.287 . S
C278 C279 1.524 . S
C278 H297 0.913 . S
C279 H255 0.950 . S
C279 C278 1.524 . S
C279 C280 1.415 . S
C280 H256 0.950 . S
C280 C275 1.363 . S
C280 C279 1.415 . S
C281 H257 0.951 . S
C281 C282 1.366 . S
C281 C283 1.388 . S
C282 C281 1.366 . S
C282 C286 1.385 . S
C283 H258 0.951 . S
C283 C281 1.388 . S
C283 C284 1.366 . S
C284 C283 1.366 . S
C284 C285 1.414 . S
C284 C287 1.499 . S
C285 H259 0.950 . S
C285 C284 1.414 . S
C285 C286 1.374 . S
C286 H260 0.950 . S
C286 C282 1.385 . S
C286 C285 1.374 . S
C287 C284 1.499 . S
C287 C288 1.373 . S
C287 C289 1.389 . S
C288 H261 0.950 . S
C288 C274 1.377 . S
C288 C287 1.373 . S
C289 C273 1.377 . S
C289 C287 1.389 . S
C289 C290 1.524 . S
C290 C289 1.524 . S
C290 C291 1.397 . S
C290 C295 1.363 . S
C291 H262 0.950 . S
C291 C290 1.397 . S
C291 C292 1.334 . S
C292 H263 0.965 . S
C292 C291 1.334 . S
C292 C293 1.287 . S
C293 C292 1.287 . S
C293 C294 1.524 . S
C293 H296 0.999 1_655 S
C294 H264 0.950 . S
C294 C293 1.524 . S
C294 C295 1.415 . S
C295 H265 0.950 . S
C295 C290 1.363 . S
C295 C294 1.415 . S
H296 C293 0.999 1_455 S
H297 C278 0.913 . S
H298 C316 0.951 . S
H299 C318 0.951 . S
H300 C320 0.950 . S
H301 C321 0.950 . S
H302 C323 0.950 . S
H303 C326 0.950 . S
H304 C327 0.950 . S
H305 C329 0.950 . S
H306 C330 0.950 . S
H307 C331 0.951 . S
H308 C333 0.951 . S
H309 C335 0.950 . S
H310 C336 0.950 . S
H311 C338 0.950 . S
H312 C341 0.950 . S
H313 C342 0.950 . S
H314 C344 0.950 . S
H315 C345 0.950 . S
C316 H298 0.951 . S
C316 C317 1.366 . S
C316 C318 1.388 . S
C317 C316 1.366 . S
C317 C321 1.385 . S
C318 H299 0.951 . S
C318 C316 1.388 . S
C318 C319 1.366 . S
C319 C318 1.366 . S
C319 C320 1.414 . S
C319 C322 1.499 . S
C320 H300 0.950 . S
C320 C319 1.414 . S
C320 C321 1.374 . S
C321 H301 0.950 . S
C321 C317 1.385 . S
C321 C320 1.374 . S
C322 C319 1.499 . S
C322 C323 1.373 . S
C322 C324 1.389 . S
C323 H302 0.950 . S
C323 C322 1.373 . S
C323 C339 1.377 . S
C324 C322 1.389 . S
C324 C325 1.524 . S
C324 C338 1.377 . S
C325 C324 1.524 . S
C325 C326 1.397 . S
C325 C330 1.363 . S
C326 H303 0.950 . S
C326 C325 1.397 . S
C326 C327 1.334 . S
C327 H304 0.950 . S
C327 C326 1.334 . S
C327 C328 1.287 . S
C328 C327 1.287 . S
C328 C329 1.524 . S
C328 H347 0.913 . S
C329 H305 0.950 . S
C329 C328 1.524 . S
C329 C330 1.415 . S
C330 H306 0.950 . S
C330 C325 1.363 . S
C330 C329 1.415 . S
C331 H307 0.951 . S
C331 C332 1.366 . S
C331 C333 1.388 . S
C332 C331 1.366 . S
C332 C336 1.385 . S
C333 H308 0.951 . S
C333 C331 1.388 . S
C333 C334 1.366 . S
C334 C333 1.366 . S
C334 C335 1.414 . S
C334 C337 1.499 . S
C335 H309 0.950 . S
C335 C334 1.414 . S
C335 C336 1.374 . S
C336 H310 0.950 . S
C336 C332 1.385 . S
C336 C335 1.374 . S
C337 C334 1.499 . S
C337 C338 1.373 . S
C337 C339 1.389 . S
C338 H311 0.950 . S
C338 C324 1.377 . S
C338 C337 1.373 . S
C339 C323 1.377 . S
C339 C337 1.389 . S
C339 C340 1.524 . S
C340 C339 1.524 . S
C340 C341 1.397 . S
C340 C345 1.363 . S
C341 H312 0.950 . S
C341 C340 1.397 . S
C341 C342 1.334 . S
C342 H313 0.950 . S
C342 C341 1.334 . S
C342 C343 1.287 . S
C343 C342 1.287 . S
C343 C344 1.524 . S
C343 H346 0.999 . S
C344 H314 0.950 . S
C344 C343 1.524 . S
C344 C345 1.415 . S
C345 H315 0.950 . S
C345 C340 1.363 . S
C345 C344 1.415 . S
H346 C343 0.999 . S
H347 C328 0.913 . S
H348 C366 0.951 . S
H349 C368 0.951 . S
H350 C370 0.950 . S
H351 C371 0.950 . S
H352 C373 0.950 . S
H353 C376 0.950 . S
H354 C377 0.950 . S
H355 C379 0.950 . S
H356 C380 0.950 . S
H357 C381 0.951 . S
H358 C383 0.951 . S
H359 C385 0.950 . S
H360 C386 0.950 . S
H361 C388 0.950 . S
H362 C391 0.950 . S
H363 C392 0.950 . S
H364 C394 0.950 . S
H365 C395 0.950 . S
C366 H348 0.951 . S
C366 C367 1.366 . S
C366 C368 1.388 . S
C367 C366 1.366 . S
C367 C371 1.385 . S
C368 H349 0.951 . S
C368 C366 1.388 . S
C368 C369 1.366 . S
C369 C368 1.366 . S
C369 C370 1.414 . S
C369 C372 1.499 . S
C370 H350 0.950 . S
C370 C369 1.414 . S
C370 C371 1.374 . S
C371 H351 0.950 . S
C371 C367 1.385 . S
C371 C370 1.374 . S
C372 C369 1.499 . S
C372 C373 1.373 . S
C372 C374 1.389 . S
C373 H352 0.950 . S
C373 C372 1.373 . S
C373 C389 1.377 . S
C374 C372 1.389 . S
C374 C375 1.524 . S
C374 C388 1.377 . S
C375 C374 1.524 . S
C375 C376 1.397 . S
C375 C380 1.363 . S
C376 H353 0.950 . S
C376 C375 1.397 . S
C376 C377 1.334 . S
C377 H354 0.950 . S
C377 C376 1.334 . S
C377 C378 1.287 . S
C378 C377 1.287 . S
C378 C379 1.524 . S
C378 H397 0.913 . S
C379 H355 0.950 . S
C379 C378 1.524 . S
C379 C380 1.415 . S
C380 H356 0.950 . S
C380 C375 1.363 . S
C380 C379 1.415 . S
C381 H357 0.951 . S
C381 C382 1.366 . S
C381 C383 1.388 . S
C382 C381 1.366 . S
C382 C386 1.385 . S
C383 H358 0.951 . S
C383 C381 1.388 . S
C383 C384 1.366 . S
C384 C383 1.366 . S
C384 C385 1.414 . S
C384 C387 1.499 . S
C385 H359 0.950 . S
C385 C384 1.414 . S
C385 C386 1.374 . S
C386 H360 0.950 . S
C386 C382 1.385 . S
C386 C385 1.374 . S
C387 C384 1.499 . S
C387 C388 1.373 . S
C387 C389 1.389 . S
C388 H361 0.950 . S
C388 C374 1.377 . S
C388 C387 1.373 . S
C389 C373 1.377 . S
C389 C387 1.389 . S
C389 C390 1.524 . S
C390 C389 1.524 . S
C390 C391 1.397 . S
C390 C395 1.363 . S
C391 H362 0.950 . S
C391 C390 1.397 . S
C391 C392 1.334 . S
C392 H363 0.950 . S
C392 C391 1.334 . S
C392 C393 1.287 . S
C393 C392 1.287 . S
C393 C394 1.524 . S
C393 H396 0.999 . S
C394 H364 0.950 . S
C394 C393 1.524 . S
C394 C395 1.415 . S
C395 H365 0.950 . S
C395 C390 1.363 . S
C395 C394 1.415 . S
H396 C393 0.999 . S
H397 C378 0.913 . S
H398 C416 0.951 . S
H399 C418 0.951 . S
H400 C420 0.950 . S
H401 C421 0.950 . S
H402 C423 0.950 . S
H403 C426 0.950 . S
H404 C427 0.950 . S
H405 C429 0.950 . S
H406 C430 0.950 . S
H407 C431 0.951 . S
H408 C433 0.951 . S
H409 C435 0.950 . S
H410 C436 0.950 . S
H411 C438 0.950 . S
H412 C441 0.950 . S
H413 C442 0.950 . S
H414 C444 0.950 . S
H415 C445 0.950 . S
C416 H398 0.951 . S
C416 C417 1.366 . S
C416 C418 1.388 . S
C417 C416 1.366 . S
C417 C421 1.385 . S
C418 H399 0.951 . S
C418 C416 1.388 . S
C418 C419 1.366 . S
C419 C418 1.366 . S
C419 C420 1.414 . S
C419 C422 1.499 . S
C420 H400 0.950 . S
C420 C419 1.414 . S
C420 C421 1.374 . S
C421 H401 0.950 . S
C421 C417 1.385 . S
C421 C420 1.374 . S
C422 C419 1.499 . S
C422 C423 1.373 . S
C422 C424 1.389 . S
C423 H402 0.950 . S
C423 C422 1.373 . S
C423 C439 1.377 . S
C424 C422 1.389 . S
C424 C425 1.524 . S
C424 C438 1.377 . S
C425 C424 1.524 . S
C425 C426 1.397 . S
C425 C430 1.363 . S
C426 H403 0.950 . S
C426 C425 1.397 . S
C426 C427 1.334 . S
C427 H404 0.950 . S
C427 C426 1.334 . S
C427 C428 1.287 . S
C428 C427 1.287 . S
C428 C429 1.524 . S
C428 H447 0.913 . S
C429 H405 0.950 . S
C429 C428 1.524 . S
C429 C430 1.415 . S
C430 H406 0.950 . S
C430 C425 1.363 . S
C430 C429 1.415 . S
C431 H407 0.951 . S
C431 C432 1.366 . S
C431 C433 1.388 . S
C432 C431 1.366 . S
C432 C436 1.385 . S
C433 H408 0.951 . S
C433 C431 1.388 . S
C433 C434 1.366 . S
C434 C433 1.366 . S
C434 C435 1.414 . S
C434 C437 1.499 . S
C435 H409 0.950 . S
C435 C434 1.414 . S
C435 C436 1.374 . S
C436 H410 0.950 . S
C436 C432 1.385 . S
C436 C435 1.374 . S
C437 C434 1.499 . S
C437 C438 1.373 . S
C437 C439 1.389 . S
C438 H411 0.950 . S
C438 C424 1.377 . S
C438 C437 1.373 . S
C439 C423 1.377 . S
C439 C437 1.389 . S
C439 C440 1.524 . S
C440 C439 1.524 . S
C440 C441 1.397 . S
C440 C445 1.363 . S
C441 H412 0.950 . S
C441 C440 1.397 . S
C441 C442 1.334 . S
C442 H413 0.950 . S
C442 C441 1.334 . S
C442 C443 1.287 . S
C443 C442 1.287 . S
C443 C444 1.524 . S
C443 H446 0.999 . S
C444 H414 0.950 . S
C444 C443 1.524 . S
C444 C445 1.415 . S
C445 H415 0.950 . S
C445 C440 1.363 . S
C445 C444 1.415 . S
H446 C443 0.999 . S
H447 C428 0.913 . S
H448 C466 0.951 . S
H449 C468 0.951 . S
H450 C470 0.950 . S
H451 C471 0.950 . S
H452 C473 0.950 . S
H453 C476 0.950 . S
H454 C477 0.950 . S
H455 C479 0.950 . S
H456 C480 0.950 . S
H457 C481 0.951 . S
H458 C483 0.951 . S
H459 C485 0.950 . S
H460 C486 0.950 . S
H461 C488 0.950 . S
H462 C491 0.950 . S
H463 C492 0.950 . S
H464 C494 0.950 . S
H465 C495 0.950 . S
C466 H448 0.951 . S
C466 C467 1.366 . S
C466 C468 1.388 . S
C467 C466 1.366 . S
C467 C471 1.385 . S
C468 H449 0.951 . S
C468 C466 1.388 . S
C468 C469 1.366 . S
C469 C468 1.366 . S
C469 C470 1.414 . S
C469 C472 1.499 . S
C470 H450 0.950 . S
C470 C469 1.414 . S
C470 C471 1.374 . S
C471 H451 0.950 . S
C471 C467 1.385 . S
C471 C470 1.374 . S
C472 C469 1.499 . S
C472 C473 1.373 . S
C472 C474 1.389 . S
C473 H452 0.950 . S
C473 C472 1.373 . S
C473 C489 1.377 . S
C474 C472 1.389 . S
C474 C475 1.524 . S
C474 C488 1.377 . S
C475 C474 1.524 . S
C475 C476 1.397 . S
C475 C480 1.363 . S
C476 H453 0.950 . S
C476 C475 1.397 . S
C476 C477 1.334 . S
C477 H454 0.950 . S
C477 C476 1.334 . S
C477 C478 1.287 . S
C478 C477 1.287 . S
C478 C479 1.524 . S
C478 H497 0.913 . S
C479 H455 0.950 . S
C479 C478 1.524 . S
C479 C480 1.415 . S
C480 H456 0.950 . S
C480 C475 1.363 . S
C480 C479 1.415 . S
C481 H457 0.951 . S
C481 C482 1.366 . S
C481 C483 1.388 . S
C482 C481 1.366 . S
C482 C486 1.385 . S
C483 H458 0.951 . S
C483 C481 1.388 . S
C483 C484 1.366 . S
C484 C483 1.366 . S
C484 C485 1.414 . S
C484 C487 1.499 . S
C485 H459 0.950 . S
C485 C484 1.414 . S
C485 C486 1.374 . S
C486 H460 0.950 . S
C486 C482 1.385 . S
C486 C485 1.374 . S
C487 C484 1.499 . S
C487 C488 1.373 . S
C487 C489 1.389 . S
C488 H461 0.950 . S
C488 C474 1.377 . S
C488 C487 1.373 . S
C489 C473 1.377 . S
C489 C487 1.389 . S
C489 C490 1.524 . S
C490 C489 1.524 . S
C490 C491 1.397 . S
C490 C495 1.363 . S
C491 H462 0.950 . S
C491 C490 1.397 . S
C491 C492 1.334 . S
C492 H463 0.950 . S
C492 C491 1.334 . S
C492 C493 1.287 . S
C493 C492 1.287 . S
C493 C494 1.524 . S
C493 H496 0.999 . S
C494 H464 0.950 . S
C494 C493 1.524 . S
C494 C495 1.415 . S
C495 H465 0.950 . S
C495 C490 1.363 . S
C495 C494 1.415 . S
H496 C493 0.999 . S
H497 C478 0.913 . S
H498 C516 0.951 . S
H499 C518 0.951 . S
H500 C520 0.950 . S
H501 C521 0.950 . S
H502 C523 0.950 . S
H503 C526 0.950 . S
H504 C527 0.950 . S
H505 C529 0.950 . S
H506 C530 0.950 . S
H507 C531 0.951 . S
H508 C533 0.951 . S
H509 C535 0.950 . S
H510 C536 0.950 . S
H511 C538 0.950 . S
H512 C541 0.950 . S
H513 C542 0.950 . S
H514 C544 0.950 . S
H515 C545 0.950 . S
C516 H498 0.951 . S
C516 C517 1.366 . S
C516 C518 1.388 . S
C517 C516 1.366 . S
C517 C521 1.385 . S
C518 H499 0.951 . S
C518 C516 1.388 . S
C518 C519 1.366 . S
C519 C518 1.366 . S
C519 C520 1.414 . S
C519 C522 1.499 . S
C520 H500 0.950 . S
C520 C519 1.414 . S
C520 C521 1.374 . S
C521 H501 0.950 . S
C521 C517 1.385 . S
C521 C520 1.374 . S
C522 C519 1.499 . S
C522 C523 1.373 . S
C522 C524 1.389 . S
C523 H502 0.950 . S
C523 C522 1.373 . S
C523 C539 1.377 . S
C524 C522 1.389 . S
C524 C525 1.524 . S
C524 C538 1.377 . S
C525 C524 1.524 . S
C525 C526 1.397 . S
C525 C530 1.363 . S
C526 H503 0.950 . S
C526 C525 1.397 . S
C526 C527 1.334 . S
C527 H504 0.950 . S
C527 C526 1.334 . S
C527 C528 1.287 . S
C528 C527 1.287 . S
C528 C529 1.524 . S
C528 H547 0.913 . S
C529 H505 0.950 . S
C529 C528 1.524 . S
C529 C530 1.415 . S
C530 H506 0.950 . S
C530 C525 1.363 . S
C530 C529 1.415 . S
C531 H507 0.951 . S
C531 C532 1.366 . S
C531 C533 1.388 . S
C532 C531 1.366 . S
C532 C536 1.385 . S
C533 H508 0.951 . S
C533 C531 1.388 . S
C533 C534 1.366 . S
C534 C533 1.366 . S
C534 C535 1.414 . S
C534 C537 1.499 . S
C535 H509 0.950 . S
C535 C534 1.414 . S
C535 C536 1.374 . S
C536 H510 0.950 . S
C536 C532 1.385 . S
C536 C535 1.374 . S
C537 C534 1.499 . S
C537 C538 1.373 . S
C537 C539 1.389 . S
C538 H511 0.950 . S
C538 C524 1.377 . S
C538 C537 1.373 . S
C539 C523 1.377 . S
C539 C537 1.389 . S
C539 C540 1.524 . S
C540 C539 1.524 . S
C540 C541 1.397 . S
C540 C545 1.363 . S
C541 H512 0.950 . S
C541 C540 1.397 . S
C541 C542 1.334 . S
C542 H513 0.950 . S
C542 C541 1.334 . S
C542 C543 1.287 . S
C543 C542 1.287 . S
C543 C544 1.524 . S
C543 H546 0.999 . S
C544 H514 0.950 . S
C544 C543 1.524 . S
C544 C545 1.415 . S
C545 H515 0.950 . S
C545 C540 1.363 . S
C545 C544 1.415 . S
H546 C543 0.999 . S
H547 C528 0.913 . S
H548 C566 0.951 . S
H549 C568 0.951 . S
H550 C570 0.950 . S
H551 C571 0.950 . S
H552 C573 0.950 . S
H553 C576 0.950 . S
H554 C577 0.950 . S
H555 C579 0.950 . S
H556 C580 0.950 . S
H557 C581 0.944 1_455 S
H558 C583 0.951 . S
H559 C585 0.950 . S
H560 C586 0.950 . S
H561 C588 0.950 . S
H562 C591 0.950 . S
H563 C592 0.950 . S
H564 C594 0.950 . S
H565 C595 0.950 . S
C566 H548 0.951 . S
C566 C567 1.366 . S
C566 C568 1.388 . S
C567 C566 1.366 . S
C567 C571 1.385 . S
C568 H549 0.951 . S
C568 C566 1.388 . S
C568 C569 1.366 . S
C569 C568 1.366 . S
C569 C570 1.414 . S
C569 C572 1.499 . S
C570 H550 0.950 . S
C570 C569 1.414 . S
C570 C571 1.374 . S
C571 H551 0.950 . S
C571 C567 1.385 . S
C571 C570 1.374 . S
C572 C569 1.499 . S
C572 C573 1.373 . S
C572 C574 1.389 . S
C573 H552 0.950 . S
C573 C572 1.373 . S
C573 C589 1.377 . S
C574 C572 1.389 . S
C574 C575 1.524 . S
C574 C588 1.377 . S
C575 C574 1.524 . S
C575 C576 1.397 . S
C575 C580 1.363 . S
C576 H553 0.950 . S
C576 C575 1.397 . S
C576 C577 1.334 . S
C577 H554 0.950 . S
C577 C576 1.334 . S
C577 C578 1.287 . S
C578 C577 1.287 . S
C578 C579 1.524 . S
C578 H597 0.913 . S
C579 H555 0.950 . S
C579 C578 1.524 . S
C579 C580 1.415 . S
C580 H556 0.950 . S
C580 C575 1.363 . S
C580 C579 1.415 . S
C581 H557 0.944 1_655 S
C581 C582 1.355 1_655 S
C581 C583 1.406 . S
C582 C581 1.355 1_455 S
C582 C586 1.385 . S
C583 H558 0.951 . S
C583 C581 1.406 . S
C583 C584 1.366 . S
C584 C583 1.366 . S
C584 C585 1.414 . S
C584 C587 1.499 . S
C585 H559 0.950 . S
C585 C584 1.414 . S
C585 C586 1.374 1_655 S
C586 H560 0.950 . S
C586 C582 1.385 . S
C586 C585 1.374 1_455 S
C587 C584 1.499 . S
C587 C588 1.373 . S
C587 C589 1.389 . S
C588 H561 0.950 . S
C588 C574 1.377 . S
C588 C587 1.373 . S
C589 C573 1.377 . S
C589 C587 1.389 . S
C589 C590 1.524 . S
C590 C589 1.524 . S
C590 C591 1.397 . S
C590 C595 1.363 . S
C591 H562 0.950 . S
C591 C590 1.397 . S
C591 C592 1.334 . S
C592 H563 0.950 . S
C592 C591 1.334 . S
C592 C593 1.287 . S
C593 C592 1.287 . S
C593 C594 1.524 . S
C593 H596 0.999 . S
C594 H564 0.950 . S
C594 C593 1.524 . S
C594 C595 1.415 . S
C595 H565 0.950 . S
C595 C590 1.363 . S
C595 C594 1.415 . S
H596 C593 0.999 . S
H597 C578 0.913 . S
H598 C616 0.951 . S
H599 C618 0.951 . S
H600 C620 0.950 . S
H601 C621 0.950 . S
H602 C623 0.950 . S
H603 C626 0.950 . S
H604 C627 0.950 . S
H605 C629 0.950 . S
H606 C630 0.950 . S
H607 C631 0.951 . S
H608 C633 0.951 . S
H609 C635 0.950 . S
H610 C636 0.950 . S
H611 C638 0.950 . S
H612 C641 0.950 . S
H613 C642 0.950 . S
H614 C644 0.950 . S
H615 C645 0.950 . S
C616 H598 0.951 . S
C616 C617 1.366 . S
C616 C618 1.388 . S
C617 C616 1.366 . S
C617 C621 1.385 . S
C618 H599 0.951 . S
C618 C616 1.388 . S
C618 C619 1.366 . S
C619 C618 1.366 . S
C619 C620 1.414 . S
C619 C622 1.499 . S
C620 H600 0.950 . S
C620 C619 1.414 . S
C620 C621 1.374 . S
C621 H601 0.950 . S
C621 C617 1.385 . S
C621 C620 1.374 . S
C622 C619 1.499 . S
C622 C623 1.373 . S
C622 C624 1.389 . S
C623 H602 0.950 . S
C623 C622 1.373 . S
C623 C639 1.377 . S
C624 C622 1.389 . S
C624 C625 1.524 . S
C624 C638 1.377 . S
C625 C624 1.524 . S
C625 C626 1.397 . S
C625 C630 1.363 . S
C626 H603 0.950 . S
C626 C625 1.397 . S
C626 C627 1.334 . S
C627 H604 0.950 . S
C627 C626 1.334 . S
C627 C628 1.287 . S
C628 C627 1.287 . S
C628 C629 1.524 . S
C628 H647 0.913 . S
C629 H605 0.950 . S
C629 C628 1.524 . S
C629 C630 1.415 . S
C630 H606 0.950 . S
C630 C625 1.363 . S
C630 C629 1.415 . S
C631 H607 0.951 . S
C631 C632 1.366 . S
C631 C633 1.388 . S
C632 C631 1.366 . S
C632 C636 1.385 . S
C633 H608 0.951 . S
C633 C631 1.388 . S
C633 C634 1.366 . S
C634 C633 1.366 . S
C634 C635 1.414 . S
C634 C637 1.499 . S
C635 H609 0.950 . S
C635 C634 1.414 . S
C635 C636 1.374 . S
C636 H610 0.950 . S
C636 C632 1.385 . S
C636 C635 1.374 . S
C637 C634 1.499 . S
C637 C638 1.373 . S
C637 C639 1.389 . S
C638 H611 0.950 . S
C638 C624 1.377 . S
C638 C637 1.373 . S
C639 C623 1.377 . S
C639 C637 1.389 . S
C639 C640 1.524 . S
C640 C639 1.524 . S
C640 C641 1.397 . S
C640 C645 1.363 . S
C641 H612 0.950 . S
C641 C640 1.397 . S
C641 C642 1.334 . S
C642 H613 0.950 . S
C642 C641 1.334 . S
C642 C643 1.287 . S
C643 C642 1.287 . S
C643 C644 1.524 . S
C643 H646 0.999 . S
C644 H614 0.950 . S
C644 C643 1.524 . S
C644 C645 1.415 . S
C645 H615 0.950 . S
C645 C640 1.363 . S
C645 C644 1.415 . S
H646 C643 0.999 . S
H647 C628 0.913 . S
H648 C666 0.951 . S
H649 C668 0.951 . S
H650 C670 0.950 . S
H651 C671 0.950 . S
H652 C673 0.950 . S
H653 C676 0.950 . S
H654 C677 0.950 . S
H655 C679 0.950 . S
H656 C680 0.950 . S
H657 C681 0.951 . S
H658 C683 0.951 . S
H659 C685 0.950 . S
H660 C686 0.950 . S
H661 C688 0.950 . S
H662 C691 0.950 . S
H663 C692 0.950 . S
H664 C694 0.950 . S
H665 C695 0.950 . S
C666 H648 0.951 . S
C666 C667 1.366 . S
C666 C668 1.388 . S
C667 C666 1.366 . S
C667 C671 1.385 . S
C668 H649 0.951 . S
C668 C666 1.388 . S
C668 C669 1.366 . S
C669 C668 1.366 . S
C669 C670 1.414 . S
C669 C672 1.499 . S
C670 H650 0.950 . S
C670 C669 1.414 . S
C670 C671 1.374 . S
C671 H651 0.950 . S
C671 C667 1.385 . S
C671 C670 1.374 . S
C672 C669 1.499 . S
C672 C673 1.373 . S
C672 C674 1.389 . S
C673 H652 0.950 . S
C673 C672 1.373 . S
C673 C689 1.377 . S
C674 C672 1.389 . S
C674 C675 1.524 . S
C674 C688 1.377 . S
C675 C674 1.524 . S
C675 C676 1.397 . S
C675 C680 1.363 . S
C676 H653 0.950 . S
C676 C675 1.397 . S
C676 C677 1.334 . S
C677 H654 0.950 . S
C677 C676 1.334 . S
C677 C678 1.287 . S
C678 C677 1.287 . S
C678 C679 1.524 . S
C678 H697 0.913 . S
C679 H655 0.950 . S
C679 C678 1.524 . S
C679 C680 1.415 . S
C680 H656 0.950 . S
C680 C675 1.363 . S
C680 C679 1.415 . S
C681 H657 0.951 . S
C681 C682 1.366 . S
C681 C683 1.388 . S
C682 C681 1.366 . S
C682 C686 1.385 . S
C683 H658 0.951 . S
C683 C681 1.388 . S
C683 C684 1.366 . S
C684 C683 1.366 . S
C684 C685 1.414 . S
C684 C687 1.499 . S
C685 H659 0.950 . S
C685 C684 1.414 . S
C685 C686 1.374 . S
C686 H660 0.950 . S
C686 C682 1.385 . S
C686 C685 1.374 . S
C687 C684 1.499 . S
C687 C688 1.373 . S
C687 C689 1.389 . S
C688 H661 0.950 . S
C688 C674 1.377 . S
C688 C687 1.373 . S
C689 C673 1.377 . S
C689 C687 1.389 . S
C689 C690 1.524 . S
C690 C689 1.524 . S
C690 C691 1.397 . S
C690 C695 1.363 . S
C691 H662 0.950 . S
C691 C690 1.397 . S
C691 C692 1.334 . S
C692 H663 0.950 . S
C692 C691 1.334 . S
C692 C693 1.287 . S
C693 C692 1.287 . S
C693 C694 1.524 . S
C693 H696 0.999 . S
C694 H664 0.950 . S
C694 C693 1.524 . S
C694 C695 1.415 . S
C695 H665 0.950 . S
C695 C690 1.363 . S
C695 C694 1.415 . S
H696 C693 0.999 . S
H697 C678 0.913 . S
H698 C716 0.951 . S
H699 C718 0.951 . S
H700 C720 0.950 . S
H701 C721 0.950 . S
H702 C723 0.950 . S
H703 C726 0.950 . S
H704 C727 0.950 . S
H705 C729 0.950 . S
H706 C730 0.950 . S
H707 C731 0.951 . S
H708 C733 0.951 . S
H709 C735 0.950 . S
H710 C736 0.950 . S
H711 C738 0.950 . S
H712 C741 0.950 . S
H713 C742 0.950 . S
H714 C744 0.950 . S
H715 C745 0.950 . S
C716 H698 0.951 . S
C716 C717 1.366 . S
C716 C718 1.388 . S
C717 C716 1.366 . S
C717 C721 1.385 . S
C718 H699 0.951 . S
C718 C716 1.388 . S
C718 C719 1.366 . S
C719 C718 1.366 . S
C719 C720 1.414 . S
C719 C722 1.499 . S
C720 H700 0.950 . S
C720 C719 1.414 . S
C720 C721 1.374 . S
C721 H701 0.950 . S
C721 C717 1.385 . S
C721 C720 1.374 . S
C722 C719 1.499 . S
C722 C723 1.373 . S
C722 C724 1.389 . S
C723 H702 0.950 . S
C723 C722 1.373 . S
C723 C739 1.377 . S
C724 C722 1.389 . S
C724 C725 1.524 . S
C724 C738 1.377 . S
C725 C724 1.524 . S
C725 C726 1.397 . S
C725 C730 1.363 . S
C726 H703 0.950 . S
C726 C725 1.397 . S
C726 C727 1.334 . S
C727 H704 0.950 . S
C727 C726 1.334 . S
C727 C728 1.287 . S
C728 C727 1.287 . S
C728 C729 1.524 . S
C728 H747 0.913 . S
C729 H705 0.950 . S
C729 C728 1.524 . S
C729 C730 1.415 . S
C730 H706 0.950 . S
C730 C725 1.363 . S
C730 C729 1.415 . S
C731 H707 0.951 . S
C731 C732 1.366 . S
C731 C733 1.388 . S
C732 C731 1.366 . S
C732 C736 1.385 . S
C733 H708 0.951 . S
C733 C731 1.388 . S
C733 C734 1.366 . S
C734 C733 1.366 . S
C734 C735 1.414 . S
C734 C737 1.499 . S
C735 H709 0.950 . S
C735 C734 1.414 . S
C735 C736 1.374 . S
C736 H710 0.950 . S
C736 C732 1.385 . S
C736 C735 1.374 . S
C737 C734 1.499 . S
C737 C738 1.373 . S
C737 C739 1.389 . S
C738 H711 0.950 . S
C738 C724 1.377 . S
C738 C737 1.373 . S
C739 C723 1.377 . S
C739 C737 1.389 . S
C739 C740 1.524 . S
C740 C739 1.524 . S
C740 C741 1.397 . S
C740 C745 1.363 . S
C741 H712 0.950 . S
C741 C740 1.397 . S
C741 C742 1.334 . S
C742 H713 0.950 . S
C742 C741 1.334 . S
C742 C743 1.287 . S
C743 C742 1.287 . S
C743 C744 1.524 . S
C743 H746 0.999 . S
C744 H714 0.950 . S
C744 C743 1.524 . S
C744 C745 1.415 . S
C745 H715 0.950 . S
C745 C740 1.363 . S
C745 C744 1.415 . S
H746 C743 0.999 . S
H747 C728 0.913 . S
H748 C766 0.951 . S
H749 C768 0.951 . S
H750 C770 0.950 . S
H751 C771 0.950 . S
H752 C773 0.950 . S
H753 C776 0.950 . S
H754 C777 0.950 . S
H755 C779 0.950 . S
H756 C780 0.950 . S
H757 C781 0.951 . S
H758 C783 0.951 . S
H759 C785 0.950 . S
H760 C786 0.950 . S
H761 C788 0.950 . S
H762 C791 0.950 . S
H763 C792 0.950 . S
H764 C794 0.950 . S
H765 C795 0.950 . S
C766 H748 0.951 . S
C766 C767 1.366 . S
C766 C768 1.388 . S
C767 C766 1.366 . S
C767 C771 1.385 . S
C768 H749 0.951 . S
C768 C766 1.388 . S
C768 C769 1.366 . S
C769 C768 1.366 . S
C769 C770 1.414 . S
C769 C772 1.499 . S
C770 H750 0.950 . S
C770 C769 1.414 . S
C770 C771 1.374 . S
C771 H751 0.950 . S
C771 C767 1.385 . S
C771 C770 1.374 . S
C772 C769 1.499 . S
C772 C773 1.373 . S
C772 C774 1.389 . S
C773 H752 0.950 . S
C773 C772 1.373 . S
C773 C789 1.377 . S
C774 C772 1.389 . S
C774 C775 1.524 . S
C774 C788 1.377 . S
C775 C774 1.524 . S
C775 C776 1.397 . S
C775 C780 1.363 . S
C776 H753 0.950 . S
C776 C775 1.397 . S
C776 C777 1.334 . S
C777 H754 0.950 . S
C777 C776 1.334 . S
C777 C778 1.287 . S
C778 C777 1.287 . S
C778 C779 1.524 . S
C778 H797 0.913 . S
C779 H755 0.950 . S
C779 C778 1.524 . S
C779 C780 1.415 . S
C780 H756 0.950 . S
C780 C775 1.363 . S
C780 C779 1.415 . S
C781 H757 0.951 . S
C781 C782 1.366 . S
C781 C783 1.388 . S
C782 C781 1.366 . S
C782 C786 1.385 . S
C783 H758 0.951 . S
C783 C781 1.388 . S
C783 C784 1.366 . S
C784 C783 1.366 . S
C784 C785 1.414 . S
C784 C787 1.499 . S
C785 H759 0.950 . S
C785 C784 1.414 . S
C785 C786 1.374 . S
C786 H760 0.950 . S
C786 C782 1.385 . S
C786 C785 1.374 . S
C787 C784 1.499 . S
C787 C788 1.373 . S
C787 C789 1.389 . S
C788 H761 0.950 . S
C788 C774 1.377 . S
C788 C787 1.373 . S
C789 C773 1.377 . S
C789 C787 1.389 . S
C789 C790 1.524 . S
C790 C789 1.524 . S
C790 C791 1.397 . S
C790 C795 1.363 . S
C791 H762 0.950 . S
C791 C790 1.397 . S
C791 C792 1.334 . S
C792 H763 0.950 . S
C792 C791 1.334 . S
C792 C793 1.287 . S
C793 C792 1.287 . S
C793 C794 1.524 . S
C793 H796 0.999 . S
C794 H764 0.950 . S
C794 C793 1.524 . S
C794 C795 1.415 . S
C795 H765 0.950 . S
C795 C790 1.363 . S
C795 C794 1.415 . S
H796 C793 0.999 . S
H797 C778 0.913 . S
H798 C816 0.951 . S
H799 C818 0.951 . S
H800 C820 0.950 . S
H801 C821 0.950 . S
H802 C823 0.950 . S
H803 C826 0.950 . S
H804 C827 0.950 . S
H805 C829 0.950 . S
H806 C830 0.950 . S
H807 C831 0.951 . S
H808 C833 0.951 . S
H809 C835 0.950 . S
H810 C836 0.950 . S
H811 C838 0.950 1_556 S
H812 C841 0.950 . S
H813 C842 0.950 . S
H814 C844 0.950 . S
H815 C845 0.950 1_554 S
C816 H798 0.951 . S
C816 C817 1.366 . S
C816 C818 1.388 . S
C817 C816 1.366 . S
C817 C821 1.385 . S
C818 H799 0.951 . S
C818 C816 1.388 . S
C818 C819 1.366 . S
C819 C818 1.366 . S
C819 C820 1.414 . S
C819 C822 1.499 . S
C820 H800 0.950 . S
C820 C819 1.414 . S
C820 C821 1.374 . S
C821 H801 0.950 . S
C821 C817 1.385 . S
C821 C820 1.374 . S
C822 C819 1.499 . S
C822 C823 1.373 . S
C822 C824 1.389 . S
C823 H802 0.950 . S
C823 C822 1.373 . S
C823 C839 1.377 . S
C824 C822 1.389 . S
C824 C825 1.524 . S
C824 C838 1.377 . S
C825 C824 1.524 . S
C825 C826 1.397 . S
C825 C830 1.363 . S
C826 H803 0.950 . S
C826 C825 1.397 . S
C826 C827 1.334 . S
C827 H804 0.950 . S
C827 C826 1.334 . S
C827 C828 1.287 . S
C828 C827 1.287 . S
C828 C829 1.524 . S
C828 H847 0.913 . S
C829 H805 0.950 . S
C829 C828 1.524 . S
C829 C830 1.415 . S
C830 H806 0.950 . S
C830 C825 1.363 . S
C830 C829 1.415 . S
C831 H807 0.951 . S
C831 C832 1.366 . S
C831 C833 1.388 . S
C832 C831 1.366 . S
C832 C836 1.385 . S
C833 H808 0.951 . S
C833 C831 1.388 . S
C833 C834 1.366 . S
C834 C833 1.366 . S
C834 C835 1.414 . S
C834 C837 1.499 . S
C835 H809 0.950 . S
C835 C834 1.414 . S
C835 C836 1.374 . S
C836 H810 0.950 . S
C836 C832 1.385 . S
C836 C835 1.374 . S
C837 C834 1.499 . S
C837 C838 1.373 1_556 S
C837 C839 1.389 1_556 S
C838 H811 0.950 1_554 S
C838 C824 1.377 . S
C838 C837 1.373 1_554 S
C839 C823 1.377 . S
C839 C837 1.389 1_554 S
C839 C840 1.524 1_554 S
C840 C839 1.524 1_556 S
C840 C841 1.397 1_455 S
C840 C845 1.363 . S
C841 H812 0.950 . S
C841 C840 1.397 1_655 S
C841 C842 1.334 . S
C842 H813 0.950 . S
C842 C841 1.334 . S
C842 C843 1.287 . S
C843 C842 1.287 . S
C843 C844 1.524 . S
C843 H846 0.999 . S
C844 H814 0.950 . S
C844 C843 1.524 . S
C844 C845 1.415 1_655 S
C845 H815 0.950 1_556 S
C845 C840 1.363 . S
C845 C844 1.415 1_455 S
H846 C843 0.999 . S
H847 C828 0.913 . S
H848 C866 0.951 . S
H849 C868 0.951 . S
H850 C870 0.950 . S
H851 C871 0.950 . S
H852 C873 0.950 . S
H853 C876 0.950 1_565 S
H854 C877 0.950 . S
H855 C879 0.950 . S
H856 C880 0.950 . S
H857 C881 0.951 . S
H858 C883 0.951 . S
H859 C885 0.950 . S
H860 C886 0.950 . S
H861 C888 0.950 . S
H862 C891 0.950 . S
H863 C892 0.950 . S
H864 C894 0.950 . S
H865 C895 0.950 . S
C866 H848 0.951 . S
C866 C867 1.366 . S
C866 C868 1.388 . S
C867 C866 1.366 . S
C867 C871 1.385 1_545 S
C868 H849 0.951 . S
C868 C866 1.388 . S
C868 C869 1.366 . S
C869 C868 1.366 . S
C869 C870 1.414 1_545 S
C869 C872 1.499 . S
C870 H850 0.950 . S
C870 C869 1.414 1_565 S
C870 C871 1.374 . S
C871 H851 0.950 . S
C871 C867 1.385 1_565 S
C871 C870 1.374 . S
C872 C869 1.499 . S
C872 C873 1.373 1_545 S
C872 C874 1.389 . S
C873 H852 0.950 . S
C873 C872 1.373 1_565 S
C873 C889 1.376 1_565 S
C874 C872 1.389 . S
C874 C875 1.524 . S
C874 C888 1.377 . S
C875 C874 1.524 . S
C875 C876 1.397 . S
C875 C880 1.363 . S
C876 H853 0.950 1_545 S
C876 C875 1.397 . S
C876 C877 1.334 . S
C877 H854 0.950 . S
C877 C876 1.334 . S
C877 C878 1.287 . S
C878 C877 1.287 . S
C878 C879 1.524 . S
C878 H897 0.913 . S
C879 H855 0.950 . S
C879 C878 1.524 . S
C879 C880 1.415 . S
C880 H856 0.950 . S
C880 C875 1.363 . S
C880 C879 1.415 . S
C881 H857 0.951 . S
C881 C882 1.366 1_565 S
C881 C883 1.388 . S
C882 C881 1.366 1_545 S
C882 C886 1.385 . S
C883 H858 0.951 . S
C883 C881 1.388 . S
C883 C884 1.366 1_565 S
C884 C883 1.366 1_545 S
C884 C885 1.414 . S
C884 C887 1.499 . S
C885 H859 0.950 . S
C885 C884 1.414 . S
C885 C886 1.374 . S
C886 H860 0.950 . S
C886 C882 1.385 . S
C886 C885 1.374 . S
C887 C884 1.499 . S
C887 C888 1.373 . S
C887 C889 1.399 . S
C888 H861 0.950 . S
C888 C874 1.377 . S
C888 C887 1.373 . S
C889 C873 1.376 1_545 S
C889 C887 1.399 . S
C889 C890 1.516 1_545 S
C890 C889 1.516 1_565 S
C890 C891 1.397 1_565 S
C890 C895 1.363 . S
C891 H862 0.950 . S
C891 C890 1.397 1_545 S
C891 C892 1.334 . S
C892 H863 0.950 . S
C892 C891 1.334 . S
C892 C893 1.287 1_545 S
C893 C892 1.287 1_565 S
C893 C894 1.524 . S
C893 H896 0.999 . S
C894 H864 0.950 . S
C894 C893 1.524 . S
C894 C895 1.415 . S
C895 H865 0.950 . S
C895 C890 1.363 . S
C895 C894 1.415 . S
H896 C893 0.999 . S
H897 C878 0.913 . S
H898 C916 0.951 . S
H899 C918 0.951 . S
H900 C920 0.950 . S
H901 C921 0.950 . S
H902 C923 0.950 . S
H903 C926 0.950 . S
H904 C927 0.950 . S
H905 C929 0.950 . S
H906 C930 0.950 . S
H907 C931 0.951 . S
H908 C933 0.951 . S
H909 C935 0.950 . S
H910 C936 0.950 . S
H911 C938 0.950 . S
H912 C941 0.950 . S
H913 C942 0.950 . S
H914 C944 0.950 . S
H915 C945 0.950 . S
C916 H898 0.951 . S
C916 C917 1.366 . S
C916 C918 1.388 . S
C917 C916 1.366 . S
C917 C921 1.385 . S
C918 H899 0.951 . S
C918 C916 1.388 . S
C918 C919 1.366 . S
C919 C918 1.366 . S
C919 C920 1.414 . S
C919 C922 1.499 . S
C920 H900 0.950 . S
C920 C919 1.414 . S
C920 C921 1.374 . S
C921 H901 0.950 . S
C921 C917 1.385 . S
C921 C920 1.374 . S
C922 C919 1.499 . S
C922 C923 1.373 . S
C922 C924 1.389 . S
C923 H902 0.950 . S
C923 C922 1.373 . S
C923 C939 1.377 . S
C924 C922 1.389 . S
C924 C925 1.524 . S
C924 C938 1.377 . S
C925 C924 1.524 . S
C925 C926 1.397 . S
C925 C930 1.363 . S
C926 H903 0.950 . S
C926 C925 1.397 . S
C926 C927 1.334 . S
C927 H904 0.950 . S
C927 C926 1.334 . S
C927 C928 1.287 . S
C928 C927 1.287 . S
C928 C929 1.524 . S
C928 H947 0.913 . S
C929 H905 0.950 . S
C929 C928 1.524 . S
C929 C930 1.415 . S
C930 H906 0.950 . S
C930 C925 1.363 . S
C930 C929 1.415 . S
C931 H907 0.951 . S
C931 C932 1.366 . S
C931 C933 1.388 . S
C932 C931 1.366 . S
C932 C936 1.385 . S
C933 H908 0.951 . S
C933 C931 1.388 . S
C933 C934 1.366 . S
C934 C933 1.366 . S
C934 C935 1.414 . S
C934 C937 1.499 . S
C935 H909 0.950 . S
C935 C934 1.414 . S
C935 C936 1.374 . S
C936 H910 0.950 . S
C936 C932 1.385 . S
C936 C935 1.374 . S
C937 C934 1.499 . S
C937 C938 1.373 . S
C937 C939 1.389 . S
C938 H911 0.950 . S
C938 C924 1.377 . S
C938 C937 1.373 . S
C939 C923 1.377 . S
C939 C937 1.389 . S
C939 C940 1.524 . S
C940 C939 1.524 . S
C940 C941 1.397 . S
C940 C945 1.363 . S
C941 H912 0.950 . S
C941 C940 1.397 . S
C941 C942 1.334 . S
C942 H913 0.950 . S
C942 C941 1.334 . S
C942 C943 1.287 . S
C943 C942 1.287 . S
C943 C944 1.524 . S
C943 H946 0.999 . S
C944 H914 0.950 . S
C944 C943 1.524 . S
C944 C945 1.415 . S
C945 H915 0.950 . S
C945 C940 1.363 . S
C945 C944 1.415 . S
H946 C943 0.999 . S
H947 C928 0.913 . S
H948 C966 0.951 . S
H949 C968 0.951 . S
H950 C970 0.950 . S
H951 C971 0.950 . S
H952 C973 0.950 . S
H953 C976 0.950 . S
H954 C977 0.950 . S
H955 C979 0.950 . S
H956 C980 0.950 . S
H957 C981 0.951 . S
H958 C983 0.951 . S
H959 C985 0.950 . S
H960 C986 0.950 . S
H961 C988 0.950 . S
H962 C991 0.950 . S
H963 C992 0.950 . S
H964 C994 0.950 . S
H965 C995 0.950 . S
C966 H948 0.951 . S
C966 C967 1.368 . S
C966 C968 1.388 . S
C967 C966 1.368 . S
C967 C971 1.385 1_545 S
C968 H949 0.951 . S
C968 C966 1.388 . S
C968 C969 1.366 . S
C969 C968 1.366 . S
C969 C970 1.413 1_545 S
C969 C972 1.498 . S
C970 H950 0.950 . S
C970 C969 1.413 1_565 S
C970 C971 1.374 . S
C971 H951 0.950 . S
C971 C967 1.385 1_565 S
C971 C970 1.374 . S
C972 C969 1.498 . S
C972 C973 1.389 . S
C972 C974 1.377 1_545 S
C973 H952 0.950 . S
C973 C972 1.389 . S
C973 C989 1.377 . S
C974 C972 1.377 1_565 S
C974 C975 1.524 . S
C974 C988 1.377 . S
C975 C974 1.524 . S
C975 C976 1.397 . S
C975 C980 1.363 . S
C976 H953 0.950 . S
C976 C975 1.397 . S
C976 C977 1.334 . S
C977 H954 0.950 . S
C977 C976 1.334 . S
C977 C978 1.287 . S
C978 C977 1.287 . S
C978 C979 1.524 . S
C978 H997 0.913 . S
C979 H955 0.950 . S
C979 C978 1.524 . S
C979 C980 1.415 . S
C980 H956 0.950 . S
C980 C975 1.363 . S
C980 C979 1.415 . S
C981 H957 0.951 . S
C981 C982 1.366 1_565 S
C981 C983 1.388 . S
C982 C981 1.366 1_545 S
C982 C986 1.385 . S
C983 H958 0.951 . S
C983 C981 1.388 . S
C983 C984 1.366 1_565 S
C984 C983 1.366 1_545 S
C984 C985 1.414 . S
C984 C987 1.499 . S
C985 H959 0.950 . S
C985 C984 1.414 . S
C985 C986 1.374 . S
C986 H960 0.950 . S
C986 C982 1.385 . S
C986 C985 1.374 . S
C987 C984 1.499 . S
C987 C988 1.373 1_545 S
C987 C989 1.389 . S
C988 H961 0.950 . S
C988 C974 1.377 . S
C988 C987 1.373 1_565 S
C989 C973 1.377 . S
C989 C987 1.389 . S
C989 C990 1.524 . S
C990 C989 1.524 . S
C990 C991 1.397 . S
C990 C995 1.363 . S
C991 H962 0.950 . S
C991 C990 1.397 . S
C991 C992 1.334 . S
C992 H963 0.950 . S
C992 C991 1.334 . S
C992 C993 1.287 . S
C993 C992 1.287 . S
C993 C994 1.524 . S
C993 H996 0.999 . S
C994 H964 0.950 . S
C994 C993 1.524 . S
C994 C995 1.415 . S
C995 H965 0.950 . S
C995 C990 1.363 . S
C995 C994 1.415 . S
H996 C993 0.999 . S
H997 C978 0.913 . S
H998 C1016 0.951 . S
H999 C1018 0.951 . S
H1000 C1020 0.950 . S
H1001 C1021 0.950 . S
H1002 C1023 0.950 . S
H1003 C1026 0.950 . S
H1004 C1027 0.950 . S
H1005 C1029 0.950 . S
H1006 C1030 0.950 . S
H1007 C1031 0.951 . S
H1008 C1033 0.951 . S
H1009 C1035 0.950 . S
H1010 C1036 0.950 . S
H1011 C1038 0.950 1_554 S
H1012 C1041 0.950 . S
H1013 C1042 0.950 . S
H1014 C1044 0.950 . S
H1015 C1045 0.950 . S
C1016 H998 0.951 . S
C1016 C1017 1.366 . S
C1016 C1018 1.388 . S
C1017 C1016 1.366 . S
C1017 C1021 1.385 . S
C1018 H999 0.951 . S
C1018 C1016 1.388 . S
C1018 C1019 1.366 . S
C1019 C1018 1.366 . S
C1019 C1020 1.414 . S
C1019 C1022 1.499 . S
C1020 H1000 0.950 . S
C1020 C1019 1.414 . S
C1020 C1021 1.374 . S
C1021 H1001 0.950 . S
C1021 C1017 1.385 . S
C1021 C1020 1.374 . S
C1022 C1019 1.499 . S
C1022 C1023 1.373 . S
C1022 C1024 1.389 . S
C1023 H1002 0.950 . S
C1023 C1022 1.373 . S
C1023 C1039 1.377 . S
C1024 C1022 1.389 . S
C1024 C1025 1.524 . S
C1024 C1038 1.377 . S
C1025 C1024 1.524 . S
C1025 C1026 1.397 . S
C1025 C1030 1.363 . S
C1026 H1003 0.950 . S
C1026 C1025 1.397 . S
C1026 C1027 1.334 . S
C1027 H1004 0.950 . S
C1027 C1026 1.334 . S
C1027 C1028 1.287 . S
C1028 C1027 1.287 . S
C1028 C1029 1.524 . S
C1028 H1047 0.913 . S
C1029 H1005 0.950 . S
C1029 C1028 1.524 . S
C1029 C1030 1.415 . S
C1030 H1006 0.950 . S
C1030 C1025 1.363 . S
C1030 C1029 1.415 . S
C1031 H1007 0.951 . S
C1031 C1032 1.366 . S
C1031 C1033 1.388 . S
C1032 C1031 1.366 . S
C1032 C1036 1.385 . S
C1033 H1008 0.951 . S
C1033 C1031 1.388 . S
C1033 C1034 1.366 . S
C1034 C1033 1.366 . S
C1034 C1035 1.414 . S
C1034 C1037 1.499 . S
C1035 H1009 0.950 . S
C1035 C1034 1.414 . S
C1035 C1036 1.374 . S
C1036 H1010 0.950 . S
C1036 C1032 1.385 . S
C1036 C1035 1.374 . S
C1037 C1034 1.499 . S
C1037 C1038 1.373 1_554 S
C1037 C1039 1.389 1_554 S
C1038 H1011 0.950 1_556 S
C1038 C1024 1.377 . S
C1038 C1037 1.373 1_556 S
C1039 C1023 1.377 . S
C1039 C1037 1.389 1_556 S
C1039 C1040 1.524 1_556 S
C1040 C1039 1.524 1_554 S
C1040 C1041 1.397 . S
C1040 C1045 1.363 1_554 S
C1041 H1012 0.950 . S
C1041 C1040 1.397 . S
C1041 C1042 1.334 . S
C1042 H1013 0.950 . S
C1042 C1041 1.334 . S
C1042 C1043 1.287 . S
C1043 C1042 1.287 . S
C1043 C1044 1.524 1_554 S
C1043 H1046 0.999 . S
C1044 H1014 0.950 . S
C1044 C1043 1.524 1_556 S
C1044 C1045 1.415 . S
C1045 H1015 0.950 . S
C1045 C1040 1.363 1_556 S
C1045 C1044 1.415 . S
H1046 C1043 0.999 . S
H1047 C1028 0.913 . S
H1048 C1066 0.951 . S
H1049 C1068 0.951 . S
H1050 C1070 0.950 . S
H1051 C1071 0.950 . S
H1052 C1073 0.950 . S
H1053 C1076 0.950 . S
H1054 C1077 0.950 . S
H1055 C1079 0.950 . S
H1056 C1080 0.950 . S
H1057 C1081 0.951 . S
H1058 C1083 0.951 . S
H1059 C1085 0.950 . S
H1060 C1086 0.950 . S
H1061 C1088 0.950 . S
H1062 C1091 0.950 . S
H1063 C1092 0.950 . S
H1064 C1094 0.950 . S
H1065 C1095 0.950 . S
C1066 H1048 0.951 . S
C1066 C1067 1.366 1_655 S
C1066 C1068 1.388 . S
C1067 C1066 1.366 1_455 S
C1067 C1071 1.385 . S
C1068 H1049 0.951 . S
C1068 C1066 1.388 . S
C1068 C1069 1.366 1_655 S
C1069 C1068 1.366 1_455 S
C1069 C1070 1.414 . S
C1069 C1072 1.499 . S
C1070 H1050 0.950 . S
C1070 C1069 1.414 . S
C1070 C1071 1.374 . S
C1071 H1051 0.950 . S
C1071 C1067 1.385 . S
C1071 C1070 1.374 . S
C1072 C1069 1.499 . S
C1072 C1073 1.373 . S
C1072 C1074 1.389 1_455 S
C1073 H1052 0.950 . S
C1073 C1072 1.373 . S
C1073 C1089 1.377 . S
C1074 C1072 1.389 1_655 S
C1074 C1075 1.524 . S
C1074 C1088 1.377 . S
C1075 C1074 1.524 . S
C1075 C1076 1.397 . S
C1075 C1080 1.363 . S
C1076 H1053 0.950 . S
C1076 C1075 1.397 . S
C1076 C1077 1.334 . S
C1077 H1054 0.950 . S
C1077 C1076 1.334 . S
C1077 C1078 1.287 . S
C1078 C1077 1.287 . S
C1078 C1079 1.524 . S
C1078 H1097 0.913 . S
C1079 H1055 0.950 . S
C1079 C1078 1.524 . S
C1079 C1080 1.415 . S
C1080 H1056 0.950 . S
C1080 C1075 1.363 . S
C1080 C1079 1.415 . S
C1081 H1057 0.951 . S
C1081 C1082 1.366 . S
C1081 C1083 1.388 . S
C1082 C1081 1.366 . S
C1082 C1086 1.385 1_455 S
C1083 H1058 0.951 . S
C1083 C1081 1.388 . S
C1083 C1084 1.366 . S
C1084 C1083 1.366 . S
C1084 C1085 1.414 1_455 S
C1084 C1087 1.499 . S
C1085 H1059 0.950 . S
C1085 C1084 1.414 1_655 S
C1085 C1086 1.374 . S
C1086 H1060 0.950 . S
C1086 C1082 1.385 1_655 S
C1086 C1085 1.374 . S
C1087 C1084 1.499 . S
C1087 C1088 1.373 1_455 S
C1087 C1089 1.389 . S
C1088 H1061 0.950 . S
C1088 C1074 1.377 . S
C1088 C1087 1.373 1_655 S
C1089 C1073 1.377 . S
C1089 C1087 1.389 . S
C1089 C1090 1.524 . S
C1090 C1089 1.524 . S
C1090 C1091 1.397 . S
C1090 C1095 1.363 . S
C1091 H1062 0.950 . S
C1091 C1090 1.397 . S
C1091 C1092 1.334 . S
C1092 H1063 0.950 . S
C1092 C1091 1.334 . S
C1092 C1093 1.287 . S
C1093 C1092 1.287 . S
C1093 C1094 1.524 . S
C1093 H1096 0.999 . S
C1094 H1064 0.950 . S
C1094 C1093 1.524 . S
C1094 C1095 1.415 . S
C1095 H1065 0.950 . S
C1095 C1090 1.363 . S
C1095 C1094 1.415 . S
H1096 C1093 0.999 . S
H1097 C1078 0.913 . S
C217 C10 3.158 . S
C232 C189 2.957 . S
C267 C55 1.050 . S
C282 C167 1.044 . S
C317 C90 1.799 . S
C332 C180 1.783 . S
C367 C19 2.865 . S
C382 C193 2.851 . S
C432 C163 1.304 . S
C417 C46 1.363 . S
C482 C176 1.899 . S
C467 C99 2.026 . S
C517 C50 1.799 . S
C532 C141 1.776 . S
C567 C95 0.299 . S
C582 C154 0.304 . S
C617 C6 1.293 . S
C632 C124 1.215 . S
C682 C137 1.874 . S
C667 C59 2.012 . S
C732 C150 0.481 . S
C717 C86 0.449 . S
C767 C15 1.091 . S
C782 C128 1.085 . S
C832 C155 1.295 . S
C817 C18 1.272 . S
C867 C49 1.479 . S
C882 C129 1.553 . S
C917 C98 1.468 . S
C932 C142 1.505 . S
C982 C181 1.502 . S
C967 C58 1.464 . S
C1032 C194 1.749 . S
C1017 C89 1.656 . S
C1067 C9 1.502 . S
C1082 C168 1.579 . S
