# Generated by pormake.
# Topology the, (3,8)-cn, num edge types: 1
# Building blocks:
#     Node 0, Type 0, BuildingBlock: MIDCAF_clean_linker_0, # of connection points: 3
#     Node 1, Type 0, BuildingBlock: MIDCAF_clean_linker_0, # of connection points: 3
#     Node 2, Type 0, BuildingBlock: MIDCAF_clean_linker_0, # of connection points: 3
#     Node 3, Type 0, BuildingBlock: MIDCAF_clean_linker_0, # of connection points: 3
#     Node 4, Type 0, BuildingBlock: MIDCAF_clean_linker_0, # of connection points: 3
#     Node 5, Type 0, BuildingBlock: MIDCAF_clean_linker_0, # of connection points: 3
#     Node 6, Type 0, BuildingBlock: MIDCAF_clean_linker_0, # of connection points: 3
#     Node 7, Type 0, BuildingBlock: MIDCAF_clean_linker_0, # of connection points: 3
#     Node 8, Type 1, BuildingBlock: GIZVER_clean_sbu_0, # of connection points: 8
#     Node 9, Type 1, BuildingBlock: GIZVER_clean_sbu_0, # of connection points: 8
#     Node 10, Type 1, BuildingBlock: GIZVER_clean_sbu_0, # of connection points: 8
#     Edge 11, Type (0, 1), BuildingBlock: ZUJKAS_clean_linker_0, # of connection points: 2
#     Edge 12, Type (0, 1), BuildingBlock: ZUJKAS_clean_linker_0, # of connection points: 2
#     Edge 13, Type (0, 1), BuildingBlock: ZUJKAS_clean_linker_0, # of connection points: 2
#     Edge 14, Type (0, 1), BuildingBlock: ZUJKAS_clean_linker_0, # of connection points: 2
#     Edge 15, Type (0, 1), BuildingBlock: ZUJKAS_clean_linker_0, # of connection points: 2
#     Edge 16, Type (0, 1), BuildingBlock: ZUJKAS_clean_linker_0, # of connection points: 2
#     Edge 17, Type (0, 1), BuildingBlock: ZUJKAS_clean_linker_0, # of connection points: 2
#     Edge 18, Type (0, 1), BuildingBlock: ZUJKAS_clean_linker_0, # of connection points: 2
#     Edge 19, Type (0, 1), BuildingBlock: ZUJKAS_clean_linker_0, # of connection points: 2
#     Edge 20, Type (0, 1), BuildingBlock: ZUJKAS_clean_linker_0, # of connection points: 2
#     Edge 21, Type (0, 1), BuildingBlock: ZUJKAS_clean_linker_0, # of connection points: 2
#     Edge 22, Type (0, 1), BuildingBlock: ZUJKAS_clean_linker_0, # of connection points: 2
#     Edge 23, Type (0, 1), BuildingBlock: ZUJKAS_clean_linker_0, # of connection points: 2
#     Edge 24, Type (0, 1), BuildingBlock: ZUJKAS_clean_linker_0, # of connection points: 2
#     Edge 25, Type (0, 1), BuildingBlock: ZUJKAS_clean_linker_0, # of connection points: 2
#     Edge 26, Type (0, 1), BuildingBlock: ZUJKAS_clean_linker_0, # of connection points: 2
#     Edge 27, Type (0, 1), BuildingBlock: ZUJKAS_clean_linker_0, # of connection points: 2
#     Edge 28, Type (0, 1), BuildingBlock: ZUJKAS_clean_linker_0, # of connection points: 2
#     Edge 29, Type (0, 1), BuildingBlock: ZUJKAS_clean_linker_0, # of connection points: 2
#     Edge 30, Type (0, 1), BuildingBlock: ZUJKAS_clean_linker_0, # of connection points: 2
#     Edge 31, Type (0, 1), BuildingBlock: ZUJKAS_clean_linker_0, # of connection points: 2
#     Edge 32, Type (0, 1), BuildingBlock: ZUJKAS_clean_linker_0, # of connection points: 2
#     Edge 33, Type (0, 1), BuildingBlock: ZUJKAS_clean_linker_0, # of connection points: 2
#     Edge 34, Type (0, 1), BuildingBlock: ZUJKAS_clean_linker_0, # of connection points: 2
# Relax obj value: 0.044
# Max RMSD: 0.139
# Mean RMSD: 0.063
data_MOF--net-the--node1-GIZVER_clean_sbu_0--node2-MIDCAF_clean_linker_0--edge1-ZUJKAS_clean_linker_0
_symmetry_space_group_name_H-M    P1
_symmetry_Int_Tables_number       1
_symmetry_cell_setting            triclinic
loop_
_symmetry_equiv_pos_as_xyz
'x, y, z'
_cell_length_a     61.496379
_cell_length_b     58.151449
_cell_length_c     53.920927
_cell_angle_alpha  86.759081
_cell_angle_beta   93.353274
_cell_angle_gamma 99.706392
loop_
_atom_site_label
_atom_site_type_symbol
_atom_site_fract_x
_atom_site_fract_y
_atom_site_fract_z
_atom_type_partial_charge
C0 C 0.25845 0.38138 0.41936 0.0
C1 C 0.25241 0.36895 0.44174 0.0
C2 C 0.26245 0.34962 0.44938 0.0
C3 C 0.27815 0.3428 0.435 0.0
H4 H 0.30493 0.2839 0.4199 0.0
H5 H 0.31964 0.24908 0.43464 0.0
H6 H 0.38097 0.27624 0.39985 0.0
H7 H 0.36567 0.31048 0.38397 0.0
H8 H 0.35417 0.34264 0.33235 0.0
H9 H 0.36702 0.36366 0.29449 0.0
H10 H 0.32565 0.41519 0.30451 0.0
H11 H 0.31225 0.39378 0.3424 0.0
H12 H 0.27859 0.38456 0.38785 0.0
H13 H 0.2511 0.39649 0.4131 0.0
H14 H 0.25791 0.33948 0.46632 0.0
H15 H 0.28544 0.32773 0.44155 0.0
N16 N 0.30946 0.32816 0.405 0.0
N17 N 0.33252 0.33369 0.37145 0.0
N18 N 0.30844 0.36018 0.37677 0.0
C19 C 0.32516 0.32107 0.39211 0.0
C20 C 0.32417 0.3532 0.36353 0.0
C21 C 0.30107 0.3477 0.39763 0.0
C22 C 0.33415 0.29988 0.40075 0.0
C23 C 0.32154 0.28238 0.41536 0.0
C24 C 0.33007 0.26248 0.42399 0.0
C25 C 0.35158 0.2598 0.4186 0.0
C26 C 0.3642 0.27744 0.40402 0.0
C27 C 0.3555 0.29715 0.39499 0.0
C28 C 0.33216 0.36648 0.34057 0.0
C29 C 0.34777 0.35847 0.32664 0.0
C30 C 0.3553 0.37064 0.30493 0.0
C31 C 0.34751 0.39123 0.29654 0.0
C32 C 0.33186 0.39929 0.31037 0.0
C33 C 0.32427 0.38706 0.33216 0.0
C34 C 0.28427 0.35519 0.4126 0.0
C35 C 0.27426 0.3746 0.40495 0.0
C36 C 0.67014 0.24746 0.35963 0.0
C37 C 0.65256 0.2344 0.34593 0.0
C38 C 0.64674 0.24301 0.32199 0.0
C39 C 0.65782 0.26425 0.31222 0.0
H40 H 0.65297 0.31111 0.25543 0.0
H41 H 0.63363 0.32879 0.22094 0.0
H42 H 0.67697 0.39459 0.23087 0.0
H43 H 0.69685 0.37665 0.26536 0.0
H44 H 0.74451 0.37058 0.29956 0.0
H45 H 0.77925 0.38918 0.31952 0.0
H46 H 0.76937 0.3395 0.38206 0.0
H47 H 0.73473 0.32098 0.36235 0.0
H48 H 0.69462 0.27838 0.36096 0.0
H49 H 0.67494 0.24155 0.37824 0.0
H50 H 0.63364 0.23327 0.31063 0.0
H51 H 0.65273 0.27026 0.29375 0.0
N52 N 0.67753 0.31054 0.29516 0.0
N53 N 0.70638 0.34253 0.29659 0.0
N54 N 0.7055 0.31148 0.32662 0.0
C55 C 0.68723 0.3316 0.28549 0.0
C56 C 0.71567 0.33251 0.31717 0.0
C57 C 0.68645 0.30034 0.31567 0.0
C58 C 0.67643 0.34247 0.26344 0.0
C59 C 0.65852 0.32935 0.25034 0.0
C60 C 0.64728 0.33955 0.23055 0.0
C61 C 0.65349 0.36323 0.22327 0.0
C62 C 0.67179 0.37627 0.23587 0.0
C63 C 0.68316 0.366 0.25572 0.0
C64 C 0.73671 0.34423 0.32929 0.0
C65 C 0.74968 0.36364 0.3176 0.0
C66 C 0.76969 0.37423 0.32896 0.0
C67 C 0.77709 0.36584 0.3524 0.0
C68 C 0.76406 0.34656 0.36413 0.0
C69 C 0.74421 0.33585 0.35271 0.0
C70 C 0.67521 0.27744 0.326 0.0
C71 C 0.68137 0.26868 0.34976 0.0
C72 C 0.67131 0.65392 0.2488 0.0
C73 C 0.65205 0.66117 0.23802 0.0
C74 C 0.64392 0.67923 0.24896 0.0
C75 C 0.65473 0.6897 0.27012 0.0
H76 H 0.65683 0.74605 0.31669 0.0
H77 H 0.64287 0.77692 0.33665 0.0
H78 H 0.68543 0.76759 0.40168 0.0
H79 H 0.6994 0.73674 0.38188 0.0
H80 H 0.74115 0.71132 0.37477 0.0
H81 H 0.77361 0.69659 0.39319 0.0
H82 H 0.76514 0.64352 0.33896 0.0
H83 H 0.7326 0.65795 0.3207 0.0
H84 H 0.69678 0.65807 0.27768 0.0
H85 H 0.6779 0.63984 0.24118 0.0
H86 H 0.62928 0.68546 0.24103 0.0
H87 H 0.64794 0.70352 0.27798 0.0
N88 N 0.67759 0.71046 0.31458 0.0
N89 N 0.70612 0.71188 0.34566 0.0
N90 N 0.70361 0.68526 0.31415 0.0
C91 C 0.68788 0.71996 0.33559 0.0
C92 C 0.71415 0.69458 0.33506 0.0
C93 C 0.68534 0.69304 0.30374 0.0
C94 C 0.67928 0.73882 0.34761 0.0
C95 C 0.66323 0.75053 0.33525 0.0
C96 C 0.65531 0.76835 0.34663 0.0
C97 C 0.66304 0.77473 0.37076 0.0
C98 C 0.67899 0.76296 0.38317 0.0
C99 C 0.68709 0.74534 0.37171 0.0
C100 C 0.73412 0.68583 0.34623 0.0
C101 C 0.74616 0.69649 0.36674 0.0
C102 C 0.76488 0.68814 0.37725 0.0
C103 C 0.77196 0.66883 0.36762 0.0
C104 C 0.75998 0.65823 0.34708 0.0
C105 C 0.74135 0.66663 0.3365 0.0
C106 C 0.67394 0.68233 0.28097 0.0
C107 C 0.68209 0.66433 0.26993 0.0
C108 C 0.23276 0.6829 0.35482 0.0
C109 C 0.22033 0.6626 0.345 0.0
C110 C 0.22898 0.65211 0.32576 0.0
C111 C 0.2497 0.66147 0.31684 0.0
H112 H 0.29404 0.65045 0.2672 0.0
H113 H 0.30951 0.62985 0.23634 0.0
H114 H 0.37129 0.67745 0.24379 0.0
H115 H 0.35567 0.69848 0.27434 0.0
H116 H 0.35974 0.74052 0.31125 0.0
H117 H 0.38103 0.77466 0.33063 0.0
H118 H 0.32534 0.78053 0.37371 0.0
H119 H 0.30422 0.74624 0.35483 0.0
H120 H 0.26255 0.70786 0.35407 0.0
H121 H 0.22647 0.69161 0.36943 0.0
H122 H 0.21997 0.63631 0.31796 0.0
H123 H 0.25591 0.65272 0.30222 0.0
N124 N 0.29349 0.68026 0.30039 0.0
N125 N 0.3259 0.70808 0.30259 0.0
N126 N 0.29666 0.7106 0.32784 0.0
C127 C 0.31408 0.68857 0.29252 0.0
C128 C 0.31727 0.71924 0.32025 0.0
C129 C 0.28463 0.69114 0.31804 0.0
C130 C 0.32357 0.67619 0.2734 0.0
C131 C 0.31092 0.65663 0.26229 0.0
C132 C 0.31985 0.64467 0.24463 0.0
C133 C 0.34169 0.65189 0.23758 0.0
C134 C 0.35431 0.67155 0.24852 0.0
C135 C 0.34537 0.68355 0.26619 0.0
C136 C 0.33022 0.74045 0.33148 0.0
C137 C 0.35199 0.74908 0.32483 0.0
C138 C 0.36419 0.76878 0.33585 0.0
C139 C 0.35495 0.78036 0.35382 0.0
C140 C 0.33313 0.77187 0.36026 0.0
C141 C 0.32095 0.7522 0.34927 0.0
C142 C 0.26229 0.6816 0.32691 0.0
C143 C 0.25345 0.69229 0.34589 0.0
C144 C 0.2445 0.64395 0.68537 0.0
C145 C 0.23674 0.65238 0.66208 0.0
C146 C 0.24982 0.67154 0.65012 0.0
C147 C 0.26999 0.68199 0.66114 0.0
H148 H 0.31868 0.74069 0.65445 0.0
H149 H 0.33829 0.77787 0.63777 0.0
H150 H 0.38625 0.77962 0.69971 0.0
H151 H 0.36666 0.74281 0.71655 0.0
H152 H 0.36617 0.70131 0.75361 0.0
H153 H 0.38414 0.68257 0.78852 0.0
H154 H 0.33202 0.62272 0.78573 0.0
H155 H 0.31404 0.64135 0.75027 0.0
H156 H 0.27008 0.64732 0.71427 0.0
H157 H 0.23479 0.6295 0.69541 0.0
H158 H 0.24467 0.67831 0.63201 0.0
H159 H 0.27958 0.69664 0.65126 0.0
N160 N 0.30985 0.70543 0.68654 0.0
N161 N 0.33832 0.70514 0.71732 0.0
N162 N 0.30851 0.67416 0.71632 0.0
C163 C 0.32939 0.71585 0.69713 0.0
C164 C 0.32811 0.68432 0.72705 0.0
C165 C 0.29924 0.68462 0.69604 0.0
C166 C 0.34103 0.73863 0.68688 0.0
C167 C 0.33335 0.74902 0.66458 0.0
C168 C 0.34466 0.7703 0.65493 0.0
C169 C 0.36382 0.78177 0.66743 0.0
C170 C 0.37138 0.77146 0.68978 0.0
C171 C 0.36018 0.75018 0.69935 0.0
C172 C 0.33859 0.67288 0.74896 0.0
C173 C 0.3584 0.68417 0.76037 0.0
C174 C 0.36869 0.67347 0.7806 0.0
C175 C 0.35951 0.65115 0.79006 0.0
C176 C 0.33965 0.63984 0.77878 0.0
C177 C 0.32928 0.6506 0.75851 0.0
C178 C 0.27777 0.67348 0.68436 0.0
C179 C 0.26476 0.65428 0.6963 0.0
C180 C 0.23893 0.34022 0.66584 0.0
C181 C 0.2272 0.32769 0.64628 0.0
C182 C 0.23572 0.3088 0.63764 0.0
C183 C 0.25546 0.3027 0.64815 0.0
H184 H 0.2989 0.25767 0.64099 0.0
H185 H 0.31511 0.22827 0.62162 0.0
H186 H 0.37568 0.24735 0.66588 0.0
H187 H 0.35922 0.27632 0.68586 0.0
H188 H 0.3625 0.32037 0.72274 0.0
H189 H 0.38105 0.34065 0.75827 0.0
H190 H 0.31834 0.35515 0.78012 0.0
H191 H 0.30011 0.336 0.74373 0.0
H192 H 0.26721 0.34427 0.69129 0.0
H193 H 0.23313 0.35511 0.67275 0.0
H194 H 0.22703 0.29852 0.62288 0.0
H195 H 0.26145 0.28805 0.64093 0.0
N196 N 0.29796 0.29281 0.66783 0.0
N197 N 0.32791 0.29851 0.69708 0.0
N198 N 0.29885 0.31985 0.69869 0.0
C199 C 0.31764 0.28738 0.67698 0.0
C200 C 0.31857 0.31468 0.70814 0.0
C201 C 0.28847 0.30907 0.67844 0.0
C202 C 0.32771 0.26947 0.66506 0.0
C203 C 0.31569 0.25565 0.64665 0.0
C204 C 0.32506 0.2388 0.63538 0.0
C205 C 0.34678 0.23536 0.64207 0.0
C206 C 0.35881 0.24919 0.66048 0.0
C207 C 0.34938 0.26596 0.67187 0.0
C208 C 0.32981 0.3266 0.73027 0.0
C209 C 0.35268 0.32789 0.73514 0.0
C210 C 0.36331 0.33943 0.75574 0.0
C211 C 0.35133 0.34966 0.7724 0.0
C212 C 0.32835 0.34803 0.76762 0.0
C213 C 0.31779 0.33686 0.74675 0.0
C214 C 0.26721 0.31527 0.66766 0.0
C215 C 0.25862 0.33406 0.67642 0.0
C216 C 0.68691 0.24916 0.64615 0.0
C217 C 0.66576 0.23911 0.65372 0.0
C218 C 0.65629 0.25 0.67205 0.0
C219 C 0.66763 0.2704 0.68248 0.0
H220 H 0.66277 0.31758 0.73534 0.0
H221 H 0.64616 0.33636 0.76693 0.0
H222 H 0.70254 0.39182 0.76849 0.0
H223 H 0.71942 0.37286 0.73732 0.0
H224 H 0.76197 0.36659 0.70944 0.0
H225 H 0.79782 0.38478 0.69502 0.0
H226 H 0.7879 0.34123 0.63164 0.0
H227 H 0.75233 0.32242 0.64656 0.0
H228 H 0.71452 0.2767 0.65024 0.0
H229 H 0.69486 0.24111 0.63232 0.0
H230 H 0.6399 0.24298 0.67809 0.0
H231 H 0.6597 0.27829 0.69645 0.0
N232 N 0.69173 0.31248 0.70396 0.0
N233 N 0.72281 0.34197 0.70603 0.0
N234 N 0.721 0.31226 0.67797 0.0
C235 C 0.70261 0.33235 0.71413 0.0
C236 C 0.73214 0.33209 0.68797 0.0
C237 C 0.70081 0.30227 0.68589 0.0
C238 C 0.69248 0.34364 0.73365 0.0
C239 C 0.6717 0.33375 0.74242 0.0
C240 C 0.66208 0.34461 0.76047 0.0
C241 C 0.67295 0.36567 0.77026 0.0
C242 C 0.69379 0.37548 0.76163 0.0
C243 C 0.70343 0.36463 0.74358 0.0
C244 C 0.75416 0.34302 0.67917 0.0
C245 C 0.76741 0.36083 0.69243 0.0
C246 C 0.78798 0.3714 0.68406 0.0
C247 C 0.79584 0.36463 0.66205 0.0
C248 C 0.78262 0.34671 0.64885 0.0
C249 C 0.7621 0.33599 0.65735 0.0
C250 C 0.68877 0.2805 0.67487 0.0
C251 C 0.69826 0.26956 0.65657 0.0
C252 C 0.65591 0.64472 0.70799 0.0
C253 C 0.66525 0.62578 0.71863 0.0
C254 C 0.68259 0.61864 0.70683 0.0
C255 C 0.69064 0.63042 0.68505 0.0
H256 H 0.74016 0.63386 0.63637 0.0
H257 H 0.77205 0.62365 0.61752 0.0
H258 H 0.76919 0.67891 0.56101 0.0
H259 H 0.73762 0.68949 0.58001 0.0
H260 H 0.71051 0.73024 0.59361 0.0
H261 H 0.69535 0.76397 0.57633 0.0
H262 H 0.63209 0.73482 0.60576 0.0
H263 H 0.64773 0.70164 0.6242 0.0
H264 H 0.65633 0.67103 0.67865 0.0
H265 H 0.64229 0.65041 0.71643 0.0
H266 H 0.69024 0.60422 0.71468 0.0
H267 H 0.70419 0.62458 0.67662 0.0
N268 N 0.70824 0.65668 0.6415 0.0
N269 N 0.70771 0.68717 0.6113 0.0
N270 N 0.68127 0.68081 0.64159 0.0
C271 C 0.71693 0.6689 0.62115 0.0
C272 C 0.68989 0.69321 0.62132 0.0
C273 C 0.69042 0.66255 0.65187 0.0
C274 C 0.73628 0.66251 0.60976 0.0
C275 C 0.7463 0.64386 0.61994 0.0
C276 C 0.7645 0.6379 0.60904 0.0
C277 C 0.77308 0.65045 0.58774 0.0
C278 C 0.7631 0.66909 0.57757 0.0
C279 C 0.74491 0.67506 0.58844 0.0
C280 C 0.68033 0.71335 0.61037 0.0
C281 C 0.69335 0.73102 0.59635 0.0
C282 C 0.68457 0.75031 0.58625 0.0
C283 C 0.66244 0.7522 0.58955 0.0
C284 C 0.64932 0.73423 0.60322 0.0
C285 C 0.65823 0.71514 0.61372 0.0
C286 C 0.68146 0.64956 0.67454 0.0
C287 C 0.66389 0.65645 0.6862 0.0
Co288 Co 0.03903 0.46531 0.542 0.0
Co289 Co 0.0536 0.48176 0.50172 0.0
Co290 Co 0.01137 0.5046 0.50541 0.0
O291 O 0.0253 0.47576 0.51073 0.0
H292 H 0.01707 0.46282 0.50192 0.0
O293 O 0.99707 0.53297 0.4998 0.0
Co294 Co 0.96646 0.53035 0.48878 0.0
Co295 Co 0.98934 0.5417 0.53068 0.0
H296 H 0.00639 0.54578 0.49144 0.0
O297 O 0.06429 0.45851 0.48744 0.0
O298 O 0.06868 0.46923 0.52741 0.0
O299 O 0.06422 0.51333 0.49119 0.0
O300 O 0.03057 0.5181 0.47669 0.0
O301 O 0.98881 0.48685 0.48184 0.0
O302 O 0.93878 0.53052 0.47762 0.0
O303 O 0.9674 0.56025 0.4764 0.0
O304 O 0.96141 0.49855 0.49936 0.0
O305 O 0.99245 0.49084 0.53386 0.0
O306 O 0.99012 0.51949 0.5586 0.0
O307 O 0.95956 0.53933 0.52172 0.0
O308 O 0.98208 0.57124 0.53495 0.0
C309 C 0.04546 0.43401 0.55759 0.0
C310 C 0.0454 0.5172 0.54695 0.0
C311 C 0.05163 0.52452 0.47761 0.0
C312 C 0.0736 0.45691 0.50964 0.0
C313 C 0.94655 0.55214 0.47135 0.0
C314 C 0.9682 0.48461 0.48547 0.0
C315 C 0.98715 0.49792 0.55436 0.0
C316 C 0.96242 0.56075 0.52843 0.0
O317 O 0.05054 0.45319 0.56945 0.0
O318 O 0.03453 0.43434 0.53605 0.0
O319 O 0.03322 0.52329 0.52869 0.0
O320 O 0.04673 0.49596 0.55221 0.0
Co321 Co 0.53374 0.96129 0.49595 0.0
Co322 Co 0.54484 0.98224 0.53832 0.0
Co323 Co 0.50946 0.00775 0.50799 0.0
O324 O 0.53638 0.99292 0.5063 0.0
H325 H 0.5485 1.00332 0.49896 0.0
O326 O 0.48246 0.02241 0.50962 0.0
Co327 Co 0.48452 0.05372 0.52033 0.0
Co328 Co 0.47407 0.0333 0.47778 0.0
H329 H 0.47033 0.01182 0.5167 0.0
O330 O 0.57316 0.97512 0.54558 0.0
O331 O 0.54342 0.95163 0.52982 0.0
O332 O 0.52386 0.98047 0.56389 0.0
O333 O 0.4967 0.98634 0.53645 0.0
O334 O 0.52648 0.03046 0.53175 0.0
O335 O 0.4841 0.08194 0.53102 0.0
O336 O 0.45641 0.05122 0.53036 0.0
O337 O 0.51435 0.06043 0.51218 0.0
O338 O 0.52224 0.02919 0.47959 0.0
O339 O 0.49515 0.03561 0.45231 0.0
O340 O 0.47499 0.06377 0.48649 0.0
O341 O 0.44564 0.03985 0.47039 0.0
C342 C 0.55386 0.94138 0.48074 0.0
C343 C 0.49054 0.96313 0.48873 0.0
C344 C 0.50343 0.97877 0.55779 0.0
C345 C 0.56391 0.9548 0.53809 0.0
C346 C 0.46385 0.0729 0.53568 0.0
C347 C 0.52818 0.0525 0.52736 0.0
C348 C 0.51556 0.03706 0.45838 0.0
C349 C 0.45459 0.06027 0.47786 0.0
O350 O 0.5336 0.93283 0.4858 0.0
O351 O 0.56169 0.96312 0.48549 0.0
O352 O 0.49247 0.98514 0.48419 0.0
O353 O 0.50401 0.9552 0.50437 0.0
Co354 Co 0.47788 0.5163 0.0552 0.0
Co355 Co 0.46825 0.47396 0.04035 0.0
Co356 Co 0.50456 0.50379 0.0055 0.0
O357 O 0.47677 0.50251 0.02355 0.0
H358 H 0.46475 0.50634 0.01266 0.0
O359 O 0.53246 0.50516 0.98765 0.0
Co360 Co 0.53204 0.49199 0.95586 0.0
Co361 Co 0.5412 0.53421 0.97178 0.0
H362 H 0.54441 0.5012 0.99866 0.0
O363 O 0.43925 0.46411 0.04913 0.0
O364 O 0.46662 0.48556 0.07143 0.0
O365 O 0.48979 0.45349 0.04442 0.0
O366 O 0.51679 0.47944 0.02831 0.0
O367 O 0.48804 0.47903 0.98339 0.0
O368 O 0.53386 0.47905 0.92727 0.0
O369 O 0.56004 0.48554 0.95817 0.0
O370 O 0.50265 0.49633 0.94947 0.0
O371 O 0.49238 0.52813 0.98267 0.0
O372 O 0.51973 0.55486 0.9685 0.0
O373 O 0.54238 0.52321 0.94035 0.0
O374 O 0.57013 0.54433 0.96231 0.0
C375 C 0.45725 0.53237 0.0744 0.0
C376 C 0.52195 0.52555 0.05114 0.0
C377 C 0.51011 0.46046 0.04088 0.0
C378 C 0.4465 0.47419 0.06958 0.0
C379 C 0.5536 0.47736 0.93638 0.0
C380 C 0.4878 0.48163 0.95967 0.0
C381 C 0.49931 0.5476 0.97111 0.0
C382 C 0.56245 0.53466 0.94178 0.0
O383 O 0.47685 0.53003 0.08348 0.0
O384 O 0.45026 0.52375 0.05293 0.0
O385 O 0.52101 0.52859 0.02748 0.0
O386 O 0.50709 0.51106 0.0616 0.0
H387 H 0.21312 0.38168 0.42538 0.0
H388 H 0.18477 0.39238 0.45043 0.0
H389 H 0.22443 0.38178 0.51735 0.0
H390 H 0.25316 0.37136 0.4924 0.0
H391 H 0.16715 0.35959 0.50251 0.0
H392 H 0.20373 0.45384 0.50642 0.0
H393 H 0.2071 0.43855 0.47905 0.0
H394 H 0.22065 0.43117 0.50802 0.0
C395 C 0.21593 0.38183 0.44539 0.0
C396 C 0.23539 0.37576 0.45691 0.0
C397 C 0.19967 0.38775 0.45965 0.0
C398 C 0.20262 0.38776 0.48562 0.0
C399 C 0.22194 0.38173 0.49729 0.0
H400 H 0.10449 0.45728 0.54857 0.0
H401 H 0.13599 0.43618 0.55212 0.0
C402 C 0.23824 0.37575 0.48303 0.0
C403 C 0.18539 0.39458 0.50014 0.0
H404 H 0.16621 0.44314 0.51575 0.0
C405 C 0.16708 0.37776 0.50604 0.0
C406 C 0.18566 0.41817 0.50511 0.0
C407 C 0.20533 0.43661 0.49948 0.0
C408 C 0.14816 0.38431 0.51497 0.0
C409 C 0.14752 0.40827 0.51745 0.0
C410 C 0.16666 0.42478 0.51375 0.0
C411 C 0.12643 0.4171 0.51883 0.0
C412 C 0.12871 0.36569 0.52067 0.0
C413 C 0.11054 0.41314 0.49913 0.0
C414 C 0.09288 0.42542 0.4968 0.0
C415 C 0.09072 0.44191 0.51415 0.0
C416 C 0.10584 0.44481 0.53479 0.0
C417 C 0.12374 0.43267 0.53695 0.0
H418 H 0.13406 0.34872 0.52617 0.0
H419 H 0.11944 0.37082 0.53586 0.0
H420 H 0.11744 0.36313 0.50386 0.0
H421 H 0.11253 0.40166 0.4846 0.0
H422 H 0.08136 0.42257 0.48086 0.0
H423 H 0.66865 0.20007 0.37525 0.0
H424 H 0.64784 0.16366 0.39265 0.0
H425 H 0.58763 0.18153 0.35789 0.0
H426 H 0.60805 0.21818 0.34102 0.0
H427 H 0.61013 0.15909 0.4243 0.0
H428 H 0.58954 0.1142 0.33569 0.0
H429 H 0.61177 0.13863 0.33904 0.0
H430 H 0.58365 0.14347 0.33536 0.0
C431 C 0.65096 0.19639 0.37144 0.0
C432 C 0.6401 0.2121 0.35655 0.0
C433 C 0.63913 0.17548 0.38127 0.0
C434 C 0.61627 0.16974 0.3762 0.0
C435 C 0.60535 0.18539 0.36157 0.0
H436 H 0.50728 0.06469 0.41715 0.0
H437 H 0.53341 0.09517 0.39677 0.0
C438 C 0.6171 0.20634 0.35188 0.0
C439 C 0.60359 0.14781 0.38691 0.0
H440 H 0.57075 0.09679 0.3711 0.0
C441 C 0.60172 0.14531 0.41275 0.0
C442 C 0.59256 0.12997 0.37173 0.0
C443 C 0.59456 0.1315 0.34391 0.0
C444 C 0.58842 0.12582 0.42379 0.0
C445 C 0.57717 0.10803 0.40858 0.0
C446 C 0.57942 0.11036 0.38275 0.0
C447 C 0.562 0.08759 0.41903 0.0
C448 C 0.58577 0.12503 0.45151 0.0
C449 C 0.56951 0.07245 0.43757 0.0
C450 C 0.55458 0.05502 0.4494 0.0
C451 C 0.53183 0.05221 0.4427 0.0
C452 C 0.52463 0.06632 0.42286 0.0
C453 C 0.53956 0.08384 0.41119 0.0
H454 H 0.59092 0.14249 0.45935 0.0
H455 H 0.56837 0.11847 0.45605 0.0
H456 H 0.59628 0.11303 0.46083 0.0
H457 H 0.58685 0.07458 0.44345 0.0
H458 H 0.56076 0.04436 0.46444 0.0
H459 H 0.77669 0.62316 0.37702 0.0
H460 H 0.80923 0.60784 0.39445 0.0
H461 H 0.84448 0.67806 0.40124 0.0
H462 H 0.81187 0.69355 0.38384 0.0
H463 H 0.85018 0.61376 0.37559 0.0
H464 H 0.85621 0.64866 0.47002 0.0
H465 H 0.832 0.64856 0.44941 0.0
H466 H 0.85608 0.67034 0.44492 0.0
C467 C 0.79136 0.63538 0.38218 0.0
C468 C 0.79166 0.6596 0.37898 0.0
C469 C 0.80994 0.62659 0.39226 0.0
C470 C 0.82926 0.64177 0.39944 0.0
C471 C 0.82963 0.66598 0.39637 0.0
H472 H 0.95387 0.60002 0.46305 0.0
H473 H 0.92755 0.62437 0.44436 0.0
C474 C 0.81098 0.67481 0.38636 0.0
C475 C 0.84916 0.63201 0.40906 0.0
H476 H 0.8846 0.62856 0.45993 0.0
C477 C 0.85767 0.61701 0.39405 0.0
C478 C 0.85918 0.63648 0.43303 0.0
C479 C 0.85034 0.65172 0.45041 0.0
C480 C 0.87542 0.60586 0.40256 0.0
C481 C 0.88488 0.60961 0.42684 0.0
C482 C 0.87719 0.62553 0.44141 0.0
C483 C 0.9011 0.59534 0.43818 0.0
C484 C 0.88379 0.58996 0.3855 0.0
C485 C 0.89481 0.57108 0.44137 0.0
C486 C 0.90967 0.55724 0.45199 0.0
C487 C 0.93124 0.56731 0.45974 0.0
C488 C 0.93749 0.5917 0.45692 0.0
C489 C 0.92246 0.60563 0.44635 0.0
H490 H 0.87981 0.59451 0.36565 0.0
H491 H 0.90193 0.59079 0.38829 0.0
H492 H 0.87572 0.57169 0.38958 0.0
H493 H 0.87825 0.56282 0.43579 0.0
H494 H 0.90416 0.53857 0.4541 0.0
H495 H 0.3835 0.8167 0.33267 0.0
H496 H 0.40538 0.85009 0.35325 0.0
H497 H 0.37787 0.82429 0.42318 0.0
H498 H 0.35612 0.79079 0.40288 0.0
H499 H 0.37879 0.87276 0.41348 0.0
H500 H 0.4601 0.84672 0.40012 0.0
H501 H 0.44295 0.84915 0.37227 0.0
H502 H 0.43434 0.82695 0.39586 0.0
C503 C 0.38223 0.81801 0.35247 0.0
C504 C 0.36808 0.80096 0.36611 0.0
C505 C 0.39472 0.83715 0.36419 0.0
C506 C 0.39342 0.83957 0.3898 0.0
C507 C 0.37909 0.82281 0.40338 0.0
H508 H 0.48277 0.91571 0.49517 0.0
H509 H 0.45838 0.88758 0.47018 0.0
C510 C 0.36661 0.80369 0.39171 0.0
C511 C 0.4072 0.85932 0.40265 0.0
H512 H 0.46059 0.88238 0.41903 0.0
C513 C 0.39668 0.87498 0.41459 0.0
C514 C 0.43053 0.86205 0.40425 0.0
C515 C 0.44273 0.84526 0.39264 0.0
C516 C 0.40888 0.89317 0.42825 0.0
C517 C 0.43221 0.89588 0.42982 0.0
C518 C 0.4427 0.88037 0.41765 0.0
C519 C 0.44606 0.91355 0.44543 0.0
C520 C 0.39673 0.90885 0.44161 0.0
C521 C 0.44716 0.93763 0.43995 0.0
C522 C 0.46118 0.95393 0.45432 0.0
C523 C 0.4744 0.94637 0.47432 0.0
C524 C 0.47291 0.92223 0.4799 0.0
C525 C 0.45898 0.90605 0.46559 0.0
H526 H 0.37883 0.90174 0.44243 0.0
H527 H 0.40385 0.91133 0.46087 0.0
H528 H 0.39849 0.92624 0.43167 0.0
H529 H 0.43755 0.9438 0.42426 0.0
H530 H 0.462 0.97237 0.44945 0.0
H531 H 0.21862 0.60575 0.66291 0.0
H532 H 0.18335 0.58753 0.64382 0.0
H533 H 0.17091 0.65484 0.61465 0.0
H534 H 0.20583 0.67347 0.63438 0.0
H535 H 0.13787 0.60207 0.65094 0.0
H536 H 0.16537 0.6089 0.55372 0.0
H537 H 0.18473 0.60868 0.58024 0.0
H538 H 0.17221 0.63401 0.57254 0.0
C539 C 0.20832 0.61682 0.65275 0.0
C540 C 0.21521 0.64117 0.65028 0.0
C541 C 0.1882 0.60631 0.6417 0.0
C542 C 0.17461 0.61983 0.62772 0.0
C543 C 0.18129 0.64408 0.62517 0.0
H544 H 0.05646 0.56439 0.53533 0.0
H545 H 0.0856 0.59221 0.55575 0.0
C546 C 0.20135 0.65466 0.63638 0.0
C547 C 0.15341 0.60841 0.61592 0.0
H548 H 0.12922 0.5898 0.56034 0.0
C549 C 0.13588 0.59952 0.63111 0.0
C550 C 0.15078 0.60542 0.59003 0.0
C551 C 0.16922 0.61463 0.57303 0.0
C552 C 0.1159 0.58727 0.62114 0.0
C553 C 0.11362 0.5832 0.59537 0.0
C554 C 0.13092 0.59287 0.58007 0.0
C555 C 0.09439 0.56726 0.58435 0.0
C556 C 0.09745 0.57883 0.63837 0.0
C557 C 0.08949 0.54406 0.59366 0.0
C558 C 0.07283 0.52825 0.5822 0.0
C559 C 0.06074 0.53512 0.56087 0.0
C560 C 0.06526 0.55855 0.55185 0.0
C561 C 0.08201 0.57443 0.56342 0.0
H562 H 0.0985 0.59016 0.65446 0.0
H563 H 0.081 0.5784 0.62858 0.0
H564 H 0.09884 0.56093 0.6458 0.0
H565 H 0.09911 0.53786 0.60933 0.0
H566 H 0.06995 0.51037 0.58966 0.0
H567 H 0.37452 0.20643 0.66322 0.0
H568 H 0.39173 0.17806 0.6429 0.0
H569 H 0.35817 0.19425 0.57328 0.0
H570 H 0.34175 0.22349 0.59312 0.0
H571 H 0.37392 0.13869 0.61901 0.0
H572 H 0.42151 0.20232 0.55352 0.0
H573 H 0.4084 0.21121 0.5796 0.0
H574 H 0.39233 0.20277 0.55168 0.0
C575 C 0.37102 0.20426 0.6435 0.0
C576 C 0.35685 0.21751 0.62983 0.0
C577 C 0.38072 0.18782 0.63195 0.0
C578 C 0.37653 0.18422 0.60646 0.0
C579 C 0.36203 0.19701 0.59285 0.0
H580 H 0.41844 0.06535 0.537 0.0
H581 H 0.39531 0.09157 0.55233 0.0
C582 C 0.35241 0.21355 0.60435 0.0
C583 C 0.38744 0.16715 0.59423 0.0
H584 H 0.42266 0.16243 0.54874 0.0
C585 C 0.38453 0.14385 0.60359 0.0
C586 C 0.40145 0.17392 0.57423 0.0
C587 C 0.40633 0.19894 0.56426 0.0
C588 C 0.39544 0.12724 0.59377 0.0
C589 C 0.40928 0.13397 0.57363 0.0
C590 C 0.41189 0.15719 0.564 0.0
C591 C 0.42281 0.11789 0.56374 0.0
C592 C 0.39272 0.1029 0.60574 0.0
C593 C 0.44588 0.12415 0.56443 0.0
C594 C 0.45902 0.10939 0.55551 0.0
C595 C 0.44946 0.08788 0.54573 0.0
C596 C 0.42633 0.0816 0.54484 0.0
C597 C 0.4131 0.09656 0.55363 0.0
H598 H 0.38569 0.10208 0.62434 0.0
H599 H 0.38131 0.09086 0.59378 0.0
H600 H 0.4088 0.09654 0.60782 0.0
H601 H 0.45379 0.14048 0.57209 0.0
H602 H 0.47677 0.11486 0.55641 0.0
H603 H 0.82673 0.34515 0.63904 0.0
H604 H 0.86195 0.36487 0.6233 0.0
H605 H 0.84978 0.43026 0.64871 0.0
H606 H 0.81427 0.41099 0.66377 0.0
H607 H 0.86791 0.4056 0.58738 0.0
H608 H 0.91317 0.42274 0.67845 0.0
H609 H 0.88897 0.40052 0.67493 0.0
H610 H 0.88609 0.43072 0.67518 0.0
C611 C 0.8314 0.36376 0.64113 0.0
C612 C 0.81757 0.37641 0.6528 0.0
C613 C 0.85164 0.37496 0.63227 0.0
C614 C 0.85859 0.39894 0.63517 0.0
C615 C 0.8449 0.41164 0.64673 0.0
H616 H 0.96387 0.50781 0.59314 0.0
H617 H 0.93428 0.48174 0.61365 0.0
C618 C 0.82461 0.40053 0.65541 0.0
C619 C 0.87976 0.41098 0.62526 0.0
H620 H 0.93026 0.44155 0.64266 0.0
C621 C 0.88167 0.41325 0.59941 0.0
C622 C 0.89758 0.42102 0.64106 0.0
C623 C 0.89654 0.41854 0.66898 0.0
C624 C 0.90064 0.42607 0.58887 0.0
C625 C 0.91847 0.43632 0.60467 0.0
C626 C 0.91668 0.43362 0.63056 0.0
C627 C 0.93845 0.45112 0.59461 0.0
C628 C 0.90093 0.42939 0.56089 0.0
C629 C 0.95142 0.44236 0.57797 0.0
C630 C 0.96834 0.45729 0.56605 0.0
C631 C 0.97281 0.48123 0.57078 0.0
C632 C 0.96093 0.48952 0.58896 0.0
C633 C 0.94391 0.47462 0.60069 0.0
H634 H 0.88408 0.42552 0.55191 0.0
H635 H 0.90836 0.44754 0.55522 0.0
H636 H 0.911 0.41732 0.55371 0.0
H637 H 0.94796 0.42413 0.57353 0.0
H638 H 0.97728 0.45024 0.55235 0.0
H639 H 0.63289 0.77445 0.61083 0.0
H640 H 0.61897 0.80955 0.59544 0.0
H641 H 0.65891 0.81432 0.5316 0.0
H642 H 0.67168 0.77805 0.54586 0.0
H643 H 0.64253 0.85173 0.58938 0.0
H644 H 0.60127 0.82545 0.49831 0.0
H645 H 0.60948 0.80446 0.52142 0.0
H646 H 0.6297 0.82192 0.50248 0.0
C647 C 0.63828 0.78248 0.59314 0.0
C648 C 0.65337 0.77323 0.57958 0.0
C649 C 0.63047 0.80276 0.58449 0.0
C650 C 0.63772 0.81447 0.56224 0.0
C651 C 0.65271 0.80534 0.54854 0.0
H652 H 0.60879 0.95758 0.5411 0.0
H653 H 0.62969 0.92517 0.54249 0.0
C654 C 0.66029 0.78478 0.55699 0.0
C655 C 0.63037 0.83691 0.55452 0.0
H656 H 0.60127 0.8641 0.50925 0.0
C657 C 0.6336 0.85448 0.5718 0.0
C658 C 0.61888 0.84049 0.53148 0.0
C659 C 0.61443 0.82205 0.51239 0.0
C660 C 0.62468 0.87502 0.56733 0.0
C661 C 0.61283 0.87844 0.54451 0.0
C662 C 0.61046 0.86139 0.52668 0.0
C663 C 0.60073 0.89832 0.54014 0.0
C664 C 0.62699 0.89221 0.58768 0.0
C665 C 0.57761 0.89397 0.53723 0.0
C666 C 0.56568 0.91239 0.53626 0.0
C667 C 0.57668 0.93549 0.53823 0.0
C668 C 0.59988 0.9399 0.54009 0.0
C669 C 0.61183 0.92145 0.54081 0.0
H670 H 0.63248 0.88457 0.60586 0.0
H671 H 0.63948 0.90764 0.5827 0.0
H672 H 0.61109 0.8983 0.58998 0.0
H673 H 0.56875 0.87624 0.5366 0.0
H674 H 0.54782 0.90848 0.53454 0.0
H675 H 0.3447 0.23494 0.46322 0.0
H676 H 0.35857 0.19934 0.47755 0.0
H677 H 0.39419 0.20199 0.41058 0.0
H678 H 0.379 0.23637 0.39517 0.0
H679 H 0.37366 0.15963 0.42033 0.0
H680 H 0.41835 0.19274 0.50695 0.0
H681 H 0.38938 0.19413 0.50566 0.0
H682 H 0.40702 0.21169 0.48388 0.0
C683 C 0.35526 0.22782 0.45135 0.0
C684 C 0.36071 0.23865 0.42798 0.0
C685 C 0.3635 0.20766 0.45983 0.0
C686 C 0.37777 0.19824 0.44538 0.0
C687 C 0.38331 0.20903 0.42214 0.0
H688 H 0.47037 0.10677 0.48 0.0
H689 H 0.44929 0.13887 0.47516 0.0
C690 C 0.37478 0.2289 0.41346 0.0
C691 C 0.38645 0.17668 0.45381 0.0
H692 H 0.4175 0.15286 0.49979 0.0
C693 C 0.38322 0.15813 0.43773 0.0
C694 C 0.39892 0.17479 0.47654 0.0
C695 C 0.40383 0.19447 0.49417 0.0
C696 C 0.3928 0.13812 0.4432 0.0
C697 C 0.40522 0.13619 0.46594 0.0
C698 C 0.40783 0.15436 0.48247 0.0
C699 C 0.41743 0.11653 0.47168 0.0
C700 C 0.3904 0.11984 0.42396 0.0
C701 C 0.40645 0.09331 0.47209 0.0
C702 C 0.41851 0.07493 0.4743 0.0
C703 C 0.44169 0.07951 0.47672 0.0
C704 C 0.45253 0.10273 0.47786 0.0
C705 C 0.4405 0.12108 0.47526 0.0
H706 H 0.38502 0.12666 0.40535 0.0
H707 H 0.40623 0.11341 0.42223 0.0
H708 H 0.37776 0.10481 0.42963 0.0
H709 H 0.38861 0.08942 0.47011 0.0
H710 H 0.40971 0.05716 0.47396 0.0
H711 H 0.78519 0.37665 0.40119 0.0
H712 H 0.82005 0.39443 0.42157 0.0
H713 H 0.85202 0.39766 0.35207 0.0
H714 H 0.81705 0.38019 0.33147 0.0
H715 H 0.85919 0.37929 0.4278 0.0
H716 H 0.87036 0.4638 0.37294 0.0
H717 H 0.84477 0.44342 0.37172 0.0
H718 H 0.86763 0.43871 0.35439 0.0
C719 C 0.79964 0.38114 0.39022 0.0
C720 C 0.79829 0.37708 0.36466 0.0
C721 C 0.81957 0.39135 0.4019 0.0
C722 C 0.83866 0.39773 0.38833 0.0
C723 C 0.83744 0.39348 0.36284 0.0
H724 H 0.97171 0.46483 0.44097 0.0
H725 H 0.94184 0.44132 0.41647 0.0
C726 C 0.81743 0.38343 0.35109 0.0
C727 C 0.85981 0.40839 0.40113 0.0
H728 H 0.89947 0.45733 0.4017 0.0
C729 C 0.86801 0.39633 0.42201 0.0
C730 C 0.87143 0.43062 0.39359 0.0
C731 C 0.86304 0.44502 0.37209 0.0
C732 C 0.88724 0.40595 0.43567 0.0
C733 C 0.8986 0.42829 0.42836 0.0
C734 C 0.89082 0.44011 0.40713 0.0
C735 C 0.91731 0.4406 0.44381 0.0
C736 C 0.89521 0.39226 0.45797 0.0
C737 C 0.91345 0.44779 0.46731 0.0
C738 C 0.93033 0.46127 0.48115 0.0
C739 C 0.95152 0.46781 0.47187 0.0
C740 C 0.95563 0.45991 0.44869 0.0
C741 C 0.93857 0.4466 0.43465 0.0
H742 H 0.88822 0.37338 0.45744 0.0
H743 H 0.91352 0.3943 0.45911 0.0
H744 H 0.88995 0.39897 0.47513 0.0
H745 H 0.89714 0.44362 0.47462 0.0
H746 H 0.92661 0.46704 0.49896 0.0
H747 H 0.65635 0.81742 0.35055 0.0
H748 H 0.64163 0.84795 0.37044 0.0
H749 H 0.63496 0.8048 0.4382 0.0
H750 H 0.65011 0.77445 0.41857 0.0
H751 H 0.60226 0.84653 0.38774 0.0
H752 H 0.66388 0.86547 0.46615 0.0
H753 H 0.66873 0.84904 0.44016 0.0
H754 H 0.65236 0.83507 0.46506 0.0
C755 C 0.65183 0.81448 0.36973 0.0
C756 C 0.65446 0.79352 0.38299 0.0
C757 C 0.64351 0.832 0.38113 0.0
C758 C 0.63755 0.82896 0.40603 0.0
C759 C 0.64008 0.80797 0.41927 0.0
H760 H 0.54219 0.89506 0.47267 0.0
H761 H 0.56396 0.86908 0.45549 0.0
C762 C 0.64862 0.79054 0.40796 0.0
C763 C 0.62728 0.84702 0.41747 0.0
H764 H 0.63013 0.88043 0.46824 0.0
C765 C 0.60855 0.85409 0.4052 0.0
C766 C 0.63553 0.85714 0.44019 0.0
C767 C 0.65636 0.85149 0.45355 0.0
C768 C 0.59756 0.87043 0.41524 0.0
C769 C 0.60518 0.8797 0.43847 0.0
C770 C 0.62422 0.87318 0.45051 0.0
C771 C 0.59291 0.89545 0.45079 0.0
C772 C 0.5778 0.87764 0.40084 0.0
C773 C 0.60224 0.91881 0.45474 0.0
C774 C 0.58976 0.9339 0.46469 0.0
C775 C 0.56778 0.92577 0.47088 0.0
C776 C 0.55891 0.90211 0.46772 0.0
C777 C 0.57133 0.88715 0.45789 0.0
H778 H 0.57766 0.87393 0.38084 0.0
H779 H 0.56247 0.86769 0.40855 0.0
H780 H 0.57752 0.89654 0.4024 0.0
H781 H 0.61896 0.92551 0.44956 0.0
H782 H 0.59719 0.95191 0.46721 0.0
H783 H 0.18203 0.64356 0.31965 0.0
H784 H 0.14714 0.62486 0.33712 0.0
H785 H 0.17515 0.63859 0.41107 0.0
H786 H 0.20993 0.65724 0.39383 0.0
H787 H 0.1398 0.58653 0.36826 0.0
H788 H 0.11674 0.66106 0.41376 0.0
H789 H 0.13774 0.66477 0.39114 0.0
H790 H 0.14432 0.65694 0.42318 0.0
C791 C 0.18072 0.64266 0.33964 0.0
C792 C 0.19876 0.65202 0.35533 0.0
C793 C 0.16072 0.63209 0.34958 0.0
C794 C 0.15833 0.63076 0.37538 0.0
C795 C 0.17632 0.64005 0.39106 0.0
H796 H 0.08934 0.55396 0.48849 0.0
H797 H 0.11103 0.58193 0.4604 0.0
C798 C 0.19626 0.65067 0.38116 0.0
C799 C 0.1377 0.61817 0.38622 0.0
H800 H 0.10035 0.62257 0.42948 0.0
C801 C 0.13082 0.59454 0.38118 0.0
C802 C 0.12588 0.62867 0.40296 0.0
C803 C 0.13141 0.65433 0.40787 0.0
C804 C 0.11349 0.58075 0.39378 0.0
C805 C 0.10265 0.59091 0.4117 0.0
C806 C 0.10869 0.61482 0.41572 0.0
C807 C 0.08756 0.57629 0.42899 0.0
C808 C 0.10784 0.55505 0.38906 0.0
C809 C 0.06675 0.56442 0.42086 0.0
C810 C 0.05412 0.54843 0.43706 0.0
C811 C 0.06239 0.54398 0.46141 0.0
C812 C 0.08268 0.55685 0.46973 0.0
C813 C 0.09506 0.5729 0.45374 0.0
H814 H 0.11918 0.54945 0.37616 0.0
H815 H 0.10853 0.54453 0.40685 0.0
H816 H 0.09073 0.55112 0.38083 0.0
H817 H 0.06062 0.56697 0.40184 0.0
H818 H 0.03855 0.53872 0.4302 0.0
H819 H 0.37355 0.79366 0.6189 0.0
H820 H 0.39564 0.82968 0.60239 0.0
H821 H 0.40468 0.85636 0.67592 0.0
H822 H 0.38222 0.82061 0.69252 0.0
H823 H 0.39452 0.88964 0.63731 0.0
H824 H 0.46357 0.84506 0.61494 0.0
H825 H 0.43689 0.83245 0.60206 0.0
H826 H 0.44214 0.83173 0.63521 0.0
C827 C 0.37999 0.8073 0.63152 0.0
C828 C 0.37623 0.80416 0.65708 0.0
C829 C 0.39277 0.82779 0.62209 0.0
C830 C 0.40206 0.84554 0.63799 0.0
C831 C 0.39778 0.84281 0.66335 0.0
H832 H 0.51156 0.95539 0.60213 0.0
H833 H 0.48619 0.92496 0.62372 0.0
C834 C 0.38507 0.8223 0.67282 0.0
C835 C 0.41668 0.86671 0.6283 0.0
H836 H 0.46581 0.88471 0.60107 0.0
C837 C 0.41014 0.88862 0.62943 0.0
C838 C 0.43719 0.86535 0.61838 0.0
C839 C 0.44554 0.84244 0.61772 0.0
C840 C 0.42338 0.90916 0.62038 0.0
C841 C 0.44358 0.90769 0.60979 0.0
C842 C 0.45028 0.88582 0.60912 0.0
C843 C 0.45795 0.92843 0.59879 0.0
C844 C 0.41575 0.93227 0.62246 0.0
C845 C 0.45039 0.94091 0.57792 0.0
C846 C 0.46485 0.95841 0.56552 0.0
C847 C 0.48724 0.96367 0.57365 0.0
C848 C 0.49447 0.95189 0.59532 0.0
C849 C 0.47999 0.9344 0.60766 0.0
H850 H 0.40326 0.93123 0.63674 0.0
H851 H 0.42987 0.94616 0.62724 0.0
H852 H 0.40807 0.93743 0.60432 0.0
H853 H 0.43356 0.93638 0.57047 0.0
H854 H 0.45868 0.96698 0.54886 0.0
H855 H 0.21254 0.3278 0.59697 0.0
H856 H 0.17873 0.34021 0.57853 0.0
H857 H 0.16091 0.35582 0.65105 0.0
H858 H 0.19421 0.34287 0.6698 0.0
H859 H 0.12875 0.32411 0.59723 0.0
H860 H 0.16665 0.41791 0.59926 0.0
H861 H 0.18286 0.39489 0.59762 0.0
H862 H 0.17162 0.39972 0.62648 0.0
C863 C 0.20127 0.33347 0.6091 0.0
C864 C 0.20626 0.33443 0.63494 0.0
C865 C 0.18198 0.34061 0.59848 0.0
C866 C 0.16738 0.34892 0.61345 0.0
C867 C 0.17204 0.3495 0.6392 0.0
H868 H 0.06142 0.42501 0.60448 0.0
H869 H 0.08908 0.40048 0.61639 0.0
C870 C 0.19121 0.34229 0.64984 0.0
C871 C 0.14783 0.35824 0.60231 0.0
H872 H 0.12811 0.4094 0.59104 0.0
C873 C 0.12858 0.34274 0.59557 0.0
C874 C 0.14781 0.38253 0.59995 0.0
C875 C 0.16834 0.39985 0.60602 0.0
C876 C 0.1089 0.35101 0.58769 0.0
C877 C 0.10865 0.37533 0.58647 0.0
C878 C 0.12823 0.39075 0.59223 0.0
C879 C 0.08827 0.38555 0.58044 0.0
C880 C 0.08839 0.33374 0.58153 0.0
C881 C 0.07761 0.38431 0.55665 0.0
C882 C 0.06152 0.39829 0.5498 0.0
C883 C 0.05612 0.41387 0.56658 0.0
C884 C 0.06532 0.41334 0.59104 0.0
C885 C 0.08124 0.39939 0.59786 0.0
H886 H 0.0902 0.31563 0.5879 0.0
H887 H 0.07387 0.33846 0.59014 0.0
H888 H 0.08506 0.33415 0.56108 0.0
H889 H 0.08269 0.37382 0.54282 0.0
H890 H 0.05484 0.3984 0.53076 0.0
H891 H 0.64006 0.20164 0.67678 0.0
H892 H 0.61904 0.16695 0.65778 0.0
H893 H 0.64259 0.19288 0.58606 0.0
H894 H 0.66346 0.2277 0.60481 0.0
H895 H 0.58569 0.16525 0.62127 0.0
H896 H 0.65438 0.12567 0.58926 0.0
H897 H 0.6586 0.14822 0.61157 0.0
H898 H 0.65551 0.15571 0.57888 0.0
C899 C 0.64076 0.20001 0.65695 0.0
C900 C 0.65351 0.21753 0.64236 0.0
C901 C 0.62884 0.18008 0.64614 0.0
C902 C 0.62951 0.17709 0.62056 0.0
C903 C 0.64225 0.19447 0.60594 0.0
H904 H 0.53556 0.09991 0.52083 0.0
H905 H 0.56068 0.1282 0.54486 0.0
C906 C 0.65417 0.21442 0.61672 0.0
C907 C 0.61583 0.15655 0.60887 0.0
H908 H 0.61815 0.11098 0.57221 0.0
C909 C 0.59283 0.15325 0.61078 0.0
C910 C 0.62513 0.14069 0.59542 0.0
C911 C 0.64978 0.14256 0.59383 0.0
C912 C 0.57885 0.13514 0.59879 0.0
C913 C 0.58807 0.12004 0.58428 0.0
C914 C 0.61111 0.1227 0.58317 0.0
C915 C 0.57386 0.10238 0.569 0.0
C916 C 0.55426 0.13243 0.60156 0.0
C917 C 0.57343 0.07833 0.57406 0.0
C918 C 0.55897 0.06191 0.56024 0.0
C919 C 0.54484 0.06934 0.54106 0.0
C920 C 0.546 0.09347 0.53558 0.0
C921 C 0.56033 0.10975 0.54936 0.0
H922 H 0.55033 0.14114 0.61816 0.0
H923 H 0.54659 0.14056 0.58489 0.0
H924 H 0.54668 0.1137 0.60307 0.0
H925 H 0.58388 0.07229 0.58905 0.0
H926 H 0.55856 0.04348 0.56489 0.0
H927 H 0.78119 0.60679 0.57974 0.0
H928 H 0.81414 0.59641 0.56295 0.0
H929 H 0.84134 0.66942 0.55219 0.0
H930 H 0.80872 0.67999 0.56969 0.0
H931 H 0.83391 0.60935 0.51588 0.0
H932 H 0.88822 0.64168 0.59727 0.0
H933 H 0.85849 0.6368 0.59785 0.0
H934 H 0.87265 0.66207 0.58133 0.0
C935 C 0.79424 0.62064 0.57393 0.0
C936 C 0.79248 0.64419 0.57629 0.0
C937 C 0.81292 0.61469 0.56413 0.0
C938 C 0.83018 0.63217 0.55659 0.0
C939 C 0.82824 0.65571 0.55817 0.0
H940 H 0.96267 0.60781 0.52829 0.0
H941 H 0.93075 0.62771 0.52987 0.0
C942 C 0.80955 0.66169 0.568 0.0
C943 C 0.8506 0.62552 0.54827 0.0
H944 H 0.9043 0.62403 0.5667 0.0
C945 C 0.84941 0.61275 0.52679 0.0
C946 C 0.87073 0.63012 0.56253 0.0
C947 C 0.87272 0.64327 0.58614 0.0
C948 C 0.86776 0.60385 0.51953 0.0
C949 C 0.88768 0.6076 0.53439 0.0
C950 C 0.88907 0.62124 0.55527 0.0
C951 C 0.90665 0.59592 0.53014 0.0
C952 C 0.86543 0.59025 0.49624 0.0
C953 C 0.9037 0.57149 0.52962 0.0
C954 C 0.92182 0.56015 0.52845 0.0
C955 C 0.94331 0.573 0.5284 0.0
C956 C 0.94629 0.59747 0.52858 0.0
C957 C 0.92808 0.60885 0.52935 0.0
H958 H 0.8534 0.59664 0.48247 0.0
H959 H 0.88147 0.59137 0.4875 0.0
H960 H 0.85903 0.57163 0.50102 0.0
H961 H 0.88743 0.56107 0.531 0.0
H962 H 0.91904 0.54126 0.52839 0.0
H963 H 0.32373 0.41178 0.25941 0.0
H964 H 0.33698 0.42991 0.21968 0.0
H965 H 0.40261 0.41695 0.24109 0.0
H966 H 0.38976 0.39939 0.28097 0.0
H967 H 0.37782 0.46918 0.2105 0.0
H968 H 0.38002 0.38236 0.17324 0.0
H969 H 0.36291 0.38611 0.19835 0.0
H970 H 0.39208 0.38715 0.20413 0.0
C971 C 0.34106 0.41318 0.25586 0.0
C972 C 0.35564 0.4039 0.27327 0.0
C973 C 0.34856 0.42345 0.23314 0.0
C974 C 0.37068 0.42451 0.22748 0.0
C975 C 0.38541 0.41605 0.2451 0.0
H976 H 0.45749 0.48993 0.11632 0.0
H977 H 0.43639 0.48017 0.15354 0.0
C978 C 0.378 0.40589 0.26779 0.0
C979 C 0.37837 0.4334 0.20275 0.0
H980 H 0.39687 0.41557 0.14984 0.0
C981 C 0.38177 0.45752 0.19705 0.0
C982 C 0.38329 0.41806 0.18528 0.0
C983 C 0.37928 0.39194 0.19035 0.0
C984 C 0.39078 0.46679 0.17453 0.0
C985 C 0.39665 0.4515 0.15751 0.0
C986 C 0.39243 0.4273 0.16292 0.0
C987 C 0.40814 0.46001 0.13449 0.0
C988 C 0.39423 0.49286 0.16939 0.0
C989 C 0.39929 0.45198 0.11137 0.0
C990 C 0.41141 0.45734 0.09008 0.0
C991 C 0.43271 0.47072 0.09153 0.0
C992 C 0.44117 0.47954 0.11454 0.0
C993 C 0.42903 0.47414 0.13584 0.0
H994 H 0.3828 0.50118 0.17978 0.0
H995 H 0.41136 0.50025 0.17564 0.0
H996 H 0.39193 0.49743 0.14924 0.0
H997 H 0.38323 0.44099 0.10993 0.0
H998 H 0.40434 0.45038 0.07264 0.0
H999 H 0.36522 0.60531 0.79602 0.0
H1000 H 0.38596 0.58718 0.82966 0.0
H1001 H 0.4014 0.65302 0.86505 0.0
H1002 H 0.38015 0.67108 0.83197 0.0
H1003 H 0.43016 0.59918 0.84226 0.0
H1004 H 0.38091 0.60808 0.92298 0.0
H1005 H 0.37051 0.61165 0.89122 0.0
H1006 H 0.38895 0.6351 0.90553 0.0
C1007 C 0.37263 0.61583 0.81122 0.0
C1008 C 0.37099 0.63968 0.81125 0.0
C1009 C 0.38461 0.60547 0.83037 0.0
C1010 C 0.39504 0.61865 0.85006 0.0
C1011 C 0.39318 0.64236 0.85033 0.0
H1012 H 0.50744 0.58888 0.94334 0.0
H1013 H 0.48147 0.60631 0.91522 0.0
C1014 C 0.38123 0.65274 0.8312 0.0
C1015 C 0.40903 0.60803 0.86943 0.0
H1016 H 0.41666 0.59789 0.9322 0.0
C1017 C 0.42712 0.59878 0.8619 0.0
C1018 C 0.40495 0.60729 0.89507 0.0
C1019 C 0.38515 0.61585 0.90422 0.0
C1020 C 0.44151 0.58933 0.87929 0.0
C1021 C 0.43795 0.58945 0.90498 0.0
C1022 C 0.41954 0.59813 0.91252 0.0
C1023 C 0.45312 0.58035 0.92414 0.0
C1024 C 0.46029 0.57905 0.86997 0.0
C1025 C 0.4456 0.56061 0.93942 0.0
C1026 C 0.4604 0.55062 0.95571 0.0
C1027 C 0.48302 0.56027 0.95707 0.0
C1028 C 0.49021 0.58085 0.94272 0.0
C1029 C 0.4754 0.59078 0.92648 0.0
H1030 H 0.45751 0.57502 0.85002 0.0
H1031 H 0.4758 0.59181 0.87199 0.0
H1032 H 0.46257 0.56279 0.88091 0.0
H1033 H 0.42843 0.55237 0.93804 0.0
H1034 H 0.45422 0.53482 0.96646 0.0
H1035 H 0.34087 0.38789 0.79444 0.0
H1036 H 0.35989 0.40851 0.82959 0.0
H1037 H 0.40782 0.36202 0.83458 0.0
H1038 H 0.38785 0.33998 0.80081 0.0
H1039 H 0.39866 0.37111 0.87956 0.0
H1040 H 0.41463 0.45518 0.82472 0.0
H1041 H 0.38574 0.44404 0.8265 0.0
H1042 H 0.40307 0.42818 0.81064 0.0
C1043 C 0.35519 0.38165 0.80321 0.0
C1044 C 0.3628 0.36222 0.79434 0.0
C1045 C 0.36633 0.39381 0.82316 0.0
C1046 C 0.38572 0.38733 0.83442 0.0
C1047 C 0.39305 0.36761 0.82612 0.0
H1048 H 0.49043 0.47588 0.91038 0.0
H1049 H 0.46456 0.45228 0.88267 0.0
C1050 C 0.38171 0.35516 0.80646 0.0
C1051 C 0.39867 0.40125 0.85445 0.0
H1052 H 0.42472 0.45621 0.86759 0.0
C1053 C 0.40437 0.38973 0.87694 0.0
C1054 C 0.40634 0.42555 0.85105 0.0
C1055 C 0.40234 0.43892 0.82685 0.0
C1056 C 0.41777 0.40167 0.89584 0.0
C1057 C 0.42514 0.42603 0.89255 0.0
C1058 C 0.41899 0.43759 0.87029 0.0
C1059 C 0.44097 0.43962 0.9106 0.0
C1060 C 0.42463 0.38784 0.91863 0.0
C1061 C 0.4366 0.44046 0.93588 0.0
C1062 C 0.45181 0.45379 0.95216 0.0
C1063 C 0.47143 0.46689 0.94331 0.0
C1064 C 0.47554 0.4661 0.91798 0.0
C1065 C 0.46065 0.45258 0.90198 0.0
H1066 H 0.42228 0.36885 0.91547 0.0
H1067 H 0.44222 0.39383 0.92434 0.0
H1068 H 0.41436 0.39032 0.9342 0.0
H1069 H 0.42132 0.43111 0.94297 0.0
H1070 H 0.44806 0.45416 0.9715 0.0
H1071 H 0.69274 0.38797 0.81144 0.0
H1072 H 0.67533 0.40727 0.84232 0.0
H1073 H 0.61224 0.3895 0.80285 0.0
H1074 H 0.62946 0.37044 0.7718 0.0
H1075 H 0.65109 0.44463 0.8361 0.0
H1076 H 0.59973 0.36422 0.87403 0.0
H1077 H 0.62266 0.36349 0.85481 0.0
H1078 H 0.59638 0.3682 0.84086 0.0
C1079 C 0.67517 0.38828 0.80922 0.0
C1080 C 0.66249 0.37746 0.78917 0.0
C1081 C 0.66524 0.39925 0.82696 0.0
C1082 C 0.64243 0.3995 0.82513 0.0
C1083 C 0.62979 0.38905 0.80497 0.0
H1084 H 0.54313 0.4562 0.89255 0.0
H1085 H 0.56679 0.43825 0.86756 0.0
C1086 C 0.63967 0.37811 0.78724 0.0
C1087 C 0.63173 0.41084 0.84406 0.0
H1088 H 0.5904 0.40045 0.88493 0.0
C1089 C 0.63803 0.43495 0.84704 0.0
C1090 C 0.61478 0.39815 0.85844 0.0
C1091 C 0.60811 0.37204 0.8571 0.0
C1092 C 0.62707 0.44686 0.86315 0.0
C1093 C 0.60958 0.43427 0.87678 0.0
C1094 C 0.60379 0.41007 0.8744 0.0
C1095 C 0.59586 0.44603 0.89212 0.0
C1096 C 0.63355 0.47296 0.8647 0.0
C1097 C 0.60437 0.45639 0.91434 0.0
C1098 C 0.59076 0.46667 0.9289 0.0
C1099 C 0.56847 0.46674 0.92138 0.0
C1100 C 0.56018 0.45648 0.89899 0.0
C1101 C 0.57369 0.44616 0.88462 0.0
H1102 H 0.6454 0.48058 0.85046 0.0
H1103 H 0.6187 0.48157 0.8623 0.0
H1104 H 0.64139 0.47699 0.88336 0.0
H1105 H 0.62141 0.45626 0.92057 0.0
H1106 H 0.59766 0.47449 0.94599 0.0
H1107 H 0.65476 0.64562 0.76006 0.0
H1108 H 0.63957 0.62587 0.79798 0.0
H1109 H 0.64184 0.55901 0.76834 0.0
H1110 H 0.65702 0.57868 0.7302 0.0
H1111 H 0.60003 0.59482 0.8002 0.0
H1112 H 0.6706 0.55329 0.83886 0.0
H1113 H 0.67367 0.57658 0.81506 0.0
H1114 H 0.66194 0.54736 0.80711 0.0
C1115 C 0.65202 0.62671 0.76159 0.0
C1116 C 0.65698 0.61371 0.74208 0.0
C1117 C 0.64348 0.61546 0.78332 0.0
C1118 C 0.6398 0.591 0.78606 0.0
C1119 C 0.64498 0.57792 0.7668 0.0
H1120 H 0.55101 0.51764 0.8957 0.0
H1121 H 0.57071 0.52797 0.85755 0.0
C1122 C 0.6536 0.58918 0.74501 0.0
C1123 C 0.62922 0.57938 0.80848 0.0
H1124 H 0.63732 0.54439 0.86011 0.0
C1125 C 0.60815 0.58373 0.81326 0.0
C1126 C 0.63993 0.56501 0.82548 0.0
C1127 C 0.66286 0.56036 0.82158 0.0
C1128 C 0.59755 0.57433 0.83474 0.0
C1129 C 0.60817 0.55987 0.8517 0.0
C1130 C 0.62919 0.55533 0.8469 0.0
C1131 C 0.59808 0.55058 0.87522 0.0
C1132 C 0.57533 0.58054 0.83948 0.0
C1133 C 0.6075 0.55904 0.89793 0.0
C1134 C 0.59635 0.55308 0.91984 0.0
C1135 C 0.57558 0.53858 0.91933 0.0
C1136 C 0.56686 0.52904 0.89674 0.0
C1137 C 0.57806 0.53493 0.87489 0.0
H1138 H 0.57151 0.5955 0.82722 0.0
H1139 H 0.56225 0.56529 0.83589 0.0
H1140 H 0.57466 0.58501 0.85915 0.0
H1141 H 0.62299 0.57109 0.89854 0.0
H1142 H 0.60362 0.56057 0.93695 0.0
H1143 H 0.67023 0.64687 0.19735 0.0
H1144 H 0.65109 0.62628 0.16194 0.0
H1145 H 0.58839 0.62847 0.19276 0.0
H1146 H 0.60737 0.64891 0.2283 0.0
H1147 H 0.62418 0.58374 0.16219 0.0
H1148 H 0.57804 0.65175 0.12113 0.0
H1149 H 0.60063 0.65799 0.14399 0.0
H1150 H 0.57348 0.6453 0.15354 0.0
C1151 C 0.65236 0.64298 0.19664 0.0
C1152 C 0.64037 0.64961 0.21576 0.0
C1153 C 0.64143 0.6313 0.17627 0.0
C1154 C 0.61827 0.62611 0.17443 0.0
C1155 C 0.60624 0.63279 0.19339 0.0
H1156 H 0.53085 0.51868 0.10078 0.0
H1157 H 0.55624 0.54349 0.12823 0.0
C1158 C 0.61715 0.64448 0.21377 0.0
C1159 C 0.60674 0.61256 0.15345 0.0
H1160 H 0.56613 0.61295 0.10736 0.0
C1161 C 0.61166 0.59025 0.15004 0.0
C1162 C 0.59064 0.62114 0.13727 0.0
C1163 C 0.58552 0.64546 0.13896 0.0
C1164 C 0.60028 0.57595 0.13168 0.0
C1165 C 0.58329 0.584 0.11649 0.0
C1166 C 0.57903 0.60669 0.11913 0.0
C1167 C 0.56872 0.56852 0.09911 0.0
C1168 C 0.60646 0.55224 0.12885 0.0
C1169 C 0.56702 0.5744 0.07348 0.0
C1170 C 0.55237 0.56013 0.05756 0.0
C1171 C 0.53894 0.53993 0.06709 0.0
C1172 C 0.54091 0.53407 0.09273 0.0
C1173 C 0.55556 0.54819 0.1085 0.0
H1174 H 0.62365 0.55158 0.13609 0.0
H1175 H 0.59524 0.5389 0.13964 0.0
H1176 H 0.60485 0.54752 0.10908 0.0
H1177 H 0.57693 0.5901 0.06585 0.0
H1178 H 0.55118 0.56522 0.03795 0.0
H1179 H 0.36917 0.6695 0.20017 0.0
H1180 H 0.38572 0.64775 0.17086 0.0
H1181 H 0.35222 0.58291 0.20337 0.0
H1182 H 0.33625 0.60445 0.23334 0.0
H1183 H 0.39558 0.58193 0.19766 0.0
H1184 H 0.35789 0.61446 0.10958 0.0
H1185 H 0.37193 0.63749 0.12834 0.0
H1186 H 0.34796 0.61855 0.13962 0.0
C1187 C 0.36536 0.65061 0.20116 0.0
C1188 C 0.35131 0.63876 0.21914 0.0
C1189 C 0.3746 0.6382 0.18413 0.0
C1190 C 0.36988 0.6137 0.18457 0.0
C1191 C 0.35591 0.60182 0.20249 0.0
H1192 H 0.41205 0.53003 0.07046 0.0
H1193 H 0.38938 0.54849 0.09701 0.0
C1194 C 0.34668 0.61419 0.21953 0.0
C1195 C 0.38055 0.60039 0.16735 0.0
H1196 H 0.38833 0.59428 0.10595 0.0
C1197 C 0.39381 0.58449 0.17761 0.0
C1198 C 0.37802 0.60343 0.14116 0.0
C1199 C 0.363 0.61923 0.12898 0.0
C1200 C 0.40521 0.57219 0.16248 0.0
C1201 C 0.40364 0.57615 0.13632 0.0
C1202 C 0.38972 0.59139 0.12599 0.0
C1203 C 0.41712 0.56545 0.11957 0.0
C1204 C 0.41891 0.55517 0.17487 0.0
C1205 C 0.4402 0.56925 0.12305 0.0
C1206 C 0.45305 0.5586 0.10819 0.0
C1207 C 0.44319 0.54424 0.0891 0.0
C1208 C 0.42011 0.54104 0.08498 0.0
C1209 C 0.40717 0.55155 0.10014 0.0
H1210 H 0.4117 0.5473 0.19243 0.0
H1211 H 0.42041 0.54093 0.16256 0.0
H1212 H 0.43573 0.56463 0.17964 0.0
H1213 H 0.44833 0.58037 0.13746 0.0
H1214 H 0.47081 0.56168 0.11168 0.0
H1215 H 0.6086 0.35616 0.21491 0.0
H1216 H 0.58702 0.37291 0.18134 0.0
H1217 H 0.64667 0.41283 0.15287 0.0
H1218 H 0.6686 0.39541 0.18602 0.0
H1219 H 0.58347 0.41873 0.17062 0.0
H1220 H 0.61688 0.38191 0.0908 0.0
H1221 H 0.62144 0.37152 0.12254 0.0
H1222 H 0.63722 0.39844 0.11099 0.0
C1223 C 0.61724 0.36822 0.20132 0.0
C1224 C 0.64042 0.37418 0.20306 0.0
C1225 C 0.60482 0.37793 0.18221 0.0
C1226 C 0.61521 0.39384 0.1643 0.0
C1227 C 0.63831 0.40021 0.16615 0.0
H1228 H 0.55537 0.47238 0.04265 0.0
H1229 H 0.58189 0.45619 0.07138 0.0
C1230 C 0.65081 0.39045 0.18531 0.0
C1231 C 0.60158 0.40408 0.14423 0.0
H1232 H 0.59117 0.40757 0.08119 0.0
C1233 C 0.58519 0.41629 0.15108 0.0
C1234 C 0.60387 0.40098 0.11869 0.0
C1235 C 0.62066 0.38734 0.11022 0.0
C1236 C 0.57097 0.42534 0.13319 0.0
C1237 C 0.57296 0.42184 0.10773 0.0
C1238 C 0.58965 0.41012 0.10075 0.0
C1239 C 0.5574 0.42984 0.08832 0.0
C1240 C 0.55393 0.43867 0.14164 0.0
C1241 C 0.53499 0.4198 0.08768 0.0
C1242 C 0.51979 0.42889 0.07123 0.0
C1243 C 0.52669 0.44828 0.05505 0.0
C1244 C 0.54941 0.45747 0.05482 0.0
C1245 C 0.56462 0.44828 0.07127 0.0
H1246 H 0.55774 0.44436 0.16097 0.0
H1247 H 0.55278 0.45431 0.12912 0.0
H1248 H 0.53752 0.42728 0.14107 0.0
H1249 H 0.52913 0.40533 0.10046 0.0
H1250 H 0.5025 0.42126 0.07194 0.0
loop_
_geom_bond_atom_site_label_1
_geom_bond_atom_site_label_2
_geom_bond_distance
_geom_bond_site_symmetry_2
_ccdc_geom_bond_type
C0 C1 1.384 . S
C0 H13 0.947 . S
C0 C35 1.382 . S
C1 C0 1.384 . S
C1 C2 1.378 . S
C2 C1 1.378 . S
C2 C3 1.378 . S
C2 H14 0.952 . S
C3 C2 1.378 . S
C3 H15 0.950 . S
C3 C34 1.383 . S
H4 C23 0.947 . S
H5 C24 0.946 . S
H6 C26 0.953 . S
H7 C27 0.945 . S
H8 C29 0.952 . S
H9 C30 0.949 . S
H10 C32 0.950 . S
H11 C33 0.948 . S
H12 C35 0.951 . S
H13 C0 0.947 . S
H14 C2 0.952 . S
H15 C3 0.950 . S
N16 C19 1.382 . S
N16 C21 1.363 . S
N17 C19 1.371 . S
N17 C20 1.372 . S
N18 C20 1.361 . S
N18 C21 1.377 . S
C19 N16 1.382 . S
C19 N17 1.371 . S
C19 C22 1.480 . S
C20 N17 1.372 . S
C20 N18 1.361 . S
C20 C28 1.457 . S
C21 N16 1.363 . S
C21 N18 1.377 . S
C21 C34 1.479 . S
C22 C19 1.480 . S
C22 C23 1.383 . S
C22 C27 1.385 . S
C23 H4 0.947 . S
C23 C22 1.383 . S
C23 C24 1.388 . S
C24 H5 0.946 . S
C24 C23 1.388 . S
C24 C25 1.384 . S
C25 C24 1.384 . S
C25 C26 1.377 . S
C26 H6 0.953 . S
C26 C25 1.377 . S
C26 C27 1.369 . S
C27 H7 0.945 . S
C27 C22 1.385 . S
C27 C26 1.369 . S
C28 C20 1.457 . S
C28 C29 1.372 . S
C28 C33 1.364 . S
C29 H8 0.952 . S
C29 C28 1.372 . S
C29 C30 1.389 . S
C30 H9 0.949 . S
C30 C29 1.389 . S
C30 C31 1.387 . S
C31 C30 1.387 . S
C31 C32 1.372 . S
C32 H10 0.950 . S
C32 C31 1.372 . S
C32 C33 1.379 . S
C33 H11 0.948 . S
C33 C28 1.364 . S
C33 C32 1.379 . S
C34 C3 1.383 . S
C34 C21 1.479 . S
C34 C35 1.398 . S
C35 C0 1.382 . S
C35 H12 0.951 . S
C35 C34 1.398 . S
C36 C37 1.384 . S
C36 H49 0.947 . S
C36 C71 1.382 . S
C37 C36 1.384 . S
C37 C38 1.378 . S
C38 C37 1.378 . S
C38 C39 1.378 . S
C38 H50 0.952 . S
C39 C38 1.378 . S
C39 H51 0.950 . S
C39 C70 1.383 . S
H40 C59 0.947 . S
H41 C60 0.946 . S
H42 C62 0.953 . S
H43 C63 0.945 . S
H44 C65 0.952 . S
H45 C66 0.949 . S
H46 C68 0.950 . S
H47 C69 0.948 . S
H48 C71 0.951 . S
H49 C36 0.947 . S
H50 C38 0.952 . S
H51 C39 0.950 . S
N52 C55 1.382 . S
N52 C57 1.363 . S
N53 C55 1.371 . S
N53 C56 1.372 . S
N54 C56 1.361 . S
N54 C57 1.377 . S
C55 N52 1.382 . S
C55 N53 1.371 . S
C55 C58 1.480 . S
C56 N53 1.372 . S
C56 N54 1.361 . S
C56 C64 1.457 . S
C57 N52 1.363 . S
C57 N54 1.377 . S
C57 C70 1.479 . S
C58 C55 1.480 . S
C58 C59 1.383 . S
C58 C63 1.385 . S
C59 H40 0.947 . S
C59 C58 1.383 . S
C59 C60 1.388 . S
C60 H41 0.946 . S
C60 C59 1.388 . S
C60 C61 1.384 . S
C61 C60 1.384 . S
C61 C62 1.377 . S
C62 H42 0.953 . S
C62 C61 1.377 . S
C62 C63 1.369 . S
C63 H43 0.945 . S
C63 C58 1.385 . S
C63 C62 1.369 . S
C64 C56 1.457 . S
C64 C65 1.372 . S
C64 C69 1.364 . S
C65 H44 0.952 . S
C65 C64 1.372 . S
C65 C66 1.389 . S
C66 H45 0.949 . S
C66 C65 1.389 . S
C66 C67 1.387 . S
C67 C66 1.387 . S
C67 C68 1.372 . S
C68 H46 0.950 . S
C68 C67 1.372 . S
C68 C69 1.379 . S
C69 H47 0.948 . S
C69 C64 1.364 . S
C69 C68 1.379 . S
C70 C39 1.383 . S
C70 C57 1.479 . S
C70 C71 1.398 . S
C71 C36 1.382 . S
C71 H48 0.951 . S
C71 C70 1.398 . S
C72 C73 1.384 . S
C72 H85 0.947 . S
C72 C107 1.382 . S
C73 C72 1.384 . S
C73 C74 1.378 . S
C74 C73 1.378 . S
C74 C75 1.378 . S
C74 H86 0.952 . S
C75 C74 1.378 . S
C75 H87 0.950 . S
C75 C106 1.383 . S
H76 C95 0.947 . S
H77 C96 0.946 . S
H78 C98 0.953 . S
H79 C99 0.945 . S
H80 C101 0.952 . S
H81 C102 0.949 . S
H82 C104 0.950 . S
H83 C105 0.948 . S
H84 C107 0.951 . S
H85 C72 0.947 . S
H86 C74 0.952 . S
H87 C75 0.950 . S
N88 C91 1.382 . S
N88 C93 1.363 . S
N89 C91 1.371 . S
N89 C92 1.372 . S
N90 C92 1.361 . S
N90 C93 1.377 . S
C91 N88 1.382 . S
C91 N89 1.371 . S
C91 C94 1.480 . S
C92 N89 1.372 . S
C92 N90 1.361 . S
C92 C100 1.457 . S
C93 N88 1.363 . S
C93 N90 1.377 . S
C93 C106 1.479 . S
C94 C91 1.480 . S
C94 C95 1.383 . S
C94 C99 1.385 . S
C95 H76 0.947 . S
C95 C94 1.383 . S
C95 C96 1.388 . S
C96 H77 0.946 . S
C96 C95 1.388 . S
C96 C97 1.384 . S
C97 C96 1.384 . S
C97 C98 1.377 . S
C98 H78 0.953 . S
C98 C97 1.377 . S
C98 C99 1.369 . S
C99 H79 0.945 . S
C99 C94 1.385 . S
C99 C98 1.369 . S
C100 C92 1.457 . S
C100 C101 1.372 . S
C100 C105 1.364 . S
C101 H80 0.952 . S
C101 C100 1.372 . S
C101 C102 1.389 . S
C102 H81 0.949 . S
C102 C101 1.389 . S
C102 C103 1.387 . S
C103 C102 1.387 . S
C103 C104 1.372 . S
C104 H82 0.950 . S
C104 C103 1.372 . S
C104 C105 1.379 . S
C105 H83 0.948 . S
C105 C100 1.364 . S
C105 C104 1.379 . S
C106 C75 1.383 . S
C106 C93 1.479 . S
C106 C107 1.398 . S
C107 C72 1.382 . S
C107 H84 0.951 . S
C107 C106 1.398 . S
C108 C109 1.384 . S
C108 H121 0.947 . S
C108 C143 1.382 . S
C109 C108 1.384 . S
C109 C110 1.378 . S
C110 C109 1.378 . S
C110 C111 1.378 . S
C110 H122 0.952 . S
C111 C110 1.378 . S
C111 H123 0.950 . S
C111 C142 1.383 . S
H112 C131 0.947 . S
H113 C132 0.946 . S
H114 C134 0.953 . S
H115 C135 0.945 . S
H116 C137 0.952 . S
H117 C138 0.949 . S
H118 C140 0.950 . S
H119 C141 0.948 . S
H120 C143 0.951 . S
H121 C108 0.947 . S
H122 C110 0.952 . S
H123 C111 0.950 . S
N124 C127 1.382 . S
N124 C129 1.363 . S
N125 C127 1.371 . S
N125 C128 1.372 . S
N126 C128 1.361 . S
N126 C129 1.377 . S
C127 N124 1.382 . S
C127 N125 1.371 . S
C127 C130 1.480 . S
C128 N125 1.372 . S
C128 N126 1.361 . S
C128 C136 1.457 . S
C129 N124 1.363 . S
C129 N126 1.377 . S
C129 C142 1.479 . S
C130 C127 1.480 . S
C130 C131 1.383 . S
C130 C135 1.385 . S
C131 H112 0.947 . S
C131 C130 1.383 . S
C131 C132 1.388 . S
C132 H113 0.946 . S
C132 C131 1.388 . S
C132 C133 1.384 . S
C133 C132 1.384 . S
C133 C134 1.377 . S
C134 H114 0.953 . S
C134 C133 1.377 . S
C134 C135 1.369 . S
C135 H115 0.945 . S
C135 C130 1.385 . S
C135 C134 1.369 . S
C136 C128 1.457 . S
C136 C137 1.372 . S
C136 C141 1.364 . S
C137 H116 0.952 . S
C137 C136 1.372 . S
C137 C138 1.389 . S
C138 H117 0.949 . S
C138 C137 1.389 . S
C138 C139 1.387 . S
C139 C138 1.387 . S
C139 C140 1.372 . S
C140 H118 0.950 . S
C140 C139 1.372 . S
C140 C141 1.379 . S
C141 H119 0.948 . S
C141 C136 1.364 . S
C141 C140 1.379 . S
C142 C111 1.383 . S
C142 C129 1.479 . S
C142 C143 1.398 . S
C143 C108 1.382 . S
C143 H120 0.951 . S
C143 C142 1.398 . S
C144 C145 1.384 . S
C144 H157 0.947 . S
C144 C179 1.382 . S
C145 C144 1.384 . S
C145 C146 1.378 . S
C146 C145 1.378 . S
C146 C147 1.378 . S
C146 H158 0.952 . S
C147 C146 1.378 . S
C147 H159 0.950 . S
C147 C178 1.383 . S
H148 C167 0.947 . S
H149 C168 0.946 . S
H150 C170 0.953 . S
H151 C171 0.945 . S
H152 C173 0.952 . S
H153 C174 0.949 . S
H154 C176 0.950 . S
H155 C177 0.948 . S
H156 C179 0.951 . S
H157 C144 0.947 . S
H158 C146 0.952 . S
H159 C147 0.950 . S
N160 C163 1.382 . S
N160 C165 1.363 . S
N161 C163 1.371 . S
N161 C164 1.372 . S
N162 C164 1.361 . S
N162 C165 1.377 . S
C163 N160 1.382 . S
C163 N161 1.371 . S
C163 C166 1.480 . S
C164 N161 1.372 . S
C164 N162 1.361 . S
C164 C172 1.457 . S
C165 N160 1.363 . S
C165 N162 1.377 . S
C165 C178 1.479 . S
C166 C163 1.480 . S
C166 C167 1.383 . S
C166 C171 1.385 . S
C167 H148 0.947 . S
C167 C166 1.383 . S
C167 C168 1.388 . S
C168 H149 0.946 . S
C168 C167 1.388 . S
C168 C169 1.384 . S
C169 C168 1.384 . S
C169 C170 1.377 . S
C170 H150 0.953 . S
C170 C169 1.377 . S
C170 C171 1.369 . S
C171 H151 0.945 . S
C171 C166 1.385 . S
C171 C170 1.369 . S
C172 C164 1.457 . S
C172 C173 1.372 . S
C172 C177 1.364 . S
C173 H152 0.952 . S
C173 C172 1.372 . S
C173 C174 1.389 . S
C174 H153 0.949 . S
C174 C173 1.389 . S
C174 C175 1.387 . S
C175 C174 1.387 . S
C175 C176 1.372 . S
C176 H154 0.950 . S
C176 C175 1.372 . S
C176 C177 1.379 . S
C177 H155 0.948 . S
C177 C172 1.364 . S
C177 C176 1.379 . S
C178 C147 1.383 . S
C178 C165 1.479 . S
C178 C179 1.398 . S
C179 C144 1.382 . S
C179 H156 0.951 . S
C179 C178 1.398 . S
C180 C181 1.384 . S
C180 H193 0.947 . S
C180 C215 1.382 . S
C181 C180 1.384 . S
C181 C182 1.378 . S
C182 C181 1.378 . S
C182 C183 1.378 . S
C182 H194 0.952 . S
C183 C182 1.378 . S
C183 H195 0.950 . S
C183 C214 1.383 . S
H184 C203 0.947 . S
H185 C204 0.946 . S
H186 C206 0.953 . S
H187 C207 0.945 . S
H188 C209 0.952 . S
H189 C210 0.949 . S
H190 C212 0.950 . S
H191 C213 0.948 . S
H192 C215 0.951 . S
H193 C180 0.947 . S
H194 C182 0.952 . S
H195 C183 0.950 . S
N196 C199 1.382 . S
N196 C201 1.363 . S
N197 C199 1.371 . S
N197 C200 1.372 . S
N198 C200 1.361 . S
N198 C201 1.377 . S
C199 N196 1.382 . S
C199 N197 1.371 . S
C199 C202 1.480 . S
C200 N197 1.372 . S
C200 N198 1.361 . S
C200 C208 1.457 . S
C201 N196 1.363 . S
C201 N198 1.377 . S
C201 C214 1.479 . S
C202 C199 1.480 . S
C202 C203 1.383 . S
C202 C207 1.385 . S
C203 H184 0.947 . S
C203 C202 1.383 . S
C203 C204 1.388 . S
C204 H185 0.946 . S
C204 C203 1.388 . S
C204 C205 1.384 . S
C205 C204 1.384 . S
C205 C206 1.377 . S
C206 H186 0.953 . S
C206 C205 1.377 . S
C206 C207 1.369 . S
C207 H187 0.945 . S
C207 C202 1.385 . S
C207 C206 1.369 . S
C208 C200 1.457 . S
C208 C209 1.372 . S
C208 C213 1.364 . S
C209 H188 0.952 . S
C209 C208 1.372 . S
C209 C210 1.389 . S
C210 H189 0.949 . S
C210 C209 1.389 . S
C210 C211 1.387 . S
C211 C210 1.387 . S
C211 C212 1.372 . S
C212 H190 0.950 . S
C212 C211 1.372 . S
C212 C213 1.379 . S
C213 H191 0.948 . S
C213 C208 1.364 . S
C213 C212 1.379 . S
C214 C183 1.383 . S
C214 C201 1.479 . S
C214 C215 1.398 . S
C215 C180 1.382 . S
C215 H192 0.951 . S
C215 C214 1.398 . S
C216 C217 1.384 . S
C216 H229 0.947 . S
C216 C251 1.382 . S
C217 C216 1.384 . S
C217 C218 1.378 . S
C218 C217 1.378 . S
C218 C219 1.378 . S
C218 H230 0.952 . S
C219 C218 1.378 . S
C219 H231 0.950 . S
C219 C250 1.383 . S
H220 C239 0.947 . S
H221 C240 0.946 . S
H222 C242 0.953 . S
H223 C243 0.945 . S
H224 C245 0.952 . S
H225 C246 0.949 . S
H226 C248 0.950 . S
H227 C249 0.948 . S
H228 C251 0.951 . S
H229 C216 0.947 . S
H230 C218 0.952 . S
H231 C219 0.950 . S
N232 C235 1.382 . S
N232 C237 1.363 . S
N233 C235 1.371 . S
N233 C236 1.372 . S
N234 C236 1.361 . S
N234 C237 1.377 . S
C235 N232 1.382 . S
C235 N233 1.371 . S
C235 C238 1.480 . S
C236 N233 1.372 . S
C236 N234 1.361 . S
C236 C244 1.457 . S
C237 N232 1.363 . S
C237 N234 1.377 . S
C237 C250 1.479 . S
C238 C235 1.480 . S
C238 C239 1.383 . S
C238 C243 1.385 . S
C239 H220 0.947 . S
C239 C238 1.383 . S
C239 C240 1.388 . S
C240 H221 0.946 . S
C240 C239 1.388 . S
C240 C241 1.384 . S
C241 C240 1.384 . S
C241 C242 1.377 . S
C242 H222 0.953 . S
C242 C241 1.377 . S
C242 C243 1.369 . S
C243 H223 0.945 . S
C243 C238 1.385 . S
C243 C242 1.369 . S
C244 C236 1.457 . S
C244 C245 1.372 . S
C244 C249 1.364 . S
C245 H224 0.952 . S
C245 C244 1.372 . S
C245 C246 1.389 . S
C246 H225 0.949 . S
C246 C245 1.389 . S
C246 C247 1.387 . S
C247 C246 1.387 . S
C247 C248 1.372 . S
C248 H226 0.950 . S
C248 C247 1.372 . S
C248 C249 1.379 . S
C249 H227 0.948 . S
C249 C244 1.364 . S
C249 C248 1.379 . S
C250 C219 1.383 . S
C250 C237 1.479 . S
C250 C251 1.398 . S
C251 C216 1.382 . S
C251 H228 0.951 . S
C251 C250 1.398 . S
C252 C253 1.384 . S
C252 H265 0.947 . S
C252 C287 1.382 . S
C253 C252 1.384 . S
C253 C254 1.378 . S
C254 C253 1.378 . S
C254 C255 1.378 . S
C254 H266 0.952 . S
C255 C254 1.378 . S
C255 H267 0.950 . S
C255 C286 1.383 . S
H256 C275 0.947 . S
H257 C276 0.946 . S
H258 C278 0.953 . S
H259 C279 0.945 . S
H260 C281 0.952 . S
H261 C282 0.949 . S
H262 C284 0.950 . S
H263 C285 0.948 . S
H264 C287 0.951 . S
H265 C252 0.947 . S
H266 C254 0.952 . S
H267 C255 0.950 . S
N268 C271 1.382 . S
N268 C273 1.363 . S
N269 C271 1.371 . S
N269 C272 1.372 . S
N270 C272 1.361 . S
N270 C273 1.377 . S
C271 N268 1.382 . S
C271 N269 1.371 . S
C271 C274 1.480 . S
C272 N269 1.372 . S
C272 N270 1.361 . S
C272 C280 1.457 . S
C273 N268 1.363 . S
C273 N270 1.377 . S
C273 C286 1.479 . S
C274 C271 1.480 . S
C274 C275 1.383 . S
C274 C279 1.385 . S
C275 H256 0.947 . S
C275 C274 1.383 . S
C275 C276 1.388 . S
C276 H257 0.946 . S
C276 C275 1.388 . S
C276 C277 1.384 . S
C277 C276 1.384 . S
C277 C278 1.377 . S
C278 H258 0.953 . S
C278 C277 1.377 . S
C278 C279 1.369 . S
C279 H259 0.945 . S
C279 C274 1.385 . S
C279 C278 1.369 . S
C280 C272 1.457 . S
C280 C281 1.372 . S
C280 C285 1.364 . S
C281 H260 0.952 . S
C281 C280 1.372 . S
C281 C282 1.389 . S
C282 H261 0.949 . S
C282 C281 1.389 . S
C282 C283 1.387 . S
C283 C282 1.387 . S
C283 C284 1.372 . S
C284 H262 0.950 . S
C284 C283 1.372 . S
C284 C285 1.379 . S
C285 H263 0.948 . S
C285 C280 1.364 . S
C285 C284 1.379 . S
C286 C255 1.383 . S
C286 C273 1.479 . S
C286 C287 1.398 . S
C287 C252 1.382 . S
C287 H264 0.951 . S
C287 C286 1.398 . S
Co288 O291 2.042 . S
Co288 O298 2.264 . S
Co288 O317 2.286 . S
Co288 O318 2.069 . S
Co288 O320 2.015 . S
Co289 O291 2.122 . S
Co289 O297 2.073 . S
Co289 O298 2.327 . S
Co289 O299 1.976 . S
Co290 O291 2.087 . S
Co290 O293 2.087 1_455 S
Co290 O300 2.111 . S
Co290 O301 2.143 1_455 S
Co290 O305 2.111 1_455 S
Co290 O319 2.143 . S
O291 Co288 2.042 . S
O291 Co289 2.122 . S
O291 Co290 2.087 . S
O291 H292 0.980 . S
H292 O291 0.980 . S
O293 Co290 2.087 1_655 S
O293 Co294 2.042 . S
O293 Co295 2.122 . S
O293 H296 0.980 . S
Co294 O293 2.042 . S
Co294 O302 2.286 . S
Co294 O303 2.069 . S
Co294 O304 2.015 . S
Co294 O307 2.264 . S
Co295 O293 2.122 . S
Co295 O306 1.976 . S
Co295 O307 2.327 . S
Co295 O308 2.073 . S
H296 O293 0.980 . S
O297 Co289 2.073 . S
O297 C312 1.245 . S
O298 Co288 2.264 . S
O298 Co289 2.327 . S
O298 C312 1.257 . S
O299 Co289 1.976 . S
O299 C311 1.251 . S
O300 Co290 2.111 . S
O300 C311 1.274 . S
O301 Co290 2.143 1_655 S
O301 C314 1.246 . S
O302 Co294 2.286 . S
O302 C313 1.259 . S
O303 Co294 2.069 . S
O303 C313 1.289 . S
O304 Co294 2.015 . S
O304 C314 1.257 . S
O305 Co290 2.111 1_655 S
O305 C315 1.274 . S
O306 Co295 1.976 . S
O306 C315 1.251 . S
O307 Co294 2.264 . S
O307 Co295 2.327 . S
O307 C316 1.257 . S
O308 Co295 2.073 . S
O308 C316 1.245 . S
C309 O317 1.259 . S
C309 O318 1.289 . S
C310 O319 1.246 . S
C310 O320 1.257 . S
C311 O299 1.251 . S
C311 O300 1.274 . S
C312 O297 1.245 . S
C312 O298 1.257 . S
C313 O302 1.259 . S
C313 O303 1.289 . S
C314 O301 1.246 . S
C314 O304 1.257 . S
C315 O305 1.274 . S
C315 O306 1.251 . S
C316 O307 1.257 . S
C316 O308 1.245 . S
O317 Co288 2.286 . S
O317 C309 1.259 . S
O318 Co288 2.069 . S
O318 C309 1.289 . S
O319 Co290 2.143 . S
O319 C310 1.246 . S
O320 Co288 2.015 . S
O320 C310 1.257 . S
Co321 O324 2.042 . S
Co321 O331 2.264 . S
Co321 O350 2.286 . S
Co321 O351 2.069 . S
Co321 O353 2.015 . S
Co322 O324 2.122 . S
Co322 O330 2.073 . S
Co322 O331 2.327 . S
Co322 O332 1.976 . S
Co323 O324 2.087 1_545 S
Co323 O326 2.087 . S
Co323 O333 2.111 1_545 S
Co323 O334 2.143 . S
Co323 O338 2.111 . S
Co323 O352 2.143 1_545 S
O324 Co321 2.042 . S
O324 Co322 2.122 . S
O324 Co323 2.087 1_565 S
O324 H325 0.980 . S
H325 O324 0.980 . S
O326 Co323 2.087 . S
O326 Co327 2.042 . S
O326 Co328 2.122 . S
O326 H329 0.980 . S
Co327 O326 2.042 . S
Co327 O335 2.286 . S
Co327 O336 2.069 . S
Co327 O337 2.015 . S
Co327 O340 2.264 . S
Co328 O326 2.122 . S
Co328 O339 1.976 . S
Co328 O340 2.327 . S
Co328 O341 2.073 . S
H329 O326 0.980 . S
O330 Co322 2.073 . S
O330 C345 1.245 . S
O331 Co321 2.264 . S
O331 Co322 2.327 . S
O331 C345 1.257 . S
O332 Co322 1.976 . S
O332 C344 1.251 . S
O333 Co323 2.111 1_565 S
O333 C344 1.274 . S
O334 Co323 2.143 . S
O334 C347 1.246 . S
O335 Co327 2.286 . S
O335 C346 1.259 . S
O336 Co327 2.069 . S
O336 C346 1.289 . S
O337 Co327 2.015 . S
O337 C347 1.257 . S
O338 Co323 2.111 . S
O338 C348 1.274 . S
O339 Co328 1.976 . S
O339 C348 1.251 . S
O340 Co327 2.264 . S
O340 Co328 2.327 . S
O340 C349 1.257 . S
O341 Co328 2.073 . S
O341 C349 1.245 . S
C342 O350 1.259 . S
C342 O351 1.289 . S
C343 O352 1.246 . S
C343 O353 1.257 . S
C344 O332 1.251 . S
C344 O333 1.274 . S
C345 O330 1.245 . S
C345 O331 1.257 . S
C346 O335 1.259 . S
C346 O336 1.289 . S
C347 O334 1.246 . S
C347 O337 1.257 . S
C348 O338 1.274 . S
C348 O339 1.251 . S
C349 O340 1.257 . S
C349 O341 1.245 . S
O350 Co321 2.286 . S
O350 C342 1.259 . S
O351 Co321 2.069 . S
O351 C342 1.289 . S
O352 Co323 2.143 1_565 S
O352 C343 1.246 . S
O353 Co321 2.015 . S
O353 C343 1.257 . S
Co354 O357 2.042 . S
Co354 O364 2.264 . S
Co354 O383 2.286 . S
Co354 O384 2.069 . S
Co354 O386 2.015 . S
Co355 O357 2.122 . S
Co355 O363 2.073 . S
Co355 O364 2.327 . S
Co355 O365 1.976 . S
Co356 O357 2.087 . S
Co356 O359 2.087 1_554 S
Co356 O366 2.111 . S
Co356 O367 2.143 1_554 S
Co356 O371 2.111 1_554 S
Co356 O385 2.143 . S
O357 Co354 2.042 . S
O357 Co355 2.122 . S
O357 Co356 2.087 . S
O357 H358 0.980 . S
H358 O357 0.980 . S
O359 Co356 2.087 1_556 S
O359 Co360 2.042 . S
O359 Co361 2.122 . S
O359 H362 0.980 . S
Co360 O359 2.042 . S
Co360 O368 2.286 . S
Co360 O369 2.069 . S
Co360 O370 2.015 . S
Co360 O373 2.264 . S
Co361 O359 2.122 . S
Co361 O372 1.976 . S
Co361 O373 2.327 . S
Co361 O374 2.073 . S
H362 O359 0.980 . S
O363 Co355 2.073 . S
O363 C378 1.245 . S
O364 Co354 2.264 . S
O364 Co355 2.327 . S
O364 C378 1.257 . S
O365 Co355 1.976 . S
O365 C377 1.251 . S
O366 Co356 2.111 . S
O366 C377 1.274 . S
O367 Co356 2.143 1_556 S
O367 C380 1.246 . S
O368 Co360 2.286 . S
O368 C379 1.259 . S
O369 Co360 2.069 . S
O369 C379 1.289 . S
O370 Co360 2.015 . S
O370 C380 1.257 . S
O371 Co356 2.111 1_556 S
O371 C381 1.274 . S
O372 Co361 1.976 . S
O372 C381 1.251 . S
O373 Co360 2.264 . S
O373 Co361 2.327 . S
O373 C382 1.257 . S
O374 Co361 2.073 . S
O374 C382 1.245 . S
C375 O383 1.259 . S
C375 O384 1.289 . S
C376 O385 1.246 . S
C376 O386 1.257 . S
C377 O365 1.251 . S
C377 O366 1.274 . S
C378 O363 1.245 . S
C378 O364 1.257 . S
C379 O368 1.259 . S
C379 O369 1.289 . S
C380 O367 1.246 . S
C380 O370 1.257 . S
C381 O371 1.274 . S
C381 O372 1.251 . S
C382 O373 1.257 . S
C382 O374 1.245 . S
O383 Co354 2.286 . S
O383 C375 1.259 . S
O384 Co354 2.069 . S
O384 C375 1.289 . S
O385 Co356 2.143 . S
O385 C376 1.246 . S
O386 Co354 2.015 . S
O386 C376 1.257 . S
H387 C395 0.929 . S
H388 C397 0.930 . S
H389 C399 0.930 . S
H390 C402 0.929 . S
H391 C405 0.930 . S
H392 C407 0.960 . S
H393 C407 0.960 . S
H394 C407 0.960 . S
C395 H387 0.929 . S
C395 C396 1.377 . S
C395 C397 1.384 . S
C396 C395 1.377 . S
C396 C402 1.390 . S
C397 H388 0.930 . S
C397 C395 1.384 . S
C397 C398 1.372 . S
C398 C397 1.372 . S
C398 C399 1.400 . S
C398 C403 1.490 . S
C399 H389 0.930 . S
C399 C398 1.400 . S
C399 C402 1.386 . S
H400 C416 0.930 . S
H401 C417 0.931 . S
C402 H390 0.929 . S
C402 C396 1.390 . S
C402 C399 1.386 . S
C403 C398 1.490 . S
C403 C405 1.395 . S
C403 C406 1.403 . S
H404 C410 0.930 . S
C405 H391 0.930 . S
C405 C403 1.395 . S
C405 C408 1.403 . S
C406 C403 1.403 . S
C406 C407 1.524 . S
C406 C410 1.400 . S
C407 H392 0.960 . S
C407 H393 0.960 . S
C407 H394 0.960 . S
C407 C406 1.524 . S
C408 C405 1.403 . S
C408 C409 1.392 . S
C408 C412 1.495 . S
C409 C408 1.392 . S
C409 C410 1.385 . S
C409 C411 1.478 . S
C410 H404 0.930 . S
C410 C406 1.400 . S
C410 C409 1.385 . S
C411 C409 1.478 . S
C411 C413 1.381 . S
C411 C417 1.383 . S
C412 C408 1.495 . S
C412 H418 0.959 . S
C412 H419 0.961 . S
C412 H420 0.960 . S
C413 C411 1.381 . S
C413 C414 1.394 . S
C413 H421 0.930 . S
C414 C413 1.394 . S
C414 C415 1.383 . S
C414 H422 0.929 . S
C415 C414 1.383 . S
C415 C416 1.377 . S
C416 H400 0.930 . S
C416 C415 1.377 . S
C416 C417 1.379 . S
C417 H401 0.931 . S
C417 C411 1.383 . S
C417 C416 1.379 . S
H418 C412 0.959 . S
H419 C412 0.961 . S
H420 C412 0.960 . S
H421 C413 0.930 . S
H422 C414 0.929 . S
H423 C431 0.929 . S
H424 C433 0.930 . S
H425 C435 0.930 . S
H426 C438 0.929 . S
H427 C441 0.930 . S
H428 C443 0.960 . S
H429 C443 0.960 . S
H430 C443 0.960 . S
C431 H423 0.929 . S
C431 C432 1.377 . S
C431 C433 1.384 . S
C432 C431 1.377 . S
C432 C438 1.390 . S
C433 H424 0.930 . S
C433 C431 1.384 . S
C433 C434 1.372 . S
C434 C433 1.372 . S
C434 C435 1.400 . S
C434 C439 1.490 . S
C435 H425 0.930 . S
C435 C434 1.400 . S
C435 C438 1.386 . S
H436 C452 0.930 . S
H437 C453 0.931 . S
C438 H426 0.929 . S
C438 C432 1.390 . S
C438 C435 1.386 . S
C439 C434 1.490 . S
C439 C441 1.395 . S
C439 C442 1.403 . S
H440 C446 0.930 . S
C441 H427 0.930 . S
C441 C439 1.395 . S
C441 C444 1.403 . S
C442 C439 1.403 . S
C442 C443 1.524 . S
C442 C446 1.400 . S
C443 H428 0.960 . S
C443 H429 0.960 . S
C443 H430 0.960 . S
C443 C442 1.524 . S
C444 C441 1.403 . S
C444 C445 1.392 . S
C444 C448 1.495 . S
C445 C444 1.392 . S
C445 C446 1.385 . S
C445 C447 1.478 . S
C446 H440 0.930 . S
C446 C442 1.400 . S
C446 C445 1.385 . S
C447 C445 1.478 . S
C447 C449 1.381 . S
C447 C453 1.383 . S
C448 C444 1.495 . S
C448 H454 0.959 . S
C448 H455 0.961 . S
C448 H456 0.960 . S
C449 C447 1.381 . S
C449 C450 1.394 . S
C449 H457 0.930 . S
C450 C449 1.394 . S
C450 C451 1.383 . S
C450 H458 0.929 . S
C451 C450 1.383 . S
C451 C452 1.377 . S
C452 H436 0.930 . S
C452 C451 1.377 . S
C452 C453 1.379 . S
C453 H437 0.931 . S
C453 C447 1.383 . S
C453 C452 1.379 . S
H454 C448 0.959 . S
H455 C448 0.961 . S
H456 C448 0.960 . S
H457 C449 0.930 . S
H458 C450 0.929 . S
H459 C467 0.929 . S
H460 C469 0.930 . S
H461 C471 0.930 . S
H462 C474 0.929 . S
H463 C477 0.930 . S
H464 C479 0.960 . S
H465 C479 0.960 . S
H466 C479 0.960 . S
C467 H459 0.929 . S
C467 C468 1.377 . S
C467 C469 1.384 . S
C468 C467 1.377 . S
C468 C474 1.390 . S
C469 H460 0.930 . S
C469 C467 1.384 . S
C469 C470 1.372 . S
C470 C469 1.372 . S
C470 C471 1.400 . S
C470 C475 1.490 . S
C471 H461 0.930 . S
C471 C470 1.400 . S
C471 C474 1.386 . S
H472 C488 0.930 . S
H473 C489 0.931 . S
C474 H462 0.929 . S
C474 C468 1.390 . S
C474 C471 1.386 . S
C475 C470 1.490 . S
C475 C477 1.395 . S
C475 C478 1.403 . S
H476 C482 0.930 . S
C477 H463 0.930 . S
C477 C475 1.395 . S
C477 C480 1.403 . S
C478 C475 1.403 . S
C478 C479 1.524 . S
C478 C482 1.400 . S
C479 H464 0.960 . S
C479 H465 0.960 . S
C479 H466 0.960 . S
C479 C478 1.524 . S
C480 C477 1.403 . S
C480 C481 1.392 . S
C480 C484 1.495 . S
C481 C480 1.392 . S
C481 C482 1.385 . S
C481 C483 1.478 . S
C482 H476 0.930 . S
C482 C478 1.400 . S
C482 C481 1.385 . S
C483 C481 1.478 . S
C483 C485 1.381 . S
C483 C489 1.383 . S
C484 C480 1.495 . S
C484 H490 0.959 . S
C484 H491 0.961 . S
C484 H492 0.960 . S
C485 C483 1.381 . S
C485 C486 1.394 . S
C485 H493 0.930 . S
C486 C485 1.394 . S
C486 C487 1.383 . S
C486 H494 0.929 . S
C487 C486 1.383 . S
C487 C488 1.377 . S
C488 H472 0.930 . S
C488 C487 1.377 . S
C488 C489 1.379 . S
C489 H473 0.931 . S
C489 C483 1.383 . S
C489 C488 1.379 . S
H490 C484 0.959 . S
H491 C484 0.961 . S
H492 C484 0.960 . S
H493 C485 0.930 . S
H494 C486 0.929 . S
H495 C503 0.929 . S
H496 C505 0.930 . S
H497 C507 0.930 . S
H498 C510 0.929 . S
H499 C513 0.930 . S
H500 C515 0.960 . S
H501 C515 0.960 . S
H502 C515 0.960 . S
C503 H495 0.929 . S
C503 C504 1.377 . S
C503 C505 1.384 . S
C504 C503 1.377 . S
C504 C510 1.390 . S
C505 H496 0.930 . S
C505 C503 1.384 . S
C505 C506 1.372 . S
C506 C505 1.372 . S
C506 C507 1.400 . S
C506 C511 1.490 . S
C507 H497 0.930 . S
C507 C506 1.400 . S
C507 C510 1.386 . S
H508 C524 0.930 . S
H509 C525 0.931 . S
C510 H498 0.929 . S
C510 C504 1.390 . S
C510 C507 1.386 . S
C511 C506 1.490 . S
C511 C513 1.395 . S
C511 C514 1.403 . S
H512 C518 0.930 . S
C513 H499 0.930 . S
C513 C511 1.395 . S
C513 C516 1.403 . S
C514 C511 1.403 . S
C514 C515 1.524 . S
C514 C518 1.400 . S
C515 H500 0.960 . S
C515 H501 0.960 . S
C515 H502 0.960 . S
C515 C514 1.524 . S
C516 C513 1.403 . S
C516 C517 1.392 . S
C516 C520 1.495 . S
C517 C516 1.392 . S
C517 C518 1.385 . S
C517 C519 1.478 . S
C518 H512 0.930 . S
C518 C514 1.400 . S
C518 C517 1.385 . S
C519 C517 1.478 . S
C519 C521 1.381 . S
C519 C525 1.383 . S
C520 C516 1.495 . S
C520 H526 0.959 . S
C520 H527 0.961 . S
C520 H528 0.960 . S
C521 C519 1.381 . S
C521 C522 1.394 . S
C521 H529 0.930 . S
C522 C521 1.394 . S
C522 C523 1.383 . S
C522 H530 0.929 . S
C523 C522 1.383 . S
C523 C524 1.377 . S
C524 H508 0.930 . S
C524 C523 1.377 . S
C524 C525 1.379 . S
C525 H509 0.931 . S
C525 C519 1.383 . S
C525 C524 1.379 . S
H526 C520 0.959 . S
H527 C520 0.961 . S
H528 C520 0.960 . S
H529 C521 0.930 . S
H530 C522 0.929 . S
H531 C539 0.929 . S
H532 C541 0.930 . S
H533 C543 0.930 . S
H534 C546 0.929 . S
H535 C549 0.930 . S
H536 C551 0.960 . S
H537 C551 0.960 . S
H538 C551 0.960 . S
C539 H531 0.929 . S
C539 C540 1.377 . S
C539 C541 1.384 . S
C540 C539 1.377 . S
C540 C546 1.390 . S
C541 H532 0.930 . S
C541 C539 1.384 . S
C541 C542 1.372 . S
C542 C541 1.372 . S
C542 C543 1.400 . S
C542 C547 1.490 . S
C543 H533 0.930 . S
C543 C542 1.400 . S
C543 C546 1.386 . S
H544 C560 0.930 . S
H545 C561 0.931 . S
C546 H534 0.929 . S
C546 C540 1.390 . S
C546 C543 1.386 . S
C547 C542 1.490 . S
C547 C549 1.395 . S
C547 C550 1.403 . S
H548 C554 0.930 . S
C549 H535 0.930 . S
C549 C547 1.395 . S
C549 C552 1.403 . S
C550 C547 1.403 . S
C550 C551 1.524 . S
C550 C554 1.400 . S
C551 H536 0.960 . S
C551 H537 0.960 . S
C551 H538 0.960 . S
C551 C550 1.524 . S
C552 C549 1.403 . S
C552 C553 1.392 . S
C552 C556 1.495 . S
C553 C552 1.392 . S
C553 C554 1.385 . S
C553 C555 1.478 . S
C554 H548 0.930 . S
C554 C550 1.400 . S
C554 C553 1.385 . S
C555 C553 1.478 . S
C555 C557 1.381 . S
C555 C561 1.383 . S
C556 C552 1.495 . S
C556 H562 0.959 . S
C556 H563 0.961 . S
C556 H564 0.960 . S
C557 C555 1.381 . S
C557 C558 1.394 . S
C557 H565 0.930 . S
C558 C557 1.394 . S
C558 C559 1.383 . S
C558 H566 0.929 . S
C559 C558 1.383 . S
C559 C560 1.377 . S
C560 H544 0.930 . S
C560 C559 1.377 . S
C560 C561 1.379 . S
C561 H545 0.931 . S
C561 C555 1.383 . S
C561 C560 1.379 . S
H562 C556 0.959 . S
H563 C556 0.961 . S
H564 C556 0.960 . S
H565 C557 0.930 . S
H566 C558 0.929 . S
H567 C575 0.929 . S
H568 C577 0.930 . S
H569 C579 0.930 . S
H570 C582 0.929 . S
H571 C585 0.930 . S
H572 C587 0.960 . S
H573 C587 0.960 . S
H574 C587 0.960 . S
C575 H567 0.929 . S
C575 C576 1.377 . S
C575 C577 1.384 . S
C576 C575 1.377 . S
C576 C582 1.390 . S
C577 H568 0.930 . S
C577 C575 1.384 . S
C577 C578 1.372 . S
C578 C577 1.372 . S
C578 C579 1.400 . S
C578 C583 1.490 . S
C579 H569 0.930 . S
C579 C578 1.400 . S
C579 C582 1.386 . S
H580 C596 0.930 . S
H581 C597 0.931 . S
C582 H570 0.929 . S
C582 C576 1.390 . S
C582 C579 1.386 . S
C583 C578 1.490 . S
C583 C585 1.395 . S
C583 C586 1.403 . S
H584 C590 0.930 . S
C585 H571 0.930 . S
C585 C583 1.395 . S
C585 C588 1.403 . S
C586 C583 1.403 . S
C586 C587 1.524 . S
C586 C590 1.400 . S
C587 H572 0.960 . S
C587 H573 0.960 . S
C587 H574 0.960 . S
C587 C586 1.524 . S
C588 C585 1.403 . S
C588 C589 1.392 . S
C588 C592 1.495 . S
C589 C588 1.392 . S
C589 C590 1.385 . S
C589 C591 1.478 . S
C590 H584 0.930 . S
C590 C586 1.400 . S
C590 C589 1.385 . S
C591 C589 1.478 . S
C591 C593 1.381 . S
C591 C597 1.383 . S
C592 C588 1.495 . S
C592 H598 0.959 . S
C592 H599 0.961 . S
C592 H600 0.960 . S
C593 C591 1.381 . S
C593 C594 1.394 . S
C593 H601 0.930 . S
C594 C593 1.394 . S
C594 C595 1.383 . S
C594 H602 0.929 . S
C595 C594 1.383 . S
C595 C596 1.377 . S
C596 H580 0.930 . S
C596 C595 1.377 . S
C596 C597 1.379 . S
C597 H581 0.931 . S
C597 C591 1.383 . S
C597 C596 1.379 . S
H598 C592 0.959 . S
H599 C592 0.961 . S
H600 C592 0.960 . S
H601 C593 0.930 . S
H602 C594 0.929 . S
H603 C611 0.929 . S
H604 C613 0.930 . S
H605 C615 0.930 . S
H606 C618 0.929 . S
H607 C621 0.930 . S
H608 C623 0.960 . S
H609 C623 0.960 . S
H610 C623 0.960 . S
C611 H603 0.929 . S
C611 C612 1.377 . S
C611 C613 1.384 . S
C612 C611 1.377 . S
C612 C618 1.390 . S
C613 H604 0.930 . S
C613 C611 1.384 . S
C613 C614 1.372 . S
C614 C613 1.372 . S
C614 C615 1.400 . S
C614 C619 1.490 . S
C615 H605 0.930 . S
C615 C614 1.400 . S
C615 C618 1.386 . S
H616 C632 0.930 . S
H617 C633 0.931 . S
C618 H606 0.929 . S
C618 C612 1.390 . S
C618 C615 1.386 . S
C619 C614 1.490 . S
C619 C621 1.395 . S
C619 C622 1.403 . S
H620 C626 0.930 . S
C621 H607 0.930 . S
C621 C619 1.395 . S
C621 C624 1.403 . S
C622 C619 1.403 . S
C622 C623 1.524 . S
C622 C626 1.400 . S
C623 H608 0.960 . S
C623 H609 0.960 . S
C623 H610 0.960 . S
C623 C622 1.524 . S
C624 C621 1.403 . S
C624 C625 1.392 . S
C624 C628 1.495 . S
C625 C624 1.392 . S
C625 C626 1.385 . S
C625 C627 1.478 . S
C626 H620 0.930 . S
C626 C622 1.400 . S
C626 C625 1.385 . S
C627 C625 1.478 . S
C627 C629 1.381 . S
C627 C633 1.383 . S
C628 C624 1.495 . S
C628 H634 0.959 . S
C628 H635 0.961 . S
C628 H636 0.960 . S
C629 C627 1.381 . S
C629 C630 1.394 . S
C629 H637 0.930 . S
C630 C629 1.394 . S
C630 C631 1.383 . S
C630 H638 0.929 . S
C631 C630 1.383 . S
C631 C632 1.377 . S
C632 H616 0.930 . S
C632 C631 1.377 . S
C632 C633 1.379 . S
C633 H617 0.931 . S
C633 C627 1.383 . S
C633 C632 1.379 . S
H634 C628 0.959 . S
H635 C628 0.961 . S
H636 C628 0.960 . S
H637 C629 0.930 . S
H638 C630 0.929 . S
H639 C647 0.929 . S
H640 C649 0.930 . S
H641 C651 0.930 . S
H642 C654 0.929 . S
H643 C657 0.930 . S
H644 C659 0.960 . S
H645 C659 0.960 . S
H646 C659 0.960 . S
C647 H639 0.929 . S
C647 C648 1.377 . S
C647 C649 1.384 . S
C648 C647 1.377 . S
C648 C654 1.390 . S
C649 H640 0.930 . S
C649 C647 1.384 . S
C649 C650 1.372 . S
C650 C649 1.372 . S
C650 C651 1.400 . S
C650 C655 1.490 . S
C651 H641 0.930 . S
C651 C650 1.400 . S
C651 C654 1.386 . S
H652 C668 0.930 . S
H653 C669 0.931 . S
C654 H642 0.929 . S
C654 C648 1.390 . S
C654 C651 1.386 . S
C655 C650 1.490 . S
C655 C657 1.395 . S
C655 C658 1.403 . S
H656 C662 0.930 . S
C657 H643 0.930 . S
C657 C655 1.395 . S
C657 C660 1.403 . S
C658 C655 1.403 . S
C658 C659 1.524 . S
C658 C662 1.400 . S
C659 H644 0.960 . S
C659 H645 0.960 . S
C659 H646 0.960 . S
C659 C658 1.524 . S
C660 C657 1.403 . S
C660 C661 1.392 . S
C660 C664 1.495 . S
C661 C660 1.392 . S
C661 C662 1.385 . S
C661 C663 1.478 . S
C662 H656 0.930 . S
C662 C658 1.400 . S
C662 C661 1.385 . S
C663 C661 1.478 . S
C663 C665 1.381 . S
C663 C669 1.383 . S
C664 C660 1.495 . S
C664 H670 0.959 . S
C664 H671 0.961 . S
C664 H672 0.960 . S
C665 C663 1.381 . S
C665 C666 1.394 . S
C665 H673 0.930 . S
C666 C665 1.394 . S
C666 C667 1.383 . S
C666 H674 0.929 . S
C667 C666 1.383 . S
C667 C668 1.377 . S
C668 H652 0.930 . S
C668 C667 1.377 . S
C668 C669 1.379 . S
C669 H653 0.931 . S
C669 C663 1.383 . S
C669 C668 1.379 . S
H670 C664 0.959 . S
H671 C664 0.961 . S
H672 C664 0.960 . S
H673 C665 0.930 . S
H674 C666 0.929 . S
H675 C683 0.929 . S
H676 C685 0.930 . S
H677 C687 0.930 . S
H678 C690 0.929 . S
H679 C693 0.930 . S
H680 C695 0.960 . S
H681 C695 0.960 . S
H682 C695 0.960 . S
C683 H675 0.929 . S
C683 C684 1.377 . S
C683 C685 1.384 . S
C684 C683 1.377 . S
C684 C690 1.390 . S
C685 H676 0.930 . S
C685 C683 1.384 . S
C685 C686 1.372 . S
C686 C685 1.372 . S
C686 C687 1.400 . S
C686 C691 1.490 . S
C687 H677 0.930 . S
C687 C686 1.400 . S
C687 C690 1.386 . S
H688 C704 0.930 . S
H689 C705 0.931 . S
C690 H678 0.929 . S
C690 C684 1.390 . S
C690 C687 1.386 . S
C691 C686 1.490 . S
C691 C693 1.395 . S
C691 C694 1.403 . S
H692 C698 0.930 . S
C693 H679 0.930 . S
C693 C691 1.395 . S
C693 C696 1.403 . S
C694 C691 1.403 . S
C694 C695 1.524 . S
C694 C698 1.400 . S
C695 H680 0.960 . S
C695 H681 0.960 . S
C695 H682 0.960 . S
C695 C694 1.524 . S
C696 C693 1.403 . S
C696 C697 1.392 . S
C696 C700 1.495 . S
C697 C696 1.392 . S
C697 C698 1.385 . S
C697 C699 1.478 . S
C698 H692 0.930 . S
C698 C694 1.400 . S
C698 C697 1.385 . S
C699 C697 1.478 . S
C699 C701 1.381 . S
C699 C705 1.383 . S
C700 C696 1.495 . S
C700 H706 0.959 . S
C700 H707 0.961 . S
C700 H708 0.960 . S
C701 C699 1.381 . S
C701 C702 1.394 . S
C701 H709 0.930 . S
C702 C701 1.394 . S
C702 C703 1.383 . S
C702 H710 0.929 . S
C703 C702 1.383 . S
C703 C704 1.377 . S
C704 H688 0.930 . S
C704 C703 1.377 . S
C704 C705 1.379 . S
C705 H689 0.931 . S
C705 C699 1.383 . S
C705 C704 1.379 . S
H706 C700 0.959 . S
H707 C700 0.961 . S
H708 C700 0.960 . S
H709 C701 0.930 . S
H710 C702 0.929 . S
H711 C719 0.929 . S
H712 C721 0.930 . S
H713 C723 0.930 . S
H714 C726 0.929 . S
H715 C729 0.930 . S
H716 C731 0.960 . S
H717 C731 0.960 . S
H718 C731 0.960 . S
C719 H711 0.929 . S
C719 C720 1.377 . S
C719 C721 1.384 . S
C720 C719 1.377 . S
C720 C726 1.390 . S
C721 H712 0.930 . S
C721 C719 1.384 . S
C721 C722 1.372 . S
C722 C721 1.372 . S
C722 C723 1.400 . S
C722 C727 1.490 . S
C723 H713 0.930 . S
C723 C722 1.400 . S
C723 C726 1.386 . S
H724 C740 0.930 . S
H725 C741 0.931 . S
C726 H714 0.929 . S
C726 C720 1.390 . S
C726 C723 1.386 . S
C727 C722 1.490 . S
C727 C729 1.395 . S
C727 C730 1.403 . S
H728 C734 0.930 . S
C729 H715 0.930 . S
C729 C727 1.395 . S
C729 C732 1.403 . S
C730 C727 1.403 . S
C730 C731 1.524 . S
C730 C734 1.400 . S
C731 H716 0.960 . S
C731 H717 0.960 . S
C731 H718 0.960 . S
C731 C730 1.524 . S
C732 C729 1.403 . S
C732 C733 1.392 . S
C732 C736 1.495 . S
C733 C732 1.392 . S
C733 C734 1.385 . S
C733 C735 1.478 . S
C734 H728 0.930 . S
C734 C730 1.400 . S
C734 C733 1.385 . S
C735 C733 1.478 . S
C735 C737 1.381 . S
C735 C741 1.383 . S
C736 C732 1.495 . S
C736 H742 0.959 . S
C736 H743 0.961 . S
C736 H744 0.960 . S
C737 C735 1.381 . S
C737 C738 1.394 . S
C737 H745 0.930 . S
C738 C737 1.394 . S
C738 C739 1.383 . S
C738 H746 0.929 . S
C739 C738 1.383 . S
C739 C740 1.377 . S
C740 H724 0.930 . S
C740 C739 1.377 . S
C740 C741 1.379 . S
C741 H725 0.931 . S
C741 C735 1.383 . S
C741 C740 1.379 . S
H742 C736 0.959 . S
H743 C736 0.961 . S
H744 C736 0.960 . S
H745 C737 0.930 . S
H746 C738 0.929 . S
H747 C755 0.929 . S
H748 C757 0.930 . S
H749 C759 0.930 . S
H750 C762 0.929 . S
H751 C765 0.930 . S
H752 C767 0.960 . S
H753 C767 0.960 . S
H754 C767 0.960 . S
C755 H747 0.929 . S
C755 C756 1.377 . S
C755 C757 1.384 . S
C756 C755 1.377 . S
C756 C762 1.390 . S
C757 H748 0.930 . S
C757 C755 1.384 . S
C757 C758 1.372 . S
C758 C757 1.372 . S
C758 C759 1.400 . S
C758 C763 1.490 . S
C759 H749 0.930 . S
C759 C758 1.400 . S
C759 C762 1.386 . S
H760 C776 0.930 . S
H761 C777 0.931 . S
C762 H750 0.929 . S
C762 C756 1.390 . S
C762 C759 1.386 . S
C763 C758 1.490 . S
C763 C765 1.395 . S
C763 C766 1.403 . S
H764 C770 0.930 . S
C765 H751 0.930 . S
C765 C763 1.395 . S
C765 C768 1.403 . S
C766 C763 1.403 . S
C766 C767 1.524 . S
C766 C770 1.400 . S
C767 H752 0.960 . S
C767 H753 0.960 . S
C767 H754 0.960 . S
C767 C766 1.524 . S
C768 C765 1.403 . S
C768 C769 1.392 . S
C768 C772 1.495 . S
C769 C768 1.392 . S
C769 C770 1.385 . S
C769 C771 1.478 . S
C770 H764 0.930 . S
C770 C766 1.400 . S
C770 C769 1.385 . S
C771 C769 1.478 . S
C771 C773 1.381 . S
C771 C777 1.383 . S
C772 C768 1.495 . S
C772 H778 0.959 . S
C772 H779 0.961 . S
C772 H780 0.960 . S
C773 C771 1.381 . S
C773 C774 1.394 . S
C773 H781 0.930 . S
C774 C773 1.394 . S
C774 C775 1.383 . S
C774 H782 0.929 . S
C775 C774 1.383 . S
C775 C776 1.377 . S
C776 H760 0.930 . S
C776 C775 1.377 . S
C776 C777 1.379 . S
C777 H761 0.931 . S
C777 C771 1.383 . S
C777 C776 1.379 . S
H778 C772 0.959 . S
H779 C772 0.961 . S
H780 C772 0.960 . S
H781 C773 0.930 . S
H782 C774 0.929 . S
H783 C791 0.929 . S
H784 C793 0.930 . S
H785 C795 0.930 . S
H786 C798 0.929 . S
H787 C801 0.930 . S
H788 C803 0.960 . S
H789 C803 0.960 . S
H790 C803 0.960 . S
C791 H783 0.929 . S
C791 C792 1.377 . S
C791 C793 1.384 . S
C792 C791 1.377 . S
C792 C798 1.390 . S
C793 H784 0.930 . S
C793 C791 1.384 . S
C793 C794 1.372 . S
C794 C793 1.372 . S
C794 C795 1.400 . S
C794 C799 1.490 . S
C795 H785 0.930 . S
C795 C794 1.400 . S
C795 C798 1.386 . S
H796 C812 0.930 . S
H797 C813 0.931 . S
C798 H786 0.929 . S
C798 C792 1.390 . S
C798 C795 1.386 . S
C799 C794 1.490 . S
C799 C801 1.395 . S
C799 C802 1.403 . S
H800 C806 0.930 . S
C801 H787 0.930 . S
C801 C799 1.395 . S
C801 C804 1.403 . S
C802 C799 1.403 . S
C802 C803 1.524 . S
C802 C806 1.400 . S
C803 H788 0.960 . S
C803 H789 0.960 . S
C803 H790 0.960 . S
C803 C802 1.524 . S
C804 C801 1.403 . S
C804 C805 1.392 . S
C804 C808 1.495 . S
C805 C804 1.392 . S
C805 C806 1.385 . S
C805 C807 1.478 . S
C806 H800 0.930 . S
C806 C802 1.400 . S
C806 C805 1.385 . S
C807 C805 1.478 . S
C807 C809 1.381 . S
C807 C813 1.383 . S
C808 C804 1.495 . S
C808 H814 0.959 . S
C808 H815 0.961 . S
C808 H816 0.960 . S
C809 C807 1.381 . S
C809 C810 1.394 . S
C809 H817 0.930 . S
C810 C809 1.394 . S
C810 C811 1.383 . S
C810 H818 0.929 . S
C811 C810 1.383 . S
C811 C812 1.377 . S
C812 H796 0.930 . S
C812 C811 1.377 . S
C812 C813 1.379 . S
C813 H797 0.931 . S
C813 C807 1.383 . S
C813 C812 1.379 . S
H814 C808 0.959 . S
H815 C808 0.961 . S
H816 C808 0.960 . S
H817 C809 0.930 . S
H818 C810 0.929 . S
H819 C827 0.929 . S
H820 C829 0.930 . S
H821 C831 0.930 . S
H822 C834 0.929 . S
H823 C837 0.930 . S
H824 C839 0.960 . S
H825 C839 0.960 . S
H826 C839 0.960 . S
C827 H819 0.929 . S
C827 C828 1.377 . S
C827 C829 1.384 . S
C828 C827 1.377 . S
C828 C834 1.390 . S
C829 H820 0.930 . S
C829 C827 1.384 . S
C829 C830 1.372 . S
C830 C829 1.372 . S
C830 C831 1.400 . S
C830 C835 1.490 . S
C831 H821 0.930 . S
C831 C830 1.400 . S
C831 C834 1.386 . S
H832 C848 0.930 . S
H833 C849 0.931 . S
C834 H822 0.929 . S
C834 C828 1.390 . S
C834 C831 1.386 . S
C835 C830 1.490 . S
C835 C837 1.395 . S
C835 C838 1.403 . S
H836 C842 0.930 . S
C837 H823 0.930 . S
C837 C835 1.395 . S
C837 C840 1.403 . S
C838 C835 1.403 . S
C838 C839 1.524 . S
C838 C842 1.400 . S
C839 H824 0.960 . S
C839 H825 0.960 . S
C839 H826 0.960 . S
C839 C838 1.524 . S
C840 C837 1.403 . S
C840 C841 1.392 . S
C840 C844 1.495 . S
C841 C840 1.392 . S
C841 C842 1.385 . S
C841 C843 1.478 . S
C842 H836 0.930 . S
C842 C838 1.400 . S
C842 C841 1.385 . S
C843 C841 1.478 . S
C843 C845 1.381 . S
C843 C849 1.383 . S
C844 C840 1.495 . S
C844 H850 0.959 . S
C844 H851 0.961 . S
C844 H852 0.960 . S
C845 C843 1.381 . S
C845 C846 1.394 . S
C845 H853 0.930 . S
C846 C845 1.394 . S
C846 C847 1.383 . S
C846 H854 0.929 . S
C847 C846 1.383 . S
C847 C848 1.377 . S
C848 H832 0.930 . S
C848 C847 1.377 . S
C848 C849 1.379 . S
C849 H833 0.931 . S
C849 C843 1.383 . S
C849 C848 1.379 . S
H850 C844 0.959 . S
H851 C844 0.961 . S
H852 C844 0.960 . S
H853 C845 0.930 . S
H854 C846 0.929 . S
H855 C863 0.929 . S
H856 C865 0.930 . S
H857 C867 0.930 . S
H858 C870 0.929 . S
H859 C873 0.930 . S
H860 C875 0.960 . S
H861 C875 0.960 . S
H862 C875 0.960 . S
C863 H855 0.929 . S
C863 C864 1.377 . S
C863 C865 1.384 . S
C864 C863 1.377 . S
C864 C870 1.390 . S
C865 H856 0.930 . S
C865 C863 1.384 . S
C865 C866 1.372 . S
C866 C865 1.372 . S
C866 C867 1.400 . S
C866 C871 1.490 . S
C867 H857 0.930 . S
C867 C866 1.400 . S
C867 C870 1.386 . S
H868 C884 0.930 . S
H869 C885 0.931 . S
C870 H858 0.929 . S
C870 C864 1.390 . S
C870 C867 1.386 . S
C871 C866 1.490 . S
C871 C873 1.395 . S
C871 C874 1.403 . S
H872 C878 0.930 . S
C873 H859 0.930 . S
C873 C871 1.395 . S
C873 C876 1.403 . S
C874 C871 1.403 . S
C874 C875 1.524 . S
C874 C878 1.400 . S
C875 H860 0.960 . S
C875 H861 0.960 . S
C875 H862 0.960 . S
C875 C874 1.524 . S
C876 C873 1.403 . S
C876 C877 1.392 . S
C876 C880 1.495 . S
C877 C876 1.392 . S
C877 C878 1.385 . S
C877 C879 1.478 . S
C878 H872 0.930 . S
C878 C874 1.400 . S
C878 C877 1.385 . S
C879 C877 1.478 . S
C879 C881 1.381 . S
C879 C885 1.383 . S
C880 C876 1.495 . S
C880 H886 0.959 . S
C880 H887 0.961 . S
C880 H888 0.960 . S
C881 C879 1.381 . S
C881 C882 1.394 . S
C881 H889 0.930 . S
C882 C881 1.394 . S
C882 C883 1.383 . S
C882 H890 0.929 . S
C883 C882 1.383 . S
C883 C884 1.377 . S
C884 H868 0.930 . S
C884 C883 1.377 . S
C884 C885 1.379 . S
C885 H869 0.931 . S
C885 C879 1.383 . S
C885 C884 1.379 . S
H886 C880 0.959 . S
H887 C880 0.961 . S
H888 C880 0.960 . S
H889 C881 0.930 . S
H890 C882 0.929 . S
H891 C899 0.929 . S
H892 C901 0.930 . S
H893 C903 0.930 . S
H894 C906 0.929 . S
H895 C909 0.930 . S
H896 C911 0.960 . S
H897 C911 0.960 . S
H898 C911 0.960 . S
C899 H891 0.929 . S
C899 C900 1.377 . S
C899 C901 1.384 . S
C900 C899 1.377 . S
C900 C906 1.390 . S
C901 H892 0.930 . S
C901 C899 1.384 . S
C901 C902 1.372 . S
C902 C901 1.372 . S
C902 C903 1.400 . S
C902 C907 1.490 . S
C903 H893 0.930 . S
C903 C902 1.400 . S
C903 C906 1.386 . S
H904 C920 0.930 . S
H905 C921 0.931 . S
C906 H894 0.929 . S
C906 C900 1.390 . S
C906 C903 1.386 . S
C907 C902 1.490 . S
C907 C909 1.395 . S
C907 C910 1.403 . S
H908 C914 0.930 . S
C909 H895 0.930 . S
C909 C907 1.395 . S
C909 C912 1.403 . S
C910 C907 1.403 . S
C910 C911 1.524 . S
C910 C914 1.400 . S
C911 H896 0.960 . S
C911 H897 0.960 . S
C911 H898 0.960 . S
C911 C910 1.524 . S
C912 C909 1.403 . S
C912 C913 1.392 . S
C912 C916 1.495 . S
C913 C912 1.392 . S
C913 C914 1.385 . S
C913 C915 1.478 . S
C914 H908 0.930 . S
C914 C910 1.400 . S
C914 C913 1.385 . S
C915 C913 1.478 . S
C915 C917 1.381 . S
C915 C921 1.383 . S
C916 C912 1.495 . S
C916 H922 0.959 . S
C916 H923 0.961 . S
C916 H924 0.960 . S
C917 C915 1.381 . S
C917 C918 1.394 . S
C917 H925 0.930 . S
C918 C917 1.394 . S
C918 C919 1.383 . S
C918 H926 0.929 . S
C919 C918 1.383 . S
C919 C920 1.377 . S
C920 H904 0.930 . S
C920 C919 1.377 . S
C920 C921 1.379 . S
C921 H905 0.931 . S
C921 C915 1.383 . S
C921 C920 1.379 . S
H922 C916 0.959 . S
H923 C916 0.961 . S
H924 C916 0.960 . S
H925 C917 0.930 . S
H926 C918 0.929 . S
H927 C935 0.929 . S
H928 C937 0.930 . S
H929 C939 0.930 . S
H930 C942 0.929 . S
H931 C945 0.930 . S
H932 C947 0.960 . S
H933 C947 0.960 . S
H934 C947 0.960 . S
C935 H927 0.929 . S
C935 C936 1.377 . S
C935 C937 1.384 . S
C936 C935 1.377 . S
C936 C942 1.390 . S
C937 H928 0.930 . S
C937 C935 1.384 . S
C937 C938 1.372 . S
C938 C937 1.372 . S
C938 C939 1.400 . S
C938 C943 1.490 . S
C939 H929 0.930 . S
C939 C938 1.400 . S
C939 C942 1.386 . S
H940 C956 0.930 . S
H941 C957 0.931 . S
C942 H930 0.929 . S
C942 C936 1.390 . S
C942 C939 1.386 . S
C943 C938 1.490 . S
C943 C945 1.395 . S
C943 C946 1.403 . S
H944 C950 0.930 . S
C945 H931 0.930 . S
C945 C943 1.395 . S
C945 C948 1.403 . S
C946 C943 1.403 . S
C946 C947 1.524 . S
C946 C950 1.400 . S
C947 H932 0.960 . S
C947 H933 0.960 . S
C947 H934 0.960 . S
C947 C946 1.524 . S
C948 C945 1.403 . S
C948 C949 1.392 . S
C948 C952 1.495 . S
C949 C948 1.392 . S
C949 C950 1.385 . S
C949 C951 1.478 . S
C950 H944 0.930 . S
C950 C946 1.400 . S
C950 C949 1.385 . S
C951 C949 1.478 . S
C951 C953 1.381 . S
C951 C957 1.383 . S
C952 C948 1.495 . S
C952 H958 0.959 . S
C952 H959 0.961 . S
C952 H960 0.960 . S
C953 C951 1.381 . S
C953 C954 1.394 . S
C953 H961 0.930 . S
C954 C953 1.394 . S
C954 C955 1.383 . S
C954 H962 0.929 . S
C955 C954 1.383 . S
C955 C956 1.377 . S
C956 H940 0.930 . S
C956 C955 1.377 . S
C956 C957 1.379 . S
C957 H941 0.931 . S
C957 C951 1.383 . S
C957 C956 1.379 . S
H958 C952 0.959 . S
H959 C952 0.961 . S
H960 C952 0.960 . S
H961 C953 0.930 . S
H962 C954 0.929 . S
H963 C971 0.929 . S
H964 C973 0.930 . S
H965 C975 0.930 . S
H966 C978 0.929 . S
H967 C981 0.930 . S
H968 C983 0.960 . S
H969 C983 0.960 . S
H970 C983 0.960 . S
C971 H963 0.929 . S
C971 C972 1.377 . S
C971 C973 1.384 . S
C972 C971 1.377 . S
C972 C978 1.390 . S
C973 H964 0.930 . S
C973 C971 1.384 . S
C973 C974 1.372 . S
C974 C973 1.372 . S
C974 C975 1.400 . S
C974 C979 1.490 . S
C975 H965 0.930 . S
C975 C974 1.400 . S
C975 C978 1.386 . S
H976 C992 0.930 . S
H977 C993 0.931 . S
C978 H966 0.929 . S
C978 C972 1.390 . S
C978 C975 1.386 . S
C979 C974 1.490 . S
C979 C981 1.395 . S
C979 C982 1.403 . S
H980 C986 0.930 . S
C981 H967 0.930 . S
C981 C979 1.395 . S
C981 C984 1.403 . S
C982 C979 1.403 . S
C982 C983 1.524 . S
C982 C986 1.400 . S
C983 H968 0.960 . S
C983 H969 0.960 . S
C983 H970 0.960 . S
C983 C982 1.524 . S
C984 C981 1.403 . S
C984 C985 1.392 . S
C984 C988 1.495 . S
C985 C984 1.392 . S
C985 C986 1.385 . S
C985 C987 1.478 . S
C986 H980 0.930 . S
C986 C982 1.400 . S
C986 C985 1.385 . S
C987 C985 1.478 . S
C987 C989 1.381 . S
C987 C993 1.383 . S
C988 C984 1.495 . S
C988 H994 0.959 . S
C988 H995 0.961 . S
C988 H996 0.960 . S
C989 C987 1.381 . S
C989 C990 1.394 . S
C989 H997 0.930 . S
C990 C989 1.394 . S
C990 C991 1.383 . S
C990 H998 0.929 . S
C991 C990 1.383 . S
C991 C992 1.377 . S
C992 H976 0.930 . S
C992 C991 1.377 . S
C992 C993 1.379 . S
C993 H977 0.931 . S
C993 C987 1.383 . S
C993 C992 1.379 . S
H994 C988 0.959 . S
H995 C988 0.961 . S
H996 C988 0.960 . S
H997 C989 0.930 . S
H998 C990 0.929 . S
H999 C1007 0.929 . S
H1000 C1009 0.930 . S
H1001 C1011 0.930 . S
H1002 C1014 0.929 . S
H1003 C1017 0.930 . S
H1004 C1019 0.960 . S
H1005 C1019 0.960 . S
H1006 C1019 0.960 . S
C1007 H999 0.929 . S
C1007 C1008 1.377 . S
C1007 C1009 1.384 . S
C1008 C1007 1.377 . S
C1008 C1014 1.390 . S
C1009 H1000 0.930 . S
C1009 C1007 1.384 . S
C1009 C1010 1.372 . S
C1010 C1009 1.372 . S
C1010 C1011 1.400 . S
C1010 C1015 1.490 . S
C1011 H1001 0.930 . S
C1011 C1010 1.400 . S
C1011 C1014 1.386 . S
H1012 C1028 0.930 . S
H1013 C1029 0.931 . S
C1014 H1002 0.929 . S
C1014 C1008 1.390 . S
C1014 C1011 1.386 . S
C1015 C1010 1.490 . S
C1015 C1017 1.395 . S
C1015 C1018 1.403 . S
H1016 C1022 0.930 . S
C1017 H1003 0.930 . S
C1017 C1015 1.395 . S
C1017 C1020 1.403 . S
C1018 C1015 1.403 . S
C1018 C1019 1.524 . S
C1018 C1022 1.400 . S
C1019 H1004 0.960 . S
C1019 H1005 0.960 . S
C1019 H1006 0.960 . S
C1019 C1018 1.524 . S
C1020 C1017 1.403 . S
C1020 C1021 1.392 . S
C1020 C1024 1.495 . S
C1021 C1020 1.392 . S
C1021 C1022 1.385 . S
C1021 C1023 1.478 . S
C1022 H1016 0.930 . S
C1022 C1018 1.400 . S
C1022 C1021 1.385 . S
C1023 C1021 1.478 . S
C1023 C1025 1.381 . S
C1023 C1029 1.383 . S
C1024 C1020 1.495 . S
C1024 H1030 0.959 . S
C1024 H1031 0.961 . S
C1024 H1032 0.960 . S
C1025 C1023 1.381 . S
C1025 C1026 1.394 . S
C1025 H1033 0.930 . S
C1026 C1025 1.394 . S
C1026 C1027 1.383 . S
C1026 H1034 0.929 . S
C1027 C1026 1.383 . S
C1027 C1028 1.377 . S
C1028 H1012 0.930 . S
C1028 C1027 1.377 . S
C1028 C1029 1.379 . S
C1029 H1013 0.931 . S
C1029 C1023 1.383 . S
C1029 C1028 1.379 . S
H1030 C1024 0.959 . S
H1031 C1024 0.961 . S
H1032 C1024 0.960 . S
H1033 C1025 0.930 . S
H1034 C1026 0.929 . S
H1035 C1043 0.929 . S
H1036 C1045 0.930 . S
H1037 C1047 0.930 . S
H1038 C1050 0.929 . S
H1039 C1053 0.930 . S
H1040 C1055 0.960 . S
H1041 C1055 0.960 . S
H1042 C1055 0.960 . S
C1043 H1035 0.929 . S
C1043 C1044 1.377 . S
C1043 C1045 1.384 . S
C1044 C1043 1.377 . S
C1044 C1050 1.390 . S
C1045 H1036 0.930 . S
C1045 C1043 1.384 . S
C1045 C1046 1.372 . S
C1046 C1045 1.372 . S
C1046 C1047 1.400 . S
C1046 C1051 1.490 . S
C1047 H1037 0.930 . S
C1047 C1046 1.400 . S
C1047 C1050 1.386 . S
H1048 C1064 0.930 . S
H1049 C1065 0.931 . S
C1050 H1038 0.929 . S
C1050 C1044 1.390 . S
C1050 C1047 1.386 . S
C1051 C1046 1.490 . S
C1051 C1053 1.395 . S
C1051 C1054 1.403 . S
H1052 C1058 0.930 . S
C1053 H1039 0.930 . S
C1053 C1051 1.395 . S
C1053 C1056 1.403 . S
C1054 C1051 1.403 . S
C1054 C1055 1.524 . S
C1054 C1058 1.400 . S
C1055 H1040 0.960 . S
C1055 H1041 0.960 . S
C1055 H1042 0.960 . S
C1055 C1054 1.524 . S
C1056 C1053 1.403 . S
C1056 C1057 1.392 . S
C1056 C1060 1.495 . S
C1057 C1056 1.392 . S
C1057 C1058 1.385 . S
C1057 C1059 1.478 . S
C1058 H1052 0.930 . S
C1058 C1054 1.400 . S
C1058 C1057 1.385 . S
C1059 C1057 1.478 . S
C1059 C1061 1.381 . S
C1059 C1065 1.383 . S
C1060 C1056 1.495 . S
C1060 H1066 0.959 . S
C1060 H1067 0.961 . S
C1060 H1068 0.960 . S
C1061 C1059 1.381 . S
C1061 C1062 1.394 . S
C1061 H1069 0.930 . S
C1062 C1061 1.394 . S
C1062 C1063 1.383 . S
C1062 H1070 0.929 . S
C1063 C1062 1.383 . S
C1063 C1064 1.377 . S
C1064 H1048 0.930 . S
C1064 C1063 1.377 . S
C1064 C1065 1.379 . S
C1065 H1049 0.931 . S
C1065 C1059 1.383 . S
C1065 C1064 1.379 . S
H1066 C1060 0.959 . S
H1067 C1060 0.961 . S
H1068 C1060 0.960 . S
H1069 C1061 0.930 . S
H1070 C1062 0.929 . S
H1071 C1079 0.929 . S
H1072 C1081 0.930 . S
H1073 C1083 0.930 . S
H1074 C1086 0.929 . S
H1075 C1089 0.930 . S
H1076 C1091 0.960 . S
H1077 C1091 0.960 . S
H1078 C1091 0.960 . S
C1079 H1071 0.929 . S
C1079 C1080 1.377 . S
C1079 C1081 1.384 . S
C1080 C1079 1.377 . S
C1080 C1086 1.390 . S
C1081 H1072 0.930 . S
C1081 C1079 1.384 . S
C1081 C1082 1.372 . S
C1082 C1081 1.372 . S
C1082 C1083 1.400 . S
C1082 C1087 1.490 . S
C1083 H1073 0.930 . S
C1083 C1082 1.400 . S
C1083 C1086 1.386 . S
H1084 C1100 0.930 . S
H1085 C1101 0.931 . S
C1086 H1074 0.929 . S
C1086 C1080 1.390 . S
C1086 C1083 1.386 . S
C1087 C1082 1.490 . S
C1087 C1089 1.395 . S
C1087 C1090 1.403 . S
H1088 C1094 0.930 . S
C1089 H1075 0.930 . S
C1089 C1087 1.395 . S
C1089 C1092 1.403 . S
C1090 C1087 1.403 . S
C1090 C1091 1.524 . S
C1090 C1094 1.400 . S
C1091 H1076 0.960 . S
C1091 H1077 0.960 . S
C1091 H1078 0.960 . S
C1091 C1090 1.524 . S
C1092 C1089 1.403 . S
C1092 C1093 1.392 . S
C1092 C1096 1.495 . S
C1093 C1092 1.392 . S
C1093 C1094 1.385 . S
C1093 C1095 1.478 . S
C1094 H1088 0.930 . S
C1094 C1090 1.400 . S
C1094 C1093 1.385 . S
C1095 C1093 1.478 . S
C1095 C1097 1.381 . S
C1095 C1101 1.383 . S
C1096 C1092 1.495 . S
C1096 H1102 0.959 . S
C1096 H1103 0.961 . S
C1096 H1104 0.960 . S
C1097 C1095 1.381 . S
C1097 C1098 1.394 . S
C1097 H1105 0.930 . S
C1098 C1097 1.394 . S
C1098 C1099 1.383 . S
C1098 H1106 0.929 . S
C1099 C1098 1.383 . S
C1099 C1100 1.377 . S
C1100 H1084 0.930 . S
C1100 C1099 1.377 . S
C1100 C1101 1.379 . S
C1101 H1085 0.931 . S
C1101 C1095 1.383 . S
C1101 C1100 1.379 . S
H1102 C1096 0.959 . S
H1103 C1096 0.961 . S
H1104 C1096 0.960 . S
H1105 C1097 0.930 . S
H1106 C1098 0.929 . S
H1107 C1115 0.929 . S
H1108 C1117 0.930 . S
H1109 C1119 0.930 . S
H1110 C1122 0.929 . S
H1111 C1125 0.930 . S
H1112 C1127 0.960 . S
H1113 C1127 0.960 . S
H1114 C1127 0.960 . S
C1115 H1107 0.929 . S
C1115 C1116 1.377 . S
C1115 C1117 1.384 . S
C1116 C1115 1.377 . S
C1116 C1122 1.390 . S
C1117 H1108 0.930 . S
C1117 C1115 1.384 . S
C1117 C1118 1.372 . S
C1118 C1117 1.372 . S
C1118 C1119 1.400 . S
C1118 C1123 1.490 . S
C1119 H1109 0.930 . S
C1119 C1118 1.400 . S
C1119 C1122 1.386 . S
H1120 C1136 0.930 . S
H1121 C1137 0.931 . S
C1122 H1110 0.929 . S
C1122 C1116 1.390 . S
C1122 C1119 1.386 . S
C1123 C1118 1.490 . S
C1123 C1125 1.395 . S
C1123 C1126 1.403 . S
H1124 C1130 0.930 . S
C1125 H1111 0.930 . S
C1125 C1123 1.395 . S
C1125 C1128 1.403 . S
C1126 C1123 1.403 . S
C1126 C1127 1.524 . S
C1126 C1130 1.400 . S
C1127 H1112 0.960 . S
C1127 H1113 0.960 . S
C1127 H1114 0.960 . S
C1127 C1126 1.524 . S
C1128 C1125 1.403 . S
C1128 C1129 1.392 . S
C1128 C1132 1.495 . S
C1129 C1128 1.392 . S
C1129 C1130 1.385 . S
C1129 C1131 1.478 . S
C1130 H1124 0.930 . S
C1130 C1126 1.400 . S
C1130 C1129 1.385 . S
C1131 C1129 1.478 . S
C1131 C1133 1.381 . S
C1131 C1137 1.383 . S
C1132 C1128 1.495 . S
C1132 H1138 0.959 . S
C1132 H1139 0.961 . S
C1132 H1140 0.960 . S
C1133 C1131 1.381 . S
C1133 C1134 1.394 . S
C1133 H1141 0.930 . S
C1134 C1133 1.394 . S
C1134 C1135 1.383 . S
C1134 H1142 0.929 . S
C1135 C1134 1.383 . S
C1135 C1136 1.377 . S
C1136 H1120 0.930 . S
C1136 C1135 1.377 . S
C1136 C1137 1.379 . S
C1137 H1121 0.931 . S
C1137 C1131 1.383 . S
C1137 C1136 1.379 . S
H1138 C1132 0.959 . S
H1139 C1132 0.961 . S
H1140 C1132 0.960 . S
H1141 C1133 0.930 . S
H1142 C1134 0.929 . S
H1143 C1151 0.929 . S
H1144 C1153 0.930 . S
H1145 C1155 0.930 . S
H1146 C1158 0.929 . S
H1147 C1161 0.930 . S
H1148 C1163 0.960 . S
H1149 C1163 0.960 . S
H1150 C1163 0.960 . S
C1151 H1143 0.929 . S
C1151 C1152 1.377 . S
C1151 C1153 1.384 . S
C1152 C1151 1.377 . S
C1152 C1158 1.390 . S
C1153 H1144 0.930 . S
C1153 C1151 1.384 . S
C1153 C1154 1.372 . S
C1154 C1153 1.372 . S
C1154 C1155 1.400 . S
C1154 C1159 1.490 . S
C1155 H1145 0.930 . S
C1155 C1154 1.400 . S
C1155 C1158 1.386 . S
H1156 C1172 0.930 . S
H1157 C1173 0.931 . S
C1158 H1146 0.929 . S
C1158 C1152 1.390 . S
C1158 C1155 1.386 . S
C1159 C1154 1.490 . S
C1159 C1161 1.395 . S
C1159 C1162 1.403 . S
H1160 C1166 0.930 . S
C1161 H1147 0.930 . S
C1161 C1159 1.395 . S
C1161 C1164 1.403 . S
C1162 C1159 1.403 . S
C1162 C1163 1.524 . S
C1162 C1166 1.400 . S
C1163 H1148 0.960 . S
C1163 H1149 0.960 . S
C1163 H1150 0.960 . S
C1163 C1162 1.524 . S
C1164 C1161 1.403 . S
C1164 C1165 1.392 . S
C1164 C1168 1.495 . S
C1165 C1164 1.392 . S
C1165 C1166 1.385 . S
C1165 C1167 1.478 . S
C1166 H1160 0.930 . S
C1166 C1162 1.400 . S
C1166 C1165 1.385 . S
C1167 C1165 1.478 . S
C1167 C1169 1.381 . S
C1167 C1173 1.383 . S
C1168 C1164 1.495 . S
C1168 H1174 0.959 . S
C1168 H1175 0.961 . S
C1168 H1176 0.960 . S
C1169 C1167 1.381 . S
C1169 C1170 1.394 . S
C1169 H1177 0.930 . S
C1170 C1169 1.394 . S
C1170 C1171 1.383 . S
C1170 H1178 0.929 . S
C1171 C1170 1.383 . S
C1171 C1172 1.377 . S
C1172 H1156 0.930 . S
C1172 C1171 1.377 . S
C1172 C1173 1.379 . S
C1173 H1157 0.931 . S
C1173 C1167 1.383 . S
C1173 C1172 1.379 . S
H1174 C1168 0.959 . S
H1175 C1168 0.961 . S
H1176 C1168 0.960 . S
H1177 C1169 0.930 . S
H1178 C1170 0.929 . S
H1179 C1187 0.929 . S
H1180 C1189 0.930 . S
H1181 C1191 0.930 . S
H1182 C1194 0.929 . S
H1183 C1197 0.930 . S
H1184 C1199 0.960 . S
H1185 C1199 0.960 . S
H1186 C1199 0.960 . S
C1187 H1179 0.929 . S
C1187 C1188 1.377 . S
C1187 C1189 1.384 . S
C1188 C1187 1.377 . S
C1188 C1194 1.390 . S
C1189 H1180 0.930 . S
C1189 C1187 1.384 . S
C1189 C1190 1.372 . S
C1190 C1189 1.372 . S
C1190 C1191 1.400 . S
C1190 C1195 1.490 . S
C1191 H1181 0.930 . S
C1191 C1190 1.400 . S
C1191 C1194 1.386 . S
H1192 C1208 0.930 . S
H1193 C1209 0.931 . S
C1194 H1182 0.929 . S
C1194 C1188 1.390 . S
C1194 C1191 1.386 . S
C1195 C1190 1.490 . S
C1195 C1197 1.395 . S
C1195 C1198 1.403 . S
H1196 C1202 0.930 . S
C1197 H1183 0.930 . S
C1197 C1195 1.395 . S
C1197 C1200 1.403 . S
C1198 C1195 1.403 . S
C1198 C1199 1.524 . S
C1198 C1202 1.400 . S
C1199 H1184 0.960 . S
C1199 H1185 0.960 . S
C1199 H1186 0.960 . S
C1199 C1198 1.524 . S
C1200 C1197 1.403 . S
C1200 C1201 1.392 . S
C1200 C1204 1.495 . S
C1201 C1200 1.392 . S
C1201 C1202 1.385 . S
C1201 C1203 1.478 . S
C1202 H1196 0.930 . S
C1202 C1198 1.400 . S
C1202 C1201 1.385 . S
C1203 C1201 1.478 . S
C1203 C1205 1.381 . S
C1203 C1209 1.383 . S
C1204 C1200 1.495 . S
C1204 H1210 0.959 . S
C1204 H1211 0.961 . S
C1204 H1212 0.960 . S
C1205 C1203 1.381 . S
C1205 C1206 1.394 . S
C1205 H1213 0.930 . S
C1206 C1205 1.394 . S
C1206 C1207 1.383 . S
C1206 H1214 0.929 . S
C1207 C1206 1.383 . S
C1207 C1208 1.377 . S
C1208 H1192 0.930 . S
C1208 C1207 1.377 . S
C1208 C1209 1.379 . S
C1209 H1193 0.931 . S
C1209 C1203 1.383 . S
C1209 C1208 1.379 . S
H1210 C1204 0.959 . S
H1211 C1204 0.961 . S
H1212 C1204 0.960 . S
H1213 C1205 0.930 . S
H1214 C1206 0.929 . S
H1215 C1223 0.929 . S
H1216 C1225 0.930 . S
H1217 C1227 0.930 . S
H1218 C1230 0.929 . S
H1219 C1233 0.930 . S
H1220 C1235 0.960 . S
H1221 C1235 0.960 . S
H1222 C1235 0.960 . S
C1223 H1215 0.929 . S
C1223 C1224 1.377 . S
C1223 C1225 1.384 . S
C1224 C1223 1.377 . S
C1224 C1230 1.390 . S
C1225 H1216 0.930 . S
C1225 C1223 1.384 . S
C1225 C1226 1.372 . S
C1226 C1225 1.372 . S
C1226 C1227 1.400 . S
C1226 C1231 1.490 . S
C1227 H1217 0.930 . S
C1227 C1226 1.400 . S
C1227 C1230 1.386 . S
H1228 C1244 0.930 . S
H1229 C1245 0.931 . S
C1230 H1218 0.929 . S
C1230 C1224 1.390 . S
C1230 C1227 1.386 . S
C1231 C1226 1.490 . S
C1231 C1233 1.395 . S
C1231 C1234 1.403 . S
H1232 C1238 0.930 . S
C1233 H1219 0.930 . S
C1233 C1231 1.395 . S
C1233 C1236 1.403 . S
C1234 C1231 1.403 . S
C1234 C1235 1.524 . S
C1234 C1238 1.400 . S
C1235 H1220 0.960 . S
C1235 H1221 0.960 . S
C1235 H1222 0.960 . S
C1235 C1234 1.524 . S
C1236 C1233 1.403 . S
C1236 C1237 1.392 . S
C1236 C1240 1.495 . S
C1237 C1236 1.392 . S
C1237 C1238 1.385 . S
C1237 C1239 1.478 . S
C1238 H1232 0.930 . S
C1238 C1234 1.400 . S
C1238 C1237 1.385 . S
C1239 C1237 1.478 . S
C1239 C1241 1.381 . S
C1239 C1245 1.383 . S
C1240 C1236 1.495 . S
C1240 H1246 0.959 . S
C1240 H1247 0.961 . S
C1240 H1248 0.960 . S
C1241 C1239 1.381 . S
C1241 C1242 1.394 . S
C1241 H1249 0.930 . S
C1242 C1241 1.394 . S
C1242 C1243 1.383 . S
C1242 H1250 0.929 . S
C1243 C1242 1.383 . S
C1243 C1244 1.377 . S
C1244 H1228 0.930 . S
C1244 C1243 1.377 . S
C1244 C1245 1.379 . S
C1245 H1229 0.931 . S
C1245 C1239 1.383 . S
C1245 C1244 1.379 . S
H1246 C1240 0.959 . S
H1247 C1240 0.961 . S
H1248 C1240 0.960 . S
H1249 C1241 0.930 . S
H1250 C1242 0.929 . S
C415 C312 0.986 . S
C396 C1 1.008 . S
C451 C348 1.675 . S
C432 C37 1.755 . S
C487 C313 1.375 . S
C468 C103 1.406 . S
C523 C343 1.571 . S
C504 C139 1.581 . S
C559 C310 1.408 . S
C540 C145 1.475 . S
C576 C205 1.720 . S
C595 C346 1.716 . S
C612 C247 1.125 . S
C631 C315 1.097 . S
C667 C345 1.392 . S
C648 C283 1.425 . S
C703 C349 1.408 . S
C684 C25 1.420 . S
C739 C314 1.471 . S
C720 C67 1.514 . S
C775 C342 1.693 . S
C756 C97 1.716 . S
C811 C311 0.992 . S
C792 C109 1.118 . S
C847 C344 1.664 . S
C828 C169 1.709 . S
C864 C181 1.401 . S
C883 C309 1.402 . S
C900 C217 1.553 . S
C919 C347 1.491 . S
C955 C316 0.953 . S
C936 C277 0.991 . S
C991 C378 1.772 . S
C972 C31 1.849 . S
C1008 C175 2.002 . S
C1027 C381 1.879 . S
C1063 C380 1.722 . S
C1044 C211 1.777 . S
C1080 C241 2.144 . S
C1099 C379 2.162 . S
C1135 C382 1.708 . S
C1116 C253 1.833 . S
C1152 C73 1.763 . S
C1171 C376 1.687 . S
C1207 C375 2.137 . S
C1188 C133 2.139 . S
C1224 C61 2.032 . S
C1243 C377 1.888 . S
