# Generated by pormake.
# Topology anh, (6,3)-cn, num edge types: 1
# Building blocks:
#     Node 0, Type 0, BuildingBlock: BETDEL_clean_sbu_0, # of connection points: 6
#     Node 1, Type 0, BuildingBlock: BETDEL_clean_sbu_0, # of connection points: 6
#     Node 2, Type 0, BuildingBlock: BETDEL_clean_sbu_0, # of connection points: 6
#     Node 3, Type 1, BuildingBlock: VETTIZ_charged_linker_0, # of connection points: 3
#     Node 4, Type 1, BuildingBlock: VETTIZ_charged_linker_0, # of connection points: 3
#     Node 5, Type 1, BuildingBlock: VETTIZ_charged_linker_0, # of connection points: 3
#     Node 6, Type 1, BuildingBlock: VETTIZ_charged_linker_0, # of connection points: 3
#     Node 7, Type 1, BuildingBlock: VETTIZ_charged_linker_0, # of connection points: 3
#     Node 8, Type 1, BuildingBlock: VETTIZ_charged_linker_0, # of connection points: 3
#     Edge 9, Type (0, 1), BuildingBlock: KIFKEQ_clean_linker_1, # of connection points: 2
#     Edge 10, Type (0, 1), BuildingBlock: KIFKEQ_clean_linker_1, # of connection points: 2
#     Edge 11, Type (0, 1), BuildingBlock: KIFKEQ_clean_linker_1, # of connection points: 2
#     Edge 12, Type (0, 1), BuildingBlock: KIFKEQ_clean_linker_1, # of connection points: 2
#     Edge 13, Type (0, 1), BuildingBlock: KIFKEQ_clean_linker_1, # of connection points: 2
#     Edge 14, Type (0, 1), BuildingBlock: KIFKEQ_clean_linker_1, # of connection points: 2
#     Edge 15, Type (0, 1), BuildingBlock: KIFKEQ_clean_linker_1, # of connection points: 2
#     Edge 16, Type (0, 1), BuildingBlock: KIFKEQ_clean_linker_1, # of connection points: 2
#     Edge 17, Type (0, 1), BuildingBlock: KIFKEQ_clean_linker_1, # of connection points: 2
#     Edge 18, Type (0, 1), BuildingBlock: KIFKEQ_clean_linker_1, # of connection points: 2
#     Edge 19, Type (0, 1), BuildingBlock: KIFKEQ_clean_linker_1, # of connection points: 2
#     Edge 20, Type (0, 1), BuildingBlock: KIFKEQ_clean_linker_1, # of connection points: 2
#     Edge 21, Type (0, 1), BuildingBlock: KIFKEQ_clean_linker_1, # of connection points: 2
#     Edge 22, Type (0, 1), BuildingBlock: KIFKEQ_clean_linker_1, # of connection points: 2
#     Edge 23, Type (0, 1), BuildingBlock: KIFKEQ_clean_linker_1, # of connection points: 2
#     Edge 24, Type (0, 1), BuildingBlock: KIFKEQ_clean_linker_1, # of connection points: 2
#     Edge 25, Type (0, 1), BuildingBlock: KIFKEQ_clean_linker_1, # of connection points: 2
#     Edge 26, Type (0, 1), BuildingBlock: KIFKEQ_clean_linker_1, # of connection points: 2
# Relax obj value: 0.144
# Max RMSD: 0.167
# Mean RMSD: 0.135
data_MOF--net-anh--node1-BETDEL_clean_sbu_0--node2-VETTIZ_charged_linker_0--edge1-KIFKEQ_clean_linker_1
_symmetry_space_group_name_H-M    P1
_symmetry_Int_Tables_number       1
_symmetry_cell_setting            triclinic
loop_
_symmetry_equiv_pos_as_xyz
'x, y, z'
_cell_length_a     36.246282
_cell_length_b     36.278695
_cell_length_c     65.699992
_cell_angle_alpha  90.078339
_cell_angle_beta   89.912841
_cell_angle_gamma 119.91048
loop_
_atom_site_label
_atom_site_type_symbol
_atom_site_fract_x
_atom_site_fract_y
_atom_site_fract_z
_atom_type_partial_charge
Dy0 Dy 0.0547 0.48913 0.16343 0.0
C1 C 0.95088 0.56227 0.17715 0.0
C2 C 0.11129 0.46186 0.15561 0.0
Dy3 Dy 1.00647 0.53522 0.16649 0.0
O4 O 0.10005 0.46764 0.17351 0.0
O5 O 0.09099 0.47029 0.14176 0.0
O6 O 0.02923 0.46018 0.19396 0.0
O7 O 0.04396 0.52312 0.18806 0.0
C8 C 0.0287 0.49341 0.2009 0.0
C9 C 0.03217 0.53226 0.12859 0.0
O10 O 0.07134 0.59075 0.174 0.0
O11 O 0.10792 0.55871 0.16134 0.0
O12 O 0.97418 0.57342 0.16084 0.0
O13 O 0.9584 0.53671 0.18786 0.0
O14 O 0.02961 0.56407 0.13597 0.0
O15 O 0.01765 0.50191 0.14122 0.0
O16 O 0.9895 0.43139 0.15871 0.0
O17 O 0.9526 0.46608 0.16723 0.0
C18 C 0.10762 0.59326 0.16805 0.0
C19 C 0.95308 0.4304 0.16295 0.0
Dy20 Dy 0.48122 0.03437 0.49873 0.0
C21 C 0.65856 0.13714 0.51106 0.0
C22 C 0.39673 0.97758 0.49284 0.0
Dy23 Dy 0.57539 0.08111 0.5016 0.0
O24 O 0.41587 0.98853 0.51025 0.0
O25 O 0.42372 0.99826 0.47834 0.0
O26 O 0.47834 0.06438 0.52788 0.0
O27 O 0.52574 0.0474 0.52386 0.0
C28 C 0.51157 0.06506 0.53558 0.0
C29 C 0.54641 0.05312 0.46395 0.0
O30 O 0.565 0.01651 0.5106 0.0
O31 O 0.49719 0.98081 0.49722 0.0
O32 O 0.6456 0.11213 0.49536 0.0
O33 O 0.62601 0.13095 0.5219 0.0
O34 O 0.58025 0.05508 0.47163 0.0
O35 O 0.5311 0.06897 0.47617 0.0
O36 O 0.48947 0.09952 0.49256 0.0
O37 O 0.56112 0.13568 0.50082 0.0
C38 C 0.53123 0.98046 0.5046 0.0
C39 C 0.52534 0.13577 0.49628 0.0
Dy40 Dy 0.59444 0.60156 0.8301 0.0
C41 C 0.5236 0.42426 0.85355 0.0
C42 C 0.61615 0.68317 0.82084 0.0
Dy43 Dy 0.54726 0.50151 0.83655 0.0
O44 O 0.60606 0.66615 0.83879 0.0
O45 O 0.61541 0.65574 0.80777 0.0
O46 O 0.6254 0.6085 0.8605 0.0
O47 O 0.56383 0.55712 0.85502 0.0
C48 C 0.59397 0.57341 0.8676 0.0
C49 C 0.55738 0.5206 0.7965 0.0
O50 O 0.49112 0.5122 0.84092 0.0
O51 O 0.524 0.58215 0.82903 0.0
O52 O 0.50189 0.43125 0.83985 0.0
O53 O 0.55726 0.45988 0.85848 0.0
O54 O 0.53915 0.48197 0.80344 0.0
O55 O 0.56892 0.54549 0.81144 0.0
O56 O 0.6501 0.59067 0.82417 0.0
O57 O 0.61776 0.52205 0.83769 0.0
C58 C 0.48937 0.54668 0.83528 0.0
C59 C 0.6521 0.55681 0.83071 0.0
C60 C 0.63881 0.11879 0.17955 0.0
C61 C 0.67405 0.15401 0.18932 0.0
C62 C 0.67302 0.15702 0.21058 0.0
C63 C 0.60435 0.0921 0.21249 0.0
C64 C 0.60415 0.08779 0.19157 0.0
C65 C 0.56374 0.047 0.18488 0.0
H66 H 0.37499 0.87036 0.21777 0.0
C67 C 0.56509 0.05599 0.22112 0.0
C68 C 0.54031 0.02852 0.20519 0.0
H69 H 0.41534 0.89645 0.15511 0.0
H70 H 0.48064 0.96145 0.16573 0.0
H71 H 0.46231 0.89172 0.23567 0.0
H72 H 0.39657 0.96167 0.22873 0.0
H73 H 0.42186 0.97743 0.25241 0.0
H74 H 0.38297 0.92225 0.24814 0.0
H75 H 0.41871 0.88332 0.25171 0.0
H76 H 0.47304 0.92173 0.25803 0.0
C77 C 0.57666 0.01697 0.17462 0.0
C78 C 0.53762 0.05887 0.17065 0.0
C79 C 0.54402 0.05269 0.29801 0.0
C80 C 0.51179 0.0239 0.31117 0.0
C81 C 0.47638 0.988 0.30269 0.0
C82 C 0.47325 0.98074 0.28165 0.0
C83 C 0.50588 0.00958 0.2687 0.0
C84 C 0.54039 0.04484 0.27698 0.0
C85 C 0.57212 0.07181 0.26099 0.0
C86 C 0.55093 0.04694 0.24167 0.0
C87 C 0.51231 0.01064 0.24632 0.0
C88 C 0.61454 0.07252 0.26554 0.0
C89 C 0.57507 0.11601 0.26121 0.0
C90 C 0.39717 0.88987 0.20605 0.0
C91 C 0.38881 0.8779 0.18552 0.0
C92 C 0.42032 0.90446 0.17114 0.0
C93 C 0.4582 0.9423 0.17727 0.0
C94 C 0.4652 0.95386 0.19808 0.0
C95 C 0.43441 0.92704 0.21183 0.0
C96 C 0.44498 0.94212 0.23327 0.0
C97 C 0.48712 0.98254 0.23062 0.0
C98 C 0.50016 0.99054 0.20998 0.0
C99 C 0.44978 0.90807 0.24547 0.0
C100 C 0.40984 0.95114 0.24125 0.0
H101 H 0.64102 0.13202 0.23812 0.0
H102 H 0.63858 0.11529 0.16318 0.0
H103 H 0.53135 0.08281 0.17802 0.0
H104 H 0.50649 0.03095 0.16689 0.0
H105 H 0.55512 0.07263 0.15621 0.0
H106 H 0.59807 0.01157 0.18474 0.0
H107 H 0.59377 0.03082 0.1601 0.0
H108 H 0.54874 0.98558 0.17128 0.0
H109 H 0.57155 0.08084 0.30391 0.0
H110 H 0.45138 0.96484 0.31238 0.0
H111 H 0.44555 0.95259 0.27637 0.0
H112 H 0.6088 0.04302 0.27346 0.0
H113 H 0.63565 0.09983 0.27543 0.0
H114 H 0.63205 0.07339 0.25157 0.0
H115 H 0.54392 0.11313 0.26529 0.0
H116 H 0.58277 0.13165 0.24615 0.0
H117 H 0.59884 0.13757 0.27251 0.0
H118 H 0.69912 0.18334 0.21849 0.0
C119 C 0.63887 0.12684 0.22204 0.0
C120 C 0.53106 0.66635 0.51617 0.0
C121 C 0.53341 0.70195 0.52673 0.0
C122 C 0.53782 0.70348 0.54797 0.0
C123 C 0.53708 0.63609 0.54834 0.0
C124 C 0.53295 0.63349 0.52739 0.0
C125 C 0.53085 0.59244 0.5197 0.0
H126 H 0.53485 0.40889 0.54787 0.0
C127 C 0.53778 0.59802 0.55607 0.0
C128 C 0.5342 0.57147 0.53948 0.0
H129 H 0.52417 0.44222 0.48609 0.0
H130 H 0.52543 0.50717 0.49836 0.0
H131 H 0.60497 0.49806 0.56158 0.0
H132 H 0.46898 0.42965 0.56587 0.0
H133 H 0.48586 0.45824 0.5887 0.0
H134 H 0.50191 0.41966 0.58269 0.0
H135 H 0.5765 0.4555 0.5793 0.0
H136 H 0.59369 0.51002 0.58584 0.0
C137 C 0.5689 0.60411 0.5055 0.0
C138 C 0.4879 0.56474 0.50902 0.0
C139 C 0.54865 0.58426 0.63293 0.0
C140 C 0.54759 0.55187 0.64509 0.0
C141 C 0.54548 0.51605 0.6356 0.0
C142 C 0.54375 0.51205 0.61442 0.0
C143 C 0.54381 0.54406 0.60236 0.0
C144 C 0.54632 0.57941 0.61163 0.0
C145 C 0.54483 0.60947 0.59633 0.0
C146 C 0.54098 0.58625 0.57637 0.0
C147 C 0.54063 0.54821 0.58006 0.0
C148 C 0.58757 0.65209 0.59775 0.0
C149 C 0.50447 0.61276 0.60084 0.0
C150 C 0.53323 0.43003 0.53672 0.0
C151 C 0.53022 0.42017 0.51594 0.0
C152 C 0.52674 0.44868 0.50227 0.0
C153 C 0.52767 0.48649 0.50938 0.0
C154 C 0.53165 0.49596 0.53044 0.0
C155 C 0.53391 0.46708 0.54347 0.0
C156 C 0.53716 0.47965 0.56526 0.0
C157 C 0.53737 0.52129 0.56367 0.0
C158 C 0.5341 0.53196 0.54328 0.0
C159 C 0.58003 0.48592 0.57362 0.0
C160 C 0.49671 0.44509 0.57637 0.0
H161 H 0.54305 0.67526 0.57483 0.0
H162 H 0.52766 0.66414 0.49978 0.0
H163 H 0.46119 0.55958 0.5192 0.0
H164 H 0.48319 0.53313 0.50496 0.0
H165 H 0.4858 0.58038 0.49488 0.0
H166 H 0.59923 0.62655 0.51322 0.0
H167 H 0.56629 0.61961 0.49142 0.0
H168 H 0.57098 0.57583 0.50107 0.0
H169 H 0.54998 0.61203 0.63983 0.0
H170 H 0.54513 0.49094 0.64466 0.0
H171 H 0.54218 0.48388 0.60836 0.0
H172 H 0.61421 0.64662 0.60192 0.0
H173 H 0.58605 0.67335 0.60948 0.0
H174 H 0.59751 0.6692 0.58307 0.0
H175 H 0.47874 0.58282 0.60763 0.0
H176 H 0.48993 0.61719 0.58695 0.0
H177 H 0.51149 0.63892 0.61171 0.0
H178 H 0.53977 0.73007 0.55643 0.0
C179 C 0.53971 0.67128 0.55868 0.0
C180 C 0.17669 0.54967 0.84761 0.0
C181 C 0.20943 0.54654 0.85822 0.0
C182 C 0.20578 0.5412 0.87941 0.0
C183 C 0.13897 0.5418 0.87959 0.0
C184 C 0.14152 0.54729 0.85872 0.0
C185 C 0.10327 0.55054 0.85095 0.0
H186 H 0.91059 0.53842 0.87725 0.0
C187 C 0.09942 0.53993 0.88712 0.0
C188 C 0.07735 0.54473 0.87052 0.0
H189 H 0.96512 0.56545 0.81712 0.0
H190 H 0.02676 0.56081 0.82972 0.0
H191 H 0.93181 0.46698 0.88861 0.0
H192 H 0.99362 0.60138 0.89896 0.0
H193 H 1.00274 0.58063 0.92118 0.0
H194 H 0.9488 0.56424 0.91374 0.0
H195 H 0.91345 0.49063 0.90709 0.0
H196 H 0.95174 0.47448 0.91349 0.0
C197 C 0.07811 0.51462 0.83557 0.0
C198 C 0.11964 0.59494 0.84164 0.0
C199 C 0.06993 0.52225 0.96352 0.0
C200 C 0.03639 0.51934 0.97554 0.0
C201 C 1.00114 0.51799 0.96576 0.0
C202 C 0.99991 0.52102 0.94457 0.0
C203 C 0.03434 0.52555 0.93277 0.0
C204 C 0.06819 0.52537 0.94225 0.0
C205 C 0.10155 0.52988 0.92723 0.0
C206 C 0.08259 0.53386 0.9072 0.0
C207 C 0.04342 0.5315 0.9106 0.0
C208 C 0.10436 0.48855 0.92815 0.0
C209 C 0.14348 0.57131 0.93249 0.0
C210 C 0.9356 0.5433 0.86667 0.0
C211 C 0.93259 0.5521 0.84621 0.0
C212 C 0.96647 0.55866 0.83306 0.0
C213 C 1.00218 0.55593 0.84036 0.0
C214 C 1.00453 0.54711 0.86113 0.0
C215 C 0.97124 0.54143 0.87371 0.0
C216 C 0.97817 0.53435 0.89538 0.0
C217 C 0.02069 0.5361 0.89417 0.0
C218 C 0.03701 0.54317 0.87408 0.0
C219 C 0.94191 0.4895 0.90167 0.0
C220 C 0.98071 0.57171 0.90813 0.0
H221 H 0.17128 0.53476 0.90613 0.0
H222 H 0.17861 0.55407 0.83128 0.0
H223 H 0.14086 0.62004 0.85256 0.0
H224 H 0.0934 0.60091 0.83793 0.0
H225 H 0.13804 0.5986 0.82751 0.0
H226 H 0.0694 0.48326 0.84237 0.0
H227 H 0.09742 0.51896 0.82169 0.0
H228 H 0.04827 0.51346 0.83092 0.0
H229 H 0.09755 0.52345 0.97051 0.0
H230 H 0.97443 0.51488 0.97457 0.0
H231 H 0.97226 0.52023 0.93828 0.0
H232 H 0.07386 0.4609 0.93334 0.0
H233 H 0.12956 0.49195 0.93886 0.0
H234 H 0.11006 0.47876 0.91305 0.0
H235 H 0.1368 0.59635 0.93811 0.0
H236 H 0.16446 0.58582 0.91918 0.0
H237 H 0.16146 0.56563 0.94458 0.0
H238 H 0.2301 0.53881 0.88792 0.0
C239 C 0.17122 0.53878 0.89001 0.0
C240 C 0.93977 0.44466 0.48747 0.0
C241 C 0.91515 0.40241 0.48065 0.0
C242 C 0.9142 0.39337 0.45978 0.0
C243 C 0.96 0.46802 0.45252 0.0
C244 C 0.96255 0.47695 0.47311 0.0
C245 C 0.9923 0.52357 0.47734 0.0
H246 H 0.12676 0.72011 0.43909 0.0
C247 C 0.98536 0.50827 0.44145 0.0
C248 C 1.00484 0.54114 0.45583 0.0
H249 H 0.10453 0.68332 0.50246 0.0
H250 H 0.05129 0.61173 0.49274 0.0
H251 H 0.12816 0.63948 0.42312 0.0
H252 H 0.02931 0.67184 0.42611 0.0
H253 H 0.01878 0.64084 0.40406 0.0
H254 H 0.06796 0.69095 0.40602 0.0
H255 H 0.12732 0.67992 0.40773 0.0
H256 H 0.10111 0.62526 0.39971 0.0
C257 C 0.0307 0.52777 0.48958 0.0
C258 C 0.96711 0.54173 0.48837 0.0
C259 C 0.98518 0.50751 0.3641 0.0
C260 C 1.00381 0.5401 0.34954 0.0
C261 C 0.0272 0.58268 0.35609 0.0
C262 C 0.03288 0.59262 0.37686 0.0
C263 C 0.01489 0.55965 0.39126 0.0
C264 C 0.99086 0.51803 0.3848 0.0
C265 C 0.9729 0.48736 0.40228 0.0
C266 C 0.99068 0.51746 0.42031 0.0
C267 C 0.01555 0.55958 0.41373 0.0
C268 C 0.99095 0.45657 0.40111 0.0
C269 C 0.9237 0.4654 0.40113 0.0
C270 C 0.10997 0.69703 0.45097 0.0
C271 C 0.12006 0.70755 0.47157 0.0
C272 C 0.09782 0.67597 0.48644 0.0
C273 C 0.06699 0.63442 0.48078 0.0
C274 C 0.05852 0.62419 0.46002 0.0
C275 C 0.0795 0.65558 0.44559 0.0
C276 C 0.0673 0.63939 0.42424 0.0
C277 C 0.03662 0.59272 0.42813 0.0
C278 C 0.03132 0.58376 0.44909 0.0
C279 C 0.10792 0.64646 0.41293 0.0
C280 C 0.04491 0.66194 0.41443 0.0
H281 H 0.93369 0.4168 0.43001 0.0
H282 H 0.94128 0.45222 0.50351 0.0
H283 H 0.93569 0.53035 0.48094 0.0
H284 H 0.98334 0.57677 0.48786 0.0
H285 H 0.96126 0.53142 0.50453 0.0
H286 H 0.0386 0.503 0.48492 0.0
H287 H 0.02374 0.524 0.50616 0.0
H288 H 0.0602 0.55823 0.48686 0.0
H289 H 0.96661 0.47452 0.35948 0.0
H290 H 0.0421 0.60827 0.34512 0.0
H291 H 0.05163 0.62558 0.38086 0.0
H292 H 0.0229 0.47204 0.39378 0.0
H293 H 0.9698 0.42772 0.3921 0.0
H294 H 0.99621 0.44689 0.4163 0.0
H295 H 0.91355 0.48838 0.39629 0.0
H296 H 0.9079 0.45315 0.41592 0.0
H297 H 0.91076 0.43894 0.38992 0.0
H298 H 0.89521 0.36103 0.45427 0.0
C299 C 0.9363 0.42585 0.4457 0.0
C300 C 0.58767 0.96707 0.79723 0.0
C301 C 0.59467 0.94077 0.78381 0.0
C302 C 0.59888 0.94989 0.76284 0.0
C303 C 0.58759 0.00932 0.76859 0.0
C304 C 0.58402 1.00111 0.78925 0.0
C305 C 0.57547 0.03205 0.80091 0.0
H306 H 0.54842 0.20502 0.79821 0.0
C307 C 0.5815 0.04598 0.76494 0.0
C308 C 0.57433 0.05973 0.78376 0.0
H309 H 0.54641 0.13434 0.85132 0.0
H310 H 0.55778 0.08585 0.83002 0.0
H311 H 0.62687 0.20366 0.77485 0.0
H312 H 0.49062 0.12567 0.77161 0.0
H313 H 0.50949 0.12754 0.74682 0.0
H314 H 0.51843 0.17606 0.75893 0.0
H315 H 0.59257 0.22202 0.76513 0.0
H316 H 0.6121 0.19534 0.749 0.0
C317 C 0.61312 0.05751 0.81559 0.0
C318 C 0.53183 0.00667 0.81164 0.0
C319 C 0.58487 0.09444 0.69235 0.0
C320 C 0.57682 0.12497 0.68359 0.0
C321 C 0.5686 0.15131 0.69634 0.0
C322 C 0.56815 0.14701 0.71758 0.0
C323 C 0.57537 0.11561 0.72612 0.0
C324 C 0.58354 0.09004 0.71349 0.0
C325 C 0.58809 0.05684 0.72498 0.0
C326 C 0.58148 0.0667 0.74667 0.0
C327 C 0.57434 0.10122 0.74729 0.0
C328 C 0.63391 0.06503 0.72145 0.0
C329 C 0.55206 0.01246 0.71793 0.0
C330 C 0.55054 0.17908 0.80519 0.0
C331 C 0.54689 0.17332 0.82631 0.0
C332 C 0.54926 0.13912 0.835 0.0
C333 C 0.55596 0.11124 0.82262 0.0
C334 C 0.56002 0.1177 0.8014 0.0
C335 C 0.55685 0.15104 0.79308 0.0
C336 C 0.56051 0.15276 0.77032 0.0
C337 C 0.5675 0.11564 0.76623 0.0
C338 C 0.56734 0.09506 0.78443 0.0
C339 C 0.59986 0.19572 0.76434 0.0
C340 C 0.51782 0.14545 0.76131 0.0
H341 H 0.59882 0.98872 0.73908 0.0
H342 H 0.58427 0.96078 0.81343 0.0
H343 H 0.50856 0.98078 0.80161 0.0
H344 H 0.51722 0.02628 0.81519 0.0
H345 H 0.53466 0.99184 0.8259 0.0
H346 H 0.6439 0.06668 0.80792 0.0
H347 H 0.61067 0.03827 0.8292 0.0
H348 H 0.61557 0.08764 0.82064 0.0
H349 H 0.59026 0.07308 0.68289 0.0
H350 H 0.56219 0.17498 0.68984 0.0
H351 H 0.5616 0.16789 0.7265 0.0
H352 H 0.65697 0.09964 0.71992 0.0
H353 H 0.63584 0.04923 0.70732 0.0
H354 H 0.64608 0.05469 0.73436 0.0
H355 H 0.52315 0.01366 0.71331 0.0
H356 H 0.54077 0.98835 0.73015 0.0
H357 H 0.56225 1.00069 0.70467 0.0
H358 H 0.60512 0.93072 0.75225 0.0
C359 C 0.59542 0.98386 0.7552 0.0
C360 C 0.64324 0.53337 0.15397 0.0
C361 C 0.68563 0.5482 0.14802 0.0
C362 C 0.6961 0.55247 0.12722 0.0
C363 C 0.62246 0.52588 0.11837 0.0
C364 C 0.61218 0.52292 0.13882 0.0
C365 C 0.56563 0.50839 0.14196 0.0
H366 H 0.37392 0.45139 0.09901 0.0
C367 C 0.58323 0.5112 0.10644 0.0
C368 C 0.54962 0.50101 0.12009 0.0
H369 H 0.40626 0.47178 0.16284 0.0
H370 H 0.47705 0.48383 0.15525 0.0
H371 H 0.45999 0.52966 0.08261 0.0
H372 H 0.41675 0.39662 0.08983 0.0
H373 H 0.45115 0.4127 0.06876 0.0
H374 H 0.40324 0.41638 0.06776 0.0
H375 H 0.41773 0.48823 0.06804 0.0
H376 H 0.47227 0.51155 0.06014 0.0
C377 C 0.56242 0.54513 0.15224 0.0
C378 C 0.54521 0.46665 0.15437 0.0
C379 C 0.58953 0.50619 0.02926 0.0
C380 C 0.55801 0.49239 0.01415 0.0
C381 C 0.515 0.47412 0.01993 0.0
C382 C 0.50362 0.47109 0.04047 0.0
C383 C 0.53556 0.48645 0.05541 0.0
C384 C 0.57753 0.50253 0.04975 0.0
C385 C 0.60682 0.51549 0.0678 0.0
C386 C 0.57553 0.50547 0.08519 0.0
C387 C 0.53408 0.48914 0.07778 0.0
C388 C 0.63895 0.56384 0.06613 0.0
C389 C 0.62736 0.48686 0.06823 0.0
C390 C 0.39629 0.45859 0.11136 0.0
C391 C 0.3849 0.46141 0.13146 0.0
C392 C 0.41447 0.46965 0.1472 0.0
C393 C 0.45561 0.47706 0.14273 0.0
C394 C 0.46716 0.47626 0.12234 0.0
C395 C 0.43726 0.46625 0.10715 0.0
C396 C 0.4545 0.46673 0.08635 0.0
C397 C 0.50027 0.4803 0.09136 0.0
C398 C 0.50778 0.48595 0.11244 0.0
C399 C 0.45087 0.50055 0.07343 0.0
C400 C 0.43016 0.42094 0.07755 0.0
H401 H 0.6749 0.54483 0.09682 0.0
H402 H 0.63465 0.53014 0.16993 0.0
H403 H 0.55648 0.44504 0.14872 0.0
H404 H 0.51021 0.44853 0.15303 0.0
H405 H 0.55379 0.47309 0.17073 0.0
H406 H 0.58781 0.57654 0.14657 0.0
H407 H 0.56603 0.5447 0.16901 0.0
H408 H 0.53236 0.54454 0.14878 0.0
H409 H 0.62281 0.51992 0.02521 0.0
H410 H 0.49024 0.46357 0.00851 0.0
H411 H 0.47045 0.4578 0.04387 0.0
H412 H 0.62419 0.58081 0.05862 0.0
H413 H 0.66729 0.56997 0.05702 0.0
H414 H 0.6495 0.57951 0.08112 0.0
H415 H 0.60458 0.45418 0.06279 0.0
H416 H 0.63624 0.48224 0.08369 0.0
H417 H 0.65587 0.49983 0.05824 0.0
H418 H 0.72863 0.56364 0.12244 0.0
C419 C 0.66481 0.54126 0.11239 0.0
H420 H 0.16054 0.45271 0.18392 0.0
H421 H 0.14197 0.45299 0.11905 0.0
H422 H 0.22499 0.44903 0.1782 0.0
H423 H 0.20583 0.44778 0.1132 0.0
H424 H 0.34943 0.50088 0.11099 0.0
H425 H 0.28054 0.49522 0.11654 0.0
H426 H 0.25648 0.40842 0.16642 0.0
H427 H 0.32639 0.41496 0.16101 0.0
C428 C 0.16984 0.4511 0.16841 0.0
C429 C 0.14654 0.45348 0.1519 0.0
C430 C 0.20669 0.44876 0.16513 0.0
C431 C 0.22091 0.44855 0.14524 0.0
C432 C 0.19627 0.44879 0.12872 0.0
C433 C 0.15952 0.4514 0.13203 0.0
C434 C 0.32929 0.48034 0.12306 0.0
C435 C 0.34313 0.45814 0.1355 0.0
C436 C 0.28964 0.47687 0.12617 0.0
C437 C 0.26262 0.45093 0.14176 0.0
C438 C 0.2766 0.4289 0.15434 0.0
C439 C 0.31658 0.43263 0.15129 0.0
H440 H 0.72764 0.15313 0.48858 0.0
H441 H 0.688 0.20178 0.53893 0.0
H442 H 0.79615 0.21801 0.48798 0.0
H443 H 0.75752 0.26699 0.53876 0.0
H444 H 0.84765 0.39353 0.50255 0.0
H445 H 0.78996 0.32697 0.51607 0.0
H446 H 0.8629 0.26502 0.50296 0.0
H447 H 0.9196 0.33135 0.48868 0.0
C448 C 0.73411 0.17734 0.49991 0.0
C449 C 0.70244 0.17266 0.51365 0.0
C450 C 0.77361 0.21456 0.4997 0.0
C451 C 0.78246 0.24803 0.51327 0.0
C452 C 0.7516 0.24211 0.52793 0.0
C453 C 0.71192 0.20469 0.52813 0.0
C454 C 0.85184 0.366 0.5033 0.0
C455 C 0.88772 0.36726 0.4945 0.0
C456 C 0.81881 0.32778 0.51104 0.0
C457 C 0.82134 0.29028 0.51021 0.0
C458 C 0.85942 0.29297 0.50337 0.0
C459 C 0.89209 0.33099 0.49539 0.0
H460 H 0.61674 0.741 0.84729 0.0
H461 H 0.62406 0.71852 0.78325 0.0
H462 H 0.61298 0.80463 0.83923 0.0
H463 H 0.62113 0.78279 0.77512 0.0
H464 H 0.55546 0.8611 0.76777 0.0
H465 H 0.56546 0.80172 0.7769 0.0
H466 H 0.65081 0.87677 0.82523 0.0
H467 H 0.64049 0.93649 0.81604 0.0
C468 C 0.61835 0.75017 0.83148 0.0
C469 C 0.62046 0.72477 0.81586 0.0
C470 C 0.61633 0.78671 0.82688 0.0
C471 C 0.61624 0.79853 0.80654 0.0
C472 C 0.62033 0.77408 0.79095 0.0
C473 C 0.62242 0.73753 0.79557 0.0
C474 C 0.57638 0.86494 0.78035 0.0
C475 C 0.59752 0.90357 0.79108 0.0
C476 C 0.58234 0.83101 0.7855 0.0
C477 C 0.60958 0.83475 0.80153 0.0
C478 C 0.6296 0.87288 0.81278 0.0
C479 C 0.62358 0.90699 0.80761 0.0
H480 H 0.93337 0.61534 0.1557 0.0
H481 H 0.88837 0.52736 0.20608 0.0
H482 H 0.86813 0.61851 0.1564 0.0
H483 H 0.82274 0.53107 0.20716 0.0
H484 H 0.75346 0.62489 0.15741 0.0
H485 H 0.82026 0.63673 0.17227 0.0
H486 H 0.76228 0.50206 0.18448 0.0
H487 H 0.69528 0.49099 0.17038 0.0
C488 C 0.90992 0.59761 0.16733 0.0
C489 C 0.91561 0.57073 0.18065 0.0
C490 C 0.87253 0.59965 0.16787 0.0
C491 C 0.83989 0.57481 0.18178 0.0
C492 C 0.84699 0.5502 0.19611 0.0
C493 C 0.88462 0.54824 0.19557 0.0
C494 C 0.75468 0.5983 0.16418 0.0
C495 C 0.71956 0.55709 0.16282 0.0
C496 C 0.79297 0.6049 0.17247 0.0
C497 C 0.79701 0.57022 0.17911 0.0
C498 C 0.76039 0.52958 0.17963 0.0
C499 C 0.72192 0.52311 0.17156 0.0
H500 H 0.35285 0.94502 0.4573 0.0
H501 H 0.34107 0.93134 0.52263 0.0
H502 H 0.28221 0.88201 0.45349 0.0
H503 H 0.2707 0.86882 0.51888 0.0
H504 H 0.18154 0.72733 0.50043 0.0
H505 H 0.24535 0.79576 0.50623 0.0
H506 H 0.20461 0.85305 0.46043 0.0
H507 H 0.14023 0.7847 0.45486 0.0
C508 C 0.33487 0.92894 0.47081 0.0
C509 C 0.35244 0.94285 0.49023 0.0
C510 C 0.29443 0.893 0.46866 0.0
C511 C 0.27104 0.87028 0.4859 0.0
C512 C 0.28817 0.88527 0.50532 0.0
C513 C 0.32837 0.92121 0.50745 0.0
C514 C 0.18555 0.75468 0.49196 0.0
C515 C 0.15582 0.75036 0.47709 0.0
C516 C 0.22226 0.79392 0.49523 0.0
C517 C 0.23018 0.82973 0.48365 0.0
C518 C 0.19972 0.82586 0.46934 0.0
C519 C 0.16285 0.7867 0.46618 0.0
H520 H 0.57397 0.40626 0.8774 0.0
H521 H 0.46216 0.34723 0.83932 0.0
H522 H 0.57628 0.34012 0.87764 0.0
H523 H 0.4647 0.28132 0.83931 0.0
H524 H 0.47377 0.16337 0.84313 0.0
H525 H 0.46239 0.22006 0.8567 0.0
H526 H 0.59655 0.30975 0.84939 0.0
H527 H 0.60745 0.25314 0.83604 0.0
C528 C 0.54917 0.37877 0.86957 0.0
C529 C 0.5182 0.38199 0.85812 0.0
C530 C 0.55065 0.34097 0.8696 0.0
C531 C 0.52113 0.30565 0.85822 0.0
C532 C 0.48783 0.30779 0.84833 0.0
C533 C 0.48641 0.34563 0.84827 0.0
C534 C 0.50085 0.19498 0.84514 0.0
C535 C 0.5415 0.20411 0.83879 0.0
C536 C 0.49437 0.22745 0.85272 0.0
C537 C 0.52852 0.26948 0.85409 0.0
C538 C 0.56963 0.27772 0.84887 0.0
C539 C 0.57597 0.2454 0.84118 0.0
H540 H 0.59455 0.96556 0.51889 0.0
H541 H 0.46827 0.89983 0.49332 0.0
H542 H 0.59447 0.89835 0.52121 0.0
H543 H 0.46842 0.83273 0.49519 0.0
H544 H 0.46411 0.71247 0.52288 0.0
H545 H 0.46348 0.77857 0.51663 0.0
H546 H 0.59859 0.84275 0.50466 0.0
H547 H 0.59881 0.77643 0.51139 0.0
C548 C 0.56673 0.93687 0.51364 0.0
C549 C 0.53137 0.93876 0.50597 0.0
C550 C 0.56678 0.89796 0.51482 0.0
C551 C 0.53147 0.85918 0.50836 0.0
C552 C 0.49617 0.86124 0.50061 0.0
C553 C 0.49614 0.90014 0.49943 0.0
C554 C 0.49337 0.74032 0.51814 0.0
C555 C 0.53122 0.73845 0.51698 0.0
C556 C 0.49319 0.77868 0.5147 0.0
C557 C 0.53106 0.817 0.51021 0.0
C558 C 0.56871 0.8146 0.50835 0.0
C559 C 0.5688 0.77615 0.51178 0.0
H560 H 0.73069 0.61529 0.81386 0.0
H561 H 0.67019 0.49959 0.84899 0.0
H562 H 0.79789 0.61447 0.815 0.0
H563 H 0.73682 0.49953 0.8509 0.0
H564 H 0.85177 0.4855 0.84137 0.0
H565 H 0.78602 0.48696 0.83585 0.0
H566 H 0.85795 0.62415 0.83272 0.0
H567 H 0.92395 0.62189 0.83731 0.0
C568 C 0.73156 0.5897 0.82189 0.0
C569 C 0.69427 0.55736 0.83117 0.0
C570 C 0.77049 0.5893 0.82269 0.0
C571 C 0.77379 0.55669 0.83291 0.0
C572 C 0.73636 0.52474 0.84233 0.0
C573 C 0.69762 0.52495 0.84138 0.0
C574 C 0.85361 0.51591 0.839 0.0
C575 C 0.89345 0.55346 0.83942 0.0
C576 C 0.81557 0.51697 0.83618 0.0
C577 C 0.81552 0.55579 0.83412 0.0
C578 C 0.8558 0.59342 0.834 0.0
C579 C 0.89402 0.59224 0.8366 0.0
H580 H 0.1191 0.67275 0.17681 0.0
H581 H 0.19046 0.61064 0.16148 0.0
H582 H 0.18478 0.74081 0.17852 0.0
H583 H 0.25677 0.67872 0.16395 0.0
H584 H 0.37223 0.81407 0.157 0.0
H585 H 0.30548 0.74702 0.15145 0.0
H586 H 0.24422 0.78353 0.19726 0.0
H587 H 0.30942 0.85041 0.20189 0.0
C588 C 0.14882 0.6734 0.17394 0.0
C589 C 0.14883 0.63553 0.1691 0.0
C590 C 0.18704 0.71283 0.17506 0.0
C591 C 0.22718 0.71626 0.1716 0.0
C592 C 0.22707 0.67829 0.16653 0.0
C593 C 0.18871 0.63882 0.16526 0.0
C594 C 0.34428 0.8081 0.1656 0.0
C595 C 0.34702 0.83816 0.18007 0.0
C596 C 0.30581 0.76908 0.16264 0.0
C597 C 0.26851 0.75874 0.17393 0.0
C598 C 0.2713 0.78956 0.18793 0.0
C599 C 0.30941 0.82826 0.19082 0.0
H600 H 0.59426 0.21635 0.50026 0.0
H601 H 0.45807 0.15185 0.49242 0.0
H602 H 0.59625 0.28418 0.50222 0.0
H603 H 0.45982 0.22018 0.49494 0.0
H604 H 0.47963 0.35664 0.48799 0.0
H605 H 0.47814 0.28909 0.48137 0.0
H606 H 0.58138 0.32563 0.52387 0.0
H607 H 0.5836 0.39264 0.52981 0.0
C608 C 0.56453 0.21644 0.49894 0.0
C609 C 0.52597 0.17791 0.49624 0.0
C610 C 0.56561 0.25576 0.50024 0.0
C611 C 0.52815 0.25854 0.49904 0.0
C612 C 0.48957 0.22006 0.49581 0.0
C613 C 0.48851 0.18052 0.49444 0.0
C614 C 0.50252 0.35053 0.4956 0.0
C615 C 0.53165 0.38059 0.50952 0.0
C616 C 0.50134 0.31133 0.49202 0.0
C617 C 0.52957 0.30099 0.50206 0.0
C618 C 0.55934 0.3318 0.5155 0.0
C619 C 0.56039 0.37056 0.51909 0.0
H620 H 0.4099 0.48186 0.84754 0.0
H621 H 0.47255 0.61098 0.82549 0.0
H622 H 0.34297 0.48254 0.85008 0.0
H623 H 0.40565 0.61145 0.82762 0.0
H624 H 0.29007 0.61482 0.85647 0.0
H625 H 0.35636 0.61468 0.84986 0.0
H626 H 0.28425 0.48172 0.83375 0.0
H627 H 0.21801 0.48221 0.84081 0.0
C628 C 0.40954 0.5104 0.84308 0.0
C629 C 0.44734 0.54637 0.83635 0.0
C630 C 0.37073 0.51073 0.8444 0.0
C631 C 0.36801 0.54708 0.83909 0.0
C632 C 0.40584 0.5829 0.83219 0.0
C633 C 0.44458 0.58254 0.83084 0.0
C634 C 0.28834 0.58596 0.85078 0.0
C635 C 0.24837 0.54892 0.84854 0.0
C636 C 0.32661 0.58568 0.8471 0.0
C637 C 0.32656 0.5481 0.84129 0.0
C638 C 0.28631 0.51131 0.83843 0.0
C639 C 0.24801 0.5117 0.84207 0.0
H640 H 0.87188 0.41574 0.17073 0.0
H641 H 0.93903 0.34859 0.15683 0.0
H642 H 0.80547 0.34832 0.17359 0.0
H643 H 0.87231 0.28092 0.15931 0.0
H644 H 0.75501 0.16718 0.19039 0.0
H645 H 0.82118 0.23216 0.18225 0.0
H646 H 0.74886 0.28731 0.15814 0.0
H647 H 0.68257 0.22202 0.16674 0.0
C648 C 0.87262 0.38665 0.16805 0.0
C649 C 0.91153 0.3883 0.16355 0.0
C650 C 0.83406 0.34756 0.16958 0.0
C651 C 0.83259 0.30824 0.16672 0.0
C652 C 0.87151 0.30997 0.16193 0.0
C653 C 0.91011 0.34914 0.16036 0.0
C654 C 0.75321 0.1926 0.18266 0.0
C655 C 0.7131 0.18855 0.17875 0.0
C656 C 0.79145 0.23033 0.17806 0.0
C657 C 0.79129 0.26601 0.16958 0.0
C658 C 0.75098 0.26125 0.16491 0.0
C659 C 0.71265 0.22328 0.16945 0.0
H660 H 0.06697 0.59679 0.10166 0.0
H661 H 0.01377 0.46088 0.10606 0.0
H662 H 0.07175 0.59287 0.06491 0.0
H663 H 0.01787 0.45673 0.06883 0.0
H664 H 0.06305 0.47639 0.00069 0.0
H665 H 0.0664 0.47846 0.03804 0.0
H666 H 0.01728 0.56517 0.03854 0.0
H667 H 0.01504 0.56403 0.00162 0.0
C668 C 0.0565 0.56602 0.09474 0.0
C669 C 0.0394 0.52906 0.10667 0.0
C670 C 0.05907 0.56375 0.07365 0.0
C671 C 0.04441 0.5244 0.06389 0.0
C672 C 0.02941 0.48753 0.07591 0.0
C673 C 0.02694 0.48984 0.09718 0.0
C674 C 0.05328 0.49608 0.00884 0.0
C675 C 0.03864 0.51993 -0.00182 0.0
C676 C 0.05486 0.49697 0.0302 0.0
C677 C 0.04235 0.52217 0.04126 0.0
C678 C 0.02773 0.54589 0.03052 0.0
C679 C 0.02596 0.54484 0.00932 0.0
H680 H 0.57805 0.01969 0.437 0.0
H681 H 0.49307 0.07052 0.44135 0.0
H682 H 0.56809 0.01298 0.40033 0.0
H683 H 0.48367 0.06472 0.40428 0.0
H684 H 0.44889 0.00944 0.33878 0.0
H685 H 0.45448 0.01485 0.37581 0.0
H686 H 0.58922 0.05961 0.37142 0.0
H687 H 0.58331 0.05236 0.3346 0.0
C688 C 0.55714 0.02941 0.43007 0.0
C689 C 0.53663 0.04597 0.44199 0.0
C690 C 0.55169 0.02588 0.40901 0.0
C691 C 0.52569 0.03902 0.39927 0.0
C692 C 0.50388 0.05425 0.41129 0.0
C693 C 0.50928 0.05765 0.43249 0.0
C694 C 0.47967 0.02019 0.34573 0.0
C695 C 0.5156 0.03018 0.33366 0.0
C696 C 0.48294 0.02374 0.36697 0.0
C697 C 0.52221 0.0373 0.37664 0.0
C698 C 0.5583 0.04832 0.36452 0.0
C699 C 0.55503 0.04474 0.34334 0.0
H700 H 0.57546 0.59649 0.77832 0.0
H701 H 0.5461 0.46804 0.76538 0.0
H702 H 0.57278 0.60903 0.74165 0.0
H703 H 0.54419 0.48044 0.72926 0.0
H704 H 0.49127 0.49156 0.67064 0.0
H705 H 0.49502 0.489 0.70752 0.0
H706 H 0.60765 0.61343 0.70757 0.0
H707 H 0.60314 0.61625 0.67029 0.0
C708 C 0.56913 0.57129 0.76764 0.0
C709 C 0.56067 0.53123 0.77465 0.0
C710 C 0.56753 0.57837 0.7467 0.0
C711 C 0.55738 0.54542 0.73257 0.0
C712 C 0.55087 0.50614 0.73972 0.0
C713 C 0.55228 0.4991 0.76045 0.0
C714 C 0.51659 0.51856 0.67854 0.0
C715 C 0.54728 0.5538 0.66763 0.0
C716 C 0.51889 0.51706 0.69966 0.0
C717 C 0.55226 0.55058 0.71045 0.0
C718 C 0.58163 0.58707 0.69969 0.0
C719 C 0.57909 0.5887 0.6784 0.0
H720 H 0.49712 0.11924 0.55792 0.0
H721 H 0.56277 0.04751 0.5592 0.0
H722 H 0.5193 0.1426 0.59276 0.0
H723 H 0.58315 0.06876 0.59451 0.0
H724 H 0.63366 0.12937 0.65508 0.0
H725 H 0.62376 0.1223 0.61824 0.0
H726 H 0.50085 0.11338 0.62531 0.0
H727 H 0.51192 0.12236 0.66187 0.0
C728 C 0.51628 0.10843 0.56575 0.0
C729 C 0.52787 0.08123 0.55606 0.0
C730 C 0.52881 0.12159 0.58576 0.0
C731 C 0.55253 0.10714 0.59665 0.0
C732 C 0.56534 0.081 0.58659 0.0
C733 C 0.55342 0.06848 0.56641 0.0
C734 C 0.60494 0.12664 0.6486 0.0
C735 C 0.57355 0.12644 0.66123 0.0
C736 C 0.59905 0.12224 0.62754 0.0
C737 C 0.56132 0.11685 0.61872 0.0
C738 C 0.53065 0.11818 0.63142 0.0
C739 C 0.53686 0.12323 0.65242 0.0
H740 H 0.52514 0.51046 0.88693 0.0
H741 H 0.65955 0.59814 0.89421 0.0
H742 H 0.5209 0.4872 0.92199 0.0
H743 H 0.65604 0.57353 0.9291 0.0
H744 H 0.61728 0.56608 0.99661 0.0
H745 H 0.62956 0.58181 0.96046 0.0
H746 H 0.53796 0.4508 0.94646 0.0
H747 H 0.52457 0.43577 0.98278 0.0
C748 C 0.55393 0.52418 0.89599 0.0
C749 C 0.59252 0.55647 0.88807 0.0
C750 C 0.55166 0.51059 0.91604 0.0
C751 C 0.58811 0.52865 0.92849 0.0
C752 C 0.62717 0.55957 0.92011 0.0
C753 C 0.62928 0.57355 0.90013 0.0
C754 C 0.60042 0.54053 0.98577 0.0
C755 C 0.56979 0.49983 0.9924 0.0
C756 C 0.60753 0.54944 0.96502 0.0
C757 C 0.58449 0.51766 0.95046 0.0
C758 C 0.55555 0.47627 0.95722 0.0
C759 C 0.54802 0.46755 0.97798 0.0
H760 H 0.04351 0.56614 0.21996 0.0
H761 H 0.9908 0.43134 0.22939 0.0
H762 H 0.03248 0.57509 0.25579 0.0
H763 H 0.97789 0.43974 0.2651 0.0
H764 H 0.01785 0.48093 0.33128 0.0
H765 H 0.01877 0.46779 0.29501 0.0
H766 H 0.9827 0.56243 0.28206 0.0
H767 H 0.98323 0.57642 0.31846 0.0
C768 C 0.02895 0.53834 0.22968 0.0
C769 C 0.01848 0.49815 0.22206 0.0
C770 C 0.02228 0.54336 0.25019 0.0
C771 C 1.00452 0.50816 0.26341 0.0
C772 C 0.99246 0.46766 0.25547 0.0
C773 C 0.9996 0.46277 0.23501 0.0
C774 C 1.00958 0.49847 0.32066 0.0
C775 C 1.00065 0.52979 0.32762 0.0
C776 C 1.00993 0.49087 0.29986 0.0
C777 C 1.0009 0.51411 0.28556 0.0
C778 C 0.99059 0.54451 0.29262 0.0
C779 C 0.99072 0.55244 0.31344 0.0
loop_
_geom_bond_atom_site_label_1
_geom_bond_atom_site_label_2
_geom_bond_distance
_geom_bond_site_symmetry_2
_ccdc_geom_bond_type
Dy0 O4 2.398 . S
Dy0 O5 2.491 . S
Dy0 O6 2.403 . S
Dy0 O7 2.664 . S
Dy0 O11 2.326 . S
Dy0 O15 2.310 . S
Dy0 O16 2.351 1_455 S
C1 O12 1.185 . S
C1 O13 1.355 . S
C2 O4 1.185 . S
C2 O5 1.355 . S
Dy3 O7 2.310 . S
Dy3 O10 2.352 . S
Dy3 O12 2.398 1_455 S
Dy3 O13 2.491 1_455 S
Dy3 O14 2.403 . S
Dy3 O15 2.664 . S
Dy3 O17 2.326 1_455 S
O4 Dy0 2.398 . S
O4 C2 1.185 . S
O5 Dy0 2.491 . S
O5 C2 1.355 . S
O6 Dy0 2.403 . S
O6 C8 1.254 . S
O7 Dy0 2.664 . S
O7 Dy3 2.310 . S
O7 C8 1.268 . S
C8 O6 1.254 . S
C8 O7 1.268 . S
C9 O14 1.254 . S
C9 O15 1.268 . S
O10 Dy3 2.352 . S
O10 C18 1.249 . S
O11 Dy0 2.326 . S
O11 C18 1.267 . S
O12 C1 1.185 . S
O12 Dy3 2.398 1_655 S
O13 C1 1.355 . S
O13 Dy3 2.491 1_655 S
O14 Dy3 2.403 . S
O14 C9 1.254 . S
O15 Dy0 2.310 . S
O15 Dy3 2.664 . S
O15 C9 1.268 . S
O16 Dy0 2.351 1_655 S
O16 C19 1.249 . S
O17 Dy3 2.326 1_655 S
O17 C19 1.267 . S
C18 O10 1.249 . S
C18 O11 1.267 . S
C19 O16 1.249 . S
C19 O17 1.267 . S
Dy20 O24 2.398 1_545 S
Dy20 O25 2.491 1_545 S
Dy20 O26 2.403 . S
Dy20 O27 2.664 . S
Dy20 O31 2.326 1_545 S
Dy20 O35 2.310 . S
Dy20 O36 2.351 . S
C21 O32 1.185 . S
C21 O33 1.355 . S
C22 O24 1.185 . S
C22 O25 1.355 . S
Dy23 O27 2.310 . S
Dy23 O30 2.351 1_545 S
Dy23 O32 2.398 . S
Dy23 O33 2.491 . S
Dy23 O34 2.403 . S
Dy23 O35 2.664 . S
Dy23 O37 2.326 . S
O24 Dy20 2.398 1_565 S
O24 C22 1.185 . S
O25 Dy20 2.491 1_565 S
O25 C22 1.355 . S
O26 Dy20 2.403 . S
O26 C28 1.254 . S
O27 Dy20 2.664 . S
O27 Dy23 2.310 . S
O27 C28 1.268 . S
C28 O26 1.254 . S
C28 O27 1.268 . S
C29 O34 1.254 . S
C29 O35 1.268 . S
O30 Dy23 2.351 1_565 S
O30 C38 1.249 . S
O31 Dy20 2.326 1_565 S
O31 C38 1.267 . S
O32 C21 1.185 . S
O32 Dy23 2.398 . S
O33 C21 1.355 . S
O33 Dy23 2.491 . S
O34 Dy23 2.403 . S
O34 C29 1.254 . S
O35 Dy20 2.310 . S
O35 Dy23 2.664 . S
O35 C29 1.268 . S
O36 Dy20 2.351 . S
O36 C39 1.249 . S
O37 Dy23 2.326 . S
O37 C39 1.267 . S
C38 O30 1.249 . S
C38 O31 1.267 . S
C39 O36 1.249 . S
C39 O37 1.267 . S
Dy40 O44 2.398 . S
Dy40 O45 2.491 . S
Dy40 O46 2.403 . S
Dy40 O47 2.664 . S
Dy40 O51 2.326 . S
Dy40 O55 2.310 . S
Dy40 O56 2.351 . S
C41 O52 1.185 . S
C41 O53 1.355 . S
C42 O44 1.185 . S
C42 O45 1.355 . S
Dy43 O47 2.310 . S
Dy43 O50 2.351 . S
Dy43 O52 2.398 . S
Dy43 O53 2.491 . S
Dy43 O54 2.403 . S
Dy43 O55 2.664 . S
Dy43 O57 2.326 . S
O44 Dy40 2.398 . S
O44 C42 1.185 . S
O45 Dy40 2.491 . S
O45 C42 1.355 . S
O46 Dy40 2.403 . S
O46 C48 1.254 . S
O47 Dy40 2.664 . S
O47 Dy43 2.310 . S
O47 C48 1.268 . S
C48 O46 1.254 . S
C48 O47 1.268 . S
C49 O54 1.254 . S
C49 O55 1.268 . S
O50 Dy43 2.351 . S
O50 C58 1.249 . S
O51 Dy40 2.326 . S
O51 C58 1.267 . S
O52 C41 1.185 . S
O52 Dy43 2.398 . S
O53 C41 1.355 . S
O53 Dy43 2.491 . S
O54 Dy43 2.403 . S
O54 C49 1.254 . S
O55 Dy40 2.310 . S
O55 Dy43 2.664 . S
O55 C49 1.268 . S
O56 Dy40 2.351 . S
O56 C59 1.249 . S
O57 Dy43 2.326 . S
O57 C59 1.267 . S
C58 O50 1.249 . S
C58 O51 1.267 . S
C59 O56 1.249 . S
C59 O57 1.267 . S
C60 C61 1.391 . S
C60 C64 1.391 . S
C60 H102 0.948 . S
C61 C60 1.391 . S
C61 C62 1.391 . S
C62 C61 1.391 . S
C62 H118 0.947 . S
C62 C119 1.392 . S
C63 C64 1.391 . S
C63 C67 1.397 . S
C63 C119 1.419 . S
C64 C60 1.391 . S
C64 C63 1.391 . S
C64 C65 1.399 . S
C65 C64 1.399 . S
C65 C68 1.396 . S
C65 C77 1.453 . S
C65 C78 1.684 . S
H66 C90 0.948 . S
C67 C63 1.397 . S
C67 C68 1.394 . S
C67 C86 1.723 . S
C68 C65 1.396 . S
C68 C67 1.394 . S
C68 C98 1.723 1_545 S
H69 C92 0.947 . S
H70 C93 0.948 . S
H71 C99 0.982 . S
H72 C100 0.979 . S
H73 C100 0.980 . S
H74 C100 0.983 . S
H75 C99 0.979 . S
H76 C99 0.977 . S
C77 C65 1.453 . S
C77 H106 0.982 . S
C77 H107 0.979 . S
C77 H108 0.977 1_545 S
C78 C65 1.684 . S
C78 H103 0.979 . S
C78 H104 0.980 . S
C78 H105 0.983 . S
C79 C80 1.391 . S
C79 C84 1.391 . S
C79 H109 0.948 . S
C80 C79 1.391 . S
C80 C81 1.391 1_545 S
C81 C80 1.391 1_565 S
C81 C82 1.392 . S
C81 H110 0.947 . S
C82 C81 1.392 . S
C82 C83 1.419 1_565 S
C82 H111 0.948 . S
C83 C82 1.419 1_545 S
C83 C84 1.391 . S
C83 C87 1.397 . S
C84 C79 1.391 . S
C84 C83 1.391 . S
C84 C85 1.399 . S
C85 C84 1.399 . S
C85 C86 1.396 . S
C85 C88 1.453 . S
C85 C89 1.684 . S
C86 C67 1.723 . S
C86 C85 1.396 . S
C86 C87 1.394 . S
C87 C83 1.397 . S
C87 C86 1.394 . S
C87 C97 1.723 1_545 S
C88 C85 1.453 . S
C88 H112 0.982 . S
C88 H113 0.979 . S
C88 H114 0.977 . S
C89 C85 1.684 . S
C89 H115 0.979 . S
C89 H116 0.980 . S
C89 H117 0.983 . S
C90 H66 0.948 . S
C90 C91 1.391 . S
C90 C95 1.391 . S
C91 C90 1.391 . S
C91 C92 1.391 . S
C92 H69 0.947 . S
C92 C91 1.391 . S
C92 C93 1.392 . S
C93 H70 0.948 . S
C93 C92 1.392 . S
C93 C94 1.419 . S
C94 C93 1.419 . S
C94 C95 1.391 . S
C94 C98 1.397 . S
C95 C90 1.391 . S
C95 C94 1.391 . S
C95 C96 1.399 . S
C96 C95 1.399 . S
C96 C97 1.396 . S
C96 C99 1.453 . S
C96 C100 1.684 . S
C97 C87 1.723 1_565 S
C97 C96 1.396 . S
C97 C98 1.394 . S
C98 C68 1.723 1_565 S
C98 C94 1.397 . S
C98 C97 1.394 . S
C99 H71 0.982 . S
C99 H75 0.979 . S
C99 H76 0.977 . S
C99 C96 1.453 . S
C100 H72 0.979 . S
C100 H73 0.980 . S
C100 H74 0.983 . S
C100 C96 1.684 . S
H101 C119 0.948 . S
H102 C60 0.948 . S
H103 C78 0.979 . S
H104 C78 0.980 . S
H105 C78 0.983 . S
H106 C77 0.982 . S
H107 C77 0.979 . S
H108 C77 0.977 1_565 S
H109 C79 0.948 . S
H110 C81 0.947 . S
H111 C82 0.948 . S
H112 C88 0.982 . S
H113 C88 0.979 . S
H114 C88 0.977 . S
H115 C89 0.979 . S
H116 C89 0.980 . S
H117 C89 0.983 . S
H118 C62 0.947 . S
C119 C62 1.392 . S
C119 C63 1.419 . S
C119 H101 0.948 . S
C120 C121 1.391 . S
C120 C124 1.391 . S
C120 H162 0.948 . S
C121 C120 1.391 . S
C121 C122 1.391 . S
C122 C121 1.391 . S
C122 H178 0.947 . S
C122 C179 1.392 . S
C123 C124 1.391 . S
C123 C127 1.397 . S
C123 C179 1.419 . S
C124 C120 1.391 . S
C124 C123 1.391 . S
C124 C125 1.399 . S
C125 C124 1.399 . S
C125 C128 1.396 . S
C125 C137 1.453 . S
C125 C138 1.684 . S
H126 C150 0.948 . S
C127 C123 1.397 . S
C127 C128 1.394 . S
C127 C146 1.723 . S
C128 C125 1.396 . S
C128 C127 1.394 . S
C128 C158 1.723 . S
H129 C152 0.947 . S
H130 C153 0.948 . S
H131 C159 0.982 . S
H132 C160 0.979 . S
H133 C160 0.980 . S
H134 C160 0.983 . S
H135 C159 0.979 . S
H136 C159 0.977 . S
C137 C125 1.453 . S
C137 H166 0.982 . S
C137 H167 0.979 . S
C137 H168 0.977 . S
C138 C125 1.684 . S
C138 H163 0.979 . S
C138 H164 0.980 . S
C138 H165 0.983 . S
C139 C140 1.391 . S
C139 C144 1.391 . S
C139 H169 0.948 . S
C140 C139 1.391 . S
C140 C141 1.391 . S
C141 C140 1.391 . S
C141 C142 1.392 . S
C141 H170 0.947 . S
C142 C141 1.392 . S
C142 C143 1.419 . S
C142 H171 0.948 . S
C143 C142 1.419 . S
C143 C144 1.391 . S
C143 C147 1.397 . S
C144 C139 1.391 . S
C144 C143 1.391 . S
C144 C145 1.399 . S
C145 C144 1.399 . S
C145 C146 1.396 . S
C145 C148 1.453 . S
C145 C149 1.684 . S
C146 C127 1.723 . S
C146 C145 1.396 . S
C146 C147 1.394 . S
C147 C143 1.397 . S
C147 C146 1.394 . S
C147 C157 1.723 . S
C148 C145 1.453 . S
C148 H172 0.982 . S
C148 H173 0.979 . S
C148 H174 0.977 . S
C149 C145 1.684 . S
C149 H175 0.979 . S
C149 H176 0.980 . S
C149 H177 0.983 . S
C150 H126 0.948 . S
C150 C151 1.391 . S
C150 C155 1.391 . S
C151 C150 1.391 . S
C151 C152 1.391 . S
C152 H129 0.947 . S
C152 C151 1.391 . S
C152 C153 1.392 . S
C153 H130 0.948 . S
C153 C152 1.392 . S
C153 C154 1.419 . S
C154 C153 1.419 . S
C154 C155 1.391 . S
C154 C158 1.397 . S
C155 C150 1.391 . S
C155 C154 1.391 . S
C155 C156 1.399 . S
C156 C155 1.399 . S
C156 C157 1.396 . S
C156 C159 1.453 . S
C156 C160 1.684 . S
C157 C147 1.723 . S
C157 C156 1.396 . S
C157 C158 1.394 . S
C158 C128 1.723 . S
C158 C154 1.397 . S
C158 C157 1.394 . S
C159 H131 0.982 . S
C159 H135 0.979 . S
C159 H136 0.977 . S
C159 C156 1.453 . S
C160 H132 0.979 . S
C160 H133 0.980 . S
C160 H134 0.983 . S
C160 C156 1.684 . S
H161 C179 0.948 . S
H162 C120 0.948 . S
H163 C138 0.979 . S
H164 C138 0.980 . S
H165 C138 0.983 . S
H166 C137 0.982 . S
H167 C137 0.979 . S
H168 C137 0.977 . S
H169 C139 0.948 . S
H170 C141 0.947 . S
H171 C142 0.948 . S
H172 C148 0.982 . S
H173 C148 0.979 . S
H174 C148 0.977 . S
H175 C149 0.979 . S
H176 C149 0.980 . S
H177 C149 0.983 . S
H178 C122 0.947 . S
C179 C122 1.392 . S
C179 C123 1.419 . S
C179 H161 0.948 . S
C180 C181 1.391 . S
C180 C184 1.391 . S
C180 H222 0.948 . S
C181 C180 1.391 . S
C181 C182 1.391 . S
C182 C181 1.391 . S
C182 H238 0.947 . S
C182 C239 1.392 . S
C183 C184 1.391 . S
C183 C187 1.397 . S
C183 C239 1.419 . S
C184 C180 1.391 . S
C184 C183 1.391 . S
C184 C185 1.399 . S
C185 C184 1.399 . S
C185 C188 1.396 . S
C185 C197 1.453 . S
C185 C198 1.684 . S
H186 C210 0.948 . S
C187 C183 1.397 . S
C187 C188 1.394 . S
C187 C206 1.723 . S
C188 C185 1.396 . S
C188 C187 1.394 . S
C188 C218 1.723 . S
H189 C212 0.947 . S
H190 C213 0.946 . S
H191 C219 0.982 . S
H192 C220 0.979 . S
H193 C220 0.980 . S
H194 C220 0.983 . S
H195 C219 0.979 . S
H196 C219 0.977 . S
C197 C185 1.453 . S
C197 H226 0.982 . S
C197 H227 0.979 . S
C197 H228 0.977 . S
C198 C185 1.684 . S
C198 H223 0.979 . S
C198 H224 0.980 . S
C198 H225 0.983 . S
C199 C200 1.391 . S
C199 C204 1.391 . S
C199 H229 0.948 . S
C200 C199 1.391 . S
C200 C201 1.391 . S
C201 C200 1.391 . S
C201 C202 1.392 . S
C201 H230 0.947 1_455 S
C202 C201 1.392 . S
C202 C203 1.419 . S
C202 H231 0.948 1_455 S
C203 C202 1.419 . S
C203 C204 1.391 . S
C203 C207 1.397 . S
C204 C199 1.391 . S
C204 C203 1.391 . S
C204 C205 1.399 . S
C205 C204 1.399 . S
C205 C206 1.396 . S
C205 C208 1.453 . S
C205 C209 1.684 . S
C206 C187 1.723 . S
C206 C205 1.396 . S
C206 C207 1.394 . S
C207 C203 1.397 . S
C207 C206 1.394 . S
C207 C217 1.723 . S
C208 C205 1.453 . S
C208 H232 0.982 . S
C208 H233 0.979 . S
C208 H234 0.977 . S
C209 C205 1.684 . S
C209 H235 0.979 . S
C209 H236 0.980 . S
C209 H237 0.983 . S
C210 H186 0.948 . S
C210 C211 1.391 . S
C210 C215 1.391 . S
C211 C210 1.391 . S
C211 C212 1.391 . S
C212 H189 0.947 . S
C212 C211 1.391 . S
C212 C213 1.394 1_655 S
C213 H190 0.946 . S
C213 C212 1.394 1_455 S
C213 C214 1.419 1_455 S
C214 C213 1.419 1_655 S
C214 C215 1.399 . S
C214 C218 1.390 1_655 S
C215 C210 1.391 . S
C215 C214 1.399 . S
C215 C216 1.399 . S
C216 C215 1.399 . S
C216 C217 1.396 1_655 S
C216 C219 1.453 . S
C216 C220 1.684 . S
C217 C207 1.723 . S
C217 C216 1.396 1_455 S
C217 C218 1.394 . S
C218 C188 1.723 . S
C218 C214 1.390 1_455 S
C218 C217 1.394 . S
C219 H191 0.982 . S
C219 H195 0.979 . S
C219 H196 0.977 . S
C219 C216 1.453 . S
C220 H192 0.979 . S
C220 H193 0.980 . S
C220 H194 0.983 . S
C220 C216 1.684 . S
H221 C239 0.948 . S
H222 C180 0.948 . S
H223 C198 0.979 . S
H224 C198 0.980 . S
H225 C198 0.983 . S
H226 C197 0.982 . S
H227 C197 0.979 . S
H228 C197 0.977 . S
H229 C199 0.948 . S
H230 C201 0.947 1_655 S
H231 C202 0.948 1_655 S
H232 C208 0.982 . S
H233 C208 0.979 . S
H234 C208 0.977 . S
H235 C209 0.979 . S
H236 C209 0.980 . S
H237 C209 0.983 . S
H238 C182 0.947 . S
C239 C182 1.392 . S
C239 C183 1.419 . S
C239 H221 0.948 . S
C240 C241 1.391 . S
C240 C244 1.391 . S
C240 H282 0.948 . S
C241 C240 1.391 . S
C241 C242 1.391 . S
C242 C241 1.391 . S
C242 H298 0.947 . S
C242 C299 1.392 . S
C243 C244 1.391 . S
C243 C247 1.397 . S
C243 C299 1.419 . S
C244 C240 1.391 . S
C244 C243 1.391 . S
C244 C245 1.399 . S
C245 C244 1.399 . S
C245 C248 1.396 . S
C245 C257 1.453 . S
C245 C258 1.684 . S
H246 C270 0.948 . S
C247 C243 1.397 . S
C247 C248 1.394 . S
C247 C266 1.723 . S
C248 C245 1.396 . S
C248 C247 1.394 . S
C248 C278 1.723 1_655 S
H249 C272 0.947 . S
H250 C273 0.948 . S
H251 C279 0.982 . S
H252 C280 0.979 . S
H253 C280 0.980 . S
H254 C280 0.983 . S
H255 C279 0.979 . S
H256 C279 0.977 . S
C257 C245 1.453 . S
C257 H286 0.982 1_655 S
C257 H287 0.979 . S
C257 H288 0.977 1_655 S
C258 C245 1.684 . S
C258 H283 0.979 . S
C258 H284 0.980 . S
C258 H285 0.983 . S
C259 C260 1.391 1_655 S
C259 C264 1.391 . S
C259 H289 0.948 . S
C260 C259 1.391 1_455 S
C260 C261 1.391 . S
C261 C260 1.391 . S
C261 C262 1.392 . S
C261 H290 0.947 . S
C262 C261 1.392 . S
C262 C263 1.419 . S
C262 H291 0.948 . S
C263 C262 1.419 . S
C263 C264 1.391 1_455 S
C263 C267 1.397 . S
C264 C259 1.391 . S
C264 C263 1.391 1_655 S
C264 C265 1.399 . S
C265 C264 1.399 . S
C265 C266 1.396 . S
C265 C268 1.453 . S
C265 C269 1.684 . S
C266 C247 1.723 . S
C266 C265 1.396 . S
C266 C267 1.394 1_655 S
C267 C263 1.397 . S
C267 C266 1.394 1_455 S
C267 C277 1.723 . S
C268 C265 1.453 . S
C268 H292 0.982 . S
C268 H293 0.979 . S
C268 H294 0.977 . S
C269 C265 1.684 . S
C269 H295 0.979 . S
C269 H296 0.980 . S
C269 H297 0.983 . S
C270 H246 0.948 . S
C270 C271 1.391 . S
C270 C275 1.391 . S
C271 C270 1.391 . S
C271 C272 1.391 . S
C272 H249 0.947 . S
C272 C271 1.391 . S
C272 C273 1.392 . S
C273 H250 0.948 . S
C273 C272 1.392 . S
C273 C274 1.419 . S
C274 C273 1.419 . S
C274 C275 1.391 . S
C274 C278 1.397 . S
C275 C270 1.391 . S
C275 C274 1.391 . S
C275 C276 1.399 . S
C276 C275 1.399 . S
C276 C277 1.396 . S
C276 C279 1.453 . S
C276 C280 1.684 . S
C277 C267 1.723 . S
C277 C276 1.396 . S
C277 C278 1.394 . S
C278 C248 1.723 1_455 S
C278 C274 1.397 . S
C278 C277 1.394 . S
C279 H251 0.982 . S
C279 H255 0.979 . S
C279 H256 0.977 . S
C279 C276 1.453 . S
C280 H252 0.979 . S
C280 H253 0.980 . S
C280 H254 0.983 . S
C280 C276 1.684 . S
H281 C299 0.948 . S
H282 C240 0.948 . S
H283 C258 0.979 . S
H284 C258 0.980 . S
H285 C258 0.983 . S
H286 C257 0.982 1_455 S
H287 C257 0.979 . S
H288 C257 0.977 1_455 S
H289 C259 0.948 . S
H290 C261 0.947 . S
H291 C262 0.948 . S
H292 C268 0.982 . S
H293 C268 0.979 . S
H294 C268 0.977 . S
H295 C269 0.979 . S
H296 C269 0.980 . S
H297 C269 0.983 . S
H298 C242 0.947 . S
C299 C242 1.392 . S
C299 C243 1.419 . S
C299 H281 0.948 . S
C300 C301 1.391 . S
C300 C304 1.391 . S
C300 H342 0.948 . S
C301 C300 1.391 . S
C301 C302 1.391 . S
C302 C301 1.391 . S
C302 H358 0.947 . S
C302 C359 1.392 . S
C303 C304 1.391 . S
C303 C307 1.397 1_565 S
C303 C359 1.419 . S
C304 C300 1.391 . S
C304 C303 1.391 . S
C304 C305 1.399 1_565 S
C305 C304 1.399 1_545 S
C305 C308 1.396 . S
C305 C317 1.453 . S
C305 C318 1.684 . S
H306 C330 0.948 . S
C307 C303 1.397 1_545 S
C307 C308 1.394 . S
C307 C326 1.723 . S
C308 C305 1.396 . S
C308 C307 1.394 . S
C308 C338 1.723 . S
H309 C332 0.947 . S
H310 C333 0.948 . S
H311 C339 0.982 . S
H312 C340 0.979 . S
H313 C340 0.980 . S
H314 C340 0.983 . S
H315 C339 0.979 . S
H316 C339 0.977 . S
C317 C305 1.453 . S
C317 H346 0.982 . S
C317 H347 0.979 . S
C317 H348 0.977 . S
C318 C305 1.684 . S
C318 H343 0.979 . S
C318 H344 0.980 . S
C318 H345 0.983 . S
C319 C320 1.391 . S
C319 C324 1.391 . S
C319 H349 0.948 . S
C320 C319 1.391 . S
C320 C321 1.391 . S
C321 C320 1.391 . S
C321 C322 1.392 . S
C321 H350 0.947 . S
C322 C321 1.392 . S
C322 C323 1.419 . S
C322 H351 0.948 . S
C323 C322 1.419 . S
C323 C324 1.391 . S
C323 C327 1.397 . S
C324 C319 1.391 . S
C324 C323 1.391 . S
C324 C325 1.399 . S
C325 C324 1.399 . S
C325 C326 1.396 . S
C325 C328 1.453 1_545 S
C325 C329 1.684 1_545 S
C326 C307 1.723 . S
C326 C325 1.396 . S
C326 C327 1.394 . S
C327 C323 1.397 . S
C327 C326 1.394 . S
C327 C337 1.723 . S
C328 C325 1.453 1_565 S
C328 H352 0.982 1_565 S
C328 H353 0.979 . S
C328 H354 0.977 . S
C329 C325 1.684 1_565 S
C329 H355 0.979 . S
C329 H356 0.980 . S
C329 H357 0.983 . S
C330 H306 0.948 . S
C330 C331 1.391 . S
C330 C335 1.391 . S
C331 C330 1.391 . S
C331 C332 1.391 . S
C332 H309 0.947 . S
C332 C331 1.391 . S
C332 C333 1.392 . S
C333 H310 0.948 . S
C333 C332 1.392 . S
C333 C334 1.419 . S
C334 C333 1.419 . S
C334 C335 1.391 . S
C334 C338 1.397 . S
C335 C330 1.391 . S
C335 C334 1.391 . S
C335 C336 1.399 . S
C336 C335 1.399 . S
C336 C337 1.396 . S
C336 C339 1.453 . S
C336 C340 1.684 . S
C337 C327 1.723 . S
C337 C336 1.396 . S
C337 C338 1.394 . S
C338 C308 1.723 . S
C338 C334 1.397 . S
C338 C337 1.394 . S
C339 H311 0.982 . S
C339 H315 0.979 . S
C339 H316 0.977 . S
C339 C336 1.453 . S
C340 H312 0.979 . S
C340 H313 0.980 . S
C340 H314 0.983 . S
C340 C336 1.684 . S
H341 C359 0.948 . S
H342 C300 0.948 . S
H343 C318 0.979 . S
H344 C318 0.980 . S
H345 C318 0.983 . S
H346 C317 0.982 . S
H347 C317 0.979 . S
H348 C317 0.977 . S
H349 C319 0.948 . S
H350 C321 0.947 . S
H351 C322 0.948 . S
H352 C328 0.982 1_545 S
H353 C328 0.979 . S
H354 C328 0.977 . S
H355 C329 0.979 . S
H356 C329 0.980 . S
H357 C329 0.983 . S
H358 C302 0.947 . S
C359 C302 1.392 . S
C359 C303 1.419 . S
C359 H341 0.948 . S
C360 C361 1.391 . S
C360 C364 1.391 . S
C360 H402 0.948 . S
C361 C360 1.391 . S
C361 C362 1.391 . S
C362 C361 1.391 . S
C362 H418 0.947 . S
C362 C419 1.392 . S
C363 C364 1.391 . S
C363 C367 1.397 . S
C363 C419 1.419 . S
C364 C360 1.391 . S
C364 C363 1.391 . S
C364 C365 1.399 . S
C365 C364 1.399 . S
C365 C368 1.396 . S
C365 C377 1.453 . S
C365 C378 1.684 . S
H366 C390 0.948 . S
C367 C363 1.397 . S
C367 C368 1.394 . S
C367 C386 1.723 . S
C368 C365 1.396 . S
C368 C367 1.394 . S
C368 C398 1.723 . S
H369 C392 0.947 . S
H370 C393 0.948 . S
H371 C399 0.982 . S
H372 C400 0.979 . S
H373 C400 0.980 . S
H374 C400 0.983 . S
H375 C399 0.979 . S
H376 C399 0.977 . S
C377 C365 1.453 . S
C377 H406 0.982 . S
C377 H407 0.979 . S
C377 H408 0.977 . S
C378 C365 1.684 . S
C378 H403 0.979 . S
C378 H404 0.980 . S
C378 H405 0.983 . S
C379 C380 1.391 . S
C379 C384 1.391 . S
C379 H409 0.948 . S
C380 C379 1.391 . S
C380 C381 1.391 . S
C381 C380 1.391 . S
C381 C382 1.392 . S
C381 H410 0.947 . S
C382 C381 1.392 . S
C382 C383 1.419 . S
C382 H411 0.948 . S
C383 C382 1.419 . S
C383 C384 1.391 . S
C383 C387 1.397 . S
C384 C379 1.391 . S
C384 C383 1.391 . S
C384 C385 1.399 . S
C385 C384 1.399 . S
C385 C386 1.396 . S
C385 C388 1.453 . S
C385 C389 1.684 . S
C386 C367 1.723 . S
C386 C385 1.396 . S
C386 C387 1.394 . S
C387 C383 1.397 . S
C387 C386 1.394 . S
C387 C397 1.723 . S
C388 C385 1.453 . S
C388 H412 0.982 . S
C388 H413 0.979 . S
C388 H414 0.977 . S
C389 C385 1.684 . S
C389 H415 0.979 . S
C389 H416 0.980 . S
C389 H417 0.983 . S
C390 H366 0.948 . S
C390 C391 1.391 . S
C390 C395 1.391 . S
C391 C390 1.391 . S
C391 C392 1.391 . S
C392 H369 0.947 . S
C392 C391 1.391 . S
C392 C393 1.392 . S
C393 H370 0.948 . S
C393 C392 1.392 . S
C393 C394 1.419 . S
C394 C393 1.419 . S
C394 C395 1.391 . S
C394 C398 1.397 . S
C395 C390 1.391 . S
C395 C394 1.391 . S
C395 C396 1.399 . S
C396 C395 1.399 . S
C396 C397 1.396 . S
C396 C399 1.453 . S
C396 C400 1.684 . S
C397 C387 1.723 . S
C397 C396 1.396 . S
C397 C398 1.394 . S
C398 C368 1.723 . S
C398 C394 1.397 . S
C398 C397 1.394 . S
C399 H371 0.982 . S
C399 H375 0.979 . S
C399 H376 0.977 . S
C399 C396 1.453 . S
C400 H372 0.979 . S
C400 H373 0.980 . S
C400 H374 0.983 . S
C400 C396 1.684 . S
H401 C419 0.948 . S
H402 C360 0.948 . S
H403 C378 0.979 . S
H404 C378 0.980 . S
H405 C378 0.983 . S
H406 C377 0.982 . S
H407 C377 0.979 . S
H408 C377 0.977 . S
H409 C379 0.948 . S
H410 C381 0.947 . S
H411 C382 0.948 . S
H412 C388 0.982 . S
H413 C388 0.979 . S
H414 C388 0.977 . S
H415 C389 0.979 . S
H416 C389 0.980 . S
H417 C389 0.983 . S
H418 C362 0.947 . S
C419 C362 1.392 . S
C419 C363 1.419 . S
C419 H401 0.948 . S
H420 C428 0.950 . S
H421 C433 0.950 . S
H422 C430 0.950 . S
H423 C432 0.950 . S
H424 C434 0.950 . S
H425 C436 0.950 . S
H426 C438 0.950 . S
H427 C439 0.950 . S
C428 H420 0.950 . S
C428 C429 1.386 . S
C428 C430 1.391 . S
C429 C428 1.386 . S
C429 C433 1.393 . S
C430 H422 0.950 . S
C430 C428 1.391 . S
C430 C431 1.400 . S
C431 C430 1.400 . S
C431 C432 1.398 . S
C431 C437 1.491 . S
C432 H423 0.950 . S
C432 C431 1.398 . S
C432 C433 1.391 . S
C433 H421 0.950 . S
C433 C429 1.393 . S
C433 C432 1.391 . S
C434 H424 0.950 . S
C434 C435 1.386 . S
C434 C436 1.391 . S
C435 C434 1.386 . S
C435 C439 1.393 . S
C436 H425 0.950 . S
C436 C434 1.391 . S
C436 C437 1.400 . S
C437 C431 1.491 . S
C437 C436 1.400 . S
C437 C438 1.398 . S
C438 H426 0.950 . S
C438 C437 1.398 . S
C438 C439 1.391 . S
C439 H427 0.950 . S
C439 C435 1.393 . S
C439 C438 1.391 . S
H440 C448 0.950 . S
H441 C453 0.950 . S
H442 C450 0.950 . S
H443 C452 0.950 . S
H444 C454 0.950 . S
H445 C456 0.950 . S
H446 C458 0.950 . S
H447 C459 0.950 . S
C448 H440 0.950 . S
C448 C449 1.386 . S
C448 C450 1.391 . S
C449 C448 1.386 . S
C449 C453 1.393 . S
C450 H442 0.950 . S
C450 C448 1.391 . S
C450 C451 1.400 . S
C451 C450 1.400 . S
C451 C452 1.398 . S
C451 C457 1.491 . S
C452 H443 0.950 . S
C452 C451 1.398 . S
C452 C453 1.391 . S
C453 H441 0.950 . S
C453 C449 1.393 . S
C453 C452 1.391 . S
C454 H444 0.950 . S
C454 C455 1.386 . S
C454 C456 1.391 . S
C455 C454 1.386 . S
C455 C459 1.393 . S
C456 H445 0.950 . S
C456 C454 1.391 . S
C456 C457 1.400 . S
C457 C451 1.491 . S
C457 C456 1.400 . S
C457 C458 1.398 . S
C458 H446 0.950 . S
C458 C457 1.398 . S
C458 C459 1.391 . S
C459 H447 0.950 . S
C459 C455 1.393 . S
C459 C458 1.391 . S
H460 C468 0.950 . S
H461 C473 0.950 . S
H462 C470 0.950 . S
H463 C472 0.950 . S
H464 C474 0.950 . S
H465 C476 0.950 . S
H466 C478 0.950 . S
H467 C479 0.950 . S
C468 H460 0.950 . S
C468 C469 1.386 . S
C468 C470 1.391 . S
C469 C468 1.386 . S
C469 C473 1.393 . S
C470 H462 0.950 . S
C470 C468 1.391 . S
C470 C471 1.400 . S
C471 C470 1.400 . S
C471 C472 1.398 . S
C471 C477 1.491 . S
C472 H463 0.950 . S
C472 C471 1.398 . S
C472 C473 1.391 . S
C473 H461 0.950 . S
C473 C469 1.393 . S
C473 C472 1.391 . S
C474 H464 0.950 . S
C474 C475 1.386 . S
C474 C476 1.391 . S
C475 C474 1.386 . S
C475 C479 1.393 . S
C476 H465 0.950 . S
C476 C474 1.391 . S
C476 C477 1.400 . S
C477 C471 1.491 . S
C477 C476 1.400 . S
C477 C478 1.398 . S
C478 H466 0.950 . S
C478 C477 1.398 . S
C478 C479 1.391 . S
C479 H467 0.950 . S
C479 C475 1.393 . S
C479 C478 1.391 . S
H480 C488 0.950 . S
H481 C493 0.950 . S
H482 C490 0.950 . S
H483 C492 0.950 . S
H484 C494 0.950 . S
H485 C496 0.950 . S
H486 C498 0.950 . S
H487 C499 0.950 . S
C488 H480 0.950 . S
C488 C489 1.386 . S
C488 C490 1.391 . S
C489 C488 1.386 . S
C489 C493 1.393 . S
C490 H482 0.950 . S
C490 C488 1.391 . S
C490 C491 1.400 . S
C491 C490 1.400 . S
C491 C492 1.398 . S
C491 C497 1.491 . S
C492 H483 0.950 . S
C492 C491 1.398 . S
C492 C493 1.391 . S
C493 H481 0.950 . S
C493 C489 1.393 . S
C493 C492 1.391 . S
C494 H484 0.950 . S
C494 C495 1.386 . S
C494 C496 1.391 . S
C495 C494 1.386 . S
C495 C499 1.393 . S
C496 H485 0.950 . S
C496 C494 1.391 . S
C496 C497 1.400 . S
C497 C491 1.491 . S
C497 C496 1.400 . S
C497 C498 1.398 . S
C498 H486 0.950 . S
C498 C497 1.398 . S
C498 C499 1.391 . S
C499 H487 0.950 . S
C499 C495 1.393 . S
C499 C498 1.391 . S
H500 C508 0.950 . S
H501 C513 0.950 . S
H502 C510 0.950 . S
H503 C512 0.950 . S
H504 C514 0.950 . S
H505 C516 0.950 . S
H506 C518 0.950 . S
H507 C519 0.950 . S
C508 H500 0.950 . S
C508 C509 1.386 . S
C508 C510 1.391 . S
C509 C508 1.386 . S
C509 C513 1.393 . S
C510 H502 0.950 . S
C510 C508 1.391 . S
C510 C511 1.400 . S
C511 C510 1.400 . S
C511 C512 1.398 . S
C511 C517 1.491 . S
C512 H503 0.950 . S
C512 C511 1.398 . S
C512 C513 1.391 . S
C513 H501 0.950 . S
C513 C509 1.393 . S
C513 C512 1.391 . S
C514 H504 0.950 . S
C514 C515 1.386 . S
C514 C516 1.391 . S
C515 C514 1.386 . S
C515 C519 1.393 . S
C516 H505 0.950 . S
C516 C514 1.391 . S
C516 C517 1.400 . S
C517 C511 1.491 . S
C517 C516 1.400 . S
C517 C518 1.398 . S
C518 H506 0.950 . S
C518 C517 1.398 . S
C518 C519 1.391 . S
C519 H507 0.950 . S
C519 C515 1.393 . S
C519 C518 1.391 . S
H520 C528 0.950 . S
H521 C533 0.950 . S
H522 C530 0.950 . S
H523 C532 0.950 . S
H524 C534 0.950 . S
H525 C536 0.950 . S
H526 C538 0.950 . S
H527 C539 0.950 . S
C528 H520 0.950 . S
C528 C529 1.386 . S
C528 C530 1.391 . S
C529 C528 1.386 . S
C529 C533 1.393 . S
C530 H522 0.950 . S
C530 C528 1.391 . S
C530 C531 1.400 . S
C531 C530 1.400 . S
C531 C532 1.398 . S
C531 C537 1.491 . S
C532 H523 0.950 . S
C532 C531 1.398 . S
C532 C533 1.391 . S
C533 H521 0.950 . S
C533 C529 1.393 . S
C533 C532 1.391 . S
C534 H524 0.950 . S
C534 C535 1.386 . S
C534 C536 1.391 . S
C535 C534 1.386 . S
C535 C539 1.393 . S
C536 H525 0.950 . S
C536 C534 1.391 . S
C536 C537 1.400 . S
C537 C531 1.491 . S
C537 C536 1.400 . S
C537 C538 1.398 . S
C538 H526 0.950 . S
C538 C537 1.398 . S
C538 C539 1.391 . S
C539 H527 0.950 . S
C539 C535 1.393 . S
C539 C538 1.391 . S
H540 C548 0.950 . S
H541 C553 0.950 . S
H542 C550 0.950 . S
H543 C552 0.950 . S
H544 C554 0.950 . S
H545 C556 0.950 . S
H546 C558 0.950 . S
H547 C559 0.950 . S
C548 H540 0.950 . S
C548 C549 1.386 . S
C548 C550 1.391 . S
C549 C548 1.386 . S
C549 C553 1.393 . S
C550 H542 0.950 . S
C550 C548 1.391 . S
C550 C551 1.400 . S
C551 C550 1.400 . S
C551 C552 1.398 . S
C551 C557 1.491 . S
C552 H543 0.950 . S
C552 C551 1.398 . S
C552 C553 1.391 . S
C553 H541 0.950 . S
C553 C549 1.393 . S
C553 C552 1.391 . S
C554 H544 0.950 . S
C554 C555 1.386 . S
C554 C556 1.391 . S
C555 C554 1.386 . S
C555 C559 1.393 . S
C556 H545 0.950 . S
C556 C554 1.391 . S
C556 C557 1.400 . S
C557 C551 1.491 . S
C557 C556 1.400 . S
C557 C558 1.398 . S
C558 H546 0.950 . S
C558 C557 1.398 . S
C558 C559 1.391 . S
C559 H547 0.950 . S
C559 C555 1.393 . S
C559 C558 1.391 . S
H560 C568 0.950 . S
H561 C573 0.950 . S
H562 C570 0.950 . S
H563 C572 0.950 . S
H564 C574 0.950 . S
H565 C576 0.950 . S
H566 C578 0.950 . S
H567 C579 0.950 . S
C568 H560 0.950 . S
C568 C569 1.386 . S
C568 C570 1.391 . S
C569 C568 1.386 . S
C569 C573 1.393 . S
C570 H562 0.950 . S
C570 C568 1.391 . S
C570 C571 1.400 . S
C571 C570 1.400 . S
C571 C572 1.398 . S
C571 C577 1.491 . S
C572 H563 0.950 . S
C572 C571 1.398 . S
C572 C573 1.391 . S
C573 H561 0.950 . S
C573 C569 1.393 . S
C573 C572 1.391 . S
C574 H564 0.950 . S
C574 C575 1.386 . S
C574 C576 1.391 . S
C575 C574 1.386 . S
C575 C579 1.393 . S
C576 H565 0.950 . S
C576 C574 1.391 . S
C576 C577 1.400 . S
C577 C571 1.491 . S
C577 C576 1.400 . S
C577 C578 1.398 . S
C578 H566 0.950 . S
C578 C577 1.398 . S
C578 C579 1.391 . S
C579 H567 0.950 . S
C579 C575 1.393 . S
C579 C578 1.391 . S
H580 C588 0.950 . S
H581 C593 0.950 . S
H582 C590 0.950 . S
H583 C592 0.950 . S
H584 C594 0.950 . S
H585 C596 0.950 . S
H586 C598 0.950 . S
H587 C599 0.950 . S
C588 H580 0.950 . S
C588 C589 1.386 . S
C588 C590 1.391 . S
C589 C588 1.386 . S
C589 C593 1.393 . S
C590 H582 0.950 . S
C590 C588 1.391 . S
C590 C591 1.400 . S
C591 C590 1.400 . S
C591 C592 1.398 . S
C591 C597 1.491 . S
C592 H583 0.950 . S
C592 C591 1.398 . S
C592 C593 1.391 . S
C593 H581 0.950 . S
C593 C589 1.393 . S
C593 C592 1.391 . S
C594 H584 0.950 . S
C594 C595 1.386 . S
C594 C596 1.391 . S
C595 C594 1.386 . S
C595 C599 1.393 . S
C596 H585 0.950 . S
C596 C594 1.391 . S
C596 C597 1.400 . S
C597 C591 1.491 . S
C597 C596 1.400 . S
C597 C598 1.398 . S
C598 H586 0.950 . S
C598 C597 1.398 . S
C598 C599 1.391 . S
C599 H587 0.950 . S
C599 C595 1.393 . S
C599 C598 1.391 . S
H600 C608 0.950 . S
H601 C613 0.950 . S
H602 C610 0.950 . S
H603 C612 0.950 . S
H604 C614 0.950 . S
H605 C616 0.950 . S
H606 C618 0.950 . S
H607 C619 0.950 . S
C608 H600 0.950 . S
C608 C609 1.386 . S
C608 C610 1.391 . S
C609 C608 1.386 . S
C609 C613 1.393 . S
C610 H602 0.950 . S
C610 C608 1.391 . S
C610 C611 1.400 . S
C611 C610 1.400 . S
C611 C612 1.398 . S
C611 C617 1.491 . S
C612 H603 0.950 . S
C612 C611 1.398 . S
C612 C613 1.391 . S
C613 H601 0.950 . S
C613 C609 1.393 . S
C613 C612 1.391 . S
C614 H604 0.950 . S
C614 C615 1.386 . S
C614 C616 1.391 . S
C615 C614 1.386 . S
C615 C619 1.393 . S
C616 H605 0.950 . S
C616 C614 1.391 . S
C616 C617 1.400 . S
C617 C611 1.491 . S
C617 C616 1.400 . S
C617 C618 1.398 . S
C618 H606 0.950 . S
C618 C617 1.398 . S
C618 C619 1.391 . S
C619 H607 0.950 . S
C619 C615 1.393 . S
C619 C618 1.391 . S
H620 C628 0.950 . S
H621 C633 0.950 . S
H622 C630 0.950 . S
H623 C632 0.950 . S
H624 C634 0.950 . S
H625 C636 0.950 . S
H626 C638 0.950 . S
H627 C639 0.950 . S
C628 H620 0.950 . S
C628 C629 1.386 . S
C628 C630 1.391 . S
C629 C628 1.386 . S
C629 C633 1.393 . S
C630 H622 0.950 . S
C630 C628 1.391 . S
C630 C631 1.400 . S
C631 C630 1.400 . S
C631 C632 1.398 . S
C631 C637 1.491 . S
C632 H623 0.950 . S
C632 C631 1.398 . S
C632 C633 1.391 . S
C633 H621 0.950 . S
C633 C629 1.393 . S
C633 C632 1.391 . S
C634 H624 0.950 . S
C634 C635 1.386 . S
C634 C636 1.391 . S
C635 C634 1.386 . S
C635 C639 1.393 . S
C636 H625 0.950 . S
C636 C634 1.391 . S
C636 C637 1.400 . S
C637 C631 1.491 . S
C637 C636 1.400 . S
C637 C638 1.398 . S
C638 H626 0.950 . S
C638 C637 1.398 . S
C638 C639 1.391 . S
C639 H627 0.950 . S
C639 C635 1.393 . S
C639 C638 1.391 . S
H640 C648 0.950 . S
H641 C653 0.950 . S
H642 C650 0.950 . S
H643 C652 0.950 . S
H644 C654 0.950 . S
H645 C656 0.950 . S
H646 C658 0.950 . S
H647 C659 0.950 . S
C648 H640 0.950 . S
C648 C649 1.386 . S
C648 C650 1.391 . S
C649 C648 1.386 . S
C649 C653 1.393 . S
C650 H642 0.950 . S
C650 C648 1.391 . S
C650 C651 1.400 . S
C651 C650 1.400 . S
C651 C652 1.398 . S
C651 C657 1.491 . S
C652 H643 0.950 . S
C652 C651 1.398 . S
C652 C653 1.391 . S
C653 H641 0.950 . S
C653 C649 1.393 . S
C653 C652 1.391 . S
C654 H644 0.950 . S
C654 C655 1.386 . S
C654 C656 1.391 . S
C655 C654 1.386 . S
C655 C659 1.393 . S
C656 H645 0.950 . S
C656 C654 1.391 . S
C656 C657 1.400 . S
C657 C651 1.491 . S
C657 C656 1.400 . S
C657 C658 1.398 . S
C658 H646 0.950 . S
C658 C657 1.398 . S
C658 C659 1.391 . S
C659 H647 0.950 . S
C659 C655 1.393 . S
C659 C658 1.391 . S
H660 C668 0.950 . S
H661 C673 0.950 . S
H662 C670 0.950 . S
H663 C672 0.950 . S
H664 C674 0.953 1_556 S
H665 C676 0.950 . S
H666 C678 0.950 . S
H667 C679 0.950 . S
C668 H660 0.950 . S
C668 C669 1.386 . S
C668 C670 1.391 . S
C669 C668 1.386 . S
C669 C673 1.393 . S
C670 H662 0.950 . S
C670 C668 1.391 . S
C670 C671 1.400 . S
C671 C670 1.400 . S
C671 C672 1.398 . S
C671 C677 1.491 . S
C672 H663 0.950 . S
C672 C671 1.398 . S
C672 C673 1.391 . S
C673 H661 0.950 . S
C673 C669 1.393 . S
C673 C672 1.391 . S
C674 H664 0.953 1_554 S
C674 C675 1.368 1_554 S
C674 C676 1.391 . S
C675 C674 1.368 1_556 S
C675 C679 1.368 1_556 S
C676 H665 0.950 . S
C676 C674 1.391 . S
C676 C677 1.400 . S
C677 C671 1.491 . S
C677 C676 1.400 . S
C677 C678 1.398 . S
C678 H666 0.950 . S
C678 C677 1.398 . S
C678 C679 1.391 . S
C679 H667 0.950 . S
C679 C675 1.368 1_554 S
C679 C678 1.391 . S
H680 C688 0.950 . S
H681 C693 0.950 1_565 S
H682 C690 0.950 . S
H683 C692 0.950 1_565 S
H684 C694 0.950 1_565 S
H685 C696 0.950 1_565 S
H686 C698 0.950 . S
H687 C699 0.950 . S
C688 H680 0.950 . S
C688 C689 1.386 . S
C688 C690 1.391 . S
C689 C688 1.386 . S
C689 C693 1.393 . S
C690 H682 0.950 . S
C690 C688 1.391 . S
C690 C691 1.400 . S
C691 C690 1.400 . S
C691 C692 1.398 . S
C691 C697 1.491 . S
C692 H683 0.950 1_545 S
C692 C691 1.398 . S
C692 C693 1.391 . S
C693 H681 0.950 1_545 S
C693 C689 1.393 . S
C693 C692 1.391 . S
C694 H684 0.950 1_545 S
C694 C695 1.386 . S
C694 C696 1.391 . S
C695 C694 1.386 . S
C695 C699 1.393 . S
C696 H685 0.950 1_545 S
C696 C694 1.391 . S
C696 C697 1.400 . S
C697 C691 1.491 . S
C697 C696 1.400 . S
C697 C698 1.398 . S
C698 H686 0.950 . S
C698 C697 1.398 . S
C698 C699 1.391 . S
C699 H687 0.950 . S
C699 C695 1.393 . S
C699 C698 1.391 . S
H700 C708 0.950 . S
H701 C713 0.950 . S
H702 C710 0.950 . S
H703 C712 0.950 . S
H704 C714 0.950 . S
H705 C716 0.950 . S
H706 C718 0.950 . S
H707 C719 0.950 . S
C708 H700 0.950 . S
C708 C709 1.386 . S
C708 C710 1.391 . S
C709 C708 1.386 . S
C709 C713 1.393 . S
C710 H702 0.950 . S
C710 C708 1.391 . S
C710 C711 1.400 . S
C711 C710 1.400 . S
C711 C712 1.398 . S
C711 C717 1.491 . S
C712 H703 0.950 . S
C712 C711 1.398 . S
C712 C713 1.391 . S
C713 H701 0.950 . S
C713 C709 1.393 . S
C713 C712 1.391 . S
C714 H704 0.950 . S
C714 C715 1.386 . S
C714 C716 1.391 . S
C715 C714 1.386 . S
C715 C719 1.393 . S
C716 H705 0.950 . S
C716 C714 1.391 . S
C716 C717 1.400 . S
C717 C711 1.491 . S
C717 C716 1.400 . S
C717 C718 1.398 . S
C718 H706 0.950 . S
C718 C717 1.398 . S
C718 C719 1.391 . S
C719 H707 0.950 . S
C719 C715 1.393 . S
C719 C718 1.391 . S
H720 C728 0.950 . S
H721 C733 0.950 . S
H722 C730 0.950 . S
H723 C732 0.950 . S
H724 C734 0.950 . S
H725 C736 0.950 . S
H726 C738 0.950 . S
H727 C739 0.950 . S
C728 H720 0.950 . S
C728 C729 1.386 . S
C728 C730 1.391 . S
C729 C728 1.386 . S
C729 C733 1.393 . S
C730 H722 0.950 . S
C730 C728 1.391 . S
C730 C731 1.400 . S
C731 C730 1.400 . S
C731 C732 1.398 . S
C731 C737 1.491 . S
C732 H723 0.950 . S
C732 C731 1.398 . S
C732 C733 1.391 . S
C733 H721 0.950 . S
C733 C729 1.393 . S
C733 C732 1.391 . S
C734 H724 0.950 . S
C734 C735 1.386 . S
C734 C736 1.391 . S
C735 C734 1.386 . S
C735 C739 1.393 . S
C736 H725 0.950 . S
C736 C734 1.391 . S
C736 C737 1.400 . S
C737 C731 1.491 . S
C737 C736 1.400 . S
C737 C738 1.398 . S
C738 H726 0.950 . S
C738 C737 1.398 . S
C738 C739 1.391 . S
C739 H727 0.950 . S
C739 C735 1.393 . S
C739 C738 1.391 . S
H740 C748 0.950 . S
H741 C753 0.950 . S
H742 C750 0.950 . S
H743 C752 0.950 . S
H744 C754 0.950 1_554 S
H745 C756 0.950 . S
H746 C758 0.950 . S
H747 C759 0.950 . S
C748 H740 0.950 . S
C748 C749 1.386 . S
C748 C750 1.391 . S
C749 C748 1.386 . S
C749 C753 1.393 . S
C750 H742 0.950 . S
C750 C748 1.391 . S
C750 C751 1.400 . S
C751 C750 1.400 . S
C751 C752 1.398 . S
C751 C757 1.491 . S
C752 H743 0.950 . S
C752 C751 1.398 . S
C752 C753 1.391 . S
C753 H741 0.950 . S
C753 C749 1.393 . S
C753 C752 1.391 . S
C754 H744 0.950 1_556 S
C754 C755 1.386 1_556 S
C754 C756 1.391 . S
C755 C754 1.386 1_554 S
C755 C759 1.393 1_554 S
C756 H745 0.950 . S
C756 C754 1.391 . S
C756 C757 1.400 . S
C757 C751 1.491 . S
C757 C756 1.400 . S
C757 C758 1.398 . S
C758 H746 0.950 . S
C758 C757 1.398 . S
C758 C759 1.391 . S
C759 H747 0.950 . S
C759 C755 1.393 1_556 S
C759 C758 1.391 . S
H760 C768 0.950 . S
H761 C773 0.950 . S
H762 C770 0.950 . S
H763 C772 0.950 . S
H764 C774 0.950 . S
H765 C776 0.950 . S
H766 C778 0.950 . S
H767 C779 0.950 . S
C768 H760 0.950 . S
C768 C769 1.386 . S
C768 C770 1.391 . S
C769 C768 1.386 . S
C769 C773 1.393 . S
C770 H762 0.950 . S
C770 C768 1.391 . S
C770 C771 1.400 . S
C771 C770 1.400 . S
C771 C772 1.398 . S
C771 C777 1.491 . S
C772 H763 0.950 . S
C772 C771 1.398 . S
C772 C773 1.391 . S
C773 H761 0.950 . S
C773 C769 1.393 . S
C773 C772 1.391 . S
C774 H764 0.950 . S
C774 C775 1.386 . S
C774 C776 1.391 . S
C775 C774 1.386 . S
C775 C779 1.393 . S
C776 H765 0.950 . S
C776 C774 1.391 . S
C776 C777 1.400 . S
C777 C771 1.491 . S
C777 C776 1.400 . S
C777 C778 1.398 . S
C778 H766 0.950 . S
C778 C777 1.398 . S
C778 C779 1.391 . S
C779 H767 0.950 . S
C779 C775 1.393 . S
C779 C778 1.391 . S
C429 C2 1.086 . S
C435 C391 1.098 . S
C449 C21 1.025 . S
C455 C241 1.008 . S
C469 C42 1.084 . S
C475 C301 1.051 . S
C489 C1 1.039 . S
C495 C361 0.972 . S
C515 C271 1.094 . S
C509 C22 1.093 . S
C535 C331 1.033 . S
C529 C41 1.031 . S
C549 C38 1.896 . S
C555 C121 1.786 . S
C569 C59 1.965 . S
C575 C211 1.962 . S
C589 C18 1.898 . S
C595 C91 1.903 . S
C615 C151 1.955 . S
C609 C39 1.962 . S
C635 C181 1.778 . S
C629 C58 1.900 . S
C649 C19 1.966 . S
C655 C61 1.824 . S
C675 C200 1.584 . S
C669 C9 1.513 . S
C689 C29 1.505 . S
C695 C80 1.543 . S
C709 C49 1.511 . S
C715 C140 1.544 . S
C735 C320 1.353 . S
C729 C28 1.354 . S
C755 C380 1.360 . S
C749 C48 1.359 . S
C769 C8 1.361 . S
C775 C260 1.362 . S
