# Generated by pormake.
# Topology zzz, (3,6)-cn, num edge types: 1
# Building blocks:
#     Node 0, Type 0, BuildingBlock: KAKCAD_clean_linker_0, # of connection points: 3
#     Node 1, Type 0, BuildingBlock: KAKCAD_clean_linker_0, # of connection points: 3
#     Node 2, Type 0, BuildingBlock: KAKCAD_clean_linker_0, # of connection points: 3
#     Node 3, Type 0, BuildingBlock: KAKCAD_clean_linker_0, # of connection points: 3
#     Node 4, Type 0, BuildingBlock: KAKCAD_clean_linker_0, # of connection points: 3
#     Node 5, Type 0, BuildingBlock: KAKCAD_clean_linker_0, # of connection points: 3
#     Node 6, Type 0, BuildingBlock: KAKCAD_clean_linker_0, # of connection points: 3
#     Node 7, Type 0, BuildingBlock: KAKCAD_clean_linker_0, # of connection points: 3
#     Node 8, Type 1, BuildingBlock: CUWYAW_clean_sbu_0, # of connection points: 6
#     Node 9, Type 1, BuildingBlock: CUWYAW_clean_sbu_0, # of connection points: 6
#     Node 10, Type 1, BuildingBlock: CUWYAW_clean_sbu_0, # of connection points: 6
#     Node 11, Type 1, BuildingBlock: CUWYAW_clean_sbu_0, # of connection points: 6
#     Edge 12, Type (0, 1), BuildingBlock: UVAHIK_clean_linker_0, # of connection points: 2
#     Edge 13, Type (0, 1), BuildingBlock: UVAHIK_clean_linker_0, # of connection points: 2
#     Edge 14, Type (0, 1), BuildingBlock: UVAHIK_clean_linker_0, # of connection points: 2
#     Edge 15, Type (0, 1), BuildingBlock: UVAHIK_clean_linker_0, # of connection points: 2
#     Edge 16, Type (0, 1), BuildingBlock: UVAHIK_clean_linker_0, # of connection points: 2
#     Edge 17, Type (0, 1), BuildingBlock: UVAHIK_clean_linker_0, # of connection points: 2
#     Edge 18, Type (0, 1), BuildingBlock: UVAHIK_clean_linker_0, # of connection points: 2
#     Edge 19, Type (0, 1), BuildingBlock: UVAHIK_clean_linker_0, # of connection points: 2
#     Edge 20, Type (0, 1), BuildingBlock: UVAHIK_clean_linker_0, # of connection points: 2
#     Edge 21, Type (0, 1), BuildingBlock: UVAHIK_clean_linker_0, # of connection points: 2
#     Edge 22, Type (0, 1), BuildingBlock: UVAHIK_clean_linker_0, # of connection points: 2
#     Edge 23, Type (0, 1), BuildingBlock: UVAHIK_clean_linker_0, # of connection points: 2
#     Edge 24, Type (0, 1), BuildingBlock: UVAHIK_clean_linker_0, # of connection points: 2
#     Edge 25, Type (0, 1), BuildingBlock: UVAHIK_clean_linker_0, # of connection points: 2
#     Edge 26, Type (0, 1), BuildingBlock: UVAHIK_clean_linker_0, # of connection points: 2
#     Edge 27, Type (0, 1), BuildingBlock: UVAHIK_clean_linker_0, # of connection points: 2
#     Edge 28, Type (0, 1), BuildingBlock: UVAHIK_clean_linker_0, # of connection points: 2
#     Edge 29, Type (0, 1), BuildingBlock: UVAHIK_clean_linker_0, # of connection points: 2
#     Edge 30, Type (0, 1), BuildingBlock: UVAHIK_clean_linker_0, # of connection points: 2
#     Edge 31, Type (0, 1), BuildingBlock: UVAHIK_clean_linker_0, # of connection points: 2
#     Edge 32, Type (0, 1), BuildingBlock: UVAHIK_clean_linker_0, # of connection points: 2
#     Edge 33, Type (0, 1), BuildingBlock: UVAHIK_clean_linker_0, # of connection points: 2
#     Edge 34, Type (0, 1), BuildingBlock: UVAHIK_clean_linker_0, # of connection points: 2
#     Edge 35, Type (0, 1), BuildingBlock: UVAHIK_clean_linker_0, # of connection points: 2
# Relax obj value: 0.391
# Max RMSD: 0.252
# Mean RMSD: 0.228
data_MOF--net-zzz--node1-CUWYAW_clean_sbu_0--node2-KAKCAD_clean_linker_0--edge1-UVAHIK_clean_linker_0
_symmetry_space_group_name_H-M    P1
_symmetry_Int_Tables_number       1
_symmetry_cell_setting            triclinic
loop_
_symmetry_equiv_pos_as_xyz
'x, y, z'
_cell_length_a     73.568345
_cell_length_b     73.598062
_cell_length_c     23.66263
_cell_angle_alpha  89.952923
_cell_angle_beta   89.870106
_cell_angle_gamma 90.008075
loop_
_atom_site_label
_atom_site_type_symbol
_atom_site_fract_x
_atom_site_fract_y
_atom_site_fract_z
_atom_type_partial_charge
C0 C 0.75277 0.4508 0.06149 0.0
C1 C 0.76684 0.43902 0.0781 0.0
C2 C 0.74348 0.46124 0.10144 0.0
C3 C 0.74771 0.45986 0.15926 0.0
C4 C 0.76062 0.44689 0.17626 0.0
C5 C 0.7702 0.43674 0.13621 0.0
C6 C 0.73993 0.47301 0.20067 0.0
C7 C 0.72229 0.47988 0.19395 0.0
C8 C 0.71575 0.49394 0.2285 0.0
C9 C 0.72685 0.50099 0.27167 0.0
C10 C 0.74423 0.49353 0.28087 0.0
C11 C 0.75067 0.47981 0.24482 0.0
C12 C 0.75636 0.4998 0.32687 0.0
C13 C 0.76351 0.51748 0.3268 0.0
C14 C 0.76323 0.48704 0.36546 0.0
C15 C 0.77763 0.49151 0.4012 0.0
C16 C 0.78565 0.50884 0.3989 0.0
C17 C 0.69744 0.5012 0.21619 0.0
C18 C 0.69555 0.51779 0.18749 0.0
C19 C 0.6823 0.48973 0.22146 0.0
C20 C 0.6659 0.49413 0.19515 0.0
C21 C 0.66435 0.50999 0.16224 0.0
C22 C 0.67912 0.52216 0.16073 0.0
C23 C 0.77809 0.52195 0.36236 0.0
H24 H 0.74944 0.45259 0.0173 0.0
H25 H 0.73369 0.47108 0.08638 0.0
H26 H 0.76389 0.44503 0.22048 0.0
H27 H 0.78094 0.4279 0.15097 0.0
H28 H 0.71364 0.47457 0.16081 0.0
H29 H 0.76447 0.47496 0.2502 0.0
H30 H 0.72189 0.51187 0.29843 0.0
H31 H 0.75857 0.52749 0.29695 0.0
H32 H 0.75802 0.47326 0.36592 0.0
H33 H 0.78317 0.48101 0.42822 0.0
H34 H 0.70716 0.52668 0.18206 0.0
H35 H 0.68353 0.47679 0.24301 0.0
H36 H 0.78383 0.53548 0.35997 0.0
H37 H 0.67847 0.53444 0.13557 0.0
H38 H 0.65469 0.48463 0.19828 0.0
C39 C 0.06537 0.7608 0.09004 0.0
C40 C 0.07666 0.77471 0.11064 0.0
C41 C 0.0547 0.75052 0.12702 0.0
C42 C 0.05531 0.75368 0.18561 0.0
C43 C 0.06793 0.76635 0.20649 0.0
C44 C 0.07839 0.77683 0.16946 0.0
C45 C 0.04153 0.74531 0.22376 0.0
C46 C 0.03516 0.72764 0.21431 0.0
C47 C 0.02051 0.72057 0.24551 0.0
C48 C 0.01223 0.73131 0.2877 0.0
C49 C 0.01913 0.74877 0.29952 0.0
C50 C 0.03357 0.75563 0.26704 0.0
C51 C 0.01152 0.76065 0.34437 0.0
C52 C 0.99394 0.76789 0.33965 0.0
C53 C 0.02318 0.76751 0.38617 0.0
C54 C 0.01783 0.78204 0.42033 0.0
C55 C 1.00069 0.7902 0.4133 0.0
C56 C 0.01402 0.7021 0.2309 0.0
C57 C 0.9972 0.69966 0.20404 0.0
C58 C 0.02626 0.68748 0.23314 0.0
C59 C 0.02234 0.67117 0.20563 0.0
C60 C 0.00618 0.66913 0.17464 0.0
C61 C 0.9933 0.6833 0.17611 0.0
C62 C 0.98859 0.78258 0.37371 0.0
H63 H 0.06402 0.75849 0.04505 0.0
H64 H 0.04517 0.74091 0.10919 0.0
H65 H 0.06913 0.7688 0.25145 0.0
H66 H 0.08688 0.78741 0.1871 0.0
H67 H 0.04134 0.71941 0.18151 0.0
H68 H 0.03807 0.76946 0.27427 0.0
H69 H 1.00086 0.726 0.31177 0.0
H70 H 0.9848 0.76299 0.30725 0.0
H71 H 0.03688 0.76226 0.3902 0.0
H72 H 0.02761 0.78759 0.44976 0.0
H73 H 0.98768 0.71084 0.20104 0.0
H74 H 0.03934 0.68908 0.25346 0.0
H75 H 0.97521 0.78838 0.36764 0.0
H76 H 0.98074 0.68223 0.15255 0.0
H77 H 0.03239 0.66041 0.2065 0.0
C78 C 0.75244 0.01433 0.02707 0.0
C79 C 0.7414 0.02983 0.02267 0.0
C80 C 0.75947 0.00908 0.07931 0.0
C81 C 0.75556 0.01922 0.12817 0.0
C82 C 0.74516 0.03513 0.12337 0.0
C83 C 0.73818 0.04041 0.0711 0.0
C84 C 0.7619 0.01288 0.18417 0.0
C85 C 0.77956 0.00633 0.19056 0.0
C86 C 0.78567 0.99974 0.24268 0.0
C87 C 0.77386 0.99977 0.28979 0.0
C88 C 0.75595 0.00652 0.28403 0.0
C89 C 0.7502 0.01294 0.23091 0.0
C90 C 0.7426 0.00678 0.33156 0.0
C91 C 0.73894 0.99113 0.36371 0.0
C92 C 0.73156 0.02216 0.33951 0.0
C93 C 0.7165 0.02157 0.37546 0.0
C94 C 0.71206 1.00562 0.4053 0.0
C95 C 0.80474 0.99347 0.24462 0.0
C96 C 0.80941 0.9777 0.21456 0.0
C97 C 0.81842 0.00607 0.25761 0.0
C98 C 0.83599 1.00389 0.23566 0.0
C99 C 0.84015 0.98914 0.19994 0.0
C100 C 0.82693 0.97552 0.1925 0.0
C101 C 0.72383 0.99055 0.4002 0.0
H102 H 0.75518 0.00596 0.99038 0.0
H103 H 0.7674 0.99671 0.08178 0.0
H104 H 0.74216 0.04333 0.16023 0.0
H105 H 0.72952 0.05229 0.06919 0.0
H106 H 0.78879 0.00653 0.15471 0.0
H107 H 0.73631 0.01753 0.22545 0.0
H108 H 0.77858 0.99477 0.33025 0.0
H109 H 0.74716 0.97904 0.35841 0.0
H110 H 0.73409 0.0345 0.31572 0.0
H111 H 0.70781 0.03343 0.37732 0.0
H112 H 0.79897 0.96801 0.20289 0.0
H113 H 0.81507 0.01851 0.27975 0.0
H114 H 0.72112 0.97813 0.42322 0.0
H115 H 0.82951 0.96403 0.16512 0.0
H116 H 0.84594 0.01445 0.24331 0.0
C117 C 0.48646 0.73636 0.39414 0.0
C118 C 0.50344 0.72773 0.38895 0.0
C119 C 0.48185 0.75087 0.35881 0.0
C120 C 0.49413 0.75721 0.31771 0.0
C121 C 0.5116 0.74957 0.31528 0.0
C122 C 0.51619 0.73491 0.35042 0.0
C123 C 0.48741 0.76881 0.27082 0.0
C124 C 0.49624 0.78498 0.25409 0.0
C125 C 0.4902 0.79448 0.20583 0.0
C126 C 0.47554 0.78763 0.17448 0.0
C127 C 0.46673 0.7716 0.19071 0.0
C128 C 0.47259 0.76244 0.23924 0.0
C129 C 0.45265 0.76331 0.1542 0.0
C130 C 0.43693 0.75556 0.17789 0.0
C131 C 0.45584 0.76139 0.096 0.0
C132 C 0.44428 0.7508 0.06293 0.0
C133 C 0.4292 0.74198 0.0873 0.0
C134 C 0.49893 0.81147 0.18596 0.0
C135 C 0.49743 0.82754 0.21751 0.0
C136 C 0.5058 0.81235 0.13063 0.0
C137 C 0.51001 0.82908 0.10591 0.0
C138 C 0.50727 0.84536 0.13581 0.0
C139 C 0.5015 0.84436 0.19257 0.0
C140 C 0.42526 0.74508 0.1447 0.0
H141 H 0.47624 0.73116 0.42291 0.0
H142 H 0.46824 0.75645 0.36127 0.0
H143 H 0.52124 0.75406 0.28355 0.0
H144 H 0.52948 0.72874 0.34587 0.0
H145 H 0.5078 0.78995 0.27777 0.0
H146 H 0.46626 0.74963 0.25065 0.0
H147 H 0.47099 0.79482 0.13707 0.0
H148 H 0.43403 0.75707 0.22254 0.0
H149 H 0.46794 0.76707 0.07668 0.0
H150 H 0.44793 0.74854 0.01914 0.0
H151 H 0.49197 0.82719 0.26006 0.0
H152 H 0.50692 0.80013 0.10534 0.0
H153 H 0.41358 0.73877 0.16456 0.0
H154 H 0.49943 0.85664 0.21696 0.0
H155 H 0.51422 0.82928 0.06204 0.0
C156 C 0.24914 0.56749 0.25364 0.0
C157 C 0.23071 0.56376 0.26342 0.0
C158 C 0.25907 0.55692 0.21526 0.0
C159 C 0.25079 0.54225 0.18698 0.0
C160 C 0.23242 0.53838 0.19833 0.0
C161 C 0.22247 0.54911 0.23563 0.0
C162 C 0.26108 0.5309 0.14588 0.0
C163 C 0.2794 0.52656 0.15495 0.0
C164 C 0.28894 0.51523 0.11734 0.0
C165 C 0.27982 0.50778 0.07032 0.0
C166 C 0.26147 0.51224 0.06061 0.0
C167 C 0.2524 0.5239 0.09795 0.0
C168 C 0.25092 0.50509 0.01245 0.0
C169 C 0.2493 0.51558 0.96321 0.0
C170 C 0.2386 0.49084 0.0218 0.0
C171 C 0.22413 0.48793 0.98455 0.0
C172 C 0.2216 0.49935 0.93745 0.0
C173 C 0.30835 0.51137 0.12946 0.0
C174 C 0.32019 0.5259 0.1404 0.0
C175 C 0.31447 0.49354 0.13866 0.0
C176 C 0.33171 0.49042 0.1621 0.0
C177 C 0.34316 0.50509 0.17633 0.0
C178 C 0.33735 0.52282 0.16346 0.0
C179 C 0.23483 0.51269 0.92591 0.0
H180 H 0.25572 0.57873 0.27487 0.0
H181 H 0.27314 0.56042 0.20722 0.0
H182 H 0.22568 0.5269 0.17887 0.0
H183 H 0.20834 0.54579 0.24348 0.0
H184 H 0.28621 0.53159 0.19237 0.0
H185 H 0.23838 0.52749 0.08926 0.0
H186 H 0.28693 0.49884 0.04141 0.0
H187 H 0.25842 0.5269 0.95583 0.0
H188 H 0.23931 0.4829 0.06032 0.0
H189 H 0.21416 0.47764 0.99517 0.0
H190 H 0.31578 0.53979 0.13372 0.0
H191 H 0.30554 0.48211 0.13091 0.0
H192 H 0.23347 0.52155 0.8896 0.0
H193 H 0.3456 0.53449 0.17432 0.0
H194 H 0.33583 0.47658 0.1708 0.0
C195 C 0.06334 0.24788 0.2642 0.0
C196 C 0.07624 0.235 0.24634 0.0
C197 C 0.05713 0.2612 0.22701 0.0
C198 C 0.06374 0.26191 0.1713 0.0
C199 C 0.07822 0.25047 0.15577 0.0
C200 C 0.08441 0.23711 0.193 0.0
C201 C 0.0533 0.27191 0.12766 0.0
C202 C 0.04565 0.2889 0.13932 0.0
C203 C 0.03289 0.29672 0.10259 0.0
C204 C 0.02782 0.28743 0.05289 0.0
C205 C 0.03576 0.27045 0.04013 0.0
C206 C 0.04854 0.26302 0.07755 0.0
C207 C 0.02974 0.25888 0.99219 0.0
C208 C 0.01154 0.25331 0.98796 0.0
C209 C 0.04287 0.25012 0.95866 0.0
C210 C 0.03826 0.23505 0.92581 0.0
C211 C 0.02033 0.22837 0.92522 0.0
C212 C 0.02433 0.31401 0.12025 0.0
C213 C 0.01382 0.31431 0.1698 0.0
C214 C 0.02959 0.33051 0.09544 0.0
C215 C 0.02536 0.34705 0.12188 0.0
C216 C 0.0158 0.34733 0.17359 0.0
C217 C 0.00955 0.33075 0.19607 0.0
C218 C 0.00687 0.23822 0.95473 0.0
H219 H 0.05667 0.2466 0.30486 0.0
H220 H 0.04592 0.26973 0.2403 0.0
H221 H 0.08383 0.25099 0.11344 0.0
H222 H 0.09462 0.22757 0.17851 0.0
H223 H 0.04918 0.29586 0.17817 0.0
H224 H 0.05373 0.24946 0.06968 0.0
H225 H 0.01756 0.29313 0.02529 0.0
H226 H 1.00115 0.25971 0.01365 0.0
H227 H 0.05702 0.25411 0.96123 0.0
H228 H 0.0491 0.2279 0.90425 0.0
H229 H 0.00987 0.3017 0.19013 0.0
H230 H 0.03795 0.33057 0.05767 0.0
H231 H 0.99284 0.23378 0.9543 0.0
H232 H 1.00237 0.33034 0.23606 0.0
H233 H 0.0302 0.35956 0.103 0.0
C234 C 0.25356 0.9413 0.23636 0.0
C235 C 0.27225 0.94458 0.24238 0.0
C236 C 0.24274 0.95339 0.2054 0.0
C237 C 0.25044 0.96905 0.18078 0.0
C238 C 0.26904 0.97249 0.18873 0.0
C239 C 0.27982 0.96035 0.21876 0.0
C240 C 0.23938 0.98183 0.1464 0.0
C241 C 0.22164 0.9865 0.16235 0.0
C242 C 0.21155 0.99933 0.13132 0.0
C243 C 0.21968 0.00798 0.08426 0.0
C244 C 0.23738 1.00302 0.06729 0.0
C245 C 0.2469 0.98988 0.0981 0.0
C246 C 0.24697 0.01131 0.01865 0.0
C247 C 0.25135 1.00033 0.97207 0.0
C248 C 0.25622 0.02782 0.02584 0.0
C249 C 0.27062 0.03252 0.98975 0.0
C250 C 0.27609 0.02074 0.94594 0.0
C251 C 0.19261 1.00328 0.14981 0.0
C252 C 0.18098 0.98878 0.16341 0.0
C253 C 0.18673 0.02111 0.1606 0.0
C254 C 0.17001 0.02424 0.18776 0.0
C255 C 0.15883 0.00959 0.20435 0.0
C256 C 0.16439 0.99186 0.19039 0.0
C257 C 0.26569 1.00501 0.93597 0.0
H258 H 0.24744 0.92925 0.25457 0.0
H259 H 0.22846 0.95031 0.19988 0.0
H260 H 0.27534 0.98467 0.17198 0.0
H261 H 0.29412 0.96341 0.22409 0.0
H262 H 0.2158 0.9805 0.20009 0.0
H263 H 0.26045 0.98606 0.08442 0.0
H264 H 0.21222 0.01809 0.06043 0.0
H265 H 0.24468 0.98733 0.96648 0.0
H266 H 0.25334 0.03632 0.06214 0.0
H267 H 0.27812 0.04489 0.99811 0.0
H268 H 0.18508 0.97488 0.15524 0.0
H269 H 0.19545 0.03255 0.15071 0.0
H270 H 0.26952 0.99551 0.90314 0.0
H271 H 0.15641 0.98017 0.20291 0.0
H272 H 0.16608 0.0381 0.19704 0.0
C273 C 0.48684 0.28494 0.97456 0.0
C274 C 0.50033 0.29319 0.94074 0.0
C275 C 0.49101 0.26985 0.0085 0.0
C276 C 0.50876 0.26285 0.00952 0.0
C277 C 0.52192 0.27043 0.97346 0.0
C278 C 0.51777 0.28537 0.93945 0.0
C279 C 0.51457 0.24991 0.05413 0.0
C280 C 0.50622 0.23285 0.06215 0.0
C281 C 0.51266 0.221 0.1045 0.0
C282 C 0.527 0.22661 0.13954 0.0
C283 C 0.53468 0.24395 0.13425 0.0
C284 C 0.52856 0.25534 0.0907 0.0
C285 C 0.54756 0.25099 0.17755 0.0
C286 C 0.54505 0.24667 0.23499 0.0
C287 C 0.56117 0.26359 0.16291 0.0
C288 C 0.5707 0.27295 0.20479 0.0
C289 C 0.56704 0.2697 0.2623 0.0
C290 C 0.50403 0.20319 0.11664 0.0
C291 C 0.48563 0.20223 0.13222 0.0
C292 C 0.51501 0.18774 0.12351 0.0
C293 C 0.5082 0.17217 0.14984 0.0
C294 C 0.4902 0.17166 0.17003 0.0
C295 C 0.47877 0.1866 0.15876 0.0
C296 C 0.55482 0.25577 0.27675 0.0
H297 H 0.47322 0.29049 0.97607 0.0
H298 H 0.48067 0.26435 0.03633 0.0
H299 H 0.53574 0.26533 0.97368 0.0
H300 H 0.52858 0.2914 0.91459 0.0
H301 H 0.49507 0.22874 0.03521 0.0
H302 H 0.53404 0.26895 0.08664 0.0
H303 H 0.53172 0.2176 0.17266 0.0
H304 H 0.5347 0.23711 0.24826 0.0
H305 H 0.56386 0.26689 0.11908 0.0
H306 H 0.58001 0.28357 0.19188 0.0
H307 H 0.4769 0.21399 0.12771 0.0
H308 H 0.52926 0.18815 0.11187 0.0
H309 H 0.552 0.25259 0.3206 0.0
H310 H 0.46476 0.18656 0.17283 0.0
H311 H 0.51748 0.16106 0.15798 0.0
C312 C 0.97628 0.0303 0.55796 0.0
Eu313 Eu 0.98596 0.0126 0.64787 0.0
C314 C 0.98503 0.04632 0.53285 0.0
C315 C 0.97709 0.05585 0.48792 0.0
C316 C 0.98568 0.07134 0.4659 0.0
C317 C 1.00214 0.07751 0.48926 0.0
C318 C 0.01005 0.06778 0.53378 0.0
C319 C 1.00162 0.05234 0.55511 0.0
C320 C 0.96696 1.0015 0.73994 0.0
C321 C 1.00392 0.04176 0.73682 0.0
C322 C 0.01924 0.98513 0.84942 0.0
Eu323 Eu 0.00933 0.99871 0.75333 0.0
C324 C 0.03147 0.97027 0.86536 0.0
C325 C 0.03958 0.97014 0.91879 0.0
C326 C 0.05138 0.95608 0.93395 0.0
C327 C 0.05519 0.94189 0.89585 0.0
C328 C 0.04721 0.94229 0.84188 0.0
C329 C 0.03552 0.9564 0.8267 0.0
C330 C 0.03084 1.00307 0.65949 0.0
C331 C 0.99412 0.9698 0.65855 0.0
O332 O 0.98605 0.01542 0.55629 0.0
O333 O 0.96881 0.03299 0.60758 0.0
O334 O 0.96092 0.99994 0.68846 0.0
O335 O 0.9818 0.01004 0.74012 0.0
O336 O 0.99787 0.03834 0.68533 0.0
O337 O 0.00744 0.02866 0.77356 0.0
O338 O 1.00422 0.98032 0.82343 0.0
O339 O 0.02719 0.99928 0.82642 0.0
O340 O 0.03691 0.99728 0.70768 0.0
O341 O 0.01415 0.00598 0.66524 0.0
O342 O 0.99982 0.97252 0.71116 0.0
O343 O 0.98972 0.98328 0.62409 0.0
H344 H 0.96429 0.05137 0.47016 0.0
H345 H 0.97935 0.07866 0.43143 0.0
H346 H 0.02289 0.07201 0.55182 0.0
H347 H 0.00819 0.04508 0.58902 0.0
H348 H 0.03678 0.9809 0.9488 0.0
H349 H 0.05749 0.95631 0.97554 0.0
H350 H 0.04961 0.93147 0.81179 0.0
H351 H 0.02951 0.9564 0.78492 0.0
C352 C 0.47114 0.9886 0.51626 0.0
Eu353 Eu 0.48559 1.00004 0.60917 0.0
C354 C 0.45616 0.97588 0.50472 0.0
C355 C 0.45822 0.96244 0.46327 0.0
C356 C 0.44431 0.94989 0.45346 0.0
C357 C 0.42803 0.95063 0.48482 0.0
C358 C 0.42615 0.96405 0.52674 0.0
C359 C 0.4401 0.97645 0.53684 0.0
C360 C 0.49129 0.97899 0.70306 0.0
C361 C 0.45667 0.01445 0.7056 0.0
C362 C 0.51655 0.03901 0.79433 0.0
Eu363 Eu 0.49884 0.02436 0.71137 0.0
C364 C 0.536 0.03877 0.80771 0.0
C365 C 0.54435 0.05445 0.82882 0.0
C366 C 0.5633 0.05553 0.83162 0.0
C367 C 0.57417 0.04101 0.8126 0.0
C368 C 0.56563 0.02506 0.79355 0.0
C369 C 0.54674 0.02393 0.79142 0.0
C370 C 0.48581 0.04201 0.6192 0.0
C371 C 0.52842 0.00774 0.62105 0.0
O372 O 0.46664 1.00409 0.54008 0.0
O373 O 0.4858 0.98128 0.53806 0.0
O374 O 0.48557 0.9726 0.65531 0.0
O375 O 0.49343 0.99577 0.69724 0.0
O376 O 0.45938 0.0092 0.65249 0.0
O377 O 0.47022 0.01882 0.73974 0.0
O378 O 0.50785 0.02352 0.79905 0.0
O379 O 0.51258 0.04772 0.74775 0.0
O380 O 0.48296 0.0473 0.67083 0.0
O381 O 0.49584 0.02812 0.61874 0.0
O382 O 0.52522 0.01391 0.67271 0.0
O383 O 0.51515 1.00354 0.58573 0.0
H384 H 0.47063 0.96161 0.43866 0.0
H385 H 0.44632 0.9396 0.42136 0.0
H386 H 0.41372 0.96529 0.55102 0.0
H387 H 0.43826 0.98652 0.5697 0.0
H388 H 0.53626 0.06608 0.84121 0.0
H389 H 0.5694 0.06785 0.84779 0.0
H390 H 0.57351 0.01367 0.77811 0.0
H391 H 0.54056 0.0117 0.77474 0.0
C392 C 0.53257 0.48977 0.53383 0.0
Eu393 Eu 0.51702 0.50516 0.6206 0.0
C394 C 0.53955 0.47154 0.52127 0.0
C395 C 0.55325 0.46917 0.48074 0.0
C396 C 0.56051 0.45189 0.47078 0.0
C397 C 0.55433 0.43674 0.50182 0.0
C398 C 0.54061 0.43933 0.54259 0.0
C399 C 0.53319 0.4565 0.55165 0.0
C400 C 0.5337 0.51706 0.71586 0.0
C401 C 0.5006 0.4749 0.71026 0.0
C402 C 0.47988 0.53166 0.81539 0.0
Eu403 Eu 0.49143 0.51788 0.7212 0.0
C404 C 0.46733 0.54649 0.82921 0.0
C405 C 0.45504 0.55296 0.78865 0.0
C406 C 0.44388 0.56781 0.80078 0.0
C407 C 0.44493 0.57653 0.85354 0.0
C408 C 0.45713 0.56977 0.89427 0.0
C409 C 0.46822 0.55486 0.88217 0.0
C410 C 0.47164 0.51371 0.62431 0.0
C411 C 0.50615 0.54717 0.62781 0.0
O412 O 0.51493 0.49125 0.53968 0.0
O413 O 0.54149 0.4987 0.57261 0.0
O414 O 0.53987 0.51996 0.6652 0.0
O415 O 0.51954 0.50744 0.71389 0.0
O416 O 0.50952 0.47824 0.66247 0.0
O417 O 0.49343 0.48799 0.74157 0.0
O418 O 0.49515 0.53668 0.79113 0.0
O419 O 0.47254 0.51729 0.79187 0.0
O420 O 0.46466 0.51899 0.6719 0.0
O421 O 0.48831 0.51116 0.63178 0.0
O422 O 0.50109 0.54428 0.68093 0.0
O423 O 0.51044 0.53371 0.59316 0.0
H424 H 0.55833 0.48068 0.45688 0.0
H425 H 0.57081 0.45041 0.43835 0.0
H426 H 0.53567 0.42813 0.56804 0.0
H427 H 0.52253 0.4581 0.58259 0.0
H428 H 0.45427 0.54671 0.74731 0.0
H429 H 0.43453 0.57253 0.76868 0.0
H430 H 0.45856 0.57636 0.93493 0.0
H431 H 0.47777 0.55012 0.91371 0.0
C432 C 0.0229 0.5393 0.55221 0.0
Eu433 Eu 0.00754 0.52059 0.63273 0.0
C434 C 0.04046 0.54861 0.54528 0.0
C435 C 0.04105 0.56591 0.52051 0.0
C436 C 0.05761 0.57505 0.51458 0.0
C437 C 0.07386 0.56703 0.53347 0.0
C438 C 0.07314 0.54976 0.5589 0.0
C439 C 0.05661 0.54067 0.56474 0.0
C440 C 0.99706 0.53625 0.73165 0.0
C441 C 0.0389 0.50392 0.71565 0.0
C442 C 0.98169 0.47577 0.79963 0.0
Eu443 Eu 0.99724 0.49429 0.71912 0.0
C444 C 0.96404 0.46651 0.80741 0.0
C445 C 0.96334 0.44746 0.81012 0.0
C446 C 0.94673 0.43849 0.81701 0.0
C447 C 0.93046 0.44842 0.82183 0.0
C448 C 0.93123 0.46751 0.81922 0.0
C449 C 0.94779 0.47645 0.81191 0.0
C450 C 0.00767 0.47876 0.61988 0.0
C451 C 0.96585 0.51075 0.63599 0.0
O452 O 0.02329 0.52153 0.55477 0.0
O453 O 0.01187 0.54641 0.58937 0.0
O454 O 0.99252 0.54216 0.68213 0.0
O455 O 0.00719 0.5225 0.72712 0.0
O456 O 0.0351 0.51077 0.66535 0.0
O457 O 0.02572 0.49884 0.74998 0.0
O458 O 0.98152 0.49354 0.79713 0.0
O459 O 0.99277 0.46855 0.76271 0.0
O460 O 0.01232 0.4728 0.66928 0.0
O461 O 0.99747 0.49243 0.6248 0.0
O462 O 0.9696 0.50371 0.68606 0.0
O463 O 0.97903 0.51609 0.60208 0.0
H464 H 0.02869 0.57234 0.50572 0.0
H465 H 0.0577 0.58839 0.49522 0.0
H466 H 0.08543 0.54305 0.57298 0.0
H467 H 0.05648 0.52734 0.584 0.0
H468 H 0.97567 0.43948 0.80678 0.0
H469 H 0.94664 0.42379 0.81828 0.0
H470 H 0.91906 0.47564 0.824 0.0
H471 H 0.94783 0.49115 0.81012 0.0
C472 C 0.12713 1.00073 0.23464 0.0
C473 C 0.14225 0.01235 0.24007 0.0
C474 C 0.11295 1.00117 0.27408 0.0
C475 C 0.09072 0.0277 0.38646 0.0
H476 H 0.08184 0.98077 0.45608 0.0
C477 C 0.03491 0.01286 0.55812 0.0
C478 C 0.04186 1.00478 0.60731 0.0
C479 C 0.04581 0.01471 0.50972 0.0
C480 C 0.08409 0.99393 0.43679 0.0
H481 H 0.15352 0.0344 0.28986 0.0
H482 H 0.12843 0.03551 0.35754 0.0
H483 H 0.10272 0.98307 0.37591 0.0
H484 H 0.06556 0.99193 0.6441 0.0
H485 H 0.08434 0.99455 0.55925 0.0
H486 H 0.07202 0.0385 0.44783 0.0
C487 C 0.12774 0.02594 0.32284 0.0
C488 C 0.09595 0.99525 0.39074 0.0
C489 C 0.1421 0.02533 0.2838 0.0
C490 C 0.05981 0.99827 0.60687 0.0
C491 C 0.07056 0.99973 0.55831 0.0
C492 C 0.07853 0.02632 0.43196 0.0
C493 C 0.11332 0.01347 0.31942 0.0
C494 C 0.0996 0.01217 0.36553 0.0
C495 C 0.06372 0.00803 0.50932 0.0
C496 C 0.07535 0.00945 0.45812 0.0
H497 H 0.12648 0.99087 0.20077 0.0
H498 H 0.10186 0.99159 0.26989 0.0
H499 H 0.09327 0.0409 0.36775 0.0
H500 H 0.0211 0.01776 0.55707 0.0
H501 H 0.04018 0.02106 0.47235 0.0
C502 C 0.47418 0.16054 0.25746 0.0
C503 C 0.48431 0.15665 0.20843 0.0
C504 C 0.47113 0.14716 0.2984 0.0
C505 C 0.47412 0.09743 0.32788 0.0
H506 H 0.48208 0.11383 0.48149 0.0
C507 C 0.48875 0.04857 0.51553 0.0
C508 C 0.48187 0.0533 0.56897 0.0
C509 C 0.48661 0.06032 0.46939 0.0
C510 C 0.47951 0.10901 0.43903 0.0
H511 H 0.49806 0.13515 0.16252 0.0
H512 H 0.49308 0.11193 0.23447 0.0
H513 H 0.48231 0.13573 0.40473 0.0
H514 H 0.46656 0.07353 0.61543 0.0
H515 H 0.46259 0.09389 0.535 0.0
H516 H 0.4717 0.07059 0.36254 0.0
C517 C 0.48741 0.12533 0.24117 0.0
C518 C 0.47962 0.12162 0.39484 0.0
C519 C 0.49043 0.13872 0.20009 0.0
C520 C 0.47215 0.0696 0.57484 0.0
C521 C 0.46998 0.08132 0.5288 0.0
C522 C 0.47402 0.08478 0.37223 0.0
C523 C 0.47817 0.12952 0.29162 0.0
C524 C 0.47701 0.11602 0.33861 0.0
C525 C 0.47752 0.07704 0.47574 0.0
C526 C 0.4768 0.09041 0.42838 0.0
H527 H 0.46938 0.17419 0.26578 0.0
H528 H 0.46365 0.1508 0.3362 0.0
H529 H 0.47188 0.09265 0.28519 0.0
H530 H 0.49629 0.03606 0.50977 0.0
H531 H 0.4927 0.05662 0.42932 0.0
C532 C 0.37543 0.51355 0.20037 0.0
C533 C 0.3602 0.50233 0.20945 0.0
C534 C 0.39017 0.5132 0.23762 0.0
C535 C 0.41213 0.48759 0.35407 0.0
H536 H 0.42509 0.5355 0.40903 0.0
C537 C 0.46747 0.50096 0.52644 0.0
C538 C 0.4614 0.51204 0.57091 0.0
C539 C 0.457 0.49905 0.47725 0.0
C540 C 0.4217 0.52203 0.39389 0.0
H541 H 0.34914 0.48117 0.26341 0.0
H542 H 0.37498 0.48037 0.32771 0.0
H543 H 0.4038 0.53255 0.33071 0.0
H544 H 0.4398 0.52992 0.59888 0.0
H545 H 0.4218 0.52695 0.51297 0.0
H546 H 0.42982 0.47713 0.41847 0.0
C547 C 0.37549 0.48945 0.29168 0.0
C548 C 0.40962 0.52033 0.34871 0.0
C549 C 0.36067 0.48988 0.25462 0.0
C550 C 0.44484 0.52133 0.56517 0.0
C551 C 0.43457 0.51969 0.51588 0.0
C552 C 0.42444 0.4893 0.39892 0.0
C553 C 0.39014 0.50152 0.28464 0.0
C554 C 0.40443 0.5031 0.32886 0.0
C555 C 0.44047 0.50848 0.47145 0.0
C556 C 0.42905 0.50655 0.42002 0.0
H557 H 0.37574 0.52303 0.16537 0.0
H558 H 0.4014 0.52244 0.23047 0.0
H559 H 0.40846 0.47413 0.33954 0.0
H560 H 0.48003 0.49344 0.53022 0.0
H561 H 0.46186 0.49031 0.44366 0.0
C562 C 0.99828 0.36777 0.23977 0.0
C563 C 0.01397 0.3644 0.20728 0.0
C564 C 0.99763 0.38239 0.27757 0.0
C565 C 0.02847 0.41155 0.36082 0.0
H566 H 0.98423 0.43787 0.39593 0.0
C567 C 0.01961 0.45165 0.56826 0.0
C568 C 0.00973 0.46797 0.56744 0.0
C569 C 0.02067 0.44072 0.52007 0.0
C570 C 0.99678 0.43082 0.38626 0.0
H571 H 0.04103 0.37436 0.18778 0.0
H572 H 0.03969 0.40008 0.2523 0.0
H573 H 0.98461 0.41643 0.31732 0.0
H574 H 0.99359 0.48591 0.51507 0.0
H575 H 0.99557 0.46687 0.43043 0.0
H576 H 0.04068 0.42596 0.42947 0.0
C577 C 0.02798 0.39121 0.24935 0.0
C578 C 0.99693 0.41835 0.34152 0.0
C579 C 0.02865 0.37658 0.21163 0.0
C580 C 1.00125 0.47336 0.51697 0.0
C581 C 1.0023 0.46239 0.46864 0.0
C582 C 0.02832 0.424 0.40546 0.0
C583 C 0.01264 0.39406 0.28386 0.0
C584 C 0.01273 0.40837 0.32862 0.0
C585 C 0.0119 0.44584 0.4697 0.0
C586 C 0.0124 0.43362 0.41935 0.0
H587 H 0.98663 0.35882 0.23707 0.0
H588 H 0.98562 0.38405 0.30357 0.0
H589 H 0.04084 0.404 0.35271 0.0
H590 H 0.02627 0.44713 0.60656 0.0
H591 H 0.02798 0.42798 0.52284 0.0
C592 C 0.86262 1.00564 0.13834 0.0
C593 C 0.85684 0.98933 0.16381 0.0
C594 C 0.87655 1.00568 0.09806 0.0
C595 C 0.8988 0.9756 0.99401 0.0
H596 H 0.93219 0.01607 0.97905 0.0
C597 C 0.93857 0.99032 0.78737 0.0
C598 C 0.95618 0.99754 0.79145 0.0
C599 C 0.9279 0.98782 0.83589 0.0
C600 C 0.92315 1.00452 0.98284 0.0
H601 H 0.86197 0.96035 0.1684 0.0
H602 H 0.8864 0.96045 0.09819 0.0
H603 H 0.91191 0.01452 0.06034 0.0
H604 H 0.97667 0.0073 0.84966 0.0
H605 H 0.95823 1.00267 0.93435 0.0
H606 H 0.91011 0.96556 0.91658 0.0
C607 C 0.87988 0.97318 0.10885 0.0
C608 C 0.91134 1.00375 0.02926 0.0
C609 C 0.86591 0.97314 0.14929 0.0
C610 C 0.96311 1.00175 0.84515 0.0
C611 C 0.95247 0.99922 0.89368 0.0
C612 C 0.91062 0.97637 0.94756 0.0
C613 C 0.88515 0.98942 0.08193 0.0
C614 C 0.89882 0.98941 0.03512 0.0
C615 C 0.93462 0.99246 0.88968 0.0
C616 C 0.9228 0.99096 0.94094 0.0
H617 H 0.85575 0.01833 0.14727 0.0
H618 H 0.88001 0.01841 0.07772 0.0
H619 H 0.88925 0.96443 0.99672 0.0
H620 H 0.93285 0.98697 0.74653 0.0
H621 H 0.91417 0.98278 0.83096 0.0
C622 C 0.49465 0.8762 0.1125 0.0
C623 C 0.50841 0.86311 0.10547 0.0
C624 C 0.4939 0.8915 0.07745 0.0
C625 C 0.51954 0.91888 0.9714 0.0
H626 H 0.47175 0.92677 0.90703 0.0
C627 C 0.50366 0.97453 0.80142 0.0
C628 C 0.49364 0.9681 0.75508 0.0
C629 C 0.50594 0.96361 0.84963 0.0
C630 C 0.48518 0.9248 0.92473 0.0
H631 H 0.53289 0.85658 0.05853 0.0
H632 H 0.53149 0.88321 0.99706 0.0
H633 H 0.47554 0.90472 0.98282 0.0
H634 H 0.4782 0.94533 0.72263 0.0
H635 H 0.48195 0.9265 0.80639 0.0
H636 H 0.52918 0.93868 0.91167 0.0
C637 C 0.52129 0.88165 0.02975 0.0
C638 C 0.48733 0.91227 0.96862 0.0
C639 C 0.522 0.86629 0.06469 0.0
C640 C 0.48593 0.95068 0.75781 0.0
C641 C 0.48799 0.93992 0.80596 0.0
C642 C 0.51734 0.93157 0.92765 0.0
C643 C 0.50691 0.89416 0.03457 0.0
C644 C 0.50458 0.9089 0.99189 0.0
C645 C 0.498 0.94622 0.85248 0.0
C646 C 0.50019 0.93437 0.90304 0.0
H647 H 0.48387 0.87415 0.14308 0.0
H648 H 0.48279 0.901 0.08282 0.0
H649 H 0.53298 0.9167 0.98868 0.0
H650 H 0.50995 0.9878 0.80003 0.0
H651 H 0.51374 0.96882 0.88483 0.0
C652 C 0.641 0.49783 0.09507 0.0
C653 C 0.64827 0.51268 0.1248 0.0
C654 C 0.62674 0.5002 0.05694 0.0
C655 C 0.60468 0.53493 0.96748 0.0
H656 H 0.56874 0.49691 0.94831 0.0
C657 C 0.56199 0.52754 0.76424 0.0
C658 C 0.5444 0.52022 0.7678 0.0
C659 C 0.57295 0.52879 0.81234 0.0
C660 C 0.57845 0.50784 0.95347 0.0
H661 H 0.64592 0.54172 0.13812 0.0
H662 H 0.62081 0.54587 0.07161 0.0
H663 H 0.59041 0.49497 0.02541 0.0
H664 H 0.52412 0.50928 0.82492 0.0
H665 H 0.54305 0.51183 0.90928 0.0
H666 H 0.59257 0.54788 0.89576 0.0
C667 C 0.62636 0.53238 0.07748 0.0
C668 C 0.59109 0.50659 0.99737 0.0
C669 C 0.64072 0.53 0.11571 0.0
C670 C 0.53768 0.51488 0.82086 0.0
C671 C 0.5486 0.51622 0.86911 0.0
C672 C 0.59197 0.53623 0.92366 0.0
C673 C 0.61925 0.5175 0.04732 0.0
C674 C 0.60463 0.5199 1.00427 0.0
C675 C 0.56653 0.52285 0.86532 0.0
C676 C 0.5789 0.52251 0.91534 0.0
H677 H 0.64674 0.48436 0.09975 0.0
H678 H 0.62198 0.48847 0.03364 0.0
H679 H 0.61494 0.5454 0.9712 0.0
H680 H 0.56755 0.53177 0.72388 0.0
H681 H 0.58671 0.53375 0.80741 0.0
C682 C 0.01848 0.64687 0.10403 0.0
C683 C 1.00375 0.65316 0.13655 0.0
C684 C 0.01635 0.6325 0.0661 0.0
C685 C 0.01132 0.59642 0.00758 0.0
H686 H 0.96787 0.59437 0.91563 0.0
C687 C 1.00252 0.54137 0.83523 0.0
C688 C 0.99517 0.54728 0.78366 0.0
C689 C 1.00188 0.55258 0.88308 0.0
C690 C 0.98014 0.59477 0.94075 0.0
H691 H 0.97517 0.64903 0.15482 0.0
H692 H 0.97145 0.62369 0.08886 0.0
H693 H 0.97037 0.61725 0.98951 0.0
H694 H 0.98094 0.56933 0.74216 0.0
H695 H 0.98017 0.58897 0.8247 0.0
H696 H 0.0215 0.57457 0.95712 0.0
C697 C 0.98465 0.63009 0.0923 0.0
C698 C 0.98147 0.60777 0.98376 0.0
C699 C 0.98678 0.64459 0.13025 0.0
C700 C 0.98672 0.56438 0.78132 0.0
C701 C 0.98616 0.57561 0.82893 0.0
C702 C 0.01004 0.5835 0.96441 0.0
C703 C 0.99942 0.62389 0.05953 0.0
C704 C 0.99723 0.609 0.01714 0.0
C705 C 0.99394 0.56999 0.88037 0.0
C706 C 0.99456 0.58267 0.92972 0.0
H707 H 0.03164 0.65341 0.1066 0.0
H708 H 0.02794 0.62848 0.04074 0.0
H709 H 0.02354 0.5967 0.03301 0.0
H710 H 0.00902 0.5282 0.83836 0.0
H711 H 0.00774 0.54764 0.92211 0.0
C712 C 0.07634 0.20118 0.24856 0.0
C713 C 0.078 0.21769 0.27793 0.0
C714 C 0.07273 0.18509 0.27758 0.0
C715 C 0.04913 0.17163 0.40688 0.0
H716 H 0.06027 0.12305 0.35378 0.0
C717 C 0.018 0.10698 0.50592 0.0
C718 C 0.01139 0.09395 0.46776 0.0
C719 C 0.02815 0.12174 0.48664 0.0
C720 C 0.05701 0.13656 0.36885 0.0
H721 H 0.07928 0.22994 0.36106 0.0
H722 H 0.07329 0.20167 0.41209 0.0
H723 H 0.0773 0.14893 0.31652 0.0
H724 H 0.00996 0.08619 0.37963 0.0
H725 H 0.02771 0.11218 0.34559 0.0
H726 H 0.02871 0.15926 0.45866 0.0
C727 C 0.07426 0.2013 0.36643 0.0
C728 C 0.06679 0.15136 0.34772 0.0
C729 C 0.07779 0.21745 0.3373 0.0
C730 C 0.01481 0.09613 0.40978 0.0
C731 C 0.02513 0.11083 0.39049 0.0
C732 C 0.03948 0.15682 0.4283 0.0
C733 C 0.07077 0.18513 0.33667 0.0
C734 C 0.06268 0.16912 0.36556 0.0
C735 C 0.03201 0.12369 0.42884 0.0
C736 C 0.04306 0.1392 0.40862 0.0
H737 H 0.07619 0.20088 0.2028 0.0
H738 H 0.06999 0.17297 0.25314 0.0
H739 H 0.04533 0.18512 0.42079 0.0
H740 H 0.01545 0.10564 0.55085 0.0
H741 H 0.03332 0.13142 0.5171 0.0
C742 C 0.28048 0.92762 0.3305 0.0
C743 C 0.28417 0.93203 0.27391 0.0
C744 C 0.29389 0.91943 0.36381 0.0
C745 C 0.34146 0.90092 0.35865 0.0
H746 H 0.34828 0.93272 0.48732 0.0
C747 C 0.40842 0.93407 0.41526 0.0
C748 C 0.41257 0.93833 0.47167 0.0
C749 C 0.3924 0.92488 0.40198 0.0
C750 C 0.34649 0.92331 0.45261 0.0
H751 H 0.30374 0.92966 0.20591 0.0
H752 H 0.32711 0.91571 0.26346 0.0
H753 H 0.31869 0.93086 0.44304 0.0
H754 H 0.4039 0.93472 0.55875 0.0
H755 H 0.37557 0.91917 0.53515 0.0
H756 H 0.36984 0.89472 0.36552 0.0
C757 C 0.31401 0.91835 0.28271 0.0
C758 C 0.32943 0.92219 0.42717 0.0
C759 C 0.30069 0.92654 0.24969 0.0
C760 C 0.40089 0.93207 0.51474 0.0
C761 C 0.38475 0.92303 0.50137 0.0
C762 C 0.35858 0.90218 0.38384 0.0
C763 C 0.31112 0.9155 0.34083 0.0
C764 C 0.32701 0.91183 0.37783 0.0
C765 C 0.38009 0.91986 0.44473 0.0
C766 C 0.36145 0.91417 0.42908 0.0
H767 H 0.26778 0.93171 0.34999 0.0
H768 H 0.29116 0.91718 0.40826 0.0
H769 H 0.33992 0.89246 0.32154 0.0
H770 H 0.41693 0.93882 0.38091 0.0
H771 H 0.38907 0.9229 0.35785 0.0
C772 C 0.5618 0.28822 0.34927 0.0
C773 C 0.57369 0.28256 0.30612 0.0
C774 C 0.56635 0.30268 0.38436 0.0
C775 C 0.59172 0.34483 0.3757 0.0
H776 H 0.57105 0.35124 0.52527 0.0
C777 C 0.58019 0.41569 0.4766 0.0
C778 C 0.56178 0.41826 0.49106 0.0
C779 C 0.58687 0.39829 0.46474 0.0
C780 C 0.57712 0.3496 0.48382 0.0
H781 H 0.6004 0.28677 0.26936 0.0
H782 H 0.60828 0.31235 0.33061 0.0
H783 H 0.57476 0.32066 0.48705 0.0
H784 H 0.53604 0.40436 0.50408 0.0
H785 H 0.54781 0.3742 0.48518 0.0
H786 H 0.59331 0.37386 0.3717 0.0
C787 C 0.59534 0.3056 0.33665 0.0
C788 C 0.57921 0.33213 0.46188 0.0
C789 C 0.5908 0.29099 0.30151 0.0
C790 C 0.55036 0.40296 0.49448 0.0
C791 C 0.5571 0.38563 0.48358 0.0
C792 C 0.58979 0.36231 0.39792 0.0
C793 C 0.58288 0.31197 0.37722 0.0
C794 C 0.58561 0.32962 0.40639 0.0
C795 C 0.57535 0.38313 0.46812 0.0
C796 C 0.58162 0.36485 0.45098 0.0
H797 H 0.54837 0.28238 0.35363 0.0
H798 H 0.55626 0.30739 0.41436 0.0
H799 H 0.59659 0.34341 0.3327 0.0
H800 H 0.58947 0.42708 0.47445 0.0
H801 H 0.601 0.39668 0.4528 0.0
C802 C 0.20338 0.58235 0.28472 0.0
C803 C 0.21979 0.5747 0.30309 0.0
C804 C 0.19106 0.58944 0.32365 0.0
C805 C 0.17624 0.57882 0.4645 0.0
H806 H 0.14053 0.61612 0.43206 0.0
C807 C 0.10554 0.5751 0.56416 0.0
C808 C 0.09166 0.57597 0.52345 0.0
C809 C 0.12304 0.58126 0.55141 0.0
C810 C 0.15046 0.60574 0.44206 0.0
H811 H 0.23692 0.56953 0.37557 0.0
H812 H 0.21514 0.5818 0.44441 0.0
H813 H 0.16969 0.61633 0.38245 0.0
H814 H 0.08507 0.58485 0.43854 0.0
H815 H 0.11547 0.59543 0.41618 0.0
H816 H 0.15664 0.5674 0.52087 0.0
C817 C 0.21186 0.58236 0.39984 0.0
C818 C 0.16715 0.60591 0.41382 0.0
C819 C 0.22432 0.57543 0.36061 0.0
C820 C 0.09538 0.58415 0.47106 0.0
C821 C 0.11285 0.59029 0.45831 0.0
C822 C 0.15954 0.57861 0.49258 0.0
C823 C 0.19482 0.58882 0.38185 0.0
C824 C 0.17983 0.59191 0.42268 0.0
C825 C 0.12703 0.58842 0.49769 0.0
C826 C 0.14611 0.59153 0.47951 0.0
H827 H 0.19967 0.58193 0.24044 0.0
H828 H 0.17799 0.59409 0.30838 0.0
H829 H 0.18564 0.56775 0.47199 0.0
H830 H 0.10298 0.56917 0.60534 0.0
H831 H 0.13361 0.57986 0.58292 0.0
C832 C 0.07373 0.79499 0.02627 0.0
C833 C 0.0843 0.78865 0.07165 0.0
C834 C 0.07876 0.81057 0.99667 0.0
C835 C 0.09262 0.84326 0.93352 0.0
H836 H 0.10007 0.882 0.04199 0.0
C837 C 0.07847 0.91772 0.87482 0.0
C838 C 0.06654 0.92616 0.91327 0.0
C839 C 0.08752 0.9017 0.88953 0.0
C840 C 0.0982 0.87134 0.011 0.0
H841 H 0.10947 0.79277 0.11751 0.0
H842 H 0.11809 0.82031 0.06619 0.0
H843 H 0.10398 0.85055 0.07135 0.0
H844 H 0.05531 0.92466 0.99801 0.0
H845 H 0.07104 0.89692 0.02359 0.0
H846 H 0.08537 0.86402 0.87448 0.0
C847 C 0.10579 0.81323 0.05412 0.0
C848 C 0.10066 0.8533 0.02761 0.0
C849 C 0.10081 0.7975 0.08362 0.0
C850 C 0.06458 0.91871 0.96761 0.0
C851 C 0.07366 0.90277 0.98235 0.0
C852 C 0.09013 0.86131 0.91693 0.0
C853 C 0.09443 0.82031 0.01181 0.0
C854 C 0.09698 0.83904 0.98983 0.0
C855 C 0.0849 0.89385 0.94309 0.0
C856 C 0.092 0.87547 0.95635 0.0
H857 H 0.06079 0.78879 0.01617 0.0
H858 H 0.06952 0.81576 0.96491 0.0
H859 H 0.08997 0.83256 0.90323 0.0
H860 H 0.08054 0.9233 0.83294 0.0
H861 H 0.09623 0.89522 0.85858 0.0
C862 C 0.7288 0.05159 0.95104 0.0
C863 C 0.7313 0.03367 0.96998 0.0
C864 C 0.71609 0.05542 0.90888 0.0
C865 C 0.68223 0.03342 0.812 0.0
H866 H 0.65046 0.07096 0.87102 0.0
C867 C 0.60527 0.02743 0.82321 0.0
C868 C 0.5943 0.04259 0.81121 0.0
C869 C 0.62415 0.02888 0.82213 0.0
C870 C 0.65932 0.06072 0.85295 0.0
H871 H 0.72354 1.00558 0.95668 0.0
H872 H 0.70127 0.01216 0.88468 0.0
H873 H 0.68165 0.06925 0.90353 0.0
H874 H 0.59474 0.07104 0.78664 0.0
H875 H 0.62785 0.0737 0.78757 0.0
H876 H 0.65914 0.02398 0.76538 0.0
C877 C 0.70925 0.02333 0.90104 0.0
C878 C 0.67728 0.05976 0.87137 0.0
C879 C 0.72203 0.01952 0.94271 0.0
C880 C 0.60274 0.05919 0.79736 0.0
C881 C 0.62167 0.06069 0.79714 0.0
C882 C 0.66417 0.03424 0.7942 0.0
C883 C 0.70551 0.0414 0.88546 0.0
C884 C 0.68867 0.04552 0.85338 0.0
C885 C 0.63251 0.04556 0.80979 0.0
C886 C 0.65237 0.04738 0.81665 0.0
H887 H 0.73604 0.06273 0.97073 0.0
H888 H 0.71382 0.06944 0.89696 0.0
H889 H 0.69078 0.02257 0.79619 0.0
H890 H 0.5993 0.01452 0.83496 0.0
H891 H 0.63221 0.0171 0.83332 0.0
C892 C 0.41518 0.71106 0.08138 0.0
C893 C 0.41944 0.72767 0.05504 0.0
C894 C 0.40984 0.69609 0.04937 0.0
C895 C 0.42026 0.67786 0.91175 0.0
H896 H 0.3908 0.63752 0.96424 0.0
C897 C 0.43219 0.60665 0.82317 0.0
C898 C 0.43421 0.59324 0.86509 0.0
C899 C 0.42409 0.62331 0.83599 0.0
C900 C 0.39905 0.64868 0.94887 0.0
H901 H 0.41947 0.74207 0.975 0.0
H902 H 0.41041 0.71574 0.91887 0.0
H903 H 0.38682 0.66755 0.00647 0.0
H904 H 0.42805 0.58635 0.95217 0.0
H905 H 0.41463 0.61559 0.97516 0.0
H906 H 0.43336 0.65894 0.85697 0.0
C907 C 0.41144 0.71432 0.96432 0.0
C908 C 0.39671 0.66587 0.97288 0.0
C909 C 0.41669 0.72936 0.99645 0.0
C910 C 0.42702 0.59651 0.9192 0.0
C911 C 0.41904 0.61321 0.93212 0.0
C912 C 0.42266 0.66069 0.88798 0.0
C913 C 0.40872 0.69734 0.99024 0.0
C914 C 0.40781 0.68047 0.95611 0.0
C915 C 0.41796 0.62701 0.89111 0.0
C916 C 0.4126 0.64573 0.90785 0.0
H917 H 0.41732 0.70913 0.12624 0.0
H918 H 0.40806 0.68318 0.07064 0.0
H919 H 0.4292 0.68874 0.89831 0.0
H920 H 0.43763 0.60464 0.78108 0.0
H921 H 0.42323 0.63355 0.80319 0.0
C922 C 0.78441 0.44121 0.98736 0.0
C923 C 0.77945 0.43104 0.0354 0.0
C924 C 0.79863 0.43554 0.95257 0.0
C925 C 0.82769 0.41855 0.87786 0.0
H926 H 0.87068 0.4149 0.97152 0.0
C927 C 0.89672 0.44594 0.80815 0.0
C928 C 0.91281 0.43909 0.83191 0.0
C929 C 0.87986 0.43874 0.82343 0.0
C930 C 0.8589 0.41534 0.94424 0.0
H931 H 0.78458 0.40595 0.08105 0.0
H932 H 0.81001 0.39649 0.02131 0.0
H933 H 0.84086 0.4125 0.01463 0.0
H934 H 0.92381 0.41836 0.8875 0.0
H935 H 0.89447 0.40532 0.91231 0.0
H936 H 0.84573 0.422 0.80764 0.0
C937 C 0.80276 0.40885 0.01091 0.0
C938 C 0.84175 0.41398 0.96914 0.0
C939 C 0.7883 0.41438 0.04532 0.0
C940 C 0.91172 0.424 0.86828 0.0
C941 C 0.89485 0.41664 0.88306 0.0
C942 C 0.84487 0.41969 0.85276 0.0
C943 C 0.80841 0.4197 0.96531 0.0
C944 C 0.826 0.41638 0.93661 0.0
C945 C 0.87867 0.42432 0.86235 0.0
C946 C 0.86068 0.41896 0.88608 0.0
H947 H 0.77822 0.45425 0.97852 0.0
H948 H 0.80284 0.44433 0.91819 0.0
H949 H 0.81573 0.42025 0.85177 0.0
H950 H 0.89707 0.45727 0.77893 0.0
H951 H 0.86776 0.44517 0.80686 0.0
C952 C 1.00412 0.19813 0.92531 0.0
C953 C 0.0163 0.21027 0.89909 0.0
C954 C 1.00202 0.18036 0.90526 0.0
C955 C 0.01272 0.14984 0.78283 0.0
H956 H 1.0058 0.11208 0.89509 0.0
C957 C 0.99935 0.07511 0.71925 0.0
C958 C 1.00604 0.0611 0.75399 0.0
C959 C 1.00059 0.0933 0.73592 0.0
C960 C 0.00796 0.12237 0.86308 0.0
H961 H 0.0351 0.21322 0.82886 0.0
H962 H 0.03205 0.18217 0.79551 0.0
H963 H 0.00773 0.14357 0.92474 0.0
H964 H 0.0197 0.05542 0.83312 0.0
H965 H 0.0224 0.08715 0.86143 0.0
H966 H 0.01379 0.12855 0.72145 0.0
C967 C 0.02387 0.18641 0.83123 0.0
C968 C 0.00874 0.14058 0.88006 0.0
C969 C 0.02581 0.20426 0.8509 0.0
C970 C 0.0143 0.06582 0.80545 0.0
C971 C 0.01571 0.08407 0.82189 0.0
C972 C 0.01214 0.13161 0.76591 0.0
C973 C 0.01219 0.17407 0.85872 0.0
C974 C 0.01107 0.15462 0.84022 0.0
C975 C 0.00873 0.09809 0.78757 0.0
C976 C 0.0097 0.11758 0.80575 0.0
H977 H 0.99666 0.20207 0.96284 0.0
H978 H 0.99257 0.17147 0.92691 0.0
H979 H 0.01433 0.16018 0.75066 0.0
H980 H 0.99282 0.07204 0.6794 0.0
H981 H 0.99476 0.10356 0.70863 0.0
C982 C 0.29568 0.01882 0.85814 0.0
C983 C 0.29372 0.02351 0.9155 0.0
C984 C 0.31277 0.01929 0.83186 0.0
C985 C 0.36001 0.03696 0.84779 0.0
H986 H 0.37265 0.99625 0.7515 0.0
C987 C 0.43429 0.02185 0.7828 0.0
C988 C 0.4377 0.01591 0.72727 0.0
C989 C 0.41648 0.0235 0.80311 0.0
C990 C 0.3693 0.00785 0.77765 0.0
H991 H 0.3084 0.03262 0.98972 0.0
H992 H 0.338 0.03355 0.94403 0.0
H993 H 0.34203 0.99851 0.79043 0.0
H994 H 0.42482 0.007 0.64966 0.0
H995 H 0.39379 0.00996 0.68503 0.0
H996 H 0.38735 0.04619 0.83552 0.0
C997 C 0.3263 0.02973 0.919 0.0
C998 C 0.35169 0.00917 0.79996 0.0
C999 C 0.30924 0.02926 0.94525 0.0
C1000 C 0.42277 0.01158 0.69269 0.0
C1001 C 0.40494 0.0132 0.71308 0.0
C1002 C 0.37762 0.03564 0.82551 0.0
C1003 C 0.32837 0.02447 0.86221 0.0
C1004 C 0.34684 0.02366 0.83575 0.0
C1005 C 0.40155 0.01924 0.76854 0.0
C1006 C 0.38256 0.02098 0.79053 0.0
H1007 H 0.28402 0.01454 0.83367 0.0
H1008 H 0.31378 0.01545 0.7878 0.0
H1009 H 0.35671 0.04847 0.87439 0.0
H1010 H 0.4454 0.02527 0.81083 0.0
H1011 H 0.41444 0.02791 0.84631 0.0
C1012 C 0.48712 0.32478 0.937 0.0
C1013 C 0.49693 0.31071 0.91063 0.0
C1014 C 0.48597 0.34202 0.91207 0.0
C1015 C 0.51103 0.37151 0.81282 0.0
H1016 H 0.46766 0.40138 0.81769 0.0
C1017 C 0.50839 0.44162 0.70319 0.0
C1018 C 0.49915 0.4558 0.73082 0.0
C1019 C 0.50722 0.42373 0.72297 0.0
C1020 C 0.47996 0.39331 0.81652 0.0
H1021 H 0.51225 0.30356 0.83546 0.0
H1022 H 0.51028 0.33357 0.79218 0.0
H1023 H 0.46673 0.37044 0.85504 0.0
H1024 H 0.48142 0.46207 0.8016 0.0
H1025 H 0.47969 0.43101 0.83674 0.0
H1026 H 0.52439 0.39436 0.77537 0.0
C1027 C 0.50377 0.33137 0.83271 0.0
C1028 C 0.4794 0.37554 0.83783 0.0
C1029 C 0.50487 0.31414 0.85752 0.0
C1030 C 0.4887 0.45155 0.77896 0.0
C1031 C 0.48758 0.43366 0.79894 0.0
C1032 C 0.51162 0.38927 0.79179 0.0
C1033 C 0.49464 0.34564 0.86021 0.0
C1034 C 0.49494 0.36441 0.83624 0.0
C1035 C 0.49688 0.41949 0.77131 0.0
C1036 C 0.4961 0.40045 0.79333 0.0
H1037 H 0.48103 0.32275 0.97823 0.0
H1038 H 0.47894 0.35272 0.93467 0.0
H1039 H 0.52336 0.36347 0.8119 0.0
H1040 H 0.51671 0.44428 0.66651 0.0
H1041 H 0.51439 0.41321 0.70005 0.0
C1042 C 0.19562 0.48214 0.89256 0.0
C1043 C 0.20424 0.49874 0.90487 0.0
C1044 C 0.17842 0.48183 0.86713 0.0
C1045 C 0.14514 0.51074 0.78906 0.0
H1046 H 0.10999 0.47606 0.84654 0.0
C1047 C 0.07252 0.50515 0.6961 0.0
C1048 C 0.05813 0.50241 0.73437 0.0
C1049 C 0.09062 0.50392 0.71397 0.0
C1050 C 0.11958 0.48593 0.83021 0.0
H1051 H 0.20137 0.52804 0.89972 0.0
H1052 H 0.17159 0.5275 0.85567 0.0
H1053 H 0.14106 0.47551 0.88184 0.0
H1054 H 0.05158 0.49613 0.82164 0.0
H1055 H 0.08304 0.49422 0.85293 0.0
H1056 H 0.12351 0.52156 0.7389 0.0
C1057 C 0.17821 0.51468 0.86458 0.0
C1058 C 0.13752 0.48544 0.84991 0.0
C1059 C 0.19538 0.51498 0.88984 0.0
C1060 C 0.0623 0.49826 0.79089 0.0
C1061 C 0.08039 0.49706 0.8088 0.0
C1062 C 0.1272 0.51124 0.76942 0.0
C1063 C 0.16937 0.49811 0.8535 0.0
C1064 C 0.15052 0.49794 0.82999 0.0
C1065 C 0.09482 0.49991 0.77063 0.0
C1066 C 0.11412 0.49894 0.79007 0.0
H1067 H 0.2021 0.46937 0.90303 0.0
H1068 H 0.17219 0.46881 0.85839 0.0
H1069 H 0.15479 0.52044 0.77218 0.0
H1070 H 0.06985 0.50808 0.65212 0.0
H1071 H 0.10133 0.50591 0.6831 0.0
C1072 C 1.00204 0.81048 0.49928 0.0
C1073 C 0.99639 0.80757 0.44321 0.0
C1074 C 1.00008 0.82756 0.52475 0.0
C1075 C 0.99601 0.87614 0.48668 0.0
H1076 H 0.98404 0.88254 0.64507 0.0
C1077 C 0.98579 0.94749 0.58251 0.0
C1078 C 0.9929 0.95086 0.63665 0.0
C1079 C 0.98519 0.92984 0.56066 0.0
C1080 C 0.98759 0.88099 0.60089 0.0
H1081 H 0.98369 0.82038 0.37075 0.0
H1082 H 0.97992 0.84995 0.41548 0.0
H1083 H 0.98423 0.85206 0.60422 0.0
H1084 H 1.0048 0.93806 0.71047 0.0
H1085 H 1.00395 0.90729 0.67203 0.0
H1086 H 0.99958 0.90496 0.48327 0.0
C1087 C 0.98613 0.83909 0.43955 0.0
C1088 C 0.98767 0.86349 0.57742 0.0
C1089 C 0.98806 0.82201 0.41413 0.0
C1090 C 0.99917 0.93602 0.66869 0.0
C1091 C 0.99861 0.91832 0.64672 0.0
C1092 C 0.99596 0.89359 0.5101 0.0
C1093 C 0.99245 0.84221 0.4948 0.0
C1094 C 0.99187 0.86083 0.51995 0.0
C1095 C 0.99175 0.91501 0.59216 0.0
C1096 C 0.99173 0.8963 0.56753 0.0
H1097 H 0.00834 0.79964 0.52321 0.0
H1098 H 1.00518 0.82944 0.56724 0.0
H1099 H 0.9997 0.87463 0.4426 0.0
H1100 H 0.9807 0.9585 0.55662 0.0
H1101 H 0.9795 0.92783 0.51896 0.0
C1102 C 0.68419 0.98842 0.43855 0.0
C1103 C 0.69457 1.00452 0.43785 0.0
C1104 C 0.66682 0.98806 0.46318 0.0
C1105 C 0.62814 0.01774 0.49015 0.0
H1106 H 0.61102 0.98025 0.59255 0.0
C1107 C 0.55191 0.00717 0.54378 0.0
C1108 C 0.54758 0.00617 0.60161 0.0
C1109 C 0.57006 0.00657 0.52568 0.0
C1110 C 0.61564 0.99081 0.56403 0.0
H1111 H 0.69496 0.03257 0.46645 0.0
H1112 H 0.66452 0.03204 0.50725 0.0
H1113 H 0.64268 0.97985 0.55945 0.0
H1114 H 0.5589 1.00311 0.6855 0.0
H1115 H 0.59058 1.00175 0.65381 0.0
H1116 H 0.60107 0.02851 0.49368 0.0
C1117 C 0.66985 0.01974 0.48829 0.0
C1118 C 0.63371 0.99053 0.54492 0.0
C1119 C 0.6873 0.02003 0.46459 0.0
C1120 C 0.5618 1.00412 0.64076 0.0
C1121 C 0.57992 1.00319 0.62259 0.0
C1122 C 0.61002 0.01781 0.50833 0.0
C1123 C 0.65929 1.00385 0.48703 0.0
C1124 C 0.64017 1.00405 0.50796 0.0
C1125 C 0.58427 1.00461 0.56487 0.0
C1126 C 0.60356 1.00439 0.54557 0.0
H1127 H 0.68909 0.97624 0.41791 0.0
H1128 H 0.65896 0.97563 0.46136 0.0
H1129 H 0.63268 0.02826 0.46133 0.0
H1130 H 0.54131 0.00881 0.51252 0.0
H1131 H 0.57298 0.00757 0.4809 0.0
C1132 C 0.5009 0.70771 0.47529 0.0
C1133 C 0.50695 0.7103 0.41941 0.0
C1134 C 0.50228 0.69067 0.50136 0.0
C1135 C 0.52445 0.64521 0.48889 0.0
H1136 H 0.48296 0.62914 0.57709 0.0
C1137 C 0.5137 0.56992 0.55183 0.0
C1138 C 0.50705 0.56618 0.60642 0.0
C1139 C 0.51452 0.58778 0.53159 0.0
C1140 C 0.49477 0.63347 0.55321 0.0
H1141 H 0.51947 0.69692 0.34759 0.0
H1142 H 0.52184 0.66731 0.39279 0.0
H1143 H 0.4834 0.65979 0.53821 0.0
H1144 H 0.49605 0.57848 0.68249 0.0
H1145 H 0.49752 0.6096 0.64719 0.0
H1146 H 0.53566 0.61873 0.50321 0.0
C1147 C 0.51628 0.67849 0.41695 0.0
C1148 C 0.49505 0.65111 0.53094 0.0
C1149 C 0.51495 0.69554 0.39097 0.0
C1150 C 0.50124 0.5808 0.64023 0.0
C1151 C 0.50199 0.59867 0.61987 0.0
C1152 C 0.52414 0.62755 0.51101 0.0
C1153 C 0.50969 0.67573 0.47219 0.0
C1154 C 0.50984 0.6572 0.49817 0.0
C1155 C 0.50865 0.6024 0.56527 0.0
C1156 C 0.50925 0.6214 0.54317 0.0
H1157 H 0.49487 0.71883 0.49871 0.0
H1158 H 0.49739 0.68918 0.54431 0.0
H1159 H 0.5362 0.64948 0.46467 0.0
H1160 H 0.51827 0.55904 0.5245 0.0
H1161 H 0.51949 0.5901 0.48908 0.0
C1162 C 0.80527 0.50558 0.4856 0.0
C1163 C 0.80278 0.51246 0.43066 0.0
C1164 C 0.82213 0.50699 0.51258 0.0
C1165 C 0.86699 0.53054 0.50608 0.0
H1166 H 0.88401 0.48765 0.58523 0.0
C1167 C 0.94252 0.52006 0.56431 0.0
C1168 C 0.94667 0.51204 0.61669 0.0
C1169 C 0.92454 0.52108 0.54542 0.0
C1170 C 0.8794 0.49985 0.56401 0.0
H1171 H 0.8161 0.52663 0.36169 0.0
H1172 H 0.84543 0.52911 0.40856 0.0
H1173 H 0.85339 0.48816 0.54626 0.0
H1174 H 0.93503 0.49891 0.6905 0.0
H1175 H 0.90364 0.50076 0.65757 0.0
H1176 H 0.89314 0.54209 0.52309 0.0
C1177 C 0.83429 0.52281 0.43123 0.0
C1178 C 0.86179 0.50016 0.54166 0.0
C1179 C 0.81742 0.52142 0.4043 0.0
C1180 C 0.93235 0.50515 0.64989 0.0
C1181 C 0.91434 0.50613 0.63086 0.0
C1182 C 0.88461 0.53021 0.52834 0.0
C1183 C 0.83698 0.51531 0.48533 0.0
C1184 C 0.85539 0.51545 0.51193 0.0
C1185 C 0.91021 0.51409 0.57832 0.0
C1186 C 0.89111 0.51479 0.55714 0.0
H1187 H 0.79422 0.49882 0.50749 0.0
H1188 H 0.82357 0.5014 0.55467 0.0
H1189 H 0.86245 0.54266 0.48431 0.0
H1190 H 0.95318 0.52548 0.53753 0.0
H1191 H 0.92192 0.52706 0.50441 0.0
loop_
_geom_bond_atom_site_label_1
_geom_bond_atom_site_label_2
_geom_bond_distance
_geom_bond_site_symmetry_2
_ccdc_geom_bond_type
C0 C1 1.386 . S
C0 C2 1.397 . S
C0 H24 0.931 . S
C1 C0 1.386 . S
C1 C5 1.397 . S
C2 C0 1.397 . S
C2 C3 1.384 . S
C2 H25 0.930 . S
C3 C2 1.384 . S
C3 C4 1.377 . S
C3 C6 1.481 . S
C4 C3 1.377 . S
C4 C5 1.389 . S
C4 H26 0.929 . S
C5 C1 1.397 . S
C5 C4 1.389 . S
C5 H27 0.931 . S
C6 C3 1.481 . S
C6 C7 1.387 . S
C6 C11 1.390 . S
C7 C6 1.387 . S
C7 C8 1.401 . S
C7 H28 0.930 . S
C8 C7 1.401 . S
C8 C9 1.376 . S
C8 C17 1.511 . S
C9 C8 1.376 . S
C9 C10 1.392 . S
C9 H30 0.931 . S
C10 C9 1.392 . S
C10 C11 1.361 . S
C10 C12 1.500 . S
C11 C6 1.390 . S
C11 C10 1.361 . S
C11 H29 0.931 . S
C12 C10 1.500 . S
C12 C13 1.371 . S
C12 C14 1.365 . S
C13 C12 1.371 . S
C13 C23 1.386 . S
C13 H31 0.931 . S
C14 C12 1.365 . S
C14 C15 1.409 . S
C14 H32 0.929 . S
C15 C14 1.409 . S
C15 C16 1.380 . S
C15 H33 0.930 . S
C16 C15 1.380 . S
C16 C23 1.357 . S
C17 C8 1.511 . S
C17 C18 1.341 . S
C17 C19 1.371 . S
C18 C17 1.341 . S
C18 C22 1.394 . S
C18 H34 0.930 . S
C19 C17 1.371 . S
C19 C20 1.392 . S
C19 H35 0.931 . S
C20 C19 1.392 . S
C20 C21 1.331 . S
C20 H38 0.932 . S
C21 C20 1.331 . S
C21 C22 1.336 . S
C22 C18 1.394 . S
C22 C21 1.336 . S
C22 H37 0.929 . S
C23 C13 1.386 . S
C23 C16 1.357 . S
C23 H36 0.928 . S
H24 C0 0.931 . S
H25 C2 0.930 . S
H26 C4 0.929 . S
H27 C5 0.931 . S
H28 C7 0.930 . S
H29 C11 0.931 . S
H30 C9 0.931 . S
H31 C13 0.931 . S
H32 C14 0.929 . S
H33 C15 0.930 . S
H34 C18 0.930 . S
H35 C19 0.931 . S
H36 C23 0.928 . S
H37 C22 0.929 . S
H38 C20 0.932 . S
C39 C40 1.394 . S
C39 C41 1.397 . S
C39 H63 0.931 . S
C40 C39 1.394 . S
C40 C44 1.389 1_655 S
C41 C39 1.397 . S
C41 C42 1.389 . S
C41 H64 0.930 . S
C42 C41 1.389 . S
C42 C43 1.373 1_655 S
C42 C45 1.480 . S
C43 C42 1.373 1_455 S
C43 C44 1.389 . S
C43 H65 0.929 . S
C44 C40 1.389 1_455 S
C44 C43 1.389 . S
C44 H66 0.931 . S
C45 C42 1.480 . S
C45 C46 1.388 . S
C45 C50 1.390 . S
C46 C45 1.388 . S
C46 C47 1.402 . S
C46 H67 0.930 . S
C47 C46 1.402 . S
C47 C48 1.376 . S
C47 C56 1.513 . S
C48 C47 1.376 . S
C48 C49 1.392 . S
C48 H69 0.934 . S
C49 C48 1.392 . S
C49 C50 1.361 . S
C49 C51 1.499 1_655 S
C50 C45 1.390 . S
C50 C49 1.361 . S
C50 H68 0.931 . S
C51 C49 1.499 1_455 S
C51 C52 1.363 1_455 S
C51 C53 1.373 . S
C52 C51 1.363 1_655 S
C52 C62 1.386 . S
C52 H70 0.931 . S
C53 C51 1.373 . S
C53 C54 1.409 . S
C53 H71 0.929 . S
C54 C53 1.409 . S
C54 C55 1.378 . S
C54 H72 0.930 . S
C55 C54 1.378 . S
C55 C62 1.360 1_455 S
C56 C47 1.513 . S
C56 C57 1.341 . S
C56 C58 1.371 1_655 S
C57 C56 1.341 . S
C57 C61 1.394 . S
C57 H73 0.930 . S
C58 C56 1.371 1_455 S
C58 C59 1.392 . S
C58 H74 0.931 . S
C59 C58 1.392 . S
C59 C60 1.322 1_455 S
C59 H77 0.932 . S
C60 C59 1.322 1_655 S
C60 C61 1.345 . S
C61 C57 1.394 . S
C61 C60 1.345 . S
C61 H76 0.929 . S
C62 C52 1.386 . S
C62 C55 1.360 1_655 S
C62 H75 0.928 . S
H63 C39 0.931 . S
H64 C41 0.930 . S
H65 C43 0.929 . S
H66 C44 0.931 . S
H67 C46 0.930 . S
H68 C50 0.931 . S
H69 C48 0.934 . S
H70 C52 0.931 . S
H71 C53 0.929 . S
H72 C54 0.930 . S
H73 C57 0.930 . S
H74 C58 0.931 . S
H75 C62 0.928 . S
H76 C61 0.929 . S
H77 C59 0.932 . S
C78 C79 1.394 . S
C78 C80 1.397 . S
C78 H102 0.931 . S
C79 C78 1.394 . S
C79 C83 1.389 1_565 S
C80 C78 1.397 . S
C80 C81 1.389 . S
C80 H103 0.930 . S
C81 C80 1.389 . S
C81 C82 1.373 1_565 S
C81 C84 1.480 . S
C82 C81 1.373 1_545 S
C82 C83 1.389 . S
C82 H104 0.929 . S
C83 C79 1.389 1_545 S
C83 C82 1.389 . S
C83 H105 0.931 . S
C84 C81 1.480 . S
C84 C85 1.388 . S
C84 C89 1.390 . S
C85 C84 1.388 . S
C85 C86 1.402 . S
C85 H106 0.930 . S
C86 C85 1.402 . S
C86 C87 1.376 . S
C86 C95 1.513 . S
C87 C86 1.376 . S
C87 C88 1.392 . S
C87 H108 0.934 . S
C88 C87 1.392 . S
C88 C89 1.361 . S
C88 C90 1.499 1_565 S
C89 C84 1.390 . S
C89 C88 1.361 . S
C89 H107 0.931 . S
C90 C88 1.499 1_545 S
C90 C91 1.364 1_545 S
C90 C92 1.373 . S
C91 C90 1.364 1_565 S
C91 C101 1.386 . S
C91 H109 0.931 . S
C92 C90 1.373 . S
C92 C93 1.409 . S
C92 H110 0.929 . S
C93 C92 1.409 . S
C93 C94 1.378 . S
C93 H111 0.930 . S
C94 C93 1.378 . S
C94 C101 1.360 1_545 S
C95 C86 1.513 . S
C95 C96 1.341 . S
C95 C97 1.371 1_565 S
C96 C95 1.341 . S
C96 C100 1.394 . S
C96 H112 0.930 . S
C97 C95 1.371 1_545 S
C97 C98 1.392 . S
C97 H113 0.931 . S
C98 C97 1.392 . S
C98 C99 1.322 1_545 S
C98 H116 0.932 . S
C99 C98 1.322 1_565 S
C99 C100 1.345 . S
C100 C96 1.394 . S
C100 C99 1.345 . S
C100 H115 0.929 . S
C101 C91 1.386 . S
C101 C94 1.360 1_565 S
C101 H114 0.928 . S
H102 C78 0.931 . S
H103 C80 0.930 . S
H104 C82 0.929 . S
H105 C83 0.931 . S
H106 C85 0.930 . S
H107 C89 0.931 . S
H108 C87 0.934 . S
H109 C91 0.931 . S
H110 C92 0.929 . S
H111 C93 0.930 . S
H112 C96 0.930 . S
H113 C97 0.931 . S
H114 C101 0.928 . S
H115 C100 0.929 . S
H116 C98 0.932 . S
C117 C118 1.386 . S
C117 C119 1.397 . S
C117 H141 0.931 . S
C118 C117 1.386 . S
C118 C122 1.397 . S
C119 C117 1.397 . S
C119 C120 1.384 . S
C119 H142 0.930 . S
C120 C119 1.384 . S
C120 C121 1.377 . S
C120 C123 1.481 . S
C121 C120 1.377 . S
C121 C122 1.389 . S
C121 H143 0.929 . S
C122 C118 1.397 . S
C122 C121 1.389 . S
C122 H144 0.931 . S
C123 C120 1.481 . S
C123 C124 1.387 . S
C123 C128 1.390 . S
C124 C123 1.387 . S
C124 C125 1.401 . S
C124 H145 0.930 . S
C125 C124 1.401 . S
C125 C126 1.376 . S
C125 C134 1.511 . S
C126 C125 1.376 . S
C126 C127 1.392 . S
C126 H147 0.931 . S
C127 C126 1.392 . S
C127 C128 1.361 . S
C127 C129 1.500 . S
C128 C123 1.390 . S
C128 C127 1.361 . S
C128 H146 0.931 . S
C129 C127 1.500 . S
C129 C130 1.371 . S
C129 C131 1.365 . S
C130 C129 1.371 . S
C130 C140 1.386 . S
C130 H148 0.931 . S
C131 C129 1.365 . S
C131 C132 1.409 . S
C131 H149 0.929 . S
C132 C131 1.409 . S
C132 C133 1.380 . S
C132 H150 0.930 . S
C133 C132 1.380 . S
C133 C140 1.357 . S
C134 C125 1.511 . S
C134 C135 1.341 . S
C134 C136 1.371 . S
C135 C134 1.341 . S
C135 C139 1.394 . S
C135 H151 0.930 . S
C136 C134 1.371 . S
C136 C137 1.392 . S
C136 H152 0.931 . S
C137 C136 1.392 . S
C137 C138 1.331 . S
C137 H155 0.932 . S
C138 C137 1.331 . S
C138 C139 1.336 . S
C139 C135 1.394 . S
C139 C138 1.336 . S
C139 H154 0.929 . S
C140 C130 1.386 . S
C140 C133 1.357 . S
C140 H153 0.928 . S
H141 C117 0.931 . S
H142 C119 0.930 . S
H143 C121 0.929 . S
H144 C122 0.931 . S
H145 C124 0.930 . S
H146 C128 0.931 . S
H147 C126 0.931 . S
H148 C130 0.931 . S
H149 C131 0.929 . S
H150 C132 0.930 . S
H151 C135 0.930 . S
H152 C136 0.931 . S
H153 C140 0.928 . S
H154 C139 0.929 . S
H155 C137 0.932 . S
C156 C157 1.386 . S
C156 C158 1.397 . S
C156 H180 0.931 . S
C157 C156 1.386 . S
C157 C161 1.397 . S
C158 C156 1.397 . S
C158 C159 1.384 . S
C158 H181 0.930 . S
C159 C158 1.384 . S
C159 C160 1.377 . S
C159 C162 1.481 . S
C160 C159 1.377 . S
C160 C161 1.389 . S
C160 H182 0.929 . S
C161 C157 1.397 . S
C161 C160 1.389 . S
C161 H183 0.931 . S
C162 C159 1.481 . S
C162 C163 1.387 . S
C162 C167 1.390 . S
C163 C162 1.387 . S
C163 C164 1.401 . S
C163 H184 0.930 . S
C164 C163 1.401 . S
C164 C165 1.376 . S
C164 C173 1.511 . S
C165 C164 1.376 . S
C165 C166 1.392 1_554 S
C165 H186 0.931 1_554 S
C166 C165 1.392 1_556 S
C166 C167 1.361 1_556 S
C166 C168 1.500 . S
C167 C162 1.390 . S
C167 C166 1.361 1_554 S
C167 H185 0.931 . S
C168 C166 1.500 . S
C168 C169 1.371 . S
C168 C170 1.365 . S
C169 C168 1.371 . S
C169 C179 1.386 . S
C169 H187 0.931 . S
C170 C168 1.365 . S
C170 C171 1.409 . S
C170 H188 0.929 . S
C171 C170 1.409 . S
C171 C172 1.380 . S
C171 H189 0.930 . S
C172 C171 1.380 . S
C172 C179 1.357 . S
C173 C164 1.511 . S
C173 C174 1.341 . S
C173 C175 1.371 . S
C174 C173 1.341 . S
C174 C178 1.394 . S
C174 H190 0.930 . S
C175 C173 1.371 . S
C175 C176 1.392 . S
C175 H191 0.931 . S
C176 C175 1.392 . S
C176 C177 1.331 . S
C176 H194 0.932 . S
C177 C176 1.331 . S
C177 C178 1.336 . S
C178 C174 1.394 . S
C178 C177 1.336 . S
C178 H193 0.929 . S
C179 C169 1.386 . S
C179 C172 1.357 . S
C179 H192 0.928 . S
H180 C156 0.931 . S
H181 C158 0.930 . S
H182 C160 0.929 . S
H183 C161 0.931 . S
H184 C163 0.930 . S
H185 C167 0.931 . S
H186 C165 0.931 1_556 S
H187 C169 0.931 . S
H188 C170 0.929 . S
H189 C171 0.930 . S
H190 C174 0.930 . S
H191 C175 0.931 . S
H192 C179 0.928 . S
H193 C178 0.929 . S
H194 C176 0.932 . S
C195 C196 1.386 . S
C195 C197 1.397 . S
C195 H219 0.931 . S
C196 C195 1.386 . S
C196 C200 1.398 1_655 S
C197 C195 1.397 . S
C197 C198 1.389 1_655 S
C197 H220 0.930 . S
C198 C197 1.389 1_455 S
C198 C199 1.373 . S
C198 C201 1.480 1_455 S
C199 C198 1.373 . S
C199 C200 1.389 . S
C199 H221 0.929 . S
C200 C196 1.398 1_455 S
C200 C199 1.389 . S
C200 H222 0.931 . S
C201 C198 1.480 1_655 S
C201 C202 1.386 . S
C201 C206 1.390 . S
C202 C201 1.386 . S
C202 C203 1.400 . S
C202 H223 0.935 . S
C203 C202 1.400 . S
C203 C204 1.376 . S
C203 C212 1.512 . S
C204 C203 1.376 . S
C204 C205 1.392 1_654 S
C204 H225 0.933 1_554 S
C205 C204 1.392 1_456 S
C205 C206 1.361 1_456 S
C205 C207 1.499 . S
C206 C201 1.390 . S
C206 C205 1.361 1_654 S
C206 H224 0.931 1_655 S
C207 C205 1.499 . S
C207 C208 1.357 1_455 S
C207 C209 1.380 . S
C208 C207 1.357 1_655 S
C208 C218 1.386 . S
C208 H226 0.931 . S
C209 C207 1.380 . S
C209 C210 1.409 . S
C209 H227 0.929 . S
C210 C209 1.409 . S
C210 C211 1.384 . S
C210 H228 0.930 . S
C211 C210 1.384 . S
C211 C218 1.353 1_455 S
C212 C203 1.512 . S
C212 C213 1.341 . S
C212 C214 1.371 1_655 S
C213 C212 1.341 . S
C213 C217 1.394 . S
C213 H229 0.930 . S
C214 C212 1.371 1_455 S
C214 C215 1.392 . S
C214 H230 0.931 . S
C215 C214 1.392 . S
C215 C216 1.326 1_455 S
C215 H233 0.932 . S
C216 C215 1.326 1_655 S
C216 C217 1.341 . S
C217 C213 1.394 . S
C217 C216 1.341 . S
C217 H232 0.929 . S
C218 C208 1.386 . S
C218 C211 1.353 1_655 S
C218 H231 0.928 . S
H219 C195 0.931 . S
H220 C197 0.930 . S
H221 C199 0.929 . S
H222 C200 0.931 . S
H223 C202 0.935 . S
H224 C206 0.931 1_455 S
H225 C204 0.933 1_556 S
H226 C208 0.931 . S
H227 C209 0.929 . S
H228 C210 0.930 . S
H229 C213 0.930 . S
H230 C214 0.931 . S
H231 C218 0.928 . S
H232 C217 0.929 . S
H233 C215 0.932 . S
C234 C235 1.386 . S
C234 C236 1.397 . S
C234 H258 0.931 . S
C235 C234 1.386 . S
C235 C239 1.398 1_565 S
C236 C234 1.397 . S
C236 C237 1.389 1_565 S
C236 H259 0.930 . S
C237 C236 1.389 1_545 S
C237 C238 1.373 . S
C237 C240 1.480 1_545 S
C238 C237 1.373 . S
C238 C239 1.389 . S
C238 H260 0.929 . S
C239 C235 1.398 1_545 S
C239 C238 1.389 . S
C239 H261 0.931 . S
C240 C237 1.480 1_565 S
C240 C241 1.386 . S
C240 C245 1.390 . S
C241 C240 1.386 . S
C241 C242 1.400 . S
C241 H262 0.935 . S
C242 C241 1.400 . S
C242 C243 1.376 . S
C242 C251 1.512 . S
C243 C242 1.376 . S
C243 C244 1.392 1_564 S
C243 H264 0.933 1_554 S
C244 C243 1.392 1_546 S
C244 C245 1.361 1_546 S
C244 C246 1.499 . S
C245 C240 1.390 . S
C245 C244 1.361 1_564 S
C245 H263 0.931 1_565 S
C246 C244 1.499 . S
C246 C247 1.357 1_545 S
C246 C248 1.380 . S
C247 C246 1.357 1_565 S
C247 C257 1.386 . S
C247 H265 0.931 . S
C248 C246 1.380 . S
C248 C249 1.409 . S
C248 H266 0.929 . S
C249 C248 1.409 . S
C249 C250 1.384 . S
C249 H267 0.930 . S
C250 C249 1.384 . S
C250 C257 1.353 1_545 S
C251 C242 1.512 . S
C251 C252 1.341 . S
C251 C253 1.371 1_565 S
C252 C251 1.341 . S
C252 C256 1.394 . S
C252 H268 0.930 . S
C253 C251 1.371 1_545 S
C253 C254 1.392 . S
C253 H269 0.931 . S
C254 C253 1.392 . S
C254 C255 1.326 1_545 S
C254 H272 0.932 . S
C255 C254 1.326 1_565 S
C255 C256 1.341 . S
C256 C252 1.394 . S
C256 C255 1.341 . S
C256 H271 0.929 . S
C257 C247 1.386 . S
C257 C250 1.353 1_565 S
C257 H270 0.928 . S
H258 C234 0.931 . S
H259 C236 0.930 . S
H260 C238 0.929 . S
H261 C239 0.931 . S
H262 C241 0.935 . S
H263 C245 0.931 1_545 S
H264 C243 0.933 1_556 S
H265 C247 0.931 . S
H266 C248 0.929 . S
H267 C249 0.930 . S
H268 C252 0.930 . S
H269 C253 0.931 . S
H270 C257 0.928 . S
H271 C256 0.929 . S
H272 C254 0.932 . S
C273 C274 1.386 . S
C273 C275 1.397 . S
C273 H297 0.931 . S
C274 C273 1.386 . S
C274 C278 1.397 . S
C275 C273 1.397 . S
C275 C276 1.384 . S
C275 H298 0.930 . S
C276 C275 1.384 . S
C276 C277 1.377 . S
C276 C279 1.481 . S
C277 C276 1.377 . S
C277 C278 1.389 . S
C277 H299 0.929 . S
C278 C274 1.397 . S
C278 C277 1.389 . S
C278 H300 0.931 . S
C279 C276 1.481 . S
C279 C280 1.387 1_556 S
C279 C284 1.390 1_556 S
C280 C279 1.387 1_554 S
C280 C281 1.401 . S
C280 H301 0.930 1_554 S
C281 C280 1.401 . S
C281 C282 1.376 . S
C281 C290 1.511 . S
C282 C281 1.376 . S
C282 C283 1.392 . S
C282 H303 0.931 . S
C283 C282 1.392 . S
C283 C284 1.361 . S
C283 C285 1.500 . S
C284 C279 1.390 1_554 S
C284 C283 1.361 . S
C284 H302 0.931 . S
C285 C283 1.500 . S
C285 C286 1.371 . S
C285 C287 1.365 . S
C286 C285 1.371 . S
C286 C296 1.386 . S
C286 H304 0.931 . S
C287 C285 1.365 . S
C287 C288 1.409 . S
C287 H305 0.929 . S
C288 C287 1.409 . S
C288 C289 1.380 . S
C288 H306 0.930 . S
C289 C288 1.380 . S
C289 C296 1.357 . S
C290 C281 1.511 . S
C290 C291 1.341 . S
C290 C292 1.371 . S
C291 C290 1.341 . S
C291 C295 1.394 . S
C291 H307 0.930 . S
C292 C290 1.371 . S
C292 C293 1.392 . S
C292 H308 0.931 . S
C293 C292 1.392 . S
C293 C294 1.331 . S
C293 H311 0.932 . S
C294 C293 1.331 . S
C294 C295 1.336 . S
C295 C291 1.394 . S
C295 C294 1.336 . S
C295 H310 0.929 . S
C296 C286 1.386 . S
C296 C289 1.357 . S
C296 H309 0.928 . S
H297 C273 0.931 . S
H298 C275 0.930 . S
H299 C277 0.929 . S
H300 C278 0.931 . S
H301 C280 0.930 1_556 S
H302 C284 0.931 . S
H303 C282 0.931 . S
H304 C286 0.931 . S
H305 C287 0.929 . S
H306 C288 0.930 . S
H307 C291 0.930 . S
H308 C292 0.931 . S
H309 C296 0.928 . S
H310 C295 0.929 . S
H311 C293 0.932 . S
C312 Eu313 2.835 . S
C312 C314 1.500 . S
C312 O332 1.257 . S
C312 O333 1.260 . S
Eu313 C312 2.835 . S
Eu313 O332 2.473 . S
Eu313 O333 2.480 . S
Eu313 O334 2.430 . S
Eu313 O335 2.670 1_545 S
Eu313 O336 2.394 . S
Eu313 O341 2.355 1_655 S
Eu313 O343 2.374 1_545 S
C314 C312 1.500 . S
C314 C315 1.377 . S
C314 C319 1.377 . S
C315 C314 1.377 . S
C315 C316 1.395 . S
C315 H344 0.931 . S
C316 C315 1.395 . S
C316 C317 1.383 . S
C316 H345 0.931 . S
C317 C316 1.383 . S
C317 C318 1.394 . S
C318 C317 1.394 . S
C318 C319 1.378 . S
C318 H346 0.931 1_655 S
C319 C314 1.377 . S
C319 C318 1.378 . S
C319 H347 0.931 1_655 S
C320 O334 1.281 . S
C320 O335 1.254 1_545 S
C321 O336 1.251 1_455 S
C321 O337 1.251 . S
C322 Eu323 2.835 . S
C322 C324 1.500 . S
C322 O338 1.257 . S
C322 O339 1.260 . S
Eu323 C322 2.835 . S
Eu323 O335 2.355 1_455 S
Eu323 O337 2.374 1_565 S
Eu323 O338 2.473 . S
Eu323 O339 2.480 . S
Eu323 O340 2.430 . S
Eu323 O341 2.670 1_565 S
Eu323 O342 2.394 . S
C324 C322 1.500 . S
C324 C325 1.377 . S
C324 C329 1.377 . S
C325 C324 1.377 . S
C325 C326 1.395 . S
C325 H348 0.931 . S
C326 C325 1.395 . S
C326 C327 1.383 . S
C326 H349 0.931 . S
C327 C326 1.383 . S
C327 C328 1.394 . S
C328 C327 1.394 . S
C328 C329 1.378 . S
C328 H350 0.931 1_455 S
C329 C324 1.377 . S
C329 C328 1.378 . S
C329 H351 0.931 1_455 S
C330 O340 1.274 . S
C330 O341 1.259 1_565 S
C331 O342 1.251 1_655 S
C331 O343 1.251 . S
O332 C312 1.257 . S
O332 Eu313 2.473 . S
O333 C312 1.260 . S
O333 Eu313 2.480 . S
O334 Eu313 2.430 . S
O334 C320 1.281 . S
O335 Eu313 2.670 1_565 S
O335 C320 1.254 1_565 S
O335 Eu323 2.355 1_655 S
O336 Eu313 2.394 . S
O336 C321 1.251 1_655 S
O337 C321 1.251 . S
O337 Eu323 2.374 1_545 S
O338 C322 1.257 . S
O338 Eu323 2.473 . S
O339 C322 1.260 . S
O339 Eu323 2.480 . S
O340 Eu323 2.430 . S
O340 C330 1.274 . S
O341 Eu313 2.355 1_455 S
O341 Eu323 2.670 1_545 S
O341 C330 1.259 1_545 S
O342 Eu323 2.394 . S
O342 C331 1.251 1_455 S
O343 Eu313 2.374 1_565 S
O343 C331 1.251 . S
H344 C315 0.931 . S
H345 C316 0.931 . S
H346 C318 0.931 1_455 S
H347 C319 0.931 1_455 S
H348 C325 0.931 . S
H349 C326 0.931 . S
H350 C328 0.931 1_655 S
H351 C329 0.931 1_655 S
C352 Eu353 2.835 . S
C352 C354 1.500 . S
C352 O372 1.257 . S
C352 O373 1.260 . S
Eu353 C352 2.835 . S
Eu353 O372 2.473 . S
Eu353 O373 2.480 . S
Eu353 O374 2.430 . S
Eu353 O375 2.670 . S
Eu353 O376 2.394 . S
Eu353 O381 2.355 1_565 S
Eu353 O383 2.374 . S
C354 C352 1.500 . S
C354 C355 1.377 . S
C354 C359 1.377 . S
C355 C354 1.377 . S
C355 C356 1.395 . S
C355 H384 0.931 . S
C356 C355 1.395 . S
C356 C357 1.383 . S
C356 H385 0.931 . S
C357 C356 1.383 . S
C357 C358 1.394 . S
C358 C357 1.394 . S
C358 C359 1.378 . S
C358 H386 0.931 1_565 S
C359 C354 1.377 . S
C359 C358 1.378 . S
C359 H387 0.931 1_565 S
C360 O374 1.259 . S
C360 O375 1.270 . S
C361 O376 1.251 1_545 S
C361 O377 1.251 . S
C362 Eu363 2.835 . S
C362 C364 1.500 . S
C362 O378 1.257 . S
C362 O379 1.260 . S
Eu363 C362 2.835 . S
Eu363 O375 2.355 1_545 S
Eu363 O377 2.374 . S
Eu363 O378 2.473 . S
Eu363 O379 2.480 . S
Eu363 O380 2.430 . S
Eu363 O381 2.670 . S
Eu363 O382 2.394 . S
C364 C362 1.500 . S
C364 C365 1.377 . S
C364 C369 1.377 . S
C365 C364 1.377 . S
C365 C366 1.395 . S
C365 H388 0.931 . S
C366 C365 1.395 . S
C366 C367 1.383 . S
C366 H389 0.931 . S
C367 C366 1.383 . S
C367 C368 1.394 . S
C368 C367 1.394 . S
C368 C369 1.378 . S
C368 H390 0.931 1_545 S
C369 C364 1.377 . S
C369 C368 1.378 . S
C369 H391 0.931 1_545 S
C370 O380 1.259 . S
C370 O381 1.270 . S
C371 O382 1.251 1_565 S
C371 O383 1.251 . S
O372 C352 1.257 . S
O372 Eu353 2.473 . S
O373 C352 1.260 . S
O373 Eu353 2.480 . S
O374 Eu353 2.430 . S
O374 C360 1.259 . S
O375 Eu353 2.670 . S
O375 C360 1.270 . S
O375 Eu363 2.355 1_565 S
O376 Eu353 2.394 . S
O376 C361 1.251 1_565 S
O377 C361 1.251 . S
O377 Eu363 2.374 . S
O378 C362 1.257 . S
O378 Eu363 2.473 . S
O379 C362 1.260 . S
O379 Eu363 2.480 . S
O380 Eu363 2.430 . S
O380 C370 1.259 . S
O381 Eu353 2.355 1_545 S
O381 Eu363 2.670 . S
O381 C370 1.270 . S
O382 Eu363 2.394 . S
O382 C371 1.251 1_545 S
O383 Eu353 2.374 . S
O383 C371 1.251 . S
H384 C355 0.931 . S
H385 C356 0.931 . S
H386 C358 0.931 1_545 S
H387 C359 0.931 1_545 S
H388 C365 0.931 . S
H389 C366 0.931 . S
H390 C368 0.931 1_565 S
H391 C369 0.931 1_565 S
C392 Eu393 2.835 . S
C392 C394 1.500 . S
C392 O412 1.257 . S
C392 O413 1.260 . S
Eu393 C392 2.835 . S
Eu393 O412 2.473 . S
Eu393 O413 2.480 . S
Eu393 O414 2.430 . S
Eu393 O415 2.670 . S
Eu393 O416 2.394 . S
Eu393 O421 2.355 . S
Eu393 O423 2.374 . S
C394 C392 1.500 . S
C394 C395 1.377 . S
C394 C399 1.377 . S
C395 C394 1.377 . S
C395 C396 1.395 . S
C395 H424 0.931 . S
C396 C395 1.395 . S
C396 C397 1.383 . S
C396 H425 0.931 . S
C397 C396 1.383 . S
C397 C398 1.394 . S
C398 C397 1.394 . S
C398 C399 1.378 . S
C398 H426 0.931 . S
C399 C394 1.377 . S
C399 C398 1.378 . S
C399 H427 0.931 . S
C400 O414 1.259 . S
C400 O415 1.270 . S
C401 O416 1.251 . S
C401 O417 1.251 . S
C402 Eu403 2.835 . S
C402 C404 1.500 . S
C402 O418 1.257 . S
C402 O419 1.260 . S
Eu403 C402 2.835 . S
Eu403 O415 2.355 . S
Eu403 O417 2.374 . S
Eu403 O418 2.473 . S
Eu403 O419 2.480 . S
Eu403 O420 2.430 . S
Eu403 O421 2.670 . S
Eu403 O422 2.394 . S
C404 C402 1.500 . S
C404 C405 1.377 . S
C404 C409 1.377 . S
C405 C404 1.377 . S
C405 C406 1.395 . S
C405 H428 0.931 . S
C406 C405 1.395 . S
C406 C407 1.383 . S
C406 H429 0.931 . S
C407 C406 1.383 . S
C407 C408 1.394 . S
C408 C407 1.394 . S
C408 C409 1.378 . S
C408 H430 0.931 . S
C409 C404 1.377 . S
C409 C408 1.378 . S
C409 H431 0.931 . S
C410 O420 1.259 . S
C410 O421 1.270 . S
C411 O422 1.251 . S
C411 O423 1.251 . S
O412 C392 1.257 . S
O412 Eu393 2.473 . S
O413 C392 1.260 . S
O413 Eu393 2.480 . S
O414 Eu393 2.430 . S
O414 C400 1.259 . S
O415 Eu393 2.670 . S
O415 C400 1.270 . S
O415 Eu403 2.355 . S
O416 Eu393 2.394 . S
O416 C401 1.251 . S
O417 C401 1.251 . S
O417 Eu403 2.374 . S
O418 C402 1.257 . S
O418 Eu403 2.473 . S
O419 C402 1.260 . S
O419 Eu403 2.480 . S
O420 Eu403 2.430 . S
O420 C410 1.259 . S
O421 Eu393 2.355 . S
O421 Eu403 2.670 . S
O421 C410 1.270 . S
O422 Eu403 2.394 . S
O422 C411 1.251 . S
O423 Eu393 2.374 . S
O423 C411 1.251 . S
H424 C395 0.931 . S
H425 C396 0.931 . S
H426 C398 0.931 . S
H427 C399 0.931 . S
H428 C405 0.931 . S
H429 C406 0.931 . S
H430 C408 0.931 . S
H431 C409 0.931 . S
C432 Eu433 2.835 . S
C432 C434 1.500 . S
C432 O452 1.257 . S
C432 O453 1.260 . S
Eu433 C432 2.835 . S
Eu433 O452 2.473 . S
Eu433 O453 2.480 . S
Eu433 O454 2.430 . S
Eu433 O455 2.670 1_455 S
Eu433 O456 2.394 . S
Eu433 O461 2.355 . S
Eu433 O463 2.374 1_455 S
C434 C432 1.500 . S
C434 C435 1.377 . S
C434 C439 1.377 . S
C435 C434 1.377 . S
C435 C436 1.395 . S
C435 H464 0.931 . S
C436 C435 1.395 . S
C436 C437 1.383 . S
C436 H465 0.931 . S
C437 C436 1.383 . S
C437 C438 1.394 . S
C438 C437 1.394 . S
C438 C439 1.378 . S
C438 H466 0.931 . S
C439 C434 1.377 . S
C439 C438 1.378 . S
C439 H467 0.931 . S
C440 O454 1.277 . S
C440 O455 1.258 1_455 S
C441 O456 1.251 . S
C441 O457 1.251 . S
C442 Eu443 2.835 . S
C442 C444 1.500 . S
C442 O458 1.257 . S
C442 O459 1.260 . S
Eu443 C442 2.835 . S
Eu443 O455 2.355 . S
Eu443 O457 2.374 1_655 S
Eu443 O458 2.473 . S
Eu443 O459 2.480 . S
Eu443 O460 2.430 . S
Eu443 O461 2.670 1_655 S
Eu443 O462 2.394 . S
C444 C442 1.500 . S
C444 C445 1.377 . S
C444 C449 1.377 . S
C445 C444 1.377 . S
C445 C446 1.395 . S
C445 H468 0.931 . S
C446 C445 1.395 . S
C446 C447 1.383 . S
C446 H469 0.931 . S
C447 C446 1.383 . S
C447 C448 1.394 . S
C448 C447 1.394 . S
C448 C449 1.378 . S
C448 H470 0.931 . S
C449 C444 1.377 . S
C449 C448 1.378 . S
C449 H471 0.931 . S
C450 O460 1.269 . S
C450 O461 1.263 1_655 S
C451 O462 1.251 . S
C451 O463 1.251 . S
O452 C432 1.257 . S
O452 Eu433 2.473 . S
O453 C432 1.260 . S
O453 Eu433 2.480 . S
O454 Eu433 2.430 . S
O454 C440 1.277 . S
O455 Eu433 2.670 1_655 S
O455 C440 1.258 1_655 S
O455 Eu443 2.355 . S
O456 Eu433 2.394 . S
O456 C441 1.251 . S
O457 C441 1.251 . S
O457 Eu443 2.374 1_455 S
O458 C442 1.257 . S
O458 Eu443 2.473 . S
O459 C442 1.260 . S
O459 Eu443 2.480 . S
O460 Eu443 2.430 . S
O460 C450 1.269 . S
O461 Eu433 2.355 . S
O461 Eu443 2.670 1_455 S
O461 C450 1.263 1_455 S
O462 Eu443 2.394 . S
O462 C451 1.251 . S
O463 Eu433 2.374 1_655 S
O463 C451 1.251 . S
H464 C435 0.931 . S
H465 C436 0.931 . S
H466 C438 0.931 . S
H467 C439 0.931 . S
H468 C445 0.931 . S
H469 C446 0.931 . S
H470 C448 0.931 . S
H471 C449 0.931 . S
C472 C473 1.346 1_565 S
C472 C474 1.327 . S
C472 H497 0.950 . S
C473 C472 1.346 1_545 S
C473 C489 1.352 . S
C474 C472 1.327 . S
C474 C493 1.419 1_565 S
C474 H498 0.950 . S
C475 C492 1.574 . S
C475 C494 1.382 . S
C475 H499 0.949 . S
H476 C480 0.949 . S
C477 C478 1.379 . S
C477 C479 1.327 . S
C477 H500 0.950 . S
C478 C477 1.379 . S
C478 C490 1.320 1_545 S
C479 C477 1.327 . S
C479 C495 1.451 . S
C479 H501 0.950 . S
C480 H476 0.949 . S
C480 C488 1.574 . S
C480 C496 1.348 1_565 S
H481 C489 0.950 . S
H482 C487 0.950 . S
H483 C488 0.949 . S
H484 C490 0.950 . S
H485 C491 0.950 . S
H486 C492 0.949 . S
C487 H482 0.950 . S
C487 C489 1.327 . S
C487 C493 1.438 . S
C488 C480 1.574 . S
C488 H483 0.949 . S
C488 C494 1.354 1_565 S
C489 C473 1.352 . S
C489 H481 0.950 . S
C489 C487 1.327 . S
C490 C478 1.320 1_565 S
C490 H484 0.950 . S
C490 C491 1.327 . S
C491 H485 0.950 . S
C491 C490 1.327 . S
C491 C495 1.407 1_565 S
C492 C475 1.574 . S
C492 H486 0.949 . S
C492 C496 1.389 . S
C493 C474 1.419 1_545 S
C493 C487 1.438 . S
C493 C494 1.523 . S
C494 C475 1.382 . S
C494 C488 1.354 1_545 S
C494 C493 1.523 . S
C495 C479 1.451 . S
C495 C491 1.407 1_545 S
C495 C496 1.523 . S
C496 C480 1.348 1_545 S
C496 C492 1.389 . S
C496 C495 1.523 . S
H497 C472 0.950 . S
H498 C474 0.950 . S
H499 C475 0.949 . S
H500 C477 0.950 . S
H501 C479 0.950 . S
C502 C503 1.349 . S
C502 C504 1.327 . S
C502 H527 0.950 . S
C503 C502 1.349 . S
C503 C519 1.349 . S
C504 C502 1.327 . S
C504 C523 1.429 . S
C504 H528 0.950 . S
C505 C522 1.574 . S
C505 C524 1.368 . S
C505 H529 0.949 . S
H506 C510 0.949 . S
C507 C508 1.349 . S
C507 C509 1.327 . S
C507 H530 0.950 . S
C508 C507 1.349 . S
C508 C520 1.349 . S
C509 C507 1.327 . S
C509 C525 1.429 . S
C509 H531 0.950 . S
C510 H506 0.949 . S
C510 C518 1.574 . S
C510 C526 1.368 . S
H511 C519 0.950 . S
H512 C517 0.950 . S
H513 C518 0.949 . S
H514 C520 0.950 . S
H515 C521 0.950 . S
H516 C522 0.949 . S
C517 H512 0.950 . S
C517 C519 1.327 . S
C517 C523 1.429 . S
C518 C510 1.574 . S
C518 H513 0.949 . S
C518 C524 1.368 . S
C519 C503 1.349 . S
C519 H511 0.950 . S
C519 C517 1.327 . S
C520 C508 1.349 . S
C520 H514 0.950 . S
C520 C521 1.327 . S
C521 H515 0.950 . S
C521 C520 1.327 . S
C521 C525 1.429 . S
C522 C505 1.574 . S
C522 H516 0.949 . S
C522 C526 1.368 . S
C523 C504 1.429 . S
C523 C517 1.429 . S
C523 C524 1.523 . S
C524 C505 1.368 . S
C524 C518 1.368 . S
C524 C523 1.523 . S
C525 C509 1.429 . S
C525 C521 1.429 . S
C525 C526 1.523 . S
C526 C510 1.368 . S
C526 C522 1.368 . S
C526 C525 1.523 . S
H527 C502 0.950 . S
H528 C504 0.950 . S
H529 C505 0.949 . S
H530 C507 0.950 . S
H531 C509 0.950 . S
C532 C533 1.349 . S
C532 C534 1.327 . S
C532 H557 0.950 . S
C533 C532 1.349 . S
C533 C549 1.349 . S
C534 C532 1.327 . S
C534 C553 1.429 . S
C534 H558 0.950 . S
C535 C552 1.574 . S
C535 C554 1.368 . S
C535 H559 0.949 . S
H536 C540 0.949 . S
C537 C538 1.349 . S
C537 C539 1.327 . S
C537 H560 0.950 . S
C538 C537 1.349 . S
C538 C550 1.349 . S
C539 C537 1.327 . S
C539 C555 1.429 . S
C539 H561 0.950 . S
C540 H536 0.949 . S
C540 C548 1.574 . S
C540 C556 1.368 . S
H541 C549 0.950 . S
H542 C547 0.950 . S
H543 C548 0.949 . S
H544 C550 0.950 . S
H545 C551 0.950 . S
H546 C552 0.949 . S
C547 H542 0.950 . S
C547 C549 1.327 . S
C547 C553 1.429 . S
C548 C540 1.574 . S
C548 H543 0.949 . S
C548 C554 1.368 . S
C549 C533 1.349 . S
C549 H541 0.950 . S
C549 C547 1.327 . S
C550 C538 1.349 . S
C550 H544 0.950 . S
C550 C551 1.327 . S
C551 H545 0.950 . S
C551 C550 1.327 . S
C551 C555 1.429 . S
C552 C535 1.574 . S
C552 H546 0.949 . S
C552 C556 1.368 . S
C553 C534 1.429 . S
C553 C547 1.429 . S
C553 C554 1.523 . S
C554 C535 1.368 . S
C554 C548 1.368 . S
C554 C553 1.523 . S
C555 C539 1.429 . S
C555 C551 1.429 . S
C555 C556 1.523 . S
C556 C540 1.368 . S
C556 C552 1.368 . S
C556 C555 1.523 . S
H557 C532 0.950 . S
H558 C534 0.950 . S
H559 C535 0.949 . S
H560 C537 0.950 . S
H561 C539 0.950 . S
C562 C563 1.346 1_655 S
C562 C564 1.327 . S
C562 H587 0.950 . S
C563 C562 1.346 1_455 S
C563 C579 1.352 . S
C564 C562 1.327 . S
C564 C583 1.419 1_655 S
C564 H588 0.950 . S
C565 C582 1.574 . S
C565 C584 1.383 . S
C565 H589 0.949 . S
H566 C570 0.949 . S
C567 C568 1.381 . S
C567 C569 1.327 . S
C567 H590 0.950 . S
C568 C567 1.381 . S
C568 C580 1.318 1_455 S
C569 C567 1.327 . S
C569 C585 1.453 . S
C569 H591 0.950 . S
C570 H566 0.949 . S
C570 C578 1.574 . S
C570 C586 1.346 1_655 S
H571 C579 0.950 . S
H572 C577 0.950 . S
H573 C578 0.949 . S
H574 C580 0.950 . S
H575 C581 0.950 . S
H576 C582 0.949 . S
C577 H572 0.950 . S
C577 C579 1.327 . S
C577 C583 1.438 . S
C578 C570 1.574 . S
C578 H573 0.949 . S
C578 C584 1.353 1_655 S
C579 C563 1.352 . S
C579 H571 0.950 . S
C579 C577 1.327 . S
C580 C568 1.318 1_655 S
C580 H574 0.950 . S
C580 C581 1.327 . S
C581 H575 0.950 . S
C581 C580 1.327 . S
C581 C585 1.405 1_655 S
C582 C565 1.574 . S
C582 H576 0.949 . S
C582 C586 1.390 . S
C583 C564 1.419 1_455 S
C583 C577 1.438 . S
C583 C584 1.523 . S
C584 C565 1.383 . S
C584 C578 1.353 1_455 S
C584 C583 1.523 . S
C585 C569 1.453 . S
C585 C581 1.405 1_455 S
C585 C586 1.523 . S
C586 C570 1.346 1_455 S
C586 C582 1.390 . S
C586 C585 1.523 . S
H587 C562 0.950 . S
H588 C564 0.950 . S
H589 C565 0.949 . S
H590 C567 0.950 . S
H591 C569 0.950 . S
C592 C593 1.346 . S
C592 C594 1.327 . S
C592 H617 0.950 . S
C593 C592 1.346 . S
C593 C609 1.352 1_545 S
C594 C592 1.327 . S
C594 C613 1.429 1_545 S
C594 H618 0.950 . S
C595 C612 1.574 . S
C595 C614 1.371 1_556 S
C595 H619 0.952 . S
H596 C600 0.949 . S
C597 C598 1.368 . S
C597 C599 1.327 . S
C597 H620 0.950 . S
C598 C597 1.368 . S
C598 C610 1.330 1_565 S
C599 C597 1.327 . S
C599 C615 1.441 . S
C599 H621 0.950 . S
C600 H596 0.949 . S
C600 C608 1.574 1_556 S
C600 C616 1.359 1_545 S
H601 C609 0.950 . S
H602 C607 0.950 . S
H603 C608 0.949 . S
H604 C610 0.950 . S
H605 C611 0.950 . S
H606 C612 0.949 . S
C607 H602 0.950 . S
C607 C609 1.327 . S
C607 C613 1.428 . S
C608 C600 1.574 1_554 S
C608 H603 0.949 . S
C608 C614 1.365 1_545 S
C609 C593 1.352 1_565 S
C609 H601 0.950 . S
C609 C607 1.327 . S
C610 C598 1.330 1_545 S
C610 H604 0.950 . S
C610 C611 1.327 . S
C611 H605 0.950 . S
C611 C610 1.327 . S
C611 C615 1.416 1_545 S
C612 C595 1.574 . S
C612 H606 0.949 . S
C612 C616 1.378 . S
C613 C594 1.429 1_565 S
C613 C607 1.428 . S
C613 C614 1.523 . S
C614 C595 1.371 1_554 S
C614 C608 1.365 1_565 S
C614 C613 1.523 . S
C615 C599 1.441 . S
C615 C611 1.416 1_565 S
C615 C616 1.523 . S
C616 C600 1.359 1_565 S
C616 C612 1.378 . S
C616 C615 1.523 . S
H617 C592 0.950 . S
H618 C594 0.950 . S
H619 C595 0.952 . S
H620 C597 0.950 . S
H621 C599 0.950 . S
C622 C623 1.349 . S
C622 C624 1.327 . S
C622 H647 0.950 . S
C623 C622 1.349 . S
C623 C639 1.349 . S
C624 C622 1.327 . S
C624 C643 1.429 . S
C624 H648 0.950 . S
C625 C642 1.574 1_554 S
C625 C644 1.368 . S
C625 H649 0.949 . S
H626 C630 0.949 . S
C627 C628 1.349 . S
C627 C629 1.327 . S
C627 H650 0.950 . S
C628 C627 1.349 . S
C628 C640 1.349 . S
C629 C627 1.327 . S
C629 C645 1.429 . S
C629 H651 0.950 . S
C630 H626 0.949 . S
C630 C638 1.574 . S
C630 C646 1.368 . S
H631 C639 0.950 . S
H632 C637 0.950 . S
H633 C638 0.952 . S
H634 C640 0.950 . S
H635 C641 0.950 . S
H636 C642 0.949 . S
C637 H632 0.950 . S
C637 C639 1.327 . S
C637 C643 1.429 . S
C638 C630 1.574 . S
C638 H633 0.952 . S
C638 C644 1.368 1_556 S
C639 C623 1.349 . S
C639 H631 0.950 . S
C639 C637 1.327 . S
C640 C628 1.349 . S
C640 H634 0.950 . S
C640 C641 1.327 . S
C641 H635 0.950 . S
C641 C640 1.327 . S
C641 C645 1.429 . S
C642 C625 1.574 1_556 S
C642 H636 0.949 . S
C642 C646 1.368 . S
C643 C624 1.429 . S
C643 C637 1.429 . S
C643 C644 1.523 . S
C644 C625 1.368 . S
C644 C638 1.368 1_554 S
C644 C643 1.523 . S
C645 C629 1.429 . S
C645 C641 1.429 . S
C645 C646 1.523 . S
C646 C630 1.368 . S
C646 C642 1.368 . S
C646 C645 1.523 . S
H647 C622 0.950 . S
H648 C624 0.950 . S
H649 C625 0.949 . S
H650 C627 0.950 . S
H651 C629 0.950 . S
C652 C653 1.349 . S
C652 C654 1.327 . S
C652 H677 0.950 . S
C653 C652 1.349 . S
C653 C669 1.349 . S
C654 C652 1.327 . S
C654 C673 1.429 . S
C654 H678 0.950 . S
C655 C672 1.574 . S
C655 C674 1.368 1_556 S
C655 H679 0.949 1_556 S
H656 C660 0.949 . S
C657 C658 1.349 . S
C657 C659 1.327 . S
C657 H680 0.950 . S
C658 C657 1.349 . S
C658 C670 1.349 . S
C659 C657 1.327 . S
C659 C675 1.429 . S
C659 H681 0.950 . S
C660 H656 0.949 . S
C660 C668 1.574 1_556 S
C660 C676 1.368 . S
H661 C669 0.950 . S
H662 C667 0.950 . S
H663 C668 0.949 . S
H664 C670 0.950 . S
H665 C671 0.950 . S
H666 C672 0.949 . S
C667 H662 0.950 . S
C667 C669 1.327 . S
C667 C673 1.429 . S
C668 C660 1.574 1_554 S
C668 H663 0.949 . S
C668 C674 1.368 . S
C669 C653 1.349 . S
C669 H661 0.950 . S
C669 C667 1.327 . S
C670 C658 1.349 . S
C670 H664 0.950 . S
C670 C671 1.327 . S
C671 H665 0.950 . S
C671 C670 1.327 . S
C671 C675 1.429 . S
C672 C655 1.574 . S
C672 H666 0.949 . S
C672 C676 1.368 . S
C673 C654 1.429 . S
C673 C667 1.429 . S
C673 C674 1.523 . S
C674 C655 1.368 1_554 S
C674 C668 1.368 . S
C674 C673 1.523 . S
C675 C659 1.429 . S
C675 C671 1.429 . S
C675 C676 1.523 . S
C676 C660 1.368 . S
C676 C672 1.368 . S
C676 C675 1.523 . S
H677 C652 0.950 . S
H678 C654 0.950 . S
H679 C655 0.949 1_554 S
H680 C657 0.950 . S
H681 C659 0.950 . S
C682 C683 1.347 1_455 S
C682 C684 1.327 . S
C682 H707 0.950 . S
C683 C682 1.347 1_655 S
C683 C699 1.351 . S
C684 C682 1.327 . S
C684 C703 1.422 1_455 S
C684 H708 0.950 . S
C685 C702 1.574 1_554 S
C685 C704 1.379 . S
C685 H709 0.949 . S
H686 C690 0.949 . S
C687 C688 1.372 . S
C687 C689 1.327 . S
C687 H710 0.950 . S
C688 C687 1.372 . S
C688 C700 1.327 1_655 S
C689 C687 1.327 . S
C689 C705 1.446 . S
C689 H711 0.950 . S
C690 H686 0.949 . S
C690 C698 1.574 . S
C690 C706 1.353 1_455 S
H691 C699 0.950 . S
H692 C697 0.950 . S
H693 C698 0.949 . S
H694 C700 0.950 . S
H695 C701 0.950 . S
H696 C702 0.949 . S
C697 H692 0.950 . S
C697 C699 1.327 . S
C697 C703 1.436 . S
C698 C690 1.574 . S
C698 H693 0.949 . S
C698 C704 1.358 1_456 S
C699 C683 1.351 . S
C699 H691 0.950 . S
C699 C697 1.327 . S
C700 C688 1.327 1_455 S
C700 H694 0.950 . S
C700 C701 1.327 . S
C701 H695 0.950 . S
C701 C700 1.327 . S
C701 C705 1.412 1_455 S
C702 C685 1.574 1_556 S
C702 H696 0.949 . S
C702 C706 1.384 . S
C703 C684 1.422 1_655 S
C703 C697 1.436 . S
C703 C704 1.523 . S
C704 C685 1.379 . S
C704 C698 1.358 1_654 S
C704 C703 1.523 . S
C705 C689 1.446 . S
C705 C701 1.412 1_655 S
C705 C706 1.523 . S
C706 C690 1.353 1_655 S
C706 C702 1.384 . S
C706 C705 1.523 . S
H707 C682 0.950 . S
H708 C684 0.950 . S
H709 C685 0.949 . S
H710 C687 0.950 . S
H711 C689 0.950 . S
C712 C713 1.350 . S
C712 C714 1.325 1_455 S
C712 H737 0.951 . S
C713 C712 1.350 . S
C713 C729 1.350 1_455 S
C714 C712 1.325 1_655 S
C714 C733 1.429 . S
C714 H738 0.950 . S
C715 C732 1.574 . S
C715 C734 1.368 . S
C715 H739 0.949 . S
H716 C720 0.949 . S
C717 C718 1.349 . S
C717 C719 1.327 . S
C717 H740 0.950 . S
C718 C717 1.349 . S
C718 C730 1.349 . S
C719 C717 1.327 . S
C719 C735 1.429 . S
C719 H741 0.950 . S
C720 H716 0.949 . S
C720 C728 1.574 . S
C720 C736 1.368 . S
H721 C729 0.950 1_455 S
H722 C727 0.950 . S
H723 C728 0.949 . S
H724 C730 0.950 . S
H725 C731 0.950 . S
H726 C732 0.949 . S
C727 H722 0.950 . S
C727 C729 1.326 . S
C727 C733 1.429 . S
C728 C720 1.574 . S
C728 H723 0.949 . S
C728 C734 1.368 . S
C729 C713 1.350 1_655 S
C729 H721 0.950 1_655 S
C729 C727 1.326 . S
C730 C718 1.349 . S
C730 H724 0.950 . S
C730 C731 1.327 . S
C731 H725 0.950 . S
C731 C730 1.327 . S
C731 C735 1.429 . S
C732 C715 1.574 . S
C732 H726 0.949 . S
C732 C736 1.368 . S
C733 C714 1.429 . S
C733 C727 1.429 . S
C733 C734 1.523 . S
C734 C715 1.368 . S
C734 C728 1.368 . S
C734 C733 1.523 . S
C735 C719 1.429 . S
C735 C731 1.429 . S
C735 C736 1.523 . S
C736 C720 1.368 . S
C736 C732 1.368 . S
C736 C735 1.523 . S
H737 C712 0.951 . S
H738 C714 0.950 . S
H739 C715 0.949 . S
H740 C717 0.950 . S
H741 C719 0.950 . S
C742 C743 1.349 . S
C742 C744 1.327 . S
C742 H767 0.950 . S
C743 C742 1.349 . S
C743 C759 1.349 1_545 S
C744 C742 1.327 . S
C744 C763 1.429 1_545 S
C744 H768 0.950 . S
C745 C762 1.574 . S
C745 C764 1.368 . S
C745 H769 0.949 . S
H746 C750 0.970 . S
C747 C748 1.349 . S
C747 C749 1.327 . S
C747 H770 0.950 . S
C748 C747 1.349 . S
C748 C760 1.349 . S
C749 C747 1.327 . S
C749 C765 1.429 . S
C749 H771 0.950 . S
C750 H746 0.970 . S
C750 C758 1.574 . S
C750 C766 1.368 . S
H751 C759 0.950 . S
H752 C757 0.950 . S
H753 C758 0.949 1_545 S
H754 C760 0.950 . S
H755 C761 0.950 . S
H756 C762 0.949 . S
C757 H752 0.950 . S
C757 C759 1.327 . S
C757 C763 1.429 . S
C758 C750 1.574 . S
C758 H753 0.949 1_565 S
C758 C764 1.368 . S
C759 C743 1.349 1_565 S
C759 H751 0.950 . S
C759 C757 1.327 . S
C760 C748 1.349 . S
C760 H754 0.950 . S
C760 C761 1.327 . S
C761 H755 0.950 . S
C761 C760 1.327 . S
C761 C765 1.429 . S
C762 C745 1.574 . S
C762 H756 0.949 . S
C762 C766 1.368 . S
C763 C744 1.429 1_565 S
C763 C757 1.429 . S
C763 C764 1.523 . S
C764 C745 1.368 . S
C764 C758 1.368 . S
C764 C763 1.523 . S
C765 C749 1.429 . S
C765 C761 1.429 . S
C765 C766 1.523 . S
C766 C750 1.368 . S
C766 C762 1.368 . S
C766 C765 1.523 . S
H767 C742 0.950 . S
H768 C744 0.950 . S
H769 C745 0.949 . S
H770 C747 0.950 . S
H771 C749 0.950 . S
C772 C773 1.349 . S
C772 C774 1.327 . S
C772 H797 0.950 . S
C773 C772 1.349 . S
C773 C789 1.349 . S
C774 C772 1.327 . S
C774 C793 1.429 . S
C774 H798 0.950 . S
C775 C792 1.574 . S
C775 C794 1.368 . S
C775 H799 0.949 . S
H776 C780 0.949 . S
C777 C778 1.349 . S
C777 C779 1.327 . S
C777 H800 0.950 . S
C778 C777 1.349 . S
C778 C790 1.349 . S
C779 C777 1.327 . S
C779 C795 1.429 . S
C779 H801 0.950 . S
C780 H776 0.949 . S
C780 C788 1.574 . S
C780 C796 1.368 . S
H781 C789 0.950 . S
H782 C787 0.950 . S
H783 C788 0.949 . S
H784 C790 0.950 . S
H785 C791 0.950 . S
H786 C792 0.949 . S
C787 H782 0.950 . S
C787 C789 1.327 . S
C787 C793 1.429 . S
C788 C780 1.574 . S
C788 H783 0.949 . S
C788 C794 1.368 . S
C789 C773 1.349 . S
C789 H781 0.950 . S
C789 C787 1.327 . S
C790 C778 1.349 . S
C790 H784 0.950 . S
C790 C791 1.327 . S
C791 H785 0.950 . S
C791 C790 1.327 . S
C791 C795 1.429 . S
C792 C775 1.574 . S
C792 H786 0.949 . S
C792 C796 1.368 . S
C793 C774 1.429 . S
C793 C787 1.429 . S
C793 C794 1.523 . S
C794 C775 1.368 . S
C794 C788 1.368 . S
C794 C793 1.523 . S
C795 C779 1.429 . S
C795 C791 1.429 . S
C795 C796 1.523 . S
C796 C780 1.368 . S
C796 C792 1.368 . S
C796 C795 1.523 . S
H797 C772 0.950 . S
H798 C774 0.950 . S
H799 C775 0.949 . S
H800 C777 0.950 . S
H801 C779 0.950 . S
C802 C803 1.349 . S
C802 C804 1.327 . S
C802 H827 0.950 . S
C803 C802 1.349 . S
C803 C819 1.349 . S
C804 C802 1.327 . S
C804 C823 1.429 . S
C804 H828 0.950 . S
C805 C822 1.574 . S
C805 C824 1.368 . S
C805 H829 0.949 . S
H806 C810 0.949 . S
C807 C808 1.349 . S
C807 C809 1.327 . S
C807 H830 0.950 . S
C808 C807 1.349 . S
C808 C820 1.349 . S
C809 C807 1.327 . S
C809 C825 1.429 . S
C809 H831 0.950 . S
C810 H806 0.949 . S
C810 C818 1.574 . S
C810 C826 1.368 . S
H811 C819 0.950 . S
H812 C817 0.950 . S
H813 C818 0.949 . S
H814 C820 0.950 . S
H815 C821 0.950 . S
H816 C822 0.949 . S
C817 H812 0.950 . S
C817 C819 1.327 . S
C817 C823 1.429 . S
C818 C810 1.574 . S
C818 H813 0.949 . S
C818 C824 1.368 . S
C819 C803 1.349 . S
C819 H811 0.950 . S
C819 C817 1.327 . S
C820 C808 1.349 . S
C820 H814 0.950 . S
C820 C821 1.327 . S
C821 H815 0.950 . S
C821 C820 1.327 . S
C821 C825 1.429 . S
C822 C805 1.574 . S
C822 H816 0.949 . S
C822 C826 1.368 . S
C823 C804 1.429 . S
C823 C817 1.429 . S
C823 C824 1.523 . S
C824 C805 1.368 . S
C824 C818 1.368 . S
C824 C823 1.523 . S
C825 C809 1.429 . S
C825 C821 1.429 . S
C825 C826 1.523 . S
C826 C810 1.368 . S
C826 C822 1.368 . S
C826 C825 1.523 . S
H827 C802 0.950 . S
H828 C804 0.950 . S
H829 C805 0.949 . S
H830 C807 0.950 . S
H831 C809 0.950 . S
C832 C833 1.349 1_455 S
C832 C834 1.327 . S
C832 H857 0.950 . S
C833 C832 1.349 1_655 S
C833 C849 1.349 . S
C834 C832 1.327 . S
C834 C853 1.429 . S
C834 H858 0.950 . S
C835 C852 1.574 . S
C835 C854 1.368 1_556 S
C835 H859 0.949 1_455 S
H836 C840 0.949 . S
C837 C838 1.349 . S
C837 C839 1.327 . S
C837 H860 0.950 . S
C838 C837 1.349 . S
C838 C850 1.349 . S
C839 C837 1.327 . S
C839 C855 1.429 . S
C839 H861 0.950 . S
C840 H836 0.949 . S
C840 C848 1.574 . S
C840 C856 1.368 1_554 S
H841 C849 0.950 . S
H842 C847 0.950 1_556 S
H843 C848 0.949 . S
H844 C850 0.950 . S
H845 C851 0.950 . S
H846 C852 0.949 . S
C847 H842 0.950 1_554 S
C847 C849 1.327 . S
C847 C853 1.429 1_655 S
C848 C840 1.574 . S
C848 H843 0.949 . S
C848 C854 1.368 . S
C849 C833 1.349 . S
C849 H841 0.950 . S
C849 C847 1.327 . S
C850 C838 1.349 . S
C850 H844 0.950 . S
C850 C851 1.327 . S
C851 H845 0.950 . S
C851 C850 1.327 . S
C851 C855 1.429 . S
C852 C835 1.574 . S
C852 H846 0.949 . S
C852 C856 1.368 . S
C853 C834 1.429 . S
C853 C847 1.429 1_455 S
C853 C854 1.523 . S
C854 C835 1.368 1_554 S
C854 C848 1.368 . S
C854 C853 1.523 . S
C855 C839 1.429 . S
C855 C851 1.429 . S
C855 C856 1.523 . S
C856 C840 1.368 1_556 S
C856 C852 1.368 . S
C856 C855 1.523 . S
H857 C832 0.950 . S
H858 C834 0.950 . S
H859 C835 0.949 1_655 S
H860 C837 0.950 . S
H861 C839 0.950 . S
C862 C863 1.349 1_545 S
C862 C864 1.327 . S
C862 H887 0.950 . S
C863 C862 1.349 1_565 S
C863 C879 1.349 . S
C864 C862 1.327 . S
C864 C883 1.429 . S
C864 H888 0.950 . S
C865 C882 1.574 1_554 S
C865 C884 1.368 1_565 S
C865 H889 0.949 . S
H866 C870 0.949 . S
C867 C868 1.349 . S
C867 C869 1.327 . S
C867 H890 0.950 . S
C868 C867 1.349 . S
C868 C880 1.349 . S
C869 C867 1.327 . S
C869 C885 1.429 . S
C869 H891 0.950 1_545 S
C870 H866 0.949 . S
C870 C878 1.574 . S
C870 C886 1.368 . S
H871 C879 0.950 . S
H872 C877 0.950 . S
H873 C878 0.949 . S
H874 C880 0.950 . S
H875 C881 0.950 . S
H876 C882 0.949 . S
C877 H872 0.950 . S
C877 C879 1.327 . S
C877 C883 1.429 1_565 S
C878 C870 1.574 . S
C878 H873 0.949 . S
C878 C884 1.368 1_556 S
C879 C863 1.349 . S
C879 H871 0.950 . S
C879 C877 1.327 . S
C880 C868 1.349 . S
C880 H874 0.950 . S
C880 C881 1.327 . S
C881 H875 0.950 . S
C881 C880 1.327 . S
C881 C885 1.429 . S
C882 C865 1.574 1_556 S
C882 H876 0.949 . S
C882 C886 1.368 1_565 S
C883 C864 1.429 . S
C883 C877 1.429 1_545 S
C883 C884 1.523 . S
C884 C865 1.368 1_545 S
C884 C878 1.368 1_554 S
C884 C883 1.523 . S
C885 C869 1.429 . S
C885 C881 1.429 . S
C885 C886 1.523 . S
C886 C870 1.368 . S
C886 C882 1.368 1_545 S
C886 C885 1.523 . S
H887 C862 0.950 . S
H888 C864 0.950 . S
H889 C865 0.949 . S
H890 C867 0.950 . S
H891 C869 0.950 1_565 S
C892 C893 1.349 . S
C892 C894 1.327 . S
C892 H917 0.950 . S
C893 C892 1.349 . S
C893 C909 1.349 . S
C894 C892 1.327 . S
C894 C913 1.429 . S
C894 H918 0.950 . S
C895 C912 1.574 . S
C895 C914 1.368 1_556 S
C895 H919 0.949 . S
H896 C900 0.949 . S
C897 C898 1.349 . S
C897 C899 1.327 . S
C897 H920 0.950 . S
C898 C897 1.349 . S
C898 C910 1.349 . S
C899 C897 1.327 . S
C899 C915 1.429 . S
C899 H921 0.950 . S
C900 H896 0.949 . S
C900 C908 1.574 1_556 S
C900 C916 1.368 . S
H901 C909 0.950 . S
H902 C907 0.950 . S
H903 C908 0.949 . S
H904 C910 0.950 . S
H905 C911 0.950 . S
H906 C912 0.949 . S
C907 H902 0.950 . S
C907 C909 1.327 . S
C907 C913 1.429 . S
C908 C900 1.574 1_554 S
C908 H903 0.949 . S
C908 C914 1.368 . S
C909 C893 1.349 . S
C909 H901 0.950 . S
C909 C907 1.327 . S
C910 C898 1.349 . S
C910 H904 0.950 . S
C910 C911 1.327 . S
C911 H905 0.950 . S
C911 C910 1.327 . S
C911 C915 1.429 . S
C912 C895 1.574 . S
C912 H906 0.949 . S
C912 C916 1.368 . S
C913 C894 1.429 . S
C913 C907 1.429 . S
C913 C914 1.523 . S
C914 C895 1.368 1_554 S
C914 C908 1.368 . S
C914 C913 1.523 . S
C915 C899 1.429 . S
C915 C911 1.429 . S
C915 C916 1.523 . S
C916 C900 1.368 . S
C916 C912 1.368 . S
C916 C915 1.523 . S
H917 C892 0.950 . S
H918 C894 0.950 . S
H919 C895 0.949 . S
H920 C897 0.950 . S
H921 C899 0.950 . S
C922 C923 1.349 . S
C922 C924 1.327 . S
C922 H947 0.950 . S
C923 C922 1.349 . S
C923 C939 1.349 . S
C924 C922 1.327 . S
C924 C943 1.429 . S
C924 H948 0.950 . S
C925 C942 1.574 . S
C925 C944 1.368 1_556 S
C925 H949 0.949 . S
H926 C930 0.949 . S
C927 C928 1.349 . S
C927 C929 1.327 . S
C927 H950 0.950 . S
C928 C927 1.349 . S
C928 C940 1.349 . S
C929 C927 1.327 . S
C929 C945 1.429 . S
C929 H951 0.950 . S
C930 H926 0.949 . S
C930 C938 1.574 . S
C930 C946 1.368 1_554 S
H931 C939 0.950 . S
H932 C937 0.950 1_556 S
H933 C938 0.949 . S
H934 C940 0.950 . S
H935 C941 0.950 . S
H936 C942 0.949 . S
C937 H932 0.950 1_554 S
C937 C939 1.327 . S
C937 C943 1.429 . S
C938 C930 1.574 . S
C938 H933 0.949 . S
C938 C944 1.368 . S
C939 C923 1.349 . S
C939 H931 0.950 . S
C939 C937 1.327 . S
C940 C928 1.349 . S
C940 H934 0.950 . S
C940 C941 1.327 . S
C941 H935 0.950 . S
C941 C940 1.327 . S
C941 C945 1.429 . S
C942 C925 1.574 . S
C942 H936 0.949 . S
C942 C946 1.368 . S
C943 C924 1.429 . S
C943 C937 1.429 . S
C943 C944 1.523 . S
C944 C925 1.368 1_554 S
C944 C938 1.368 . S
C944 C943 1.523 . S
C945 C929 1.429 . S
C945 C941 1.429 . S
C945 C946 1.523 . S
C946 C930 1.368 1_556 S
C946 C942 1.368 . S
C946 C945 1.523 . S
H947 C922 0.950 . S
H948 C924 0.950 . S
H949 C925 0.949 . S
H950 C927 0.950 . S
H951 C929 0.950 . S
C952 C953 1.349 1_655 S
C952 C954 1.327 . S
C952 H977 0.950 . S
C953 C952 1.349 1_455 S
C953 C969 1.349 . S
C954 C952 1.327 . S
C954 C973 1.429 1_655 S
C954 H978 0.950 . S
C955 C972 1.574 . S
C955 C974 1.368 . S
C955 H979 0.949 . S
H956 C960 0.949 . S
C957 C958 1.349 . S
C957 C959 1.327 . S
C957 H980 0.950 . S
C958 C957 1.349 . S
C958 C970 1.349 1_455 S
C959 C957 1.327 . S
C959 C975 1.429 . S
C959 H981 0.950 . S
C960 H956 0.949 . S
C960 C968 1.574 . S
C960 C976 1.368 1_655 S
H961 C969 0.950 . S
H962 C967 0.950 . S
H963 C968 0.949 . S
H964 C970 0.950 . S
H965 C971 0.950 . S
H966 C972 0.949 . S
C967 H962 0.950 . S
C967 C969 1.327 . S
C967 C973 1.429 . S
C968 C960 1.574 . S
C968 H963 0.949 . S
C968 C974 1.368 1_655 S
C969 C953 1.349 . S
C969 H961 0.950 . S
C969 C967 1.327 . S
C970 C958 1.349 1_655 S
C970 H964 0.950 . S
C970 C971 1.327 . S
C971 H965 0.950 . S
C971 C970 1.327 . S
C971 C975 1.429 1_655 S
C972 C955 1.574 . S
C972 H966 0.949 . S
C972 C976 1.368 . S
C973 C954 1.429 1_455 S
C973 C967 1.429 . S
C973 C974 1.523 . S
C974 C955 1.368 . S
C974 C968 1.368 1_455 S
C974 C973 1.523 . S
C975 C959 1.429 . S
C975 C971 1.429 1_455 S
C975 C976 1.523 . S
C976 C960 1.368 1_455 S
C976 C972 1.368 . S
C976 C975 1.523 . S
H977 C952 0.950 . S
H978 C954 0.950 . S
H979 C955 0.949 . S
H980 C957 0.950 . S
H981 C959 0.950 . S
C982 C983 1.349 1_565 S
C982 C984 1.329 . S
C982 H1007 0.950 . S
C983 C982 1.349 1_545 S
C983 C999 1.349 . S
C984 C982 1.329 . S
C984 C1003 1.423 1_565 S
C984 H1008 0.955 . S
C985 C1002 1.574 . S
C985 C1004 1.368 . S
C985 H1009 0.949 . S
H986 C990 0.950 1_565 S
C987 C988 1.349 . S
C987 C989 1.327 . S
C987 H1010 0.950 . S
C988 C987 1.349 . S
C988 C1000 1.349 . S
C989 C987 1.327 . S
C989 C1005 1.429 . S
C989 H1011 0.950 . S
C990 H986 0.950 1_545 S
C990 C998 1.576 . S
C990 C1006 1.368 . S
H991 C999 0.950 . S
H992 C997 0.950 . S
H993 C998 0.942 1_565 S
H994 C1000 0.950 . S
H995 C1001 0.962 . S
H996 C1002 0.949 . S
C997 H992 0.950 . S
C997 C999 1.327 . S
C997 C1003 1.429 . S
C998 C990 1.576 . S
C998 H993 0.942 1_545 S
C998 C1004 1.376 . S
C999 C983 1.349 . S
C999 H991 0.950 . S
C999 C997 1.327 . S
C1000 C988 1.349 . S
C1000 H994 0.950 . S
C1000 C1001 1.327 . S
C1001 H995 0.962 . S
C1001 C1000 1.327 . S
C1001 C1005 1.429 . S
C1002 C985 1.574 . S
C1002 H996 0.949 . S
C1002 C1006 1.368 . S
C1003 C984 1.423 1_545 S
C1003 C997 1.429 . S
C1003 C1004 1.523 . S
C1004 C985 1.368 . S
C1004 C998 1.376 . S
C1004 C1003 1.523 . S
C1005 C989 1.429 . S
C1005 C1001 1.429 . S
C1005 C1006 1.523 . S
C1006 C990 1.368 . S
C1006 C1002 1.368 . S
C1006 C1005 1.523 . S
H1007 C982 0.950 . S
H1008 C984 0.955 . S
H1009 C985 0.949 . S
H1010 C987 0.950 . S
H1011 C989 0.950 . S
C1012 C1013 1.349 . S
C1012 C1014 1.327 . S
C1012 H1037 0.950 . S
C1013 C1012 1.349 . S
C1013 C1029 1.349 . S
C1014 C1012 1.327 . S
C1014 C1033 1.429 . S
C1014 H1038 0.950 . S
C1015 C1032 1.574 . S
C1015 C1034 1.368 . S
C1015 H1039 0.949 . S
H1016 C1020 0.949 . S
C1017 C1018 1.349 . S
C1017 C1019 1.327 . S
C1017 H1040 0.950 . S
C1018 C1017 1.349 . S
C1018 C1030 1.349 . S
C1019 C1017 1.327 . S
C1019 C1035 1.429 . S
C1019 H1041 0.950 . S
C1020 H1016 0.949 . S
C1020 C1028 1.574 . S
C1020 C1036 1.368 . S
H1021 C1029 0.950 . S
H1022 C1027 0.950 . S
H1023 C1028 0.949 . S
H1024 C1030 0.950 . S
H1025 C1031 0.950 . S
H1026 C1032 0.949 . S
C1027 H1022 0.950 . S
C1027 C1029 1.327 . S
C1027 C1033 1.429 . S
C1028 C1020 1.574 . S
C1028 H1023 0.949 . S
C1028 C1034 1.368 . S
C1029 C1013 1.349 . S
C1029 H1021 0.950 . S
C1029 C1027 1.327 . S
C1030 C1018 1.349 . S
C1030 H1024 0.950 . S
C1030 C1031 1.327 . S
C1031 H1025 0.950 . S
C1031 C1030 1.327 . S
C1031 C1035 1.429 . S
C1032 C1015 1.574 . S
C1032 H1026 0.949 . S
C1032 C1036 1.368 . S
C1033 C1014 1.429 . S
C1033 C1027 1.429 . S
C1033 C1034 1.523 . S
C1034 C1015 1.368 . S
C1034 C1028 1.368 . S
C1034 C1033 1.523 . S
C1035 C1019 1.429 . S
C1035 C1031 1.429 . S
C1035 C1036 1.523 . S
C1036 C1020 1.368 . S
C1036 C1032 1.368 . S
C1036 C1035 1.523 . S
H1037 C1012 0.950 . S
H1038 C1014 0.950 . S
H1039 C1015 0.949 . S
H1040 C1017 0.950 . S
H1041 C1019 0.950 . S
C1042 C1043 1.349 . S
C1042 C1044 1.327 . S
C1042 H1067 0.950 . S
C1043 C1042 1.349 . S
C1043 C1059 1.349 . S
C1044 C1042 1.327 . S
C1044 C1063 1.429 . S
C1044 H1068 0.950 . S
C1045 C1062 1.574 . S
C1045 C1064 1.368 . S
C1045 H1069 0.949 . S
H1046 C1050 0.949 . S
C1047 C1048 1.349 . S
C1047 C1049 1.327 . S
C1047 H1070 0.950 . S
C1048 C1047 1.349 . S
C1048 C1060 1.349 . S
C1049 C1047 1.327 . S
C1049 C1065 1.429 . S
C1049 H1071 0.950 . S
C1050 H1046 0.949 . S
C1050 C1058 1.574 . S
C1050 C1066 1.368 . S
H1051 C1059 0.950 . S
H1052 C1057 0.950 . S
H1053 C1058 0.949 . S
H1054 C1060 0.950 . S
H1055 C1061 0.950 . S
H1056 C1062 0.949 . S
C1057 H1052 0.950 . S
C1057 C1059 1.327 . S
C1057 C1063 1.429 . S
C1058 C1050 1.574 . S
C1058 H1053 0.949 . S
C1058 C1064 1.368 . S
C1059 C1043 1.349 . S
C1059 H1051 0.950 . S
C1059 C1057 1.327 . S
C1060 C1048 1.349 . S
C1060 H1054 0.950 . S
C1060 C1061 1.327 . S
C1061 H1055 0.950 . S
C1061 C1060 1.327 . S
C1061 C1065 1.429 . S
C1062 C1045 1.574 . S
C1062 H1056 0.949 . S
C1062 C1066 1.368 . S
C1063 C1044 1.429 . S
C1063 C1057 1.429 . S
C1063 C1064 1.523 . S
C1064 C1045 1.368 . S
C1064 C1058 1.368 . S
C1064 C1063 1.523 . S
C1065 C1049 1.429 . S
C1065 C1061 1.429 . S
C1065 C1066 1.523 . S
C1066 C1050 1.368 . S
C1066 C1062 1.368 . S
C1066 C1065 1.523 . S
H1067 C1042 0.950 . S
H1068 C1044 0.950 . S
H1069 C1045 0.949 . S
H1070 C1047 0.950 . S
H1071 C1049 0.950 . S
C1072 C1073 1.349 1_455 S
C1072 C1074 1.327 . S
C1072 H1097 0.950 . S
C1073 C1072 1.349 1_655 S
C1073 C1089 1.349 . S
C1074 C1072 1.327 . S
C1074 C1093 1.429 1_455 S
C1074 H1098 0.950 . S
C1075 C1092 1.574 . S
C1075 C1094 1.368 . S
C1075 H1099 0.949 . S
H1076 C1080 0.949 . S
C1077 C1078 1.349 . S
C1077 C1079 1.327 . S
C1077 H1100 0.950 . S
C1078 C1077 1.349 . S
C1078 C1090 1.349 1_655 S
C1079 C1077 1.327 . S
C1079 C1095 1.429 . S
C1079 H1101 0.950 . S
C1080 H1076 0.949 . S
C1080 C1088 1.574 . S
C1080 C1096 1.368 1_455 S
H1081 C1089 0.950 . S
H1082 C1087 0.950 . S
H1083 C1088 0.949 . S
H1084 C1090 0.950 . S
H1085 C1091 0.950 . S
H1086 C1092 0.949 . S
C1087 H1082 0.950 . S
C1087 C1089 1.327 . S
C1087 C1093 1.429 . S
C1088 C1080 1.574 . S
C1088 H1083 0.949 . S
C1088 C1094 1.368 1_455 S
C1089 C1073 1.349 . S
C1089 H1081 0.950 . S
C1089 C1087 1.327 . S
C1090 C1078 1.349 1_455 S
C1090 H1084 0.950 . S
C1090 C1091 1.327 . S
C1091 H1085 0.950 . S
C1091 C1090 1.327 . S
C1091 C1095 1.429 1_455 S
C1092 C1075 1.574 . S
C1092 H1086 0.949 . S
C1092 C1096 1.368 . S
C1093 C1074 1.429 1_655 S
C1093 C1087 1.429 . S
C1093 C1094 1.523 . S
C1094 C1075 1.368 . S
C1094 C1088 1.368 1_655 S
C1094 C1093 1.523 . S
C1095 C1079 1.429 . S
C1095 C1091 1.429 1_655 S
C1095 C1096 1.523 . S
C1096 C1080 1.368 1_655 S
C1096 C1092 1.368 . S
C1096 C1095 1.523 . S
H1097 C1072 0.950 . S
H1098 C1074 0.950 . S
H1099 C1075 0.949 . S
H1100 C1077 0.950 . S
H1101 C1079 0.950 . S
C1102 C1103 1.394 . S
C1102 C1104 1.327 . S
C1102 H1127 0.950 . S
C1103 C1102 1.394 . S
C1103 C1119 1.308 1_565 S
C1104 C1102 1.327 . S
C1104 C1123 1.429 . S
C1104 H1128 0.950 . S
C1105 C1122 1.574 . S
C1105 C1124 1.368 1_545 S
C1105 H1129 0.949 . S
H1106 C1110 0.949 . S
C1107 C1108 1.349 1_545 S
C1107 C1109 1.327 . S
C1107 H1130 0.950 . S
C1108 C1107 1.349 1_565 S
C1108 C1120 1.349 . S
C1109 C1107 1.327 . S
C1109 C1125 1.429 1_545 S
C1109 H1131 0.950 . S
C1110 H1106 0.949 . S
C1110 C1118 1.574 . S
C1110 C1126 1.368 . S
H1111 C1119 0.950 . S
H1112 C1117 0.950 . S
H1113 C1118 0.949 . S
H1114 C1120 0.950 . S
H1115 C1121 0.950 . S
H1116 C1122 0.949 . S
C1117 H1112 0.950 . S
C1117 C1119 1.327 . S
C1117 C1123 1.429 1_545 S
C1118 C1110 1.574 . S
C1118 H1113 0.949 . S
C1118 C1124 1.368 . S
C1119 C1103 1.308 1_545 S
C1119 H1111 0.950 . S
C1119 C1117 1.327 . S
C1120 C1108 1.349 . S
C1120 H1114 0.950 . S
C1120 C1121 1.327 . S
C1121 H1115 0.950 . S
C1121 C1120 1.327 . S
C1121 C1125 1.429 . S
C1122 C1105 1.574 . S
C1122 H1116 0.949 . S
C1122 C1126 1.368 1_545 S
C1123 C1104 1.429 . S
C1123 C1117 1.429 1_565 S
C1123 C1124 1.523 . S
C1124 C1105 1.368 1_565 S
C1124 C1118 1.368 . S
C1124 C1123 1.523 . S
C1125 C1109 1.429 1_565 S
C1125 C1121 1.429 . S
C1125 C1126 1.523 . S
C1126 C1110 1.368 . S
C1126 C1122 1.368 1_565 S
C1126 C1125 1.523 . S
H1127 C1102 0.950 . S
H1128 C1104 0.950 . S
H1129 C1105 0.949 . S
H1130 C1107 0.950 . S
H1131 C1109 0.950 . S
C1132 C1133 1.349 . S
C1132 C1134 1.327 . S
C1132 H1157 0.950 . S
C1133 C1132 1.349 . S
C1133 C1149 1.349 . S
C1134 C1132 1.327 . S
C1134 C1153 1.429 . S
C1134 H1158 0.950 . S
C1135 C1152 1.574 . S
C1135 C1154 1.368 . S
C1135 H1159 0.949 . S
H1136 C1140 0.949 . S
C1137 C1138 1.349 . S
C1137 C1139 1.327 . S
C1137 H1160 0.950 . S
C1138 C1137 1.349 . S
C1138 C1150 1.349 . S
C1139 C1137 1.327 . S
C1139 C1155 1.429 . S
C1139 H1161 0.950 . S
C1140 H1136 0.949 . S
C1140 C1148 1.574 . S
C1140 C1156 1.368 . S
H1141 C1149 0.950 . S
H1142 C1147 0.950 . S
H1143 C1148 0.949 . S
H1144 C1150 0.950 . S
H1145 C1151 0.950 . S
H1146 C1152 0.949 . S
C1147 H1142 0.950 . S
C1147 C1149 1.327 . S
C1147 C1153 1.429 . S
C1148 C1140 1.574 . S
C1148 H1143 0.949 . S
C1148 C1154 1.368 . S
C1149 C1133 1.349 . S
C1149 H1141 0.950 . S
C1149 C1147 1.327 . S
C1150 C1138 1.349 . S
C1150 H1144 0.950 . S
C1150 C1151 1.327 . S
C1151 H1145 0.950 . S
C1151 C1150 1.327 . S
C1151 C1155 1.429 . S
C1152 C1135 1.574 . S
C1152 H1146 0.949 . S
C1152 C1156 1.368 . S
C1153 C1134 1.429 . S
C1153 C1147 1.429 . S
C1153 C1154 1.523 . S
C1154 C1135 1.368 . S
C1154 C1148 1.368 . S
C1154 C1153 1.523 . S
C1155 C1139 1.429 . S
C1155 C1151 1.429 . S
C1155 C1156 1.523 . S
C1156 C1140 1.368 . S
C1156 C1152 1.368 . S
C1156 C1155 1.523 . S
H1157 C1132 0.950 . S
H1158 C1134 0.950 . S
H1159 C1135 0.949 . S
H1160 C1137 0.950 . S
H1161 C1139 0.950 . S
C1162 C1163 1.349 . S
C1162 C1164 1.327 . S
C1162 H1187 0.950 . S
C1163 C1162 1.349 . S
C1163 C1179 1.349 . S
C1164 C1162 1.327 . S
C1164 C1183 1.429 . S
C1164 H1188 0.950 . S
C1165 C1182 1.574 . S
C1165 C1184 1.368 . S
C1165 H1189 0.949 . S
H1166 C1170 0.949 . S
C1167 C1168 1.349 . S
C1167 C1169 1.327 . S
C1167 H1190 0.950 . S
C1168 C1167 1.349 . S
C1168 C1180 1.349 . S
C1169 C1167 1.327 . S
C1169 C1185 1.429 . S
C1169 H1191 0.950 . S
C1170 H1166 0.949 . S
C1170 C1178 1.574 . S
C1170 C1186 1.368 . S
H1171 C1179 0.950 . S
H1172 C1177 0.950 . S
H1173 C1178 0.949 . S
H1174 C1180 0.950 . S
H1175 C1181 0.950 . S
H1176 C1182 0.949 . S
C1177 H1172 0.950 . S
C1177 C1179 1.327 . S
C1177 C1183 1.429 . S
C1178 C1170 1.574 . S
C1178 H1173 0.949 . S
C1178 C1184 1.368 . S
C1179 C1163 1.349 . S
C1179 H1171 0.950 . S
C1179 C1177 1.327 . S
C1180 C1168 1.349 . S
C1180 H1174 0.950 . S
C1180 C1181 1.327 . S
C1181 H1175 0.950 . S
C1181 C1180 1.327 . S
C1181 C1185 1.429 . S
C1182 C1165 1.574 . S
C1182 H1176 0.949 . S
C1182 C1186 1.368 . S
C1183 C1164 1.429 . S
C1183 C1177 1.429 . S
C1183 C1184 1.523 . S
C1184 C1165 1.368 . S
C1184 C1178 1.368 . S
C1184 C1183 1.523 . S
C1185 C1169 1.429 . S
C1185 C1181 1.429 . S
C1185 C1186 1.523 . S
C1186 C1170 1.368 . S
C1186 C1182 1.368 . S
C1186 C1185 1.523 . S
H1187 C1162 0.950 . S
H1188 C1164 0.950 . S
H1189 C1165 0.949 . S
H1190 C1167 0.950 . S
H1191 C1169 0.950 . S
C473 C255 1.971 1_545 S
C478 C330 2.092 1_545 S
C508 C370 2.107 . S
C503 C294 1.953 . S
C538 C410 2.100 . S
C533 C177 1.975 . S
C568 C450 2.103 1_455 S
C563 C216 1.979 1_455 S
C598 C320 2.096 1_565 S
C593 C99 1.977 1_545 S
C623 C138 1.959 . S
C628 C360 2.111 . S
C653 C21 1.975 . S
C658 C400 2.100 . S
C683 C60 1.979 . S
C688 C440 2.103 1_655 S
C718 C317 0.222 . S
C713 C196 0.238 1_455 S
C748 C357 0.222 . S
C743 C235 0.237 1_545 S
C778 C397 0.218 . S
C773 C289 0.235 . S
C803 C157 0.234 . S
C808 C437 0.219 . S
C833 C40 0.229 . S
C838 C327 0.210 . S
C868 C367 0.222 . S
C863 C79 0.223 . S
C898 C407 0.218 . S
C893 C133 0.227 . S
C923 C1 0.220 . S
C928 C447 0.223 . S
C953 C211 2.528 . S
C958 C321 2.815 . S
C983 C250 2.514 . S
C988 C361 2.809 . S
C1018 C401 2.811 . S
C1013 C274 2.522 . S
C1048 C441 2.811 . S
C1043 C172 2.510 . S
C1073 C55 2.529 1_655 S
C1078 C331 2.831 . S
C1108 C371 2.809 . S
C1103 C94 2.513 1_565 S
C1138 C411 2.811 . S
C1133 C118 2.523 . S
C1163 C16 2.518 . S
C1168 C451 2.819 . S
