# Generated by pormake.
# Topology anh, (6,3)-cn, num edge types: 1
# Building blocks:
#     Node 0, Type 0, BuildingBlock: HISSIN_clean_sbu_0, # of connection points: 6
#     Node 1, Type 0, BuildingBlock: HISSIN_clean_sbu_0, # of connection points: 6
#     Node 2, Type 0, BuildingBlock: HISSIN_clean_sbu_0, # of connection points: 6
#     Node 3, Type 1, BuildingBlock: BETDAH_clean_linker_0, # of connection points: 3
#     Node 4, Type 1, BuildingBlock: BETDAH_clean_linker_0, # of connection points: 3
#     Node 5, Type 1, BuildingBlock: BETDAH_clean_linker_0, # of connection points: 3
#     Node 6, Type 1, BuildingBlock: BETDAH_clean_linker_0, # of connection points: 3
#     Node 7, Type 1, BuildingBlock: BETDAH_clean_linker_0, # of connection points: 3
#     Node 8, Type 1, BuildingBlock: BETDAH_clean_linker_0, # of connection points: 3
#     Edge 9, Type (0, 1), BuildingBlock: EZIPEK_clean_linker_0, # of connection points: 2
#     Edge 10, Type (0, 1), BuildingBlock: EZIPEK_clean_linker_0, # of connection points: 2
#     Edge 11, Type (0, 1), BuildingBlock: EZIPEK_clean_linker_0, # of connection points: 2
#     Edge 12, Type (0, 1), BuildingBlock: EZIPEK_clean_linker_0, # of connection points: 2
#     Edge 13, Type (0, 1), BuildingBlock: EZIPEK_clean_linker_0, # of connection points: 2
#     Edge 14, Type (0, 1), BuildingBlock: EZIPEK_clean_linker_0, # of connection points: 2
#     Edge 15, Type (0, 1), BuildingBlock: EZIPEK_clean_linker_0, # of connection points: 2
#     Edge 16, Type (0, 1), BuildingBlock: EZIPEK_clean_linker_0, # of connection points: 2
#     Edge 17, Type (0, 1), BuildingBlock: EZIPEK_clean_linker_0, # of connection points: 2
#     Edge 18, Type (0, 1), BuildingBlock: EZIPEK_clean_linker_0, # of connection points: 2
#     Edge 19, Type (0, 1), BuildingBlock: EZIPEK_clean_linker_0, # of connection points: 2
#     Edge 20, Type (0, 1), BuildingBlock: EZIPEK_clean_linker_0, # of connection points: 2
#     Edge 21, Type (0, 1), BuildingBlock: EZIPEK_clean_linker_0, # of connection points: 2
#     Edge 22, Type (0, 1), BuildingBlock: EZIPEK_clean_linker_0, # of connection points: 2
#     Edge 23, Type (0, 1), BuildingBlock: EZIPEK_clean_linker_0, # of connection points: 2
#     Edge 24, Type (0, 1), BuildingBlock: EZIPEK_clean_linker_0, # of connection points: 2
#     Edge 25, Type (0, 1), BuildingBlock: EZIPEK_clean_linker_0, # of connection points: 2
#     Edge 26, Type (0, 1), BuildingBlock: EZIPEK_clean_linker_0, # of connection points: 2
# Relax obj value: 0.364
# Max RMSD: 0.160
# Mean RMSD: 0.115
data_MOF--net-anh--node1-HISSIN_clean_sbu_0--node2-BETDAH_clean_linker_0--edge1-EZIPEK_clean_linker_0
_symmetry_space_group_name_H-M    P1
_symmetry_Int_Tables_number       1
_symmetry_cell_setting            triclinic
loop_
_symmetry_equiv_pos_as_xyz
'x, y, z'
_cell_length_a     24.299933
_cell_length_b     24.62719
_cell_length_c     36.913753
_cell_angle_alpha  95.686149
_cell_angle_beta   91.549719
_cell_angle_gamma 120.38131
loop_
_atom_site_label
_atom_site_type_symbol
_atom_site_fract_x
_atom_site_fract_y
_atom_site_fract_z
_atom_type_partial_charge
Eu0 Eu 1.03239 0.54312 0.13653 0.0
Eu1 Eu 0.10802 0.68949 0.15603 0.0
C2 C 1.07284 0.60568 0.22318 0.0
C3 C 0.95904 0.36156 0.13375 0.0
C4 C 0.92548 0.33889 0.16448 0.0
C5 C 0.96693 0.26663 0.12346 0.0
C6 C 0.91171 0.28029 0.17409 0.0
C7 C 0.98039 0.32528 0.11361 0.0
C8 C 0.9311 0.24327 0.15323 0.0
C9 C 0.96646 0.41952 0.12074 0.0
O10 O 0.19542 0.66905 0.1516 0.0
O11 O 0.13939 0.562 0.13466 0.0
C12 C 0.19695 0.61558 0.14155 0.0
O13 O 1.04132 0.58088 0.08211 0.0
O14 O 0.17392 0.77793 0.1906 0.0
O15 O 0.13041 0.78055 0.13922 0.0
O16 O 0.13461 0.67157 0.10089 0.0
C17 C 1.09448 0.62994 0.07467 0.0
O18 O 0.94513 0.56261 0.13497 0.0
O19 O 1.00076 0.67011 0.14325 0.0
O20 O 1.08736 0.66045 0.21277 0.0
O21 O 0.94789 0.45225 0.14139 0.0
O22 O 1.01886 0.45571 0.10594 0.0
O23 O 1.05617 0.55594 0.19866 0.0
C24 C 0.24129 0.8519 0.1538 0.0
C25 C 0.25764 0.83364 0.12029 0.0
C26 C 0.35402 0.91866 0.17425 0.0
C27 C 0.32167 0.85502 0.11474 0.0
C28 C 0.29006 0.89746 0.17977 0.0
C29 C 0.36966 0.89454 0.1427 0.0
C30 C 0.17666 0.81256 0.16531 0.0
C31 C 0.94311 0.61627 0.13675 0.0
H32 H 0.90808 0.3654 0.18055 0.0
H33 H 0.98233 0.23849 0.10718 0.0
H34 H 0.88418 0.26287 0.19724 0.0
H35 H 1.00588 0.3414 0.08965 0.0
H36 H 0.22101 0.79837 0.09976 0.0
H37 H 0.39077 0.94915 0.1961 0.0
H38 H 0.33312 0.83588 0.09033 0.0
H39 H 0.27853 0.91181 0.20581 0.0
Eu40 Eu 0.61654 1.03744 0.48277 0.0
Eu41 Eu 0.53685 0.10263 0.47594 0.0
C42 C 0.58015 0.0863 0.55823 0.0
C43 C 0.7031 0.94705 0.50757 0.0
C44 C 0.73211 0.97216 0.54347 0.0
C45 C 0.7336 0.86737 0.50782 0.0
C46 C 0.76404 0.94671 0.56073 0.0
C47 C 0.70236 0.89331 0.49035 0.0
C48 C 0.76642 0.89535 0.54255 0.0
C49 C 0.68416 0.9825 0.48561 0.0
O50 O 0.64331 0.19128 0.47202 0.0
O51 O 0.70171 0.14386 0.47833 0.0
C52 C 0.70154 0.19713 0.47344 0.0
O53 O 0.62441 1.06116 0.42614 0.0
O54 O 0.47846 0.14227 0.49522 0.0
O55 O 0.50219 0.14485 0.43921 0.0
O56 O 0.52592 1.04815 0.42045 0.0
C57 C 0.57459 1.04927 0.40566 0.0
O58 O 0.50692 0.94705 0.47194 0.0
O59 O 0.4495 0.99685 0.47516 0.0
O60 O 0.55403 0.11084 0.53851 0.0
O61 O 0.62651 0.95394 0.46903 0.0
O62 O 0.7045 1.04117 0.49873 0.0
O63 O 0.60495 1.05456 0.54253 0.0
C64 C 0.5057 0.23529 0.46796 0.0
C65 C 0.50681 0.26304 0.43622 0.0
C66 C 0.57668 0.34002 0.50085 0.0
C67 C 0.54501 0.32873 0.43642 0.0
C68 C 0.5391 0.27465 0.50062 0.0
C69 C 0.58179 0.36706 0.46851 0.0
C70 C 0.48008 0.16638 0.46502 0.0
C71 C 0.44845 0.94158 0.47116 0.0
H72 H 0.73339 1.01366 0.55743 0.0
H73 H 0.73512 0.82762 0.49351 0.0
H74 H 0.78919 0.96869 0.58756 0.0
H75 H 0.6808 0.87364 0.4626 0.0
H76 H 0.48163 0.23351 0.4107 0.0
H77 H 0.60498 0.36927 0.52583 0.0
H78 H 0.54872 0.34911 0.41127 0.0
H79 H 0.53959 0.25488 0.52548 0.0
Eu80 Eu 0.53396 0.53676 0.80403 0.0
Eu81 Eu 0.67757 0.61375 0.82247 0.0
C82 C 0.59019 0.57596 0.8901 0.0
C83 C 0.37673 0.49119 0.75832 0.0
C84 C 0.31192 0.46744 0.76221 0.0
C85 C 0.38138 0.57595 0.72796 0.0
C86 C 0.28305 0.50051 0.75135 0.0
C87 C 0.40992 0.54254 0.73862 0.0
C88 C 0.31958 0.55959 0.73779 0.0
C89 C 0.41282 0.4727 0.78123 0.0
O90 O 0.66204 0.50681 0.81626 0.0
O91 O 0.55462 0.45073 0.80249 0.0
C92 C 0.60862 0.44875 0.80731 0.0
O93 O 0.57765 0.56741 0.75077 0.0
O94 O 0.76611 0.64275 0.85543 0.0
O95 O 0.76662 0.69397 0.81039 0.0
O96 O 0.66875 0.56898 0.76597 0.0
C97 C 0.62853 0.56635 0.74113 0.0
O98 O 0.54813 0.64195 0.80574 0.0
O99 O 0.65617 0.69681 0.81001 0.0
O100 O 0.64493 0.61611 0.87881 0.0
O101 O 0.45569 0.46433 0.76535 0.0
O102 O 0.43505 0.50711 0.81317 0.0
O103 O 0.54162 0.53571 0.86625 0.0
C104 C 0.86108 0.69367 0.82594 0.0
C105 C 0.8738 0.68645 0.78932 0.0
C106 C 0.96661 0.71695 0.84637 0.0
C107 C 0.93328 0.69472 0.78136 0.0
C108 C 0.90792 0.70936 0.85426 0.0
C109 C 0.97956 0.70947 0.81001 0.0
C110 C 0.80065 0.68762 0.83572 0.0
C111 C 0.60199 0.69893 0.80614 0.0
H112 H 0.28529 0.42699 0.77681 0.0
H113 H 0.41114 0.61835 0.71578 0.0
H114 H 0.23436 0.48288 0.75797 0.0
H115 H 0.46003 0.56086 0.7347 0.0
H116 H 0.83802 0.67446 0.76703 0.0
H117 H 1.00199 0.72806 0.86876 0.0
H118 H 0.94287 0.68882 0.75321 0.0
H119 H 0.89899 0.71556 0.88255 0.0
H120 H 0.54354 0.96701 0.23427 0.0
H121 H 0.71584 0.99225 0.2874 0.0
H122 H 0.67222 0.93373 0.17119 0.0
C123 C 0.58783 0.96649 0.23271 0.0
C124 C 0.60327 0.94854 0.19917 0.0
C125 C 0.62789 0.98203 0.26445 0.0
C126 C 0.68439 0.97992 0.26279 0.0
C127 C 0.70112 0.96354 0.2291 0.0
C128 C 0.6604 0.94784 0.19715 0.0
N129 N 0.76004 0.96529 0.22738 0.0
C130 C 0.80661 1.00885 0.20789 0.0
H131 H 0.67891 0.52015 0.5716 0.0
H132 H 0.83536 0.67401 0.64116 0.0
H133 H 0.84853 0.6546 0.52536 0.0
C134 C 0.7274 0.56068 0.57496 0.0
C135 C 0.76191 0.58094 0.5443 0.0
C136 C 0.75307 0.59485 0.6096 0.0
C137 C 0.81561 0.64694 0.61435 0.0
C138 C 0.85089 0.66732 0.58412 0.0
C139 C 0.82323 0.63553 0.54894 0.0
N140 N 0.90844 0.72656 0.58835 0.0
C141 C 0.90284 0.77937 0.58658 0.0
H142 H 0.11424 0.70113 0.91524 0.0
H143 H 0.28718 0.70617 0.95095 0.0
H144 H 0.26222 0.74824 0.84313 0.0
C145 C 0.16209 0.71088 0.9105 0.0
C146 C 0.18535 0.72672 0.87656 0.0
C147 C 0.19889 0.70435 0.93768 0.0
C148 C 0.25968 0.71392 0.93066 0.0
C149 C 0.28246 0.72865 0.8963 0.0
C150 C 0.24576 0.73725 0.8699 0.0
N151 N 0.33691 0.72552 0.88639 0.0
C152 C 0.33831 0.7043 0.85028 0.0
H153 H 0.19477 0.69771 0.383 0.0
H154 H 1.01816 0.52272 0.39024 0.0
H155 H 0.14276 0.63397 0.48876 0.0
C156 C 0.16296 0.66416 0.40034 0.0
C157 C 0.18064 0.67765 0.43854 0.0
C158 C 0.10557 0.60983 0.3832 0.0
C159 C 1.06126 0.56339 0.40418 0.0
C160 C 1.07163 0.56857 0.44257 0.0
C161 C 0.13286 0.62728 0.4594 0.0
N162 N 1.02329 0.51791 0.46407 0.0
C163 C 0.96017 0.45642 0.45787 0.0
H164 H 0.5991 0.20056 0.72099 0.0
H165 H 0.59634 1.02467 0.7255 0.0
H166 H 0.60934 0.14048 0.82622 0.0
C167 C 0.60036 0.16768 0.73799 0.0
C168 C 0.60422 0.18251 0.77639 0.0
C169 C 0.5972 0.1121 0.72002 0.0
C170 C 0.59877 0.06618 0.74028 0.0
C171 C 0.60365 0.07298 0.77895 0.0
C172 C 0.60636 0.13295 0.79669 0.0
N173 N 0.6055 1.02252 0.79959 0.0
C174 C 0.60376 0.9599 0.79301 0.0
H175 H 0.69666 0.59983 0.04964 0.0
H176 H 0.52086 0.60141 0.05933 0.0
H177 H 0.63651 0.62066 0.15708 0.0
C178 C 0.66363 0.60315 0.0676 0.0
C179 C 0.67822 0.61022 0.10592 0.0
C180 C 0.60799 0.59976 0.05109 0.0
C181 C 0.56249 0.60413 0.07282 0.0
C182 C 0.56969 0.6121 0.11132 0.0
C183 C 0.62909 0.61517 0.12761 0.0
N184 N 0.51978 0.61679 0.13328 0.0
C185 C 0.45766 0.61503 0.12667 0.0
C186 C 0.31582 0.65804 0.11678 0.0
C187 C 0.26461 0.6154 0.13729 0.0
C188 C 0.33744 0.5682 0.14675 0.0
C189 C 0.39075 0.61427 0.12904 0.0
N190 N 0.4278 0.70885 0.10066 0.0
N191 N 0.23656 0.53349 0.17569 0.0
C192 C 0.37843 0.6605 0.11517 0.0
C193 C 0.27864 0.57143 0.15292 0.0
N194 N 0.30376 0.69511 0.09671 0.0
N195 N 0.34197 0.51897 0.15736 0.0
H196 H 0.19465 0.53355 0.1808 0.0
H197 H 0.24559 0.50623 0.19199 0.0
H198 H 0.38276 0.51557 0.15446 0.0
H199 H 0.3039 0.47909 0.16606 0.0
H200 H 0.33372 0.72195 0.07786 0.0
H201 H 0.26071 0.69482 0.09662 0.0
H202 H 0.42731 0.74874 0.09407 0.0
H203 H 0.47162 0.71128 0.098 0.0
C204 C 0.81291 0.27029 0.44207 0.0
C205 C 0.76838 0.26463 0.46909 0.0
C206 C 0.84968 0.38471 0.48815 0.0
C207 C 0.89344 0.39075 0.46073 0.0
N208 N 0.91546 0.33097 0.41443 0.0
N209 N 0.7461 0.32616 0.51445 0.0
C210 C 0.87383 0.33084 0.43856 0.0
C211 C 0.78786 0.32495 0.49087 0.0
N212 N 0.79504 0.21757 0.41765 0.0
N213 N 0.86899 0.43628 0.51377 0.0
H214 H 0.70455 0.28521 0.51938 0.0
H215 H 0.75012 0.3678 0.52719 0.0
H216 H 0.91101 0.47949 0.51264 0.0
H217 H 0.84621 0.4354 0.53736 0.0
H218 H 0.8184 0.21704 0.39457 0.0
H219 H 0.75317 0.17442 0.41895 0.0
H220 H 0.91128 0.29035 0.4001 0.0
H221 H 0.95732 0.37253 0.41041 0.0
C222 C 0.6366 0.8101 0.7761 0.0
C223 C 0.60209 0.76651 0.80234 0.0
C224 C 0.57303 0.85261 0.82382 0.0
C225 C 0.60265 0.89308 0.7956 0.0
N226 N 0.65706 0.89921 0.74171 0.0
N227 N 0.53031 0.75078 0.84904 0.0
C228 C 0.6327 0.86803 0.77113 0.0
C229 C 0.56832 0.7896 0.82519 0.0
N230 N 0.67506 0.7969 0.75542 0.0
N231 N 0.55031 0.87545 0.851 0.0
H232 H 0.52854 0.70862 0.85298 0.0
H233 H 0.49743 0.75799 0.86301 0.0
H234 H 0.55077 0.91802 0.85076 0.0
H235 H 0.5356 0.85509 0.87493 0.0
H236 H 0.70771 0.82812 0.73913 0.0
H237 H 0.67779 0.75628 0.75671 0.0
H238 H 0.67254 0.88181 0.71992 0.0
H239 H 0.65675 0.94045 0.73777 0.0
C240 C 0.85991 0.6608 0.14949 0.0
C241 C 0.87428 0.61507 0.13069 0.0
C242 C 0.75615 0.56069 0.10375 0.0
C243 C 0.74411 0.61001 0.11889 0.0
N244 N 0.79626 0.71367 0.15348 0.0
N245 N 0.83067 0.52774 0.08197 0.0
C246 C 0.79961 0.66154 0.14105 0.0
C247 C 0.82035 0.56684 0.10595 0.0
N248 N 0.90294 0.7031 0.17725 0.0
N249 N 0.70462 0.50496 0.08775 0.0
H250 H 0.87532 0.53185 0.08043 0.0
H251 H 0.79723 0.49671 0.06058 0.0
H252 H 0.65818 0.49715 0.08653 0.0
H253 H 0.70675 0.46434 0.07975 0.0
H254 H 0.89408 0.73296 0.19489 0.0
H255 H 0.94473 0.70363 0.18508 0.0
H256 H 0.83564 0.7562 0.16567 0.0
H257 H 0.75482 0.71567 0.14885 0.0
C258 C 0.36684 0.81482 0.47898 0.0
C259 C 0.37939 0.87264 0.46454 0.0
C260 C 0.25891 0.80536 0.44165 0.0
C261 C 0.24794 0.74577 0.45233 0.0
N262 N 0.30249 0.6982 0.47794 0.0
N263 N 0.33129 0.90985 0.42314 0.0
C264 C 0.30535 0.75248 0.47018 0.0
C265 C 0.32322 0.8637 0.44372 0.0
N266 N 0.41313 0.81926 0.50286 0.0
N267 N 0.20635 0.80764 0.43018 0.0
H268 H 0.37573 0.94998 0.42137 0.0
H269 H 0.29575 0.90453 0.40423 0.0
H270 H 0.15993 0.76877 0.42919 0.0
H271 H 0.20813 0.84965 0.42586 0.0
H272 H 0.40635 0.78292 0.51777 0.0
H273 H 0.45623 0.86163 0.51047 0.0
H274 H 0.34255 0.69623 0.48651 0.0
H275 H 0.26027 0.65411 0.473 0.0
C276 C 0.55951 0.32317 0.77779 0.0
C277 C 0.60777 0.37956 0.80161 0.0
C278 C 0.65483 0.30624 0.81122 0.0
C279 C 0.60324 0.24889 0.79014 0.0
N280 N 0.49773 0.20713 0.76097 0.0
N281 N 0.69615 0.41196 0.8466 0.0
C282 C 0.55365 0.25955 0.77593 0.0
C283 C 0.65376 0.36684 0.8196 0.0
N284 N 0.5199 0.33 0.75419 0.0
N285 N 0.70739 0.30422 0.82278 0.0
H286 H 0.69652 0.45392 0.85448 0.0
H287 H 0.7261 0.4049 0.86372 0.0
H288 H 0.7093 0.2627 0.8184 0.0
H289 H 0.75021 0.34427 0.83399 0.0
H290 H 0.48962 0.29464 0.73324 0.0
H291 H 0.52267 0.37308 0.75226 0.0
H292 H 0.45652 0.20824 0.75396 0.0
H293 H 0.49032 0.16136 0.75968 0.0
C294 C 0.86499 0.88764 0.54136 0.0
C295 C 0.80835 0.87456 0.55814 0.0
C296 C 0.83121 0.81932 0.6023 0.0
C297 C 0.88028 0.82232 0.5813 0.0
N298 N 0.94503 0.85802 0.53094 0.0
N299 N 0.73512 0.82599 0.60365 0.0
C300 C 0.89813 0.85682 0.55109 0.0
C301 C 0.79114 0.84057 0.58876 0.0
N302 N 0.8875 0.93033 0.51668 0.0
N303 N 0.82314 0.796 0.63507 0.0
H304 H 0.7042 0.84025 0.59418 0.0
H305 H 0.71695 0.79617 0.62376 0.0
H306 H 0.85322 0.78165 0.64578 0.0
H307 H 0.79132 0.79677 0.65315 0.0
H308 H 0.93157 0.94617 0.50604 0.0
H309 H 0.8648 0.9545 0.5093 0.0
H310 H 0.95477 0.87554 0.5059 0.0
H311 H 0.97228 0.83844 0.53855 0.0
C312 C 1.04341 0.65866 0.80616 0.0
C313 C 1.04128 0.7143 0.80394 0.0
C314 C 0.14768 0.77899 0.8359 0.0
C315 C 0.14239 0.72279 0.84621 0.0
N316 N 1.09018 0.60831 0.83822 0.0
N317 N 1.09854 0.82806 0.80645 0.0
C318 C 1.09255 0.66212 0.82959 0.0
C319 C 1.0965 0.77434 0.81432 0.0
N320 N 0.9963 0.60274 0.78736 0.0
N321 N 0.19931 0.83717 0.84856 0.0
H322 H 1.06158 0.82727 0.79083 0.0
H323 H 1.06158 0.82727 0.79083 0.0
H324 H 0.23778 0.84305 0.86523 0.0
H325 H 0.20348 0.87923 0.84186 0.0
H326 H 0.99601 0.5602 0.78593 0.0
H327 H 0.9601 0.60078 0.7704 0.0
H328 H 1.05212 0.56259 0.82979 0.0
H329 H 0.12557 0.60942 0.85539 0.0
C330 C 0.48725 0.95669 0.13595 0.0
C331 C 0.433 0.89969 0.14329 0.0
C332 C 0.5026 0.86359 0.16636 0.0
C333 C 0.55488 0.92599 0.16772 0.0
N334 N 0.60186 1.03007 0.14964 0.0
N335 N 0.38773 0.79778 0.16564 0.0
C336 C 0.54897 0.97154 0.15017 0.0
C337 C 0.44018 0.85181 0.15749 0.0
N338 N 0.47908 0.99682 0.11648 0.0
N339 N 0.51293 0.81706 0.17583 0.0
H340 H 0.34085 0.78703 0.1597 0.0
H341 H 0.39059 0.76516 0.1803 0.0
H342 H 0.55893 0.8259 0.18275 0.0
H343 H 0.47737 0.76935 0.17353 0.0
H344 H 0.51671 1.03757 0.10826 0.0
H345 H 0.43385 0.9863 0.10614 0.0
H346 H 0.60062 0.06835 0.14089 0.0
H347 H 0.64748 1.0402 0.15892 0.0
C348 C 0.61861 0.48209 0.48029 0.0
C349 C 0.63224 0.43414 0.46858 0.0
C350 C 0.74573 0.5053 0.48856 0.0
C351 C 0.72873 0.54654 0.50783 0.0
N352 N 0.66007 0.59011 0.50972 0.0
N353 N 0.7082 0.40373 0.45101 0.0
C354 C 0.66879 0.54061 0.49875 0.0
C355 C 0.69635 0.44806 0.4682 0.0
N356 N 0.55699 0.46924 0.47632 0.0
N357 N 0.80799 0.51994 0.4908 0.0
H358 H 0.67209 0.36221 0.43559 0.0
H359 H 0.75288 0.40777 0.45122 0.0
H360 H 0.84449 0.56054 0.50646 0.0
H361 H 0.82472 0.49473 0.47522 0.0
H362 H 0.54198 0.49958 0.48742 0.0
H363 H 0.52037 0.42679 0.46193 0.0
H364 H 0.61853 0.59071 0.50305 0.0
H365 H 0.69738 0.63294 0.52341 0.0
C366 C 0.35078 0.67366 0.74943 0.0
C367 C 0.30083 0.60951 0.74348 0.0
C368 C 0.26151 0.62211 0.80106 0.0
C369 C 0.32249 0.67703 0.81218 0.0
N370 N 0.4183 0.76538 0.79441 0.0
N371 N 0.18817 0.55228 0.74872 0.0
C372 C 0.36493 0.70696 0.78539 0.0
C373 C 0.24845 0.59484 0.76404 0.0
N374 N 0.38174 0.7019 0.7205 0.0
N375 N 0.21824 0.59363 0.82574 0.0
H376 H 0.18057 0.53145 0.72158 0.0
H377 H 0.14731 0.54207 0.762 0.0
H378 H 0.22715 0.6106 0.85353 0.0
H379 H 0.17561 0.55046 0.81879 0.0
H380 H 0.41633 0.74987 0.72214 0.0
H381 H 0.36825 0.67667 0.6942 0.0
H382 H 0.45347 0.78706 0.77664 0.0
H383 H 0.42756 0.79131 0.82022 0.0
C384 C 0.85743 0.12509 0.14122 0.0
C385 C 0.91033 0.17869 0.16213 0.0
C386 C 0.90453 0.1142 0.20987 0.0
C387 C 0.85013 1.06177 0.18962 0.0
N388 N 0.78767 1.01047 0.13209 0.0
N389 N 0.99493 0.22133 0.21074 0.0
C390 C 0.83112 0.06496 0.15381 0.0
C391 C 0.93763 0.17208 0.19462 0.0
N392 N 0.82972 0.13232 0.11076 0.0
N393 N 0.92258 0.10931 0.24422 0.0
H394 H 1.02004 0.26407 0.19984 0.0
H395 H 1.02015 0.21812 0.23285 0.0
H396 H 0.90089 0.06651 0.25526 0.0
H397 H 0.95702 0.14777 0.26224 0.0
H398 H 0.78648 0.09646 0.09705 0.0
H399 H 0.84763 0.17548 0.10043 0.0
H400 H 0.77538 1.00883 0.10459 0.0
H401 H 0.7691 0.96585 0.14077 0.0
C402 C 0.12486 0.60215 0.01392 0.0
C403 C 0.11068 0.64233 0.03688 0.0
C404 C 0.16019 0.72492 -0.00325 0.0
C405 C 0.1707 0.68339 0.97248 0.0
N406 N 0.15028 0.57757 0.9537 0.0
N407 N 1.10038 0.7349 0.04577 0.0
C408 C 0.14922 0.62043 0.97976 0.0
C409 C 0.12387 0.70158 0.02684 0.0
N410 N 0.11809 0.54818 0.02539 0.0
N411 N 0.18679 0.78729 -0.00825 0.0
H412 H 1.07186 0.71798 0.06732 0.0
H413 H 1.10343 0.77567 0.03779 0.0
H414 H 0.21449 0.80641 0.97023 0.0
H415 H 0.18643 0.8213 0.01076 0.0
H416 H 0.135 0.52118 0.01176 0.0
H417 H 1.09966 0.53275 0.04998 0.0
H418 H 0.12904 0.52939 0.95605 0.0
H419 H 0.16744 0.58896 0.92828 0.0
C420 C 0.5419 0.96972 0.35049 0.0
C421 C 0.57458 1.03423 0.36607 0.0
C422 C 0.63492 0.06531 0.31228 0.0
C423 C 0.60927 1.00014 0.29938 0.0
N424 N 0.54017 0.88954 0.30578 0.0
N425 N 0.6505 0.14432 0.36272 0.0
C426 C 0.56259 0.95203 0.31814 0.0
C427 C 0.62012 0.0824 0.34696 0.0
N428 N 0.49162 0.92556 0.3669 0.0
N429 N 0.67247 0.11057 0.29106 0.0
H430 H 0.63731 0.15858 0.3869 0.0
H431 H 0.69002 0.18113 0.35278 0.0
H432 H 0.68533 0.09972 0.2658 0.0
H433 H 0.68744 0.15846 0.29711 0.0
H434 H 0.46193 0.87855 0.35538 0.0
H435 H 0.4758 0.93727 0.39075 0.0
H436 H 0.51134 0.85226 0.32018 0.0
H437 H 0.55395 0.8748 0.28204 0.0
C438 C 0.66189 0.51949 0.68995 0.0
C439 C 0.64395 0.56418 0.70267 0.0
C440 C 0.68291 0.61789 0.64856 0.0
C441 C 0.71153 0.58081 0.64005 0.0
N442 N 0.72989 0.49674 0.65234 0.0
N443 N 0.63878 0.65784 0.69464 0.0
C444 C 0.70087 0.53113 0.6604 0.0
C445 C 0.65359 0.61324 0.68179 0.0
N446 N 0.64075 0.46551 0.70605 0.0
N447 N 0.6832 0.65704 0.62467 0.0
H448 H 0.61525 0.65541 0.71808 0.0
H449 H 0.65309 0.69943 0.68312 0.0
H450 H 0.70533 0.66268 0.60036 0.0
H451 H 0.65662 0.67944 0.62729 0.0
H452 H 0.64734 0.42826 0.69624 0.0
H453 H 0.61079 0.45534 0.72718 0.0
H454 H 0.72991 0.46475 0.66878 0.0
H455 H 0.75776 0.50323 0.63035 0.0
C456 C 0.52713 0.0689 0.61853 0.0
C457 C 0.58373 0.09511 0.59976 0.0
C458 C 0.64823 0.12496 0.65942 0.0
C459 C 0.59204 0.10294 0.67837 0.0
N460 N 0.4783 1.06106 0.67604 0.0
N461 N 0.69888 0.15779 0.60328 0.0
C462 C 0.53163 0.07709 0.65785 0.0
C463 C 0.64445 0.12554 0.62055 0.0
N464 N 0.46883 1.03337 0.59879 0.0
N465 N 0.70553 0.14485 0.67861 0.0
H466 H 0.69815 0.16066 0.57528 0.0
H467 H 0.74428 0.18666 0.61696 0.0
H468 H 0.71056 0.14707 0.70696 0.0
H469 H 0.74706 0.1545 0.66634 0.0
H470 H 0.42614 1.00676 0.61046 0.0
H471 H 0.46347 1.02631 0.57029 0.0
H472 H 0.43429 1.04941 0.66327 0.0
H473 H 0.47901 0.06336 0.70443 0.0
C474 C 0.5959 0.63458 0.95198 0.0
C475 C 0.58514 0.57781 0.93099 0.0
C476 C 0.57924 0.53211 -0.01134 0.0
C477 C 0.59753 0.59145 0.0096 0.0
N478 N 0.6306 0.70181 0.01061 0.0
N479 N 0.57366 0.47459 0.92979 0.0
C480 C 0.60743 0.64327 -0.00896 0.0
C481 C 0.57814 0.52689 0.94948 0.0
N482 N 0.59348 0.67983 0.93449 0.0
N483 N 0.56155 0.48014 0.00624 0.0
H484 H 0.57192 0.46861 0.90133 0.0
H485 H 0.57633 0.43927 0.94166 0.0
H486 H 0.56201 0.48217 0.03462 0.0
H487 H 0.54127 0.43417 -0.00727 0.0
H488 H 0.59424 0.71934 0.94809 0.0
H489 H 0.58444 0.67474 0.90619 0.0
H490 H 0.64597 0.74311 -0.00138 0.0
H491 H 0.63944 0.71015 0.03901 0.0
C492 C 0.11959 0.58402 0.27942 0.0
C493 C 1.07692 0.60105 0.26391 0.0
C494 C 1.05243 0.62343 0.32664 0.0
C495 C 1.09213 0.60282 0.34189 0.0
N496 N 0.15465 0.5529 0.33193 0.0
N497 N 0.99345 0.62527 0.27285 0.0
C498 C 0.12282 0.57975 0.31791 0.0
C499 C 1.04079 0.61749 0.28765 0.0
N500 N 0.16005 0.57551 0.25776 0.0
N501 N 1.02731 0.65075 0.34949 0.0
H502 H 0.98279 0.62029 0.24473 0.0
H503 H 0.96084 0.63072 0.28821 0.0
H504 H 1.03332 0.65452 0.3779 0.0
H505 H 1.00455 0.6738 0.34047 0.0
H506 H 0.19715 0.57004 0.26784 0.0
H507 H 0.16037 0.57961 0.22994 0.0
H508 H 0.17216 0.52888 0.3158 0.0
H509 H 0.15871 0.54982 0.35977 0.0
loop_
_geom_bond_atom_site_label_1
_geom_bond_atom_site_label_2
_geom_bond_distance
_geom_bond_site_symmetry_2
_ccdc_geom_bond_type
Eu0 C9 2.828 . S
Eu0 O11 2.392 1_655 S
Eu0 O13 2.418 . S
Eu0 O18 2.373 . S
Eu0 O21 2.488 . S
Eu0 O22 2.471 . S
Eu0 O23 2.349 . S
Eu1 O10 2.373 . S
Eu1 O14 2.488 . S
Eu1 O15 2.471 . S
Eu1 O16 2.349 . S
Eu1 O19 2.392 1_455 S
Eu1 O20 2.418 . S
Eu1 C30 2.828 . S
C2 O20 1.244 . S
C2 O23 1.265 1_455 S
C3 C4 1.379 . S
C3 C7 1.373 . S
C3 C9 1.505 . S
C4 C3 1.379 . S
C4 C6 1.369 . S
C4 H32 0.930 . S
C5 C7 1.383 . S
C5 C8 1.382 . S
C5 H33 0.930 . S
C6 C4 1.369 . S
C6 C8 1.392 . S
C6 H34 0.930 . S
C7 C3 1.373 . S
C7 C5 1.383 . S
C7 H35 0.931 . S
C8 C5 1.382 . S
C8 C6 1.392 . S
C9 Eu0 2.828 . S
C9 C3 1.505 . S
C9 O21 1.249 . S
C9 O22 1.244 . S
O10 Eu1 2.373 . S
O10 C12 1.258 . S
O11 Eu0 2.392 1_455 S
O11 C12 1.242 . S
C12 O10 1.258 . S
C12 O11 1.242 . S
O13 Eu0 2.418 . S
O13 C17 1.244 1_655 S
O14 Eu1 2.488 . S
O14 C30 1.249 . S
O15 Eu1 2.471 . S
O15 C30 1.244 . S
O16 Eu1 2.349 . S
O16 C17 1.265 . S
C17 O13 1.244 1_455 S
C17 O16 1.265 . S
O18 Eu0 2.373 . S
O18 C31 1.258 . S
O19 Eu1 2.392 1_655 S
O19 C31 1.242 . S
O20 Eu1 2.418 . S
O20 C2 1.244 . S
O21 Eu0 2.488 . S
O21 C9 1.249 . S
O22 Eu0 2.471 . S
O22 C9 1.244 . S
O23 Eu0 2.349 . S
O23 C2 1.265 1_655 S
C24 C25 1.379 . S
C24 C28 1.373 . S
C24 C30 1.505 . S
C25 C24 1.379 . S
C25 C27 1.369 . S
C25 H36 0.930 . S
C26 C28 1.383 . S
C26 C29 1.382 . S
C26 H37 0.930 . S
C27 C25 1.369 . S
C27 C29 1.392 . S
C27 H38 0.930 . S
C28 C24 1.373 . S
C28 C26 1.383 . S
C28 H39 0.931 . S
C29 C26 1.382 . S
C29 C27 1.392 . S
C30 Eu1 2.828 . S
C30 O14 1.249 . S
C30 O15 1.244 . S
C30 C24 1.505 . S
C31 O18 1.258 . S
C31 O19 1.242 . S
H32 C4 0.930 . S
H33 C5 0.930 . S
H34 C6 0.930 . S
H35 C7 0.931 . S
H36 C25 0.930 . S
H37 C26 0.930 . S
H38 C27 0.930 . S
H39 C28 0.931 . S
Eu40 C49 2.828 . S
Eu40 O51 2.392 1_565 S
Eu40 O53 2.418 . S
Eu40 O58 2.373 . S
Eu40 O61 2.488 . S
Eu40 O62 2.471 . S
Eu40 O63 2.349 1_565 S
Eu41 O50 2.373 . S
Eu41 O54 2.488 . S
Eu41 O55 2.471 . S
Eu41 O56 2.349 . S
Eu41 O59 2.392 1_545 S
Eu41 O60 2.418 . S
Eu41 C70 2.828 . S
C42 O60 1.244 . S
C42 O63 1.265 . S
C43 C44 1.379 . S
C43 C47 1.373 . S
C43 C49 1.505 . S
C44 C43 1.379 . S
C44 C46 1.369 . S
C44 H72 0.930 . S
C45 C47 1.383 . S
C45 C48 1.382 . S
C45 H73 0.930 . S
C46 C44 1.369 . S
C46 C48 1.392 . S
C46 H74 0.930 . S
C47 C43 1.373 . S
C47 C45 1.383 . S
C47 H75 0.931 . S
C48 C45 1.382 . S
C48 C46 1.392 . S
C49 Eu40 2.828 . S
C49 C43 1.505 . S
C49 O61 1.249 . S
C49 O62 1.244 . S
O50 Eu41 2.373 . S
O50 C52 1.258 . S
O51 Eu40 2.392 1_545 S
O51 C52 1.242 . S
C52 O50 1.258 . S
C52 O51 1.242 . S
O53 Eu40 2.418 . S
O53 C57 1.244 1_565 S
O54 Eu41 2.488 . S
O54 C70 1.249 . S
O55 Eu41 2.471 . S
O55 C70 1.244 . S
O56 Eu41 2.349 . S
O56 C57 1.265 . S
C57 O53 1.244 1_545 S
C57 O56 1.265 . S
O58 Eu40 2.373 . S
O58 C71 1.258 . S
O59 Eu41 2.392 1_565 S
O59 C71 1.242 . S
O60 Eu41 2.418 . S
O60 C42 1.244 . S
O61 Eu40 2.488 . S
O61 C49 1.249 . S
O62 Eu40 2.471 . S
O62 C49 1.244 . S
O63 Eu40 2.349 1_545 S
O63 C42 1.265 . S
C64 C65 1.379 . S
C64 C68 1.373 . S
C64 C70 1.505 . S
C65 C64 1.379 . S
C65 C67 1.369 . S
C65 H76 0.930 . S
C66 C68 1.383 . S
C66 C69 1.382 . S
C66 H77 0.930 . S
C67 C65 1.369 . S
C67 C69 1.392 . S
C67 H78 0.930 . S
C68 C64 1.373 . S
C68 C66 1.383 . S
C68 H79 0.931 . S
C69 C66 1.382 . S
C69 C67 1.392 . S
C70 Eu41 2.828 . S
C70 O54 1.249 . S
C70 O55 1.244 . S
C70 C64 1.505 . S
C71 O58 1.258 . S
C71 O59 1.242 . S
H72 C44 0.930 . S
H73 C45 0.930 . S
H74 C46 0.930 . S
H75 C47 0.931 . S
H76 C65 0.930 . S
H77 C66 0.930 . S
H78 C67 0.930 . S
H79 C68 0.931 . S
Eu80 C89 2.828 . S
Eu80 O91 2.392 . S
Eu80 O93 2.418 . S
Eu80 O98 2.373 . S
Eu80 O101 2.488 . S
Eu80 O102 2.471 . S
Eu80 O103 2.349 . S
Eu81 O90 2.373 . S
Eu81 O94 2.488 . S
Eu81 O95 2.471 . S
Eu81 O96 2.349 . S
Eu81 O99 2.392 . S
Eu81 O100 2.418 . S
Eu81 C110 2.828 . S
C82 O100 1.244 . S
C82 O103 1.265 . S
C83 C84 1.379 . S
C83 C87 1.373 . S
C83 C89 1.505 . S
C84 C83 1.379 . S
C84 C86 1.369 . S
C84 H112 0.930 . S
C85 C87 1.383 . S
C85 C88 1.382 . S
C85 H113 0.930 . S
C86 C84 1.369 . S
C86 C88 1.392 . S
C86 H114 0.930 . S
C87 C83 1.373 . S
C87 C85 1.383 . S
C87 H115 0.931 . S
C88 C85 1.382 . S
C88 C86 1.392 . S
C89 Eu80 2.828 . S
C89 C83 1.505 . S
C89 O101 1.249 . S
C89 O102 1.244 . S
O90 Eu81 2.373 . S
O90 C92 1.258 . S
O91 Eu80 2.392 . S
O91 C92 1.242 . S
C92 O90 1.258 . S
C92 O91 1.242 . S
O93 Eu80 2.418 . S
O93 C97 1.244 . S
O94 Eu81 2.488 . S
O94 C110 1.249 . S
O95 Eu81 2.471 . S
O95 C110 1.244 . S
O96 Eu81 2.349 . S
O96 C97 1.265 . S
C97 O93 1.244 . S
C97 O96 1.265 . S
O98 Eu80 2.373 . S
O98 C111 1.258 . S
O99 Eu81 2.392 . S
O99 C111 1.242 . S
O100 Eu81 2.418 . S
O100 C82 1.244 . S
O101 Eu80 2.488 . S
O101 C89 1.249 . S
O102 Eu80 2.471 . S
O102 C89 1.244 . S
O103 Eu80 2.349 . S
O103 C82 1.265 . S
C104 C105 1.379 . S
C104 C108 1.373 . S
C104 C110 1.505 . S
C105 C104 1.379 . S
C105 C107 1.369 . S
C105 H116 0.930 . S
C106 C108 1.383 . S
C106 C109 1.382 . S
C106 H117 0.930 . S
C107 C105 1.369 . S
C107 C109 1.392 . S
C107 H118 0.930 . S
C108 C104 1.373 . S
C108 C106 1.383 . S
C108 H119 0.931 . S
C109 C106 1.382 . S
C109 C107 1.392 . S
C110 Eu81 2.828 . S
C110 O94 1.249 . S
C110 O95 1.244 . S
C110 C104 1.505 . S
C111 O98 1.258 . S
C111 O99 1.242 . S
H112 C84 0.930 . S
H113 C85 0.930 . S
H114 C86 0.930 . S
H115 C87 0.931 . S
H116 C105 0.930 . S
H117 C106 0.930 . S
H118 C107 0.930 . S
H119 C108 0.931 . S
H120 C123 0.929 . S
H121 C126 0.929 . S
H122 C128 0.931 . S
C123 H120 0.929 . S
C123 C124 1.398 . S
C123 C125 1.396 1_565 S
C124 C123 1.398 . S
C124 C128 1.407 1_565 S
C125 C123 1.396 1_545 S
C125 C126 1.394 . S
C126 H121 0.929 . S
C126 C125 1.394 . S
C126 C127 1.382 . S
C127 C126 1.382 . S
C127 C128 1.392 . S
C127 N129 1.420 . S
C128 H122 0.931 . S
C128 C124 1.407 1_545 S
C128 C127 1.392 . S
N129 C127 1.420 . S
N129 C130 1.244 . S
C130 N129 1.244 . S
H131 C134 0.929 . S
H132 C137 0.929 . S
H133 C139 0.930 . S
C134 H131 0.929 . S
C134 C135 1.398 . S
C134 C136 1.396 . S
C135 C134 1.398 . S
C135 C139 1.407 . S
C136 C134 1.396 . S
C136 C137 1.394 . S
C137 H132 0.929 . S
C137 C136 1.394 . S
C137 C138 1.382 . S
C138 C137 1.382 . S
C138 C139 1.392 . S
C138 N140 1.420 . S
C139 H133 0.930 . S
C139 C135 1.407 . S
C139 C138 1.392 . S
N140 C138 1.420 . S
N140 C141 1.244 . S
C141 N140 1.244 . S
H142 C145 0.929 . S
H143 C148 0.929 . S
H144 C150 0.930 . S
C145 H142 0.929 . S
C145 C146 1.398 . S
C145 C147 1.396 1_655 S
C146 C145 1.398 . S
C146 C150 1.407 1_655 S
C147 C145 1.396 1_455 S
C147 C148 1.394 . S
C148 H143 0.929 . S
C148 C147 1.394 . S
C148 C149 1.382 . S
C149 C148 1.382 . S
C149 C150 1.392 . S
C149 N151 1.420 . S
C150 H144 0.930 . S
C150 C146 1.407 1_455 S
C150 C149 1.392 . S
N151 C149 1.420 . S
N151 C152 1.244 . S
C152 N151 1.244 . S
H153 C156 0.929 . S
H154 C159 0.929 . S
H155 C161 0.930 . S
C156 H153 0.929 . S
C156 C157 1.398 . S
C156 C158 1.396 . S
C157 C156 1.398 . S
C157 C161 1.407 . S
C158 C156 1.396 . S
C158 C159 1.394 1_455 S
C159 H154 0.929 . S
C159 C158 1.394 1_655 S
C159 C160 1.382 1_655 S
C160 C159 1.382 1_455 S
C160 C161 1.392 . S
C160 N162 1.420 1_455 S
C161 H155 0.930 . S
C161 C157 1.407 . S
C161 C160 1.392 . S
N162 C160 1.420 1_655 S
N162 C163 1.244 . S
C163 N162 1.244 . S
H164 C167 0.929 . S
H165 C170 0.929 1_565 S
H166 C172 0.930 . S
C167 H164 0.929 . S
C167 C168 1.398 . S
C167 C169 1.396 . S
C168 C167 1.398 . S
C168 C172 1.407 . S
C169 C167 1.396 . S
C169 C170 1.394 . S
C170 H165 0.929 1_545 S
C170 C169 1.394 . S
C170 C171 1.382 . S
C171 C170 1.382 . S
C171 C172 1.392 . S
C171 N173 1.420 1_545 S
C172 H166 0.930 . S
C172 C168 1.407 . S
C172 C171 1.392 . S
N173 C171 1.420 1_565 S
N173 C174 1.244 . S
C174 N173 1.244 . S
H175 C178 0.929 . S
H176 C181 0.929 . S
H177 C183 0.930 . S
C178 H175 0.929 . S
C178 C179 1.398 . S
C178 C180 1.396 . S
C179 C178 1.398 . S
C179 C183 1.407 . S
C180 C178 1.396 . S
C180 C181 1.394 . S
C181 H176 0.929 . S
C181 C180 1.394 . S
C181 C182 1.382 . S
C182 C181 1.382 . S
C182 C183 1.392 . S
C182 N184 1.420 . S
C183 H177 0.930 . S
C183 C179 1.407 . S
C183 C182 1.392 . S
N184 C182 1.420 . S
N184 C185 1.244 . S
C185 N184 1.244 . S
C186 C187 1.363 . S
C186 C192 1.379 . S
C186 N194 1.356 . S
C187 C186 1.363 . S
C187 C193 1.363 . S
C188 C189 1.363 . S
C188 C193 1.379 . S
C188 N195 1.356 . S
C189 C188 1.363 . S
C189 C192 1.363 . S
N190 C192 1.356 . S
N190 H202 0.984 . S
N190 H203 0.985 . S
N191 C193 1.356 . S
N191 H196 0.984 . S
N191 H197 0.985 . S
C192 C186 1.379 . S
C192 C189 1.363 . S
C192 N190 1.356 . S
C193 C187 1.363 . S
C193 C188 1.379 . S
C193 N191 1.356 . S
N194 C186 1.356 . S
N194 H200 0.984 . S
N194 H201 0.984 . S
N195 C188 1.356 . S
N195 H198 0.984 . S
N195 H199 0.985 . S
H196 N191 0.984 . S
H197 N191 0.985 . S
H198 N195 0.984 . S
H199 N195 0.985 . S
H200 N194 0.984 . S
H201 N194 0.984 . S
H202 N190 0.984 . S
H203 N190 0.985 . S
C204 C205 1.363 . S
C204 C210 1.379 . S
C204 N212 1.356 . S
C205 C204 1.363 . S
C205 C211 1.363 . S
C206 C207 1.363 . S
C206 C211 1.379 . S
C206 N213 1.356 . S
C207 C206 1.363 . S
C207 C210 1.363 . S
N208 C210 1.356 . S
N208 H220 0.984 . S
N208 H221 0.985 . S
N209 C211 1.356 . S
N209 H214 0.984 . S
N209 H215 0.985 . S
C210 C204 1.379 . S
C210 C207 1.363 . S
C210 N208 1.356 . S
C211 C205 1.363 . S
C211 C206 1.379 . S
C211 N209 1.356 . S
N212 C204 1.356 . S
N212 H218 0.984 . S
N212 H219 0.984 . S
N213 C206 1.356 . S
N213 H216 0.984 . S
N213 H217 0.985 . S
H214 N209 0.984 . S
H215 N209 0.985 . S
H216 N213 0.984 . S
H217 N213 0.985 . S
H218 N212 0.984 . S
H219 N212 0.984 . S
H220 N208 0.984 . S
H221 N208 0.985 . S
C222 C223 1.363 . S
C222 C228 1.379 . S
C222 N230 1.356 . S
C223 C222 1.363 . S
C223 C229 1.363 . S
C224 C225 1.363 . S
C224 C229 1.379 . S
C224 N231 1.356 . S
C225 C224 1.363 . S
C225 C228 1.363 . S
N226 C228 1.356 . S
N226 H238 0.984 . S
N226 H239 0.985 . S
N227 C229 1.356 . S
N227 H232 0.984 . S
N227 H233 0.985 . S
C228 C222 1.379 . S
C228 C225 1.363 . S
C228 N226 1.356 . S
C229 C223 1.363 . S
C229 C224 1.379 . S
C229 N227 1.356 . S
N230 C222 1.356 . S
N230 H236 0.984 . S
N230 H237 0.984 . S
N231 C224 1.356 . S
N231 H234 0.984 . S
N231 H235 0.985 . S
H232 N227 0.984 . S
H233 N227 0.985 . S
H234 N231 0.984 . S
H235 N231 0.985 . S
H236 N230 0.984 . S
H237 N230 0.984 . S
H238 N226 0.984 . S
H239 N226 0.985 . S
C240 C241 1.363 . S
C240 C246 1.379 . S
C240 N248 1.356 . S
C241 C240 1.363 . S
C241 C247 1.363 . S
C242 C243 1.363 . S
C242 C247 1.379 . S
C242 N249 1.356 . S
C243 C242 1.363 . S
C243 C246 1.363 . S
N244 C246 1.356 . S
N244 H256 0.984 . S
N244 H257 0.985 . S
N245 C247 1.356 . S
N245 H250 0.984 . S
N245 H251 0.985 . S
C246 C240 1.379 . S
C246 C243 1.363 . S
C246 N244 1.356 . S
C247 C241 1.363 . S
C247 C242 1.379 . S
C247 N245 1.356 . S
N248 C240 1.356 . S
N248 H254 0.984 . S
N248 H255 0.984 . S
N249 C242 1.356 . S
N249 H252 0.984 . S
N249 H253 0.985 . S
H250 N245 0.984 . S
H251 N245 0.985 . S
H252 N249 0.984 . S
H253 N249 0.985 . S
H254 N248 0.984 . S
H255 N248 0.984 . S
H256 N244 0.984 . S
H257 N244 0.985 . S
C258 C259 1.363 . S
C258 C264 1.379 . S
C258 N266 1.356 . S
C259 C258 1.363 . S
C259 C265 1.363 . S
C260 C261 1.363 . S
C260 C265 1.379 . S
C260 N267 1.356 . S
C261 C260 1.363 . S
C261 C264 1.363 . S
N262 C264 1.356 . S
N262 H274 0.984 . S
N262 H275 0.985 . S
N263 C265 1.356 . S
N263 H268 0.984 . S
N263 H269 0.985 . S
C264 C258 1.379 . S
C264 C261 1.363 . S
C264 N262 1.356 . S
C265 C259 1.363 . S
C265 C260 1.379 . S
C265 N263 1.356 . S
N266 C258 1.356 . S
N266 H272 0.984 . S
N266 H273 0.984 . S
N267 C260 1.356 . S
N267 H270 0.984 . S
N267 H271 0.985 . S
H268 N263 0.984 . S
H269 N263 0.985 . S
H270 N267 0.984 . S
H271 N267 0.985 . S
H272 N266 0.984 . S
H273 N266 0.984 . S
H274 N262 0.984 . S
H275 N262 0.985 . S
C276 C277 1.363 . S
C276 C282 1.379 . S
C276 N284 1.356 . S
C277 C276 1.363 . S
C277 C283 1.363 . S
C278 C279 1.363 . S
C278 C283 1.379 . S
C278 N285 1.356 . S
C279 C278 1.363 . S
C279 C282 1.363 . S
N280 C282 1.356 . S
N280 H292 0.984 . S
N280 H293 0.985 . S
N281 C283 1.356 . S
N281 H286 0.984 . S
N281 H287 0.985 . S
C282 C276 1.379 . S
C282 C279 1.363 . S
C282 N280 1.356 . S
C283 C277 1.363 . S
C283 C278 1.379 . S
C283 N281 1.356 . S
N284 C276 1.356 . S
N284 H290 0.984 . S
N284 H291 0.984 . S
N285 C278 1.356 . S
N285 H288 0.984 . S
N285 H289 0.985 . S
H286 N281 0.984 . S
H287 N281 0.985 . S
H288 N285 0.984 . S
H289 N285 0.985 . S
H290 N284 0.984 . S
H291 N284 0.984 . S
H292 N280 0.984 . S
H293 N280 0.985 . S
C294 C295 1.363 . S
C294 C300 1.379 . S
C294 N302 1.356 . S
C295 C294 1.363 . S
C295 C301 1.363 . S
C296 C297 1.363 . S
C296 C301 1.379 . S
C296 N303 1.356 . S
C297 C296 1.363 . S
C297 C300 1.363 . S
N298 C300 1.356 . S
N298 H310 0.984 . S
N298 H311 0.985 . S
N299 C301 1.356 . S
N299 H304 0.984 . S
N299 H305 0.985 . S
C300 C294 1.379 . S
C300 C297 1.363 . S
C300 N298 1.356 . S
C301 C295 1.363 . S
C301 C296 1.379 . S
C301 N299 1.356 . S
N302 C294 1.356 . S
N302 H308 0.984 . S
N302 H309 0.984 . S
N303 C296 1.356 . S
N303 H306 0.984 . S
N303 H307 0.985 . S
H304 N299 0.984 . S
H305 N299 0.985 . S
H306 N303 0.984 . S
H307 N303 0.985 . S
H308 N302 0.984 . S
H309 N302 0.984 . S
H310 N298 0.984 . S
H311 N298 0.985 . S
C312 C313 1.363 . S
C312 C318 1.379 . S
C312 N320 1.356 . S
C313 C312 1.363 . S
C313 C319 1.363 . S
C314 C315 1.363 . S
C314 C319 1.379 . S
C314 N321 1.356 . S
C315 C314 1.363 . S
C315 C318 1.363 . S
N316 C318 1.356 1_455 S
N316 H328 0.984 . S
N316 H329 0.985 . S
N317 C319 1.356 . S
N317 H322 0.984 . S
N317 H323 0.985 . S
C318 C312 1.379 . S
C318 C315 1.363 . S
C318 N316 1.356 1_655 S
C319 C313 1.363 . S
C319 C314 1.379 . S
C319 N317 1.356 . S
N320 C312 1.356 . S
N320 H326 0.984 . S
N320 H327 0.984 . S
N321 C314 1.356 . S
N321 H324 0.984 . S
N321 H325 0.985 . S
H322 N317 0.984 . S
H323 N317 0.985 . S
H324 N321 0.984 . S
H325 N321 0.985 . S
H326 N320 0.984 . S
H327 N320 0.984 . S
H328 N316 0.984 . S
H329 N316 0.985 . S
C330 C331 1.363 . S
C330 C336 1.379 . S
C330 N338 1.356 . S
C331 C330 1.363 . S
C331 C337 1.363 . S
C332 C333 1.363 . S
C332 C337 1.379 . S
C332 N339 1.356 . S
C333 C332 1.363 . S
C333 C336 1.363 . S
N334 C336 1.356 1_545 S
N334 H346 0.984 . S
N334 H347 0.985 . S
N335 C337 1.356 . S
N335 H340 0.984 . S
N335 H341 0.985 . S
C336 C330 1.379 . S
C336 C333 1.363 . S
C336 N334 1.356 1_565 S
C337 C331 1.363 . S
C337 C332 1.379 . S
C337 N335 1.356 . S
N338 C330 1.356 . S
N338 H344 0.984 . S
N338 H345 0.984 . S
N339 C332 1.356 . S
N339 H342 0.984 . S
N339 H343 0.985 . S
H340 N335 0.984 . S
H341 N335 0.985 . S
H342 N339 0.984 . S
H343 N339 0.985 . S
H344 N338 0.984 . S
H345 N338 0.984 . S
H346 N334 0.984 . S
H347 N334 0.985 . S
C348 C349 1.363 . S
C348 C354 1.379 . S
C348 N356 1.356 . S
C349 C348 1.363 . S
C349 C355 1.363 . S
C350 C351 1.363 . S
C350 C355 1.379 . S
C350 N357 1.356 . S
C351 C350 1.363 . S
C351 C354 1.363 . S
N352 C354 1.356 . S
N352 H364 0.984 . S
N352 H365 0.985 . S
N353 C355 1.356 . S
N353 H358 0.984 . S
N353 H359 0.985 . S
C354 C348 1.379 . S
C354 C351 1.363 . S
C354 N352 1.356 . S
C355 C349 1.363 . S
C355 C350 1.379 . S
C355 N353 1.356 . S
N356 C348 1.356 . S
N356 H362 0.984 . S
N356 H363 0.984 . S
N357 C350 1.356 . S
N357 H360 0.984 . S
N357 H361 0.985 . S
H358 N353 0.984 . S
H359 N353 0.985 . S
H360 N357 0.984 . S
H361 N357 0.985 . S
H362 N356 0.984 . S
H363 N356 0.984 . S
H364 N352 0.984 . S
H365 N352 0.985 . S
C366 C367 1.363 . S
C366 C372 1.379 . S
C366 N374 1.356 . S
C367 C366 1.363 . S
C367 C373 1.363 . S
C368 C369 1.363 . S
C368 C373 1.379 . S
C368 N375 1.356 . S
C369 C368 1.363 . S
C369 C372 1.363 . S
N370 C372 1.356 . S
N370 H382 0.984 . S
N370 H383 0.985 . S
N371 C373 1.356 . S
N371 H376 0.984 . S
N371 H377 0.985 . S
C372 C366 1.379 . S
C372 C369 1.363 . S
C372 N370 1.356 . S
C373 C367 1.363 . S
C373 C368 1.379 . S
C373 N371 1.356 . S
N374 C366 1.356 . S
N374 H380 0.984 . S
N374 H381 0.984 . S
N375 C368 1.356 . S
N375 H378 0.984 . S
N375 H379 0.985 . S
H376 N371 0.984 . S
H377 N371 0.985 . S
H378 N375 0.984 . S
H379 N375 0.985 . S
H380 N374 0.984 . S
H381 N374 0.984 . S
H382 N370 0.984 . S
H383 N370 0.985 . S
C384 C385 1.363 . S
C384 C390 1.379 . S
C384 N392 1.356 . S
C385 C384 1.363 . S
C385 C391 1.363 . S
C386 C387 1.363 . S
C386 C391 1.379 . S
C386 N393 1.356 . S
C387 C386 1.363 . S
C387 C390 1.363 . S
N388 C390 1.356 . S
N388 H400 0.984 . S
N388 H401 0.985 . S
N389 C391 1.356 . S
N389 H394 0.984 . S
N389 H395 0.985 . S
C390 C384 1.379 . S
C390 C387 1.363 . S
C390 N388 1.356 . S
C391 C385 1.363 . S
C391 C386 1.379 . S
C391 N389 1.356 . S
N392 C384 1.356 . S
N392 H398 0.984 . S
N392 H399 0.984 . S
N393 C386 1.356 . S
N393 H396 0.984 . S
N393 H397 0.985 . S
H394 N389 0.984 . S
H395 N389 0.985 . S
H396 N393 0.984 . S
H397 N393 0.985 . S
H398 N392 0.984 . S
H399 N392 0.984 . S
H400 N388 0.984 . S
H401 N388 0.985 . S
C402 C403 1.363 . S
C402 C408 1.379 . S
C402 N410 1.356 . S
C403 C402 1.363 . S
C403 C409 1.363 . S
C404 C405 1.363 . S
C404 C409 1.379 1_556 S
C404 N411 1.356 . S
C405 C404 1.363 . S
C405 C408 1.363 1_556 S
N406 C408 1.356 1_556 S
N406 H418 0.984 . S
N406 H419 0.985 . S
N407 C409 1.356 . S
N407 H412 0.984 1_455 S
N407 H413 0.992 . S
C408 C402 1.379 . S
C408 C405 1.363 1_554 S
C408 N406 1.356 1_554 S
C409 C403 1.363 . S
C409 C404 1.379 1_554 S
C409 N407 1.356 . S
N410 C402 1.356 . S
N410 H416 0.984 . S
N410 H417 0.984 . S
N411 C404 1.356 . S
N411 H414 0.984 . S
N411 H415 0.985 . S
H412 N407 0.984 1_655 S
H413 N407 0.992 . S
H414 N411 0.984 . S
H415 N411 0.985 . S
H416 N410 0.984 . S
H417 N410 0.984 . S
H418 N406 0.984 . S
H419 N406 0.985 . S
C420 C421 1.363 1_565 S
C420 C426 1.379 . S
C420 N428 1.356 . S
C421 C420 1.363 1_545 S
C421 C427 1.363 . S
C422 C423 1.363 . S
C422 C427 1.379 . S
C422 N429 1.356 . S
C423 C422 1.363 . S
C423 C426 1.363 1_545 S
N424 C426 1.356 . S
N424 H436 0.984 . S
N424 H437 0.985 . S
N425 C427 1.356 . S
N425 H430 0.984 . S
N425 H431 0.985 . S
C426 C420 1.379 . S
C426 C423 1.363 1_565 S
C426 N424 1.356 . S
C427 C421 1.363 . S
C427 C422 1.379 . S
C427 N425 1.356 . S
N428 C420 1.356 . S
N428 H434 0.984 . S
N428 H435 0.984 . S
N429 C422 1.356 . S
N429 H432 0.984 . S
N429 H433 0.985 . S
H430 N425 0.984 . S
H431 N425 0.985 . S
H432 N429 0.984 . S
H433 N429 0.985 . S
H434 N428 0.984 . S
H435 N428 0.984 . S
H436 N424 0.984 . S
H437 N424 0.985 . S
C438 C439 1.363 . S
C438 C444 1.379 . S
C438 N446 1.356 . S
C439 C438 1.363 . S
C439 C445 1.363 . S
C440 C441 1.363 . S
C440 C445 1.379 . S
C440 N447 1.356 . S
C441 C440 1.363 . S
C441 C444 1.363 . S
N442 C444 1.356 . S
N442 H454 0.984 . S
N442 H455 0.985 . S
N443 C445 1.356 . S
N443 H448 0.984 . S
N443 H449 0.985 . S
C444 C438 1.379 . S
C444 C441 1.363 . S
C444 N442 1.356 . S
C445 C439 1.363 . S
C445 C440 1.379 . S
C445 N443 1.356 . S
N446 C438 1.356 . S
N446 H452 0.984 . S
N446 H453 0.984 . S
N447 C440 1.356 . S
N447 H450 0.984 . S
N447 H451 0.985 . S
H448 N443 0.984 . S
H449 N443 0.985 . S
H450 N447 0.984 . S
H451 N447 0.985 . S
H452 N446 0.984 . S
H453 N446 0.984 . S
H454 N442 0.984 . S
H455 N442 0.985 . S
C456 C457 1.363 1_565 S
C456 C462 1.379 . S
C456 N464 1.356 . S
C457 C456 1.363 1_545 S
C457 C463 1.363 . S
C458 C459 1.363 . S
C458 C463 1.379 . S
C458 N465 1.356 . S
C459 C458 1.363 . S
C459 C462 1.363 1_545 S
N460 C462 1.356 . S
N460 H472 0.984 . S
N460 H473 0.985 . S
N461 C463 1.356 . S
N461 H466 0.984 . S
N461 H467 0.985 . S
C462 C456 1.379 . S
C462 C459 1.363 1_565 S
C462 N460 1.356 . S
C463 C457 1.363 . S
C463 C458 1.379 . S
C463 N461 1.356 . S
N464 C456 1.356 . S
N464 H470 0.984 . S
N464 H471 0.984 . S
N465 C458 1.356 . S
N465 H468 0.984 . S
N465 H469 0.985 . S
H466 N461 0.984 . S
H467 N461 0.985 . S
H468 N465 0.984 . S
H469 N465 0.985 . S
H470 N464 0.984 . S
H471 N464 0.984 . S
H472 N460 0.984 . S
H473 N460 0.985 . S
C474 C475 1.363 . S
C474 C480 1.379 1_556 S
C474 N482 1.356 . S
C475 C474 1.363 . S
C475 C481 1.363 . S
C476 C477 1.363 1_556 S
C476 C481 1.379 . S
C476 N483 1.356 1_556 S
C477 C476 1.363 1_554 S
C477 C480 1.363 . S
N478 C480 1.356 . S
N478 H490 0.984 . S
N478 H491 0.985 . S
N479 C481 1.356 . S
N479 H484 0.984 . S
N479 H485 0.985 . S
C480 C474 1.379 1_554 S
C480 C477 1.363 . S
C480 N478 1.356 . S
C481 C475 1.363 . S
C481 C476 1.379 . S
C481 N479 1.356 . S
N482 C474 1.356 . S
N482 H488 0.984 . S
N482 H489 0.984 . S
N483 C476 1.356 1_554 S
N483 H486 0.984 . S
N483 H487 0.985 . S
H484 N479 0.984 . S
H485 N479 0.985 . S
H486 N483 0.984 . S
H487 N483 0.985 . S
H488 N482 0.984 . S
H489 N482 0.984 . S
H490 N478 0.984 . S
H491 N478 0.985 . S
C492 C493 1.363 . S
C492 C498 1.379 . S
C492 N500 1.356 . S
C493 C492 1.363 . S
C493 C499 1.363 1_455 S
C494 C495 1.363 1_655 S
C494 C499 1.379 . S
C494 N501 1.356 . S
C495 C494 1.363 1_455 S
C495 C498 1.363 . S
N496 C498 1.356 . S
N496 H508 0.984 . S
N496 H509 0.985 . S
N497 C499 1.356 . S
N497 H502 0.984 . S
N497 H503 0.985 . S
C498 C492 1.379 . S
C498 C495 1.363 . S
C498 N496 1.356 . S
C499 C493 1.363 1_655 S
C499 C494 1.379 . S
C499 N497 1.356 . S
N500 C492 1.356 . S
N500 H506 0.984 . S
N500 H507 0.984 . S
N501 C494 1.356 . S
N501 H504 0.984 . S
N501 H505 0.985 . S
H502 N497 0.984 . S
H503 N497 0.985 . S
H504 N501 0.984 . S
H505 N501 0.985 . S
H506 N500 0.984 . S
H507 N500 0.984 . S
H508 N496 0.984 . S
H509 N496 0.985 . S
C187 C12 3.070 . S
C189 C185 3.001 . S
C205 C52 3.073 . S
C207 C163 3.011 . S
C223 C111 3.088 . S
C225 C174 3.012 . S
C241 C31 3.073 . S
C243 C179 3.016 . S
C261 C157 3.011 . S
C259 C71 3.073 . S
C279 C168 2.990 . S
C277 C92 3.044 . S
C295 C48 0.861 . S
C297 C141 0.910 . S
C313 C109 0.714 . S
C315 C146 0.668 . S
C331 C29 0.652 . S
C333 C124 0.540 . S
C351 C135 0.699 . S
C349 C69 0.719 . S
C369 C152 0.549 . S
C367 C88 0.610 . S
C385 C8 0.674 . S
C387 C130 0.629 . S
C405 C147 1.108 . S
C403 C17 1.088 . S
C421 C57 1.077 . S
C423 C125 1.100 . S
C439 C97 1.145 . S
C441 C136 1.145 . S
C459 C169 1.762 . S
C457 C42 1.729 . S
C477 C180 1.786 . S
C475 C82 1.748 . S
C493 C2 1.764 . S
C495 C158 1.787 . S
