# Generated by pormake.
# Topology pyr, (3,6)-cn, num edge types: 1
# Building blocks:
#     Node 0, Type 0, BuildingBlock: CUQRIR_clean_linker_1, # of connection points: 3
#     Node 1, Type 0, BuildingBlock: CUQRIR_clean_linker_1, # of connection points: 3
#     Node 2, Type 0, BuildingBlock: CUQRIR_clean_linker_1, # of connection points: 3
#     Node 3, Type 0, BuildingBlock: CUQRIR_clean_linker_1, # of connection points: 3
#     Node 4, Type 0, BuildingBlock: CUQRIR_clean_linker_1, # of connection points: 3
#     Node 5, Type 0, BuildingBlock: CUQRIR_clean_linker_1, # of connection points: 3
#     Node 6, Type 0, BuildingBlock: CUQRIR_clean_linker_1, # of connection points: 3
#     Node 7, Type 0, BuildingBlock: CUQRIR_clean_linker_1, # of connection points: 3
#     Node 8, Type 1, BuildingBlock: LEVNOQ01_clean_sbu_1, # of connection points: 6
#     Node 9, Type 1, BuildingBlock: LEVNOQ01_clean_sbu_1, # of connection points: 6
#     Node 10, Type 1, BuildingBlock: LEVNOQ01_clean_sbu_1, # of connection points: 6
#     Node 11, Type 1, BuildingBlock: LEVNOQ01_clean_sbu_1, # of connection points: 6
#     Edge 12, Type (0, 1), BuildingBlock: ZUJKAS_clean_linker_0, # of connection points: 2
#     Edge 13, Type (0, 1), BuildingBlock: ZUJKAS_clean_linker_0, # of connection points: 2
#     Edge 14, Type (0, 1), BuildingBlock: ZUJKAS_clean_linker_0, # of connection points: 2
#     Edge 15, Type (0, 1), BuildingBlock: ZUJKAS_clean_linker_0, # of connection points: 2
#     Edge 16, Type (0, 1), BuildingBlock: ZUJKAS_clean_linker_0, # of connection points: 2
#     Edge 17, Type (0, 1), BuildingBlock: ZUJKAS_clean_linker_0, # of connection points: 2
#     Edge 18, Type (0, 1), BuildingBlock: ZUJKAS_clean_linker_0, # of connection points: 2
#     Edge 19, Type (0, 1), BuildingBlock: ZUJKAS_clean_linker_0, # of connection points: 2
#     Edge 20, Type (0, 1), BuildingBlock: ZUJKAS_clean_linker_0, # of connection points: 2
#     Edge 21, Type (0, 1), BuildingBlock: ZUJKAS_clean_linker_0, # of connection points: 2
#     Edge 22, Type (0, 1), BuildingBlock: ZUJKAS_clean_linker_0, # of connection points: 2
#     Edge 23, Type (0, 1), BuildingBlock: ZUJKAS_clean_linker_0, # of connection points: 2
#     Edge 24, Type (0, 1), BuildingBlock: ZUJKAS_clean_linker_0, # of connection points: 2
#     Edge 25, Type (0, 1), BuildingBlock: ZUJKAS_clean_linker_0, # of connection points: 2
#     Edge 26, Type (0, 1), BuildingBlock: ZUJKAS_clean_linker_0, # of connection points: 2
#     Edge 27, Type (0, 1), BuildingBlock: ZUJKAS_clean_linker_0, # of connection points: 2
#     Edge 28, Type (0, 1), BuildingBlock: ZUJKAS_clean_linker_0, # of connection points: 2
#     Edge 29, Type (0, 1), BuildingBlock: ZUJKAS_clean_linker_0, # of connection points: 2
#     Edge 30, Type (0, 1), BuildingBlock: ZUJKAS_clean_linker_0, # of connection points: 2
#     Edge 31, Type (0, 1), BuildingBlock: ZUJKAS_clean_linker_0, # of connection points: 2
#     Edge 32, Type (0, 1), BuildingBlock: ZUJKAS_clean_linker_0, # of connection points: 2
#     Edge 33, Type (0, 1), BuildingBlock: ZUJKAS_clean_linker_0, # of connection points: 2
#     Edge 34, Type (0, 1), BuildingBlock: ZUJKAS_clean_linker_0, # of connection points: 2
#     Edge 35, Type (0, 1), BuildingBlock: ZUJKAS_clean_linker_0, # of connection points: 2
# Relax obj value: 0.101
# Max RMSD: 0.219
# Mean RMSD: 0.159
data_MOF--net-pry--node1-LEVNOQ01_clean_sbu_1--node2-CUQRIR_clean_linker_1--edge1-ZUJKAS_clean_linker_0
_symmetry_space_group_name_H-M    P1
_symmetry_Int_Tables_number       1
_symmetry_cell_setting            triclinic
loop_
_symmetry_equiv_pos_as_xyz
'x, y, z'
_cell_length_a     45.411129
_cell_length_b     43.676625
_cell_length_c     42.749729
_cell_angle_alpha  90.338317
_cell_angle_beta   93.369297
_cell_angle_gamma 97.371635
loop_
_atom_site_label
_atom_site_type_symbol
_atom_site_fract_x
_atom_site_fract_y
_atom_site_fract_z
_atom_type_partial_charge
C0 C 0.16412 0.20298 0.16797 0.0
N1 N 0.18147 0.18053 0.17434 0.0
N2 N 0.17161 0.21763 0.14121 0.0
C3 C 0.13977 0.21059 0.18792 0.0
C4 C 0.19433 0.20328 0.13155 0.0
N5 N 0.20039 0.18068 0.15173 0.0
C6 C 0.21153 0.2122 0.10329 0.0
H7 H 0.12248 0.22101 0.17371 0.0
H8 H 0.14952 0.22746 0.2064 0.0
H9 H 0.12932 0.18964 0.19954 0.0
H10 H 0.23184 0.22801 0.11085 0.0
H11 H 0.19837 0.22427 0.08581 0.0
H12 H 0.21856 0.19147 0.09222 0.0
C13 C 0.37604 0.87519 0.62167 0.0
N14 N 0.3693 0.89499 0.64377 0.0
N15 N 0.40003 0.86161 0.63141 0.0
C16 C 0.3586 0.86844 0.59084 0.0
C17 C 0.40763 0.87382 0.66043 0.0
N18 N 0.38883 0.89411 0.66802 0.0
C19 C 0.43214 0.86455 0.6821 0.0
H20 H 0.34012 0.84972 0.5941 0.0
H21 H 0.37287 0.86078 0.5729 0.0
H22 H 0.34882 0.88913 0.58239 0.0
H23 H 0.44966 0.85572 0.66893 0.0
H24 H 0.42263 0.8459 0.69747 0.0
H25 H 0.44221 0.88437 0.69718 0.0
C26 C 0.65717 0.3569 0.82613 0.0
N27 N 0.66954 0.35024 0.85442 0.0
N28 N 0.66599 0.38653 0.81867 0.0
C29 C 0.63589 0.33477 0.80597 0.0
C30 C 0.68392 0.39786 0.84355 0.0
N31 N 0.68597 0.37582 0.86546 0.0
C32 C 0.70161 0.42944 0.84514 0.0
H33 H 0.64875 0.32165 0.79055 0.0
H34 H 0.62085 0.34737 0.79094 0.0
H35 H 0.6224 0.31812 0.82062 0.0
H36 H 0.68924 0.44655 0.83283 0.0
H37 H 0.72265 0.42855 0.83343 0.0
H38 H 0.70715 0.43708 0.86984 0.0
C39 C 0.86443 0.62715 0.37773 0.0
N40 N 0.89133 0.64235 0.37176 0.0
N41 N 0.85976 0.62872 0.4086 0.0
C42 C 0.84278 0.61023 0.35357 0.0
C43 C 0.88492 0.64521 0.42132 0.0
N44 N 0.90438 0.65315 0.39896 0.0
C45 C 0.889 0.65692 0.45471 0.0
H46 H 0.82885 0.62672 0.34246 0.0
H47 H 0.82795 0.59168 0.36453 0.0
H48 H 0.85476 0.60003 0.33502 0.0
H49 H 0.86792 0.65368 0.46681 0.0
H50 H 0.89794 0.6818 0.45543 0.0
H51 H 0.90546 0.64424 0.46762 0.0
C52 C 0.84227 0.88011 0.89497 0.0
N53 N 0.86322 0.87258 0.87599 0.0
N54 N 0.83117 0.90592 0.88479 0.0
C55 C 0.83192 0.86138 0.92263 0.0
C56 C 0.84618 0.91378 0.85895 0.0
N57 N 0.8658 0.8937 0.85372 0.0
C58 C 0.84124 0.94073 0.83845 0.0
H59 H 0.81747 0.84026 0.91398 0.0
H60 H 0.81902 0.87417 0.93821 0.0
H61 H 0.85129 0.85402 0.93627 0.0
H62 H 0.83219 0.95893 0.85177 0.0
H63 H 0.82503 0.93258 0.8188 0.0
H64 H 0.86224 0.95072 0.82834 0.0
C65 C 0.69179 0.18582 0.4377 0.0
N66 N 0.69905 0.16383 0.41804 0.0
N67 N 0.66468 0.19381 0.42894 0.0
C68 C 0.71162 0.2004 0.46462 0.0
C69 C 0.65568 0.17585 0.40342 0.0
N70 N 0.67635 0.15741 0.39697 0.0
C71 C 0.62714 0.17714 0.38403 0.0
H72 H 0.69853 0.20917 0.48299 0.0
H73 H 0.72649 0.22022 0.45582 0.0
H74 H 0.7256 0.18363 0.47514 0.0
H75 H 0.63154 0.19338 0.36448 0.0
H76 H 0.61003 0.18543 0.39829 0.0
H77 H 0.61853 0.15409 0.37379 0.0
C78 C 0.34141 0.67042 0.17258 0.0
N79 N 0.35667 0.69207 0.19221 0.0
N80 N 0.3376 0.68195 0.14347 0.0
C81 C 0.33164 0.63752 0.18132 0.0
C82 C 0.35123 0.71138 0.14612 0.0
N83 N 0.36316 0.71733 0.17563 0.0
C84 C 0.35066 0.735 0.12065 0.0
H85 H 0.32881 0.62214 0.16031 0.0
H86 H 0.31005 0.63622 0.19242 0.0
H87 H 0.34811 0.62927 0.19843 0.0
H88 H 0.32905 0.73163 0.10677 0.0
H89 H 0.36848 0.73207 0.10463 0.0
H90 H 0.35451 0.7589 0.1303 0.0
C91 C 0.11615 0.39258 0.647 0.0
N92 N 0.13027 0.38694 0.62091 0.0
N93 N 0.13355 0.41326 0.66605 0.0
C94 C 0.08695 0.37526 0.65559 0.0
C95 C 0.15879 0.41981 0.65079 0.0
N96 N 0.15694 0.4036 0.62351 0.0
C97 C 0.18472 0.44296 0.66205 0.0
H98 H 0.06856 0.38669 0.6446 0.0
H99 H 0.08494 0.3751 0.68132 0.0
H100 H 0.08441 0.35107 0.64678 0.0
H101 H 0.20092 0.43098 0.67619 0.0
H102 H 0.1773 0.46099 0.67704 0.0
H103 H 0.19609 0.45406 0.64197 0.0
O104 O 0.03511 0.02668 0.59596 0.0
Mg105 Mg 0.06348 0.05137 0.56555 0.0
O106 O 0.01205 0.9972 0.55759 0.0
Mg107 Mg 0.03335 0.01542 0.51004 0.0
O108 O 0.04388 0.06731 0.52582 0.0
O109 O 0.06436 0.09761 0.56615 0.0
O110 O 0.05574 0.03396 0.46327 0.0
O111 O 0.98599 0.03129 0.49574 0.0
Mg112 Mg 0.00436 0.98423 0.45603 0.0
O113 O 0.02275 0.96268 0.49376 0.0
O114 O 0.03297 0.00581 0.4241 0.0
O115 O 0.96311 0.9992 0.45975 0.0
O116 O 0.99974 0.9385 0.45048 0.0
C117 C 0.10412 0.01201 0.54181 0.0
C118 C 0.0158 0.00448 0.58679 0.0
C119 C 0.0513 0.09461 0.53847 0.0
C120 C 0.05292 0.02701 0.43402 0.0
C121 C 0.96285 0.02182 0.47812 0.0
C122 C 0.01351 0.93744 0.47761 0.0
O123 O 0.104 0.03587 0.5586 0.0
O124 O 0.08075 1.00059 0.5254 0.0
O125 O 0.47028 0.09464 0.05108 0.0
Mg126 Mg 0.51646 0.10109 0.04926 0.0
O127 O 0.46941 0.04391 0.05331 0.0
Mg128 Mg 0.51657 0.03082 0.03809 0.0
O129 O 0.53166 0.07691 0.01388 0.0
O130 O 0.5336 0.12833 0.01458 0.0
O131 O 0.56361 0.01851 0.02263 0.0
O132 O 0.49202 0.01452 0.98881 0.0
Mg133 Mg 0.51757 0.96318 0.02723 0.0
O134 O 0.50281 0.98493 0.06459 0.0
O135 O 0.56358 0.96805 0.02498 0.0
O136 O 0.49126 0.96394 0.98543 0.0
O137 O 0.50185 0.93354 0.05999 0.0
C138 C 0.54984 0.0725 0.10149 0.0
C139 C 0.45626 0.06815 0.05498 0.0
C140 C 0.53951 0.10343 1.00126 0.0
C141 C 0.57718 0.99465 0.02086 0.0
C142 C 0.48445 0.9889 0.97392 0.0
C143 C 0.49659 0.95733 0.07577 0.0
O144 O 0.54321 0.09798 0.09094 0.0
O145 O 0.54138 0.04721 0.08641 0.0
O146 O 0.47021 0.57543 0.54833 0.0
Mg147 Mg 0.47771 0.53201 0.56535 0.0
O148 O 0.48488 0.56855 0.50035 0.0
Mg149 Mg 0.49688 0.51762 0.49729 0.0
O150 O 0.51535 0.51889 0.54853 0.0
O151 O 0.51094 0.52852 0.59922 0.0
O152 O 0.50979 0.46689 0.49413 0.0
O153 O 0.54445 0.53701 0.48419 0.0
Mg154 Mg 0.50758 0.49382 0.42539 0.0
O155 O 0.47964 0.51778 0.4471 0.0
O156 O 0.50346 0.44935 0.44489 0.0
O157 O 0.54985 0.52077 0.43547 0.0
O158 O 0.47389 0.5094 0.39618 0.0
C159 C 0.43327 0.4874 0.53119 0.0
C160 C 0.47499 0.58522 0.52103 0.0
C161 C 0.52623 0.51939 0.57727 0.0
C162 C 0.50905 0.445 0.47385 0.0
C163 C 0.56008 0.53559 0.46039 0.0
C164 C 0.46573 0.52235 0.42081 0.0
O165 O 0.4424 0.49618 0.55875 0.0
O166 O 0.44857 0.49545 0.50777 0.0
O167 O 0.05522 0.5124 0.07463 0.0
Mg168 Mg 0.04278 0.55687 0.06952 0.0
O169 O 0.02861 0.49712 0.03141 0.0
Mg170 Mg 0.01058 0.54284 0.01235 0.0
O171 O 0.99861 0.56162 0.06195 0.0
O172 O 0.02517 0.57045 0.10817 0.0
O173 O 0.99317 0.59125 0.99574 0.0
O174 O 0.96266 0.51569 0.01319 0.0
Mg175 Mg 0.98895 0.54723 0.95697 0.0
O176 O 0.02204 0.52011 0.96412 0.0
O177 O 1.00291 0.5929 0.94638 0.0
O178 O 0.945 0.535 0.97 0.0
O179 O 0.9932 0.52061 0.91954 0.0
C180 C 0.0773 0.58827 0.02486 0.0
C181 C 0.04555 0.49121 0.05499 0.0
C182 C 1.00064 0.57028 0.09138 0.0
C183 C 0.99651 0.60666 0.97048 0.0
C184 C 0.94065 0.5191 0.99426 0.0
C185 C 0.01545 0.51131 0.9351 0.0
O186 O 0.07324 0.59192 0.05346 0.0
O187 O 0.05897 0.56944 0.00818 0.0
H188 H 0.20315 0.19709 0.23254 0.0
H189 H 0.18855 0.17077 0.28099 0.0
H190 H 0.13941 0.09598 0.22598 0.0
H191 H 0.1538 0.12272 0.17773 0.0
H192 H 0.10548 0.12441 0.26738 0.0
H193 H 0.20849 0.0941 0.32974 0.0
H194 H 0.21003 0.13318 0.31632 0.0
H195 H 0.20625 0.10197 0.28827 0.0
C196 C 0.19036 0.17437 0.23104 0.0
C197 C 0.18019 0.16141 0.20164 0.0
C198 C 0.18193 0.15939 0.25864 0.0
C199 C 0.16309 0.13121 0.25719 0.0
C200 C 0.15419 0.11754 0.2277 0.0
H201 H 0.05721 0.01016 0.37336 0.0
H202 H 0.0857 0.03749 0.33347 0.0
C203 C 0.16266 0.13254 0.20017 0.0
C204 C 0.14941 0.1181 0.28582 0.0
H205 H 0.16427 0.08648 0.35719 0.0
C206 C 0.11839 0.11611 0.28698 0.0
C207 C 0.16627 0.10781 0.31168 0.0
C208 C 0.19959 0.1091 0.31154 0.0
C209 C 0.10373 0.1037 0.31293 0.0
C210 C 0.12041 0.0924 0.33834 0.0
C211 C 0.15154 0.09518 0.33772 0.0
C212 C 0.10533 0.07513 0.36406 0.0
C213 C 0.07037 0.10262 0.31287 0.0
C214 C 0.10763 0.08669 0.39502 0.0
C215 C 0.09121 0.07092 0.41829 0.0
C216 C 0.07234 0.04336 0.41084 0.0
C217 C 0.07113 0.03149 0.38001 0.0
C218 C 0.08745 0.0471 0.35703 0.0
H219 H 0.06204 0.11959 0.29641 0.0
H220 H 0.05974 0.07925 0.30529 0.0
H221 H 0.06331 0.10731 0.33668 0.0
H222 H 0.12144 0.10827 0.40095 0.0
H223 H 0.09273 0.08065 0.44178 0.0
H224 H 0.38008 0.86943 0.72466 0.0
H225 H 0.38906 0.89636 0.77547 0.0
H226 H 0.40853 0.983 0.72824 0.0
H227 H 0.39994 0.95563 0.67731 0.0
H228 H 0.45213 0.9733 0.77272 0.0
H229 H 0.34304 0.95185 0.82464 0.0
H230 H 0.35442 0.91673 0.8105 0.0
H231 H 0.34729 0.94661 0.78327 0.0
C232 C 0.3856 0.8943 0.72529 0.0
C233 C 0.38914 0.9106 0.69733 0.0
C234 C 0.39058 0.90973 0.75424 0.0
C235 C 0.39908 0.94184 0.75577 0.0
C236 C 0.40172 0.9583 0.72769 0.0
H237 H 0.47442 0.03668 0.93386 0.0
H238 H 0.4515 0.03193 0.88001 0.0
C239 C 0.39662 0.94278 0.69867 0.0
C240 C 0.40804 0.95731 0.78664 0.0
H241 H 0.38602 0.96229 0.86136 0.0
C242 C 0.43746 0.97165 0.79193 0.0
C243 C 0.38889 0.95531 0.81171 0.0
C244 C 0.35656 0.94208 0.80716 0.0
C245 C 0.44882 0.98188 0.82207 0.0
C246 C 0.4302 0.97789 0.8475 0.0
C247 C 0.4003 0.9653 0.84185 0.0
C248 C 0.4424 0.98206 0.8805 0.0
C249 C 0.48118 0.9949 0.82697 0.0
C250 C 0.44426 0.95578 0.89872 0.0
C251 C 0.45718 0.95839 0.92916 0.0
C252 C 0.46855 0.98744 0.94238 0.0
C253 C 0.46589 0.01399 0.92444 0.0
C254 C 0.45296 0.0113 0.89365 0.0
H255 H 0.49314 0.99472 0.80505 0.0
H256 H 0.48302 0.01906 0.83577 0.0
H257 H 0.49238 0.98137 0.84493 0.0
H258 H 0.43629 0.93301 0.88908 0.0
H259 H 0.45865 0.93738 0.94217 0.0
H260 H 0.68369 0.36972 0.76306 0.0
H261 H 0.67051 0.39088 0.71158 0.0
H262 H 0.6226 0.45608 0.75686 0.0
H263 H 0.63573 0.43473 0.80821 0.0
H264 H 0.59077 0.41333 0.70632 0.0
H265 H 0.69689 0.48011 0.67256 0.0
H266 H 0.69742 0.4424 0.68939 0.0
H267 H 0.68899 0.47369 0.71312 0.0
C268 C 0.67075 0.3889 0.76179 0.0
C269 C 0.66075 0.40091 0.78918 0.0
C270 C 0.66339 0.40099 0.73261 0.0
C271 C 0.64589 0.42518 0.73061 0.0
C272 C 0.6364 0.43759 0.75809 0.0
H273 H 0.57037 0.54718 0.61665 0.0
H274 H 0.60708 0.52083 0.64618 0.0
C275 C 0.64388 0.42556 0.78725 0.0
C276 C 0.63493 0.43567 0.69987 0.0
H277 H 0.65435 0.48221 0.63858 0.0
C278 C 0.60469 0.42796 0.69116 0.0
C279 C 0.65337 0.4546 0.68035 0.0
C280 C 0.68601 0.46341 0.68915 0.0
C281 C 0.59192 0.43992 0.66405 0.0
C282 C 0.61009 0.45981 0.64494 0.0
C283 C 0.64067 0.46656 0.65302 0.0
C284 C 0.59643 0.4778 0.62017 0.0
C285 C 0.55871 0.43276 0.65722 0.0
C286 C 0.5799 0.46298 0.5943 0.0
C287 C 0.55889 0.47814 0.57739 0.0
C288 C 0.55452 0.50811 0.58611 0.0
C289 C 0.57354 0.52404 0.60951 0.0
C290 C 0.59453 0.50902 0.62631 0.0
H291 H 0.54745 0.42028 0.67668 0.0
H292 H 0.54866 0.45436 0.65299 0.0
H293 H 0.55419 0.41809 0.63576 0.0
H294 H 0.58112 0.43887 0.58921 0.0
H295 H 0.54378 0.46536 0.56007 0.0
H296 H 0.9419 0.62373 0.35352 0.0
H297 H 0.95623 0.61998 0.29917 0.0
H298 H 0.88095 0.66505 0.26734 0.0
H299 H 0.86682 0.66866 0.32166 0.0
H300 H 0.88236 0.609 0.23762 0.0
H301 H 0.99176 0.68121 0.23523 0.0
H302 H 0.98996 0.65423 0.26679 0.0
H303 H 0.96665 0.68459 0.26595 0.0
C304 C 0.92913 0.63367 0.3349 0.0
C305 C 0.90328 0.64629 0.34142 0.0
C306 C 0.93721 0.63153 0.30394 0.0
C307 C 0.91965 0.64229 0.27919 0.0
C308 C 0.89477 0.65657 0.28603 0.0
H309 H 0.98299 0.62711 0.09151 0.0
H310 H 0.95622 0.6478 0.13344 0.0
C311 C 0.88676 0.65868 0.31693 0.0
C312 C 0.92542 0.63577 0.24616 0.0
H313 H 0.97938 0.64396 0.19353 0.0
C314 C 0.9034 0.61705 0.22778 0.0
C315 C 0.95268 0.64657 0.23319 0.0
C316 C 0.97651 0.66802 0.2512 0.0
C317 C 0.90852 0.60757 0.19733 0.0
C318 C 0.93648 0.61681 0.1851 0.0
C319 C 0.95792 0.6368 0.20291 0.0
C320 C 0.94532 0.60365 0.1555 0.0
C321 C 0.88412 0.58735 0.17877 0.0
C322 C 0.9468 0.57181 0.15315 0.0
C323 C 0.9618 0.56003 0.1291 0.0
C324 C 0.97542 0.57988 0.10702 0.0
C325 C 0.97186 0.61129 0.10779 0.0
C326 C 0.95692 0.62314 0.13193 0.0
H327 H 0.86183 0.59097 0.18639 0.0
H328 H 0.88488 0.59188 0.15328 0.0
H329 H 0.88691 0.56277 0.1827 0.0
H330 H 0.93867 0.55641 0.17138 0.0
H331 H 0.96512 0.5359 0.12947 0.0
H332 H 0.1947 0.11914 0.14125 0.0
H333 H 0.23473 0.08839 0.12992 0.0
H334 H 0.29908 0.16967 0.14402 0.0
H335 H 0.25913 0.19992 0.15595 0.0
H336 H 0.27055 0.09719 0.08134 0.0
H337 H 0.34098 0.1065 0.19167 0.0
H338 H 0.30335 0.11594 0.1895 0.0
H339 H 0.33354 0.14366 0.17808 0.0
C340 C 0.21754 0.13001 0.14292 0.0
C341 C 0.22402 0.16169 0.14988 0.0
C342 C 0.24037 0.11258 0.13618 0.0
C343 C 0.27011 0.12652 0.13651 0.0
C344 C 0.27655 0.15809 0.14434 0.0
H345 H 0.4162 0.10369 0.0312 0.0
H346 H 0.36834 0.1108 0.05107 0.0
C347 C 0.25375 0.17543 0.15101 0.0
C348 C 0.29405 0.10909 0.12588 0.0
H349 H 0.36499 0.09419 0.14504 0.0
C350 C 0.29096 0.09605 0.09554 0.0
C351 C 0.32063 0.10706 0.14441 0.0
C352 C 0.32473 0.11876 0.17785 0.0
C353 C 0.3143 0.08286 0.08262 0.0
C354 C 0.34168 0.08298 0.1003 0.0
C355 C 0.34413 0.09424 0.13132 0.0
C356 C 0.36896 0.0751 0.08588 0.0
C357 C 0.30961 0.06952 0.04982 0.0
C358 C 0.38539 0.05235 0.09854 0.0
C359 C 0.41296 0.04801 0.08689 0.0
C360 C 0.42472 0.06683 0.06286 0.0
C361 C 0.40765 0.08869 0.04958 0.0
C362 C 0.38017 0.09273 0.06089 0.0
H363 H 0.2857 0.06159 0.04379 0.0
H364 H 0.31716 0.08764 0.03292 0.0
H365 H 0.32247 0.04981 0.04692 0.0
H366 H 0.37731 0.03862 0.11802 0.0
H367 H 0.42583 0.03138 0.09794 0.0
H368 H 0.31482 0.86735 0.65393 0.0
H369 H 0.26801 0.88599 0.63603 0.0
H370 H 0.31697 0.97295 0.6115 0.0
H371 H 0.36378 0.95363 0.62855 0.0
H372 H 0.2377 0.93453 0.64807 0.0
H373 H 0.27738 0.94169 0.52778 0.0
H374 H 0.29672 0.92386 0.55941 0.0
H375 H 0.30137 0.96521 0.55577 0.0
C376 C 0.31526 0.89082 0.64578 0.0
C377 C 0.34256 0.90931 0.64288 0.0
C378 C 0.28867 0.90136 0.6353 0.0
C379 C 0.28908 0.93055 0.62165 0.0
C380 C 0.31622 0.95006 0.62125 0.0
H381 H 0.16083 0.03985 0.547 0.0
H382 H 0.20519 0.01633 0.56314 0.0
C383 C 0.34284 0.93935 0.63152 0.0
C384 C 0.2615 0.93957 0.60593 0.0
H385 H 0.23205 0.96194 0.53554 0.0
C386 C 0.23638 0.94028 0.62342 0.0
C387 C 0.25965 0.94655 0.57358 0.0
C388 C 0.2851 0.944 0.55293 0.0
C389 C 0.20987 0.94899 0.60973 0.0
C390 C 0.20844 0.95699 0.57772 0.0
C391 C 0.23328 0.95568 0.56006 0.0
C392 C 0.18234 0.96976 0.56321 0.0
C393 C 0.18381 0.9506 0.62972 0.0
C394 C 0.15508 0.95109 0.55652 0.0
C395 C 0.12965 0.96448 0.54675 0.0
C396 C 0.13127 0.99668 0.54405 0.0
C397 C 0.159 0.01496 0.54895 0.0
C398 C 0.18432 1.00159 0.55823 0.0
H399 H 0.18943 0.9464 0.65485 0.0
H400 H 0.17595 0.97359 0.62758 0.0
H401 H 0.16513 0.933 0.62136 0.0
H402 H 0.15325 0.9264 0.56009 0.0
H403 H 0.10848 0.94995 0.54341 0.0
H404 H 0.67591 0.38273 0.92658 0.0
H405 H 0.71401 0.39617 0.96941 0.0
H406 H 0.78249 0.39142 0.90423 0.0
H407 H 0.74437 0.37568 0.86247 0.0
H408 H 0.80097 0.37319 0.95937 0.0
H409 H 0.75241 0.48272 0.97545 0.0
H410 H 0.72933 0.44784 0.98452 0.0
H411 H 0.73858 0.45543 0.94469 0.0
C412 C 0.69914 0.38324 0.922 0.0
C413 C 0.70749 0.37781 0.8916 0.0
C414 C 0.7209 0.39152 0.94624 0.0
C415 C 0.7512 0.39565 0.93995 0.0
C416 C 0.75935 0.38841 0.90982 0.0
H417 H 0.89007 0.52706 0.96024 0.0
H418 H 0.84259 0.49481 0.95892 0.0
C419 C 0.73768 0.37945 0.88594 0.0
C420 C 0.77462 0.41047 0.96302 0.0
H421 H 0.79984 0.48029 0.9977 0.0
C422 C 0.80059 0.39642 0.96832 0.0
C423 C 0.77395 0.4407 0.97501 0.0
C424 C 0.74722 0.45773 0.96955 0.0
C425 C 0.82686 0.41286 0.98199 0.0
C426 C 0.82677 0.44386 0.99183 0.0
C427 C 0.79985 0.45659 0.98996 0.0
C428 C 0.8548 0.46541 0.99689 0.0
C429 C 0.85503 0.39783 0.98297 0.0
C430 C 0.87745 0.46045 0.01947 0.0
C431 C 0.90523 0.47884 0.01996 0.0
C432 C 0.91051 0.50258 0.99808 0.0
C433 C 0.88701 0.50875 0.97718 0.0
C434 C 0.85963 0.49036 0.97651 0.0
H435 H 0.85186 0.37504 0.97071 0.0
H436 H 0.87303 0.41289 0.97195 0.0
H437 H 0.86247 0.39424 0.0077 0.0
H438 H 0.874 0.44183 0.03598 0.0
H439 H 0.92283 0.4737 0.03654 0.0
H440 H 0.809 0.65133 0.39276 0.0
H441 H 0.76058 0.63708 0.41462 0.0
H442 H 0.79959 0.57533 0.47859 0.0
H443 H 0.84821 0.58947 0.45606 0.0
H444 H 0.74891 0.54804 0.44627 0.0
H445 H 0.72796 0.65912 0.49722 0.0
H446 H 0.73859 0.66357 0.45759 0.0
H447 H 0.76455 0.65179 0.4872 0.0
C448 C 0.80711 0.63488 0.41162 0.0
C449 C 0.83192 0.62127 0.42277 0.0
C450 C 0.77966 0.62705 0.42436 0.0
C451 C 0.77664 0.60564 0.44868 0.0
C452 C 0.80158 0.5922 0.46011 0.0
H453 H 0.59473 0.55819 0.51247 0.0
H454 H 0.6486 0.5748 0.51558 0.0
C455 C 0.82916 0.60014 0.44732 0.0
C456 C 0.74673 0.59531 0.45962 0.0
H457 H 0.68407 0.62286 0.48211 0.0
C458 C 0.73494 0.56424 0.45483 0.0
C459 C 0.72864 0.61635 0.47125 0.0
C460 C 0.74071 0.6495 0.47894 0.0
C461 C 0.70488 0.55421 0.45898 0.0
C462 C 0.68616 0.57591 0.46769 0.0
C463 C 0.69842 0.60641 0.47493 0.0
C464 C 0.6535 0.56794 0.4661 0.0
C465 C 0.69314 0.52067 0.45286 0.0
C466 C 0.63847 0.55978 0.43711 0.0
C467 C 0.60793 0.55047 0.43519 0.0
C468 C 0.59169 0.54926 0.46227 0.0
C469 C 0.60659 0.55887 0.49118 0.0
C470 C 0.63733 0.56823 0.49305 0.0
H471 H 0.71114 0.50574 0.45577 0.0
H472 H 0.6754 0.51262 0.46883 0.0
H473 H 0.68355 0.51781 0.42838 0.0
H474 H 0.65052 0.56013 0.41595 0.0
H475 H 0.59717 0.54357 0.4125 0.0
H476 H 0.17353 0.27394 0.16746 0.0
H477 H 0.15022 0.31782 0.14627 0.0
H478 H 0.11828 0.26385 0.06347 0.0
H479 H 0.14134 0.21981 0.08511 0.0
H480 H 0.16007 0.34952 0.08985 0.0
H481 H 0.04255 0.29519 0.09276 0.0
H482 H 0.07283 0.27968 0.11381 0.0
H483 H 0.06695 0.27393 0.07219 0.0
C484 C 0.16158 0.27164 0.14472 0.0
C485 C 0.15932 0.24378 0.12774 0.0
C486 C 0.14828 0.2966 0.13262 0.0
C487 C 0.13218 0.29406 0.10342 0.0
C488 C 0.13017 0.26624 0.08624 0.0
H489 H 0.03754 0.44037 0.01473 0.0
H490 H 0.05779 0.39102 0.02252 0.0
C491 C 0.14356 0.24126 0.09838 0.0
C492 C 0.11794 0.32083 0.09111 0.0
H493 H 0.05055 0.34604 0.07391 0.0
C494 C 0.13614 0.34864 0.08613 0.0
C495 C 0.08669 0.31968 0.086 0.0
C496 C 0.06598 0.29064 0.09164 0.0
C497 C 0.12399 0.37544 0.07693 0.0
C498 C 0.09272 0.37467 0.07308 0.0
C499 C 0.0745 0.34659 0.07683 0.0
C500 C 0.07879 0.4035 0.06837 0.0
C501 C 0.14478 0.40457 0.07181 0.0
C502 C 0.08313 0.42642 0.09184 0.0
C503 C 0.07165 0.45433 0.08755 0.0
C504 C 0.05532 0.46015 0.05964 0.0
C505 C 0.05003 0.43671 0.03646 0.0
C506 C 0.06162 0.40854 0.04086 0.0
H507 H 0.16735 0.39941 0.06668 0.0
H508 H 0.13608 0.4181 0.05222 0.0
H509 H 0.14692 0.41912 0.0934 0.0
H510 H 0.09576 0.42284 0.11352 0.0
H511 H 0.07598 0.47156 0.10613 0.0
H512 H 0.68405 0.29757 0.83047 0.0
H513 H 0.66741 0.24523 0.8483 0.0
H514 H 0.63191 0.28374 0.92906 0.0
H515 H 0.64679 0.33588 0.90994 0.0
H516 H 0.67436 0.20956 0.89852 0.0
H517 H 0.55857 0.23633 0.88648 0.0
H518 H 0.58936 0.26209 0.87307 0.0
H519 H 0.58081 0.26227 0.91371 0.0
C520 C 0.67315 0.29463 0.85231 0.0
C521 C 0.66655 0.3205 0.86889 0.0
C522 C 0.6637 0.26485 0.86248 0.0
C523 C 0.64769 0.2606 0.88954 0.0
C524 C 0.64355 0.28652 0.90765 0.0
H525 H 0.59876 0.1144 0.00684 0.0
H526 H 0.62833 0.14611 0.9708 0.0
C527 C 0.65256 0.31629 0.89715 0.0
C528 C 0.63327 0.22944 0.89745 0.0
H529 H 0.56639 0.19088 0.91486 0.0
C530 C 0.65069 0.20527 0.90178 0.0
C531 C 0.60219 0.22345 0.90033 0.0
C532 C 0.58162 0.24732 0.89278 0.0
C533 C 0.6381 0.17582 0.91093 0.0
C534 C 0.60748 0.17074 0.9168 0.0
C535 C 0.58989 0.19449 0.91058 0.0
C536 C 0.59374 0.14308 0.9333 0.0
C537 C 0.65783 0.15064 0.91428 0.0
C538 C 0.56478 0.12926 0.92396 0.0
C539 C 0.54753 0.11168 0.94512 0.0
C540 C 0.55936 0.10705 0.97546 0.0
C541 C 0.58947 0.11715 0.98323 0.0
C542 C 0.60646 0.13533 0.96248 0.0
H543 H 0.67483 0.15309 0.89649 0.0
H544 H 0.6699 0.15271 0.93769 0.0
H545 H 0.64492 0.1273 0.91174 0.0
H546 H 0.55445 0.13475 0.90155 0.0
H547 H 0.52416 0.10458 0.93892 0.0
H548 H 0.91119 0.70936 0.37368 0.0
H549 H 0.94742 0.75292 0.39217 0.0
H550 H 0.99098 0.69225 0.45354 0.0
H551 H 0.95399 0.64881 0.43532 0.0
H552 H 0.97662 0.73861 0.48566 0.0
H553 H 0.03193 0.78742 0.38269 0.0
H554 H 0.99248 0.78253 0.37443 0.0
H555 H 0.01136 0.74916 0.38194 0.0
C556 C 0.92934 0.70523 0.39004 0.0
C557 C 0.93014 0.67595 0.40298 0.0
C558 C 0.95007 0.73008 0.40066 0.0
C559 C 0.97222 0.72591 0.42409 0.0
C560 C 0.97423 0.69606 0.43539 0.0
H561 H 0.06275 0.90899 0.47351 0.0
H562 H 0.06159 0.85285 0.46865 0.0
C563 C 0.95331 0.67127 0.42489 0.0
C564 C 0.98994 0.75327 0.43989 0.0
H565 H 0.02603 0.82439 0.4245 0.0
C566 C 0.98815 0.75704 0.47239 0.0
C567 C 0.00562 0.77716 0.42295 0.0
C568 C 0.01073 0.77366 0.38863 0.0
C569 C 0.99924 0.78501 0.48776 0.0
C570 C 0.01182 0.81011 0.47008 0.0
C571 C 0.01604 0.80538 0.43816 0.0
C572 C 0.01635 0.84235 0.48253 0.0
C573 C 0.9964 0.78764 0.52262 0.0
C574 C 0.99203 0.85505 0.49379 0.0
C575 C 0.99293 0.88697 0.49705 0.0
C576 C 0.01805 0.90674 0.48898 0.0
C577 C 0.04344 0.8941 0.48072 0.0
C578 C 0.04262 0.86205 0.47753 0.0
H579 H 0.99867 0.76525 0.53412 0.0
H580 H 0.01339 0.80567 0.5336 0.0
H581 H 0.97397 0.7936 0.52704 0.0
H582 H 0.97123 0.84063 0.49703 0.0
H583 H 0.9728 0.89629 0.50251 0.0
H584 H 0.45492 0.86202 0.61027 0.0
H585 H 0.47306 0.82033 0.58057 0.0
H586 H 0.38841 0.76413 0.58757 0.0
H587 H 0.37061 0.8056 0.61734 0.0
H588 H 0.47645 0.75794 0.59878 0.0
H589 H 0.40141 0.76372 0.49271 0.0
H590 H 0.40853 0.79463 0.52153 0.0
H591 H 0.38228 0.76122 0.52837 0.0
C592 C 0.44049 0.84056 0.60563 0.0
C593 C 0.41152 0.83671 0.61601 0.0
C594 C 0.45069 0.81695 0.58856 0.0
C595 C 0.43185 0.78943 0.58132 0.0
C596 C 0.40307 0.78546 0.59226 0.0
H597 H 0.42273 0.60691 0.52571 0.0
H598 H 0.4156 0.66091 0.53273 0.0
C599 C 0.39299 0.80893 0.6094 0.0
C600 C 0.44228 0.76422 0.5633 0.0
H601 H 0.42369 0.71694 0.49935 0.0
C602 C 0.46544 0.74933 0.57668 0.0
C603 C 0.42789 0.75318 0.53442 0.0
C604 C 0.40383 0.76919 0.51822 0.0
C605 C 0.47316 0.72232 0.5631 0.0
C606 C 0.45769 0.71032 0.53502 0.0
C607 C 0.43564 0.72624 0.52075 0.0
C608 C 0.46076 0.67897 0.52317 0.0
C609 C 0.49636 0.70565 0.58009 0.0
C610 C 0.48801 0.67132 0.51349 0.0
C611 C 0.49201 0.64029 0.50909 0.0
C612 C 0.46877 0.6168 0.51441 0.0
C613 C 0.44086 0.62472 0.52126 0.0
C614 C 0.43682 0.65555 0.52539 0.0
H615 H 0.50305 0.71564 0.6038 0.0
H616 H 0.48791 0.68083 0.58255 0.0
H617 H 0.51647 0.70724 0.56636 0.0
H618 H 0.50665 0.68914 0.51125 0.0
H619 H 0.51383 0.63461 0.50424 0.0
H620 H 0.85166 0.86332 0.79898 0.0
H621 H 0.87606 0.87432 0.74957 0.0
H622 H 0.94363 0.93802 0.79901 0.0
H623 H 0.91901 0.92695 0.84815 0.0
H624 H 0.91146 0.96335 0.74791 0.0
H625 H 0.95482 0.85569 0.71208 0.0
H626 H 0.91713 0.85199 0.72386 0.0
H627 H 0.94728 0.86351 0.7522 0.0
C628 C 0.8724 0.87867 0.79927 0.0
C629 C 0.8839 0.89395 0.82718 0.0
C630 C 0.88626 0.88504 0.77113 0.0
C631 C 0.91181 0.90687 0.77057 0.0
C632 C 0.92408 0.92095 0.79888 0.0
H633 H 0.0249 0.01147 0.64992 0.0
H634 H 0.99708 0.98541 0.69083 0.0
C635 C 0.91025 0.91449 0.82694 0.0
C636 C 0.92367 0.918 0.74033 0.0
H637 H 0.96032 0.89761 0.67723 0.0
C638 C 0.922 0.94889 0.73241 0.0
C639 C 0.93695 0.899 0.7198 0.0
C640 C 0.93942 0.86572 0.72732 0.0
C641 C 0.9339 0.96154 0.70506 0.0
C642 C 0.94845 0.94304 0.68522 0.0
C643 C 0.94914 0.91177 0.69241 0.0
C644 C 0.9659 0.95701 0.65927 0.0
C645 C 0.93116 0.99488 0.69783 0.0
C646 C 0.95824 0.94907 0.6276 0.0
C647 C 0.97438 0.96409 0.60365 0.0
C648 C 0.99844 0.98718 0.61113 0.0
C649 C 0.00632 0.9942 0.64299 0.0
C650 C 0.99039 0.97928 0.66662 0.0
H651 H 0.91224 0.00292 0.70946 0.0
H652 H 0.95182 0.0095 0.70663 0.0
H653 H 0.92808 0.99836 0.6722 0.0
H654 H 0.93949 0.93176 0.62142 0.0
H655 H 0.96782 0.95795 0.57944 0.0
H656 H 0.69221 0.17723 0.34063 0.0
H657 H 0.67683 0.15056 0.29052 0.0
H658 H 0.64182 0.06952 0.34028 0.0
H659 H 0.65629 0.09696 0.39034 0.0
H660 H 0.68453 0.09759 0.25921 0.0
H661 H 0.56792 0.0928 0.29424 0.0
H662 H 0.59883 0.11407 0.31663 0.0
H663 H 0.59167 0.07276 0.3196 0.0
C664 C 0.68222 0.15334 0.34064 0.0
C665 C 0.67569 0.13887 0.36902 0.0
C666 C 0.67327 0.13816 0.31213 0.0
C667 C 0.65756 0.10825 0.31161 0.0
C668 C 0.65335 0.0928 0.34008 0.0
H669 H 0.55492 0.02473 0.14245 0.0
H670 H 0.58319 0.02732 0.19359 0.0
C671 C 0.66202 0.1082 0.36862 0.0
C672 C 0.643 0.095 0.28157 0.0
H673 H 0.57469 0.07544 0.24356 0.0
C674 C 0.66054 0.09229 0.25593 0.0
C675 C 0.61162 0.08829 0.27717 0.0
C676 C 0.59132 0.09234 0.30323 0.0
C677 C 0.64752 0.08403 0.22592 0.0
C678 C 0.61621 0.07833 0.22144 0.0
C679 C 0.59872 0.07955 0.24724 0.0
C680 C 0.60106 0.07541 0.18971 0.0
C681 C 0.6672 0.0824 0.19892 0.0
C682 C 0.60167 0.10158 0.17086 0.0
C683 C 0.5853 0.10033 0.14213 0.0
C684 C 0.56808 0.07276 0.13145 0.0
C685 C 0.56804 0.04626 0.15001 0.0
C686 C 0.58415 0.04769 0.17915 0.0
H687 H 0.69049 0.08016 0.20714 0.0
H688 H 0.65861 0.0626 0.1831 0.0
H689 H 0.66733 0.10386 0.18513 0.0
H690 H 0.61426 0.12328 0.17878 0.0
H691 H 0.586 0.12112 0.12836 0.0
H692 H 0.41232 0.69904 0.21866 0.0
H693 H 0.42753 0.68039 0.27054 0.0
H694 H 0.33538 0.65625 0.28995 0.0
H695 H 0.32031 0.6753 0.23827 0.0
H696 H 0.38041 0.67921 0.34558 0.0
H697 H 0.40633 0.58203 0.27132 0.0
H698 H 0.42284 0.62009 0.26132 0.0
H699 H 0.38322 0.61009 0.25674 0.0
C700 C 0.39546 0.69088 0.2346 0.0
C701 C 0.36527 0.68812 0.22467 0.0
C702 C 0.40408 0.68024 0.26411 0.0
C703 C 0.38253 0.66682 0.2839 0.0
C704 C 0.3523 0.66668 0.27506 0.0
H705 H 0.40957 0.51145 0.3954 0.0
H706 H 0.38295 0.55017 0.36922 0.0
C707 C 0.34372 0.67729 0.24558 0.0
C708 C 0.39123 0.64767 0.3104 0.0
H709 H 0.41619 0.5787 0.32545 0.0
C710 C 0.38827 0.65722 0.34137 0.0
C711 C 0.40092 0.61882 0.30463 0.0
C712 C 0.40337 0.60689 0.27175 0.0
C713 C 0.39524 0.6386 0.36688 0.0
C714 C 0.40534 0.60991 0.36101 0.0
C715 C 0.40813 0.60054 0.32996 0.0
C716 C 0.41434 0.5891 0.3861 0.0
C717 C 0.39141 0.6495 0.39973 0.0
C718 C 0.43944 0.59835 0.40638 0.0
C719 C 0.45421 0.57616 0.42208 0.0
C720 C 0.44429 0.54463 0.41708 0.0
C721 C 0.4174 0.53569 0.39974 0.0
C722 C 0.4023 0.55781 0.38468 0.0
H723 H 0.37599 0.66729 0.39995 0.0
H724 H 0.38285 0.62994 0.41458 0.0
H725 H 0.41332 0.65992 0.41035 0.0
H726 H 0.44943 0.62224 0.4075 0.0
H727 H 0.47526 0.58347 0.4349 0.0
H728 H 0.16723 0.40591 0.71874 0.0
H729 H 0.15705 0.42019 0.77243 0.0
H730 H 0.07718 0.45532 0.73703 0.0
H731 H 0.08763 0.4413 0.68335 0.0
H732 H 0.11663 0.49483 0.78288 0.0
H733 H 0.08694 0.37352 0.82101 0.0
H734 H 0.12147 0.38313 0.80251 0.0
H735 H 0.0869 0.38381 0.78015 0.0
C736 C 0.14774 0.41701 0.72258 0.0
C737 C 0.12816 0.42267 0.69723 0.0
C738 C 0.14185 0.42492 0.75311 0.0
C739 C 0.11628 0.43857 0.7586 0.0
C740 C 0.09702 0.44476 0.73318 0.0
H741 H 0.99765 0.46888 0.88948 0.0
H742 H 0.02887 0.44807 0.85227 0.0
C743 C 0.10287 0.43674 0.7027 0.0
C744 C 0.10904 0.44597 0.79081 0.0
H745 H 0.08016 0.413 0.85641 0.0
C746 C 0.10922 0.47704 0.79929 0.0
C747 C 0.09937 0.42255 0.81196 0.0
C748 C 0.09843 0.38882 0.8036 0.0
C749 C 0.09864 0.48534 0.82791 0.0
C750 C 0.0878 0.46189 0.84854 0.0
C751 C 0.08888 0.43085 0.84066 0.0
C752 C 0.07038 0.46904 0.87517 0.0
C753 C 0.09728 0.51902 0.83497 0.0
C754 C 0.08353 0.48644 0.90127 0.0
C755 C 0.06563 0.49816 0.92287 0.0
C756 C 0.0345 0.49285 0.91821 0.0
C757 C 0.02161 0.47344 0.89345 0.0
C758 C 0.03941 0.4615 0.87223 0.0
H759 H 0.10418 0.5341 0.81516 0.0
H760 H 0.07433 0.5226 0.84038 0.0
H761 H 0.1122 0.52638 0.85589 0.0
H762 H 0.10746 0.49231 0.90395 0.0
H763 H 0.07604 0.51322 0.94171 0.0
H764 H 0.77838 0.91294 0.85557 0.0
H765 H 0.73772 0.9369 0.87714 0.0
H766 H 0.79032 0.95527 0.96419 0.0
H767 H 0.83125 0.93224 0.94202 0.0
H768 H 0.70664 0.91788 0.92563 0.0
H769 H 0.75996 0.03729 0.95085 0.0
H770 H 0.77625 0.01077 0.92658 0.0
H771 H 0.78071 0.00899 0.96862 0.0
C772 C 0.78124 0.92253 0.87913 0.0
C773 C 0.80767 0.92066 0.8973 0.0
C774 C 0.75809 0.93617 0.89147 0.0
C775 C 0.76102 0.94835 0.9222 0.0
C776 C 0.78769 0.94677 0.94022 0.0
H777 H 0.61868 0.95942 0.04196 0.0
H778 H 0.66493 0.95247 0.01812 0.0
C779 C 0.81089 0.93327 0.92777 0.0
C780 C 0.73534 0.96032 0.93614 0.0
H781 H 0.71434 0.02164 0.97569 0.0
C782 C 0.70832 0.94071 0.93624 0.0
C783 C 0.73727 0.99026 0.94972 0.0
C784 C 0.76502 0.01317 0.94868 0.0
C785 C 0.68362 0.94971 0.9504 0.0
C786 C 0.68605 0.97894 0.96551 0.0
C787 C 0.71265 0.9991 0.96447 0.0
C788 C 0.66137 0.98789 0.9835 0.0
C789 C 0.65508 0.92768 0.94918 0.0
C790 C 0.64502 0.01162 0.97331 0.0
C791 C 0.6186 0.01602 0.98734 0.0
C792 C 0.60824 0.99656 0.01153 0.0
C793 C 0.626 0.97459 0.02319 0.0
C794 C 0.65237 0.97048 0.0095 0.0
H795 H 0.65428 0.91035 0.92991 0.0
H796 H 0.6535 0.91506 0.97159 0.0
H797 H 0.6354 0.94028 0.94593 0.0
H798 H 0.65171 0.02546 0.95337 0.0
H799 H 0.60525 0.03299 0.97777 0.0
H800 H 0.70507 0.10357 0.42376 0.0
H801 H 0.75191 0.08141 0.43339 0.0
H802 H 0.80135 0.17198 0.42658 0.0
H803 H 0.75456 0.19393 0.41612 0.0
H804 H 0.81075 0.09439 0.39317 0.0
H805 H 0.81959 0.13078 0.51896 0.0
H806 H 0.78402 0.12308 0.4972 0.0
H807 H 0.80872 0.15718 0.48945 0.0
C808 C 0.72601 0.11848 0.42351 0.0
C809 C 0.7264 0.15034 0.4193 0.0
C810 C 0.75265 0.10594 0.42928 0.0
C811 C 0.77996 0.12519 0.43106 0.0
C812 C 0.78045 0.15685 0.42557 0.0
H813 H 0.9585 0.08274 0.49186 0.0
H814 H 0.9147 0.10978 0.48109 0.0
C815 C 0.75384 0.16932 0.41961 0.0
C816 C 0.80787 0.1123 0.43967 0.0
H817 H 0.85712 0.10345 0.50151 0.0
C818 C 0.82098 0.09639 0.4168 0.0
C819 C 0.82126 0.1154 0.47041 0.0
C820 C 0.8078 0.13244 0.49563 0.0
C821 C 0.84712 0.08317 0.42395 0.0
C822 C 0.85997 0.08516 0.45507 0.0
C823 C 0.8472 0.10178 0.47776 0.0
C824 C 0.8858 0.06885 0.46457 0.0
C825 C 0.86088 0.06745 0.39796 0.0
C826 C 0.88368 0.03679 0.46029 0.0
C827 C 0.90851 0.02149 0.46617 0.0
C828 C 0.93596 0.03779 0.47705 0.0
C829 C 0.93764 0.0696 0.48349 0.0
C830 C 0.91269 0.08505 0.47721 0.0
H831 H 0.85424 0.07628 0.37461 0.0
H832 H 0.88553 0.07079 0.40105 0.0
H833 H 0.85306 0.04232 0.39811 0.0
H834 H 0.86293 0.02364 0.45156 0.0
H835 H 0.90637 0.99688 0.46142 0.0
H836 H 0.35077 0.67662 0.08283 0.0
H837 H 0.31577 0.6573 0.0386 0.0
H838 H 0.24605 0.63823 0.10278 0.0
H839 H 0.28061 0.65781 0.14639 0.0
H840 H 0.25155 0.5895 0.05587 0.0
H841 H 0.24582 0.70647 0.00618 0.0
H842 H 0.2812 0.69262 0.01416 0.0
H843 H 0.26004 0.70233 0.04604 0.0
C844 C 0.32797 0.66807 0.08724 0.0
C845 C 0.31823 0.66847 0.11785 0.0
C846 C 0.30811 0.65709 0.06213 0.0
C847 C 0.27838 0.6464 0.06752 0.0
C848 C 0.26898 0.64614 0.09821 0.0
H849 H 0.11078 0.64083 0.04572 0.0
H850 H 0.16358 0.65469 0.03946 0.0
C851 C 0.28868 0.65717 0.1231 0.0
C852 C 0.25591 0.63687 0.04172 0.0
H853 H 0.20492 0.66865 0.99489 0.0
C854 C 0.24181 0.60639 0.04145 0.0
C855 C 0.24365 0.65904 0.02283 0.0
C856 C 0.25831 0.69202 0.02209 0.0
C857 C 0.21371 0.59838 0.0261 0.0
C858 C 0.19969 0.62155 0.01027 0.0
C859 C 0.21568 0.651 0.00709 0.0
C860 C 0.16683 0.61835 0.00561 0.0
C861 C 0.19786 0.56622 0.03026 0.0
C862 C 0.15058 0.59466 0.98696 0.0
C863 C 0.12011 0.58653 0.9907 0.0
C864 C 0.1058 0.60211 0.01307 0.0
C865 C 0.12139 0.62814 0.02869 0.0
C866 C 0.15159 0.63619 0.02497 0.0
H867 H 0.21148 0.55161 0.04475 0.0
H868 H 0.17665 0.5673 0.04163 0.0
H869 H 0.19256 0.55476 0.00702 0.0
H870 H 0.16182 0.58103 0.97138 0.0
H871 H 0.10851 0.56647 0.9782 0.0
H872 H 0.21219 0.39046 0.63771 0.0
H873 H 0.25386 0.39577 0.60355 0.0
H874 H 0.19542 0.41918 0.52655 0.0
H875 H 0.15373 0.41473 0.56142 0.0
H876 H 0.26449 0.36855 0.54638 0.0
H877 H 0.25882 0.49496 0.53541 0.0
H878 H 0.23829 0.47199 0.56376 0.0
H879 H 0.22628 0.4689 0.52297 0.0
C880 C 0.20836 0.39667 0.61347 0.0
C881 C 0.18019 0.40292 0.60219 0.0
C882 C 0.23199 0.39942 0.59391 0.0
C883 C 0.22783 0.40835 0.56265 0.0
C884 C 0.19919 0.41278 0.55075 0.0
H885 H 0.39404 0.48467 0.4796 0.0
H886 H 0.34203 0.46014 0.47638 0.0
C887 C 0.17546 0.41008 0.57049 0.0
C888 C 0.25429 0.41534 0.54401 0.0
H889 H 0.30182 0.47651 0.5202 0.0
C890 C 0.27234 0.39202 0.53984 0.0
C891 C 0.2644 0.44594 0.53528 0.0
C892 C 0.24613 0.47203 0.53963 0.0
C893 C 0.30119 0.39893 0.52959 0.0
C894 C 0.31224 0.42993 0.52362 0.0
C895 C 0.29322 0.45275 0.52485 0.0
C896 C 0.3445 0.44014 0.5225 0.0
C897 C 0.32023 0.37329 0.52698 0.0
C898 C 0.36303 0.43676 0.54933 0.0
C899 C 0.39233 0.451 0.5514 0.0
C900 C 0.40379 0.46882 0.5266 0.0
C901 C 0.38578 0.47089 0.49898 0.0
C902 C 0.35614 0.45694 0.49711 0.0
H903 H 0.30636 0.35086 0.52138 0.0
H904 H 0.33653 0.3782 0.50869 0.0
H905 H 0.33269 0.37093 0.54978 0.0
H906 H 0.35434 0.42448 0.56945 0.0
H907 H 0.40573 0.44891 0.57292 0.0
H908 H 0.92202 0.87539 0.89041 0.0
H909 H 0.94887 0.83201 0.90691 0.0
H910 H 0.86823 0.76902 0.88931 0.0
H911 H 0.84182 0.8123 0.8725 0.0
H912 H 0.93501 0.7925 0.95739 0.0
H913 H 0.92972 0.72596 0.84593 0.0
H914 H 0.92283 0.76573 0.8474 0.0
H915 H 0.89425 0.73527 0.85664 0.0
C916 C 0.91045 0.8521 0.88927 0.0
C917 C 0.88006 0.84693 0.87999 0.0
C918 C 0.92561 0.82743 0.89899 0.0
C919 C 0.91062 0.79718 0.89924 0.0
C920 C 0.88042 0.792 0.88892 0.0
H921 H 0.95642 0.63541 1.00231 0.0
H922 H 0.93702 0.6837 0.98757 0.0
C923 C 0.86533 0.81664 0.87933 0.0
C924 C 0.92597 0.77122 0.91168 0.0
H925 H 0.94378 0.7002 0.89224 0.0
C926 C 0.93715 0.7724 0.94311 0.0
C927 C 0.92887 0.74505 0.89304 0.0
C928 C 0.91855 0.74294 0.8588 0.0
C929 C 0.95072 0.7479 0.95648 0.0
C930 C 0.95285 0.72134 0.93805 0.0
C931 C 0.94201 0.72043 0.90651 0.0
C932 C 0.96693 0.69443 0.95035 0.0
C933 C 0.96301 0.75087 0.99006 0.0
C934 C 0.99045 0.68455 0.9348 0.0
C935 C 1.00128 0.657 0.94297 0.0
C936 C 0.98896 0.63859 0.96703 0.0
C937 C 0.9666 0.64928 0.98394 0.0
C938 C 0.95549 0.6769 0.9755 0.0
H939 H 0.96663 0.77533 0.99826 0.0
H940 H 0.94693 0.73789 1.00526 0.0
H941 H 0.98439 0.7411 0.99303 0.0
H942 H 0.99976 0.69765 0.91546 0.0
H943 H 0.0186 0.64945 0.92955 0.0
H944 H 0.33741 0.75729 0.20941 0.0
H945 H 0.35533 0.81278 0.21652 0.0
H946 H 0.43647 0.799 0.1739 0.0
H947 H 0.41823 0.74391 0.16649 0.0
H948 H 0.43721 0.84828 0.23086 0.0
H949 H 0.36031 0.85655 0.12535 0.0
H950 H 0.34802 0.83487 0.15897 0.0
H951 H 0.37397 0.82044 0.13445 0.0
C952 C 0.35955 0.76615 0.20289 0.0
C953 C 0.3767 0.74682 0.18763 0.0
C954 C 0.36971 0.79764 0.20686 0.0
C955 C 0.39719 0.80984 0.19574 0.0
C956 C 0.41534 0.7899 0.18292 0.0
H957 H 0.51783 0.92256 0.12085 0.0
H958 H 0.49011 0.89789 0.16246 0.0
C959 C 0.40504 0.75858 0.17869 0.0
C960 C 0.40492 0.84339 0.19163 0.0
H961 H 0.39937 0.89645 0.13437 0.0
C962 C 0.42836 0.85936 0.21037 0.0
C963 C 0.3929 0.85798 0.16531 0.0
C964 C 0.36737 0.84178 0.14473 0.0
C965 C 0.44196 0.88853 0.20165 0.0
C966 C 0.43256 0.90125 0.1729 0.0
C967 C 0.40685 0.88679 0.15629 0.0
C968 C 0.45266 0.92387 0.15562 0.0
C969 C 0.46735 0.90453 0.2224 0.0
C970 C 0.44159 0.94771 0.13825 0.0
C971 C 0.45759 0.96178 0.1139 0.0
C972 C 0.48463 0.9519 0.1067 0.0
C973 C 0.49701 0.93057 0.12612 0.0
C974 C 0.48122 0.91666 0.15028 0.0
H975 H 0.46242 0.90168 0.24745 0.0
H976 H 0.48773 0.89365 0.21891 0.0
H977 H 0.47182 0.92955 0.21737 0.0
H978 H 0.41953 0.95354 0.14173 0.0
H979 H 0.44754 0.97799 0.09892 0.0
H980 H 0.07989 0.38067 0.58369 0.0
H981 H 0.05894 0.33435 0.55282 0.0
H982 H 0.13793 0.29231 0.57708 0.0
H983 H 0.15856 0.33832 0.60819 0.0
H984 H 0.09068 0.29088 0.50235 0.0
H985 H 0.05564 0.24558 0.61785 0.0
H986 H 0.06127 0.28641 0.60986 0.0
H987 H 0.0927 0.26574 0.61628 0.0
C988 C 0.09296 0.36178 0.58158 0.0
C989 C 0.12072 0.36281 0.59812 0.0
C990 C 0.08113 0.33553 0.56393 0.0
C991 C 0.097 0.31011 0.56266 0.0
C992 C 0.12555 0.31192 0.57757 0.0
H993 H 0.09007 0.12806 0.50299 0.0
H994 H 0.09431 0.18412 0.4996 0.0
C995 C 0.13733 0.33812 0.59521 0.0
C996 C 0.08216 0.28005 0.5503 0.0
H997 H 0.05038 0.21043 0.57544 0.0
C998 C 0.08145 0.27331 0.51812 0.0
C999 C 0.0698 0.25752 0.57096 0.0
C1000 C 0.06962 0.26401 0.60568 0.0
C1001 C 0.06974 0.24383 0.50625 0.0
C1002 C 0.05886 0.22068 0.52723 0.0
C1003 C 0.05842 0.22814 0.55921 0.0
C1004 C 0.0514 0.18763 0.51797 0.0
C1005 C 0.06949 0.23765 0.47151 0.0
C1006 C 0.02516 0.17064 0.5277 0.0
C1007 C 0.02288 0.1385 0.52983 0.0
C1008 C 0.04666 0.12301 0.52195 0.0
C1009 C 0.07117 0.13953 0.50847 0.0
C1010 C 0.0736 0.17168 0.50657 0.0
H1011 H 0.0677 0.25908 0.45805 0.0
H1012 H 0.0907 0.22928 0.46605 0.0
H1013 H 0.05082 0.21986 0.46354 0.0
H1014 H 0.00779 0.18244 0.53672 0.0
H1015 H 0.00407 0.12624 0.54094 0.0
H1016 H 0.6541 0.2451 0.39848 0.0
H1017 H 0.62748 0.28637 0.41735 0.0
H1018 H 0.6165 0.2394 0.50526 0.0
H1019 H 0.64254 0.19763 0.48575 0.0
H1020 H 0.5649 0.25869 0.48179 0.0
H1021 H 0.65642 0.35508 0.48003 0.0
H1022 H 0.6503 0.33518 0.44296 0.0
H1023 H 0.66263 0.31519 0.47705 0.0
C1024 C 0.64614 0.24389 0.42188 0.0
C1025 C 0.6505 0.21865 0.44091 0.0
C1026 C 0.63118 0.26747 0.43276 0.0
C1027 C 0.62054 0.26631 0.46299 0.0
C1028 C 0.6248 0.24093 0.482 0.0
H1029 H 0.55116 0.43453 0.51938 0.0
H1030 H 0.57612 0.38835 0.52527 0.0
C1031 C 0.63973 0.21725 0.47102 0.0
C1032 C 0.60373 0.29093 0.47389 0.0
H1033 H 0.60687 0.36919 0.47992 0.0
C1034 C 0.57421 0.28284 0.48191 0.0
C1035 C 0.61603 0.32238 0.4747 0.0
C1036 C 0.64819 0.33246 0.46856 0.0
C1037 C 0.55614 0.30551 0.48885 0.0
C1038 C 0.56776 0.33707 0.48716 0.0
C1039 C 0.5978 0.34503 0.48098 0.0
C1040 C 0.54873 0.36223 0.48864 0.0
C1041 C 0.5247 0.29538 0.49752 0.0
C1042 C 0.5244 0.36262 0.46687 0.0
C1043 C 0.50977 0.38879 0.46397 0.0
C1044 C 0.5193 0.41523 0.48262 0.0
C1045 C 0.54258 0.41423 0.50556 0.0
C1046 C 0.55718 0.38796 0.50856 0.0
H1047 H 0.52282 0.27247 0.50892 0.0
H1048 H 0.51688 0.3123 0.51356 0.0
H1049 H 0.50975 0.29313 0.47592 0.0
H1050 H 0.51789 0.34347 0.45067 0.0
H1051 H 0.49211 0.389 0.44583 0.0
loop_
_geom_bond_atom_site_label_1
_geom_bond_atom_site_label_2
_geom_bond_distance
_geom_bond_site_symmetry_2
_ccdc_geom_bond_type
C0 N1 1.317 . S
C0 N2 1.348 . S
C0 C3 1.485 . S
N1 C0 1.317 . S
N1 N5 1.370 . S
N2 C0 1.348 . S
N2 C4 1.346 . S
C3 C0 1.485 . S
C3 H7 0.960 . S
C3 H8 0.961 . S
C3 H9 0.960 . S
C4 N2 1.346 . S
C4 N5 1.307 . S
C4 C6 1.486 . S
N5 N1 1.370 . S
N5 C4 1.307 . S
C6 C4 1.486 . S
C6 H10 0.960 . S
C6 H11 0.960 . S
C6 H12 0.959 . S
H7 C3 0.960 . S
H8 C3 0.961 . S
H9 C3 0.960 . S
H10 C6 0.960 . S
H11 C6 0.960 . S
H12 C6 0.959 . S
C13 N14 1.317 . S
C13 N15 1.348 . S
C13 C16 1.485 . S
N14 C13 1.317 . S
N14 N18 1.370 . S
N15 C13 1.348 . S
N15 C17 1.346 . S
C16 C13 1.485 . S
C16 H20 0.960 . S
C16 H21 0.961 . S
C16 H22 0.960 . S
C17 N15 1.346 . S
C17 N18 1.307 . S
C17 C19 1.486 . S
N18 N14 1.370 . S
N18 C17 1.307 . S
C19 C17 1.486 . S
C19 H23 0.960 . S
C19 H24 0.960 . S
C19 H25 0.959 . S
H20 C16 0.960 . S
H21 C16 0.961 . S
H22 C16 0.960 . S
H23 C19 0.960 . S
H24 C19 0.960 . S
H25 C19 0.959 . S
C26 N27 1.317 . S
C26 N28 1.348 . S
C26 C29 1.485 . S
N27 C26 1.317 . S
N27 N31 1.370 . S
N28 C26 1.348 . S
N28 C30 1.346 . S
C29 C26 1.485 . S
C29 H33 0.960 . S
C29 H34 0.961 . S
C29 H35 0.960 . S
C30 N28 1.346 . S
C30 N31 1.307 . S
C30 C32 1.486 . S
N31 N27 1.370 . S
N31 C30 1.307 . S
C32 C30 1.486 . S
C32 H36 0.960 . S
C32 H37 0.960 . S
C32 H38 0.959 . S
H33 C29 0.960 . S
H34 C29 0.961 . S
H35 C29 0.960 . S
H36 C32 0.960 . S
H37 C32 0.960 . S
H38 C32 0.959 . S
C39 N40 1.317 . S
C39 N41 1.348 . S
C39 C42 1.485 . S
N40 C39 1.317 . S
N40 N44 1.370 . S
N41 C39 1.348 . S
N41 C43 1.346 . S
C42 C39 1.485 . S
C42 H46 0.960 . S
C42 H47 0.961 . S
C42 H48 0.960 . S
C43 N41 1.346 . S
C43 N44 1.307 . S
C43 C45 1.486 . S
N44 N40 1.370 . S
N44 C43 1.307 . S
C45 C43 1.486 . S
C45 H49 0.960 . S
C45 H50 0.960 . S
C45 H51 0.959 . S
H46 C42 0.960 . S
H47 C42 0.961 . S
H48 C42 0.960 . S
H49 C45 0.960 . S
H50 C45 0.960 . S
H51 C45 0.959 . S
C52 N53 1.317 . S
C52 N54 1.348 . S
C52 C55 1.485 . S
N53 C52 1.317 . S
N53 N57 1.370 . S
N54 C52 1.348 . S
N54 C56 1.346 . S
C55 C52 1.485 . S
C55 H59 0.960 . S
C55 H60 0.961 . S
C55 H61 0.960 . S
C56 N54 1.346 . S
C56 N57 1.307 . S
C56 C58 1.486 . S
N57 N53 1.370 . S
N57 C56 1.307 . S
C58 C56 1.486 . S
C58 H62 0.960 . S
C58 H63 0.960 . S
C58 H64 0.959 . S
H59 C55 0.960 . S
H60 C55 0.961 . S
H61 C55 0.960 . S
H62 C58 0.960 . S
H63 C58 0.960 . S
H64 C58 0.959 . S
C65 N66 1.317 . S
C65 N67 1.348 . S
C65 C68 1.485 . S
N66 C65 1.317 . S
N66 N70 1.370 . S
N67 C65 1.348 . S
N67 C69 1.346 . S
C68 C65 1.485 . S
C68 H72 0.960 . S
C68 H73 0.961 . S
C68 H74 0.960 . S
C69 N67 1.346 . S
C69 N70 1.307 . S
C69 C71 1.486 . S
N70 N66 1.370 . S
N70 C69 1.307 . S
C71 C69 1.486 . S
C71 H75 0.960 . S
C71 H76 0.960 . S
C71 H77 0.959 . S
H72 C68 0.960 . S
H73 C68 0.961 . S
H74 C68 0.960 . S
H75 C71 0.960 . S
H76 C71 0.960 . S
H77 C71 0.959 . S
C78 N79 1.317 . S
C78 N80 1.348 . S
C78 C81 1.485 . S
N79 C78 1.317 . S
N79 N83 1.370 . S
N80 C78 1.348 . S
N80 C82 1.346 . S
C81 C78 1.485 . S
C81 H85 0.960 . S
C81 H86 0.961 . S
C81 H87 0.960 . S
C82 N80 1.346 . S
C82 N83 1.307 . S
C82 C84 1.486 . S
N83 N79 1.370 . S
N83 C82 1.307 . S
C84 C82 1.486 . S
C84 H88 0.960 . S
C84 H89 0.960 . S
C84 H90 0.959 . S
H85 C81 0.960 . S
H86 C81 0.961 . S
H87 C81 0.960 . S
H88 C84 0.960 . S
H89 C84 0.960 . S
H90 C84 0.959 . S
C91 N92 1.317 . S
C91 N93 1.348 . S
C91 C94 1.485 . S
N92 C91 1.317 . S
N92 N96 1.370 . S
N93 C91 1.348 . S
N93 C95 1.346 . S
C94 C91 1.485 . S
C94 H98 0.960 . S
C94 H99 0.961 . S
C94 H100 0.960 . S
C95 N93 1.346 . S
C95 N96 1.307 . S
C95 C97 1.486 . S
N96 N92 1.370 . S
N96 C95 1.307 . S
C97 C95 1.486 . S
C97 H101 0.960 . S
C97 H102 0.960 . S
C97 H103 0.959 . S
H98 C94 0.960 . S
H99 C94 0.961 . S
H100 C94 0.960 . S
H101 C97 0.960 . S
H102 C97 0.960 . S
H103 C97 0.959 . S
O104 Mg105 1.990 . S
O104 C118 1.253 1_545 S
Mg105 O104 1.990 . S
Mg105 O108 2.180 . S
Mg105 O109 2.117 . S
Mg105 O123 2.030 . S
O106 Mg107 2.072 1_565 S
O106 C118 1.260 . S
Mg107 O106 2.072 1_545 S
Mg107 O108 2.099 . S
Mg107 O110 2.079 . S
Mg107 O111 2.072 . S
Mg107 O113 2.099 1_545 S
Mg107 O124 2.079 1_545 S
O108 Mg105 2.180 . S
O108 Mg107 2.099 . S
O108 C119 1.279 . S
O109 Mg105 2.117 . S
O109 C119 1.250 . S
O110 Mg107 2.079 . S
O110 C120 1.264 . S
O111 Mg107 2.072 . S
O111 C121 1.260 1_455 S
Mg112 O113 2.180 . S
Mg112 O114 2.030 1_565 S
Mg112 O115 1.990 1_465 S
Mg112 O116 2.117 1_455 S
O113 Mg107 2.099 1_565 S
O113 Mg112 2.180 . S
O113 C122 1.279 . S
O114 Mg112 2.030 1_545 S
O114 C120 1.248 . S
O115 Mg112 1.990 1_645 S
O115 C121 1.253 . S
O116 Mg112 2.117 1_655 S
O116 C122 1.250 1_655 S
C117 O123 1.248 1_565 S
C117 O124 1.264 . S
C118 O104 1.253 1_565 S
C118 O106 1.260 . S
C119 O108 1.279 . S
C119 O109 1.250 . S
C120 O110 1.264 . S
C120 O114 1.248 . S
C121 O111 1.260 1_655 S
C121 O115 1.253 . S
C122 O113 1.279 . S
C122 O116 1.250 1_455 S
O123 Mg105 2.030 . S
O123 C117 1.248 1_545 S
O124 Mg107 2.079 1_565 S
O124 C117 1.264 . S
O125 Mg126 1.990 . S
O125 C139 1.253 . S
Mg126 O125 1.990 . S
Mg126 O129 2.180 . S
Mg126 O130 2.117 . S
Mg126 O144 2.030 . S
O127 Mg128 2.072 . S
O127 C139 1.260 . S
Mg128 O127 2.072 . S
Mg128 O129 2.099 . S
Mg128 O131 2.079 . S
Mg128 O132 2.072 1_554 S
Mg128 O134 2.099 1_545 S
Mg128 O145 2.079 . S
O129 Mg126 2.180 . S
O129 Mg128 2.099 . S
O129 C140 1.279 . S
O130 Mg126 2.117 . S
O130 C140 1.250 . S
O131 Mg128 2.079 . S
O131 C141 1.264 . S
O132 Mg128 2.072 1_556 S
O132 C142 1.260 . S
Mg133 O134 2.180 . S
Mg133 O135 2.030 1_554 S
Mg133 O136 1.990 1_554 S
Mg133 O137 2.117 . S
O134 Mg128 2.099 1_565 S
O134 Mg133 2.180 . S
O134 C143 1.279 . S
O135 Mg133 2.030 1_556 S
O135 C141 1.248 1_566 S
O136 Mg133 1.990 1_556 S
O136 C142 1.253 1_565 S
O137 Mg133 2.117 . S
O137 C143 1.250 . S
C138 O144 1.248 . S
C138 O145 1.264 . S
C139 O125 1.253 . S
C139 O127 1.260 . S
C140 O129 1.279 . S
C140 O130 1.250 . S
C141 O131 1.264 . S
C141 O135 1.248 1_544 S
C142 O132 1.260 . S
C142 O136 1.253 1_545 S
C143 O134 1.279 . S
C143 O137 1.250 . S
O144 Mg126 2.030 . S
O144 C138 1.248 . S
O145 Mg128 2.079 . S
O145 C138 1.264 . S
O146 Mg147 1.990 . S
O146 C160 1.253 . S
Mg147 O146 1.990 . S
Mg147 O150 2.180 . S
Mg147 O151 2.117 . S
Mg147 O165 2.030 . S
O148 Mg149 2.072 . S
O148 C160 1.260 . S
Mg149 O148 2.072 . S
Mg149 O150 2.099 . S
Mg149 O152 2.079 . S
Mg149 O153 2.072 . S
Mg149 O155 2.099 . S
Mg149 O166 2.079 . S
O150 Mg147 2.180 . S
O150 Mg149 2.099 . S
O150 C161 1.279 . S
O151 Mg147 2.117 . S
O151 C161 1.250 . S
O152 Mg149 2.079 . S
O152 C162 1.264 . S
O153 Mg149 2.072 . S
O153 C163 1.260 . S
Mg154 O155 2.180 . S
Mg154 O156 2.030 . S
Mg154 O157 1.990 . S
Mg154 O158 2.117 . S
O155 Mg149 2.099 . S
O155 Mg154 2.180 . S
O155 C164 1.279 . S
O156 Mg154 2.030 . S
O156 C162 1.248 . S
O157 Mg154 1.990 . S
O157 C163 1.253 . S
O158 Mg154 2.117 . S
O158 C164 1.250 . S
C159 O165 1.248 . S
C159 O166 1.264 . S
C160 O146 1.253 . S
C160 O148 1.260 . S
C161 O150 1.279 . S
C161 O151 1.250 . S
C162 O152 1.264 . S
C162 O156 1.248 . S
C163 O153 1.260 . S
C163 O157 1.253 . S
C164 O155 1.279 . S
C164 O158 1.250 . S
O165 Mg147 2.030 . S
O165 C159 1.248 . S
O166 Mg149 2.079 . S
O166 C159 1.264 . S
O167 Mg168 1.990 . S
O167 C181 1.253 . S
Mg168 O167 1.990 . S
Mg168 O171 2.154 1_455 S
Mg168 O172 2.117 1_455 S
Mg168 O186 2.030 . S
O169 Mg170 2.072 . S
O169 C181 1.260 . S
Mg170 O169 2.072 . S
Mg170 O171 2.092 1_455 S
Mg170 O173 2.079 1_454 S
Mg170 O174 2.072 1_454 S
Mg170 O176 2.099 1_554 S
Mg170 O187 2.079 . S
O171 Mg168 2.154 1_655 S
O171 Mg170 2.092 1_655 S
O171 C182 1.303 . S
O172 Mg168 2.117 1_655 S
O172 C182 1.250 . S
O173 Mg170 2.079 1_656 S
O173 C183 1.264 . S
O174 Mg170 2.072 1_656 S
O174 C184 1.260 . S
Mg175 O176 2.180 1_655 S
Mg175 O177 2.030 . S
Mg175 O178 1.990 . S
Mg175 O179 2.117 . S
O176 Mg170 2.099 1_556 S
O176 Mg175 2.180 1_455 S
O176 C185 1.279 . S
O177 Mg175 2.030 . S
O177 C183 1.248 . S
O178 Mg175 1.990 . S
O178 C184 1.253 . S
O179 Mg175 2.117 . S
O179 C185 1.250 1_655 S
C180 O186 1.248 . S
C180 O187 1.264 . S
C181 O167 1.253 . S
C181 O169 1.260 . S
C182 O171 1.303 . S
C182 O172 1.250 . S
C183 O173 1.264 . S
C183 O177 1.248 . S
C184 O174 1.260 . S
C184 O178 1.253 . S
C185 O176 1.279 . S
C185 O179 1.250 1_455 S
O186 Mg168 2.030 . S
O186 C180 1.248 . S
O187 Mg170 2.079 . S
O187 C180 1.264 . S
H188 C196 0.929 . S
H189 C198 0.930 . S
H190 C200 0.930 . S
H191 C203 0.929 . S
H192 C206 0.930 . S
H193 C208 0.960 . S
H194 C208 0.960 . S
H195 C208 0.960 . S
C196 H188 0.929 . S
C196 C197 1.377 . S
C196 C198 1.384 . S
C197 C196 1.377 . S
C197 C203 1.390 . S
C198 H189 0.930 . S
C198 C196 1.384 . S
C198 C199 1.372 . S
C199 C198 1.372 . S
C199 C200 1.400 . S
C199 C204 1.490 . S
C200 H190 0.930 . S
C200 C199 1.400 . S
C200 C203 1.386 . S
H201 C217 0.930 . S
H202 C218 0.931 . S
C203 H191 0.929 . S
C203 C197 1.390 . S
C203 C200 1.386 . S
C204 C199 1.490 . S
C204 C206 1.395 . S
C204 C207 1.403 . S
H205 C211 0.930 . S
C206 H192 0.930 . S
C206 C204 1.395 . S
C206 C209 1.403 . S
C207 C204 1.403 . S
C207 C208 1.524 . S
C207 C211 1.400 . S
C208 H193 0.960 . S
C208 H194 0.960 . S
C208 H195 0.960 . S
C208 C207 1.524 . S
C209 C206 1.403 . S
C209 C210 1.392 . S
C209 C213 1.495 . S
C210 C209 1.392 . S
C210 C211 1.385 . S
C210 C212 1.478 . S
C211 H205 0.930 . S
C211 C207 1.400 . S
C211 C210 1.385 . S
C212 C210 1.478 . S
C212 C214 1.381 . S
C212 C218 1.383 . S
C213 C209 1.495 . S
C213 H219 0.959 . S
C213 H220 0.961 . S
C213 H221 0.960 . S
C214 C212 1.381 . S
C214 C215 1.394 . S
C214 H222 0.930 . S
C215 C214 1.394 . S
C215 C216 1.383 . S
C215 H223 0.929 . S
C216 C215 1.383 . S
C216 C217 1.377 . S
C217 H201 0.930 . S
C217 C216 1.377 . S
C217 C218 1.379 . S
C218 H202 0.931 . S
C218 C212 1.383 . S
C218 C217 1.379 . S
H219 C213 0.959 . S
H220 C213 0.961 . S
H221 C213 0.960 . S
H222 C214 0.930 . S
H223 C215 0.929 . S
H224 C232 0.929 . S
H225 C234 0.930 . S
H226 C236 0.930 . S
H227 C239 0.929 . S
H228 C242 0.930 . S
H229 C244 0.960 . S
H230 C244 0.960 . S
H231 C244 0.960 . S
C232 H224 0.929 . S
C232 C233 1.377 . S
C232 C234 1.384 . S
C233 C232 1.377 . S
C233 C239 1.390 . S
C234 H225 0.930 . S
C234 C232 1.384 . S
C234 C235 1.372 . S
C235 C234 1.372 . S
C235 C236 1.400 . S
C235 C240 1.490 . S
C236 H226 0.930 . S
C236 C235 1.400 . S
C236 C239 1.386 . S
H237 C253 0.930 . S
H238 C254 0.931 . S
C239 H227 0.929 . S
C239 C233 1.390 . S
C239 C236 1.386 . S
C240 C235 1.490 . S
C240 C242 1.395 . S
C240 C243 1.403 . S
H241 C247 0.930 . S
C242 H228 0.930 . S
C242 C240 1.395 . S
C242 C245 1.403 . S
C243 C240 1.403 . S
C243 C244 1.524 . S
C243 C247 1.400 . S
C244 H229 0.960 . S
C244 H230 0.960 . S
C244 H231 0.960 . S
C244 C243 1.524 . S
C245 C242 1.403 . S
C245 C246 1.392 . S
C245 C249 1.495 . S
C246 C245 1.392 . S
C246 C247 1.385 . S
C246 C248 1.478 . S
C247 H241 0.930 . S
C247 C243 1.400 . S
C247 C246 1.385 . S
C248 C246 1.478 . S
C248 C250 1.381 . S
C248 C254 1.383 1_565 S
C249 C245 1.495 . S
C249 H255 0.959 . S
C249 H256 0.942 1_565 S
C249 H257 0.960 . S
C250 C248 1.381 . S
C250 C251 1.394 . S
C250 H258 0.930 . S
C251 C250 1.394 . S
C251 C252 1.383 1_565 S
C251 H259 0.929 . S
C252 C251 1.383 1_545 S
C252 C253 1.377 . S
C253 H237 0.930 . S
C253 C252 1.377 . S
C253 C254 1.379 . S
C254 H238 0.931 . S
C254 C248 1.383 1_545 S
C254 C253 1.379 . S
H255 C249 0.959 . S
H256 C249 0.942 1_545 S
H257 C249 0.960 . S
H258 C250 0.930 . S
H259 C251 0.929 . S
H260 C268 0.929 . S
H261 C270 0.930 . S
H262 C272 0.930 . S
H263 C275 0.929 . S
H264 C278 0.930 . S
H265 C280 0.960 . S
H266 C280 0.960 . S
H267 C280 0.960 . S
C268 H260 0.929 . S
C268 C269 1.377 . S
C268 C270 1.384 . S
C269 C268 1.377 . S
C269 C275 1.390 . S
C270 H261 0.930 . S
C270 C268 1.384 . S
C270 C271 1.372 . S
C271 C270 1.372 . S
C271 C272 1.400 . S
C271 C276 1.490 . S
C272 H262 0.930 . S
C272 C271 1.400 . S
C272 C275 1.386 . S
H273 C289 0.930 . S
H274 C290 0.931 . S
C275 H263 0.929 . S
C275 C269 1.390 . S
C275 C272 1.386 . S
C276 C271 1.490 . S
C276 C278 1.395 . S
C276 C279 1.403 . S
H277 C283 0.930 . S
C278 H264 0.930 . S
C278 C276 1.395 . S
C278 C281 1.403 . S
C279 C276 1.403 . S
C279 C280 1.524 . S
C279 C283 1.400 . S
C280 H265 0.960 . S
C280 H266 0.960 . S
C280 H267 0.960 . S
C280 C279 1.524 . S
C281 C278 1.403 . S
C281 C282 1.392 . S
C281 C285 1.495 . S
C282 C281 1.392 . S
C282 C283 1.385 . S
C282 C284 1.478 . S
C283 H277 0.930 . S
C283 C279 1.400 . S
C283 C282 1.385 . S
C284 C282 1.478 . S
C284 C286 1.381 . S
C284 C290 1.383 . S
C285 C281 1.495 . S
C285 H291 0.959 . S
C285 H292 0.961 . S
C285 H293 0.960 . S
C286 C284 1.381 . S
C286 C287 1.394 . S
C286 H294 0.930 . S
C287 C286 1.394 . S
C287 C288 1.383 . S
C287 H295 0.929 . S
C288 C287 1.383 . S
C288 C289 1.377 . S
C289 H273 0.930 . S
C289 C288 1.377 . S
C289 C290 1.379 . S
C290 H274 0.931 . S
C290 C284 1.383 . S
C290 C289 1.379 . S
H291 C285 0.959 . S
H292 C285 0.961 . S
H293 C285 0.960 . S
H294 C286 0.930 . S
H295 C287 0.929 . S
H296 C304 0.929 . S
H297 C306 0.930 . S
H298 C308 0.930 . S
H299 C311 0.929 . S
H300 C314 0.930 . S
H301 C316 0.960 . S
H302 C316 0.960 . S
H303 C316 0.960 . S
C304 H296 0.929 . S
C304 C305 1.377 . S
C304 C306 1.384 . S
C305 C304 1.377 . S
C305 C311 1.390 . S
C306 H297 0.930 . S
C306 C304 1.384 . S
C306 C307 1.372 . S
C307 C306 1.372 . S
C307 C308 1.400 . S
C307 C312 1.490 . S
C308 H298 0.930 . S
C308 C307 1.400 . S
C308 C311 1.386 . S
H309 C325 0.930 . S
H310 C326 0.931 . S
C311 H299 0.929 . S
C311 C305 1.390 . S
C311 C308 1.386 . S
C312 C307 1.490 . S
C312 C314 1.395 . S
C312 C315 1.403 . S
H313 C319 0.930 . S
C314 H300 0.930 . S
C314 C312 1.395 . S
C314 C317 1.403 . S
C315 C312 1.403 . S
C315 C316 1.524 . S
C315 C319 1.400 . S
C316 H301 0.960 . S
C316 H302 0.960 . S
C316 H303 0.960 . S
C316 C315 1.524 . S
C317 C314 1.403 . S
C317 C318 1.392 . S
C317 C321 1.495 . S
C318 C317 1.392 . S
C318 C319 1.385 . S
C318 C320 1.478 . S
C319 H313 0.930 . S
C319 C315 1.400 . S
C319 C318 1.385 . S
C320 C318 1.478 . S
C320 C322 1.381 . S
C320 C326 1.383 . S
C321 C317 1.495 . S
C321 H327 0.959 . S
C321 H328 0.961 . S
C321 H329 0.960 . S
C322 C320 1.381 . S
C322 C323 1.394 . S
C322 H330 0.930 . S
C323 C322 1.394 . S
C323 C324 1.383 . S
C323 H331 0.929 . S
C324 C323 1.383 . S
C324 C325 1.377 . S
C325 H309 0.930 . S
C325 C324 1.377 . S
C325 C326 1.379 . S
C326 H310 0.931 . S
C326 C320 1.383 . S
C326 C325 1.379 . S
H327 C321 0.959 . S
H328 C321 0.961 . S
H329 C321 0.960 . S
H330 C322 0.930 . S
H331 C323 0.929 . S
H332 C340 0.929 . S
H333 C342 0.930 . S
H334 C344 0.930 . S
H335 C347 0.929 . S
H336 C350 0.930 . S
H337 C352 0.960 . S
H338 C352 0.960 . S
H339 C352 0.960 . S
C340 H332 0.929 . S
C340 C341 1.377 . S
C340 C342 1.384 . S
C341 C340 1.377 . S
C341 C347 1.390 . S
C342 H333 0.930 . S
C342 C340 1.384 . S
C342 C343 1.372 . S
C343 C342 1.372 . S
C343 C344 1.400 . S
C343 C348 1.490 . S
C344 H334 0.930 . S
C344 C343 1.400 . S
C344 C347 1.386 . S
H345 C361 0.930 . S
H346 C362 0.931 . S
C347 H335 0.929 . S
C347 C341 1.390 . S
C347 C344 1.386 . S
C348 C343 1.490 . S
C348 C350 1.395 . S
C348 C351 1.403 . S
H349 C355 0.930 . S
C350 H336 0.930 . S
C350 C348 1.395 . S
C350 C353 1.403 . S
C351 C348 1.403 . S
C351 C352 1.524 . S
C351 C355 1.400 . S
C352 H337 0.960 . S
C352 H338 0.960 . S
C352 H339 0.960 . S
C352 C351 1.524 . S
C353 C350 1.403 . S
C353 C354 1.392 . S
C353 C357 1.495 . S
C354 C353 1.392 . S
C354 C355 1.385 . S
C354 C356 1.478 . S
C355 H349 0.930 . S
C355 C351 1.400 . S
C355 C354 1.385 . S
C356 C354 1.478 . S
C356 C358 1.381 . S
C356 C362 1.383 . S
C357 C353 1.495 . S
C357 H363 0.959 . S
C357 H364 0.961 . S
C357 H365 0.960 . S
C358 C356 1.381 . S
C358 C359 1.394 . S
C358 H366 0.930 . S
C359 C358 1.394 . S
C359 C360 1.383 . S
C359 H367 0.929 . S
C360 C359 1.383 . S
C360 C361 1.377 . S
C361 H345 0.930 . S
C361 C360 1.377 . S
C361 C362 1.379 . S
C362 H346 0.931 . S
C362 C356 1.383 . S
C362 C361 1.379 . S
H363 C357 0.959 . S
H364 C357 0.961 . S
H365 C357 0.960 . S
H366 C358 0.930 . S
H367 C359 0.929 . S
H368 C376 0.929 . S
H369 C378 0.930 . S
H370 C380 0.930 . S
H371 C383 0.929 . S
H372 C386 0.930 . S
H373 C388 0.960 . S
H374 C388 0.960 . S
H375 C388 0.960 . S
C376 H368 0.929 . S
C376 C377 1.377 . S
C376 C378 1.384 . S
C377 C376 1.377 . S
C377 C383 1.390 . S
C378 H369 0.930 . S
C378 C376 1.384 . S
C378 C379 1.372 . S
C379 C378 1.372 . S
C379 C380 1.400 . S
C379 C384 1.490 . S
C380 H370 0.930 . S
C380 C379 1.400 . S
C380 C383 1.386 . S
H381 C397 0.930 1_545 S
H382 C398 0.931 . S
C383 H371 0.929 . S
C383 C377 1.390 . S
C383 C380 1.386 . S
C384 C379 1.490 . S
C384 C386 1.395 . S
C384 C387 1.403 . S
H385 C391 0.930 . S
C386 H372 0.930 . S
C386 C384 1.395 . S
C386 C389 1.403 . S
C387 C384 1.403 . S
C387 C388 1.524 . S
C387 C391 1.400 . S
C388 H373 0.960 . S
C388 H374 0.960 . S
C388 H375 0.960 . S
C388 C387 1.524 . S
C389 C386 1.403 . S
C389 C390 1.392 . S
C389 C393 1.495 . S
C390 C389 1.392 . S
C390 C391 1.385 . S
C390 C392 1.478 . S
C391 H385 0.930 . S
C391 C387 1.400 . S
C391 C390 1.385 . S
C392 C390 1.478 . S
C392 C394 1.381 . S
C392 C398 1.383 . S
C393 C389 1.495 . S
C393 H399 0.959 . S
C393 H400 0.961 . S
C393 H401 0.960 . S
C394 C392 1.381 . S
C394 C395 1.394 . S
C394 H402 0.930 . S
C395 C394 1.394 . S
C395 C396 1.383 . S
C395 H403 0.929 . S
C396 C395 1.383 . S
C396 C397 1.377 . S
C397 H381 0.930 1_565 S
C397 C396 1.377 . S
C397 C398 1.379 . S
C398 H382 0.931 . S
C398 C392 1.383 . S
C398 C397 1.379 . S
H399 C393 0.959 . S
H400 C393 0.961 . S
H401 C393 0.960 . S
H402 C394 0.930 . S
H403 C395 0.929 . S
H404 C412 0.929 . S
H405 C414 0.930 . S
H406 C416 0.930 . S
H407 C419 0.929 . S
H408 C422 0.930 . S
H409 C424 0.960 . S
H410 C424 0.960 . S
H411 C424 0.960 . S
C412 H404 0.929 . S
C412 C413 1.377 . S
C412 C414 1.384 . S
C413 C412 1.377 . S
C413 C419 1.390 . S
C414 H405 0.930 . S
C414 C412 1.384 . S
C414 C415 1.372 . S
C415 C414 1.372 . S
C415 C416 1.400 . S
C415 C420 1.490 . S
C416 H406 0.930 . S
C416 C415 1.400 . S
C416 C419 1.386 . S
H417 C433 0.930 . S
H418 C434 0.931 . S
C419 H407 0.929 . S
C419 C413 1.390 . S
C419 C416 1.386 . S
C420 C415 1.490 . S
C420 C422 1.395 . S
C420 C423 1.403 . S
H421 C427 0.930 . S
C422 H408 0.930 . S
C422 C420 1.395 . S
C422 C425 1.403 . S
C423 C420 1.403 . S
C423 C424 1.524 . S
C423 C427 1.400 . S
C424 H409 0.960 . S
C424 H410 0.960 . S
C424 H411 0.960 . S
C424 C423 1.524 . S
C425 C422 1.403 . S
C425 C426 1.392 . S
C425 C429 1.495 . S
C426 C425 1.392 . S
C426 C427 1.385 . S
C426 C428 1.478 . S
C427 H421 0.930 . S
C427 C423 1.400 . S
C427 C426 1.385 . S
C428 C426 1.478 . S
C428 C430 1.381 . S
C428 C434 1.383 . S
C429 C425 1.495 . S
C429 H435 0.959 . S
C429 H436 0.961 . S
C429 H437 0.960 . S
C430 C428 1.381 . S
C430 C431 1.394 . S
C430 H438 0.930 . S
C431 C430 1.394 . S
C431 C432 1.383 . S
C431 H439 0.929 1_556 S
C432 C431 1.383 . S
C432 C433 1.377 . S
C433 H417 0.930 . S
C433 C432 1.377 . S
C433 C434 1.379 . S
C434 H418 0.931 . S
C434 C428 1.383 . S
C434 C433 1.379 . S
H435 C429 0.959 . S
H436 C429 0.961 . S
H437 C429 0.960 . S
H438 C430 0.930 . S
H439 C431 0.929 1_554 S
H440 C448 0.929 . S
H441 C450 0.930 . S
H442 C452 0.930 . S
H443 C455 0.929 . S
H444 C458 0.930 . S
H445 C460 0.960 . S
H446 C460 0.960 . S
H447 C460 0.960 . S
C448 H440 0.929 . S
C448 C449 1.377 . S
C448 C450 1.384 . S
C449 C448 1.377 . S
C449 C455 1.390 . S
C450 H441 0.930 . S
C450 C448 1.384 . S
C450 C451 1.372 . S
C451 C450 1.372 . S
C451 C452 1.400 . S
C451 C456 1.490 . S
C452 H442 0.930 . S
C452 C451 1.400 . S
C452 C455 1.386 . S
H453 C469 0.930 . S
H454 C470 0.931 . S
C455 H443 0.929 . S
C455 C449 1.390 . S
C455 C452 1.386 . S
C456 C451 1.490 . S
C456 C458 1.395 . S
C456 C459 1.403 . S
H457 C463 0.930 . S
C458 H444 0.930 . S
C458 C456 1.395 . S
C458 C461 1.403 . S
C459 C456 1.403 . S
C459 C460 1.524 . S
C459 C463 1.400 . S
C460 H445 0.960 . S
C460 H446 0.960 . S
C460 H447 0.960 . S
C460 C459 1.524 . S
C461 C458 1.403 . S
C461 C462 1.392 . S
C461 C465 1.495 . S
C462 C461 1.392 . S
C462 C463 1.385 . S
C462 C464 1.478 . S
C463 H457 0.930 . S
C463 C459 1.400 . S
C463 C462 1.385 . S
C464 C462 1.478 . S
C464 C466 1.381 . S
C464 C470 1.383 . S
C465 C461 1.495 . S
C465 H471 0.959 . S
C465 H472 0.961 . S
C465 H473 0.960 . S
C466 C464 1.381 . S
C466 C467 1.394 . S
C466 H474 0.930 . S
C467 C466 1.394 . S
C467 C468 1.383 . S
C467 H475 0.929 . S
C468 C467 1.383 . S
C468 C469 1.377 . S
C469 H453 0.930 . S
C469 C468 1.377 . S
C469 C470 1.379 . S
C470 H454 0.931 . S
C470 C464 1.383 . S
C470 C469 1.379 . S
H471 C465 0.959 . S
H472 C465 0.961 . S
H473 C465 0.960 . S
H474 C466 0.930 . S
H475 C467 0.929 . S
H476 C484 0.929 . S
H477 C486 0.930 . S
H478 C488 0.930 . S
H479 C491 0.929 . S
H480 C494 0.930 . S
H481 C496 0.960 . S
H482 C496 0.960 . S
H483 C496 0.960 . S
C484 H476 0.929 . S
C484 C485 1.377 . S
C484 C486 1.384 . S
C485 C484 1.377 . S
C485 C491 1.390 . S
C486 H477 0.930 . S
C486 C484 1.384 . S
C486 C487 1.372 . S
C487 C486 1.372 . S
C487 C488 1.400 . S
C487 C492 1.490 . S
C488 H478 0.930 . S
C488 C487 1.400 . S
C488 C491 1.386 . S
H489 C505 0.930 1_556 S
H490 C506 0.931 . S
C491 H479 0.929 . S
C491 C485 1.390 . S
C491 C488 1.386 . S
C492 C487 1.490 . S
C492 C494 1.395 . S
C492 C495 1.403 . S
H493 C499 0.930 . S
C494 H480 0.930 . S
C494 C492 1.395 . S
C494 C497 1.403 . S
C495 C492 1.403 . S
C495 C496 1.524 . S
C495 C499 1.400 . S
C496 H481 0.960 . S
C496 H482 0.960 . S
C496 H483 0.960 . S
C496 C495 1.524 . S
C497 C494 1.403 . S
C497 C498 1.392 . S
C497 C501 1.495 . S
C498 C497 1.392 . S
C498 C499 1.385 . S
C498 C500 1.478 . S
C499 H493 0.930 . S
C499 C495 1.400 . S
C499 C498 1.385 . S
C500 C498 1.478 . S
C500 C502 1.381 . S
C500 C506 1.383 . S
C501 C497 1.495 . S
C501 H507 0.959 . S
C501 H508 0.961 . S
C501 H509 0.960 . S
C502 C500 1.381 . S
C502 C503 1.394 . S
C502 H510 0.930 . S
C503 C502 1.394 . S
C503 C504 1.383 . S
C503 H511 0.929 . S
C504 C503 1.383 . S
C504 C505 1.377 . S
C505 H489 0.930 1_554 S
C505 C504 1.377 . S
C505 C506 1.379 . S
C506 H490 0.931 . S
C506 C500 1.383 . S
C506 C505 1.379 . S
H507 C501 0.959 . S
H508 C501 0.961 . S
H509 C501 0.960 . S
H510 C502 0.930 . S
H511 C503 0.929 . S
H512 C520 0.929 . S
H513 C522 0.930 . S
H514 C524 0.930 . S
H515 C527 0.929 . S
H516 C530 0.930 . S
H517 C532 0.960 . S
H518 C532 0.960 . S
H519 C532 0.960 . S
C520 H512 0.929 . S
C520 C521 1.377 . S
C520 C522 1.384 . S
C521 C520 1.377 . S
C521 C527 1.390 . S
C522 H513 0.930 . S
C522 C520 1.384 . S
C522 C523 1.372 . S
C523 C522 1.372 . S
C523 C524 1.400 . S
C523 C528 1.490 . S
C524 H514 0.930 . S
C524 C523 1.400 . S
C524 C527 1.386 . S
H525 C541 0.930 . S
H526 C542 0.931 1_554 S
C527 H515 0.929 . S
C527 C521 1.390 . S
C527 C524 1.386 . S
C528 C523 1.490 . S
C528 C530 1.395 . S
C528 C531 1.403 . S
H529 C535 0.930 . S
C530 H516 0.930 . S
C530 C528 1.395 . S
C530 C533 1.403 . S
C531 C528 1.403 . S
C531 C532 1.524 . S
C531 C535 1.400 . S
C532 H517 0.960 . S
C532 H518 0.960 . S
C532 H519 0.960 . S
C532 C531 1.524 . S
C533 C530 1.403 . S
C533 C534 1.392 . S
C533 C537 1.495 . S
C534 C533 1.392 . S
C534 C535 1.385 . S
C534 C536 1.478 . S
C535 H529 0.930 . S
C535 C531 1.400 . S
C535 C534 1.385 . S
C536 C534 1.478 . S
C536 C538 1.381 . S
C536 C542 1.383 . S
C537 C533 1.495 . S
C537 H543 0.959 . S
C537 H544 0.961 . S
C537 H545 0.960 . S
C538 C536 1.381 . S
C538 C539 1.394 . S
C538 H546 0.930 . S
C539 C538 1.394 . S
C539 C540 1.383 . S
C539 H547 0.929 . S
C540 C539 1.383 . S
C540 C541 1.377 1_556 S
C541 H525 0.930 . S
C541 C540 1.377 1_554 S
C541 C542 1.379 1_554 S
C542 H526 0.931 1_556 S
C542 C536 1.383 . S
C542 C541 1.379 1_556 S
H543 C537 0.959 . S
H544 C537 0.961 . S
H545 C537 0.960 . S
H546 C538 0.930 . S
H547 C539 0.929 . S
H548 C556 0.929 . S
H549 C558 0.930 . S
H550 C560 0.930 . S
H551 C563 0.929 . S
H552 C566 0.930 . S
H553 C568 0.960 . S
H554 C568 0.960 . S
H555 C568 0.960 . S
C556 H548 0.929 . S
C556 C557 1.377 . S
C556 C558 1.384 . S
C557 C556 1.377 . S
C557 C563 1.390 . S
C558 H549 0.930 . S
C558 C556 1.384 . S
C558 C559 1.372 . S
C559 C558 1.372 . S
C559 C560 1.400 . S
C559 C564 1.490 . S
C560 H550 0.930 . S
C560 C559 1.400 . S
C560 C563 1.386 . S
H561 C577 0.930 . S
H562 C578 0.931 . S
C563 H551 0.929 . S
C563 C557 1.390 . S
C563 C560 1.386 . S
C564 C559 1.490 . S
C564 C566 1.395 . S
C564 C567 1.403 . S
H565 C571 0.930 . S
C566 H552 0.930 . S
C566 C564 1.395 . S
C566 C569 1.403 . S
C567 C564 1.403 . S
C567 C568 1.524 . S
C567 C571 1.400 . S
C568 H553 0.960 . S
C568 H554 0.960 . S
C568 H555 0.960 . S
C568 C567 1.524 . S
C569 C566 1.403 . S
C569 C570 1.392 . S
C569 C573 1.495 . S
C570 C569 1.392 . S
C570 C571 1.385 . S
C570 C572 1.478 . S
C571 H565 0.930 . S
C571 C567 1.400 . S
C571 C570 1.385 . S
C572 C570 1.478 . S
C572 C574 1.381 . S
C572 C578 1.383 1_655 S
C573 C569 1.495 . S
C573 H579 0.959 . S
C573 H580 0.961 . S
C573 H581 0.960 . S
C574 C572 1.381 . S
C574 C575 1.394 . S
C574 H582 0.930 . S
C575 C574 1.394 . S
C575 C576 1.383 1_655 S
C575 H583 0.929 . S
C576 C575 1.383 1_455 S
C576 C577 1.377 . S
C577 H561 0.930 . S
C577 C576 1.377 . S
C577 C578 1.379 . S
C578 H562 0.931 . S
C578 C572 1.383 1_455 S
C578 C577 1.379 . S
H579 C573 0.959 . S
H580 C573 0.961 . S
H581 C573 0.960 . S
H582 C574 0.930 . S
H583 C575 0.929 . S
H584 C592 0.929 . S
H585 C594 0.930 . S
H586 C596 0.930 . S
H587 C599 0.929 . S
H588 C602 0.930 . S
H589 C604 0.960 . S
H590 C604 0.960 . S
H591 C604 0.960 . S
C592 H584 0.929 . S
C592 C593 1.377 . S
C592 C594 1.384 . S
C593 C592 1.377 . S
C593 C599 1.390 . S
C594 H585 0.930 . S
C594 C592 1.384 . S
C594 C595 1.372 . S
C595 C594 1.372 . S
C595 C596 1.400 . S
C595 C600 1.490 . S
C596 H586 0.930 . S
C596 C595 1.400 . S
C596 C599 1.386 . S
H597 C613 0.930 . S
H598 C614 0.931 . S
C599 H587 0.929 . S
C599 C593 1.390 . S
C599 C596 1.386 . S
C600 C595 1.490 . S
C600 C602 1.395 . S
C600 C603 1.403 . S
H601 C607 0.930 . S
C602 H588 0.930 . S
C602 C600 1.395 . S
C602 C605 1.403 . S
C603 C600 1.403 . S
C603 C604 1.524 . S
C603 C607 1.400 . S
C604 H589 0.960 . S
C604 H590 0.960 . S
C604 H591 0.960 . S
C604 C603 1.524 . S
C605 C602 1.403 . S
C605 C606 1.392 . S
C605 C609 1.495 . S
C606 C605 1.392 . S
C606 C607 1.385 . S
C606 C608 1.478 . S
C607 H601 0.930 . S
C607 C603 1.400 . S
C607 C606 1.385 . S
C608 C606 1.478 . S
C608 C610 1.381 . S
C608 C614 1.383 . S
C609 C605 1.495 . S
C609 H615 0.959 . S
C609 H616 0.961 . S
C609 H617 0.960 . S
C610 C608 1.381 . S
C610 C611 1.394 . S
C610 H618 0.930 . S
C611 C610 1.394 . S
C611 C612 1.383 . S
C611 H619 0.929 . S
C612 C611 1.383 . S
C612 C613 1.377 . S
C613 H597 0.930 . S
C613 C612 1.377 . S
C613 C614 1.379 . S
C614 H598 0.931 . S
C614 C608 1.383 . S
C614 C613 1.379 . S
H615 C609 0.959 . S
H616 C609 0.961 . S
H617 C609 0.960 . S
H618 C610 0.930 . S
H619 C611 0.929 . S
H620 C628 0.929 . S
H621 C630 0.930 . S
H622 C632 0.930 . S
H623 C635 0.929 . S
H624 C638 0.930 . S
H625 C640 0.960 . S
H626 C640 0.960 . S
H627 C640 0.960 . S
C628 H620 0.929 . S
C628 C629 1.377 . S
C628 C630 1.384 . S
C629 C628 1.377 . S
C629 C635 1.390 . S
C630 H621 0.930 . S
C630 C628 1.384 . S
C630 C631 1.372 . S
C631 C630 1.372 . S
C631 C632 1.400 . S
C631 C636 1.490 . S
C632 H622 0.930 . S
C632 C631 1.400 . S
C632 C635 1.386 . S
H633 C649 0.930 . S
H634 C650 0.931 . S
C635 H623 0.929 . S
C635 C629 1.390 . S
C635 C632 1.386 . S
C636 C631 1.490 . S
C636 C638 1.395 . S
C636 C639 1.403 . S
H637 C643 0.930 . S
C638 H624 0.930 . S
C638 C636 1.395 . S
C638 C641 1.403 . S
C639 C636 1.403 . S
C639 C640 1.524 . S
C639 C643 1.400 . S
C640 H625 0.960 . S
C640 H626 0.960 . S
C640 H627 0.960 . S
C640 C639 1.524 . S
C641 C638 1.403 . S
C641 C642 1.392 . S
C641 C645 1.495 1_565 S
C642 C641 1.392 . S
C642 C643 1.385 . S
C642 C644 1.478 . S
C643 H637 0.930 . S
C643 C639 1.400 . S
C643 C642 1.385 . S
C644 C642 1.478 . S
C644 C646 1.381 . S
C644 C650 1.383 1_655 S
C645 C641 1.495 1_545 S
C645 H651 0.959 . S
C645 H652 0.961 . S
C645 H653 0.960 . S
C646 C644 1.381 . S
C646 C647 1.394 . S
C646 H654 0.930 . S
C647 C646 1.394 . S
C647 C648 1.383 1_655 S
C647 H655 0.929 . S
C648 C647 1.383 1_455 S
C648 C649 1.377 . S
C649 H633 0.930 . S
C649 C648 1.377 . S
C649 C650 1.379 . S
C650 H634 0.931 . S
C650 C644 1.383 1_455 S
C650 C649 1.379 . S
H651 C645 0.959 . S
H652 C645 0.961 . S
H653 C645 0.960 . S
H654 C646 0.930 . S
H655 C647 0.929 . S
H656 C664 0.929 . S
H657 C666 0.930 . S
H658 C668 0.930 . S
H659 C671 0.929 . S
H660 C674 0.930 . S
H661 C676 0.960 . S
H662 C676 0.960 . S
H663 C676 0.960 . S
C664 H656 0.929 . S
C664 C665 1.377 . S
C664 C666 1.384 . S
C665 C664 1.377 . S
C665 C671 1.390 . S
C666 H657 0.930 . S
C666 C664 1.384 . S
C666 C667 1.372 . S
C667 C666 1.372 . S
C667 C668 1.400 . S
C667 C672 1.490 . S
C668 H658 0.930 . S
C668 C667 1.400 . S
C668 C671 1.386 . S
H669 C685 0.930 . S
H670 C686 0.931 . S
C671 H659 0.929 . S
C671 C665 1.390 . S
C671 C668 1.386 . S
C672 C667 1.490 . S
C672 C674 1.395 . S
C672 C675 1.403 . S
H673 C679 0.930 . S
C674 H660 0.930 . S
C674 C672 1.395 . S
C674 C677 1.403 . S
C675 C672 1.403 . S
C675 C676 1.524 . S
C675 C679 1.400 . S
C676 H661 0.960 . S
C676 H662 0.960 . S
C676 H663 0.960 . S
C676 C675 1.524 . S
C677 C674 1.403 . S
C677 C678 1.392 . S
C677 C681 1.495 . S
C678 C677 1.392 . S
C678 C679 1.385 . S
C678 C680 1.478 . S
C679 H673 0.930 . S
C679 C675 1.400 . S
C679 C678 1.385 . S
C680 C678 1.478 . S
C680 C682 1.381 . S
C680 C686 1.383 . S
C681 C677 1.495 . S
C681 H687 0.959 . S
C681 H688 0.961 . S
C681 H689 0.960 . S
C682 C680 1.381 . S
C682 C683 1.394 . S
C682 H690 0.930 . S
C683 C682 1.394 . S
C683 C684 1.383 . S
C683 H691 0.929 . S
C684 C683 1.383 . S
C684 C685 1.377 . S
C685 H669 0.930 . S
C685 C684 1.377 . S
C685 C686 1.379 . S
C686 H670 0.931 . S
C686 C680 1.383 . S
C686 C685 1.379 . S
H687 C681 0.959 . S
H688 C681 0.961 . S
H689 C681 0.960 . S
H690 C682 0.930 . S
H691 C683 0.929 . S
H692 C700 0.929 . S
H693 C702 0.930 . S
H694 C704 0.930 . S
H695 C707 0.929 . S
H696 C710 0.930 . S
H697 C712 0.960 . S
H698 C712 0.960 . S
H699 C712 0.960 . S
C700 H692 0.929 . S
C700 C701 1.377 . S
C700 C702 1.384 . S
C701 C700 1.377 . S
C701 C707 1.390 . S
C702 H693 0.930 . S
C702 C700 1.384 . S
C702 C703 1.372 . S
C703 C702 1.372 . S
C703 C704 1.400 . S
C703 C708 1.490 . S
C704 H694 0.930 . S
C704 C703 1.400 . S
C704 C707 1.386 . S
H705 C721 0.930 . S
H706 C722 0.931 . S
C707 H695 0.929 . S
C707 C701 1.390 . S
C707 C704 1.386 . S
C708 C703 1.490 . S
C708 C710 1.395 . S
C708 C711 1.403 . S
H709 C715 0.930 . S
C710 H696 0.930 . S
C710 C708 1.395 . S
C710 C713 1.403 . S
C711 C708 1.403 . S
C711 C712 1.524 . S
C711 C715 1.400 . S
C712 H697 0.960 . S
C712 H698 0.960 . S
C712 H699 0.960 . S
C712 C711 1.524 . S
C713 C710 1.403 . S
C713 C714 1.392 . S
C713 C717 1.495 . S
C714 C713 1.392 . S
C714 C715 1.385 . S
C714 C716 1.478 . S
C715 H709 0.930 . S
C715 C711 1.400 . S
C715 C714 1.385 . S
C716 C714 1.478 . S
C716 C718 1.381 . S
C716 C722 1.383 . S
C717 C713 1.495 . S
C717 H723 0.959 . S
C717 H724 0.961 . S
C717 H725 0.960 . S
C718 C716 1.381 . S
C718 C719 1.394 . S
C718 H726 0.930 . S
C719 C718 1.394 . S
C719 C720 1.383 . S
C719 H727 0.929 . S
C720 C719 1.383 . S
C720 C721 1.377 . S
C721 H705 0.930 . S
C721 C720 1.377 . S
C721 C722 1.379 . S
C722 H706 0.931 . S
C722 C716 1.383 . S
C722 C721 1.379 . S
H723 C717 0.959 . S
H724 C717 0.961 . S
H725 C717 0.960 . S
H726 C718 0.930 . S
H727 C719 0.929 . S
H728 C736 0.929 . S
H729 C738 0.930 . S
H730 C740 0.930 . S
H731 C743 0.929 . S
H732 C746 0.930 . S
H733 C748 0.960 . S
H734 C748 0.960 . S
H735 C748 0.960 . S
C736 H728 0.929 . S
C736 C737 1.377 . S
C736 C738 1.384 . S
C737 C736 1.377 . S
C737 C743 1.390 . S
C738 H729 0.930 . S
C738 C736 1.384 . S
C738 C739 1.372 . S
C739 C738 1.372 . S
C739 C740 1.400 . S
C739 C744 1.490 . S
C740 H730 0.930 . S
C740 C739 1.400 . S
C740 C743 1.386 . S
H741 C757 0.930 1_655 S
H742 C758 0.931 . S
C743 H731 0.929 . S
C743 C737 1.390 . S
C743 C740 1.386 . S
C744 C739 1.490 . S
C744 C746 1.395 . S
C744 C747 1.403 . S
H745 C751 0.930 . S
C746 H732 0.930 . S
C746 C744 1.395 . S
C746 C749 1.403 . S
C747 C744 1.403 . S
C747 C748 1.524 . S
C747 C751 1.400 . S
C748 H733 0.960 . S
C748 H734 0.960 . S
C748 H735 0.960 . S
C748 C747 1.524 . S
C749 C746 1.403 . S
C749 C750 1.392 . S
C749 C753 1.495 . S
C750 C749 1.392 . S
C750 C751 1.385 . S
C750 C752 1.478 . S
C751 H745 0.930 . S
C751 C747 1.400 . S
C751 C750 1.385 . S
C752 C750 1.478 . S
C752 C754 1.381 . S
C752 C758 1.383 . S
C753 C749 1.495 . S
C753 H759 0.959 . S
C753 H760 0.961 . S
C753 H761 0.960 . S
C754 C752 1.381 . S
C754 C755 1.394 . S
C754 H762 0.930 . S
C755 C754 1.394 . S
C755 C756 1.383 . S
C755 H763 0.929 . S
C756 C755 1.383 . S
C756 C757 1.377 . S
C757 H741 0.930 1_455 S
C757 C756 1.377 . S
C757 C758 1.379 . S
C758 H742 0.931 . S
C758 C752 1.383 . S
C758 C757 1.379 . S
H759 C753 0.959 . S
H760 C753 0.961 . S
H761 C753 0.960 . S
H762 C754 0.930 . S
H763 C755 0.929 . S
H764 C772 0.929 . S
H765 C774 0.930 . S
H766 C776 0.930 . S
H767 C779 0.929 . S
H768 C782 0.930 . S
H769 C784 0.960 . S
H770 C784 0.960 . S
H771 C784 0.960 . S
C772 H764 0.929 . S
C772 C773 1.377 . S
C772 C774 1.384 . S
C773 C772 1.377 . S
C773 C779 1.390 . S
C774 H765 0.930 . S
C774 C772 1.384 . S
C774 C775 1.372 . S
C775 C774 1.372 . S
C775 C776 1.400 . S
C775 C780 1.490 . S
C776 H766 0.930 . S
C776 C775 1.400 . S
C776 C779 1.386 . S
H777 C793 0.921 1_545 S
H778 C794 0.931 . S
C779 H767 0.929 . S
C779 C773 1.390 . S
C779 C776 1.386 . S
C780 C775 1.490 . S
C780 C782 1.395 . S
C780 C783 1.403 . S
H781 C787 0.930 1_545 S
C782 H768 0.930 . S
C782 C780 1.395 . S
C782 C785 1.403 . S
C783 C780 1.403 . S
C783 C784 1.524 1_565 S
C783 C787 1.400 . S
C784 H769 0.960 . S
C784 H770 0.960 . S
C784 H771 0.960 . S
C784 C783 1.524 1_545 S
C785 C782 1.403 . S
C785 C786 1.392 . S
C785 C789 1.495 . S
C786 C785 1.392 . S
C786 C787 1.385 . S
C786 C788 1.478 . S
C787 H781 0.930 1_565 S
C787 C783 1.400 . S
C787 C786 1.385 . S
C788 C786 1.478 . S
C788 C790 1.381 . S
C788 C794 1.383 1_556 S
C789 C785 1.495 . S
C789 H795 0.959 . S
C789 H796 0.961 . S
C789 H797 0.960 . S
C790 C788 1.381 . S
C790 C791 1.394 . S
C790 H798 0.930 . S
C791 C790 1.394 . S
C791 C792 1.383 1_556 S
C791 H799 0.929 . S
C792 C791 1.383 1_554 S
C792 C793 1.375 . S
C793 H777 0.921 1_565 S
C793 C792 1.375 . S
C793 C794 1.391 . S
C794 H778 0.931 . S
C794 C788 1.383 1_554 S
C794 C793 1.391 . S
H795 C789 0.959 . S
H796 C789 0.961 . S
H797 C789 0.960 . S
H798 C790 0.930 . S
H799 C791 0.929 . S
H800 C808 0.929 . S
H801 C810 0.930 . S
H802 C812 0.930 . S
H803 C815 0.929 . S
H804 C818 0.930 . S
H805 C820 0.960 . S
H806 C820 0.960 . S
H807 C820 0.960 . S
C808 H800 0.929 . S
C808 C809 1.377 . S
C808 C810 1.384 . S
C809 C808 1.377 . S
C809 C815 1.390 . S
C810 H801 0.930 . S
C810 C808 1.384 . S
C810 C811 1.372 . S
C811 C810 1.372 . S
C811 C812 1.400 . S
C811 C816 1.490 . S
C812 H802 0.930 . S
C812 C811 1.400 . S
C812 C815 1.386 . S
H813 C829 0.930 . S
H814 C830 0.931 . S
C815 H803 0.929 . S
C815 C809 1.390 . S
C815 C812 1.386 . S
C816 C811 1.490 . S
C816 C818 1.395 . S
C816 C819 1.403 . S
H817 C823 0.930 . S
C818 H804 0.930 . S
C818 C816 1.395 . S
C818 C821 1.403 . S
C819 C816 1.403 . S
C819 C820 1.524 . S
C819 C823 1.400 . S
C820 H805 0.960 . S
C820 H806 0.960 . S
C820 H807 0.960 . S
C820 C819 1.524 . S
C821 C818 1.403 . S
C821 C822 1.392 . S
C821 C825 1.495 . S
C822 C821 1.392 . S
C822 C823 1.385 . S
C822 C824 1.478 . S
C823 H817 0.930 . S
C823 C819 1.400 . S
C823 C822 1.385 . S
C824 C822 1.478 . S
C824 C826 1.381 . S
C824 C830 1.383 . S
C825 C821 1.495 . S
C825 H831 0.959 . S
C825 H832 0.961 . S
C825 H833 0.960 . S
C826 C824 1.381 . S
C826 C827 1.394 . S
C826 H834 0.930 . S
C827 C826 1.394 . S
C827 C828 1.383 . S
C827 H835 0.929 . S
C828 C827 1.383 . S
C828 C829 1.377 . S
C829 H813 0.930 . S
C829 C828 1.377 . S
C829 C830 1.379 . S
C830 H814 0.931 . S
C830 C824 1.383 . S
C830 C829 1.379 . S
H831 C825 0.959 . S
H832 C825 0.961 . S
H833 C825 0.960 . S
H834 C826 0.930 . S
H835 C827 0.929 . S
H836 C844 0.929 . S
H837 C846 0.930 . S
H838 C848 0.930 . S
H839 C851 0.929 . S
H840 C854 0.930 . S
H841 C856 0.960 . S
H842 C856 0.960 . S
H843 C856 0.960 . S
C844 H836 0.929 . S
C844 C845 1.377 . S
C844 C846 1.384 . S
C845 C844 1.377 . S
C845 C851 1.390 . S
C846 H837 0.930 . S
C846 C844 1.384 . S
C846 C847 1.372 . S
C847 C846 1.372 . S
C847 C848 1.400 . S
C847 C852 1.490 . S
C848 H838 0.930 . S
C848 C847 1.400 . S
C848 C851 1.386 . S
H849 C865 0.930 . S
H850 C866 0.931 . S
C851 H839 0.929 . S
C851 C845 1.390 . S
C851 C848 1.386 . S
C852 C847 1.490 . S
C852 C854 1.395 . S
C852 C855 1.403 . S
H853 C859 0.930 . S
C854 H840 0.930 . S
C854 C852 1.395 . S
C854 C857 1.403 . S
C855 C852 1.403 . S
C855 C856 1.524 . S
C855 C859 1.400 . S
C856 H841 0.960 . S
C856 H842 0.960 . S
C856 H843 0.960 . S
C856 C855 1.524 . S
C857 C854 1.403 . S
C857 C858 1.392 . S
C857 C861 1.495 . S
C858 C857 1.392 . S
C858 C859 1.385 . S
C858 C860 1.478 . S
C859 H853 0.930 . S
C859 C855 1.400 . S
C859 C858 1.385 . S
C860 C858 1.478 . S
C860 C862 1.381 . S
C860 C866 1.383 . S
C861 C857 1.495 . S
C861 H867 0.959 . S
C861 H868 0.961 . S
C861 H869 0.960 . S
C862 C860 1.381 . S
C862 C863 1.394 . S
C862 H870 0.930 . S
C863 C862 1.394 . S
C863 C864 1.383 . S
C863 H871 0.929 1_554 S
C864 C863 1.383 . S
C864 C865 1.377 . S
C865 H849 0.930 . S
C865 C864 1.377 . S
C865 C866 1.379 . S
C866 H850 0.931 . S
C866 C860 1.383 . S
C866 C865 1.379 . S
H867 C861 0.959 . S
H868 C861 0.961 . S
H869 C861 0.960 . S
H870 C862 0.930 . S
H871 C863 0.929 1_556 S
H872 C880 0.929 . S
H873 C882 0.930 . S
H874 C884 0.930 . S
H875 C887 0.929 . S
H876 C890 0.930 . S
H877 C892 0.960 . S
H878 C892 0.960 . S
H879 C892 0.960 . S
C880 H872 0.929 . S
C880 C881 1.377 . S
C880 C882 1.384 . S
C881 C880 1.377 . S
C881 C887 1.390 . S
C882 H873 0.930 . S
C882 C880 1.384 . S
C882 C883 1.372 . S
C883 C882 1.372 . S
C883 C884 1.400 . S
C883 C888 1.490 . S
C884 H874 0.930 . S
C884 C883 1.400 . S
C884 C887 1.386 . S
H885 C901 0.930 . S
H886 C902 0.931 . S
C887 H875 0.929 . S
C887 C881 1.390 . S
C887 C884 1.386 . S
C888 C883 1.490 . S
C888 C890 1.395 . S
C888 C891 1.403 . S
H889 C895 0.930 . S
C890 H876 0.930 . S
C890 C888 1.395 . S
C890 C893 1.403 . S
C891 C888 1.403 . S
C891 C892 1.524 . S
C891 C895 1.400 . S
C892 H877 0.960 . S
C892 H878 0.960 . S
C892 H879 0.960 . S
C892 C891 1.524 . S
C893 C890 1.403 . S
C893 C894 1.392 . S
C893 C897 1.495 . S
C894 C893 1.392 . S
C894 C895 1.385 . S
C894 C896 1.478 . S
C895 H889 0.930 . S
C895 C891 1.400 . S
C895 C894 1.385 . S
C896 C894 1.478 . S
C896 C898 1.381 . S
C896 C902 1.383 . S
C897 C893 1.495 . S
C897 H903 0.959 . S
C897 H904 0.961 . S
C897 H905 0.960 . S
C898 C896 1.381 . S
C898 C899 1.394 . S
C898 H906 0.930 . S
C899 C898 1.394 . S
C899 C900 1.383 . S
C899 H907 0.929 . S
C900 C899 1.383 . S
C900 C901 1.377 . S
C901 H885 0.930 . S
C901 C900 1.377 . S
C901 C902 1.379 . S
C902 H886 0.931 . S
C902 C896 1.383 . S
C902 C901 1.379 . S
H903 C897 0.959 . S
H904 C897 0.961 . S
H905 C897 0.960 . S
H906 C898 0.930 . S
H907 C899 0.929 . S
H908 C916 0.929 . S
H909 C918 0.930 . S
H910 C920 0.930 . S
H911 C923 0.929 . S
H912 C926 0.930 . S
H913 C928 0.960 . S
H914 C928 0.960 . S
H915 C928 0.960 . S
C916 H908 0.929 . S
C916 C917 1.377 . S
C916 C918 1.384 . S
C917 C916 1.377 . S
C917 C923 1.390 . S
C918 H909 0.930 . S
C918 C916 1.384 . S
C918 C919 1.372 . S
C919 C918 1.372 . S
C919 C920 1.400 . S
C919 C924 1.490 . S
C920 H910 0.930 . S
C920 C919 1.400 . S
C920 C923 1.386 . S
H921 C937 0.930 . S
H922 C938 0.931 . S
C923 H911 0.929 . S
C923 C917 1.390 . S
C923 C920 1.386 . S
C924 C919 1.490 . S
C924 C926 1.395 . S
C924 C927 1.403 . S
H925 C931 0.930 . S
C926 H912 0.930 . S
C926 C924 1.395 . S
C926 C929 1.403 . S
C927 C924 1.403 . S
C927 C928 1.524 . S
C927 C931 1.400 . S
C928 H913 0.960 . S
C928 H914 0.960 . S
C928 H915 0.960 . S
C928 C927 1.524 . S
C929 C926 1.403 . S
C929 C930 1.392 . S
C929 C933 1.495 . S
C930 C929 1.392 . S
C930 C931 1.385 . S
C930 C932 1.478 . S
C931 H925 0.930 . S
C931 C927 1.400 . S
C931 C930 1.385 . S
C932 C930 1.478 . S
C932 C934 1.381 . S
C932 C938 1.383 . S
C933 C929 1.495 . S
C933 H939 0.953 1_655 S
C933 H940 0.961 1_556 S
C933 H941 0.960 1_655 S
C934 C932 1.381 . S
C934 C935 1.394 . S
C934 H942 0.930 . S
C935 C934 1.394 . S
C935 C936 1.383 . S
C935 H943 0.929 1_655 S
C936 C935 1.383 . S
C936 C937 1.377 . S
C937 H921 0.930 . S
C937 C936 1.377 . S
C937 C938 1.379 . S
C938 H922 0.931 . S
C938 C932 1.383 . S
C938 C937 1.379 . S
H939 C933 0.953 1_455 S
H940 C933 0.961 1_554 S
H941 C933 0.960 1_455 S
H942 C934 0.930 . S
H943 C935 0.929 1_455 S
H944 C952 0.929 . S
H945 C954 0.930 . S
H946 C956 0.930 . S
H947 C959 0.929 . S
H948 C962 0.930 . S
H949 C964 0.960 . S
H950 C964 0.960 . S
H951 C964 0.960 . S
C952 H944 0.929 . S
C952 C953 1.377 . S
C952 C954 1.384 . S
C953 C952 1.377 . S
C953 C959 1.390 . S
C954 H945 0.930 . S
C954 C952 1.384 . S
C954 C955 1.372 . S
C955 C954 1.372 . S
C955 C956 1.400 . S
C955 C960 1.490 . S
C956 H946 0.930 . S
C956 C955 1.400 . S
C956 C959 1.386 . S
H957 C973 0.930 . S
H958 C974 0.931 . S
C959 H947 0.929 . S
C959 C953 1.390 . S
C959 C956 1.386 . S
C960 C955 1.490 . S
C960 C962 1.395 . S
C960 C963 1.403 . S
H961 C967 0.930 . S
C962 H948 0.930 . S
C962 C960 1.395 . S
C962 C965 1.403 . S
C963 C960 1.403 . S
C963 C964 1.524 . S
C963 C967 1.400 . S
C964 H949 0.960 . S
C964 H950 0.960 . S
C964 H951 0.960 . S
C964 C963 1.524 . S
C965 C962 1.403 . S
C965 C966 1.392 . S
C965 C969 1.495 . S
C966 C965 1.392 . S
C966 C967 1.385 . S
C966 C968 1.478 . S
C967 H961 0.930 . S
C967 C963 1.400 . S
C967 C966 1.385 . S
C968 C966 1.478 . S
C968 C970 1.381 . S
C968 C974 1.383 . S
C969 C965 1.495 . S
C969 H975 0.959 . S
C969 H976 0.961 . S
C969 H977 0.960 . S
C970 C968 1.381 . S
C970 C971 1.394 . S
C970 H978 0.930 . S
C971 C970 1.394 . S
C971 C972 1.383 . S
C971 H979 0.929 . S
C972 C971 1.383 . S
C972 C973 1.377 . S
C973 H957 0.930 . S
C973 C972 1.377 . S
C973 C974 1.379 . S
C974 H958 0.931 . S
C974 C968 1.383 . S
C974 C973 1.379 . S
H975 C969 0.959 . S
H976 C969 0.961 . S
H977 C969 0.960 . S
H978 C970 0.930 . S
H979 C971 0.929 . S
H980 C988 0.929 . S
H981 C990 0.930 . S
H982 C992 0.930 . S
H983 C995 0.929 . S
H984 C998 0.930 . S
H985 C1000 0.960 . S
H986 C1000 0.960 . S
H987 C1000 0.960 . S
C988 H980 0.929 . S
C988 C989 1.377 . S
C988 C990 1.384 . S
C989 C988 1.377 . S
C989 C995 1.390 . S
C990 H981 0.930 . S
C990 C988 1.384 . S
C990 C991 1.372 . S
C991 C990 1.372 . S
C991 C992 1.400 . S
C991 C996 1.490 . S
C992 H982 0.930 . S
C992 C991 1.400 . S
C992 C995 1.386 . S
H993 C1009 0.930 . S
H994 C1010 0.931 . S
C995 H983 0.929 . S
C995 C989 1.390 . S
C995 C992 1.386 . S
C996 C991 1.490 . S
C996 C998 1.395 . S
C996 C999 1.403 . S
H997 C1003 0.930 . S
C998 H984 0.930 . S
C998 C996 1.395 . S
C998 C1001 1.403 . S
C999 C996 1.403 . S
C999 C1000 1.524 . S
C999 C1003 1.400 . S
C1000 H985 0.960 . S
C1000 H986 0.960 . S
C1000 H987 0.960 . S
C1000 C999 1.524 . S
C1001 C998 1.403 . S
C1001 C1002 1.392 . S
C1001 C1005 1.495 . S
C1002 C1001 1.392 . S
C1002 C1003 1.385 . S
C1002 C1004 1.478 . S
C1003 H997 0.930 . S
C1003 C999 1.400 . S
C1003 C1002 1.385 . S
C1004 C1002 1.478 . S
C1004 C1006 1.381 . S
C1004 C1010 1.383 . S
C1005 C1001 1.495 . S
C1005 H1011 0.959 . S
C1005 H1012 0.961 . S
C1005 H1013 0.960 . S
C1006 C1004 1.381 . S
C1006 C1007 1.394 . S
C1006 H1014 0.930 . S
C1007 C1006 1.394 . S
C1007 C1008 1.383 . S
C1007 H1015 0.929 . S
C1008 C1007 1.383 . S
C1008 C1009 1.377 . S
C1009 H993 0.930 . S
C1009 C1008 1.377 . S
C1009 C1010 1.379 . S
C1010 H994 0.931 . S
C1010 C1004 1.383 . S
C1010 C1009 1.379 . S
H1011 C1005 0.959 . S
H1012 C1005 0.961 . S
H1013 C1005 0.960 . S
H1014 C1006 0.930 . S
H1015 C1007 0.929 . S
H1016 C1024 0.929 . S
H1017 C1026 0.930 . S
H1018 C1028 0.930 . S
H1019 C1031 0.929 . S
H1020 C1034 0.930 . S
H1021 C1036 0.960 . S
H1022 C1036 0.960 . S
H1023 C1036 0.960 . S
C1024 H1016 0.929 . S
C1024 C1025 1.377 . S
C1024 C1026 1.384 . S
C1025 C1024 1.377 . S
C1025 C1031 1.390 . S
C1026 H1017 0.930 . S
C1026 C1024 1.384 . S
C1026 C1027 1.372 . S
C1027 C1026 1.372 . S
C1027 C1028 1.400 . S
C1027 C1032 1.490 . S
C1028 H1018 0.930 . S
C1028 C1027 1.400 . S
C1028 C1031 1.386 . S
H1029 C1045 0.930 . S
H1030 C1046 0.931 . S
C1031 H1019 0.929 . S
C1031 C1025 1.390 . S
C1031 C1028 1.386 . S
C1032 C1027 1.490 . S
C1032 C1034 1.395 . S
C1032 C1035 1.403 . S
H1033 C1039 0.930 . S
C1034 H1020 0.930 . S
C1034 C1032 1.395 . S
C1034 C1037 1.403 . S
C1035 C1032 1.403 . S
C1035 C1036 1.524 . S
C1035 C1039 1.400 . S
C1036 H1021 0.960 . S
C1036 H1022 0.960 . S
C1036 H1023 0.960 . S
C1036 C1035 1.524 . S
C1037 C1034 1.403 . S
C1037 C1038 1.392 . S
C1037 C1041 1.495 . S
C1038 C1037 1.392 . S
C1038 C1039 1.385 . S
C1038 C1040 1.478 . S
C1039 H1033 0.930 . S
C1039 C1035 1.400 . S
C1039 C1038 1.385 . S
C1040 C1038 1.478 . S
C1040 C1042 1.381 . S
C1040 C1046 1.383 . S
C1041 C1037 1.495 . S
C1041 H1047 0.959 . S
C1041 H1048 0.961 . S
C1041 H1049 0.960 . S
C1042 C1040 1.381 . S
C1042 C1043 1.394 . S
C1042 H1050 0.930 . S
C1043 C1042 1.394 . S
C1043 C1044 1.383 . S
C1043 H1051 0.929 . S
C1044 C1043 1.383 . S
C1044 C1045 1.377 . S
C1045 H1029 0.930 . S
C1045 C1044 1.377 . S
C1045 C1046 1.379 . S
C1046 H1030 0.931 . S
C1046 C1040 1.383 . S
C1046 C1045 1.379 . S
H1047 C1041 0.959 . S
H1048 C1041 0.961 . S
H1049 C1041 0.960 . S
H1050 C1042 0.930 . S
H1051 C1043 0.929 . S
C197 N1 1.537 . S
C216 C120 1.515 . S
C233 N18 1.842 . S
C252 C142 1.803 . S
C288 C161 0.761 . S
C269 N28 0.900 . S
C305 N40 1.916 . S
C324 C182 1.633 . S
C360 C139 2.182 . S
C341 N5 2.239 . S
C396 C117 1.676 . S
C377 N14 1.716 . S
C432 C184 1.220 . S
C413 N31 1.272 . S
C468 C163 0.945 . S
C449 N41 1.013 . S
C485 N2 1.605 . S
C504 C181 1.565 . S
C540 C140 1.429 1_556 S
C521 N27 1.641 . S
C557 N44 1.760 . S
C576 C122 1.590 . S
C593 N15 1.314 . S
C612 C160 1.234 . S
C648 C118 1.903 . S
C629 N57 1.994 . S
C665 N70 1.111 . S
C684 C138 1.128 . S
C701 N79 1.343 . S
C720 C164 1.201 . S
C737 N93 1.440 . S
C756 C185 1.201 . S
C773 N54 1.639 . S
C792 C141 1.564 1_565 S
C828 C121 2.229 . S
C809 N66 2.291 . S
C864 C180 0.665 . S
C845 N80 0.614 . S
C900 C159 1.425 . S
C881 N96 1.479 . S
C917 N53 1.521 . S
C936 C183 1.513 . S
C972 C143 1.196 . S
C953 N83 1.365 . S
C1008 C119 1.458 . S
C989 N92 1.586 . S
C1025 N67 1.333 . S
C1044 C162 1.327 . S
