# Generated by pormake.
# Topology anh, (6,3)-cn, num edge types: 1
# Building blocks:
#     Node 0, Type 0, BuildingBlock: BETGAK_clean_sbu_0, # of connection points: 6
#     Node 1, Type 0, BuildingBlock: BETGAK_clean_sbu_0, # of connection points: 6
#     Node 2, Type 0, BuildingBlock: BETGAK_clean_sbu_0, # of connection points: 6
#     Node 3, Type 1, BuildingBlock: KAKCAD_clean_linker_0, # of connection points: 3
#     Node 4, Type 1, BuildingBlock: KAKCAD_clean_linker_0, # of connection points: 3
#     Node 5, Type 1, BuildingBlock: KAKCAD_clean_linker_0, # of connection points: 3
#     Node 6, Type 1, BuildingBlock: KAKCAD_clean_linker_0, # of connection points: 3
#     Node 7, Type 1, BuildingBlock: KAKCAD_clean_linker_0, # of connection points: 3
#     Node 8, Type 1, BuildingBlock: KAKCAD_clean_linker_0, # of connection points: 3
#     Edge 9, Type (0, 1), BuildingBlock: MIFKUJ_clean_linker_0, # of connection points: 2
#     Edge 10, Type (0, 1), BuildingBlock: MIFKUJ_clean_linker_0, # of connection points: 2
#     Edge 11, Type (0, 1), BuildingBlock: MIFKUJ_clean_linker_0, # of connection points: 2
#     Edge 12, Type (0, 1), BuildingBlock: MIFKUJ_clean_linker_0, # of connection points: 2
#     Edge 13, Type (0, 1), BuildingBlock: MIFKUJ_clean_linker_0, # of connection points: 2
#     Edge 14, Type (0, 1), BuildingBlock: MIFKUJ_clean_linker_0, # of connection points: 2
#     Edge 15, Type (0, 1), BuildingBlock: MIFKUJ_clean_linker_0, # of connection points: 2
#     Edge 16, Type (0, 1), BuildingBlock: MIFKUJ_clean_linker_0, # of connection points: 2
#     Edge 17, Type (0, 1), BuildingBlock: MIFKUJ_clean_linker_0, # of connection points: 2
#     Edge 18, Type (0, 1), BuildingBlock: MIFKUJ_clean_linker_0, # of connection points: 2
#     Edge 19, Type (0, 1), BuildingBlock: MIFKUJ_clean_linker_0, # of connection points: 2
#     Edge 20, Type (0, 1), BuildingBlock: MIFKUJ_clean_linker_0, # of connection points: 2
#     Edge 21, Type (0, 1), BuildingBlock: MIFKUJ_clean_linker_0, # of connection points: 2
#     Edge 22, Type (0, 1), BuildingBlock: MIFKUJ_clean_linker_0, # of connection points: 2
#     Edge 23, Type (0, 1), BuildingBlock: MIFKUJ_clean_linker_0, # of connection points: 2
#     Edge 24, Type (0, 1), BuildingBlock: MIFKUJ_clean_linker_0, # of connection points: 2
#     Edge 25, Type (0, 1), BuildingBlock: MIFKUJ_clean_linker_0, # of connection points: 2
#     Edge 26, Type (0, 1), BuildingBlock: MIFKUJ_clean_linker_0, # of connection points: 2
# Relax obj value: 0.164
# Max RMSD: 0.197
# Mean RMSD: 0.149
data_MOF--net-anh--node1-BETGAK_clean_sbu_0--node2-KAKCAD_clean_linker_0--edge1-MIFKUJ_clean_linker_0
_symmetry_space_group_name_H-M    P1
_symmetry_Int_Tables_number       1
_symmetry_cell_setting            triclinic
loop_
_symmetry_equiv_pos_as_xyz
'x, y, z'
_cell_length_a     45.89434
_cell_length_b     52.365796
_cell_length_c     82.569538
_cell_angle_alpha  92.731611
_cell_angle_beta   89.47817
_cell_angle_gamma 127.05357
loop_
_atom_site_label
_atom_site_type_symbol
_atom_site_fract_x
_atom_site_fract_y
_atom_site_fract_z
_atom_type_partial_charge
La0 La 0.091 0.51997 0.14817 0.0
La1 La 0.05251 0.54575 0.16218 0.0
C2 C 0.1322 0.51329 0.13169 0.0
C3 C 0.17058 0.52728 0.13533 0.0
C4 C 0.18182 0.52905 0.15136 0.0
C5 C 0.21774 0.54136 0.15495 0.0
C6 C 0.24362 0.55279 0.14266 0.0
C7 C 0.23284 0.55304 0.12676 0.0
C8 C 0.19651 0.54022 0.12312 0.0
C9 C 0.08698 0.51923 0.17997 0.0
C10 C 0.13547 0.59583 0.15662 0.0
C11 C 1.01616 0.55796 0.17935 0.0
C12 C 0.98406 0.54042 0.18953 0.0
C13 C 0.96775 0.50861 0.1932 0.0
C14 C 0.93483 0.49123 0.20141 0.0
C15 C 0.91805 0.50561 0.20617 0.0
C16 C 0.93599 0.53819 0.20342 0.0
C17 C 0.96863 0.55537 0.19509 0.0
C18 C 0.05921 0.54694 0.13038 0.0
C19 C 1.00948 0.47056 0.15488 0.0
O20 O 0.10846 0.49211 0.14172 0.0
O21 O 0.126 0.53386 0.12841 0.0
O22 O 0.08862 0.49923 0.17101 0.0
O23 O 0.09175 0.54047 0.1713 0.0
O24 O 0.13432 0.57224 0.14917 0.0
O25 O 0.10691 0.59069 0.16404 0.0
O26 O 1.01018 0.55038 0.16377 0.0
O27 O 1.04487 0.56098 0.18465 0.0
O28 O 0.06101 0.56899 0.13925 0.0
O29 O 0.05191 0.52499 0.13916 0.0
O30 O 1.01328 0.49353 0.16444 0.0
O31 O 1.03516 0.47705 0.1446 0.0
H32 H 0.16259 0.52009 0.16113 0.0
H33 H 0.22448 0.54015 0.16728 0.0
H34 H 0.25216 0.56221 0.11704 0.0
H35 H 0.18856 0.53995 0.11076 0.0
H36 H 0.97979 0.49693 0.18928 0.0
H37 H 0.92177 0.46625 0.20345 0.0
H38 H 0.92368 0.54993 0.20674 0.0
H39 H 0.98109 0.58001 0.19245 0.0
La40 La 0.59217 0.02062 0.48849 0.0
La41 La 0.54336 0.03938 0.48229 0.0
C42 C 0.62196 0.99736 0.49988 0.0
C43 C 0.61256 0.96594 0.5034 0.0
C44 C 0.58358 0.93757 0.49522 0.0
C45 C 0.5765 0.90822 0.49824 0.0
C46 C 0.5985 0.90685 0.5094 0.0
C47 C 0.62704 0.93534 0.51774 0.0
C48 C 0.63395 0.96456 0.51477 0.0
C49 C 0.58814 0.03174 0.45823 0.0
C50 C 0.50626 0.9667 0.48162 0.0
C51 C 0.51516 0.06511 0.47254 0.0
C52 C 0.52147 0.09618 0.47599 0.0
C53 C 0.49725 0.09739 0.4859 0.0
C54 C 0.5031 0.12647 0.48969 0.0
C55 C 0.5331 0.15513 0.4835 0.0
C56 C 0.5571 0.15385 0.47337 0.0
C57 C 0.55137 0.12472 0.46966 0.0
C58 C 0.54928 0.03008 0.51279 0.0
C59 C 0.63011 0.09363 0.48732 0.0
O60 O 0.6223 1.00288 0.48457 0.0
O61 O 0.60676 1.00747 0.50883 0.0
O62 O 0.61738 0.03835 0.46512 0.0
O63 O 0.56198 0.01745 0.46782 0.0
O64 O 0.53679 0.97455 0.48862 0.0
O65 O 0.50462 0.9887 0.4755 0.0
O66 O 0.50256 0.0458 0.4845 0.0
O67 O 0.54035 0.0655 0.46468 0.0
O68 O 0.51992 0.02361 0.50623 0.0
O69 O 0.57444 0.04347 0.50275 0.0
O70 O 0.59806 0.08567 0.48239 0.0
O71 O 0.63371 0.07202 0.49233 0.0
H72 H 0.56694 0.93823 0.48629 0.0
H73 H 0.5545 0.88678 0.49152 0.0
H74 H 0.64411 0.93507 0.5266 0.0
H75 H 0.65637 0.98621 0.52122 0.0
H76 H 0.47388 0.07581 0.49091 0.0
H77 H 0.48435 0.12647 0.49774 0.0
H78 H 0.58019 0.1753 0.46817 0.0
H79 H 0.57046 0.12465 0.46188 0.0
La80 La 0.60543 0.56058 0.84887 0.0
La81 La 0.55488 0.48975 0.85134 0.0
C82 C 0.6368 0.61704 0.84034 0.0
C83 C 0.62742 0.63894 0.8374 0.0
C84 C 0.64844 0.66964 0.84512 0.0
C85 C 0.64136 0.69148 0.8421 0.0
C86 C 0.61325 0.68323 0.83116 0.0
C87 C 0.59173 0.65217 0.82364 0.0
C88 C 0.59868 0.63021 0.82676 0.0
C89 C 0.59581 0.54041 0.87834 0.0
C90 C 0.51847 0.52475 0.85187 0.0
C91 C 0.52398 0.43274 0.8588 0.0
C92 C 0.52988 0.40814 0.85539 0.0
C93 C 0.50474 0.38101 0.84531 0.0
C94 C 0.51006 0.35783 0.84151 0.0
C95 C 0.54051 0.36097 0.84784 0.0
C96 C 0.56548 0.388 0.85811 0.0
C97 C 0.56025 0.41133 0.86183 0.0
C98 C 0.56461 0.50932 0.82163 0.0
C99 C 0.64259 0.5262 0.84985 0.0
O100 O 0.6357 0.60975 0.85537 0.0
O101 O 0.62332 0.59224 0.83012 0.0
O102 O 0.62661 0.56524 0.87339 0.0
O103 O 0.57173 0.52924 0.86734 0.0
O104 O 0.55052 0.54988 0.84683 0.0
O105 O 0.51522 0.49935 0.85675 0.0
O106 O 0.5141 0.44063 0.84634 0.0
O107 O 0.54804 0.45779 0.86822 0.0
O108 O 0.53437 0.4843 0.82672 0.0
O109 O 0.58877 0.52092 0.83267 0.0
O110 O 0.6095 0.49989 0.85297 0.0
O111 O 0.64717 0.55276 0.8461 0.0
H112 H 0.67062 0.67685 0.85343 0.0
H113 H 0.65801 0.71488 0.84838 0.0
H114 H 0.57008 0.64503 0.81504 0.0
H115 H 0.58188 0.60662 0.82068 0.0
H116 H 0.48105 0.37789 0.8402 0.0
H117 H 0.49055 0.33769 0.83336 0.0
H118 H 0.58895 0.39103 0.8634 0.0
H119 H 0.58006 0.43186 0.86973 0.0
C120 C 0.59214 0.06452 0.27654 0.0
C121 C 0.58155 0.03777 0.28514 0.0
C122 C 0.59326 0.06341 0.2596 0.0
C123 C 0.58445 0.0357 0.25089 0.0
C124 C 0.57447 0.00916 0.25964 0.0
C125 C 0.5727 0.01009 0.27654 0.0
C126 C 0.58516 0.03425 0.23279 0.0
C127 C 0.61125 0.06147 0.22439 0.0
C128 C 0.61142 0.06065 0.20731 0.0
C129 C 0.58581 0.03132 0.19855 0.0
C130 C 0.55993 1.00348 0.2068 0.0
C131 C 0.55946 1.00559 0.22384 0.0
C132 C 0.53254 0.97188 0.19809 0.0
C133 C 0.51278 0.96919 0.18433 0.0
C134 C 0.52363 0.94363 0.20454 0.0
C135 C 0.49417 0.91358 0.19822 0.0
C136 C 0.47311 0.91086 0.1851 0.0
C137 C 0.63856 0.09085 0.19902 0.0
C138 C 0.6469 0.12008 0.20529 0.0
C139 C 0.65781 0.09131 0.18554 0.0
C140 C 0.68561 0.12045 0.17892 0.0
C141 C 0.69477 0.1498 0.18561 0.0
C142 C 0.67466 0.14904 0.19879 0.0
C143 C 0.48336 0.9389 0.17785 0.0
H144 H 0.59884 0.08607 0.28292 0.0
H145 H 0.60043 0.08413 0.25335 0.0
H146 H 0.56829 0.98765 0.25346 0.0
H147 H 0.56491 0.9893 0.28292 0.0
H148 H 0.63199 0.08343 0.23119 0.0
H149 H 0.53829 0.98479 0.23017 0.0
H150 H 0.58593 0.03019 0.18542 0.0
H151 H 0.51882 0.99042 0.17909 0.0
H152 H 0.53882 0.94475 0.21487 0.0
H153 H 0.4873 0.89237 0.20386 0.0
H154 H 0.63227 0.12069 0.21549 0.0
H155 H 0.6522 0.06929 0.18042 0.0
H156 H 0.46753 0.93745 0.16771 0.0
H157 H 0.68102 0.17096 0.20449 0.0
H158 H 0.70009 0.11995 0.16863 0.0
C159 C 0.56309 0.54312 0.64168 0.0
C160 C 0.58873 0.54116 0.64948 0.0
C161 C 0.56138 0.54268 0.62476 0.0
C162 C 0.58511 0.54005 0.61526 0.0
C163 C 0.61092 0.5383 0.62306 0.0
C164 C 0.61282 0.53899 0.63999 0.0
C165 C 0.58262 0.53881 0.59726 0.0
C166 C 0.57878 0.55988 0.58945 0.0
C167 C 0.57586 0.55867 0.57245 0.0
C168 C 0.57679 0.53586 0.56322 0.0
C169 C 0.58052 0.51444 0.57085 0.0
C170 C 0.58352 0.51624 0.58787 0.0
C171 C 0.58038 0.48958 0.56121 0.0
C172 C 0.55521 0.47171 0.54826 0.0
C173 C 0.60445 0.48259 0.56535 0.0
C174 C 0.60284 0.45787 0.55703 0.0
C175 C 0.57709 0.43945 0.54433 0.0
C176 C 0.57233 0.58163 0.56449 0.0
C177 C 0.5492 0.58862 0.57087 0.0
C178 C 0.59313 0.59775 0.55093 0.0
C179 C 0.59166 0.62103 0.54423 0.0
C180 C 0.56918 0.62857 0.55087 0.0
C181 C 0.54761 0.61176 0.56414 0.0
C182 C 0.55353 0.4469 0.53994 0.0
H183 H 0.54437 0.54509 0.64866 0.0
H184 H 0.54102 0.54384 0.61911 0.0
H185 H 0.62977 0.53653 0.61606 0.0
H186 H 0.63269 0.5372 0.64565 0.0
H187 H 0.57893 0.57784 0.59663 0.0
H188 H 0.58539 0.49931 0.5939 0.0
H189 H 0.5745 0.53473 0.55012 0.0
H190 H 0.53609 0.4763 0.54483 0.0
H191 H 0.62445 0.49612 0.57515 0.0
H192 H 0.62117 0.45264 0.56085 0.0
H193 H 0.5325 0.57637 0.58119 0.0
H194 H 0.61137 0.59305 0.54579 0.0
H195 H 0.53366 0.43345 0.5301 0.0
H196 H 0.53022 0.61712 0.56964 0.0
H197 H 0.60832 0.63329 0.5339 0.0
C198 C 0.1171 0.55827 0.94802 0.0
C199 C 0.08407 0.53951 0.95629 0.0
C200 C 0.11733 0.55669 0.93104 0.0
C201 C 0.08455 0.53628 0.92191 0.0
C202 C 0.05157 0.51739 0.9302 0.0
C203 C 0.05134 0.51899 0.94715 0.0
C204 C 0.08463 0.53474 0.90382 0.0
C205 C 0.11147 0.53472 0.89554 0.0
C206 C 0.11191 0.53296 0.8785 0.0
C207 C 0.08407 0.53103 0.86956 0.0
C208 C 0.05698 0.53163 0.87783 0.0
C209 C 0.05786 0.5334 0.89486 0.0
C210 C 1.02755 0.53135 0.86963 0.0
C211 C 1.02977 0.55941 0.8702 0.0
C212 C 0.99367 0.50226 0.86506 0.0
C213 C 0.96279 0.50118 0.8616 0.0
C214 C 0.96461 0.52917 0.8627 0.0
C215 C 0.1427 0.53399 0.87099 0.0
C216 C 0.1791 0.56105 0.87415 0.0
C217 C 0.13698 0.5063 0.86382 0.0
C218 C 0.16672 0.50546 0.86043 0.0
C219 C 0.20323 0.53233 0.86406 0.0
C220 C 0.20874 0.56034 0.87067 0.0
C221 C 0.99904 0.55841 0.86671 0.0
H222 H 0.14276 0.57464 0.95466 0.0
H223 H 0.14317 0.57191 0.92507 0.0
H224 H 1.02589 0.50099 0.92358 0.0
H225 H 1.02547 0.50377 0.95311 0.0
H226 H 0.13206 0.53556 0.90243 0.0
H227 H 1.03759 0.53418 0.90121 0.0
H228 H 0.084 0.52986 0.85643 0.0
H229 H 0.05501 0.5821 0.87421 0.0
H230 H 0.99055 0.48004 0.86497 0.0
H231 H 0.93723 0.47815 0.85838 0.0
H232 H 0.18461 0.58254 0.88005 0.0
H233 H 0.10941 0.48474 0.86158 0.0
H234 H 1.00201 0.58054 0.86799 0.0
H235 H 0.23601 0.58148 0.87391 0.0
H236 H 0.16097 0.48346 0.8552 0.0
C237 C 1.041 0.51238 0.36223 0.0
C238 C 0.07069 0.51704 0.35403 0.0
C239 C 1.04016 0.51244 0.37917 0.0
C240 C 0.06931 0.51776 0.3882 0.0
C241 C 0.09902 0.52246 0.38 0.0
C242 C 0.09954 0.5218 0.36305 0.0
C243 C 0.06909 0.51912 0.40616 0.0
C244 C 1.03882 0.49451 0.4144 0.0
C245 C 1.03801 0.49577 0.43146 0.0
C246 C 0.06817 0.52264 0.44025 0.0
C247 C 0.09882 0.54755 0.43208 0.0
C248 C 0.099 0.54533 0.41506 0.0
C249 C 0.13051 0.57672 0.4409 0.0
C250 C 0.12543 0.59464 0.45214 0.0
C251 C 0.1663 0.58868 0.43676 0.0
C252 C 0.19625 0.6185 0.44315 0.0
C253 C 0.1912 0.63726 0.45377 0.0
C254 C 1.00584 0.4684 0.43976 0.0
C255 C 0.97033 0.4532 0.43337 0.0
C256 C 1.01036 0.45564 0.45328 0.0
C257 C 0.98029 0.42757 0.45977 0.0
C258 C 0.94495 0.41162 0.45293 0.0
C259 C 0.94039 0.4252 0.43981 0.0
C260 C 0.15546 0.6247 0.45845 0.0
H261 H 1.01835 0.5085 0.35553 0.0
H262 H 1.01705 0.50895 0.38523 0.0
H263 H 0.12175 0.52648 0.3867 0.0
H264 H 0.12282 0.5256 0.357 0.0
H265 H 1.01622 0.47386 0.40744 0.0
H266 H 0.12208 0.56467 0.40864 0.0
H267 H 0.06783 0.52421 0.45338 0.0
H268 H 0.09816 0.58612 0.45547 0.0
H269 H 0.17106 0.57533 0.42817 0.0
H270 H 0.2233 0.62746 0.43919 0.0
H271 H 0.96573 0.46259 0.42311 0.0
H272 H 1.03731 0.46663 0.45847 0.0
H273 H 0.15066 0.6384 0.46675 0.0
H274 H 0.9138 0.4136 0.43407 0.0
H275 H 0.98483 0.41814 0.47004 0.0
C276 C 0.55604 0.99304 0.69334 0.0
C277 C 0.57935 0.02151 0.68522 0.0
C278 C 0.55677 0.99341 0.71027 0.0
C279 C 0.58073 0.02229 0.71949 0.0
C280 C 0.60421 0.05074 0.71138 0.0
C281 C 0.6036 0.05034 0.69443 0.0
C282 C 0.5809 0.02269 0.7375 0.0
C283 C 0.57916 0.99882 0.74555 0.0
C284 C 0.5785 0.99848 0.76257 0.0
C285 C 0.57979 0.02267 0.77158 0.0
C286 C 0.58167 0.0469 0.76373 0.0
C287 C 0.58223 0.04665 0.74669 0.0
C288 C 0.58217 0.07213 0.77314 0.0
C289 C 0.55846 0.06424 0.78609 0.0
C290 C 0.60534 0.10418 0.76877 0.0
C291 C 0.60426 0.12763 0.77688 0.0
C292 C 0.57993 0.11963 0.78957 0.0
C293 C 0.57679 0.9729 0.77076 0.0
C294 C 0.55398 0.94101 0.76443 0.0
C295 C 0.59895 0.98026 0.7845 0.0
C296 C 0.59905 0.95643 0.79144 0.0
C297 C 0.57688 0.92468 0.78485 0.0
C298 C 0.55404 0.91723 0.77137 0.0
C299 C 0.55729 0.0877 0.79419 0.0
H300 H 0.53727 0.9704 0.68659 0.0
H301 H 0.53812 0.97113 0.71615 0.0
H302 H 0.62321 0.07332 0.71814 0.0
H303 H 0.62166 0.07272 0.68855 0.0
H304 H 0.57913 0.98078 0.73852 0.0
H305 H 0.58254 0.06462 0.74052 0.0
H306 H 0.57924 0.02261 0.78471 0.0
H307 H 0.54008 0.03974 0.78969 0.0
H308 H 0.62419 0.11112 0.75896 0.0
H309 H 0.62184 0.15189 0.77291 0.0
H310 H 0.53622 0.93444 0.75398 0.0
H311 H 0.617 1.00461 0.78961 0.0
H312 H 0.53851 0.0808 0.80402 0.0
H313 H 0.53688 0.89313 0.76586 0.0
H314 H 0.61666 0.96292 0.80193 0.0
C315 C 0.52573 0.40654 0.04581 0.0
C316 C 0.51279 0.4216 0.03835 0.0
C317 C 0.51742 0.39797 0.06192 0.0
C318 C 0.49651 0.40479 0.07099 0.0
C319 C 0.48355 0.41981 0.06339 0.0
C320 C 0.49134 0.42785 0.04724 0.0
C321 C 0.48979 0.39799 0.08852 0.0
C322 C 0.51728 0.40264 0.09867 0.0
C323 C 0.5127 0.39979 0.11549 0.0
C324 C 0.48042 0.39241 0.12216 0.0
C325 C 0.45282 0.38812 0.11237 0.0
C326 C 0.4572 0.38974 0.09549 0.0
C327 C 0.4228 0.38726 0.12013 0.0
C328 C 0.40963 0.37399 0.13535 0.0
C329 C 0.41152 0.40446 0.11364 0.0
C330 C 0.39034 0.41053 0.12267 0.0
C331 C 0.3805 0.40003 0.13847 0.0
C332 C 0.54239 0.40652 0.12636 0.0
C333 C 0.56219 0.39472 0.12227 0.0
C334 C 0.55055 0.42431 0.14117 0.0
C335 C 0.57718 0.42944 0.15183 0.0
C336 C 0.59661 0.41732 0.14782 0.0
C337 C 0.58915 0.40016 0.13289 0.0
C338 C 0.38926 0.38089 0.14459 0.0
H339 H 0.54212 0.40127 0.03914 0.0
H340 H 0.52748 0.38607 0.06727 0.0
H341 H 0.46825 0.42631 0.07002 0.0
H342 H 0.48147 0.43986 0.04183 0.0
H343 H 0.54309 0.41019 0.09365 0.0
H344 H 0.43559 0.38556 0.08779 0.0
H345 H 0.47767 0.39147 0.13519 0.0
H346 H 0.41682 0.35982 0.14056 0.0
H347 H 0.42135 0.41552 0.10213 0.0
H348 H 0.38418 0.42571 0.11781 0.0
H349 H 0.55635 0.38077 0.11101 0.0
H350 H 0.53649 0.43447 0.14451 0.0
H351 H 0.38176 0.37252 0.15675 0.0
H352 H 0.60374 0.39048 0.12956 0.0
H353 H 0.58295 0.4433 0.16311 0.0
H354 H 0.28118 0.53934 0.1227 0.0
H355 H 0.32449 0.53054 0.13145 0.0
H356 H 0.32881 0.56887 0.17948 0.0
H357 H 0.28681 0.57976 0.17057 0.0
H358 H 0.39215 0.55726 0.15028 0.0
H359 H 0.29842 0.50674 0.20167 0.0
H360 H 0.24066 0.49573 0.21097 0.0
H361 H 0.19752 0.46879 0.16207 0.0
H362 H 0.25485 0.47929 0.15258 0.0
H363 H 0.41359 0.43854 0.16555 0.0
H364 H 0.40221 0.47559 0.17732 0.0
H365 H 0.30629 0.43069 0.14634 0.0
H366 H 0.31805 0.39418 0.13436 0.0
H367 H 0.30192 0.45649 0.17754 0.0
H368 H 0.38227 0.48438 0.13021 0.0
H369 H 0.43688 0.49336 0.11805 0.0
H370 H 0.50457 0.56432 0.15604 0.0
H371 H 0.45016 0.55532 0.16854 0.0
C372 C 0.29279 0.54778 0.13486 0.0
C373 C 0.27923 0.55905 0.14611 0.0
C374 C 0.31773 0.54268 0.13986 0.0
C375 C 0.32904 0.54833 0.15619 0.0
C376 C 0.31999 0.56405 0.16685 0.0
C377 C 0.29553 0.56978 0.16177 0.0
C378 C 0.34082 0.52985 0.16241 0.0
C379 C 0.37325 0.5359 0.15684 0.0
C380 C 0.31586 0.50175 0.17077 0.0
C381 C 0.28078 0.49388 0.17646 0.0
C382 C 0.27644 0.49823 0.19296 0.0
C383 C 0.24384 0.49213 0.19825 0.0
C384 C 0.21545 0.48159 0.18711 0.0
C385 C 0.21949 0.4769 0.17068 0.0
C386 C 0.25198 0.48288 0.16535 0.0
C387 C 0.38913 0.43566 0.16186 0.0
C388 C 0.36667 0.41375 0.14906 0.0
C389 C 0.38273 0.45683 0.16855 0.0
C390 C 0.35361 0.45595 0.16259 0.0
C391 C 0.32878 0.43157 0.15116 0.0
C392 C 0.3355 0.41079 0.14429 0.0
C393 C 0.35309 0.48373 0.16524 0.0
C394 C 0.32233 0.47903 0.17217 0.0
C395 C 0.37958 0.51303 0.15809 0.0
C396 C 0.41225 0.51899 0.15037 0.0
C397 C 0.4088 0.50179 0.13599 0.0
C398 C 0.43969 0.50687 0.12905 0.0
C399 C 0.47417 0.52935 0.13629 0.0
C400 C 0.47784 0.54687 0.15046 0.0
C401 C 0.447 0.54178 0.15748 0.0
H402 H 0.49806 0.53325 0.1309 0.0
H403 H 0.19032 0.47705 0.19121 0.0
H404 H 0.63239 0.1456 0.48087 0.0
H405 H 0.68623 0.20033 0.4771 0.0
H406 H 0.75592 0.17336 0.48773 0.0
H407 H 0.70208 0.11856 0.49186 0.0
H408 H 0.78417 0.23164 0.50111 0.0
H409 H 0.73738 0.17904 0.44868 0.0
H410 H 0.69011 0.14743 0.42711 0.0
H411 H 0.67512 0.22068 0.42541 0.0
H412 H 0.72188 0.25249 0.44718 0.0
H413 H 0.94375 0.36175 0.4631 0.0
H414 H 0.89098 0.3092 0.47099 0.0
H415 H 0.82106 0.3371 0.46351 0.0
H416 H 0.87376 0.38999 0.45597 0.0
H417 H 0.79337 0.27836 0.44869 0.0
H418 H 0.84228 0.33121 0.50136 0.0
H419 H 0.89012 0.3617 0.5228 0.0
H420 H 0.90274 0.28689 0.52332 0.0
H421 H 0.8553 0.25613 0.50171 0.0
C422 C 0.65914 0.15129 0.48256 0.0
C423 C 0.66284 0.12753 0.48656 0.0
C424 C 0.68996 0.18264 0.48033 0.0
C425 C 0.72521 0.1909 0.48181 0.0
C426 C 0.72904 0.16758 0.48645 0.0
C427 C 0.69819 0.1362 0.48879 0.0
C428 C 0.75789 0.22348 0.47794 0.0
C429 C 0.78636 0.2417 0.48957 0.0
C430 C 0.76066 0.23685 0.46296 0.0
C431 C 0.73292 0.21802 0.44967 0.0
C432 C 0.72385 0.18832 0.44378 0.0
C433 C 0.69716 0.17037 0.43151 0.0
C434 C 0.67958 0.18202 0.42491 0.0
C435 C 0.68874 0.21168 0.43054 0.0
C436 C 0.71535 0.22969 0.44284 0.0
C437 C 0.91732 0.35704 0.46343 0.0
C438 C 0.91318 0.38028 0.45885 0.0
C439 C 0.88708 0.32684 0.46788 0.0
C440 C 0.85201 0.31917 0.46788 0.0
C441 C 0.84781 0.34239 0.46352 0.0
C442 C 0.87803 0.37263 0.45916 0.0
C443 C 0.81952 0.28663 0.47191 0.0
C444 C 0.79113 0.26835 0.46025 0.0
C445 C 0.81704 0.27311 0.48678 0.0
C446 C 0.84549 0.29152 0.4998 0.0
C447 C 0.85547 0.32138 0.50595 0.0
C448 C 0.88247 0.33869 0.51815 0.0
C449 C 0.89952 0.32628 0.52439 0.0
C450 C 0.88954 0.29649 0.51846 0.0
C451 C 0.86257 0.2791 0.50625 0.0
H452 H 0.92042 0.33972 0.53384 0.0
H453 H 0.65892 0.16809 0.41541 0.0
H454 H 0.66472 0.7476 0.82763 0.0
H455 H 0.65497 0.78709 0.82156 0.0
H456 H 0.53858 0.71314 0.81926 0.0
H457 H 0.54795 0.6734 0.8258 0.0
H458 H 0.56332 0.75283 0.79343 0.0
H459 H 0.57452 0.76399 0.85129 0.0
H460 H 0.60292 0.77129 0.878 0.0
H461 H 0.69884 0.86283 0.86522 0.0
H462 H 0.67122 0.85587 0.83833 0.0
H463 H 0.52011 0.86187 0.78952 0.0
H464 H 0.52349 0.81996 0.79866 0.0
H465 H 0.64047 0.88866 0.80443 0.0
H466 H 0.63738 0.93065 0.79519 0.0
H467 H 0.61164 0.84967 0.82951 0.0
H468 H 0.6026 0.83741 0.77131 0.0
H469 H 0.57531 0.83037 0.74435 0.0
H470 H 0.47644 0.74118 0.75751 0.0
H471 H 0.503 0.74792 0.78466 0.0
C472 C 0.63696 0.73969 0.82611 0.0
C473 C 0.60711 0.70724 0.82734 0.0
C474 C 0.63147 0.76234 0.82255 0.0
C475 C 0.59604 0.75312 0.82012 0.0
C476 C 0.56616 0.72076 0.82111 0.0
C477 C 0.5716 0.69806 0.82477 0.0
C478 C 0.59047 0.77733 0.81626 0.0
C479 C 0.57329 0.77372 0.80145 0.0
C480 C 0.60423 0.80494 0.82655 0.0
C481 C 0.62092 0.80926 0.84273 0.0
C482 C 0.6018 0.78556 0.85412 0.0
C483 C 0.61773 0.78966 0.8693 0.0
C484 C 0.65269 0.81747 0.87329 0.0
C485 C 0.67177 0.84128 0.86211 0.0
C486 C 0.65597 0.83728 0.8469 0.0
C487 C 0.54658 0.86807 0.7927 0.0
C488 C 0.5785 0.89962 0.79152 0.0
C489 C 0.54845 0.84408 0.79795 0.0
C490 C 0.58229 0.85107 0.80203 0.0
C491 C 0.61406 0.88271 0.80136 0.0
C492 C 0.61222 0.90673 0.79612 0.0
C493 C 0.58475 0.82531 0.80662 0.0
C494 C 0.60139 0.82865 0.82155 0.0
C495 C 0.57062 0.7975 0.79641 0.0
C496 C 0.55464 0.79335 0.78008 0.0
C497 C 0.57493 0.81642 0.76851 0.0
C498 C 0.55962 0.81247 0.75318 0.0
C499 C 0.52412 0.78539 0.74923 0.0
C500 C 0.50391 0.76217 0.7606 0.0
C501 C 0.51908 0.76603 0.77595 0.0
H502 H 0.51232 0.78237 0.73736 0.0
H503 H 0.66498 0.8206 0.88505 0.0
H504 H 0.86148 0.44727 0.19324 0.0
H505 H 0.79751 0.42537 0.19405 0.0
H506 H 0.82264 0.49779 0.23077 0.0
H507 H 0.88722 0.52002 0.23004 0.0
H508 H 0.73711 0.40576 0.21261 0.0
H509 H 0.79218 0.53526 0.21631 0.0
H510 H 0.85035 0.58955 0.21477 0.0
H511 H 0.88938 0.55338 0.18014 0.0
H512 H 0.83141 0.49899 0.18148 0.0
H513 H 0.59193 0.40932 0.18046 0.0
H514 H 0.6401 0.42026 0.19911 0.0
H515 H 0.71336 0.44962 0.15914 0.0
H516 H 0.66557 0.43883 0.14054 0.0
H517 H 0.74378 0.49253 0.18644 0.0
H518 H 0.67354 0.37804 0.17215 0.0
H519 H 0.617 0.32251 0.17086 0.0
H520 H 0.60954 0.32642 0.22268 0.0
H521 H 0.66584 0.38218 0.22423 0.0
C522 C 0.85332 0.45762 0.20212 0.0
C523 C 0.87952 0.48597 0.21123 0.0
C524 C 0.81655 0.44497 0.20259 0.0
C525 C 0.80557 0.46052 0.21214 0.0
C526 C 0.83076 0.48578 0.22312 0.0
C527 C 0.86765 0.49856 0.22262 0.0
C528 C 0.77154 0.45573 0.20738 0.0
C529 C 0.73824 0.42487 0.20728 0.0
C530 C 0.77315 0.48057 0.2002 0.0
C531 C 0.80774 0.51318 0.19911 0.0
C532 C 0.8132 0.539 0.20836 0.0
C533 C 0.84611 0.56974 0.20753 0.0
C534 C 0.87358 0.57489 0.1974 0.0
C535 C 0.86812 0.54936 0.188 0.0
C536 C 0.83528 0.51859 0.1888 0.0
C537 C 0.6184 0.41819 0.17572 0.0
C538 C 0.62514 0.42319 0.15908 0.0
C539 C 0.64572 0.42431 0.18634 0.0
C540 C 0.68015 0.43576 0.18046 0.0
C541 C 0.68691 0.44087 0.16388 0.0
C542 C 0.65959 0.43448 0.15326 0.0
C543 C 0.70956 0.44244 0.19135 0.0
C544 C 0.74205 0.47371 0.19249 0.0
C545 C 0.70719 0.41787 0.19923 0.0
C546 C 0.67357 0.38436 0.19829 0.0
C547 C 0.65965 0.36714 0.18325 0.0
C548 C 0.6277 0.33562 0.18247 0.0
C549 C 0.60961 0.32098 0.19667 0.0
C550 C 0.62353 0.33781 0.21169 0.0
C551 C 0.65546 0.36936 0.21252 0.0
H552 H 0.58488 0.29657 0.19605 0.0
H553 H 0.89907 0.59868 0.1968 0.0
H554 H 0.50172 0.91343 0.48805 0.0
H555 H 0.44833 0.85721 0.4847 0.0
H556 H 0.38363 0.88615 0.46853 0.0
H557 H 0.43694 0.9424 0.47162 0.0
H558 H 0.3483 0.83819 0.49132 0.0
H559 H 0.41145 0.85912 0.44115 0.0
H560 H 0.46501 0.87774 0.42444 0.0
H561 H 0.47341 0.80785 0.44405 0.0
H562 H 0.4201 0.78907 0.46106 0.0
H563 H 0.19493 0.6915 0.4553 0.0
H564 H 0.24823 0.74662 0.46172 0.0
H565 H 0.31293 0.71373 0.47034 0.0
H566 H 0.25968 0.65848 0.46375 0.0
H567 H 0.34945 0.76361 0.45243 0.0
H568 H 0.28469 0.74074 0.50182 0.0
H569 H 0.23189 0.72263 0.51899 0.0
H570 H 0.22712 0.79612 0.50172 0.0
H571 H 0.27961 0.81441 0.48426 0.0
C572 C 0.47621 0.90791 0.48375 0.0
C573 C 0.47379 0.93251 0.47997 0.0
C574 C 0.44568 0.87572 0.48184 0.0
C575 C 0.41203 0.86747 0.47628 0.0
C576 C 0.40932 0.89196 0.47284 0.0
C577 C 0.43991 0.92412 0.47455 0.0
C578 C 0.37979 0.83331 0.47377 0.0
C579 C 0.34834 0.82192 0.48271 0.0
C580 C 0.38022 0.81192 0.46282 0.0
C581 C 0.41203 0.82292 0.4525 0.0
C582 C 0.42489 0.84788 0.44199 0.0
C583 C 0.45517 0.85844 0.43245 0.0
C584 C 0.47268 0.84405 0.43321 0.0
C585 C 0.45985 0.819 0.44349 0.0
C586 C 0.42957 0.80837 0.45307 0.0
C587 C 0.22032 0.6959 0.45885 0.0
C588 C 0.22294 0.67051 0.45906 0.0
C589 C 0.25087 0.72751 0.46251 0.0
C590 C 0.28469 0.73446 0.46669 0.0
C591 C 0.28725 0.70908 0.46713 0.0
C592 C 0.25675 0.67748 0.46336 0.0
C593 C 0.31762 0.76826 0.46999 0.0
C594 C 0.3493 0.77969 0.46116 0.0
C595 C 0.31742 0.78964 0.48111 0.0
C596 C 0.28589 0.77876 0.49162 0.0
C597 C 0.27222 0.75289 0.50159 0.0
C598 C 0.24237 0.74262 0.51139 0.0
C599 C 0.2261 0.75816 0.51142 0.0
C600 C 0.23972 0.78408 0.50167 0.0
C601 C 0.26954 0.79443 0.49183 0.0
H602 H 0.20299 0.75017 0.51901 0.0
H603 H 0.49613 0.85226 0.42582 0.0
H604 H 0.4888 0.29575 0.84403 0.0
H605 H 0.49775 0.25575 0.83558 0.0
H606 H 0.61403 0.32962 0.8342 0.0
H607 H 0.60512 0.37012 0.84177 0.0
H608 H 0.59246 0.29107 0.80836 0.0
H609 H 0.57312 0.27544 0.86521 0.0
H610 H 0.54116 0.26621 0.89093 0.0
H611 H 0.44699 0.17637 0.87087 0.0
H612 H 0.47821 0.18526 0.84495 0.0
H613 H 0.6358 0.18199 0.79878 0.0
H614 H 0.63114 0.22329 0.81027 0.0
H615 H 0.51374 0.15463 0.80978 0.0
H616 H 0.51818 0.11323 0.79826 0.0
H617 H 0.53864 0.19162 0.83754 0.0
H618 H 0.55737 0.20885 0.78036 0.0
H619 H 0.5895 0.21819 0.75468 0.0
H620 H 0.68553 0.30551 0.7757 0.0
H621 H 0.6541 0.29645 0.80159 0.0
C622 C 0.5163 0.30362 0.84181 0.0
C623 C 0.54622 0.33629 0.84356 0.0
C624 C 0.52143 0.28058 0.83718 0.0
C625 C 0.55664 0.28953 0.83447 0.0
C626 C 0.58661 0.32207 0.8363 0.0
C627 C 0.58148 0.3452 0.8408 0.0
C628 C 0.562 0.26507 0.82916 0.0
C629 C 0.58123 0.26961 0.81492 0.0
C630 C 0.54669 0.23666 0.83748 0.0
C631 C 0.52792 0.23115 0.85309 0.0
C632 C 0.54551 0.25382 0.86625 0.0
C633 C 0.52754 0.24863 0.88087 0.0
C634 C 0.49204 0.22076 0.88252 0.0
C635 C 0.47448 0.19797 0.86957 0.0
C636 C 0.49232 0.20305 0.85492 0.0
C637 C 0.60898 0.17569 0.80108 0.0
C638 C 0.57735 0.14432 0.79751 0.0
C639 C 0.60636 0.19932 0.80767 0.0
C640 C 0.57206 0.19219 0.81069 0.0
C641 C 0.5405 0.1607 0.80756 0.0
C642 C 0.54309 0.13703 0.80102 0.0
C643 C 0.56894 0.21764 0.81674 0.0
C644 C 0.55009 0.21323 0.83108 0.0
C645 C 0.58466 0.24622 0.80854 0.0
C646 C 0.60351 0.25179 0.79296 0.0
C647 C 0.58542 0.22992 0.77954 0.0
C648 C 0.6035 0.23518 0.76495 0.0
C649 C 0.63957 0.26238 0.76358 0.0
C650 C 0.65761 0.28443 0.77679 0.0
C651 C 0.63967 0.27925 0.79142 0.0
H652 H 0.65351 0.26642 0.75226 0.0
H653 H 0.47817 0.21679 0.89385 0.0
H654 H 0.53343 0.84727 0.51251 0.0
H655 H 0.52435 0.79717 0.5175 0.0
H656 H 0.64092 0.847 0.51759 0.0
H657 H 0.65012 0.89683 0.51221 0.0
H658 H 0.60534 0.78988 0.50067 0.0
H659 H 0.59524 0.82939 0.55287 0.0
H660 H 0.56969 0.84804 0.57223 0.0
H661 H 0.46338 0.75799 0.56525 0.0
H662 H 0.48823 0.73897 0.54566 0.0
H663 H 0.62798 0.68738 0.54188 0.0
H664 H 0.62865 0.73141 0.53279 0.0
H665 H 0.51148 0.67343 0.5365 0.0
H666 H 0.51064 0.62921 0.54566 0.0
H667 H 0.54199 0.73148 0.54994 0.0
H668 H 0.5525 0.69013 0.49932 0.0
H669 H 0.57761 0.67123 0.47987 0.0
H670 H 0.68197 0.76381 0.48343 0.0
H671 H 0.65763 0.78316 0.50309 0.0
C672 C 0.55709 0.84747 0.51344 0.0
C673 C 0.59252 0.87612 0.5121 0.0
C674 C 0.55188 0.81887 0.51641 0.0
C675 C 0.58199 0.81839 0.51809 0.0
C676 C 0.61729 0.84679 0.51638 0.0
C677 C 0.62251 0.87534 0.51347 0.0
C678 C 0.57705 0.78857 0.52193 0.0
C679 C 0.59174 0.77723 0.51151 0.0
C680 C 0.55841 0.77155 0.53583 0.0
C681 C 0.54351 0.7829 0.54767 0.0
C682 C 0.56636 0.81366 0.55537 0.0
C683 C 0.55201 0.82429 0.5664 0.0
C684 C 0.51491 0.80425 0.56993 0.0
C685 C 0.4921 0.77351 0.56247 0.0
C686 C 0.5063 0.76279 0.55141 0.0
C687 C 0.60227 0.68377 0.54051 0.0
C688 C 0.56924 0.65471 0.54446 0.0
C689 C 0.60269 0.70901 0.53532 0.0
C690 C 0.57006 0.70567 0.53378 0.0
C691 C 0.537 0.67661 0.5376 0.0
C692 C 0.53658 0.65137 0.54286 0.0
C693 C 0.57074 0.73296 0.52879 0.0
C694 C 0.55526 0.74386 0.539 0.0
C695 C 0.58856 0.74952 0.51466 0.0
C696 C 0.60329 0.73801 0.50279 0.0
C697 C 0.58088 0.7064 0.49605 0.0
C698 C 0.59496 0.69561 0.48497 0.0
C699 C 0.63138 0.71628 0.48044 0.0
C700 C 0.65377 0.74781 0.48696 0.0
C701 C 0.63983 0.75872 0.49806 0.0
H702 H 0.64224 0.70789 0.47186 0.0
H703 H 0.50386 0.81251 0.57848 0.0
H704 H 0.71396 0.57314 0.84154 0.0
H705 H 0.767 0.57281 0.84318 0.0
H706 H 0.69926 0.4782 0.86149 0.0
H707 H 0.64609 0.47842 0.85991 0.0
H708 H 0.76268 0.51398 0.87847 0.0
H709 H 0.73069 0.49187 0.82187 0.0
H710 H 0.71654 0.50099 0.79498 0.0
H711 H 0.82284 0.59162 0.79444 0.0
H712 H 0.83744 0.58324 0.82145 0.0
H713 H 0.8929 0.48161 0.87083 0.0
H714 H 0.83904 0.48026 0.86803 0.0
H715 H 0.90468 0.57274 0.84734 0.0
H716 H 0.95849 0.57374 0.84954 0.0
H717 H 0.84188 0.53764 0.83146 0.0
H718 H 0.87386 0.56061 0.88803 0.0
H719 H 0.88825 0.55242 0.9151 0.0
H720 H 0.78251 0.46133 0.91596 0.0
H721 H 0.76766 0.46879 0.88878 0.0
C722 C 0.71014 0.55212 0.84587 0.0
C723 C 0.67525 0.52575 0.85052 0.0
C724 C 0.74072 0.55192 0.84675 0.0
C725 C 0.73764 0.52535 0.85233 0.0
C726 C 0.70287 0.49909 0.85712 0.0
C727 C 0.67221 0.49919 0.85613 0.0
C728 C 0.77052 0.52507 0.85332 0.0
C729 C 0.77959 0.5187 0.86808 0.0
C730 C 0.79366 0.53199 0.84 0.0
C731 C 0.78502 0.53707 0.82376 0.0
C732 C 0.75094 0.51386 0.81607 0.0
C733 C 0.74286 0.51888 0.8008 0.0
C734 C 0.76874 0.54691 0.79303 0.0
C735 C 0.8028 0.56994 0.80049 0.0
C736 C 0.811 0.56506 0.81578 0.0
C737 C 0.89608 0.50159 0.86546 0.0
C738 C 0.93076 0.52784 0.86048 0.0
C739 C 0.865 0.50097 0.86406 0.0
C740 C 0.86728 0.52664 0.8577 0.0
C741 C 0.90166 0.55256 0.85238 0.0
C742 C 0.93278 0.55322 0.8538 0.0
C743 C 0.83411 0.52654 0.85663 0.0
C744 C 0.82497 0.53287 0.84186 0.0
C745 C 0.81097 0.5197 0.86996 0.0
C746 C 0.81981 0.51511 0.88629 0.0
C747 C 0.85379 0.53872 0.89393 0.0
C748 C 0.86201 0.53423 0.90931 0.0
C749 C 0.83635 0.50633 0.91723 0.0
C750 C 0.80238 0.4829 0.9098 0.0
C751 C 0.79404 0.48726 0.89441 0.0
H752 H 0.84277 0.5029 0.92914 0.0
H753 H 0.76243 0.55075 0.7812 0.0
H754 H 0.19134 0.62266 0.13518 0.0
H755 H 0.24902 0.67688 0.13692 0.0
H756 H 0.21674 0.69623 0.18237 0.0
H757 H 0.1584 0.6429 0.18014 0.0
H758 H 0.24712 0.74579 0.16655 0.0
H759 H 0.28036 0.67673 0.17796 0.0
H760 H 0.28352 0.63182 0.17205 0.0
H761 H 0.3446 0.67634 0.12938 0.0
H762 H 0.34131 0.72127 0.13489 0.0
H763 H 0.41823 0.86767 0.20427 0.0
H764 H 0.36198 0.81497 0.19629 0.0
H765 H 0.39474 0.82871 0.14645 0.0
H766 H 0.45117 0.88211 0.15437 0.0
H767 H 0.36622 0.7644 0.16102 0.0
H768 H 0.33539 0.83605 0.15212 0.0
H769 H 0.33216 0.88035 0.15981 0.0
H770 H 0.26676 0.82956 0.20053 0.0
H771 H 0.2701 0.78515 0.19323 0.0
C772 C 0.19661 0.63858 0.14551 0.0
C773 C 0.17039 0.62856 0.15753 0.0
C774 C 0.22971 0.66954 0.14655 0.0
C775 C 0.23776 0.69069 0.15994 0.0
C776 C 0.21136 0.68057 0.17189 0.0
C777 C 0.17797 0.65 0.17063 0.0
C778 C 0.27343 0.72338 0.16162 0.0
C779 C 0.27306 0.74964 0.16545 0.0
C780 C 0.30757 0.72887 0.15985 0.0
C781 C 0.31027 0.70221 0.15675 0.0
C782 C 0.29431 0.67687 0.16727 0.0
C783 C 0.29612 0.6514 0.164 0.0
C784 C 0.31416 0.6512 0.15033 0.0
C785 C 0.33057 0.67651 0.13995 0.0
C786 C 0.32877 0.70199 0.14314 0.0
C787 C 0.41355 0.85944 0.19161 0.0
C788 C 0.43911 0.87894 0.17993 0.0
C789 C 0.3814 0.82937 0.18708 0.0
C790 C 0.37427 0.81793 0.1708 0.0
C791 C 0.39986 0.83711 0.15908 0.0
C792 C 0.43187 0.86759 0.16359 0.0
C793 C 0.33949 0.78622 0.16622 0.0
C794 C 0.34012 0.7603 0.16192 0.0
C795 C 0.30553 0.78084 0.16784 0.0
C796 C 0.30327 0.80741 0.1722 0.0
C797 C 0.3206 0.83446 0.1628 0.0
C798 C 0.31869 0.85956 0.16707 0.0
C799 C 0.29934 0.85781 0.18067 0.0
C800 C 0.28177 0.8309 0.19001 0.0
C801 C 0.28363 0.80574 0.1858 0.0
H802 H 0.29789 0.87726 0.18396 0.0
H803 H 0.31552 0.63148 0.1478 0.0
H804 H 0.59853 0.21462 0.48953 0.0
H805 H 0.60833 0.26477 0.4976 0.0
H806 H 0.49194 0.21599 0.49624 0.0
H807 H 0.482 0.16622 0.48722 0.0
H808 H 0.52454 0.27213 0.48432 0.0
H809 H 0.54215 0.23406 0.53248 0.0
H810 H 0.56969 0.21549 0.54917 0.0
H811 H 0.6757 0.30482 0.54421 0.0
H812 H 0.64884 0.32377 0.52731 0.0
H813 H 0.51483 0.38008 0.53521 0.0
H814 H 0.50985 0.33417 0.52294 0.0
H815 H 0.62729 0.39019 0.52288 0.0
H816 H 0.63251 0.43633 0.53509 0.0
H817 H 0.59721 0.3325 0.53454 0.0
H818 H 0.57773 0.37153 0.48763 0.0
H819 H 0.54887 0.38952 0.47146 0.0
H820 H 0.44475 0.29768 0.47465 0.0
H821 H 0.47289 0.27927 0.49104 0.0
C822 C 0.57499 0.2146 0.49066 0.0
C823 C 0.53941 0.18615 0.48783 0.0
C824 C 0.58064 0.24329 0.49549 0.0
C825 C 0.55085 0.24411 0.49786 0.0
C826 C 0.5154 0.216 0.49461 0.0
C827 C 0.50974 0.1874 0.48962 0.0
C828 C 0.55638 0.27401 0.504 0.0
C829 C 0.54013 0.28513 0.49539 0.0
C830 C 0.57739 0.29148 0.51826 0.0
C831 C 0.59354 0.28019 0.5285 0.0
C832 C 0.57137 0.24965 0.53486 0.0
C833 C 0.58685 0.23907 0.54437 0.0
C834 C 0.62444 0.25892 0.54771 0.0
C835 C 0.64661 0.28944 0.54159 0.0
C836 C 0.63127 0.30013 0.53206 0.0
C837 C 0.53964 0.38284 0.53235 0.0
C838 C 0.57409 0.41196 0.53612 0.0
C839 C 0.53674 0.35652 0.52535 0.0
C840 C 0.56821 0.35877 0.52184 0.0
C841 C 0.60263 0.38785 0.52549 0.0
C842 C 0.60556 0.41418 0.53251 0.0
C843 C 0.56515 0.33046 0.51492 0.0
C844 C 0.58183 0.31962 0.5234 0.0
C845 C 0.54434 0.31315 0.50061 0.0
C846 C 0.52738 0.32411 0.49068 0.0
C847 C 0.54863 0.35524 0.48499 0.0
C848 C 0.53241 0.3655 0.47576 0.0
C849 C 0.49499 0.34478 0.47206 0.0
C850 C 0.47373 0.31372 0.47754 0.0
C851 C 0.48981 0.30334 0.48678 0.0
H852 H 0.48248 0.35277 0.46492 0.0
H853 H 0.63637 0.25069 0.55508 0.0
H854 H 0.44802 0.47756 0.86104 0.0
H855 H 0.39568 0.47893 0.86254 0.0
H856 H 0.46223 0.57509 0.84611 0.0
H857 H 0.51486 0.57396 0.84473 0.0
H858 H 0.42047 0.57159 0.86976 0.0
H859 H 0.39598 0.50773 0.82102 0.0
H860 H 0.38748 0.4634 0.80421 0.0
H861 H 0.29811 0.39499 0.83349 0.0
H862 H 0.3064 0.43894 0.85062 0.0
H863 H 0.27354 0.57992 0.8544 0.0
H864 H 0.32576 0.57869 0.85188 0.0
H865 H 0.2591 0.48082 0.86587 0.0
H866 H 0.20657 0.48182 0.86829 0.0
H867 H 0.30134 0.48552 0.84322 0.0
H868 H 0.3262 0.54905 0.89222 0.0
H869 H 0.3349 0.59321 0.9093 0.0
H870 H 0.42364 0.66197 0.87987 0.0
H871 H 0.41515 0.6182 0.86249 0.0
C872 C 0.45169 0.49908 0.85769 0.0
C873 C 0.48609 0.52561 0.8527 0.0
C874 C 0.42143 0.49977 0.85849 0.0
C875 C 0.42429 0.52698 0.85425 0.0
C876 C 0.45876 0.55367 0.84945 0.0
C877 C 0.48906 0.55297 0.8486 0.0
C878 C 0.39162 0.52766 0.85497 0.0
C879 C 0.39462 0.55293 0.86373 0.0
C880 C 0.35719 0.50311 0.84751 0.0
C881 C 0.35205 0.47664 0.8372 0.0
C882 C 0.37469 0.48324 0.82395 0.0
C883 C 0.36988 0.45817 0.81435 0.0
C884 C 0.34233 0.4264 0.8178 0.0
C885 C 0.31947 0.41961 0.83084 0.0
C886 C 0.32419 0.44459 0.84049 0.0
C887 C 0.2698 0.55808 0.85707 0.0
C888 C 0.23529 0.53103 0.86168 0.0
C889 C 0.30004 0.55744 0.85564 0.0
C890 C 0.29723 0.52986 0.85898 0.0
C891 C 0.2626 0.50257 0.86321 0.0
C892 C 0.23225 0.50313 0.86455 0.0
C893 C 0.3301 0.52943 0.85806 0.0
C894 C 0.32716 0.5042 0.84925 0.0
C895 C 0.36458 0.55398 0.86552 0.0
C896 C 0.36979 0.58034 0.87596 0.0
C897 C 0.34739 0.57359 0.88933 0.0
C898 C 0.35231 0.59855 0.89907 0.0
C899 C 0.37974 0.63038 0.89565 0.0
C900 C 0.40237 0.63731 0.88249 0.0
C901 C 0.39754 0.61243 0.8727 0.0
H902 H 0.38351 0.64967 0.90321 0.0
H903 H 0.33865 0.40702 0.81036 0.0
H904 H 0.99965 0.41532 0.1445 0.0
H905 H 0.94623 0.36012 0.14799 0.0
H906 H 0.89035 0.39462 0.17105 0.0
H907 H 0.9442 0.44979 0.16814 0.0
H908 H 0.87923 0.34978 0.1875 0.0
H909 H 0.87008 0.35867 0.13058 0.0
H910 H 0.89095 0.36998 0.10242 0.0
H911 H 0.90715 0.29729 0.10188 0.0
H912 H 0.88682 0.28583 0.13013 0.0
H913 H 0.69982 0.20454 0.18303 0.0
H914 H 0.7532 0.25758 0.17626 0.0
H915 H 0.81361 0.21999 0.1668 0.0
H916 H 0.76078 0.1669 0.17426 0.0
H917 H 0.82262 0.26475 0.14322 0.0
H918 H 0.83026 0.25642 0.20067 0.0
H919 H 0.8067 0.24494 0.22841 0.0
H920 H 0.79045 0.31745 0.22713 0.0
H921 H 0.81338 0.32901 0.19926 0.0
C922 C 0.97586 0.41114 0.1502 0.0
C923 C 0.97623 0.43701 0.15604 0.0
C924 C 0.94518 0.37948 0.15213 0.0
C925 C 0.91382 0.37294 0.15961 0.0
C926 C 0.91408 0.39884 0.16527 0.0
C927 C 0.94494 0.43047 0.16357 0.0
C928 C 0.88127 0.33927 0.16212 0.0
C929 C 0.86667 0.33143 0.1777 0.0
C930 C 0.86508 0.31481 0.14951 0.0
C931 C 0.87728 0.32163 0.13253 0.0
C932 C 0.87836 0.34527 0.1245 0.0
C933 C 0.89004 0.35168 0.10852 0.0
C934 C 0.90046 0.33443 0.10038 0.0
C935 C 0.89912 0.31067 0.10821 0.0
C936 C 0.88749 0.30419 0.1242 0.0
C937 C 0.72443 0.2074 0.17961 0.0
C938 C 0.72593 0.18128 0.17947 0.0
C939 C 0.75488 0.23778 0.17561 0.0
C940 C 0.78748 0.2428 0.17117 0.0
C941 C 0.78868 0.21661 0.17018 0.0
C942 C 0.75831 0.1862 0.17439 0.0
C943 C 0.82072 0.27575 0.16846 0.0
C944 C 0.83538 0.28332 0.15292 0.0
C945 C 0.83675 0.3001 0.18102 0.0
C946 C 0.82318 0.29334 0.19782 0.0
C947 C 0.82136 0.26972 0.20625 0.0
C948 C 0.80817 0.26323 0.222 0.0
C949 C 0.79699 0.2804 0.22951 0.0
C950 C 0.79907 0.30414 0.22129 0.0
C951 C 0.81218 0.31069 0.20552 0.0
H952 H 0.7868 0.27535 0.24171 0.0
H953 H 0.9095 0.33942 0.08801 0.0
H954 H 1.05011 0.49913 0.11093 0.0
H955 H 0.05688 0.49802 0.08154 0.0
H956 H 0.08487 0.59271 0.08035 0.0
H957 H 0.07824 0.59396 0.10986 0.0
H958 H 1.02062 0.50095 0.05727 0.0
H959 H 0.1484 0.63254 0.05065 0.0
H960 H 0.20341 0.6748 0.06677 0.0
H961 H 0.19793 0.60328 0.09309 0.0
H962 H 0.14334 0.56063 0.07694 0.0
H963 H 1.03569 0.54026 0.97558 0.0
H964 H 1.03385 0.54164 0.00517 0.0
H965 H 0.12964 0.54452 0.0076 0.0
H966 H 0.1316 0.54306 0.97795 0.0
H967 H 0.1343 0.5851 0.03026 0.0
H968 H 1.04568 0.47529 0.01324 0.0
H969 H 0.9925 0.42928 0.99771 0.0
H970 H 0.92354 0.45058 0.01944 0.0
H971 H 0.97644 0.49702 0.03493 0.0
C972 C 0.05774 0.51973 0.1044 0.0
C973 C 0.06363 0.54664 0.11264 0.0
C974 C 0.0615 0.51902 0.08761 0.0
C975 C 0.07153 0.54531 0.07874 0.0
C976 C 0.07745 0.57227 0.08697 0.0
C977 C 0.07355 0.57293 0.10379 0.0
C978 C 0.0754 0.54433 0.06087 0.0
C979 C 1.04544 0.51939 0.05137 0.0
C980 C 0.10812 0.5679 0.05319 0.0
C981 C 0.14152 0.59341 0.06268 0.0
C982 C 0.15905 0.62584 0.05981 0.0
C983 C 0.19016 0.64986 0.06896 0.0
C984 C 0.20408 0.64174 0.08098 0.0
C985 C 0.18705 0.60956 0.08381 0.0
C986 C 0.15601 0.58546 0.07467 0.0
C987 C 0.05624 0.54096 0.98239 0.0
C988 C 0.08363 0.5413 0.97436 0.0
C989 C 0.05521 0.54184 0.99932 0.0
C990 C 0.08135 0.5428 0.00864 0.0
C991 C 0.1092 0.54383 1.00069 0.0
C992 C 0.11031 0.54304 0.98373 0.0
C993 C 0.07914 0.54215 0.02663 0.0
C994 C 0.10943 0.56673 0.03616 0.0
C995 C 1.04702 0.51776 0.03439 0.0
C996 C 1.0151 0.48981 0.02513 0.0
C997 C 1.01923 0.47031 0.01461 0.0
C998 C 0.98913 0.44413 0.00583 0.0
C999 C 0.95468 0.43706 0.00756 0.0
C1000 C 0.95025 0.45611 0.0181 0.0
C1001 C 0.98028 0.48235 0.02689 0.0
H1002 H 0.93141 0.41677 1.00076 0.0
H1003 H 0.2281 0.66037 0.08808 0.0
H1004 H 0.52579 1.00174 0.43964 0.0
H1005 H 0.52128 1.00456 0.41026 0.0
H1006 H 0.63848 0.07327 0.40864 0.0
H1007 H 0.64318 0.07007 0.43791 0.0
H1008 H 0.59727 0.08765 0.38964 0.0
H1009 H 0.60567 1.00117 0.39863 0.0
H1010 H 0.58585 0.95108 0.41083 0.0
H1011 H 0.47929 0.90219 0.38872 0.0
H1012 H 0.49838 0.95216 0.37653 0.0
H1013 H 0.63456 0.08255 0.30683 0.0
H1014 H 0.6324 0.08293 0.33645 0.0
H1015 H 0.5217 0.99592 0.33337 0.0
H1016 H 0.52458 0.9948 0.30374 0.0
H1017 H 0.55519 0.99027 0.3553 0.0
H1018 H 0.54549 0.07341 0.34442 0.0
H1019 H 0.56185 0.1229 0.3328 0.0
H1020 H 0.66484 0.17744 0.35879 0.0
H1021 H 0.64934 0.1282 0.37039 0.0
C1022 C 0.55051 0.01764 0.43301 0.0
C1023 C 0.58486 0.03544 0.44093 0.0
C1024 C 0.54791 0.01921 0.41627 0.0
C1025 C 0.57958 0.03896 0.40731 0.0
C1026 C 0.61376 0.05788 0.41536 0.0
C1027 C 0.61641 0.05591 0.43203 0.0
C1028 C 0.5774 0.03851 0.38942 0.0
C1029 C 0.58834 0.06651 0.38206 0.0
C1030 C 0.56469 0.01057 0.37966 0.0
C1031 C 0.55334 0.98045 0.38681 0.0
C1032 C 0.57793 0.97979 0.39647 0.0
C1033 C 0.56685 0.95142 0.40336 0.0
C1034 C 0.53131 0.92349 0.40058 0.0
C1035 C 0.5068 0.92386 0.39087 0.0
C1036 C 0.51775 0.95219 0.38395 0.0
C1037 C 0.60974 0.06366 0.31252 0.0
C1038 C 0.57972 0.03868 0.30305 0.0
C1039 C 0.60839 0.06396 0.32945 0.0
C1040 C 0.57662 0.03975 0.33723 0.0
C1041 C 0.54653 0.01488 0.32771 0.0
C1042 C 0.54814 0.01425 0.31079 0.0
C1043 C 0.5753 0.03965 0.35526 0.0
C1044 C 0.56377 0.01148 0.36274 0.0
C1045 C 0.5869 0.06734 0.36512 0.0
C1046 C 0.59637 0.09703 0.35815 0.0
C1047 C 0.57175 0.09591 0.34756 0.0
C1048 C 0.58085 0.12393 0.34099 0.0
C1049 C 0.6144 0.15328 0.34502 0.0
C1050 C 0.63888 0.15468 0.35566 0.0
C1051 C 0.62994 0.12673 0.36225 0.0
H1052 H 0.62139 0.17495 0.33993 0.0
H1053 H 0.52281 0.90154 0.4059 0.0
H1054 H 0.51376 0.48459 0.79746 0.0
H1055 H 0.52362 0.49385 0.76858 0.0
H1056 H 0.63983 0.56086 0.7779 0.0
H1057 H 0.62998 0.55181 0.80706 0.0
H1058 H 0.61557 0.58174 0.75512 0.0
H1059 H 0.60575 0.48752 0.76348 0.0
H1060 H 0.57887 0.43427 0.77375 0.0
H1061 H 0.48092 0.39431 0.74545 0.0
H1062 H 0.50701 0.44744 0.73519 0.0
H1063 H 0.64865 0.57396 0.67009 0.0
H1064 H 0.6497 0.57203 0.69969 0.0
H1065 H 0.5321 0.50523 0.69894 0.0
H1066 H 0.53089 0.50676 0.66942 0.0
H1067 H 0.5645 0.4862 0.71762 0.0
H1068 H 0.57396 0.58209 0.71082 0.0
H1069 H 0.60165 0.63563 0.70072 0.0
H1070 H 0.70222 0.67257 0.72602 0.0
H1071 H 0.67526 0.61909 0.73609 0.0
C1072 C 0.54142 0.50145 0.79339 0.0
C1073 C 0.57114 0.51727 0.80445 0.0
C1074 C 0.54702 0.50666 0.77688 0.0
C1075 C 0.5825 0.5276 0.77105 0.0
C1076 C 0.61225 0.54447 0.78214 0.0
C1077 C 0.60661 0.53928 0.79876 0.0
C1078 C 0.58808 0.53081 0.75331 0.0
C1079 C 0.60502 0.56097 0.74692 0.0
C1080 C 0.574 0.50363 0.74261 0.0
C1081 C 0.55825 0.47154 0.74866 0.0
C1082 C 0.57838 0.46743 0.75953 0.0
C1083 C 0.5633 0.43725 0.76534 0.0
C1084 C 0.52818 0.41093 0.76028 0.0
C1085 C 0.50811 0.41472 0.74937 0.0
C1086 C 0.52305 0.44486 0.74353 0.0
C1087 C 0.62306 0.5588 0.67625 0.0
C1088 C 0.58967 0.54057 0.66744 0.0
C1089 C 0.62369 0.55789 0.69315 0.0
C1090 C 0.59096 0.53864 0.70152 0.0
C1091 C 0.55766 0.5203 0.69273 0.0
C1092 C 0.557 0.52138 0.67588 0.0
C1093 C 0.59115 0.53697 0.7194 0.0
C1094 C 0.57538 0.50704 0.72582 0.0
C1095 C 0.60654 0.56438 0.73008 0.0
C1096 C 0.62274 0.59651 0.72405 0.0
C1097 C 0.60209 0.60156 0.71411 0.0
C1098 C 0.61763 0.63191 0.70842 0.0
C1099 C 0.65371 0.65746 0.71269 0.0
C1100 C 0.6743 0.65274 0.7227 0.0
C1101 C 0.6589 0.62242 0.72841 0.0
H1102 H 0.66569 0.68094 0.70827 0.0
H1103 H 0.51655 0.38759 0.76479 0.0
H1104 H 0.61278 0.05548 0.52987 0.0
H1105 H 0.61975 0.05276 0.55901 0.0
H1106 H 0.50277 0.99533 0.56371 0.0
H1107 H 0.49584 0.99851 0.53471 0.0
H1108 H 0.53553 0.04184 0.58641 0.0
H1109 H 0.55075 0.9637 0.56496 0.0
H1110 H 0.57812 0.94322 0.54823 0.0
H1111 H 0.68211 0.0121 0.57214 0.0
H1112 H 0.65558 0.03344 0.58878 0.0
H1113 H 0.51855 0.98945 0.66537 0.0
H1114 H 0.51569 0.99 0.63587 0.0
H1115 H 0.63333 0.05389 0.63485 0.0
H1116 H 0.63645 0.05295 0.66442 0.0
H1117 H 0.60283 1.00562 0.61045 0.0
H1118 H 0.58781 0.0839 0.63151 0.0
H1119 H 0.56051 0.10402 0.64857 0.0
H1120 H 0.45592 0.03428 0.62531 0.0
H1121 H 0.4825 0.01343 0.60827 0.0
C1122 C 0.5886 0.04204 0.53713 0.0
C1123 C 0.55377 0.0272 0.5301 0.0
C1124 C 0.59257 0.04041 0.55375 0.0
C1125 C 0.56174 0.02363 0.56354 0.0
C1126 C 0.52694 0.00846 0.55642 0.0
C1127 C 0.523 0.01024 0.53986 0.0
C1128 C 0.56561 0.02301 0.58133 0.0
C1129 C 0.54983 0.03348 0.59163 0.0
C1130 C 0.58519 0.013 0.58819 0.0
C1131 C 0.60123 1.00038 0.57803 0.0
C1132 C 0.57954 0.97472 0.56654 0.0
C1133 C 0.59489 0.96291 0.55709 0.0
C1134 C 0.63182 0.97636 0.55914 0.0
C1135 C 0.65351 1.00172 0.57057 0.0
C1136 C 0.63834 0.01368 0.58001 0.0
C1137 C 0.54384 1.00332 0.65887 0.0
C1138 C 0.57774 0.02124 0.66724 0.0
C1139 C 0.54215 1.00379 0.64202 0.0
C1140 C 0.5743 0.02224 0.63319 0.0
C1141 C 0.60821 0.03956 0.64144 0.0
C1142 C 0.60993 0.03922 0.65833 0.0
C1143 C 0.57232 0.02402 0.6154 0.0
C1144 C 0.58855 0.01393 0.60516 0.0
C1145 C 0.55312 0.03433 0.60854 0.0
C1146 C 0.53708 0.04691 0.61872 0.0
C1147 C 0.55893 0.07269 0.63012 0.0
C1148 C 0.54359 0.08425 0.63977 0.0
C1149 C 0.50648 0.07038 0.63805 0.0
C1150 C 0.48465 0.04497 0.62665 0.0
C1151 C 0.49984 0.03329 0.61698 0.0
H1152 H 0.49466 0.07937 0.64553 0.0
H1153 H 0.64362 0.96706 0.55192 0.0
H1154 H 0.53042 0.49416 0.89091 0.0
H1155 H 0.51877 0.47406 0.91816 0.0
H1156 H 0.63422 0.53812 0.92976 0.0
H1157 H 0.64607 0.55844 0.90241 0.0
H1158 H 0.59906 0.475 0.93991 0.0
H1159 H 0.58391 0.55829 0.94378 0.0
H1160 H 0.55907 0.58642 0.93543 0.0
H1161 H 0.45016 0.50284 0.94351 0.0
H1162 H 0.47433 0.47404 0.95169 0.0
H1163 H 0.58044 0.45664 0.02527 0.0
H1164 H 0.59667 0.4768 0.99798 0.0
H1165 H 0.48274 0.42902 0.98616 0.0
H1166 H 0.46671 0.4099 0.01362 0.0
H1167 H 0.52004 0.48608 0.97616 0.0
H1168 H 0.53318 0.40173 0.97147 0.0
H1169 H 0.55633 0.37179 0.97898 0.0
H1170 H 0.66633 0.45441 0.97168 0.0
H1171 H 0.64386 0.48498 0.96433 0.0
C1172 C 0.55332 0.50392 0.89926 0.0
C1173 C 0.58912 0.52797 0.89464 0.0
C1174 C 0.54663 0.49246 0.91481 0.0
C1175 C 0.57562 0.50483 0.92599 0.0
C1176 C 0.61151 0.52835 0.92129 0.0
C1177 C 0.61821 0.54 0.90574 0.0
C1178 C 0.56816 0.4935 0.94267 0.0
C1179 C 0.58222 0.47777 0.94797 0.0
C1180 C 0.54549 0.49653 0.95296 0.0
C1181 C 0.53092 0.51392 0.94822 0.0
C1182 C 0.55464 0.54583 0.94367 0.0
C1183 C 0.54069 0.56191 0.93898 0.0
C1184 C 0.50305 0.5464 0.9389 0.0
C1185 C 0.4793 0.51481 0.94356 0.0
C1186 C 0.49312 0.49861 0.94824 0.0
C1187 C 0.55891 0.45019 0.01674 0.0
C1188 C 0.52234 0.4317 0.02149 0.0
C1189 C 0.56815 0.46163 0.00115 0.0
C1190 C 0.5409 0.45415 0.9899 0.0
C1191 C 0.50428 0.43521 0.9946 0.0
C1192 C 0.49512 0.42423 0.01026 0.0
C1193 C 0.55047 0.46701 0.97345 0.0
C1194 C 0.53691 0.48321 0.96818 0.0
C1195 C 0.57331 0.4641 0.96314 0.0
C1196 C 0.58686 0.44574 0.96751 0.0
C1197 C 0.56233 0.41358 0.97158 0.0
C1198 C 0.57532 0.39649 0.97579 0.0
C1199 C 0.61278 0.41122 0.97585 0.0
C1200 C 0.63732 0.44305 0.97166 0.0
C1201 C 0.62447 0.46026 0.96745 0.0
H1202 H 0.62278 0.39794 0.97911 0.0
H1203 H 0.4923 0.55889 0.93526 0.0
H1204 H 0.09447 0.5652 0.20072 0.0
H1205 H 0.0897 0.56451 0.2302 0.0
H1206 H 0.07561 0.47512 0.22913 0.0
H1207 H 0.07737 0.47456 0.19952 0.0
H1208 H 1.032 0.47154 0.24971 0.0
H1209 H 0.15912 0.55126 0.24064 0.0
H1210 H 0.21293 0.59978 0.22914 0.0
H1211 H 0.18545 0.65709 0.25302 0.0
H1212 H 0.13117 0.60882 0.26449 0.0
H1213 H 0.08318 0.48281 0.33316 0.0
H1214 H 0.08509 0.48343 0.30344 0.0
H1215 H 0.06344 0.553 0.30489 0.0
H1216 H 0.06085 0.55204 0.33459 0.0
H1217 H 0.12475 0.56697 0.28463 0.0
H1218 H 0.99704 0.484 0.29406 0.0
H1219 H 0.94569 0.43424 0.30578 0.0
H1220 H 0.97892 0.38162 0.28143 0.0
H1221 H 1.03083 0.4312 0.26975 0.0
C1222 C 0.08953 0.54509 0.20676 0.0
C1223 C 0.0856 0.51966 0.19783 0.0
C1224 C 0.08749 0.54497 0.22366 0.0
C1225 C 0.08282 0.51998 0.232 0.0
C1226 C 0.07914 0.49465 0.22303 0.0
C1227 C 0.08038 0.49443 0.20611 0.0
C1228 C 0.08152 0.52004 0.25002 0.0
C1229 C 0.05262 0.49232 0.2573 0.0
C1230 C 0.10806 0.54725 0.26004 0.0
C1231 C 0.14089 0.57638 0.2533 0.0
C1232 C 0.16443 0.57418 0.24335 0.0
C1233 C 0.19503 0.60164 0.23685 0.0
C1234 C 0.20255 0.63148 0.24031 0.0
C1235 C 0.17956 0.63395 0.25033 0.0
C1236 C 0.14889 0.60655 0.25685 0.0
C1237 C 0.07886 0.49822 0.3271 0.0
C1238 C 0.07179 0.51732 0.33611 0.0
C1239 C 0.07986 0.49849 0.31018 0.0
C1240 C 0.07434 0.51822 0.30203 0.0
C1241 C 0.06774 0.53763 0.311 0.0
C1242 C 0.06608 0.53692 0.3279 0.0
C1243 C 0.07545 0.51856 0.28412 0.0
C1244 C 0.10427 0.54631 0.27694 0.0
C1245 C 1.04932 0.49121 0.27421 0.0
C1246 C 1.01805 0.46138 0.28118 0.0
C1247 C 0.99361 0.46188 0.29133 0.0
C1248 C 0.96435 0.43369 0.29794 0.0
C1249 C 0.9591 0.4048 0.29439 0.0
C1250 C 0.98305 0.40403 0.28419 0.0
C1251 C 1.01237 0.43216 0.27756 0.0
H1252 H 0.93643 0.383 0.29952 0.0
H1253 H 0.22624 0.65271 0.23525 0.0
loop_
_geom_bond_atom_site_label_1
_geom_bond_atom_site_label_2
_geom_bond_distance
_geom_bond_site_symmetry_2
_ccdc_geom_bond_type
La0 C2 2.928 . S
La0 O20 2.521 . S
La0 O21 2.628 . S
La0 O22 2.554 . S
La0 O23 2.757 . S
La0 O24 2.470 . S
La0 O29 2.482 . S
La0 O31 2.503 1_455 S
La1 C11 2.928 . S
La1 O23 2.482 1_655 S
La1 O25 2.503 1_655 S
La1 O26 2.521 . S
La1 O27 2.628 . S
La1 O28 2.554 1_655 S
La1 O29 2.757 1_655 S
La1 O30 2.470 . S
C2 La0 2.928 . S
C2 C3 1.503 . S
C2 O20 1.261 . S
C2 O21 1.243 . S
C3 C2 1.503 . S
C3 C4 1.394 . S
C3 C8 1.373 . S
C4 C3 1.394 . S
C4 C5 1.380 . S
C4 H32 0.930 . S
C5 C4 1.380 . S
C5 C6 1.376 . S
C5 H33 0.930 . S
C6 C5 1.376 . S
C6 C7 1.370 . S
C7 C6 1.370 . S
C7 C8 1.396 . S
C7 H34 0.929 . S
C8 C3 1.373 . S
C8 C7 1.396 . S
C8 H35 0.929 . S
C9 O22 1.240 . S
C9 O23 1.289 . S
C10 O24 1.258 . S
C10 O25 1.256 . S
C11 La1 2.928 . S
C11 C12 1.503 . S
C11 O26 1.261 . S
C11 O27 1.243 . S
C12 C11 1.503 . S
C12 C13 1.394 . S
C12 C17 1.373 . S
C13 C12 1.394 . S
C13 C14 1.380 . S
C13 H36 0.930 . S
C14 C13 1.380 . S
C14 C15 1.376 . S
C14 H37 0.930 . S
C15 C14 1.376 . S
C15 C16 1.370 . S
C16 C15 1.370 . S
C16 C17 1.396 . S
C16 H38 0.929 . S
C17 C12 1.373 . S
C17 C16 1.396 . S
C17 H39 0.929 . S
C18 O28 1.240 . S
C18 O29 1.289 . S
C19 O30 1.258 . S
C19 O31 1.256 . S
O20 La0 2.521 . S
O20 C2 1.261 . S
O21 La0 2.628 . S
O21 C2 1.243 . S
O22 La0 2.554 . S
O22 C9 1.240 . S
O23 La0 2.757 . S
O23 La1 2.482 1_455 S
O23 C9 1.289 . S
O24 La0 2.470 . S
O24 C10 1.258 . S
O25 La1 2.503 1_455 S
O25 C10 1.256 . S
O26 La1 2.521 . S
O26 C11 1.261 . S
O27 La1 2.628 . S
O27 C11 1.243 . S
O28 La1 2.554 1_455 S
O28 C18 1.240 . S
O29 La0 2.482 . S
O29 La1 2.757 1_455 S
O29 C18 1.289 . S
O30 La1 2.470 . S
O30 C19 1.258 . S
O31 La0 2.503 1_655 S
O31 C19 1.256 . S
H32 C4 0.930 . S
H33 C5 0.930 . S
H34 C7 0.929 . S
H35 C8 0.929 . S
H36 C13 0.930 . S
H37 C14 0.930 . S
H38 C16 0.929 . S
H39 C17 0.929 . S
La40 C42 2.928 . S
La40 O60 2.521 . S
La40 O61 2.628 . S
La40 O62 2.554 . S
La40 O63 2.757 1_565 S
La40 O64 2.470 . S
La40 O69 2.469 1_565 S
La40 O71 2.503 1_565 S
La41 C51 2.928 . S
La41 O63 2.482 . S
La41 O65 2.503 1_545 S
La41 O66 2.521 . S
La41 O67 2.628 . S
La41 O68 2.554 . S
La41 O69 2.778 . S
La41 O70 2.470 . S
C42 La40 2.928 . S
C42 C43 1.503 . S
C42 O60 1.261 . S
C42 O61 1.243 . S
C43 C42 1.503 . S
C43 C44 1.394 . S
C43 C48 1.373 . S
C44 C43 1.394 . S
C44 C45 1.380 . S
C44 H72 0.930 . S
C45 C44 1.380 . S
C45 C46 1.376 . S
C45 H73 0.930 . S
C46 C45 1.376 . S
C46 C47 1.370 . S
C47 C46 1.370 . S
C47 C48 1.396 . S
C47 H74 0.929 . S
C48 C43 1.373 . S
C48 C47 1.396 . S
C48 H75 0.929 . S
C49 O62 1.240 1_545 S
C49 O63 1.289 . S
C50 O64 1.258 . S
C50 O65 1.256 . S
C51 La41 2.928 . S
C51 C52 1.503 . S
C51 O66 1.261 . S
C51 O67 1.243 . S
C52 C51 1.503 . S
C52 C53 1.394 . S
C52 C57 1.373 . S
C53 C52 1.394 . S
C53 C54 1.380 . S
C53 H76 0.930 . S
C54 C53 1.380 . S
C54 C55 1.376 . S
C54 H77 0.930 . S
C55 C54 1.376 . S
C55 C56 1.370 . S
C56 C55 1.370 . S
C56 C57 1.396 . S
C56 H78 0.929 . S
C57 C52 1.373 . S
C57 C56 1.396 . S
C57 H79 0.929 . S
C58 O68 1.240 . S
C58 O69 1.302 . S
C59 O70 1.258 . S
C59 O71 1.256 . S
O60 La40 2.521 . S
O60 C42 1.261 . S
O61 La40 2.628 . S
O61 C42 1.243 . S
O62 La40 2.554 . S
O62 C49 1.240 1_565 S
O63 La40 2.757 1_545 S
O63 La41 2.482 . S
O63 C49 1.289 . S
O64 La40 2.470 . S
O64 C50 1.258 . S
O65 La41 2.503 1_565 S
O65 C50 1.256 . S
O66 La41 2.521 . S
O66 C51 1.261 . S
O67 La41 2.628 . S
O67 C51 1.243 . S
O68 La41 2.554 . S
O68 C58 1.240 . S
O69 La40 2.469 1_545 S
O69 La41 2.778 . S
O69 C58 1.302 . S
O70 La41 2.470 . S
O70 C59 1.258 . S
O71 La40 2.503 1_545 S
O71 C59 1.256 . S
H72 C44 0.930 . S
H73 C45 0.930 . S
H74 C47 0.929 . S
H75 C48 0.929 . S
H76 C53 0.930 . S
H77 C54 0.930 . S
H78 C56 0.929 . S
H79 C57 0.929 . S
La80 C82 2.928 . S
La80 O100 2.521 . S
La80 O101 2.628 . S
La80 O102 2.554 . S
La80 O103 2.757 . S
La80 O104 2.470 . S
La80 O109 2.482 . S
La80 O111 2.503 . S
La81 C91 2.928 . S
La81 O103 2.482 . S
La81 O105 2.503 . S
La81 O106 2.521 . S
La81 O107 2.628 . S
La81 O108 2.554 . S
La81 O109 2.757 . S
La81 O110 2.470 . S
C82 La80 2.928 . S
C82 C83 1.503 . S
C82 O100 1.261 . S
C82 O101 1.243 . S
C83 C82 1.503 . S
C83 C84 1.394 . S
C83 C88 1.373 . S
C84 C83 1.394 . S
C84 C85 1.380 . S
C84 H112 0.930 . S
C85 C84 1.380 . S
C85 C86 1.376 . S
C85 H113 0.930 . S
C86 C85 1.376 . S
C86 C87 1.370 . S
C87 C86 1.370 . S
C87 C88 1.396 . S
C87 H114 0.929 . S
C88 C83 1.373 . S
C88 C87 1.396 . S
C88 H115 0.929 . S
C89 O102 1.240 . S
C89 O103 1.289 . S
C90 O104 1.258 . S
C90 O105 1.256 . S
C91 La81 2.928 . S
C91 C92 1.503 . S
C91 O106 1.261 . S
C91 O107 1.243 . S
C92 C91 1.503 . S
C92 C93 1.394 . S
C92 C97 1.373 . S
C93 C92 1.394 . S
C93 C94 1.380 . S
C93 H116 0.930 . S
C94 C93 1.380 . S
C94 C95 1.376 . S
C94 H117 0.930 . S
C95 C94 1.376 . S
C95 C96 1.370 . S
C96 C95 1.370 . S
C96 C97 1.396 . S
C96 H118 0.929 . S
C97 C92 1.373 . S
C97 C96 1.396 . S
C97 H119 0.929 . S
C98 O108 1.240 . S
C98 O109 1.289 . S
C99 O110 1.258 . S
C99 O111 1.256 . S
O100 La80 2.521 . S
O100 C82 1.261 . S
O101 La80 2.628 . S
O101 C82 1.243 . S
O102 La80 2.554 . S
O102 C89 1.240 . S
O103 La80 2.757 . S
O103 La81 2.482 . S
O103 C89 1.289 . S
O104 La80 2.470 . S
O104 C90 1.258 . S
O105 La81 2.503 . S
O105 C90 1.256 . S
O106 La81 2.521 . S
O106 C91 1.261 . S
O107 La81 2.628 . S
O107 C91 1.243 . S
O108 La81 2.554 . S
O108 C98 1.240 . S
O109 La80 2.482 . S
O109 La81 2.757 . S
O109 C98 1.289 . S
O110 La81 2.470 . S
O110 C99 1.258 . S
O111 La80 2.503 . S
O111 C99 1.256 . S
H112 C84 0.930 . S
H113 C85 0.930 . S
H114 C87 0.929 . S
H115 C88 0.929 . S
H116 C93 0.930 . S
H117 C94 0.930 . S
H118 C96 0.929 . S
H119 C97 0.929 . S
C120 C121 1.386 . S
C120 C122 1.397 . S
C120 H144 0.931 . S
C121 C120 1.386 . S
C121 C125 1.397 1_545 S
C122 C120 1.397 . S
C122 C123 1.384 . S
C122 H145 0.930 . S
C123 C122 1.384 . S
C123 C124 1.377 1_545 S
C123 C126 1.481 . S
C124 C123 1.377 1_565 S
C124 C125 1.389 . S
C124 H146 0.929 . S
C125 C121 1.397 1_565 S
C125 C124 1.389 . S
C125 H147 0.931 . S
C126 C123 1.481 . S
C126 C127 1.387 . S
C126 C131 1.390 1_545 S
C127 C126 1.387 . S
C127 C128 1.401 . S
C127 H148 0.930 . S
C128 C127 1.401 . S
C128 C129 1.376 . S
C128 C137 1.511 . S
C129 C128 1.376 . S
C129 C130 1.392 1_545 S
C129 H150 0.931 . S
C130 C129 1.392 1_565 S
C130 C131 1.361 . S
C130 C132 1.500 . S
C131 C126 1.390 1_565 S
C131 C130 1.361 . S
C131 H149 0.931 . S
C132 C130 1.500 . S
C132 C133 1.371 . S
C132 C134 1.365 . S
C133 C132 1.371 . S
C133 C143 1.386 . S
C133 H151 0.931 . S
C134 C132 1.365 . S
C134 C135 1.409 . S
C134 H152 0.929 . S
C135 C134 1.409 . S
C135 C136 1.380 . S
C135 H153 0.930 . S
C136 C135 1.380 . S
C136 C143 1.357 . S
C137 C128 1.511 . S
C137 C138 1.341 . S
C137 C139 1.371 . S
C138 C137 1.341 . S
C138 C142 1.394 . S
C138 H154 0.930 . S
C139 C137 1.371 . S
C139 C140 1.392 . S
C139 H155 0.931 . S
C140 C139 1.392 . S
C140 C141 1.331 . S
C140 H158 0.932 . S
C141 C140 1.331 . S
C141 C142 1.336 . S
C142 C138 1.394 . S
C142 C141 1.336 . S
C142 H157 0.929 . S
C143 C133 1.386 . S
C143 C136 1.357 . S
C143 H156 0.928 . S
H144 C120 0.931 . S
H145 C122 0.930 . S
H146 C124 0.929 . S
H147 C125 0.931 . S
H148 C127 0.930 . S
H149 C131 0.931 . S
H150 C129 0.931 . S
H151 C133 0.931 . S
H152 C134 0.929 . S
H153 C135 0.930 . S
H154 C138 0.930 . S
H155 C139 0.931 . S
H156 C143 0.928 . S
H157 C142 0.929 . S
H158 C140 0.932 . S
C159 C160 1.386 . S
C159 C161 1.397 . S
C159 H183 0.931 . S
C160 C159 1.386 . S
C160 C164 1.397 . S
C161 C159 1.397 . S
C161 C162 1.384 . S
C161 H184 0.930 . S
C162 C161 1.384 . S
C162 C163 1.377 . S
C162 C165 1.481 . S
C163 C162 1.377 . S
C163 C164 1.389 . S
C163 H185 0.929 . S
C164 C160 1.397 . S
C164 C163 1.389 . S
C164 H186 0.931 . S
C165 C162 1.481 . S
C165 C166 1.387 . S
C165 C170 1.390 . S
C166 C165 1.387 . S
C166 C167 1.401 . S
C166 H187 0.930 . S
C167 C166 1.401 . S
C167 C168 1.376 . S
C167 C176 1.511 . S
C168 C167 1.376 . S
C168 C169 1.392 . S
C168 H189 0.931 . S
C169 C168 1.392 . S
C169 C170 1.361 . S
C169 C171 1.500 . S
C170 C165 1.390 . S
C170 C169 1.361 . S
C170 H188 0.931 . S
C171 C169 1.500 . S
C171 C172 1.371 . S
C171 C173 1.365 . S
C172 C171 1.371 . S
C172 C182 1.386 . S
C172 H190 0.931 . S
C173 C171 1.365 . S
C173 C174 1.409 . S
C173 H191 0.929 . S
C174 C173 1.409 . S
C174 C175 1.380 . S
C174 H192 0.930 . S
C175 C174 1.380 . S
C175 C182 1.357 . S
C176 C167 1.511 . S
C176 C177 1.341 . S
C176 C178 1.371 . S
C177 C176 1.341 . S
C177 C181 1.394 . S
C177 H193 0.930 . S
C178 C176 1.371 . S
C178 C179 1.392 . S
C178 H194 0.931 . S
C179 C178 1.392 . S
C179 C180 1.331 . S
C179 H197 0.932 . S
C180 C179 1.331 . S
C180 C181 1.336 . S
C181 C177 1.394 . S
C181 C180 1.336 . S
C181 H196 0.929 . S
C182 C172 1.386 . S
C182 C175 1.357 . S
C182 H195 0.928 . S
H183 C159 0.931 . S
H184 C161 0.930 . S
H185 C163 0.929 . S
H186 C164 0.931 . S
H187 C166 0.930 . S
H188 C170 0.931 . S
H189 C168 0.931 . S
H190 C172 0.931 . S
H191 C173 0.929 . S
H192 C174 0.930 . S
H193 C177 0.930 . S
H194 C178 0.931 . S
H195 C182 0.928 . S
H196 C181 0.929 . S
H197 C179 0.932 . S
C198 C199 1.386 . S
C198 C200 1.397 . S
C198 H222 0.931 . S
C199 C198 1.386 . S
C199 C203 1.397 . S
C200 C198 1.397 . S
C200 C201 1.384 . S
C200 H223 0.930 . S
C201 C200 1.384 . S
C201 C202 1.377 . S
C201 C204 1.481 . S
C202 C201 1.377 . S
C202 C203 1.389 . S
C202 H224 0.929 1_455 S
C203 C199 1.397 . S
C203 C202 1.389 . S
C203 H225 0.931 1_455 S
C204 C201 1.481 . S
C204 C205 1.387 . S
C204 C209 1.390 . S
C205 C204 1.387 . S
C205 C206 1.401 . S
C205 H226 0.930 . S
C206 C205 1.401 . S
C206 C207 1.376 . S
C206 C215 1.511 . S
C207 C206 1.376 . S
C207 C208 1.392 . S
C207 H228 0.931 . S
C208 C207 1.392 . S
C208 C209 1.361 . S
C208 C210 1.500 1_455 S
C209 C204 1.390 . S
C209 C208 1.361 . S
C209 H227 0.931 . S
C210 C208 1.500 1_655 S
C210 C211 1.374 1_655 S
C210 C212 1.365 . S
C211 C210 1.374 1_455 S
C211 C221 1.368 1_455 S
C211 H229 0.947 . S
C212 C210 1.365 . S
C212 C213 1.409 . S
C212 H230 0.929 . S
C213 C212 1.409 . S
C213 C214 1.380 . S
C213 H231 0.930 . S
C214 C213 1.380 . S
C214 C221 1.357 . S
C215 C206 1.511 . S
C215 C216 1.341 . S
C215 C217 1.371 . S
C216 C215 1.341 . S
C216 C220 1.394 . S
C216 H232 0.930 . S
C217 C215 1.371 . S
C217 C218 1.392 . S
C217 H233 0.931 . S
C218 C217 1.392 . S
C218 C219 1.331 . S
C218 H236 0.932 . S
C219 C218 1.331 . S
C219 C220 1.336 . S
C220 C216 1.394 . S
C220 C219 1.336 . S
C220 H235 0.929 . S
C221 C211 1.368 1_655 S
C221 C214 1.357 . S
C221 H234 0.928 . S
H222 C198 0.931 . S
H223 C200 0.930 . S
H224 C202 0.929 1_655 S
H225 C203 0.931 1_655 S
H226 C205 0.930 . S
H227 C209 0.931 . S
H228 C207 0.931 . S
H229 C211 0.947 . S
H230 C212 0.929 . S
H231 C213 0.930 . S
H232 C216 0.930 . S
H233 C217 0.931 . S
H234 C221 0.928 . S
H235 C220 0.929 . S
H236 C218 0.932 . S
C237 C238 1.402 . S
C237 C239 1.397 . S
C237 H261 0.931 . S
C238 C237 1.402 . S
C238 C242 1.381 1_655 S
C239 C237 1.397 . S
C239 C240 1.384 . S
C239 H262 0.930 . S
C240 C239 1.384 . S
C240 C241 1.377 1_655 S
C240 C243 1.481 . S
C241 C240 1.377 1_455 S
C241 C242 1.389 . S
C241 H263 0.929 . S
C242 C238 1.381 1_455 S
C242 C241 1.389 . S
C242 H264 0.931 . S
C243 C240 1.481 . S
C243 C244 1.387 . S
C243 C248 1.390 1_655 S
C244 C243 1.387 . S
C244 C245 1.401 . S
C244 H265 0.930 . S
C245 C244 1.401 . S
C245 C246 1.387 . S
C245 C254 1.511 . S
C246 C245 1.387 . S
C246 C247 1.381 1_655 S
C246 H267 0.931 . S
C247 C246 1.381 1_455 S
C247 C248 1.361 . S
C247 C249 1.500 . S
C248 C243 1.390 1_455 S
C248 C247 1.361 . S
C248 H266 0.931 . S
C249 C247 1.500 . S
C249 C250 1.371 . S
C249 C251 1.365 . S
C250 C249 1.371 . S
C250 C260 1.386 . S
C250 H268 0.931 . S
C251 C249 1.365 . S
C251 C252 1.409 . S
C251 H269 0.929 . S
C252 C251 1.409 . S
C252 C253 1.380 . S
C252 H270 0.930 . S
C253 C252 1.380 . S
C253 C260 1.357 . S
C254 C245 1.511 . S
C254 C255 1.341 . S
C254 C256 1.371 . S
C255 C254 1.341 . S
C255 C259 1.394 . S
C255 H271 0.930 . S
C256 C254 1.371 . S
C256 C257 1.392 . S
C256 H272 0.931 . S
C257 C256 1.392 . S
C257 C258 1.331 . S
C257 H275 0.932 . S
C258 C257 1.331 . S
C258 C259 1.336 . S
C259 C255 1.394 . S
C259 C258 1.336 . S
C259 H274 0.929 . S
C260 C250 1.386 . S
C260 C253 1.357 . S
C260 H273 0.928 . S
H261 C237 0.931 . S
H262 C239 0.930 . S
H263 C241 0.929 . S
H264 C242 0.931 . S
H265 C244 0.930 . S
H266 C248 0.931 . S
H267 C246 0.931 . S
H268 C250 0.931 . S
H269 C251 0.929 . S
H270 C252 0.930 . S
H271 C255 0.930 . S
H272 C256 0.931 . S
H273 C260 0.928 . S
H274 C259 0.929 . S
H275 C257 0.932 . S
C276 C277 1.386 . S
C276 C278 1.397 . S
C276 H300 0.931 . S
C277 C276 1.386 . S
C277 C281 1.397 1_565 S
C278 C276 1.397 . S
C278 C279 1.377 1_565 S
C278 H301 0.930 . S
C279 C278 1.377 1_545 S
C279 C280 1.385 . S
C279 C282 1.480 . S
C280 C279 1.385 . S
C280 C281 1.389 . S
C280 H302 0.929 . S
C281 C277 1.397 1_545 S
C281 C280 1.389 . S
C281 H303 0.931 . S
C282 C279 1.480 . S
C282 C283 1.387 1_545 S
C282 C287 1.390 . S
C283 C282 1.387 1_565 S
C283 C284 1.401 . S
C283 H304 0.930 . S
C284 C283 1.401 . S
C284 C285 1.376 1_565 S
C284 C293 1.511 . S
C285 C284 1.376 1_545 S
C285 C286 1.392 . S
C285 H306 0.931 . S
C286 C285 1.392 . S
C286 C287 1.361 . S
C286 C288 1.500 . S
C287 C282 1.390 . S
C287 C286 1.361 . S
C287 H305 0.931 . S
C288 C286 1.500 . S
C288 C289 1.371 . S
C288 C290 1.365 . S
C289 C288 1.371 . S
C289 C299 1.386 . S
C289 H307 0.931 . S
C290 C288 1.365 . S
C290 C291 1.409 . S
C290 H308 0.929 . S
C291 C290 1.409 . S
C291 C292 1.380 . S
C291 H309 0.930 . S
C292 C291 1.380 . S
C292 C299 1.357 . S
C293 C284 1.511 . S
C293 C294 1.341 . S
C293 C295 1.371 . S
C294 C293 1.341 . S
C294 C298 1.394 . S
C294 H310 0.930 . S
C295 C293 1.371 . S
C295 C296 1.392 . S
C295 H311 0.931 . S
C296 C295 1.392 . S
C296 C297 1.331 . S
C296 H314 0.932 . S
C297 C296 1.331 . S
C297 C298 1.336 . S
C298 C294 1.394 . S
C298 C297 1.336 . S
C298 H313 0.929 . S
C299 C289 1.386 . S
C299 C292 1.357 . S
C299 H312 0.928 . S
H300 C276 0.931 . S
H301 C278 0.930 . S
H302 C280 0.929 . S
H303 C281 0.931 . S
H304 C283 0.930 . S
H305 C287 0.931 . S
H306 C285 0.931 . S
H307 C289 0.931 . S
H308 C290 0.929 . S
H309 C291 0.930 . S
H310 C294 0.930 . S
H311 C295 0.931 . S
H312 C299 0.928 . S
H313 C298 0.929 . S
H314 C296 0.932 . S
C315 C316 1.386 . S
C315 C317 1.397 . S
C315 H339 0.931 . S
C316 C315 1.386 . S
C316 C320 1.397 . S
C317 C315 1.397 . S
C317 C318 1.384 . S
C317 H340 0.930 . S
C318 C317 1.384 . S
C318 C319 1.377 . S
C318 C321 1.481 . S
C319 C318 1.377 . S
C319 C320 1.389 . S
C319 H341 0.929 . S
C320 C316 1.397 . S
C320 C319 1.389 . S
C320 H342 0.931 . S
C321 C318 1.481 . S
C321 C322 1.387 . S
C321 C326 1.390 . S
C322 C321 1.387 . S
C322 C323 1.401 . S
C322 H343 0.930 . S
C323 C322 1.401 . S
C323 C324 1.376 . S
C323 C332 1.511 . S
C324 C323 1.376 . S
C324 C325 1.392 . S
C324 H345 0.931 . S
C325 C324 1.392 . S
C325 C326 1.361 . S
C325 C327 1.500 . S
C326 C321 1.390 . S
C326 C325 1.361 . S
C326 H344 0.931 . S
C327 C325 1.500 . S
C327 C328 1.371 . S
C327 C329 1.365 . S
C328 C327 1.371 . S
C328 C338 1.386 . S
C328 H346 0.931 . S
C329 C327 1.365 . S
C329 C330 1.409 . S
C329 H347 0.929 . S
C330 C329 1.409 . S
C330 C331 1.380 . S
C330 H348 0.930 . S
C331 C330 1.380 . S
C331 C338 1.357 . S
C332 C323 1.511 . S
C332 C333 1.341 . S
C332 C334 1.371 . S
C333 C332 1.341 . S
C333 C337 1.394 . S
C333 H349 0.930 . S
C334 C332 1.371 . S
C334 C335 1.392 . S
C334 H350 0.931 . S
C335 C334 1.392 . S
C335 C336 1.331 . S
C335 H353 0.932 . S
C336 C335 1.331 . S
C336 C337 1.336 . S
C337 C333 1.394 . S
C337 C336 1.336 . S
C337 H352 0.929 . S
C338 C328 1.386 . S
C338 C331 1.357 . S
C338 H351 0.928 . S
H339 C315 0.931 . S
H340 C317 0.930 . S
H341 C319 0.929 . S
H342 C320 0.931 . S
H343 C322 0.930 . S
H344 C326 0.931 . S
H345 C324 0.931 . S
H346 C328 0.931 . S
H347 C329 0.929 . S
H348 C330 0.930 . S
H349 C333 0.930 . S
H350 C334 0.931 . S
H351 C338 0.928 . S
H352 C337 0.929 . S
H353 C335 0.932 . S
H354 C372 0.951 . S
H355 C374 0.951 . S
H356 C376 0.950 . S
H357 C377 0.950 . S
H358 C379 0.950 . S
H359 C382 0.950 . S
H360 C383 0.950 . S
H361 C385 0.950 . S
H362 C386 0.950 . S
H363 C387 0.951 . S
H364 C389 0.951 . S
H365 C391 0.950 . S
H366 C392 0.950 . S
H367 C394 0.950 . S
H368 C397 0.950 . S
H369 C398 0.950 . S
H370 C400 0.950 . S
H371 C401 0.950 . S
C372 H354 0.951 . S
C372 C373 1.366 . S
C372 C374 1.388 . S
C373 C372 1.366 . S
C373 C377 1.385 . S
C374 H355 0.951 . S
C374 C372 1.388 . S
C374 C375 1.366 . S
C375 C374 1.366 . S
C375 C376 1.414 . S
C375 C378 1.499 . S
C376 H356 0.950 . S
C376 C375 1.414 . S
C376 C377 1.374 . S
C377 H357 0.950 . S
C377 C373 1.385 . S
C377 C376 1.374 . S
C378 C375 1.499 . S
C378 C379 1.373 . S
C378 C380 1.389 . S
C379 H358 0.950 . S
C379 C378 1.373 . S
C379 C395 1.377 . S
C380 C378 1.389 . S
C380 C381 1.524 . S
C380 C394 1.377 . S
C381 C380 1.524 . S
C381 C382 1.397 . S
C381 C386 1.363 . S
C382 H359 0.950 . S
C382 C381 1.397 . S
C382 C383 1.334 . S
C383 H360 0.950 . S
C383 C382 1.334 . S
C383 C384 1.287 . S
C384 C383 1.287 . S
C384 C385 1.524 . S
C384 H403 0.913 . S
C385 H361 0.950 . S
C385 C384 1.524 . S
C385 C386 1.415 . S
C386 H362 0.950 . S
C386 C381 1.363 . S
C386 C385 1.415 . S
C387 H363 0.951 . S
C387 C388 1.366 . S
C387 C389 1.388 . S
C388 C387 1.366 . S
C388 C392 1.385 . S
C389 H364 0.951 . S
C389 C387 1.388 . S
C389 C390 1.366 . S
C390 C389 1.366 . S
C390 C391 1.414 . S
C390 C393 1.499 . S
C391 H365 0.950 . S
C391 C390 1.414 . S
C391 C392 1.374 . S
C392 H366 0.950 . S
C392 C388 1.385 . S
C392 C391 1.374 . S
C393 C390 1.499 . S
C393 C394 1.373 . S
C393 C395 1.389 . S
C394 H367 0.950 . S
C394 C380 1.377 . S
C394 C393 1.373 . S
C395 C379 1.377 . S
C395 C393 1.389 . S
C395 C396 1.524 . S
C396 C395 1.524 . S
C396 C397 1.397 . S
C396 C401 1.363 . S
C397 H368 0.950 . S
C397 C396 1.397 . S
C397 C398 1.334 . S
C398 H369 0.950 . S
C398 C397 1.334 . S
C398 C399 1.287 . S
C399 C398 1.287 . S
C399 C400 1.524 . S
C399 H402 0.999 . S
C400 H370 0.950 . S
C400 C399 1.524 . S
C400 C401 1.415 . S
C401 H371 0.950 . S
C401 C396 1.363 . S
C401 C400 1.415 . S
H402 C399 0.999 . S
H403 C384 0.913 . S
H404 C422 0.951 . S
H405 C424 0.951 . S
H406 C426 0.950 . S
H407 C427 0.950 . S
H408 C429 0.950 . S
H409 C432 0.950 . S
H410 C433 0.950 . S
H411 C435 0.950 . S
H412 C436 0.950 . S
H413 C437 0.951 . S
H414 C439 0.951 . S
H415 C441 0.950 . S
H416 C442 0.950 . S
H417 C444 0.950 . S
H418 C447 0.950 . S
H419 C448 0.950 . S
H420 C450 0.950 . S
H421 C451 0.950 . S
C422 H404 0.951 . S
C422 C423 1.366 . S
C422 C424 1.388 . S
C423 C422 1.366 . S
C423 C427 1.385 . S
C424 H405 0.951 . S
C424 C422 1.388 . S
C424 C425 1.366 . S
C425 C424 1.366 . S
C425 C426 1.414 . S
C425 C428 1.499 . S
C426 H406 0.950 . S
C426 C425 1.414 . S
C426 C427 1.374 . S
C427 H407 0.950 . S
C427 C423 1.385 . S
C427 C426 1.374 . S
C428 C425 1.499 . S
C428 C429 1.373 . S
C428 C430 1.389 . S
C429 H408 0.950 . S
C429 C428 1.373 . S
C429 C445 1.377 . S
C430 C428 1.389 . S
C430 C431 1.524 . S
C430 C444 1.377 . S
C431 C430 1.524 . S
C431 C432 1.397 . S
C431 C436 1.363 . S
C432 H409 0.950 . S
C432 C431 1.397 . S
C432 C433 1.334 . S
C433 H410 0.950 . S
C433 C432 1.334 . S
C433 C434 1.287 . S
C434 C433 1.287 . S
C434 C435 1.524 . S
C434 H453 0.913 . S
C435 H411 0.950 . S
C435 C434 1.524 . S
C435 C436 1.415 . S
C436 H412 0.950 . S
C436 C431 1.363 . S
C436 C435 1.415 . S
C437 H413 0.951 . S
C437 C438 1.366 . S
C437 C439 1.388 . S
C438 C437 1.366 . S
C438 C442 1.385 . S
C439 H414 0.951 . S
C439 C437 1.388 . S
C439 C440 1.366 . S
C440 C439 1.366 . S
C440 C441 1.414 . S
C440 C443 1.499 . S
C441 H415 0.950 . S
C441 C440 1.414 . S
C441 C442 1.374 . S
C442 H416 0.950 . S
C442 C438 1.385 . S
C442 C441 1.374 . S
C443 C440 1.499 . S
C443 C444 1.373 . S
C443 C445 1.389 . S
C444 H417 0.950 . S
C444 C430 1.377 . S
C444 C443 1.373 . S
C445 C429 1.377 . S
C445 C443 1.389 . S
C445 C446 1.524 . S
C446 C445 1.524 . S
C446 C447 1.397 . S
C446 C451 1.363 . S
C447 H418 0.950 . S
C447 C446 1.397 . S
C447 C448 1.334 . S
C448 H419 0.950 . S
C448 C447 1.334 . S
C448 C449 1.287 . S
C449 C448 1.287 . S
C449 C450 1.524 . S
C449 H452 0.999 . S
C450 H420 0.950 . S
C450 C449 1.524 . S
C450 C451 1.415 . S
C451 H421 0.950 . S
C451 C446 1.363 . S
C451 C450 1.415 . S
H452 C449 0.999 . S
H453 C434 0.913 . S
H454 C472 0.951 . S
H455 C474 0.951 . S
H456 C476 0.950 . S
H457 C477 0.950 . S
H458 C479 0.950 . S
H459 C482 0.950 . S
H460 C483 0.950 . S
H461 C485 0.950 . S
H462 C486 0.950 . S
H463 C487 0.951 . S
H464 C489 0.951 . S
H465 C491 0.950 . S
H466 C492 0.950 . S
H467 C494 0.950 . S
H468 C497 0.950 . S
H469 C498 0.950 . S
H470 C500 0.950 . S
H471 C501 0.950 . S
C472 H454 0.951 . S
C472 C473 1.366 . S
C472 C474 1.388 . S
C473 C472 1.366 . S
C473 C477 1.385 . S
C474 H455 0.951 . S
C474 C472 1.388 . S
C474 C475 1.366 . S
C475 C474 1.366 . S
C475 C476 1.414 . S
C475 C478 1.499 . S
C476 H456 0.950 . S
C476 C475 1.414 . S
C476 C477 1.374 . S
C477 H457 0.950 . S
C477 C473 1.385 . S
C477 C476 1.374 . S
C478 C475 1.499 . S
C478 C479 1.373 . S
C478 C480 1.389 . S
C479 H458 0.950 . S
C479 C478 1.373 . S
C479 C495 1.377 . S
C480 C478 1.389 . S
C480 C481 1.524 . S
C480 C494 1.377 . S
C481 C480 1.524 . S
C481 C482 1.397 . S
C481 C486 1.363 . S
C482 H459 0.950 . S
C482 C481 1.397 . S
C482 C483 1.334 . S
C483 H460 0.950 . S
C483 C482 1.334 . S
C483 C484 1.287 . S
C484 C483 1.287 . S
C484 C485 1.524 . S
C484 H503 0.913 . S
C485 H461 0.950 . S
C485 C484 1.524 . S
C485 C486 1.415 . S
C486 H462 0.950 . S
C486 C481 1.363 . S
C486 C485 1.415 . S
C487 H463 0.951 . S
C487 C488 1.366 . S
C487 C489 1.388 . S
C488 C487 1.366 . S
C488 C492 1.385 . S
C489 H464 0.951 . S
C489 C487 1.388 . S
C489 C490 1.366 . S
C490 C489 1.366 . S
C490 C491 1.414 . S
C490 C493 1.499 . S
C491 H465 0.950 . S
C491 C490 1.414 . S
C491 C492 1.374 . S
C492 H466 0.950 . S
C492 C488 1.385 . S
C492 C491 1.374 . S
C493 C490 1.499 . S
C493 C494 1.373 . S
C493 C495 1.389 . S
C494 H467 0.950 . S
C494 C480 1.377 . S
C494 C493 1.373 . S
C495 C479 1.377 . S
C495 C493 1.389 . S
C495 C496 1.524 . S
C496 C495 1.524 . S
C496 C497 1.397 . S
C496 C501 1.363 . S
C497 H468 0.950 . S
C497 C496 1.397 . S
C497 C498 1.334 . S
C498 H469 0.950 . S
C498 C497 1.334 . S
C498 C499 1.287 . S
C499 C498 1.287 . S
C499 C500 1.524 . S
C499 H502 0.999 . S
C500 H470 0.950 . S
C500 C499 1.524 . S
C500 C501 1.415 . S
C501 H471 0.950 . S
C501 C496 1.363 . S
C501 C500 1.415 . S
H502 C499 0.999 . S
H503 C484 0.913 . S
H504 C522 0.951 . S
H505 C524 0.951 . S
H506 C526 0.950 . S
H507 C527 0.950 . S
H508 C529 0.950 . S
H509 C532 0.950 . S
H510 C533 0.950 . S
H511 C535 0.950 . S
H512 C536 0.950 . S
H513 C537 0.951 . S
H514 C539 0.951 . S
H515 C541 0.950 . S
H516 C542 0.950 . S
H517 C544 0.950 . S
H518 C547 0.950 . S
H519 C548 0.950 . S
H520 C550 0.950 . S
H521 C551 0.950 . S
C522 H504 0.951 . S
C522 C523 1.366 . S
C522 C524 1.388 . S
C523 C522 1.366 . S
C523 C527 1.385 . S
C524 H505 0.951 . S
C524 C522 1.388 . S
C524 C525 1.366 . S
C525 C524 1.366 . S
C525 C526 1.414 . S
C525 C528 1.499 . S
C526 H506 0.950 . S
C526 C525 1.414 . S
C526 C527 1.374 . S
C527 H507 0.950 . S
C527 C523 1.385 . S
C527 C526 1.374 . S
C528 C525 1.499 . S
C528 C529 1.373 . S
C528 C530 1.389 . S
C529 H508 0.950 . S
C529 C528 1.373 . S
C529 C545 1.377 . S
C530 C528 1.389 . S
C530 C531 1.524 . S
C530 C544 1.377 . S
C531 C530 1.524 . S
C531 C532 1.397 . S
C531 C536 1.363 . S
C532 H509 0.950 . S
C532 C531 1.397 . S
C532 C533 1.334 . S
C533 H510 0.950 . S
C533 C532 1.334 . S
C533 C534 1.287 . S
C534 C533 1.287 . S
C534 C535 1.524 . S
C534 H553 0.913 . S
C535 H511 0.950 . S
C535 C534 1.524 . S
C535 C536 1.415 . S
C536 H512 0.950 . S
C536 C531 1.363 . S
C536 C535 1.415 . S
C537 H513 0.951 . S
C537 C538 1.366 . S
C537 C539 1.388 . S
C538 C537 1.366 . S
C538 C542 1.385 . S
C539 H514 0.951 . S
C539 C537 1.388 . S
C539 C540 1.366 . S
C540 C539 1.366 . S
C540 C541 1.414 . S
C540 C543 1.499 . S
C541 H515 0.950 . S
C541 C540 1.414 . S
C541 C542 1.374 . S
C542 H516 0.950 . S
C542 C538 1.385 . S
C542 C541 1.374 . S
C543 C540 1.499 . S
C543 C544 1.373 . S
C543 C545 1.389 . S
C544 H517 0.950 . S
C544 C530 1.377 . S
C544 C543 1.373 . S
C545 C529 1.377 . S
C545 C543 1.389 . S
C545 C546 1.524 . S
C546 C545 1.524 . S
C546 C547 1.397 . S
C546 C551 1.363 . S
C547 H518 0.950 . S
C547 C546 1.397 . S
C547 C548 1.334 . S
C548 H519 0.950 . S
C548 C547 1.334 . S
C548 C549 1.287 . S
C549 C548 1.287 . S
C549 C550 1.524 . S
C549 H552 0.999 . S
C550 H520 0.950 . S
C550 C549 1.524 . S
C550 C551 1.415 . S
C551 H521 0.950 . S
C551 C546 1.363 . S
C551 C550 1.415 . S
H552 C549 0.999 . S
H553 C534 0.913 . S
H554 C572 0.951 . S
H555 C574 0.951 . S
H556 C576 0.950 . S
H557 C577 0.950 . S
H558 C579 0.950 . S
H559 C582 0.950 . S
H560 C583 0.950 . S
H561 C585 0.950 . S
H562 C586 0.950 . S
H563 C587 0.951 . S
H564 C589 0.951 . S
H565 C591 0.950 . S
H566 C592 0.950 . S
H567 C594 0.950 . S
H568 C597 0.950 . S
H569 C598 0.950 . S
H570 C600 0.950 . S
H571 C601 0.950 . S
C572 H554 0.951 . S
C572 C573 1.366 . S
C572 C574 1.388 . S
C573 C572 1.366 . S
C573 C577 1.385 . S
C574 H555 0.951 . S
C574 C572 1.388 . S
C574 C575 1.366 . S
C575 C574 1.366 . S
C575 C576 1.414 . S
C575 C578 1.499 . S
C576 H556 0.950 . S
C576 C575 1.414 . S
C576 C577 1.374 . S
C577 H557 0.950 . S
C577 C573 1.385 . S
C577 C576 1.374 . S
C578 C575 1.499 . S
C578 C579 1.373 . S
C578 C580 1.389 . S
C579 H558 0.950 . S
C579 C578 1.373 . S
C579 C595 1.377 . S
C580 C578 1.389 . S
C580 C581 1.524 . S
C580 C594 1.377 . S
C581 C580 1.524 . S
C581 C582 1.397 . S
C581 C586 1.363 . S
C582 H559 0.950 . S
C582 C581 1.397 . S
C582 C583 1.334 . S
C583 H560 0.950 . S
C583 C582 1.334 . S
C583 C584 1.287 . S
C584 C583 1.287 . S
C584 C585 1.524 . S
C584 H603 0.913 . S
C585 H561 0.950 . S
C585 C584 1.524 . S
C585 C586 1.415 . S
C586 H562 0.950 . S
C586 C581 1.363 . S
C586 C585 1.415 . S
C587 H563 0.951 . S
C587 C588 1.366 . S
C587 C589 1.388 . S
C588 C587 1.366 . S
C588 C592 1.385 . S
C589 H564 0.951 . S
C589 C587 1.388 . S
C589 C590 1.366 . S
C590 C589 1.366 . S
C590 C591 1.414 . S
C590 C593 1.499 . S
C591 H565 0.950 . S
C591 C590 1.414 . S
C591 C592 1.374 . S
C592 H566 0.950 . S
C592 C588 1.385 . S
C592 C591 1.374 . S
C593 C590 1.499 . S
C593 C594 1.373 . S
C593 C595 1.389 . S
C594 H567 0.950 . S
C594 C580 1.377 . S
C594 C593 1.373 . S
C595 C579 1.377 . S
C595 C593 1.389 . S
C595 C596 1.524 . S
C596 C595 1.524 . S
C596 C597 1.397 . S
C596 C601 1.363 . S
C597 H568 0.950 . S
C597 C596 1.397 . S
C597 C598 1.334 . S
C598 H569 0.950 . S
C598 C597 1.334 . S
C598 C599 1.287 . S
C599 C598 1.287 . S
C599 C600 1.524 . S
C599 H602 0.999 . S
C600 H570 0.950 . S
C600 C599 1.524 . S
C600 C601 1.415 . S
C601 H571 0.950 . S
C601 C596 1.363 . S
C601 C600 1.415 . S
H602 C599 0.999 . S
H603 C584 0.913 . S
H604 C622 0.951 . S
H605 C624 0.951 . S
H606 C626 0.950 . S
H607 C627 0.950 . S
H608 C629 0.950 . S
H609 C632 0.950 . S
H610 C633 0.950 . S
H611 C635 0.950 . S
H612 C636 0.950 . S
H613 C637 0.951 . S
H614 C639 0.951 . S
H615 C641 0.950 . S
H616 C642 0.950 . S
H617 C644 0.950 . S
H618 C647 0.950 . S
H619 C648 0.950 . S
H620 C650 0.950 . S
H621 C651 0.950 . S
C622 H604 0.951 . S
C622 C623 1.366 . S
C622 C624 1.388 . S
C623 C622 1.366 . S
C623 C627 1.385 . S
C624 H605 0.951 . S
C624 C622 1.388 . S
C624 C625 1.366 . S
C625 C624 1.366 . S
C625 C626 1.414 . S
C625 C628 1.499 . S
C626 H606 0.950 . S
C626 C625 1.414 . S
C626 C627 1.374 . S
C627 H607 0.950 . S
C627 C623 1.385 . S
C627 C626 1.374 . S
C628 C625 1.499 . S
C628 C629 1.373 . S
C628 C630 1.389 . S
C629 H608 0.950 . S
C629 C628 1.373 . S
C629 C645 1.377 . S
C630 C628 1.389 . S
C630 C631 1.524 . S
C630 C644 1.377 . S
C631 C630 1.524 . S
C631 C632 1.397 . S
C631 C636 1.363 . S
C632 H609 0.950 . S
C632 C631 1.397 . S
C632 C633 1.334 . S
C633 H610 0.950 . S
C633 C632 1.334 . S
C633 C634 1.287 . S
C634 C633 1.287 . S
C634 C635 1.524 . S
C634 H653 0.913 . S
C635 H611 0.950 . S
C635 C634 1.524 . S
C635 C636 1.415 . S
C636 H612 0.950 . S
C636 C631 1.363 . S
C636 C635 1.415 . S
C637 H613 0.951 . S
C637 C638 1.366 . S
C637 C639 1.388 . S
C638 C637 1.366 . S
C638 C642 1.385 . S
C639 H614 0.951 . S
C639 C637 1.388 . S
C639 C640 1.366 . S
C640 C639 1.366 . S
C640 C641 1.414 . S
C640 C643 1.499 . S
C641 H615 0.950 . S
C641 C640 1.414 . S
C641 C642 1.374 . S
C642 H616 0.950 . S
C642 C638 1.385 . S
C642 C641 1.374 . S
C643 C640 1.499 . S
C643 C644 1.373 . S
C643 C645 1.389 . S
C644 H617 0.950 . S
C644 C630 1.377 . S
C644 C643 1.373 . S
C645 C629 1.377 . S
C645 C643 1.389 . S
C645 C646 1.524 . S
C646 C645 1.524 . S
C646 C647 1.397 . S
C646 C651 1.363 . S
C647 H618 0.950 . S
C647 C646 1.397 . S
C647 C648 1.334 . S
C648 H619 0.950 . S
C648 C647 1.334 . S
C648 C649 1.287 . S
C649 C648 1.287 . S
C649 C650 1.524 . S
C649 H652 0.999 . S
C650 H620 0.950 . S
C650 C649 1.524 . S
C650 C651 1.415 . S
C651 H621 0.950 . S
C651 C646 1.363 . S
C651 C650 1.415 . S
H652 C649 0.999 . S
H653 C634 0.913 . S
H654 C672 0.951 . S
H655 C674 0.951 . S
H656 C676 0.950 . S
H657 C677 0.950 . S
H658 C679 0.950 . S
H659 C682 0.950 . S
H660 C683 0.950 . S
H661 C685 0.950 . S
H662 C686 0.950 . S
H663 C687 0.951 . S
H664 C689 0.951 . S
H665 C691 0.950 . S
H666 C692 0.950 . S
H667 C694 0.950 . S
H668 C697 0.950 . S
H669 C698 0.950 . S
H670 C700 0.950 . S
H671 C701 0.950 . S
C672 H654 0.951 . S
C672 C673 1.366 . S
C672 C674 1.388 . S
C673 C672 1.366 . S
C673 C677 1.385 . S
C674 H655 0.951 . S
C674 C672 1.388 . S
C674 C675 1.366 . S
C675 C674 1.366 . S
C675 C676 1.414 . S
C675 C678 1.499 . S
C676 H656 0.950 . S
C676 C675 1.414 . S
C676 C677 1.374 . S
C677 H657 0.950 . S
C677 C673 1.385 . S
C677 C676 1.374 . S
C678 C675 1.499 . S
C678 C679 1.373 . S
C678 C680 1.389 . S
C679 H658 0.950 . S
C679 C678 1.373 . S
C679 C695 1.377 . S
C680 C678 1.389 . S
C680 C681 1.524 . S
C680 C694 1.377 . S
C681 C680 1.524 . S
C681 C682 1.397 . S
C681 C686 1.363 . S
C682 H659 0.950 . S
C682 C681 1.397 . S
C682 C683 1.334 . S
C683 H660 0.950 . S
C683 C682 1.334 . S
C683 C684 1.287 . S
C684 C683 1.287 . S
C684 C685 1.524 . S
C684 H703 0.913 . S
C685 H661 0.950 . S
C685 C684 1.524 . S
C685 C686 1.415 . S
C686 H662 0.950 . S
C686 C681 1.363 . S
C686 C685 1.415 . S
C687 H663 0.951 . S
C687 C688 1.366 . S
C687 C689 1.388 . S
C688 C687 1.366 . S
C688 C692 1.385 . S
C689 H664 0.951 . S
C689 C687 1.388 . S
C689 C690 1.366 . S
C690 C689 1.366 . S
C690 C691 1.414 . S
C690 C693 1.499 . S
C691 H665 0.950 . S
C691 C690 1.414 . S
C691 C692 1.374 . S
C692 H666 0.950 . S
C692 C688 1.385 . S
C692 C691 1.374 . S
C693 C690 1.499 . S
C693 C694 1.373 . S
C693 C695 1.389 . S
C694 H667 0.950 . S
C694 C680 1.377 . S
C694 C693 1.373 . S
C695 C679 1.377 . S
C695 C693 1.389 . S
C695 C696 1.524 . S
C696 C695 1.524 . S
C696 C697 1.397 . S
C696 C701 1.363 . S
C697 H668 0.950 . S
C697 C696 1.397 . S
C697 C698 1.334 . S
C698 H669 0.950 . S
C698 C697 1.334 . S
C698 C699 1.287 . S
C699 C698 1.287 . S
C699 C700 1.524 . S
C699 H702 0.999 . S
C700 H670 0.950 . S
C700 C699 1.524 . S
C700 C701 1.415 . S
C701 H671 0.950 . S
C701 C696 1.363 . S
C701 C700 1.415 . S
H702 C699 0.999 . S
H703 C684 0.913 . S
H704 C722 0.951 . S
H705 C724 0.951 . S
H706 C726 0.950 . S
H707 C727 0.950 . S
H708 C729 0.950 . S
H709 C732 0.950 . S
H710 C733 0.950 . S
H711 C735 0.950 . S
H712 C736 0.950 . S
H713 C737 0.951 . S
H714 C739 0.951 . S
H715 C741 0.950 . S
H716 C742 0.950 . S
H717 C744 0.950 . S
H718 C747 0.950 . S
H719 C748 0.950 . S
H720 C750 0.950 . S
H721 C751 0.950 . S
C722 H704 0.951 . S
C722 C723 1.366 . S
C722 C724 1.388 . S
C723 C722 1.366 . S
C723 C727 1.385 . S
C724 H705 0.951 . S
C724 C722 1.388 . S
C724 C725 1.366 . S
C725 C724 1.366 . S
C725 C726 1.414 . S
C725 C728 1.499 . S
C726 H706 0.950 . S
C726 C725 1.414 . S
C726 C727 1.374 . S
C727 H707 0.950 . S
C727 C723 1.385 . S
C727 C726 1.374 . S
C728 C725 1.499 . S
C728 C729 1.373 . S
C728 C730 1.389 . S
C729 H708 0.950 . S
C729 C728 1.373 . S
C729 C745 1.377 . S
C730 C728 1.389 . S
C730 C731 1.524 . S
C730 C744 1.377 . S
C731 C730 1.524 . S
C731 C732 1.397 . S
C731 C736 1.363 . S
C732 H709 0.950 . S
C732 C731 1.397 . S
C732 C733 1.334 . S
C733 H710 0.950 . S
C733 C732 1.334 . S
C733 C734 1.287 . S
C734 C733 1.287 . S
C734 C735 1.524 . S
C734 H753 0.913 . S
C735 H711 0.950 . S
C735 C734 1.524 . S
C735 C736 1.415 . S
C736 H712 0.950 . S
C736 C731 1.363 . S
C736 C735 1.415 . S
C737 H713 0.951 . S
C737 C738 1.366 . S
C737 C739 1.388 . S
C738 C737 1.366 . S
C738 C742 1.385 . S
C739 H714 0.951 . S
C739 C737 1.388 . S
C739 C740 1.366 . S
C740 C739 1.366 . S
C740 C741 1.414 . S
C740 C743 1.499 . S
C741 H715 0.950 . S
C741 C740 1.414 . S
C741 C742 1.374 . S
C742 H716 0.950 . S
C742 C738 1.385 . S
C742 C741 1.374 . S
C743 C740 1.499 . S
C743 C744 1.373 . S
C743 C745 1.389 . S
C744 H717 0.950 . S
C744 C730 1.377 . S
C744 C743 1.373 . S
C745 C729 1.377 . S
C745 C743 1.389 . S
C745 C746 1.524 . S
C746 C745 1.524 . S
C746 C747 1.397 . S
C746 C751 1.363 . S
C747 H718 0.950 . S
C747 C746 1.397 . S
C747 C748 1.334 . S
C748 H719 0.950 . S
C748 C747 1.334 . S
C748 C749 1.287 . S
C749 C748 1.287 . S
C749 C750 1.524 . S
C749 H752 0.999 . S
C750 H720 0.950 . S
C750 C749 1.524 . S
C750 C751 1.415 . S
C751 H721 0.950 . S
C751 C746 1.363 . S
C751 C750 1.415 . S
H752 C749 0.999 . S
H753 C734 0.913 . S
H754 C772 0.951 . S
H755 C774 0.951 . S
H756 C776 0.950 . S
H757 C777 0.950 . S
H758 C779 0.950 . S
H759 C782 0.950 . S
H760 C783 0.950 . S
H761 C785 0.950 . S
H762 C786 0.950 . S
H763 C787 0.951 . S
H764 C789 0.951 . S
H765 C791 0.950 . S
H766 C792 0.950 . S
H767 C794 0.950 . S
H768 C797 0.950 . S
H769 C798 0.950 . S
H770 C800 0.950 . S
H771 C801 0.950 . S
C772 H754 0.951 . S
C772 C773 1.366 . S
C772 C774 1.388 . S
C773 C772 1.366 . S
C773 C777 1.385 . S
C774 H755 0.951 . S
C774 C772 1.388 . S
C774 C775 1.366 . S
C775 C774 1.366 . S
C775 C776 1.414 . S
C775 C778 1.499 . S
C776 H756 0.950 . S
C776 C775 1.414 . S
C776 C777 1.374 . S
C777 H757 0.950 . S
C777 C773 1.385 . S
C777 C776 1.374 . S
C778 C775 1.499 . S
C778 C779 1.373 . S
C778 C780 1.389 . S
C779 H758 0.950 . S
C779 C778 1.373 . S
C779 C795 1.377 . S
C780 C778 1.389 . S
C780 C781 1.524 . S
C780 C794 1.377 . S
C781 C780 1.524 . S
C781 C782 1.397 . S
C781 C786 1.363 . S
C782 H759 0.950 . S
C782 C781 1.397 . S
C782 C783 1.334 . S
C783 H760 0.950 . S
C783 C782 1.334 . S
C783 C784 1.287 . S
C784 C783 1.287 . S
C784 C785 1.524 . S
C784 H803 0.913 . S
C785 H761 0.950 . S
C785 C784 1.524 . S
C785 C786 1.415 . S
C786 H762 0.950 . S
C786 C781 1.363 . S
C786 C785 1.415 . S
C787 H763 0.951 . S
C787 C788 1.366 . S
C787 C789 1.388 . S
C788 C787 1.366 . S
C788 C792 1.385 . S
C789 H764 0.951 . S
C789 C787 1.388 . S
C789 C790 1.366 . S
C790 C789 1.366 . S
C790 C791 1.414 . S
C790 C793 1.499 . S
C791 H765 0.950 . S
C791 C790 1.414 . S
C791 C792 1.374 . S
C792 H766 0.950 . S
C792 C788 1.385 . S
C792 C791 1.374 . S
C793 C790 1.499 . S
C793 C794 1.373 . S
C793 C795 1.389 . S
C794 H767 0.950 . S
C794 C780 1.377 . S
C794 C793 1.373 . S
C795 C779 1.377 . S
C795 C793 1.389 . S
C795 C796 1.524 . S
C796 C795 1.524 . S
C796 C797 1.397 . S
C796 C801 1.363 . S
C797 H768 0.950 . S
C797 C796 1.397 . S
C797 C798 1.334 . S
C798 H769 0.950 . S
C798 C797 1.334 . S
C798 C799 1.287 . S
C799 C798 1.287 . S
C799 C800 1.524 . S
C799 H802 0.999 . S
C800 H770 0.950 . S
C800 C799 1.524 . S
C800 C801 1.415 . S
C801 H771 0.950 . S
C801 C796 1.363 . S
C801 C800 1.415 . S
H802 C799 0.999 . S
H803 C784 0.913 . S
H804 C822 0.951 . S
H805 C824 0.951 . S
H806 C826 0.950 . S
H807 C827 0.950 . S
H808 C829 0.950 . S
H809 C832 0.950 . S
H810 C833 0.950 . S
H811 C835 0.950 . S
H812 C836 0.950 . S
H813 C837 0.951 . S
H814 C839 0.951 . S
H815 C841 0.950 . S
H816 C842 0.950 . S
H817 C844 0.950 . S
H818 C847 0.950 . S
H819 C848 0.950 . S
H820 C850 0.950 . S
H821 C851 0.950 . S
C822 H804 0.951 . S
C822 C823 1.366 . S
C822 C824 1.388 . S
C823 C822 1.366 . S
C823 C827 1.385 . S
C824 H805 0.951 . S
C824 C822 1.388 . S
C824 C825 1.366 . S
C825 C824 1.366 . S
C825 C826 1.414 . S
C825 C828 1.499 . S
C826 H806 0.950 . S
C826 C825 1.414 . S
C826 C827 1.374 . S
C827 H807 0.950 . S
C827 C823 1.385 . S
C827 C826 1.374 . S
C828 C825 1.499 . S
C828 C829 1.373 . S
C828 C830 1.389 . S
C829 H808 0.950 . S
C829 C828 1.373 . S
C829 C845 1.377 . S
C830 C828 1.389 . S
C830 C831 1.524 . S
C830 C844 1.377 . S
C831 C830 1.524 . S
C831 C832 1.397 . S
C831 C836 1.363 . S
C832 H809 0.950 . S
C832 C831 1.397 . S
C832 C833 1.334 . S
C833 H810 0.950 . S
C833 C832 1.334 . S
C833 C834 1.287 . S
C834 C833 1.287 . S
C834 C835 1.524 . S
C834 H853 0.913 . S
C835 H811 0.950 . S
C835 C834 1.524 . S
C835 C836 1.415 . S
C836 H812 0.950 . S
C836 C831 1.363 . S
C836 C835 1.415 . S
C837 H813 0.951 . S
C837 C838 1.366 . S
C837 C839 1.388 . S
C838 C837 1.366 . S
C838 C842 1.385 . S
C839 H814 0.951 . S
C839 C837 1.388 . S
C839 C840 1.366 . S
C840 C839 1.366 . S
C840 C841 1.414 . S
C840 C843 1.499 . S
C841 H815 0.950 . S
C841 C840 1.414 . S
C841 C842 1.374 . S
C842 H816 0.950 . S
C842 C838 1.385 . S
C842 C841 1.374 . S
C843 C840 1.499 . S
C843 C844 1.373 . S
C843 C845 1.389 . S
C844 H817 0.950 . S
C844 C830 1.377 . S
C844 C843 1.373 . S
C845 C829 1.377 . S
C845 C843 1.389 . S
C845 C846 1.524 . S
C846 C845 1.524 . S
C846 C847 1.397 . S
C846 C851 1.363 . S
C847 H818 0.950 . S
C847 C846 1.397 . S
C847 C848 1.334 . S
C848 H819 0.950 . S
C848 C847 1.334 . S
C848 C849 1.287 . S
C849 C848 1.287 . S
C849 C850 1.524 . S
C849 H852 0.999 . S
C850 H820 0.950 . S
C850 C849 1.524 . S
C850 C851 1.415 . S
C851 H821 0.950 . S
C851 C846 1.363 . S
C851 C850 1.415 . S
H852 C849 0.999 . S
H853 C834 0.913 . S
H854 C872 0.951 . S
H855 C874 0.951 . S
H856 C876 0.950 . S
H857 C877 0.950 . S
H858 C879 0.950 . S
H859 C882 0.950 . S
H860 C883 0.950 . S
H861 C885 0.950 . S
H862 C886 0.950 . S
H863 C887 0.951 . S
H864 C889 0.951 . S
H865 C891 0.950 . S
H866 C892 0.950 . S
H867 C894 0.950 . S
H868 C897 0.950 . S
H869 C898 0.950 . S
H870 C900 0.950 . S
H871 C901 0.950 . S
C872 H854 0.951 . S
C872 C873 1.366 . S
C872 C874 1.388 . S
C873 C872 1.366 . S
C873 C877 1.385 . S
C874 H855 0.951 . S
C874 C872 1.388 . S
C874 C875 1.366 . S
C875 C874 1.366 . S
C875 C876 1.414 . S
C875 C878 1.499 . S
C876 H856 0.950 . S
C876 C875 1.414 . S
C876 C877 1.374 . S
C877 H857 0.950 . S
C877 C873 1.385 . S
C877 C876 1.374 . S
C878 C875 1.499 . S
C878 C879 1.373 . S
C878 C880 1.389 . S
C879 H858 0.950 . S
C879 C878 1.373 . S
C879 C895 1.377 . S
C880 C878 1.389 . S
C880 C881 1.524 . S
C880 C894 1.377 . S
C881 C880 1.524 . S
C881 C882 1.397 . S
C881 C886 1.363 . S
C882 H859 0.950 . S
C882 C881 1.397 . S
C882 C883 1.334 . S
C883 H860 0.950 . S
C883 C882 1.334 . S
C883 C884 1.287 . S
C884 C883 1.287 . S
C884 C885 1.524 . S
C884 H903 0.913 . S
C885 H861 0.950 . S
C885 C884 1.524 . S
C885 C886 1.415 . S
C886 H862 0.950 . S
C886 C881 1.363 . S
C886 C885 1.415 . S
C887 H863 0.951 . S
C887 C888 1.366 . S
C887 C889 1.388 . S
C888 C887 1.366 . S
C888 C892 1.385 . S
C889 H864 0.951 . S
C889 C887 1.388 . S
C889 C890 1.366 . S
C890 C889 1.366 . S
C890 C891 1.414 . S
C890 C893 1.499 . S
C891 H865 0.950 . S
C891 C890 1.414 . S
C891 C892 1.374 . S
C892 H866 0.950 . S
C892 C888 1.385 . S
C892 C891 1.374 . S
C893 C890 1.499 . S
C893 C894 1.373 . S
C893 C895 1.389 . S
C894 H867 0.950 . S
C894 C880 1.377 . S
C894 C893 1.373 . S
C895 C879 1.377 . S
C895 C893 1.389 . S
C895 C896 1.524 . S
C896 C895 1.524 . S
C896 C897 1.397 . S
C896 C901 1.363 . S
C897 H868 0.950 . S
C897 C896 1.397 . S
C897 C898 1.334 . S
C898 H869 0.950 . S
C898 C897 1.334 . S
C898 C899 1.287 . S
C899 C898 1.287 . S
C899 C900 1.524 . S
C899 H902 0.999 . S
C900 H870 0.950 . S
C900 C899 1.524 . S
C900 C901 1.415 . S
C901 H871 0.950 . S
C901 C896 1.363 . S
C901 C900 1.415 . S
H902 C899 0.999 . S
H903 C884 0.913 . S
H904 C922 0.951 . S
H905 C924 0.951 . S
H906 C926 0.950 . S
H907 C927 0.950 . S
H908 C929 0.950 . S
H909 C932 0.950 . S
H910 C933 0.950 . S
H911 C935 0.950 . S
H912 C936 0.950 . S
H913 C937 0.951 . S
H914 C939 0.951 . S
H915 C941 0.950 . S
H916 C942 0.950 . S
H917 C944 0.950 . S
H918 C947 0.950 . S
H919 C948 0.950 . S
H920 C950 0.950 . S
H921 C951 0.950 . S
C922 H904 0.951 . S
C922 C923 1.366 . S
C922 C924 1.388 . S
C923 C922 1.366 . S
C923 C927 1.385 . S
C924 H905 0.951 . S
C924 C922 1.388 . S
C924 C925 1.366 . S
C925 C924 1.366 . S
C925 C926 1.414 . S
C925 C928 1.499 . S
C926 H906 0.950 . S
C926 C925 1.414 . S
C926 C927 1.374 . S
C927 H907 0.950 . S
C927 C923 1.385 . S
C927 C926 1.374 . S
C928 C925 1.499 . S
C928 C929 1.373 . S
C928 C930 1.389 . S
C929 H908 0.950 . S
C929 C928 1.373 . S
C929 C945 1.377 . S
C930 C928 1.389 . S
C930 C931 1.524 . S
C930 C944 1.377 . S
C931 C930 1.524 . S
C931 C932 1.397 . S
C931 C936 1.363 . S
C932 H909 0.950 . S
C932 C931 1.397 . S
C932 C933 1.334 . S
C933 H910 0.950 . S
C933 C932 1.334 . S
C933 C934 1.287 . S
C934 C933 1.287 . S
C934 C935 1.524 . S
C934 H953 0.913 . S
C935 H911 0.950 . S
C935 C934 1.524 . S
C935 C936 1.415 . S
C936 H912 0.950 . S
C936 C931 1.363 . S
C936 C935 1.415 . S
C937 H913 0.951 . S
C937 C938 1.366 . S
C937 C939 1.388 . S
C938 C937 1.366 . S
C938 C942 1.385 . S
C939 H914 0.951 . S
C939 C937 1.388 . S
C939 C940 1.366 . S
C940 C939 1.366 . S
C940 C941 1.414 . S
C940 C943 1.499 . S
C941 H915 0.950 . S
C941 C940 1.414 . S
C941 C942 1.374 . S
C942 H916 0.950 . S
C942 C938 1.385 . S
C942 C941 1.374 . S
C943 C940 1.499 . S
C943 C944 1.373 . S
C943 C945 1.389 . S
C944 H917 0.950 . S
C944 C930 1.377 . S
C944 C943 1.373 . S
C945 C929 1.377 . S
C945 C943 1.389 . S
C945 C946 1.524 . S
C946 C945 1.524 . S
C946 C947 1.397 . S
C946 C951 1.363 . S
C947 H918 0.950 . S
C947 C946 1.397 . S
C947 C948 1.334 . S
C948 H919 0.950 . S
C948 C947 1.334 . S
C948 C949 1.287 . S
C949 C948 1.287 . S
C949 C950 1.524 . S
C949 H952 0.999 . S
C950 H920 0.950 . S
C950 C949 1.524 . S
C950 C951 1.415 . S
C951 H921 0.950 . S
C951 C946 1.363 . S
C951 C950 1.415 . S
H952 C949 0.999 . S
H953 C934 0.913 . S
H954 C972 0.951 . S
H955 C974 0.951 . S
H956 C976 0.950 1_655 S
H957 C977 0.950 1_655 S
H958 C979 0.950 1_655 S
H959 C982 0.950 . S
H960 C983 0.950 . S
H961 C985 0.950 . S
H962 C986 0.950 . S
H963 C987 0.951 1_655 S
H964 C989 0.951 1_655 S
H965 C991 0.950 . S
H966 C992 0.950 . S
H967 C994 0.950 . S
H968 C997 0.950 . S
H969 C998 0.950 . S
H970 C1000 0.950 . S
H971 C1001 0.950 . S
C972 H954 0.951 . S
C972 C973 1.366 . S
C972 C974 1.388 . S
C973 C972 1.366 . S
C973 C977 1.385 . S
C974 H955 0.951 . S
C974 C972 1.388 . S
C974 C975 1.366 . S
C975 C974 1.366 . S
C975 C976 1.414 . S
C975 C978 1.499 . S
C976 H956 0.950 1_455 S
C976 C975 1.414 . S
C976 C977 1.374 . S
C977 H957 0.950 1_455 S
C977 C973 1.385 . S
C977 C976 1.374 . S
C978 C975 1.499 . S
C978 C979 1.373 . S
C978 C980 1.389 . S
C979 H958 0.950 1_455 S
C979 C978 1.373 . S
C979 C995 1.377 . S
C980 C978 1.389 . S
C980 C981 1.524 . S
C980 C994 1.377 . S
C981 C980 1.524 . S
C981 C982 1.397 . S
C981 C986 1.363 . S
C982 H959 0.950 . S
C982 C981 1.397 . S
C982 C983 1.334 . S
C983 H960 0.950 . S
C983 C982 1.334 . S
C983 C984 1.287 . S
C984 C983 1.287 . S
C984 C985 1.524 . S
C984 H1003 0.913 . S
C985 H961 0.950 . S
C985 C984 1.524 . S
C985 C986 1.415 . S
C986 H962 0.950 . S
C986 C981 1.363 . S
C986 C985 1.415 . S
C987 H963 0.951 1_455 S
C987 C988 1.366 . S
C987 C989 1.388 1_556 S
C988 C987 1.366 . S
C988 C992 1.385 . S
C989 H964 0.951 1_455 S
C989 C987 1.388 1_554 S
C989 C990 1.366 . S
C990 C989 1.366 . S
C990 C991 1.414 . S
C990 C993 1.499 . S
C991 H965 0.950 . S
C991 C990 1.414 . S
C991 C992 1.374 1_554 S
C992 H966 0.950 . S
C992 C988 1.385 . S
C992 C991 1.374 1_556 S
C993 C990 1.499 . S
C993 C994 1.373 . S
C993 C995 1.389 . S
C994 H967 0.950 . S
C994 C980 1.377 . S
C994 C993 1.373 . S
C995 C979 1.377 . S
C995 C993 1.389 . S
C995 C996 1.524 1_455 S
C996 C995 1.524 1_655 S
C996 C997 1.397 . S
C996 C1001 1.363 . S
C997 H968 0.950 . S
C997 C996 1.397 . S
C997 C998 1.334 . S
C998 H969 0.950 . S
C998 C997 1.334 . S
C998 C999 1.287 . S
C999 C998 1.287 . S
C999 C1000 1.524 . S
C999 H1002 0.999 . S
C1000 H970 0.950 . S
C1000 C999 1.524 . S
C1000 C1001 1.415 . S
C1001 H971 0.950 . S
C1001 C996 1.363 . S
C1001 C1000 1.415 . S
H1002 C999 0.999 . S
H1003 C984 0.913 . S
H1004 C1022 0.951 . S
H1005 C1024 0.951 . S
H1006 C1026 0.950 . S
H1007 C1027 0.950 . S
H1008 C1029 0.950 . S
H1009 C1032 0.950 . S
H1010 C1033 0.950 . S
H1011 C1035 0.950 . S
H1012 C1036 0.950 . S
H1013 C1037 0.951 . S
H1014 C1039 0.951 . S
H1015 C1041 0.950 . S
H1016 C1042 0.950 . S
H1017 C1044 0.950 . S
H1018 C1047 0.950 . S
H1019 C1048 0.950 . S
H1020 C1050 0.950 . S
H1021 C1051 0.950 . S
C1022 H1004 0.951 . S
C1022 C1023 1.366 1_565 S
C1022 C1024 1.388 . S
C1023 C1022 1.366 1_545 S
C1023 C1027 1.385 . S
C1024 H1005 0.951 . S
C1024 C1022 1.388 . S
C1024 C1025 1.366 1_565 S
C1025 C1024 1.366 1_545 S
C1025 C1026 1.414 . S
C1025 C1028 1.499 . S
C1026 H1006 0.950 . S
C1026 C1025 1.414 . S
C1026 C1027 1.374 . S
C1027 H1007 0.950 . S
C1027 C1023 1.385 . S
C1027 C1026 1.374 . S
C1028 C1025 1.499 . S
C1028 C1029 1.373 . S
C1028 C1030 1.389 1_545 S
C1029 H1008 0.950 . S
C1029 C1028 1.373 . S
C1029 C1045 1.377 . S
C1030 C1028 1.389 1_565 S
C1030 C1031 1.524 . S
C1030 C1044 1.377 . S
C1031 C1030 1.524 . S
C1031 C1032 1.397 . S
C1031 C1036 1.363 . S
C1032 H1009 0.950 . S
C1032 C1031 1.397 . S
C1032 C1033 1.334 . S
C1033 H1010 0.950 . S
C1033 C1032 1.334 . S
C1033 C1034 1.287 . S
C1034 C1033 1.287 . S
C1034 C1035 1.524 . S
C1034 H1053 0.913 . S
C1035 H1011 0.950 . S
C1035 C1034 1.524 . S
C1035 C1036 1.415 . S
C1036 H1012 0.950 . S
C1036 C1031 1.363 . S
C1036 C1035 1.415 . S
C1037 H1013 0.951 . S
C1037 C1038 1.366 . S
C1037 C1039 1.388 . S
C1038 C1037 1.366 . S
C1038 C1042 1.385 1_545 S
C1039 H1014 0.951 . S
C1039 C1037 1.388 . S
C1039 C1040 1.366 . S
C1040 C1039 1.366 . S
C1040 C1041 1.414 1_545 S
C1040 C1043 1.499 . S
C1041 H1015 0.950 . S
C1041 C1040 1.414 1_565 S
C1041 C1042 1.374 . S
C1042 H1016 0.950 . S
C1042 C1038 1.385 1_565 S
C1042 C1041 1.374 . S
C1043 C1040 1.499 . S
C1043 C1044 1.373 1_545 S
C1043 C1045 1.389 . S
C1044 H1017 0.950 . S
C1044 C1030 1.377 . S
C1044 C1043 1.373 1_565 S
C1045 C1029 1.377 . S
C1045 C1043 1.389 . S
C1045 C1046 1.524 . S
C1046 C1045 1.524 . S
C1046 C1047 1.397 . S
C1046 C1051 1.363 . S
C1047 H1018 0.950 . S
C1047 C1046 1.397 . S
C1047 C1048 1.334 . S
C1048 H1019 0.950 . S
C1048 C1047 1.334 . S
C1048 C1049 1.287 . S
C1049 C1048 1.287 . S
C1049 C1050 1.524 . S
C1049 H1052 0.999 . S
C1050 H1020 0.950 . S
C1050 C1049 1.524 . S
C1050 C1051 1.415 . S
C1051 H1021 0.950 . S
C1051 C1046 1.363 . S
C1051 C1050 1.415 . S
H1052 C1049 0.999 . S
H1053 C1034 0.913 . S
H1054 C1072 0.951 . S
H1055 C1074 0.951 . S
H1056 C1076 0.950 . S
H1057 C1077 0.950 . S
H1058 C1079 0.950 . S
H1059 C1082 0.950 . S
H1060 C1083 0.950 . S
H1061 C1085 0.950 . S
H1062 C1086 0.950 . S
H1063 C1087 0.951 . S
H1064 C1089 0.951 . S
H1065 C1091 0.950 . S
H1066 C1092 0.950 . S
H1067 C1094 0.950 . S
H1068 C1097 0.950 . S
H1069 C1098 0.950 . S
H1070 C1100 0.950 . S
H1071 C1101 0.950 . S
C1072 H1054 0.951 . S
C1072 C1073 1.366 . S
C1072 C1074 1.388 . S
C1073 C1072 1.366 . S
C1073 C1077 1.385 . S
C1074 H1055 0.951 . S
C1074 C1072 1.388 . S
C1074 C1075 1.366 . S
C1075 C1074 1.366 . S
C1075 C1076 1.414 . S
C1075 C1078 1.499 . S
C1076 H1056 0.950 . S
C1076 C1075 1.414 . S
C1076 C1077 1.374 . S
C1077 H1057 0.950 . S
C1077 C1073 1.385 . S
C1077 C1076 1.374 . S
C1078 C1075 1.499 . S
C1078 C1079 1.373 . S
C1078 C1080 1.389 . S
C1079 H1058 0.950 . S
C1079 C1078 1.373 . S
C1079 C1095 1.377 . S
C1080 C1078 1.389 . S
C1080 C1081 1.524 . S
C1080 C1094 1.377 . S
C1081 C1080 1.524 . S
C1081 C1082 1.397 . S
C1081 C1086 1.363 . S
C1082 H1059 0.950 . S
C1082 C1081 1.397 . S
C1082 C1083 1.334 . S
C1083 H1060 0.950 . S
C1083 C1082 1.334 . S
C1083 C1084 1.287 . S
C1084 C1083 1.287 . S
C1084 C1085 1.524 . S
C1084 H1103 0.913 . S
C1085 H1061 0.950 . S
C1085 C1084 1.524 . S
C1085 C1086 1.415 . S
C1086 H1062 0.950 . S
C1086 C1081 1.363 . S
C1086 C1085 1.415 . S
C1087 H1063 0.951 . S
C1087 C1088 1.366 . S
C1087 C1089 1.388 . S
C1088 C1087 1.366 . S
C1088 C1092 1.385 . S
C1089 H1064 0.951 . S
C1089 C1087 1.388 . S
C1089 C1090 1.366 . S
C1090 C1089 1.366 . S
C1090 C1091 1.414 . S
C1090 C1093 1.499 . S
C1091 H1065 0.950 . S
C1091 C1090 1.414 . S
C1091 C1092 1.374 . S
C1092 H1066 0.950 . S
C1092 C1088 1.385 . S
C1092 C1091 1.374 . S
C1093 C1090 1.499 . S
C1093 C1094 1.373 . S
C1093 C1095 1.389 . S
C1094 H1067 0.950 . S
C1094 C1080 1.377 . S
C1094 C1093 1.373 . S
C1095 C1079 1.377 . S
C1095 C1093 1.389 . S
C1095 C1096 1.524 . S
C1096 C1095 1.524 . S
C1096 C1097 1.397 . S
C1096 C1101 1.363 . S
C1097 H1068 0.950 . S
C1097 C1096 1.397 . S
C1097 C1098 1.334 . S
C1098 H1069 0.950 . S
C1098 C1097 1.334 . S
C1098 C1099 1.287 . S
C1099 C1098 1.287 . S
C1099 C1100 1.524 . S
C1099 H1102 0.999 . S
C1100 H1070 0.950 . S
C1100 C1099 1.524 . S
C1100 C1101 1.415 . S
C1101 H1071 0.950 . S
C1101 C1096 1.363 . S
C1101 C1100 1.415 . S
H1102 C1099 0.999 . S
H1103 C1084 0.913 . S
H1104 C1122 0.951 . S
H1105 C1124 0.951 . S
H1106 C1126 0.950 . S
H1107 C1127 0.950 . S
H1108 C1129 0.961 1_565 S
H1109 C1132 0.950 . S
H1110 C1133 0.950 . S
H1111 C1135 0.950 . S
H1112 C1136 0.950 . S
H1113 C1137 0.951 . S
H1114 C1139 0.951 . S
H1115 C1141 0.950 . S
H1116 C1142 0.950 . S
H1117 C1144 0.950 . S
H1118 C1147 0.950 . S
H1119 C1148 0.950 . S
H1120 C1150 0.950 . S
H1121 C1151 0.950 . S
C1122 H1104 0.951 . S
C1122 C1123 1.366 . S
C1122 C1124 1.388 . S
C1123 C1122 1.366 . S
C1123 C1127 1.385 1_545 S
C1124 H1105 0.951 . S
C1124 C1122 1.388 . S
C1124 C1125 1.366 . S
C1125 C1124 1.366 . S
C1125 C1126 1.414 1_545 S
C1125 C1128 1.499 . S
C1126 H1106 0.950 . S
C1126 C1125 1.414 1_565 S
C1126 C1127 1.374 . S
C1127 H1107 0.950 . S
C1127 C1123 1.385 1_565 S
C1127 C1126 1.374 . S
C1128 C1125 1.499 . S
C1128 C1129 1.363 . S
C1128 C1130 1.389 . S
C1129 H1108 0.961 1_545 S
C1129 C1128 1.363 . S
C1129 C1145 1.376 . S
C1130 C1128 1.389 . S
C1130 C1131 1.524 . S
C1130 C1144 1.377 . S
C1131 C1130 1.524 . S
C1131 C1132 1.397 1_545 S
C1131 C1136 1.363 . S
C1132 H1109 0.950 . S
C1132 C1131 1.397 1_565 S
C1132 C1133 1.334 . S
C1133 H1110 0.950 . S
C1133 C1132 1.334 . S
C1133 C1134 1.287 . S
C1134 C1133 1.287 . S
C1134 C1135 1.524 1_565 S
C1134 H1153 0.913 . S
C1135 H1111 0.950 . S
C1135 C1134 1.524 1_545 S
C1135 C1136 1.415 . S
C1136 H1112 0.950 . S
C1136 C1131 1.363 . S
C1136 C1135 1.415 . S
C1137 H1113 0.951 . S
C1137 C1138 1.374 . S
C1137 C1139 1.388 . S
C1138 C1137 1.374 . S
C1138 C1142 1.374 1_565 S
C1139 H1114 0.951 . S
C1139 C1137 1.388 . S
C1139 C1140 1.366 1_565 S
C1140 C1139 1.366 1_545 S
C1140 C1141 1.414 . S
C1140 C1143 1.499 . S
C1141 H1115 0.950 . S
C1141 C1140 1.414 . S
C1141 C1142 1.374 . S
C1142 H1116 0.950 . S
C1142 C1138 1.374 1_545 S
C1142 C1141 1.374 . S
C1143 C1140 1.499 . S
C1143 C1144 1.373 . S
C1143 C1145 1.389 . S
C1144 H1117 0.950 . S
C1144 C1130 1.377 . S
C1144 C1143 1.373 . S
C1145 C1129 1.376 . S
C1145 C1143 1.389 . S
C1145 C1146 1.524 . S
C1146 C1145 1.524 . S
C1146 C1147 1.397 . S
C1146 C1151 1.363 1_545 S
C1147 H1118 0.950 . S
C1147 C1146 1.397 . S
C1147 C1148 1.334 . S
C1148 H1119 0.950 . S
C1148 C1147 1.334 . S
C1148 C1149 1.287 . S
C1149 C1148 1.287 . S
C1149 C1150 1.524 1_545 S
C1149 H1152 0.999 . S
C1150 H1120 0.950 . S
C1150 C1149 1.524 1_565 S
C1150 C1151 1.415 . S
C1151 H1121 0.950 . S
C1151 C1146 1.363 1_565 S
C1151 C1150 1.415 . S
H1152 C1149 0.999 . S
H1153 C1134 0.913 . S
H1154 C1172 0.951 . S
H1155 C1174 0.951 . S
H1156 C1176 0.950 . S
H1157 C1177 0.950 . S
H1158 C1179 0.950 . S
H1159 C1182 0.950 . S
H1160 C1183 0.950 . S
H1161 C1185 0.950 . S
H1162 C1186 0.950 . S
H1163 C1187 0.951 . S
H1164 C1189 0.951 . S
H1165 C1191 0.950 . S
H1166 C1192 0.950 . S
H1167 C1194 0.950 . S
H1168 C1197 0.950 . S
H1169 C1198 0.950 . S
H1170 C1200 0.950 . S
H1171 C1201 0.950 . S
C1172 H1154 0.951 . S
C1172 C1173 1.366 . S
C1172 C1174 1.388 . S
C1173 C1172 1.366 . S
C1173 C1177 1.385 . S
C1174 H1155 0.951 . S
C1174 C1172 1.388 . S
C1174 C1175 1.366 . S
C1175 C1174 1.366 . S
C1175 C1176 1.414 . S
C1175 C1178 1.499 . S
C1176 H1156 0.950 . S
C1176 C1175 1.414 . S
C1176 C1177 1.374 . S
C1177 H1157 0.950 . S
C1177 C1173 1.385 . S
C1177 C1176 1.374 . S
C1178 C1175 1.499 . S
C1178 C1179 1.373 . S
C1178 C1180 1.389 . S
C1179 H1158 0.950 . S
C1179 C1178 1.373 . S
C1179 C1195 1.377 . S
C1180 C1178 1.389 . S
C1180 C1181 1.524 . S
C1180 C1194 1.377 . S
C1181 C1180 1.524 . S
C1181 C1182 1.397 . S
C1181 C1186 1.363 . S
C1182 H1159 0.950 . S
C1182 C1181 1.397 . S
C1182 C1183 1.334 . S
C1183 H1160 0.950 . S
C1183 C1182 1.334 . S
C1183 C1184 1.287 . S
C1184 C1183 1.287 . S
C1184 C1185 1.524 . S
C1184 H1203 0.913 . S
C1185 H1161 0.950 . S
C1185 C1184 1.524 . S
C1185 C1186 1.415 . S
C1186 H1162 0.950 . S
C1186 C1181 1.363 . S
C1186 C1185 1.415 . S
C1187 H1163 0.951 . S
C1187 C1188 1.366 . S
C1187 C1189 1.388 1_554 S
C1188 C1187 1.366 . S
C1188 C1192 1.385 . S
C1189 H1164 0.951 . S
C1189 C1187 1.388 1_556 S
C1189 C1190 1.366 . S
C1190 C1189 1.366 . S
C1190 C1191 1.414 . S
C1190 C1193 1.499 . S
C1191 H1165 0.950 . S
C1191 C1190 1.414 . S
C1191 C1192 1.374 1_556 S
C1192 H1166 0.950 . S
C1192 C1188 1.385 . S
C1192 C1191 1.374 1_554 S
C1193 C1190 1.499 . S
C1193 C1194 1.373 . S
C1193 C1195 1.389 . S
C1194 H1167 0.950 . S
C1194 C1180 1.377 . S
C1194 C1193 1.373 . S
C1195 C1179 1.377 . S
C1195 C1193 1.389 . S
C1195 C1196 1.524 . S
C1196 C1195 1.524 . S
C1196 C1197 1.397 . S
C1196 C1201 1.363 . S
C1197 H1168 0.950 . S
C1197 C1196 1.397 . S
C1197 C1198 1.334 . S
C1198 H1169 0.950 . S
C1198 C1197 1.334 . S
C1198 C1199 1.287 . S
C1199 C1198 1.287 . S
C1199 C1200 1.524 . S
C1199 H1202 0.999 . S
C1200 H1170 0.950 . S
C1200 C1199 1.524 . S
C1200 C1201 1.415 . S
C1201 H1171 0.950 . S
C1201 C1196 1.363 . S
C1201 C1200 1.415 . S
H1202 C1199 0.999 . S
H1203 C1184 0.913 . S
H1204 C1222 0.951 . S
H1205 C1224 0.951 . S
H1206 C1226 0.950 . S
H1207 C1227 0.950 . S
H1208 C1229 0.950 . S
H1209 C1232 0.950 . S
H1210 C1233 0.950 . S
H1211 C1235 0.950 . S
H1212 C1236 0.950 . S
H1213 C1237 0.951 . S
H1214 C1239 0.951 . S
H1215 C1241 0.950 . S
H1216 C1242 0.950 . S
H1217 C1244 0.950 . S
H1218 C1247 0.950 . S
H1219 C1248 0.950 . S
H1220 C1250 0.950 . S
H1221 C1251 0.950 . S
C1222 H1204 0.951 . S
C1222 C1223 1.366 . S
C1222 C1224 1.388 . S
C1223 C1222 1.366 . S
C1223 C1227 1.385 . S
C1224 H1205 0.951 . S
C1224 C1222 1.388 . S
C1224 C1225 1.366 . S
C1225 C1224 1.366 . S
C1225 C1226 1.414 . S
C1225 C1228 1.499 . S
C1226 H1206 0.950 . S
C1226 C1225 1.414 . S
C1226 C1227 1.374 . S
C1227 H1207 0.950 . S
C1227 C1223 1.385 . S
C1227 C1226 1.374 . S
C1228 C1225 1.499 . S
C1228 C1229 1.373 1_455 S
C1228 C1230 1.389 . S
C1229 H1208 0.950 . S
C1229 C1228 1.373 1_655 S
C1229 C1245 1.377 . S
C1230 C1228 1.389 . S
C1230 C1231 1.524 . S
C1230 C1244 1.377 . S
C1231 C1230 1.524 . S
C1231 C1232 1.397 . S
C1231 C1236 1.363 . S
C1232 H1209 0.950 . S
C1232 C1231 1.397 . S
C1232 C1233 1.334 . S
C1233 H1210 0.950 . S
C1233 C1232 1.334 . S
C1233 C1234 1.287 . S
C1234 C1233 1.287 . S
C1234 C1235 1.524 . S
C1234 H1253 0.913 . S
C1235 H1211 0.950 . S
C1235 C1234 1.524 . S
C1235 C1236 1.415 . S
C1236 H1212 0.950 . S
C1236 C1231 1.363 . S
C1236 C1235 1.415 . S
C1237 H1213 0.951 . S
C1237 C1238 1.383 1_655 S
C1237 C1239 1.388 . S
C1238 C1237 1.383 1_455 S
C1238 C1242 1.370 . S
C1239 H1214 0.951 . S
C1239 C1237 1.388 . S
C1239 C1240 1.366 1_655 S
C1240 C1239 1.366 1_455 S
C1240 C1241 1.414 . S
C1240 C1243 1.499 . S
C1241 H1215 0.950 . S
C1241 C1240 1.414 . S
C1241 C1242 1.374 . S
C1242 H1216 0.950 . S
C1242 C1238 1.370 . S
C1242 C1241 1.374 . S
C1243 C1240 1.499 . S
C1243 C1244 1.373 . S
C1243 C1245 1.389 1_455 S
C1244 H1217 0.950 . S
C1244 C1230 1.377 . S
C1244 C1243 1.373 . S
C1245 C1229 1.377 . S
C1245 C1243 1.389 1_655 S
C1245 C1246 1.524 . S
C1246 C1245 1.524 . S
C1246 C1247 1.397 . S
C1246 C1251 1.363 . S
C1247 H1218 0.950 . S
C1247 C1246 1.397 . S
C1247 C1248 1.334 . S
C1248 H1219 0.950 . S
C1248 C1247 1.334 . S
C1248 C1249 1.287 . S
C1249 C1248 1.287 . S
C1249 C1250 1.524 . S
C1249 H1252 0.999 . S
C1250 H1220 0.950 . S
C1250 C1249 1.524 . S
C1250 C1251 1.415 . S
C1251 H1221 0.950 . S
C1251 C1246 1.363 . S
C1251 C1250 1.415 . S
H1252 C1249 0.999 . S
H1253 C1234 0.913 . S
C373 C6 0.432 . S
C388 C331 0.414 . S
C423 C59 1.857 . S
C438 C258 1.834 . S
C473 C86 1.144 . S
C488 C297 1.148 . S
C523 C15 0.304 . S
C538 C336 0.205 . S
C588 C253 1.921 . S
C573 C50 1.939 . S
C638 C292 1.244 . S
C623 C95 1.244 . S
C673 C46 1.144 . S
C688 C180 1.144 . S
C723 C99 3.077 . S
C738 C214 3.040 . S
C773 C10 1.964 . S
C788 C136 1.954 . S
C838 C175 1.226 . S
C823 C55 1.222 . S
C888 C219 2.916 . S
C873 C90 2.921 . S
C923 C19 1.848 . S
C938 C141 1.830 . S
C988 C199 1.764 . S
C973 C18 1.691 . S
C1023 C49 1.331 . S
C1038 C121 1.380 . S
C1073 C98 1.450 . S
C1088 C160 1.507 . S
C1138 C277 1.492 . S
C1123 C58 1.439 . S
C1188 C316 1.108 . S
C1173 C89 1.085 . S
C1223 C9 1.326 . S
C1238 C238 1.368 1_455 S
