# Generated by pormake.
# Topology anh, (6,3)-cn, num edge types: 1
# Building blocks:
#     Node 0, Type 0, BuildingBlock: BETFAJ_clean_sbu_0, # of connection points: 6
#     Node 1, Type 0, BuildingBlock: BETFAJ_clean_sbu_0, # of connection points: 6
#     Node 2, Type 0, BuildingBlock: BETFAJ_clean_sbu_0, # of connection points: 6
#     Node 3, Type 1, BuildingBlock: VETTIZ_charged_linker_0, # of connection points: 3
#     Node 4, Type 1, BuildingBlock: VETTIZ_charged_linker_0, # of connection points: 3
#     Node 5, Type 1, BuildingBlock: VETTIZ_charged_linker_0, # of connection points: 3
#     Node 6, Type 1, BuildingBlock: VETTIZ_charged_linker_0, # of connection points: 3
#     Node 7, Type 1, BuildingBlock: VETTIZ_charged_linker_0, # of connection points: 3
#     Node 8, Type 1, BuildingBlock: VETTIZ_charged_linker_0, # of connection points: 3
#     Edge 9, Type (0, 1), BuildingBlock: EZIPEK_clean_linker_0, # of connection points: 2
#     Edge 10, Type (0, 1), BuildingBlock: EZIPEK_clean_linker_0, # of connection points: 2
#     Edge 11, Type (0, 1), BuildingBlock: EZIPEK_clean_linker_0, # of connection points: 2
#     Edge 12, Type (0, 1), BuildingBlock: EZIPEK_clean_linker_0, # of connection points: 2
#     Edge 13, Type (0, 1), BuildingBlock: EZIPEK_clean_linker_0, # of connection points: 2
#     Edge 14, Type (0, 1), BuildingBlock: EZIPEK_clean_linker_0, # of connection points: 2
#     Edge 15, Type (0, 1), BuildingBlock: EZIPEK_clean_linker_0, # of connection points: 2
#     Edge 16, Type (0, 1), BuildingBlock: EZIPEK_clean_linker_0, # of connection points: 2
#     Edge 17, Type (0, 1), BuildingBlock: EZIPEK_clean_linker_0, # of connection points: 2
#     Edge 18, Type (0, 1), BuildingBlock: EZIPEK_clean_linker_0, # of connection points: 2
#     Edge 19, Type (0, 1), BuildingBlock: EZIPEK_clean_linker_0, # of connection points: 2
#     Edge 20, Type (0, 1), BuildingBlock: EZIPEK_clean_linker_0, # of connection points: 2
#     Edge 21, Type (0, 1), BuildingBlock: EZIPEK_clean_linker_0, # of connection points: 2
#     Edge 22, Type (0, 1), BuildingBlock: EZIPEK_clean_linker_0, # of connection points: 2
#     Edge 23, Type (0, 1), BuildingBlock: EZIPEK_clean_linker_0, # of connection points: 2
#     Edge 24, Type (0, 1), BuildingBlock: EZIPEK_clean_linker_0, # of connection points: 2
#     Edge 25, Type (0, 1), BuildingBlock: EZIPEK_clean_linker_0, # of connection points: 2
#     Edge 26, Type (0, 1), BuildingBlock: EZIPEK_clean_linker_0, # of connection points: 2
# Relax obj value: 0.218
# Max RMSD: 0.227
# Mean RMSD: 0.167
data_MOF--net-anh--node1-BETFAJ_clean_sbu_0--node2-VETTIZ_charged_linker_0--edge1-EZIPEK_clean_linker_0
_symmetry_space_group_name_H-M    P1
_symmetry_Int_Tables_number       1
_symmetry_cell_setting            triclinic
loop_
_symmetry_equiv_pos_as_xyz
'x, y, z'
_cell_length_a     30.245152
_cell_length_b     35.711814
_cell_length_c     52.505724
_cell_angle_alpha  92.062245
_cell_angle_beta   89.356151
_cell_angle_gamma 131.06471
loop_
_atom_site_label
_atom_site_type_symbol
_atom_site_fract_x
_atom_site_fract_y
_atom_site_fract_z
_atom_type_partial_charge
Sm0 Sm 0.11545 0.51483 0.14095 0.0
Sm1 Sm 1.03597 0.53585 0.14901 0.0
C2 C 0.18255 0.49504 0.12751 0.0
C3 C 0.24181 0.51929 0.13665 0.0
C4 C 0.26917 0.50119 0.1287 0.0
C5 C 0.32305 0.52133 0.13953 0.0
C6 C 0.34982 0.5595 0.15852 0.0
C7 C 0.3231 0.57843 0.16606 0.0
C8 C 0.26953 0.55865 0.15501 0.0
C9 C 0.10253 0.5286 0.19148 0.0
C10 C 0.18024 0.63328 0.14737 0.0
C11 C 0.96976 0.55275 0.1684 0.0
C12 C 0.9081 0.51443 0.17545 0.0
C13 C 0.88789 0.46798 0.18283 0.0
C14 C 0.82919 0.42532 0.17894 0.0
C15 C 0.79014 0.42915 0.16832 0.0
C16 C 0.80851 0.4763 0.16457 0.0
C17 C 0.86748 0.51884 0.16792 0.0
C18 C 1.04711 0.52039 0.09842 0.0
C19 C 0.97218 0.4183 0.1437 0.0
O20 O 0.1778 0.52234 0.11399 0.0
O21 O 0.14209 0.47046 0.14474 0.0
O22 O 0.06243 0.50497 0.17473 0.0
O23 O 0.15104 0.54308 0.18195 0.0
O24 O 0.18771 0.60106 0.14279 0.0
O25 O 0.12672 0.61727 0.15076 0.0
O26 O 1.00811 0.55608 0.18219 0.0
O27 O 0.97862 0.55333 0.1439 0.0
O28 O 0.08857 0.54547 0.11466 0.0
O29 O 0.99801 0.50397 0.10846 0.0
O30 O 0.96729 0.45032 0.15295 0.0
O31 O 1.023 0.43479 0.13427 0.0
H32 H 0.24823 0.47076 0.11467 0.0
H33 H 0.3432 0.50621 0.13364 0.0
H34 H 0.34299 0.60754 0.18081 0.0
H35 H 0.24894 0.57312 0.16131 0.0
H36 H 0.91839 0.46374 0.18897 0.0
H37 H 0.81576 0.38921 0.18175 0.0
H38 H 0.77867 0.47965 0.15622 0.0
H39 H 0.8822 0.55417 0.16201 0.0
Sm40 Sm 0.6197 0.02984 0.47699 0.0
Sm41 Sm 0.54501 0.05519 0.47488 0.0
C42 C 0.66748 0.99259 0.49057 0.0
C43 C 0.65102 0.94357 0.49132 0.0
C44 C 0.64938 0.92572 0.515 0.0
C45 C 0.63489 0.8799 0.51642 0.0
C46 C 0.62222 0.85133 0.49418 0.0
C47 C 0.6233 0.86866 0.47043 0.0
C48 C 0.63737 0.91448 0.46899 0.0
C49 C 0.60343 0.0441 0.42828 0.0
C50 C 0.47326 0.93602 0.4723 0.0
C51 C 0.494 0.09187 0.46618 0.0
C52 C 0.51122 0.14125 0.46717 0.0
C53 C 0.55803 0.18059 0.45286 0.0
C54 C 0.57512 0.22772 0.45537 0.0
C55 C 0.54629 0.23618 0.47252 0.0
C56 C 0.49914 0.19676 0.48648 0.0
C57 C 0.48157 0.14966 0.48372 0.0
C58 C 0.56414 0.04048 0.52346 0.0
C59 C 0.69108 0.14804 0.47524 0.0
O60 O 0.64029 1.00022 0.50648 0.0
O61 O 0.67528 1.0111 0.46823 0.0
O62 O 0.56333 0.02052 0.44466 0.0
O63 O 0.65255 0.05834 0.43703 0.0
O64 O 0.52572 0.94998 0.47599 0.0
O65 O 0.46897 0.97023 0.46957 0.0
O66 O 0.51573 0.08227 0.4481 0.0
O67 O 0.49267 0.07511 0.48812 0.0
O68 O 0.60233 0.06519 0.50663 0.0
O69 O 0.51421 0.02506 0.51516 0.0
O70 O 0.63889 0.1332 0.46951 0.0
O71 O 0.69498 0.11514 0.48239 0.0
H72 H 0.6598 0.94748 0.53243 0.0
H73 H 0.63461 0.86706 0.53486 0.0
H74 H 0.61392 0.847 0.4531 0.0
H75 H 0.63805 0.92723 0.45047 0.0
H76 H 0.58188 0.17521 0.44003 0.0
H77 H 0.61143 0.25776 0.44437 0.0
H78 H 0.47625 0.20262 0.49971 0.0
H79 H 0.44537 0.1199 0.4949 0.0
Sm80 Sm 0.6111 0.57369 0.83185 0.0
Sm81 Sm 0.53058 0.46585 0.82774 0.0
C82 C 0.68321 0.67104 0.82537 0.0
C83 C 0.67486 0.70747 0.82318 0.0
C84 C 0.62689 0.69491 0.80929 0.0
C85 C 0.62165 0.73042 0.80536 0.0
C86 C 0.66367 0.77916 0.81554 0.0
C87 C 0.7102 0.79121 0.83045 0.0
C88 C 0.71599 0.75578 0.83404 0.0
C89 C 0.56314 0.52885 0.87764 0.0
C90 C 0.4644 0.5165 0.83103 0.0
C91 C 0.47463 0.36951 0.83038 0.0
C92 C 0.49 0.33764 0.83048 0.0
C93 C 0.52768 0.34364 0.84905 0.0
C94 C 0.54334 0.31427 0.84765 0.0
C95 C 0.52185 0.2787 0.82759 0.0
C96 C 0.48367 0.27233 0.80933 0.0
C97 C 0.46787 0.30138 0.81079 0.0
C98 C 0.54903 0.50823 0.78169 0.0
C99 C 0.67849 0.52391 0.83081 0.0
O100 O 0.66131 0.63784 0.80668 0.0
O101 O 0.67492 0.65218 0.84764 0.0
O102 O 0.58312 0.51715 0.86123 0.0
O103 O 0.56979 0.56664 0.8706 0.0
O104 O 0.51965 0.55776 0.82589 0.0
O105 O 0.45831 0.47611 0.83524 0.0
O106 O 0.48761 0.39805 0.85047 0.0
O107 O 0.48448 0.39153 0.80918 0.0
O108 O 0.58828 0.52281 0.79801 0.0
O109 O 0.49779 0.47082 0.78986 0.0
O110 O 0.62252 0.48141 0.8269 0.0
O111 O 0.6858 0.5655 0.83407 0.0
H112 H 0.59386 0.65782 0.80102 0.0
H113 H 0.58515 0.72005 0.79398 0.0
H114 H 0.74292 0.82845 0.83866 0.0
H115 H 0.75314 0.76636 0.84493 0.0
H116 H 0.54544 0.37122 0.86448 0.0
H117 H 0.57268 0.31962 0.862 0.0
H118 H 0.4664 0.24501 0.79378 0.0
H119 H 0.43875 0.29591 0.79626 0.0
C120 C 0.71879 0.16744 0.15509 0.0
C121 C 0.76503 0.21404 0.16783 0.0
C122 C 0.76397 0.2168 0.19454 0.0
C123 C 0.67558 0.12961 0.19601 0.0
C124 C 0.67403 0.12546 0.16969 0.0
C125 C 0.61985 0.07244 0.16065 0.0
H126 H 0.38516 0.83239 0.19954 0.0
C127 C 0.62549 0.08075 0.20633 0.0
C128 C 0.59151 0.0459 0.18587 0.0
H129 H 0.41636 0.87685 0.12167 0.0
H130 H 0.50401 0.96219 0.13547 0.0
H131 H 0.5151 0.89302 0.2189 0.0
H132 H 0.39547 0.91886 0.21781 0.0
H133 H 0.4362 0.94933 0.24603 0.0
H134 H 0.39256 0.88294 0.24182 0.0
H135 H 0.45259 0.8625 0.23911 0.0
H136 H 0.52313 0.92058 0.24879 0.0
C137 C 0.63948 0.04851 0.14499 0.0
C138 C 0.57912 0.07512 0.14521 0.0
C139 C 0.61083 0.06568 0.303 0.0
C140 C 0.57019 0.0259 0.31872 0.0
C141 C 0.52191 0.9799 0.30754 0.0
C142 C 0.51495 0.97301 0.28104 0.0
C143 C 0.55619 0.01279 0.26536 0.0
C144 C 0.60257 0.05834 0.27643 0.0
C145 C 0.64095 0.09651 0.25679 0.0
C146 C 0.6103 0.06615 0.23204 0.0
C147 C 0.56127 0.01722 0.23729 0.0
C148 C 0.70301 0.11368 0.25966 0.0
C149 C 0.63843 0.13841 0.26073 0.0
C150 C 0.41073 0.85997 0.18519 0.0
C151 C 0.39343 0.84692 0.15952 0.0
C152 C 0.42845 0.88518 0.14171 0.0
C153 C 0.47906 0.93477 0.14971 0.0
C154 C 0.49433 0.94702 0.1759 0.0
C155 C 0.45896 0.90916 0.19284 0.0
C156 C 0.47493 0.92708 0.21994 0.0
C157 C 0.5272 0.98158 0.21714 0.0
C158 C 0.5406 0.99475 0.19132 0.0
C159 C 0.49202 0.89936 0.23258 0.0
C160 C 0.42225 0.91899 0.23225 0.0
H161 H 0.72365 0.18134 0.22873 0.0
H162 H 0.71785 0.16389 0.1345 0.0
H163 H 0.56923 0.09586 0.15637 0.0
H164 H 0.53686 0.03779 0.14041 0.0
H165 H 0.60012 0.09453 0.12718 0.0
H166 H 0.6711 0.04938 0.15623 0.0
H167 H 0.66123 0.06884 0.12725 0.0
H168 H 0.60186 1.00926 0.1396 0.0
H169 H 0.64825 0.10151 0.31123 0.0
H170 H 0.49022 0.9489 0.3194 0.0
H171 H 0.47796 0.93659 0.27391 0.0
H172 H 0.7002 0.08229 0.26498 0.0
H173 H 0.7292 0.14346 0.27475 0.0
H174 H 0.72784 0.12668 0.24177 0.0
H175 H 0.59662 0.12438 0.26961 0.0
H176 H 0.6393 0.15362 0.24254 0.0
H177 H 0.67484 0.1692 0.27334 0.0
H178 H 0.79802 0.25146 0.20485 0.0
C179 C 0.72028 0.17556 0.20848 0.0
C180 C 0.58748 0.64755 0.51316 0.0
C181 C 0.5874 0.68278 0.52586 0.0
C182 C 0.58383 0.68321 0.55257 0.0
C183 C 0.58573 0.61669 0.55397 0.0
C184 C 0.58752 0.61535 0.52764 0.0
C185 C 0.59281 0.57845 0.5176 0.0
H186 H 0.60131 0.39838 0.54199 0.0
C187 C 0.59145 0.5817 0.56345 0.0
C188 C 0.59649 0.55962 0.54229 0.0
H189 H 0.59751 0.44693 0.46862 0.0
H190 H 0.60317 0.51195 0.48916 0.0
H191 H 0.70111 0.50317 0.56489 0.0
H192 H 0.51456 0.40995 0.57297 0.0
H193 H 0.5508 0.43153 0.60315 0.0
H194 H 0.55846 0.39529 0.58252 0.0
H195 H 0.66404 0.46096 0.59033 0.0
H196 H 0.69142 0.52365 0.59366 0.0
C197 C 0.65008 0.60655 0.50223 0.0
C198 C 0.53623 0.53722 0.50205 0.0
C199 C 0.58228 0.55536 0.65851 0.0
C200 C 0.59516 0.53129 0.6732 0.0
C201 C 0.61503 0.5091 0.66079 0.0
C202 C 0.61858 0.50825 0.6342 0.0
C203 C 0.60351 0.53085 0.6198 0.0
C204 C 0.58862 0.55604 0.63202 0.0
C205 C 0.58352 0.58464 0.6138 0.0
C206 C 0.59376 0.56945 0.58851 0.0
C207 C 0.60368 0.53679 0.59216 0.0
C208 C 0.63274 0.641 0.6205 0.0
C209 C 0.52066 0.56584 0.61529 0.0
C210 C 0.6018 0.42323 0.53049 0.0
C211 C 0.59761 0.41725 0.50383 0.0
C212 C 0.59985 0.45075 0.48924 0.0
C213 C 0.60281 0.48812 0.50121 0.0
C214 C 0.60422 0.49225 0.528 0.0
C215 C 0.60532 0.46095 0.54215 0.0
C216 C 0.60958 0.47208 0.57035 0.0
C217 C 0.60704 0.51318 0.57086 0.0
C218 C 0.60369 0.52469 0.54603 0.0
C219 C 0.66934 0.49068 0.58049 0.0
C220 C 0.55567 0.42481 0.58309 0.0
H221 H 0.58033 0.65245 0.587 0.0
H222 H 0.59027 0.64679 0.49259 0.0
H223 H 0.4971 0.52802 0.51142 0.0
H224 H 0.52704 0.50179 0.50058 0.0
H225 H 0.5383 0.54937 0.48256 0.0
H226 H 0.68519 0.64437 0.51084 0.0
H227 H 0.64301 0.61092 0.48222 0.0
H228 H 0.66864 0.58831 0.50221 0.0
H229 H 0.56807 0.57361 0.66749 0.0
H230 H 0.62671 0.49146 0.67172 0.0
H231 H 0.63263 0.48983 0.62584 0.0
H232 H 0.66866 0.64876 0.63216 0.0
H233 H 0.61546 0.65597 0.63155 0.0
H234 H 0.65478 0.66309 0.60332 0.0
H235 H 0.48775 0.5245 0.61483 0.0
H236 H 0.50929 0.57715 0.5991 0.0
H237 H 0.51487 0.57951 0.63325 0.0
H238 H 0.58324 0.71001 0.5625 0.0
C239 C 0.58266 0.65015 0.5667 0.0
C240 C 0.21394 0.51843 0.8289 0.0
C241 C 0.25755 0.52087 0.84408 0.0
C242 C 0.25423 0.52772 0.87037 0.0
C243 C 0.17039 0.52599 0.86702 0.0
C244 C 0.17068 0.52139 0.84092 0.0
C245 C 0.11969 0.52009 0.83052 0.0
H246 H 0.88453 0.52019 0.87752 0.0
C247 C 0.12157 0.52598 0.87555 0.0
C248 C 0.08925 0.52344 0.85458 0.0
H249 H 0.91486 0.52663 0.79732 0.0
H250 H 0.99634 0.52634 0.80529 0.0
H251 H 0.89458 0.44208 0.88858 0.0
H252 H 1.01401 0.60104 0.89169 0.0
H253 H 1.03288 0.58682 0.91868 0.0
H254 H 0.95958 0.56462 0.91541 0.0
H255 H 0.89339 0.47701 0.91351 0.0
H256 H 0.93592 0.4583 0.91633 0.0
C257 C 0.07405 0.47129 0.81521 0.0
C258 C 0.1467 0.56463 0.81372 0.0
C259 C 0.09937 0.52553 0.97218 0.0
C260 C 0.06097 0.52435 0.98816 0.0
C261 C 1.01828 0.52356 0.9772 0.0
C262 C 1.01346 0.52356 0.95071 0.0
C263 C 1.05207 0.52476 0.93456 0.0
C264 C 0.09419 0.526 0.94558 0.0
C265 C 0.132 0.52802 0.92598 0.0
C266 C 0.10505 0.52643 0.90103 0.0
C267 C 0.05835 0.52488 0.90613 0.0
C268 C 0.12453 0.48089 0.9288 0.0
C269 C 0.19533 0.57869 0.93045 0.0
C270 C 0.90728 0.52127 0.8611 0.0
C271 C 0.88905 0.52309 0.83672 0.0
C272 C 0.92451 0.52508 0.81684 0.0
C273 C 0.97269 0.52474 0.82144 0.0
C274 C 0.98957 0.52278 0.84654 0.0
C275 C 0.95509 0.52163 0.86525 0.0
C276 C 0.97487 0.52213 0.89099 0.0
C277 C 1.02581 0.52354 0.88608 0.0
C278 C 1.03854 0.52332 0.85966 0.0
C279 C 0.92222 0.47273 0.90323 0.0
C280 C 0.99606 0.57074 0.90515 0.0
H281 H 0.21656 0.53448 0.90157 0.0
H282 H 0.21296 0.51372 0.8084 0.0
H283 H 0.17986 0.59996 0.82483 0.0
H284 H 0.11231 0.56478 0.80665 0.0
H285 H 0.16865 0.56322 0.79707 0.0
H286 H 1.0547 0.43906 0.82738 0.0
H287 H 0.09459 0.46814 0.79856 0.0
H288 H 1.03808 0.46944 0.8082 0.0
H289 H 0.13274 0.52622 0.98021 0.0
H290 H 0.98817 0.52251 0.98925 0.0
H291 H 0.97938 0.52254 0.94412 0.0
H292 H 0.08067 0.4495 0.93633 0.0
H293 H 0.15799 0.48829 0.9421 0.0
H294 H 0.12622 0.46583 0.9104 0.0
H295 H 0.19521 0.60748 0.93922 0.0
H296 H 0.2193 0.59503 0.91246 0.0
H297 H 0.22114 0.57515 0.94336 0.0
H298 H 0.28437 0.53084 0.88324 0.0
C299 C 0.21311 0.53005 0.88135 0.0
C300 C 0.93913 0.401 0.46402 0.0
C301 C 0.89339 0.35431 0.45128 0.0
C302 C 0.89136 0.35251 0.42454 0.0
C303 C 0.97708 0.44045 0.42305 0.0
C304 C 0.98074 0.44398 0.44937 0.0
C305 C 1.03315 0.4976 0.45837 0.0
H306 H 0.26941 0.73652 0.41915 0.0
C307 C 1.02418 0.4901 0.41273 0.0
C308 C 0.05802 0.52504 0.43315 0.0
H309 H 0.22993 0.69481 0.49742 0.0
H310 H 0.14323 0.60923 0.48351 0.0
H311 H 0.23586 0.63657 0.393 0.0
H312 H 0.14817 0.69271 0.40659 0.0
H313 H 0.11106 0.652 0.37994 0.0
H314 H 0.18826 0.70622 0.378 0.0
H315 H 0.25626 0.69196 0.38015 0.0
H316 H 0.20348 0.63284 0.3642 0.0
C317 C 0.07767 0.49789 0.47249 0.0
C318 C 1.01098 0.51822 0.47525 0.0
C319 C 1.04673 0.50516 0.31625 0.0
C320 C 0.0792 0.5465 0.30059 0.0
C321 C 0.11025 0.5943 0.31194 0.0
C322 C 0.11378 0.60131 0.33844 0.0
C323 C 0.08444 0.56002 0.35394 0.0
C324 C 1.04853 0.51288 0.34278 0.0
C325 C 1.01234 0.4737 0.36223 0.0
C326 C 1.03716 0.50517 0.38706 0.0
C327 C 0.08082 0.55539 0.38193 0.0
C328 C 1.02499 0.43813 0.36001 0.0
C329 C 0.94711 0.44829 0.35745 0.0
C330 C 0.24292 0.70914 0.43348 0.0
C331 C 0.25785 0.72293 0.45931 0.0
C332 C 0.22047 0.68555 0.47723 0.0
C333 C 0.17011 0.63595 0.46918 0.0
C334 C 0.15592 0.62342 0.44293 0.0
C335 C 0.19245 0.6608 0.42591 0.0
C336 C 0.17049 0.64495 0.39906 0.0
C337 C 0.11688 0.59074 0.40194 0.0
C338 C 0.10687 0.5767 0.42766 0.0
C339 C 0.2188 0.65196 0.38308 0.0
C340 C 0.15389 0.67555 0.39026 0.0
H341 H 0.92797 0.38924 0.39033 0.0
H342 H 0.94247 0.40372 0.48462 0.0
H343 H 0.97591 0.5142 0.46511 0.0
H344 H 1.04648 0.55811 0.48024 0.0
H345 H 0.99264 0.49779 0.49321 0.0
H346 H 0.08987 0.47984 0.46034 0.0
H347 H 0.05876 0.47728 0.49037 0.0
H348 H 0.11843 0.53607 0.47742 0.0
H349 H 1.02064 0.46779 0.30803 0.0
H350 H 0.13416 0.62656 0.30023 0.0
H351 H 0.14055 0.63881 0.34576 0.0
H352 H 0.07278 0.45954 0.35779 0.0
H353 H 1.00186 0.41216 0.34316 0.0
H354 H 1.01254 0.41616 0.37711 0.0
H355 H 0.94253 0.47052 0.3453 0.0
H356 H 0.92472 0.44426 0.37535 0.0
H357 H 0.92229 0.41119 0.34771 0.0
H358 H 0.85766 0.31769 0.41425 0.0
C359 C 0.93244 0.39458 0.41057 0.0
C360 C 0.62662 0.94423 0.79238 0.0
C361 C 0.63087 0.91132 0.77949 0.0
C362 C 0.62491 0.90598 0.75276 0.0
C363 C 0.61192 0.96608 0.75184 0.0
C364 C 0.61663 0.97094 0.77815 0.0
C365 C 0.60932 1.00676 0.78836 0.0
H366 H 0.56375 0.16578 0.76272 0.0
C367 C 0.60268 0.99916 0.74253 0.0
C368 C 0.60068 0.02311 0.76383 0.0
H369 H 0.58235 0.12906 0.83687 0.0
H370 H 0.59566 0.07422 0.81717 0.0
H371 H 0.66754 0.17717 0.73691 0.0
H372 H 0.48116 0.0565 0.73872 0.0
H373 H 0.50279 0.05607 0.70764 0.0
H374 H 0.51422 0.1098 0.71983 0.0
H375 H 0.61707 0.17587 0.71837 0.0
H376 H 0.6466 0.14833 0.7064 0.0
C377 C 0.66632 0.05042 0.80275 0.0
C378 C 0.55408 0.9777 0.80504 0.0
C379 C 0.5907 0.01205 0.64688 0.0
C380 C 0.58286 0.0398 0.63252 0.0
C381 C 0.57623 0.07122 0.64512 0.0
C382 C 0.57758 0.07518 0.67181 0.0
C383 C 0.58555 0.04733 0.68608 0.0
C384 C 0.59182 0.01635 0.67359 0.0
C385 C 0.59941 0.98938 0.6919 0.0
C386 C 0.59721 1.00962 0.71744 0.0
C387 C 0.58911 0.04348 0.71386 0.0
C388 C 0.66032 1.00524 0.6873 0.0
C389 C 0.54685 0.93282 0.68801 0.0
C390 C 0.57082 0.14595 0.77466 0.0
C391 C 0.57196 0.15143 0.80124 0.0
C392 C 0.58127 0.12513 0.81629 0.0
C393 C 0.58881 0.09334 0.8048 0.0
C394 C 0.58694 0.0878 0.77801 0.0
C395 C 0.57822 0.11419 0.76353 0.0
C396 C 0.57726 0.10429 0.73547 0.0
C397 C 0.58629 0.06728 0.73525 0.0
C398 C 0.59207 0.05744 0.76016 0.0
C399 C 0.6294 0.15382 0.72344 0.0
C400 C 0.516 0.08076 0.72462 0.0
H401 H 0.6118 0.92731 0.71862 0.0
H402 H 0.63092 0.9489 0.81294 0.0
H403 H 0.51816 0.94046 0.79609 0.0
H404 H 0.53588 0.99609 0.80729 0.0
H405 H 0.56355 0.97202 0.82421 0.0
H406 H 0.70541 0.0628 0.79184 0.0
H407 H 0.66891 0.0392 0.82176 0.0
H408 H 0.67066 0.0835 0.80531 0.0
H409 H 0.59561 0.98748 0.63749 0.0
H410 H 0.57 0.09268 0.63423 0.0
H411 H 0.57229 0.0998 0.68026 0.0
H412 H 0.6935 0.04548 0.6833 0.0
H413 H 0.65877 0.9842 0.67069 0.0
H414 H 0.678 1.00073 0.70403 0.0
H415 H 0.50681 0.92547 0.68147 0.0
H416 H 0.53376 0.91259 0.70587 0.0
H417 H 0.55653 0.91578 0.67348 0.0
H418 H 0.62797 0.88088 0.74252 0.0
C419 C 0.61559 0.93307 0.73893 0.0
C420 C 0.60345 0.38073 0.12991 0.0
C421 C 0.59969 0.34405 0.11618 0.0
C422 C 0.57237 0.32784 0.09185 0.0
C423 C 0.56403 0.39089 0.09376 0.0
C424 C 0.58417 0.40256 0.11864 0.0
C425 C 0.58241 0.43998 0.13122 0.0
H426 H 0.48714 0.56453 0.1249 0.0
C427 C 0.55135 0.42273 0.08722 0.0
C428 C 0.55996 0.45028 0.10934 0.0
H429 H 0.56672 0.55689 0.18999 0.0
H430 H 0.58835 0.51338 0.16366 0.0
H431 H 0.59058 0.60081 0.08975 0.0
H432 H 0.41956 0.45975 0.09826 0.0
H433 H 0.43349 0.47032 0.06533 0.0
H434 H 0.43633 0.51374 0.08542 0.0
H435 H 0.5311 0.58134 0.06954 0.0
H436 H 0.5784 0.56892 0.06074 0.0
C437 C 0.64553 0.48658 0.13962 0.0
C438 C 0.53828 0.41434 0.1533 0.0
C439 C 0.53645 0.45031 0.99481 0.0
C440 C 0.52791 0.48035 0.98366 0.0
C441 C 0.51194 0.50287 -0.00113 0.0
C442 C 0.50787 0.49801 0.02526 0.0
C443 C 0.51981 0.47029 0.03643 0.0
C444 C 0.53163 0.44538 0.02128 0.0
C445 C 0.53969 0.41541 0.03676 0.0
C446 C 0.53768 0.43153 0.06367 0.0
C447 C 0.52605 0.46355 0.0632 0.0
C448 C 0.60015 0.43147 0.0309 0.0
C449 C 0.48759 0.3593 0.03092 0.0
C450 C 0.50974 0.55389 0.13348 0.0
C451 C 0.52241 0.56147 0.15976 0.0
C452 C 0.55397 0.54907 0.17002 0.0
C453 C 0.56626 0.52383 0.15474 0.0
C454 C 0.54806 0.51235 0.12896 0.0
C455 C 0.5236 0.53008 0.11846 0.0
C456 C 0.51315 0.51966 0.09023 0.0
C457 C 0.52975 0.48813 0.08593 0.0
C458 C 0.54899 0.48316 0.1087 0.0
C459 C 0.55507 0.57003 0.07676 0.0
C460 C 0.44722 0.48947 0.08432 0.0
H461 H 0.53639 0.33918 0.06158 0.0
H462 H 0.6231 0.39378 0.14883 0.0
H463 H 0.49875 0.37571 0.14741 0.0
H464 H 0.52144 0.43277 0.15922 0.0
H465 H 0.55832 0.41226 0.17018 0.0
H466 H 0.67816 0.49347 0.12581 0.0
H467 H 0.65699 0.482 0.1586 0.0
H468 H 0.65221 0.52096 0.14017 0.0
H469 H 0.54751 0.43191 0.98316 0.0
H470 H 0.50446 0.52551 0.99034 0.0
H471 H 0.49639 0.51655 0.036 0.0
H472 H 0.63556 0.47236 0.03392 0.0
H473 H 0.60169 0.42154 0.01082 0.0
H474 H 0.61055 0.4136 0.04315 0.0
H475 H 0.45178 0.35273 0.01982 0.0
H476 H 0.46676 0.33857 0.04862 0.0
H477 H 0.50171 0.34193 0.01962 0.0
H478 H 0.56455 0.29728 0.08148 0.0
C479 C 0.55525 0.35165 0.08041 0.0
C480 C 0.39745 0.54166 0.18746 0.0
C481 C 0.40329 0.57572 0.17157 0.0
C482 C 0.50761 0.62068 0.16777 0.0
C483 C 0.49633 0.57772 0.17562 0.0
N484 N 0.43579 0.50264 0.1992 0.0
N485 N 0.46532 0.65329 0.15024 0.0
C486 C 0.44361 0.54079 0.18842 0.0
C487 C 0.45939 0.61812 0.16356 0.0
N488 N 0.34687 0.50927 0.20061 0.0
N489 N 0.56366 0.66145 0.16215 0.0
H490 H 0.43047 0.65225 0.14734 0.0
H491 H 0.50401 0.68251 0.14157 0.0
H492 H 0.5982 0.66181 0.16456 0.0
H493 H 0.57615 0.69521 0.15725 0.0
H494 H 0.34077 0.48537 0.21391 0.0
H495 H 0.3128 0.5098 0.19975 0.0
H496 H 0.39567 0.47093 0.20566 0.0
H497 H 0.46987 0.50262 0.20155 0.0
C498 C 0.79795 0.21579 0.46122 0.0
C499 C 0.74647 0.20255 0.47271 0.0
C500 C 0.79584 0.29225 0.47435 0.0
C501 C 0.84789 0.30516 0.46412 0.0
N502 N 0.90287 0.27978 0.4547 0.0
N503 N 0.70455 0.23159 0.49645 0.0
C504 C 0.85025 0.26698 0.46009 0.0
C505 C 0.74787 0.24186 0.48113 0.0
N506 N 0.79618 0.18012 0.44937 0.0
N507 N 0.79113 0.32768 0.47674 0.0
H508 H 0.67062 0.19613 0.5029 0.0
H509 H 0.7059 0.25906 0.50508 0.0
H510 H 0.82574 0.36486 0.47288 0.0
H511 H 0.75195 0.31955 0.481 0.0
H512 H 0.83041 0.18835 0.43847 0.0
H513 H 0.75846 0.14283 0.44772 0.0
H514 H 0.90898 0.25425 0.45394 0.0
H515 H 0.94162 0.31677 0.45375 0.0
C516 C 0.70206 0.85792 0.79415 0.0
C517 C 0.65943 0.81753 0.80964 0.0
C518 C 0.59945 0.84139 0.80771 0.0
C519 C 0.64329 0.88286 0.79311 0.0
N520 N 0.74284 0.93798 0.77852 0.0
N521 N 0.575 0.7784 0.83632 0.0
C522 C 0.69681 0.89352 0.7884 0.0
C523 C 0.61046 0.81174 0.81808 0.0
N524 N 0.74564 0.86077 0.78354 0.0
N525 N 0.54617 0.82873 0.81063 0.0
H526 H 0.58234 0.7567 0.84455 0.0
H527 H 0.54198 0.77577 0.84503 0.0
H528 H 0.53644 0.84951 0.80349 0.0
H529 H 0.51022 0.79566 0.81848 0.0
H530 H 0.77385 0.88622 0.76985 0.0
H531 H 0.7504 0.83488 0.78653 0.0
H532 H 0.78478 0.94998 0.77693 0.0
H533 H 0.74057 0.96505 0.77439 0.0
C534 C 0.73808 0.38125 0.12785 0.0
C535 C 0.73661 0.38575 0.15477 0.0
C536 C 0.63006 0.32424 0.1532 0.0
C537 C 0.63227 0.32969 0.12653 0.0
N538 N 0.68247 0.33504 0.08916 0.0
N539 N 0.68176 0.35241 0.19357 0.0
C540 C 0.68443 0.34851 0.114 0.0
C541 C 0.68287 0.35322 0.16764 0.0
N542 N 0.79035 0.41034 0.11549 0.0
N543 N 0.57784 0.29607 0.16527 0.0
H544 H 0.72003 0.37373 0.20476 0.0
H545 H 0.64255 0.32966 0.20353 0.0
H546 H 0.5378 0.27523 0.15538 0.0
H547 H 0.5378 0.27523 0.15538 0.0
H548 H 0.79353 0.41319 0.09576 0.0
H549 H 0.83078 0.43316 0.1251 0.0
H550 H 0.71907 0.34542 0.07944 0.0
H551 H 0.64292 0.30796 0.0795 0.0
C552 C 0.37 0.86458 0.45407 0.0
C553 C 0.41785 0.88076 0.47019 0.0
C554 C 0.36097 0.79176 0.47962 0.0
C555 C 0.3108 0.77728 0.46624 0.0
N556 N 0.26472 0.80497 0.44736 0.0
N557 N 0.45012 0.85734 0.50335 0.0
C558 C 0.31449 0.81545 0.45576 0.0
C559 C 0.41087 0.84367 0.48444 0.0
N560 N 0.37803 0.89438 0.43556 0.0
N561 N 0.36255 0.75633 0.48689 0.0
H562 H 0.48534 0.89411 0.50872 0.0
H563 H 0.44381 0.83205 0.51571 0.0
H564 H 0.32786 0.71842 0.48352 0.0
H565 H 0.40036 0.7649 0.4941 0.0
H566 H 0.34549 0.88243 0.42217 0.0
H567 H 0.41904 0.92779 0.43113 0.0
H568 H 0.26442 0.83238 0.44145 0.0
H569 H 0.22312 0.77009 0.4491 0.0
C570 C 0.595 0.26822 0.81661 0.0
C571 C 0.53851 0.24748 0.82531 0.0
C572 C 0.50579 0.16367 0.82127 0.0
C573 C 0.56236 0.18441 0.81279 0.0
N574 N 0.66423 0.2563 0.80788 0.0
N575 N 0.44518 0.17763 0.84188 0.0
C576 C 0.60813 0.23677 0.81232 0.0
C577 C 0.49553 0.1958 0.82956 0.0
N578 N 0.63509 0.31745 0.81118 0.0
N579 N 0.46109 0.11325 0.82025 0.0
H580 H 0.43659 0.20026 0.84832 0.0
H581 H 0.41457 0.14126 0.84781 0.0
H582 H 0.46709 0.08848 0.81486 0.0
H583 H 0.41736 0.09601 0.82314 0.0
H584 H 0.67445 0.33365 0.80206 0.0
H585 H 0.62744 0.34178 0.81422 0.0
H586 H 0.70064 0.29409 0.80972 0.0
H587 H 0.675 0.23415 0.80458 0.0
C588 C 0.55371 0.75932 0.49925 0.0
C589 C 0.61169 0.80478 0.49615 0.0
C590 C 0.65144 0.7649 0.50513 0.0
C591 C 0.59431 0.72155 0.51179 0.0
N592 N 0.4904 0.67485 0.51407 0.0
N593 N 0.71586 0.85201 0.49483 0.0
C594 C 0.54504 0.71775 0.50814 0.0
C595 C 0.66055 0.80762 0.49824 0.0
N596 N 0.50734 0.75635 0.4938 0.0
N597 N 0.69695 0.76528 0.50572 0.0
H598 H 0.72383 0.8833 0.4885 0.0
H599 H 0.75415 0.85886 0.49913 0.0
H600 H 0.69264 0.73559 0.51182 0.0
H601 H 0.73838 0.79356 0.49865 0.0
H602 H 0.4637 0.72363 0.49373 0.0
H603 H 0.51269 0.78653 0.48761 0.0
H604 H 0.4531 0.67083 0.51462 0.0
H605 H 0.48249 0.64299 0.51925 0.0
C606 C 0.72943 0.48633 0.84416 0.0
C607 C 0.73324 0.52406 0.83181 0.0
C608 C 0.84009 0.56254 0.823 0.0
C609 C 0.83443 0.5226 0.83346 0.0
N610 N 0.76359 0.44067 0.84957 0.0
N611 N 0.79569 0.5943 0.80515 0.0
C612 C 0.7761 0.48323 0.84275 0.0
C613 C 0.78987 0.56102 0.82022 0.0
N614 N 0.68183 0.45404 0.85892 0.0
N615 N 0.8949 0.60395 0.81638 0.0
H616 H 0.7617 0.59428 0.80209 0.0
H617 H 0.8318 0.61846 0.79369 0.0
H618 H 0.93122 0.60655 0.81775 0.0
H619 H 0.90523 0.63698 0.81171 0.0
H620 H 0.67802 0.42927 0.87073 0.0
H621 H 0.64911 0.45585 0.86166 0.0
H622 H 0.72137 0.4081 0.85344 0.0
H623 H 0.79446 0.43631 0.84864 0.0
C624 C 0.23729 0.72161 0.16702 0.0
C625 C 0.23357 0.68906 0.14873 0.0
C626 C 0.3356 0.76074 0.13628 0.0
C627 C 0.33678 0.79387 0.15286 0.0
N628 N 0.27936 0.806 0.17781 0.0
N629 N 0.27531 0.68379 0.11066 0.0
C630 C 0.2845 0.77424 0.16615 0.0
C631 C 0.28164 0.71044 0.1318 0.0
N632 N 0.19821 0.7027 0.18643 0.0
N633 N 0.38625 0.7762 0.12554 0.0
H634 H 0.2358 0.64872 0.10552 0.0
H635 H 0.30701 0.69903 0.09662 0.0
H636 H 0.42652 0.81195 0.12858 0.0
H637 H 0.38904 0.75208 0.11555 0.0
H638 H 0.20267 0.72483 0.20151 0.0
H639 H 0.1658 0.66482 0.18934 0.0
H640 H 0.24042 0.79395 0.18586 0.0
H641 H 0.31174 0.84453 0.17678 0.0
C642 C 0.52527 0.29287 0.46943 0.0
C643 C 0.5648 0.28618 0.4763 0.0
C644 C 0.63275 0.37138 0.4943 0.0
C645 C 0.58865 0.3745 0.49161 0.0
N646 N 0.4892 0.33512 0.47946 0.0
N647 N 0.65404 0.31722 0.49784 0.0
C648 C 0.53405 0.33467 0.47965 0.0
C649 C 0.61842 0.32515 0.48917 0.0
N650 N 0.47946 0.25929 0.45304 0.0
N651 N 0.68836 0.41273 0.50162 0.0
H652 H 0.64482 0.28368 0.49486 0.0
H653 H 0.69029 0.34252 0.50978 0.0
H654 H 0.70028 0.44729 0.50524 0.0
H655 H 0.72366 0.41386 0.50162 0.0
H656 H 0.45242 0.26472 0.44547 0.0
H657 H 0.47226 0.22848 0.44501 0.0
H658 H 0.4466 0.30451 0.47355 0.0
H659 H 0.49288 0.3643 0.4873 0.0
C660 C 0.40482 0.54725 0.81759 0.0
C661 C 0.40918 0.516 0.83245 0.0
C662 C 0.30737 0.48043 0.84838 0.0
C663 C 0.30646 0.51576 0.83628 0.0
N664 N 0.36518 0.58875 0.81157 0.0
N665 N 0.3628 0.46022 0.86727 0.0
C666 C 0.35843 0.55057 0.82151 0.0
C667 C 0.35946 0.48453 0.84903 0.0
N668 N 0.44376 0.57283 0.79844 0.0
N669 N 0.25668 0.44084 0.85918 0.0
H670 H 0.3998 0.46439 0.87005 0.0
H671 H 0.3323 0.44128 0.88172 0.0
H672 H 0.21835 0.43546 0.85869 0.0
H673 H 0.25081 0.41072 0.86584 0.0
H674 H 0.44066 0.59216 0.78527 0.0
H675 H 0.47515 0.5701 0.79388 0.0
H676 H 0.40399 0.61913 0.80346 0.0
H677 H 0.33306 0.5916 0.81327 0.0
C678 C 0.92487 0.33081 0.15782 0.0
C679 C 0.91979 0.36274 0.1454 0.0
C680 C 0.81163 0.29327 0.14336 0.0
C681 C 0.81704 0.26107 0.15503 0.0
N682 N 0.88065 0.24623 0.16703 0.0
N683 N 0.85867 0.3686 0.12019 0.0
C684 C 0.87443 0.27902 0.16 0.0
C685 C 0.8632 0.34213 0.13633 0.0
N686 N 0.97681 0.35031 0.16926 0.0
N687 N 0.75727 0.27829 0.14006 0.0
H688 H 0.89501 0.40383 0.11437 0.0
H689 H 0.81994 0.35327 0.11044 0.0
H690 H 0.71883 0.24273 0.14426 0.0
H691 H 0.75066 0.30213 0.13469 0.0
H692 H 0.98138 0.33014 0.18103 0.0
H693 H 1.01416 0.38785 0.16909 0.0
H694 H 0.92115 0.25548 0.16862 0.0
H695 H 0.8448 0.20839 0.16866 0.0
C696 C 1.02187 0.47607 0.05567 0.0
C697 C 1.05535 0.52154 0.07031 0.0
C698 C 0.10197 0.56786 0.03118 0.0
C699 C 0.06358 0.52283 0.01643 0.0
N700 N 0.98478 0.43403 0.01403 0.0
N701 N 0.12068 0.61132 0.07158 0.0
C702 C 1.02309 0.47687 0.02854 0.0
C703 C 0.09428 0.56767 0.05802 0.0
N704 N 0.99012 0.43206 0.06775 0.0
N705 N 0.14561 0.61094 0.01947 0.0
H706 H 0.11448 0.61322 0.09097 0.0
H707 H 0.14436 0.64559 0.06322 0.0
H708 H 0.15127 0.61278 -0.00021 0.0
H709 H 0.17918 0.6439 0.02937 0.0
H710 H 0.9699 0.39796 0.0584 0.0
H711 H 0.98772 0.42991 0.08751 0.0
H712 H 0.94915 0.40026 0.02143 0.0
H713 H 0.98669 0.43271 0.99419 0.0
C714 C 0.58945 1.00242 0.38617 0.0
C715 C 0.5915 0.03795 0.40051 0.0
C716 C 0.57437 0.06277 0.3615 0.0
C717 C 0.57881 0.03115 0.34689 0.0
N718 N 0.6027 0.97852 0.34503 0.0
N719 N 0.59702 0.10845 0.40155 0.0
C720 C 0.58966 1.003 0.35915 0.0
C721 C 0.587 0.06997 0.38812 0.0
N722 N 0.58622 0.9675 0.39836 0.0
N723 N 0.5563 0.08467 0.35014 0.0
H724 H 0.60731 0.11521 0.42097 0.0
H725 H 0.60029 0.13608 0.39305 0.0
H726 H 0.54605 0.07988 0.33074 0.0
H727 H 0.54647 0.1039 0.36033 0.0
H728 H 0.57847 0.93752 0.38884 0.0
H729 H 0.58576 0.96573 0.41816 0.0
H730 H 0.61688 0.96167 0.35306 0.0
H731 H 0.60511 0.97924 0.32519 0.0
C732 C 0.54692 0.47476 0.73841 0.0
C733 C 0.56123 0.51478 0.75402 0.0
C734 C 0.6071 0.56865 0.71752 0.0
C735 C 0.58507 0.52678 0.70127 0.0
N736 N 0.52216 0.43874 0.69533 0.0
N737 N 0.59284 0.59673 0.75689 0.0
C738 C 0.55125 0.47925 0.71163 0.0
C739 C 0.58791 0.56097 0.74315 0.0
N740 N 0.53275 0.43384 0.74906 0.0
N741 N 0.64805 0.61565 0.70897 0.0
H742 H 0.57575 0.5907 0.77512 0.0
H743 H 0.60771 0.62967 0.74915 0.0
H744 H 0.66594 0.6228 0.69085 0.0
H745 H 0.66881 0.64733 0.72083 0.0
H746 H 0.52775 0.40598 0.73848 0.0
H747 H 0.53362 0.43096 0.76865 0.0
H748 H 0.49261 0.40209 0.70109 0.0
H749 H 0.49261 0.40209 0.70109 0.0
C750 C 0.52529 0.99444 0.56422 0.0
C751 C 0.5742 0.03419 0.55037 0.0
C752 C 0.63215 0.07199 0.59027 0.0
C753 C 0.58099 0.03583 0.60419 0.0
N754 N 0.47804 0.96362 0.60504 0.0
N755 N 0.68018 0.09694 0.54949 0.0
C756 C 0.52751 0.99691 0.59132 0.0
C757 C 0.62963 0.06911 0.56309 0.0
N758 N 0.47822 0.95262 0.55135 0.0
N759 N 0.68282 0.11007 0.60311 0.0
H760 H 0.68134 0.09134 0.53006 0.0
H761 H 0.72196 0.12039 0.55775 0.0
H762 H 0.68726 0.11196 0.6229 0.0
H763 H 0.71929 0.14148 0.59441 0.0
H764 H 0.44351 0.92034 0.56017 0.0
H765 H 0.47726 0.94779 0.53162 0.0
H766 H 0.43613 0.93844 0.59693 0.0
H767 H 0.47813 0.96333 0.6249 0.0
C768 C 0.50195 0.46871 0.91212 0.0
C769 C 0.55534 0.5148 0.90451 0.0
C770 C 0.59192 0.53699 0.94866 0.0
C771 C 0.53862 0.49078 0.95622 0.0
N772 N 0.44633 0.40953 0.94551 0.0
N773 N 0.65559 0.58818 0.91406 0.0
C774 C 0.49471 0.45558 0.93801 0.0
C775 C 0.60164 0.54771 0.92238 0.0
N776 N 0.45748 0.43826 0.89469 0.0
N777 N 0.63286 0.57091 0.96672 0.0
H778 H 0.66446 0.59716 0.89493 0.0
H779 H 0.69298 0.61075 0.92566 0.0
H780 H 0.62931 0.56322 0.98598 0.0
H781 H 0.66898 0.60762 0.96296 0.0
H782 H 0.41492 0.40718 0.89928 0.0
H783 H 0.46243 0.44561 0.87543 0.0
H784 H 0.41582 0.38008 0.93294 0.0
H785 H 0.43824 0.39945 0.96449 0.0
C786 C 0.14375 0.57194 0.23448 0.0
C787 C 0.09447 0.53295 0.21923 0.0
C788 C 1.03282 0.50788 0.25684 0.0
C789 C 0.08366 0.54082 0.27258 0.0
N790 N 0.18923 0.59319 0.27599 0.0
N791 N 0.99359 0.45439 0.21905 0.0
C792 C 0.13973 0.56953 0.26132 0.0
C793 C 1.03914 0.49815 0.23117 0.0
N794 N 0.1937 0.61255 0.22371 0.0
N795 N 0.97871 0.4868 0.26595 0.0
H796 H 0.99738 0.44205 0.20161 0.0
H797 H 0.95424 0.42704 0.22805 0.0
H798 H 0.97245 0.49478 0.28425 0.0
H799 H 0.9412 0.46591 0.25431 0.0
H800 H 0.22866 0.64311 0.23459 0.0
H801 H 0.1972 0.61893 0.2043 0.0
H802 H 0.23039 0.61135 0.26811 0.0
H803 H 0.18819 0.58954 0.29565 0.0
loop_
_geom_bond_atom_site_label_1
_geom_bond_atom_site_label_2
_geom_bond_distance
_geom_bond_site_symmetry_2
_ccdc_geom_bond_type
Sm0 C2 2.846 . S
Sm0 O20 2.543 . S
Sm0 O21 2.450 . S
Sm0 O22 2.681 . S
Sm0 O23 2.464 . S
Sm0 O24 2.396 . S
Sm0 O28 2.386 . S
Sm0 O31 2.408 1_455 S
Sm1 C11 2.846 . S
Sm1 O22 2.386 1_655 S
Sm1 O25 2.408 1_655 S
Sm1 O26 2.543 . S
Sm1 O27 2.450 . S
Sm1 O28 2.681 1_655 S
Sm1 O29 2.464 . S
Sm1 O30 2.396 . S
C2 Sm0 2.846 . S
C2 C3 1.506 . S
C2 O20 1.261 . S
C2 O21 1.242 . S
C3 C2 1.506 . S
C3 C4 1.358 . S
C3 C8 1.382 . S
C4 C3 1.358 . S
C4 C5 1.385 . S
C4 H32 0.930 . S
C5 C4 1.385 . S
C5 C6 1.395 . S
C5 H33 0.929 . S
C6 C5 1.395 . S
C6 C7 1.335 . S
C7 C6 1.335 . S
C7 C8 1.398 . S
C7 H34 0.930 . S
C8 C3 1.382 . S
C8 C7 1.398 . S
C8 H35 0.929 . S
C9 O22 1.271 . S
C9 O23 1.251 . S
C10 O24 1.252 . S
C10 O25 1.272 . S
C11 Sm1 2.846 . S
C11 C12 1.506 . S
C11 O26 1.261 . S
C11 O27 1.242 . S
C12 C11 1.506 . S
C12 C13 1.358 . S
C12 C17 1.382 . S
C13 C12 1.358 . S
C13 C14 1.385 . S
C13 H36 0.930 . S
C14 C13 1.385 . S
C14 C15 1.395 . S
C14 H37 0.929 . S
C15 C14 1.395 . S
C15 C16 1.335 . S
C16 C15 1.335 . S
C16 C17 1.398 . S
C16 H38 0.930 . S
C17 C12 1.382 . S
C17 C16 1.398 . S
C17 H39 0.929 . S
C18 O28 1.271 . S
C18 O29 1.251 1_455 S
C19 O30 1.252 . S
C19 O31 1.272 . S
O20 Sm0 2.543 . S
O20 C2 1.261 . S
O21 Sm0 2.450 . S
O21 C2 1.242 . S
O22 Sm0 2.681 . S
O22 Sm1 2.386 1_455 S
O22 C9 1.271 . S
O23 Sm0 2.464 . S
O23 C9 1.251 . S
O24 Sm0 2.396 . S
O24 C10 1.252 . S
O25 Sm1 2.408 1_455 S
O25 C10 1.272 . S
O26 Sm1 2.543 . S
O26 C11 1.261 . S
O27 Sm1 2.450 . S
O27 C11 1.242 . S
O28 Sm0 2.386 . S
O28 Sm1 2.681 1_455 S
O28 C18 1.271 . S
O29 Sm1 2.464 . S
O29 C18 1.251 1_655 S
O30 Sm1 2.396 . S
O30 C19 1.252 . S
O31 Sm0 2.408 1_655 S
O31 C19 1.272 . S
H32 C4 0.930 . S
H33 C5 0.929 . S
H34 C7 0.930 . S
H35 C8 0.929 . S
H36 C13 0.930 . S
H37 C14 0.929 . S
H38 C16 0.930 . S
H39 C17 0.929 . S
Sm40 C42 2.846 . S
Sm40 O60 2.543 . S
Sm40 O61 2.450 . S
Sm40 O62 2.681 1_565 S
Sm40 O63 2.464 . S
Sm40 O64 2.396 . S
Sm40 O68 2.386 . S
Sm40 O71 2.408 1_565 S
Sm41 C51 2.846 . S
Sm41 O62 2.386 . S
Sm41 O65 2.408 1_545 S
Sm41 O66 2.543 . S
Sm41 O67 2.450 . S
Sm41 O68 2.681 1_545 S
Sm41 O69 2.464 . S
Sm41 O70 2.396 . S
C42 Sm40 2.846 . S
C42 C43 1.506 . S
C42 O60 1.261 . S
C42 O61 1.242 . S
C43 C42 1.506 . S
C43 C44 1.358 . S
C43 C48 1.382 . S
C44 C43 1.358 . S
C44 C45 1.385 . S
C44 H72 0.930 . S
C45 C44 1.385 . S
C45 C46 1.395 . S
C45 H73 0.929 . S
C46 C45 1.395 . S
C46 C47 1.335 . S
C47 C46 1.335 . S
C47 C48 1.398 . S
C47 H74 0.930 . S
C48 C43 1.382 . S
C48 C47 1.398 . S
C48 H75 0.929 . S
C49 O62 1.271 . S
C49 O63 1.251 1_545 S
C50 O64 1.252 . S
C50 O65 1.272 . S
C51 Sm41 2.846 . S
C51 C52 1.506 . S
C51 O66 1.261 . S
C51 O67 1.242 . S
C52 C51 1.506 . S
C52 C53 1.358 . S
C52 C57 1.382 . S
C53 C52 1.358 . S
C53 C54 1.385 . S
C53 H76 0.930 . S
C54 C53 1.385 . S
C54 C55 1.395 . S
C54 H77 0.929 . S
C55 C54 1.395 . S
C55 C56 1.335 . S
C56 C55 1.335 . S
C56 C57 1.398 . S
C56 H78 0.930 . S
C57 C52 1.382 . S
C57 C56 1.398 . S
C57 H79 0.929 . S
C58 O68 1.271 1_545 S
C58 O69 1.251 . S
C59 O70 1.252 . S
C59 O71 1.272 . S
O60 Sm40 2.543 . S
O60 C42 1.261 . S
O61 Sm40 2.450 . S
O61 C42 1.242 . S
O62 Sm40 2.681 1_545 S
O62 Sm41 2.386 . S
O62 C49 1.271 . S
O63 Sm40 2.464 . S
O63 C49 1.251 1_565 S
O64 Sm40 2.396 . S
O64 C50 1.252 . S
O65 Sm41 2.408 1_565 S
O65 C50 1.272 . S
O66 Sm41 2.543 . S
O66 C51 1.261 . S
O67 Sm41 2.450 . S
O67 C51 1.242 . S
O68 Sm40 2.386 . S
O68 Sm41 2.681 1_565 S
O68 C58 1.271 1_565 S
O69 Sm41 2.464 . S
O69 C58 1.251 . S
O70 Sm41 2.396 . S
O70 C59 1.252 . S
O71 Sm40 2.408 1_545 S
O71 C59 1.272 . S
H72 C44 0.930 . S
H73 C45 0.929 . S
H74 C47 0.930 . S
H75 C48 0.929 . S
H76 C53 0.930 . S
H77 C54 0.929 . S
H78 C56 0.930 . S
H79 C57 0.929 . S
Sm80 C82 2.846 . S
Sm80 O100 2.543 . S
Sm80 O101 2.450 . S
Sm80 O102 2.681 . S
Sm80 O103 2.464 . S
Sm80 O104 2.396 . S
Sm80 O108 2.386 . S
Sm80 O111 2.408 . S
Sm81 C91 2.846 . S
Sm81 O102 2.386 . S
Sm81 O105 2.408 . S
Sm81 O106 2.543 . S
Sm81 O107 2.450 . S
Sm81 O108 2.681 . S
Sm81 O109 2.464 . S
Sm81 O110 2.396 . S
C82 Sm80 2.846 . S
C82 C83 1.506 . S
C82 O100 1.261 . S
C82 O101 1.242 . S
C83 C82 1.506 . S
C83 C84 1.358 . S
C83 C88 1.382 . S
C84 C83 1.358 . S
C84 C85 1.385 . S
C84 H112 0.930 . S
C85 C84 1.385 . S
C85 C86 1.395 . S
C85 H113 0.929 . S
C86 C85 1.395 . S
C86 C87 1.335 . S
C87 C86 1.335 . S
C87 C88 1.398 . S
C87 H114 0.930 . S
C88 C83 1.382 . S
C88 C87 1.398 . S
C88 H115 0.929 . S
C89 O102 1.271 . S
C89 O103 1.251 . S
C90 O104 1.252 . S
C90 O105 1.272 . S
C91 Sm81 2.846 . S
C91 C92 1.506 . S
C91 O106 1.261 . S
C91 O107 1.242 . S
C92 C91 1.506 . S
C92 C93 1.358 . S
C92 C97 1.382 . S
C93 C92 1.358 . S
C93 C94 1.385 . S
C93 H116 0.930 . S
C94 C93 1.385 . S
C94 C95 1.395 . S
C94 H117 0.929 . S
C95 C94 1.395 . S
C95 C96 1.335 . S
C96 C95 1.335 . S
C96 C97 1.398 . S
C96 H118 0.930 . S
C97 C92 1.382 . S
C97 C96 1.398 . S
C97 H119 0.929 . S
C98 O108 1.271 . S
C98 O109 1.251 . S
C99 O110 1.252 . S
C99 O111 1.272 . S
O100 Sm80 2.543 . S
O100 C82 1.261 . S
O101 Sm80 2.450 . S
O101 C82 1.242 . S
O102 Sm80 2.681 . S
O102 Sm81 2.386 . S
O102 C89 1.271 . S
O103 Sm80 2.464 . S
O103 C89 1.251 . S
O104 Sm80 2.396 . S
O104 C90 1.252 . S
O105 Sm81 2.408 . S
O105 C90 1.272 . S
O106 Sm81 2.543 . S
O106 C91 1.261 . S
O107 Sm81 2.450 . S
O107 C91 1.242 . S
O108 Sm80 2.386 . S
O108 Sm81 2.681 . S
O108 C98 1.271 . S
O109 Sm81 2.464 . S
O109 C98 1.251 . S
O110 Sm81 2.396 . S
O110 C99 1.252 . S
O111 Sm80 2.408 . S
O111 C99 1.272 . S
H112 C84 0.930 . S
H113 C85 0.929 . S
H114 C87 0.930 . S
H115 C88 0.929 . S
H116 C93 0.930 . S
H117 C94 0.929 . S
H118 C96 0.930 . S
H119 C97 0.929 . S
C120 C121 1.391 . S
C120 C124 1.391 . S
C120 H162 0.948 . S
C121 C120 1.391 . S
C121 C122 1.391 . S
C122 C121 1.391 . S
C122 H178 0.947 . S
C122 C179 1.392 . S
C123 C124 1.391 . S
C123 C127 1.397 . S
C123 C179 1.419 . S
C124 C120 1.391 . S
C124 C123 1.391 . S
C124 C125 1.399 . S
C125 C124 1.399 . S
C125 C128 1.396 . S
C125 C137 1.453 . S
C125 C138 1.684 . S
H126 C150 0.948 . S
C127 C123 1.397 . S
C127 C128 1.394 . S
C127 C146 1.723 . S
C128 C125 1.396 . S
C128 C127 1.394 . S
C128 C158 1.723 1_545 S
H129 C152 0.947 . S
H130 C153 0.948 . S
H131 C159 0.982 . S
H132 C160 0.979 . S
H133 C160 0.980 . S
H134 C160 0.983 . S
H135 C159 0.979 . S
H136 C159 0.977 . S
C137 C125 1.453 . S
C137 H166 0.982 . S
C137 H167 0.979 . S
C137 H168 0.977 1_545 S
C138 C125 1.684 . S
C138 H163 0.979 . S
C138 H164 0.980 . S
C138 H165 0.983 . S
C139 C140 1.391 . S
C139 C144 1.391 . S
C139 H169 0.948 . S
C140 C139 1.391 . S
C140 C141 1.391 1_545 S
C141 C140 1.391 1_565 S
C141 C142 1.392 . S
C141 H170 0.947 . S
C142 C141 1.392 . S
C142 C143 1.419 1_565 S
C142 H171 0.948 . S
C143 C142 1.419 1_545 S
C143 C144 1.391 . S
C143 C147 1.397 . S
C144 C139 1.391 . S
C144 C143 1.391 . S
C144 C145 1.399 . S
C145 C144 1.399 . S
C145 C146 1.396 . S
C145 C148 1.453 . S
C145 C149 1.684 . S
C146 C127 1.723 . S
C146 C145 1.396 . S
C146 C147 1.394 . S
C147 C143 1.397 . S
C147 C146 1.394 . S
C147 C157 1.723 1_545 S
C148 C145 1.453 . S
C148 H172 0.982 . S
C148 H173 0.979 . S
C148 H174 0.977 . S
C149 C145 1.684 . S
C149 H175 0.979 . S
C149 H176 0.980 . S
C149 H177 0.983 . S
C150 H126 0.948 . S
C150 C151 1.391 . S
C150 C155 1.391 . S
C151 C150 1.391 . S
C151 C152 1.391 . S
C152 H129 0.947 . S
C152 C151 1.391 . S
C152 C153 1.392 . S
C153 H130 0.948 . S
C153 C152 1.392 . S
C153 C154 1.419 . S
C154 C153 1.419 . S
C154 C155 1.391 . S
C154 C158 1.397 . S
C155 C150 1.391 . S
C155 C154 1.391 . S
C155 C156 1.399 . S
C156 C155 1.399 . S
C156 C157 1.396 . S
C156 C159 1.453 . S
C156 C160 1.684 . S
C157 C147 1.723 1_565 S
C157 C156 1.396 . S
C157 C158 1.394 . S
C158 C128 1.723 1_565 S
C158 C154 1.397 . S
C158 C157 1.394 . S
C159 H131 0.982 . S
C159 H135 0.979 . S
C159 H136 0.977 . S
C159 C156 1.453 . S
C160 H132 0.979 . S
C160 H133 0.980 . S
C160 H134 0.983 . S
C160 C156 1.684 . S
H161 C179 0.948 . S
H162 C120 0.948 . S
H163 C138 0.979 . S
H164 C138 0.980 . S
H165 C138 0.983 . S
H166 C137 0.982 . S
H167 C137 0.979 . S
H168 C137 0.977 1_565 S
H169 C139 0.948 . S
H170 C141 0.947 . S
H171 C142 0.948 . S
H172 C148 0.982 . S
H173 C148 0.979 . S
H174 C148 0.977 . S
H175 C149 0.979 . S
H176 C149 0.980 . S
H177 C149 0.983 . S
H178 C122 0.947 . S
C179 C122 1.392 . S
C179 C123 1.419 . S
C179 H161 0.948 . S
C180 C181 1.391 . S
C180 C184 1.391 . S
C180 H222 0.948 . S
C181 C180 1.391 . S
C181 C182 1.391 . S
C182 C181 1.391 . S
C182 H238 0.947 . S
C182 C239 1.392 . S
C183 C184 1.391 . S
C183 C187 1.397 . S
C183 C239 1.419 . S
C184 C180 1.391 . S
C184 C183 1.391 . S
C184 C185 1.399 . S
C185 C184 1.399 . S
C185 C188 1.396 . S
C185 C197 1.453 . S
C185 C198 1.684 . S
H186 C210 0.948 . S
C187 C183 1.397 . S
C187 C188 1.394 . S
C187 C206 1.723 . S
C188 C185 1.396 . S
C188 C187 1.394 . S
C188 C218 1.723 . S
H189 C212 0.947 . S
H190 C213 0.948 . S
H191 C219 0.982 . S
H192 C220 0.979 . S
H193 C220 0.980 . S
H194 C220 0.983 . S
H195 C219 0.979 . S
H196 C219 0.977 . S
C197 C185 1.453 . S
C197 H226 0.982 . S
C197 H227 0.979 . S
C197 H228 0.977 . S
C198 C185 1.684 . S
C198 H223 0.979 . S
C198 H224 0.980 . S
C198 H225 0.983 . S
C199 C200 1.391 . S
C199 C204 1.391 . S
C199 H229 0.948 . S
C200 C199 1.391 . S
C200 C201 1.391 . S
C201 C200 1.391 . S
C201 C202 1.392 . S
C201 H230 0.947 . S
C202 C201 1.392 . S
C202 C203 1.419 . S
C202 H231 0.948 . S
C203 C202 1.419 . S
C203 C204 1.391 . S
C203 C207 1.397 . S
C204 C199 1.391 . S
C204 C203 1.391 . S
C204 C205 1.399 . S
C205 C204 1.399 . S
C205 C206 1.396 . S
C205 C208 1.453 . S
C205 C209 1.684 . S
C206 C187 1.723 . S
C206 C205 1.396 . S
C206 C207 1.394 . S
C207 C203 1.397 . S
C207 C206 1.394 . S
C207 C217 1.723 . S
C208 C205 1.453 . S
C208 H232 0.982 . S
C208 H233 0.979 . S
C208 H234 0.977 . S
C209 C205 1.684 . S
C209 H235 0.979 . S
C209 H236 0.980 . S
C209 H237 0.983 . S
C210 H186 0.948 . S
C210 C211 1.391 . S
C210 C215 1.391 . S
C211 C210 1.391 . S
C211 C212 1.391 . S
C212 H189 0.947 . S
C212 C211 1.391 . S
C212 C213 1.392 . S
C213 H190 0.948 . S
C213 C212 1.392 . S
C213 C214 1.419 . S
C214 C213 1.419 . S
C214 C215 1.391 . S
C214 C218 1.397 . S
C215 C210 1.391 . S
C215 C214 1.391 . S
C215 C216 1.399 . S
C216 C215 1.399 . S
C216 C217 1.396 . S
C216 C219 1.453 . S
C216 C220 1.684 . S
C217 C207 1.723 . S
C217 C216 1.396 . S
C217 C218 1.394 . S
C218 C188 1.723 . S
C218 C214 1.397 . S
C218 C217 1.394 . S
C219 H191 0.982 . S
C219 H195 0.979 . S
C219 H196 0.977 . S
C219 C216 1.453 . S
C220 H192 0.979 . S
C220 H193 0.980 . S
C220 H194 0.983 . S
C220 C216 1.684 . S
H221 C239 0.948 . S
H222 C180 0.948 . S
H223 C198 0.979 . S
H224 C198 0.980 . S
H225 C198 0.983 . S
H226 C197 0.982 . S
H227 C197 0.979 . S
H228 C197 0.977 . S
H229 C199 0.948 . S
H230 C201 0.947 . S
H231 C202 0.948 . S
H232 C208 0.982 . S
H233 C208 0.979 . S
H234 C208 0.977 . S
H235 C209 0.979 . S
H236 C209 0.980 . S
H237 C209 0.983 . S
H238 C182 0.947 . S
C239 C182 1.392 . S
C239 C183 1.419 . S
C239 H221 0.948 . S
C240 C241 1.391 . S
C240 C244 1.391 . S
C240 H282 0.948 . S
C241 C240 1.391 . S
C241 C242 1.391 . S
C242 C241 1.391 . S
C242 H298 0.947 . S
C242 C299 1.392 . S
C243 C244 1.391 . S
C243 C247 1.397 . S
C243 C299 1.419 . S
C244 C240 1.391 . S
C244 C243 1.391 . S
C244 C245 1.399 . S
C245 C244 1.399 . S
C245 C248 1.396 . S
C245 C257 1.453 . S
C245 C258 1.684 . S
H246 C270 0.948 . S
C247 C243 1.397 . S
C247 C248 1.394 . S
C247 C266 1.723 . S
C248 C245 1.396 . S
C248 C247 1.394 . S
C248 C278 1.723 . S
H249 C272 0.947 . S
H250 C273 0.948 1_455 S
H251 C279 0.982 . S
H252 C280 0.979 . S
H253 C280 0.980 . S
H254 C280 0.983 . S
H255 C279 0.979 . S
H256 C279 0.977 . S
C257 C245 1.453 . S
C257 H286 0.982 . S
C257 H287 0.979 . S
C257 H288 0.977 . S
C258 C245 1.684 . S
C258 H283 0.979 . S
C258 H284 0.980 . S
C258 H285 0.983 . S
C259 C260 1.416 . S
C259 C264 1.391 . S
C259 H289 0.948 . S
C260 C259 1.416 . S
C260 C261 1.411 . S
C261 C260 1.411 . S
C261 C262 1.392 . S
C261 H290 0.947 1_455 S
C262 C261 1.392 . S
C262 C263 1.419 . S
C262 H291 0.948 1_455 S
C263 C262 1.419 . S
C263 C264 1.391 . S
C263 C267 1.397 . S
C264 C259 1.391 . S
C264 C263 1.391 . S
C264 C265 1.399 . S
C265 C264 1.399 . S
C265 C266 1.396 . S
C265 C268 1.453 . S
C265 C269 1.684 . S
C266 C247 1.723 . S
C266 C265 1.396 . S
C266 C267 1.394 . S
C267 C263 1.397 . S
C267 C266 1.394 . S
C267 C277 1.723 1_455 S
C268 C265 1.453 . S
C268 H292 0.982 . S
C268 H293 0.979 . S
C268 H294 0.977 . S
C269 C265 1.684 . S
C269 H295 0.979 . S
C269 H296 0.980 . S
C269 H297 0.983 . S
C270 H246 0.948 . S
C270 C271 1.391 . S
C270 C275 1.391 . S
C271 C270 1.391 . S
C271 C272 1.391 . S
C272 H249 0.947 . S
C272 C271 1.391 . S
C272 C273 1.392 . S
C273 H250 0.948 1_655 S
C273 C272 1.392 . S
C273 C274 1.419 . S
C274 C273 1.419 . S
C274 C275 1.391 . S
C274 C278 1.397 1_655 S
C275 C270 1.391 . S
C275 C274 1.391 . S
C275 C276 1.399 . S
C276 C275 1.399 . S
C276 C277 1.396 . S
C276 C279 1.453 . S
C276 C280 1.684 . S
C277 C267 1.723 1_655 S
C277 C276 1.396 . S
C277 C278 1.394 1_655 S
C278 C248 1.723 . S
C278 C274 1.397 1_455 S
C278 C277 1.394 1_455 S
C279 H251 0.982 . S
C279 H255 0.979 . S
C279 H256 0.977 . S
C279 C276 1.453 . S
C280 H252 0.979 . S
C280 H253 0.980 . S
C280 H254 0.983 . S
C280 C276 1.684 . S
H281 C299 0.948 . S
H282 C240 0.948 . S
H283 C258 0.979 . S
H284 C258 0.980 . S
H285 C258 0.983 . S
H286 C257 0.982 . S
H287 C257 0.979 . S
H288 C257 0.977 . S
H289 C259 0.948 . S
H290 C261 0.947 1_655 S
H291 C262 0.948 1_655 S
H292 C268 0.982 . S
H293 C268 0.979 . S
H294 C268 0.977 . S
H295 C269 0.979 . S
H296 C269 0.980 . S
H297 C269 0.983 . S
H298 C242 0.947 . S
C299 C242 1.392 . S
C299 C243 1.419 . S
C299 H281 0.948 . S
C300 C301 1.391 . S
C300 C304 1.391 . S
C300 H342 0.948 . S
C301 C300 1.391 . S
C301 C302 1.391 . S
C302 C301 1.391 . S
C302 H358 0.947 . S
C302 C359 1.392 . S
C303 C304 1.391 . S
C303 C307 1.397 . S
C303 C359 1.419 . S
C304 C300 1.391 . S
C304 C303 1.391 . S
C304 C305 1.399 . S
C305 C304 1.399 . S
C305 C308 1.396 . S
C305 C317 1.453 . S
C305 C318 1.684 . S
H306 C330 0.948 . S
C307 C303 1.397 . S
C307 C308 1.394 . S
C307 C326 1.723 . S
C308 C305 1.396 . S
C308 C307 1.394 . S
C308 C338 1.723 1_655 S
H309 C332 0.947 . S
H310 C333 0.948 . S
H311 C339 0.982 . S
H312 C340 0.979 . S
H313 C340 0.980 . S
H314 C340 0.983 . S
H315 C339 0.979 . S
H316 C339 0.977 . S
C317 C305 1.453 . S
C317 H346 0.982 1_655 S
C317 H347 0.979 . S
C317 H348 0.977 1_655 S
C318 C305 1.684 . S
C318 H343 0.979 . S
C318 H344 0.980 . S
C318 H345 0.983 . S
C319 C320 1.391 1_655 S
C319 C324 1.391 . S
C319 H349 0.948 . S
C320 C319 1.391 1_455 S
C320 C321 1.391 . S
C321 C320 1.391 . S
C321 C322 1.392 . S
C321 H350 0.947 . S
C322 C321 1.392 . S
C322 C323 1.419 . S
C322 H351 0.948 . S
C323 C322 1.419 . S
C323 C324 1.391 1_455 S
C323 C327 1.397 . S
C324 C319 1.391 . S
C324 C323 1.391 1_655 S
C324 C325 1.399 . S
C325 C324 1.399 . S
C325 C326 1.396 . S
C325 C328 1.453 . S
C325 C329 1.684 . S
C326 C307 1.723 . S
C326 C325 1.396 . S
C326 C327 1.394 1_655 S
C327 C323 1.397 . S
C327 C326 1.394 1_455 S
C327 C337 1.723 . S
C328 C325 1.453 . S
C328 H352 0.982 . S
C328 H353 0.979 . S
C328 H354 0.977 . S
C329 C325 1.684 . S
C329 H355 0.979 . S
C329 H356 0.980 . S
C329 H357 0.983 . S
C330 H306 0.948 . S
C330 C331 1.391 . S
C330 C335 1.391 . S
C331 C330 1.391 . S
C331 C332 1.391 . S
C332 H309 0.947 . S
C332 C331 1.391 . S
C332 C333 1.392 . S
C333 H310 0.948 . S
C333 C332 1.392 . S
C333 C334 1.419 . S
C334 C333 1.419 . S
C334 C335 1.391 . S
C334 C338 1.397 . S
C335 C330 1.391 . S
C335 C334 1.391 . S
C335 C336 1.399 . S
C336 C335 1.399 . S
C336 C337 1.396 . S
C336 C339 1.453 . S
C336 C340 1.684 . S
C337 C327 1.723 . S
C337 C336 1.396 . S
C337 C338 1.394 . S
C338 C308 1.723 1_455 S
C338 C334 1.397 . S
C338 C337 1.394 . S
C339 H311 0.982 . S
C339 H315 0.979 . S
C339 H316 0.977 . S
C339 C336 1.453 . S
C340 H312 0.979 . S
C340 H313 0.980 . S
C340 H314 0.983 . S
C340 C336 1.684 . S
H341 C359 0.948 . S
H342 C300 0.948 . S
H343 C318 0.979 . S
H344 C318 0.980 . S
H345 C318 0.983 . S
H346 C317 0.982 1_455 S
H347 C317 0.979 . S
H348 C317 0.977 1_455 S
H349 C319 0.948 . S
H350 C321 0.947 . S
H351 C322 0.948 . S
H352 C328 0.982 . S
H353 C328 0.979 . S
H354 C328 0.977 . S
H355 C329 0.979 . S
H356 C329 0.980 . S
H357 C329 0.983 . S
H358 C302 0.947 . S
C359 C302 1.392 . S
C359 C303 1.419 . S
C359 H341 0.948 . S
C360 C361 1.391 . S
C360 C364 1.391 . S
C360 H402 0.948 . S
C361 C360 1.391 . S
C361 C362 1.391 . S
C362 C361 1.391 . S
C362 H418 0.947 . S
C362 C419 1.392 . S
C363 C364 1.391 . S
C363 C367 1.397 . S
C363 C419 1.419 . S
C364 C360 1.391 . S
C364 C363 1.391 . S
C364 C365 1.399 . S
C365 C364 1.399 . S
C365 C368 1.396 . S
C365 C377 1.453 1_565 S
C365 C378 1.684 . S
H366 C390 0.948 . S
C367 C363 1.397 . S
C367 C368 1.394 . S
C367 C386 1.723 . S
C368 C365 1.396 . S
C368 C367 1.394 . S
C368 C398 1.723 1_565 S
H369 C392 0.947 . S
H370 C393 0.948 . S
H371 C399 0.982 . S
H372 C400 0.979 . S
H373 C400 0.980 . S
H374 C400 0.983 . S
H375 C399 0.979 . S
H376 C399 0.977 . S
C377 C365 1.453 1_545 S
C377 H406 0.982 . S
C377 H407 0.979 1_545 S
C377 H408 0.977 . S
C378 C365 1.684 . S
C378 H403 0.979 . S
C378 H404 0.980 . S
C378 H405 0.983 . S
C379 C380 1.391 . S
C379 C384 1.391 . S
C379 H409 0.948 . S
C380 C379 1.391 . S
C380 C381 1.391 1_565 S
C381 C380 1.391 1_545 S
C381 C382 1.392 . S
C381 H410 0.947 . S
C382 C381 1.392 . S
C382 C383 1.419 . S
C382 H411 0.948 . S
C383 C382 1.419 . S
C383 C384 1.391 1_545 S
C383 C387 1.397 . S
C384 C379 1.391 . S
C384 C383 1.391 1_565 S
C384 C385 1.399 . S
C385 C384 1.399 . S
C385 C386 1.396 . S
C385 C388 1.453 . S
C385 C389 1.684 . S
C386 C367 1.723 . S
C386 C385 1.396 . S
C386 C387 1.394 1_565 S
C387 C383 1.397 . S
C387 C386 1.394 1_545 S
C387 C397 1.723 . S
C388 C385 1.453 . S
C388 H412 0.982 . S
C388 H413 0.979 . S
C388 H414 0.977 . S
C389 C385 1.684 . S
C389 H415 0.979 . S
C389 H416 0.980 . S
C389 H417 0.983 . S
C390 H366 0.948 . S
C390 C391 1.391 . S
C390 C395 1.391 . S
C391 C390 1.391 . S
C391 C392 1.391 . S
C392 H369 0.947 . S
C392 C391 1.391 . S
C392 C393 1.392 . S
C393 H370 0.948 . S
C393 C392 1.392 . S
C393 C394 1.419 . S
C394 C393 1.419 . S
C394 C395 1.391 . S
C394 C398 1.397 . S
C395 C390 1.391 . S
C395 C394 1.391 . S
C395 C396 1.399 . S
C396 C395 1.399 . S
C396 C397 1.396 . S
C396 C399 1.453 . S
C396 C400 1.684 . S
C397 C387 1.723 . S
C397 C396 1.396 . S
C397 C398 1.394 . S
C398 C368 1.723 1_545 S
C398 C394 1.397 . S
C398 C397 1.394 . S
C399 H371 0.982 . S
C399 H375 0.979 . S
C399 H376 0.977 . S
C399 C396 1.453 . S
C400 H372 0.979 . S
C400 H373 0.980 . S
C400 H374 0.983 . S
C400 C396 1.684 . S
H401 C419 0.948 . S
H402 C360 0.948 . S
H403 C378 0.979 . S
H404 C378 0.980 . S
H405 C378 0.983 . S
H406 C377 0.982 . S
H407 C377 0.979 1_565 S
H408 C377 0.977 . S
H409 C379 0.948 . S
H410 C381 0.947 . S
H411 C382 0.948 . S
H412 C388 0.982 . S
H413 C388 0.979 . S
H414 C388 0.977 . S
H415 C389 0.979 . S
H416 C389 0.980 . S
H417 C389 0.983 . S
H418 C362 0.947 . S
C419 C362 1.392 . S
C419 C363 1.419 . S
C419 H401 0.948 . S
C420 C421 1.391 . S
C420 C424 1.391 . S
C420 H462 0.948 . S
C421 C420 1.391 . S
C421 C422 1.391 . S
C422 C421 1.391 . S
C422 H478 0.947 . S
C422 C479 1.392 . S
C423 C424 1.391 . S
C423 C427 1.397 . S
C423 C479 1.419 . S
C424 C420 1.391 . S
C424 C423 1.391 . S
C424 C425 1.399 . S
C425 C424 1.399 . S
C425 C428 1.396 . S
C425 C437 1.453 . S
C425 C438 1.684 . S
H426 C450 0.948 . S
C427 C423 1.397 . S
C427 C428 1.394 . S
C427 C446 1.723 . S
C428 C425 1.396 . S
C428 C427 1.394 . S
C428 C458 1.723 . S
H429 C452 0.947 . S
H430 C453 0.948 . S
H431 C459 0.982 . S
H432 C460 0.979 . S
H433 C460 0.980 . S
H434 C460 0.983 . S
H435 C459 0.979 . S
H436 C459 0.977 . S
C437 C425 1.453 . S
C437 H466 0.982 . S
C437 H467 0.979 . S
C437 H468 0.977 . S
C438 C425 1.684 . S
C438 H463 0.979 . S
C438 H464 0.980 . S
C438 H465 0.983 . S
C439 C440 1.391 . S
C439 C444 1.391 1_556 S
C439 H469 0.948 . S
C440 C439 1.391 . S
C440 C441 1.391 . S
C441 C440 1.391 . S
C441 C442 1.392 1_556 S
C441 H470 0.947 . S
C442 C441 1.392 1_554 S
C442 C443 1.419 . S
C442 H471 0.948 . S
C443 C442 1.419 . S
C443 C444 1.391 . S
C443 C447 1.397 . S
C444 C439 1.391 1_554 S
C444 C443 1.391 . S
C444 C445 1.399 . S
C445 C444 1.399 . S
C445 C446 1.396 . S
C445 C448 1.453 . S
C445 C449 1.684 . S
C446 C427 1.723 . S
C446 C445 1.396 . S
C446 C447 1.394 . S
C447 C443 1.397 . S
C447 C446 1.394 . S
C447 C457 1.723 . S
C448 C445 1.453 . S
C448 H472 0.982 . S
C448 H473 0.979 . S
C448 H474 0.977 . S
C449 C445 1.684 . S
C449 H475 0.979 . S
C449 H476 0.980 . S
C449 H477 0.983 . S
C450 H426 0.948 . S
C450 C451 1.391 . S
C450 C455 1.391 . S
C451 C450 1.391 . S
C451 C452 1.391 . S
C452 H429 0.947 . S
C452 C451 1.391 . S
C452 C453 1.392 . S
C453 H430 0.948 . S
C453 C452 1.392 . S
C453 C454 1.419 . S
C454 C453 1.419 . S
C454 C455 1.391 . S
C454 C458 1.397 . S
C455 C450 1.391 . S
C455 C454 1.391 . S
C455 C456 1.399 . S
C456 C455 1.399 . S
C456 C457 1.396 . S
C456 C459 1.453 . S
C456 C460 1.684 . S
C457 C447 1.723 . S
C457 C456 1.396 . S
C457 C458 1.394 . S
C458 C428 1.723 . S
C458 C454 1.397 . S
C458 C457 1.394 . S
C459 H431 0.982 . S
C459 H435 0.979 . S
C459 H436 0.977 . S
C459 C456 1.453 . S
C460 H432 0.979 . S
C460 H433 0.980 . S
C460 H434 0.983 . S
C460 C456 1.684 . S
H461 C479 0.948 . S
H462 C420 0.948 . S
H463 C438 0.979 . S
H464 C438 0.980 . S
H465 C438 0.983 . S
H466 C437 0.982 . S
H467 C437 0.979 . S
H468 C437 0.977 . S
H469 C439 0.948 . S
H470 C441 0.947 . S
H471 C442 0.948 . S
H472 C448 0.982 . S
H473 C448 0.979 . S
H474 C448 0.977 . S
H475 C449 0.979 . S
H476 C449 0.980 . S
H477 C449 0.983 . S
H478 C422 0.947 . S
C479 C422 1.392 . S
C479 C423 1.419 . S
C479 H461 0.948 . S
C480 C481 1.363 . S
C480 C486 1.379 . S
C480 N488 1.356 . S
C481 C480 1.363 . S
C481 C487 1.363 . S
C482 C483 1.363 . S
C482 C487 1.379 . S
C482 N489 1.356 . S
C483 C482 1.363 . S
C483 C486 1.363 . S
N484 C486 1.356 . S
N484 H496 0.984 . S
N484 H497 0.985 . S
N485 C487 1.356 . S
N485 H490 0.984 . S
N485 H491 0.985 . S
C486 C480 1.379 . S
C486 C483 1.363 . S
C486 N484 1.356 . S
C487 C481 1.363 . S
C487 C482 1.379 . S
C487 N485 1.356 . S
N488 C480 1.356 . S
N488 H494 0.984 . S
N488 H495 0.984 . S
N489 C482 1.356 . S
N489 H492 0.984 . S
N489 H493 0.985 . S
H490 N485 0.984 . S
H491 N485 0.985 . S
H492 N489 0.984 . S
H493 N489 0.985 . S
H494 N488 0.984 . S
H495 N488 0.984 . S
H496 N484 0.984 . S
H497 N484 0.985 . S
C498 C499 1.363 . S
C498 C504 1.379 . S
C498 N506 1.356 . S
C499 C498 1.363 . S
C499 C505 1.363 . S
C500 C501 1.363 . S
C500 C505 1.379 . S
C500 N507 1.356 . S
C501 C500 1.363 . S
C501 C504 1.363 . S
N502 C504 1.356 . S
N502 H514 0.984 . S
N502 H515 0.985 . S
N503 C505 1.356 . S
N503 H508 0.984 . S
N503 H509 0.985 . S
C504 C498 1.379 . S
C504 C501 1.363 . S
C504 N502 1.356 . S
C505 C499 1.363 . S
C505 C500 1.379 . S
C505 N503 1.356 . S
N506 C498 1.356 . S
N506 H512 0.984 . S
N506 H513 0.984 . S
N507 C500 1.356 . S
N507 H510 0.984 . S
N507 H511 0.985 . S
H508 N503 0.984 . S
H509 N503 0.985 . S
H510 N507 0.984 . S
H511 N507 0.985 . S
H512 N506 0.984 . S
H513 N506 0.984 . S
H514 N502 0.984 . S
H515 N502 0.985 . S
C516 C517 1.363 . S
C516 C522 1.379 . S
C516 N524 1.356 . S
C517 C516 1.363 . S
C517 C523 1.363 . S
C518 C519 1.363 . S
C518 C523 1.379 . S
C518 N525 1.356 . S
C519 C518 1.363 . S
C519 C522 1.363 . S
N520 C522 1.356 . S
N520 H532 0.984 . S
N520 H533 0.985 . S
N521 C523 1.356 . S
N521 H526 0.984 . S
N521 H527 0.985 . S
C522 C516 1.379 . S
C522 C519 1.363 . S
C522 N520 1.356 . S
C523 C517 1.363 . S
C523 C518 1.379 . S
C523 N521 1.356 . S
N524 C516 1.356 . S
N524 H530 0.984 . S
N524 H531 0.984 . S
N525 C518 1.356 . S
N525 H528 0.984 . S
N525 H529 0.985 . S
H526 N521 0.984 . S
H527 N521 0.985 . S
H528 N525 0.984 . S
H529 N525 0.985 . S
H530 N524 0.984 . S
H531 N524 0.984 . S
H532 N520 0.984 . S
H533 N520 0.985 . S
C534 C535 1.363 . S
C534 C540 1.379 . S
C534 N542 1.356 . S
C535 C534 1.363 . S
C535 C541 1.363 . S
C536 C537 1.363 . S
C536 C541 1.379 . S
C536 N543 1.356 . S
C537 C536 1.363 . S
C537 C540 1.363 . S
N538 C540 1.356 . S
N538 H550 0.984 . S
N538 H551 0.985 . S
N539 C541 1.356 . S
N539 H544 0.984 . S
N539 H545 0.985 . S
C540 C534 1.379 . S
C540 C537 1.363 . S
C540 N538 1.356 . S
C541 C535 1.363 . S
C541 C536 1.379 . S
C541 N539 1.356 . S
N542 C534 1.356 . S
N542 H548 0.984 . S
N542 H549 0.984 . S
N543 C536 1.356 . S
N543 H546 0.984 . S
N543 H547 0.985 . S
H544 N539 0.984 . S
H545 N539 0.985 . S
H546 N543 0.984 . S
H547 N543 0.985 . S
H548 N542 0.984 . S
H549 N542 0.984 . S
H550 N538 0.984 . S
H551 N538 0.985 . S
C552 C553 1.363 . S
C552 C558 1.379 . S
C552 N560 1.356 . S
C553 C552 1.363 . S
C553 C559 1.363 . S
C554 C555 1.363 . S
C554 C559 1.379 . S
C554 N561 1.356 . S
C555 C554 1.363 . S
C555 C558 1.363 . S
N556 C558 1.356 . S
N556 H568 0.984 . S
N556 H569 0.985 . S
N557 C559 1.356 . S
N557 H562 0.984 . S
N557 H563 0.985 . S
C558 C552 1.379 . S
C558 C555 1.363 . S
C558 N556 1.356 . S
C559 C553 1.363 . S
C559 C554 1.379 . S
C559 N557 1.356 . S
N560 C552 1.356 . S
N560 H566 0.984 . S
N560 H567 0.984 . S
N561 C554 1.356 . S
N561 H564 0.984 . S
N561 H565 0.985 . S
H562 N557 0.984 . S
H563 N557 0.985 . S
H564 N561 0.984 . S
H565 N561 0.985 . S
H566 N560 0.984 . S
H567 N560 0.984 . S
H568 N556 0.984 . S
H569 N556 0.985 . S
C570 C571 1.363 . S
C570 C576 1.379 . S
C570 N578 1.356 . S
C571 C570 1.363 . S
C571 C577 1.363 . S
C572 C573 1.363 . S
C572 C577 1.379 . S
C572 N579 1.356 . S
C573 C572 1.363 . S
C573 C576 1.363 . S
N574 C576 1.356 . S
N574 H586 0.984 . S
N574 H587 0.985 . S
N575 C577 1.356 . S
N575 H580 0.984 . S
N575 H581 0.985 . S
C576 C570 1.379 . S
C576 C573 1.363 . S
C576 N574 1.356 . S
C577 C571 1.363 . S
C577 C572 1.379 . S
C577 N575 1.356 . S
N578 C570 1.356 . S
N578 H584 0.984 . S
N578 H585 0.984 . S
N579 C572 1.356 . S
N579 H582 0.984 . S
N579 H583 0.985 . S
H580 N575 0.984 . S
H581 N575 0.985 . S
H582 N579 0.984 . S
H583 N579 0.985 . S
H584 N578 0.984 . S
H585 N578 0.984 . S
H586 N574 0.984 . S
H587 N574 0.985 . S
C588 C589 1.363 . S
C588 C594 1.379 . S
C588 N596 1.356 . S
C589 C588 1.363 . S
C589 C595 1.363 . S
C590 C591 1.363 . S
C590 C595 1.379 . S
C590 N597 1.356 . S
C591 C590 1.363 . S
C591 C594 1.363 . S
N592 C594 1.356 . S
N592 H604 0.984 . S
N592 H605 0.985 . S
N593 C595 1.356 . S
N593 H598 0.984 . S
N593 H599 0.985 . S
C594 C588 1.379 . S
C594 C591 1.363 . S
C594 N592 1.356 . S
C595 C589 1.363 . S
C595 C590 1.379 . S
C595 N593 1.356 . S
N596 C588 1.356 . S
N596 H602 0.984 . S
N596 H603 0.984 . S
N597 C590 1.356 . S
N597 H600 0.984 . S
N597 H601 0.985 . S
H598 N593 0.984 . S
H599 N593 0.985 . S
H600 N597 0.984 . S
H601 N597 0.985 . S
H602 N596 0.984 . S
H603 N596 0.984 . S
H604 N592 0.984 . S
H605 N592 0.985 . S
C606 C607 1.363 . S
C606 C612 1.379 . S
C606 N614 1.356 . S
C607 C606 1.363 . S
C607 C613 1.363 . S
C608 C609 1.363 . S
C608 C613 1.379 . S
C608 N615 1.356 . S
C609 C608 1.363 . S
C609 C612 1.363 . S
N610 C612 1.356 . S
N610 H622 0.984 . S
N610 H623 0.985 . S
N611 C613 1.356 . S
N611 H616 0.984 . S
N611 H617 0.985 . S
C612 C606 1.379 . S
C612 C609 1.363 . S
C612 N610 1.356 . S
C613 C607 1.363 . S
C613 C608 1.379 . S
C613 N611 1.356 . S
N614 C606 1.356 . S
N614 H620 0.984 . S
N614 H621 0.984 . S
N615 C608 1.356 . S
N615 H618 0.984 . S
N615 H619 0.985 . S
H616 N611 0.984 . S
H617 N611 0.985 . S
H618 N615 0.984 . S
H619 N615 0.985 . S
H620 N614 0.984 . S
H621 N614 0.984 . S
H622 N610 0.984 . S
H623 N610 0.985 . S
C624 C625 1.363 . S
C624 C630 1.379 . S
C624 N632 1.356 . S
C625 C624 1.363 . S
C625 C631 1.363 . S
C626 C627 1.363 . S
C626 C631 1.379 . S
C626 N633 1.356 . S
C627 C626 1.363 . S
C627 C630 1.363 . S
N628 C630 1.356 . S
N628 H640 0.984 . S
N628 H641 0.985 . S
N629 C631 1.356 . S
N629 H634 0.984 . S
N629 H635 0.985 . S
C630 C624 1.379 . S
C630 C627 1.363 . S
C630 N628 1.356 . S
C631 C625 1.363 . S
C631 C626 1.379 . S
C631 N629 1.356 . S
N632 C624 1.356 . S
N632 H638 0.984 . S
N632 H639 0.984 . S
N633 C626 1.356 . S
N633 H636 0.984 . S
N633 H637 0.985 . S
H634 N629 0.984 . S
H635 N629 0.985 . S
H636 N633 0.984 . S
H637 N633 0.985 . S
H638 N632 0.984 . S
H639 N632 0.984 . S
H640 N628 0.984 . S
H641 N628 0.985 . S
C642 C643 1.363 . S
C642 C648 1.379 . S
C642 N650 1.356 . S
C643 C642 1.363 . S
C643 C649 1.363 . S
C644 C645 1.363 . S
C644 C649 1.379 . S
C644 N651 1.356 . S
C645 C644 1.363 . S
C645 C648 1.363 . S
N646 C648 1.356 . S
N646 H658 0.984 . S
N646 H659 0.985 . S
N647 C649 1.356 . S
N647 H652 0.984 . S
N647 H653 0.985 . S
C648 C642 1.379 . S
C648 C645 1.363 . S
C648 N646 1.356 . S
C649 C643 1.363 . S
C649 C644 1.379 . S
C649 N647 1.356 . S
N650 C642 1.356 . S
N650 H656 0.984 . S
N650 H657 0.984 . S
N651 C644 1.356 . S
N651 H654 0.984 . S
N651 H655 0.985 . S
H652 N647 0.984 . S
H653 N647 0.985 . S
H654 N651 0.984 . S
H655 N651 0.985 . S
H656 N650 0.984 . S
H657 N650 0.984 . S
H658 N646 0.984 . S
H659 N646 0.985 . S
C660 C661 1.363 . S
C660 C666 1.379 . S
C660 N668 1.356 . S
C661 C660 1.363 . S
C661 C667 1.363 . S
C662 C663 1.363 . S
C662 C667 1.379 . S
C662 N669 1.356 . S
C663 C662 1.363 . S
C663 C666 1.363 . S
N664 C666 1.356 . S
N664 H676 0.984 . S
N664 H677 0.985 . S
N665 C667 1.356 . S
N665 H670 0.984 . S
N665 H671 0.985 . S
C666 C660 1.379 . S
C666 C663 1.363 . S
C666 N664 1.356 . S
C667 C661 1.363 . S
C667 C662 1.379 . S
C667 N665 1.356 . S
N668 C660 1.356 . S
N668 H674 0.984 . S
N668 H675 0.984 . S
N669 C662 1.356 . S
N669 H672 0.984 . S
N669 H673 0.985 . S
H670 N665 0.984 . S
H671 N665 0.985 . S
H672 N669 0.984 . S
H673 N669 0.985 . S
H674 N668 0.984 . S
H675 N668 0.984 . S
H676 N664 0.984 . S
H677 N664 0.985 . S
C678 C679 1.363 . S
C678 C684 1.379 . S
C678 N686 1.356 . S
C679 C678 1.363 . S
C679 C685 1.363 . S
C680 C681 1.363 . S
C680 C685 1.379 . S
C680 N687 1.356 . S
C681 C680 1.363 . S
C681 C684 1.363 . S
N682 C684 1.356 . S
N682 H694 0.984 . S
N682 H695 0.985 . S
N683 C685 1.356 . S
N683 H688 0.984 . S
N683 H689 0.985 . S
C684 C678 1.379 . S
C684 C681 1.363 . S
C684 N682 1.356 . S
C685 C679 1.363 . S
C685 C680 1.379 . S
C685 N683 1.356 . S
N686 C678 1.356 . S
N686 H692 0.984 . S
N686 H693 0.984 . S
N687 C680 1.356 . S
N687 H690 0.984 . S
N687 H691 0.985 . S
H688 N683 0.984 . S
H689 N683 0.985 . S
H690 N687 0.984 . S
H691 N687 0.985 . S
H692 N686 0.984 . S
H693 N686 0.984 . S
H694 N682 0.984 . S
H695 N682 0.985 . S
C696 C697 1.363 . S
C696 C702 1.379 . S
C696 N704 1.356 . S
C697 C696 1.363 . S
C697 C703 1.363 . S
C698 C699 1.363 . S
C698 C703 1.379 . S
C698 N705 1.356 . S
C699 C698 1.363 . S
C699 C702 1.363 . S
N700 C702 1.356 . S
N700 H712 0.984 . S
N700 H713 0.985 . S
N701 C703 1.356 . S
N701 H706 0.984 . S
N701 H707 0.985 . S
C702 C696 1.379 . S
C702 C699 1.363 . S
C702 N700 1.356 . S
C703 C697 1.363 . S
C703 C698 1.379 . S
C703 N701 1.356 . S
N704 C696 1.356 . S
N704 H710 0.984 . S
N704 H711 0.984 . S
N705 C698 1.356 . S
N705 H708 0.984 . S
N705 H709 0.985 . S
H706 N701 0.984 . S
H707 N701 0.985 . S
H708 N705 0.984 . S
H709 N705 0.985 . S
H710 N704 0.984 . S
H711 N704 0.984 . S
H712 N700 0.984 . S
H713 N700 0.985 . S
C714 C715 1.363 1_565 S
C714 C720 1.379 . S
C714 N722 1.356 . S
C715 C714 1.363 1_545 S
C715 C721 1.363 . S
C716 C717 1.363 . S
C716 C721 1.379 . S
C716 N723 1.356 . S
C717 C716 1.363 . S
C717 C720 1.363 1_545 S
N718 C720 1.356 . S
N718 H730 0.984 . S
N718 H731 0.985 . S
N719 C721 1.356 . S
N719 H724 0.984 . S
N719 H725 0.985 . S
C720 C714 1.379 . S
C720 C717 1.363 1_565 S
C720 N718 1.356 . S
C721 C715 1.363 . S
C721 C716 1.379 . S
C721 N719 1.356 . S
N722 C714 1.356 . S
N722 H728 0.984 . S
N722 H729 0.984 . S
N723 C716 1.356 . S
N723 H726 0.984 . S
N723 H727 0.985 . S
H724 N719 0.984 . S
H725 N719 0.985 . S
H726 N723 0.984 . S
H727 N723 0.985 . S
H728 N722 0.984 . S
H729 N722 0.984 . S
H730 N718 0.984 . S
H731 N718 0.985 . S
C732 C733 1.363 . S
C732 C738 1.379 . S
C732 N740 1.356 . S
C733 C732 1.363 . S
C733 C739 1.363 . S
C734 C735 1.363 . S
C734 C739 1.379 . S
C734 N741 1.356 . S
C735 C734 1.363 . S
C735 C738 1.363 . S
N736 C738 1.356 . S
N736 H748 0.984 . S
N736 H749 0.985 . S
N737 C739 1.356 . S
N737 H742 0.984 . S
N737 H743 0.985 . S
C738 C732 1.379 . S
C738 C735 1.363 . S
C738 N736 1.356 . S
C739 C733 1.363 . S
C739 C734 1.379 . S
C739 N737 1.356 . S
N740 C732 1.356 . S
N740 H746 0.984 . S
N740 H747 0.984 . S
N741 C734 1.356 . S
N741 H744 0.984 . S
N741 H745 0.985 . S
H742 N737 0.984 . S
H743 N737 0.985 . S
H744 N741 0.984 . S
H745 N741 0.985 . S
H746 N740 0.984 . S
H747 N740 0.984 . S
H748 N736 0.984 . S
H749 N736 0.985 . S
C750 C751 1.363 1_565 S
C750 C756 1.379 . S
C750 N758 1.356 . S
C751 C750 1.363 1_545 S
C751 C757 1.363 . S
C752 C753 1.363 1_545 S
C752 C757 1.379 . S
C752 N759 1.356 . S
C753 C752 1.363 1_565 S
C753 C756 1.363 . S
N754 C756 1.356 . S
N754 H766 0.984 . S
N754 H767 0.985 . S
N755 C757 1.356 . S
N755 H760 0.984 . S
N755 H761 0.985 . S
C756 C750 1.379 . S
C756 C753 1.363 . S
C756 N754 1.356 . S
C757 C751 1.363 . S
C757 C752 1.379 . S
C757 N755 1.356 . S
N758 C750 1.356 . S
N758 H764 0.984 . S
N758 H765 0.984 . S
N759 C752 1.356 . S
N759 H762 0.984 . S
N759 H763 0.985 . S
H760 N755 0.984 . S
H761 N755 0.985 . S
H762 N759 0.984 . S
H763 N759 0.985 . S
H764 N758 0.984 . S
H765 N758 0.984 . S
H766 N754 0.984 . S
H767 N754 0.985 . S
C768 C769 1.363 . S
C768 C774 1.379 . S
C768 N776 1.356 . S
C769 C768 1.363 . S
C769 C775 1.363 . S
C770 C771 1.363 . S
C770 C775 1.379 . S
C770 N777 1.356 . S
C771 C770 1.363 . S
C771 C774 1.363 . S
N772 C774 1.356 . S
N772 H784 0.984 . S
N772 H785 0.985 . S
N773 C775 1.356 . S
N773 H778 0.984 . S
N773 H779 0.985 . S
C774 C768 1.379 . S
C774 C771 1.363 . S
C774 N772 1.356 . S
C775 C769 1.363 . S
C775 C770 1.379 . S
C775 N773 1.356 . S
N776 C768 1.356 . S
N776 H782 0.984 . S
N776 H783 0.984 . S
N777 C770 1.356 . S
N777 H780 0.984 . S
N777 H781 0.985 . S
H778 N773 0.984 . S
H779 N773 0.985 . S
H780 N777 0.984 . S
H781 N777 0.985 . S
H782 N776 0.984 . S
H783 N776 0.984 . S
H784 N772 0.984 . S
H785 N772 0.985 . S
C786 C787 1.363 . S
C786 C792 1.379 . S
C786 N794 1.356 . S
C787 C786 1.363 . S
C787 C793 1.363 1_455 S
C788 C789 1.363 1_655 S
C788 C793 1.379 . S
C788 N795 1.356 . S
C789 C788 1.363 1_455 S
C789 C792 1.363 . S
N790 C792 1.356 . S
N790 H802 0.984 . S
N790 H803 0.985 . S
N791 C793 1.356 . S
N791 H796 0.984 . S
N791 H797 0.985 . S
C792 C786 1.379 . S
C792 C789 1.363 . S
C792 N790 1.356 . S
C793 C787 1.363 1_655 S
C793 C788 1.379 . S
C793 N791 1.356 . S
N794 C786 1.356 . S
N794 H800 0.984 . S
N794 H801 0.984 . S
N795 C788 1.356 . S
N795 H798 0.984 . S
N795 H799 0.985 . S
H796 N791 0.984 . S
H797 N791 0.985 . S
H798 N795 0.984 . S
H799 N795 0.985 . S
H800 N794 0.984 . S
H801 N794 0.984 . S
H802 N790 0.984 . S
H803 N790 0.985 . S
C481 C6 0.908 . S
C483 C451 0.986 . S
C499 C59 2.021 . S
C501 C301 1.843 . S
C517 C86 1.363 . S
C519 C361 1.393 . S
C535 C15 0.668 . S
C537 C421 0.602 . S
C555 C331 2.132 . S
C553 C50 2.158 . S
C573 C391 1.390 . S
C571 C95 1.365 . S
C589 C46 1.296 . S
C591 C181 1.285 . S
C607 C99 3.179 . S
C609 C271 3.172 . S
C625 C10 2.189 . S
C627 C151 2.192 . S
C645 C211 1.391 . S
C643 C55 1.355 . S
C663 C241 2.933 . S
C661 C90 3.117 . S
C679 C19 2.020 . S
C681 C121 1.851 . S
C699 C260 1.725 1_554 S
C697 C18 1.723 . S
C715 C49 1.324 . S
C717 C140 1.338 . S
C733 C98 1.452 . S
C735 C200 1.474 . S
C753 C380 1.459 . S
C751 C58 1.443 . S
C771 C440 1.075 . S
C769 C89 1.076 . S
C787 C9 1.316 . S
C789 C320 1.326 . S
