# Generated by pormake.
# Topology sqc, (4,8)-cn, num edge types: 1
# Building blocks:
#     Node 0, Type 0, BuildingBlock: MUDLON_clean_linker_0, # of connection points: 4
#     Node 1, Type 0, BuildingBlock: MUDLON_clean_linker_0, # of connection points: 4
#     Node 2, Type 0, BuildingBlock: MUDLON_clean_linker_0, # of connection points: 4
#     Node 3, Type 0, BuildingBlock: MUDLON_clean_linker_0, # of connection points: 4
#     Node 4, Type 0, BuildingBlock: MUDLON_clean_linker_0, # of connection points: 4
#     Node 5, Type 0, BuildingBlock: MUDLON_clean_linker_0, # of connection points: 4
#     Node 6, Type 0, BuildingBlock: MUDLON_clean_linker_0, # of connection points: 4
#     Node 7, Type 0, BuildingBlock: MUDLON_clean_linker_0, # of connection points: 4
#     Node 8, Type 1, BuildingBlock: VETTIZ_charged_sbu_0, # of connection points: 8
#     Node 9, Type 1, BuildingBlock: VETTIZ_charged_sbu_0, # of connection points: 8
#     Node 10, Type 1, BuildingBlock: VETTIZ_charged_sbu_0, # of connection points: 8
#     Node 11, Type 1, BuildingBlock: VETTIZ_charged_sbu_0, # of connection points: 8
#     Edge 12, Type (0, 1), BuildingBlock: EZIPEK_clean_linker_0, # of connection points: 2
#     Edge 13, Type (0, 1), BuildingBlock: EZIPEK_clean_linker_0, # of connection points: 2
#     Edge 14, Type (0, 1), BuildingBlock: EZIPEK_clean_linker_0, # of connection points: 2
#     Edge 15, Type (0, 1), BuildingBlock: EZIPEK_clean_linker_0, # of connection points: 2
#     Edge 16, Type (0, 1), BuildingBlock: EZIPEK_clean_linker_0, # of connection points: 2
#     Edge 17, Type (0, 1), BuildingBlock: EZIPEK_clean_linker_0, # of connection points: 2
#     Edge 18, Type (0, 1), BuildingBlock: EZIPEK_clean_linker_0, # of connection points: 2
#     Edge 19, Type (0, 1), BuildingBlock: EZIPEK_clean_linker_0, # of connection points: 2
#     Edge 20, Type (0, 1), BuildingBlock: EZIPEK_clean_linker_0, # of connection points: 2
#     Edge 21, Type (0, 1), BuildingBlock: EZIPEK_clean_linker_0, # of connection points: 2
#     Edge 22, Type (0, 1), BuildingBlock: EZIPEK_clean_linker_0, # of connection points: 2
#     Edge 23, Type (0, 1), BuildingBlock: EZIPEK_clean_linker_0, # of connection points: 2
#     Edge 24, Type (0, 1), BuildingBlock: EZIPEK_clean_linker_0, # of connection points: 2
#     Edge 25, Type (0, 1), BuildingBlock: EZIPEK_clean_linker_0, # of connection points: 2
#     Edge 26, Type (0, 1), BuildingBlock: EZIPEK_clean_linker_0, # of connection points: 2
#     Edge 27, Type (0, 1), BuildingBlock: EZIPEK_clean_linker_0, # of connection points: 2
#     Edge 28, Type (0, 1), BuildingBlock: EZIPEK_clean_linker_0, # of connection points: 2
#     Edge 29, Type (0, 1), BuildingBlock: EZIPEK_clean_linker_0, # of connection points: 2
#     Edge 30, Type (0, 1), BuildingBlock: EZIPEK_clean_linker_0, # of connection points: 2
#     Edge 31, Type (0, 1), BuildingBlock: EZIPEK_clean_linker_0, # of connection points: 2
#     Edge 32, Type (0, 1), BuildingBlock: EZIPEK_clean_linker_0, # of connection points: 2
#     Edge 33, Type (0, 1), BuildingBlock: EZIPEK_clean_linker_0, # of connection points: 2
#     Edge 34, Type (0, 1), BuildingBlock: EZIPEK_clean_linker_0, # of connection points: 2
#     Edge 35, Type (0, 1), BuildingBlock: EZIPEK_clean_linker_0, # of connection points: 2
#     Edge 36, Type (0, 1), BuildingBlock: EZIPEK_clean_linker_0, # of connection points: 2
#     Edge 37, Type (0, 1), BuildingBlock: EZIPEK_clean_linker_0, # of connection points: 2
#     Edge 38, Type (0, 1), BuildingBlock: EZIPEK_clean_linker_0, # of connection points: 2
#     Edge 39, Type (0, 1), BuildingBlock: EZIPEK_clean_linker_0, # of connection points: 2
#     Edge 40, Type (0, 1), BuildingBlock: EZIPEK_clean_linker_0, # of connection points: 2
#     Edge 41, Type (0, 1), BuildingBlock: EZIPEK_clean_linker_0, # of connection points: 2
#     Edge 42, Type (0, 1), BuildingBlock: EZIPEK_clean_linker_0, # of connection points: 2
#     Edge 43, Type (0, 1), BuildingBlock: EZIPEK_clean_linker_0, # of connection points: 2
# Relax obj value: 0.166
# Max RMSD: 0.289
# Mean RMSD: 0.211
data_MOF--net-sqc--node1-VETTIZ_charged_sbu_0--node2-MUDLON_clean_linker_0--edge1-EZIPEK_clean_linker_0
_symmetry_space_group_name_H-M    P1
_symmetry_Int_Tables_number       1
_symmetry_cell_setting            triclinic
loop_
_symmetry_equiv_pos_as_xyz
'x, y, z'
_cell_length_a     25.904158
_cell_length_b     25.961165
_cell_length_c     70.749728
_cell_angle_alpha  89.992774
_cell_angle_beta   90.002911
_cell_angle_gamma 89.825344
loop_
_atom_site_label
_atom_site_type_symbol
_atom_site_fract_x
_atom_site_fract_y
_atom_site_fract_z
_atom_type_partial_charge
H0 H 0.75574 0.96905 0.5723 0.0
N1 N 0.81059 0.99129 0.54166 0.0
H2 H 0.70311 0.02808 0.59152 0.0
H3 H 0.79843 0.0949 0.53589 0.0
H4 H 0.74316 0.15341 0.55433 0.0
H5 H 0.78429 0.0448 0.50956 0.0
H6 H 0.73209 0.0125 0.48333 0.0
H7 H 0.78196 0.89439 0.53538 0.0
H8 H 0.72978 0.86183 0.50887 0.0
H9 H 0.87208 0.95615 0.5688 0.0
H10 H 0.87409 0.04062 0.51643 0.0
H11 H 0.96555 0.96538 0.57153 0.0
H12 H 0.9677 0.04726 0.51826 0.0
H13 H 0.24027 0.96139 0.57447 0.0
H14 H 0.30104 0.98991 0.59907 0.0
H15 H 0.27832 0.14753 0.58161 0.0
H16 H 0.21943 0.11868 0.55658 0.0
H17 H 0.24522 0.06024 0.51701 0.0
H18 H 0.29991 0.01301 0.49437 0.0
H19 H 0.26698 0.87105 0.52353 0.0
H20 H 0.2124 0.91814 0.54607 0.0
H21 H 0.13872 0.94556 0.56234 0.0
H22 H 0.04488 0.9378 0.56051 0.0
H23 H 0.0369 0.0864 0.5329 0.0
N24 N 0.19721 0.02218 0.54714 0.0
H25 H 0.13105 0.09147 0.53366 0.0
C26 C 0.78045 0.02734 0.55259 0.0
C27 C 0.75331 0.00931 0.56838 0.0
C28 C 0.72319 0.04288 0.57925 0.0
C29 C 0.71891 0.09514 0.57432 0.0
C30 C 0.74572 0.11322 0.55835 0.0
C31 C 0.77698 0.07979 0.54776 0.0
C32 C 0.78693 0.97196 0.52459 0.0
C33 C 0.77368 1.00462 0.50946 0.0
C34 C 0.74402 0.98615 0.49438 0.0
C35 C 0.72733 0.93477 0.49414 0.0
C36 C 0.74276 0.90145 0.50872 0.0
C37 C 0.77231 0.92 0.52382 0.0
C38 C 0.86599 0.997 0.54236 0.0
C39 C 0.89292 0.97616 0.55776 0.0
C40 C 0.94656 0.98116 0.55918 0.0
C41 C 0.97495 0.00678 0.54506 0.0
C42 C 0.94758 0.0279 0.52961 0.0
C43 C 0.89371 0.02359 0.52838 0.0
C44 C 0.22554 0.03809 0.56364 0.0
C45 C 0.2479 1.00207 0.57608 0.0
C46 C 0.28253 0.01831 0.59011 0.0
C47 C 0.29419 0.07086 0.59218 0.0
C48 C 0.26982 0.10684 0.5803 0.0
C49 C 0.23605 0.09053 0.56612 0.0
C50 C 0.2247 0.99278 0.53313 0.0
C51 C 0.24922 0.01885 0.51831 0.0
C52 C 0.28031 0.99204 0.50548 0.0
C53 C 0.2873 0.93868 0.50735 0.0
C54 C 0.26179 0.91222 0.52188 0.0
C55 C 0.23063 0.9391 0.5347 0.0
C56 C 0.14178 0.01878 0.54786 0.0
C57 C 0.11668 0.97613 0.55576 0.0
C58 C 0.06272 0.97217 0.55488 0.0
C59 C 0.0326 0.01131 0.5464 0.0
C60 C 0.05829 0.05475 0.53909 0.0
C61 C 0.11217 0.05814 0.5397 0.0
H62 H 0.31297 0.50668 0.82077 0.0
N63 N 0.297 0.58761 0.79832 0.0
H64 H 0.24984 0.46162 0.84071 0.0
H65 H 0.19249 0.6084 0.80098 0.0
H66 H 0.13053 0.56539 0.8216 0.0
H67 H 0.24146 0.5405 0.77025 0.0
H68 H 0.27734 0.49133 0.74344 0.0
H69 H 0.39559 0.57697 0.78869 0.0
H70 H 0.43143 0.52916 0.76171 0.0
H71 H 0.34569 0.65487 0.82029 0.0
H72 H 0.24066 0.64473 0.77332 0.0
H73 H 0.34064 0.74892 0.81922 0.0
H74 H 0.23271 0.73849 0.77269 0.0
H75 H 0.31581 0.00614 0.82276 0.0
H76 H 0.29322 0.06309 0.84937 0.0
H77 H 0.13258 0.05329 0.83384 0.0
H78 H 0.15521 0.99693 0.80721 0.0
H79 H 0.20653 0.03503 0.7706 0.0
H80 H 0.25053 0.09787 0.75026 0.0
H81 H 0.39775 0.046 0.77155 0.0
H82 H 0.35355 0.98291 0.79192 0.0
H83 H 0.27321 0.91023 0.82648 0.0
H84 H 0.2864 0.81803 0.82634 0.0
H85 H 0.27242 0.81636 0.76546 0.0
N86 N 0.24909 0.97153 0.79553 0.0
H87 H 0.25603 0.90873 0.76573 0.0
C88 C 0.25812 0.56125 0.80942 0.0
C89 C 0.27313 0.51944 0.82076 0.0
C90 C 0.2372 0.49395 0.83218 0.0
C91 C 0.18545 0.51029 0.83275 0.0
C92 C 0.17024 0.55217 0.82144 0.0
C93 C 0.20591 0.57684 0.80964 0.0
C94 C 0.31608 0.56158 0.78166 0.0
C95 C 0.2829 0.53839 0.76842 0.0
C96 C 0.30333 0.51072 0.75307 0.0
C97 C 0.35708 0.50661 0.75058 0.0
C98 C 0.38992 0.53193 0.76332 0.0
C99 C 0.36956 0.55891 0.77873 0.0
C100 C 0.29336 0.64296 0.79703 0.0
C101 C 0.32126 0.67316 0.80982 0.0
C102 C 0.31793 0.72693 0.80925 0.0
C103 C 0.28597 0.75179 0.79594 0.0
C104 C 0.25839 0.72113 0.78296 0.0
C105 C 0.26244 0.66735 0.78338 0.0
C106 C 0.23691 0.99746 0.813 0.0
C107 C 0.27571 0.01572 0.82524 0.0
C108 C 0.26294 0.04815 0.84036 0.0
C109 C 0.21138 0.06271 0.84333 0.0
C110 C 0.17261 0.0426 0.83165 0.0
C111 C 0.18535 0.01032 0.81659 0.0
C112 C 0.27674 1.00424 0.78258 0.0
C113 C 0.24829 0.03687 0.7707 0.0
C114 C 0.27325 0.07281 0.75927 0.0
C115 C 0.32718 0.07661 0.75957 0.0
C116 C 0.35602 0.04361 0.77127 0.0
C117 C 0.33094 0.00759 0.78275 0.0
C118 C 0.26403 0.91756 0.79598 0.0
C119 C 0.27346 0.89074 0.81298 0.0
C120 C 0.28134 0.83736 0.81291 0.0
C121 C 0.28042 0.80919 0.79589 0.0
C122 C 0.27247 0.83624 0.77891 0.0
C123 C 0.26384 0.88943 0.77901 0.0
H124 H 0.7154 0.05781 0.07485 0.0
N125 N 0.68965 0.04826 0.03863 0.0
H126 H 0.77583 1.00398 0.0931 0.0
H127 H 0.7395 0.9617 0.02598 0.0
H128 H 0.80044 0.90809 0.04416 0.0
H129 H 0.75234 0.12892 0.03846 0.0
H130 H 0.7988 0.16578 0.01142 0.0
H131 H 0.68057 0.01841 1.00137 0.0
H132 H 0.72537 0.05658 0.9743 0.0
H133 H 0.61407 0.10796 0.05164 0.0
H134 H 0.64225 0.96234 0.02443 0.0
H135 H 0.52117 0.09211 0.05077 0.0
H136 H 0.54954 0.94732 0.02225 0.0
H137 H 0.2912 0.04097 0.06242 0.0
H138 H 0.23653 0.01984 0.08986 0.0
H139 H 0.2122 0.86757 0.06721 0.0
H140 H 0.26447 0.88971 0.03946 0.0
H141 H 0.26281 0.07543 0.03367 0.0
H142 H 0.20015 0.11209 0.0115 0.0
H143 H 0.21573 0.97858 0.97575 0.0
H144 H 0.27841 0.94126 0.99819 0.0
H145 H 0.35542 0.07414 0.03081 0.0
H146 H 0.448 0.08977 0.03218 0.0
H147 H 0.47508 0.92604 0.03814 0.0
N148 N 0.30729 0.97966 0.03148 0.0
H149 H 0.3825 0.91089 0.03546 0.0
C150 C 0.72259 0.01362 0.04917 0.0
C151 C 0.73348 0.02491 0.06813 0.0
C152 C 0.76821 0.99455 0.07845 0.0
C153 C 0.79291 0.95229 0.06995 0.0
C154 C 0.78199 0.9407 0.05095 0.0
C155 C 0.74693 0.97099 0.04064 0.0
C156 C 0.71268 0.07123 0.02206 0.0
C157 C 0.74594 0.11321 0.02448 0.0
C158 C 0.77234 0.13418 0.00908 0.0
C159 C 0.76564 0.11378 0.99088 0.0
C160 C 0.73109 0.07279 0.98825 0.0
C161 C 0.70538 0.05112 1.00375 0.0
C162 C 0.63512 0.0367 0.03802 0.0
C163 C 0.60001 0.07269 0.04533 0.0
C164 C 0.54675 0.06368 0.04461 0.0
C165 C 0.52704 0.0185 0.03629 0.0
C166 C 0.56268 0.98225 0.02904 0.0
C167 C 0.61604 0.99098 0.03007 0.0
C168 C 0.28124 0.96688 0.04883 0.0
C169 C 0.274 1.00314 0.06338 0.0
C170 C 0.24311 0.99105 0.07904 0.0
C171 C 0.2204 0.94211 0.08056 0.0
C172 C 0.22939 0.9055 0.06632 0.0
C173 C 0.25928 0.91793 0.05057 0.0
C174 C 0.27576 0.0055 0.01753 0.0
C175 C 0.25342 0.05407 0.02103 0.0
C176 C 0.21731 0.07491 0.00844 0.0
C177 C 0.20292 0.04771 0.99215 0.0
C178 C 0.2261 0.99991 0.98834 0.0
C179 C 0.2621 0.97894 1.001 0.0
C180 C 0.3618 0.99104 0.03272 0.0
C181 C 0.38116 0.04155 0.03222 0.0
C182 C 0.43454 0.05046 0.03323 0.0
C183 C 0.46985 0.00922 0.03521 0.0
C184 C 0.44985 0.95888 0.03614 0.0
C185 C 0.3967 0.95005 0.03479 0.0
H186 H 0.20919 0.49951 0.32146 0.0
N187 N 0.26564 0.46094 0.29212 0.0
H188 H 0.24177 0.55559 0.34695 0.0
H189 H 0.36329 0.48503 0.29922 0.0
H190 H 0.39608 0.54017 0.32475 0.0
H191 H 0.30228 0.51415 0.26299 0.0
H192 H 0.2536 0.57013 0.24124 0.0
H193 H 0.16093 0.47496 0.29164 0.0
H194 H 0.11215 0.52975 0.26962 0.0
H195 H 0.18961 0.4054 0.30933 0.0
H196 H 0.32985 0.39216 0.27713 0.0
H197 H 0.17878 0.31208 0.30833 0.0
H198 H 0.3221 0.29844 0.27724 0.0
H199 H 0.19139 0.02233 0.31974 0.0
H200 H 0.24567 0.96511 0.33915 0.0
H201 H 0.3756 0.99705 0.30291 0.0
H202 H 0.32234 0.0573 0.28454 0.0
H203 H 0.27435 0.04793 0.2578 0.0
H204 H 0.2426 0.9968 0.23133 0.0
H205 H 0.08962 0.99896 0.25523 0.0
H206 H 0.12157 0.05056 0.282 0.0
H207 H 0.19129 0.13967 0.31696 0.0
H208 H 0.20474 0.23252 0.31902 0.0
H209 H 0.2798 0.22939 0.2644 0.0
N210 N 0.2191 0.07596 0.28935 0.0
H211 H 0.26944 0.13661 0.26323 0.0
C212 C 0.28407 0.48808 0.30852 0.0
C213 C 0.25006 0.50766 0.32227 0.0
C214 C 0.26858 0.53969 0.33674 0.0
C215 C 0.32134 0.55201 0.33771 0.0
C216 C 0.3553 0.53107 0.32427 0.0
C217 C 0.33676 0.49949 0.30981 0.0
C218 C 0.23532 0.48996 0.27876 0.0
C219 C 0.26074 0.51705 0.26439 0.0
C220 C 0.23309 0.54897 0.25208 0.0
C221 C 0.1794 0.55404 0.25389 0.0
C222 C 0.15359 0.52619 0.26802 0.0
C223 C 0.18142 0.49472 0.28051 0.0
C224 C 0.26003 0.40575 0.29293 0.0
C225 C 0.21819 0.38229 0.30208 0.0
C226 C 0.21258 0.32854 0.30171 0.0
C227 C 0.24935 0.29688 0.29257 0.0
C228 C 0.29209 0.32094 0.28398 0.0
C229 C 0.29702 0.37463 0.28406 0.0
C230 C 0.25254 0.04364 0.30061 0.0
C231 C 0.23168 0.01719 0.3161 0.0
C232 C 0.26248 0.98428 0.32703 0.0
C233 C 0.31463 0.97625 0.32239 0.0
C234 C 0.33539 1.00225 0.30667 0.0
C235 C 0.30494 0.03648 0.29612 0.0
C236 C 0.20026 0.05317 0.27205 0.0
C237 C 0.23377 0.03874 0.25728 0.0
C238 C 0.21562 0.00966 0.24205 0.0
C239 C 0.16377 0.9944 0.24129 0.0
C240 C 0.12964 0.01092 0.25547 0.0
C241 C 0.14785 0.04012 0.27072 0.0
C242 C 0.22862 0.13084 0.28991 0.0
C243 C 0.21095 0.15916 0.30551 0.0
C244 C 0.21827 0.21252 0.30654 0.0
C245 C 0.243 0.23936 0.2918 0.0
C246 C 0.26124 0.21058 0.27622 0.0
C247 C 0.25475 0.15701 0.2754 0.0
H248 H 0.79979 0.04323 0.32206 0.0
N249 N 0.74694 0.07657 0.29099 0.0
H250 H 0.76563 0.98749 0.34731 0.0
H251 H 0.64939 0.04853 0.29618 0.0
H252 H 0.61477 0.9942 0.32163 0.0
H253 H 0.71302 0.03177 0.25958 0.0
H254 H 0.76132 0.97378 0.23843 0.0
H255 H 0.84956 0.05256 0.29349 0.0
H256 H 0.8979 0.99492 0.27232 0.0
H257 H 0.8259 0.13225 0.30619 0.0
H258 H 0.68027 0.14536 0.27735 0.0
H259 H 0.8358 0.2257 0.30533 0.0
H260 H 0.68769 0.23923 0.27745 0.0
H261 H 0.81965 0.52181 0.31858 0.0
H262 H 0.76553 0.57827 0.33835 0.0
H263 H 0.63108 0.53131 0.30683 0.0
H264 H 0.68471 0.47196 0.28817 0.0
H265 H 0.73052 0.51452 0.26372 0.0
H266 H 0.76306 0.56847 0.23832 0.0
H267 H 0.91774 0.51438 0.2493 0.0
H268 H 0.8855 0.46334 0.27612 0.0
H269 H 0.82105 0.39676 0.31647 0.0
H270 H 0.80911 0.30361 0.31765 0.0
H271 H 0.72805 0.31016 0.26422 0.0
N272 N 0.78964 0.46225 0.28997 0.0
H273 H 0.73765 0.40385 0.26392 0.0
C274 C 0.72693 0.04993 0.30725 0.0
C275 C 0.75933 0.03306 0.32197 0.0
C276 C 0.73989 1.00126 0.33634 0.0
C277 C 0.68765 0.98665 0.33633 0.0
C278 C 0.65514 0.00498 0.32192 0.0
C279 C 0.67469 0.03616 0.3075 0.0
C280 C 0.77767 0.04686 0.27796 0.0
C281 C 0.75353 0.02441 0.26227 0.0
C282 C 0.78093 0.99128 0.25032 0.0
C283 C 0.83306 0.98014 0.25386 0.0
C284 C 0.85769 1.00321 0.26937 0.0
C285 C 0.83014 0.03628 0.28138 0.0
C286 C 0.75262 0.1318 0.29157 0.0
C287 C 0.79591 0.15533 0.29972 0.0
C288 C 0.8011 0.20914 0.29941 0.0
C289 C 0.76261 0.24082 0.29126 0.0
C290 C 0.71881 0.21669 0.28348 0.0
C291 C 0.71413 0.16292 0.28356 0.0
C292 C 0.75633 0.49298 0.30188 0.0
C293 C 0.77841 0.52333 0.31613 0.0
C294 C 0.74767 0.55585 0.32723 0.0
C295 C 0.69429 0.55962 0.32394 0.0
C296 C 0.6722 0.52938 0.30956 0.0
C297 C 0.70271 0.49545 0.29894 0.0
C298 C 0.80591 0.486 0.27244 0.0
C299 C 0.77145 0.51401 0.26091 0.0
C300 C 0.78998 0.54464 0.24616 0.0
C301 C 0.84298 0.54619 0.24204 0.0
C302 C 0.87676 0.51427 0.25234 0.0
C303 C 0.85842 0.48509 0.26759 0.0
C304 C 0.78082 0.40727 0.29007 0.0
C305 C 0.80047 0.37794 0.30508 0.0
C306 C 0.794 0.32445 0.3056 0.0
C307 C 0.76809 0.29849 0.29092 0.0
C308 C 0.74774 0.32832 0.27594 0.0
C309 C 0.75358 0.38211 0.27561 0.0
H310 H 0.72768 0.9707 0.82096 0.0
N311 N 0.76575 0.94619 0.78587 0.0
H312 H 0.77363 0.01594 0.84622 0.0
H313 H 0.85997 0.98676 0.78455 0.0
H314 H 0.90456 0.0359 0.80932 0.0
H315 H 0.79775 0.98913 0.75378 0.0
H316 H 0.74683 0.04053 0.73126 0.0
H317 H 0.6628 0.96938 0.78858 0.0
H318 H 0.61118 0.0182 0.76559 0.0
H319 H 0.68998 0.90238 0.80761 0.0
H320 H 0.81658 0.86769 0.77021 0.0
H321 H 0.67527 0.81121 0.81259 0.0
H322 H 0.80043 0.77539 0.77429 0.0
H323 H 0.79115 0.52408 0.80273 0.0
H324 H 0.83596 0.46981 0.82564 0.0
H325 H 0.71571 0.49814 0.86646 0.0
H326 H 0.67001 0.55275 0.84328 0.0
H327 H 0.75051 0.55392 0.77466 0.0
H328 H 0.73017 0.49015 0.75012 0.0
H329 H 0.58963 0.4513 0.77941 0.0
H330 H 0.61096 0.51379 0.80435 0.0
H331 H 0.62775 0.64534 0.80474 0.0
H332 H 0.64334 0.73648 0.79849 0.0
H333 H 0.80734 0.7059 0.79562 0.0
N334 N 0.69618 0.56965 0.8074 0.0
H335 H 0.79099 0.61475 0.80089 0.0
C336 C 0.79084 0.97424 0.8009 0.0
C337 C 0.76665 0.98348 0.81838 0.0
C338 C 0.79279 0.00978 0.8328 0.0
C339 C 0.84267 0.02944 0.82973 0.0
C340 C 0.8663 0.02098 0.81211 0.0
C341 C 0.84084 0.99321 0.79795 0.0
C342 C 0.73418 0.97502 0.77278 0.0
C343 C 0.75704 0.99537 0.75643 0.0
C344 C 0.72796 0.02441 0.74356 0.0
C345 C 0.67505 0.03303 0.74663 0.0
C346 C 0.65185 0.01186 0.76286 0.0
C347 C 0.68132 0.98382 0.77598 0.0
C348 C 0.75494 0.89217 0.78864 0.0
C349 C 0.71468 0.87527 0.80038 0.0
C350 C 0.70585 0.82262 0.80305 0.0
C351 C 0.73652 0.7854 0.79384 0.0
C352 C 0.77647 0.80261 0.7819 0.0
C353 C 0.78557 0.85537 0.77941 0.0
C354 C 0.72705 0.54298 0.82132 0.0
C355 C 0.77441 0.51949 0.8166 0.0
C356 C 0.79992 0.4881 0.82963 0.0
C357 C 0.77874 0.47964 0.84758 0.0
C358 C 0.73234 0.50407 0.85258 0.0
C359 C 0.70664 0.53543 0.83948 0.0
C360 C 0.68216 0.53835 0.79139 0.0
C361 C 0.71525 0.53192 0.77579 0.0
C362 C 0.70379 0.49551 0.76184 0.0
C363 C 0.6587 0.46584 0.76313 0.0
C364 C 0.62472 0.47369 0.77828 0.0
C365 C 0.63661 0.50945 0.79236 0.0
C366 C 0.7079 0.62307 0.80358 0.0
C367 C 0.66702 0.65842 0.80271 0.0
C368 C 0.67616 0.71066 0.79928 0.0
C369 C 0.72677 0.72911 0.79675 0.0
C370 C 0.7678 0.69334 0.79732 0.0
C371 C 0.7585 0.64088 0.80055 0.0
H372 H 0.26433 0.41489 0.03623 0.0
N373 N 0.32628 0.49608 0.03714 0.0
H374 H 0.21765 0.37997 0.00889 0.0
H375 H 0.33389 0.52982 1.00045 0.0
H376 H 0.28834 0.49387 0.97295 0.0
H377 H 0.30864 0.49035 0.07414 0.0
H378 H 0.24889 0.54318 0.09306 0.0
H379 H 0.27002 0.57908 0.0246 0.0
H380 H 0.20916 0.63086 0.04336 0.0
H381 H 0.37142 0.58946 0.0297 0.0
H382 H 0.40369 0.42963 0.04104 0.0
H383 H 0.46384 0.60712 0.02789 0.0
H384 H 0.49621 0.44602 0.03828 0.0
H385 H 0.76936 0.62259 0.00555 0.0
H386 H 0.83316 0.58347 0.98406 0.0
H387 H 0.78027 0.4324 1.00012 0.0
H388 H 0.71649 0.47146 0.02152 0.0
H389 H 0.75538 0.50403 0.05194 0.0
H390 H 0.81034 0.52412 0.07916 0.0
H391 H 0.76996 0.68473 0.07398 0.0
H392 H 0.71579 0.66479 0.04642 0.0
H393 H 0.63083 0.61561 0.00857 0.0
H394 H 0.53853 0.59644 0.00967 0.0
H395 H 0.56738 0.48297 0.0532 0.0
N396 N 0.70604 0.5744 0.02919 0.0
H397 H 0.65955 0.5006 0.05119 0.0
C398 C 0.30265 0.47465 0.02042 0.0
C399 C 0.27004 0.43205 0.02243 0.0
C400 C 0.24357 0.41218 0.00687 0.0
C401 C 0.24945 0.43445 0.98893 0.0
C402 C 0.28332 0.47621 0.98669 0.0
C403 C 0.30931 0.4966 1.00237 0.0
C404 C 0.29384 0.53054 0.048 0.0
C405 C 0.28752 0.52137 0.0674 0.0
C406 C 0.25328 0.55123 0.07812 0.0
C407 C 0.22433 0.59073 0.06959 0.0
C408 C 0.23099 0.60047 0.0502 0.0
C409 C 0.2658 0.57099 0.03951 0.0
C410 C 0.38061 0.50819 0.03581 0.0
C411 C 0.39842 0.5581 0.03179 0.0
C412 C 0.45153 0.56797 0.03054 0.0
C413 C 0.48807 0.52806 0.03298 0.0
C414 C 0.46973 0.47807 0.03671 0.0
C415 C 0.41676 0.46844 0.03817 0.0
C416 C 0.73796 0.55011 0.01502 0.0
C417 C 0.77096 0.58107 1.00416 0.0
C418 C 0.80745 0.55886 0.99204 0.0
C419 C 0.81164 0.50513 0.99068 0.0
C420 C 0.77768 0.47397 1.00108 0.0
C421 C 0.74112 0.49624 0.01319 0.0
C422 C 0.73168 0.58322 0.04702 0.0
C423 C 0.75751 0.54344 0.0568 0.0
C424 C 0.78875 0.55479 0.07239 0.0
C425 C 0.794 0.60584 0.07859 0.0
C426 C 0.76607 0.64505 0.06946 0.0
C427 C 0.73524 0.63376 0.0538 0.0
C428 C 0.65219 0.56005 0.02984 0.0
C429 C 0.61709 0.58631 0.01822 0.0
C430 C 0.5642 0.57561 0.01904 0.0
C431 C 0.54489 0.53844 0.03168 0.0
C432 C 0.58047 0.51145 0.04313 0.0
C433 C 0.63349 0.52181 0.04212 0.0
H434 H 0.2554 0.57032 0.57323 0.0
N435 N 0.20032 0.54791 0.54265 0.0
H436 H 0.30845 0.51149 0.59238 0.0
H437 H 0.21269 0.44432 0.5369 0.0
H438 H 0.26829 0.38595 0.55531 0.0
H439 H 0.22885 0.49497 0.5107 0.0
H440 H 0.28062 0.52858 0.48456 0.0
H441 H 0.22662 0.64552 0.53642 0.0
H442 H 0.27827 0.6794 0.50998 0.0
H443 H 0.13806 0.58032 0.57003 0.0
H444 H 0.1376 0.50036 0.51671 0.0
H445 H 0.04449 0.57114 0.57222 0.0
H446 H 0.04392 0.49394 0.51802 0.0
H447 H 0.77071 0.57867 0.57369 0.0
H448 H 0.71051 0.55014 0.59847 0.0
H449 H 0.7328 0.39253 0.58096 0.0
H450 H 0.79112 0.42137 0.55575 0.0
H451 H 0.76306 0.48156 0.51637 0.0
H452 H 0.70828 0.53044 0.49423 0.0
H453 H 0.74589 0.67103 0.5235 0.0
H454 H 0.80056 0.62229 0.54554 0.0
H455 H 0.8719 0.59282 0.56256 0.0
H456 H 0.96582 0.60016 0.5612 0.0
H457 H 0.97373 0.4543 0.5317 0.0
N458 N 0.81337 0.51779 0.54627 0.0
H459 H 0.87955 0.4498 0.53199 0.0
C460 C 0.23062 0.51193 0.55357 0.0
C461 C 0.25789 0.53006 0.56932 0.0
C462 C 0.28824 0.4966 0.58015 0.0
C463 C 0.29263 0.44434 0.57523 0.0
C464 C 0.26566 0.42614 0.55932 0.0
C465 C 0.23419 0.45948 0.54875 0.0
C466 C 0.22405 0.56777 0.52568 0.0
C467 C 0.23844 0.53542 0.5106 0.0
C468 C 0.2678 0.55464 0.49557 0.0
C469 C 0.283 0.60648 0.49531 0.0
C470 C 0.26643 0.63942 0.50984 0.0
C471 C 0.23721 0.62012 0.5249 0.0
C472 C 0.14495 0.54171 0.54316 0.0
C473 C 0.11755 0.56126 0.55868 0.0
C474 C 0.06385 0.55634 0.55979 0.0
C475 C 0.03585 0.53215 0.54523 0.0
C476 C 0.0637 0.51218 0.52969 0.0
C477 C 0.11762 0.51636 0.52878 0.0
C478 C 0.78516 0.50196 0.56281 0.0
C479 C 0.76308 0.53799 0.57531 0.0
C480 C 0.72879 0.52175 0.58945 0.0
C481 C 0.71719 0.4692 0.59157 0.0
C482 C 0.74125 0.43322 0.57961 0.0
C483 C 0.77469 0.44952 0.56533 0.0
C484 C 0.78597 0.54818 0.53251 0.0
C485 C 0.76007 0.52299 0.51779 0.0
C486 C 0.72891 0.55074 0.50526 0.0
C487 C 0.7232 0.60419 0.50731 0.0
C488 C 0.75006 0.62978 0.52172 0.0
C489 C 0.7813 0.60196 0.53426 0.0
C490 C 0.86881 0.52115 0.54707 0.0
C491 C 0.89394 0.56284 0.55563 0.0
C492 C 0.94794 0.56651 0.55503 0.0
C493 C 0.9781 0.52798 0.5462 0.0
C494 C 0.95236 0.4855 0.53819 0.0
C495 C 0.89844 0.48243 0.53852 0.0
Fe496 Fe 0.00693 0.76778 0.18341 0.0
O497 O 0.05022 0.7393 0.16238 0.0
Fe498 Fe 0.88876 0.7908 0.16199 0.0
Fe499 Fe 0.12608 0.74506 0.16156 0.0
O500 O 0.96458 0.79842 0.16256 0.0
O501 O 0.96454 0.79823 0.16063 0.0
O502 O 0.05057 0.74003 0.16048 0.0
Fe503 Fe 0.00816 0.77005 0.13954 0.0
C504 C 0.09925 0.8354 0.18842 0.0
O505 O 0.05623 0.72967 0.20244 0.0
O506 O 0.12022 0.69338 0.18393 0.0
O507 O 0.96627 0.7029 0.13823 0.0
O508 O 0.88605 0.73266 0.14182 0.0
O509 O 0.88555 0.73701 0.18366 0.0
O510 O 0.96317 0.70135 0.18359 0.0
O511 O 0.12116 0.69449 0.13903 0.0
O512 O 0.06036 0.73518 0.1202 0.0
C513 C 0.91591 0.70072 0.1884 0.0
O514 O 0.95606 0.80614 0.12038 0.0
O515 O 0.89134 0.84055 0.1391 0.0
O516 O 0.0509 0.83343 0.18528 0.0
O517 O 0.13014 0.8017 0.18188 0.0
C518 C 0.09419 0.69752 0.19963 0.0
C519 C 0.09869 0.7031 0.12289 0.0
C520 C 0.09987 0.8375 0.13578 0.0
O521 O 0.13001 0.80146 0.14111 0.0
O522 O 0.05159 0.83681 0.13929 0.0
C523 C 0.91811 0.70007 0.13507 0.0
O524 O 0.89421 0.84376 0.18371 0.0
O525 O 0.95627 0.80493 0.20257 0.0
C526 C 0.91544 0.8352 0.12311 0.0
C527 C 0.9193 0.83829 0.19952 0.0
Fe528 Fe 0.50459 0.7713 0.43706 0.0
O529 O 0.53535 0.72905 0.4162 0.0
Fe530 Fe 0.47723 0.88798 0.41484 0.0
Fe531 Fe 0.53158 0.65323 0.41587 0.0
O532 O 0.47357 0.81215 0.41586 0.0
O533 O 0.47396 0.81227 0.41385 0.0
O534 O 0.53514 0.72892 0.4142 0.0
Fe535 Fe 0.50453 0.76994 0.39291 0.0
C536 C 0.5774 0.68743 0.45381 0.0
O537 O 0.44006 0.7257 0.43859 0.0
O538 O 0.47525 0.64806 0.43634 0.0
O539 O 0.46689 0.82005 0.37348 0.0
O540 O 0.42669 0.8813 0.39229 0.0
O541 O 0.42598 0.881 0.43729 0.0
O542 O 0.46583 0.81974 0.45604 0.0
O543 O 0.4748 0.64673 0.39567 0.0
O544 O 0.43902 0.72439 0.39226 0.0
C545 C 0.43214 0.85628 0.45318 0.0
O546 O 0.56997 0.81567 0.39175 0.0
O547 O 0.53374 0.89337 0.39452 0.0
O548 O 0.54376 0.72417 0.45642 0.0
O549 O 0.58311 0.66156 0.43816 0.0
C550 C 0.43999 0.67786 0.44243 0.0
C551 C 0.43894 0.67585 0.38954 0.0
C552 C 0.57404 0.68016 0.37699 0.0
O553 O 0.58199 0.65832 0.39329 0.0
O554 O 0.54207 0.71843 0.37392 0.0
C555 C 0.43472 0.85832 0.3762 0.0
O556 O 0.53383 0.89446 0.4352 0.0
O557 O 0.56908 0.817 0.438 0.0
C558 C 0.56982 0.86409 0.38867 0.0
C559 C 0.56919 0.86504 0.44146 0.0
Fe560 Fe 0.50786 0.26903 0.69116 0.0
O561 O 0.55529 0.27552 0.66909 0.0
Fe562 Fe 0.38606 0.27725 0.66872 0.0
Fe563 Fe 0.62871 0.26186 0.66808 0.0
O564 O 0.45945 0.26281 0.66936 0.0
O565 O 0.46069 0.28298 0.66658 0.0
O566 O 0.55394 0.25563 0.6663 0.0
Fe567 Fe 0.50686 0.26959 0.6445 0.0
C568 C 0.60527 0.31207 0.70735 0.0
O569 O 0.53529 0.1925 0.69246 0.0
O570 O 0.62174 0.19977 0.68656 0.0
O571 O 0.46897 0.19733 0.64315 0.0
O572 O 0.38471 0.21546 0.65039 0.0
O573 O 0.38558 0.22864 0.69212 0.0
O574 O 0.45305 0.25033 0.71102 0.0
O575 O 0.62636 0.21542 0.64407 0.0
O576 O 0.56074 0.24334 0.62488 0.0
C577 C 0.41058 0.22658 0.70783 0.0
O578 O 0.45232 0.29625 0.62521 0.0
O579 O 0.38765 0.32414 0.6448 0.0
O580 O 0.56348 0.28739 0.7107 0.0
O581 O 0.62988 0.31037 0.69156 0.0
C582 C 0.58262 0.17695 0.69418 0.0
C583 C 0.603 0.21802 0.62796 0.0
C584 C 0.5936 0.3516 0.6421 0.0
O585 O 0.62913 0.32395 0.64991 0.0
O586 O 0.54454 0.34194 0.64319 0.0
C587 C 0.41982 0.18785 0.64231 0.0
O588 O 0.39391 0.33885 0.68738 0.0
O589 O 0.48061 0.34564 0.69257 0.0
C590 C 0.41025 0.32162 0.62854 0.0
C591 C 0.43349 0.36116 0.69488 0.0
Fe592 Fe 0.0074 0.27428 0.95909 0.0
O593 O 0.01598 0.2699 0.93191 0.0
Fe594 Fe 0.00696 0.33744 0.91442 0.0
Fe595 Fe 1.00507 0.20962 0.91477 0.0
O596 O 0.99696 0.27787 0.93195 0.0
O597 O 0.01602 0.27714 0.89725 0.0
O598 O 0.99524 0.26933 0.89734 0.0
Fe599 Fe 1.00504 0.27278 0.87016 0.0
C600 C 0.05404 0.16535 0.95012 0.0
O601 O 0.94318 0.22751 0.95813 0.0
O602 O 0.93054 0.20724 0.9269 0.0
O603 O 0.94293 0.32338 0.87146 0.0
O604 O 0.93213 0.3405 0.90289 0.0
O605 O 0.98413 0.39162 0.93434 0.0
O606 O 0.96161 0.34003 0.95907 0.0
O607 O 0.9816 0.1557 0.89474 0.0
O608 O 0.95752 0.20855 0.87052 0.0
C609 C 0.96016 0.38293 0.94999 0.0
O610 O 0.05265 0.33697 0.8699 0.0
O611 O 0.02934 0.39062 0.89395 0.0
O612 O 0.0534 0.20869 0.95889 0.0
O613 O 0.0286 0.15597 0.93483 0.0
C614 C 0.91665 0.2078 0.94451 0.0
C615 C 0.95782 0.16468 0.87902 0.0
C616 C 0.09235 0.2018 0.88526 0.0
O617 O 0.07939 0.20609 0.90282 0.0
O618 O 0.06718 0.22245 0.87141 0.0
C619 C 0.91859 0.34465 0.88537 0.0
O620 O 0.08203 0.34045 0.92606 0.0
O621 O 0.07144 0.32107 0.95746 0.0
C622 C 0.05285 0.38107 0.87823 0.0
C623 C 0.09698 0.34054 0.94355 0.0
C624 C 0.37691 0.90886 0.49946 0.0
C625 C 0.32375 0.9111 0.49465 0.0
C626 C 0.34136 0.8665 0.46477 0.0
C627 C 0.39513 0.86889 0.46866 0.0
N628 N 0.46276 0.87754 0.49207 0.0
N629 N 0.25452 0.89434 0.47282 0.0
C630 C 0.41262 0.88549 0.48674 0.0
C631 C 0.30564 0.88996 0.47741 0.0
N632 N 0.39353 0.93151 0.51583 0.0
N633 N 0.32449 0.83901 0.44947 0.0
H634 H 0.227 0.90961 0.48203 0.0
H635 H 0.23963 0.88575 0.45953 0.0
H636 H 0.34951 0.81921 0.44046 0.0
H637 H 0.28584 0.83121 0.44672 0.0
H638 H 0.43215 0.93799 0.51907 0.0
H639 H 0.36844 0.94698 0.52589 0.0
H640 H 0.47647 0.88343 0.50572 0.0
H641 H 0.49049 0.86077 0.48343 0.0
C642 C 0.37401 0.0986 0.72969 0.0
C643 C 0.3531 0.11478 0.74723 0.0
C644 C 0.37084 0.2051 0.73926 0.0
C645 C 0.39314 0.18859 0.72199 0.0
N646 N 0.42723 0.1198 0.7027 0.0
N647 N 0.33958 0.18137 0.77045 0.0
C648 C 0.39811 0.13534 0.71779 0.0
C649 C 0.35404 0.16752 0.75256 0.0
N650 N 0.36899 0.04848 0.72404 0.0
N651 N 0.36405 0.25656 0.7426 0.0
H652 H 0.32679 0.15476 0.78045 0.0
H653 H 0.34403 0.21833 0.77589 0.0
H654 H 0.37647 0.28495 0.73322 0.0
H655 H 0.3432 0.2712 0.75398 0.0
H656 H 0.3777 0.03578 0.71044 0.0
H657 H 0.35243 0.02004 0.73249 0.0
H658 H 0.43726 0.08154 0.70017 0.0
H659 H 0.44518 0.14552 0.6935 0.0
C660 C 0.18097 0.10499 0.9647 0.0
C661 C 0.16426 0.07043 0.97894 0.0
C662 C 0.07357 0.09061 0.9716 0.0
C663 C 0.0904 0.12606 0.95767 0.0
N664 N 0.15855 0.1597 0.93815 0.0
N665 N 0.09594 0.02235 0.99374 0.0
C666 C 0.1437 0.13064 0.95329 0.0
C667 C 0.11082 0.06052 0.98161 0.0
N668 N 0.23251 0.11502 0.96268 0.0
N669 N 0.02213 0.08754 0.97577 0.0
H670 H 0.12226 1.00051 1.00154 0.0
H671 H 0.05806 0.00973 0.99516 0.0
H672 H 0.99402 0.10761 0.96816 0.0
H673 H 0.00727 0.06706 0.98717 0.0
H674 H 0.24713 0.14457 0.95433 0.0
H675 H 0.26105 0.0954 0.97022 0.0
H676 H 0.19593 0.16042 0.93278 0.0
H677 H 0.13235 0.18046 0.93001 0.0
C678 C 0.12177 0.96885 0.21042 0.0
C679 C 0.14755 0.95471 0.22733 0.0
C680 C 0.15136 0.86483 0.21682 0.0
C681 C 0.11994 0.87731 0.20084 0.0
N682 N 0.07704 0.94202 0.1819 0.0
N683 N 0.17884 0.88848 0.2483 0.0
C684 C 0.10549 0.92966 0.19754 0.0
C685 C 0.16022 0.90259 0.23093 0.0
N686 N 0.11432 0.0199 0.20648 0.0
N687 N 0.174 0.81743 0.21865 0.0
H688 H 0.18657 0.91472 0.25909 0.0
H689 H 0.18205 0.85028 0.25267 0.0
H690 H 0.1671 0.78606 0.20996 0.0
H691 H 0.2032 0.80985 0.2284 0.0
H692 H 0.10059 0.03376 0.19363 0.0
H693 H 0.12496 0.04916 0.2158 0.0
H694 H 0.05934 0.9776 0.17984 0.0
H695 H 0.06997 0.91612 0.17095 0.0
C696 C 0.32518 0.08861 0.62556 0.0
C697 C 0.33431 0.08899 0.60579 0.0
C698 C 0.4093 0.14503 0.61036 0.0
C699 C 0.40008 0.14516 0.63021 0.0
N700 N 0.3598 0.10445 0.65691 0.0
N701 N 0.39474 0.10221 0.5804 0.0
C702 C 0.36162 0.11232 0.63784 0.0
C703 C 0.37984 0.11191 0.59859 0.0
N704 N 0.28037 0.06857 0.63255 0.0
N705 N 0.44277 0.17933 0.6024 0.0
H706 H 0.37407 0.07778 0.57148 0.0
H707 H 0.43017 0.11389 0.57493 0.0
H708 H 0.46539 0.20467 0.61014 0.0
H709 H 0.4455 0.18514 0.58786 0.0
H710 H 0.26903 0.07252 0.6466 0.0
H711 H 0.25259 0.05119 0.62404 0.0
H712 H 0.33553 0.0777 0.66331 0.0
H713 H 0.38655 0.1211 0.66607 0.0
C714 C 0.19874 0.15394 0.85427 0.0
C715 C 0.19674 0.10042 0.85816 0.0
C716 C 0.13867 0.11566 0.88482 0.0
C717 C 0.13733 0.16903 0.88001 0.0
N718 N 0.17972 0.24064 0.8652 0.0
N719 N 0.18072 0.03268 0.88045 0.0
C720 C 0.17238 0.18867 0.86645 0.0
C721 C 0.17232 0.08225 0.8747 0.0
N722 N 0.22311 0.1712 0.83837 0.0
N723 N 0.1051 0.09579 0.89779 0.0
H724 H 0.20497 0.00758 0.87305 0.0
H725 H 0.16811 0.01821 0.89337 0.0
H726 H 0.07999 0.11793 0.90584 0.0
H727 H 0.09971 0.05645 0.89982 0.0
H728 H 0.22056 0.20903 0.83356 0.0
H729 H 0.2439 0.14694 0.8294 0.0
H730 H 0.20761 0.25751 0.85662 0.0
H731 H 0.16114 0.26647 0.87427 0.0
C732 C 0.13272 0.91761 0.09215 0.0
C733 C 0.18492 0.92878 0.09639 0.0
C734 C 0.1703 0.90027 0.12895 0.0
C735 C 0.1227 0.8779 0.12338 0.0
N736 N 0.06133 0.86083 0.09825 0.0
N737 N 0.25491 0.92874 0.11893 0.0
C738 C 0.10383 0.88633 0.10472 0.0
C739 C 0.20401 0.92048 0.11494 0.0
N740 N 0.1111 0.93618 0.0759 0.0
N741 N 0.18329 0.90177 0.14764 0.0
H742 H 0.28098 0.94322 0.10906 0.0
H743 H 0.27208 0.91765 0.13161 0.0
H744 H 0.15884 0.88786 0.15817 0.0
H745 H 0.21537 0.92145 0.15277 0.0
H746 H 0.07182 0.93315 0.07291 0.0
H747 H 0.13148 0.95938 0.06645 0.0
H748 H 0.04979 0.86141 0.08414 0.0
H749 H 0.04034 0.83509 0.10638 0.0
C750 C 0.39169 0.96479 0.34378 0.0
C751 C 0.34814 0.94303 0.33464 0.0
C752 C 0.36412 0.86123 0.35141 0.0
C753 C 0.40919 0.88263 0.35956 0.0
N754 N 0.4748 0.94792 0.35791 0.0
N755 N 0.30036 0.86657 0.32631 0.0
C756 C 0.42578 0.93226 0.35394 0.0
C757 C 0.33657 0.8899 0.33739 0.0
N758 N 0.39924 0.01688 0.34374 0.0
N759 N 0.3468 0.81441 0.35745 0.0
H760 H 0.28054 0.88602 0.31563 0.0
H761 H 0.2936 0.82704 0.32649 0.0
H762 H 0.36682 0.79225 0.36735 0.0
H763 H 0.31125 0.79913 0.35352 0.0
H764 H 0.42779 0.03469 0.35178 0.0
H765 H 0.37377 0.04282 0.33741 0.0
H766 H 0.49036 0.98224 0.35285 0.0
H767 H 0.50176 0.92323 0.36399 0.0
C768 C 0.71099 0.17198 0.59613 0.0
C769 C 0.68719 0.13074 0.58625 0.0
C770 C 0.60586 0.14824 0.60302 0.0
C771 C 0.62894 0.19133 0.61194 0.0
N772 N 0.69866 0.25256 0.61277 0.0
N773 N 0.60852 0.08849 0.5767 0.0
C774 C 0.68 0.20588 0.6071 0.0
C775 C 0.63343 0.12171 0.58855 0.0
N776 N 0.76348 0.17719 0.59601 0.0
N777 N 0.55898 0.13075 0.60903 0.0
H778 H 0.62727 0.0693 0.5657 0.0
H779 H 0.56856 0.08406 0.57659 0.0
H780 H 0.53838 0.14828 0.61993 0.0
H781 H 0.54272 0.09638 0.60436 0.0
H782 H 0.78294 0.20335 0.60458 0.0
H783 H 0.78809 0.15214 0.58881 0.0
H784 H 0.73383 0.2673 0.60814 0.0
H785 H 0.67645 0.2789 0.6204 0.0
C786 C 0.64979 0.90106 0.34529 0.0
C787 C 0.66653 0.95074 0.35089 0.0
C788 C 0.63513 0.93354 0.38299 0.0
C789 C 0.61 0.88832 0.37646 0.0
N790 N 0.58785 0.83303 0.35012 0.0
N791 N 0.67146 0.01656 0.37488 0.0
C792 C 0.61645 0.87256 0.35733 0.0
C793 C 0.65884 0.96742 0.36978 0.0
N794 N 0.66591 0.88101 0.32843 0.0
N795 N 0.6365 0.94394 0.40191 0.0
H796 H 0.68867 0.04267 0.36565 0.0
H797 H 0.66121 0.03278 0.38782 0.0
H798 H 0.61977 0.91971 0.4119 0.0
H799 H 0.65842 0.97347 0.40777 0.0
H800 H 0.65916 0.84297 0.32445 0.0
H801 H 0.6906 0.90079 0.31932 0.0
H802 H 0.58665 0.82421 0.33576 0.0
H803 H 0.56198 0.81155 0.3581 0.0
C804 C 0.87791 0.93788 0.08679 0.0
C805 C 0.82852 0.91916 0.08135 0.0
C806 C 0.8453 0.83918 0.09879 0.0
C807 C 0.89076 0.86102 0.10658 0.0
N808 N 0.95044 0.9316 0.10857 0.0
N809 N 0.76268 0.85389 0.08369 0.0
C810 C 0.90744 0.91036 0.10058 0.0
C811 C 0.81176 0.87004 0.08759 0.0
N812 N 0.89675 0.98154 0.07854 0.0
N813 N 0.83451 0.78848 0.10192 0.0
H814 H 0.73666 0.87521 0.07559 0.0
H815 H 0.74619 0.8213 0.08975 0.0
H816 H 0.85853 0.76497 0.10993 0.0
H817 H 0.80512 0.76858 0.09506 0.0
H818 H 0.93427 0.99475 0.08048 0.0
H819 H 0.87608 1.00236 0.06842 0.0
H820 H 0.96169 0.96962 0.10647 0.0
H821 H 0.97362 0.91167 0.11819 0.0
C822 C 0.91896 0.04382 0.85152 0.0
C823 C 0.86989 0.06013 0.84466 0.0
C824 C 0.8737 0.13439 0.86605 0.0
C825 C 0.92626 0.12356 0.86998 0.0
N826 N 1.00115 0.06995 0.86476 0.0
N827 N 0.80451 0.12687 0.84337 0.0
C828 C 0.94948 0.07845 0.86244 0.0
C829 C 0.84799 0.10681 0.85151 0.0
N830 N 0.93602 0.99497 0.8479 0.0
N831 N 0.84825 0.17101 0.87634 0.0
H832 H 0.78577 0.10971 0.83197 0.0
H833 H 0.79023 0.16337 0.84663 0.0
H834 H 0.86581 0.19071 0.88747 0.0
H835 H 0.80866 0.17757 0.87519 0.0
H836 H 0.96931 0.97954 0.85395 0.0
H837 H 0.91411 0.96819 0.84042 0.0
H838 H 0.02122 0.0408 0.85777 0.0
H839 H 0.02474 0.09455 0.87251 0.0
C840 C 0.70246 0.89165 0.46343 0.0
C841 C 0.68782 0.91806 0.48013 0.0
C842 C 0.59748 0.91878 0.46971 0.0
C843 C 0.6107 0.88697 0.4539 0.0
N844 N 0.67675 0.84397 0.43548 0.0
N845 N 0.62099 0.94956 0.50082 0.0
C846 C 0.66354 0.87352 0.45075 0.0
C847 C 0.63532 0.9298 0.48365 0.0
N848 N 0.75375 0.88538 0.45945 0.0
N849 N 0.54915 0.93954 0.47159 0.0
H850 H 0.64727 0.95932 0.51139 0.0
H851 H 0.58275 0.95198 0.5053 0.0
H852 H 0.51749 0.93029 0.46332 0.0
H853 H 0.54077 0.96922 0.48103 0.0
H854 H 0.7678 0.87156 0.44664 0.0
H855 H 0.7829 0.89733 0.46862 0.0
H856 H 0.71264 0.82644 0.43385 0.0
H857 H 0.65137 0.83575 0.42447 0.0
C858 C 0.85529 0.88948 0.24433 0.0
C859 C 0.86122 0.94327 0.24143 0.0
C860 C 0.916 0.92633 0.2138 0.0
C861 C 0.90409 0.87316 0.21518 0.0
N862 N 0.86091 0.80335 0.23105 0.0
N863 N 0.89477 0.01386 0.22308 0.0
C864 C 0.87384 0.85436 0.2304 0.0
C865 C 0.89136 0.96199 0.22617 0.0
N866 N 0.8324 0.8721 0.26052 0.0
N867 N 0.95174 0.94244 0.20088 0.0
H868 H 0.87836 0.04115 0.2321 0.0
H869 H 0.91099 0.02992 0.21098 0.0
H870 H 0.97041 0.91718 0.19165 0.0
H871 H 0.96629 0.97975 0.2004 0.0
H872 H 0.83145 0.8335 0.26447 0.0
H873 H 0.81788 0.89682 0.27088 0.0
H874 H 0.83409 0.78811 0.24045 0.0
H875 H 0.87478 0.77637 0.22137 0.0
C876 C 0.78878 0.18629 0.96891 0.0
C877 C 0.79677 0.13464 0.97489 0.0
C878 C 0.87034 0.1275 0.95318 0.0
C879 C 0.86856 0.18145 0.95032 0.0
N880 N 0.82586 0.26289 0.95463 0.0
N881 N 0.84775 0.05652 0.97372 0.0
C882 C 0.82716 0.21095 0.95773 0.0
C883 C 0.83761 0.10491 0.967 0.0
N884 N 0.74442 0.21144 0.97389 0.0
N885 N 0.90422 0.09811 0.94301 0.0
H886 H 0.8256 0.03863 0.98409 0.0
H887 H 0.88069 0.03559 0.97014 0.0
H888 H 0.92888 0.11371 0.93289 0.0
H889 H 0.90422 0.05799 0.94321 0.0
H890 H 0.7342 0.24765 0.96877 0.0
H891 H 0.7155 0.19398 0.9819 0.0
H892 H 0.80057 0.28794 0.96147 0.0
H893 H 0.85191 0.28115 0.9456 0.0
C894 C 0.63884 0.05182 0.71401 0.0
C895 C 0.64479 0.06634 0.73329 0.0
C896 C 0.59238 0.14351 0.72726 0.0
C897 C 0.59462 0.13395 0.7075 0.0
N898 N 0.62126 0.07937 0.68179 0.0
N899 N 0.63487 0.13169 0.75736 0.0
C900 C 0.61813 0.08802 0.7008 0.0
C901 C 0.62323 0.11352 0.73973 0.0
N902 N 0.65176 1.00307 0.70845 0.0
N903 N 0.56097 0.18128 0.73426 0.0
H904 H 0.6591 0.11233 0.76675 0.0
H905 H 0.62498 0.16861 0.76189 0.0
H906 H 0.53646 0.20306 0.72581 0.0
H907 H 0.55462 0.18667 0.74867 0.0
H908 H 0.64403 0.98864 0.69502 0.0
H909 H 0.66588 0.97539 0.71782 0.0
H910 H 0.64326 0.04987 0.67586 0.0
H911 H 0.60357 0.10345 0.67189 0.0
C912 C 0.83769 0.45846 0.96112 0.0
C913 C 0.85208 0.48104 0.97856 0.0
C914 C 0.94153 0.452 0.9737 0.0
C915 C 0.92522 0.42294 0.95785 0.0
N916 N 0.85659 0.39396 0.93744 0.0
N917 N 0.91683 0.49743 1.00231 0.0
C918 C 0.87309 0.42545 0.95165 0.0
C919 C 0.904 0.47791 0.98499 0.0
N920 N 0.79023 0.46889 0.95357 0.0
N921 N 0.99295 0.45461 0.97791 0.0
H922 H 0.89059 0.51695 0.01091 0.0
H923 H 0.95246 0.49137 0.00876 0.0
H924 H 0.02102 0.43554 0.96994 0.0
H925 H 0.0082 0.47894 0.98818 0.0
H926 H 0.77941 0.45793 0.93998 0.0
H927 H 0.76326 0.49268 0.96023 0.0
H928 H 0.81794 0.38949 0.93375 0.0
H929 H 0.88122 0.36905 0.93027 0.0
C930 C 0.89797 0.62343 0.23411 0.0
C931 C 0.86315 0.58456 0.22811 0.0
C932 C 0.85602 0.62754 0.19731 0.0
C933 C 0.89727 0.66102 0.20214 0.0
N934 N 0.95931 0.68903 0.22556 0.0
N935 N 0.81692 0.54423 0.2025 0.0
C936 C 0.9193 0.65784 0.22057 0.0
C937 C 0.84443 0.58507 0.20927 0.0
N938 N 0.90767 0.63034 0.25295 0.0
N939 N 0.82645 0.6369 0.18172 0.0
H940 H 0.80919 0.51157 0.2106 0.0
H941 H 0.80662 0.54059 0.18832 0.0
H942 H 0.83306 0.66743 0.17249 0.0
H943 H 0.79258 0.61677 0.17885 0.0
H944 H 0.92827 0.66153 0.25828 0.0
H945 H 0.89044 0.60841 0.26353 0.0
H946 H 0.98178 0.68295 0.23758 0.0
H947 H 0.97127 0.71984 0.21735 0.0
C948 C 0.63398 0.6365 0.50009 0.0
C949 C 0.6868 0.63281 0.49488 0.0
C950 C 0.66852 0.67707 0.46498 0.0
C951 C 0.61493 0.67581 0.46925 0.0
N952 N 0.54869 0.67024 0.49331 0.0
N953 N 0.75526 0.64792 0.47257 0.0
C954 C 0.59815 0.66048 0.48757 0.0
C955 C 0.70445 0.65329 0.47748 0.0
N956 N 0.61771 0.61458 0.51664 0.0
N957 N 0.68506 0.7037 0.44943 0.0
H958 H 0.78296 0.63244 0.48167 0.0
H959 H 0.7697 0.656 0.45918 0.0
H960 H 0.65987 0.72371 0.44054 0.0
H961 H 0.72368 0.71061 0.44633 0.0
H962 H 0.5791 0.60913 0.52015 0.0
H963 H 0.64296 0.59866 0.52655 0.0
H964 H 0.53577 0.66516 0.5071 0.0
H965 H 0.52101 0.68789 0.48487 0.0
C966 C 0.62446 0.4418 0.7312 0.0
C967 C 0.64685 0.4263 0.74859 0.0
C968 C 0.64622 0.33579 0.73828 0.0
C969 C 0.62118 0.35115 0.72138 0.0
N970 N 0.58015 0.41696 0.70248 0.0
N971 N 0.67635 0.35933 0.76965 0.0
C972 C 0.60884 0.40372 0.71798 0.0
C973 C 0.65699 0.37342 0.75241 0.0
N974 N 0.61866 0.49309 0.72724 0.0
N975 N 0.6608 0.28545 0.74052 0.0
H976 H 0.68728 0.38596 0.77993 0.0
H977 H 0.67944 0.3214 0.77425 0.0
H978 H 0.6529 0.25708 0.73048 0.0
H979 H 0.68341 0.272 0.75163 0.0
H980 H 0.6088 0.50726 0.71395 0.0
H981 H 0.62686 0.52216 0.73694 0.0
H982 H 0.56382 0.45321 0.70044 0.0
H983 H 0.56959 0.39072 0.69204 0.0
C984 C 0.82533 0.60837 0.11246 0.0
C985 C 0.83321 0.61972 0.09307 0.0
C986 C 0.90891 0.6717 0.10107 0.0
C987 C 0.89876 0.66317 0.12057 0.0
N988 N 0.8637 0.60612 0.14373 0.0
N989 N 0.89175 0.64703 0.0686 0.0
C990 C 0.86193 0.62601 0.12594 0.0
C991 C 0.87815 0.64648 0.08727 0.0
N992 N 0.78196 0.58292 0.11813 0.0
N993 N 0.94613 0.70572 0.09566 0.0
H994 H 0.87026 0.62843 0.05817 0.0
H995 H 0.92669 0.66148 0.06366 0.0
H996 H 0.9725 0.72133 0.10508 0.0
H997 H 0.94984 0.71972 0.08194 0.0
H998 H 0.77184 0.57848 0.13229 0.0
H999 H 0.75435 0.5693 0.10865 0.0
H1000 H 0.84083 0.57543 0.14813 0.0
H1001 H 0.89266 0.61673 0.15323 0.0
C1002 C 0.66976 0.64712 0.3375 0.0
C1003 C 0.66108 0.59302 0.33621 0.0
C1004 C 0.58532 0.6029 0.35649 0.0
C1005 C 0.59947 0.65434 0.36064 0.0
N1006 N 0.65833 0.7249 0.35621 0.0
N1007 N 0.61616 0.51822 0.3482 0.0
C1008 C 0.64247 0.67658 0.35136 0.0
C1009 C 0.62026 0.57054 0.34669 0.0
N1010 N 0.70287 0.67054 0.32521 0.0
N1011 N 0.53771 0.58523 0.36147 0.0
H1012 H 0.64268 0.4927 0.34223 0.0
H1013 H 0.58971 0.50044 0.35717 0.0
H1014 H 0.50979 0.60947 0.36717 0.0
H1015 H 0.52389 0.54914 0.35749 0.0
H1016 H 0.70715 0.71037 0.3244 0.0
H1017 H 0.72226 0.6505 0.31457 0.0
H1018 H 0.69256 0.74115 0.35133 0.0
H1019 H 0.63887 0.74733 0.36617 0.0
C1020 C 0.68727 0.45131 0.62506 0.0
C1021 C 0.67749 0.45105 0.60533 0.0
C1022 C 0.60277 0.39484 0.61018 0.0
C1023 C 0.61268 0.39454 0.62998 0.0
N1024 N 0.65374 0.43512 0.65655 0.0
N1025 N 0.61628 0.43792 0.5802 0.0
C1026 C 0.6513 0.42742 0.63748 0.0
C1027 C 0.63177 0.42811 0.59831 0.0
N1028 N 0.73227 0.47139 0.63187 0.0
N1029 N 0.56909 0.36056 0.60233 0.0
H1030 H 0.63663 0.46245 0.57121 0.0
H1031 H 0.58069 0.42622 0.57486 0.0
H1032 H 0.54674 0.33515 0.61015 0.0
H1033 H 0.56588 0.35487 0.5878 0.0
H1034 H 0.74408 0.46736 0.64587 0.0
H1035 H 0.75972 0.48892 0.62326 0.0
H1036 H 0.67815 0.46188 0.66287 0.0
H1037 H 0.62735 0.41833 0.66581 0.0
C1038 C 0.84532 0.46617 0.87277 0.0
C1039 C 0.80628 0.44537 0.86105 0.0
C1040 C 0.83287 0.35758 0.86955 0.0
C1041 C 0.87401 0.37829 0.88039 0.0
N1042 N 0.91145 0.45188 0.89633 0.0
N1043 N 0.75485 0.37319 0.85122 0.0
C1044 C 0.87735 0.43243 0.88345 0.0
C1045 C 0.79732 0.39153 0.86049 0.0
N1046 N 0.8536 0.51822 0.87282 0.0
N1047 N 0.82886 0.30535 0.86762 0.0
H1048 H 0.72861 0.39726 0.84431 0.0
H1049 H 0.74336 0.33484 0.85137 0.0
H1050 H 0.85192 0.27982 0.87528 0.0
H1051 H 0.80392 0.28712 0.85825 0.0
H1052 H 0.88581 0.5356 0.87883 0.0
H1053 H 0.82945 0.54429 0.86588 0.0
H1054 H 0.91123 0.49006 0.90081 0.0
H1055 H 0.93752 0.42951 0.90388 0.0
C1056 C 0.19766 0.67433 0.08511 0.0
C1057 C 0.18719 0.62176 0.08113 0.0
C1058 C 0.11224 0.62476 0.10251 0.0
C1059 C 0.12253 0.67737 0.10624 0.0
N1060 N 0.16549 0.75568 0.09716 0.0
N1061 N 0.12778 0.55052 0.08237 0.0
C1062 C 0.16207 0.70328 0.09618 0.0
C1063 C 0.14228 0.59805 0.08871 0.0
N1064 N 0.24303 0.6959 0.07927 0.0
N1065 N 0.0745 0.60011 0.11249 0.0
H1066 H 0.1485 0.53032 0.07211 0.0
H1067 H 0.09302 0.53309 0.08598 0.0
H1068 H 0.05002 0.6194 0.12186 0.0
H1069 H 0.069 0.56041 0.11217 0.0
H1070 H 0.25541 0.73218 0.08357 0.0
H1071 H 0.27066 0.67595 0.07142 0.0
H1072 H 0.19035 0.77742 0.08881 0.0
H1073 H 0.13942 0.77782 0.10487 0.0
C1074 C 0.10478 0.45666 0.83691 0.0
C1075 C 0.14731 0.48296 0.84507 0.0
C1076 C 0.12469 0.44719 0.8762 0.0
C1077 C 0.08089 0.4229 0.8681 0.0
N1078 N 0.02099 0.41804 0.84212 0.0
N1079 N 0.189 0.51445 0.87328 0.0
C1080 C 0.06828 0.43221 0.84888 0.0
C1081 C 0.15445 0.48181 0.865 0.0
N1082 N 0.10069 0.45223 0.81772 0.0
N1083 N 0.13977 0.43517 0.89416 0.0
H1084 H 0.21062 0.541 0.86557 0.0
H1085 H 0.19232 0.51876 0.88787 0.0
H1086 H 0.11941 0.40981 0.90274 0.0
H1087 H 0.17463 0.44721 0.9 0.0
H1088 H 0.07339 0.42887 0.81116 0.0
H1089 H 0.12757 0.46764 0.80834 0.0
H1090 H 0.00782 0.428 0.82869 0.0
H1091 H 0.99284 0.40139 0.85071 0.0
C1092 C 0.37848 0.41801 0.58926 0.0
C1093 C 0.32468 0.40888 0.58713 0.0
C1094 C 0.33247 0.33387 0.60803 0.0
C1095 C 0.38366 0.34846 0.61268 0.0
N1096 N 0.45344 0.40913 0.60951 0.0
N1097 N 0.2487 0.36235 0.59714 0.0
C1098 C 0.40644 0.39157 0.60366 0.0
C1099 C 0.30118 0.36766 0.59712 0.0
N1100 N 0.40305 0.45125 0.57732 0.0
N1101 N 0.31398 0.28721 0.61381 0.0
H1102 H 0.22391 0.38728 0.58997 0.0
H1103 H 0.22945 0.33624 0.6058 0.0
H1104 H 0.33638 0.26094 0.6214 0.0
H1105 H 0.27871 0.27241 0.60931 0.0
H1106 H 0.443 0.45574 0.57708 0.0
H1107 H 0.38401 0.47039 0.56637 0.0
H1108 H 0.46955 0.44351 0.60476 0.0
H1109 H 0.47433 0.39168 0.62036 0.0
C1110 C 0.35892 0.63783 0.34629 0.0
C1111 C 0.34168 0.58859 0.35217 0.0
C1112 C 0.37306 0.60667 0.3842 0.0
C1113 C 0.39873 0.65134 0.37742 0.0
N1114 N 0.42108 0.70579 0.35086 0.0
N1115 N 0.33475 0.52414 0.37655 0.0
C1116 C 0.39233 0.66657 0.35823 0.0
C1117 C 0.34876 0.57268 0.37117 0.0
N1118 N 0.34335 0.6571 0.32924 0.0
N1119 N 0.37168 0.59699 0.40317 0.0
H1120 H 0.31646 0.49831 0.36749 0.0
H1121 H 0.34451 0.50816 0.38958 0.0
H1122 H 0.38879 0.62136 0.41303 0.0
H1123 H 0.34948 0.56795 0.40922 0.0
H1124 H 0.35036 0.6949 0.32502 0.0
H1125 H 0.31886 0.63695 0.32017 0.0
H1126 H 0.42236 0.71421 0.33647 0.0
H1127 H 0.44708 0.72736 0.35873 0.0
C1128 C 0.22708 0.36416 0.96596 0.0
C1129 C 0.21793 0.41473 0.97288 0.0
C1130 C 0.14142 0.42145 0.95259 0.0
C1131 C 0.14484 0.36797 0.94887 0.0
N1132 N 0.19117 0.28793 0.951 0.0
N1133 N 0.16444 0.49117 0.97363 0.0
C1134 C 0.1883 0.33933 0.95502 0.0
C1135 C 0.17519 0.44382 0.9661 0.0
N1136 N 0.27283 0.34016 0.96992 0.0
N1137 N 0.10496 0.4505 0.94354 0.0
H1138 H 0.18762 0.50895 0.98373 0.0
H1139 H 0.13036 0.51127 0.97097 0.0
H1140 H 0.07934 0.43489 0.93375 0.0
H1141 H 0.10343 0.49053 0.94431 0.0
H1142 H 0.28376 0.30493 0.96412 0.0
H1143 H 0.30194 0.35782 0.97777 0.0
H1144 H 0.21834 0.26308 0.95692 0.0
H1145 H 0.16463 0.26985 0.94212 0.0
C1146 C 0.4044 0.42563 0.74171 0.0
C1147 C 0.37946 0.47165 0.7359 0.0
C1148 C 0.39515 0.44837 0.70263 0.0
C1149 C 0.42259 0.4037 0.70858 0.0
N1150 N 0.46495 0.3581 0.7342 0.0
N1151 N 0.35885 0.53181 0.71109 0.0
C1152 C 0.43119 0.39517 0.72822 0.0
C1153 C 0.37709 0.48453 0.7164 0.0
N1154 N 0.40015 0.40927 0.76003 0.0
N1155 N 0.38609 0.45599 0.68381 0.0
H1156 H 0.34532 0.55892 0.7208 0.0
H1157 H 0.36074 0.54576 0.69731 0.0
H1158 H 0.40214 0.43254 0.67335 0.0
H1159 H 0.36111 0.48409 0.6786 0.0
H1160 H 0.41206 0.37292 0.76454 0.0
H1161 H 0.37989 0.42961 0.77037 0.0
H1162 H 0.47679 0.35449 0.74821 0.0
H1163 H 0.48553 0.33439 0.72512 0.0
C1164 C 0.3072 0.64967 0.46454 0.0
C1165 C 0.32228 0.62421 0.48139 0.0
C1166 C 0.41284 0.62614 0.47127 0.0
C1167 C 0.39891 0.65654 0.45517 0.0
N1168 N 0.33205 0.69724 0.43645 0.0
N1169 N 0.38955 0.59567 0.50246 0.0
C1170 C 0.3458 0.66849 0.45186 0.0
C1171 C 0.37503 0.61437 0.48514 0.0
N1172 N 0.25582 0.65432 0.4604 0.0
N1173 N 0.4619 0.6075 0.47349 0.0
H1174 H 0.36333 0.58533 0.51297 0.0
H1175 H 0.42771 0.59467 0.5071 0.0
H1176 H 0.49339 0.61792 0.46532 0.0
H1177 H 0.47124 0.57859 0.48313 0.0
H1178 H 0.24164 0.66727 0.44749 0.0
H1179 H 0.22686 0.64189 0.46957 0.0
H1180 H 0.29568 0.71365 0.43465 0.0
H1181 H 0.35742 0.70608 0.4255 0.0
C1182 C 0.13639 0.57242 0.22274 0.0
C1183 C 0.15063 0.58938 0.24105 0.0
C1184 C 0.11999 0.67683 0.23359 0.0
C1185 C 0.10721 0.66009 0.21498 0.0
N1186 N 0.0866 0.58913 0.19438 0.0
N1187 N 0.14673 0.65393 0.26546 0.0
C1188 C 0.1105 0.60694 0.21032 0.0
C1189 C 0.13926 0.64041 0.24697 0.0
N1190 N 0.14856 0.52353 0.21707 0.0
N1191 N 0.11593 0.72771 0.23832 0.0
H1192 H 0.16293 0.62911 0.27544 0.0
H1193 H 0.13363 0.68829 0.27135 0.0
H1194 H 0.09863 0.75524 0.22973 0.0
H1195 H 0.13175 0.74358 0.25051 0.0
H1196 H 0.14514 0.51093 0.20315 0.0
H1197 H 0.16512 0.49626 0.22607 0.0
H1198 H 0.08327 0.5502 0.19108 0.0
H1199 H 0.065 0.61292 0.18548 0.0
loop_
_geom_bond_atom_site_label_1
_geom_bond_atom_site_label_2
_geom_bond_distance
_geom_bond_site_symmetry_2
_ccdc_geom_bond_type
H0 C27 0.929 1_565 S
N1 C26 1.446 . S
N1 C32 1.427 1_545 S
N1 C38 1.420 1_545 S
H2 C28 0.930 . S
H3 C31 0.931 . S
H4 C30 0.929 . S
H5 C33 0.930 . S
H6 C34 0.932 1_545 S
H7 C37 0.929 . S
H8 C36 0.931 . S
H9 C39 0.929 . S
H10 C43 0.932 . S
H11 C40 0.931 . S
H12 C42 0.929 . S
H13 C45 0.929 1_565 S
H14 C46 0.930 . S
H15 C48 0.929 . S
H16 C49 0.931 . S
H17 C51 0.930 . S
H18 C52 0.932 1_545 S
H19 C54 0.931 . S
H20 C55 0.929 . S
H21 C57 0.929 . S
H22 C58 0.931 . S
H23 C60 0.929 . S
N24 C44 1.446 . S
N24 C50 1.427 1_545 S
N24 C56 1.420 1_545 S
H25 C61 0.932 . S
C26 N1 1.446 . S
C26 C27 1.363 . S
C26 C31 1.370 . S
C27 H0 0.929 1_545 S
C27 C26 1.363 . S
C27 C28 1.385 . S
C28 H2 0.930 . S
C28 C27 1.385 . S
C28 C29 1.357 . S
C29 C28 1.357 . S
C29 C30 1.406 . S
C30 H4 0.929 . S
C30 C29 1.406 . S
C30 C31 1.391 . S
C31 H3 0.931 . S
C31 C26 1.370 . S
C31 C30 1.391 . S
C32 N1 1.427 1_565 S
C32 C33 1.358 1_565 S
C32 C37 1.371 . S
C33 H5 0.930 . S
C33 C32 1.358 1_545 S
C33 C34 1.405 1_545 S
C34 H6 0.932 1_565 S
C34 C33 1.405 1_565 S
C34 C35 1.383 . S
C35 C34 1.383 . S
C35 C36 1.393 . S
C36 H8 0.931 . S
C36 C35 1.393 . S
C36 C37 1.382 . S
C37 H7 0.929 . S
C37 C32 1.371 . S
C37 C36 1.382 . S
C38 N1 1.420 1_565 S
C38 C39 1.362 . S
C38 C43 1.388 . S
C39 H9 0.929 . S
C39 C38 1.362 . S
C39 C40 1.376 . S
C40 H11 0.931 . S
C40 C39 1.376 . S
C40 C41 1.396 . S
C41 C40 1.396 . S
C41 C42 1.348 . S
C41 C59 1.472 1_655 S
C42 H12 0.929 . S
C42 C41 1.348 . S
C42 C43 1.443 . S
C43 H10 0.932 . S
C43 C38 1.388 . S
C43 C42 1.443 . S
C44 N24 1.446 . S
C44 C45 1.363 . S
C44 C49 1.370 . S
C45 H13 0.929 1_545 S
C45 C44 1.363 . S
C45 C46 1.385 . S
C46 H14 0.930 . S
C46 C45 1.385 . S
C46 C47 1.357 . S
C47 C46 1.357 . S
C47 C48 1.406 . S
C48 H15 0.929 . S
C48 C47 1.406 . S
C48 C49 1.391 . S
C49 H16 0.931 . S
C49 C44 1.370 . S
C49 C48 1.391 . S
C50 N24 1.427 1_565 S
C50 C51 1.358 1_565 S
C50 C55 1.371 . S
C51 H17 0.930 . S
C51 C50 1.358 1_545 S
C51 C52 1.405 1_545 S
C52 H18 0.932 1_565 S
C52 C51 1.405 1_565 S
C52 C53 1.383 . S
C53 C52 1.383 . S
C53 C54 1.393 . S
C54 H19 0.931 . S
C54 C53 1.393 . S
C54 C55 1.382 . S
C55 H20 0.929 . S
C55 C50 1.371 . S
C55 C54 1.382 . S
C56 N24 1.420 1_565 S
C56 C57 1.362 . S
C56 C61 1.388 . S
C57 H21 0.929 . S
C57 C56 1.362 . S
C57 C58 1.376 . S
C58 H22 0.931 . S
C58 C57 1.376 . S
C58 C59 1.396 . S
C59 C41 1.472 1_455 S
C59 C58 1.396 . S
C59 C60 1.348 . S
C60 H23 0.929 . S
C60 C59 1.348 . S
C60 C61 1.443 . S
C61 H25 0.932 . S
C61 C56 1.388 . S
C61 C60 1.443 . S
H62 C89 0.929 . S
N63 C88 1.433 . S
N63 C94 1.435 . S
N63 C100 1.423 . S
H64 C90 0.930 . S
H65 C93 0.931 . S
H66 C92 0.929 . S
H67 C95 0.930 . S
H68 C96 0.932 . S
H69 C99 0.929 . S
H70 C98 0.931 . S
H71 C101 0.929 . S
H72 C105 0.932 . S
H73 C102 0.931 . S
H74 C104 0.929 . S
H75 C107 0.929 . S
H76 C108 0.930 . S
H77 C110 0.929 . S
H78 C111 0.931 . S
H79 C113 0.930 . S
H80 C114 0.932 . S
H81 C116 0.931 . S
H82 C117 0.929 . S
H83 C119 0.929 . S
H84 C120 0.931 . S
H85 C122 0.929 . S
N86 C106 1.433 . S
N86 C112 1.435 . S
N86 C118 1.423 . S
H87 C123 0.932 . S
C88 N63 1.433 . S
C88 C89 1.363 . S
C88 C93 1.370 . S
C89 H62 0.929 . S
C89 C88 1.363 . S
C89 C90 1.385 . S
C90 H64 0.930 . S
C90 C89 1.385 . S
C90 C91 1.357 . S
C91 C90 1.357 . S
C91 C92 1.406 . S
C92 H66 0.929 . S
C92 C91 1.406 . S
C92 C93 1.391 . S
C93 H65 0.931 . S
C93 C88 1.370 . S
C93 C92 1.391 . S
C94 N63 1.435 . S
C94 C95 1.358 . S
C94 C99 1.371 . S
C95 H67 0.930 . S
C95 C94 1.358 . S
C95 C96 1.405 . S
C96 H68 0.932 . S
C96 C95 1.405 . S
C96 C97 1.383 . S
C97 C96 1.383 . S
C97 C98 1.393 . S
C98 H70 0.931 . S
C98 C97 1.393 . S
C98 C99 1.382 . S
C99 H69 0.929 . S
C99 C94 1.371 . S
C99 C98 1.382 . S
C100 N63 1.423 . S
C100 C101 1.362 . S
C100 C105 1.388 . S
C101 H71 0.929 . S
C101 C100 1.362 . S
C101 C102 1.376 . S
C102 H73 0.931 . S
C102 C101 1.376 . S
C102 C103 1.396 . S
C103 C102 1.396 . S
C103 C104 1.348 . S
C103 C121 1.472 . S
C104 H74 0.929 . S
C104 C103 1.348 . S
C104 C105 1.443 . S
C105 H72 0.932 . S
C105 C100 1.388 . S
C105 C104 1.443 . S
C106 N86 1.433 . S
C106 C107 1.363 1_565 S
C106 C111 1.370 . S
C107 H75 0.929 . S
C107 C106 1.363 1_545 S
C107 C108 1.385 . S
C108 H76 0.930 . S
C108 C107 1.385 . S
C108 C109 1.357 . S
C109 C108 1.357 . S
C109 C110 1.406 1_545 S
C110 H77 0.929 . S
C110 C109 1.406 1_565 S
C110 C111 1.391 . S
C111 H78 0.931 . S
C111 C106 1.370 . S
C111 C110 1.391 . S
C112 N86 1.435 . S
C112 C113 1.358 1_565 S
C112 C117 1.371 . S
C113 H79 0.930 . S
C113 C112 1.358 1_545 S
C113 C114 1.405 . S
C114 H80 0.932 . S
C114 C113 1.405 . S
C114 C115 1.383 . S
C115 C114 1.383 . S
C115 C116 1.393 . S
C116 H81 0.931 . S
C116 C115 1.393 . S
C116 C117 1.382 1_545 S
C117 H82 0.929 . S
C117 C112 1.371 . S
C117 C116 1.382 1_565 S
C118 N86 1.423 . S
C118 C119 1.362 . S
C118 C123 1.388 . S
C119 H83 0.929 . S
C119 C118 1.362 . S
C119 C120 1.376 . S
C120 H84 0.931 . S
C120 C119 1.376 . S
C120 C121 1.396 . S
C121 C103 1.472 . S
C121 C120 1.396 . S
C121 C122 1.348 . S
C122 H85 0.929 . S
C122 C121 1.348 . S
C122 C123 1.443 . S
C123 H87 0.932 . S
C123 C118 1.388 . S
C123 C122 1.443 . S
H124 C151 0.929 . S
N125 C150 1.425 1_545 S
N125 C156 1.435 . S
N125 C162 1.423 . S
H126 C152 0.930 . S
H127 C155 0.931 . S
H128 C154 0.929 . S
H129 C157 0.930 1_565 S
H130 C158 0.932 . S
H131 C161 0.929 . S
H132 C160 0.931 . S
H133 C163 0.929 . S
H134 C167 0.932 . S
H135 C164 0.931 . S
H136 C166 0.929 . S
H137 C169 0.929 . S
H138 C170 0.930 . S
H139 C172 0.929 . S
H140 C173 0.931 . S
H141 C175 0.930 1_565 S
H142 C176 0.932 . S
H143 C178 0.931 . S
H144 C179 0.929 . S
H145 C181 0.929 . S
H146 C182 0.931 . S
H147 C184 0.929 . S
N148 C168 1.425 1_545 S
N148 C174 1.435 . S
N148 C180 1.423 . S
H149 C185 0.932 . S
C150 N125 1.425 1_565 S
C150 C151 1.361 1_565 S
C150 C155 1.381 . S
C151 H124 0.929 . S
C151 C150 1.361 1_545 S
C151 C152 1.385 1_545 S
C152 H126 0.930 . S
C152 C151 1.385 1_565 S
C152 C153 1.357 . S
C153 C152 1.357 . S
C153 C154 1.406 . S
C154 H128 0.929 . S
C154 C153 1.406 . S
C154 C155 1.391 . S
C155 H127 0.931 . S
C155 C150 1.381 . S
C155 C154 1.391 . S
C156 N125 1.435 . S
C156 C157 1.358 . S
C156 C161 1.371 . S
C157 H129 0.930 1_545 S
C157 C156 1.358 . S
C157 C158 1.405 . S
C158 H130 0.932 . S
C158 C157 1.405 . S
C158 C159 1.383 1_554 S
C159 C158 1.383 1_556 S
C159 C160 1.393 1_556 S
C160 H132 0.931 . S
C160 C159 1.393 1_554 S
C160 C161 1.382 . S
C161 H131 0.929 . S
C161 C156 1.371 . S
C161 C160 1.382 . S
C162 N125 1.423 . S
C162 C163 1.362 . S
C162 C167 1.388 . S
C163 H133 0.929 . S
C163 C162 1.362 . S
C163 C164 1.376 . S
C164 H135 0.931 . S
C164 C163 1.376 . S
C164 C165 1.396 . S
C165 C164 1.396 . S
C165 C166 1.348 . S
C165 C183 1.472 . S
C166 H136 0.929 . S
C166 C165 1.348 . S
C166 C167 1.443 . S
C167 H134 0.932 . S
C167 C162 1.388 . S
C167 C166 1.443 . S
C168 N148 1.425 1_565 S
C168 C169 1.361 1_565 S
C168 C173 1.381 . S
C169 H137 0.929 . S
C169 C168 1.361 1_545 S
C169 C170 1.385 1_545 S
C170 H138 0.930 . S
C170 C169 1.385 1_565 S
C170 C171 1.357 . S
C171 C170 1.357 . S
C171 C172 1.406 . S
C172 H139 0.929 . S
C172 C171 1.406 . S
C172 C173 1.391 . S
C173 H140 0.931 . S
C173 C168 1.381 . S
C173 C172 1.391 . S
C174 N148 1.435 . S
C174 C175 1.358 . S
C174 C179 1.371 . S
C175 H141 0.930 1_545 S
C175 C174 1.358 . S
C175 C176 1.405 . S
C176 H142 0.932 . S
C176 C175 1.405 . S
C176 C177 1.383 1_554 S
C177 C176 1.383 1_556 S
C177 C178 1.393 1_556 S
C178 H143 0.931 . S
C178 C177 1.393 1_554 S
C178 C179 1.382 . S
C179 H144 0.929 . S
C179 C174 1.371 . S
C179 C178 1.382 . S
C180 N148 1.423 . S
C180 C181 1.362 . S
C180 C185 1.388 . S
C181 H145 0.929 . S
C181 C180 1.362 . S
C181 C182 1.376 . S
C182 H146 0.931 . S
C182 C181 1.376 . S
C182 C183 1.396 . S
C183 C165 1.472 . S
C183 C182 1.396 . S
C183 C184 1.348 . S
C184 H147 0.929 . S
C184 C183 1.348 . S
C184 C185 1.443 . S
C185 H149 0.932 . S
C185 C180 1.388 . S
C185 C184 1.443 . S
H186 C213 0.929 . S
N187 C212 1.433 . S
N187 C218 1.435 . S
N187 C224 1.423 . S
H188 C214 0.930 . S
H189 C217 0.931 . S
H190 C216 0.929 . S
H191 C219 0.930 . S
H192 C220 0.932 . S
H193 C223 0.929 . S
H194 C222 0.931 . S
H195 C225 0.929 . S
H196 C229 0.932 . S
H197 C226 0.931 . S
H198 C228 0.929 . S
H199 C231 0.929 1_565 S
H200 C232 0.930 . S
H201 C234 0.929 . S
H202 C235 0.931 . S
H203 C237 0.930 . S
H204 C238 0.932 . S
H205 C240 0.931 . S
H206 C241 0.929 . S
H207 C243 0.929 . S
H208 C244 0.931 . S
H209 C246 0.929 . S
N210 C230 1.433 . S
N210 C236 1.435 . S
N210 C242 1.423 . S
H211 C247 0.932 . S
C212 N187 1.433 . S
C212 C213 1.363 . S
C212 C217 1.370 . S
C213 H186 0.929 . S
C213 C212 1.363 . S
C213 C214 1.385 . S
C214 H188 0.930 . S
C214 C213 1.385 . S
C214 C215 1.357 . S
C215 C214 1.357 . S
C215 C216 1.406 . S
C216 H190 0.929 . S
C216 C215 1.406 . S
C216 C217 1.391 . S
C217 H189 0.931 . S
C217 C212 1.370 . S
C217 C216 1.391 . S
C218 N187 1.435 . S
C218 C219 1.358 . S
C218 C223 1.371 . S
C219 H191 0.930 . S
C219 C218 1.358 . S
C219 C220 1.405 . S
C220 H192 0.932 . S
C220 C219 1.405 . S
C220 C221 1.383 . S
C221 C220 1.383 . S
C221 C222 1.393 . S
C222 H194 0.931 . S
C222 C221 1.393 . S
C222 C223 1.382 . S
C223 H193 0.929 . S
C223 C218 1.371 . S
C223 C222 1.382 . S
C224 N187 1.423 . S
C224 C225 1.362 . S
C224 C229 1.388 . S
C225 H195 0.929 . S
C225 C224 1.362 . S
C225 C226 1.376 . S
C226 H197 0.931 . S
C226 C225 1.376 . S
C226 C227 1.396 . S
C227 C226 1.396 . S
C227 C228 1.348 . S
C227 C245 1.472 . S
C228 H198 0.929 . S
C228 C227 1.348 . S
C228 C229 1.443 . S
C229 H196 0.932 . S
C229 C224 1.388 . S
C229 C228 1.443 . S
C230 N210 1.433 . S
C230 C231 1.363 . S
C230 C235 1.370 . S
C231 H199 0.929 1_545 S
C231 C230 1.363 . S
C231 C232 1.385 1_545 S
C232 H200 0.930 . S
C232 C231 1.385 1_565 S
C232 C233 1.357 1_565 S
C233 C232 1.357 1_545 S
C233 C234 1.406 . S
C234 H201 0.929 . S
C234 C233 1.406 . S
C234 C235 1.391 . S
C235 H202 0.931 . S
C235 C230 1.370 . S
C235 C234 1.391 . S
C236 N210 1.435 . S
C236 C237 1.358 . S
C236 C241 1.371 . S
C237 H203 0.930 . S
C237 C236 1.358 . S
C237 C238 1.405 1_545 S
C238 H204 0.932 . S
C238 C237 1.405 1_565 S
C238 C239 1.383 . S
C239 C238 1.383 . S
C239 C240 1.393 1_565 S
C240 H205 0.931 . S
C240 C239 1.393 1_545 S
C240 C241 1.382 . S
C241 H206 0.929 . S
C241 C236 1.371 . S
C241 C240 1.382 . S
C242 N210 1.423 . S
C242 C243 1.362 . S
C242 C247 1.388 . S
C243 H207 0.929 . S
C243 C242 1.362 . S
C243 C244 1.376 . S
C244 H208 0.931 . S
C244 C243 1.376 . S
C244 C245 1.396 . S
C245 C227 1.472 . S
C245 C244 1.396 . S
C245 C246 1.348 . S
C246 H209 0.929 . S
C246 C245 1.348 . S
C246 C247 1.443 . S
C247 H211 0.932 . S
C247 C242 1.388 . S
C247 C246 1.443 . S
H248 C275 0.929 1_565 S
N249 C274 1.433 . S
N249 C280 1.435 . S
N249 C286 1.423 . S
H250 C276 0.930 . S
H251 C279 0.931 . S
H252 C278 0.929 . S
H253 C281 0.930 . S
H254 C282 0.932 . S
H255 C285 0.929 . S
H256 C284 0.931 . S
H257 C287 0.929 . S
H258 C291 0.932 . S
H259 C288 0.931 . S
H260 C290 0.929 . S
H261 C293 0.929 . S
H262 C294 0.930 . S
H263 C296 0.929 . S
H264 C297 0.931 . S
H265 C299 0.930 . S
H266 C300 0.932 . S
H267 C302 0.931 . S
H268 C303 0.929 . S
H269 C305 0.929 . S
H270 C306 0.931 . S
H271 C308 0.929 . S
N272 C292 1.433 . S
N272 C298 1.435 . S
N272 C304 1.423 . S
H273 C309 0.932 . S
C274 N249 1.433 . S
C274 C275 1.363 . S
C274 C279 1.370 . S
C275 H248 0.929 1_545 S
C275 C274 1.363 . S
C275 C276 1.385 1_545 S
C276 H250 0.930 . S
C276 C275 1.385 1_565 S
C276 C277 1.357 1_565 S
C277 C276 1.357 1_545 S
C277 C278 1.406 . S
C278 H252 0.929 . S
C278 C277 1.406 . S
C278 C279 1.391 . S
C279 H251 0.931 . S
C279 C274 1.370 . S
C279 C278 1.391 . S
C280 N249 1.435 . S
C280 C281 1.358 . S
C280 C285 1.371 . S
C281 H253 0.930 . S
C281 C280 1.358 . S
C281 C282 1.405 1_545 S
C282 H254 0.932 . S
C282 C281 1.405 1_565 S
C282 C283 1.383 . S
C283 C282 1.383 . S
C283 C284 1.393 1_565 S
C284 H256 0.931 . S
C284 C283 1.393 1_545 S
C284 C285 1.382 . S
C285 H255 0.929 . S
C285 C280 1.371 . S
C285 C284 1.382 . S
C286 N249 1.423 . S
C286 C287 1.362 . S
C286 C291 1.388 . S
C287 H257 0.929 . S
C287 C286 1.362 . S
C287 C288 1.376 . S
C288 H259 0.931 . S
C288 C287 1.376 . S
C288 C289 1.396 . S
C289 C288 1.396 . S
C289 C290 1.348 . S
C289 C307 1.472 . S
C290 H260 0.929 . S
C290 C289 1.348 . S
C290 C291 1.443 . S
C291 H258 0.932 . S
C291 C286 1.388 . S
C291 C290 1.443 . S
C292 N272 1.433 . S
C292 C293 1.363 . S
C292 C297 1.370 . S
C293 H261 0.929 . S
C293 C292 1.363 . S
C293 C294 1.385 . S
C294 H262 0.930 . S
C294 C293 1.385 . S
C294 C295 1.357 . S
C295 C294 1.357 . S
C295 C296 1.406 . S
C296 H263 0.929 . S
C296 C295 1.406 . S
C296 C297 1.391 . S
C297 H264 0.931 . S
C297 C292 1.370 . S
C297 C296 1.391 . S
C298 N272 1.435 . S
C298 C299 1.358 . S
C298 C303 1.371 . S
C299 H265 0.930 . S
C299 C298 1.358 . S
C299 C300 1.405 . S
C300 H266 0.932 . S
C300 C299 1.405 . S
C300 C301 1.383 . S
C301 C300 1.383 . S
C301 C302 1.393 . S
C302 H267 0.931 . S
C302 C301 1.393 . S
C302 C303 1.382 . S
C303 H268 0.929 . S
C303 C298 1.371 . S
C303 C302 1.382 . S
C304 N272 1.423 . S
C304 C305 1.362 . S
C304 C309 1.388 . S
C305 H269 0.929 . S
C305 C304 1.362 . S
C305 C306 1.376 . S
C306 H270 0.931 . S
C306 C305 1.376 . S
C306 C307 1.396 . S
C307 C289 1.472 . S
C307 C306 1.396 . S
C307 C308 1.348 . S
C308 H271 0.929 . S
C308 C307 1.348 . S
C308 C309 1.443 . S
C309 H273 0.932 . S
C309 C304 1.388 . S
C309 C308 1.443 . S
H310 C337 0.929 . S
N311 C336 1.433 . S
N311 C342 1.435 . S
N311 C348 1.423 . S
H312 C338 0.930 . S
H313 C341 0.931 . S
H314 C340 0.929 . S
H315 C343 0.930 . S
H316 C344 0.932 . S
H317 C347 0.929 . S
H318 C346 0.931 . S
H319 C349 0.929 . S
H320 C353 0.932 . S
H321 C350 0.931 . S
H322 C352 0.929 . S
H323 C355 0.929 . S
H324 C356 0.930 . S
H325 C358 0.929 . S
H326 C359 0.931 . S
H327 C361 0.930 . S
H328 C362 0.932 . S
H329 C364 0.931 . S
H330 C365 0.929 . S
H331 C367 0.929 . S
H332 C368 0.931 . S
H333 C370 0.929 . S
N334 C354 1.433 . S
N334 C360 1.435 . S
N334 C366 1.423 . S
H335 C371 0.932 . S
C336 N311 1.433 . S
C336 C337 1.363 1_565 S
C336 C341 1.370 . S
C337 H310 0.929 . S
C337 C336 1.363 1_545 S
C337 C338 1.385 . S
C338 H312 0.930 . S
C338 C337 1.385 . S
C338 C339 1.357 . S
C339 C338 1.357 . S
C339 C340 1.406 1_545 S
C340 H314 0.929 . S
C340 C339 1.406 1_565 S
C340 C341 1.391 . S
C341 H313 0.931 . S
C341 C336 1.370 . S
C341 C340 1.391 . S
C342 N311 1.435 . S
C342 C343 1.358 1_565 S
C342 C347 1.371 . S
C343 H315 0.930 . S
C343 C342 1.358 1_545 S
C343 C344 1.405 . S
C344 H316 0.932 . S
C344 C343 1.405 . S
C344 C345 1.383 . S
C345 C344 1.383 . S
C345 C346 1.393 . S
C346 H318 0.931 . S
C346 C345 1.393 . S
C346 C347 1.382 1_545 S
C347 H317 0.929 . S
C347 C342 1.371 . S
C347 C346 1.382 1_565 S
C348 N311 1.423 . S
C348 C349 1.362 . S
C348 C353 1.388 . S
C349 H319 0.929 . S
C349 C348 1.362 . S
C349 C350 1.376 . S
C350 H321 0.931 . S
C350 C349 1.376 . S
C350 C351 1.396 . S
C351 C350 1.396 . S
C351 C352 1.348 . S
C351 C369 1.472 . S
C352 H322 0.929 . S
C352 C351 1.348 . S
C352 C353 1.443 . S
C353 H320 0.932 . S
C353 C348 1.388 . S
C353 C352 1.443 . S
C354 N334 1.433 . S
C354 C355 1.363 . S
C354 C359 1.370 . S
C355 H323 0.929 . S
C355 C354 1.363 . S
C355 C356 1.385 . S
C356 H324 0.930 . S
C356 C355 1.385 . S
C356 C357 1.357 . S
C357 C356 1.357 . S
C357 C358 1.406 . S
C358 H325 0.929 . S
C358 C357 1.406 . S
C358 C359 1.391 . S
C359 H326 0.931 . S
C359 C354 1.370 . S
C359 C358 1.391 . S
C360 N334 1.435 . S
C360 C361 1.358 . S
C360 C365 1.371 . S
C361 H327 0.930 . S
C361 C360 1.358 . S
C361 C362 1.405 . S
C362 H328 0.932 . S
C362 C361 1.405 . S
C362 C363 1.383 . S
C363 C362 1.383 . S
C363 C364 1.393 . S
C364 H329 0.931 . S
C364 C363 1.393 . S
C364 C365 1.382 . S
C365 H330 0.929 . S
C365 C360 1.371 . S
C365 C364 1.382 . S
C366 N334 1.423 . S
C366 C367 1.362 . S
C366 C371 1.388 . S
C367 H331 0.929 . S
C367 C366 1.362 . S
C367 C368 1.376 . S
C368 H332 0.931 . S
C368 C367 1.376 . S
C368 C369 1.396 . S
C369 C351 1.472 . S
C369 C368 1.396 . S
C369 C370 1.348 . S
C370 H333 0.929 . S
C370 C369 1.348 . S
C370 C371 1.443 . S
C371 H335 0.932 . S
C371 C366 1.388 . S
C371 C370 1.443 . S
H372 C399 0.929 . S
N373 C398 1.433 . S
N373 C404 1.435 . S
N373 C410 1.423 . S
H374 C400 0.930 . S
H375 C403 0.931 . S
H376 C402 0.929 . S
H377 C405 0.930 . S
H378 C406 0.932 . S
H379 C409 0.929 . S
H380 C408 0.931 . S
H381 C411 0.929 1_556 S
H382 C415 0.932 . S
H383 C412 0.931 1_556 S
H384 C414 0.929 . S
H385 C417 0.929 . S
H386 C418 0.930 . S
H387 C420 0.929 . S
H388 C421 0.931 . S
H389 C423 0.930 . S
H390 C424 0.932 . S
H391 C426 0.931 . S
H392 C427 0.929 . S
H393 C429 0.929 1_556 S
H394 C430 0.931 1_556 S
H395 C432 0.929 . S
N396 C416 1.433 . S
N396 C422 1.435 . S
N396 C428 1.423 . S
H397 C433 0.932 . S
C398 N373 1.433 . S
C398 C399 1.363 . S
C398 C403 1.370 . S
C399 H372 0.929 . S
C399 C398 1.363 . S
C399 C400 1.385 1_554 S
C400 H374 0.930 . S
C400 C399 1.385 1_556 S
C400 C401 1.357 . S
C401 C400 1.357 . S
C401 C402 1.406 . S
C402 H376 0.929 . S
C402 C401 1.406 . S
C402 C403 1.391 1_556 S
C403 H375 0.931 . S
C403 C398 1.370 . S
C403 C402 1.391 1_554 S
C404 N373 1.435 . S
C404 C405 1.358 . S
C404 C409 1.371 . S
C405 H377 0.930 . S
C405 C404 1.358 . S
C405 C406 1.405 . S
C406 H378 0.932 . S
C406 C405 1.405 . S
C406 C407 1.383 . S
C407 C406 1.383 . S
C407 C408 1.393 . S
C408 H380 0.931 . S
C408 C407 1.393 . S
C408 C409 1.382 . S
C409 H379 0.929 . S
C409 C404 1.371 . S
C409 C408 1.382 . S
C410 N373 1.423 . S
C410 C411 1.362 . S
C410 C415 1.388 . S
C411 H381 0.929 1_554 S
C411 C410 1.362 . S
C411 C412 1.376 . S
C412 H383 0.931 1_554 S
C412 C411 1.376 . S
C412 C413 1.396 . S
C413 C412 1.396 . S
C413 C414 1.348 . S
C413 C431 1.472 . S
C414 H384 0.929 . S
C414 C413 1.348 . S
C414 C415 1.443 . S
C415 H382 0.932 . S
C415 C410 1.388 . S
C415 C414 1.443 . S
C416 N396 1.433 . S
C416 C417 1.363 . S
C416 C421 1.370 . S
C417 H385 0.929 . S
C417 C416 1.363 . S
C417 C418 1.385 1_554 S
C418 H386 0.930 . S
C418 C417 1.385 1_556 S
C418 C419 1.357 . S
C419 C418 1.357 . S
C419 C420 1.406 . S
C420 H387 0.929 . S
C420 C419 1.406 . S
C420 C421 1.391 1_556 S
C421 H388 0.931 . S
C421 C416 1.370 . S
C421 C420 1.391 1_554 S
C422 N396 1.435 . S
C422 C423 1.358 . S
C422 C427 1.371 . S
C423 H389 0.930 . S
C423 C422 1.358 . S
C423 C424 1.405 . S
C424 H390 0.932 . S
C424 C423 1.405 . S
C424 C425 1.383 . S
C425 C424 1.383 . S
C425 C426 1.393 . S
C426 H391 0.931 . S
C426 C425 1.393 . S
C426 C427 1.382 . S
C427 H392 0.929 . S
C427 C422 1.371 . S
C427 C426 1.382 . S
C428 N396 1.423 . S
C428 C429 1.362 . S
C428 C433 1.388 . S
C429 H393 0.929 1_554 S
C429 C428 1.362 . S
C429 C430 1.376 . S
C430 H394 0.931 1_554 S
C430 C429 1.376 . S
C430 C431 1.396 . S
C431 C413 1.472 . S
C431 C430 1.396 . S
C431 C432 1.348 . S
C432 H395 0.929 . S
C432 C431 1.348 . S
C432 C433 1.443 . S
C433 H397 0.932 . S
C433 C428 1.388 . S
C433 C432 1.443 . S
H434 C461 0.929 . S
N435 C460 1.433 . S
N435 C466 1.435 . S
N435 C472 1.423 . S
H436 C462 0.930 . S
H437 C465 0.931 . S
H438 C464 0.929 . S
H439 C467 0.930 . S
H440 C468 0.932 . S
H441 C471 0.929 . S
H442 C470 0.931 . S
H443 C473 0.929 . S
H444 C477 0.932 . S
H445 C474 0.931 . S
H446 C476 0.929 . S
H447 C479 0.929 . S
H448 C480 0.930 . S
H449 C482 0.929 . S
H450 C483 0.931 . S
H451 C485 0.930 . S
H452 C486 0.932 . S
H453 C488 0.931 . S
H454 C489 0.929 . S
H455 C491 0.929 . S
H456 C492 0.931 . S
H457 C494 0.929 . S
N458 C478 1.433 . S
N458 C484 1.435 . S
N458 C490 1.423 . S
H459 C495 0.932 . S
C460 N435 1.433 . S
C460 C461 1.363 . S
C460 C465 1.370 . S
C461 H434 0.929 . S
C461 C460 1.363 . S
C461 C462 1.385 . S
C462 H436 0.930 . S
C462 C461 1.385 . S
C462 C463 1.357 . S
C463 C462 1.357 . S
C463 C464 1.406 . S
C464 H438 0.929 . S
C464 C463 1.406 . S
C464 C465 1.391 . S
C465 H437 0.931 . S
C465 C460 1.370 . S
C465 C464 1.391 . S
C466 N435 1.435 . S
C466 C467 1.358 . S
C466 C471 1.371 . S
C467 H439 0.930 . S
C467 C466 1.358 . S
C467 C468 1.405 . S
C468 H440 0.932 . S
C468 C467 1.405 . S
C468 C469 1.383 . S
C469 C468 1.383 . S
C469 C470 1.393 . S
C470 H442 0.931 . S
C470 C469 1.393 . S
C470 C471 1.382 . S
C471 H441 0.929 . S
C471 C466 1.371 . S
C471 C470 1.382 . S
C472 N435 1.423 . S
C472 C473 1.362 . S
C472 C477 1.388 . S
C473 H443 0.929 . S
C473 C472 1.362 . S
C473 C474 1.376 . S
C474 H445 0.931 . S
C474 C473 1.376 . S
C474 C475 1.396 . S
C475 C474 1.396 . S
C475 C476 1.348 . S
C475 C493 1.472 1_455 S
C476 H446 0.929 . S
C476 C475 1.348 . S
C476 C477 1.443 . S
C477 H444 0.932 . S
C477 C472 1.388 . S
C477 C476 1.443 . S
C478 N458 1.433 . S
C478 C479 1.363 . S
C478 C483 1.370 . S
C479 H447 0.929 . S
C479 C478 1.363 . S
C479 C480 1.385 . S
C480 H448 0.930 . S
C480 C479 1.385 . S
C480 C481 1.357 . S
C481 C480 1.357 . S
C481 C482 1.406 . S
C482 H449 0.929 . S
C482 C481 1.406 . S
C482 C483 1.391 . S
C483 H450 0.931 . S
C483 C478 1.370 . S
C483 C482 1.391 . S
C484 N458 1.435 . S
C484 C485 1.358 . S
C484 C489 1.371 . S
C485 H451 0.930 . S
C485 C484 1.358 . S
C485 C486 1.405 . S
C486 H452 0.932 . S
C486 C485 1.405 . S
C486 C487 1.383 . S
C487 C486 1.383 . S
C487 C488 1.393 . S
C488 H453 0.931 . S
C488 C487 1.393 . S
C488 C489 1.382 . S
C489 H454 0.929 . S
C489 C484 1.371 . S
C489 C488 1.382 . S
C490 N458 1.423 . S
C490 C491 1.362 . S
C490 C495 1.388 . S
C491 H455 0.929 . S
C491 C490 1.362 . S
C491 C492 1.376 . S
C492 H456 0.931 . S
C492 C491 1.376 . S
C492 C493 1.396 . S
C493 C475 1.472 1_655 S
C493 C492 1.396 . S
C493 C494 1.348 . S
C494 H457 0.929 . S
C494 C493 1.348 . S
C494 C495 1.443 . S
C495 H459 0.932 . S
C495 C490 1.388 . S
C495 C494 1.443 . S
Fe496 O497 1.886 . S
Fe496 O500 1.715 1_455 S
Fe496 O505 2.077 . S
Fe496 O510 1.935 1_455 S
Fe496 O516 2.077 . S
Fe496 O525 1.935 1_455 S
O497 Fe496 1.886 . S
O497 Fe499 1.715 . S
Fe498 O500 1.886 . S
Fe498 O501 1.715 . S
Fe498 O508 1.935 . S
Fe498 O509 2.077 . S
Fe498 O515 1.935 . S
Fe498 O524 2.077 . S
Fe499 O497 1.715 . S
Fe499 O502 1.886 . S
Fe499 O506 1.935 . S
Fe499 O511 2.077 . S
Fe499 O517 1.935 . S
Fe499 O521 2.077 . S
O500 Fe496 1.715 1_655 S
O500 Fe498 1.886 . S
O501 Fe498 1.715 . S
O501 Fe503 1.886 . S
O502 Fe499 1.886 . S
O502 Fe503 1.715 1_455 S
Fe503 O501 1.886 . S
Fe503 O502 1.715 1_655 S
Fe503 O507 2.077 . S
Fe503 O512 1.935 1_655 S
Fe503 O514 2.077 . S
Fe503 O522 1.935 1_655 S
C504 O516 1.381 . S
C504 O517 1.421 . S
O505 Fe496 2.077 . S
O505 C518 1.381 . S
O506 Fe499 1.935 . S
O506 C518 1.421 . S
O507 Fe503 2.077 . S
O507 C523 1.381 . S
O508 Fe498 1.935 . S
O508 C523 1.421 . S
O509 Fe498 2.077 . S
O509 C513 1.381 . S
O510 Fe496 1.935 1_655 S
O510 C513 1.421 . S
O511 Fe499 2.077 . S
O511 C519 1.381 . S
O512 Fe503 1.935 1_455 S
O512 C519 1.421 . S
C513 O509 1.381 . S
C513 O510 1.421 . S
O514 Fe503 2.077 . S
O514 C526 1.381 . S
O515 Fe498 1.935 . S
O515 C526 1.421 . S
O516 Fe496 2.077 . S
O516 C504 1.381 . S
O517 Fe499 1.935 . S
O517 C504 1.421 . S
C518 O505 1.381 . S
C518 O506 1.421 . S
C519 O511 1.381 . S
C519 O512 1.421 . S
C520 O521 1.381 . S
C520 O522 1.421 . S
O521 Fe499 2.077 . S
O521 C520 1.381 . S
O522 Fe503 1.935 1_455 S
O522 C520 1.421 . S
C523 O507 1.381 . S
C523 O508 1.421 . S
O524 Fe498 2.077 . S
O524 C527 1.381 . S
O525 Fe496 1.935 1_655 S
O525 C527 1.421 . S
C526 O514 1.381 . S
C526 O515 1.421 . S
C527 O524 1.381 . S
C527 O525 1.421 . S
Fe528 O529 1.886 . S
Fe528 O532 1.715 . S
Fe528 O537 2.077 . S
Fe528 O542 1.935 . S
Fe528 O548 2.077 . S
Fe528 O557 1.935 . S
O529 Fe528 1.886 . S
O529 Fe531 1.715 . S
Fe530 O532 1.886 . S
Fe530 O533 1.715 . S
Fe530 O540 1.935 . S
Fe530 O541 2.077 . S
Fe530 O547 1.935 . S
Fe530 O556 2.077 . S
Fe531 O529 1.715 . S
Fe531 O534 1.886 . S
Fe531 O538 1.935 . S
Fe531 O543 2.077 . S
Fe531 O549 1.935 . S
Fe531 O553 2.077 . S
O532 Fe528 1.715 . S
O532 Fe530 1.886 . S
O533 Fe530 1.715 . S
O533 Fe535 1.886 . S
O534 Fe531 1.886 . S
O534 Fe535 1.715 . S
Fe535 O533 1.886 . S
Fe535 O534 1.715 . S
Fe535 O539 2.077 . S
Fe535 O544 1.935 . S
Fe535 O546 2.077 . S
Fe535 O554 1.935 . S
C536 O548 1.381 . S
C536 O549 1.421 . S
O537 Fe528 2.077 . S
O537 C550 1.381 . S
O538 Fe531 1.935 . S
O538 C550 1.421 . S
O539 Fe535 2.077 . S
O539 C555 1.381 . S
O540 Fe530 1.935 . S
O540 C555 1.421 . S
O541 Fe530 2.077 . S
O541 C545 1.381 . S
O542 Fe528 1.935 . S
O542 C545 1.421 . S
O543 Fe531 2.077 . S
O543 C551 1.381 . S
O544 Fe535 1.935 . S
O544 C551 1.421 . S
C545 O541 1.381 . S
C545 O542 1.421 . S
O546 Fe535 2.077 . S
O546 C558 1.381 . S
O547 Fe530 1.935 . S
O547 C558 1.421 . S
O548 Fe528 2.077 . S
O548 C536 1.381 . S
O549 Fe531 1.935 . S
O549 C536 1.421 . S
C550 O537 1.381 . S
C550 O538 1.421 . S
C551 O543 1.381 . S
C551 O544 1.421 . S
C552 O553 1.381 . S
C552 O554 1.421 . S
O553 Fe531 2.077 . S
O553 C552 1.381 . S
O554 Fe535 1.935 . S
O554 C552 1.421 . S
C555 O539 1.381 . S
C555 O540 1.421 . S
O556 Fe530 2.077 . S
O556 C559 1.381 . S
O557 Fe528 1.935 . S
O557 C559 1.421 . S
C558 O546 1.381 . S
C558 O547 1.421 . S
C559 O556 1.381 . S
C559 O557 1.421 . S
Fe560 O561 1.886 . S
Fe560 O564 1.715 . S
Fe560 O569 2.077 . S
Fe560 O574 1.935 . S
Fe560 O580 2.077 . S
Fe560 O589 1.935 . S
O561 Fe560 1.886 . S
O561 Fe563 1.715 . S
Fe562 O564 1.886 . S
Fe562 O565 1.715 . S
Fe562 O572 1.935 . S
Fe562 O573 2.077 . S
Fe562 O579 1.935 . S
Fe562 O588 2.077 . S
Fe563 O561 1.715 . S
Fe563 O566 1.886 . S
Fe563 O570 1.935 . S
Fe563 O575 2.077 . S
Fe563 O581 1.935 . S
Fe563 O585 2.077 . S
O564 Fe560 1.715 . S
O564 Fe562 1.886 . S
O565 Fe562 1.715 . S
O565 Fe567 1.886 . S
O566 Fe563 1.886 . S
O566 Fe567 1.715 . S
Fe567 O565 1.886 . S
Fe567 O566 1.715 . S
Fe567 O571 2.077 . S
Fe567 O576 1.935 . S
Fe567 O578 2.077 . S
Fe567 O586 1.935 . S
C568 O580 1.381 . S
C568 O581 1.421 . S
O569 Fe560 2.077 . S
O569 C582 1.381 . S
O570 Fe563 1.935 . S
O570 C582 1.421 . S
O571 Fe567 2.077 . S
O571 C587 1.381 . S
O572 Fe562 1.935 . S
O572 C587 1.421 . S
O573 Fe562 2.077 . S
O573 C577 1.381 . S
O574 Fe560 1.935 . S
O574 C577 1.421 . S
O575 Fe563 2.077 . S
O575 C583 1.381 . S
O576 Fe567 1.935 . S
O576 C583 1.421 . S
C577 O573 1.381 . S
C577 O574 1.421 . S
O578 Fe567 2.077 . S
O578 C590 1.381 . S
O579 Fe562 1.935 . S
O579 C590 1.421 . S
O580 Fe560 2.077 . S
O580 C568 1.381 . S
O581 Fe563 1.935 . S
O581 C568 1.421 . S
C582 O569 1.381 . S
C582 O570 1.421 . S
C583 O575 1.381 . S
C583 O576 1.421 . S
C584 O585 1.381 . S
C584 O586 1.421 . S
O585 Fe563 2.077 . S
O585 C584 1.381 . S
O586 Fe567 1.935 . S
O586 C584 1.421 . S
C587 O571 1.381 . S
C587 O572 1.421 . S
O588 Fe562 2.077 . S
O588 C591 1.381 . S
O589 Fe560 1.935 . S
O589 C591 1.421 . S
C590 O578 1.381 . S
C590 O579 1.421 . S
C591 O588 1.381 . S
C591 O589 1.421 . S
Fe592 O593 1.886 . S
Fe592 O596 1.715 . S
Fe592 O601 2.077 1_455 S
Fe592 O606 1.935 1_455 S
Fe592 O612 2.077 . S
Fe592 O621 1.935 . S
O593 Fe592 1.886 . S
O593 Fe595 1.715 . S
Fe594 O596 1.886 . S
Fe594 O597 1.715 . S
Fe594 O604 1.935 1_455 S
Fe594 O605 2.077 1_455 S
Fe594 O611 1.935 . S
Fe594 O620 2.077 . S
Fe595 O593 1.715 . S
Fe595 O598 1.886 . S
Fe595 O602 1.935 1_455 S
Fe595 O607 2.077 1_455 S
Fe595 O613 1.935 . S
Fe595 O617 2.077 . S
O596 Fe592 1.715 . S
O596 Fe594 1.886 . S
O597 Fe594 1.715 . S
O597 Fe599 1.886 . S
O598 Fe595 1.886 . S
O598 Fe599 1.715 . S
Fe599 O597 1.886 . S
Fe599 O598 1.715 . S
Fe599 O603 2.077 1_455 S
Fe599 O608 1.935 1_455 S
Fe599 O610 2.077 . S
Fe599 O618 1.935 . S
C600 O612 1.381 . S
C600 O613 1.421 . S
O601 Fe592 2.077 1_655 S
O601 C614 1.381 . S
O602 Fe595 1.935 1_655 S
O602 C614 1.421 . S
O603 Fe599 2.077 1_655 S
O603 C619 1.381 . S
O604 Fe594 1.935 1_655 S
O604 C619 1.421 . S
O605 Fe594 2.077 1_655 S
O605 C609 1.381 . S
O606 Fe592 1.935 1_655 S
O606 C609 1.421 . S
O607 Fe595 2.077 1_655 S
O607 C615 1.381 . S
O608 Fe599 1.935 1_655 S
O608 C615 1.421 . S
C609 O605 1.381 . S
C609 O606 1.421 . S
O610 Fe599 2.077 . S
O610 C622 1.381 . S
O611 Fe594 1.935 . S
O611 C622 1.421 . S
O612 Fe592 2.077 . S
O612 C600 1.381 . S
O613 Fe595 1.935 . S
O613 C600 1.421 . S
C614 O601 1.381 . S
C614 O602 1.421 . S
C615 O607 1.381 . S
C615 O608 1.421 . S
C616 O617 1.381 . S
C616 O618 1.421 . S
O617 Fe595 2.077 . S
O617 C616 1.381 . S
O618 Fe599 1.935 . S
O618 C616 1.421 . S
C619 O603 1.381 . S
C619 O604 1.421 . S
O620 Fe594 2.077 . S
O620 C623 1.381 . S
O621 Fe592 1.935 . S
O621 C623 1.421 . S
C622 O610 1.381 . S
C622 O611 1.421 . S
C623 O620 1.381 . S
C623 O621 1.421 . S
C624 C625 1.363 . S
C624 C630 1.379 . S
C624 N632 1.356 . S
C625 C624 1.363 . S
C625 C631 1.363 . S
C626 C627 1.363 . S
C626 C631 1.379 . S
C626 N633 1.356 . S
C627 C626 1.363 . S
C627 C630 1.363 . S
N628 C630 1.356 . S
N628 H640 0.984 . S
N628 H641 0.985 . S
N629 C631 1.356 . S
N629 H634 0.984 . S
N629 H635 0.985 . S
C630 C624 1.379 . S
C630 C627 1.363 . S
C630 N628 1.356 . S
C631 C625 1.363 . S
C631 C626 1.379 . S
C631 N629 1.356 . S
N632 C624 1.356 . S
N632 H638 0.984 . S
N632 H639 0.984 . S
N633 C626 1.356 . S
N633 H636 0.984 . S
N633 H637 0.985 . S
H634 N629 0.984 . S
H635 N629 0.985 . S
H636 N633 0.984 . S
H637 N633 0.985 . S
H638 N632 0.984 . S
H639 N632 0.984 . S
H640 N628 0.984 . S
H641 N628 0.985 . S
C642 C643 1.363 . S
C642 C648 1.379 . S
C642 N650 1.356 . S
C643 C642 1.363 . S
C643 C649 1.363 . S
C644 C645 1.363 . S
C644 C649 1.379 . S
C644 N651 1.356 . S
C645 C644 1.363 . S
C645 C648 1.363 . S
N646 C648 1.356 . S
N646 H658 0.984 . S
N646 H659 0.985 . S
N647 C649 1.356 . S
N647 H652 0.984 . S
N647 H653 0.985 . S
C648 C642 1.379 . S
C648 C645 1.363 . S
C648 N646 1.356 . S
C649 C643 1.363 . S
C649 C644 1.379 . S
C649 N647 1.356 . S
N650 C642 1.356 . S
N650 H656 0.984 . S
N650 H657 0.984 . S
N651 C644 1.356 . S
N651 H654 0.984 . S
N651 H655 0.985 . S
H652 N647 0.984 . S
H653 N647 0.985 . S
H654 N651 0.984 . S
H655 N651 0.985 . S
H656 N650 0.984 . S
H657 N650 0.984 . S
H658 N646 0.984 . S
H659 N646 0.985 . S
C660 C661 1.363 . S
C660 C666 1.379 . S
C660 N668 1.356 . S
C661 C660 1.363 . S
C661 C667 1.363 . S
C662 C663 1.363 . S
C662 C667 1.379 . S
C662 N669 1.356 . S
C663 C662 1.363 . S
C663 C666 1.363 . S
N664 C666 1.356 . S
N664 H676 0.984 . S
N664 H677 0.985 . S
N665 C667 1.356 . S
N665 H670 0.984 . S
N665 H671 0.985 . S
C666 C660 1.379 . S
C666 C663 1.363 . S
C666 N664 1.356 . S
C667 C661 1.363 . S
C667 C662 1.379 . S
C667 N665 1.356 . S
N668 C660 1.356 . S
N668 H674 0.984 . S
N668 H675 0.984 1_556 S
N669 C662 1.356 . S
N669 H672 0.984 . S
N669 H673 0.985 . S
H670 N665 0.984 . S
H671 N665 0.985 . S
H672 N669 0.984 . S
H673 N669 0.985 . S
H674 N668 0.984 . S
H675 N668 0.984 1_554 S
H676 N664 0.984 . S
H677 N664 0.985 . S
C678 C679 1.363 . S
C678 C684 1.379 . S
C678 N686 1.356 1_565 S
C679 C678 1.363 . S
C679 C685 1.363 . S
C680 C681 1.363 . S
C680 C685 1.379 . S
C680 N687 1.356 . S
C681 C680 1.363 . S
C681 C684 1.363 . S
N682 C684 1.356 . S
N682 H694 0.984 . S
N682 H695 0.985 . S
N683 C685 1.356 . S
N683 H688 0.984 . S
N683 H689 0.985 . S
C684 C678 1.379 . S
C684 C681 1.363 . S
C684 N682 1.356 . S
C685 C679 1.363 . S
C685 C680 1.379 . S
C685 N683 1.356 . S
N686 C678 1.356 1_545 S
N686 H692 0.984 . S
N686 H693 0.984 . S
N687 C680 1.356 . S
N687 H690 0.984 . S
N687 H691 0.985 . S
H688 N683 0.984 . S
H689 N683 0.985 . S
H690 N687 0.984 . S
H691 N687 0.985 . S
H692 N686 0.984 . S
H693 N686 0.984 . S
H694 N682 0.984 . S
H695 N682 0.985 . S
C696 C697 1.363 . S
C696 C702 1.379 . S
C696 N704 1.356 . S
C697 C696 1.363 . S
C697 C703 1.363 . S
C698 C699 1.363 . S
C698 C703 1.379 . S
C698 N705 1.356 . S
C699 C698 1.363 . S
C699 C702 1.363 . S
N700 C702 1.356 . S
N700 H712 0.984 . S
N700 H713 0.985 . S
N701 C703 1.356 . S
N701 H706 0.984 . S
N701 H707 0.985 . S
C702 C696 1.379 . S
C702 C699 1.363 . S
C702 N700 1.356 . S
C703 C697 1.363 . S
C703 C698 1.379 . S
C703 N701 1.356 . S
N704 C696 1.356 . S
N704 H710 0.984 . S
N704 H711 0.984 . S
N705 C698 1.356 . S
N705 H708 0.984 . S
N705 H709 0.985 . S
H706 N701 0.984 . S
H707 N701 0.985 . S
H708 N705 0.984 . S
H709 N705 0.985 . S
H710 N704 0.984 . S
H711 N704 0.984 . S
H712 N700 0.984 . S
H713 N700 0.985 . S
C714 C715 1.363 . S
C714 C720 1.379 . S
C714 N722 1.356 . S
C715 C714 1.363 . S
C715 C721 1.363 . S
C716 C717 1.363 . S
C716 C721 1.379 . S
C716 N723 1.356 . S
C717 C716 1.363 . S
C717 C720 1.363 . S
N718 C720 1.356 . S
N718 H730 0.984 . S
N718 H731 0.985 . S
N719 C721 1.356 1_565 S
N719 H724 0.984 . S
N719 H725 0.985 . S
C720 C714 1.379 . S
C720 C717 1.363 . S
C720 N718 1.356 . S
C721 C715 1.363 . S
C721 C716 1.379 . S
C721 N719 1.356 1_545 S
N722 C714 1.356 . S
N722 H728 0.984 . S
N722 H729 0.984 . S
N723 C716 1.356 . S
N723 H726 0.984 . S
N723 H727 0.985 . S
H724 N719 0.984 . S
H725 N719 0.985 . S
H726 N723 0.984 . S
H727 N723 0.985 . S
H728 N722 0.984 . S
H729 N722 0.984 . S
H730 N718 0.984 . S
H731 N718 0.985 . S
C732 C733 1.363 . S
C732 C738 1.379 . S
C732 N740 1.356 . S
C733 C732 1.363 . S
C733 C739 1.363 . S
C734 C735 1.363 . S
C734 C739 1.379 . S
C734 N741 1.356 . S
C735 C734 1.363 . S
C735 C738 1.363 . S
N736 C738 1.356 . S
N736 H748 0.984 . S
N736 H749 0.985 . S
N737 C739 1.356 . S
N737 H742 0.984 . S
N737 H743 0.985 1_565 S
C738 C732 1.379 . S
C738 C735 1.363 . S
C738 N736 1.356 . S
C739 C733 1.363 . S
C739 C734 1.379 . S
C739 N737 1.356 . S
N740 C732 1.356 . S
N740 H746 0.984 . S
N740 H747 0.984 . S
N741 C734 1.356 . S
N741 H744 0.984 . S
N741 H745 0.985 . S
H742 N737 0.984 . S
H743 N737 0.985 1_545 S
H744 N741 0.984 . S
H745 N741 0.985 . S
H746 N740 0.984 . S
H747 N740 0.984 . S
H748 N736 0.984 . S
H749 N736 0.985 . S
C750 C751 1.363 . S
C750 C756 1.379 . S
C750 N758 1.356 1_565 S
C751 C750 1.363 . S
C751 C757 1.363 . S
C752 C753 1.363 . S
C752 C757 1.379 . S
C752 N759 1.356 . S
C753 C752 1.363 . S
C753 C756 1.363 . S
N754 C756 1.356 . S
N754 H766 0.984 . S
N754 H767 0.985 . S
N755 C757 1.356 . S
N755 H760 0.984 . S
N755 H761 0.985 . S
C756 C750 1.379 . S
C756 C753 1.363 . S
C756 N754 1.356 . S
C757 C751 1.363 . S
C757 C752 1.379 . S
C757 N755 1.356 . S
N758 C750 1.356 1_545 S
N758 H764 0.984 . S
N758 H765 0.984 . S
N759 C752 1.356 . S
N759 H762 0.984 . S
N759 H763 0.985 . S
H760 N755 0.984 . S
H761 N755 0.985 . S
H762 N759 0.984 . S
H763 N759 0.985 . S
H764 N758 0.984 . S
H765 N758 0.984 . S
H766 N754 0.984 . S
H767 N754 0.985 . S
C768 C769 1.363 . S
C768 C774 1.379 . S
C768 N776 1.356 . S
C769 C768 1.363 . S
C769 C775 1.363 . S
C770 C771 1.363 . S
C770 C775 1.379 . S
C770 N777 1.356 . S
C771 C770 1.363 . S
C771 C774 1.363 . S
N772 C774 1.356 . S
N772 H784 0.984 . S
N772 H785 0.985 . S
N773 C775 1.356 . S
N773 H778 0.984 . S
N773 H779 0.985 . S
C774 C768 1.379 . S
C774 C771 1.363 . S
C774 N772 1.356 . S
C775 C769 1.363 . S
C775 C770 1.379 . S
C775 N773 1.356 . S
N776 C768 1.356 . S
N776 H782 0.984 . S
N776 H783 0.984 . S
N777 C770 1.356 . S
N777 H780 0.984 . S
N777 H781 0.985 . S
H778 N773 0.984 . S
H779 N773 0.985 . S
H780 N777 0.984 . S
H781 N777 0.985 . S
H782 N776 0.984 . S
H783 N776 0.984 . S
H784 N772 0.984 . S
H785 N772 0.985 . S
C786 C787 1.363 . S
C786 C792 1.379 . S
C786 N794 1.356 . S
C787 C786 1.363 . S
C787 C793 1.363 . S
C788 C789 1.363 . S
C788 C793 1.379 . S
C788 N795 1.356 . S
C789 C788 1.363 . S
C789 C792 1.363 . S
N790 C792 1.356 . S
N790 H802 0.984 . S
N790 H803 0.985 . S
N791 C793 1.356 1_545 S
N791 H796 0.984 . S
N791 H797 0.985 . S
C792 C786 1.379 . S
C792 C789 1.363 . S
C792 N790 1.356 . S
C793 C787 1.363 . S
C793 C788 1.379 . S
C793 N791 1.356 1_565 S
N794 C786 1.356 . S
N794 H800 0.984 . S
N794 H801 0.984 . S
N795 C788 1.356 . S
N795 H798 0.984 . S
N795 H799 0.985 . S
H796 N791 0.984 . S
H797 N791 0.985 . S
H798 N795 0.984 . S
H799 N795 0.985 . S
H800 N794 0.984 . S
H801 N794 0.984 . S
H802 N790 0.984 . S
H803 N790 0.985 . S
C804 C805 1.363 . S
C804 C810 1.379 . S
C804 N812 1.356 . S
C805 C804 1.363 . S
C805 C811 1.363 . S
C806 C807 1.363 . S
C806 C811 1.379 . S
C806 N813 1.356 . S
C807 C806 1.363 . S
C807 C810 1.363 . S
N808 C810 1.356 . S
N808 H820 0.984 . S
N808 H821 0.985 . S
N809 C811 1.356 . S
N809 H814 0.984 . S
N809 H815 0.985 . S
C810 C804 1.379 . S
C810 C807 1.363 . S
C810 N808 1.356 . S
C811 C805 1.363 . S
C811 C806 1.379 . S
C811 N809 1.356 . S
N812 C804 1.356 . S
N812 H818 0.984 . S
N812 H819 0.984 . S
N813 C806 1.356 . S
N813 H816 0.984 . S
N813 H817 0.985 . S
H814 N809 0.984 . S
H815 N809 0.985 . S
H816 N813 0.984 . S
H817 N813 0.985 . S
H818 N812 0.984 . S
H819 N812 0.984 . S
H820 N808 0.984 . S
H821 N808 0.985 . S
C822 C823 1.363 . S
C822 C828 1.379 . S
C822 N830 1.356 1_545 S
C823 C822 1.363 . S
C823 C829 1.363 . S
C824 C825 1.363 . S
C824 C829 1.379 . S
C824 N831 1.356 . S
C825 C824 1.363 . S
C825 C828 1.363 . S
N826 C828 1.356 . S
N826 H838 0.984 . S
N826 H839 0.985 . S
N827 C829 1.356 . S
N827 H832 0.984 . S
N827 H833 0.985 . S
C828 C822 1.379 . S
C828 C825 1.363 . S
C828 N826 1.356 . S
C829 C823 1.363 . S
C829 C824 1.379 . S
C829 N827 1.356 . S
N830 C822 1.356 1_565 S
N830 H836 0.984 . S
N830 H837 0.984 . S
N831 C824 1.356 . S
N831 H834 0.984 . S
N831 H835 0.985 . S
H832 N827 0.984 . S
H833 N827 0.985 . S
H834 N831 0.984 . S
H835 N831 0.985 . S
H836 N830 0.984 . S
H837 N830 0.984 . S
H838 N826 0.984 . S
H839 N826 0.985 . S
C840 C841 1.363 . S
C840 C846 1.379 . S
C840 N848 1.356 . S
C841 C840 1.363 . S
C841 C847 1.363 . S
C842 C843 1.363 . S
C842 C847 1.379 . S
C842 N849 1.356 . S
C843 C842 1.363 . S
C843 C846 1.363 . S
N844 C846 1.356 . S
N844 H856 0.984 . S
N844 H857 0.985 . S
N845 C847 1.356 . S
N845 H850 0.984 . S
N845 H851 0.985 . S
C846 C840 1.379 . S
C846 C843 1.363 . S
C846 N844 1.356 . S
C847 C841 1.363 . S
C847 C842 1.379 . S
C847 N845 1.356 . S
N848 C840 1.356 . S
N848 H854 0.984 . S
N848 H855 0.984 . S
N849 C842 1.356 . S
N849 H852 0.984 . S
N849 H853 0.985 . S
H850 N845 0.984 . S
H851 N845 0.985 . S
H852 N849 0.984 . S
H853 N849 0.985 . S
H854 N848 0.984 . S
H855 N848 0.984 . S
H856 N844 0.984 . S
H857 N844 0.985 . S
C858 C859 1.363 . S
C858 C864 1.379 . S
C858 N866 1.356 . S
C859 C858 1.363 . S
C859 C865 1.363 . S
C860 C861 1.363 . S
C860 C865 1.379 . S
C860 N867 1.356 . S
C861 C860 1.363 . S
C861 C864 1.363 . S
N862 C864 1.356 . S
N862 H874 0.984 . S
N862 H875 0.985 . S
N863 C865 1.356 . S
N863 H868 0.984 . S
N863 H869 0.985 . S
C864 C858 1.379 . S
C864 C861 1.363 . S
C864 N862 1.356 . S
C865 C859 1.363 . S
C865 C860 1.379 . S
C865 N863 1.356 . S
N866 C858 1.356 . S
N866 H872 0.984 . S
N866 H873 0.984 . S
N867 C860 1.356 . S
N867 H870 0.984 . S
N867 H871 0.985 . S
H868 N863 0.984 . S
H869 N863 0.985 . S
H870 N867 0.984 . S
H871 N867 0.985 . S
H872 N866 0.984 . S
H873 N866 0.984 . S
H874 N862 0.984 . S
H875 N862 0.985 . S
C876 C877 1.363 . S
C876 C882 1.379 . S
C876 N884 1.356 . S
C877 C876 1.363 . S
C877 C883 1.363 . S
C878 C879 1.363 . S
C878 C883 1.379 . S
C878 N885 1.356 . S
C879 C878 1.363 . S
C879 C882 1.363 . S
N880 C882 1.356 . S
N880 H892 0.984 . S
N880 H893 0.985 . S
N881 C883 1.356 . S
N881 H886 0.984 . S
N881 H887 0.985 . S
C882 C876 1.379 . S
C882 C879 1.363 . S
C882 N880 1.356 . S
C883 C877 1.363 . S
C883 C878 1.379 . S
C883 N881 1.356 . S
N884 C876 1.356 . S
N884 H890 0.984 . S
N884 H891 1.001 . S
N885 C878 1.356 . S
N885 H888 0.984 . S
N885 H889 0.985 . S
H886 N881 0.984 . S
H887 N881 0.985 . S
H888 N885 0.984 . S
H889 N885 0.985 . S
H890 N884 0.984 . S
H891 N884 1.001 . S
H892 N880 0.984 . S
H893 N880 0.985 . S
C894 C895 1.363 . S
C894 C900 1.379 . S
C894 N902 1.356 . S
C895 C894 1.363 . S
C895 C901 1.363 . S
C896 C897 1.363 . S
C896 C901 1.379 . S
C896 N903 1.356 . S
C897 C896 1.363 . S
C897 C900 1.363 . S
N898 C900 1.356 . S
N898 H910 0.984 . S
N898 H911 0.985 . S
N899 C901 1.356 . S
N899 H904 0.984 . S
N899 H905 0.985 . S
C900 C894 1.379 . S
C900 C897 1.363 . S
C900 N898 1.356 . S
C901 C895 1.363 . S
C901 C896 1.379 . S
C901 N899 1.356 . S
N902 C894 1.356 . S
N902 H908 0.984 . S
N902 H909 0.984 . S
N903 C896 1.356 . S
N903 H906 0.984 . S
N903 H907 0.985 . S
H904 N899 0.984 . S
H905 N899 0.985 . S
H906 N903 0.984 . S
H907 N903 0.985 . S
H908 N902 0.984 . S
H909 N902 0.984 . S
H910 N898 0.984 . S
H911 N898 0.985 . S
C912 C913 1.363 . S
C912 C918 1.379 . S
C912 N920 1.356 . S
C913 C912 1.363 . S
C913 C919 1.363 . S
C914 C915 1.363 . S
C914 C919 1.379 . S
C914 N921 1.356 . S
C915 C914 1.363 . S
C915 C918 1.363 . S
N916 C918 1.356 . S
N916 H928 0.984 . S
N916 H929 0.985 . S
N917 C919 1.356 . S
N917 H922 0.984 . S
N917 H923 0.985 . S
C918 C912 1.379 . S
C918 C915 1.363 . S
C918 N916 1.356 . S
C919 C913 1.363 . S
C919 C914 1.379 . S
C919 N917 1.356 . S
N920 C912 1.356 . S
N920 H926 0.984 . S
N920 H927 0.984 . S
N921 C914 1.356 . S
N921 H924 0.984 . S
N921 H925 0.985 . S
H922 N917 0.984 . S
H923 N917 0.985 . S
H924 N921 0.984 . S
H925 N921 0.985 . S
H926 N920 0.984 . S
H927 N920 0.984 . S
H928 N916 0.984 . S
H929 N916 0.985 . S
C930 C931 1.363 . S
C930 C936 1.379 . S
C930 N938 1.356 . S
C931 C930 1.363 . S
C931 C937 1.363 . S
C932 C933 1.363 . S
C932 C937 1.379 . S
C932 N939 1.356 . S
C933 C932 1.363 . S
C933 C936 1.363 . S
N934 C936 1.356 . S
N934 H946 0.984 . S
N934 H947 0.985 . S
N935 C937 1.356 . S
N935 H940 0.984 . S
N935 H941 0.985 . S
C936 C930 1.379 . S
C936 C933 1.363 . S
C936 N934 1.356 . S
C937 C931 1.363 . S
C937 C932 1.379 . S
C937 N935 1.356 . S
N938 C930 1.356 . S
N938 H944 0.984 . S
N938 H945 0.984 . S
N939 C932 1.356 . S
N939 H942 0.984 . S
N939 H943 0.985 . S
H940 N935 0.984 . S
H941 N935 0.985 . S
H942 N939 0.984 . S
H943 N939 0.985 . S
H944 N938 0.984 . S
H945 N938 0.984 . S
H946 N934 0.984 . S
H947 N934 0.985 . S
C948 C949 1.363 . S
C948 C954 1.379 . S
C948 N956 1.356 . S
C949 C948 1.363 . S
C949 C955 1.363 . S
C950 C951 1.363 . S
C950 C955 1.379 . S
C950 N957 1.356 . S
C951 C950 1.363 . S
C951 C954 1.363 . S
N952 C954 1.356 . S
N952 H964 0.984 . S
N952 H965 0.985 . S
N953 C955 1.356 . S
N953 H958 0.984 . S
N953 H959 0.985 . S
C954 C948 1.379 . S
C954 C951 1.363 . S
C954 N952 1.356 . S
C955 C949 1.363 . S
C955 C950 1.379 . S
C955 N953 1.356 . S
N956 C948 1.356 . S
N956 H962 0.984 . S
N956 H963 0.984 . S
N957 C950 1.356 . S
N957 H960 0.984 . S
N957 H961 0.985 . S
H958 N953 0.984 . S
H959 N953 0.985 . S
H960 N957 0.984 . S
H961 N957 0.985 . S
H962 N956 0.984 . S
H963 N956 0.984 . S
H964 N952 0.984 . S
H965 N952 0.985 . S
C966 C967 1.363 . S
C966 C972 1.379 . S
C966 N974 1.356 . S
C967 C966 1.363 . S
C967 C973 1.363 . S
C968 C969 1.363 . S
C968 C973 1.379 . S
C968 N975 1.356 . S
C969 C968 1.363 . S
C969 C972 1.363 . S
N970 C972 1.356 . S
N970 H982 0.984 . S
N970 H983 0.985 . S
N971 C973 1.356 . S
N971 H976 0.984 . S
N971 H977 0.985 . S
C972 C966 1.379 . S
C972 C969 1.363 . S
C972 N970 1.356 . S
C973 C967 1.363 . S
C973 C968 1.379 . S
C973 N971 1.356 . S
N974 C966 1.356 . S
N974 H980 0.984 . S
N974 H981 0.984 . S
N975 C968 1.356 . S
N975 H978 0.984 . S
N975 H979 0.985 . S
H976 N971 0.984 . S
H977 N971 0.985 . S
H978 N975 0.984 . S
H979 N975 0.985 . S
H980 N974 0.984 . S
H981 N974 0.984 . S
H982 N970 0.984 . S
H983 N970 0.985 . S
C984 C985 1.363 . S
C984 C990 1.379 . S
C984 N992 1.356 . S
C985 C984 1.363 . S
C985 C991 1.363 . S
C986 C987 1.363 . S
C986 C991 1.379 . S
C986 N993 1.356 . S
C987 C986 1.363 . S
C987 C990 1.363 . S
N988 C990 1.356 . S
N988 H1000 0.984 . S
N988 H1001 0.985 . S
N989 C991 1.356 . S
N989 H994 0.984 . S
N989 H995 0.985 . S
C990 C984 1.379 . S
C990 C987 1.363 . S
C990 N988 1.356 . S
C991 C985 1.363 . S
C991 C986 1.379 . S
C991 N989 1.356 . S
N992 C984 1.356 . S
N992 H998 0.984 . S
N992 H999 0.984 . S
N993 C986 1.356 . S
N993 H996 0.984 . S
N993 H997 0.985 . S
H994 N989 0.984 . S
H995 N989 0.985 . S
H996 N993 0.984 . S
H997 N993 0.985 . S
H998 N992 0.984 . S
H999 N992 0.984 . S
H1000 N988 0.984 . S
H1001 N988 0.985 . S
C1002 C1003 1.363 . S
C1002 C1008 1.379 . S
C1002 N1010 1.356 . S
C1003 C1002 1.363 . S
C1003 C1009 1.363 . S
C1004 C1005 1.363 . S
C1004 C1009 1.379 . S
C1004 N1011 1.356 . S
C1005 C1004 1.363 . S
C1005 C1008 1.363 . S
N1006 C1008 1.356 . S
N1006 H1018 0.984 . S
N1006 H1019 0.985 . S
N1007 C1009 1.356 . S
N1007 H1012 0.984 . S
N1007 H1013 0.985 . S
C1008 C1002 1.379 . S
C1008 C1005 1.363 . S
C1008 N1006 1.356 . S
C1009 C1003 1.363 . S
C1009 C1004 1.379 . S
C1009 N1007 1.356 . S
N1010 C1002 1.356 . S
N1010 H1016 0.984 . S
N1010 H1017 0.984 . S
N1011 C1004 1.356 . S
N1011 H1014 0.984 . S
N1011 H1015 0.985 . S
H1012 N1007 0.984 . S
H1013 N1007 0.985 . S
H1014 N1011 0.984 . S
H1015 N1011 0.985 . S
H1016 N1010 0.984 . S
H1017 N1010 0.984 . S
H1018 N1006 0.984 . S
H1019 N1006 0.985 . S
C1020 C1021 1.363 . S
C1020 C1026 1.379 . S
C1020 N1028 1.356 . S
C1021 C1020 1.363 . S
C1021 C1027 1.363 . S
C1022 C1023 1.363 . S
C1022 C1027 1.379 . S
C1022 N1029 1.356 . S
C1023 C1022 1.363 . S
C1023 C1026 1.363 . S
N1024 C1026 1.356 . S
N1024 H1036 0.984 . S
N1024 H1037 0.985 . S
N1025 C1027 1.356 . S
N1025 H1030 0.984 . S
N1025 H1031 0.985 . S
C1026 C1020 1.379 . S
C1026 C1023 1.363 . S
C1026 N1024 1.356 . S
C1027 C1021 1.363 . S
C1027 C1022 1.379 . S
C1027 N1025 1.356 . S
N1028 C1020 1.356 . S
N1028 H1034 0.984 . S
N1028 H1035 0.984 . S
N1029 C1022 1.356 . S
N1029 H1032 0.984 . S
N1029 H1033 0.985 . S
H1030 N1025 0.984 . S
H1031 N1025 0.985 . S
H1032 N1029 0.984 . S
H1033 N1029 0.985 . S
H1034 N1028 0.984 . S
H1035 N1028 0.984 . S
H1036 N1024 0.984 . S
H1037 N1024 0.985 . S
C1038 C1039 1.363 . S
C1038 C1044 1.379 . S
C1038 N1046 1.356 . S
C1039 C1038 1.363 . S
C1039 C1045 1.363 . S
C1040 C1041 1.363 . S
C1040 C1045 1.379 . S
C1040 N1047 1.356 . S
C1041 C1040 1.363 . S
C1041 C1044 1.363 . S
N1042 C1044 1.356 . S
N1042 H1054 0.984 1_655 S
N1042 H1055 0.985 . S
N1043 C1045 1.356 . S
N1043 H1048 0.984 . S
N1043 H1049 0.985 . S
C1044 C1038 1.379 . S
C1044 C1041 1.363 . S
C1044 N1042 1.356 . S
C1045 C1039 1.363 . S
C1045 C1040 1.379 . S
C1045 N1043 1.356 . S
N1046 C1038 1.356 . S
N1046 H1052 0.984 . S
N1046 H1053 0.984 . S
N1047 C1040 1.356 . S
N1047 H1050 0.984 . S
N1047 H1051 0.985 . S
H1048 N1043 0.984 . S
H1049 N1043 0.985 . S
H1050 N1047 0.984 . S
H1051 N1047 0.985 . S
H1052 N1046 0.984 . S
H1053 N1046 0.984 . S
H1054 N1042 0.984 1_455 S
H1055 N1042 0.985 . S
C1056 C1057 1.363 . S
C1056 C1062 1.379 . S
C1056 N1064 1.356 . S
C1057 C1056 1.363 . S
C1057 C1063 1.363 . S
C1058 C1059 1.363 . S
C1058 C1063 1.379 . S
C1058 N1065 1.356 . S
C1059 C1058 1.363 . S
C1059 C1062 1.363 . S
N1060 C1062 1.356 . S
N1060 H1072 0.984 . S
N1060 H1073 0.985 . S
N1061 C1063 1.356 . S
N1061 H1066 0.984 . S
N1061 H1067 0.985 . S
C1062 C1056 1.379 . S
C1062 C1059 1.363 . S
C1062 N1060 1.356 . S
C1063 C1057 1.363 . S
C1063 C1058 1.379 . S
C1063 N1061 1.356 . S
N1064 C1056 1.356 . S
N1064 H1070 0.984 . S
N1064 H1071 0.984 . S
N1065 C1058 1.356 . S
N1065 H1068 0.984 . S
N1065 H1069 0.985 . S
H1066 N1061 0.984 . S
H1067 N1061 0.985 . S
H1068 N1065 0.984 . S
H1069 N1065 0.985 . S
H1070 N1064 0.984 . S
H1071 N1064 0.984 . S
H1072 N1060 0.984 . S
H1073 N1060 0.985 . S
C1074 C1075 1.363 . S
C1074 C1080 1.379 . S
C1074 N1082 1.356 . S
C1075 C1074 1.363 . S
C1075 C1081 1.363 . S
C1076 C1077 1.363 . S
C1076 C1081 1.379 . S
C1076 N1083 1.356 . S
C1077 C1076 1.363 . S
C1077 C1080 1.363 . S
N1078 C1080 1.356 . S
N1078 H1090 0.984 . S
N1078 H1091 0.985 . S
N1079 C1081 1.356 . S
N1079 H1084 0.984 . S
N1079 H1085 0.985 . S
C1080 C1074 1.379 . S
C1080 C1077 1.363 . S
C1080 N1078 1.356 . S
C1081 C1075 1.363 . S
C1081 C1076 1.379 . S
C1081 N1079 1.356 . S
N1082 C1074 1.356 . S
N1082 H1088 0.984 . S
N1082 H1089 0.984 . S
N1083 C1076 1.356 . S
N1083 H1086 0.984 . S
N1083 H1087 0.985 . S
H1084 N1079 0.984 . S
H1085 N1079 0.985 . S
H1086 N1083 0.984 . S
H1087 N1083 0.985 . S
H1088 N1082 0.984 . S
H1089 N1082 0.984 . S
H1090 N1078 0.984 . S
H1091 N1078 0.985 . S
C1092 C1093 1.363 . S
C1092 C1098 1.379 . S
C1092 N1100 1.356 . S
C1093 C1092 1.363 . S
C1093 C1099 1.363 . S
C1094 C1095 1.363 . S
C1094 C1099 1.379 . S
C1094 N1101 1.356 . S
C1095 C1094 1.363 . S
C1095 C1098 1.363 . S
N1096 C1098 1.356 . S
N1096 H1108 0.984 . S
N1096 H1109 0.985 . S
N1097 C1099 1.356 . S
N1097 H1102 0.984 . S
N1097 H1103 0.985 . S
C1098 C1092 1.379 . S
C1098 C1095 1.363 . S
C1098 N1096 1.356 . S
C1099 C1093 1.363 . S
C1099 C1094 1.379 . S
C1099 N1097 1.356 . S
N1100 C1092 1.356 . S
N1100 H1106 0.984 . S
N1100 H1107 0.984 . S
N1101 C1094 1.356 . S
N1101 H1104 0.984 . S
N1101 H1105 0.985 . S
H1102 N1097 0.984 . S
H1103 N1097 0.985 . S
H1104 N1101 0.984 . S
H1105 N1101 0.985 . S
H1106 N1100 0.984 . S
H1107 N1100 0.984 . S
H1108 N1096 0.984 . S
H1109 N1096 0.985 . S
C1110 C1111 1.363 . S
C1110 C1116 1.379 . S
C1110 N1118 1.356 . S
C1111 C1110 1.363 . S
C1111 C1117 1.363 . S
C1112 C1113 1.363 . S
C1112 C1117 1.379 . S
C1112 N1119 1.356 . S
C1113 C1112 1.363 . S
C1113 C1116 1.363 . S
N1114 C1116 1.356 . S
N1114 H1126 0.984 . S
N1114 H1127 0.985 . S
N1115 C1117 1.356 . S
N1115 H1120 0.984 . S
N1115 H1121 0.985 . S
C1116 C1110 1.379 . S
C1116 C1113 1.363 . S
C1116 N1114 1.356 . S
C1117 C1111 1.363 . S
C1117 C1112 1.379 . S
C1117 N1115 1.356 . S
N1118 C1110 1.356 . S
N1118 H1124 0.984 . S
N1118 H1125 0.984 . S
N1119 C1112 1.356 . S
N1119 H1122 0.984 . S
N1119 H1123 0.985 . S
H1120 N1115 0.984 . S
H1121 N1115 0.985 . S
H1122 N1119 0.984 . S
H1123 N1119 0.985 . S
H1124 N1118 0.984 . S
H1125 N1118 0.984 . S
H1126 N1114 0.984 . S
H1127 N1114 0.985 . S
C1128 C1129 1.363 . S
C1128 C1134 1.379 . S
C1128 N1136 1.356 . S
C1129 C1128 1.363 . S
C1129 C1135 1.363 . S
C1130 C1131 1.363 . S
C1130 C1135 1.379 . S
C1130 N1137 1.356 . S
C1131 C1130 1.363 . S
C1131 C1134 1.363 . S
N1132 C1134 1.356 . S
N1132 H1144 0.984 . S
N1132 H1145 0.985 . S
N1133 C1135 1.356 . S
N1133 H1138 0.984 . S
N1133 H1139 0.985 . S
C1134 C1128 1.379 . S
C1134 C1131 1.363 . S
C1134 N1132 1.356 . S
C1135 C1129 1.363 . S
C1135 C1130 1.379 . S
C1135 N1133 1.356 . S
N1136 C1128 1.356 . S
N1136 H1142 0.984 . S
N1136 H1143 0.984 . S
N1137 C1130 1.356 . S
N1137 H1140 0.984 . S
N1137 H1141 0.985 . S
H1138 N1133 0.984 . S
H1139 N1133 0.985 . S
H1140 N1137 0.984 . S
H1141 N1137 0.985 . S
H1142 N1136 0.984 . S
H1143 N1136 0.984 . S
H1144 N1132 0.984 . S
H1145 N1132 0.985 . S
C1146 C1147 1.363 . S
C1146 C1152 1.379 . S
C1146 N1154 1.356 . S
C1147 C1146 1.363 . S
C1147 C1153 1.363 . S
C1148 C1149 1.363 . S
C1148 C1153 1.379 . S
C1148 N1155 1.356 . S
C1149 C1148 1.363 . S
C1149 C1152 1.363 . S
N1150 C1152 1.356 . S
N1150 H1162 0.984 . S
N1150 H1163 0.985 . S
N1151 C1153 1.356 . S
N1151 H1156 0.984 . S
N1151 H1157 0.985 . S
C1152 C1146 1.379 . S
C1152 C1149 1.363 . S
C1152 N1150 1.356 . S
C1153 C1147 1.363 . S
C1153 C1148 1.379 . S
C1153 N1151 1.356 . S
N1154 C1146 1.356 . S
N1154 H1160 0.984 . S
N1154 H1161 0.984 . S
N1155 C1148 1.356 . S
N1155 H1158 0.984 . S
N1155 H1159 0.985 . S
H1156 N1151 0.984 . S
H1157 N1151 0.985 . S
H1158 N1155 0.984 . S
H1159 N1155 0.985 . S
H1160 N1154 0.984 . S
H1161 N1154 0.984 . S
H1162 N1150 0.984 . S
H1163 N1150 0.985 . S
C1164 C1165 1.363 . S
C1164 C1170 1.379 . S
C1164 N1172 1.356 . S
C1165 C1164 1.363 . S
C1165 C1171 1.363 . S
C1166 C1167 1.363 . S
C1166 C1171 1.379 . S
C1166 N1173 1.356 . S
C1167 C1166 1.363 . S
C1167 C1170 1.363 . S
N1168 C1170 1.356 . S
N1168 H1180 0.984 . S
N1168 H1181 0.985 . S
N1169 C1171 1.356 . S
N1169 H1174 0.984 . S
N1169 H1175 0.985 . S
C1170 C1164 1.379 . S
C1170 C1167 1.363 . S
C1170 N1168 1.356 . S
C1171 C1165 1.363 . S
C1171 C1166 1.379 . S
C1171 N1169 1.356 . S
N1172 C1164 1.356 . S
N1172 H1178 0.984 . S
N1172 H1179 0.984 . S
N1173 C1166 1.356 . S
N1173 H1176 0.984 . S
N1173 H1177 0.985 . S
H1174 N1169 0.984 . S
H1175 N1169 0.985 . S
H1176 N1173 0.984 . S
H1177 N1173 0.985 . S
H1178 N1172 0.984 . S
H1179 N1172 0.984 . S
H1180 N1168 0.984 . S
H1181 N1168 0.985 . S
C1182 C1183 1.363 . S
C1182 C1188 1.379 . S
C1182 N1190 1.356 . S
C1183 C1182 1.363 . S
C1183 C1189 1.363 . S
C1184 C1185 1.363 . S
C1184 C1189 1.379 . S
C1184 N1191 1.356 . S
C1185 C1184 1.363 . S
C1185 C1188 1.363 . S
N1186 C1188 1.356 . S
N1186 H1198 0.984 . S
N1186 H1199 0.985 . S
N1187 C1189 1.356 . S
N1187 H1192 0.984 . S
N1187 H1193 0.985 . S
C1188 C1182 1.379 . S
C1188 C1185 1.363 . S
C1188 N1186 1.356 . S
C1189 C1183 1.363 . S
C1189 C1184 1.379 . S
C1189 N1187 1.356 . S
N1190 C1182 1.356 . S
N1190 H1196 0.984 . S
N1190 H1197 0.984 . S
N1191 C1184 1.356 . S
N1191 H1194 0.984 . S
N1191 H1195 0.985 . S
H1192 N1187 0.984 . S
H1193 N1187 0.985 . S
H1194 N1191 0.984 . S
H1195 N1191 0.985 . S
H1196 N1190 0.984 . S
H1197 N1190 0.984 . S
H1198 N1186 0.984 . S
H1199 N1186 0.985 . S
C627 C545 1.473 . S
C625 C53 1.533 . S
C643 C115 1.544 . S
C645 C577 1.482 . S
C661 C177 1.561 . S
C663 C600 1.511 . S
C681 C504 1.507 . S
C679 C239 1.551 . S
C699 C587 1.534 . S
C697 C47 1.600 . S
C717 C616 1.533 . S
C715 C109 1.586 . S
C735 C520 1.539 . S
C733 C171 1.582 . S
C753 C555 1.524 . S
C751 C233 1.594 1_565 S
C769 C29 1.602 . S
C771 C583 1.551 . S
C787 C277 1.594 1_565 S
C789 C558 1.524 . S
C805 C153 1.584 . S
C807 C526 1.523 . S
C825 C615 1.533 . S
C823 C339 1.588 . S
C843 C559 1.473 . S
C841 C35 1.537 . S
C859 C283 1.552 . S
C861 C527 1.493 . S
C877 C159 1.561 . S
C879 C614 1.515 . S
C897 C582 1.498 . S
C895 C345 1.544 . S
C913 C419 1.576 . S
C915 C609 1.665 . S
C931 C301 1.555 . S
C933 C513 1.491 . S
C949 C487 1.535 . S
C951 C536 1.491 . S
C967 C363 1.544 . S
C969 C568 1.498 . S
C987 C523 1.479 . S
C985 C425 1.582 . S
C1003 C295 1.594 . S
C1005 C552 1.539 . S
C1021 C481 1.602 . S
C1023 C584 1.551 . S
C1041 C619 1.519 . S
C1039 C357 1.589 . S
C1057 C407 1.581 . S
C1059 C519 1.467 . S
C1075 C91 1.588 . S
C1077 C622 1.517 . S
C1093 C463 1.602 . S
C1095 C590 1.532 . S
C1113 C551 1.539 . S
C1111 C215 1.594 . S
C1131 C623 1.663 . S
C1129 C401 1.574 . S
C1149 C591 1.482 . S
C1147 C97 1.544 . S
C1167 C550 1.489 . S
C1165 C469 1.533 . S
C1185 C518 1.505 . S
C1183 C221 1.554 . S
