# Generated by pormake.
# Topology zzz, (3,6)-cn, num edge types: 1
# Building blocks:
#     Node 0, Type 0, BuildingBlock: ESEHIV_clean_linker_0, # of connection points: 3
#     Node 1, Type 0, BuildingBlock: ESEHIV_clean_linker_0, # of connection points: 3
#     Node 2, Type 0, BuildingBlock: ESEHIV_clean_linker_0, # of connection points: 3
#     Node 3, Type 0, BuildingBlock: ESEHIV_clean_linker_0, # of connection points: 3
#     Node 4, Type 0, BuildingBlock: ESEHIV_clean_linker_0, # of connection points: 3
#     Node 5, Type 0, BuildingBlock: ESEHIV_clean_linker_0, # of connection points: 3
#     Node 6, Type 0, BuildingBlock: ESEHIV_clean_linker_0, # of connection points: 3
#     Node 7, Type 0, BuildingBlock: ESEHIV_clean_linker_0, # of connection points: 3
#     Node 8, Type 1, BuildingBlock: BETGAK_clean_sbu_0, # of connection points: 6
#     Node 9, Type 1, BuildingBlock: BETGAK_clean_sbu_0, # of connection points: 6
#     Node 10, Type 1, BuildingBlock: BETGAK_clean_sbu_0, # of connection points: 6
#     Node 11, Type 1, BuildingBlock: BETGAK_clean_sbu_0, # of connection points: 6
#     Edge 12, Type (0, 1), BuildingBlock: KIFKEQ_clean_linker_1, # of connection points: 2
#     Edge 13, Type (0, 1), BuildingBlock: KIFKEQ_clean_linker_1, # of connection points: 2
#     Edge 14, Type (0, 1), BuildingBlock: KIFKEQ_clean_linker_1, # of connection points: 2
#     Edge 15, Type (0, 1), BuildingBlock: KIFKEQ_clean_linker_1, # of connection points: 2
#     Edge 16, Type (0, 1), BuildingBlock: KIFKEQ_clean_linker_1, # of connection points: 2
#     Edge 17, Type (0, 1), BuildingBlock: KIFKEQ_clean_linker_1, # of connection points: 2
#     Edge 18, Type (0, 1), BuildingBlock: KIFKEQ_clean_linker_1, # of connection points: 2
#     Edge 19, Type (0, 1), BuildingBlock: KIFKEQ_clean_linker_1, # of connection points: 2
#     Edge 20, Type (0, 1), BuildingBlock: KIFKEQ_clean_linker_1, # of connection points: 2
#     Edge 21, Type (0, 1), BuildingBlock: KIFKEQ_clean_linker_1, # of connection points: 2
#     Edge 22, Type (0, 1), BuildingBlock: KIFKEQ_clean_linker_1, # of connection points: 2
#     Edge 23, Type (0, 1), BuildingBlock: KIFKEQ_clean_linker_1, # of connection points: 2
#     Edge 24, Type (0, 1), BuildingBlock: KIFKEQ_clean_linker_1, # of connection points: 2
#     Edge 25, Type (0, 1), BuildingBlock: KIFKEQ_clean_linker_1, # of connection points: 2
#     Edge 26, Type (0, 1), BuildingBlock: KIFKEQ_clean_linker_1, # of connection points: 2
#     Edge 27, Type (0, 1), BuildingBlock: KIFKEQ_clean_linker_1, # of connection points: 2
#     Edge 28, Type (0, 1), BuildingBlock: KIFKEQ_clean_linker_1, # of connection points: 2
#     Edge 29, Type (0, 1), BuildingBlock: KIFKEQ_clean_linker_1, # of connection points: 2
#     Edge 30, Type (0, 1), BuildingBlock: KIFKEQ_clean_linker_1, # of connection points: 2
#     Edge 31, Type (0, 1), BuildingBlock: KIFKEQ_clean_linker_1, # of connection points: 2
#     Edge 32, Type (0, 1), BuildingBlock: KIFKEQ_clean_linker_1, # of connection points: 2
#     Edge 33, Type (0, 1), BuildingBlock: KIFKEQ_clean_linker_1, # of connection points: 2
#     Edge 34, Type (0, 1), BuildingBlock: KIFKEQ_clean_linker_1, # of connection points: 2
#     Edge 35, Type (0, 1), BuildingBlock: KIFKEQ_clean_linker_1, # of connection points: 2
# Relax obj value: 0.508
# Max RMSD: 0.262
# Mean RMSD: 0.254
data_MOF--net-zzz--node1-BETGAK_clean_sbu_0--node2-ESEHIV_clean_linker_0--edge1-KIFKEQ_clean_linker_1
_symmetry_space_group_name_H-M    P1
_symmetry_Int_Tables_number       1
_symmetry_cell_setting            triclinic
loop_
_symmetry_equiv_pos_as_xyz
'x, y, z'
_cell_length_a     46.662764
_cell_length_b     46.677613
_cell_length_c     14.569747
_cell_angle_alpha  89.235312
_cell_angle_beta   89.864579
_cell_angle_gamma 89.790667
loop_
_atom_site_label
_atom_site_type_symbol
_atom_site_fract_x
_atom_site_fract_y
_atom_site_fract_z
_atom_type_partial_charge
H0 H 0.78959 0.52108 0.34656 0.0
H1 H 0.70893 0.52658 0.2105 0.0
H2 H 0.71146 0.51765 0.50645 0.0
C3 C 0.76644 0.52292 0.35154 0.0
C4 C 0.75337 0.52143 0.43813 0.0
C5 C 0.75029 0.52377 0.27093 0.0
C6 C 0.72072 0.52598 0.27479 0.0
C7 C 0.70589 0.52312 0.35749 0.0
C8 C 0.72235 0.5206 0.44136 0.0
H9 H 0.99719 0.79283 0.34282 0.0
H10 H 0.99196 0.71351 0.20126 0.0
H11 H 1.00374 0.71327 0.49604 0.0
C12 C 0.99592 0.76962 0.34587 0.0
C13 C 0.99872 0.75585 0.43119 0.0
C14 C 0.99461 0.75438 0.26397 0.0
C15 C 0.99323 0.72468 0.26608 0.0
C16 C 0.99718 0.709 0.34726 0.0
C17 C 1.00018 0.72475 0.43206 0.0
H18 H 0.73482 1.00655 0.35276 0.0
H19 H 0.81405 1.00377 0.2079 0.0
H20 H 0.81324 0.98943 0.50216 0.0
C21 C 0.75767 1.00204 0.35416 0.0
C22 C 0.7711 0.99604 0.43802 0.0
C23 C 0.77339 1.00551 0.27354 0.0
C24 C 0.8026 1.00055 0.27226 0.0
C25 C 0.8178 0.99501 0.35287 0.0
C26 C 0.80196 0.99285 0.43812 0.0
H27 H 0.48449 0.74421 0.39061 0.0
H28 H 0.5405 0.81077 0.48882 0.0
H29 H 0.49011 0.82322 0.24191 0.0
C30 C 0.49294 0.76585 0.38634 0.0
C31 C 0.48521 0.78324 0.31181 0.0
C32 C 0.51289 0.77478 0.45137 0.0
C33 C 0.52476 0.80319 0.4405 0.0
C34 C 0.51556 0.82155 0.36535 0.0
C35 C 0.49618 0.81058 0.30198 0.0
H36 H 0.24758 0.55259 0.10292 0.0
H37 H 0.32533 0.5487 0.2557 0.0
H38 H 0.3061 0.48193 0.06208 0.0
C39 C 0.2682 0.54234 0.11466 0.0
C40 C 0.27456 0.51677 0.06953 0.0
C41 C 0.28603 0.55322 0.18248 0.0
C42 C 0.31214 0.54005 0.20145 0.0
C43 C 0.32034 0.51461 0.15859 0.0
C44 C 0.30087 0.50218 0.09346 0.0
H45 H 0.0537 0.24154 0.12962 0.0
H46 H 0.05614 0.31795 0.28569 0.0
H47 H 0.99918 0.31247 0.05333 0.0
C48 C 0.04762 0.26385 0.13712 0.0
C49 C 0.02694 0.27502 0.07718 0.0
C50 C 0.05425 0.27776 0.21883 0.0
C51 C 0.04915 0.30711 0.22421 0.0
C52 C 0.02898 0.32053 0.16667 0.0
C53 C 0.01657 0.30372 0.09407 0.0
H54 H 0.27395 0.9784 0.08959 0.0
H55 H 0.19482 0.9804 0.23654 0.0
H56 H 0.21897 0.0525 0.06363 0.0
C57 C 0.25351 0.98882 0.10208 0.0
C58 C 0.24849 0.01581 0.06217 0.0
C59 C 0.23494 0.97695 0.16756 0.0
C60 C 0.2088 0.99014 0.18532 0.0
C61 C 0.20228 0.01742 0.15002 0.0
C62 C 0.22284 0.03096 0.08919 0.0
H63 H 0.52395 0.28748 0.15824 0.0
H64 H 0.49577 0.2106 0.02235 0.0
H65 H 0.52309 0.20825 0.30657 0.0
C66 C 0.51906 0.26474 0.15903 0.0
C67 C 0.52419 0.2489 0.23887 0.0
C68 C 0.50899 0.25181 0.07938 0.0
C69 C 0.50331 0.2214 0.08291 0.0
C70 C 0.50824 0.20532 0.16689 0.0
C71 C 0.51863 0.21986 0.243 0.0
La72 La 0.03536 1.01177 0.81734 0.0
La73 La 0.98786 0.01876 0.71152 0.0
C74 C 0.073 0.99605 0.93128 0.0
C75 C 0.07744 0.96765 0.97155 0.0
C76 C 0.10518 0.95619 0.98059 0.0
C77 C 0.10883 0.92695 0.99994 0.0
C78 C 0.08467 0.90947 1.00958 0.0
C79 C 0.05711 0.92132 1.00539 0.0
C80 C 0.05348 0.95015 0.9864 0.0
C81 C 0.05093 0.03177 0.65093 0.0
C82 C 1.00913 0.9554 0.71948 0.0
C83 C 0.95114 0.03623 0.5974 0.0
C84 C 0.95237 0.06251 0.54204 0.0
C85 C 0.92788 0.07967 0.5292 0.0
C86 C 0.93061 0.1074 0.49236 0.0
C87 C 0.95779 0.11764 0.46765 0.0
C88 C 0.98193 0.10001 0.47713 0.0
C89 C 0.97931 0.07276 0.51443 0.0
C90 C 0.97306 1.00041 0.88099 0.0
C91 C 1.01287 0.07448 0.80973 0.0
O92 O 0.07735 0.9974 0.84303 0.0
O93 O 0.04907 1.00865 0.95415 0.0
O94 O 0.06012 0.04068 0.72907 0.0
O95 O 0.03203 1.01272 0.66776 0.0
O96 O 0.02555 0.96544 0.78648 0.0
O97 O 0.99297 0.97376 0.6734 0.0
O98 O 0.94905 0.04038 0.68544 0.0
O99 O 0.97079 0.01721 0.57861 0.0
O100 O 0.96268 0.99121 0.80482 0.0
O101 O 0.99167 0.01914 0.8602 0.0
O102 O 0.99953 0.0648 0.73594 0.0
O103 O 0.02695 0.05581 0.86122 0.0
H104 H 0.12382 0.96949 0.9684 0.0
H105 H 0.13019 0.91788 1.00403 0.0
H106 H 0.0383 0.90793 1.01348 0.0
H107 H 0.03186 0.95838 0.97863 0.0
H108 H 0.90704 0.07217 0.55163 0.0
H109 H 0.91188 0.12105 0.48588 0.0
H110 H 1.00311 0.10792 0.45979 0.0
H111 H 0.99864 0.06028 0.52587 0.0
La112 La 0.51934 0.03854 0.8337 0.0
La113 La 0.50802 0.98993 0.71155 0.0
C114 C 0.53448 0.06556 0.97281 0.0
C115 C 0.56387 0.0732 0.99684 0.0
C116 C 0.57128 0.10175 0.01455 0.0
C117 C 0.60018 0.10959 0.01904 0.0
C118 C 0.62154 0.08897 1.00368 0.0
C119 C 0.61396 0.06032 0.99044 0.0
C120 C 0.5855 0.0525 0.98726 0.0
C121 C 0.51255 0.06047 0.66269 0.0
C122 C 0.57249 1.01049 0.72398 0.0
C123 C 0.49071 0.95652 0.59039 0.0
C124 C 0.4633 0.95487 0.54351 0.0
C125 C 0.45363 0.92855 0.51121 0.0
C126 C 0.42577 0.92616 0.47798 0.0
C127 C 0.40736 0.95008 0.47737 0.0
C128 C 0.41754 0.97662 0.50745 0.0
C129 C 0.44534 0.97899 0.54017 0.0
C130 C 0.52619 0.97381 0.87835 0.0
C131 C 0.45415 0.02161 0.81089 0.0
O132 O 0.52473 0.07815 0.89861 0.0
O133 O 0.52901 0.0381 0.97398 0.0
O134 O 0.51807 0.07497 0.73541 0.0
O135 O 0.51107 0.03447 0.68875 0.0
O136 O 0.56408 0.0262 0.79493 0.0
O137 O 0.55332 0.99645 0.6751 0.0
O138 O 0.48941 0.95067 0.67829 0.0
O139 O 0.50574 0.97955 0.5724 0.0
O140 O 0.534 0.96255 0.80153 0.0
O141 O 0.50857 0.99392 0.85904 0.0
O142 O 0.4631 1.00303 0.74797 0.0
O143 O 0.47285 0.03756 0.85516 0.0
H144 H 0.55482 0.11801 0.02167 0.0
H145 H 0.60583 0.13165 0.03201 0.0
H146 H 0.63016 0.04385 0.98204 0.0
H147 H 0.5806 0.03029 0.9737 0.0
H148 H 0.46732 0.90976 0.51403 0.0
H149 H 0.41854 0.9056 0.45367 0.0
H150 H 0.40375 0.99533 0.50857 0.0
H151 H 0.45249 0.99946 0.5656 0.0
La152 La 0.48826 0.51436 0.81249 0.0
La153 La 0.53761 0.50794 0.69927 0.0
C154 C 0.4506 0.52738 0.9282 0.0
C155 C 0.44745 0.55332 0.98138 0.0
C156 C 0.4203 0.56566 0.99298 0.0
C157 C 0.41792 0.59346 0.02613 0.0
C158 C 0.4427 0.60885 0.0481 0.0
C159 C 0.4697 0.59581 0.04054 0.0
C160 C 0.47207 0.56829 1.00709 0.0
C161 C 0.4741 0.49662 0.64497 0.0
C162 C 0.51756 0.57178 0.72721 0.0
C163 C 0.56748 0.49808 0.559 0.0
C164 C 0.57337 0.47039 0.51743 0.0
C165 C 0.60188 0.46152 0.50424 0.0
C166 C 0.60818 0.43246 0.4935 0.0
C167 C 0.58597 0.41236 0.49696 0.0
C168 C 0.5574 0.4216 0.50162 0.0
C169 C 0.55112 0.45038 0.51172 0.0
C170 C 0.55921 0.51402 0.86885 0.0
C171 C 0.51247 0.45174 0.79896 0.0
O172 O 0.44755 0.53136 0.83995 0.0
O173 O 0.47311 0.51173 0.94776 0.0
O174 O 0.46443 0.48649 0.72179 0.0
O175 O 0.49275 0.51552 0.66476 0.0
O176 O 0.49733 0.56065 0.78145 0.0
O177 O 0.53647 0.55477 0.68796 0.0
O178 O 0.57807 0.50055 0.64106 0.0
O179 O 0.54094 0.507 0.55544 0.0
O180 O 0.57359 0.51114 0.79394 0.0
O181 O 0.53263 0.51415 0.84789 0.0
O182 O 0.52765 0.46183 0.72827 0.0
O183 O 0.49757 0.46971 0.84954 0.0
H184 H 0.40118 0.55439 0.97215 0.0
H185 H 0.39691 0.60322 0.03211 0.0
H186 H 0.48915 0.60743 0.05574 0.0
H187 H 0.49329 0.55937 0.9966 0.0
H188 H 0.61929 0.47672 0.50899 0.0
H189 H 0.6303 0.42557 0.48802 0.0
H190 H 0.53994 0.40634 0.50155 0.0
H191 H 0.52894 0.45656 0.52195 0.0
La192 La 1.00556 0.48384 0.85035 0.0
La193 La 0.01682 0.53351 0.70694 0.0
C194 C 0.99394 0.45903 0.99966 0.0
C195 C 0.96572 0.45087 0.03655 0.0
C196 C 0.95355 0.42431 1.01379 0.0
C197 C 0.92387 0.42074 0.01733 0.0
C198 C 0.90654 0.44355 0.0449 0.0
C199 C 0.91892 0.46843 0.0797 0.0
C200 C 0.94838 0.47198 0.07648 0.0
C201 C 1.01115 0.46191 0.68058 0.0
C202 C 0.95178 0.5117 0.73831 0.0
C203 C 0.03025 0.55902 0.56038 0.0
C204 C 0.0585 0.56692 0.52456 0.0
C205 C 0.06238 0.59329 0.4792 0.0
C206 C 0.08991 0.6022 0.45437 0.0
C207 C 0.11377 0.58498 0.47603 0.0
C208 C 0.10971 0.55837 0.51989 0.0
C209 C 0.08229 0.54937 0.5437 0.0
C210 C 1.00916 0.55479 0.87765 0.0
C211 C 0.07055 0.5048 0.81585 0.0
O212 O 1.00215 0.44543 0.9261 0.0
O213 O 0.99841 0.48666 0.99166 0.0
O214 O 1.0062 0.44746 0.75555 0.0
O215 O 0.01336 0.48789 0.7061 0.0
O216 O 0.96067 0.49432 0.80679 0.0
O217 O 0.97006 0.52806 0.69053 0.0
O218 O 0.02268 0.57233 0.63501 0.0
O219 O 0.02499 0.53152 0.56571 0.0
O220 O 1.01315 0.57 0.80369 0.0
O221 O 1.00903 0.52905 0.8501 0.0
O222 O 0.06152 0.52252 0.74895 0.0
O223 O 0.05237 0.48859 0.86399 0.0
H224 H 0.96659 0.40739 0.98504 0.0
H225 H 0.91442 0.40126 0.99178 0.0
H226 H 0.9056 0.48607 0.10239 0.0
H227 H 0.95713 0.49242 0.09669 0.0
H228 H 0.04424 0.60717 0.46469 0.0
H229 H 0.09265 0.62273 0.41995 0.0
H230 H 0.12775 0.54444 0.53528 0.0
H231 H 0.0798 0.52887 0.57839 0.0
H232 H 0.14682 0.99924 0.13397 0.0
H233 H 0.19754 0.06208 0.27183 0.0
H234 H 0.10914 1.00422 0.24772 0.0
H235 H 0.15915 0.06892 0.38314 0.0
H236 H 0.1058 0.05191 0.63898 0.0
H237 H 0.13853 0.05313 0.5107 0.0
H238 H 0.07263 0.0183 0.33682 0.0
H239 H 0.04029 0.01545 0.46945 0.0
C240 C 0.14931 0.0154 0.18604 0.0
C241 C 0.17547 0.03052 0.19176 0.0
C242 C 0.12752 0.01809 0.25316 0.0
C243 C 0.13058 0.03638 0.32921 0.0
C244 C 0.15567 0.05359 0.32942 0.0
C245 C 0.17771 0.05047 0.26296 0.0
C246 C 0.09807 0.04451 0.57344 0.0
C247 C 0.07004 0.03348 0.56612 0.0
C248 C 0.11709 0.04552 0.49799 0.0
C249 C 0.10902 0.03614 0.40982 0.0
C250 C 0.08059 0.02549 0.40216 0.0
C251 C 0.06163 0.02397 0.4788 0.0
H252 H 0.54995 0.16433 0.16851 0.0
H253 H 0.46006 0.17599 0.22301 0.0
H254 H 0.55122 0.12389 0.27672 0.0
H255 H 0.46103 0.13478 0.3295 0.0
H256 H 0.4762 0.05049 0.51312 0.0
H257 H 0.47294 0.07895 0.36876 0.0
H258 H 0.54533 0.12915 0.45317 0.0
H259 H 0.5478 0.10182 0.59678 0.0
C260 C 0.52994 0.15713 0.19869 0.0
C261 C 0.50477 0.17353 0.18466 0.0
C262 C 0.53081 0.13417 0.26284 0.0
C263 C 0.50635 0.12611 0.31405 0.0
C264 C 0.48037 0.14016 0.29191 0.0
C265 C 0.47966 0.16362 0.22904 0.0
C266 C 0.49171 0.06725 0.49995 0.0
C267 C 0.51244 0.07358 0.56706 0.0
C268 C 0.48972 0.08378 0.4173 0.0
C269 C 0.50896 0.10651 0.39812 0.0
C270 C 0.5303 0.1118 0.46397 0.0
C271 C 0.53171 0.09601 0.54694 0.0
H272 H 0.32843 0.46733 0.27106 0.0
H273 H 0.3746 0.53606 0.13936 0.0
H274 H 0.36813 0.45989 0.37746 0.0
H275 H 0.41374 0.53005 0.2482 0.0
H276 H 0.48513 0.51427 0.46236 0.0
H277 H 0.45241 0.51267 0.33021 0.0
H278 H 0.38627 0.47793 0.50687 0.0
H279 H 0.41896 0.47807 0.6344 0.0
C280 C 0.34756 0.48014 0.26222 0.0
C281 C 0.34815 0.50196 0.1947 0.0
C282 C 0.37029 0.47657 0.32572 0.0
C283 C 0.39439 0.49507 0.32583 0.0
C284 C 0.39601 0.51523 0.25275 0.0
C285 C 0.37344 0.51853 0.1887 0.0
C286 C 0.46365 0.50609 0.47245 0.0
C287 C 0.45508 0.49623 0.56025 0.0
C288 C 0.44459 0.50523 0.39625 0.0
C289 C 0.41608 0.49483 0.40518 0.0
C290 C 0.40786 0.48525 0.49367 0.0
C291 C 0.42687 0.48566 0.56853 0.0
H292 H 0.05971 0.37046 0.17636 0.0
H293 H 0.97765 0.33511 0.24874 0.0
H294 H 0.05313 0.40837 0.28843 0.0
H295 H 0.97027 0.37358 0.35857 0.0
H296 H 0.98472 0.41245 0.64097 0.0
H297 H 0.98518 0.38421 0.50376 0.0
H298 H 0.035 0.44941 0.36485 0.0
H299 H 0.03509 0.47786 0.50666 0.0
C300 C 0.03946 0.37162 0.21264 0.0
C301 C 0.01903 0.34959 0.20104 0.0
C302 C 0.03577 0.39343 0.27856 0.0
C303 C 1.01147 0.39422 0.33653 0.0
C304 C 0.98984 0.37369 0.31864 0.0
C305 C 0.99363 0.3518 0.25297 0.0
C306 C 0.99558 0.42126 0.5812 0.0
C307 C 1.00968 0.44791 0.58665 0.0
C308 C 0.99561 0.40486 0.50078 0.0
C309 C 1.00989 0.414 0.42023 0.0
C310 C 0.02373 0.4411 0.42444 0.0
C311 C 0.02354 0.45782 0.50603 0.0
H312 H 0.85355 0.9489 0.32531 0.0
H313 H 0.85309 0.04097 0.32781 0.0
H314 H 0.89527 0.94962 0.22363 0.0
H315 H 0.89386 0.04205 0.22297 0.0
H316 H 0.97204 0.03771 0.02949 0.0
H317 H 0.94087 0.03591 0.16575 0.0
H318 H 0.90339 0.9576 0.06808 0.0
H319 H 0.93457 0.95944 0.93405 0.0
C320 C 0.8632 0.96936 0.3082 0.0
C321 C 0.84991 0.99481 0.33766 0.0
C322 C 0.88679 0.96989 0.24677 0.0
C323 C 0.89791 0.99594 0.21085 0.0
C324 C 0.88643 0.0214 0.24767 0.0
C325 C 0.86309 0.02081 0.30998 0.0
C326 C 0.95744 0.01987 0.03796 0.0
C327 C 0.95611 0.99864 0.96997 0.0
C328 C 0.93922 0.01891 0.11628 0.0
C329 C 0.91918 0.99647 0.1303 0.0
C330 C 0.91855 0.97502 0.06272 0.0
C331 C 0.93648 0.97616 0.9845 0.0
H332 H 0.56683 0.8389 0.28891 0.0
H333 H 0.48456 0.87122 0.37254 0.0
H334 H 0.57259 0.87987 0.18494 0.0
H335 H 0.48905 0.91115 0.26479 0.0
H336 H 0.50001 0.98291 0.04967 0.0
H337 H 0.5024 0.95213 0.18769 0.0
H338 H 0.55892 0.89434 0.04414 0.0
H339 H 0.55749 0.92549 0.9107 0.0
C340 C 0.55046 0.85541 0.28833 0.0
C341 C 0.52544 0.85158 0.34115 0.0
C342 C 0.55322 0.87871 0.22566 0.0
C343 C 0.53075 0.89887 0.21137 0.0
C344 C 0.507 0.89656 0.27139 0.0
C345 C 0.50454 0.87358 0.33515 0.0
C346 C 0.51329 0.96384 0.04843 0.0
C347 C 0.52851 0.95694 0.96789 0.0
C348 C 0.51454 0.94582 0.1279 0.0
C349 C 0.53096 0.9201 0.12976 0.0
C350 C 0.54649 0.91384 0.04905 0.0
C351 C 0.54542 0.93184 0.97073 0.0
H352 H 0.66359 0.56423 0.33932 0.0
H353 H 0.67764 0.47336 0.32311 0.0
H354 H 0.62295 0.56043 0.23363 0.0
H355 H 0.63763 0.46954 0.21615 0.0
H356 H 0.60855 0.48648 0.91206 0.0
H357 H 0.63661 0.48669 0.05233 0.0
H358 H 0.57306 0.54026 0.18034 0.0
H359 H 0.5441 0.53939 0.03798 0.0
C360 C 0.65698 0.54311 0.31813 0.0
C361 C 0.67397 0.51904 0.34287 0.0
C362 C 0.63382 0.54098 0.25545 0.0
C363 C 0.62704 0.51476 0.21347 0.0
C364 C 0.64216 0.49027 0.24518 0.0
C365 C 0.66486 0.49233 0.30907 0.0
C366 C 0.60007 0.49801 0.97024 0.0
C367 C 0.5737 0.51277 0.96238 0.0
C368 C 0.61632 0.49802 0.05168 0.0
C369 C 0.60744 0.51338 0.12944 0.0
C370 C 0.58085 0.52812 0.12254 0.0
C371 C 0.56404 0.5275 0.04079 0.0
H372 H 0.04606 0.67902 0.30385 0.0
H373 H 0.9551 0.66811 0.33257 0.0
H374 H 0.04839 0.63754 0.20365 0.0
H375 H 0.95718 0.62616 0.23411 0.0
H376 H 0.96294 0.5841 0.94579 0.0
H377 H 0.96066 0.61538 0.07859 0.0
H378 H 0.04639 0.5896 0.15427 0.0
H379 H 0.04838 0.55834 0.01993 0.0
C380 C 0.0267 0.66674 0.29372 0.0
C381 C 1.0005 0.67697 0.33025 0.0
C382 C 0.02791 0.64291 0.23398 0.0
C383 C 1.00289 0.62814 0.20694 0.0
C384 C 0.97705 0.6369 0.24978 0.0
C385 C 0.97589 0.66074 0.30941 0.0
C386 C 0.98097 0.58425 0.9925 0.0
C387 C 1.00545 0.56763 0.97253 0.0
C388 C 0.97976 0.60252 0.06954 0.0
C389 C 1.00332 0.6057 0.1298 0.0
C390 C 0.02767 0.58843 0.11078 0.0
C391 C 0.0287 0.56987 0.03393 0.0
H392 H 0.0204 0.2892 0.36768 0.0
H393 H 0.07926 0.2257 0.26218 0.0
H394 H 0.99262 0.25189 0.44103 0.0
H395 H 0.0507 0.18817 0.33548 0.0
H396 H 0.96972 0.13738 0.29765 0.0
H397 H 0.99875 0.17982 0.26573 0.0
H398 H 0.9894 0.20579 0.54771 0.0
H399 H 0.96021 0.16316 0.57934 0.0
C400 C 0.02855 0.26749 0.36409 0.0
C401 C 0.0512 0.26022 0.30401 0.0
C402 C 1.01218 0.24606 0.40551 0.0
C403 C 0.01881 0.21737 0.3893 0.0
C404 C 0.04471 0.21036 0.34556 0.0
C405 C 0.0613 0.23184 0.30498 0.0
C406 C 0.97277 0.15292 0.35135 0.0
C407 C 0.96282 0.1474 0.44048 0.0
C408 C 0.98988 0.17671 0.33395 0.0
C409 C 0.99717 0.19511 0.40564 0.0
C410 C 0.98441 0.19145 0.49217 0.0
C411 C 0.96734 0.1675 0.50969 0.0
H412 H 0.26516 0.92727 0.14009 0.0
H413 H 0.23428 0.98397 0.35096 0.0
H414 H 0.30449 0.91239 0.24077 0.0
H415 H 0.27342 0.96921 0.44975 0.0
H416 H 0.3774 0.9874 0.36923 0.0
H417 H 0.32782 0.98317 0.31914 0.0
H418 H 0.32022 0.90231 0.46379 0.0
H419 H 0.36985 0.90682 0.51747 0.0
C420 C 0.26566 0.93507 0.20977 0.0
C421 C 0.2472 0.95722 0.23691 0.0
C422 C 0.28808 0.92657 0.2672 0.0
C423 C 0.29177 0.94002 0.35171 0.0
C424 C 0.2706 0.95847 0.38489 0.0
C425 C 0.24814 0.9668 0.32804 0.0
C426 C 0.36512 0.96892 0.39158 0.0
C427 C 0.37744 0.94737 0.44687 0.0
C428 C 0.3369 0.9665 0.36284 0.0
C429 C 0.32069 0.94244 0.38838 0.0
C430 C 0.33266 0.92093 0.44382 0.0
C431 C 0.36095 0.92345 0.47345 0.0
H432 H 0.57973 0.24417 0.28491 0.0
H433 H 0.50009 0.28474 0.36065 0.0
H434 H 0.6059 0.27614 0.38705 0.0
H435 H 0.52586 0.31625 0.46384 0.0
H436 H 0.5696 0.37397 0.62659 0.0
H437 H 0.56174 0.32315 0.59994 0.0
H438 H 0.60636 0.33087 0.34068 0.0
H439 H 0.61383 0.38177 0.36721 0.0
C440 C 0.56787 0.25918 0.32668 0.0
C441 C 0.53824 0.26257 0.31566 0.0
C442 C 0.58272 0.27723 0.38497 0.0
C443 C 0.56785 0.29843 0.4331 0.0
C444 C 0.53775 0.2997 0.42859 0.0
C445 C 0.52301 0.282 0.36925 0.0
C446 C 0.57888 0.36437 0.56615 0.0
C447 C 0.59165 0.38151 0.49764 0.0
C448 C 0.57454 0.33537 0.55129 0.0
C449 C 0.5831 0.32342 0.46792 0.0
C450 C 0.59975 0.33966 0.40588 0.0
C451 C 0.60395 0.36877 0.42062 0.0
H452 H 0.27903 0.54351 0.36292 0.0
H453 H 0.26336 0.60652 0.14957 0.0
H454 H 0.24078 0.56333 0.45352 0.0
H455 H 0.22593 0.62819 0.24357 0.0
H456 H 0.13166 0.60311 0.30835 0.0
H457 H 0.18066 0.60845 0.25643 0.0
H458 H 0.21072 0.59299 0.53386 0.0
H459 H 0.16129 0.58606 0.58404 0.0
C460 C 0.26852 0.56286 0.33811 0.0
C461 C 0.2735 0.57316 0.24872 0.0
C462 C 0.24643 0.57437 0.39029 0.0
C463 C 0.22936 0.59674 0.35427 0.0
C464 C 0.23788 0.61019 0.27156 0.0
C465 C 0.25954 0.59813 0.21818 0.0
C466 C 0.14876 0.60163 0.35843 0.0
C467 C 0.1429 0.59383 0.44959 0.0
C468 C 0.17697 0.60497 0.32908 0.0
C469 C 0.19991 0.60098 0.39078 0.0
C470 C 0.19371 0.59567 0.48403 0.0
C471 C 0.16546 0.59176 0.51292 0.0
H472 H 0.03538 0.737 0.14442 0.0
H473 H 0.97446 0.8052 0.19369 0.0
H474 H 0.06445 0.76945 0.05219 0.0
H475 H 1.00401 0.83767 0.10111 0.0
H476 H 0.09016 0.88057 0.16889 0.0
H477 H 0.06611 0.83489 0.19633 0.0
H478 H 0.055 0.82456 0.90477 0.0
H479 H 0.07945 0.87027 0.87718 0.0
C480 C 0.02723 0.7584 0.13096 0.0
C481 C 1.00308 0.76896 0.1781 0.0
C482 C 0.04405 0.7769 0.07849 0.0
C483 C 0.03649 0.80577 0.07197 0.0
C484 C 1.01003 0.81525 0.10633 0.0
C485 C 0.9932 0.79679 0.15901 0.0
C486 C 0.08448 0.86753 0.11071 0.0
C487 C 0.08659 0.87852 0.02123 0.0
C488 C 0.07034 0.84177 0.12624 0.0
C489 C 0.05849 0.82701 0.05225 0.0
C490 C 0.06408 0.83591 0.96214 0.0
C491 C 0.07838 0.86167 0.94657 0.0
H492 H 0.78342 0.06087 0.24365 0.0
H493 H 0.73545 0.98906 0.14259 0.0
H494 H 0.75563 0.09356 0.14594 0.0
H495 H 0.70806 0.02166 0.04239 0.0
H496 H 0.66164 0.07929 0.87334 0.0
H497 H 0.71044 0.0646 0.91162 0.0
H498 H 0.69884 0.09707 0.18534 0.0
H499 H 0.64986 0.11086 0.14796 0.0
C500 C 0.76768 0.05212 0.19723 0.0
C501 C 0.76116 0.02282 0.19964 0.0
C502 C 0.75204 0.0707 0.14143 0.0
C503 C 0.73013 0.05998 0.08656 0.0
C504 C 0.72535 0.03023 0.08314 0.0
C505 C 0.74065 1.01166 0.14054 0.0
C506 C 0.67025 0.08492 0.93971 0.0
C507 C 0.65214 0.09556 1.00866 0.0
C508 C 0.69803 0.07642 0.96149 0.0
C509 C 0.70791 0.07936 0.05143 0.0
C510 C 0.69155 0.09478 0.11524 0.0
C511 C 0.66358 0.10283 0.09388 0.0
H512 H 0.50608 0.77037 0.14564 0.0
H513 H 0.42978 0.76632 0.31302 0.0
H514 H 0.48741 0.73235 0.04942 0.0
H515 H 0.41081 0.72869 0.21526 0.0
H516 H 0.41286 0.65149 0.96069 0.0
H517 H 0.41565 0.70317 0.99155 0.0
H518 H 0.47307 0.68543 0.21715 0.0
H519 H 0.46992 0.63425 0.18846 0.0
C520 C 0.48449 0.76266 0.15773 0.0
C521 C 0.46931 0.77061 0.23655 0.0
C522 C 0.47377 0.74118 0.1024 0.0
C523 C 0.44781 0.72794 0.1258 0.0
C524 C 0.4307 0.73908 0.19597 0.0
C525 C 0.44159 0.76029 0.25211 0.0
C526 C 0.42553 0.65875 0.018 0.0
C527 C 0.44113 0.63915 0.07265 0.0
C528 C 0.42732 0.68809 0.03459 0.0
C529 C 0.44476 0.69768 0.10559 0.0
C530 C 0.45971 0.6781 0.16143 0.0
C531 C 0.45784 0.64902 0.14533 0.0
H532 H 0.73429 0.47802 0.17385 0.0
H533 H 0.7963 0.54645 0.18025 0.0
H534 H 0.76439 0.4519 0.06668 0.0
H535 H 0.82611 0.52058 0.07085 0.0
H536 H 0.88107 0.47245 0.90809 0.0
H537 H 0.83202 0.49059 0.91236 0.0
H538 H 0.81488 0.43609 0.14789 0.0
H539 H 0.86408 0.4182 0.14333 0.0
C540 C 0.75361 0.48819 0.14812 0.0
C541 C 0.76338 0.51402 0.18538 0.0
C542 C 0.77067 0.47325 0.08675 0.0
C543 C 0.79735 0.48428 0.06113 0.0
C544 C 0.80533 0.51188 0.08905 0.0
C545 C 0.78853 0.52658 0.152 0.0
C546 C 0.86616 0.46306 0.95667 0.0
C547 C 0.87591 0.44413 0.0255 0.0
C548 C 0.83822 0.47343 0.95915 0.0
C549 C 0.82002 0.46484 0.03067 0.0
C550 C 0.82858 0.44271 0.09135 0.0
C551 C 0.85666 0.43253 0.08922 0.0
H552 H 0.98776 0.23392 0.12105 0.0
H553 H 0.0416 0.26159 0.89725 0.0
H554 H 0.98298 0.18683 0.05133 0.0
H555 H 0.03592 0.21452 0.82485 0.0
H556 H 1.00123 0.12421 0.70466 0.0
H557 H 1.00038 0.17457 0.75505 0.0
H558 H 0.02014 0.14666 0.03077 0.0
H559 H 0.02196 0.09701 0.98045 0.0
C560 C 0.99725 0.23064 0.05403 0.0
C561 C 0.0142 0.25257 1.01398 0.0
C562 C 0.99502 0.20315 0.01465 0.0
C563 C 1.00922 0.19621 0.93205 0.0
C564 C 0.02445 0.2187 0.88799 0.0
C565 C 0.02732 0.24612 0.92894 0.0
C566 C 1.00548 0.12877 0.77604 0.0
C567 C 1.01176 0.10596 0.83793 0.0
C568 C 1.00506 0.15785 0.8051 0.0
C569 C 1.00999 0.16523 0.89781 0.0
C570 C 0.01592 0.14231 0.95924 0.0
C571 C 0.01712 0.11354 0.92991 0.0
H572 H 0.28842 0.05832 0.09594 0.0
H573 H 0.26691 0.9945 0.89812 0.0
H574 H 0.33617 0.06263 0.02854 0.0
H575 H 0.31477 0.99715 0.83345 0.0
H576 H 0.40519 1.00473 0.715 0.0
H577 H 0.35491 1.00906 0.7599 0.0
H578 H 0.38085 0.04698 0.01563 0.0
H579 H 0.43043 0.04415 0.96753 0.0
C580 C 0.29345 0.04592 0.03567 0.0
C581 C 0.27299 0.02665 1.00165 0.0
C582 C 0.32155 0.04764 0.99793 0.0
C583 C 0.33086 0.02967 0.92546 0.0
C584 C 0.30957 1.01169 0.88815 0.0
C585 C 0.28148 1.01031 0.92509 0.0
C586 C 0.40012 0.01418 0.7806 0.0
C587 C 0.42248 0.02411 0.83689 0.0
C588 C 0.37086 0.01657 0.80741 0.0
C589 C 0.36247 0.02848 0.89287 0.0
C590 C 0.38516 0.03828 0.94864 0.0
C591 C 0.41422 0.0364 0.92104 0.0
H592 H 0.46118 0.28072 0.01631 0.0
H593 H 0.55183 0.273 0.96939 0.0
H594 H 0.46096 0.32698 0.93536 0.0
H595 H 0.55211 0.31956 0.89101 0.0
H596 H 0.54526 0.40599 0.73307 0.0
H597 H 0.54262 0.35495 0.77685 0.0
H598 H 0.47352 0.37411 0.96389 0.0
H599 H 0.47595 0.42428 0.91924 0.0
C600 C 0.4809 0.2882 0.98501 0.0
C601 C 0.50633 0.27223 0.99777 0.0
C602 C 0.48103 0.3154 0.94039 0.0
C603 C 0.5067 0.32814 0.9076 0.0
C604 C 0.53175 0.31109 0.91412 0.0
C605 C 0.53155 0.28386 0.95841 0.0
C606 C 0.52937 0.39924 0.78302 0.0
C607 C 0.51096 0.41981 0.82234 0.0
C608 C 0.52789 0.36976 0.80887 0.0
C609 C 0.50771 0.35955 0.87453 0.0
C610 C 0.48909 0.38026 0.91222 0.0
C611 C 0.49071 0.40954 0.88698 0.0
H612 H 0.23926 0.46901 0.08422 0.0
H613 H 0.2538 0.54394 0.91611 0.0
H614 H 0.19208 0.46323 1.01416 0.0
H615 H 0.20643 0.53965 0.84999 0.0
H616 H 0.11806 0.52817 0.72502 0.0
H617 H 0.1685 0.52589 0.76821 0.0
H618 H 0.1459 0.47669 1.01097 0.0
H619 H 0.09607 0.47783 0.96472 0.0
C620 C 0.23287 0.48374 0.02992 0.0
C621 C 0.25105 0.50664 1.00529 0.0
C622 C 0.20511 0.48101 0.99093 0.0
C623 C 0.194 0.5014 0.92675 0.0
C624 C 0.21321 0.52314 0.89799 0.0
C625 C 0.24096 0.52557 0.93589 0.0
C626 C 0.12384 0.51667 0.78733 0.0
C627 C 0.10233 0.50324 0.84077 0.0
C628 C 0.15318 0.51547 0.81315 0.0
C629 C 0.16248 0.50113 0.89454 0.0
C630 C 0.14074 0.48756 0.94714 0.0
C631 C 0.11157 0.48845 0.92069 0.0
H632 H 0.95608 0.78213 0.53065 0.0
H633 H 0.04767 0.78114 0.50054 0.0
H634 H 0.9588 0.82807 0.60915 0.0
H635 H 0.05065 0.82725 0.57926 0.0
H636 H 0.04739 0.91016 0.76199 0.0
H637 H 0.04585 0.8599 0.71195 0.0
H638 H 0.96675 0.87733 0.56933 0.0
H639 H 0.96852 0.92702 0.6179 0.0
C640 C 0.97705 0.79092 0.54462 0.0
C641 C 1.00168 0.77661 0.51143 0.0
C642 C 0.97863 0.81798 0.58811 0.0
C643 C 1.00498 0.83246 0.60057 0.0
C644 C 0.02984 0.81734 0.57255 0.0
C645 C 0.02819 0.79032 0.52821 0.0
C646 C 0.02956 0.90331 0.72029 0.0
C647 C 1.00814 0.92344 0.69446 0.0
C648 C 0.02871 0.87421 0.69083 0.0
C649 C 1.00608 0.86363 0.63579 0.0
C650 C 0.98448 0.88376 0.6121 0.0
C651 C 0.9856 0.91277 0.63992 0.0
H652 H 0.74188 0.95097 0.51779 0.0
H653 H 0.75036 0.04246 0.53119 0.0
H654 H 0.69582 0.95385 0.59798 0.0
H655 H 0.70409 0.0457 0.60982 0.0
H656 H 0.61956 0.043 0.78007 0.0
H657 H 0.67004 0.03866 0.73337 0.0
H658 H 0.64818 0.96738 0.56199 0.0
H659 H 0.59825 0.97172 0.60848 0.0
C660 C 0.73465 0.97165 0.54169 0.0
C661 C 0.75082 0.99632 0.51992 0.0
C662 C 0.70759 0.97348 0.58592 0.0
C663 C 0.69519 1.00015 0.60968 0.0
C664 C 0.71237 0.02465 0.59392 0.0
C665 C 0.73943 0.02277 0.54963 0.0
C666 C 0.62549 0.02629 0.73272 0.0
C667 C 0.60419 1.00783 0.6983 0.0
C668 C 0.6547 0.02383 0.70529 0.0
C669 C 0.664 1.0025 0.64337 0.0
C670 C 0.64264 0.98385 0.61056 0.0
C671 C 0.61355 0.98654 0.63691 0.0
H672 H 0.4818 0.75698 0.60202 0.0
H673 H 0.5586 0.73734 0.4522 0.0
H674 H 0.48394 0.71034 0.67917 0.0
H675 H 0.56051 0.6902 0.5253 0.0
H676 H 0.5641 0.60424 0.67282 0.0
H677 H 0.56641 0.65444 0.62696 0.0
H678 H 0.47554 0.66287 0.67821 0.0
H679 H 0.47398 0.61288 0.7296 0.0
C680 C 0.49995 0.74314 0.58821 0.0
C681 C 0.52065 0.75192 0.52272 0.0
C682 C 0.50079 0.71563 0.63088 0.0
C683 C 0.52211 0.69509 0.60894 0.0
C684 C 0.54368 0.70461 0.54674 0.0
C685 C 0.54291 0.73224 0.50475 0.0
C686 C 0.54458 0.61683 0.67533 0.0
C687 C 0.51884 0.6039 0.70548 0.0
C688 C 0.5458 0.64604 0.64763 0.0
C689 C 0.52115 0.66388 0.64633 0.0
C690 C 0.4954 0.65089 0.6783 0.0
C691 C 0.49435 0.62173 0.70791 0.0
H692 H 0.77821 0.56415 0.53924 0.0
H693 H 0.7802 0.47285 0.50585 0.0
H694 H 0.82385 0.56182 0.62156 0.0
H695 H 0.82609 0.47025 0.58688 0.0
H696 H 0.90829 0.47138 0.76632 0.0
H697 H 0.85814 0.47314 0.71501 0.0
H698 H 0.87315 0.55631 0.59195 0.0
H699 H 0.92265 0.55463 0.64459 0.0
C700 C 0.78768 0.54331 0.55294 0.0
C701 C 0.77439 0.51861 0.51801 0.0
C702 C 0.81455 0.54197 0.59858 0.0
C703 C 0.82976 0.51584 0.6108 0.0
C704 C 0.8156 0.49089 0.58056 0.0
C705 C 0.78875 0.4923 0.53466 0.0
C706 C 0.90079 0.49029 0.72971 0.0
C707 C 0.92006 0.51295 0.71117 0.0
C708 C 0.87182 0.49121 0.69892 0.0
C709 C 0.86066 0.51497 0.64854 0.0
C710 C 0.88001 0.53771 0.63133 0.0
C711 C 0.9089 0.53665 0.6613 0.0
loop_
_geom_bond_atom_site_label_1
_geom_bond_atom_site_label_2
_geom_bond_distance
_geom_bond_site_symmetry_2
_ccdc_geom_bond_type
H0 C3 0.931 . S
H1 C6 0.928 . S
H2 C8 0.930 . S
C3 H0 0.931 . S
C3 C4 1.413 . S
C3 C5 1.360 . S
C4 C3 1.413 . S
C4 C8 1.429 . S
C5 C3 1.360 . S
C5 C6 1.372 . S
C6 H1 0.928 . S
C6 C5 1.372 . S
C6 C7 1.404 . S
C7 C6 1.404 . S
C7 C8 1.391 . S
C8 H2 0.930 . S
C8 C4 1.429 . S
C8 C7 1.391 . S
H9 C12 0.931 . S
H10 C15 0.928 . S
H11 C17 0.930 . S
C12 H9 0.931 . S
C12 C13 1.413 . S
C12 C14 1.360 . S
C13 C12 1.413 . S
C13 C17 1.429 1_655 S
C14 C12 1.360 . S
C14 C15 1.372 . S
C15 H10 0.928 . S
C15 C14 1.372 . S
C15 C16 1.404 . S
C16 C15 1.404 . S
C16 C17 1.390 1_655 S
C17 H11 0.930 . S
C17 C13 1.429 1_455 S
C17 C16 1.390 1_455 S
H18 C21 0.931 . S
H19 C24 0.928 . S
H20 C26 0.930 . S
C21 H18 0.931 . S
C21 C22 1.413 . S
C21 C23 1.360 . S
C22 C21 1.413 . S
C22 C26 1.429 1_565 S
C23 C21 1.360 . S
C23 C24 1.372 . S
C24 H19 0.928 . S
C24 C23 1.372 . S
C24 C25 1.404 . S
C25 C24 1.404 . S
C25 C26 1.390 1_565 S
C26 H20 0.930 . S
C26 C22 1.429 1_545 S
C26 C25 1.390 1_545 S
H27 C30 0.931 . S
H28 C33 0.928 . S
H29 C35 0.930 . S
C30 H27 0.931 . S
C30 C31 1.413 . S
C30 C32 1.360 . S
C31 C30 1.413 . S
C31 C35 1.429 . S
C32 C30 1.360 . S
C32 C33 1.372 . S
C33 H28 0.928 . S
C33 C32 1.372 . S
C33 C34 1.404 . S
C34 C33 1.404 . S
C34 C35 1.391 . S
C35 H29 0.930 . S
C35 C31 1.429 . S
C35 C34 1.391 . S
H36 C39 0.931 . S
H37 C42 0.928 . S
H38 C44 0.930 . S
C39 H36 0.931 . S
C39 C40 1.413 1_554 S
C39 C41 1.360 . S
C40 C39 1.413 1_556 S
C40 C44 1.429 . S
C41 C39 1.360 . S
C41 C42 1.372 . S
C42 H37 0.928 . S
C42 C41 1.372 . S
C42 C43 1.404 . S
C43 C42 1.404 . S
C43 C44 1.391 1_554 S
C44 H38 0.930 . S
C44 C40 1.429 . S
C44 C43 1.391 1_556 S
H45 C48 0.931 . S
H46 C51 0.928 . S
H47 C53 0.930 . S
C48 H45 0.931 . S
C48 C49 1.413 1_554 S
C48 C50 1.360 . S
C49 C48 1.413 1_556 S
C49 C53 1.429 1_655 S
C50 C48 1.360 . S
C50 C51 1.372 . S
C51 H46 0.928 . S
C51 C50 1.372 . S
C51 C52 1.404 . S
C52 C51 1.404 . S
C52 C53 1.391 1_654 S
C53 H47 0.930 . S
C53 C49 1.429 1_455 S
C53 C52 1.391 1_456 S
H54 C57 0.931 . S
H55 C60 0.928 . S
H56 C62 0.930 . S
C57 H54 0.931 . S
C57 C58 1.413 1_554 S
C57 C59 1.360 . S
C58 C57 1.413 1_556 S
C58 C62 1.429 1_565 S
C59 C57 1.360 . S
C59 C60 1.372 . S
C60 H55 0.928 . S
C60 C59 1.372 . S
C60 C61 1.404 . S
C61 C60 1.404 . S
C61 C62 1.391 1_564 S
C62 H56 0.930 . S
C62 C58 1.429 1_545 S
C62 C61 1.391 1_546 S
H63 C66 0.931 . S
H64 C69 0.928 . S
H65 C71 0.930 . S
C66 H63 0.931 . S
C66 C67 1.413 . S
C66 C68 1.360 1_554 S
C67 C66 1.413 . S
C67 C71 1.429 . S
C68 C66 1.360 1_556 S
C68 C69 1.372 . S
C69 H64 0.928 . S
C69 C68 1.372 . S
C69 C70 1.404 1_556 S
C70 C69 1.404 1_554 S
C70 C71 1.391 . S
C71 H65 0.930 . S
C71 C67 1.429 . S
C71 C70 1.391 . S
La72 C74 2.928 . S
La72 O92 2.521 . S
La72 O93 2.628 . S
La72 O94 2.554 . S
La72 O95 2.757 1_565 S
La72 O96 2.470 . S
La72 O101 2.482 1_455 S
La72 O103 2.503 1_565 S
La73 C83 2.928 . S
La73 O95 2.482 1_655 S
La73 O97 2.503 1_545 S
La73 O98 2.521 . S
La73 O99 2.628 . S
La73 O100 2.554 . S
La73 O101 2.757 1_545 S
La73 O102 2.470 . S
C74 La72 2.928 . S
C74 C75 1.503 . S
C74 O92 1.261 . S
C74 O93 1.243 . S
C75 C74 1.503 . S
C75 C76 1.394 . S
C75 C80 1.373 1_556 S
C76 C75 1.394 . S
C76 C77 1.380 1_556 S
C76 H104 0.930 . S
C77 C76 1.380 1_554 S
C77 C78 1.376 . S
C77 H105 0.930 . S
C78 C77 1.376 . S
C78 C79 1.370 . S
C79 C78 1.370 . S
C79 C80 1.396 . S
C79 H106 0.929 . S
C80 C75 1.373 1_554 S
C80 C79 1.396 . S
C80 H107 0.929 1_455 S
C81 O94 1.240 . S
C81 O95 1.289 1_565 S
C82 O96 1.258 1_655 S
C82 O97 1.256 . S
C83 La73 2.928 . S
C83 C84 1.503 . S
C83 O98 1.261 . S
C83 O99 1.243 . S
C84 C83 1.503 . S
C84 C85 1.394 . S
C84 C89 1.373 . S
C85 C84 1.394 . S
C85 C86 1.380 . S
C85 H108 0.930 . S
C86 C85 1.380 . S
C86 C87 1.376 . S
C86 H109 0.930 . S
C87 C86 1.376 . S
C87 C88 1.370 . S
C88 C87 1.370 . S
C88 C89 1.396 . S
C88 H110 0.929 . S
C89 C84 1.373 . S
C89 C88 1.396 . S
C89 H111 0.929 1_655 S
C90 O100 1.240 . S
C90 O101 1.289 1_545 S
C91 O102 1.258 1_455 S
C91 O103 1.256 . S
O92 La72 2.521 . S
O92 C74 1.261 . S
O93 La72 2.628 . S
O93 C74 1.243 . S
O94 La72 2.554 . S
O94 C81 1.240 . S
O95 La72 2.757 1_545 S
O95 La73 2.482 1_455 S
O95 C81 1.289 1_545 S
O96 La72 2.470 . S
O96 C82 1.258 1_455 S
O97 La73 2.503 1_565 S
O97 C82 1.256 . S
O98 La73 2.521 . S
O98 C83 1.261 . S
O99 La73 2.628 . S
O99 C83 1.243 . S
O100 La73 2.554 . S
O100 C90 1.240 . S
O101 La72 2.482 1_655 S
O101 La73 2.757 1_565 S
O101 C90 1.289 1_565 S
O102 La73 2.470 . S
O102 C91 1.258 1_655 S
O103 La72 2.503 1_545 S
O103 C91 1.256 . S
H104 C76 0.930 . S
H105 C77 0.930 . S
H106 C79 0.929 . S
H107 C80 0.929 1_655 S
H108 C85 0.930 . S
H109 C86 0.930 . S
H110 C88 0.929 . S
H111 C89 0.929 1_455 S
La112 C114 2.928 . S
La112 O132 2.521 . S
La112 O133 2.628 . S
La112 O134 2.554 . S
La112 O135 2.757 . S
La112 O136 2.470 . S
La112 O141 2.482 1_545 S
La112 O143 2.503 . S
La113 C123 2.928 . S
La113 O135 2.482 1_565 S
La113 O137 2.503 . S
La113 O138 2.521 . S
La113 O139 2.628 . S
La113 O140 2.554 . S
La113 O141 2.757 . S
La113 O142 2.470 . S
C114 La112 2.928 . S
C114 C115 1.503 . S
C114 O132 1.261 . S
C114 O133 1.243 . S
C115 C114 1.503 . S
C115 C116 1.394 . S
C115 C120 1.373 1_556 S
C116 C115 1.394 . S
C116 C117 1.380 1_556 S
C116 H144 0.930 . S
C117 C116 1.380 1_554 S
C117 C118 1.376 . S
C117 H145 0.930 . S
C118 C117 1.376 . S
C118 C119 1.370 . S
C119 C118 1.370 . S
C119 C120 1.396 . S
C119 H146 0.929 . S
C120 C115 1.373 1_554 S
C120 C119 1.396 . S
C120 H147 0.929 1_545 S
C121 O134 1.240 . S
C121 O135 1.289 . S
C122 O136 1.258 1_565 S
C122 O137 1.256 . S
C123 La113 2.928 . S
C123 C124 1.503 . S
C123 O138 1.261 . S
C123 O139 1.243 . S
C124 C123 1.503 . S
C124 C125 1.394 . S
C124 C129 1.373 . S
C125 C124 1.394 . S
C125 C126 1.380 . S
C125 H148 0.930 . S
C126 C125 1.380 . S
C126 C127 1.376 . S
C126 H149 0.930 . S
C127 C126 1.376 . S
C127 C128 1.370 . S
C128 C127 1.370 . S
C128 C129 1.396 . S
C128 H150 0.929 . S
C129 C124 1.373 . S
C129 C128 1.396 . S
C129 H151 0.929 1_565 S
C130 O140 1.240 . S
C130 O141 1.289 . S
C131 O142 1.258 1_545 S
C131 O143 1.256 . S
O132 La112 2.521 . S
O132 C114 1.261 . S
O133 La112 2.628 . S
O133 C114 1.243 . S
O134 La112 2.554 . S
O134 C121 1.240 . S
O135 La112 2.757 . S
O135 La113 2.482 1_545 S
O135 C121 1.289 . S
O136 La112 2.470 . S
O136 C122 1.258 1_545 S
O137 La113 2.503 . S
O137 C122 1.256 . S
O138 La113 2.521 . S
O138 C123 1.261 . S
O139 La113 2.628 . S
O139 C123 1.243 . S
O140 La113 2.554 . S
O140 C130 1.240 . S
O141 La112 2.482 1_565 S
O141 La113 2.757 . S
O141 C130 1.289 . S
O142 La113 2.470 . S
O142 C131 1.258 1_565 S
O143 La112 2.503 . S
O143 C131 1.256 . S
H144 C116 0.930 . S
H145 C117 0.930 . S
H146 C119 0.929 . S
H147 C120 0.929 1_565 S
H148 C125 0.930 . S
H149 C126 0.930 . S
H150 C128 0.929 . S
H151 C129 0.929 1_545 S
La152 C154 2.928 . S
La152 O172 2.521 . S
La152 O173 2.628 . S
La152 O174 2.554 . S
La152 O175 2.757 . S
La152 O176 2.470 . S
La152 O181 2.482 . S
La152 O183 2.503 . S
La153 C163 2.928 . S
La153 O175 2.482 . S
La153 O177 2.503 . S
La153 O178 2.521 . S
La153 O179 2.628 . S
La153 O180 2.554 . S
La153 O181 2.757 . S
La153 O182 2.470 . S
C154 La152 2.928 . S
C154 C155 1.503 . S
C154 O172 1.261 . S
C154 O173 1.243 . S
C155 C154 1.503 . S
C155 C156 1.394 . S
C155 C160 1.373 1_556 S
C156 C155 1.394 . S
C156 C157 1.380 1_556 S
C156 H184 0.930 . S
C157 C156 1.380 1_554 S
C157 C158 1.376 . S
C157 H185 0.930 . S
C158 C157 1.376 . S
C158 C159 1.370 . S
C159 C158 1.370 . S
C159 C160 1.396 . S
C159 H186 0.929 . S
C160 C155 1.373 1_554 S
C160 C159 1.396 . S
C160 H187 0.929 . S
C161 O174 1.240 . S
C161 O175 1.289 . S
C162 O176 1.258 . S
C162 O177 1.256 . S
C163 La153 2.928 . S
C163 C164 1.503 . S
C163 O178 1.261 . S
C163 O179 1.243 . S
C164 C163 1.503 . S
C164 C165 1.394 . S
C164 C169 1.373 . S
C165 C164 1.394 . S
C165 C166 1.380 . S
C165 H188 0.930 . S
C166 C165 1.380 . S
C166 C167 1.376 . S
C166 H189 0.930 . S
C167 C166 1.376 . S
C167 C168 1.370 . S
C168 C167 1.370 . S
C168 C169 1.396 . S
C168 H190 0.929 . S
C169 C164 1.373 . S
C169 C168 1.396 . S
C169 H191 0.929 . S
C170 O180 1.240 . S
C170 O181 1.289 . S
C171 O182 1.258 . S
C171 O183 1.256 . S
O172 La152 2.521 . S
O172 C154 1.261 . S
O173 La152 2.628 . S
O173 C154 1.243 . S
O174 La152 2.554 . S
O174 C161 1.240 . S
O175 La152 2.757 . S
O175 La153 2.482 . S
O175 C161 1.289 . S
O176 La152 2.470 . S
O176 C162 1.258 . S
O177 La153 2.503 . S
O177 C162 1.256 . S
O178 La153 2.521 . S
O178 C163 1.261 . S
O179 La153 2.628 . S
O179 C163 1.243 . S
O180 La153 2.554 . S
O180 C170 1.240 . S
O181 La152 2.482 . S
O181 La153 2.757 . S
O181 C170 1.289 . S
O182 La153 2.470 . S
O182 C171 1.258 . S
O183 La152 2.503 . S
O183 C171 1.256 . S
H184 C156 0.930 . S
H185 C157 0.930 . S
H186 C159 0.929 . S
H187 C160 0.929 . S
H188 C165 0.930 . S
H189 C166 0.930 . S
H190 C168 0.929 . S
H191 C169 0.929 . S
La192 C194 2.928 . S
La192 O212 2.521 . S
La192 O213 2.628 . S
La192 O214 2.554 . S
La192 O215 2.757 1_655 S
La192 O216 2.470 . S
La192 O221 2.482 . S
La192 O223 2.503 1_655 S
La193 C203 2.928 . S
La193 O215 2.482 . S
La193 O217 2.503 1_455 S
La193 O218 2.521 . S
La193 O219 2.628 . S
La193 O220 2.554 . S
La193 O221 2.757 1_455 S
La193 O222 2.470 . S
C194 La192 2.928 . S
C194 C195 1.503 . S
C194 O212 1.261 . S
C194 O213 1.243 . S
C195 C194 1.503 . S
C195 C196 1.394 . S
C195 C200 1.373 1_556 S
C196 C195 1.394 . S
C196 C197 1.380 1_556 S
C196 H224 0.930 . S
C197 C196 1.380 1_554 S
C197 C198 1.376 . S
C197 H225 0.930 . S
C198 C197 1.376 . S
C198 C199 1.370 . S
C199 C198 1.370 . S
C199 C200 1.396 . S
C199 H226 0.929 . S
C200 C195 1.373 1_554 S
C200 C199 1.396 . S
C200 H227 0.929 . S
C201 O214 1.246 . S
C201 O215 1.286 1_655 S
C202 O216 1.258 . S
C202 O217 1.256 . S
C203 La193 2.928 . S
C203 C204 1.503 . S
C203 O218 1.261 . S
C203 O219 1.243 . S
C204 C203 1.503 . S
C204 C205 1.394 . S
C204 C209 1.373 . S
C205 C204 1.394 . S
C205 C206 1.380 . S
C205 H228 0.930 . S
C206 C205 1.380 . S
C206 C207 1.376 . S
C206 H229 0.930 . S
C207 C206 1.376 . S
C207 C208 1.370 . S
C208 C207 1.370 . S
C208 C209 1.396 . S
C208 H230 0.929 . S
C209 C204 1.373 . S
C209 C208 1.396 . S
C209 H231 0.929 . S
C210 O220 1.251 . S
C210 O221 1.283 1_455 S
C211 O222 1.258 . S
C211 O223 1.256 . S
O212 La192 2.521 . S
O212 C194 1.261 . S
O213 La192 2.628 . S
O213 C194 1.243 . S
O214 La192 2.554 . S
O214 C201 1.246 . S
O215 La192 2.757 1_455 S
O215 La193 2.482 . S
O215 C201 1.286 1_455 S
O216 La192 2.470 . S
O216 C202 1.258 . S
O217 La193 2.503 1_655 S
O217 C202 1.256 . S
O218 La193 2.521 . S
O218 C203 1.261 . S
O219 La193 2.628 . S
O219 C203 1.243 . S
O220 La193 2.554 . S
O220 C210 1.251 . S
O221 La192 2.482 . S
O221 La193 2.757 1_655 S
O221 C210 1.283 1_655 S
O222 La193 2.470 . S
O222 C211 1.258 . S
O223 La192 2.503 1_455 S
O223 C211 1.256 . S
H224 C196 0.930 . S
H225 C197 0.930 . S
H226 C199 0.929 . S
H227 C200 0.929 . S
H228 C205 0.930 . S
H229 C206 0.930 . S
H230 C208 0.929 . S
H231 C209 0.929 . S
H232 C240 0.950 . S
H233 C245 0.950 . S
H234 C242 0.950 . S
H235 C244 0.950 . S
H236 C246 0.950 . S
H237 C248 0.950 . S
H238 C250 0.950 . S
H239 C251 0.950 . S
C240 H232 0.950 . S
C240 C241 1.395 . S
C240 C242 1.391 . S
C241 C240 1.395 . S
C241 C245 1.384 1_565 S
C242 H234 0.950 . S
C242 C240 1.391 . S
C242 C243 1.400 1_565 S
C243 C242 1.400 1_545 S
C243 C244 1.398 . S
C243 C249 1.491 . S
C244 H235 0.950 . S
C244 C243 1.398 . S
C244 C245 1.391 . S
C245 H233 0.950 . S
C245 C241 1.384 1_545 S
C245 C244 1.391 . S
C246 H236 0.950 . S
C246 C247 1.386 . S
C246 C248 1.391 . S
C247 C246 1.386 . S
C247 C251 1.393 1_545 S
C248 H237 0.950 . S
C248 C246 1.391 . S
C248 C249 1.400 . S
C249 C243 1.491 . S
C249 C248 1.400 . S
C249 C250 1.398 1_545 S
C250 H238 0.950 . S
C250 C249 1.398 1_565 S
C250 C251 1.391 . S
C251 H239 0.950 . S
C251 C247 1.393 1_565 S
C251 C250 1.391 . S
H252 C260 0.950 . S
H253 C265 0.950 . S
H254 C262 0.950 . S
H255 C264 0.950 . S
H256 C266 0.950 . S
H257 C268 0.950 . S
H258 C270 0.950 . S
H259 C271 0.950 . S
C260 H252 0.950 . S
C260 C261 1.386 . S
C260 C262 1.391 . S
C261 C260 1.386 . S
C261 C265 1.393 . S
C262 H254 0.950 . S
C262 C260 1.391 . S
C262 C263 1.400 . S
C263 C262 1.400 . S
C263 C264 1.398 . S
C263 C269 1.491 . S
C264 H255 0.950 . S
C264 C263 1.398 . S
C264 C265 1.391 . S
C265 H253 0.950 . S
C265 C261 1.393 . S
C265 C264 1.391 . S
C266 H256 0.950 . S
C266 C267 1.386 . S
C266 C268 1.391 . S
C267 C266 1.386 . S
C267 C271 1.393 . S
C268 H257 0.950 . S
C268 C266 1.391 . S
C268 C269 1.400 . S
C269 C263 1.491 . S
C269 C268 1.400 . S
C269 C270 1.398 . S
C270 H258 0.950 . S
C270 C269 1.398 . S
C270 C271 1.391 . S
C271 H259 0.950 . S
C271 C267 1.393 . S
C271 C270 1.391 . S
H272 C280 0.950 . S
H273 C285 0.950 . S
H274 C282 0.950 . S
H275 C284 0.950 . S
H276 C286 0.950 . S
H277 C288 0.950 . S
H278 C290 0.950 . S
H279 C291 0.950 . S
C280 H272 0.950 . S
C280 C281 1.386 . S
C280 C282 1.391 . S
C281 C280 1.386 . S
C281 C285 1.393 . S
C282 H274 0.950 . S
C282 C280 1.391 . S
C282 C283 1.400 . S
C283 C282 1.400 . S
C283 C284 1.398 . S
C283 C289 1.491 . S
C284 H275 0.950 . S
C284 C283 1.398 . S
C284 C285 1.391 . S
C285 H273 0.950 . S
C285 C281 1.393 . S
C285 C284 1.391 . S
C286 H276 0.950 . S
C286 C287 1.386 . S
C286 C288 1.391 . S
C287 C286 1.386 . S
C287 C291 1.393 . S
C288 H277 0.950 . S
C288 C286 1.391 . S
C288 C289 1.400 . S
C289 C283 1.491 . S
C289 C288 1.400 . S
C289 C290 1.398 . S
C290 H278 0.950 . S
C290 C289 1.398 . S
C290 C291 1.391 . S
C291 H279 0.950 . S
C291 C287 1.393 . S
C291 C290 1.391 . S
H292 C300 0.950 . S
H293 C305 0.950 . S
H294 C302 0.950 . S
H295 C304 0.950 . S
H296 C306 0.950 . S
H297 C308 0.950 . S
H298 C310 0.950 . S
H299 C311 0.950 . S
C300 H292 0.950 . S
C300 C301 1.382 1_455 S
C300 C302 1.391 . S
C301 C300 1.382 1_655 S
C301 C305 1.396 . S
C302 H294 0.950 . S
C302 C300 1.391 . S
C302 C303 1.426 . S
C303 C302 1.426 . S
C303 C304 1.371 1_455 S
C303 C309 1.492 . S
C304 H295 0.950 . S
C304 C303 1.371 1_655 S
C304 C305 1.391 . S
C305 H293 0.950 . S
C305 C301 1.396 . S
C305 C304 1.391 . S
C306 H296 0.950 . S
C306 C307 1.386 1_655 S
C306 C308 1.391 . S
C307 C306 1.386 1_455 S
C307 C311 1.393 . S
C308 H297 0.950 . S
C308 C306 1.391 . S
C308 C309 1.400 1_655 S
C309 C303 1.492 . S
C309 C308 1.400 1_455 S
C309 C310 1.398 . S
C310 H298 0.950 . S
C310 C309 1.398 . S
C310 C311 1.391 . S
C311 H299 0.950 . S
C311 C307 1.393 . S
C311 C310 1.391 . S
H312 C320 0.950 . S
H313 C325 0.950 . S
H314 C322 0.950 . S
H315 C324 0.950 . S
H316 C326 0.950 . S
H317 C328 0.950 . S
H318 C330 0.950 . S
H319 C331 0.950 . S
C320 H312 0.950 . S
C320 C321 1.389 1_565 S
C320 C322 1.391 . S
C321 C320 1.389 1_545 S
C321 C325 1.390 . S
C322 H314 0.950 . S
C322 C320 1.391 . S
C322 C323 1.410 . S
C323 C322 1.410 . S
C323 C324 1.388 1_565 S
C323 C329 1.490 . S
C324 H315 0.950 . S
C324 C323 1.388 1_545 S
C324 C325 1.391 . S
C325 H313 0.950 . S
C325 C321 1.390 . S
C325 C324 1.391 . S
C326 H316 0.950 . S
C326 C327 1.351 1_545 S
C326 C328 1.391 1_556 S
C327 C326 1.351 1_565 S
C327 C331 1.427 . S
C328 H317 0.950 . S
C328 C326 1.391 1_554 S
C328 C329 1.382 1_545 S
C329 C323 1.490 . S
C329 C328 1.382 1_565 S
C329 C330 1.417 . S
C330 H318 0.950 . S
C330 C329 1.417 . S
C330 C331 1.391 1_554 S
C331 H319 0.950 . S
C331 C327 1.427 . S
C331 C330 1.391 1_556 S
H332 C340 0.950 . S
H333 C345 0.950 . S
H334 C342 0.950 . S
H335 C344 0.950 . S
H336 C346 0.950 . S
H337 C348 0.950 . S
H338 C350 0.950 . S
H339 C351 0.950 . S
C340 H332 0.950 . S
C340 C341 1.386 . S
C340 C342 1.391 . S
C341 C340 1.386 . S
C341 C345 1.393 . S
C342 H334 0.950 . S
C342 C340 1.391 . S
C342 C343 1.400 . S
C343 C342 1.400 . S
C343 C344 1.398 . S
C343 C349 1.491 . S
C344 H335 0.950 . S
C344 C343 1.398 . S
C344 C345 1.391 . S
C345 H333 0.950 . S
C345 C341 1.393 . S
C345 C344 1.391 . S
C346 H336 0.950 . S
C346 C347 1.386 1_554 S
C346 C348 1.391 . S
C347 C346 1.386 1_556 S
C347 C351 1.393 . S
C348 H337 0.950 . S
C348 C346 1.391 . S
C348 C349 1.400 . S
C349 C343 1.491 . S
C349 C348 1.400 . S
C349 C350 1.398 . S
C350 H338 0.950 . S
C350 C349 1.398 . S
C350 C351 1.391 1_554 S
C351 H339 0.950 . S
C351 C347 1.393 . S
C351 C350 1.391 1_556 S
H352 C360 0.950 . S
H353 C365 0.950 . S
H354 C362 0.950 . S
H355 C364 0.950 . S
H356 C366 0.950 . S
H357 C368 0.950 . S
H358 C370 0.950 . S
H359 C371 0.948 1_556 S
C360 H352 0.950 . S
C360 C361 1.386 . S
C360 C362 1.391 . S
C361 C360 1.386 . S
C361 C365 1.393 . S
C362 H354 0.950 . S
C362 C360 1.391 . S
C362 C363 1.400 . S
C363 C362 1.400 . S
C363 C364 1.398 . S
C363 C369 1.491 . S
C364 H355 0.950 . S
C364 C363 1.398 . S
C364 C365 1.391 . S
C365 H353 0.950 . S
C365 C361 1.393 . S
C365 C364 1.391 . S
C366 H356 0.950 . S
C366 C367 1.386 . S
C366 C368 1.391 1_556 S
C367 C366 1.386 . S
C367 C371 1.386 1_556 S
C368 H357 0.950 . S
C368 C366 1.391 1_554 S
C368 C369 1.400 . S
C369 C363 1.491 . S
C369 C368 1.400 . S
C369 C370 1.398 . S
C370 H358 0.950 . S
C370 C369 1.398 . S
C370 C371 1.399 . S
C371 H359 0.948 1_554 S
C371 C367 1.386 1_554 S
C371 C370 1.399 . S
H372 C380 0.950 . S
H373 C385 0.950 . S
H374 C382 0.950 . S
H375 C384 0.950 . S
H376 C386 0.950 . S
H377 C388 0.950 . S
H378 C390 0.950 . S
H379 C391 0.950 . S
C380 H372 0.950 . S
C380 C381 1.358 1_455 S
C380 C382 1.391 . S
C381 C380 1.358 1_655 S
C381 C385 1.422 . S
C382 H374 0.950 . S
C382 C380 1.391 . S
C382 C383 1.400 1_455 S
C383 C382 1.400 1_655 S
C383 C384 1.398 . S
C383 C389 1.491 . S
C384 H375 0.950 . S
C384 C383 1.398 . S
C384 C385 1.391 . S
C385 H373 0.950 . S
C385 C381 1.422 . S
C385 C384 1.391 . S
C386 H376 0.950 . S
C386 C387 1.386 . S
C386 C388 1.391 1_556 S
C387 C386 1.386 . S
C387 C391 1.393 1_655 S
C388 H377 0.950 . S
C388 C386 1.391 1_554 S
C388 C389 1.400 . S
C389 C383 1.491 . S
C389 C388 1.400 . S
C389 C390 1.398 1_655 S
C390 H378 0.950 . S
C390 C389 1.398 1_455 S
C390 C391 1.391 1_554 S
C391 H379 0.950 . S
C391 C387 1.393 1_455 S
C391 C390 1.391 1_556 S
H392 C400 0.950 . S
H393 C405 0.950 . S
H394 C402 0.950 . S
H395 C404 0.945 1_455 S
H396 C406 0.950 . S
H397 C408 0.950 . S
H398 C410 0.950 . S
H399 C411 0.950 . S
C400 H392 0.950 . S
C400 C401 1.386 1_655 S
C400 C402 1.391 . S
C401 C400 1.386 1_455 S
C401 C405 1.393 . S
C402 H394 0.950 . S
C402 C400 1.391 . S
C402 C403 1.400 . S
C403 C402 1.400 . S
C403 C404 1.398 . S
C403 C409 1.491 . S
C404 H395 0.945 1_655 S
C404 C403 1.398 . S
C404 C405 1.391 1_655 S
C405 H393 0.950 . S
C405 C401 1.393 . S
C405 C404 1.391 1_455 S
C406 H396 0.950 . S
C406 C407 1.386 . S
C406 C408 1.391 . S
C407 C406 1.386 . S
C407 C411 1.393 . S
C408 H397 0.950 . S
C408 C406 1.391 . S
C408 C409 1.400 . S
C409 C403 1.491 . S
C409 C408 1.400 . S
C409 C410 1.398 . S
C410 H398 0.950 . S
C410 C409 1.398 . S
C410 C411 1.391 . S
C411 H399 0.950 . S
C411 C407 1.393 . S
C411 C410 1.391 . S
H412 C420 0.950 . S
H413 C425 0.950 . S
H414 C422 0.950 . S
H415 C424 0.950 . S
H416 C426 0.950 . S
H417 C428 0.950 1_545 S
H418 C430 0.950 . S
H419 C431 0.950 . S
C420 H412 0.950 . S
C420 C421 1.386 1_565 S
C420 C422 1.391 . S
C421 C420 1.386 1_545 S
C421 C425 1.393 . S
C422 H414 0.950 . S
C422 C420 1.391 . S
C422 C423 1.400 . S
C423 C422 1.400 . S
C423 C424 1.398 1_565 S
C423 C429 1.491 . S
C424 H415 0.950 . S
C424 C423 1.398 1_545 S
C424 C425 1.391 . S
C425 H413 0.950 . S
C425 C421 1.393 . S
C425 C424 1.391 . S
C426 H416 0.950 . S
C426 C427 1.386 . S
C426 C428 1.391 . S
C427 C426 1.386 . S
C427 C431 1.393 . S
C428 H417 0.950 1_565 S
C428 C426 1.391 . S
C428 C429 1.400 . S
C429 C423 1.491 . S
C429 C428 1.400 . S
C429 C430 1.398 . S
C430 H418 0.950 . S
C430 C429 1.398 . S
C430 C431 1.391 . S
C431 H419 0.950 . S
C431 C427 1.393 . S
C431 C430 1.391 . S
H432 C440 0.950 . S
H433 C445 0.950 . S
H434 C442 0.950 . S
H435 C444 0.950 . S
H436 C446 0.950 . S
H437 C448 0.950 . S
H438 C450 0.950 . S
H439 C451 0.950 . S
C440 H432 0.950 . S
C440 C441 1.386 . S
C440 C442 1.391 . S
C441 C440 1.386 . S
C441 C445 1.393 . S
C442 H434 0.950 . S
C442 C440 1.391 . S
C442 C443 1.400 . S
C443 C442 1.400 . S
C443 C444 1.398 . S
C443 C449 1.491 . S
C444 H435 0.950 . S
C444 C443 1.398 . S
C444 C445 1.391 . S
C445 H433 0.950 . S
C445 C441 1.393 . S
C445 C444 1.391 . S
C446 H436 0.950 . S
C446 C447 1.386 . S
C446 C448 1.391 . S
C447 C446 1.386 . S
C447 C451 1.393 . S
C448 H437 0.950 . S
C448 C446 1.391 . S
C448 C449 1.400 . S
C449 C443 1.491 . S
C449 C448 1.400 . S
C449 C450 1.398 . S
C450 H438 0.950 . S
C450 C449 1.398 . S
C450 C451 1.391 . S
C451 H439 0.950 . S
C451 C447 1.393 . S
C451 C450 1.391 . S
H452 C460 0.950 . S
H453 C465 0.950 . S
H454 C462 0.950 . S
H455 C464 0.950 . S
H456 C466 0.950 . S
H457 C468 0.950 . S
H458 C470 0.950 . S
H459 C471 0.950 . S
C460 H452 0.950 . S
C460 C461 1.386 . S
C460 C462 1.391 . S
C461 C460 1.386 . S
C461 C465 1.393 . S
C462 H454 0.950 . S
C462 C460 1.391 . S
C462 C463 1.400 . S
C463 C462 1.400 . S
C463 C464 1.398 . S
C463 C469 1.491 . S
C464 H455 0.950 . S
C464 C463 1.398 . S
C464 C465 1.391 . S
C465 H453 0.950 . S
C465 C461 1.393 . S
C465 C464 1.391 . S
C466 H456 0.950 . S
C466 C467 1.386 . S
C466 C468 1.391 . S
C467 C466 1.386 . S
C467 C471 1.393 . S
C468 H457 0.950 . S
C468 C466 1.391 . S
C468 C469 1.400 . S
C469 C463 1.491 . S
C469 C468 1.400 . S
C469 C470 1.398 . S
C470 H458 0.950 . S
C470 C469 1.398 . S
C470 C471 1.391 . S
C471 H459 0.950 . S
C471 C467 1.393 . S
C471 C470 1.391 . S
H472 C480 0.950 . S
H473 C485 0.950 . S
H474 C482 0.950 . S
H475 C484 0.950 . S
H476 C486 0.950 . S
H477 C488 0.950 . S
H478 C490 0.950 . S
H479 C491 0.950 1_556 S
C480 H472 0.950 . S
C480 C481 1.386 1_455 S
C480 C482 1.391 . S
C481 C480 1.386 1_655 S
C481 C485 1.393 . S
C482 H474 0.950 . S
C482 C480 1.391 . S
C482 C483 1.400 . S
C483 C482 1.400 . S
C483 C484 1.398 . S
C483 C489 1.491 . S
C484 H475 0.950 . S
C484 C483 1.398 . S
C484 C485 1.391 1_455 S
C485 H473 0.950 . S
C485 C481 1.393 . S
C485 C484 1.391 1_655 S
C486 H476 0.950 . S
C486 C487 1.386 . S
C486 C488 1.391 . S
C487 C486 1.386 . S
C487 C491 1.393 . S
C488 H477 0.950 . S
C488 C486 1.391 . S
C488 C489 1.400 . S
C489 C483 1.491 . S
C489 C488 1.400 . S
C489 C490 1.398 . S
C490 H478 0.950 . S
C490 C489 1.398 . S
C490 C491 1.391 . S
C491 H479 0.950 1_554 S
C491 C487 1.393 . S
C491 C490 1.391 . S
H492 C500 0.950 . S
H493 C505 0.965 . S
H494 C502 0.950 . S
H495 C504 0.950 . S
H496 C506 0.950 1_556 S
H497 C508 0.950 . S
H498 C510 0.950 . S
H499 C511 0.950 . S
C500 H492 0.950 . S
C500 C501 1.386 1_545 S
C500 C502 1.391 . S
C501 C500 1.386 1_565 S
C501 C505 1.394 . S
C502 H494 0.950 . S
C502 C500 1.391 . S
C502 C503 1.400 . S
C503 C502 1.400 . S
C503 C504 1.398 . S
C503 C509 1.491 . S
C504 H495 0.950 . S
C504 C503 1.398 . S
C504 C505 1.376 1_545 S
C505 H493 0.965 . S
C505 C501 1.394 . S
C505 C504 1.376 1_565 S
C506 H496 0.950 1_554 S
C506 C507 1.386 . S
C506 C508 1.391 . S
C507 C506 1.386 . S
C507 C511 1.393 . S
C508 H497 0.950 . S
C508 C506 1.391 . S
C508 C509 1.400 . S
C509 C503 1.491 . S
C509 C508 1.400 . S
C509 C510 1.398 . S
C510 H498 0.950 . S
C510 C509 1.398 . S
C510 C511 1.391 . S
C511 H499 0.950 . S
C511 C507 1.393 . S
C511 C510 1.391 . S
H512 C520 0.950 . S
H513 C525 0.950 . S
H514 C522 0.950 . S
H515 C524 0.950 . S
H516 C526 0.950 . S
H517 C528 0.950 . S
H518 C530 0.950 . S
H519 C531 0.950 . S
C520 H512 0.950 . S
C520 C521 1.386 . S
C520 C522 1.391 . S
C521 C520 1.386 . S
C521 C525 1.393 . S
C522 H514 0.950 . S
C522 C520 1.391 . S
C522 C523 1.400 . S
C523 C522 1.400 . S
C523 C524 1.398 . S
C523 C529 1.491 . S
C524 H515 0.950 . S
C524 C523 1.398 . S
C524 C525 1.391 . S
C525 H513 0.950 . S
C525 C521 1.393 . S
C525 C524 1.391 . S
C526 H516 0.950 . S
C526 C527 1.386 . S
C526 C528 1.391 . S
C527 C526 1.386 . S
C527 C531 1.393 . S
C528 H517 0.950 . S
C528 C526 1.391 . S
C528 C529 1.400 . S
C529 C523 1.491 . S
C529 C528 1.400 . S
C529 C530 1.398 . S
C530 H518 0.950 . S
C530 C529 1.398 . S
C530 C531 1.391 . S
C531 H519 0.950 . S
C531 C527 1.393 . S
C531 C530 1.391 . S
H532 C540 0.950 . S
H533 C545 0.950 . S
H534 C542 0.950 . S
H535 C544 0.950 . S
H536 C546 0.950 . S
H537 C548 0.950 . S
H538 C550 0.950 . S
H539 C551 0.950 . S
C540 H532 0.950 . S
C540 C541 1.386 . S
C540 C542 1.391 . S
C541 C540 1.386 . S
C541 C545 1.393 . S
C542 H534 0.950 . S
C542 C540 1.391 . S
C542 C543 1.400 . S
C543 C542 1.400 . S
C543 C544 1.398 . S
C543 C549 1.491 . S
C544 H535 0.950 . S
C544 C543 1.398 . S
C544 C545 1.391 . S
C545 H533 0.950 . S
C545 C541 1.393 . S
C545 C544 1.391 . S
C546 H536 0.950 . S
C546 C547 1.386 . S
C546 C548 1.391 . S
C547 C546 1.386 . S
C547 C551 1.393 . S
C548 H537 0.950 . S
C548 C546 1.391 . S
C548 C549 1.400 . S
C549 C543 1.491 . S
C549 C548 1.400 . S
C549 C550 1.398 . S
C550 H538 0.950 . S
C550 C549 1.398 . S
C550 C551 1.391 . S
C551 H539 0.950 . S
C551 C547 1.393 . S
C551 C550 1.391 . S
H552 C560 0.949 1_554 S
H553 C565 0.950 . S
H554 C562 0.950 1_554 S
H555 C564 0.950 . S
H556 C566 0.950 . S
H557 C568 0.950 . S
H558 C570 0.950 . S
H559 C571 0.950 . S
C560 H552 0.949 1_556 S
C560 C561 1.386 1_655 S
C560 C562 1.391 1_655 S
C561 C560 1.386 1_455 S
C561 C565 1.393 . S
C562 H554 0.950 1_556 S
C562 C560 1.391 1_455 S
C562 C563 1.400 . S
C563 C562 1.400 . S
C563 C564 1.398 . S
C563 C569 1.491 . S
C564 H555 0.950 . S
C564 C563 1.398 . S
C564 C565 1.391 . S
C565 H553 0.950 . S
C565 C561 1.393 . S
C565 C564 1.391 . S
C566 H556 0.950 . S
C566 C567 1.386 . S
C566 C568 1.391 . S
C567 C566 1.386 . S
C567 C571 1.393 . S
C568 H557 0.950 . S
C568 C566 1.391 . S
C568 C569 1.400 . S
C569 C563 1.491 . S
C569 C568 1.400 . S
C569 C570 1.398 . S
C570 H558 0.950 . S
C570 C569 1.398 . S
C570 C571 1.391 . S
C571 H559 0.950 . S
C571 C567 1.393 . S
C571 C570 1.391 . S
H572 C580 0.950 1_554 S
H573 C585 0.950 . S
H574 C582 0.950 1_554 S
H575 C584 0.950 . S
H576 C586 0.950 . S
H577 C588 0.950 . S
H578 C590 0.950 . S
H579 C591 0.950 . S
C580 H572 0.950 1_556 S
C580 C581 1.386 . S
C580 C582 1.391 . S
C581 C580 1.386 . S
C581 C585 1.393 . S
C582 H574 0.950 1_556 S
C582 C580 1.391 . S
C582 C583 1.400 . S
C583 C582 1.400 . S
C583 C584 1.398 . S
C583 C589 1.491 . S
C584 H575 0.950 . S
C584 C583 1.398 . S
C584 C585 1.391 . S
C585 H573 0.950 . S
C585 C581 1.393 . S
C585 C584 1.391 . S
C586 H576 0.950 . S
C586 C587 1.386 . S
C586 C588 1.391 . S
C587 C586 1.386 . S
C587 C591 1.393 . S
C588 H577 0.950 . S
C588 C586 1.391 . S
C588 C589 1.400 . S
C589 C583 1.491 . S
C589 C588 1.400 . S
C589 C590 1.398 . S
C590 H578 0.950 . S
C590 C589 1.398 . S
C590 C591 1.391 . S
C591 H579 0.950 . S
C591 C587 1.393 . S
C591 C590 1.391 . S
H592 C600 0.950 . S
H593 C605 0.950 . S
H594 C602 0.950 . S
H595 C604 0.950 . S
H596 C606 0.950 . S
H597 C608 0.950 . S
H598 C610 0.950 . S
H599 C611 0.950 . S
C600 H592 0.950 . S
C600 C601 1.386 . S
C600 C602 1.391 . S
C601 C600 1.386 . S
C601 C605 1.393 . S
C602 H594 0.950 . S
C602 C600 1.391 . S
C602 C603 1.400 . S
C603 C602 1.400 . S
C603 C604 1.398 . S
C603 C609 1.491 . S
C604 H595 0.950 . S
C604 C603 1.398 . S
C604 C605 1.391 . S
C605 H593 0.950 . S
C605 C601 1.393 . S
C605 C604 1.391 . S
C606 H596 0.950 . S
C606 C607 1.386 . S
C606 C608 1.391 . S
C607 C606 1.386 . S
C607 C611 1.393 . S
C608 H597 0.950 . S
C608 C606 1.391 . S
C608 C609 1.400 . S
C609 C603 1.491 . S
C609 C608 1.400 . S
C609 C610 1.398 . S
C610 H598 0.950 . S
C610 C609 1.398 . S
C610 C611 1.391 . S
C611 H599 0.950 . S
C611 C607 1.393 . S
C611 C610 1.391 . S
H612 C620 0.950 . S
H613 C625 0.950 . S
H614 C622 0.950 . S
H615 C624 0.950 . S
H616 C626 0.950 . S
H617 C628 0.950 . S
H618 C630 0.950 . S
H619 C631 0.950 . S
C620 H612 0.950 . S
C620 C621 1.386 . S
C620 C622 1.391 . S
C621 C620 1.386 . S
C621 C625 1.393 . S
C622 H614 0.950 . S
C622 C620 1.391 . S
C622 C623 1.400 . S
C623 C622 1.400 . S
C623 C624 1.398 . S
C623 C629 1.491 . S
C624 H615 0.950 . S
C624 C623 1.398 . S
C624 C625 1.391 . S
C625 H613 0.950 . S
C625 C621 1.393 . S
C625 C624 1.391 . S
C626 H616 0.950 . S
C626 C627 1.386 . S
C626 C628 1.391 . S
C627 C626 1.386 . S
C627 C631 1.393 . S
C628 H617 0.950 . S
C628 C626 1.391 . S
C628 C629 1.400 . S
C629 C623 1.491 . S
C629 C628 1.400 . S
C629 C630 1.398 . S
C630 H618 0.950 . S
C630 C629 1.398 . S
C630 C631 1.391 . S
C631 H619 0.950 . S
C631 C627 1.393 . S
C631 C630 1.391 . S
H632 C640 0.950 . S
H633 C645 0.950 . S
H634 C642 0.950 . S
H635 C644 0.950 . S
H636 C646 0.950 . S
H637 C648 0.950 . S
H638 C650 0.950 . S
H639 C651 0.950 . S
C640 H632 0.950 . S
C640 C641 1.386 . S
C640 C642 1.391 . S
C641 C640 1.386 . S
C641 C645 1.393 1_655 S
C642 H634 0.950 . S
C642 C640 1.391 . S
C642 C643 1.400 . S
C643 C642 1.400 . S
C643 C644 1.398 1_655 S
C643 C649 1.491 . S
C644 H635 0.950 . S
C644 C643 1.398 1_455 S
C644 C645 1.391 . S
C645 H633 0.950 . S
C645 C641 1.393 1_455 S
C645 C644 1.391 . S
C646 H636 0.950 . S
C646 C647 1.386 1_455 S
C646 C648 1.391 . S
C647 C646 1.386 1_655 S
C647 C651 1.393 . S
C648 H637 0.950 . S
C648 C646 1.391 . S
C648 C649 1.400 1_455 S
C649 C643 1.491 . S
C649 C648 1.400 1_655 S
C649 C650 1.398 . S
C650 H638 0.950 . S
C650 C649 1.398 . S
C650 C651 1.391 . S
C651 H639 0.950 . S
C651 C647 1.393 . S
C651 C650 1.391 . S
H652 C660 0.950 . S
H653 C665 0.950 . S
H654 C662 0.950 . S
H655 C664 0.950 . S
H656 C666 0.950 . S
H657 C668 0.950 . S
H658 C670 0.950 . S
H659 C671 0.950 . S
C660 H652 0.950 . S
C660 C661 1.386 . S
C660 C662 1.391 . S
C661 C660 1.386 . S
C661 C665 1.393 1_565 S
C662 H654 0.950 . S
C662 C660 1.391 . S
C662 C663 1.400 . S
C663 C662 1.400 . S
C663 C664 1.398 1_565 S
C663 C669 1.491 . S
C664 H655 0.950 . S
C664 C663 1.398 1_545 S
C664 C665 1.391 . S
C665 H653 0.950 . S
C665 C661 1.393 1_545 S
C665 C664 1.391 . S
C666 H656 0.950 . S
C666 C667 1.386 1_545 S
C666 C668 1.391 . S
C667 C666 1.386 1_565 S
C667 C671 1.393 . S
C668 H657 0.950 . S
C668 C666 1.391 . S
C668 C669 1.400 1_545 S
C669 C663 1.491 . S
C669 C668 1.400 1_565 S
C669 C670 1.398 . S
C670 H658 0.950 . S
C670 C669 1.398 . S
C670 C671 1.391 . S
C671 H659 0.950 . S
C671 C667 1.393 . S
C671 C670 1.391 . S
H672 C680 0.950 . S
H673 C685 0.950 . S
H674 C682 0.950 . S
H675 C684 0.950 . S
H676 C686 0.950 . S
H677 C688 0.950 . S
H678 C690 0.950 . S
H679 C691 0.950 . S
C680 H672 0.950 . S
C680 C681 1.386 . S
C680 C682 1.391 . S
C681 C680 1.386 . S
C681 C685 1.393 . S
C682 H674 0.950 . S
C682 C680 1.391 . S
C682 C683 1.400 . S
C683 C682 1.400 . S
C683 C684 1.398 . S
C683 C689 1.491 . S
C684 H675 0.950 . S
C684 C683 1.398 . S
C684 C685 1.391 . S
C685 H673 0.950 . S
C685 C681 1.393 . S
C685 C684 1.391 . S
C686 H676 0.950 . S
C686 C687 1.386 . S
C686 C688 1.391 . S
C687 C686 1.386 . S
C687 C691 1.393 . S
C688 H677 0.950 . S
C688 C686 1.391 . S
C688 C689 1.400 . S
C689 C683 1.491 . S
C689 C688 1.400 . S
C689 C690 1.398 . S
C690 H678 0.950 . S
C690 C689 1.398 . S
C690 C691 1.391 . S
C691 H679 0.950 . S
C691 C687 1.393 . S
C691 C690 1.391 . S
H692 C700 0.950 . S
H693 C705 0.950 . S
H694 C702 0.950 . S
H695 C704 0.950 . S
H696 C706 0.950 . S
H697 C708 0.950 . S
H698 C710 0.950 . S
H699 C711 0.950 . S
C700 H692 0.950 . S
C700 C701 1.386 . S
C700 C702 1.391 . S
C701 C700 1.386 . S
C701 C705 1.393 . S
C702 H694 0.950 . S
C702 C700 1.391 . S
C702 C703 1.400 . S
C703 C702 1.400 . S
C703 C704 1.398 . S
C703 C709 1.491 . S
C704 H695 0.950 . S
C704 C703 1.398 . S
C704 C705 1.391 . S
C705 H693 0.950 . S
C705 C701 1.393 . S
C705 C704 1.391 . S
C706 H696 0.950 . S
C706 C707 1.386 . S
C706 C708 1.391 . S
C707 C706 1.386 . S
C707 C711 1.393 . S
C708 H697 0.950 . S
C708 C706 1.391 . S
C708 C709 1.400 . S
C709 C703 1.491 . S
C709 C708 1.400 . S
C709 C710 1.398 . S
C710 H698 0.950 . S
C710 C709 1.398 . S
C710 C711 1.391 . S
C711 H699 0.950 . S
C711 C707 1.393 . S
C711 C710 1.391 . S
C241 C61 1.786 . S
C247 C81 1.934 1_545 S
C267 C121 1.949 . S
C261 C70 1.806 . S
C287 C161 1.953 . S
C281 C43 1.822 . S
C307 C201 1.945 1_455 S
C301 C52 1.819 . S
C327 C90 1.933 1_565 S
C321 C25 1.782 1_545 S
C341 C34 1.824 . S
C347 C130 1.957 . S
C361 C7 1.807 . S
C367 C170 1.958 . S
C381 C16 1.820 . S
C387 C210 1.942 1_655 S
C407 C87 0.487 . S
C401 C50 0.436 1_455 S
C427 C127 0.512 . S
C421 C59 0.457 1_545 S
C447 C167 0.543 . S
C441 C67 0.476 . S
C461 C41 0.445 . S
C467 C207 0.467 . S
C481 C14 0.497 . S
C487 C78 0.549 . S
C507 C118 0.474 . S
C501 C23 0.451 . S
C527 C158 0.497 . S
C521 C31 0.447 . S
C541 C5 0.469 . S
C547 C198 0.502 . S
C561 C49 2.041 1_455 S
C567 C91 2.255 . S
C581 C58 1.997 1_545 S
C587 C131 2.214 . S
C607 C171 2.196 . S
C601 C68 1.962 . S
C627 C211 2.239 . S
C621 C40 2.003 . S
C641 C13 2.052 . S
C647 C82 2.258 . S
C667 C122 2.202 . S
C661 C22 2.008 . S
C687 C162 2.186 . S
C681 C32 1.968 . S
C701 C4 2.032 . S
C707 C202 2.235 . S
