# Generated by pormake.
# Topology nom, (4,4)-cn, num edge types: 1
# Building blocks:
#     Node 0, Type 0, BuildingBlock: MIFKUJ_clean_linker_1, # of connection points: 4
#     Node 1, Type 0, BuildingBlock: MIFKUJ_clean_linker_1, # of connection points: 4
#     Node 2, Type 0, BuildingBlock: MIFKUJ_clean_linker_1, # of connection points: 4
#     Node 3, Type 0, BuildingBlock: MIFKUJ_clean_linker_1, # of connection points: 4
#     Node 4, Type 0, BuildingBlock: MIFKUJ_clean_linker_1, # of connection points: 4
#     Node 5, Type 0, BuildingBlock: MIFKUJ_clean_linker_1, # of connection points: 4
#     Node 6, Type 1, BuildingBlock: QUQFOY_clean_sbu_3, # of connection points: 4
#     Node 7, Type 1, BuildingBlock: QUQFOY_clean_sbu_3, # of connection points: 4
#     Node 8, Type 1, BuildingBlock: QUQFOY_clean_sbu_3, # of connection points: 4
#     Node 9, Type 1, BuildingBlock: QUQFOY_clean_sbu_3, # of connection points: 4
#     Node 10, Type 1, BuildingBlock: QUQFOY_clean_sbu_3, # of connection points: 4
#     Node 11, Type 1, BuildingBlock: QUQFOY_clean_sbu_3, # of connection points: 4
#     Edge 12, Type (0, 1), BuildingBlock: TEMPAE_clean_linker_10, # of connection points: 2
#     Edge 13, Type (0, 1), BuildingBlock: TEMPAE_clean_linker_10, # of connection points: 2
#     Edge 14, Type (0, 1), BuildingBlock: TEMPAE_clean_linker_10, # of connection points: 2
#     Edge 15, Type (0, 1), BuildingBlock: TEMPAE_clean_linker_10, # of connection points: 2
#     Edge 16, Type (0, 1), BuildingBlock: TEMPAE_clean_linker_10, # of connection points: 2
#     Edge 17, Type (0, 1), BuildingBlock: TEMPAE_clean_linker_10, # of connection points: 2
#     Edge 18, Type (0, 1), BuildingBlock: TEMPAE_clean_linker_10, # of connection points: 2
#     Edge 19, Type (0, 1), BuildingBlock: TEMPAE_clean_linker_10, # of connection points: 2
#     Edge 20, Type (0, 1), BuildingBlock: TEMPAE_clean_linker_10, # of connection points: 2
#     Edge 21, Type (0, 1), BuildingBlock: TEMPAE_clean_linker_10, # of connection points: 2
#     Edge 22, Type (0, 1), BuildingBlock: TEMPAE_clean_linker_10, # of connection points: 2
#     Edge 23, Type (0, 1), BuildingBlock: TEMPAE_clean_linker_10, # of connection points: 2
#     Edge 24, Type (0, 1), BuildingBlock: TEMPAE_clean_linker_10, # of connection points: 2
#     Edge 25, Type (0, 1), BuildingBlock: TEMPAE_clean_linker_10, # of connection points: 2
#     Edge 26, Type (0, 1), BuildingBlock: TEMPAE_clean_linker_10, # of connection points: 2
#     Edge 27, Type (0, 1), BuildingBlock: TEMPAE_clean_linker_10, # of connection points: 2
#     Edge 28, Type (0, 1), BuildingBlock: TEMPAE_clean_linker_10, # of connection points: 2
#     Edge 29, Type (0, 1), BuildingBlock: TEMPAE_clean_linker_10, # of connection points: 2
#     Edge 30, Type (0, 1), BuildingBlock: TEMPAE_clean_linker_10, # of connection points: 2
#     Edge 31, Type (0, 1), BuildingBlock: TEMPAE_clean_linker_10, # of connection points: 2
#     Edge 32, Type (0, 1), BuildingBlock: TEMPAE_clean_linker_10, # of connection points: 2
#     Edge 33, Type (0, 1), BuildingBlock: TEMPAE_clean_linker_10, # of connection points: 2
#     Edge 34, Type (0, 1), BuildingBlock: TEMPAE_clean_linker_10, # of connection points: 2
#     Edge 35, Type (0, 1), BuildingBlock: TEMPAE_clean_linker_10, # of connection points: 2
# Relax obj value: 0.002
# Max RMSD: 0.099
# Mean RMSD: 0.065
data_MOF--net-nom--node1-QUQFOY_clean_sbu_3--node2-MIFKUJ_clean_linker_1--edge1-TEMPAE_clean_linker_10
_symmetry_space_group_name_H-M    P1
_symmetry_Int_Tables_number       1
_symmetry_cell_setting            triclinic
loop_
_symmetry_equiv_pos_as_xyz
'x, y, z'
_cell_length_a     54.023399
_cell_length_b     55.363734
_cell_length_c     57.401652
_cell_angle_alpha  89.98858
_cell_angle_beta   90.003276
_cell_angle_gamma 120.02025
loop_
_atom_site_label
_atom_site_type_symbol
_atom_site_fract_x
_atom_site_fract_y
_atom_site_fract_z
_atom_type_partial_charge
H0 H 0.97611 0.45067 0.26519 0.0
H1 H 0.94408 0.43796 0.23197 0.0
H2 H 0.90064 0.47672 0.26501 0.0
H3 H 0.93484 0.49198 0.29687 0.0
H4 H 0.01437 0.49974 0.28014 0.0
H5 H 0.92327 0.42564 0.31394 0.0
H6 H 0.87294 0.40764 0.32468 0.0
H7 H 0.89809 0.47999 0.36803 0.0
H8 H 0.94778 0.49829 0.35678 0.0
H9 H 0.02579 0.53702 0.37315 0.0
H10 H 0.06138 0.55511 0.40456 0.0
H11 H 0.09556 0.50391 0.38028 0.0
H12 H 0.06037 0.48635 0.34848 0.0
H13 H 0.98394 0.48145 0.36284 0.0
H14 H 0.06032 0.55959 0.32941 0.0
H15 H 0.10907 0.59323 0.31801 0.0
H16 H 0.11235 0.53043 0.27555 0.0
H17 H 0.06318 0.4966 0.28717 0.0
C18 C 0.95761 0.4718 0.28382 0.0
C19 C 0.95978 0.45657 0.26519 0.0
C20 C 0.94109 0.44896 0.24629 0.0
C21 C 0.91936 0.45595 0.24573 0.0
C22 C 0.91722 0.47119 0.26452 0.0
C23 C 0.93649 0.47951 0.28308 0.0
C24 C 0.97824 0.48044 0.30346 0.0
C25 C 0.00759 0.49504 0.29817 0.0
C26 C 0.96957 0.47589 0.32715 0.0
C27 C 0.93928 0.46343 0.33442 0.0
C28 C 0.91788 0.4376 0.32572 0.0
C29 C 0.88925 0.42734 0.33185 0.0
C30 C 0.88182 0.44243 0.34723 0.0
C31 C 0.90334 0.46781 0.35638 0.0
C32 C 0.93172 0.47824 0.34997 0.0
C33 C 0.04053 0.51039 0.35858 0.0
C34 C 0.04092 0.52968 0.37464 0.0
C35 C 0.06127 0.54008 0.39242 0.0
C36 C 0.08106 0.53083 0.39468 0.0
C37 C 0.08039 0.51122 0.37882 0.0
C38 C 0.06041 0.50125 0.36073 0.0
C39 C 0.01957 0.50017 0.33932 0.0
C40 C 0.99044 0.48529 0.34471 0.0
C41 C 0.02826 0.50572 0.31583 0.0
C42 C 0.05833 0.52546 0.30947 0.0
C43 C 0.0717 0.55286 0.31803 0.0
C44 C 0.09959 0.57208 0.31149 0.0
C45 C 0.11464 0.56441 0.29605 0.0
C46 C 0.10122 0.53694 0.28743 0.0
C47 C 0.07323 0.51761 0.29407 0.0
H48 H 0.437 0.94763 0.51804 0.0
H49 H 0.40564 0.89896 0.52934 0.0
H50 H 0.46771 0.87818 0.50336 0.0
H51 H 0.49914 0.9271 0.49202 0.0
H52 H 0.49305 0.9853 0.53187 0.0
H53 H 0.44006 0.94094 0.46126 0.0
H54 H 0.42305 0.90789 0.42891 0.0
H55 H 0.51047 0.93387 0.41044 0.0
H56 H 0.52729 0.96738 0.44264 0.0
H57 H 0.56448 0.05973 0.45694 0.0
H58 H 0.58167 0.10803 0.44472 0.0
H59 H 0.5098 0.10621 0.47953 0.0
H60 H 0.49309 0.05835 0.49187 0.0
H61 H 0.51384 0.01147 0.44851 0.0
H62 H 0.56507 0.06543 0.51342 0.0
H63 H 0.58011 0.10106 0.54378 0.0
H64 H 0.49612 0.05637 0.57469 0.0
H65 H 0.4806 0.02135 0.54374 0.0
C66 C 0.47029 0.94086 0.50416 0.0
C67 C 0.44392 0.93262 0.51491 0.0
C68 C 0.42599 0.90485 0.5212 0.0
C69 C 0.43428 0.88491 0.51712 0.0
C70 C 0.46095 0.89325 0.50678 0.0
C71 C 0.4788 0.92106 0.50023 0.0
C72 C 0.48836 0.97017 0.49675 0.0
C73 C 0.49758 0.99114 0.51367 0.0
C74 C 0.49515 0.97758 0.4731 0.0
C75 C 0.4849 0.95641 0.45439 0.0
C76 C 0.45552 0.93923 0.45041 0.0
C77 C 0.44585 0.92028 0.43196 0.0
C78 C 0.46541 0.91819 0.4171 0.0
C79 C 0.49487 0.93519 0.42139 0.0
C80 C 0.50451 0.95424 0.4398 0.0
C81 C 0.52781 0.05569 0.47561 0.0
C82 C 0.55248 0.06981 0.46187 0.0
C83 C 0.5622 0.09732 0.45485 0.0
C84 C 0.54723 0.111 0.46135 0.0
C85 C 0.52216 0.09648 0.47468 0.0
C86 C 0.51254 0.06911 0.48169 0.0
C87 C 0.51753 0.02677 0.48358 0.0
C88 C 0.50994 0.00583 0.4668 0.0
C89 C 0.51221 0.01942 0.50743 0.0
C90 C 0.52157 0.04082 0.52608 0.0
C91 C 0.5497 0.06349 0.52647 0.0
C92 C 0.55832 0.08378 0.54383 0.0
C93 C 0.53919 0.08138 0.56142 0.0
C94 C 0.51123 0.05854 0.5613 0.0
C95 C 0.50244 0.03852 0.54369 0.0
H96 H 0.54497 0.56649 0.71769 0.0
H97 H 0.52659 0.58278 0.74894 0.0
H98 H 0.44434 0.54539 0.71447 0.0
H99 H 0.46222 0.52685 0.68452 0.0
H100 H 0.52883 0.51446 0.70576 0.0
H101 H 0.52014 0.59063 0.66666 0.0
H102 H 0.48936 0.60866 0.65271 0.0
H103 H 0.44276 0.53529 0.60995 0.0
H104 H 0.4723 0.51687 0.62447 0.0
H105 H 0.50792 0.48318 0.60884 0.0
H106 H 0.52299 0.46258 0.57838 0.0
H107 H 0.60348 0.49122 0.61374 0.0
H108 H 0.58865 0.51263 0.64406 0.0
H109 H 0.52558 0.53272 0.62163 0.0
H110 H 0.51643 0.45257 0.65662 0.0
H111 H 0.53026 0.41912 0.66915 0.0
H112 H 0.58832 0.47872 0.71951 0.0
H113 H 0.5761 0.51305 0.70531 0.0
C114 C 0.50518 0.54586 0.69851 0.0
C115 C 0.52293 0.56173 0.71693 0.0
C116 C 0.51244 0.57138 0.73466 0.0
C117 C 0.48398 0.56576 0.73424 0.0
C118 C 0.46626 0.54993 0.71563 0.0
C119 C 0.4766 0.53966 0.69821 0.0
C120 C 0.51656 0.53505 0.68025 0.0
C121 C 0.52858 0.51885 0.68737 0.0
C122 C 0.51471 0.5394 0.65614 0.0
C123 C 0.49837 0.55226 0.64679 0.0
C124 C 0.50329 0.57847 0.6543 0.0
C125 C 0.48584 0.58879 0.6463 0.0
C126 C 0.46393 0.57339 0.63017 0.0
C127 C 0.4598 0.54773 0.62211 0.0
C128 C 0.4767 0.53722 0.63042 0.0
C129 C 0.54714 0.49949 0.62877 0.0
C130 C 0.52895 0.48534 0.60997 0.0
C131 C 0.53753 0.47352 0.5926 0.0
C132 C 0.56439 0.4754 0.59374 0.0
C133 C 0.58257 0.48935 0.6126 0.0
C134 C 0.57412 0.50155 0.62988 0.0
C135 C 0.53752 0.5119 0.64709 0.0
C136 C 0.52625 0.52868 0.64005 0.0
C137 C 0.53804 0.50632 0.6711 0.0
C138 C 0.54582 0.48564 0.67954 0.0
C139 C 0.53257 0.45867 0.67004 0.0
C140 C 0.54013 0.43931 0.67759 0.0
C141 C 0.56044 0.4461 0.69542 0.0
C142 C 0.57302 0.47288 0.70545 0.0
C143 C 0.56586 0.49248 0.69751 0.0
H144 H 0.03501 0.55365 0.76655 0.0
H145 H 0.06909 0.56616 0.73489 0.0
H146 H 0.11431 0.53341 0.77407 0.0
H147 H 0.07828 0.51843 0.80466 0.0
H148 H -0.00161 0.50339 0.78289 0.0
H149 H 0.08645 0.58456 0.81596 0.0
H150 H 0.13646 0.60305 0.82791 0.0
H151 H 0.10952 0.53521 0.87686 0.0
H152 H 0.06016 0.51642 0.8645 0.0
H153 H 0.98862 0.48805 0.88296 0.0
H154 H 0.95184 0.47202 0.91304 0.0
H155 H 0.90273 0.49712 0.87041 0.0
H156 H 0.9401 0.51399 0.84045 0.0
H157 H 0.02338 0.53412 0.86485 0.0
H158 H 0.94602 0.45123 0.8385 0.0
H159 H 0.89804 0.41652 0.82694 0.0
H160 H 0.90524 0.46611 0.76625 0.0
H161 H 0.95187 0.50238 0.77966 0.0
C162 C 0.05433 0.53557 0.78821 0.0
C163 C 0.0522 0.54903 0.76826 0.0
C164 C 0.07204 0.55656 0.75026 0.0
C165 C 0.09489 0.55125 0.75192 0.0
C166 C 0.09694 0.53767 0.77197 0.0
C167 C 0.07657 0.52945 0.78972 0.0
C168 C 0.03258 0.52735 0.8069 0.0
C169 C 0.00373 0.51054 0.80075 0.0
C170 C 0.03977 0.53521 0.83049 0.0
C171 C 0.06961 0.54891 0.83913 0.0
C172 C 0.09137 0.5738 0.82933 0.0
C173 C 0.11983 0.58433 0.83615 0.0
C174 C 0.12672 0.57051 0.85329 0.0
C175 C 0.10474 0.54643 0.86381 0.0
C176 C 0.07653 0.5357 0.85675 0.0
C177 C 0.96709 0.50211 0.85936 0.0
C178 C 0.9702 0.49057 0.88019 0.0
C179 C 0.94917 0.48136 0.89735 0.0
C180 C 0.92449 0.48332 0.89397 0.0
C181 C 0.92148 0.49518 0.8733 0.0
C182 C 0.94277 0.50479 0.85622 0.0
C183 C 0.98901 0.51052 0.84079 0.0
C184 C 0.01784 0.52741 0.8469 0.0
C185 C 0.98188 0.50116 0.81747 0.0
C186 C 0.95242 0.4799 0.81034 0.0
C187 C 0.93692 0.45512 0.82313 0.0
C188 C 0.90958 0.43485 0.81612 0.0
C189 C 0.8975 0.4382 0.79549 0.0
C190 C 0.91332 0.46288 0.7825 0.0
C191 C 0.9403 0.48358 0.78998 0.0
H192 H 0.56121 0.07255 0.97825 0.0
H193 H 0.59354 0.12059 0.99038 0.0
H194 H 0.52484 0.12023 0.02935 0.0
H195 H 0.49284 0.07185 0.01757 0.0
H196 H 0.49962 0.02636 0.02655 0.0
H197 H 0.52846 0.02828 0.92876 0.0
H198 H 0.54595 0.0606 0.89587 0.0
H199 H 0.51369 0.10984 0.92793 0.0
H200 H 0.49475 0.07665 0.96041 0.0
H201 H 0.42805 0.94666 0.95536 0.0
H202 H 0.41165 0.89801 0.94466 0.0
H203 H 0.48459 0.90289 0.9802 0.0
H204 H 0.50044 0.951 0.99101 0.0
H205 H 0.48073 0.99421 0.9444 0.0
H206 H 0.42598 0.95276 0.01558 0.0
H207 H 0.41029 0.91845 0.04735 0.0
H208 H 0.49832 0.94912 0.06654 0.0
H209 H 0.51391 0.98387 0.03516 0.0
C210 C 0.52461 0.0688 -0.00314 0.0
C211 C 0.55308 0.08295 0.98922 0.0
C212 C 0.5715 0.11043 0.99612 0.0
C213 C 0.56177 0.12428 0.01082 0.0
C214 C 0.53312 0.11005 0.01829 0.0
C215 C 0.51476 0.08249 0.01148 0.0
C216 C 0.50562 0.03921 0.99055 0.0
C217 C 0.49524 0.01946 0.00856 0.0
C218 C 0.49982 0.03015 0.96708 0.0
C219 C 0.51039 0.05004 0.94721 0.0
C220 C 0.52474 0.04578 0.92865 0.0
C221 C 0.53481 0.06426 0.90991 0.0
C222 C 0.53112 0.08759 0.90951 0.0
C223 C 0.51691 0.09204 0.92802 0.0
C224 C 0.50626 0.07318 0.94659 0.0
C225 C 0.46514 0.95218 0.9743 0.0
C226 C 0.4403 0.93707 0.96093 0.0
C227 C 0.43108 0.90939 0.95476 0.0
C228 C 0.44672 0.89654 0.96173 0.0
C229 C 0.47169 0.91192 0.97499 0.0
C230 C 0.48081 0.93945 0.98117 0.0
C231 C 0.47583 0.98174 0.98032 0.0
C232 C 0.48465 0.0014 0.96232 0.0
C233 C 0.48054 0.99087 0.00368 0.0
C234 C 0.47105 0.97081 0.02318 0.0
C235 C 0.44183 0.95219 0.02677 0.0
C236 C 0.43293 0.9327 0.04482 0.0
C237 C 0.45318 0.93127 0.0592 0.0
C238 C 0.4824 0.94986 0.05554 0.0
C239 C 0.49127 0.96972 0.0378 0.0
H240 H 0.47073 0.45639 0.21835 0.0
H241 H 0.48492 0.43792 0.251 0.0
H242 H 0.57103 0.47687 0.2235 0.0
H243 H 0.55739 0.49778 0.19261 0.0
H244 H 0.48718 0.50835 0.20754 0.0
H245 H 0.49755 0.43399 0.16426 0.0
H246 H 0.52835 0.41467 0.15319 0.0
H247 H 0.59251 0.49577 0.12851 0.0
H248 H 0.56185 0.51487 0.13911 0.0
H249 H 0.52237 0.54842 0.11253 0.0
H250 H 0.50903 0.56913 0.08075 0.0
H251 H 0.42455 0.53532 0.11015 0.0
H252 H 0.43751 0.51373 0.14147 0.0
H253 H 0.5063 0.49894 0.12449 0.0
H254 H 0.51184 0.57534 0.1645 0.0
H255 H 0.49674 0.60858 0.17545 0.0
H256 H 0.4207 0.54186 0.20743 0.0
H257 H 0.43648 0.50879 0.19689 0.0
C258 C 0.51278 0.478 0.20264 0.0
C259 C 0.49271 0.46104 0.21946 0.0
C260 C 0.50082 0.45015 0.238 0.0
C261 C 0.52916 0.45562 0.23997 0.0
C262 C 0.54912 0.47243 0.22291 0.0
C263 C 0.54118 0.48397 0.2048 0.0
C264 C 0.50413 0.49032 0.18351 0.0
C265 C 0.49078 0.50571 0.18936 0.0
C266 C 0.51032 0.48847 0.15982 0.0
C267 C 0.52751 0.47582 0.15247 0.0
C268 C 0.51816 0.44747 0.15631 0.0
C269 C 0.53564 0.43651 0.15005 0.0
C270 C 0.56263 0.45394 0.14021 0.0
C271 C 0.57175 0.48212 0.13619 0.0
C272 C 0.55424 0.49293 0.1421 0.0
C273 C 0.48103 0.52965 0.12953 0.0
C274 C 0.50091 0.54529 0.11209 0.0
C275 C 0.49333 0.55717 0.09399 0.0
C276 C 0.46583 0.55386 0.09312 0.0
C277 C 0.44601 0.53844 0.11063 0.0
C278 C 0.45344 0.52618 0.12854 0.0
C279 C 0.48902 0.51658 0.1485 0.0
C280 C 0.50207 0.50101 0.14264 0.0
C281 C 0.48414 0.51964 0.17224 0.0
C282 C 0.47508 0.53961 0.17966 0.0
C283 C 0.49192 0.56791 0.17389 0.0
C284 C 0.48319 0.58684 0.18006 0.0
C285 C 0.45736 0.57783 0.19211 0.0
C286 C 0.44082 0.54951 0.19833 0.0
C287 C 0.44971 0.53057 0.19226 0.0
C288 C 0.69108 0.41201 0.39835 0.0
O289 O 0.69088 0.43386 0.40483 0.0
Cd290 Cd 0.65088 0.43312 0.42408 0.0
O291 O 0.66928 0.38801 0.40155 0.0
Cd292 Cd 0.62067 0.36657 0.4177 0.0
C293 C 0.60118 0.40207 0.38087 0.0
O294 O 0.63483 0.39631 0.45196 0.0
O295 O 0.58953 0.36834 0.44797 0.0
O296 O 0.63011 0.32966 0.42878 0.0
C297 C 0.60985 0.38666 0.46012 0.0
O298 O 0.61524 0.4232 0.39395 0.0
C299 C 0.60635 0.30975 0.42175 0.0
O300 O 0.60141 0.37945 0.38428 0.0
O301 O 0.58908 0.31628 0.41258 0.0
C302 C 0.29491 0.58712 0.57747 0.0
O303 O 0.27293 0.5641 0.57221 0.0
Cd304 Cd 0.22912 0.56142 0.55949 0.0
O305 O 0.2944 0.60977 0.576 0.0
Cd306 Cd 0.26093 0.62562 0.56511 0.0
C307 C 0.21438 0.58828 0.60748 0.0
O308 O 0.23958 0.5967 0.53066 0.0
O309 O 0.21784 0.61741 0.54451 0.0
O310 O 0.3003 0.6642 0.54518 0.0
C311 C 0.22028 0.60318 0.52829 0.0
O312 O 0.20626 0.56749 0.59389 0.0
C313 C 0.29916 0.68331 0.55645 0.0
O314 O 0.23583 0.61191 0.60245 0.0
O315 O 0.27997 0.67564 0.57205 0.0
C316 C 0.70682 0.28382 0.73869 0.0
O317 O 0.70569 0.26214 0.73017 0.0
Cd318 Cd 0.66146 0.22132 0.72018 0.0
O319 O 0.68442 0.28585 0.74048 0.0
Cd320 Cd 0.63314 0.2597 0.72973 0.0
C321 C 0.62109 0.21026 0.76991 0.0
O322 O 0.6379 0.23761 0.69485 0.0
O323 O 0.59465 0.22348 0.70624 0.0
O324 O 0.63565 0.30059 0.71189 0.0
C325 C 0.6113 0.22224 0.69132 0.0
O326 O 0.63535 0.20307 0.75682 0.0
C327 C 0.61854 0.30234 0.72601 0.0
O328 O 0.61746 0.23056 0.76442 0.0
O329 O 0.60826 0.28428 0.74219 0.0
C330 C 0.31807 0.59882 0.90145 0.0
O331 O 0.31895 0.57725 0.90775 0.0
Cd332 Cd 0.36172 0.57982 0.92335 0.0
O333 O 0.34012 0.62289 0.90325 0.0
Cd334 Cd 0.39003 0.64603 0.9162 0.0
C335 C 0.40659 0.6107 0.87688 0.0
O336 O 0.38072 0.61733 0.95083 0.0
O337 O 0.42509 0.64669 0.94356 0.0
O338 O 0.37836 0.68083 0.92888 0.0
C339 C 0.40668 0.62821 0.95694 0.0
O340 O 0.39389 0.58976 0.8904 0.0
C341 C 0.40084 0.70168 0.92099 0.0
O342 O 0.40665 0.63335 0.88101 0.0
O343 O 0.41863 0.69671 0.91064 0.0
C344 C 0.71831 0.42368 0.07927 0.0
O345 O 0.74038 0.44548 0.07194 0.0
Cd346 Cd 0.78162 0.44548 0.05614 0.0
O347 O 0.71659 0.39994 0.07791 0.0
Cd348 Cd 0.74457 0.37909 0.06327 0.0
C349 C 0.79724 0.41574 0.10222 0.0
O350 O 0.76303 0.40822 0.02868 0.0
O351 O 0.78075 0.38174 0.03606 0.0
O352 O 0.69854 0.34174 0.05018 0.0
C353 C 0.77943 0.39917 0.02255 0.0
O354 O 0.8051 0.43668 0.08882 0.0
C355 C 0.70198 0.32203 0.05761 0.0
O356 O 0.7746 0.39263 0.09813 0.0
O357 O 0.72528 0.32886 0.06815 0.0
C358 C 0.30046 0.72678 0.24121 0.0
O359 O 0.29987 0.74837 0.23461 0.0
Cd360 Cd 0.34227 0.79002 0.2228 0.0
O361 O 0.32384 0.72642 0.24103 0.0
Cd362 Cd 0.37452 0.75657 0.23007 0.0
C363 C 0.38364 0.80307 0.27184 0.0
O364 O 0.36643 0.7765 0.19502 0.0
O365 O 0.41 0.79615 0.2073 0.0
O366 O 0.37035 0.71378 0.2149 0.0
C367 C 0.39254 0.79425 0.19166 0.0
O368 O 0.36952 0.81024 0.25857 0.0
C369 C 0.39285 0.71675 0.22453 0.0
O370 O 0.38745 0.7829 0.26632 0.0
O371 O 0.40713 0.73852 0.2368 0.0
C372 C 0.15099 0.58803 0.26456 0.0
C373 C 0.14368 0.58559 0.28822 0.0
C374 C 0.1773 0.60983 0.25661 0.0
C375 C 0.19666 0.62961 0.27274 0.0
C376 C 0.18986 0.62662 0.29675 0.0
C377 C 0.16346 0.6046 0.30421 0.0
C378 C 0.18389 0.61231 0.23087 0.0
C379 C 0.21003 0.64724 0.31448 0.0
C380 C 0.27395 0.67725 0.25504 0.0
C381 C 0.27386 0.70181 0.2491 0.0
C382 C 0.24892 0.65348 0.26261 0.0
C383 C 0.22327 0.65434 0.26436 0.0
C384 C 0.223 0.67901 0.25836 0.0
C385 C 0.24829 0.70244 0.25077 0.0
C386 C 0.24995 0.62748 0.26881 0.0
C387 C 0.19601 0.68072 0.26009 0.0
H388 H 0.13568 0.57355 0.2521 0.0
H389 H 0.15806 0.60251 0.32257 0.0
H390 H 0.18481 0.63143 0.2239 0.0
H391 H 0.20513 0.61433 0.22785 0.0
H392 H 0.16759 0.59407 0.22089 0.0
H393 H 0.20227 0.64101 0.33262 0.0
H394 H 0.23149 0.64934 0.31292 0.0
H395 H 0.21259 0.6681 0.3111 0.0
H396 H 0.29358 0.67653 0.25376 0.0
H397 H 0.24801 0.72131 0.24624 0.0
H398 H 0.23441 0.6097 0.25801 0.0
H399 H 0.24367 0.62186 0.28728 0.0
H400 H 0.27154 0.63011 0.2662 0.0
H401 H 0.17905 0.66441 0.24902 0.0
H402 H 0.19937 0.70139 0.2546 0.0
H403 H 0.18805 0.67674 0.27829 0.0
C404 C 0.56775 0.1496 0.43182 0.0
C405 C 0.55759 0.14036 0.45444 0.0
C406 C 0.57664 0.1771 0.42498 0.0
C407 C 0.57519 0.19567 0.44113 0.0
C408 C 0.5653 0.18656 0.46406 0.0
C409 C 0.55673 0.15906 0.47045 0.0
C410 C 0.58725 0.18619 0.40043 0.0
C411 C 0.56353 0.20579 0.48181 0.0
C412 C 0.61935 0.27405 0.43335 0.0
C413 C 0.59887 0.28037 0.42494 0.0
C414 C 0.61218 0.24643 0.43793 0.0
C415 C 0.5838 0.22466 0.43416 0.0
C416 C 0.56322 0.23081 0.42505 0.0
C417 C 0.57104 0.25863 0.42046 0.0
C418 C 0.63477 0.24063 0.44745 0.0
C419 C 0.53271 0.20811 0.4209 0.0
H420 H 0.56822 0.13517 0.41931 0.0
H421 H 0.5494 0.15218 0.48808 0.0
H422 H 0.57315 0.19235 0.39129 0.0
H423 H 0.60902 0.20476 0.40075 0.0
H424 H 0.58788 0.16947 0.39022 0.0
H425 H 0.5554 0.19543 0.49892 0.0
H426 H 0.58495 0.2244 0.48443 0.0
H427 H 0.54919 0.21327 0.47534 0.0
H428 H 0.64097 0.29076 0.4367 0.0
H429 H 0.55513 0.26339 0.41394 0.0
H430 H 0.63589 0.22451 0.43676 0.0
H431 H 0.62902 0.23231 0.46543 0.0
H432 H 0.65627 0.25963 0.44783 0.0
H433 H 0.53217 0.19154 0.40969 0.0
H434 H 0.51973 0.21617 0.41252 0.0
H435 H 0.52257 0.19828 0.43773 0.0
C436 C 0.43785 0.5826 0.59886 0.0
C437 C 0.44391 0.58267 0.62259 0.0
C438 C 0.41526 0.58632 0.59149 0.0
C439 C 0.3982 0.58985 0.60833 0.0
C440 C 0.40523 0.59149 0.63227 0.0
C441 C 0.42818 0.588 0.63913 0.0
C442 C 0.40871 0.5849 0.56579 0.0
C443 C 0.38745 0.59514 0.65071 0.0
C444 C 0.34687 0.6134 0.58777 0.0
C445 C 0.32129 0.58783 0.58553 0.0
C446 C 0.37208 0.61445 0.59533 0.0
C447 C 0.37162 0.58937 0.60097 0.0
C448 C 0.34583 0.56353 0.59898 0.0
C449 C 0.321 0.56306 0.59117 0.0
C450 C 0.39926 0.64234 0.59702 0.0
C451 C 0.3445 0.53634 0.605 0.0
H452 H 0.45019 0.57862 0.58611 0.0
H453 H 0.43275 0.58777 0.6575 0.0
H454 H 0.38828 0.56552 0.56202 0.0
H455 H 0.40603 0.60275 0.56057 0.0
H456 H 0.42577 0.58501 0.5549 0.0
H457 H 0.39741 0.59879 0.66824 0.0
H458 H 0.38423 0.61288 0.64629 0.0
H459 H 0.36602 0.57612 0.65148 0.0
H460 H 0.3473 0.63265 0.58339 0.0
H461 H 0.30131 0.54326 0.58961 0.0
H462 H 0.41568 0.64271 0.58518 0.0
H463 H 0.40798 0.64562 0.61497 0.0
H464 H 0.39589 0.65998 0.59241 0.0
H465 H 0.35906 0.53312 0.59345 0.0
H466 H 0.32258 0.51814 0.6032 0.0
H467 H 0.35184 0.53704 0.62317 0.0
C468 C 0.85984 0.38758 0.79173 0.0
C469 C 0.86891 0.41578 0.78731 0.0
C470 C 0.83301 0.36628 0.7843 0.0
C471 C 0.8152 0.37315 0.77124 0.0
C472 C 0.82424 0.4014 0.76633 0.0
C473 C 0.8507 0.42238 0.77482 0.0
C474 C 0.82376 0.33639 0.79041 0.0
C475 C 0.8061 0.40946 0.75191 0.0
C476 C 0.75926 0.31496 0.73381 0.0
C477 C 0.73437 0.30694 0.74674 0.0
C478 C 0.78563 0.3371 0.74124 0.0
C479 C 0.78718 0.35067 0.76256 0.0
C480 C 0.76208 0.34235 0.77581 0.0
C481 C 0.73582 0.32089 0.76748 0.0
C482 C 0.81178 0.34603 0.72626 0.0
C483 C 0.76306 0.35564 0.79902 0.0
H484 H 0.87381 0.38195 0.8008 0.0
H485 H 0.857 0.44399 0.77165 0.0
H486 H 0.80258 0.32643 0.79913 0.0
H487 H 0.8214 0.32435 0.77431 0.0
H488 H 0.83926 0.33474 0.80207 0.0
H489 H 0.8168 0.4323 0.74878 0.0
H490 H 0.80116 0.39863 0.73484 0.0
H491 H 0.78544 0.40278 0.7608 0.0
H492 H 0.75798 0.30425 0.71765 0.0
H493 H 0.7165 0.31444 0.77752 0.0
H494 H 0.82764 0.34258 0.73571 0.0
H495 H 0.8221 0.36868 0.72243 0.0
H496 H 0.80659 0.33445 0.70951 0.0
H497 H 0.7777 0.35306 0.81101 0.0
H498 H 0.74166 0.34643 0.80732 0.0
H499 H 0.77166 0.37836 0.79681 0.0
C500 C 0.4397 0.84933 0.97087 0.0
C501 C 0.43759 0.8674 0.9549 0.0
C502 C 0.43299 0.82235 0.96434 0.0
C503 C 0.42363 0.81307 0.94135 0.0
C504 C 0.42074 0.8309 0.92528 0.0
C505 C 0.42785 0.85793 0.93223 0.0
C506 C 0.43629 0.8039 0.98199 0.0
C507 C 0.41057 0.82158 0.90067 0.0
C508 C 0.4333 0.75341 0.9201 0.0
C509 C 0.40622 0.73035 0.92446 0.0
C510 C 0.43909 0.78059 0.92497 0.0
C511 C 0.41717 0.78473 0.93419 0.0
C512 C 0.38952 0.7616 0.93782 0.0
C513 C 0.38442 0.73467 0.93303 0.0
C514 C 0.46889 0.80478 0.92101 0.0
C515 C 0.36553 0.76524 0.94738 0.0
H516 H 0.44671 0.85635 0.98853 0.0
H517 H 0.42646 0.87187 0.91974 0.0
H518 H 0.41558 0.78437 0.98446 0.0
H519 H 0.45185 0.79795 0.97552 0.0
H520 H 0.44375 0.81428 -0.00082 0.0
H521 H 0.40834 0.83754 0.89063 0.0
H522 H 0.42589 0.81712 0.89145 0.0
H523 H 0.38962 0.80196 0.90087 0.0
H524 H 0.45021 0.75018 0.91348 0.0
H525 H 0.36336 0.71692 0.93626 0.0
H526 H 0.47847 0.81485 0.93791 0.0
H527 H 0.46814 0.82077 0.90986 0.0
H528 H 0.48311 0.79819 0.91264 0.0
H529 H 0.3707 0.77347 0.96542 0.0
H530 H 0.34479 0.74534 0.94762 0.0
H531 H 0.36307 0.78068 0.9368 0.0
C532 C 0.60652 0.45146 0.14722 0.0
C533 C 0.58183 0.44333 0.13403 0.0
C534 C 0.62759 0.44561 0.13955 0.0
C535 C 0.62396 0.43184 0.11796 0.0
C536 C 0.59839 0.42256 0.10509 0.0
C537 C 0.57747 0.42835 0.11338 0.0
C538 C 0.65435 0.45545 0.15393 0.0
C539 C 0.59389 0.40806 0.08191 0.0
C540 C 0.69193 0.44953 0.08528 0.0
C541 C 0.69419 0.42573 0.08924 0.0
C542 C 0.66893 0.45156 0.09431 0.0
C543 C 0.64795 0.42945 0.10792 0.0
C544 C 0.65019 0.40544 0.11213 0.0
C545 C 0.6732 0.40377 0.10258 0.0
C546 C 0.66706 0.47738 0.08922 0.0
C547 C 0.62845 0.38168 0.12687 0.0
H548 H 0.60974 0.46322 0.16314 0.0
H549 H 0.55839 0.42245 0.10317 0.0
H550 H 0.65921 0.43835 0.15619 0.0
H551 H 0.67276 0.47275 0.14475 0.0
H552 H 0.65243 0.46299 0.1714 0.0
H553 H 0.57188 0.40002 0.07513 0.0
H554 H 0.60927 0.4229 0.069 0.0
H555 H 0.59803 0.39042 0.08342 0.0
H556 H 0.70797 0.46648 0.07487 0.0
H557 H 0.6749 0.38536 0.1058 0.0
H558 H 0.66779 0.48811 0.10574 0.0
H559 H 0.64639 0.47148 0.08064 0.0
H560 H 0.6847 0.49233 0.07779 0.0
H561 H 0.62783 0.38937 0.14459 0.0
H562 H 0.63326 0.36444 0.12845 0.0
H563 H 0.60681 0.37323 0.11925 0.0
C564 C 0.3861 0.84216 0.51641 0.0
C565 C 0.4148 0.85539 0.52335 0.0
C566 C 0.36723 0.81423 0.52219 0.0
C567 C 0.37728 0.79934 0.53547 0.0
C568 C 0.40622 0.81267 0.54268 0.0
C569 C 0.42473 0.84055 0.53636 0.0
C570 C 0.33664 0.80057 0.51387 0.0
C571 C 0.41759 0.79751 0.55707 0.0
C572 C 0.32151 0.73397 0.56642 0.0
C573 C 0.31925 0.71302 0.55138 0.0
C574 C 0.34068 0.76221 0.56167 0.0
C575 C 0.35763 0.76957 0.54125 0.0
C576 C 0.35539 0.74849 0.526 0.0
C577 C 0.33636 0.72047 0.53134 0.0
C578 C 0.34278 0.78416 0.57844 0.0
C579 C 0.37285 0.75556 0.5039 0.0
H580 H 0.37852 0.85359 0.50613 0.0
H581 H 0.44689 0.85091 0.5419 0.0
H582 H 0.3318 0.78237 0.50269 0.0
H583 H 0.32184 0.79265 0.52895 0.0
H584 H 0.33221 0.81513 0.50378 0.0
H585 H 0.44042 0.81112 0.56182 0.0
H586 H 0.40487 0.78943 0.57329 0.0
H587 H 0.41539 0.77927 0.54727 0.0
H588 H 0.30843 0.7283 0.582 0.0
H589 H 0.33464 0.70436 0.5196 0.0
H590 H 0.3367 0.7982 0.56951 0.0
H591 H 0.36518 0.79722 0.58446 0.0
H592 H 0.32878 0.77494 0.5939 0.0
H593 H 0.36799 0.7689 0.49257 0.0
H594 H 0.36862 0.73667 0.49394 0.0
H595 H 0.39598 0.76764 0.5081 0.0
C596 C 0.59721 0.43409 0.70907 0.0
C597 C 0.56876 0.42544 0.70308 0.0
C598 C 0.60562 0.41463 0.71489 0.0
C599 C 0.58529 0.3858 0.71411 0.0
C600 C 0.55646 0.37691 0.70861 0.0
C601 C 0.54848 0.39683 0.7035 0.0
C602 C 0.63646 0.4249 0.72116 0.0
C603 C 0.53424 0.34631 0.70727 0.0
C604 C 0.6128 0.33622 0.70143 0.0
C605 C 0.61054 0.32404 0.72329 0.0
C606 C 0.60453 0.35628 0.69823 0.0
C607 C 0.59449 0.36487 0.71751 0.0
C608 C 0.59274 0.35307 0.73976 0.0
C609 C 0.60043 0.33245 0.74232 0.0
C610 C 0.60607 0.3679 0.67411 0.0
C611 C 0.58284 0.36228 0.76081 0.0
H612 H 0.61318 0.45605 0.70856 0.0
H613 H 0.52631 0.38989 0.69953 0.0
H614 H 0.63776 0.41489 0.73751 0.0
H615 H 0.64673 0.41907 0.70723 0.0
H616 H 0.64884 0.44791 0.72343 0.0
H617 H 0.51256 0.34288 0.70337 0.0
H618 H 0.5402 0.33614 0.69344 0.0
H619 H 0.53336 0.33578 0.72393 0.0
H620 H 0.62043 0.32959 0.68666 0.0
H621 H 0.59888 0.32317 0.75928 0.0
H622 H 0.62044 0.39085 0.67417 0.0
H623 H 0.58457 0.36379 0.66871 0.0
H624 H 0.61398 0.3587 0.66092 0.0
H625 H 0.59625 0.38519 0.76307 0.0
H626 H 0.58385 0.35188 0.77705 0.0
H627 H 0.56051 0.35756 0.75824 0.0
C628 C 0.16478 0.58161 0.88282 0.0
C629 C 0.15675 0.57978 0.85939 0.0
C630 C 0.19201 0.58653 0.88896 0.0
C631 C 0.21153 0.58947 0.87123 0.0
C632 C 0.20393 0.58874 0.84753 0.0
C633 C 0.17658 0.584 0.84188 0.0
C634 C 0.1995 0.58757 0.91444 0.0
C635 C 0.22418 0.59171 0.82816 0.0
C636 C 0.28923 0.62039 0.88872 0.0
C637 C 0.29114 0.59632 0.89261 0.0
C638 C 0.26359 0.61851 0.88133 0.0
C639 C 0.23934 0.59194 0.8776 0.0
C640 C 0.24126 0.56758 0.88095 0.0
C641 C 0.26713 0.57006 0.8885 0.0
C642 C 0.26228 0.64492 0.87807 0.0
C643 C 0.21582 0.53888 0.87697 0.0
H644 H 0.14947 0.57854 0.89634 0.0
H645 H 0.17022 0.58228 0.82376 0.0
H646 H 0.20259 0.5697 0.91871 0.0
H647 H 0.21991 0.60693 0.91826 0.0
H648 H 0.18261 0.58673 0.92602 0.0
H649 H 0.21578 0.59263 0.81072 0.0
H650 H 0.24521 0.61085 0.83069 0.0
H651 H 0.22787 0.57372 0.82851 0.0
H652 H 0.30766 0.6408 0.89185 0.0
H653 H 0.26846 0.55139 0.89134 0.0
H654 H 0.2468 0.64526 0.89057 0.0
H655 H 0.25456 0.64555 0.86029 0.0
H656 H 0.28339 0.66399 0.88074 0.0
H657 H 0.19849 0.53514 0.88936 0.0
H658 H 0.22122 0.52212 0.87927 0.0
H659 H 0.20729 0.53739 0.85912 0.0
C660 C 0.58091 0.16129 0.0417 0.0
C661 C 0.58162 0.15329 0.01862 0.0
C662 C 0.59983 0.18851 0.04937 0.0
C663 C 0.62011 0.20808 0.03364 0.0
C664 C 0.62097 0.20016 0.01035 0.0
C665 C 0.60161 0.17291 0.00309 0.0
C666 C 0.59818 0.1963 0.0743 0.0
C667 C 0.64236 0.22047 0.99308 0.0
C668 C 0.65338 0.28574 0.04443 0.0
C669 C 0.68034 0.29257 0.0532 0.0
C670 C 0.63324 0.25815 0.03863 0.0
C671 C 0.64038 0.23697 0.04142 0.0
C672 C 0.66732 0.24362 0.05075 0.0
C673 C 0.68696 0.27137 0.05666 0.0
C674 C 0.60456 0.25177 0.02902 0.0
C675 C 0.67574 0.22159 0.05381 0.0
H676 H 0.56582 0.14615 0.05391 0.0
H677 H 0.602 0.16702 0.98515 0.0
H678 H 0.61878 0.20289 0.08327 0.0
H679 H 0.59446 0.21427 0.07475 0.0
H680 H 0.58082 0.17876 0.08421 0.0
H681 H 0.64054 0.21085 0.97572 0.0
H682 H 0.63919 0.23865 0.99092 0.0
H683 H 0.6644 0.22849 -0.00029 0.0
H684 H 0.64809 0.30203 0.04185 0.0
H685 H 0.70779 0.27656 0.06338 0.0
H686 H 0.58707 0.2349 0.03931 0.0
H687 H 0.60231 0.2442 0.01082 0.0
H688 H 0.60174 0.27032 0.02919 0.0
H689 H 0.65962 0.20415 0.06458 0.0
H690 H 0.69702 0.22997 0.06218 0.0
H691 H 0.6763 0.21279 0.03658 0.0
C692 C 0.45107 0.61828 0.18147 0.0
C693 C 0.44763 0.59793 0.19777 0.0
C694 C 0.44237 0.63766 0.18654 0.0
C695 C 0.42957 0.63647 0.20833 0.0
C696 C 0.42582 0.61589 0.22482 0.0
C697 C 0.43501 0.59692 0.21938 0.0
C698 C 0.44676 0.65934 0.16851 0.0
C699 C 0.41204 0.6139 0.24817 0.0
C700 C 0.42929 0.70171 0.22825 0.0
C701 C 0.40197 0.69588 0.2213 0.0
C702 C 0.43847 0.68239 0.22441 0.0
C703 C 0.41973 0.65656 0.21363 0.0
C704 C 0.3919 0.65032 0.20707 0.0
C705 C 0.38341 0.67013 0.21087 0.0
C706 C 0.46841 0.68984 0.23142 0.0
C707 C 0.37122 0.62286 0.19576 0.0
H708 H 0.46031 0.61887 0.16457 0.0
H709 H 0.43259 0.58147 0.23216 0.0
H710 H 0.42583 0.65685 0.16331 0.0
H711 H 0.45966 0.68056 0.176 0.0
H712 H 0.45773 0.65788 0.15266 0.0
H713 H 0.41052 0.59656 0.25898 0.0
H714 H 0.42451 0.63372 0.25789 0.0
H715 H 0.39022 0.61065 0.24564 0.0
H716 H 0.44372 0.72161 0.23629 0.0
H717 H 0.36219 0.66543 0.20561 0.0
H718 H 0.48072 0.69039 0.21576 0.0
H719 H 0.46773 0.6737 0.24328 0.0
H720 H 0.48002 0.71042 0.24026 0.0
H721 H 0.37991 0.62093 0.17879 0.0
H722 H 0.3499 0.62073 0.19271 0.0
H723 H 0.36845 0.60526 0.20685 0.0
C724 C 0.84406 0.43209 0.37674 0.0
C725 C 0.85171 0.43261 0.35337 0.0
C726 C 0.81658 0.42644 0.38284 0.0
C727 C 0.79641 0.42147 0.36507 0.0
C728 C 0.80366 0.42086 0.34146 0.0
C729 C 0.83129 0.42633 0.33587 0.0
C730 C 0.80952 0.42688 0.40825 0.0
C731 C 0.78272 0.41575 0.32206 0.0
C732 C 0.71944 0.39023 0.38479 0.0
C733 C 0.71721 0.41422 0.38795 0.0
C734 C 0.74482 0.39215 0.37661 0.0
C735 C 0.76842 0.41865 0.37131 0.0
C736 C 0.76596 0.44283 0.37359 0.0
C737 C 0.74041 0.44034 0.38199 0.0
C738 C 0.74674 0.36594 0.37451 0.0
C739 C 0.79063 0.47145 0.36788 0.0
H740 H 0.85986 0.43674 0.39025 0.0
H741 H 0.83736 0.42699 0.31777 0.0
H742 H 0.80582 0.44458 0.41152 0.0
H743 H 0.78955 0.40745 0.41288 0.0
H744 H 0.82691 0.42907 0.41995 0.0
H745 H 0.79081 0.41359 0.30485 0.0
H746 H 0.76199 0.39661 0.32557 0.0
H747 H 0.77853 0.43342 0.32115 0.0
H748 H 0.70161 0.36994 0.38933 0.0
H749 H 0.73878 0.45894 0.38419 0.0
H750 H 0.76236 0.36654 0.38739 0.0
H751 H 0.75459 0.36462 0.35697 0.0
H752 H 0.72582 0.34678 0.37759 0.0
H753 H 0.80849 0.47685 0.3802 0.0
H754 H 0.78457 0.48786 0.36894 0.0
H755 H 0.79873 0.47161 0.35009 0.0
C756 C 0.12101 0.57027 0.41598 0.0
C757 C 0.10224 0.54156 0.4137 0.0
C758 C 0.14103 0.58079 0.43416 0.0
C759 C 0.14169 0.56213 0.45069 0.0
C760 C 0.12263 0.53308 0.44846 0.0
C761 C 0.10331 0.5231 0.42978 0.0
C762 C 0.16144 0.61182 0.43568 0.0
C763 C 0.12231 0.5126 0.46601 0.0
C764 C 0.20786 0.58469 0.48776 0.0
C765 C 0.20035 0.593 0.50838 0.0
C766 C 0.18915 0.57502 0.46868 0.0
C767 C 0.16205 0.573 0.47051 0.0
C768 C 0.15428 0.58118 0.49136 0.0
C769 C 0.17369 0.59141 0.50997 0.0
C770 C 0.1984 0.56707 0.44653 0.0
C771 C 0.12534 0.5788 0.49412 0.0
H772 H 0.12019 0.58444 0.40337 0.0
H773 H 0.08857 0.5009 0.428 0.0
H774 H 0.1579 0.6201 0.45216 0.0
H775 H 0.18382 0.61611 0.4359 0.0
H776 H 0.1589 0.62335 0.42088 0.0
H777 H 0.10595 0.49072 0.46187 0.0
H778 H 0.14357 0.51414 0.46668 0.0
H779 H 0.11789 0.51776 0.48365 0.0
H780 H 0.22857 0.58609 0.48645 0.0
H781 H 0.16777 0.59768 0.52595 0.0
H782 H 0.19722 0.57928 0.43167 0.0
H783 H 0.18373 0.54471 0.44258 0.0
H784 H 0.22055 0.57072 0.44769 0.0
H785 H 0.12249 0.5917 0.48077 0.0
H786 H 0.12244 0.58559 0.51162 0.0
H787 H 0.10822 0.55687 0.49133 0.0
C788 C 0.5453 0.09403 0.60351 0.0
C789 C 0.54861 0.1024 0.58016 0.0
C790 C 0.5551 0.11378 0.62151 0.0
C791 C 0.568 0.14249 0.61595 0.0
C792 C 0.57082 0.15099 0.59237 0.0
C793 C 0.56134 0.1308 0.57471 0.0
C794 C 0.55222 0.10397 0.64644 0.0
C795 C 0.58396 0.18137 0.58581 0.0
C796 C 0.57184 0.19082 0.66446 0.0
C797 C 0.60034 0.20244 0.67166 0.0
C798 C 0.56115 0.17169 0.64598 0.0
C799 C 0.57927 0.16363 0.63483 0.0
C800 C 0.60806 0.17531 0.64205 0.0
C801 C 0.61834 0.19481 0.66025 0.0
C802 C 0.53048 0.16005 0.63843 0.0
C803 C 0.62788 0.16684 0.63085 0.0
H804 H 0.53564 0.07203 0.60765 0.0
H805 H 0.56365 0.13716 0.5566 0.0
H806 H 0.57367 0.11314 0.65459 0.0
H807 H 0.53973 0.11121 0.65666 0.0
H808 H 0.54154 0.08089 0.64779 0.0
H809 H 0.5833 0.18436 0.56673 0.0
H810 H 0.57255 0.19071 0.59478 0.0
H811 H 0.60657 0.19301 0.59163 0.0
H812 H 0.55794 0.19683 0.67317 0.0
H813 H 0.64035 0.20365 0.66587 0.0
H814 H 0.51842 0.13713 0.64106 0.0
H815 H 0.52959 0.16392 0.61956 0.0
H816 H 0.51958 0.16938 0.64823 0.0
H817 H 0.61901 0.14404 0.63288 0.0
H818 H 0.64966 0.17786 0.63855 0.0
H819 H 0.62963 0.17131 0.6119 0.0
C820 C 0.49049 0.60076 0.76513 0.0
C821 C 0.47267 0.57547 0.75361 0.0
C822 C 0.4809 0.60888 0.78472 0.0
C823 C 0.45252 0.59175 0.7926 0.0
C824 C 0.43395 0.56696 0.7804 0.0
C825 C 0.44435 0.55891 0.76131 0.0
C826 C 0.50148 0.63522 0.79752 0.0
C827 C 0.40332 0.54843 0.78798 0.0
C828 C 0.4331 0.59125 0.85607 0.0
C829 C 0.42047 0.60801 0.85571 0.0
C830 C 0.44466 0.58676 0.83579 0.0
C831 C 0.44272 0.59862 0.8145 0.0
C832 C 0.43031 0.6159 0.81409 0.0
C833 C 0.41969 0.62074 0.83484 0.0
C834 C 0.45846 0.56886 0.83708 0.0
C835 C 0.42718 0.62829 0.79162 0.0
H836 H 0.51216 0.61413 0.75905 0.0
H837 H 0.43041 0.53915 0.7529 0.0
H838 H 0.49235 0.64916 0.79929 0.0
H839 H 0.50502 0.6299 0.81539 0.0
H840 H 0.52249 0.64685 0.78859 0.0
H841 H 0.39086 0.53155 0.77521 0.0
H842 H 0.40279 0.53871 0.80501 0.0
H843 H 0.39263 0.56093 0.79036 0.0
H844 H 0.43389 0.58158 0.87228 0.0
H845 H 0.40967 0.63351 0.83455 0.0
H846 H 0.48013 0.58001 0.82923 0.0
H847 H 0.44567 0.54943 0.82693 0.0
H848 H 0.4603 0.56308 0.85527 0.0
H849 H 0.44816 0.64021 0.78276 0.0
H850 H 0.41831 0.64234 0.79444 0.0
H851 H 0.41277 0.61128 0.77965 0.0
C852 C 0.87332 0.45381 0.90564 0.0
C853 C 0.90176 0.4723 0.91187 0.0
C854 C 0.85193 0.44159 0.9227 0.0
C855 C 0.85922 0.44835 0.94644 0.0
C856 C 0.8878 0.46765 0.95272 0.0
C857 C 0.90877 0.47927 0.93534 0.0
C858 C 0.82173 0.42088 0.9154 0.0
C859 C 0.89631 0.47567 0.97783 0.0
C860 C 0.80178 0.43471 0.99097 0.0
C861 C 0.79846 0.41073 0.00214 0.0
C862 C 0.82113 0.44694 0.97249 0.0
C863 C 0.83724 0.43467 0.96488 0.0
C864 C 0.83333 0.40998 0.97562 0.0
C865 C 0.81409 0.39839 0.99423 0.0
C866 C 0.82494 0.47342 0.96159 0.0
C867 C 0.84991 0.39612 0.96776 0.0
H868 H 0.86798 0.44822 0.88749 0.0
H869 H 0.93075 0.49379 0.94011 0.0
H870 H 0.81528 0.40014 0.92306 0.0
H871 H 0.8067 0.42738 0.92212 0.0
H872 H 0.81941 0.41866 0.89617 0.0
H873 H 0.91917 0.49194 0.97965 0.0
H874 H 0.88296 0.48355 0.98573 0.0
H875 H 0.89252 0.45704 0.98794 0.0
H876 H 0.78978 0.44437 -0.00295 0.0
H877 H 0.81145 0.37974 0.00271 0.0
H878 H 0.82166 0.47075 0.94248 0.0
H879 H 0.84713 0.49066 0.96451 0.0
H880 H 0.80991 0.47965 0.96887 0.0
H881 H 0.84711 0.39198 0.94876 0.0
H882 H 0.84314 0.37614 0.977 0.0
H883 H 0.87306 0.41027 0.97095 0.0
C884 C 0.42547 0.90988 0.09545 0.0
C885 C 0.44386 0.91042 0.07803 0.0
C886 C 0.41712 0.89072 0.11386 0.0
C887 C 0.42691 0.8713 0.11445 0.0
C888 C 0.44505 0.87144 0.09658 0.0
C889 C 0.45361 0.89129 0.07869 0.0
C890 C 0.39822 0.89156 0.13285 0.0
C891 C 0.45538 0.85065 0.09636 0.0
C892 C 0.4276 0.8389 0.1725 0.0
C893 C 0.40174 0.81352 0.17164 0.0
C894 C 0.43602 0.85795 0.154 0.0
C895 C 0.41847 0.85111 0.13398 0.0
C896 C 0.39266 0.82522 0.1328 0.0
C897 C 0.38443 0.80685 0.15179 0.0
C898 C 0.46343 0.8856 0.15606 0.0
C899 C 0.37373 0.81697 0.11151 0.0
H900 H 0.41815 0.92488 0.0949 0.0
H901 H 0.46768 0.89169 0.06504 0.0
H902 H 0.37811 0.87118 0.13394 0.0
H903 H 0.40912 0.89524 0.14995 0.0
H904 H 0.39272 0.90816 0.1299 0.0
H905 H 0.46845 0.85286 0.08071 0.0
H906 H 0.46844 0.8534 0.11211 0.0
H907 H 0.43686 0.82909 0.09686 0.0
H908 H 0.44094 0.84418 0.1879 0.0
H909 H 0.36451 0.78714 0.15104 0.0
H910 H 0.45877 0.90292 0.15454 0.0
H911 H 0.47814 0.888 0.14163 0.0
H912 H 0.47455 0.88776 0.17287 0.0
H913 H 0.36584 0.83181 0.10885 0.0
H914 H 0.35501 0.79557 0.11295 0.0
H915 H 0.38617 0.81801 0.09578 0.0
C916 C 0.51903 0.41881 0.27028 0.0
C917 C 0.53809 0.44469 0.26012 0.0
C918 C 0.52683 0.40908 0.28998 0.0
C919 C 0.55465 0.42518 0.29932 0.0
C920 C 0.57428 0.45083 0.28877 0.0
C921 C 0.56563 0.46048 0.26962 0.0
C922 C 0.50511 0.38192 0.30111 0.0
C923 C 0.60437 0.46838 0.29795 0.0
C924 C 0.57281 0.421 0.36234 0.0
C925 C 0.58596 0.40477 0.36064 0.0
C926 C 0.56089 0.42633 0.34269 0.0
C927 C 0.56312 0.41598 0.3207 0.0
C928 C 0.57565 0.39887 0.31902 0.0
C929 C 0.58656 0.3931 0.33915 0.0
C930 C 0.54688 0.44391 0.34532 0.0
C931 C 0.57912 0.3881 0.2958 0.0
H932 H 0.4979 0.40608 0.26292 0.0
H933 H 0.58042 0.48077 0.26242 0.0
H934 H 0.51346 0.36726 0.30176 0.0
H935 H 0.50116 0.38574 0.31935 0.0
H936 H 0.48443 0.37176 0.2916 0.0
H937 H 0.61772 0.48658 0.28658 0.0
H938 H 0.60379 0.47617 0.31563 0.0
H939 H 0.61484 0.45557 0.29949 0.0
H940 H 0.57217 0.42983 0.37904 0.0
H941 H 0.59698 0.38074 0.33783 0.0
H942 H 0.52576 0.43376 0.33652 0.0
H943 H 0.56029 0.46447 0.33687 0.0
H944 H 0.54385 0.44748 0.36389 0.0
H945 H 0.55849 0.37753 0.28631 0.0
H946 H 0.5872 0.37327 0.2977 0.0
H947 H 0.59443 0.4059 0.28489 0.0
C948 C 0.43057 0.87285 0.39818 0.0
C949 C 0.45505 0.89936 0.39656 0.0
C950 C 0.41927 0.85582 0.37846 0.0
C951 C 0.43289 0.86545 0.35663 0.0
C952 C 0.45817 0.89174 0.35502 0.0
C953 C 0.46887 0.90843 0.37498 0.0
C954 C 0.39227 0.82789 0.38084 0.0
C955 C 0.47337 0.90267 0.33205 0.0
C956 C 0.41502 0.81393 0.307 0.0
C957 C 0.39585 0.81852 0.29383 0.0
C958 C 0.42717 0.82894 0.32758 0.0
C959 C 0.4198 0.84884 0.33522 0.0
C960 C 0.40023 0.85331 0.32218 0.0
C961 C 0.38858 0.83819 0.30161 0.0
C962 C 0.44814 0.82379 0.34097 0.0
C963 C 0.3917 0.87423 0.32988 0.0
H964 H 0.42006 0.86552 0.41487 0.0
H965 H 0.48757 0.92901 0.37348 0.0
H966 H 0.37486 0.8279 0.3706 0.0
H967 H 0.39559 0.81111 0.37369 0.0
H968 H 0.38517 0.82282 0.39925 0.0
H969 H 0.49391 0.92256 0.33407 0.0
H970 H 0.47775 0.88707 0.3238 0.0
H971 H 0.45949 0.90623 0.31996 0.0
H972 H 0.42082 0.79882 0.3011 0.0
H973 H 0.3737 0.84179 0.29163 0.0
H974 H 0.44062 0.81761 0.35914 0.0
H975 H 0.46916 0.8433 0.34186 0.0
H976 H 0.45122 0.80724 0.33292 0.0
H977 H 0.38261 0.86915 0.34772 0.0
H978 H 0.3757 0.87476 0.31805 0.0
H979 H 0.41082 0.89541 0.33052 0.0
C980 C 0.57018 0.46817 0.55169 0.0
C981 C 0.57323 0.4629 0.57508 0.0
C982 C 0.57721 0.45559 0.53369 0.0
C983 C 0.58722 0.43705 0.53925 0.0
C984 C 0.59064 0.43186 0.56286 0.0
C985 C 0.58377 0.44503 0.58054 0.0
C986 C 0.57366 0.46195 0.50872 0.0
C987 C 0.60099 0.41199 0.56941 0.0
C988 C 0.57727 0.38564 0.49148 0.0
C989 C 0.60454 0.39841 0.48138 0.0
C990 C 0.5716 0.39748 0.5109 0.0
C991 C 0.59366 0.42285 0.52022 0.0
C992 C 0.62139 0.43551 0.51043 0.0
C993 C 0.62655 0.42303 0.49119 0.0
C994 C 0.54182 0.38322 0.52107 0.0
C995 C 0.64537 0.46271 0.51975 0.0
H996 H 0.56232 0.48223 0.54749 0.0
H997 H 0.58589 0.4408 0.59865 0.0
H998 H 0.59419 0.47003 0.49922 0.0
H999 H 0.55775 0.44256 0.4998 0.0
H1000 H 0.5665 0.47754 0.50739 0.0
H1001 H 0.60302 0.41066 0.58856 0.0
H1002 H 0.58589 0.39083 0.56267 0.0
H1003 H 0.62207 0.41869 0.56126 0.0
H1004 H 0.56024 0.3665 0.48405 0.0
H1005 H 0.64768 0.43302 0.48344 0.0
H1006 H 0.53211 0.39658 0.51858 0.0
H1007 H 0.54269 0.38019 0.5401 0.0
H1008 H 0.52767 0.36262 0.51289 0.0
H1009 H 0.64003 0.47946 0.51726 0.0
H1010 H 0.66606 0.46906 0.51096 0.0
H1011 H 0.64803 0.46101 0.53873 0.0
C1012 C 0.12743 0.54218 0.72659 0.0
C1013 C 0.11581 0.5591 0.73243 0.0
C1014 C 0.14567 0.54842 0.70736 0.0
C1015 C 0.15177 0.57164 0.69316 0.0
C1016 C 0.14071 0.58918 0.69917 0.0
C1017 C 0.1233 0.58299 0.71894 0.0
C1018 C 0.15768 0.52962 0.70182 0.0
C1019 C 0.14629 0.61386 0.68421 0.0
C1020 C 0.21286 0.59901 0.64955 0.0
C1021 C 0.19854 0.58471 0.62931 0.0
C1022 C 0.198 0.59473 0.67062 0.0
C1023 C 0.16804 0.57645 0.67114 0.0
C1024 C 0.15343 0.56251 0.65056 0.0
C1025 C 0.16895 0.56647 0.62997 0.0
C1026 C 0.21439 0.60927 0.69238 0.0
C1027 C 0.12139 0.54349 0.65024 0.0
H1028 H 0.12163 0.52349 0.73658 0.0
H1029 H 0.11521 0.59672 0.72358 0.0
H1030 H 0.14779 0.51782 0.6856 0.0
H1031 H 0.18107 0.54221 0.69876 0.0
H1032 H 0.15367 0.51446 0.71602 0.0
H1033 H 0.13683 0.62593 0.69169 0.0
H1034 H 0.16961 0.62804 0.68201 0.0
H1035 H 0.13713 0.6065 0.66659 0.0
H1036 H 0.23581 0.61294 0.64904 0.0
H1037 H 0.15785 0.55559 0.61425 0.0
H1038 H 0.21122 0.59356 0.70582 0.0
H1039 H 0.20618 0.62244 0.69972 0.0
H1040 H 0.23767 0.62263 0.68906 0.0
H1041 H 0.11527 0.52558 0.66213 0.0
H1042 H 0.11317 0.53528 0.63254 0.0
H1043 H 0.11067 0.55487 0.65663 0.0
C1044 C 0.53459 0.09739 0.86696 0.0
C1045 C 0.54239 0.10725 0.88976 0.0
C1046 C 0.54654 0.11536 0.84787 0.0
C1047 C 0.56722 0.14369 0.85176 0.0
C1048 C 0.57478 0.15386 0.87482 0.0
C1049 C 0.56201 0.1355 0.89361 0.0
C1050 C 0.53751 0.10387 0.82355 0.0
C1051 C 0.5971 0.18381 0.87962 0.0
C1052 C 0.61903 0.17873 0.80186 0.0
C1053 C 0.60814 0.19442 0.79153 0.0
C1054 C 0.60643 0.16284 0.82194 0.0
C1055 C 0.58199 0.16218 0.8316 0.0
C1056 C 0.57105 0.1782 0.8214 0.0
C1057 C 0.58445 0.19438 0.80159 0.0
C1058 C 0.61903 0.14643 0.8326 0.0
C1059 C 0.54472 0.1776 0.83099 0.0
H1060 H 0.51923 0.07553 0.86409 0.0
H1061 H 0.56812 0.14298 0.91132 0.0
H1062 H 0.53077 0.1168 0.81361 0.0
H1063 H 0.55587 0.10471 0.81417 0.0
H1064 H 0.51963 0.08193 0.82361 0.0
H1065 H 0.59956 0.18872 0.89853 0.0
H1066 H 0.61804 0.18803 0.8726 0.0
H1067 H 0.59148 0.19815 0.87064 0.0
H1068 H 0.63749 0.17891 0.79428 0.0
H1069 H 0.57587 0.20638 0.79358 0.0
H1070 H 0.60343 0.12378 0.83138 0.0
H1071 H 0.62353 0.15161 0.85136 0.0
H1072 H 0.63914 0.15061 0.82385 0.0
H1073 H 0.52616 0.15613 0.82973 0.0
H1074 H 0.53951 0.19199 0.82151 0.0
H1075 H 0.54774 0.18338 0.8497 0.0
C1076 C 0.44476 0.582 0.07803 0.0
C1077 C 0.45762 0.56588 0.07364 0.0
C1078 C 0.43669 0.5933 0.05964 0.0
C1079 C 0.44114 0.58788 0.03637 0.0
C1080 C 0.45407 0.57154 0.03187 0.0
C1081 C 0.46236 0.56091 0.05059 0.0
C1082 C 0.4234 0.61102 0.06509 0.0
C1083 C 0.45877 0.56494 0.00729 0.0
C1084 C 0.39576 0.59316 0.98841 0.0
C1085 C 0.41518 0.61849 0.9778 0.0
C1086 C 0.40388 0.58305 0.00762 0.0
C1087 C 0.43192 0.59889 0.01664 0.0
C1088 C 0.45141 0.6248 0.00634 0.0
C1089 C 0.44287 0.63418 0.98689 0.0
C1090 C 0.38264 0.55513 0.01793 0.0
C1091 C 0.48135 0.64247 0.01573 0.0
H1092 H 0.44133 0.58602 0.09589 0.0
H1093 H 0.47205 0.5482 0.04723 0.0
H1094 H 0.43597 0.6318 0.05677 0.0
H1095 H 0.40147 0.60117 0.05779 0.0
H1096 H 0.42225 0.61398 0.08412 0.0
H1097 H 0.46901 0.55185 0.0068 0.0
H1098 H 0.43802 0.55379 -0.00202 0.0
H1099 H 0.47247 0.58454 -0.0024 0.0
H1100 H 0.37436 0.5809 0.98137 0.0
H1101 H 0.45788 0.65387 0.97882 0.0
H1102 H 0.37948 0.55746 0.03671 0.0
H1103 H 0.39109 0.54057 0.01657 0.0
H1104 H 0.36155 0.54559 0.00907 0.0
H1105 H 0.48059 0.64659 0.03456 0.0
H1106 H 0.49339 0.66274 0.00648 0.0
H1107 H 0.4933 0.63109 0.014 0.0
C1108 C 0.8914 0.42319 0.21305 0.0
C1109 C 0.89957 0.448 0.22538 0.0
C1110 C 0.87424 0.41633 0.19305 0.0
C1111 C 0.86411 0.43419 0.18561 0.0
C1112 C 0.8713 0.45868 0.19839 0.0
C1113 C 0.88932 0.46554 0.21783 0.0
C1114 C 0.86753 0.39033 0.17956 0.0
C1115 C 0.86036 0.47794 0.1913 0.0
C1116 C 0.84412 0.43566 0.12252 0.0
C1117 C 0.81431 0.41883 0.1232 0.0
C1118 C 0.86066 0.43996 0.14256 0.0
C1119 C 0.84692 0.42792 0.16393 0.0
C1120 C 0.81679 0.41078 0.16468 0.0
C1121 C 0.80085 0.40605 0.14416 0.0
C1122 C 0.8928 0.45764 0.1409 0.0
C1123 C 0.80133 0.39829 0.18727 0.0
H1124 H 0.8985 0.40906 0.21892 0.0
H1125 H 0.89578 0.48501 0.22679 0.0
H1126 H 0.84407 0.37629 0.17836 0.0
H1127 H 0.87576 0.39602 0.1615 0.0
H1128 H 0.87708 0.37865 0.18765 0.0
H1129 H 0.86582 0.49478 0.20426 0.0
H1130 H 0.86968 0.4877 0.17426 0.0
H1131 H 0.83679 0.46595 0.18914 0.0
H1132 H 0.85452 0.44537 0.10623 0.0
H1133 H 0.77775 0.39325 0.14469 0.0
H1134 H 0.90298 0.44616 0.14821 0.0
H1135 H 0.90034 0.47691 0.15136 0.0
H1136 H 0.90022 0.46368 0.12267 0.0
H1137 H 0.80961 0.38558 0.19543 0.0
H1138 H 0.77788 0.38495 0.18479 0.0
H1139 H 0.80533 0.41524 0.19969 0.0
loop_
_geom_bond_atom_site_label_1
_geom_bond_atom_site_label_2
_geom_bond_distance
_geom_bond_site_symmetry_2
_ccdc_geom_bond_type
H0 C19 0.949 . S
H1 C20 0.950 . S
H2 C22 0.950 . S
H3 C23 0.950 . S
H4 C25 0.950 . S
H5 C28 0.950 . S
H6 C29 0.950 . S
H7 C31 0.951 . S
H8 C32 0.949 . S
H9 C34 0.949 . S
H10 C35 0.950 . S
H11 C37 0.950 . S
H12 C38 0.950 . S
H13 C40 0.950 1_655 S
H14 C43 0.950 . S
H15 C44 0.950 . S
H16 C46 0.951 . S
H17 C47 0.949 . S
C18 C19 1.376 . S
C18 C23 1.386 . S
C18 C24 1.483 . S
C19 H0 0.949 . S
C19 C18 1.376 . S
C19 C20 1.397 . S
C20 H1 0.950 . S
C20 C19 1.397 . S
C20 C21 1.391 . S
C21 C20 1.391 . S
C21 C22 1.405 . S
C22 H2 0.950 . S
C22 C21 1.405 . S
C22 C23 1.367 . S
C23 H3 0.950 . S
C23 C18 1.386 . S
C23 C22 1.367 . S
C24 C18 1.483 . S
C24 C25 1.382 1_655 S
C24 C26 1.403 . S
C25 H4 0.950 . S
C25 C24 1.382 1_455 S
C25 C41 1.411 . S
C26 C24 1.403 . S
C26 C27 1.489 . S
C26 C40 1.411 1_655 S
C27 C26 1.489 . S
C27 C28 1.383 . S
C27 C32 1.382 . S
C28 H5 0.950 . S
C28 C27 1.383 . S
C28 C29 1.395 . S
C29 H6 0.950 . S
C29 C28 1.395 . S
C29 C30 1.288 . S
C30 C29 1.288 . S
C30 C31 1.392 . S
C31 H7 0.951 . S
C31 C30 1.392 . S
C31 C32 1.392 . S
C32 H8 0.949 . S
C32 C27 1.382 . S
C32 C31 1.392 . S
C33 C34 1.376 . S
C33 C38 1.386 . S
C33 C39 1.483 . S
C34 H9 0.949 . S
C34 C33 1.376 . S
C34 C35 1.397 . S
C35 H10 0.950 . S
C35 C34 1.397 . S
C35 C36 1.391 . S
C36 C35 1.391 . S
C36 C37 1.405 . S
C37 H11 0.950 . S
C37 C36 1.405 . S
C37 C38 1.367 . S
C38 H12 0.950 . S
C38 C33 1.386 . S
C38 C37 1.367 . S
C39 C33 1.483 . S
C39 C40 1.382 . S
C39 C41 1.403 . S
C40 H13 0.950 1_455 S
C40 C26 1.411 1_455 S
C40 C39 1.382 . S
C41 C25 1.411 . S
C41 C39 1.403 . S
C41 C42 1.489 . S
C42 C41 1.489 . S
C42 C43 1.383 . S
C42 C47 1.382 . S
C43 H14 0.950 . S
C43 C42 1.383 . S
C43 C44 1.395 . S
C44 H15 0.950 . S
C44 C43 1.395 . S
C44 C45 1.288 . S
C45 C44 1.288 . S
C45 C46 1.392 . S
C46 H16 0.951 . S
C46 C45 1.392 . S
C46 C47 1.392 . S
C47 H17 0.949 . S
C47 C42 1.382 . S
C47 C46 1.392 . S
H48 C67 0.949 . S
H49 C68 0.950 . S
H50 C70 0.950 . S
H51 C71 0.950 . S
H52 C73 0.950 1_565 S
H53 C76 0.950 . S
H54 C77 0.950 . S
H55 C79 0.951 . S
H56 C80 0.949 . S
H57 C82 0.949 . S
H58 C83 0.950 . S
H59 C85 0.950 . S
H60 C86 0.950 . S
H61 C88 0.950 . S
H62 C91 0.950 . S
H63 C92 0.950 . S
H64 C94 0.951 . S
H65 C95 0.949 . S
C66 C67 1.376 . S
C66 C71 1.386 . S
C66 C72 1.483 . S
C67 H48 0.949 . S
C67 C66 1.376 . S
C67 C68 1.397 . S
C68 H49 0.950 . S
C68 C67 1.397 . S
C68 C69 1.391 . S
C69 C68 1.391 . S
C69 C70 1.405 . S
C70 H50 0.950 . S
C70 C69 1.405 . S
C70 C71 1.367 . S
C71 H51 0.950 . S
C71 C66 1.386 . S
C71 C70 1.367 . S
C72 C66 1.483 . S
C72 C73 1.382 1_565 S
C72 C74 1.403 . S
C73 H52 0.950 1_545 S
C73 C72 1.382 1_545 S
C73 C89 1.411 . S
C74 C72 1.403 . S
C74 C75 1.489 . S
C74 C88 1.411 1_565 S
C75 C74 1.489 . S
C75 C76 1.383 . S
C75 C80 1.382 . S
C76 H53 0.950 . S
C76 C75 1.383 . S
C76 C77 1.395 . S
C77 H54 0.950 . S
C77 C76 1.395 . S
C77 C78 1.288 . S
C78 C77 1.288 . S
C78 C79 1.392 . S
C79 H55 0.951 . S
C79 C78 1.392 . S
C79 C80 1.392 . S
C80 H56 0.949 . S
C80 C75 1.382 . S
C80 C79 1.392 . S
C81 C82 1.376 . S
C81 C86 1.386 . S
C81 C87 1.483 . S
C82 H57 0.949 . S
C82 C81 1.376 . S
C82 C83 1.397 . S
C83 H58 0.950 . S
C83 C82 1.397 . S
C83 C84 1.391 . S
C84 C83 1.391 . S
C84 C85 1.405 . S
C85 H59 0.950 . S
C85 C84 1.405 . S
C85 C86 1.367 . S
C86 H60 0.950 . S
C86 C81 1.386 . S
C86 C85 1.367 . S
C87 C81 1.483 . S
C87 C88 1.382 . S
C87 C89 1.403 . S
C88 H61 0.950 . S
C88 C74 1.411 1_545 S
C88 C87 1.382 . S
C89 C73 1.411 . S
C89 C87 1.403 . S
C89 C90 1.489 . S
C90 C89 1.489 . S
C90 C91 1.383 . S
C90 C95 1.382 . S
C91 H62 0.950 . S
C91 C90 1.383 . S
C91 C92 1.395 . S
C92 H63 0.950 . S
C92 C91 1.395 . S
C92 C93 1.288 . S
C93 C92 1.288 . S
C93 C94 1.392 . S
C94 H64 0.951 . S
C94 C93 1.392 . S
C94 C95 1.392 . S
C95 H65 0.949 . S
C95 C90 1.382 . S
C95 C94 1.392 . S
H96 C115 0.949 . S
H97 C116 0.950 . S
H98 C118 0.950 . S
H99 C119 0.950 . S
H100 C121 0.950 . S
H101 C124 0.950 . S
H102 C125 0.950 . S
H103 C127 0.951 . S
H104 C128 0.949 . S
H105 C130 0.949 . S
H106 C131 0.950 . S
H107 C133 0.950 . S
H108 C134 0.950 . S
H109 C136 0.950 . S
H110 C139 0.950 . S
H111 C140 0.950 . S
H112 C142 0.951 . S
H113 C143 0.949 . S
C114 C115 1.376 . S
C114 C119 1.386 . S
C114 C120 1.483 . S
C115 H96 0.949 . S
C115 C114 1.376 . S
C115 C116 1.397 . S
C116 H97 0.950 . S
C116 C115 1.397 . S
C116 C117 1.391 . S
C117 C116 1.391 . S
C117 C118 1.405 . S
C118 H98 0.950 . S
C118 C117 1.405 . S
C118 C119 1.367 . S
C119 H99 0.950 . S
C119 C114 1.386 . S
C119 C118 1.367 . S
C120 C114 1.483 . S
C120 C121 1.382 . S
C120 C122 1.403 . S
C121 H100 0.950 . S
C121 C120 1.382 . S
C121 C137 1.411 . S
C122 C120 1.403 . S
C122 C123 1.489 . S
C122 C136 1.411 . S
C123 C122 1.489 . S
C123 C124 1.383 . S
C123 C128 1.382 . S
C124 H101 0.950 . S
C124 C123 1.383 . S
C124 C125 1.395 . S
C125 H102 0.950 . S
C125 C124 1.395 . S
C125 C126 1.288 . S
C126 C125 1.288 . S
C126 C127 1.392 . S
C127 H103 0.951 . S
C127 C126 1.392 . S
C127 C128 1.392 . S
C128 H104 0.949 . S
C128 C123 1.382 . S
C128 C127 1.392 . S
C129 C130 1.376 . S
C129 C134 1.386 . S
C129 C135 1.483 . S
C130 H105 0.949 . S
C130 C129 1.376 . S
C130 C131 1.397 . S
C131 H106 0.950 . S
C131 C130 1.397 . S
C131 C132 1.391 . S
C132 C131 1.391 . S
C132 C133 1.405 . S
C133 H107 0.950 . S
C133 C132 1.405 . S
C133 C134 1.367 . S
C134 H108 0.950 . S
C134 C129 1.386 . S
C134 C133 1.367 . S
C135 C129 1.483 . S
C135 C136 1.382 . S
C135 C137 1.403 . S
C136 H109 0.950 . S
C136 C122 1.411 . S
C136 C135 1.382 . S
C137 C121 1.411 . S
C137 C135 1.403 . S
C137 C138 1.489 . S
C138 C137 1.489 . S
C138 C139 1.383 . S
C138 C143 1.382 . S
C139 H110 0.950 . S
C139 C138 1.383 . S
C139 C140 1.395 . S
C140 H111 0.950 . S
C140 C139 1.395 . S
C140 C141 1.288 . S
C141 C140 1.288 . S
C141 C142 1.392 . S
C142 H112 0.951 . S
C142 C141 1.392 . S
C142 C143 1.392 . S
C143 H113 0.949 . S
C143 C138 1.382 . S
C143 C142 1.392 . S
H144 C163 0.949 . S
H145 C164 0.950 . S
H146 C166 0.950 . S
H147 C167 0.950 . S
H148 C169 0.936 1_655 S
H149 C172 0.950 . S
H150 C173 0.950 . S
H151 C175 0.951 . S
H152 C176 0.949 . S
H153 C178 0.949 . S
H154 C179 0.950 . S
H155 C181 0.950 . S
H156 C182 0.950 . S
H157 C184 0.950 . S
H158 C187 0.950 . S
H159 C188 0.950 . S
H160 C190 0.951 . S
H161 C191 0.949 . S
C162 C163 1.376 . S
C162 C167 1.386 . S
C162 C168 1.483 . S
C163 H144 0.949 . S
C163 C162 1.376 . S
C163 C164 1.397 . S
C164 H145 0.950 . S
C164 C163 1.397 . S
C164 C165 1.391 . S
C165 C164 1.391 . S
C165 C166 1.405 . S
C166 H146 0.950 . S
C166 C165 1.405 . S
C166 C167 1.367 . S
C167 H147 0.950 . S
C167 C162 1.386 . S
C167 C166 1.367 . S
C168 C162 1.483 . S
C168 C169 1.422 . S
C168 C170 1.403 . S
C169 H148 0.936 1_455 S
C169 C168 1.422 . S
C169 C185 1.386 1_455 S
C170 C168 1.403 . S
C170 C171 1.489 . S
C170 C184 1.411 . S
C171 C170 1.489 . S
C171 C172 1.383 . S
C171 C176 1.382 . S
C172 H149 0.950 . S
C172 C171 1.383 . S
C172 C173 1.395 . S
C173 H150 0.950 . S
C173 C172 1.395 . S
C173 C174 1.288 . S
C174 C173 1.288 . S
C174 C175 1.392 . S
C175 H151 0.951 . S
C175 C174 1.392 . S
C175 C176 1.392 . S
C176 H152 0.949 . S
C176 C171 1.382 . S
C176 C175 1.392 . S
C177 C178 1.376 . S
C177 C182 1.386 . S
C177 C183 1.483 . S
C178 H153 0.949 . S
C178 C177 1.376 . S
C178 C179 1.397 . S
C179 H154 0.950 . S
C179 C178 1.397 . S
C179 C180 1.391 . S
C180 C179 1.391 . S
C180 C181 1.405 . S
C181 H155 0.950 . S
C181 C180 1.405 . S
C181 C182 1.367 . S
C182 H156 0.950 . S
C182 C177 1.386 . S
C182 C181 1.367 . S
C183 C177 1.483 . S
C183 C184 1.382 1_655 S
C183 C185 1.403 . S
C184 H157 0.950 . S
C184 C170 1.411 . S
C184 C183 1.382 1_455 S
C185 C169 1.386 1_655 S
C185 C183 1.403 . S
C185 C186 1.489 . S
C186 C185 1.489 . S
C186 C187 1.383 . S
C186 C191 1.382 . S
C187 H158 0.950 . S
C187 C186 1.383 . S
C187 C188 1.395 . S
C188 H159 0.950 . S
C188 C187 1.395 . S
C188 C189 1.288 . S
C189 C188 1.288 . S
C189 C190 1.392 . S
C190 H160 0.951 . S
C190 C189 1.392 . S
C190 C191 1.392 . S
C191 H161 0.949 . S
C191 C186 1.382 . S
C191 C190 1.392 . S
H192 C211 0.949 . S
H193 C212 0.950 . S
H194 C214 0.950 . S
H195 C215 0.949 1_556 S
H196 C217 0.950 . S
H197 C220 0.950 . S
H198 C221 0.950 . S
H199 C223 0.951 . S
H200 C224 0.949 . S
H201 C226 0.949 . S
H202 C227 0.950 . S
H203 C229 0.950 . S
H204 C230 0.950 . S
H205 C232 0.959 . S
H206 C235 0.950 . S
H207 C236 0.950 . S
H208 C238 0.951 . S
H209 C239 0.949 . S
C210 C211 1.376 . S
C210 C215 1.387 . S
C210 C216 1.483 1_554 S
C211 H192 0.949 . S
C211 C210 1.376 . S
C211 C212 1.397 . S
C212 H193 0.950 . S
C212 C211 1.397 . S
C212 C213 1.391 . S
C213 C212 1.391 . S
C213 C214 1.405 . S
C214 H194 0.950 . S
C214 C213 1.405 . S
C214 C215 1.368 . S
C215 H195 0.949 1_554 S
C215 C210 1.387 . S
C215 C214 1.368 . S
C216 C210 1.483 1_556 S
C216 C217 1.382 1_556 S
C216 C218 1.403 . S
C217 H196 0.950 . S
C217 C216 1.382 1_554 S
C217 C233 1.411 1_545 S
C218 C216 1.403 . S
C218 C219 1.489 . S
C218 C232 1.379 1_545 S
C219 C218 1.489 . S
C219 C220 1.383 . S
C219 C224 1.382 . S
C220 H197 0.950 . S
C220 C219 1.383 . S
C220 C221 1.395 . S
C221 H198 0.950 . S
C221 C220 1.395 . S
C221 C222 1.288 . S
C222 C221 1.288 . S
C222 C223 1.392 . S
C223 H199 0.951 . S
C223 C222 1.392 . S
C223 C224 1.392 . S
C224 H200 0.949 . S
C224 C219 1.382 . S
C224 C223 1.392 . S
C225 C226 1.376 . S
C225 C230 1.386 . S
C225 C231 1.483 . S
C226 H201 0.949 . S
C226 C225 1.376 . S
C226 C227 1.397 . S
C227 H202 0.950 . S
C227 C226 1.397 . S
C227 C228 1.391 . S
C228 C227 1.391 . S
C228 C229 1.405 . S
C229 H203 0.950 . S
C229 C228 1.405 . S
C229 C230 1.367 . S
C230 H204 0.950 . S
C230 C225 1.386 . S
C230 C229 1.367 . S
C231 C225 1.483 . S
C231 C232 1.407 . S
C231 C233 1.403 1_556 S
C232 H205 0.959 . S
C232 C218 1.379 1_565 S
C232 C231 1.407 . S
C233 C217 1.411 1_565 S
C233 C231 1.403 1_554 S
C233 C234 1.489 . S
C234 C233 1.489 . S
C234 C235 1.383 . S
C234 C239 1.382 . S
C235 H206 0.950 . S
C235 C234 1.383 . S
C235 C236 1.395 . S
C236 H207 0.950 . S
C236 C235 1.395 . S
C236 C237 1.288 . S
C237 C236 1.288 . S
C237 C238 1.392 . S
C238 H208 0.951 . S
C238 C237 1.392 . S
C238 C239 1.392 . S
C239 H209 0.949 . S
C239 C234 1.382 . S
C239 C238 1.392 . S
H240 C259 0.949 . S
H241 C260 0.950 . S
H242 C262 0.950 . S
H243 C263 0.950 . S
H244 C265 0.950 . S
H245 C268 0.950 . S
H246 C269 0.950 . S
H247 C271 0.951 . S
H248 C272 0.949 . S
H249 C274 0.949 . S
H250 C275 0.950 . S
H251 C277 0.950 . S
H252 C278 0.950 . S
H253 C280 0.950 . S
H254 C283 0.950 . S
H255 C284 0.950 . S
H256 C286 0.951 . S
H257 C287 0.949 . S
C258 C259 1.376 . S
C258 C263 1.386 . S
C258 C264 1.483 . S
C259 H240 0.949 . S
C259 C258 1.376 . S
C259 C260 1.397 . S
C260 H241 0.950 . S
C260 C259 1.397 . S
C260 C261 1.391 . S
C261 C260 1.391 . S
C261 C262 1.405 . S
C262 H242 0.950 . S
C262 C261 1.405 . S
C262 C263 1.367 . S
C263 H243 0.950 . S
C263 C258 1.386 . S
C263 C262 1.367 . S
C264 C258 1.483 . S
C264 C265 1.382 . S
C264 C266 1.403 . S
C265 H244 0.950 . S
C265 C264 1.382 . S
C265 C281 1.411 . S
C266 C264 1.403 . S
C266 C267 1.489 . S
C266 C280 1.411 . S
C267 C266 1.489 . S
C267 C268 1.383 . S
C267 C272 1.382 . S
C268 H245 0.950 . S
C268 C267 1.383 . S
C268 C269 1.395 . S
C269 H246 0.950 . S
C269 C268 1.395 . S
C269 C270 1.288 . S
C270 C269 1.288 . S
C270 C271 1.392 . S
C271 H247 0.951 . S
C271 C270 1.392 . S
C271 C272 1.392 . S
C272 H248 0.949 . S
C272 C267 1.382 . S
C272 C271 1.392 . S
C273 C274 1.376 . S
C273 C278 1.386 . S
C273 C279 1.483 . S
C274 H249 0.949 . S
C274 C273 1.376 . S
C274 C275 1.397 . S
C275 H250 0.950 . S
C275 C274 1.397 . S
C275 C276 1.391 . S
C276 C275 1.391 . S
C276 C277 1.405 . S
C277 H251 0.950 . S
C277 C276 1.405 . S
C277 C278 1.367 . S
C278 H252 0.950 . S
C278 C273 1.386 . S
C278 C277 1.367 . S
C279 C273 1.483 . S
C279 C280 1.382 . S
C279 C281 1.403 . S
C280 H253 0.950 . S
C280 C266 1.411 . S
C280 C279 1.382 . S
C281 C265 1.411 . S
C281 C279 1.403 . S
C281 C282 1.489 . S
C282 C281 1.489 . S
C282 C283 1.383 . S
C282 C287 1.382 . S
C283 H254 0.950 . S
C283 C282 1.383 . S
C283 C284 1.395 . S
C284 H255 0.950 . S
C284 C283 1.395 . S
C284 C285 1.288 . S
C285 C284 1.288 . S
C285 C286 1.392 . S
C286 H256 0.951 . S
C286 C285 1.392 . S
C286 C287 1.392 . S
C287 H257 0.949 . S
C287 C282 1.382 . S
C287 C286 1.392 . S
C288 O289 1.306 . S
C288 O291 1.160 . S
O289 C288 1.306 . S
O289 Cd290 2.228 . S
Cd290 O289 2.228 . S
Cd290 O294 2.273 . S
Cd290 O298 2.277 . S
O291 C288 1.160 . S
O291 Cd292 2.203 . S
Cd292 O291 2.203 . S
Cd292 O294 2.411 . S
Cd292 O295 2.333 . S
Cd292 O296 2.352 . S
Cd292 O300 2.277 . S
Cd292 O301 2.356 . S
C293 O298 1.209 . S
C293 O300 1.226 . S
O294 Cd290 2.273 . S
O294 Cd292 2.411 . S
O294 C297 1.320 . S
O295 Cd292 2.333 . S
O295 C297 1.214 . S
O296 Cd292 2.352 . S
O296 C299 1.258 . S
C297 O294 1.320 . S
C297 O295 1.214 . S
O298 Cd290 2.277 . S
O298 C293 1.209 . S
C299 O296 1.258 . S
C299 O301 1.282 . S
O300 Cd292 2.277 . S
O300 C293 1.226 . S
O301 Cd292 2.356 . S
O301 C299 1.282 . S
C302 O303 1.306 . S
C302 O305 1.160 . S
O303 C302 1.306 . S
O303 Cd304 2.228 . S
Cd304 O303 2.228 . S
Cd304 O308 2.273 . S
Cd304 O312 2.277 . S
O305 C302 1.160 . S
O305 Cd306 2.203 . S
Cd306 O305 2.203 . S
Cd306 O308 2.411 . S
Cd306 O309 2.333 . S
Cd306 O310 2.352 . S
Cd306 O314 2.277 . S
Cd306 O315 2.356 . S
C307 O312 1.209 . S
C307 O314 1.226 . S
O308 Cd304 2.273 . S
O308 Cd306 2.411 . S
O308 C311 1.320 . S
O309 Cd306 2.333 . S
O309 C311 1.214 . S
O310 Cd306 2.352 . S
O310 C313 1.258 . S
C311 O308 1.320 . S
C311 O309 1.214 . S
O312 Cd304 2.277 . S
O312 C307 1.209 . S
C313 O310 1.258 . S
C313 O315 1.282 . S
O314 Cd306 2.277 . S
O314 C307 1.226 . S
O315 Cd306 2.356 . S
O315 C313 1.282 . S
C316 O317 1.306 . S
C316 O319 1.160 . S
O317 C316 1.306 . S
O317 Cd318 2.228 . S
Cd318 O317 2.228 . S
Cd318 O322 2.273 . S
Cd318 O326 2.277 . S
O319 C316 1.160 . S
O319 Cd320 2.203 . S
Cd320 O319 2.203 . S
Cd320 O322 2.411 . S
Cd320 O323 2.333 . S
Cd320 O324 2.352 . S
Cd320 O328 2.277 . S
Cd320 O329 2.356 . S
C321 O326 1.209 . S
C321 O328 1.226 . S
O322 Cd318 2.273 . S
O322 Cd320 2.411 . S
O322 C325 1.320 . S
O323 Cd320 2.333 . S
O323 C325 1.214 . S
O324 Cd320 2.352 . S
O324 C327 1.258 . S
C325 O322 1.320 . S
C325 O323 1.214 . S
O326 Cd318 2.277 . S
O326 C321 1.209 . S
C327 O324 1.258 . S
C327 O329 1.282 . S
O328 Cd320 2.277 . S
O328 C321 1.226 . S
O329 Cd320 2.356 . S
O329 C327 1.282 . S
C330 O331 1.306 . S
C330 O333 1.160 . S
O331 C330 1.306 . S
O331 Cd332 2.228 . S
Cd332 O331 2.228 . S
Cd332 O336 2.273 . S
Cd332 O340 2.277 . S
O333 C330 1.160 . S
O333 Cd334 2.203 . S
Cd334 O333 2.203 . S
Cd334 O336 2.411 . S
Cd334 O337 2.333 . S
Cd334 O338 2.352 . S
Cd334 O342 2.277 . S
Cd334 O343 2.356 . S
C335 O340 1.209 . S
C335 O342 1.226 . S
O336 Cd332 2.273 . S
O336 Cd334 2.411 . S
O336 C339 1.320 . S
O337 Cd334 2.333 . S
O337 C339 1.214 . S
O338 Cd334 2.352 . S
O338 C341 1.258 . S
C339 O336 1.320 . S
C339 O337 1.214 . S
O340 Cd332 2.277 . S
O340 C335 1.209 . S
C341 O338 1.258 . S
C341 O343 1.282 . S
O342 Cd334 2.277 . S
O342 C335 1.226 . S
O343 Cd334 2.356 . S
O343 C341 1.282 . S
C344 O345 1.306 . S
C344 O347 1.160 . S
O345 C344 1.306 . S
O345 Cd346 2.228 . S
Cd346 O345 2.228 . S
Cd346 O350 2.273 . S
Cd346 O354 2.277 . S
O347 C344 1.160 . S
O347 Cd348 2.203 . S
Cd348 O347 2.203 . S
Cd348 O350 2.411 . S
Cd348 O351 2.333 . S
Cd348 O352 2.352 . S
Cd348 O356 2.277 . S
Cd348 O357 2.356 . S
C349 O354 1.209 . S
C349 O356 1.226 . S
O350 Cd346 2.273 . S
O350 Cd348 2.411 . S
O350 C353 1.320 . S
O351 Cd348 2.333 . S
O351 C353 1.214 . S
O352 Cd348 2.352 . S
O352 C355 1.258 . S
C353 O350 1.320 . S
C353 O351 1.214 . S
O354 Cd346 2.277 . S
O354 C349 1.209 . S
C355 O352 1.258 . S
C355 O357 1.282 . S
O356 Cd348 2.277 . S
O356 C349 1.226 . S
O357 Cd348 2.356 . S
O357 C355 1.282 . S
C358 O359 1.306 . S
C358 O361 1.160 . S
O359 C358 1.306 . S
O359 Cd360 2.228 . S
Cd360 O359 2.228 . S
Cd360 O364 2.273 . S
Cd360 O368 2.277 . S
O361 C358 1.160 . S
O361 Cd362 2.203 . S
Cd362 O361 2.203 . S
Cd362 O364 2.411 . S
Cd362 O365 2.333 . S
Cd362 O366 2.352 . S
Cd362 O370 2.277 . S
Cd362 O371 2.356 . S
C363 O368 1.209 . S
C363 O370 1.226 . S
O364 Cd360 2.273 . S
O364 Cd362 2.411 . S
O364 C367 1.320 . S
O365 Cd362 2.333 . S
O365 C367 1.214 . S
O366 Cd362 2.352 . S
O366 C369 1.258 . S
C367 O364 1.320 . S
C367 O365 1.214 . S
O368 Cd360 2.277 . S
O368 C363 1.209 . S
C369 O366 1.258 . S
C369 O371 1.282 . S
O370 Cd362 2.277 . S
O370 C363 1.226 . S
O371 Cd362 2.356 . S
O371 C369 1.282 . S
C372 C373 1.391 . S
C372 C374 1.394 . S
C372 H388 0.931 . S
C373 C372 1.391 . S
C373 C377 1.376 . S
C374 C372 1.394 . S
C374 C375 1.369 . S
C374 C378 1.531 . S
C375 C374 1.369 . S
C375 C376 1.410 . S
C375 C383 1.503 . S
C376 C375 1.410 . S
C376 C377 1.392 . S
C376 C379 1.511 . S
C377 C373 1.376 . S
C377 C376 1.392 . S
C377 H389 0.929 . S
C378 C374 1.531 . S
C378 H390 0.960 . S
C378 H391 0.962 . S
C378 H392 0.960 . S
C379 C376 1.511 . S
C379 H393 0.961 . S
C379 H394 0.961 . S
C379 H395 0.961 . S
C380 C381 1.370 . S
C380 C382 1.363 . S
C380 H396 0.931 . S
C381 C380 1.370 . S
C381 C385 1.408 . S
C382 C380 1.363 . S
C382 C383 1.370 . S
C382 C386 1.524 . S
C383 C375 1.503 . S
C383 C382 1.370 . S
C383 C384 1.403 . S
C384 C383 1.403 . S
C384 C385 1.404 . S
C384 C387 1.539 . S
C385 C381 1.408 . S
C385 C384 1.404 . S
C385 H397 0.930 . S
C386 C382 1.524 . S
C386 H398 0.956 . S
C386 H399 0.961 . S
C386 H400 0.961 . S
C387 C384 1.539 . S
C387 H401 0.958 . S
C387 H402 0.961 . S
C387 H403 0.960 . S
H388 C372 0.931 . S
H389 C377 0.929 . S
H390 C378 0.960 . S
H391 C378 0.962 . S
H392 C378 0.960 . S
H393 C379 0.961 . S
H394 C379 0.961 . S
H395 C379 0.961 . S
H396 C380 0.931 . S
H397 C385 0.930 . S
H398 C386 0.956 . S
H399 C386 0.961 . S
H400 C386 0.961 . S
H401 C387 0.958 . S
H402 C387 0.961 . S
H403 C387 0.960 . S
C404 C405 1.391 . S
C404 C406 1.394 . S
C404 H420 0.931 . S
C405 C404 1.391 . S
C405 C409 1.376 . S
C406 C404 1.394 . S
C406 C407 1.369 . S
C406 C410 1.531 . S
C407 C406 1.369 . S
C407 C408 1.410 . S
C407 C415 1.503 . S
C408 C407 1.410 . S
C408 C409 1.392 . S
C408 C411 1.511 . S
C409 C405 1.376 . S
C409 C408 1.392 . S
C409 H421 0.929 . S
C410 C406 1.531 . S
C410 H422 0.960 . S
C410 H423 0.962 . S
C410 H424 0.960 . S
C411 C408 1.511 . S
C411 H425 0.961 . S
C411 H426 0.961 . S
C411 H427 0.961 . S
C412 C413 1.370 . S
C412 C414 1.363 . S
C412 H428 0.931 . S
C413 C412 1.370 . S
C413 C417 1.408 . S
C414 C412 1.363 . S
C414 C415 1.370 . S
C414 C418 1.524 . S
C415 C407 1.503 . S
C415 C414 1.370 . S
C415 C416 1.403 . S
C416 C415 1.403 . S
C416 C417 1.404 . S
C416 C419 1.539 . S
C417 C413 1.408 . S
C417 C416 1.404 . S
C417 H429 0.930 . S
C418 C414 1.524 . S
C418 H430 0.956 . S
C418 H431 0.961 . S
C418 H432 0.961 . S
C419 C416 1.539 . S
C419 H433 0.958 . S
C419 H434 0.961 . S
C419 H435 0.960 . S
H420 C404 0.931 . S
H421 C409 0.929 . S
H422 C410 0.960 . S
H423 C410 0.962 . S
H424 C410 0.960 . S
H425 C411 0.961 . S
H426 C411 0.961 . S
H427 C411 0.961 . S
H428 C412 0.931 . S
H429 C417 0.930 . S
H430 C418 0.956 . S
H431 C418 0.961 . S
H432 C418 0.961 . S
H433 C419 0.958 . S
H434 C419 0.961 . S
H435 C419 0.960 . S
C436 C437 1.391 . S
C436 C438 1.394 . S
C436 H452 0.931 . S
C437 C436 1.391 . S
C437 C441 1.376 . S
C438 C436 1.394 . S
C438 C439 1.369 . S
C438 C442 1.531 . S
C439 C438 1.369 . S
C439 C440 1.410 . S
C439 C447 1.503 . S
C440 C439 1.410 . S
C440 C441 1.392 . S
C440 C443 1.511 . S
C441 C437 1.376 . S
C441 C440 1.392 . S
C441 H453 0.929 . S
C442 C438 1.531 . S
C442 H454 0.960 . S
C442 H455 0.962 . S
C442 H456 0.960 . S
C443 C440 1.511 . S
C443 H457 0.961 . S
C443 H458 0.961 . S
C443 H459 0.961 . S
C444 C445 1.370 . S
C444 C446 1.363 . S
C444 H460 0.931 . S
C445 C444 1.370 . S
C445 C449 1.408 . S
C446 C444 1.363 . S
C446 C447 1.370 . S
C446 C450 1.524 . S
C447 C439 1.503 . S
C447 C446 1.370 . S
C447 C448 1.403 . S
C448 C447 1.403 . S
C448 C449 1.404 . S
C448 C451 1.539 . S
C449 C445 1.408 . S
C449 C448 1.404 . S
C449 H461 0.930 . S
C450 C446 1.524 . S
C450 H462 0.956 . S
C450 H463 0.961 . S
C450 H464 0.961 . S
C451 C448 1.539 . S
C451 H465 0.958 . S
C451 H466 0.961 . S
C451 H467 0.960 . S
H452 C436 0.931 . S
H453 C441 0.929 . S
H454 C442 0.960 . S
H455 C442 0.962 . S
H456 C442 0.960 . S
H457 C443 0.961 . S
H458 C443 0.961 . S
H459 C443 0.961 . S
H460 C444 0.931 . S
H461 C449 0.930 . S
H462 C450 0.956 . S
H463 C450 0.961 . S
H464 C450 0.961 . S
H465 C451 0.958 . S
H466 C451 0.961 . S
H467 C451 0.960 . S
C468 C469 1.391 . S
C468 C470 1.394 . S
C468 H484 0.931 . S
C469 C468 1.391 . S
C469 C473 1.376 . S
C470 C468 1.394 . S
C470 C471 1.369 . S
C470 C474 1.531 . S
C471 C470 1.369 . S
C471 C472 1.410 . S
C471 C479 1.503 . S
C472 C471 1.410 . S
C472 C473 1.392 . S
C472 C475 1.511 . S
C473 C469 1.376 . S
C473 C472 1.392 . S
C473 H485 0.929 . S
C474 C470 1.531 . S
C474 H486 0.960 . S
C474 H487 0.962 . S
C474 H488 0.960 . S
C475 C472 1.511 . S
C475 H489 0.961 . S
C475 H490 0.961 . S
C475 H491 0.961 . S
C476 C477 1.370 . S
C476 C478 1.363 . S
C476 H492 0.931 . S
C477 C476 1.370 . S
C477 C481 1.408 . S
C478 C476 1.363 . S
C478 C479 1.370 . S
C478 C482 1.524 . S
C479 C471 1.503 . S
C479 C478 1.370 . S
C479 C480 1.403 . S
C480 C479 1.403 . S
C480 C481 1.404 . S
C480 C483 1.539 . S
C481 C477 1.408 . S
C481 C480 1.404 . S
C481 H493 0.930 . S
C482 C478 1.524 . S
C482 H494 0.956 . S
C482 H495 0.961 . S
C482 H496 0.961 . S
C483 C480 1.539 . S
C483 H497 0.958 . S
C483 H498 0.961 . S
C483 H499 0.960 . S
H484 C468 0.931 . S
H485 C473 0.929 . S
H486 C474 0.960 . S
H487 C474 0.962 . S
H488 C474 0.960 . S
H489 C475 0.961 . S
H490 C475 0.961 . S
H491 C475 0.961 . S
H492 C476 0.931 . S
H493 C481 0.930 . S
H494 C482 0.956 . S
H495 C482 0.961 . S
H496 C482 0.961 . S
H497 C483 0.958 . S
H498 C483 0.961 . S
H499 C483 0.960 . S
C500 C501 1.391 . S
C500 C502 1.394 . S
C500 H516 0.931 . S
C501 C500 1.391 . S
C501 C505 1.376 . S
C502 C500 1.394 . S
C502 C503 1.369 . S
C502 C506 1.531 . S
C503 C502 1.369 . S
C503 C504 1.410 . S
C503 C511 1.503 . S
C504 C503 1.410 . S
C504 C505 1.392 . S
C504 C507 1.511 . S
C505 C501 1.376 . S
C505 C504 1.392 . S
C505 H517 0.929 . S
C506 C502 1.531 . S
C506 H518 0.960 . S
C506 H519 0.962 . S
C506 H520 0.960 1_556 S
C507 C504 1.511 . S
C507 H521 0.961 . S
C507 H522 0.961 . S
C507 H523 0.961 . S
C508 C509 1.370 . S
C508 C510 1.363 . S
C508 H524 0.931 . S
C509 C508 1.370 . S
C509 C513 1.408 . S
C510 C508 1.363 . S
C510 C511 1.370 . S
C510 C514 1.524 . S
C511 C503 1.503 . S
C511 C510 1.370 . S
C511 C512 1.403 . S
C512 C511 1.403 . S
C512 C513 1.404 . S
C512 C515 1.539 . S
C513 C509 1.408 . S
C513 C512 1.404 . S
C513 H525 0.930 . S
C514 C510 1.524 . S
C514 H526 0.956 . S
C514 H527 0.961 . S
C514 H528 0.961 . S
C515 C512 1.539 . S
C515 H529 0.958 . S
C515 H530 0.961 . S
C515 H531 0.960 . S
H516 C500 0.931 . S
H517 C505 0.929 . S
H518 C506 0.960 . S
H519 C506 0.962 . S
H520 C506 0.960 1_554 S
H521 C507 0.961 . S
H522 C507 0.961 . S
H523 C507 0.961 . S
H524 C508 0.931 . S
H525 C513 0.930 . S
H526 C514 0.956 . S
H527 C514 0.961 . S
H528 C514 0.961 . S
H529 C515 0.958 . S
H530 C515 0.961 . S
H531 C515 0.960 . S
C532 C533 1.391 . S
C532 C534 1.394 . S
C532 H548 0.931 . S
C533 C532 1.391 . S
C533 C537 1.376 . S
C534 C532 1.394 . S
C534 C535 1.369 . S
C534 C538 1.531 . S
C535 C534 1.369 . S
C535 C536 1.410 . S
C535 C543 1.503 . S
C536 C535 1.410 . S
C536 C537 1.392 . S
C536 C539 1.511 . S
C537 C533 1.376 . S
C537 C536 1.392 . S
C537 H549 0.929 . S
C538 C534 1.531 . S
C538 H550 0.960 . S
C538 H551 0.962 . S
C538 H552 0.960 . S
C539 C536 1.511 . S
C539 H553 0.961 . S
C539 H554 0.961 . S
C539 H555 0.961 . S
C540 C541 1.370 . S
C540 C542 1.363 . S
C540 H556 0.931 . S
C541 C540 1.370 . S
C541 C545 1.408 . S
C542 C540 1.363 . S
C542 C543 1.370 . S
C542 C546 1.524 . S
C543 C535 1.503 . S
C543 C542 1.370 . S
C543 C544 1.403 . S
C544 C543 1.403 . S
C544 C545 1.404 . S
C544 C547 1.539 . S
C545 C541 1.408 . S
C545 C544 1.404 . S
C545 H557 0.930 . S
C546 C542 1.524 . S
C546 H558 0.956 . S
C546 H559 0.961 . S
C546 H560 0.961 . S
C547 C544 1.539 . S
C547 H561 0.958 . S
C547 H562 0.961 . S
C547 H563 0.960 . S
H548 C532 0.931 . S
H549 C537 0.929 . S
H550 C538 0.960 . S
H551 C538 0.962 . S
H552 C538 0.960 . S
H553 C539 0.961 . S
H554 C539 0.961 . S
H555 C539 0.961 . S
H556 C540 0.931 . S
H557 C545 0.930 . S
H558 C546 0.956 . S
H559 C546 0.961 . S
H560 C546 0.961 . S
H561 C547 0.958 . S
H562 C547 0.961 . S
H563 C547 0.960 . S
C564 C565 1.391 . S
C564 C566 1.394 . S
C564 H580 0.931 . S
C565 C564 1.391 . S
C565 C569 1.376 . S
C566 C564 1.394 . S
C566 C567 1.369 . S
C566 C570 1.531 . S
C567 C566 1.369 . S
C567 C568 1.410 . S
C567 C575 1.503 . S
C568 C567 1.410 . S
C568 C569 1.392 . S
C568 C571 1.511 . S
C569 C565 1.376 . S
C569 C568 1.392 . S
C569 H581 0.929 . S
C570 C566 1.531 . S
C570 H582 0.960 . S
C570 H583 0.962 . S
C570 H584 0.960 . S
C571 C568 1.511 . S
C571 H585 0.961 . S
C571 H586 0.961 . S
C571 H587 0.961 . S
C572 C573 1.370 . S
C572 C574 1.363 . S
C572 H588 0.931 . S
C573 C572 1.370 . S
C573 C577 1.408 . S
C574 C572 1.363 . S
C574 C575 1.370 . S
C574 C578 1.524 . S
C575 C567 1.503 . S
C575 C574 1.370 . S
C575 C576 1.403 . S
C576 C575 1.403 . S
C576 C577 1.404 . S
C576 C579 1.539 . S
C577 C573 1.408 . S
C577 C576 1.404 . S
C577 H589 0.930 . S
C578 C574 1.524 . S
C578 H590 0.956 . S
C578 H591 0.961 . S
C578 H592 0.961 . S
C579 C576 1.539 . S
C579 H593 0.958 . S
C579 H594 0.961 . S
C579 H595 0.960 . S
H580 C564 0.931 . S
H581 C569 0.929 . S
H582 C570 0.960 . S
H583 C570 0.962 . S
H584 C570 0.960 . S
H585 C571 0.961 . S
H586 C571 0.961 . S
H587 C571 0.961 . S
H588 C572 0.931 . S
H589 C577 0.930 . S
H590 C578 0.956 . S
H591 C578 0.961 . S
H592 C578 0.961 . S
H593 C579 0.958 . S
H594 C579 0.961 . S
H595 C579 0.960 . S
C596 C597 1.391 . S
C596 C598 1.394 . S
C596 H612 0.931 . S
C597 C596 1.391 . S
C597 C601 1.376 . S
C598 C596 1.394 . S
C598 C599 1.369 . S
C598 C602 1.531 . S
C599 C598 1.369 . S
C599 C600 1.410 . S
C599 C607 1.503 . S
C600 C599 1.410 . S
C600 C601 1.392 . S
C600 C603 1.511 . S
C601 C597 1.376 . S
C601 C600 1.392 . S
C601 H613 0.929 . S
C602 C598 1.531 . S
C602 H614 0.960 . S
C602 H615 0.962 . S
C602 H616 0.960 . S
C603 C600 1.511 . S
C603 H617 0.961 . S
C603 H618 0.961 . S
C603 H619 0.961 . S
C604 C605 1.370 . S
C604 C606 1.363 . S
C604 H620 0.931 . S
C605 C604 1.370 . S
C605 C609 1.408 . S
C606 C604 1.363 . S
C606 C607 1.370 . S
C606 C610 1.524 . S
C607 C599 1.503 . S
C607 C606 1.370 . S
C607 C608 1.403 . S
C608 C607 1.403 . S
C608 C609 1.404 . S
C608 C611 1.539 . S
C609 C605 1.408 . S
C609 C608 1.404 . S
C609 H621 0.930 . S
C610 C606 1.524 . S
C610 H622 0.956 . S
C610 H623 0.961 . S
C610 H624 0.961 . S
C611 C608 1.539 . S
C611 H625 0.958 . S
C611 H626 0.961 . S
C611 H627 0.960 . S
H612 C596 0.931 . S
H613 C601 0.929 . S
H614 C602 0.960 . S
H615 C602 0.962 . S
H616 C602 0.960 . S
H617 C603 0.961 . S
H618 C603 0.961 . S
H619 C603 0.961 . S
H620 C604 0.931 . S
H621 C609 0.930 . S
H622 C610 0.956 . S
H623 C610 0.961 . S
H624 C610 0.961 . S
H625 C611 0.958 . S
H626 C611 0.961 . S
H627 C611 0.960 . S
C628 C629 1.391 . S
C628 C630 1.394 . S
C628 H644 0.931 . S
C629 C628 1.391 . S
C629 C633 1.376 . S
C630 C628 1.394 . S
C630 C631 1.369 . S
C630 C634 1.531 . S
C631 C630 1.369 . S
C631 C632 1.410 . S
C631 C639 1.503 . S
C632 C631 1.410 . S
C632 C633 1.392 . S
C632 C635 1.511 . S
C633 C629 1.376 . S
C633 C632 1.392 . S
C633 H645 0.929 . S
C634 C630 1.531 . S
C634 H646 0.960 . S
C634 H647 0.962 . S
C634 H648 0.960 . S
C635 C632 1.511 . S
C635 H649 0.961 . S
C635 H650 0.961 . S
C635 H651 0.961 . S
C636 C637 1.370 . S
C636 C638 1.363 . S
C636 H652 0.931 . S
C637 C636 1.370 . S
C637 C641 1.408 . S
C638 C636 1.363 . S
C638 C639 1.370 . S
C638 C642 1.524 . S
C639 C631 1.503 . S
C639 C638 1.370 . S
C639 C640 1.403 . S
C640 C639 1.403 . S
C640 C641 1.404 . S
C640 C643 1.539 . S
C641 C637 1.408 . S
C641 C640 1.404 . S
C641 H653 0.930 . S
C642 C638 1.524 . S
C642 H654 0.956 . S
C642 H655 0.961 . S
C642 H656 0.961 . S
C643 C640 1.539 . S
C643 H657 0.958 . S
C643 H658 0.961 . S
C643 H659 0.960 . S
H644 C628 0.931 . S
H645 C633 0.929 . S
H646 C634 0.960 . S
H647 C634 0.962 . S
H648 C634 0.960 . S
H649 C635 0.961 . S
H650 C635 0.961 . S
H651 C635 0.961 . S
H652 C636 0.931 . S
H653 C641 0.930 . S
H654 C642 0.956 . S
H655 C642 0.961 . S
H656 C642 0.961 . S
H657 C643 0.958 . S
H658 C643 0.961 . S
H659 C643 0.960 . S
C660 C661 1.391 . S
C660 C662 1.394 . S
C660 H676 0.931 . S
C661 C660 1.391 . S
C661 C665 1.376 . S
C662 C660 1.394 . S
C662 C663 1.369 . S
C662 C666 1.531 . S
C663 C662 1.369 . S
C663 C664 1.410 . S
C663 C671 1.503 . S
C664 C663 1.410 . S
C664 C665 1.392 . S
C664 C667 1.511 . S
C665 C661 1.376 . S
C665 C664 1.392 . S
C665 H677 0.929 . S
C666 C662 1.531 . S
C666 H678 0.960 . S
C666 H679 0.962 . S
C666 H680 0.960 . S
C667 C664 1.511 . S
C667 H681 0.994 . S
C667 H682 0.961 . S
C667 H683 0.961 . S
C668 C669 1.370 . S
C668 C670 1.363 . S
C668 H684 0.931 . S
C669 C668 1.370 . S
C669 C673 1.408 . S
C670 C668 1.363 . S
C670 C671 1.370 . S
C670 C674 1.524 . S
C671 C663 1.503 . S
C671 C670 1.370 . S
C671 C672 1.403 . S
C672 C671 1.403 . S
C672 C673 1.404 . S
C672 C675 1.539 . S
C673 C669 1.408 . S
C673 C672 1.404 . S
C673 H685 0.930 . S
C674 C670 1.524 . S
C674 H686 0.956 . S
C674 H687 0.961 . S
C674 H688 0.961 . S
C675 C672 1.539 . S
C675 H689 0.958 . S
C675 H690 0.961 . S
C675 H691 0.960 . S
H676 C660 0.931 . S
H677 C665 0.929 . S
H678 C666 0.960 . S
H679 C666 0.962 . S
H680 C666 0.960 . S
H681 C667 0.994 . S
H682 C667 0.961 . S
H683 C667 0.961 . S
H684 C668 0.931 . S
H685 C673 0.930 . S
H686 C674 0.956 . S
H687 C674 0.961 . S
H688 C674 0.961 . S
H689 C675 0.958 . S
H690 C675 0.961 . S
H691 C675 0.960 . S
C692 C693 1.391 . S
C692 C694 1.394 . S
C692 H708 0.931 . S
C693 C692 1.391 . S
C693 C697 1.376 . S
C694 C692 1.394 . S
C694 C695 1.369 . S
C694 C698 1.531 . S
C695 C694 1.369 . S
C695 C696 1.410 . S
C695 C703 1.503 . S
C696 C695 1.410 . S
C696 C697 1.392 . S
C696 C699 1.511 . S
C697 C693 1.376 . S
C697 C696 1.392 . S
C697 H709 0.929 . S
C698 C694 1.531 . S
C698 H710 0.960 . S
C698 H711 0.962 . S
C698 H712 0.960 . S
C699 C696 1.511 . S
C699 H713 0.961 . S
C699 H714 0.961 . S
C699 H715 0.961 . S
C700 C701 1.370 . S
C700 C702 1.363 . S
C700 H716 0.931 . S
C701 C700 1.370 . S
C701 C705 1.408 . S
C702 C700 1.363 . S
C702 C703 1.370 . S
C702 C706 1.524 . S
C703 C695 1.503 . S
C703 C702 1.370 . S
C703 C704 1.403 . S
C704 C703 1.403 . S
C704 C705 1.404 . S
C704 C707 1.539 . S
C705 C701 1.408 . S
C705 C704 1.404 . S
C705 H717 0.930 . S
C706 C702 1.524 . S
C706 H718 0.956 . S
C706 H719 0.961 . S
C706 H720 0.961 . S
C707 C704 1.539 . S
C707 H721 0.958 . S
C707 H722 0.961 . S
C707 H723 0.960 . S
H708 C692 0.931 . S
H709 C697 0.929 . S
H710 C698 0.960 . S
H711 C698 0.962 . S
H712 C698 0.960 . S
H713 C699 0.961 . S
H714 C699 0.961 . S
H715 C699 0.961 . S
H716 C700 0.931 . S
H717 C705 0.930 . S
H718 C706 0.956 . S
H719 C706 0.961 . S
H720 C706 0.961 . S
H721 C707 0.958 . S
H722 C707 0.961 . S
H723 C707 0.960 . S
C724 C725 1.391 . S
C724 C726 1.394 . S
C724 H740 0.931 . S
C725 C724 1.391 . S
C725 C729 1.376 . S
C726 C724 1.394 . S
C726 C727 1.369 . S
C726 C730 1.531 . S
C727 C726 1.369 . S
C727 C728 1.410 . S
C727 C735 1.503 . S
C728 C727 1.410 . S
C728 C729 1.392 . S
C728 C731 1.511 . S
C729 C725 1.376 . S
C729 C728 1.392 . S
C729 H741 0.929 . S
C730 C726 1.531 . S
C730 H742 0.960 . S
C730 H743 0.962 . S
C730 H744 0.960 . S
C731 C728 1.511 . S
C731 H745 0.961 . S
C731 H746 0.961 . S
C731 H747 0.961 . S
C732 C733 1.370 . S
C732 C734 1.363 . S
C732 H748 0.931 . S
C733 C732 1.370 . S
C733 C737 1.408 . S
C734 C732 1.363 . S
C734 C735 1.370 . S
C734 C738 1.524 . S
C735 C727 1.503 . S
C735 C734 1.370 . S
C735 C736 1.403 . S
C736 C735 1.403 . S
C736 C737 1.404 . S
C736 C739 1.539 . S
C737 C733 1.408 . S
C737 C736 1.404 . S
C737 H749 0.930 . S
C738 C734 1.524 . S
C738 H750 0.956 . S
C738 H751 0.961 . S
C738 H752 0.961 . S
C739 C736 1.539 . S
C739 H753 0.958 . S
C739 H754 0.961 . S
C739 H755 0.960 . S
H740 C724 0.931 . S
H741 C729 0.929 . S
H742 C730 0.960 . S
H743 C730 0.962 . S
H744 C730 0.960 . S
H745 C731 0.961 . S
H746 C731 0.961 . S
H747 C731 0.961 . S
H748 C732 0.931 . S
H749 C737 0.930 . S
H750 C738 0.956 . S
H751 C738 0.961 . S
H752 C738 0.961 . S
H753 C739 0.958 . S
H754 C739 0.961 . S
H755 C739 0.960 . S
C756 C757 1.391 . S
C756 C758 1.394 . S
C756 H772 0.931 . S
C757 C756 1.391 . S
C757 C761 1.376 . S
C758 C756 1.394 . S
C758 C759 1.369 . S
C758 C762 1.531 . S
C759 C758 1.369 . S
C759 C760 1.410 . S
C759 C767 1.503 . S
C760 C759 1.410 . S
C760 C761 1.392 . S
C760 C763 1.511 . S
C761 C757 1.376 . S
C761 C760 1.392 . S
C761 H773 0.929 . S
C762 C758 1.531 . S
C762 H774 0.960 . S
C762 H775 0.962 . S
C762 H776 0.960 . S
C763 C760 1.511 . S
C763 H777 0.961 . S
C763 H778 0.961 . S
C763 H779 0.961 . S
C764 C765 1.370 . S
C764 C766 1.363 . S
C764 H780 0.931 . S
C765 C764 1.370 . S
C765 C769 1.408 . S
C766 C764 1.363 . S
C766 C767 1.370 . S
C766 C770 1.524 . S
C767 C759 1.503 . S
C767 C766 1.370 . S
C767 C768 1.403 . S
C768 C767 1.403 . S
C768 C769 1.404 . S
C768 C771 1.539 . S
C769 C765 1.408 . S
C769 C768 1.404 . S
C769 H781 0.930 . S
C770 C766 1.524 . S
C770 H782 0.956 . S
C770 H783 0.961 . S
C770 H784 0.961 . S
C771 C768 1.539 . S
C771 H785 0.958 . S
C771 H786 0.961 . S
C771 H787 0.960 . S
H772 C756 0.931 . S
H773 C761 0.929 . S
H774 C762 0.960 . S
H775 C762 0.962 . S
H776 C762 0.960 . S
H777 C763 0.961 . S
H778 C763 0.961 . S
H779 C763 0.961 . S
H780 C764 0.931 . S
H781 C769 0.930 . S
H782 C770 0.956 . S
H783 C770 0.961 . S
H784 C770 0.961 . S
H785 C771 0.958 . S
H786 C771 0.961 . S
H787 C771 0.960 . S
C788 C789 1.391 . S
C788 C790 1.394 . S
C788 H804 0.931 . S
C789 C788 1.391 . S
C789 C793 1.376 . S
C790 C788 1.394 . S
C790 C791 1.369 . S
C790 C794 1.531 . S
C791 C790 1.369 . S
C791 C792 1.410 . S
C791 C799 1.503 . S
C792 C791 1.410 . S
C792 C793 1.392 . S
C792 C795 1.511 . S
C793 C789 1.376 . S
C793 C792 1.392 . S
C793 H805 0.929 . S
C794 C790 1.531 . S
C794 H806 0.960 . S
C794 H807 0.962 . S
C794 H808 0.960 . S
C795 C792 1.511 . S
C795 H809 0.961 . S
C795 H810 0.961 . S
C795 H811 0.961 . S
C796 C797 1.370 . S
C796 C798 1.363 . S
C796 H812 0.931 . S
C797 C796 1.370 . S
C797 C801 1.408 . S
C798 C796 1.363 . S
C798 C799 1.370 . S
C798 C802 1.524 . S
C799 C791 1.503 . S
C799 C798 1.370 . S
C799 C800 1.403 . S
C800 C799 1.403 . S
C800 C801 1.404 . S
C800 C803 1.539 . S
C801 C797 1.408 . S
C801 C800 1.404 . S
C801 H813 0.930 . S
C802 C798 1.524 . S
C802 H814 0.956 . S
C802 H815 0.961 . S
C802 H816 0.961 . S
C803 C800 1.539 . S
C803 H817 0.958 . S
C803 H818 0.961 . S
C803 H819 0.960 . S
H804 C788 0.931 . S
H805 C793 0.929 . S
H806 C794 0.960 . S
H807 C794 0.962 . S
H808 C794 0.960 . S
H809 C795 0.961 . S
H810 C795 0.961 . S
H811 C795 0.961 . S
H812 C796 0.931 . S
H813 C801 0.930 . S
H814 C802 0.956 . S
H815 C802 0.961 . S
H816 C802 0.961 . S
H817 C803 0.958 . S
H818 C803 0.961 . S
H819 C803 0.960 . S
C820 C821 1.391 . S
C820 C822 1.394 . S
C820 H836 0.931 . S
C821 C820 1.391 . S
C821 C825 1.376 . S
C822 C820 1.394 . S
C822 C823 1.369 . S
C822 C826 1.531 . S
C823 C822 1.369 . S
C823 C824 1.410 . S
C823 C831 1.503 . S
C824 C823 1.410 . S
C824 C825 1.392 . S
C824 C827 1.511 . S
C825 C821 1.376 . S
C825 C824 1.392 . S
C825 H837 0.929 . S
C826 C822 1.531 . S
C826 H838 0.960 . S
C826 H839 0.962 . S
C826 H840 0.960 . S
C827 C824 1.511 . S
C827 H841 0.961 . S
C827 H842 0.961 . S
C827 H843 0.961 . S
C828 C829 1.370 . S
C828 C830 1.363 . S
C828 H844 0.931 . S
C829 C828 1.370 . S
C829 C833 1.408 . S
C830 C828 1.363 . S
C830 C831 1.370 . S
C830 C834 1.524 . S
C831 C823 1.503 . S
C831 C830 1.370 . S
C831 C832 1.403 . S
C832 C831 1.403 . S
C832 C833 1.404 . S
C832 C835 1.539 . S
C833 C829 1.408 . S
C833 C832 1.404 . S
C833 H845 0.930 . S
C834 C830 1.524 . S
C834 H846 0.956 . S
C834 H847 0.961 . S
C834 H848 0.961 . S
C835 C832 1.539 . S
C835 H849 0.958 . S
C835 H850 0.961 . S
C835 H851 0.960 . S
H836 C820 0.931 . S
H837 C825 0.929 . S
H838 C826 0.960 . S
H839 C826 0.962 . S
H840 C826 0.960 . S
H841 C827 0.961 . S
H842 C827 0.961 . S
H843 C827 0.961 . S
H844 C828 0.931 . S
H845 C833 0.930 . S
H846 C834 0.956 . S
H847 C834 0.961 . S
H848 C834 0.961 . S
H849 C835 0.958 . S
H850 C835 0.961 . S
H851 C835 0.960 . S
C852 C853 1.391 . S
C852 C854 1.394 . S
C852 H868 0.931 . S
C853 C852 1.391 . S
C853 C857 1.376 . S
C854 C852 1.394 . S
C854 C855 1.369 . S
C854 C858 1.531 . S
C855 C854 1.369 . S
C855 C856 1.410 . S
C855 C863 1.503 . S
C856 C855 1.410 . S
C856 C857 1.392 . S
C856 C859 1.511 . S
C857 C853 1.376 . S
C857 C856 1.392 . S
C857 H869 0.929 . S
C858 C854 1.531 . S
C858 H870 0.960 . S
C858 H871 0.962 . S
C858 H872 0.960 . S
C859 C856 1.511 . S
C859 H873 0.961 . S
C859 H874 0.961 . S
C859 H875 0.968 . S
C860 C861 1.370 . S
C860 C862 1.363 1_554 S
C860 H876 0.931 . S
C861 C860 1.370 . S
C861 C865 1.408 . S
C862 C860 1.363 1_556 S
C862 C863 1.370 . S
C862 C866 1.524 . S
C863 C855 1.503 . S
C863 C862 1.370 . S
C863 C864 1.403 1_556 S
C864 C863 1.403 1_554 S
C864 C865 1.404 . S
C864 C867 1.539 . S
C865 C861 1.408 . S
C865 C864 1.404 . S
C865 H877 0.930 . S
C866 C862 1.524 . S
C866 H878 0.956 . S
C866 H879 0.961 . S
C866 H880 0.961 . S
C867 C864 1.539 . S
C867 H881 0.958 1_554 S
C867 H882 0.961 . S
C867 H883 0.960 1_554 S
H868 C852 0.931 . S
H869 C857 0.929 . S
H870 C858 0.960 . S
H871 C858 0.962 . S
H872 C858 0.960 . S
H873 C859 0.961 . S
H874 C859 0.961 . S
H875 C859 0.968 . S
H876 C860 0.931 . S
H877 C865 0.930 . S
H878 C866 0.956 . S
H879 C866 0.961 . S
H880 C866 0.961 . S
H881 C867 0.958 1_556 S
H882 C867 0.961 . S
H883 C867 0.960 1_556 S
C884 C885 1.391 . S
C884 C886 1.394 . S
C884 H900 0.931 . S
C885 C884 1.391 . S
C885 C889 1.376 . S
C886 C884 1.394 . S
C886 C887 1.369 . S
C886 C890 1.531 . S
C887 C886 1.369 . S
C887 C888 1.410 . S
C887 C895 1.503 . S
C888 C887 1.410 . S
C888 C889 1.392 . S
C888 C891 1.511 . S
C889 C885 1.376 . S
C889 C888 1.392 . S
C889 H901 0.929 . S
C890 C886 1.531 . S
C890 H902 0.960 . S
C890 H903 0.962 . S
C890 H904 0.960 . S
C891 C888 1.511 . S
C891 H905 0.961 . S
C891 H906 0.961 . S
C891 H907 0.961 . S
C892 C893 1.370 . S
C892 C894 1.363 . S
C892 H908 0.931 . S
C893 C892 1.370 . S
C893 C897 1.408 . S
C894 C892 1.363 . S
C894 C895 1.370 . S
C894 C898 1.524 . S
C895 C887 1.503 . S
C895 C894 1.370 . S
C895 C896 1.403 . S
C896 C895 1.403 . S
C896 C897 1.404 . S
C896 C899 1.539 . S
C897 C893 1.408 . S
C897 C896 1.404 . S
C897 H909 0.930 . S
C898 C894 1.524 . S
C898 H910 0.956 . S
C898 H911 0.961 . S
C898 H912 0.961 . S
C899 C896 1.539 . S
C899 H913 0.958 . S
C899 H914 0.961 . S
C899 H915 0.960 . S
H900 C884 0.931 . S
H901 C889 0.929 . S
H902 C890 0.960 . S
H903 C890 0.962 . S
H904 C890 0.960 . S
H905 C891 0.961 . S
H906 C891 0.961 . S
H907 C891 0.961 . S
H908 C892 0.931 . S
H909 C897 0.930 . S
H910 C898 0.956 . S
H911 C898 0.961 . S
H912 C898 0.961 . S
H913 C899 0.958 . S
H914 C899 0.961 . S
H915 C899 0.960 . S
C916 C917 1.391 . S
C916 C918 1.394 . S
C916 H932 0.931 . S
C917 C916 1.391 . S
C917 C921 1.376 . S
C918 C916 1.394 . S
C918 C919 1.369 . S
C918 C922 1.531 . S
C919 C918 1.369 . S
C919 C920 1.410 . S
C919 C927 1.503 . S
C920 C919 1.410 . S
C920 C921 1.392 . S
C920 C923 1.511 . S
C921 C917 1.376 . S
C921 C920 1.392 . S
C921 H933 0.929 . S
C922 C918 1.531 . S
C922 H934 0.960 . S
C922 H935 0.962 . S
C922 H936 0.960 . S
C923 C920 1.511 . S
C923 H937 0.961 . S
C923 H938 0.961 . S
C923 H939 0.961 . S
C924 C925 1.370 . S
C924 C926 1.363 . S
C924 H940 0.931 . S
C925 C924 1.370 . S
C925 C929 1.408 . S
C926 C924 1.363 . S
C926 C927 1.370 . S
C926 C930 1.524 . S
C927 C919 1.503 . S
C927 C926 1.370 . S
C927 C928 1.403 . S
C928 C927 1.403 . S
C928 C929 1.404 . S
C928 C931 1.539 . S
C929 C925 1.408 . S
C929 C928 1.404 . S
C929 H941 0.930 . S
C930 C926 1.524 . S
C930 H942 0.956 . S
C930 H943 0.961 . S
C930 H944 0.961 . S
C931 C928 1.539 . S
C931 H945 0.958 . S
C931 H946 0.961 . S
C931 H947 0.960 . S
H932 C916 0.931 . S
H933 C921 0.929 . S
H934 C922 0.960 . S
H935 C922 0.962 . S
H936 C922 0.960 . S
H937 C923 0.961 . S
H938 C923 0.961 . S
H939 C923 0.961 . S
H940 C924 0.931 . S
H941 C929 0.930 . S
H942 C930 0.956 . S
H943 C930 0.961 . S
H944 C930 0.961 . S
H945 C931 0.958 . S
H946 C931 0.961 . S
H947 C931 0.960 . S
C948 C949 1.391 . S
C948 C950 1.394 . S
C948 H964 0.931 . S
C949 C948 1.391 . S
C949 C953 1.376 . S
C950 C948 1.394 . S
C950 C951 1.369 . S
C950 C954 1.531 . S
C951 C950 1.369 . S
C951 C952 1.410 . S
C951 C959 1.503 . S
C952 C951 1.410 . S
C952 C953 1.392 . S
C952 C955 1.511 . S
C953 C949 1.376 . S
C953 C952 1.392 . S
C953 H965 0.929 . S
C954 C950 1.531 . S
C954 H966 0.960 . S
C954 H967 0.962 . S
C954 H968 0.960 . S
C955 C952 1.511 . S
C955 H969 0.961 . S
C955 H970 0.961 . S
C955 H971 0.961 . S
C956 C957 1.370 . S
C956 C958 1.363 . S
C956 H972 0.931 . S
C957 C956 1.370 . S
C957 C961 1.408 . S
C958 C956 1.363 . S
C958 C959 1.370 . S
C958 C962 1.524 . S
C959 C951 1.503 . S
C959 C958 1.370 . S
C959 C960 1.403 . S
C960 C959 1.403 . S
C960 C961 1.404 . S
C960 C963 1.539 . S
C961 C957 1.408 . S
C961 C960 1.404 . S
C961 H973 0.930 . S
C962 C958 1.524 . S
C962 H974 0.956 . S
C962 H975 0.961 . S
C962 H976 0.961 . S
C963 C960 1.539 . S
C963 H977 0.958 . S
C963 H978 0.961 . S
C963 H979 0.960 . S
H964 C948 0.931 . S
H965 C953 0.929 . S
H966 C954 0.960 . S
H967 C954 0.962 . S
H968 C954 0.960 . S
H969 C955 0.961 . S
H970 C955 0.961 . S
H971 C955 0.961 . S
H972 C956 0.931 . S
H973 C961 0.930 . S
H974 C962 0.956 . S
H975 C962 0.961 . S
H976 C962 0.961 . S
H977 C963 0.958 . S
H978 C963 0.961 . S
H979 C963 0.960 . S
C980 C981 1.391 . S
C980 C982 1.394 . S
C980 H996 0.931 . S
C981 C980 1.391 . S
C981 C985 1.376 . S
C982 C980 1.394 . S
C982 C983 1.369 . S
C982 C986 1.531 . S
C983 C982 1.369 . S
C983 C984 1.410 . S
C983 C991 1.503 . S
C984 C983 1.410 . S
C984 C985 1.392 . S
C984 C987 1.511 . S
C985 C981 1.376 . S
C985 C984 1.392 . S
C985 H997 0.929 . S
C986 C982 1.531 . S
C986 H998 0.960 . S
C986 H999 0.962 . S
C986 H1000 0.960 . S
C987 C984 1.511 . S
C987 H1001 0.961 . S
C987 H1002 0.961 . S
C987 H1003 0.961 . S
C988 C989 1.370 . S
C988 C990 1.363 . S
C988 H1004 0.931 . S
C989 C988 1.370 . S
C989 C993 1.408 . S
C990 C988 1.363 . S
C990 C991 1.370 . S
C990 C994 1.524 . S
C991 C983 1.503 . S
C991 C990 1.370 . S
C991 C992 1.403 . S
C992 C991 1.403 . S
C992 C993 1.404 . S
C992 C995 1.539 . S
C993 C989 1.408 . S
C993 C992 1.404 . S
C993 H1005 0.930 . S
C994 C990 1.524 . S
C994 H1006 0.956 . S
C994 H1007 0.961 . S
C994 H1008 0.961 . S
C995 C992 1.539 . S
C995 H1009 0.958 . S
C995 H1010 0.961 . S
C995 H1011 0.960 . S
H996 C980 0.931 . S
H997 C985 0.929 . S
H998 C986 0.960 . S
H999 C986 0.962 . S
H1000 C986 0.960 . S
H1001 C987 0.961 . S
H1002 C987 0.961 . S
H1003 C987 0.961 . S
H1004 C988 0.931 . S
H1005 C993 0.930 . S
H1006 C994 0.956 . S
H1007 C994 0.961 . S
H1008 C994 0.961 . S
H1009 C995 0.958 . S
H1010 C995 0.961 . S
H1011 C995 0.960 . S
C1012 C1013 1.391 . S
C1012 C1014 1.394 . S
C1012 H1028 0.931 . S
C1013 C1012 1.391 . S
C1013 C1017 1.376 . S
C1014 C1012 1.394 . S
C1014 C1015 1.369 . S
C1014 C1018 1.531 . S
C1015 C1014 1.369 . S
C1015 C1016 1.410 . S
C1015 C1023 1.503 . S
C1016 C1015 1.410 . S
C1016 C1017 1.392 . S
C1016 C1019 1.511 . S
C1017 C1013 1.376 . S
C1017 C1016 1.392 . S
C1017 H1029 0.929 . S
C1018 C1014 1.531 . S
C1018 H1030 0.960 . S
C1018 H1031 0.962 . S
C1018 H1032 0.960 . S
C1019 C1016 1.511 . S
C1019 H1033 0.961 . S
C1019 H1034 0.961 . S
C1019 H1035 0.961 . S
C1020 C1021 1.370 . S
C1020 C1022 1.363 . S
C1020 H1036 0.931 . S
C1021 C1020 1.370 . S
C1021 C1025 1.408 . S
C1022 C1020 1.363 . S
C1022 C1023 1.370 . S
C1022 C1026 1.524 . S
C1023 C1015 1.503 . S
C1023 C1022 1.370 . S
C1023 C1024 1.403 . S
C1024 C1023 1.403 . S
C1024 C1025 1.404 . S
C1024 C1027 1.539 . S
C1025 C1021 1.408 . S
C1025 C1024 1.404 . S
C1025 H1037 0.930 . S
C1026 C1022 1.524 . S
C1026 H1038 0.956 . S
C1026 H1039 0.961 . S
C1026 H1040 0.961 . S
C1027 C1024 1.539 . S
C1027 H1041 0.958 . S
C1027 H1042 0.961 . S
C1027 H1043 0.960 . S
H1028 C1012 0.931 . S
H1029 C1017 0.929 . S
H1030 C1018 0.960 . S
H1031 C1018 0.962 . S
H1032 C1018 0.960 . S
H1033 C1019 0.961 . S
H1034 C1019 0.961 . S
H1035 C1019 0.961 . S
H1036 C1020 0.931 . S
H1037 C1025 0.930 . S
H1038 C1026 0.956 . S
H1039 C1026 0.961 . S
H1040 C1026 0.961 . S
H1041 C1027 0.958 . S
H1042 C1027 0.961 . S
H1043 C1027 0.960 . S
C1044 C1045 1.391 . S
C1044 C1046 1.394 . S
C1044 H1060 0.931 . S
C1045 C1044 1.391 . S
C1045 C1049 1.376 . S
C1046 C1044 1.394 . S
C1046 C1047 1.369 . S
C1046 C1050 1.531 . S
C1047 C1046 1.369 . S
C1047 C1048 1.410 . S
C1047 C1055 1.503 . S
C1048 C1047 1.410 . S
C1048 C1049 1.392 . S
C1048 C1051 1.511 . S
C1049 C1045 1.376 . S
C1049 C1048 1.392 . S
C1049 H1061 0.929 . S
C1050 C1046 1.531 . S
C1050 H1062 0.960 . S
C1050 H1063 0.962 . S
C1050 H1064 0.960 . S
C1051 C1048 1.511 . S
C1051 H1065 0.961 . S
C1051 H1066 0.961 . S
C1051 H1067 0.961 . S
C1052 C1053 1.370 . S
C1052 C1054 1.363 . S
C1052 H1068 0.931 . S
C1053 C1052 1.370 . S
C1053 C1057 1.408 . S
C1054 C1052 1.363 . S
C1054 C1055 1.370 . S
C1054 C1058 1.524 . S
C1055 C1047 1.503 . S
C1055 C1054 1.370 . S
C1055 C1056 1.403 . S
C1056 C1055 1.403 . S
C1056 C1057 1.404 . S
C1056 C1059 1.539 . S
C1057 C1053 1.408 . S
C1057 C1056 1.404 . S
C1057 H1069 0.930 . S
C1058 C1054 1.524 . S
C1058 H1070 0.956 . S
C1058 H1071 0.961 . S
C1058 H1072 0.961 . S
C1059 C1056 1.539 . S
C1059 H1073 0.958 . S
C1059 H1074 0.961 . S
C1059 H1075 0.960 . S
H1060 C1044 0.931 . S
H1061 C1049 0.929 . S
H1062 C1050 0.960 . S
H1063 C1050 0.962 . S
H1064 C1050 0.960 . S
H1065 C1051 0.961 . S
H1066 C1051 0.961 . S
H1067 C1051 0.961 . S
H1068 C1052 0.931 . S
H1069 C1057 0.930 . S
H1070 C1058 0.956 . S
H1071 C1058 0.961 . S
H1072 C1058 0.961 . S
H1073 C1059 0.958 . S
H1074 C1059 0.961 . S
H1075 C1059 0.960 . S
C1076 C1077 1.391 . S
C1076 C1078 1.394 . S
C1076 H1092 0.931 . S
C1077 C1076 1.391 . S
C1077 C1081 1.376 . S
C1078 C1076 1.394 . S
C1078 C1079 1.369 . S
C1078 C1082 1.531 . S
C1079 C1078 1.369 . S
C1079 C1080 1.410 . S
C1079 C1087 1.503 . S
C1080 C1079 1.410 . S
C1080 C1081 1.392 . S
C1080 C1083 1.511 1_554 S
C1081 C1077 1.376 . S
C1081 C1080 1.392 . S
C1081 H1093 0.929 . S
C1082 C1078 1.531 . S
C1082 H1094 0.960 . S
C1082 H1095 0.962 . S
C1082 H1096 0.960 . S
C1083 C1080 1.511 1_556 S
C1083 H1097 0.961 . S
C1083 H1098 0.961 . S
C1083 H1099 0.961 . S
C1084 C1085 1.370 . S
C1084 C1086 1.363 . S
C1084 H1100 0.931 . S
C1085 C1084 1.370 . S
C1085 C1089 1.408 . S
C1086 C1084 1.363 . S
C1086 C1087 1.370 1_556 S
C1086 C1090 1.524 . S
C1087 C1079 1.503 . S
C1087 C1086 1.370 1_554 S
C1087 C1088 1.403 1_554 S
C1088 C1087 1.403 1_556 S
C1088 C1089 1.404 . S
C1088 C1091 1.539 1_556 S
C1089 C1085 1.408 . S
C1089 C1088 1.404 . S
C1089 H1101 0.930 . S
C1090 C1086 1.524 . S
C1090 H1102 0.956 1_556 S
C1090 H1103 0.961 . S
C1090 H1104 0.961 . S
C1091 C1088 1.539 1_554 S
C1091 H1105 0.958 . S
C1091 H1106 0.961 1_554 S
C1091 H1107 0.960 . S
H1092 C1076 0.931 . S
H1093 C1081 0.929 . S
H1094 C1082 0.960 . S
H1095 C1082 0.962 . S
H1096 C1082 0.960 . S
H1097 C1083 0.961 . S
H1098 C1083 0.961 . S
H1099 C1083 0.961 . S
H1100 C1084 0.931 . S
H1101 C1089 0.930 . S
H1102 C1090 0.956 1_554 S
H1103 C1090 0.961 . S
H1104 C1090 0.961 . S
H1105 C1091 0.958 . S
H1106 C1091 0.961 1_556 S
H1107 C1091 0.960 . S
C1108 C1109 1.391 . S
C1108 C1110 1.394 . S
C1108 H1124 0.931 . S
C1109 C1108 1.391 . S
C1109 C1113 1.376 . S
C1110 C1108 1.394 . S
C1110 C1111 1.369 . S
C1110 C1114 1.531 . S
C1111 C1110 1.369 . S
C1111 C1112 1.410 . S
C1111 C1119 1.503 . S
C1112 C1111 1.410 . S
C1112 C1113 1.392 . S
C1112 C1115 1.511 . S
C1113 C1109 1.376 . S
C1113 C1112 1.392 . S
C1113 H1125 0.929 . S
C1114 C1110 1.531 . S
C1114 H1126 0.960 . S
C1114 H1127 0.962 . S
C1114 H1128 0.960 . S
C1115 C1112 1.511 . S
C1115 H1129 0.961 . S
C1115 H1130 0.961 . S
C1115 H1131 0.961 . S
C1116 C1117 1.370 . S
C1116 C1118 1.363 . S
C1116 H1132 0.931 . S
C1117 C1116 1.370 . S
C1117 C1121 1.408 . S
C1118 C1116 1.363 . S
C1118 C1119 1.370 . S
C1118 C1122 1.524 . S
C1119 C1111 1.503 . S
C1119 C1118 1.370 . S
C1119 C1120 1.403 . S
C1120 C1119 1.403 . S
C1120 C1121 1.404 . S
C1120 C1123 1.539 . S
C1121 C1117 1.408 . S
C1121 C1120 1.404 . S
C1121 H1133 0.930 . S
C1122 C1118 1.524 . S
C1122 H1134 0.956 . S
C1122 H1135 0.961 . S
C1122 H1136 0.961 . S
C1123 C1120 1.539 . S
C1123 H1137 0.958 . S
C1123 H1138 0.961 . S
C1123 H1139 0.960 . S
H1124 C1108 0.931 . S
H1125 C1113 0.929 . S
H1126 C1114 0.960 . S
H1127 C1114 0.962 . S
H1128 C1114 0.960 . S
H1129 C1115 0.961 . S
H1130 C1115 0.961 . S
H1131 C1115 0.961 . S
H1132 C1116 0.931 . S
H1133 C1121 0.930 . S
H1134 C1122 0.956 . S
H1135 C1122 0.961 . S
H1136 C1122 0.961 . S
H1137 C1123 0.958 . S
H1138 C1123 0.961 . S
H1139 C1123 0.960 . S
C381 C358 1.613 . S
C373 C45 1.606 . S
C405 C84 1.593 . S
C413 C299 1.624 . S
C437 C126 1.540 . S
C445 C302 1.601 . S
C469 C189 1.611 . S
C477 C316 1.615 . S
C509 C341 1.623 . S
C501 C228 1.616 . S
C533 C270 1.572 . S
C541 C344 1.604 . S
C565 C69 1.569 . S
C573 C313 1.590 . S
C597 C141 1.589 . S
C605 C327 1.597 . S
C629 C174 1.548 . S
C637 C330 1.579 . S
C669 C355 1.588 . S
C661 C213 1.554 . S
C701 C369 1.599 . S
C693 C285 1.597 . S
C733 C288 1.578 . S
C725 C30 1.523 . S
C757 C36 1.487 . S
C765 C311 1.484 . S
C789 C93 1.492 . S
C797 C325 1.494 . S
C829 C335 1.499 . S
C821 C117 1.487 . S
C853 C180 1.487 . S
C861 C353 1.478 . S
C893 C367 1.492 . S
C885 C237 1.495 . S
C925 C293 1.499 . S
C917 C261 1.493 . S
C957 C363 1.522 . S
C949 C78 1.521 . S
C981 C132 1.502 . S
C989 C297 1.507 . S
C1021 C307 1.512 . S
C1013 C165 1.510 . S
C1045 C222 1.503 . S
C1053 C321 1.522 . S
C1077 C276 1.500 . S
C1085 C339 1.499 . S
C1109 C21 1.494 . S
C1117 C349 1.512 . S
