# Generated by pormake.
# Topology dag, (6,3)-cn, num edge types: 1
# Building blocks:
#     Node 0, Type 0, BuildingBlock: MIDCAF_clean_sbu_0, # of connection points: 6
#     Node 1, Type 0, BuildingBlock: MIDCAF_clean_sbu_0, # of connection points: 6
#     Node 2, Type 0, BuildingBlock: MIDCAF_clean_sbu_0, # of connection points: 6
#     Node 3, Type 0, BuildingBlock: MIDCAF_clean_sbu_0, # of connection points: 6
#     Node 4, Type 1, BuildingBlock: KAKCAD_clean_linker_0, # of connection points: 3
#     Node 5, Type 1, BuildingBlock: KAKCAD_clean_linker_0, # of connection points: 3
#     Node 6, Type 1, BuildingBlock: KAKCAD_clean_linker_0, # of connection points: 3
#     Node 7, Type 1, BuildingBlock: KAKCAD_clean_linker_0, # of connection points: 3
#     Node 8, Type 1, BuildingBlock: KAKCAD_clean_linker_0, # of connection points: 3
#     Node 9, Type 1, BuildingBlock: KAKCAD_clean_linker_0, # of connection points: 3
#     Node 10, Type 1, BuildingBlock: KAKCAD_clean_linker_0, # of connection points: 3
#     Node 11, Type 1, BuildingBlock: KAKCAD_clean_linker_0, # of connection points: 3
#     Edge 12, Type (0, 1), BuildingBlock: OJICUG_clean_linker_0, # of connection points: 2
#     Edge 13, Type (0, 1), BuildingBlock: OJICUG_clean_linker_0, # of connection points: 2
#     Edge 14, Type (0, 1), BuildingBlock: OJICUG_clean_linker_0, # of connection points: 2
#     Edge 15, Type (0, 1), BuildingBlock: OJICUG_clean_linker_0, # of connection points: 2
#     Edge 16, Type (0, 1), BuildingBlock: OJICUG_clean_linker_0, # of connection points: 2
#     Edge 17, Type (0, 1), BuildingBlock: OJICUG_clean_linker_0, # of connection points: 2
#     Edge 18, Type (0, 1), BuildingBlock: OJICUG_clean_linker_0, # of connection points: 2
#     Edge 19, Type (0, 1), BuildingBlock: OJICUG_clean_linker_0, # of connection points: 2
#     Edge 20, Type (0, 1), BuildingBlock: OJICUG_clean_linker_0, # of connection points: 2
#     Edge 21, Type (0, 1), BuildingBlock: OJICUG_clean_linker_0, # of connection points: 2
#     Edge 22, Type (0, 1), BuildingBlock: OJICUG_clean_linker_0, # of connection points: 2
#     Edge 23, Type (0, 1), BuildingBlock: OJICUG_clean_linker_0, # of connection points: 2
#     Edge 24, Type (0, 1), BuildingBlock: OJICUG_clean_linker_0, # of connection points: 2
#     Edge 25, Type (0, 1), BuildingBlock: OJICUG_clean_linker_0, # of connection points: 2
#     Edge 26, Type (0, 1), BuildingBlock: OJICUG_clean_linker_0, # of connection points: 2
#     Edge 27, Type (0, 1), BuildingBlock: OJICUG_clean_linker_0, # of connection points: 2
#     Edge 28, Type (0, 1), BuildingBlock: OJICUG_clean_linker_0, # of connection points: 2
#     Edge 29, Type (0, 1), BuildingBlock: OJICUG_clean_linker_0, # of connection points: 2
#     Edge 30, Type (0, 1), BuildingBlock: OJICUG_clean_linker_0, # of connection points: 2
#     Edge 31, Type (0, 1), BuildingBlock: OJICUG_clean_linker_0, # of connection points: 2
#     Edge 32, Type (0, 1), BuildingBlock: OJICUG_clean_linker_0, # of connection points: 2
#     Edge 33, Type (0, 1), BuildingBlock: OJICUG_clean_linker_0, # of connection points: 2
#     Edge 34, Type (0, 1), BuildingBlock: OJICUG_clean_linker_0, # of connection points: 2
#     Edge 35, Type (0, 1), BuildingBlock: OJICUG_clean_linker_0, # of connection points: 2
# Relax obj value: 0.303
# Max RMSD: 0.192
# Mean RMSD: 0.180
data_MOF--net-dag--node1-MIDCAF_clean_sbu_0--node2-KAKCAD_clean_linker_0--edge1-OJICUG_clean_linker_0
_symmetry_space_group_name_H-M    P1
_symmetry_Int_Tables_number       1
_symmetry_cell_setting            triclinic
loop_
_symmetry_equiv_pos_as_xyz
'x, y, z'
_cell_length_a     37.79989
_cell_length_b     38.85209
_cell_length_c     28.406315
_cell_angle_alpha  93.865923
_cell_angle_beta   89.8121
_cell_angle_gamma 90.22201
loop_
_atom_site_label
_atom_site_type_symbol
_atom_site_fract_x
_atom_site_fract_y
_atom_site_fract_z
_atom_type_partial_charge
Zn0 Zn 0.15976 0.81083 0.151 0.0
Zn1 Zn 0.23728 0.85784 0.01742 0.0
Zn2 Zn 0.19478 0.83219 0.07979 0.0
C3 C 0.21474 0.91416 0.06999 0.0
C4 C 0.17687 0.82577 0.97062 0.0
O5 O 0.22712 0.79415 0.11698 0.0
O6 O 0.18992 0.77327 0.16819 0.0
C7 C 0.16923 0.88031 0.1713 0.0
O8 O 0.19794 0.88959 0.08891 0.0
O9 O 0.23666 0.90743 0.03718 0.0
O10 O 0.20567 0.84137 0.96357 0.0
O11 O 0.16751 0.81962 0.0129 0.0
O12 O 0.15957 0.85434 0.19247 0.0
O13 O 0.18147 0.87669 0.12889 0.0
O14 O 0.1446 0.81094 0.05027 0.0
O15 O 0.11684 0.79763 0.11537 0.0
C16 C 0.11708 0.79957 0.07123 0.0
O17 O 0.24647 0.80411 0.0774 0.0
O18 O 0.28045 0.83208 0.02906 0.0
C19 C 0.22001 0.77307 0.14898 0.0
C20 C 0.27642 0.80813 0.05643 0.0
Zn21 Zn 0.65959 0.66372 0.35601 0.0
Zn22 Zn 0.74759 0.64237 0.57733 0.0
Zn23 Zn 0.71945 0.64843 0.49758 0.0
C24 C 0.73611 0.57529 0.53274 0.0
C25 C 0.68114 0.67032 0.59711 0.0
O26 O 0.74851 0.68148 0.45005 0.0
O27 O 0.70193 0.67077 0.40638 0.0
C28 C 0.69309 0.60382 0.41673 0.0
O29 O 0.7261 0.59243 0.49802 0.0
O30 O 0.74633 0.5909 0.57078 0.0
O31 O 0.70945 0.66485 0.61896 0.0
O32 O 0.68035 0.66584 0.55178 0.0
O33 O 0.68599 0.63469 0.40679 0.0
O34 O 0.71018 0.60041 0.45502 0.0
O35 O 0.66754 0.6714 0.50724 0.0
O36 O 0.66709 0.66739 0.43048 0.0
C37 C 0.65075 0.67553 0.46909 0.0
O38 O 0.767 0.68024 0.49369 0.0
O39 O 0.79142 0.66792 0.56108 0.0
C40 C 0.73204 0.68577 0.41154 0.0
C41 C 0.79268 0.68323 0.5232 0.0
Zn42 Zn 0.83424 0.18322 0.94844 0.0
Zn43 Zn 0.74923 0.15001 0.08489 0.0
Zn44 Zn 0.79208 0.16376 0.012 0.0
C45 C 0.81423 0.17043 0.12332 0.0
C46 C 0.76131 0.08808 0.02893 0.0
O47 O 0.76283 0.1992 0.96712 0.0
O48 O 0.80144 0.20804 0.91047 0.0
C49 C 0.86662 0.20593 0.02858 0.0
O50 O 0.82085 0.17254 0.07902 0.0
O51 O 0.78365 0.16246 0.13705 0.0
O52 O 0.74361 0.10042 0.06386 0.0
O53 O 0.78126 0.10778 1.00543 0.0
O54 O 0.86795 0.21194 0.98562 0.0
O55 O 0.84184 0.1866 0.04381 0.0
O56 O 0.80362 0.11688 0.96756 0.0
O57 O 0.84814 0.1356 0.92523 0.0
C58 C 0.82831 0.11128 0.93673 0.0
O59 O 0.7437 0.19592 0.00875 0.0
O60 O 0.71115 0.18181 0.06966 0.0
C61 C 0.77102 0.21241 0.92804 0.0
C62 C 0.71537 0.19912 0.03403 0.0
Zn63 Zn 0.3318 0.31115 0.65418 0.0
Zn64 Zn 0.25126 0.34942 0.51587 0.0
Zn65 Zn 0.2925 0.33453 0.58878 0.0
C66 C 0.3153 0.32664 0.47767 0.0
C67 C 0.26729 0.41126 0.5703 0.0
O68 O 0.26138 0.29746 0.63031 0.0
O69 O 0.29899 0.27992 0.68313 0.0
C70 C 0.36922 0.29618 0.57393 0.0
O71 O 0.32171 0.32563 0.52213 0.0
O72 O 0.28483 0.33424 0.46357 0.0
O73 O 0.24967 0.39936 0.53514 0.0
O74 O 0.28479 0.3909 0.59555 0.0
O75 O 0.37036 0.2896 0.6167 0.0
O76 O 0.34311 0.3133 0.55825 0.0
O77 O 0.30337 0.38043 0.63607 0.0
O78 O 0.33965 0.35775 0.68636 0.0
C79 C 0.32362 0.3837 0.67249 0.0
O80 O 0.24293 0.30317 0.58867 0.0
O81 O 0.21027 0.32073 0.53033 0.0
C82 C 0.26846 0.27923 0.66546 0.0
C83 C 0.21419 0.30176 0.56423 0.0
C84 C 0.94702 0.18018 0.2776 0.0
C85 C 0.92597 0.15332 0.25713 0.0
C86 C 0.97626 0.17275 0.3054 0.0
C87 C 0.98476 0.13836 0.3132 0.0
C88 C 0.96231 0.11182 0.29504 0.0
C89 C 0.93334 0.1192 0.2673 0.0
C90 C 0.01835 0.12958 0.33655 0.0
C91 C 0.03002 0.14797 0.37794 0.0
C92 C 0.06225 0.13951 0.39916 0.0
C93 C 0.0825 0.11206 0.37865 0.0
C94 C 0.07143 0.09403 0.33687 0.0
C95 C 0.03947 0.1029 0.31614 0.0
C96 C 0.0933 0.06618 0.3139 0.0
C97 C 0.10214 0.06676 0.26593 0.0
C98 C 0.10342 0.03787 0.33879 0.0
C99 C 0.12038 0.00968 0.31542 0.0
C100 C 0.12797 0.0095 0.26681 0.0
C101 C 0.07647 0.16113 0.44003 0.0
C102 C 0.07449 0.19721 0.44041 0.0
C103 C 0.09486 0.1463 0.47659 0.0
C104 C 0.1125 0.16715 0.51124 0.0
C105 C 0.11212 0.20328 0.51003 0.0
C106 C 0.0921 0.21798 0.47483 0.0
C107 C 0.11956 0.03887 0.24273 0.0
H108 H 0.94192 0.20669 0.27023 0.0
H109 H 0.99317 0.19372 0.31881 0.0
H110 H 0.96772 0.08515 0.30128 0.0
H111 H 0.91712 0.09805 0.25276 0.0
H112 H 0.01394 0.16873 0.39371 0.0
H113 H 0.03116 0.08903 0.28361 0.0
H114 H 0.10776 0.10575 0.39377 0.0
H115 H 0.09502 0.0886 0.24619 0.0
H116 H 0.09671 0.03685 0.37579 0.0
H117 H 0.12602 0.98742 0.33506 0.0
H118 H 0.06108 0.20954 0.41245 0.0
H119 H 0.09642 0.11853 0.47767 0.0
H120 H 0.12575 0.04006 0.20561 0.0
H121 H 0.09174 0.24561 0.47186 0.0
H122 H 0.1273 0.15497 0.53808 0.0
C123 C 0.36548 0.54523 0.7246 0.0
C124 C 0.36191 0.51832 0.75491 0.0
C125 C 0.38172 0.57628 0.7405 0.0
C126 C 0.39404 0.58102 0.78715 0.0
C127 C 0.38896 0.55461 0.81792 0.0
C128 C 0.37328 0.52346 0.80185 0.0
C129 C 0.41365 0.61266 0.80349 0.0
C130 C 0.40509 0.63007 0.84683 0.0
C131 C 0.42473 0.65896 0.86423 0.0
C132 C 0.45383 0.6699 0.83782 0.0
C133 C 0.4624 0.65292 0.794 0.0
C134 C 0.44196 0.62455 0.77691 0.0
C135 C 0.49332 0.66382 0.76629 0.0
C136 C 0.48959 0.66975 0.71837 0.0
C137 C 0.5271 0.6659 0.78662 0.0
C138 C 0.55689 0.67198 0.75892 0.0
C139 C 0.55348 0.67665 0.71035 0.0
C140 C 0.41294 0.67884 0.9081 0.0
C141 C 0.39878 0.66196 0.94634 0.0
C142 C 0.41233 0.71503 0.91 0.0
C143 C 0.39598 0.73377 0.94759 0.0
C144 C 0.37976 0.71684 0.98435 0.0
C145 C 0.38223 0.68075 0.98396 0.0
C146 C 0.51925 0.67645 0.69084 0.0
H147 H 0.35715 0.54167 0.68812 0.0
H148 H 0.38512 0.59638 0.71622 0.0
H149 H 0.39838 0.55753 0.85395 0.0
H150 H 0.37082 0.50301 0.82578 0.0
H151 H 0.38232 0.62157 0.8663 0.0
H152 H 0.44903 0.61082 0.74372 0.0
H153 H 0.46958 0.69183 0.85098 0.0
H154 H 0.46372 0.66866 0.70201 0.0
H155 H 0.53067 0.66117 0.82345 0.0
H156 H 0.58268 0.67142 0.77527 0.0
H157 H 0.39945 0.6341 0.94645 0.0
H158 H 0.42251 0.7289 0.881 0.0
H159 H 0.51531 0.68081 0.65398 0.0
H160 H 0.37037 0.66697 0.01195 0.0
H161 H 0.39407 0.76148 0.94612 0.0
C162 C 0.94881 0.76632 0.02636 0.0
C163 C 0.97182 0.79494 0.02606 0.0
C164 C 0.913 0.77085 0.03767 0.0
C165 C 0.89942 0.80407 0.04799 0.0
C166 C 0.92184 0.83271 0.04492 0.0
C167 C 0.95759 0.82822 0.03426 0.0
C168 C 0.86253 0.80924 0.06456 0.0
C169 C 0.84965 0.79178 0.10278 0.0
C170 C 0.81626 0.79977 0.1227 0.0
C171 C 0.79549 0.82502 0.10253 0.0
C172 C 0.80849 0.84343 0.06502 0.0
C173 C 0.84186 0.83484 0.04599 0.0
C174 C 0.79009 0.87474 0.04991 0.0
C175 C 0.79343 0.88476 1.00329 0.0
C176 C 0.77336 0.89743 0.08362 0.0
C177 C 0.76268 0.93011 0.07193 0.0
C178 C 0.76897 0.94105 0.02655 0.0
C179 C 0.80454 0.78394 0.16678 0.0
C180 C 0.814 0.74991 0.17558 0.0
C181 C 0.78487 0.80328 0.20146 0.0
C182 C 0.77452 0.78888 0.24316 0.0
C183 C 0.78422 0.75507 0.25179 0.0
C184 C 0.80424 0.73578 0.21781 0.0
C185 C 0.7835 0.91781 0.99193 0.0
H186 H 0.95869 0.74034 0.01949 0.0
H187 H 0.89606 0.7484 0.03926 0.0
H188 H 0.91215 0.85863 0.05322 0.0
H189 H 0.97437 0.8509 0.03546 0.0
H190 H 0.86676 0.7736 0.1188 0.0
H191 H 0.85291 0.84936 0.01816 0.0
H192 H 0.76946 0.83099 0.11673 0.0
H193 H 0.80529 0.86768 0.97601 0.0
H194 H 0.77068 0.89106 0.11998 0.0
H195 H 0.75181 0.94774 0.09938 0.0
H196 H 0.82863 0.73393 0.14966 0.0
H197 H 0.77783 0.82983 0.19691 0.0
H198 H 0.78831 0.92565 0.95657 0.0
H199 H 0.81156 0.70943 0.22341 0.0
H200 H 0.75915 0.80429 0.26896 0.0
C201 C 0.52231 0.26123 0.57375 0.0
C202 C 0.51058 0.2717 0.53022 0.0
C203 C 0.55759 0.26528 0.58685 0.0
C204 C 0.58247 0.27912 0.55621 0.0
C205 C 0.57103 0.28713 0.51096 0.0
C206 C 0.53527 0.28407 0.49844 0.0
C207 C 0.6188 0.28848 0.57365 0.0
C208 C 0.63421 0.27084 0.61018 0.0
C209 C 0.66485 0.28347 0.63316 0.0
C210 C 0.68211 0.31228 0.61651 0.0
C211 C 0.66768 0.33018 0.57983 0.0
C212 C 0.63604 0.31809 0.55864 0.0
C213 C 0.68281 0.36411 0.56851 0.0
C214 C 0.69501 0.38721 0.60517 0.0
C215 C 0.68319 0.37469 0.52203 0.0
C216 C 0.69426 0.40809 0.51286 0.0
C217 C 0.70504 0.43142 0.55004 0.0
C218 C 0.67625 0.2699 0.67838 0.0
C219 C 0.65122 0.26385 0.71379 0.0
C220 C 0.71235 0.26671 0.68857 0.0
C221 C 0.72324 0.25936 0.73365 0.0
C222 C 0.69832 0.25496 0.76968 0.0
C223 C 0.66216 0.25631 0.759 0.0
C224 C 0.70623 0.42023 0.59598 0.0
H225 H 0.50363 0.25235 0.59936 0.0
H226 H 0.56449 0.25957 0.6224 0.0
H227 H 0.58936 0.29703 0.48579 0.0
H228 H 0.5267 0.29247 0.46472 0.0
H229 H 0.6218 0.24787 0.62227 0.0
H230 H 0.62356 0.33339 0.53295 0.0
H231 H 0.70582 0.32208 0.63414 0.0
H232 H 0.69458 0.38042 0.64151 0.0
H233 H 0.67427 0.35741 0.49294 0.0
H234 H 0.69303 0.41608 0.4771 0.0
H235 H 0.62318 0.26655 0.70726 0.0
H236 H 0.73224 0.2707 0.66192 0.0
H237 H 0.71492 0.43745 0.6253 0.0
H238 H 0.64241 0.25289 0.78602 0.0
H239 H 0.75132 0.25748 0.74048 0.0
C240 C 0.62149 0.48403 0.26655 0.0
C241 C 0.62927 0.48578 0.31505 0.0
C242 C 0.60191 0.45638 0.2459 0.0
C243 C 0.58954 0.43009 0.27342 0.0
C244 C 0.59789 0.43156 0.32168 0.0
C245 C 0.6175 0.45907 0.34225 0.0
C246 C 0.56756 0.40134 0.25227 0.0
C247 C 0.57707 0.38418 0.20907 0.0
C248 C 0.55747 0.35556 0.19035 0.0
C249 C 0.52739 0.34485 0.21509 0.0
C250 C 0.51803 0.36145 0.25874 0.0
C251 C 0.53796 0.38986 0.27668 0.0
C252 C 0.48882 0.34836 0.28759 0.0
C253 C 0.45466 0.34328 0.26901 0.0
C254 C 0.49477 0.34296 0.33529 0.0
C255 C 0.4668 0.33468 0.36459 0.0
C256 C 0.43213 0.3319 0.34699 0.0
C257 C 0.57133 0.33443 0.14866 0.0
C258 C 0.5888 0.34987 0.11154 0.0
C259 C 0.57087 0.29827 0.14857 0.0
C260 C 0.58931 0.27821 0.11425 0.0
C261 C 0.60888 0.29368 0.07906 0.0
C262 C 0.60754 0.32971 0.07721 0.0
C263 C 0.42646 0.3352 0.29855 0.0
H264 H 0.63046 0.50407 0.24458 0.0
H265 H 0.59581 0.45595 0.20863 0.0
H266 H 0.5892 0.41141 0.34368 0.0
H267 H 0.62269 0.4598 0.37979 0.0
H268 H 0.60105 0.39189 0.19155 0.0
H269 H 0.53037 0.40304 0.31003 0.0
H270 H 0.5121 0.32274 0.20149 0.0
H271 H 0.44948 0.34723 0.23229 0.0
H272 H 0.52103 0.34601 0.35023 0.0
H273 H 0.47217 0.33148 0.40149 0.0
H274 H 0.58915 0.37765 0.11005 0.0
H275 H 0.55833 0.28538 0.17687 0.0
H276 H 0.40002 0.33331 0.28402 0.0
H277 H 0.62205 0.34239 0.05033 0.0
H278 H 0.59025 0.25062 0.11754 0.0
C279 C 0.01759 0.24026 0.02026 0.0
C280 C 0.00713 0.23309 0.06603 0.0
C281 C 0.05168 0.23258 1.00423 0.0
C282 C 0.07656 0.21818 0.03394 0.0
C283 C 0.06707 0.21464 0.08149 0.0
C284 C 0.03245 0.22139 0.09712 0.0
C285 C 0.10971 0.20242 0.01343 0.0
C286 C 0.12519 0.21462 0.97243 0.0
C287 C 0.1516 0.19565 0.94738 0.0
C288 C 0.16396 0.16503 0.96512 0.0
C289 C 0.14995 0.15323 1.00688 0.0
C290 C 0.12298 0.17192 0.03075 0.0
C291 C 0.16043 0.11929 0.02281 0.0
C292 C 0.15774 0.08981 0.99167 0.0
C293 C 0.17135 0.1158 0.06952 0.0
C294 C 0.17967 0.08324 0.0847 0.0
C295 C 0.17625 0.05378 0.05366 0.0
C296 C 0.16471 0.20646 0.90115 0.0
C297 C 0.14114 0.21818 0.86746 0.0
C298 C 0.20079 0.20389 0.88968 0.0
C299 C 0.21301 0.21251 0.84556 0.0
C300 C 0.18948 0.22383 0.81156 0.0
C301 C 0.15341 0.22684 0.82316 0.0
C302 C 0.16531 0.05734 0.00706 0.0
H303 H -0.00155 0.24877 0.99525 0.0
H304 H 0.05725 0.23538 0.96731 0.0
H305 H 0.08571 0.2048 0.10605 0.0
H306 H 0.02499 0.21575 0.13265 0.0
H307 H 0.11619 0.23854 0.95917 0.0
H308 H 0.11071 0.16101 0.06088 0.0
H309 H 0.18373 0.14969 0.94568 0.0
H310 H 0.14899 0.09182 0.95567 0.0
H311 H 0.1735 0.13825 0.09413 0.0
H312 H 0.18816 0.08097 0.12075 0.0
H313 H 0.11307 0.21998 0.87496 0.0
H314 H 0.2197 0.19546 0.91502 0.0
H315 H 0.16281 0.03492 0.98244 0.0
H316 H 0.1346 0.23539 0.79779 0.0
H317 H 0.24113 0.21082 0.83842 0.0
C318 C 0.47945 0.7173 0.48057 0.0
C319 C 0.50098 0.68822 0.48313 0.0
C320 C 0.44266 0.71346 0.47892 0.0
C321 C 0.4272 0.68054 0.48035 0.0
C322 C 0.44897 0.65187 0.48574 0.0
C323 C 0.48555 0.65569 0.48694 0.0
C324 C 0.38917 0.67501 0.47034 0.0
C325 C 0.37435 0.68859 0.43049 0.0
C326 C 0.34065 0.67822 0.4148 0.0
C327 C 0.321 0.65508 0.44061 0.0
C328 C 0.33534 0.64129 0.48103 0.0
C329 C 0.36945 0.65178 0.49567 0.0
C330 C 0.31709 0.61287 0.50451 0.0
C331 C 0.32211 0.6084 0.55293 0.0
C332 C 0.29749 0.5878 0.47757 0.0
C333 C 0.28477 0.55845 0.49782 0.0
C334 C 0.29185 0.55308 0.54522 0.0
C335 C 0.32782 0.68893 0.36883 0.0
C336 C 0.32954 0.72364 0.35813 0.0
C337 C 0.31561 0.66414 0.33437 0.0
C338 C 0.30469 0.67397 0.29031 0.0
C339 C 0.30527 0.70889 0.27995 0.0
C340 C 0.3182 0.73355 0.31429 0.0
C341 C 0.3101 0.57852 0.57289 0.0
H342 H 0.49111 0.74257 0.47747 0.0
H343 H 0.42636 0.73593 0.47486 0.0
H344 H 0.4379 0.62614 0.48618 0.0
H345 H 0.50194 0.633 0.4889 0.0
H346 H 0.39019 0.70513 0.40941 0.0
H347 H 0.38177 0.64035 0.52521 0.0
H348 H 0.29483 0.64739 0.42844 0.0
H349 H 0.3363 0.62746 0.57519 0.0
H350 H 0.29356 0.58968 0.44012 0.0
H351 H 0.27116 0.53891 0.47558 0.0
H352 H 0.339 0.74322 0.38408 0.0
H353 H 0.31488 0.63707 0.34133 0.0
H354 H 0.31571 0.57493 0.60962 0.0
H355 H 0.31836 0.76075 0.30809 0.0
H356 H 0.2954 0.6542 0.26454 0.0
C357 C 0.0558 0.8628 0.82914 0.0
C358 C 0.06422 0.82845 0.83714 0.0
C359 C 0.02443 0.87072 0.80682 0.0
C360 C 0.00042 0.84459 0.79207 0.0
C361 C 0.00907 0.81008 0.79867 0.0
C362 C 0.04065 0.80208 0.82126 0.0
C363 C 0.96574 0.85404 0.77242 0.0
C364 C 0.95251 0.83723 0.73083 0.0
C365 C 0.92036 0.84771 0.71129 0.0
C366 C 0.90135 0.87494 0.73476 0.0
C367 C 0.91366 0.89118 0.77725 0.0
C368 C 0.94606 0.88073 0.79542 0.0
C369 C 0.89337 0.91962 0.8024 0.0
C370 C 0.87646 0.94484 0.77723 0.0
C371 C 0.89247 0.92284 0.85207 0.0
C372 C 0.87722 0.9517 0.87588 0.0
C373 C 0.8619 0.9775 0.85054 0.0
C374 C 0.90594 0.82959 0.66745 0.0
C375 C 0.92852 0.81577 0.63141 0.0
C376 C 0.86922 0.8248 0.66215 0.0
C377 C 0.85554 0.8059 0.62289 0.0
C378 C 0.87818 0.79063 0.58831 0.0
C379 C 0.91478 0.7961 0.59251 0.0
C380 C 0.86068 0.97345 0.80117 0.0
H381 H 0.0729 0.8839 0.84161 0.0
H382 H 0.01864 0.89752 0.8018 0.0
H383 H 0.99091 0.78944 0.78779 0.0
H384 H 0.04642 0.77536 0.82673 0.0
H385 H 0.96739 0.8161 0.71379 0.0
H386 H 0.95631 0.89365 0.82756 0.0
H387 H 0.87673 0.88345 0.72016 0.0
H388 H 0.87689 0.94342 0.73904 0.0
H389 H 0.90438 0.90348 0.87263 0.0
H390 H 0.87834 0.95445 0.91407 0.0
H391 H 0.95687 0.81951 0.63361 0.0
H392 H 0.85088 0.83419 0.68935 0.0
H393 H 0.84934 0.99339 0.78106 0.0
H394 H 0.93277 0.78434 0.56643 0.0
H395 H 0.82726 0.80131 0.62125 0.0
C396 C 0.13926 0.93682 0.17202 0.0
C397 C 0.16247 0.91483 0.19362 0.0
H398 H 0.1099 0.98365 0.17811 0.0
C399 C 0.17575 0.92452 0.2386 0.0
H400 H 0.12745 0.92897 0.13832 0.0
C401 C 0.1658 0.95596 0.26175 0.0
C402 C 0.14185 0.97788 0.24059 0.0
H403 H 0.19338 0.90757 0.25605 0.0
H404 H 0.17644 0.9628 0.29648 0.0
C405 C 0.1291 0.96806 0.19511 0.0
C406 C 0.61616 0.66204 0.60605 0.0
C407 C 0.64788 0.67648 0.62391 0.0
H408 H 0.56207 0.65021 0.61904 0.0
C409 C 0.64799 0.69299 0.66943 0.0
H410 H 0.61546 0.64823 0.57164 0.0
C411 C 0.61704 0.69449 0.69682 0.0
C412 C 0.58547 0.67891 0.67959 0.0
H413 H 0.67215 0.70417 0.68417 0.0
H414 H 0.61809 0.70733 0.7318 0.0
C415 C 0.58541 0.6632 0.63345 0.0
C416 C 0.7921 0.03294 1.0043 0.0
C417 C 0.76111 0.0503 0.01902 0.0
H418 H 0.81846 0.98431 0.99376 0.0
C419 C 0.73131 0.03097 0.0311 0.0
H420 H 0.81594 0.04716 0.99724 0.0
C421 C 0.73306 0.99506 0.03076 0.0
C422 C 0.76452 0.97784 0.01779 0.0
H423 H 0.70713 0.04373 0.04298 0.0
H424 H 0.71033 0.98083 0.04248 0.0
C425 C 0.79365 -0.00304 1.00296 0.0
C426 C 0.41379 0.25404 0.54282 0.0
C427 C 0.40066 0.28783 0.54506 0.0
H428 H 0.45975 0.22203 0.5347 0.0
C429 C 0.42264 0.31473 0.532 0.0
H430 H 0.39745 0.23305 0.55387 0.0
C431 C 0.45801 0.30839 0.52016 0.0
C432 C 0.47212 0.27523 0.52305 0.0
H433 H 0.41377 0.3412 0.53629 0.0
H434 H 0.47521 0.33011 0.51449 0.0
C435 C 0.44933 0.24775 0.53187 0.0
C436 C 0.6551 0.57817 0.35123 0.0
C437 C 0.67949 0.57372 0.38754 0.0
H438 H 0.61992 0.55395 0.30015 0.0
C439 C 0.68902 0.54014 0.39755 0.0
H440 H 0.64697 0.60367 0.34272 0.0
C441 C 0.67359 0.51156 0.37306 0.0
C442 C 0.64823 0.51598 0.3379 0.0
H443 H 0.70795 0.53594 0.42485 0.0
H444 H 0.68122 0.48598 0.38207 0.0
C445 C 0.63964 0.54962 0.32667 0.0
C446 C 0.91057 0.25039 0.05478 0.0
C447 C 0.89719 0.21684 0.05772 0.0
H448 H 0.95685 0.28245 0.05672 0.0
C449 C 0.91879 0.19158 0.07555 0.0
H450 H 0.89445 0.27014 0.04039 0.0
C451 C 0.95433 0.19871 0.08554 0.0
C452 C 0.96886 0.23094 0.07639 0.0
H453 H 0.90976 0.16516 0.0755 0.0
H454 H 0.97131 0.17766 0.09421 0.0
C455 C 0.94622 0.25743 0.06407 0.0
C456 C 0.24344 0.47023 0.56365 0.0
C457 C 0.27131 0.44904 0.57662 0.0
H458 H 0.22809 0.52033 0.54404 0.0
C459 C 0.30473 0.46381 0.58599 0.0
H460 H 0.21751 0.45938 0.55577 0.0
C461 C 0.3106 0.49882 0.58008 0.0
C462 C 0.28337 0.51926 0.56341 0.0
H463 H 0.32691 0.44785 0.5946 0.0
H464 H 0.33711 0.50917 0.58476 0.0
C465 C 0.24945 0.50502 0.55691 0.0
C466 C 0.15471 0.8401 0.89181 0.0
C467 C 0.15192 0.81979 0.93077 0.0
H468 H 0.12964 0.85788 0.83078 0.0
C469 C 0.12311 0.79708 0.93317 0.0
H470 H 0.177 0.85734 0.8881 0.0
C471 C 0.0953 0.79804 0.90077 0.0
C472 C 0.0964 0.82122 0.86478 0.0
H473 H 0.12121 0.77988 0.96146 0.0
H474 H 0.07205 0.78232 0.90587 0.0
C475 C 0.12735 0.84068 0.85911 0.0
C476 C 0.80878 0.05529 0.89609 0.0
C477 C 0.83567 0.07627 0.91664 0.0
H478 H 0.79623 0.007 0.8581 0.0
C479 C 0.87052 0.06407 0.91681 0.0
H480 H 0.78175 0.0644 0.89564 0.0
C481 C 0.87852 0.03136 0.89669 0.0
C482 C 0.85197 0.01065 0.87504 0.0
H483 H 0.89158 0.07989 0.93261 0.0
H484 H 0.90569 0.02256 0.89684 0.0
C485 C 0.817 0.0227 0.87481 0.0
C486 C 0.34444 0.30579 0.40129 0.0
C487 C 0.34507 0.32592 0.44421 0.0
H488 H 0.37211 0.29129 0.33673 0.0
C489 C 0.3736 0.34824 0.45414 0.0
H490 H 0.32216 0.28897 0.39252 0.0
C491 C 0.40185 0.34962 0.42281 0.0
C492 C 0.40199 0.32905 0.3802 0.0
H493 H 0.37361 0.36537 0.48586 0.0
H494 H 0.42324 0.36754 0.43152 0.0
C495 C 0.37284 0.30725 0.36947 0.0
C496 C 0.16845 0.95855 0.06815 0.0
C497 C 0.20345 0.95012 0.07864 0.0
H498 H 0.13231 -0.00149 0.0525 0.0
C499 C 0.22853 0.97659 0.08663 0.0
H500 H 0.14904 0.93843 0.0601 0.0
C501 C 0.21896 0.011 0.08232 0.0
C502 C 0.18447 0.0191 0.06872 0.0
H503 H 0.25587 0.97047 0.09364 0.0
H504 H 0.23906 0.03094 0.08623 0.0
C505 C 0.15901 0.99278 0.06322 0.0
C506 C 0.59137 0.67134 0.43256 0.0
C507 C 0.61305 0.68441 0.46959 0.0
H508 H 0.53835 0.6624 0.40844 0.0
C509 C 0.59775 0.70265 0.50889 0.0
H510 H 0.60248 0.65708 0.40196 0.0
C511 C 0.56099 0.70572 0.51251 0.0
C512 C 0.53941 0.69052 0.47682 0.0
H513 H 0.61413 0.71342 0.53746 0.0
H514 H 0.54941 0.71839 0.54401 0.0
C515 C 0.55478 0.67418 0.43633 0.0
C516 C 0.36285 0.42283 0.72192 0.0
C517 C 0.33122 0.41791 0.69642 0.0
H518 H 0.39709 0.45846 0.76025 0.0
C519 C 0.30824 0.44598 0.69315 0.0
H520 H 0.3811 0.40173 0.72543 0.0
C521 C 0.31794 0.47887 0.71222 0.0
C522 C 0.35009 0.48373 0.73646 0.0
H523 H 0.28308 0.4426 0.67537 0.0
H524 H 0.30039 0.50043 0.70811 0.0
C525 C 0.37208 0.45532 0.74187 0.0
C526 C 0.06914 0.81673 0.01778 0.0
C527 C 0.08356 0.79236 0.04639 0.0
H528 H 0.02236 0.83554 0.98617 0.0
C529 C 0.06227 0.76517 0.06025 0.0
H530 H 0.08497 0.83825 0.00729 0.0
C531 C 0.02631 0.76416 0.04963 0.0
C532 C 0.01091 0.79038 0.02482 0.0
H533 H 0.07285 0.74624 0.0827 0.0
H534 H 0.01024 0.74458 0.06476 0.0
C535 C 0.03316 0.81544 1.00642 0.0
C536 C 0.74156 0.51334 0.50095 0.0
C537 C 0.7278 0.53841 0.5338 0.0
H538 H 0.74504 0.45914 0.48013 0.0
C539 C 0.70586 0.52827 0.57024 0.0
H540 H 0.75884 0.52075 0.47284 0.0
C541 C 0.69802 0.49367 0.57442 0.0
C542 C 0.71229 0.46819 0.54255 0.0
H543 H 0.69467 0.54727 0.59571 0.0
H544 H 0.68077 0.48684 0.60289 0.0
C545 C 0.73368 0.4783 0.50516 0.0
C546 C 0.86998 0.14421 0.14719 0.0
C547 C 0.84387 0.16922 0.15652 0.0
H548 H 0.91667 0.12017 0.17117 0.0
C549 C 0.84485 0.18976 0.1991 0.0
H550 H 0.86911 0.12745 0.11511 0.0
C551 C 0.87214 0.1855 0.23163 0.0
C552 C 0.89807 0.16002 0.22234 0.0
H553 H 0.82447 0.20877 0.20728 0.0
H554 H 0.87238 0.20131 0.26452 0.0
C555 C 0.89688 0.13976 0.17953 0.0
C556 C 0.23626 0.72008 0.18689 0.0
C557 C 0.24711 0.75112 0.16867 0.0
H558 H 0.24582 0.68265 0.2366 0.0
C559 C 0.28078 0.76441 0.1801 0.0
H560 H 0.21039 0.70927 0.17842 0.0
C561 C 0.30142 0.74901 0.21373 0.0
C562 C 0.2886 0.72014 0.23616 0.0
H563 H 0.28968 0.7884 0.16661 0.0
H564 H 0.32632 0.76099 0.22432 0.0
C565 C 0.25671 0.70476 0.22029 0.0
C566 C 0.85422 0.70296 0.53715 0.0
C567 C 0.8205 0.70937 0.51919 0.0
H568 H 0.89985 0.72456 0.57233 0.0
C569 C 0.81077 0.7434 0.51183 0.0
H570 H 0.86223 0.67685 0.54306 0.0
C571 C 0.83202 0.77083 0.52948 0.0
C572 C 0.86347 0.76433 0.55363 0.0
H573 H 0.78481 0.74895 0.49818 0.0
H574 H 0.82218 0.79693 0.52857 0.0
C575 C 0.87575 0.7303 0.55391 0.0
C576 C 0.69648 0.25998 0.03273 0.0
C577 C 0.68829 0.22483 0.02527 0.0
H578 H 0.67719 0.30994 0.05611 0.0
C579 C 0.65276 0.21437 0.02371 0.0
H580 H 0.72381 0.26846 0.03451 0.0
C581 C 0.62597 0.23807 0.03527 0.0
C582 C 0.63445 0.2724 0.04987 0.0
H583 H 0.64596 0.18729 0.01796 0.0
H584 H 0.59898 0.22877 0.03723 0.0
C585 C 0.66968 0.28369 0.0452 0.0
C586 C 0.21077 0.27712 0.70776 0.0
C587 C 0.24105 0.26004 0.68974 0.0
H588 H 0.17075 0.27928 0.76156 0.0
C589 C 0.24987 0.22787 0.70597 0.0
H590 H 0.20375 0.30217 0.6961 0.0
C591 C 0.23103 0.21466 0.74301 0.0
C592 C 0.20334 0.23366 0.76517 0.0
H593 H 0.27312 0.21422 0.69247 0.0
H594 H 0.23966 0.1906 0.75631 0.0
C595 C 0.19207 0.26408 0.74546 0.0
C596 C 0.72279 0.72177 0.34361 0.0
C597 C 0.74635 0.70615 0.37376 0.0
H598 H 0.71651 0.74988 0.28188 0.0
C599 C 0.78286 0.70816 0.36504 0.0
H600 H 0.6945 0.72077 0.34968 0.0
C601 C 0.79542 0.72425 0.32545 0.0
C602 C 0.77166 0.73934 0.29493 0.0
H603 H 0.80152 0.6962 0.38771 0.0
H604 H 0.8236 0.72476 0.31849 0.0
C605 C 0.73533 0.73851 0.30491 0.0
C606 C 0.7563 0.25922 0.87742 0.0
C607 C 0.74507 0.23 0.89982 0.0
H608 H 0.74973 0.2904 0.81898 0.0
C609 C 0.71406 0.21281 0.88435 0.0
H610 H 0.78019 0.27284 0.8888 0.0
C611 C 0.69694 0.22241 0.84351 0.0
C612 C 0.71071 0.24933 0.81807 0.0
H613 H 0.70523 0.18992 0.90082 0.0
H614 H 0.67483 0.20705 0.82982 0.0
C615 C 0.73919 0.2689 0.83708 0.0
C616 C 0.15143 0.28431 0.56854 0.0
C617 C 0.1872 0.27511 0.57019 0.0
H618 H 0.09884 0.26806 0.55063 0.0
C619 C 0.19659 0.24026 0.5634 0.0
H620 H 0.14365 0.31111 0.57388 0.0
C621 C 0.17114 0.21568 0.54831 0.0
C622 C 0.13595 0.22571 0.54058 0.0
H623 H 0.22413 0.23268 0.56418 0.0
H624 H 0.17991 0.18974 0.5381 0.0
C625 C 0.12591 0.25971 0.55457 0.0
C626 C 0.29666 0.74723 0.04814 0.0
C627 C 0.30478 0.78231 0.05714 0.0
H628 H 0.3144 0.69858 0.01719 0.0
C629 C 0.34003 0.7933 0.05323 0.0
H630 H 0.26962 0.7382 0.05074 0.0
C631 C 0.36579 0.77063 0.03455 0.0
C632 C 0.35659 0.73674 0.01872 0.0
H633 H 0.34695 0.82023 0.0604 0.0
H634 H 0.39216 0.78052 0.02865 0.0
C635 C 0.3224 0.72457 0.02875 0.0
loop_
_geom_bond_atom_site_label_1
_geom_bond_atom_site_label_2
_geom_bond_distance
_geom_bond_site_symmetry_2
_ccdc_geom_bond_type
Zn0 O6 1.920 . S
Zn0 O12 1.898 . S
Zn0 O15 1.905 . S
Zn1 O9 1.905 . S
Zn1 O10 1.898 . S
Zn1 O18 1.920 . S
Zn2 O5 2.080 . S
Zn2 O8 2.114 . S
Zn2 O11 2.120 . S
Zn2 O13 2.120 . S
Zn2 O14 2.114 . S
Zn2 O17 2.080 . S
C3 O8 1.166 1_556 S
C3 O9 1.182 . S
C4 O10 1.167 . S
C4 O11 1.298 1_556 S
O5 Zn2 2.080 . S
O5 C19 1.305 . S
O6 Zn0 1.920 . S
O6 C19 1.234 . S
C7 O12 1.167 . S
C7 O13 1.299 . S
O8 Zn2 2.114 . S
O8 C3 1.166 1_554 S
O9 Zn1 1.905 . S
O9 C3 1.182 . S
O10 Zn1 1.898 . S
O10 C4 1.167 . S
O11 Zn2 2.120 . S
O11 C4 1.298 1_554 S
O12 Zn0 1.898 . S
O12 C7 1.167 . S
O13 Zn2 2.120 . S
O13 C7 1.299 . S
O14 Zn2 2.114 . S
O14 C16 1.166 . S
O15 Zn0 1.905 . S
O15 C16 1.182 . S
C16 O14 1.166 . S
C16 O15 1.182 . S
O17 Zn2 2.080 . S
O17 C20 1.305 . S
O18 Zn1 1.920 . S
O18 C20 1.234 1_556 S
C19 O5 1.305 . S
C19 O6 1.234 . S
C20 O17 1.305 . S
C20 O18 1.234 1_554 S
Zn21 O27 1.920 . S
Zn21 O33 1.898 . S
Zn21 O36 1.905 . S
Zn22 O30 1.905 . S
Zn22 O31 1.898 . S
Zn22 O39 1.920 . S
Zn23 O26 2.080 . S
Zn23 O29 2.114 . S
Zn23 O32 2.120 . S
Zn23 O34 2.120 . S
Zn23 O35 2.114 . S
Zn23 O38 2.080 . S
C24 O29 1.166 . S
C24 O30 1.182 . S
C25 O31 1.167 . S
C25 O32 1.299 . S
O26 Zn23 2.080 . S
O26 C40 1.305 . S
O27 Zn21 1.920 . S
O27 C40 1.234 . S
C28 O33 1.167 . S
C28 O34 1.299 . S
O29 Zn23 2.114 . S
O29 C24 1.166 . S
O30 Zn22 1.905 . S
O30 C24 1.182 . S
O31 Zn22 1.898 . S
O31 C25 1.167 . S
O32 Zn23 2.120 . S
O32 C25 1.299 . S
O33 Zn21 1.898 . S
O33 C28 1.167 . S
O34 Zn23 2.120 . S
O34 C28 1.299 . S
O35 Zn23 2.114 . S
O35 C37 1.166 . S
O36 Zn21 1.905 . S
O36 C37 1.182 . S
C37 O35 1.166 . S
C37 O36 1.182 . S
O38 Zn23 2.080 . S
O38 C41 1.305 . S
O39 Zn22 1.920 . S
O39 C41 1.234 . S
C40 O26 1.305 . S
C40 O27 1.234 . S
C41 O38 1.305 . S
C41 O39 1.234 . S
Zn42 O48 1.920 . S
Zn42 O54 1.898 . S
Zn42 O57 1.905 . S
Zn43 O51 1.905 . S
Zn43 O52 1.898 . S
Zn43 O60 1.920 . S
Zn44 O47 2.080 1_554 S
Zn44 O50 2.114 . S
Zn44 O53 2.120 . S
Zn44 O55 2.120 1_554 S
Zn44 O56 2.114 1_554 S
Zn44 O59 2.080 . S
C45 O50 1.166 . S
C45 O51 1.182 . S
C46 O52 1.167 . S
C46 O53 1.299 . S
O47 Zn44 2.080 1_556 S
O47 C61 1.305 . S
O48 Zn42 1.920 . S
O48 C61 1.234 . S
C49 O54 1.167 . S
C49 O55 1.299 . S
O50 Zn44 2.114 . S
O50 C45 1.166 . S
O51 Zn43 1.905 . S
O51 C45 1.182 . S
O52 Zn43 1.898 . S
O52 C46 1.167 . S
O53 Zn44 2.120 . S
O53 C46 1.299 . S
O54 Zn42 1.898 . S
O54 C49 1.167 . S
O55 Zn44 2.120 1_556 S
O55 C49 1.299 . S
O56 Zn44 2.114 1_556 S
O56 C58 1.166 . S
O57 Zn42 1.905 . S
O57 C58 1.182 . S
C58 O56 1.166 . S
C58 O57 1.182 . S
O59 Zn44 2.080 . S
O59 C62 1.305 . S
O60 Zn43 1.920 . S
O60 C62 1.234 . S
C61 O47 1.305 . S
C61 O48 1.234 . S
C62 O59 1.305 . S
C62 O60 1.234 . S
Zn63 O69 1.920 . S
Zn63 O75 1.898 . S
Zn63 O78 1.905 . S
Zn64 O72 1.905 . S
Zn64 O73 1.898 . S
Zn64 O81 1.920 . S
Zn65 O68 2.080 . S
Zn65 O71 2.114 . S
Zn65 O74 2.120 . S
Zn65 O76 2.120 . S
Zn65 O77 2.114 . S
Zn65 O80 2.080 . S
C66 O71 1.166 . S
C66 O72 1.182 . S
C67 O73 1.167 . S
C67 O74 1.299 . S
O68 Zn65 2.080 . S
O68 C82 1.305 . S
O69 Zn63 1.920 . S
O69 C82 1.234 . S
C70 O75 1.167 . S
C70 O76 1.299 . S
O71 Zn65 2.114 . S
O71 C66 1.166 . S
O72 Zn64 1.905 . S
O72 C66 1.182 . S
O73 Zn64 1.898 . S
O73 C67 1.167 . S
O74 Zn65 2.120 . S
O74 C67 1.299 . S
O75 Zn63 1.898 . S
O75 C70 1.167 . S
O76 Zn65 2.120 . S
O76 C70 1.299 . S
O77 Zn65 2.114 . S
O77 C79 1.166 . S
O78 Zn63 1.905 . S
O78 C79 1.182 . S
C79 O77 1.166 . S
C79 O78 1.182 . S
O80 Zn65 2.080 . S
O80 C83 1.305 . S
O81 Zn64 1.920 . S
O81 C83 1.234 . S
C82 O68 1.305 . S
C82 O69 1.234 . S
C83 O80 1.305 . S
C83 O81 1.234 . S
C84 C85 1.386 1_455 S
C84 C86 1.397 . S
C84 H108 0.931 . S
C85 C84 1.386 1_655 S
C85 C89 1.399 . S
C86 C84 1.397 . S
C86 C87 1.384 . S
C86 H109 0.930 . S
C87 C86 1.384 . S
C87 C88 1.377 . S
C87 C90 1.481 . S
C88 C87 1.377 . S
C88 C89 1.366 1_455 S
C88 H110 0.929 . S
C89 C85 1.399 . S
C89 C88 1.366 1_655 S
C89 H111 0.952 . S
C90 C87 1.481 . S
C90 C91 1.387 . S
C90 C95 1.390 . S
C91 C90 1.387 . S
C91 C92 1.401 . S
C91 H112 0.930 . S
C92 C91 1.401 . S
C92 C93 1.376 . S
C92 C101 1.511 . S
C93 C92 1.376 . S
C93 C94 1.392 . S
C93 H114 0.931 . S
C94 C93 1.392 . S
C94 C95 1.361 . S
C94 C96 1.500 . S
C95 C90 1.390 . S
C95 C94 1.361 . S
C95 H113 0.931 . S
C96 C94 1.500 . S
C96 C97 1.371 . S
C96 C98 1.365 . S
C97 C96 1.371 . S
C97 C107 1.380 1_545 S
C97 H115 0.931 . S
C98 C96 1.365 . S
C98 C99 1.409 1_545 S
C98 H116 0.929 . S
C99 C98 1.409 1_565 S
C99 C100 1.380 . S
C99 H117 0.930 . S
C100 C99 1.380 . S
C100 C107 1.361 . S
C101 C92 1.511 . S
C101 C102 1.341 . S
C101 C103 1.371 . S
C102 C101 1.341 . S
C102 C106 1.394 . S
C102 H118 0.930 . S
C103 C101 1.371 . S
C103 C104 1.392 . S
C103 H119 0.931 . S
C104 C103 1.392 . S
C104 C105 1.331 . S
C104 H122 0.932 . S
C105 C104 1.331 . S
C105 C106 1.336 . S
C106 C102 1.394 . S
C106 C105 1.336 . S
C106 H121 0.929 . S
C107 C97 1.380 1_565 S
C107 C100 1.361 . S
C107 H120 0.929 . S
H108 C84 0.931 . S
H109 C86 0.930 . S
H110 C88 0.929 . S
H111 C89 0.952 . S
H112 C91 0.930 . S
H113 C95 0.931 . S
H114 C93 0.931 . S
H115 C97 0.931 . S
H116 C98 0.929 . S
H117 C99 0.930 . S
H118 C102 0.930 . S
H119 C103 0.931 . S
H120 C107 0.929 . S
H121 C106 0.929 . S
H122 C104 0.932 . S
C123 C124 1.386 . S
C123 C125 1.397 . S
C123 H147 0.931 . S
C124 C123 1.386 . S
C124 C128 1.397 . S
C125 C123 1.397 . S
C125 C126 1.384 . S
C125 H148 0.930 . S
C126 C125 1.384 . S
C126 C127 1.377 . S
C126 C129 1.481 . S
C127 C126 1.377 . S
C127 C128 1.389 . S
C127 H149 0.929 . S
C128 C124 1.397 . S
C128 C127 1.389 . S
C128 H150 0.931 . S
C129 C126 1.481 . S
C129 C130 1.387 . S
C129 C134 1.390 . S
C130 C129 1.387 . S
C130 C131 1.401 . S
C130 H151 0.930 . S
C131 C130 1.401 . S
C131 C132 1.376 . S
C131 C140 1.511 . S
C132 C131 1.376 . S
C132 C133 1.392 . S
C132 H153 0.931 . S
C133 C132 1.392 . S
C133 C134 1.361 . S
C133 C135 1.500 . S
C134 C129 1.390 . S
C134 C133 1.361 . S
C134 H152 0.931 . S
C135 C133 1.500 . S
C135 C136 1.371 . S
C135 C137 1.365 . S
C136 C135 1.371 . S
C136 C146 1.386 . S
C136 H154 0.931 . S
C137 C135 1.365 . S
C137 C138 1.409 . S
C137 H155 0.929 . S
C138 C137 1.409 . S
C138 C139 1.380 . S
C138 H156 0.930 . S
C139 C138 1.380 . S
C139 C146 1.357 . S
C140 C131 1.511 . S
C140 C141 1.341 . S
C140 C142 1.371 . S
C141 C140 1.341 . S
C141 C145 1.394 . S
C141 H157 0.930 . S
C142 C140 1.371 . S
C142 C143 1.392 . S
C142 H158 0.931 . S
C143 C142 1.392 . S
C143 C144 1.331 . S
C143 H161 0.932 . S
C144 C143 1.331 . S
C144 C145 1.336 . S
C145 C141 1.394 . S
C145 C144 1.336 . S
C145 H160 0.929 . S
C146 C136 1.386 . S
C146 C139 1.357 . S
C146 H159 0.928 . S
H147 C123 0.931 . S
H148 C125 0.930 . S
H149 C127 0.929 . S
H150 C128 0.931 . S
H151 C130 0.930 . S
H152 C134 0.931 . S
H153 C132 0.931 . S
H154 C136 0.931 . S
H155 C137 0.929 . S
H156 C138 0.930 . S
H157 C141 0.930 . S
H158 C142 0.931 . S
H159 C146 0.928 . S
H160 C145 0.929 . S
H161 C143 0.932 . S
C162 C163 1.386 . S
C162 C164 1.397 . S
C162 H186 0.931 . S
C163 C162 1.386 . S
C163 C167 1.397 . S
C164 C162 1.397 . S
C164 C165 1.384 . S
C164 H187 0.930 . S
C165 C164 1.384 . S
C165 C166 1.377 . S
C165 C168 1.481 . S
C166 C165 1.377 . S
C166 C167 1.389 . S
C166 H188 0.929 . S
C167 C163 1.397 . S
C167 C166 1.389 . S
C167 H189 0.931 . S
C168 C165 1.481 . S
C168 C169 1.387 . S
C168 C173 1.390 . S
C169 C168 1.387 . S
C169 C170 1.401 . S
C169 H190 0.930 . S
C170 C169 1.401 . S
C170 C171 1.376 . S
C170 C179 1.511 . S
C171 C170 1.376 . S
C171 C172 1.392 . S
C171 H192 0.931 . S
C172 C171 1.392 . S
C172 C173 1.361 . S
C172 C174 1.500 . S
C173 C168 1.390 . S
C173 C172 1.361 . S
C173 H191 0.931 . S
C174 C172 1.500 . S
C174 C175 1.371 . S
C174 C176 1.365 . S
C175 C174 1.371 . S
C175 C185 1.386 . S
C175 H193 0.931 . S
C176 C174 1.365 . S
C176 C177 1.409 . S
C176 H194 0.929 . S
C177 C176 1.409 . S
C177 C178 1.380 . S
C177 H195 0.930 1_565 S
C178 C177 1.380 . S
C178 C185 1.357 . S
C179 C170 1.511 . S
C179 C180 1.341 . S
C179 C181 1.371 . S
C180 C179 1.341 . S
C180 C184 1.394 . S
C180 H196 0.930 . S
C181 C179 1.371 . S
C181 C182 1.392 . S
C181 H197 0.931 . S
C182 C181 1.392 . S
C182 C183 1.331 . S
C182 H200 0.932 . S
C183 C182 1.331 . S
C183 C184 1.336 . S
C184 C180 1.394 . S
C184 C183 1.336 . S
C184 H199 0.929 . S
C185 C175 1.386 . S
C185 C178 1.357 . S
C185 H198 0.928 . S
H186 C162 0.931 . S
H187 C164 0.930 . S
H188 C166 0.929 . S
H189 C167 0.931 . S
H190 C169 0.930 . S
H191 C173 0.931 . S
H192 C171 0.931 . S
H193 C175 0.931 . S
H194 C176 0.929 . S
H195 C177 0.930 1_545 S
H196 C180 0.930 . S
H197 C181 0.931 . S
H198 C185 0.928 . S
H199 C184 0.929 . S
H200 C182 0.932 . S
C201 C202 1.386 . S
C201 C203 1.397 . S
C201 H225 0.931 . S
C202 C201 1.386 . S
C202 C206 1.397 . S
C203 C201 1.397 . S
C203 C204 1.384 . S
C203 H226 0.930 . S
C204 C203 1.384 . S
C204 C205 1.377 . S
C204 C207 1.481 . S
C205 C204 1.377 . S
C205 C206 1.389 . S
C205 H227 0.929 . S
C206 C202 1.397 . S
C206 C205 1.389 . S
C206 H228 0.931 . S
C207 C204 1.481 . S
C207 C208 1.387 . S
C207 C212 1.390 . S
C208 C207 1.387 . S
C208 C209 1.401 . S
C208 H229 0.930 . S
C209 C208 1.401 . S
C209 C210 1.376 . S
C209 C218 1.511 . S
C210 C209 1.376 . S
C210 C211 1.392 . S
C210 H231 0.931 . S
C211 C210 1.392 . S
C211 C212 1.361 . S
C211 C213 1.500 . S
C212 C207 1.390 . S
C212 C211 1.361 . S
C212 H230 0.931 . S
C213 C211 1.500 . S
C213 C214 1.371 . S
C213 C215 1.365 . S
C214 C213 1.371 . S
C214 C224 1.386 . S
C214 H232 0.931 . S
C215 C213 1.365 . S
C215 C216 1.409 . S
C215 H233 0.929 . S
C216 C215 1.409 . S
C216 C217 1.380 . S
C216 H234 0.930 . S
C217 C216 1.380 . S
C217 C224 1.357 . S
C218 C209 1.511 . S
C218 C219 1.341 . S
C218 C220 1.371 . S
C219 C218 1.341 . S
C219 C223 1.394 . S
C219 H235 0.930 . S
C220 C218 1.371 . S
C220 C221 1.392 . S
C220 H236 0.931 . S
C221 C220 1.392 . S
C221 C222 1.331 . S
C221 H239 0.932 . S
C222 C221 1.331 . S
C222 C223 1.336 . S
C223 C219 1.394 . S
C223 C222 1.336 . S
C223 H238 0.929 . S
C224 C214 1.386 . S
C224 C217 1.357 . S
C224 H237 0.928 . S
H225 C201 0.931 . S
H226 C203 0.930 . S
H227 C205 0.929 . S
H228 C206 0.931 . S
H229 C208 0.930 . S
H230 C212 0.931 . S
H231 C210 0.931 . S
H232 C214 0.931 . S
H233 C215 0.929 . S
H234 C216 0.930 . S
H235 C219 0.930 . S
H236 C220 0.931 . S
H237 C224 0.928 . S
H238 C223 0.929 . S
H239 C221 0.932 . S
C240 C241 1.386 . S
C240 C242 1.397 . S
C240 H264 0.931 . S
C241 C240 1.386 . S
C241 C245 1.397 . S
C242 C240 1.397 . S
C242 C243 1.384 . S
C242 H265 0.930 . S
C243 C242 1.384 . S
C243 C244 1.377 . S
C243 C246 1.481 . S
C244 C243 1.377 . S
C244 C245 1.389 . S
C244 H266 0.929 . S
C245 C241 1.397 . S
C245 C244 1.389 . S
C245 H267 0.931 . S
C246 C243 1.481 . S
C246 C247 1.387 . S
C246 C251 1.390 . S
C247 C246 1.387 . S
C247 C248 1.401 . S
C247 H268 0.930 . S
C248 C247 1.401 . S
C248 C249 1.376 . S
C248 C257 1.511 . S
C249 C248 1.376 . S
C249 C250 1.392 . S
C249 H270 0.931 . S
C250 C249 1.392 . S
C250 C251 1.361 . S
C250 C252 1.500 . S
C251 C246 1.390 . S
C251 C250 1.361 . S
C251 H269 0.931 . S
C252 C250 1.500 . S
C252 C253 1.371 . S
C252 C254 1.365 . S
C253 C252 1.371 . S
C253 C263 1.386 . S
C253 H271 0.931 . S
C254 C252 1.365 . S
C254 C255 1.409 . S
C254 H272 0.929 . S
C255 C254 1.409 . S
C255 C256 1.380 . S
C255 H273 0.930 . S
C256 C255 1.380 . S
C256 C263 1.357 . S
C257 C248 1.511 . S
C257 C258 1.341 . S
C257 C259 1.371 . S
C258 C257 1.341 . S
C258 C262 1.394 . S
C258 H274 0.930 . S
C259 C257 1.371 . S
C259 C260 1.392 . S
C259 H275 0.931 . S
C260 C259 1.392 . S
C260 C261 1.331 . S
C260 H278 0.932 . S
C261 C260 1.331 . S
C261 C262 1.336 . S
C262 C258 1.394 . S
C262 C261 1.336 . S
C262 H277 0.929 . S
C263 C253 1.386 . S
C263 C256 1.357 . S
C263 H276 0.928 . S
H264 C240 0.931 . S
H265 C242 0.930 . S
H266 C244 0.929 . S
H267 C245 0.931 . S
H268 C247 0.930 . S
H269 C251 0.931 . S
H270 C249 0.931 . S
H271 C253 0.931 . S
H272 C254 0.929 . S
H273 C255 0.930 . S
H274 C258 0.930 . S
H275 C259 0.931 . S
H276 C263 0.928 . S
H277 C262 0.929 . S
H278 C260 0.932 . S
C279 C280 1.386 . S
C279 C281 1.397 . S
C279 H303 0.931 . S
C280 C279 1.386 . S
C280 C284 1.397 1_556 S
C281 C279 1.397 . S
C281 C282 1.384 . S
C281 H304 0.930 . S
C282 C281 1.384 . S
C282 C283 1.377 . S
C282 C285 1.481 . S
C283 C282 1.377 . S
C283 C284 1.389 1_556 S
C283 H305 0.929 1_556 S
C284 C280 1.397 1_554 S
C284 C283 1.389 1_554 S
C284 H306 0.931 . S
C285 C282 1.481 . S
C285 C286 1.387 . S
C285 C290 1.390 . S
C286 C285 1.387 . S
C286 C287 1.401 . S
C286 H307 0.930 . S
C287 C286 1.401 . S
C287 C288 1.376 . S
C287 C296 1.511 . S
C288 C287 1.376 . S
C288 C289 1.392 . S
C288 H309 0.931 . S
C289 C288 1.392 . S
C289 C290 1.361 . S
C289 C291 1.500 . S
C290 C285 1.390 . S
C290 C289 1.361 . S
C290 H308 0.931 . S
C291 C289 1.500 . S
C291 C292 1.371 . S
C291 C293 1.350 1_556 S
C292 C291 1.371 . S
C292 C302 1.386 . S
C292 H310 0.931 . S
C293 C291 1.350 1_554 S
C293 C294 1.416 . S
C293 H311 0.938 . S
C294 C293 1.416 . S
C294 C295 1.380 1_554 S
C294 H312 0.930 . S
C295 C294 1.380 1_556 S
C295 C302 1.357 . S
C296 C287 1.511 . S
C296 C297 1.341 . S
C296 C298 1.371 . S
C297 C296 1.341 . S
C297 C301 1.394 . S
C297 H313 0.930 . S
C298 C296 1.371 . S
C298 C299 1.392 . S
C298 H314 0.931 . S
C299 C298 1.392 . S
C299 C300 1.331 . S
C299 H317 0.932 . S
C300 C299 1.331 . S
C300 C301 1.336 . S
C301 C297 1.394 . S
C301 C300 1.336 . S
C301 H316 0.929 . S
C302 C292 1.386 . S
C302 C295 1.357 . S
C302 H315 0.928 . S
H303 C279 0.931 . S
H304 C281 0.930 . S
H305 C283 0.929 1_554 S
H306 C284 0.931 . S
H307 C286 0.930 . S
H308 C290 0.931 . S
H309 C288 0.931 . S
H310 C292 0.931 . S
H311 C293 0.938 . S
H312 C294 0.930 . S
H313 C297 0.930 . S
H314 C298 0.931 . S
H315 C302 0.928 . S
H316 C301 0.929 . S
H317 C299 0.932 . S
C318 C319 1.386 . S
C318 C320 1.397 . S
C318 H342 0.931 . S
C319 C318 1.386 . S
C319 C323 1.397 . S
C320 C318 1.397 . S
C320 C321 1.384 . S
C320 H343 0.930 . S
C321 C320 1.384 . S
C321 C322 1.377 . S
C321 C324 1.481 . S
C322 C321 1.377 . S
C322 C323 1.389 . S
C322 H344 0.929 . S
C323 C319 1.397 . S
C323 C322 1.389 . S
C323 H345 0.931 . S
C324 C321 1.481 . S
C324 C325 1.387 . S
C324 C329 1.390 . S
C325 C324 1.387 . S
C325 C326 1.401 . S
C325 H346 0.930 . S
C326 C325 1.401 . S
C326 C327 1.376 . S
C326 C335 1.511 . S
C327 C326 1.376 . S
C327 C328 1.392 . S
C327 H348 0.931 . S
C328 C327 1.392 . S
C328 C329 1.361 . S
C328 C330 1.500 . S
C329 C324 1.390 . S
C329 C328 1.361 . S
C329 H347 0.931 . S
C330 C328 1.500 . S
C330 C331 1.371 . S
C330 C332 1.365 . S
C331 C330 1.371 . S
C331 C341 1.386 . S
C331 H349 0.931 . S
C332 C330 1.365 . S
C332 C333 1.409 . S
C332 H350 0.929 . S
C333 C332 1.409 . S
C333 C334 1.380 . S
C333 H351 0.930 . S
C334 C333 1.380 . S
C334 C341 1.357 . S
C335 C326 1.511 . S
C335 C336 1.341 . S
C335 C337 1.371 . S
C336 C335 1.341 . S
C336 C340 1.394 . S
C336 H352 0.930 . S
C337 C335 1.371 . S
C337 C338 1.392 . S
C337 H353 0.931 . S
C338 C337 1.392 . S
C338 C339 1.331 . S
C338 H356 0.932 . S
C339 C338 1.331 . S
C339 C340 1.336 . S
C340 C336 1.394 . S
C340 C339 1.336 . S
C340 H355 0.929 . S
C341 C331 1.386 . S
C341 C334 1.357 . S
C341 H354 0.928 . S
H342 C318 0.931 . S
H343 C320 0.930 . S
H344 C322 0.929 . S
H345 C323 0.931 . S
H346 C325 0.930 . S
H347 C329 0.931 . S
H348 C327 0.931 . S
H349 C331 0.931 . S
H350 C332 0.929 . S
H351 C333 0.930 . S
H352 C336 0.930 . S
H353 C337 0.931 . S
H354 C341 0.928 . S
H355 C340 0.929 . S
H356 C338 0.932 . S
C357 C358 1.386 . S
C357 C359 1.397 . S
C357 H381 0.931 . S
C358 C357 1.386 . S
C358 C362 1.397 . S
C359 C357 1.397 . S
C359 C360 1.384 1_455 S
C359 H382 0.930 . S
C360 C359 1.384 1_655 S
C360 C361 1.377 1_655 S
C360 C363 1.481 . S
C361 C360 1.377 1_455 S
C361 C362 1.389 . S
C361 H383 0.929 1_455 S
C362 C358 1.397 . S
C362 C361 1.389 . S
C362 H384 0.931 . S
C363 C360 1.481 . S
C363 C364 1.387 . S
C363 C368 1.390 . S
C364 C363 1.387 . S
C364 C365 1.401 . S
C364 H385 0.930 . S
C365 C364 1.401 . S
C365 C366 1.376 . S
C365 C374 1.511 . S
C366 C365 1.376 . S
C366 C367 1.392 . S
C366 H387 0.931 . S
C367 C366 1.392 . S
C367 C368 1.361 . S
C367 C369 1.500 . S
C368 C363 1.390 . S
C368 C367 1.361 . S
C368 H386 0.931 . S
C369 C367 1.500 . S
C369 C370 1.371 . S
C369 C371 1.365 . S
C370 C369 1.371 . S
C370 C380 1.386 . S
C370 H388 0.931 . S
C371 C369 1.365 . S
C371 C372 1.409 . S
C371 H389 0.929 . S
C372 C371 1.409 . S
C372 C373 1.380 . S
C372 H390 0.930 . S
C373 C372 1.380 . S
C373 C380 1.357 . S
C374 C365 1.511 . S
C374 C375 1.341 . S
C374 C376 1.371 . S
C375 C374 1.341 . S
C375 C379 1.394 . S
C375 H391 0.930 . S
C376 C374 1.371 . S
C376 C377 1.392 . S
C376 H392 0.931 . S
C377 C376 1.392 . S
C377 C378 1.331 . S
C377 H395 0.932 . S
C378 C377 1.331 . S
C378 C379 1.336 . S
C379 C375 1.394 . S
C379 C378 1.336 . S
C379 H394 0.929 . S
C380 C370 1.386 . S
C380 C373 1.357 . S
C380 H393 0.928 . S
H381 C357 0.931 . S
H382 C359 0.930 . S
H383 C361 0.929 1_655 S
H384 C362 0.931 . S
H385 C364 0.930 . S
H386 C368 0.931 . S
H387 C366 0.931 . S
H388 C370 0.931 . S
H389 C371 0.929 . S
H390 C372 0.930 . S
H391 C375 0.930 . S
H392 C376 0.931 . S
H393 C380 0.928 . S
H394 C379 0.929 . S
H395 C377 0.932 . S
C396 C397 1.387 . S
C396 H400 0.950 . S
C396 C405 1.390 . S
C397 C396 1.387 . S
C397 C399 1.387 . S
H398 C405 0.950 . S
C399 C397 1.387 . S
C399 C401 1.390 . S
C399 H403 0.950 . S
H400 C396 0.950 . S
C401 C399 1.390 . S
C401 C402 1.387 . S
C401 H404 0.950 . S
C402 C401 1.387 . S
C402 C405 1.387 . S
H403 C399 0.950 . S
H404 C401 0.950 . S
C405 C396 1.390 . S
C405 H398 0.950 . S
C405 C402 1.387 . S
C406 C407 1.387 . S
C406 H410 0.950 . S
C406 C415 1.390 . S
C407 C406 1.387 . S
C407 C409 1.387 . S
H408 C415 0.950 . S
C409 C407 1.387 . S
C409 C411 1.390 . S
C409 H413 0.950 . S
H410 C406 0.950 . S
C411 C409 1.390 . S
C411 C412 1.387 . S
C411 H414 0.950 . S
C412 C411 1.387 . S
C412 C415 1.387 . S
H413 C409 0.950 . S
H414 C411 0.950 . S
C415 C406 1.390 . S
C415 H408 0.950 . S
C415 C412 1.387 . S
C416 C417 1.387 . S
C416 H420 0.950 1_554 S
C416 C425 1.390 . S
C417 C416 1.387 . S
C417 C419 1.387 . S
H418 C425 0.950 . S
C419 C417 1.387 . S
C419 C421 1.390 . S
C419 H423 0.950 . S
H420 C416 0.950 1_556 S
C421 C419 1.390 . S
C421 C422 1.387 . S
C421 H424 0.950 . S
C422 C421 1.387 . S
C422 C425 1.387 . S
H423 C419 0.950 . S
H424 C421 0.950 . S
C425 C416 1.390 . S
C425 H418 0.950 . S
C425 C422 1.387 . S
C426 C427 1.387 . S
C426 H430 0.950 . S
C426 C435 1.390 . S
C427 C426 1.387 . S
C427 C429 1.387 . S
H428 C435 0.950 . S
C429 C427 1.387 . S
C429 C431 1.390 . S
C429 H433 0.950 . S
H430 C426 0.950 . S
C431 C429 1.390 . S
C431 C432 1.387 . S
C431 H434 0.950 . S
C432 C431 1.387 . S
C432 C435 1.387 . S
H433 C429 0.950 . S
H434 C431 0.950 . S
C435 C426 1.390 . S
C435 H428 0.950 . S
C435 C432 1.387 . S
C436 C437 1.387 . S
C436 H440 0.950 . S
C436 C445 1.390 . S
C437 C436 1.387 . S
C437 C439 1.387 . S
H438 C445 0.950 . S
C439 C437 1.387 . S
C439 C441 1.390 . S
C439 H443 0.950 . S
H440 C436 0.950 . S
C441 C439 1.390 . S
C441 C442 1.387 . S
C441 H444 0.950 . S
C442 C441 1.387 . S
C442 C445 1.387 . S
H443 C439 0.950 . S
H444 C441 0.950 . S
C445 C436 1.390 . S
C445 H438 0.950 . S
C445 C442 1.387 . S
C446 C447 1.387 1_554 S
C446 H450 0.950 . S
C446 C455 1.390 . S
C447 C446 1.387 1_556 S
C447 C449 1.387 . S
H448 C455 0.943 1_455 S
C449 C447 1.387 . S
C449 C451 1.390 . S
C449 H453 0.950 . S
H450 C446 0.950 . S
C451 C449 1.390 . S
C451 C452 1.387 1_655 S
C451 H454 0.950 1_655 S
C452 C451 1.387 1_455 S
C452 C455 1.387 1_456 S
H453 C449 0.950 . S
H454 C451 0.950 1_455 S
C455 C446 1.390 . S
C455 H448 0.943 1_655 S
C455 C452 1.387 1_654 S
C456 C457 1.387 . S
C456 H460 0.950 . S
C456 C465 1.390 . S
C457 C456 1.387 . S
C457 C459 1.387 . S
H458 C465 0.950 . S
C459 C457 1.387 . S
C459 C461 1.390 . S
C459 H463 0.950 . S
H460 C456 0.950 . S
C461 C459 1.390 . S
C461 C462 1.387 . S
C461 H464 0.950 . S
C462 C461 1.387 . S
C462 C465 1.387 . S
H463 C459 0.950 . S
H464 C461 0.950 . S
C465 C456 1.390 . S
C465 H458 0.950 . S
C465 C462 1.387 . S
C466 C467 1.387 . S
C466 H470 0.950 . S
C466 C475 1.390 . S
C467 C466 1.387 . S
C467 C469 1.387 . S
H468 C475 0.950 . S
C469 C467 1.387 . S
C469 C471 1.390 . S
C469 H473 0.950 . S
H470 C466 0.950 . S
C471 C469 1.390 . S
C471 C472 1.387 . S
C471 H474 0.950 . S
C472 C471 1.387 . S
C472 C475 1.387 . S
H473 C469 0.950 . S
H474 C471 0.950 . S
C475 C466 1.390 . S
C475 H468 0.950 . S
C475 C472 1.387 . S
C476 C477 1.387 . S
C476 H480 0.950 . S
C476 C485 1.390 . S
C477 C476 1.387 . S
C477 C479 1.387 . S
H478 C485 0.950 1_565 S
C479 C477 1.387 . S
C479 C481 1.390 . S
C479 H483 0.950 . S
H480 C476 0.950 . S
C481 C479 1.390 . S
C481 C482 1.387 . S
C481 H484 0.950 . S
C482 C481 1.387 . S
C482 C485 1.387 . S
H483 C479 0.950 . S
H484 C481 0.950 . S
C485 C476 1.390 . S
C485 H478 0.950 1_545 S
C485 C482 1.387 . S
C486 C487 1.387 . S
C486 H490 0.950 . S
C486 C495 1.390 . S
C487 C486 1.387 . S
C487 C489 1.387 . S
H488 C495 0.950 . S
C489 C487 1.387 . S
C489 C491 1.390 . S
C489 H493 0.950 . S
H490 C486 0.950 . S
C491 C489 1.390 . S
C491 C492 1.387 . S
C491 H494 0.950 . S
C492 C491 1.387 . S
C492 C495 1.387 . S
H493 C489 0.950 . S
H494 C491 0.950 . S
C495 C486 1.390 . S
C495 H488 0.950 . S
C495 C492 1.387 . S
C496 C497 1.387 1_556 S
C496 H500 0.950 . S
C496 C505 1.390 1_565 S
C497 C496 1.387 1_554 S
C497 C499 1.387 . S
H498 C505 0.950 . S
C499 C497 1.387 . S
C499 C501 1.390 1_565 S
C499 H503 0.950 . S
H500 C496 0.950 . S
C501 C499 1.390 1_545 S
C501 C502 1.408 . S
C501 H504 0.950 . S
C502 C501 1.408 . S
C502 C505 1.370 1_554 S
H503 C499 0.950 . S
H504 C501 0.950 . S
C505 C496 1.390 1_545 S
C505 H498 0.950 . S
C505 C502 1.370 1_556 S
C506 C507 1.387 . S
C506 H510 0.950 . S
C506 C515 1.390 . S
C507 C506 1.387 . S
C507 C509 1.387 . S
H508 C515 0.950 . S
C509 C507 1.387 . S
C509 C511 1.390 . S
C509 H513 0.950 . S
H510 C506 0.950 . S
C511 C509 1.390 . S
C511 C512 1.387 . S
C511 H514 0.950 . S
C512 C511 1.387 . S
C512 C515 1.387 . S
H513 C509 0.950 . S
H514 C511 0.950 . S
C515 C506 1.390 . S
C515 H508 0.950 . S
C515 C512 1.387 . S
C516 C517 1.387 . S
C516 H520 0.950 . S
C516 C525 1.390 . S
C517 C516 1.387 . S
C517 C519 1.387 . S
H518 C525 0.950 . S
C519 C517 1.387 . S
C519 C521 1.390 . S
C519 H523 0.950 . S
H520 C516 0.950 . S
C521 C519 1.390 . S
C521 C522 1.387 . S
C521 H524 0.950 . S
C522 C521 1.387 . S
C522 C525 1.387 . S
H523 C519 0.950 . S
H524 C521 0.950 . S
C525 C516 1.390 . S
C525 H518 0.950 . S
C525 C522 1.387 . S
C526 C527 1.387 . S
C526 H530 0.950 . S
C526 C535 1.390 1_455 S
C527 C526 1.387 . S
C527 C529 1.387 . S
H528 C535 0.950 . S
C529 C527 1.387 . S
C529 C531 1.390 1_455 S
C529 H533 0.950 . S
H530 C526 0.950 . S
C531 C529 1.390 1_655 S
C531 C532 1.387 . S
C531 H534 0.950 . S
C532 C531 1.387 . S
C532 C535 1.387 . S
H533 C529 0.950 . S
H534 C531 0.950 . S
C535 C526 1.390 1_655 S
C535 H528 0.950 . S
C535 C532 1.387 . S
C536 C537 1.387 . S
C536 H540 0.950 . S
C536 C545 1.390 . S
C537 C536 1.387 . S
C537 C539 1.387 . S
H538 C545 0.950 . S
C539 C537 1.387 . S
C539 C541 1.390 . S
C539 H543 0.950 . S
H540 C536 0.950 . S
C541 C539 1.390 . S
C541 C542 1.387 . S
C541 H544 0.950 . S
C542 C541 1.387 . S
C542 C545 1.387 . S
H543 C539 0.950 . S
H544 C541 0.950 . S
C545 C536 1.390 . S
C545 H538 0.950 . S
C545 C542 1.387 . S
C546 C547 1.387 . S
C546 H550 0.950 . S
C546 C555 1.390 . S
C547 C546 1.387 . S
C547 C549 1.387 . S
H548 C555 0.950 . S
C549 C547 1.387 . S
C549 C551 1.390 . S
C549 H553 0.950 . S
H550 C546 0.950 . S
C551 C549 1.390 . S
C551 C552 1.387 . S
C551 H554 0.950 . S
C552 C551 1.387 . S
C552 C555 1.387 . S
H553 C549 0.950 . S
H554 C551 0.950 . S
C555 C546 1.390 . S
C555 H548 0.950 . S
C555 C552 1.387 . S
C556 C557 1.387 . S
C556 H560 0.950 . S
C556 C565 1.390 . S
C557 C556 1.387 . S
C557 C559 1.387 . S
H558 C565 0.950 . S
C559 C557 1.387 . S
C559 C561 1.390 . S
C559 H563 0.950 . S
H560 C556 0.950 . S
C561 C559 1.390 . S
C561 C562 1.387 . S
C561 H564 0.950 . S
C562 C561 1.387 . S
C562 C565 1.387 . S
H563 C559 0.950 . S
H564 C561 0.950 . S
C565 C556 1.390 . S
C565 H558 0.950 . S
C565 C562 1.387 . S
C566 C567 1.387 . S
C566 H570 0.950 . S
C566 C575 1.390 . S
C567 C566 1.387 . S
C567 C569 1.387 . S
H568 C575 0.950 . S
C569 C567 1.387 . S
C569 C571 1.390 . S
C569 H573 0.950 . S
H570 C566 0.950 . S
C571 C569 1.390 . S
C571 C572 1.387 . S
C571 H574 0.950 . S
C572 C571 1.387 . S
C572 C575 1.387 . S
H573 C569 0.950 . S
H574 C571 0.950 . S
C575 C566 1.390 . S
C575 H568 0.950 . S
C575 C572 1.387 . S
C576 C577 1.387 . S
C576 H580 0.950 . S
C576 C585 1.390 . S
C577 C576 1.387 . S
C577 C579 1.387 . S
H578 C585 0.950 . S
C579 C577 1.387 . S
C579 C581 1.390 . S
C579 H583 0.950 . S
H580 C576 0.950 . S
C581 C579 1.390 . S
C581 C582 1.387 . S
C581 H584 0.950 . S
C582 C581 1.387 . S
C582 C585 1.387 . S
H583 C579 0.950 . S
H584 C581 0.950 . S
C585 C576 1.390 . S
C585 H578 0.950 . S
C585 C582 1.387 . S
C586 C587 1.387 . S
C586 H590 0.950 . S
C586 C595 1.390 . S
C587 C586 1.387 . S
C587 C589 1.387 . S
H588 C595 0.950 . S
C589 C587 1.387 . S
C589 C591 1.390 . S
C589 H593 0.950 . S
H590 C586 0.950 . S
C591 C589 1.390 . S
C591 C592 1.387 . S
C591 H594 0.950 . S
C592 C591 1.387 . S
C592 C595 1.387 . S
H593 C589 0.950 . S
H594 C591 0.950 . S
C595 C586 1.390 . S
C595 H588 0.950 . S
C595 C592 1.387 . S
C596 C597 1.387 . S
C596 H600 0.950 . S
C596 C605 1.390 . S
C597 C596 1.387 . S
C597 C599 1.387 . S
H598 C605 0.950 . S
C599 C597 1.387 . S
C599 C601 1.390 . S
C599 H603 0.950 . S
H600 C596 0.950 . S
C601 C599 1.390 . S
C601 C602 1.387 . S
C601 H604 0.950 . S
C602 C601 1.387 . S
C602 C605 1.387 . S
H603 C599 0.950 . S
H604 C601 0.950 . S
C605 C596 1.390 . S
C605 H598 0.950 . S
C605 C602 1.387 . S
C606 C607 1.387 . S
C606 H610 0.950 . S
C606 C615 1.390 . S
C607 C606 1.387 . S
C607 C609 1.387 . S
H608 C615 0.950 . S
C609 C607 1.387 . S
C609 C611 1.390 . S
C609 H613 0.950 . S
H610 C606 0.950 . S
C611 C609 1.390 . S
C611 C612 1.387 . S
C611 H614 0.950 . S
C612 C611 1.387 . S
C612 C615 1.387 . S
H613 C609 0.950 . S
H614 C611 0.950 . S
C615 C606 1.390 . S
C615 H608 0.950 . S
C615 C612 1.387 . S
C616 C617 1.387 . S
C616 H620 0.950 . S
C616 C625 1.390 . S
C617 C616 1.387 . S
C617 C619 1.387 . S
H618 C625 0.950 . S
C619 C617 1.387 . S
C619 C621 1.390 . S
C619 H623 0.950 . S
H620 C616 0.950 . S
C621 C619 1.390 . S
C621 C622 1.387 . S
C621 H624 0.950 . S
C622 C621 1.387 . S
C622 C625 1.387 . S
H623 C619 0.950 . S
H624 C621 0.950 . S
C625 C616 1.390 . S
C625 H618 0.950 . S
C625 C622 1.387 . S
C626 C627 1.387 1_556 S
C626 H630 0.950 . S
C626 C635 1.390 . S
C627 C626 1.387 1_554 S
C627 C629 1.387 . S
H628 C635 0.950 . S
C629 C627 1.387 . S
C629 C631 1.390 . S
C629 H633 0.950 . S
H630 C626 0.950 . S
C631 C629 1.390 . S
C631 C632 1.387 1_554 S
C631 H634 0.950 . S
C632 C631 1.387 1_556 S
C632 C635 1.387 . S
H633 C629 0.950 . S
H634 C631 0.950 . S
C635 C626 1.390 . S
C635 H628 0.950 . S
C635 C632 1.387 . S
C397 C7 1.023 . S
C402 C100 1.096 . S
C407 C25 1.256 . S
C412 C139 1.281 . S
C417 C46 1.468 . S
C422 C178 1.349 1_545 S
C432 C202 1.203 . S
C427 C70 1.295 . S
C442 C241 1.090 . S
C437 C28 1.011 . S
C447 C49 1.303 . S
C452 C280 1.202 . S
C457 C67 1.458 . S
C462 C334 1.348 . S
C467 C4 1.247 . S
C472 C358 1.282 . S
C477 C58 1.715 . S
C482 C373 1.864 1_545 S
C492 C256 1.707 . S
C487 C66 1.634 . S
C502 C295 2.007 1_554 S
C497 C3 2.083 1_554 S
C507 C37 1.836 . S
C512 C319 1.867 . S
C522 C124 1.863 . S
C517 C79 1.711 . S
C527 C16 1.846 . S
C532 C163 1.874 . S
C542 C217 2.005 . S
C537 C24 2.075 . S
C552 C85 1.710 . S
C547 C45 1.633 . S
C562 C339 1.639 . S
C557 C19 1.327 . S
C572 C378 1.440 . S
C567 C41 1.393 . S
C577 C62 1.239 . S
C582 C261 1.269 . S
C592 C300 1.474 . S
C587 C82 1.222 . S
C602 C183 1.646 . S
C597 C40 1.333 . S
C607 C61 1.220 . S
C612 C222 1.467 . S
C622 C105 1.265 . S
C617 C83 1.252 . S
C632 C144 1.431 . S
C627 C20 1.389 . S
