# Generated by pormake.
# Topology ctn, (3,4)-cn, num edge types: 1
# Building blocks:
#     Node 0, Type 0, BuildingBlock: BETDIP_clean_linker_0, # of connection points: 3
#     Node 1, Type 0, BuildingBlock: BETDIP_clean_linker_0, # of connection points: 3
#     Node 2, Type 0, BuildingBlock: BETDIP_clean_linker_0, # of connection points: 3
#     Node 3, Type 0, BuildingBlock: BETDIP_clean_linker_0, # of connection points: 3
#     Node 4, Type 0, BuildingBlock: BETDIP_clean_linker_0, # of connection points: 3
#     Node 5, Type 0, BuildingBlock: BETDIP_clean_linker_0, # of connection points: 3
#     Node 6, Type 0, BuildingBlock: BETDIP_clean_linker_0, # of connection points: 3
#     Node 7, Type 0, BuildingBlock: BETDIP_clean_linker_0, # of connection points: 3
#     Node 8, Type 0, BuildingBlock: BETDIP_clean_linker_0, # of connection points: 3
#     Node 9, Type 0, BuildingBlock: BETDIP_clean_linker_0, # of connection points: 3
#     Node 10, Type 0, BuildingBlock: BETDIP_clean_linker_0, # of connection points: 3
#     Node 11, Type 0, BuildingBlock: BETDIP_clean_linker_0, # of connection points: 3
#     Node 12, Type 0, BuildingBlock: BETDIP_clean_linker_0, # of connection points: 3
#     Node 13, Type 0, BuildingBlock: BETDIP_clean_linker_0, # of connection points: 3
#     Node 14, Type 0, BuildingBlock: BETDIP_clean_linker_0, # of connection points: 3
#     Node 15, Type 0, BuildingBlock: BETDIP_clean_linker_0, # of connection points: 3
#     Node 16, Type 1, BuildingBlock: KUFVIS_clean_sbu_0, # of connection points: 4
#     Node 17, Type 1, BuildingBlock: KUFVIS_clean_sbu_0, # of connection points: 4
#     Node 18, Type 1, BuildingBlock: KUFVIS_clean_sbu_0, # of connection points: 4
#     Node 19, Type 1, BuildingBlock: KUFVIS_clean_sbu_0, # of connection points: 4
#     Node 20, Type 1, BuildingBlock: KUFVIS_clean_sbu_0, # of connection points: 4
#     Node 21, Type 1, BuildingBlock: KUFVIS_clean_sbu_0, # of connection points: 4
#     Node 22, Type 1, BuildingBlock: KUFVIS_clean_sbu_0, # of connection points: 4
#     Node 23, Type 1, BuildingBlock: KUFVIS_clean_sbu_0, # of connection points: 4
#     Node 24, Type 1, BuildingBlock: KUFVIS_clean_sbu_0, # of connection points: 4
#     Node 25, Type 1, BuildingBlock: KUFVIS_clean_sbu_0, # of connection points: 4
#     Node 26, Type 1, BuildingBlock: KUFVIS_clean_sbu_0, # of connection points: 4
#     Node 27, Type 1, BuildingBlock: KUFVIS_clean_sbu_0, # of connection points: 4
#     Edge 28, Type (0, 1), BuildingBlock: EZIPEK_clean_linker_0, # of connection points: 2
#     Edge 29, Type (0, 1), BuildingBlock: EZIPEK_clean_linker_0, # of connection points: 2
#     Edge 30, Type (0, 1), BuildingBlock: EZIPEK_clean_linker_0, # of connection points: 2
#     Edge 31, Type (0, 1), BuildingBlock: EZIPEK_clean_linker_0, # of connection points: 2
#     Edge 32, Type (0, 1), BuildingBlock: EZIPEK_clean_linker_0, # of connection points: 2
#     Edge 33, Type (0, 1), BuildingBlock: EZIPEK_clean_linker_0, # of connection points: 2
#     Edge 34, Type (0, 1), BuildingBlock: EZIPEK_clean_linker_0, # of connection points: 2
#     Edge 35, Type (0, 1), BuildingBlock: EZIPEK_clean_linker_0, # of connection points: 2
#     Edge 36, Type (0, 1), BuildingBlock: EZIPEK_clean_linker_0, # of connection points: 2
#     Edge 37, Type (0, 1), BuildingBlock: EZIPEK_clean_linker_0, # of connection points: 2
#     Edge 38, Type (0, 1), BuildingBlock: EZIPEK_clean_linker_0, # of connection points: 2
#     Edge 39, Type (0, 1), BuildingBlock: EZIPEK_clean_linker_0, # of connection points: 2
#     Edge 40, Type (0, 1), BuildingBlock: EZIPEK_clean_linker_0, # of connection points: 2
#     Edge 41, Type (0, 1), BuildingBlock: EZIPEK_clean_linker_0, # of connection points: 2
#     Edge 42, Type (0, 1), BuildingBlock: EZIPEK_clean_linker_0, # of connection points: 2
#     Edge 43, Type (0, 1), BuildingBlock: EZIPEK_clean_linker_0, # of connection points: 2
#     Edge 44, Type (0, 1), BuildingBlock: EZIPEK_clean_linker_0, # of connection points: 2
#     Edge 45, Type (0, 1), BuildingBlock: EZIPEK_clean_linker_0, # of connection points: 2
#     Edge 46, Type (0, 1), BuildingBlock: EZIPEK_clean_linker_0, # of connection points: 2
#     Edge 47, Type (0, 1), BuildingBlock: EZIPEK_clean_linker_0, # of connection points: 2
#     Edge 48, Type (0, 1), BuildingBlock: EZIPEK_clean_linker_0, # of connection points: 2
#     Edge 49, Type (0, 1), BuildingBlock: EZIPEK_clean_linker_0, # of connection points: 2
#     Edge 50, Type (0, 1), BuildingBlock: EZIPEK_clean_linker_0, # of connection points: 2
#     Edge 51, Type (0, 1), BuildingBlock: EZIPEK_clean_linker_0, # of connection points: 2
#     Edge 52, Type (0, 1), BuildingBlock: EZIPEK_clean_linker_0, # of connection points: 2
#     Edge 53, Type (0, 1), BuildingBlock: EZIPEK_clean_linker_0, # of connection points: 2
#     Edge 54, Type (0, 1), BuildingBlock: EZIPEK_clean_linker_0, # of connection points: 2
#     Edge 55, Type (0, 1), BuildingBlock: EZIPEK_clean_linker_0, # of connection points: 2
#     Edge 56, Type (0, 1), BuildingBlock: EZIPEK_clean_linker_0, # of connection points: 2
#     Edge 57, Type (0, 1), BuildingBlock: EZIPEK_clean_linker_0, # of connection points: 2
#     Edge 58, Type (0, 1), BuildingBlock: EZIPEK_clean_linker_0, # of connection points: 2
#     Edge 59, Type (0, 1), BuildingBlock: EZIPEK_clean_linker_0, # of connection points: 2
#     Edge 60, Type (0, 1), BuildingBlock: EZIPEK_clean_linker_0, # of connection points: 2
#     Edge 61, Type (0, 1), BuildingBlock: EZIPEK_clean_linker_0, # of connection points: 2
#     Edge 62, Type (0, 1), BuildingBlock: EZIPEK_clean_linker_0, # of connection points: 2
#     Edge 63, Type (0, 1), BuildingBlock: EZIPEK_clean_linker_0, # of connection points: 2
#     Edge 64, Type (0, 1), BuildingBlock: EZIPEK_clean_linker_0, # of connection points: 2
#     Edge 65, Type (0, 1), BuildingBlock: EZIPEK_clean_linker_0, # of connection points: 2
#     Edge 66, Type (0, 1), BuildingBlock: EZIPEK_clean_linker_0, # of connection points: 2
#     Edge 67, Type (0, 1), BuildingBlock: EZIPEK_clean_linker_0, # of connection points: 2
#     Edge 68, Type (0, 1), BuildingBlock: EZIPEK_clean_linker_0, # of connection points: 2
#     Edge 69, Type (0, 1), BuildingBlock: EZIPEK_clean_linker_0, # of connection points: 2
#     Edge 70, Type (0, 1), BuildingBlock: EZIPEK_clean_linker_0, # of connection points: 2
#     Edge 71, Type (0, 1), BuildingBlock: EZIPEK_clean_linker_0, # of connection points: 2
#     Edge 72, Type (0, 1), BuildingBlock: EZIPEK_clean_linker_0, # of connection points: 2
#     Edge 73, Type (0, 1), BuildingBlock: EZIPEK_clean_linker_0, # of connection points: 2
#     Edge 74, Type (0, 1), BuildingBlock: EZIPEK_clean_linker_0, # of connection points: 2
#     Edge 75, Type (0, 1), BuildingBlock: EZIPEK_clean_linker_0, # of connection points: 2
# Relax obj value: 0.083
# Max RMSD: 0.188
# Mean RMSD: 0.121
data_MOF--net-ctn--node1-KUFVIS_clean_sbu_0--node2-BETDIP_clean_linker_0--edge1-EZIPEK_clean_linker_0
_symmetry_space_group_name_H-M    P1
_symmetry_Int_Tables_number       1
_symmetry_cell_setting            triclinic
loop_
_symmetry_equiv_pos_as_xyz
'x, y, z'
_cell_length_a     37.063434
_cell_length_b     37.218627
_cell_length_c     41.469054
_cell_angle_alpha  94.889673
_cell_angle_beta   94.51244
_cell_angle_gamma 94.992457
loop_
_atom_site_label
_atom_site_type_symbol
_atom_site_fract_x
_atom_site_fract_y
_atom_site_fract_z
_atom_type_partial_charge
H0 H 0.03664 0.07077 0.08949 0.0
H1 H 0.10858 0.03459 0.01957 0.0
H2 H 0.09225 0.97532 0.1025 0.0
H3 H 0.10093 0.08466 0.99761 0.0
C4 C 0.07808 0.0974 1.00668 0.0
C5 C 0.05549 0.05189 0.08144 0.0
C6 C 0.06252 0.02275 0.09973 0.0
C7 C 0.07175 0.05668 0.05257 0.0
C8 C 0.09597 0.03195 0.04196 0.0
C9 C 0.10385 1.00276 0.05993 0.0
C10 C 0.08681 0.99807 0.0888 0.0
N11 N 0.06189 0.08589 0.03456 0.0
H12 H 0.30303 0.65664 0.16577 0.0
H13 H 0.39655 0.72561 0.20792 0.0
H14 H 0.33333 0.66372 0.2691 0.0
H15 H 0.38773 0.75904 0.16757 0.0
C16 C 0.36422 0.74813 0.15139 0.0
C17 C 0.32031 0.6678 0.18718 0.0
C18 C 0.31355 0.65657 0.21808 0.0
C19 C 0.34764 0.69553 0.18387 0.0
C20 C 0.37315 0.70694 0.21043 0.0
C21 C 0.36886 0.69379 0.24068 0.0
C22 C 0.33761 0.67129 0.24495 0.0
N23 N 0.34677 0.71301 0.15453 0.0
H24 H 0.95836 0.50738 0.01188 0.0
H25 H 0.03826 0.47759 0.08339 0.0
H26 H 0.97078 0.56234 0.10821 0.0
H27 H 0.05533 0.44164 0.04417 0.0
C28 C 0.03445 0.43727 0.02407 0.0
C29 C 0.97209 0.51136 0.03616 0.0
C30 C 0.96199 0.53826 0.05859 0.0
C31 C 0.99929 0.48913 0.04466 0.0
C32 C 0.01721 0.49437 0.07623 0.0
C33 C 1.00716 0.52058 0.09956 0.0
C34 C 0.97914 0.54229 0.09051 0.0
N35 N 1.00633 0.46087 0.02119 0.0
H36 H 0.69191 0.79255 0.17113 0.0
H37 H 0.73703 0.88666 0.23377 0.0
H38 H 0.79563 0.84626 0.15532 0.0
H39 H 0.69648 0.87254 0.26638 0.0
C40 C 0.67975 0.84787 0.25743 0.0
C41 C 0.71333 0.81424 0.17787 0.0
C42 C 0.74332 0.81757 0.15926 0.0
C43 C 0.71123 0.83805 0.20561 0.0
C44 C 0.73866 0.86681 0.2135 0.0
C45 C 0.76957 0.86961 0.19587 0.0
C46 C 0.7719 0.84445 0.16902 0.0
N47 N 0.6823 0.83096 0.22562 0.0
H48 H 0.02412 0.96259 0.4438 0.0
H49 H 0.11375 0.9922 0.51676 0.0
H50 H 0.10852 0.04412 0.42848 0.0
H51 H 0.09825 0.93995 0.53468 0.0
C52 C 0.07009 0.93098 0.52678 0.0
C53 C 0.04926 0.97892 0.45231 0.0
C54 C 0.064 1.0045 0.43276 0.0
C55 C 0.06719 0.9735 0.48237 0.0
C56 C 0.09979 0.99506 0.49338 0.0
C57 C 0.11417 0.02169 0.47458 0.0
C58 C 0.0965 0.02545 0.44397 0.0
N59 N 0.05144 0.94649 0.50082 0.0
H60 H 0.20864 0.73639 0.84519 0.0
H61 H 0.25683 0.66126 0.78108 0.0
H62 H 0.30505 0.68914 0.87881 0.0
H63 H 0.22007 0.68002 0.74246 0.0
C64 C 0.19856 0.69362 0.75312 0.0
C65 C 0.22984 0.71875 0.8408 0.0
C66 C 0.25719 0.71595 0.86546 0.0
C67 C 0.22944 0.69963 0.81039 0.0
C68 C 0.25686 0.67667 0.80439 0.0
C69 C 0.28429 0.67256 0.82898 0.0
C70 C 0.28404 0.69197 0.85975 0.0
N71 N 0.20055 0.70425 0.78694 0.0
H72 H 0.03102 0.58819 0.4852 0.0
H73 H 0.97697 0.4811 0.46346 0.0
H74 H 0.93509 0.55756 0.53153 0.0
H75 H 0.02215 0.47112 0.43174 0.0
C76 C 0.03221 0.49739 0.4249 0.0
C77 C 0.00915 0.56803 0.48884 0.0
C78 C 0.98484 0.57574 0.51221 0.0
C79 C 1.00617 0.53437 0.4706 0.0
C80 C 0.97856 0.50775 0.47633 0.0
C81 C 0.95135 0.51616 0.49715 0.0
C82 C 0.95514 0.55044 0.51511 0.0
N83 N 0.02997 0.52958 0.44548 0.0
H84 H 0.81407 0.85879 0.7847 0.0
H85 H 0.86965 0.78978 0.84554 0.0
H86 H 0.76926 0.82952 0.87266 0.0
H87 H 0.91997 0.82409 0.82334 0.0
C88 C 0.90935 0.82107 0.798 0.0
C89 C 0.8154 0.8444 0.80638 0.0
C90 C 0.78838 0.84734 0.82811 0.0
C91 C 0.84516 0.82481 0.81288 0.0
C92 C 0.84723 0.806 0.8409 0.0
C93 C 0.81929 0.80639 0.86213 0.0
C94 C 0.79023 0.82792 0.85595 0.0
N95 N 0.8717 0.82338 0.78994 0.0
H96 H 0.31959 0.35408 0.27594 0.0
H97 H 0.35355 0.27442 0.33756 0.0
H98 H 0.27828 0.34989 0.36939 0.0
H99 H 0.3804 0.35772 0.26604 0.0
C100 C 0.38659 0.3297 0.26532 0.0
C101 C 0.31905 0.34225 0.29889 0.0
C102 C 0.29482 0.3537 0.32109 0.0
C103 C 0.34185 0.31521 0.30587 0.0
C104 C 0.33797 0.29729 0.33396 0.0
C105 C 0.3157 0.30955 0.3579 0.0
C106 C 0.29522 0.33915 0.35147 0.0
N107 N 0.36888 0.3054 0.2851 0.0
H108 H 0.4525 0.01093 0.50637 0.0
H109 H 0.52945 0.9717 0.57477 0.0
H110 H 0.47927 0.06853 0.60121 0.0
H111 H 0.55208 0.94825 0.5304 0.0
C112 C 0.5286 0.94028 0.51317 0.0
C113 C 0.4678 0.01388 0.52997 0.0
C114 C 0.46252 0.04274 0.55279 0.0
C115 C 0.49267 0.9888 0.5372 0.0
C116 C 0.51143 0.99177 0.56823 0.0
C117 C 0.50724 0.02052 0.59142 0.0
C118 C 0.48284 0.04628 0.5835 0.0
N119 N 0.49758 0.96039 0.51311 0.0
H120 H 0.19133 0.28833 0.67424 0.0
H121 H 0.23419 0.38482 0.73504 0.0
H122 H 0.28982 0.34859 0.65349 0.0
H123 H 0.19539 0.37022 0.76835 0.0
C124 C 0.17901 0.34514 0.76011 0.0
C125 C 0.21165 0.3112 0.68004 0.0
C126 C 0.23976 0.31681 0.6596 0.0
C127 C 0.2095 0.33509 0.70779 0.0
C128 C 0.23566 0.36517 0.71461 0.0
C129 C 0.26542 0.36948 0.69583 0.0
C130 C 0.26717 0.34518 0.66835 0.0
N131 N 0.18169 0.32714 0.72873 0.0
H132 H 0.78854 0.16176 0.68109 0.0
H133 H 0.88675 0.22801 0.71546 0.0
H134 H 0.84051 0.15353 0.77625 0.0
H135 H 0.86933 0.26502 0.68033 0.0
C136 C 0.84764 0.25207 0.66307 0.0
C137 C 0.81117 0.16823 0.69937 0.0
C138 C 0.81489 0.14769 0.72653 0.0
C139 C 0.83611 0.19782 0.69535 0.0
C140 C 0.86553 0.20723 0.71888 0.0
C141 C 0.86718 0.19036 0.74784 0.0
C142 C 0.84029 0.16282 0.75237 0.0
N143 N 0.83055 0.21717 0.66739 0.0
H144 H 0.53407 0.5727 0.58765 0.0
H145 H 0.61153 0.54128 0.52128 0.0
H146 H 0.59374 0.48048 0.60333 0.0
H147 H 0.60754 0.59705 0.50517 0.0
C148 C 0.58054 0.60452 0.50935 0.0
C149 C 0.55446 0.55504 0.58061 0.0
C150 C 0.56226 0.52653 0.59938 0.0
C151 C 0.57201 0.56084 0.55259 0.0
C152 C 0.59828 0.53777 0.54328 0.0
C153 C 0.60651 0.50869 0.56142 0.0
C154 C 0.58817 0.50309 0.5895 0.0
N155 N 0.56086 0.58879 0.53361 0.0
H156 H 0.52133 0.46352 0.93861 0.0
H157 H 0.61038 0.49181 0.01242 0.0
H158 H 0.60499 0.54675 0.9257 0.0
H159 H 0.58954 0.44456 0.03508 0.0
C160 C 0.56384 0.43218 0.0232 0.0
C161 C 0.54626 0.47991 0.94765 0.0
C162 C 0.56103 0.50616 0.9288 0.0
C163 C 0.56376 0.47393 0.97772 0.0
C164 C 0.59632 0.4954 0.98927 0.0
C165 C 0.61077 0.52271 0.97109 0.0
C166 C 0.59319 0.52729 0.94063 0.0
N167 N 0.54761 0.44615 0.99519 0.0
H168 H 0.72087 0.24813 0.33614 0.0
H169 H 0.77233 0.17258 0.27548 0.0
H170 H 0.80703 0.19172 0.37772 0.0
H171 H 0.71769 0.17085 0.24386 0.0
C172 C 0.7063 0.19635 0.24929 0.0
C173 C 0.74113 0.22914 0.33348 0.0
C174 C 0.7637 0.22266 0.36054 0.0
C175 C 0.7438 0.21129 0.303 0.0
C176 C 0.76961 0.18612 0.2992 0.0
C177 C 0.79262 0.17876 0.32607 0.0
C178 C 0.78935 0.19696 0.35692 0.0
N179 N 0.72011 0.22008 0.27691 0.0
H180 H 0.53646 0.06764 0.99101 0.0
H181 H 0.45445 0.98677 0.94716 0.0
H182 H 0.42303 0.07738 1.00474 0.0
H183 H 0.48577 0.98956 0.90265 0.0
C184 C 0.51377 0.99997 0.90976 0.0
C185 C 0.50784 0.05856 0.98643 0.0
C186 C 0.48141 0.0772 1.0021 0.0
C187 C 0.49751 0.02927 0.96297 0.0
C188 C 0.46178 0.01264 0.96113 0.0
C189 C 0.43586 0.02849 0.97921 0.0
C190 C 0.44469 0.06321 0.99514 0.0
N191 N 0.52332 0.01815 0.94131 0.0
Mn192 Mn 0.26986 0.86578 0.01796 0.0
Mn193 Mn 0.25175 0.89424 0.94395 0.0
C194 C 0.2492 0.82416 0.9737 0.0
C195 C 0.30541 0.84108 0.05822 0.0
C196 C 0.20806 0.91249 1.0017 0.0
O197 O 0.30134 0.91471 0.01983 0.0
O198 O 0.29206 0.92699 0.96719 0.0
C199 C 0.31889 0.88526 0.91114 0.0
N200 N 0.28264 0.87645 0.91264 0.0
C201 C 0.27777 0.84226 0.8603 0.0
C202 C 0.31499 0.85116 0.85811 0.0
C203 C 0.33568 0.87255 0.88376 0.0
C204 C 0.26251 0.85588 0.88811 0.0
H205 H 0.33482 0.90215 0.93056 0.0
C206 C 0.30867 0.93302 0.99573 0.0
O207 O 0.27911 0.86029 0.06522 0.0
O208 O 0.31345 0.83903 0.02828 0.0
N209 N 0.21393 0.86229 0.91972 0.0
C210 C 0.17979 0.85222 0.9276 0.0
C211 C 0.15588 0.82925 0.90534 0.0
C212 C 0.1677 0.81605 0.8756 0.0
C213 C 0.20364 0.82516 0.86882 0.0
C214 C 0.22616 0.84815 0.89196 0.0
H215 H 0.17138 0.86058 0.95115 0.0
O216 O 0.24277 0.81704 1.00297 0.0
O217 O 0.26442 0.85637 0.97148 0.0
O218 O 0.22295 0.89125 0.02001 0.0
O219 O 0.21758 0.91624 0.97317 0.0
C220 C 0.21822 0.81172 0.84033 0.0
C221 C 0.25528 0.82021 0.83608 0.0
H222 H 0.32806 0.84133 0.83707 0.0
H223 H 0.36446 0.87938 0.88234 0.0
H224 H 0.12862 0.82126 0.91133 0.0
H225 H 0.14929 0.79813 0.85858 0.0
H226 H 0.20129 0.79441 0.82172 0.0
H227 H 0.2663 0.80927 0.81429 0.0
Mn228 Mn 0.16043 0.50326 0.2599 0.0
Mn229 Mn 0.13697 0.58746 0.27844 0.0
C230 C 0.19357 0.55258 0.24184 0.0
C231 C 0.19526 0.45688 0.27723 0.0
C232 C 0.09579 0.5354 0.2239 0.0
O233 O 0.12594 0.49584 0.29527 0.0
O234 O 0.11526 0.55366 0.30785 0.0
C235 C 0.17994 0.59815 0.34237 0.0
N236 N 0.17188 0.60938 0.31244 0.0
C237 C 0.21733 0.66014 0.32305 0.0
C238 C 0.22591 0.64931 0.35407 0.0
C239 C 0.20726 0.61805 0.3637 0.0
C240 C 0.19039 0.63878 0.30261 0.0
H241 H 0.16579 0.57409 0.34987 0.0
C242 C 0.11177 0.52004 0.31241 0.0
O243 O 0.16775 0.44976 0.25539 0.0
O244 O 0.20159 0.49019 0.28916 0.0
N245 N 0.15582 0.62436 0.25314 0.0
C246 C 0.14229 0.63277 0.22353 0.0
C247 C 0.15586 0.66481 0.21133 0.0
C248 C 0.18329 0.68797 0.2297 0.0
C249 C 0.19661 0.67904 0.26026 0.0
C250 C 0.18124 0.64724 0.27152 0.0
H251 H 0.12157 0.61499 0.20917 0.0
O252 O 0.19569 0.52005 0.22882 0.0
O253 O 0.17273 0.55493 0.26558 0.0
O254 O 0.11652 0.50954 0.22678 0.0
O255 O 0.10132 0.56535 0.24214 0.0
C256 C 0.22369 0.70105 0.28041 0.0
C257 C 0.23423 0.69144 0.3117 0.0
H258 H 0.24675 0.66477 0.37068 0.0
H259 H 0.21384 0.60938 0.38754 0.0
H260 H 0.14539 0.6715 0.1877 0.0
H261 H 0.19392 0.71253 0.22009 0.0
H262 H 0.23629 0.72562 0.27222 0.0
H263 H 0.25479 0.70874 0.32711 0.0
Mn264 Mn 0.79479 0.65955 0.01382 0.0
Mn265 Mn 0.71919 0.6894 0.97689 0.0
C266 C 0.73792 0.62514 0.01031 0.0
C267 C 0.84671 0.62697 0.01838 0.0
C268 C 0.75259 0.71995 0.04357 0.0
O269 O 0.8165 0.69721 0.98477 0.0
O270 O 0.76367 0.71349 0.96163 0.0
C271 C 0.72642 0.65932 0.90948 0.0
N272 N 0.70661 0.66226 0.93571 0.0
C273 C 0.65473 0.62794 0.90592 0.0
C274 C 0.67461 0.62446 0.8786 0.0
C275 C 0.71073 0.63999 0.88049 0.0
C276 C 0.67221 0.64655 0.93443 0.0
H277 H 0.75387 0.6718 0.91064 0.0
C278 C 0.79842 0.71547 0.96519 0.0
O279 O 0.84259 0.65472 0.03819 0.0
O280 O 0.82188 0.61922 0.9942 0.0
N281 N 0.67379 0.66832 0.98887 0.0
C282 C 0.65807 0.67477 0.01717 0.0
C283 C 0.62179 0.66145 0.01923 0.0
C284 C 0.60176 0.64236 0.99198 0.0
C285 C 0.61827 0.63665 0.96295 0.0
C286 C 0.65465 0.65017 0.96245 0.0
H287 H 0.67301 0.69014 0.038 0.0
O288 O 0.76306 0.62136 0.03302 0.0
O289 O 0.74628 0.64952 0.99094 0.0
O290 O 0.77865 0.69991 0.04436 0.0
O291 O 0.72877 0.71858 0.01946 0.0
C292 C 0.59978 0.61881 0.93427 0.0
C293 C 0.61809 0.61418 0.90583 0.0
H294 H 0.66237 0.61008 0.85604 0.0
H295 H 0.72626 0.6375 0.85951 0.0
H296 H 0.60918 0.66616 0.04168 0.0
H297 H 0.57369 0.63235 0.99359 0.0
H298 H 0.57156 0.60822 0.93387 0.0
H299 H 0.6037 0.59998 0.88405 0.0
Mn300 Mn 0.92544 0.03075 0.26117 0.0
Mn301 Mn 0.95505 0.94727 0.25284 0.0
C302 C 0.88803 0.98239 0.23355 0.0
C303 C 0.89353 0.07415 0.28885 0.0
C304 C 0.98107 0.00859 0.2136 0.0
O305 O 0.96752 0.03387 0.29693 0.0
O306 O 0.98155 0.97583 0.29178 0.0
C307 C 0.93083 0.91759 0.31244 0.0
N308 N 0.93017 0.91552 0.27943 0.0
C309 C 0.89279 0.85877 0.27408 0.0
C310 C 0.89327 0.8602 0.30801 0.0
C311 C 0.91219 0.88985 0.32725 0.0
C312 C 0.91171 0.8873 0.26068 0.0
H313 H 0.94552 0.94018 0.32738 0.0
C314 C 0.98465 0.00776 0.3067 0.0
O315 O 0.91748 0.08337 0.26909 0.0
O316 O 0.89014 0.04032 0.29432 0.0
N317 N 0.93036 0.91689 0.21676 0.0
C318 C 0.93153 0.92016 0.18436 0.0
C319 C 0.9122 0.89373 0.16178 0.0
C320 C 0.89229 0.86397 0.1727 0.0
C321 C 0.89203 0.86082 0.20613 0.0
C322 C 0.91159 0.88815 0.2275 0.0
H323 H 0.94683 0.94288 0.17577 0.0
O324 O 0.88308 0.01551 0.22822 0.0
O325 O 0.91539 0.97864 0.25417 0.0
O326 O 0.9611 0.03205 0.22516 0.0
O327 O 0.98199 0.97706 0.22343 0.0
C328 C 0.87301 0.83172 0.21907 0.0
C329 C 0.87366 0.83052 0.25302 0.0
H330 H 0.87888 0.83888 0.31953 0.0
H331 H 0.91251 0.89124 0.35344 0.0
H332 H 0.91261 0.89633 0.13602 0.0
H333 H 0.87735 0.84369 0.15521 0.0
H334 H 0.85761 0.81021 0.20314 0.0
H335 H 0.85869 0.80815 0.26269 0.0
Mn336 Mn 0.29438 0.16412 0.51329 0.0
Mn337 Mn 0.21583 0.18728 0.47696 0.0
C338 C 0.24019 0.12547 0.51089 0.0
C339 C 0.34901 0.13573 0.51676 0.0
C340 C 0.25179 0.22406 0.54144 0.0
O341 O 0.31165 0.20538 0.48494 0.0
O342 O 0.25746 0.2101 0.45752 0.0
C343 C 0.218 0.15223 0.41047 0.0
N344 N 0.20058 0.1569 0.43802 0.0
C345 C 0.14608 0.12322 0.4124 0.0
C346 C 0.16342 0.11784 0.38375 0.0
C347 C 0.19969 0.13207 0.38291 0.0
C348 C 0.16619 0.14221 0.43947 0.0
H349 H 0.24551 0.16409 0.4095 0.0
C350 C 0.29163 0.21896 0.46303 0.0
O351 O 0.34344 0.16286 0.53675 0.0
O352 O 0.32438 0.12703 0.49255 0.0
N353 N 0.17263 0.16684 0.49333 0.0
C354 C 0.15959 0.17519 0.5226 0.0
C355 C 0.12375 0.16285 0.52756 0.0
C356 C 0.10131 0.14304 0.50208 0.0
C357 C 0.11507 0.13542 0.47197 0.0
C358 C 0.15125 0.14775 0.46868 0.0
H359 H 0.1763 0.19146 0.54191 0.0
O360 O 0.26671 0.12293 0.53264 0.0
O361 O 0.24606 0.15032 0.4915 0.0
O362 O 0.27528 0.20146 0.5446 0.0
O363 O 0.22829 0.2209 0.51697 0.0
C364 C 0.09397 0.11708 0.44479 0.0
C365 C 0.10942 0.11116 0.41497 0.0
H366 H 0.1491 0.10302 0.36222 0.0
H367 H 0.21324 0.12814 0.36087 0.0
H368 H 0.11325 0.16908 0.5508 0.0
H369 H 0.07351 0.134 0.50586 0.0
H370 H 0.06583 0.10741 0.44653 0.0
H371 H 0.09295 0.09688 0.39429 0.0
Mn372 Mn 0.42123 0.5313 0.75823 0.0
Mn373 Mn 0.45167 0.44826 0.74952 0.0
C374 C 0.38397 0.48271 0.73095 0.0
C375 C 0.38879 0.57369 0.78666 0.0
C376 C 0.47694 0.5101 0.71048 0.0
O377 O 0.46381 0.53484 0.79347 0.0
O378 O 0.47815 0.47688 0.78841 0.0
C379 C 0.4285 0.41778 0.80911 0.0
N380 N 0.42737 0.41606 0.77609 0.0
C381 C 0.39068 0.3589 0.77067 0.0
C382 C 0.39166 0.35997 0.80461 0.0
C383 C 0.41046 0.38965 0.8239 0.0
C384 C 0.40903 0.3878 0.7573 0.0
H385 H 0.44315 0.44037 0.82409 0.0
C386 C 0.48119 0.50888 0.80319 0.0
O387 O 0.41217 0.58365 0.76662 0.0
O388 O 0.38644 0.53982 0.79194 0.0
N389 N 0.4269 0.41793 0.71343 0.0
C390 C 0.42754 0.42156 0.68105 0.0
C391 C 0.4081 0.39522 0.65846 0.0
C392 C 0.38867 0.36514 0.66934 0.0
C393 C 0.38893 0.36165 0.70274 0.0
C394 C 0.4085 0.38894 0.72413 0.0
H395 H 0.44255 0.44448 0.67251 0.0
O396 O 0.37858 0.51575 0.72573 0.0
O397 O 0.41174 0.47919 0.7512 0.0
O398 O 0.45645 0.53321 0.72184 0.0
O399 O 0.47817 0.47855 0.72022 0.0
C400 C 0.37043 0.3322 0.71565 0.0
C401 C 0.37159 0.33066 0.74958 0.0
H402 H 0.37773 0.33835 0.81611 0.0
H403 H 0.41117 0.39076 0.8501 0.0
H404 H 0.40813 0.39809 0.63271 0.0
H405 H 0.37367 0.34489 0.65184 0.0
H406 H 0.35511 0.31067 0.6997 0.0
H407 H 0.35705 0.30801 0.75922 0.0
Mn408 Mn 0.76684 0.36322 0.51786 0.0
Mn409 Mn 0.75252 0.3982 0.44652 0.0
C410 C 0.74623 0.32511 0.47111 0.0
C411 C 0.79883 0.33536 0.55841 0.0
C412 C 0.71231 0.41792 0.50567 0.0
O413 O 0.80265 0.40953 0.52161 0.0
O414 O 0.79869 0.42328 0.46888 0.0
C415 C 0.80948 0.38947 0.40166 0.0
N416 N 0.7762 0.37808 0.41067 0.0
C417 C 0.76132 0.34318 0.35891 0.0
C418 C 0.79702 0.35113 0.35102 0.0
C419 C 0.82105 0.37502 0.37227 0.0
C420 C 0.75179 0.35786 0.389 0.0
H421 H 0.82586 0.41141 0.41562 0.0
C422 C 0.8148 0.42612 0.49797 0.0
O423 O 0.77325 0.35565 0.56472 0.0
O424 O 0.80796 0.33303 0.52876 0.0
N425 N 0.70908 0.37141 0.42527 0.0
C426 C 0.67581 0.36525 0.43671 0.0
C427 C 0.64769 0.34421 0.41723 0.0
C428 C 0.65433 0.32849 0.38657 0.0
C429 C 0.68932 0.33312 0.37615 0.0
C430 C 0.71633 0.35423 0.39678 0.0
H431 H 0.67087 0.37539 0.46086 0.0
O432 O 0.73763 0.31641 0.49947 0.0
O433 O 0.76272 0.35715 0.47124 0.0
O434 O 0.72153 0.39142 0.52074 0.0
O435 O 0.72532 0.42445 0.47914 0.0
C436 C 0.69851 0.31735 0.34619 0.0
C437 C 0.73444 0.32267 0.33744 0.0
H438 H 0.80568 0.34052 0.32804 0.0
H439 H 0.84784 0.38348 0.36542 0.0
H440 H 0.62112 0.33965 0.42606 0.0
H441 H 0.63261 0.31219 0.3716 0.0
H442 H 0.67813 0.30115 0.32963 0.0
H443 H 0.74106 0.31098 0.31406 0.0
Mn444 Mn 0.65787 0.99408 0.75868 0.0
Mn445 Mn 0.63682 0.0807 0.76286 0.0
C446 C 0.69707 0.03884 0.7403 0.0
C447 C 0.68807 0.9491 0.78408 0.0
C448 C 0.60059 0.02204 0.71164 0.0
O449 O 0.61833 0.99444 0.7903 0.0
O450 O 0.61127 0.05428 0.79579 0.0
C451 C 0.67293 0.10517 0.82829 0.0
N452 N 0.66917 0.10858 0.79578 0.0
C453 C 0.71737 0.15701 0.80099 0.0
C454 C 0.72158 0.15415 0.83454 0.0
C455 C 0.6993 0.12807 0.84823 0.0
C456 C 0.69067 0.13341 0.78233 0.0
H457 H 0.65613 0.08493 0.8389 0.0
C458 C 0.60484 0.02187 0.80369 0.0
O459 O 0.66271 0.94053 0.76048 0.0
O460 O 0.69396 0.98315 0.79391 0.0
N461 N 0.66041 0.10927 0.7329 0.0
C462 C 0.65264 0.10891 0.70019 0.0
C463 C 0.67251 0.13342 0.68281 0.0
C464 C 0.69991 0.15828 0.69924 0.0
C465 C 0.70674 0.15883 0.73301 0.0
C466 C 0.68579 0.13401 0.7491 0.0
H467 H 0.63162 0.08992 0.68736 0.0
O468 O 0.69873 1.00497 0.73091 0.0
O469 O 0.67229 0.04523 0.75993 0.0
O470 O 0.61948 0.9964 0.71981 0.0
O471 O 0.60352 0.05357 0.72723 0.0
C472 C 0.73349 0.18307 0.75134 0.0
C473 C 0.73884 0.18211 0.78529 0.0
H474 H 0.74197 0.17168 0.84998 0.0
H475 H 0.70254 0.12554 0.87407 0.0
H476 H 0.66685 0.13299 0.65677 0.0
H477 H 0.71542 0.17691 0.68571 0.0
H478 H 0.75019 0.20249 0.73957 0.0
H479 H 0.75945 0.20094 0.79907 0.0
Mn480 Mn 0.03706 0.25834 0.87822 0.0
Mn481 Mn 0.95649 0.2486 0.91106 0.0
C482 C 0.9865 0.22796 0.84799 0.0
C483 C 0.07867 0.28846 0.84817 0.0
C484 C 0.02008 0.20628 0.92972 0.0
O485 O 0.04314 0.29808 0.91572 0.0
O486 O 0.98718 0.29151 0.93419 0.0
C487 C 0.92468 0.31535 0.89346 0.0
N488 N 0.92304 0.27853 0.89169 0.0
C489 C 0.8649 0.27282 0.86048 0.0
C490 C 0.86607 0.31068 0.86189 0.0
C491 C 0.89614 0.33202 0.87837 0.0
C492 C 0.89423 0.25774 0.87585 0.0
H493 H 0.94748 0.33186 0.90643 0.0
C494 C 0.01929 0.30778 0.93452 0.0
O495 O 0.08884 0.26647 0.86901 0.0
O496 O 0.04466 0.29456 0.84599 0.0
N497 N 0.92474 0.20861 0.89008 0.0
C498 C 0.92803 0.17245 0.89045 0.0
C499 C 0.90073 0.14739 0.87411 0.0
C500 C 0.87017 0.15972 0.85784 0.0
C501 C 0.86708 0.19702 0.85828 0.0
C502 C 0.89518 0.22073 0.87491 0.0
H503 H 0.95147 0.16274 0.90284 0.0
O504 O 0.01905 0.22145 0.8412 0.0
O505 O 0.98469 0.25085 0.87313 0.0
O506 O 0.04135 0.21944 0.91012 0.0
O507 O 0.98801 0.21555 0.93226 0.0
C508 C 0.83726 0.21158 0.84277 0.0
C509 C 0.83604 0.24945 0.84402 0.0
H510 H 0.84412 0.32365 0.85025 0.0
H511 H 0.89723 0.36126 0.87956 0.0
H512 H 0.90331 0.11864 0.87395 0.0
H513 H 0.84925 0.14032 0.84512 0.0
H514 H 0.81524 0.19383 0.82973 0.0
H515 H 0.81304 0.26032 0.83181 0.0
Mn516 Mn 0.5368 0.75714 0.37318 0.0
Mn517 Mn 0.4562 0.74858 0.40618 0.0
C518 C 0.48595 0.72716 0.34309 0.0
C519 C 0.57858 0.78748 0.34324 0.0
C520 C 0.52013 0.70692 0.426 0.0
O521 O 0.54299 0.79706 0.41059 0.0
O522 O 0.48624 0.79259 0.42771 0.0
C523 C 0.42265 0.81371 0.38668 0.0
N524 N 0.42212 0.777 0.38555 0.0
C525 C 0.36459 0.76912 0.35328 0.0
C526 C 0.3648 0.80684 0.35379 0.0
C527 C 0.39397 0.82922 0.37056 0.0
C528 C 0.39399 0.75521 0.36973 0.0
H529 H 0.44461 0.83101 0.40002 0.0
C530 C 0.51869 0.80812 0.4283 0.0
O531 O 0.58865 0.76519 0.36385 0.0
O532 O 0.54456 0.79347 0.34101 0.0
N533 N 0.42521 0.70744 0.38627 0.0
C534 C 0.42901 0.67156 0.38813 0.0
C535 C 0.40232 0.64555 0.37223 0.0
C536 C 0.37187 0.65666 0.35478 0.0
C537 C 0.36822 0.69371 0.35368 0.0
C538 C 0.39566 0.7184 0.37004 0.0
H539 H 0.45236 0.66279 0.40144 0.0
O540 O 0.51838 0.72035 0.33613 0.0
O541 O 0.48451 0.74996 0.36832 0.0
O542 O 0.54083 0.71822 0.40513 0.0
O543 O 0.48848 0.71721 0.42895 0.0
C544 C 0.33846 0.70709 0.3369 0.0
C545 C 0.33657 0.74476 0.33679 0.0
H546 H 0.34275 0.81891 0.34134 0.0
H547 H 0.39425 0.85838 0.37121 0.0
H548 H 0.4053 0.617 0.37329 0.0
H549 H 0.35144 0.63652 0.34236 0.0
H550 H 0.31693 0.6886 0.32396 0.0
H551 H 0.31361 0.75472 0.32367 0.0
Mn552 Mn 0.02645 0.76366 0.63048 0.0
Mn553 Mn 0.98569 0.69057 0.66125 0.0
C554 C 0.01564 0.70855 0.59859 0.0
C555 C 0.02563 0.81605 0.60343 0.0
C556 C 0.06573 0.71594 0.6765 0.0
O557 O 1.00554 0.78655 0.67094 0.0
O558 O 0.97989 0.73558 0.68834 0.0
C559 C 0.91117 0.71157 0.64744 0.0
N560 N 0.93589 0.68673 0.64422 0.0
C561 C 0.89198 0.64471 0.61154 0.0
C562 C 0.866 0.66971 0.61468 0.0
C563 C 0.8757 0.70337 0.63259 0.0
C564 C 0.92711 0.6547 0.62634 0.0
H565 H 0.91842 0.73752 0.66113 0.0
C566 C 0.98736 0.76986 0.69098 0.0
O567 O 0.05303 0.81054 0.62318 0.0
O568 O 0.99746 0.7923 0.60087 0.0
N569 N 0.98745 0.64403 0.63841 0.0
C570 C 0.01369 0.62096 0.64217 0.0
C571 C 1.00794 0.58549 0.62719 0.0
C572 C 0.97451 0.57352 0.60976 0.0
C573 C 0.94676 0.59675 0.60826 0.0
C574 C 0.95423 0.63185 0.62369 0.0
H575 H 0.03804 0.62896 0.65782 0.0
O576 O 0.03927 0.73371 0.59142 0.0
O577 O 0.99798 0.71677 0.62376 0.0
O578 O 0.06533 0.74297 0.65951 0.0
O579 O 0.0378 0.69355 0.67863 0.0
C580 C 0.91153 0.58601 0.59336 0.0
C581 C 0.88432 0.61016 0.59457 0.0
H582 H 0.83852 0.66332 0.60351 0.0
H583 H 0.85586 0.72289 0.63504 0.0
H584 H 0.02888 0.56715 0.62977 0.0
H585 H 0.97007 0.54598 0.59889 0.0
H586 H 0.90479 0.55909 0.58137 0.0
H587 H 0.85737 0.60156 0.583 0.0
Mn588 Mn 0.53049 0.26279 0.1239 0.0
Mn589 Mn 0.50136 0.18938 0.16152 0.0
C590 C 0.52192 0.20593 0.09435 0.0
C591 C 0.52274 0.31333 0.09518 0.0
C592 C 0.57808 0.22631 0.172 0.0
O593 O 0.50884 0.28481 0.16422 0.0
O594 O 0.48476 0.23377 0.18326 0.0
C595 C 0.42115 0.18654 0.15177 0.0
N596 N 0.45241 0.1703 0.14868 0.0
C597 C 0.4191 0.11168 0.13608 0.0
C598 C 0.38651 0.12783 0.13863 0.0
C599 C 0.38754 0.16547 0.14623 0.0
C600 C 0.45168 0.1342 0.14094 0.0
H601 H 0.42189 0.21527 0.15861 0.0
C602 C 0.48917 0.26826 0.18339 0.0
O603 O 0.55176 0.31083 0.11394 0.0
O604 O 0.49681 0.28721 0.09412 0.0
N605 N 0.51463 0.14429 0.14271 0.0
C606 C 0.54831 0.13358 0.13863 0.0
C607 C 0.55198 0.09706 0.12909 0.0
C608 C 0.52112 0.07179 0.12483 0.0
C609 C 0.48676 0.08347 0.12939 0.0
C610 C 0.48469 0.12042 0.13771 0.0
H611 H 0.57215 0.1527 0.14296 0.0
O612 O 0.54299 0.23232 0.08541 0.0
O613 O 0.50605 0.21347 0.12084 0.0
O614 O 0.5748 0.24919 0.15122 0.0
O615 O 0.55195 0.20448 0.17853 0.0
C616 C 0.45444 0.05999 0.12583 0.0
C617 C 0.4206 0.07411 0.12904 0.0
H618 H 0.36056 0.1116 0.13487 0.0
H619 H 0.36252 0.17809 0.14843 0.0
H620 H 0.5786 0.08826 0.12565 0.0
H621 H 0.52412 0.04353 0.11798 0.0
H622 H 0.45519 0.03119 0.11976 0.0
H623 H 0.39587 0.05593 0.12552 0.0
C624 C 0.28687 0.76696 0.90557 0.0
C625 C 0.25761 0.74001 0.89636 0.0
C626 C 0.22244 0.76761 0.93838 0.0
C627 C 0.25216 0.79403 0.94802 0.0
N628 N 0.31715 0.80949 0.94829 0.0
N629 N 0.2018 0.70887 0.90977 0.0
C630 C 0.28579 0.79079 0.93401 0.0
C631 C 0.22667 0.73855 0.91463 0.0
N632 N 0.31494 0.77135 0.88634 0.0
N633 N 0.18983 0.77082 0.95106 0.0
H634 H 0.20476 0.68674 0.89329 0.0
H635 H 0.18042 0.70452 0.92426 0.0
H636 H 0.18574 0.79143 0.96866 0.0
H637 H 0.16605 0.75487 0.94222 0.0
H638 H 0.33582 0.79218 0.89089 0.0
H639 H 0.31567 0.75665 0.86396 0.0
H640 H 0.34279 0.80494 0.94106 0.0
H641 H 0.31837 0.82663 0.96953 0.0
C642 C 0.0351 0.51598 0.36816 0.0
C643 C 0.0512 0.49952 0.39467 0.0
C644 C 0.10651 0.49385 0.36633 0.0
C645 C 0.09002 0.50944 0.33939 0.0
N646 N 0.03597 0.52735 0.31142 0.0
N647 N 0.09869 0.46594 0.41649 0.0
C648 C 0.05349 0.5182 0.33939 0.0
C649 C 0.08569 0.48603 0.39281 0.0
N650 N 1.00227 0.52972 0.37054 0.0
N651 N 0.14264 0.48862 0.36761 0.0
H652 H 0.0848 0.46078 0.43677 0.0
H653 H 0.12175 0.45202 0.41478 0.0
H654 H 0.15903 0.49435 0.34905 0.0
H655 H 0.15721 0.48135 0.38817 0.0
H656 H 0.99122 0.54603 0.35389 0.0
H657 H 0.98679 0.52646 0.39022 0.0
H658 H 1.00832 0.53064 0.30875 0.0
H659 H 0.04832 0.52825 0.2897 0.0
C660 C 0.82362 0.79934 0.92279 0.0
C661 C 0.82017 0.78321 0.89018 0.0
C662 C 0.82052 0.7231 0.9109 0.0
C663 C 0.81684 0.73873 0.94262 0.0
N664 N 0.8157 0.79171 0.97962 0.0
N665 N 0.81094 0.72869 0.85322 0.0
C666 C 0.81906 0.77696 0.94885 0.0
C667 C 0.81801 0.74477 0.88423 0.0
N668 N 0.83203 0.83588 0.92888 0.0
N669 N 0.82575 0.68723 0.90631 0.0
H670 H 0.80718 0.74325 0.83303 0.0
H671 H 0.80525 0.70083 0.84779 0.0
H672 H 0.8275 0.67098 0.92559 0.0
H673 H 0.83181 0.67469 0.88422 0.0
H674 H 0.83809 0.84893 0.95214 0.0
H675 H 0.83606 0.85286 0.91046 0.0
H676 H 0.81236 0.81893 0.9854 0.0
H677 H 0.81502 0.77599 0.99929 0.0
C678 C 0.01235 0.02549 0.39817 0.0
C679 C 0.0455 0.00914 0.40022 0.0
C680 C 0.04291 1.00175 0.34061 0.0
C681 C 1.0071 0.01281 0.33866 0.0
N682 N 0.95527 0.02937 0.36683 0.0
N683 N 0.09082 0.978 0.37338 0.0
C684 C 0.99124 0.02355 0.36774 0.0
C685 C 0.06055 0.9965 0.37141 0.0
N686 N 1.00116 0.04326 0.42528 0.0
N687 N 0.06033 0.99682 0.31298 0.0
H688 H 0.10443 0.97337 0.39539 0.0
H689 H 0.10069 0.96461 0.3533 0.0
H690 H 0.04827 1.00065 0.29015 0.0
H691 H 0.08771 0.99244 0.31302 0.0
H692 H 0.97923 0.05898 0.42458 0.0
H693 H 0.01593 0.04523 0.44795 0.0
H694 H 0.94153 0.0332 0.38763 0.0
H695 H 0.93807 0.02689 0.34552 0.0
C696 C 0.216 0.29443 0.60175 0.0
C697 C 0.2416 0.29306 0.62897 0.0
C698 C 0.27889 0.25757 0.59478 0.0
C699 C 0.25077 0.25342 0.56895 0.0
N700 N 0.20208 0.28328 0.54346 0.0
N701 N 0.29412 0.26777 0.65266 0.0
C702 C 0.22152 0.27585 0.57111 0.0
C703 C 0.27203 0.27297 0.62581 0.0
N704 N 0.1866 0.31383 0.60506 0.0
N705 N 0.3135 0.25064 0.58887 0.0
H706 H 0.28948 0.27777 0.6761 0.0
H707 H 0.31467 0.25037 0.65194 0.0
H708 H 0.32125 0.24552 0.5654 0.0
H709 H 0.33551 0.25593 0.60638 0.0
H710 H 0.16417 0.31177 0.58805 0.0
H711 H 0.18345 0.33076 0.62577 0.0
H712 H 0.18152 0.30057 0.54296 0.0
H713 H 0.21016 0.27719 0.52034 0.0
C714 C 0.50326 0.51135 0.62372 0.0
C715 C 0.54135 0.52105 0.62845 0.0
C716 C 0.53729 0.52575 0.68775 0.0
C717 C 0.49888 0.51854 0.68274 0.0
N718 N 0.44483 0.51331 0.64583 0.0
N719 N 0.59405 0.54296 0.66488 0.0
C720 C 0.48175 0.51406 0.65065 0.0
C721 C 0.55829 0.52963 0.6605 0.0
N722 N 0.48773 0.49835 0.59351 0.0
N723 N 0.55365 0.52907 0.71866 0.0
H724 H 0.61023 0.54601 0.64565 0.0
H725 H 0.6071 0.5534 0.68729 0.0
H726 H 0.53879 0.52983 0.73898 0.0
H727 H 0.58162 0.52973 0.72411 0.0
H728 H 0.46082 0.4873 0.58911 0.0
H729 H 0.5027 0.49522 0.57334 0.0
H730 H 0.43085 0.51339 0.62305 0.0
H731 H 0.42855 0.51673 0.66499 0.0
C732 C 0.86169 0.29007 0.61714 0.0
C733 C 0.83551 0.27223 0.63517 0.0
C734 C 0.78676 0.28999 0.59828 0.0
C735 C 0.81248 0.31191 0.5831 0.0
N736 N 0.87444 0.33653 0.58077 0.0
N737 N 0.77281 0.26396 0.64764 0.0
C738 C 0.85005 0.31287 0.59312 0.0
C739 C 0.79792 0.27442 0.62701 0.0
N740 N 0.89755 0.2844 0.62224 0.0
N741 N 0.75173 0.28307 0.58476 0.0
H742 H 0.77978 0.25521 0.67032 0.0
H743 H 0.74544 0.26828 0.64404 0.0
H744 H 0.74265 0.29266 0.56294 0.0
H745 H 0.73292 0.26443 0.59325 0.0
H746 H 0.9173 0.29367 0.60761 0.0
H747 H 0.90712 0.26763 0.63926 0.0
H748 H 0.90163 0.34134 0.58978 0.0
H749 H 0.86689 0.35358 0.56323 0.0
C750 C 0.51435 0.01608 0.65263 0.0
C751 C 0.5301 0.02309 0.62332 0.0
C752 C 0.59074 0.01905 0.65068 0.0
C753 C 0.57568 0.01683 0.68091 0.0
N754 N 0.52299 0.014 0.7112 0.0
N755 N 0.58399 0.0389 0.59664 0.0
C756 C 0.53737 0.01582 0.68203 0.0
C757 C 0.56854 0.02689 0.62309 0.0
N758 N 0.47764 0.00792 0.65212 0.0
N759 N 0.62603 0.01238 0.64795 0.0
H760 H 0.56865 0.04587 0.5763 0.0
H761 H 0.61184 0.04558 0.59632 0.0
H762 H 0.64211 1.0038 0.66699 0.0
H763 H 0.63773 0.01075 0.62589 0.0
H764 H 0.46483 0.99883 0.67176 0.0
H765 H 0.46005 0.00772 0.63121 0.0
H766 H 0.49603 0.01785 0.71471 0.0
H767 H 0.5387 0.00956 0.7322 0.0
C768 C 0.92117 0.1737 0.78233 0.0
C769 C 0.89803 0.20035 0.77328 0.0
C770 C 0.93615 0.24605 0.80989 0.0
C771 C 0.95546 0.2183 0.82283 0.0
N772 N 0.96404 0.15482 0.82313 0.0
N773 N 0.88031 0.26106 0.78208 0.0
C774 C 0.94733 0.18185 0.80949 0.0
C775 C 0.90463 0.23634 0.78808 0.0
N776 N 0.9195 0.14119 0.76396 0.0
N777 N 0.94869 0.2817 0.81712 0.0
H778 H 0.85595 0.25461 0.76758 0.0
H779 H 0.88239 0.28698 0.7941 0.0
H780 H 0.97242 0.29035 0.83184 0.0
H781 H 0.93766 0.30264 0.80575 0.0
H782 H 0.93812 0.12219 0.76749 0.0
H783 H 0.90199 0.13471 0.74294 0.0
H784 H 0.95617 0.12741 0.81681 0.0
H785 H 0.98335 0.15968 0.84301 0.0
C786 C 0.5375 0.87423 0.50341 0.0
C787 C 0.52906 0.90706 0.49065 0.0
C788 C 0.51871 0.87564 0.43577 0.0
C789 C 0.52701 0.84294 0.4487 0.0
N790 N 0.55485 0.81332 0.49209 0.0
N791 N 0.52112 0.94118 0.44411 0.0
C792 C 0.5397 0.84293 0.48174 0.0
C793 C 0.52229 0.90843 0.45661 0.0
N794 N 0.54177 0.87247 0.53627 0.0
N795 N 0.50714 0.87524 0.4036 0.0
H796 H 0.52498 0.96579 0.45854 0.0
H797 H 0.51978 0.94434 0.41937 0.0
H798 H 0.50681 0.85231 0.38719 0.0
H799 H 0.49619 0.89695 0.39345 0.0
H800 H 0.54396 0.84835 0.54698 0.0
H801 H 0.54016 0.89465 0.55307 0.0
H802 H 0.56747 0.81256 0.51532 0.0
H803 H 0.5584 0.79093 0.47614 0.0
C804 C 0.15124 0.29345 0.78833 0.0
C805 C 0.15293 0.3305 0.78236 0.0
C806 C 0.10892 0.341 0.82271 0.0
C807 C 0.10414 0.30322 0.82561 0.0
N808 N 0.11448 0.24258 0.80488 0.0
N809 N 0.12894 0.38863 0.79 0.0
C810 C 0.1235 0.27915 0.80663 0.0
C811 C 0.13055 0.35408 0.79852 0.0
N812 N 0.17724 0.27223 0.77821 0.0
N813 N 0.09401 0.36453 0.84383 0.0
H814 H 0.14388 0.39914 0.77209 0.0
H815 H 0.11028 0.40574 0.79851 0.0
H816 H 0.07859 0.35604 0.86225 0.0
H817 H 0.09976 0.39253 0.84507 0.0
H818 H 0.17909 0.24601 0.7848 0.0
H819 H 0.19946 0.28205 0.76654 0.0
H820 H 0.12536 0.22426 0.78876 0.0
H821 H 0.09336 0.2308 0.81678 0.0
C822 C 0.55135 0.66279 0.5025 0.0
C823 C 0.56392 0.63052 0.48834 0.0
C824 C 0.54343 0.6464 0.43388 0.0
C825 C 0.53345 0.67995 0.44775 0.0
N826 N 0.52983 0.72156 0.49504 0.0
N827 N 0.57541 0.593 0.44054 0.0
C828 C 0.53747 0.68833 0.48205 0.0
C829 C 0.5611 0.62286 0.45402 0.0
N830 N 0.5533 0.66943 0.53558 0.0
N831 N 0.5342 0.63615 0.40161 0.0
H832 H 0.58622 0.5736 0.4542 0.0
H833 H 0.5786 0.58843 0.41585 0.0
H834 H 0.52054 0.65223 0.38626 0.0
H835 H 0.53688 0.61046 0.39058 0.0
H836 H 0.5399 0.68928 0.54763 0.0
H837 H 0.56745 0.65425 0.5514 0.0
H838 H 0.53655 0.73154 0.51916 0.0
H839 H 0.51847 0.74052 0.4813 0.0
C840 C 0.93166 0.83023 0.74292 0.0
C841 C 0.93386 0.81264 0.77202 0.0
C842 C 0.98101 0.77733 0.75064 0.0
C843 C 0.97365 0.78976 0.71953 0.0
N844 N 0.93876 0.82585 0.6852 0.0
N845 N 0.95879 0.76675 0.80263 0.0
C846 C 0.94844 0.81599 0.71545 0.0
C847 C 0.95848 0.78587 0.77587 0.0
N848 N 0.91463 0.86127 0.74182 0.0
N849 N 0.00963 0.75718 0.75606 0.0
H850 H 0.9425 0.77146 0.82162 0.0
H851 H 0.97296 0.74397 0.80477 0.0
H852 H 0.02632 0.7498 0.73802 0.0
H853 H 0.01887 0.75073 0.77904 0.0
H854 H 0.91505 0.87702 0.72223 0.0
H855 H 0.90375 0.87351 0.76196 0.0
H856 H 0.91731 0.84149 0.68043 0.0
H857 H 0.95017 0.81619 0.66438 0.0
C858 C 0.03915 0.86823 0.52928 0.0
C859 C 0.0515 0.90303 0.54502 0.0
C860 C 0.03584 0.88236 0.59737 0.0
C861 C 0.02865 0.84648 0.58249 0.0
N862 N 0.02544 0.80422 0.53456 0.0
N863 N 0.0621 0.94382 0.59389 0.0
C864 C 0.03002 0.83921 0.54839 0.0
C865 C 0.04975 0.9103 0.57903 0.0
N866 N 0.03704 0.86254 0.49615 0.0
N867 N 0.02856 0.88968 0.62896 0.0
H868 H 0.07022 0.96562 0.58105 0.0
H869 H 0.06592 0.94972 0.61898 0.0
H870 H 0.01779 0.86975 0.64269 0.0
H871 H 0.02995 0.9157 0.64065 0.0
H872 H 0.02387 0.83932 0.48308 0.0
H873 H 0.04634 0.8819 0.48129 0.0
H874 H 0.03099 0.79658 0.51087 0.0
H875 H 0.01834 0.78211 0.54729 0.0
C876 C 0.15222 0.73465 0.7343 0.0
C877 C 0.16578 0.70008 0.73219 0.0
C878 C 0.11782 0.67859 0.68925 0.0
C879 C 0.10071 0.7109 0.69517 0.0
N880 N 0.10048 0.76916 0.72586 0.0
N881 N 0.15862 0.63734 0.71047 0.0
C882 C 0.11762 0.73885 0.7184 0.0
C883 C 0.14785 0.67154 0.71039 0.0
N884 N 0.17323 0.76397 0.74994 0.0
N885 N 0.10691 0.65565 0.6622 0.0
H886 H 0.1804 0.6308 0.72564 0.0
H887 H 0.14387 0.61484 0.6975 0.0
H888 H 0.08666 0.66143 0.64519 0.0
H889 H 0.12062 0.63349 0.65484 0.0
H890 H 0.16623 0.79045 0.74957 0.0
H891 H 0.19961 0.76248 0.76018 0.0
H892 H 0.10946 0.7881 0.74543 0.0
H893 H 0.07578 0.7742 0.71415 0.0
C894 C 0.02497 0.61622 0.55457 0.0
C895 C 0.9918 0.60985 0.53451 0.0
C896 C 0.97293 0.66756 0.558 0.0
C897 C 1.00725 0.67468 0.57642 0.0
N898 N 0.06973 0.66073 0.58354 0.0
N899 N 0.93723 0.63283 0.51227 0.0
C900 C 0.03449 0.65067 0.57189 0.0
C901 C 0.96644 0.6364 0.53496 0.0
N902 N 0.04668 0.58877 0.55856 0.0
N903 N 0.94674 0.69084 0.56206 0.0
H904 H 0.93231 0.61111 0.4944 0.0
H905 H 0.91966 0.65284 0.50916 0.0
H906 H 0.95124 0.71526 0.57671 0.0
H907 H 0.91984 0.68495 0.55253 0.0
H908 H 0.06925 0.5911 0.57553 0.0
H909 H 0.03988 0.56243 0.54786 0.0
H910 H 0.0911 0.64559 0.57777 0.0
H911 H 0.07824 0.68557 0.59658 0.0
C912 C 0.81155 0.92265 0.18284 0.0
C913 C 0.79973 0.89882 0.2057 0.0
C914 C 0.84178 0.93382 0.2479 0.0
C915 C 0.85817 0.95307 0.22381 0.0
N916 N 0.86042 0.96303 0.16724 0.0
N917 N 0.80831 0.87835 0.25936 0.0
C918 C 0.84351 0.9467 0.19094 0.0
C919 C 0.81616 0.90346 0.23811 0.0
N920 N 0.79119 0.92388 0.15408 0.0
N921 N 0.8494 0.94523 0.28012 0.0
H922 H 0.79236 0.85403 0.25253 0.0
H923 H 0.82087 0.8796 0.28284 0.0
H924 H 0.86676 0.96818 0.28855 0.0
H925 H 0.83544 0.93423 0.29836 0.0
H926 H 0.79674 0.94318 0.13792 0.0
H927 H 0.76637 0.90843 0.14803 0.0
H928 H 0.85326 0.95626 0.14253 0.0
H929 H 0.8839 0.98066 0.17223 0.0
C930 C 0.80641 0.11467 0.31198 0.0
C931 C 0.81948 0.15132 0.32118 0.0
C932 C 0.88198 0.13536 0.31578 0.0
C933 C 0.86827 0.1002 0.30166 0.0
N934 N 0.81569 0.05933 0.28026 0.0
N935 N 0.86975 0.19784 0.32788 0.0
C936 C 0.83002 0.09045 0.29838 0.0
C937 C 0.85735 0.16204 0.32221 0.0
N938 N 0.77134 0.10286 0.31638 0.0
N939 N 0.91843 0.14303 0.32397 0.0
H940 H 0.85268 0.21815 0.33247 0.0
H941 H 0.89647 0.20766 0.32535 0.0
H942 H 0.93708 0.12391 0.32055 0.0
H943 H 0.92964 0.16702 0.33716 0.0
H944 H 0.76136 0.07562 0.31314 0.0
H945 H 0.75338 0.11979 0.32653 0.0
H946 H 0.78787 0.05305 0.27442 0.0
H947 H 0.83126 0.04169 0.26785 0.0
C948 C 0.4065 0.97626 1.0052 0.0
C949 C 0.40253 1.00634 0.98672 0.0
C950 C 0.33632 0.99459 0.98614 0.0
C951 C 0.34059 0.96068 0.99866 0.0
N952 N 0.38137 0.91653 0.01449 0.0
N953 N 0.36322 0.04294 0.95741 0.0
C954 C 0.37608 0.95087 1.00709 0.0
C955 C 0.36725 0.01544 0.97681 0.0
N956 N 0.43916 0.9722 0.02155 0.0
N957 N 0.30264 0.00686 0.9834 0.0
H958 H 0.38529 0.05835 0.94977 0.0
H959 H 0.33816 0.04845 0.94673 0.0
H960 H 0.27976 0.99247 0.99081 0.0
H961 H 0.29813 0.03267 0.97703 0.0
H962 H 0.44237 0.9526 0.0378 0.0
H963 H 0.46196 0.99077 0.02175 0.0
H964 H 0.40708 0.90726 0.01723 0.0
H965 H 0.36035 0.89615 0.0147 0.0
C966 C 0.28199 0.41593 0.30574 0.0
C967 C 0.26861 0.3804 0.31154 0.0
C968 C 0.20623 0.39537 0.2969 0.0
C969 C 0.2201 0.42937 0.28749 0.0
N970 N 0.27263 0.46768 0.27561 0.0
N971 N 0.21839 0.33375 0.30519 0.0
C972 C 0.25842 0.43848 0.28993 0.0
C973 C 0.2308 0.36938 0.30507 0.0
N974 N 0.31717 0.42845 0.31583 0.0
N975 N 0.16983 0.38827 0.29941 0.0
H976 H 0.23559 0.31368 0.30962 0.0
H977 H 0.19171 0.32366 0.29754 0.0
H978 H 0.15104 0.4068 0.29461 0.0
H979 H 0.15883 0.36542 0.30937 0.0
H980 H 0.32738 0.45534 0.31519 0.0
H981 H 0.33508 0.41288 0.32785 0.0
H982 H 0.30041 0.47354 0.27408 0.0
H983 H 0.25672 0.48358 0.26189 0.0
C984 C 0.17831 0.04586 0.46706 0.0
C985 C 0.14827 0.04543 0.4863 0.0
C986 C 0.18307 0.09111 0.52597 0.0
C987 C 0.20977 0.09626 0.50369 0.0
N988 N 0.23328 0.07822 0.45261 0.0
N989 N 0.12049 0.07078 0.53287 0.0
C990 C 0.20747 0.07356 0.47409 0.0
C991 C 0.1504 0.0685 0.51576 0.0
N992 N 0.17982 0.0186 0.44305 0.0
N993 N 0.18847 0.10845 0.55659 0.0
H994 H 0.09529 0.05682 0.5252 0.0
H995 H 0.11948 0.08933 0.55296 0.0
H996 H 0.2111 0.12667 0.56432 0.0
H997 H 0.17188 0.1028 0.57501 0.0
H998 H 0.20253 0.01537 0.43019 0.0
H999 H 0.15989 0.9968 0.43834 0.0
H1000 H 0.23014 0.06631 0.42878 0.0
H1001 H 0.2571 0.09543 0.45793 0.0
C1002 C 0.78745 0.09622 0.75778 0.0
C1003 C 0.79042 0.11283 0.72846 0.0
C1004 C 0.73698 0.07307 0.70448 0.0
C1005 C 0.72843 0.06534 0.73616 0.0
N1006 N 0.7479 0.06843 0.79369 0.0
N1007 N 0.78384 0.0941 0.67119 0.0
C1008 C 0.75413 0.07693 0.76311 0.0
C1009 C 0.76962 0.09481 0.7006 0.0
N1010 N 0.81806 0.09129 0.77673 0.0
N1011 N 0.71352 0.06048 0.67817 0.0
H1012 H 0.81038 0.10485 0.66889 0.0
H1013 H 0.77173 0.07878 0.65034 0.0
H1014 H 0.68954 0.04454 0.68025 0.0
H1015 H 0.71617 0.06859 0.65497 0.0
H1016 H 0.8177 0.07663 0.79706 0.0
H1017 H 0.84386 0.09621 0.76866 0.0
H1018 H 0.76467 0.07964 0.81411 0.0
H1019 H 0.72512 0.05235 0.79899 0.0
C1020 C 0.40102 0.06577 0.55931 0.0
C1021 C 0.43425 0.06794 0.54444 0.0
C1022 C 0.41005 0.11162 0.50851 0.0
C1023 C 0.37819 0.11177 0.52538 0.0
N1024 N 0.34572 0.09283 0.57035 0.0
N1025 N 0.47266 0.09665 0.50799 0.0
C1026 C 0.37451 0.09009 0.55188 0.0
C1027 C 0.43934 0.09188 0.5198 0.0
N1028 N 0.39385 0.03915 0.57934 0.0
N1029 N 0.41224 0.13021 0.4816 0.0
H1030 H 0.49467 0.08308 0.516 0.0
H1031 H 0.47947 0.11615 0.49239 0.0
H1032 H 0.39185 0.14574 0.47343 0.0
H1033 H 0.43288 0.12827 0.46609 0.0
H1034 H 0.36846 0.03327 0.58776 0.0
H1035 H 0.41223 0.02058 0.58527 0.0
H1036 H 0.34411 0.0815 0.59236 0.0
H1037 H 0.32456 0.10859 0.56506 0.0
C1038 C 0.62505 0.46435 0.51791 0.0
C1039 C 0.6329 0.48324 0.54914 0.0
C1040 C 0.69257 0.45826 0.55279 0.0
C1041 C 0.68596 0.44248 0.51996 0.0
N1042 N 0.64953 0.44314 0.46859 0.0
N1043 N 0.67689 0.50294 0.59446 0.0
C1044 C 0.65333 0.44915 0.50167 0.0
C1045 C 0.66735 0.48127 0.56625 0.0
N1046 N 0.59021 0.46044 0.50372 0.0
N1047 N 0.72358 0.45242 0.5709 0.0
H1048 H 0.65946 0.52023 0.60487 0.0
H1049 H 0.70299 0.50603 0.60623 0.0
H1050 H 0.74504 0.44018 0.56114 0.0
H1051 H 0.72755 0.45872 0.59595 0.0
H1052 H 0.5823 0.44383 0.48236 0.0
H1053 H 0.56856 0.47045 0.51515 0.0
H1054 H 0.62731 0.4505 0.45448 0.0
H1055 H 0.6703 0.43593 0.45473 0.0
C1056 C 0.78934 0.2723 0.40336 0.0
C1057 C 0.76105 0.2452 0.39175 0.0
C1058 C 0.72214 0.27033 0.43202 0.0
C1059 C 0.75124 0.2963 0.44468 0.0
N1060 N 0.81646 0.31279 0.44873 0.0
N1061 N 0.70322 0.21359 0.39914 0.0
C1062 C 0.78601 0.29451 0.43231 0.0
C1063 C 0.72825 0.24274 0.40744 0.0
N1064 N 0.81879 0.2783 0.38597 0.0
N1065 N 0.68836 0.27275 0.44256 0.0
H1066 H 0.70719 0.19279 0.38162 0.0
H1067 H 0.6803 0.20829 0.41159 0.0
H1068 H 0.68297 0.29223 0.46069 0.0
H1069 H 0.66513 0.25736 0.43161 0.0
H1070 H 0.83818 0.30041 0.39156 0.0
H1071 H 0.82211 0.26352 0.36411 0.0
H1072 H 0.84265 0.30925 0.44238 0.0
H1073 H 0.81634 0.32816 0.47079 0.0
C1074 C 0.57232 0.99267 0.88369 0.0
C1075 C 0.53769 1.00615 0.88313 0.0
C1076 C 0.54593 0.02775 0.82958 0.0
C1077 C 0.58163 0.0164 0.83102 0.0
N1078 N 0.6317 0.99546 0.86286 0.0
N1079 N 0.49447 0.04299 0.85892 0.0
C1080 C 0.59563 1.0008 0.85901 0.0
C1081 C 0.52527 0.02543 0.85697 0.0
N1082 N 0.58252 0.97111 0.90723 0.0
N1083 N 0.5312 0.03976 0.80168 0.0
H1084 H 0.47879 0.04248 0.87872 0.0
H1085 H 0.48628 0.0609 0.84242 0.0
H1086 H 0.54557 0.04293 0.78139 0.0
H1087 H 0.50386 0.04396 0.79769 0.0
H1088 H 0.60562 0.95707 0.90684 0.0
H1089 H 0.56629 0.96482 0.92579 0.0
H1090 H 0.64426 0.98774 0.88421 0.0
H1091 H 0.65002 1.00219 0.84602 0.0
C1092 C 0.27937 0.28538 0.40266 0.0
C1093 C 0.31302 0.29044 0.38876 0.0
C1094 C 0.33827 0.25077 0.42833 0.0
C1095 C 0.30503 0.24888 0.44326 0.0
N1096 N 0.2531 0.28199 0.45358 0.0
N1097 N 0.37826 0.2889 0.3992 0.0
C1098 C 0.27903 0.27266 0.43367 0.0
C1099 C 0.34383 0.27648 0.40484 0.0
N1100 N 0.24709 0.28901 0.38563 0.0
N1101 N 0.36406 0.22802 0.43544 0.0
H1102 H 0.38351 0.31031 0.38504 0.0
H1103 H 0.40126 0.28115 0.41195 0.0
H1104 H 0.36137 0.20929 0.45254 0.0
H1105 H 0.38706 0.22646 0.42262 0.0
H1106 H 0.22218 0.28354 0.39518 0.0
H1107 H 0.24495 0.29188 0.36083 0.0
H1108 H 0.23445 0.30032 0.4475 0.0
H1109 H 0.25341 0.27465 0.47733 0.0
C1110 C 0.50954 0.52742 0.8944 0.0
C1111 C 0.54276 0.51123 0.89633 0.0
C1112 C 0.53978 0.50342 0.83674 0.0
C1113 C 0.50388 0.51424 0.83497 0.0
N1114 N 0.45217 0.5307 0.86339 0.0
N1115 N 0.58824 0.4804 0.86943 0.0
C1116 C 0.48819 0.52515 0.86411 0.0
C1117 C 0.55775 0.49857 0.8675 0.0
N1118 N 0.49848 0.54526 0.92153 0.0
N1119 N 0.55694 0.49826 0.80898 0.0
H1120 H 0.60217 0.4762 0.89142 0.0
H1121 H 0.59807 0.46693 0.84937 0.0
H1122 H 0.5446 0.50161 0.78613 0.0
H1123 H 0.58435 0.49408 0.80887 0.0
H1124 H 0.47644 0.56084 0.92091 0.0
H1125 H 0.51346 0.54745 0.94412 0.0
H1126 H 0.4386 0.53465 0.88429 0.0
H1127 H 0.43476 0.52783 0.8422 0.0
C1128 C 0.75172 0.75599 0.13249 0.0
C1129 C 0.74509 0.79253 0.12955 0.0
C1130 C 0.74607 0.7825 0.0703 0.0
C1131 C 0.74915 0.74504 0.07299 0.0
N1132 N 0.74669 0.69493 0.10653 0.0
N1133 N 0.72934 0.83918 0.09549 0.0
C1134 C 0.74973 0.73144 0.10408 0.0
C1135 C 0.74032 0.80539 0.09837 0.0
N1136 N 0.76098 0.74491 0.16238 0.0
N1137 N 0.7503 0.79666 0.04134 0.0
H1138 H 0.7247 0.85666 0.11545 0.0
H1139 H 0.72165 0.84858 0.07326 0.0
H1140 H 0.75506 0.78111 0.02028 0.0
H1141 H 0.75245 0.82437 0.03887 0.0
H1142 H 0.77011 0.71966 0.16562 0.0
H1143 H 0.76277 0.76208 0.1838 0.0
H1144 H 0.74301 0.68354 0.12826 0.0
H1145 H 0.74408 0.67586 0.08643 0.0
C1146 C 1.00412 0.01085 0.12594 0.0
C1147 C 0.04256 0.01802 0.12948 0.0
C1148 C 0.04101 0.02087 0.189 0.0
C1149 C 1.00238 0.0165 0.1853 0.0
N1150 N 0.94737 0.01649 0.1502 0.0
N1151 N 0.09733 0.03571 0.16457 0.0
C1152 C 0.98403 0.01435 0.15373 0.0
C1153 C 0.06101 0.02452 0.16111 0.0
N1154 N 0.9868 0.99942 0.09602 0.0
N1155 N 0.05858 0.02177 0.21928 0.0
H1156 H 0.11278 0.03869 0.14484 0.0
H1157 H 0.11164 0.04463 0.18682 0.0
H1158 H 0.04474 0.02256 0.24021 0.0
H1159 H 0.08646 0.02032 0.22354 0.0
H1160 H 0.95933 0.99012 0.09242 0.0
H1161 H 1.00063 0.99564 0.07521 0.0
H1162 H 0.93293 0.01834 0.12791 0.0
H1163 H 0.93208 0.02067 0.16994 0.0
C1164 C 0.37318 0.79177 0.10862 0.0
C1165 C 0.34932 0.77188 0.12734 0.0
C1166 C 0.29722 0.79436 0.09803 0.0
C1167 C 0.32103 0.81755 0.08202 0.0
N1168 N 0.38209 0.84275 0.07635 0.0
N1169 N 0.28933 0.76375 0.14631 0.0
C1170 C 0.3592 0.81747 0.08845 0.0
C1171 C 0.31151 0.77577 0.12388 0.0
N1172 N 0.40897 0.78536 0.10928 0.0
N1173 N 0.26105 0.78861 0.08775 0.0
H1174 H 0.29892 0.75272 0.16723 0.0
H1175 H 0.26215 0.76902 0.14626 0.0
H1176 H 0.24938 0.79997 0.0678 0.0
H1177 H 0.24349 0.76918 0.09672 0.0
H1178 H 0.42675 0.79625 0.09364 0.0
H1179 H 0.42019 0.76656 0.1234 0.0
H1180 H 0.40997 0.84642 0.0829 0.0
H1181 H 0.37274 0.86239 0.06216 0.0
C1182 C 0.042 0.55867 0.14785 0.0
C1183 C 0.02583 0.52451 0.13359 0.0
C1184 C 0.04941 0.49702 0.18237 0.0
C1185 C 0.06553 0.53166 0.19632 0.0
N1186 N 0.05403 0.59514 0.1987 0.0
N1187 N 1.00445 0.46335 0.14256 0.0
C1188 C 0.05506 0.5626 0.18117 0.0
C1189 C 0.02678 0.49417 0.15237 0.0
N1190 N 0.04603 0.58747 0.12973 0.0
N1191 N 0.05413 0.46703 0.19844 0.0
H1192 H 0.98602 0.4611 0.12199 0.0
H1193 H 1.00133 0.44145 0.15645 0.0
H1194 H 0.06391 0.46861 0.22284 0.0
H1195 H 0.04811 0.44069 0.18757 0.0
H1196 H 0.06029 0.61204 0.13907 0.0
H1197 H 0.0388 0.58561 0.10479 0.0
H1198 H 0.04463 0.61752 0.18831 0.0
H1199 H 0.05641 0.59822 0.22398 0.0
C1200 C 0.41957 0.67463 0.27735 0.0
C1201 C 0.39809 0.70228 0.26764 0.0
C1202 C 0.43671 0.74689 0.3048 0.0
C1203 C 0.45486 0.71843 0.3179 0.0
N1204 N 0.46133 0.65457 0.31849 0.0
N1205 N 0.38284 0.76386 0.275 0.0
C1206 C 0.44561 0.68208 0.30468 0.0
C1207 C 0.40565 0.73817 0.28228 0.0
N1208 N 0.4166 0.64184 0.25932 0.0
N1209 N 0.45013 0.78225 0.31241 0.0
H1210 H 0.35949 0.75829 0.25898 0.0
H1211 H 0.38512 0.78977 0.28705 0.0
H1212 H 0.47352 0.79026 0.32776 0.0
H1213 H 0.44014 0.80364 0.30096 0.0
H1214 H 0.43402 0.62186 0.26325 0.0
H1215 H 0.39917 0.63593 0.23819 0.0
H1216 H 0.45266 0.6273 0.3123 0.0
H1217 H 0.4808 0.65897 0.3383 0.0
C1218 C 0.03712 0.37001 0.01253 0.0
C1219 C 0.03399 0.40445 1.00069 0.0
C1220 C 0.02417 0.37559 0.94478 0.0
C1221 C 0.02809 0.34139 0.95668 0.0
N1222 N 0.04846 0.30728 1.00012 0.0
N1223 N 0.03459 0.44092 0.9553 0.0
C1224 C 0.03771 0.33899 0.99007 0.0
C1225 C 0.03034 0.40754 0.9667 0.0
N1226 N 0.03778 0.36654 0.04512 0.0
N1227 N 0.01392 0.37752 0.91262 0.0
H1228 H 0.04084 0.46477 0.97055 0.0
H1229 H 0.03574 0.44475 0.93081 0.0
H1230 H 0.01098 0.35497 0.89553 0.0
H1231 H 1.00617 0.40103 0.90321 0.0
H1232 H 0.03596 0.34159 0.0548 0.0
H1233 H 0.037 0.38837 0.06248 0.0
H1234 H 0.05892 0.30455 0.02375 0.0
H1235 H 0.05072 0.28482 0.98382 0.0
C1236 C 0.63105 0.85529 0.29596 0.0
C1237 C 0.65355 0.83234 0.27922 0.0
C1238 C 0.62397 0.77983 0.30187 0.0
C1239 C 0.60432 0.80316 0.32131 0.0
N1240 N 0.59394 0.8639 0.34114 0.0
N1241 N 0.67792 0.77417 0.27344 0.0
C1242 C 0.60912 0.84117 0.31952 0.0
C1243 C 0.65182 0.79496 0.2841 0.0
N1244 N 0.62963 0.89027 0.28857 0.0
N1245 N 0.61514 0.7432 0.29921 0.0
H1246 H 0.70018 0.78453 0.26212 0.0
H1247 H 0.67977 0.74766 0.27923 0.0
H1248 H 0.59406 0.73088 0.31082 0.0
H1249 H 0.62617 0.72542 0.28273 0.0
H1250 H 0.61089 0.90706 0.29744 0.0
H1251 H 0.64488 0.90156 0.27123 0.0
H1252 H 0.59966 0.89194 0.34325 0.0
H1253 H 0.57828 0.85465 0.35912 0.0
C1254 C 0.05321 0.11676 0.95342 0.0
C1255 C 0.06178 0.12488 0.98737 0.0
C1256 C 0.03738 0.1839 0.98421 0.0
C1257 C 0.03286 0.17762 0.94974 0.0
N1258 N 0.03855 0.1387 0.90107 0.0
N1259 N 0.06864 0.16893 0.03412 0.0
C1260 C 0.04156 0.14427 0.93422 0.0
C1261 C 0.05541 0.15909 1.00259 0.0
N1262 N 0.05453 0.08218 0.93971 0.0
N1263 N 0.02447 0.21349 0.99957 0.0
H1264 H 0.08331 0.15226 0.04808 0.0
H1265 H 0.06844 0.195 0.04541 0.0
H1266 H 0.01192 0.23292 0.9873 0.0
H1267 H 0.02336 0.21717 0.02465 0.0
H1268 H 0.04472 0.07341 0.91587 0.0
H1269 H 0.06238 0.06112 0.95295 0.0
H1270 H 0.04898 0.11722 0.88828 0.0
H1271 H 0.02733 0.15665 0.88608 0.0
C1272 C 0.44563 0.30227 0.25921 0.0
C1273 C 0.41533 0.3177 0.24484 0.0
C1274 C 0.43753 0.30691 0.19086 0.0
C1275 C 0.46666 0.28922 0.20495 0.0
N1276 N 0.49676 0.26691 0.25193 0.0
N1277 N 0.38622 0.34217 0.19863 0.0
C1278 C 0.47036 0.28627 0.23901 0.0
C1279 C 0.41263 0.32253 0.21119 0.0
N1280 N 0.45205 0.30503 0.29232 0.0
N1281 N 0.43164 0.30587 0.15776 0.0
H1282 H 0.36604 0.35208 0.21211 0.0
H1283 H 0.38554 0.35091 0.17544 0.0
H1284 H 0.44856 0.29431 0.14174 0.0
H1285 H 0.40845 0.31393 0.1457 0.0
H1286 H 0.47562 0.29789 0.30449 0.0
H1287 H 0.43548 0.31801 0.30788 0.0
H1288 H 0.49799 0.25942 0.27557 0.0
H1289 H 0.5164 0.25621 0.23834 0.0
C1290 C 0.53738 0.40888 0.07222 0.0
C1291 C 0.54462 0.40246 0.03917 0.0
C1292 C 0.52724 0.33731 0.04066 0.0
C1293 C 0.52182 0.34366 0.07411 0.0
N1294 N 0.51249 0.38506 0.11958 0.0
N1295 N 0.53993 0.362 0.98996 0.0
C1296 C 0.52389 0.37946 0.08914 0.0
C1297 C 0.53694 0.36719 0.02264 0.0
N1298 N 0.54426 0.44307 0.08762 0.0
N1299 N 0.52576 0.30248 0.02675 0.0
H1300 H 0.54991 0.38226 0.9763 0.0
H1301 H 0.53053 0.3381 0.97578 0.0
H1302 H 0.51746 0.28007 0.03871 0.0
H1303 H 0.53424 0.2954 1.00394 0.0
H1304 H 0.54391 0.44908 0.11255 0.0
H1305 H 0.55171 0.46565 0.07549 0.0
H1306 H 0.51033 0.41051 0.13133 0.0
H1307 H 0.50203 0.36381 0.13204 0.0
C1308 C 0.67419 0.20209 0.19431 0.0
C1309 C 0.67435 0.20568 0.22872 0.0
C1310 C 0.6168 0.23318 0.22415 0.0
C1311 C 0.61379 0.22447 0.19018 0.0
N1312 N 0.63835 0.19845 0.14237 0.0
N1313 N 0.6407 0.2164 0.27586 0.0
C1314 C 0.64227 0.20852 0.17499 0.0
C1315 C 0.64439 0.21921 0.24361 0.0
N1316 N 0.70479 0.19361 0.18012 0.0
N1317 N 0.59351 0.25531 0.23773 0.0
H1318 H 0.65821 0.20298 0.29052 0.0
H1319 H 0.61769 0.22323 0.28703 0.0
H1320 H 0.57437 0.26746 0.22355 0.0
H1321 H 0.59625 0.26498 0.26223 0.0
H1322 H 0.70752 0.19428 0.15537 0.0
H1323 H 0.72868 0.18883 0.19342 0.0
H1324 H 0.65607 0.18269 0.13054 0.0
H1325 H 0.61603 0.20409 0.12737 0.0
C1326 C 0.52343 0.1345 0.02295 0.0
C1327 C 0.492 0.11039 0.02598 0.0
C1328 C 0.47615 0.15494 0.06787 0.0
C1329 C 0.51183 0.17267 0.07137 0.0
N1330 N 0.57281 0.17175 0.05386 0.0
N1331 N 0.44478 0.09688 0.06281 0.0
C1332 C 0.53674 0.16 0.04959 0.0
C1333 C 0.47023 0.12008 0.05172 0.0
N1334 N 0.53859 0.13609 0.99414 0.0
N1335 N 0.44685 0.17068 0.07811 0.0
H1336 H 0.4423 0.0689 0.05698 0.0
H1337 H 0.4423 0.0689 0.05698 0.0
H1338 H 0.44776 0.1978 0.08717 0.0
H1339 H 0.44776 0.1978 0.08717 0.0
H1340 H 0.56031 0.15497 0.99117 0.0
H1341 H 0.52613 0.12267 0.97248 0.0
H1342 H 0.59151 0.16132 0.03889 0.0
H1343 H 0.5844 0.18824 0.07425 0.0
C1344 C 0.30602 0.42323 0.68214 0.0
C1345 C 0.29527 0.39914 0.70517 0.0
C1346 C 0.33857 0.43401 0.74641 0.0
C1347 C 0.35404 0.45333 0.72191 0.0
N1348 N 0.35411 0.46357 0.66523 0.0
N1349 N 0.30631 0.3782 0.75844 0.0
C1350 C 0.33819 0.44714 0.6894 0.0
C1351 C 0.31293 0.40358 0.73715 0.0
N1352 N 0.28449 0.42478 0.65407 0.0
N1353 N 0.34708 0.4454 0.77853 0.0
H1354 H 0.29071 0.35363 0.75183 0.0
H1355 H 0.31963 0.37951 0.78163 0.0
H1356 H 0.36448 0.46841 0.78665 0.0
H1357 H 0.33376 0.43429 0.79709 0.0
H1358 H 0.28936 0.44424 0.63791 0.0
H1359 H 0.25949 0.40945 0.64876 0.0
H1360 H 0.34599 0.4569 0.64066 0.0
H1361 H 0.37763 0.48124 0.66959 0.0
C1362 C 0.34941 0.65987 0.82014 0.0
C1363 C 0.31243 0.64697 0.822 0.0
C1364 C 0.32513 0.58694 0.79891 0.0
C1365 C 0.36288 0.59873 0.80002 0.0
N1366 N 0.41165 0.64463 0.81922 0.0
N1367 N 0.26779 0.59573 0.82125 0.0
C1368 C 0.37527 0.6347 0.8129 0.0
C1369 C 0.30125 0.60965 0.81409 0.0
N1370 N 0.35966 0.69621 0.82371 0.0
N1371 N 0.31125 0.5553 0.78138 0.0
H1372 H 0.24977 0.61144 0.83283 0.0
H1373 H 0.25964 0.56804 0.81883 0.0
H1374 H 0.32669 0.53897 0.76744 0.0
H1375 H 0.28345 0.54749 0.7774 0.0
H1376 H 0.38539 0.70726 0.81925 0.0
H1377 H 0.34146 0.7155 0.82809 0.0
H1378 H 0.42204 0.66945 0.83143 0.0
H1379 H 0.43131 0.62667 0.81541 0.0
C1380 C 0.9028 0.48607 0.52958 0.0
C1381 C 0.91835 0.48988 0.49945 0.0
C1382 C 0.87488 0.44005 0.47646 0.0
C1383 C 0.85231 0.4454 0.50202 0.0
N1384 N 0.84636 0.47652 0.55478 0.0
N1385 N 0.90899 0.47386 0.4409 0.0
C1386 C 0.86661 0.4693 0.52939 0.0
C1387 C 0.90169 0.46773 0.47178 0.0
N1388 N 0.92335 0.49531 0.55819 0.0
N1389 N 0.87276 0.40771 0.45819 0.0
H1390 H 0.92391 0.49724 0.43536 0.0
H1391 H 0.89577 0.45785 0.42079 0.0
H1392 H 0.85525 0.38564 0.46296 0.0
H1393 H 0.89072 0.4026 0.44052 0.0
H1394 H 0.91375 0.49071 0.58061 0.0
H1395 H 0.9512 0.50267 0.55878 0.0
H1396 H 0.8556 0.49586 0.57404 0.0
H1397 H 0.81957 0.46557 0.55516 0.0
C1398 C 0.72322 0.86156 0.81292 0.0
C1399 C 0.76044 0.87345 0.82188 0.0
C1400 C 0.75044 0.93279 0.8032 0.0
C1401 C 0.71243 0.92246 0.7971 0.0
N1402 N 0.66186 0.87893 0.8036 0.0
N1403 N 0.80611 0.92389 0.8347 0.0
C1404 C 0.69851 0.88735 0.80412 0.0
C1405 C 0.77279 0.9103 0.82017 0.0
N1406 N 0.71162 0.82559 0.81153 0.0
N1407 N 0.76604 0.96266 0.79074 0.0
H1408 H 0.82294 0.90833 0.84796 0.0
H1409 H 0.81507 0.95139 0.83656 0.0
H1410 H 0.75186 0.97804 0.77512 0.0
H1411 H 0.79408 0.9693 0.79233 0.0
H1412 H 0.68576 0.81491 0.80177 0.0
H1413 H 0.72876 0.80605 0.81783 0.0
H1414 H 0.65038 0.855 0.81144 0.0
H1415 H 0.64305 0.89739 0.79856 0.0
C1416 C 0.64661 0.56917 0.01277 0.0
C1417 C 0.64483 0.54638 0.98323 0.0
C1418 C 0.70448 0.57459 0.97198 0.0
C1419 C 0.70663 0.59681 1.00191 0.0
N1420 N 0.68421 0.6081 0.05451 0.0
N1421 N 0.67673 0.52029 0.9399 0.0
C1422 C 0.67931 0.59145 0.02364 0.0
C1423 C 0.67512 0.54713 0.96428 0.0
N1424 N 0.61636 0.57146 0.02942 0.0
N1425 N 0.73069 0.5793 0.95089 0.0
H1426 H 0.65665 0.4987 0.93464 0.0
H1427 H 0.69957 0.51716 0.92722 0.0
H1428 H 0.75487 0.59582 0.95673 0.0
H1429 H 0.72762 0.56803 0.92685 0.0
H1430 H 0.615 0.59012 0.04937 0.0
H1431 H 0.59127 0.55739 0.02147 0.0
H1432 H 0.66716 0.60216 0.07253 0.0
H1433 H 0.70689 0.62587 0.06284 0.0
C1434 C 0.28627 0.60367 0.24605 0.0
C1435 C 0.28198 0.62942 0.22285 0.0
C1436 C 0.22013 0.60006 0.20813 0.0
C1437 C 0.22218 0.58136 0.23648 0.0
N1438 N 0.25722 0.57027 0.28573 0.0
N1439 N 0.23922 0.65619 0.18666 0.0
C1440 C 0.25506 0.5852 0.25678 0.0
C1441 C 0.24734 0.62871 0.20495 0.0
N1442 N 0.3199 0.59413 0.2557 0.0
N1443 N 0.19238 0.59086 0.18447 0.0
H1444 H 0.25506 0.68093 0.18861 0.0
H1445 H 0.21436 0.65639 0.17311 0.0
H1446 H 0.17155 0.57063 0.18649 0.0
H1447 H 0.19165 0.60173 0.16209 0.0
H1448 H 0.3238 0.57358 0.27086 0.0
H1449 H 0.34309 0.60294 0.24486 0.0
H1450 H 0.28028 0.575 0.30219 0.0
H1451 H 0.23505 0.55632 0.29459 0.0
C1452 C 0.93891 0.58771 0.02612 0.0
C1453 C 0.93241 0.56121 0.04835 0.0
C1454 C 0.86967 0.57767 0.05045 0.0
C1455 C 0.8754 0.60244 0.0266 0.0
N1456 N 0.91363 0.62752 0.98832 0.0
N1457 N 0.88966 0.52623 0.07689 0.0
C1458 C 0.9095 0.6063 0.01334 0.0
C1459 C 0.89723 0.55492 0.05921 0.0
N1460 N 0.97356 0.59606 0.01817 0.0
N1461 N 0.83805 0.57637 0.06538 0.0
H1462 H 0.909 0.50903 0.08391 0.0
H1463 H 0.86354 0.51754 0.08229 0.0
H1464 H 0.81653 0.59119 0.05879 0.0
H1465 H 0.83406 0.5625 0.08577 0.0
H1466 H 0.98099 0.61751 1.00477 0.0
H1467 H 0.99569 0.58334 0.02726 0.0
H1468 H 0.93645 0.62875 0.97521 0.0
H1469 H 0.89283 0.64184 0.97893 0.0
C1470 C 0.11904 0.95425 0.01848 0.0
C1471 C 0.12975 0.97715 0.04732 0.0
C1472 C 0.1917 0.95787 0.04639 0.0
C1473 C 0.18152 0.93675 0.01605 0.0
N1474 N 0.13755 0.92528 0.96903 0.0
N1475 N 0.17742 1.00489 0.08662 0.0
C1476 C 0.14579 0.93786 1.00086 0.0
C1477 C 0.16635 0.97984 0.06088 0.0
N1478 N 0.08297 0.94782 0.00799 0.0
N1479 N 0.22611 0.95801 0.06096 0.0
H1480 H 0.15966 0.02089 0.09819 0.0
H1481 H 0.20448 0.01166 0.09531 0.0
H1482 H 0.24731 0.9476 0.04924 0.0
H1483 H 0.2336 0.96786 0.08503 0.0
H1484 H 0.07299 0.92834 0.98913 0.0
H1485 H 0.06266 0.95929 0.02033 0.0
H1486 H 0.11288 0.92833 0.95617 0.0
H1487 H 0.15676 0.91662 0.95404 0.0
loop_
_geom_bond_atom_site_label_1
_geom_bond_atom_site_label_2
_geom_bond_distance
_geom_bond_site_symmetry_2
_ccdc_geom_bond_type
H0 C5 0.930 . S
H1 C8 0.906 1_556 S
H2 C10 0.930 1_565 S
H3 C4 1.016 . S
C4 H3 1.016 . S
C4 N11 1.286 1_556 S
C5 H0 0.930 . S
C5 C6 1.397 . S
C5 C7 1.361 . S
C6 C5 1.397 . S
C6 C10 1.390 . S
C7 C5 1.361 . S
C7 C8 1.393 . S
C7 N11 1.413 . S
C8 H1 0.906 1_554 S
C8 C7 1.393 . S
C8 C9 1.399 . S
C9 C8 1.399 . S
C9 C10 1.381 . S
C10 H2 0.930 1_545 S
C10 C6 1.390 . S
C10 C9 1.381 . S
N11 C4 1.286 1_554 S
N11 C7 1.413 . S
H12 C17 0.930 . S
H13 C20 0.930 . S
H14 C22 0.930 . S
H15 C16 1.016 . S
C16 H15 1.016 . S
C16 N23 1.286 . S
C17 H12 0.930 . S
C17 C18 1.397 . S
C17 C19 1.361 . S
C18 C17 1.397 . S
C18 C22 1.390 . S
C19 C17 1.361 . S
C19 C20 1.393 . S
C19 N23 1.413 . S
C20 H13 0.930 . S
C20 C19 1.393 . S
C20 C21 1.399 . S
C21 C20 1.399 . S
C21 C22 1.381 . S
C22 H14 0.930 . S
C22 C18 1.390 . S
C22 C21 1.381 . S
N23 C16 1.286 . S
N23 C19 1.413 . S
H24 C29 0.930 . S
H25 C32 0.930 1_455 S
H26 C34 0.930 . S
H27 C28 1.016 1_454 S
C28 H27 1.016 1_656 S
C28 N35 1.286 . S
C29 H24 0.930 . S
C29 C30 1.397 . S
C29 C31 1.361 . S
C30 C29 1.397 . S
C30 C34 1.390 . S
C31 C29 1.361 . S
C31 C32 1.393 . S
C31 N35 1.413 1_554 S
C32 H25 0.930 1_655 S
C32 C31 1.393 . S
C32 C33 1.399 . S
C33 C32 1.399 . S
C33 C34 1.381 . S
C34 H26 0.930 . S
C34 C30 1.390 . S
C34 C33 1.381 . S
N35 C28 1.286 . S
N35 C31 1.413 1_556 S
H36 C41 0.930 . S
H37 C44 0.930 . S
H38 C46 0.930 . S
H39 C40 1.016 . S
C40 H39 1.016 . S
C40 N47 1.286 . S
C41 H36 0.930 . S
C41 C42 1.397 . S
C41 C43 1.361 . S
C42 C41 1.397 . S
C42 C46 1.390 . S
C43 C41 1.361 . S
C43 C44 1.393 . S
C43 N47 1.413 . S
C44 H37 0.930 . S
C44 C43 1.393 . S
C44 C45 1.399 . S
C45 C44 1.399 . S
C45 C46 1.381 . S
C46 H38 0.930 . S
C46 C42 1.390 . S
C46 C45 1.381 . S
N47 C40 1.286 . S
N47 C43 1.413 . S
H48 C53 0.930 . S
H49 C56 0.930 . S
H50 C58 0.930 . S
H51 C52 1.016 . S
C52 H51 1.016 . S
C52 N59 1.286 . S
C53 H48 0.930 . S
C53 C54 1.389 1_565 S
C53 C55 1.361 . S
C54 C53 1.389 1_545 S
C54 C58 1.395 . S
C55 C53 1.361 . S
C55 C56 1.393 . S
C55 N59 1.413 . S
C56 H49 0.930 . S
C56 C55 1.393 . S
C56 C57 1.399 1_565 S
C57 C56 1.399 1_545 S
C57 C58 1.381 . S
C58 H50 0.930 . S
C58 C54 1.395 . S
C58 C57 1.381 . S
N59 C52 1.286 . S
N59 C55 1.413 . S
H60 C65 0.930 . S
H61 C68 0.930 . S
H62 C70 0.930 . S
H63 C64 1.016 . S
C64 H63 1.016 . S
C64 N71 1.286 . S
C65 H60 0.930 . S
C65 C66 1.397 . S
C65 C67 1.361 . S
C66 C65 1.397 . S
C66 C70 1.390 . S
C67 C65 1.361 . S
C67 C68 1.393 . S
C67 N71 1.413 . S
C68 H61 0.930 . S
C68 C67 1.393 . S
C68 C69 1.399 . S
C69 C68 1.399 . S
C69 C70 1.381 . S
C70 H62 0.930 . S
C70 C66 1.390 . S
C70 C69 1.381 . S
N71 C64 1.286 . S
N71 C67 1.413 . S
H72 C77 0.930 . S
H73 C80 0.930 . S
H74 C82 0.930 . S
H75 C76 1.016 . S
C76 H75 1.016 . S
C76 N83 1.286 . S
C77 H72 0.930 . S
C77 C78 1.397 1_455 S
C77 C79 1.361 . S
C78 C77 1.397 1_655 S
C78 C82 1.390 . S
C79 C77 1.361 . S
C79 C80 1.393 1_455 S
C79 N83 1.413 . S
C80 H73 0.930 . S
C80 C79 1.393 1_655 S
C80 C81 1.399 . S
C81 C80 1.399 . S
C81 C82 1.381 . S
C82 H74 0.930 . S
C82 C78 1.390 . S
C82 C81 1.381 . S
N83 C76 1.286 . S
N83 C79 1.413 . S
H84 C89 0.930 . S
H85 C92 0.930 . S
H86 C94 0.930 . S
H87 C88 1.016 . S
C88 H87 1.016 . S
C88 N95 1.286 . S
C89 H84 0.930 . S
C89 C90 1.397 . S
C89 C91 1.361 . S
C90 C89 1.397 . S
C90 C94 1.390 . S
C91 C89 1.361 . S
C91 C92 1.393 . S
C91 N95 1.413 . S
C92 H85 0.930 . S
C92 C91 1.393 . S
C92 C93 1.399 . S
C93 C92 1.399 . S
C93 C94 1.381 . S
C94 H86 0.930 . S
C94 C90 1.390 . S
C94 C93 1.381 . S
N95 C88 1.286 . S
N95 C91 1.413 . S
H96 C101 0.930 . S
H97 C104 0.930 . S
H98 C106 0.930 . S
H99 C100 1.016 . S
C100 H99 1.016 . S
C100 N107 1.286 . S
C101 H96 0.930 . S
C101 C102 1.397 . S
C101 C103 1.361 . S
C102 C101 1.397 . S
C102 C106 1.390 . S
C103 C101 1.361 . S
C103 C104 1.393 . S
C103 N107 1.413 . S
C104 H97 0.930 . S
C104 C103 1.393 . S
C104 C105 1.399 . S
C105 C104 1.399 . S
C105 C106 1.381 . S
C106 H98 0.930 . S
C106 C102 1.390 . S
C106 C105 1.381 . S
N107 C100 1.286 . S
N107 C103 1.413 . S
H108 C113 0.930 . S
H109 C116 0.930 . S
H110 C118 0.930 . S
H111 C112 1.016 . S
C112 H111 1.016 . S
C112 N119 1.286 . S
C113 H108 0.930 . S
C113 C114 1.397 1_565 S
C113 C115 1.361 . S
C114 C113 1.397 1_545 S
C114 C118 1.390 . S
C115 C113 1.361 . S
C115 C116 1.393 . S
C115 N119 1.413 . S
C116 H109 0.930 . S
C116 C115 1.393 . S
C116 C117 1.399 . S
C117 C116 1.399 . S
C117 C118 1.381 1_565 S
C118 H110 0.930 . S
C118 C114 1.390 . S
C118 C117 1.381 1_545 S
N119 C112 1.286 . S
N119 C115 1.413 . S
H120 C125 0.930 . S
H121 C128 0.930 . S
H122 C130 0.930 . S
H123 C124 1.016 . S
C124 H123 1.016 . S
C124 N131 1.286 . S
C125 H120 0.930 . S
C125 C126 1.397 . S
C125 C127 1.361 . S
C126 C125 1.397 . S
C126 C130 1.390 . S
C127 C125 1.361 . S
C127 C128 1.393 . S
C127 N131 1.413 . S
C128 H121 0.930 . S
C128 C127 1.393 . S
C128 C129 1.399 . S
C129 C128 1.399 . S
C129 C130 1.381 . S
C130 H122 0.930 . S
C130 C126 1.390 . S
C130 C129 1.381 . S
N131 C124 1.286 . S
N131 C127 1.413 . S
H132 C137 0.930 . S
H133 C140 0.930 . S
H134 C142 0.930 . S
H135 C136 1.016 . S
C136 H135 1.016 . S
C136 N143 1.286 . S
C137 H132 0.930 . S
C137 C138 1.397 . S
C137 C139 1.361 . S
C138 C137 1.397 . S
C138 C142 1.390 . S
C139 C137 1.361 . S
C139 C140 1.393 . S
C139 N143 1.413 . S
C140 H133 0.930 . S
C140 C139 1.393 . S
C140 C141 1.399 . S
C141 C140 1.399 . S
C141 C142 1.381 . S
C142 H134 0.930 . S
C142 C138 1.390 . S
C142 C141 1.381 . S
N143 C136 1.286 . S
N143 C139 1.413 . S
H144 C149 0.930 . S
H145 C152 0.930 . S
H146 C154 0.930 . S
H147 C148 1.016 . S
C148 H147 1.016 . S
C148 N155 1.286 . S
C149 H144 0.930 . S
C149 C150 1.397 . S
C149 C151 1.361 . S
C150 C149 1.397 . S
C150 C154 1.390 . S
C151 C149 1.361 . S
C151 C152 1.393 . S
C151 N155 1.413 . S
C152 H145 0.930 . S
C152 C151 1.393 . S
C152 C153 1.399 . S
C153 C152 1.399 . S
C153 C154 1.381 . S
C154 H146 0.930 . S
C154 C150 1.390 . S
C154 C153 1.381 . S
N155 C148 1.286 . S
N155 C151 1.413 . S
H156 C161 0.930 . S
H157 C164 0.930 1_554 S
H158 C166 0.930 . S
H159 C160 1.016 . S
C160 H159 1.016 . S
C160 N167 1.294 . S
C161 H156 0.930 . S
C161 C162 1.397 . S
C161 C163 1.361 . S
C162 C161 1.397 . S
C162 C166 1.390 . S
C163 C161 1.361 . S
C163 C164 1.393 . S
C163 N167 1.402 1_556 S
C164 H157 0.930 1_556 S
C164 C163 1.393 . S
C164 C165 1.399 . S
C165 C164 1.399 . S
C165 C166 1.381 . S
C166 H158 0.930 . S
C166 C162 1.390 . S
C166 C165 1.381 . S
N167 C160 1.294 . S
N167 C163 1.402 1_554 S
H168 C173 0.930 . S
H169 C176 0.930 . S
H170 C178 0.930 . S
H171 C172 1.016 . S
C172 H171 1.016 . S
C172 N179 1.286 . S
C173 H168 0.930 . S
C173 C174 1.397 . S
C173 C175 1.361 . S
C174 C173 1.397 . S
C174 C178 1.390 . S
C175 C173 1.361 . S
C175 C176 1.393 . S
C175 N179 1.413 . S
C176 H169 0.930 . S
C176 C175 1.393 . S
C176 C177 1.399 . S
C177 C176 1.399 . S
C177 C178 1.381 . S
C178 H170 0.930 . S
C178 C174 1.390 . S
C178 C177 1.381 . S
N179 C172 1.286 . S
N179 C175 1.413 . S
H180 C185 0.930 . S
H181 C188 0.930 1_565 S
H182 C190 0.930 . S
H183 C184 1.016 1_565 S
C184 H183 1.016 1_545 S
C184 N191 1.286 . S
C185 H180 0.930 . S
C185 C186 1.397 1_556 S
C185 C187 1.361 . S
C186 C185 1.397 1_554 S
C186 C190 1.390 . S
C187 C185 1.361 . S
C187 C188 1.393 . S
C187 N191 1.413 . S
C188 H181 0.930 1_545 S
C188 C187 1.393 . S
C188 C189 1.399 . S
C189 C188 1.399 . S
C189 C190 1.381 1_556 S
C190 H182 0.930 . S
C190 C186 1.390 . S
C190 C189 1.381 1_554 S
N191 C184 1.286 . S
N191 C187 1.413 . S
Mn192 O197 2.095 . S
Mn192 O207 2.162 . S
Mn192 O208 2.297 . S
Mn192 O216 2.385 . S
Mn192 O217 2.209 1_554 S
Mn192 O218 2.094 . S
Mn193 O198 2.121 . S
Mn193 N200 2.257 . S
Mn193 N209 2.282 . S
Mn193 O217 2.215 . S
Mn193 O219 2.117 . S
C194 O216 1.234 1_556 S
C194 O217 1.283 . S
C195 O207 1.281 . S
C195 O208 1.236 . S
C196 O218 1.240 . S
C196 O219 1.264 1_554 S
O197 Mn192 2.095 . S
O197 C206 1.250 . S
O198 Mn193 2.121 . S
O198 C206 1.258 1_556 S
C199 N200 1.326 . S
C199 C203 1.460 . S
C199 H205 0.929 . S
N200 Mn193 2.257 . S
N200 C199 1.326 . S
N200 C204 1.362 . S
C201 C202 1.258 . S
C201 C204 1.431 . S
C201 C221 1.449 . S
C202 C201 1.258 . S
C202 C203 1.477 . S
C202 H222 0.931 . S
C203 C199 1.460 . S
C203 C202 1.477 . S
C203 H223 0.930 . S
C204 N200 1.362 . S
C204 C201 1.431 . S
C204 C214 1.476 . S
H205 C199 0.929 . S
C206 O197 1.250 . S
C206 O198 1.258 1_554 S
O207 Mn192 2.162 . S
O207 C195 1.281 . S
O208 Mn192 2.297 . S
O208 C195 1.236 . S
N209 Mn193 2.282 . S
N209 C210 1.328 . S
N209 C214 1.318 . S
C210 N209 1.328 . S
C210 C211 1.457 . S
C210 H215 0.929 . S
C211 C210 1.457 . S
C211 C212 1.291 . S
C211 H224 0.931 . S
C212 C211 1.291 . S
C212 C213 1.373 . S
C212 H225 0.929 . S
C213 C212 1.373 . S
C213 C214 1.396 . S
C213 C220 1.403 . S
C214 C204 1.476 . S
C214 N209 1.318 . S
C214 C213 1.396 . S
H215 C210 0.929 . S
O216 Mn192 2.385 . S
O216 C194 1.234 1_554 S
O217 Mn192 2.209 1_556 S
O217 Mn193 2.215 . S
O217 C194 1.283 . S
O218 Mn192 2.094 . S
O218 C196 1.240 . S
O219 Mn193 2.117 . S
O219 C196 1.264 1_556 S
C220 C213 1.403 . S
C220 C221 1.399 . S
C220 H226 0.929 . S
C221 C201 1.449 . S
C221 C220 1.399 . S
C221 H227 0.930 . S
H222 C202 0.931 . S
H223 C203 0.930 . S
H224 C211 0.931 . S
H225 C212 0.929 . S
H226 C220 0.929 . S
H227 C221 0.930 . S
Mn228 O233 2.095 . S
Mn228 O243 2.162 . S
Mn228 O244 2.297 . S
Mn228 O252 2.385 . S
Mn228 O253 2.209 . S
Mn228 O254 2.094 . S
Mn229 O234 2.121 . S
Mn229 N236 2.257 . S
Mn229 N245 2.282 . S
Mn229 O253 2.215 . S
Mn229 O255 2.117 . S
C230 O252 1.234 . S
C230 O253 1.283 . S
C231 O243 1.281 . S
C231 O244 1.236 . S
C232 O254 1.240 . S
C232 O255 1.264 . S
O233 Mn228 2.095 . S
O233 C242 1.250 . S
O234 Mn229 2.121 . S
O234 C242 1.258 . S
C235 N236 1.326 . S
C235 C239 1.460 . S
C235 H241 0.929 . S
N236 Mn229 2.257 . S
N236 C235 1.326 . S
N236 C240 1.362 . S
C237 C238 1.258 . S
C237 C240 1.431 . S
C237 C257 1.449 . S
C238 C237 1.258 . S
C238 C239 1.477 . S
C238 H258 0.931 . S
C239 C235 1.460 . S
C239 C238 1.477 . S
C239 H259 0.930 . S
C240 N236 1.362 . S
C240 C237 1.431 . S
C240 C250 1.476 . S
H241 C235 0.929 . S
C242 O233 1.250 . S
C242 O234 1.258 . S
O243 Mn228 2.162 . S
O243 C231 1.281 . S
O244 Mn228 2.297 . S
O244 C231 1.236 . S
N245 Mn229 2.282 . S
N245 C246 1.328 . S
N245 C250 1.318 . S
C246 N245 1.328 . S
C246 C247 1.457 . S
C246 H251 0.929 . S
C247 C246 1.457 . S
C247 C248 1.291 . S
C247 H260 0.931 . S
C248 C247 1.291 . S
C248 C249 1.373 . S
C248 H261 0.929 . S
C249 C248 1.373 . S
C249 C250 1.396 . S
C249 C256 1.403 . S
C250 C240 1.476 . S
C250 N245 1.318 . S
C250 C249 1.396 . S
H251 C246 0.929 . S
O252 Mn228 2.385 . S
O252 C230 1.234 . S
O253 Mn228 2.209 . S
O253 Mn229 2.215 . S
O253 C230 1.283 . S
O254 Mn228 2.094 . S
O254 C232 1.240 . S
O255 Mn229 2.117 . S
O255 C232 1.264 . S
C256 C249 1.403 . S
C256 C257 1.399 . S
C256 H262 0.929 . S
C257 C237 1.449 . S
C257 C256 1.399 . S
C257 H263 0.930 . S
H258 C238 0.931 . S
H259 C239 0.930 . S
H260 C247 0.931 . S
H261 C248 0.929 . S
H262 C256 0.929 . S
H263 C257 0.930 . S
Mn264 O269 2.095 1_554 S
Mn264 O279 2.162 . S
Mn264 O280 2.297 1_554 S
Mn264 O288 2.385 . S
Mn264 O289 2.209 1_554 S
Mn264 O290 2.094 . S
Mn265 O270 2.121 . S
Mn265 N272 2.257 . S
Mn265 N281 2.282 . S
Mn265 O289 2.215 . S
Mn265 O291 2.117 1_556 S
C266 O288 1.234 . S
C266 O289 1.283 1_554 S
C267 O279 1.281 . S
C267 O280 1.236 1_554 S
C268 O290 1.240 . S
C268 O291 1.264 . S
O269 Mn264 2.095 1_556 S
O269 C278 1.250 . S
O270 Mn265 2.121 . S
O270 C278 1.258 . S
C271 N272 1.326 . S
C271 C275 1.460 . S
C271 H277 0.929 . S
N272 Mn265 2.257 . S
N272 C271 1.326 . S
N272 C276 1.362 . S
C273 C274 1.258 . S
C273 C276 1.431 . S
C273 C293 1.449 . S
C274 C273 1.258 . S
C274 C275 1.477 . S
C274 H294 0.931 . S
C275 C271 1.460 . S
C275 C274 1.477 . S
C275 H295 0.930 . S
C276 N272 1.362 . S
C276 C273 1.431 . S
C276 C286 1.476 . S
H277 C271 0.929 . S
C278 O269 1.250 . S
C278 O270 1.258 . S
O279 Mn264 2.162 . S
O279 C267 1.281 . S
O280 Mn264 2.297 1_556 S
O280 C267 1.236 1_556 S
N281 Mn265 2.282 . S
N281 C282 1.328 1_556 S
N281 C286 1.318 . S
C282 N281 1.328 1_554 S
C282 C283 1.457 . S
C282 H287 0.929 . S
C283 C282 1.457 . S
C283 C284 1.291 . S
C283 H296 0.931 . S
C284 C283 1.291 . S
C284 C285 1.373 1_554 S
C284 H297 0.929 . S
C285 C284 1.373 1_556 S
C285 C286 1.396 . S
C285 C292 1.403 . S
C286 C276 1.476 . S
C286 N281 1.318 . S
C286 C285 1.396 . S
H287 C282 0.929 . S
O288 Mn264 2.385 . S
O288 C266 1.234 . S
O289 Mn264 2.209 1_556 S
O289 Mn265 2.215 . S
O289 C266 1.283 1_556 S
O290 Mn264 2.094 . S
O290 C268 1.240 . S
O291 Mn265 2.117 1_554 S
O291 C268 1.264 . S
C292 C285 1.403 . S
C292 C293 1.399 . S
C292 H298 0.929 . S
C293 C273 1.449 . S
C293 C292 1.399 . S
C293 H299 0.930 . S
H294 C274 0.931 . S
H295 C275 0.930 . S
H296 C283 0.931 . S
H297 C284 0.929 . S
H298 C292 0.929 . S
H299 C293 0.930 . S
Mn300 O305 2.095 . S
Mn300 O315 2.162 . S
Mn300 O316 2.297 . S
Mn300 O324 2.385 . S
Mn300 O325 2.209 1_545 S
Mn300 O326 2.094 . S
Mn301 O306 2.121 . S
Mn301 N308 2.257 . S
Mn301 N317 2.282 . S
Mn301 O325 2.215 . S
Mn301 O327 2.117 . S
C302 O324 1.234 1_565 S
C302 O325 1.283 . S
C303 O315 1.281 . S
C303 O316 1.236 . S
C304 O326 1.240 . S
C304 O327 1.264 1_545 S
O305 Mn300 2.095 . S
O305 C314 1.250 . S
O306 Mn301 2.121 . S
O306 C314 1.258 1_565 S
C307 N308 1.326 . S
C307 C311 1.460 . S
C307 H313 0.929 . S
N308 Mn301 2.257 . S
N308 C307 1.326 . S
N308 C312 1.362 . S
C309 C310 1.258 . S
C309 C312 1.431 . S
C309 C329 1.449 . S
C310 C309 1.258 . S
C310 C311 1.477 . S
C310 H330 0.931 . S
C311 C307 1.460 . S
C311 C310 1.477 . S
C311 H331 0.930 . S
C312 N308 1.362 . S
C312 C309 1.431 . S
C312 C322 1.476 . S
H313 C307 0.929 . S
C314 O305 1.250 . S
C314 O306 1.258 1_545 S
O315 Mn300 2.162 . S
O315 C303 1.281 . S
O316 Mn300 2.297 . S
O316 C303 1.236 . S
N317 Mn301 2.282 . S
N317 C318 1.328 . S
N317 C322 1.318 . S
C318 N317 1.328 . S
C318 C319 1.457 . S
C318 H323 0.929 . S
C319 C318 1.457 . S
C319 C320 1.291 . S
C319 H332 0.931 . S
C320 C319 1.291 . S
C320 C321 1.373 . S
C320 H333 0.929 . S
C321 C320 1.373 . S
C321 C322 1.396 . S
C321 C328 1.403 . S
C322 C312 1.476 . S
C322 N317 1.318 . S
C322 C321 1.396 . S
H323 C318 0.929 . S
O324 Mn300 2.385 . S
O324 C302 1.234 1_545 S
O325 Mn300 2.209 1_565 S
O325 Mn301 2.215 . S
O325 C302 1.283 . S
O326 Mn300 2.094 . S
O326 C304 1.240 . S
O327 Mn301 2.117 . S
O327 C304 1.264 1_565 S
C328 C321 1.403 . S
C328 C329 1.399 . S
C328 H334 0.929 . S
C329 C309 1.449 . S
C329 C328 1.399 . S
C329 H335 0.930 . S
H330 C310 0.931 . S
H331 C311 0.930 . S
H332 C319 0.931 . S
H333 C320 0.929 . S
H334 C328 0.929 . S
H335 C329 0.930 . S
Mn336 O341 2.095 . S
Mn336 O351 2.162 . S
Mn336 O352 2.297 . S
Mn336 O360 2.385 . S
Mn336 O361 2.209 . S
Mn336 O362 2.094 . S
Mn337 O342 2.121 . S
Mn337 N344 2.257 . S
Mn337 N353 2.282 . S
Mn337 O361 2.215 . S
Mn337 O363 2.117 . S
C338 O360 1.234 . S
C338 O361 1.283 . S
C339 O351 1.281 . S
C339 O352 1.236 . S
C340 O362 1.240 . S
C340 O363 1.264 . S
O341 Mn336 2.095 . S
O341 C350 1.250 . S
O342 Mn337 2.121 . S
O342 C350 1.258 . S
C343 N344 1.326 . S
C343 C347 1.460 . S
C343 H349 0.929 . S
N344 Mn337 2.257 . S
N344 C343 1.326 . S
N344 C348 1.362 . S
C345 C346 1.258 . S
C345 C348 1.431 . S
C345 C365 1.449 . S
C346 C345 1.258 . S
C346 C347 1.477 . S
C346 H366 0.931 . S
C347 C343 1.460 . S
C347 C346 1.477 . S
C347 H367 0.930 . S
C348 N344 1.362 . S
C348 C345 1.431 . S
C348 C358 1.476 . S
H349 C343 0.929 . S
C350 O341 1.250 . S
C350 O342 1.258 . S
O351 Mn336 2.162 . S
O351 C339 1.281 . S
O352 Mn336 2.297 . S
O352 C339 1.236 . S
N353 Mn337 2.282 . S
N353 C354 1.328 . S
N353 C358 1.318 . S
C354 N353 1.328 . S
C354 C355 1.457 . S
C354 H359 0.929 . S
C355 C354 1.457 . S
C355 C356 1.291 . S
C355 H368 0.931 . S
C356 C355 1.291 . S
C356 C357 1.373 . S
C356 H369 0.929 . S
C357 C356 1.373 . S
C357 C358 1.396 . S
C357 C364 1.403 . S
C358 C348 1.476 . S
C358 N353 1.318 . S
C358 C357 1.396 . S
H359 C354 0.929 . S
O360 Mn336 2.385 . S
O360 C338 1.234 . S
O361 Mn336 2.209 . S
O361 Mn337 2.215 . S
O361 C338 1.283 . S
O362 Mn336 2.094 . S
O362 C340 1.240 . S
O363 Mn337 2.117 . S
O363 C340 1.264 . S
C364 C357 1.403 . S
C364 C365 1.399 . S
C364 H370 0.929 . S
C365 C345 1.449 . S
C365 C364 1.399 . S
C365 H371 0.930 . S
H366 C346 0.931 . S
H367 C347 0.930 . S
H368 C355 0.931 . S
H369 C356 0.929 . S
H370 C364 0.929 . S
H371 C365 0.930 . S
Mn372 O377 2.095 . S
Mn372 O387 2.162 . S
Mn372 O388 2.297 . S
Mn372 O396 2.385 . S
Mn372 O397 2.209 . S
Mn372 O398 2.094 . S
Mn373 O378 2.121 . S
Mn373 N380 2.257 . S
Mn373 N389 2.282 . S
Mn373 O397 2.215 . S
Mn373 O399 2.117 . S
C374 O396 1.234 . S
C374 O397 1.283 . S
C375 O387 1.281 . S
C375 O388 1.236 . S
C376 O398 1.240 . S
C376 O399 1.264 . S
O377 Mn372 2.095 . S
O377 C386 1.250 . S
O378 Mn373 2.121 . S
O378 C386 1.258 . S
C379 N380 1.326 . S
C379 C383 1.460 . S
C379 H385 0.929 . S
N380 Mn373 2.257 . S
N380 C379 1.326 . S
N380 C384 1.362 . S
C381 C382 1.258 . S
C381 C384 1.431 . S
C381 C401 1.449 . S
C382 C381 1.258 . S
C382 C383 1.477 . S
C382 H402 0.931 . S
C383 C379 1.460 . S
C383 C382 1.477 . S
C383 H403 0.930 . S
C384 N380 1.362 . S
C384 C381 1.431 . S
C384 C394 1.476 . S
H385 C379 0.929 . S
C386 O377 1.250 . S
C386 O378 1.258 . S
O387 Mn372 2.162 . S
O387 C375 1.281 . S
O388 Mn372 2.297 . S
O388 C375 1.236 . S
N389 Mn373 2.282 . S
N389 C390 1.328 . S
N389 C394 1.318 . S
C390 N389 1.328 . S
C390 C391 1.457 . S
C390 H395 0.929 . S
C391 C390 1.457 . S
C391 C392 1.291 . S
C391 H404 0.931 . S
C392 C391 1.291 . S
C392 C393 1.373 . S
C392 H405 0.929 . S
C393 C392 1.373 . S
C393 C394 1.396 . S
C393 C400 1.403 . S
C394 C384 1.476 . S
C394 N389 1.318 . S
C394 C393 1.396 . S
H395 C390 0.929 . S
O396 Mn372 2.385 . S
O396 C374 1.234 . S
O397 Mn372 2.209 . S
O397 Mn373 2.215 . S
O397 C374 1.283 . S
O398 Mn372 2.094 . S
O398 C376 1.240 . S
O399 Mn373 2.117 . S
O399 C376 1.264 . S
C400 C393 1.403 . S
C400 C401 1.399 . S
C400 H406 0.929 . S
C401 C381 1.449 . S
C401 C400 1.399 . S
C401 H407 0.930 . S
H402 C382 0.931 . S
H403 C383 0.930 . S
H404 C391 0.931 . S
H405 C392 0.929 . S
H406 C400 0.929 . S
H407 C401 0.930 . S
Mn408 O413 2.095 . S
Mn408 O423 2.162 . S
Mn408 O424 2.297 . S
Mn408 O432 2.385 . S
Mn408 O433 2.209 . S
Mn408 O434 2.094 . S
Mn409 O414 2.121 . S
Mn409 N416 2.257 . S
Mn409 N425 2.282 . S
Mn409 O433 2.215 . S
Mn409 O435 2.117 . S
C410 O432 1.234 . S
C410 O433 1.283 . S
C411 O423 1.281 . S
C411 O424 1.236 . S
C412 O434 1.240 . S
C412 O435 1.264 . S
O413 Mn408 2.095 . S
O413 C422 1.250 . S
O414 Mn409 2.121 . S
O414 C422 1.258 . S
C415 N416 1.326 . S
C415 C419 1.460 . S
C415 H421 0.929 . S
N416 Mn409 2.257 . S
N416 C415 1.326 . S
N416 C420 1.362 . S
C417 C418 1.258 . S
C417 C420 1.431 . S
C417 C437 1.449 . S
C418 C417 1.258 . S
C418 C419 1.477 . S
C418 H438 0.931 . S
C419 C415 1.460 . S
C419 C418 1.477 . S
C419 H439 0.930 . S
C420 N416 1.362 . S
C420 C417 1.431 . S
C420 C430 1.476 . S
H421 C415 0.929 . S
C422 O413 1.250 . S
C422 O414 1.258 . S
O423 Mn408 2.162 . S
O423 C411 1.281 . S
O424 Mn408 2.297 . S
O424 C411 1.236 . S
N425 Mn409 2.282 . S
N425 C426 1.328 . S
N425 C430 1.318 . S
C426 N425 1.328 . S
C426 C427 1.457 . S
C426 H431 0.929 . S
C427 C426 1.457 . S
C427 C428 1.291 . S
C427 H440 0.931 . S
C428 C427 1.291 . S
C428 C429 1.373 . S
C428 H441 0.929 . S
C429 C428 1.373 . S
C429 C430 1.396 . S
C429 C436 1.403 . S
C430 C420 1.476 . S
C430 N425 1.318 . S
C430 C429 1.396 . S
H431 C426 0.929 . S
O432 Mn408 2.385 . S
O432 C410 1.234 . S
O433 Mn408 2.209 . S
O433 Mn409 2.215 . S
O433 C410 1.283 . S
O434 Mn408 2.094 . S
O434 C412 1.240 . S
O435 Mn409 2.117 . S
O435 C412 1.264 . S
C436 C429 1.403 . S
C436 C437 1.399 . S
C436 H442 0.929 . S
C437 C417 1.449 . S
C437 C436 1.399 . S
C437 H443 0.930 . S
H438 C418 0.931 . S
H439 C419 0.930 . S
H440 C427 0.931 . S
H441 C428 0.929 . S
H442 C436 0.929 . S
H443 C437 0.930 . S
Mn444 O449 2.095 . S
Mn444 O459 2.162 . S
Mn444 O460 2.297 . S
Mn444 O468 2.385 1_565 S
Mn444 O469 2.209 1_565 S
Mn444 O470 2.094 . S
Mn445 O450 2.121 . S
Mn445 N452 2.257 . S
Mn445 N461 2.282 . S
Mn445 O469 2.215 . S
Mn445 O471 2.117 . S
C446 O468 1.234 . S
C446 O469 1.283 . S
C447 O459 1.281 . S
C447 O460 1.236 . S
C448 O470 1.240 . S
C448 O471 1.264 1_565 S
O449 Mn444 2.095 . S
O449 C458 1.250 1_565 S
O450 Mn445 2.121 . S
O450 C458 1.258 . S
C451 N452 1.326 . S
C451 C455 1.460 . S
C451 H457 0.929 . S
N452 Mn445 2.257 . S
N452 C451 1.326 . S
N452 C456 1.362 . S
C453 C454 1.258 . S
C453 C456 1.431 . S
C453 C473 1.449 . S
C454 C453 1.258 . S
C454 C455 1.477 . S
C454 H474 0.931 . S
C455 C451 1.460 . S
C455 C454 1.477 . S
C455 H475 0.930 . S
C456 N452 1.362 . S
C456 C453 1.431 . S
C456 C466 1.476 . S
H457 C451 0.929 . S
C458 O449 1.250 1_545 S
C458 O450 1.258 . S
O459 Mn444 2.162 . S
O459 C447 1.281 . S
O460 Mn444 2.297 . S
O460 C447 1.236 . S
N461 Mn445 2.282 . S
N461 C462 1.328 . S
N461 C466 1.318 . S
C462 N461 1.328 . S
C462 C463 1.457 . S
C462 H467 0.929 . S
C463 C462 1.457 . S
C463 C464 1.291 . S
C463 H476 0.931 . S
C464 C463 1.291 . S
C464 C465 1.373 . S
C464 H477 0.929 . S
C465 C464 1.373 . S
C465 C466 1.396 . S
C465 C472 1.403 . S
C466 C456 1.476 . S
C466 N461 1.318 . S
C466 C465 1.396 . S
H467 C462 0.929 . S
O468 Mn444 2.385 1_545 S
O468 C446 1.234 . S
O469 Mn444 2.209 1_545 S
O469 Mn445 2.215 . S
O469 C446 1.283 . S
O470 Mn444 2.094 . S
O470 C448 1.240 . S
O471 Mn445 2.117 . S
O471 C448 1.264 1_545 S
C472 C465 1.403 . S
C472 C473 1.399 . S
C472 H478 0.929 . S
C473 C453 1.449 . S
C473 C472 1.399 . S
C473 H479 0.930 . S
H474 C454 0.931 . S
H475 C455 0.930 . S
H476 C463 0.931 . S
H477 C464 0.929 . S
H478 C472 0.929 . S
H479 C473 0.930 . S
Mn480 O485 2.095 . S
Mn480 O495 2.162 . S
Mn480 O496 2.297 . S
Mn480 O504 2.385 1_455 S
Mn480 O505 2.209 1_455 S
Mn480 O506 2.094 . S
Mn481 O486 2.121 . S
Mn481 N488 2.257 . S
Mn481 N497 2.282 . S
Mn481 O505 2.215 . S
Mn481 O507 2.117 . S
C482 O504 1.234 . S
C482 O505 1.283 . S
C483 O495 1.281 . S
C483 O496 1.236 . S
C484 O506 1.240 . S
C484 O507 1.264 1_455 S
O485 Mn480 2.095 . S
O485 C494 1.250 1_455 S
O486 Mn481 2.121 . S
O486 C494 1.258 . S
C487 N488 1.326 . S
C487 C491 1.460 . S
C487 H493 0.929 . S
N488 Mn481 2.257 . S
N488 C487 1.326 . S
N488 C492 1.362 . S
C489 C490 1.258 . S
C489 C492 1.431 . S
C489 C509 1.449 . S
C490 C489 1.258 . S
C490 C491 1.477 . S
C490 H510 0.931 . S
C491 C487 1.460 . S
C491 C490 1.477 . S
C491 H511 0.930 . S
C492 N488 1.362 . S
C492 C489 1.431 . S
C492 C502 1.476 . S
H493 C487 0.929 . S
C494 O485 1.250 1_655 S
C494 O486 1.258 . S
O495 Mn480 2.162 . S
O495 C483 1.281 . S
O496 Mn480 2.297 . S
O496 C483 1.236 . S
N497 Mn481 2.282 . S
N497 C498 1.328 . S
N497 C502 1.318 . S
C498 N497 1.328 . S
C498 C499 1.457 . S
C498 H503 0.929 . S
C499 C498 1.457 . S
C499 C500 1.291 . S
C499 H512 0.931 . S
C500 C499 1.291 . S
C500 C501 1.373 . S
C500 H513 0.929 . S
C501 C500 1.373 . S
C501 C502 1.396 . S
C501 C508 1.403 . S
C502 C492 1.476 . S
C502 N497 1.318 . S
C502 C501 1.396 . S
H503 C498 0.929 . S
O504 Mn480 2.385 1_655 S
O504 C482 1.234 . S
O505 Mn480 2.209 1_655 S
O505 Mn481 2.215 . S
O505 C482 1.283 . S
O506 Mn480 2.094 . S
O506 C484 1.240 . S
O507 Mn481 2.117 . S
O507 C484 1.264 1_655 S
C508 C501 1.403 . S
C508 C509 1.399 . S
C508 H514 0.929 . S
C509 C489 1.449 . S
C509 C508 1.399 . S
C509 H515 0.930 . S
H510 C490 0.931 . S
H511 C491 0.930 . S
H512 C499 0.931 . S
H513 C500 0.929 . S
H514 C508 0.929 . S
H515 C509 0.930 . S
Mn516 O521 2.095 . S
Mn516 O531 2.162 . S
Mn516 O532 2.297 . S
Mn516 O540 2.385 . S
Mn516 O541 2.209 . S
Mn516 O542 2.094 . S
Mn517 O522 2.121 . S
Mn517 N524 2.257 . S
Mn517 N533 2.282 . S
Mn517 O541 2.215 . S
Mn517 O543 2.117 . S
C518 O540 1.234 . S
C518 O541 1.283 . S
C519 O531 1.281 . S
C519 O532 1.236 . S
C520 O542 1.240 . S
C520 O543 1.264 . S
O521 Mn516 2.095 . S
O521 C530 1.250 . S
O522 Mn517 2.121 . S
O522 C530 1.258 . S
C523 N524 1.326 . S
C523 C527 1.460 . S
C523 H529 0.929 . S
N524 Mn517 2.257 . S
N524 C523 1.326 . S
N524 C528 1.362 . S
C525 C526 1.258 . S
C525 C528 1.431 . S
C525 C545 1.449 . S
C526 C525 1.258 . S
C526 C527 1.477 . S
C526 H546 0.931 . S
C527 C523 1.460 . S
C527 C526 1.477 . S
C527 H547 0.930 . S
C528 N524 1.362 . S
C528 C525 1.431 . S
C528 C538 1.476 . S
H529 C523 0.929 . S
C530 O521 1.250 . S
C530 O522 1.258 . S
O531 Mn516 2.162 . S
O531 C519 1.281 . S
O532 Mn516 2.297 . S
O532 C519 1.236 . S
N533 Mn517 2.282 . S
N533 C534 1.328 . S
N533 C538 1.318 . S
C534 N533 1.328 . S
C534 C535 1.457 . S
C534 H539 0.929 . S
C535 C534 1.457 . S
C535 C536 1.291 . S
C535 H548 0.931 . S
C536 C535 1.291 . S
C536 C537 1.373 . S
C536 H549 0.929 . S
C537 C536 1.373 . S
C537 C538 1.396 . S
C537 C544 1.403 . S
C538 C528 1.476 . S
C538 N533 1.318 . S
C538 C537 1.396 . S
H539 C534 0.929 . S
O540 Mn516 2.385 . S
O540 C518 1.234 . S
O541 Mn516 2.209 . S
O541 Mn517 2.215 . S
O541 C518 1.283 . S
O542 Mn516 2.094 . S
O542 C520 1.240 . S
O543 Mn517 2.117 . S
O543 C520 1.264 . S
C544 C537 1.403 . S
C544 C545 1.399 . S
C544 H550 0.929 . S
C545 C525 1.449 . S
C545 C544 1.399 . S
C545 H551 0.930 . S
H546 C526 0.931 . S
H547 C527 0.930 . S
H548 C535 0.931 . S
H549 C536 0.929 . S
H550 C544 0.929 . S
H551 C545 0.930 . S
Mn552 O557 2.095 1_455 S
Mn552 O567 2.162 . S
Mn552 O568 2.297 1_455 S
Mn552 O576 2.385 . S
Mn552 O577 2.209 1_455 S
Mn552 O578 2.094 . S
Mn553 O558 2.121 . S
Mn553 N560 2.257 . S
Mn553 N569 2.282 1_655 S
Mn553 O577 2.215 . S
Mn553 O579 2.117 1_655 S
C554 O576 1.234 . S
C554 O577 1.283 1_455 S
C555 O567 1.281 . S
C555 O568 1.236 1_455 S
C556 O578 1.240 . S
C556 O579 1.264 . S
O557 Mn552 2.095 1_655 S
O557 C566 1.250 . S
O558 Mn553 2.121 . S
O558 C566 1.258 . S
C559 N560 1.326 . S
C559 C563 1.460 . S
C559 H565 0.929 . S
N560 Mn553 2.257 . S
N560 C559 1.326 . S
N560 C564 1.362 . S
C561 C562 1.258 . S
C561 C564 1.431 . S
C561 C581 1.449 . S
C562 C561 1.258 . S
C562 C563 1.477 . S
C562 H582 0.931 . S
C563 C559 1.460 . S
C563 C562 1.477 . S
C563 H583 0.930 . S
C564 N560 1.362 . S
C564 C561 1.431 . S
C564 C574 1.476 . S
H565 C559 0.929 . S
C566 O557 1.250 . S
C566 O558 1.258 . S
O567 Mn552 2.162 . S
O567 C555 1.281 . S
O568 Mn552 2.297 1_655 S
O568 C555 1.236 1_655 S
N569 Mn553 2.282 1_455 S
N569 C570 1.328 . S
N569 C574 1.318 1_455 S
C570 N569 1.328 . S
C570 C571 1.457 . S
C570 H575 0.929 . S
C571 C570 1.457 . S
C571 C572 1.291 . S
C571 H584 0.931 . S
C572 C571 1.291 . S
C572 C573 1.373 1_455 S
C572 H585 0.929 . S
C573 C572 1.373 1_655 S
C573 C574 1.396 . S
C573 C580 1.403 . S
C574 C564 1.476 . S
C574 N569 1.318 1_655 S
C574 C573 1.396 . S
H575 C570 0.929 . S
O576 Mn552 2.385 . S
O576 C554 1.234 . S
O577 Mn552 2.209 1_655 S
O577 Mn553 2.215 . S
O577 C554 1.283 1_655 S
O578 Mn552 2.094 . S
O578 C556 1.240 . S
O579 Mn553 2.117 1_455 S
O579 C556 1.264 . S
C580 C573 1.403 . S
C580 C581 1.399 . S
C580 H586 0.929 . S
C581 C561 1.449 . S
C581 C580 1.399 . S
C581 H587 0.930 . S
H582 C562 0.931 . S
H583 C563 0.930 . S
H584 C571 0.931 . S
H585 C572 0.929 . S
H586 C580 0.929 . S
H587 C581 0.930 . S
Mn588 O593 2.095 . S
Mn588 O603 2.162 . S
Mn588 O604 2.297 . S
Mn588 O612 2.385 . S
Mn588 O613 2.209 . S
Mn588 O614 2.094 . S
Mn589 O594 2.121 . S
Mn589 N596 2.257 . S
Mn589 N605 2.282 . S
Mn589 O613 2.215 . S
Mn589 O615 2.117 . S
C590 O612 1.234 . S
C590 O613 1.283 . S
C591 O603 1.281 . S
C591 O604 1.236 . S
C592 O614 1.240 . S
C592 O615 1.264 . S
O593 Mn588 2.095 . S
O593 C602 1.250 . S
O594 Mn589 2.121 . S
O594 C602 1.258 . S
C595 N596 1.326 . S
C595 C599 1.460 . S
C595 H601 0.929 . S
N596 Mn589 2.257 . S
N596 C595 1.326 . S
N596 C600 1.362 . S
C597 C598 1.258 . S
C597 C600 1.431 . S
C597 C617 1.449 . S
C598 C597 1.258 . S
C598 C599 1.477 . S
C598 H618 0.931 . S
C599 C595 1.460 . S
C599 C598 1.477 . S
C599 H619 0.930 . S
C600 N596 1.362 . S
C600 C597 1.431 . S
C600 C610 1.476 . S
H601 C595 0.929 . S
C602 O593 1.250 . S
C602 O594 1.258 . S
O603 Mn588 2.162 . S
O603 C591 1.281 . S
O604 Mn588 2.297 . S
O604 C591 1.236 . S
N605 Mn589 2.282 . S
N605 C606 1.328 . S
N605 C610 1.318 . S
C606 N605 1.328 . S
C606 C607 1.457 . S
C606 H611 0.929 . S
C607 C606 1.457 . S
C607 C608 1.291 . S
C607 H620 0.931 . S
C608 C607 1.291 . S
C608 C609 1.373 . S
C608 H621 0.929 . S
C609 C608 1.373 . S
C609 C610 1.396 . S
C609 C616 1.403 . S
C610 C600 1.476 . S
C610 N605 1.318 . S
C610 C609 1.396 . S
H611 C606 0.929 . S
O612 Mn588 2.385 . S
O612 C590 1.234 . S
O613 Mn588 2.209 . S
O613 Mn589 2.215 . S
O613 C590 1.283 . S
O614 Mn588 2.094 . S
O614 C592 1.240 . S
O615 Mn589 2.117 . S
O615 C592 1.264 . S
C616 C609 1.403 . S
C616 C617 1.399 . S
C616 H622 0.929 . S
C617 C597 1.449 . S
C617 C616 1.399 . S
C617 H623 0.930 . S
H618 C598 0.931 . S
H619 C599 0.930 . S
H620 C607 0.931 . S
H621 C608 0.929 . S
H622 C616 0.929 . S
H623 C617 0.930 . S
C624 C625 1.363 . S
C624 C630 1.379 . S
C624 N632 1.356 . S
C625 C624 1.363 . S
C625 C631 1.363 . S
C626 C627 1.363 . S
C626 C631 1.379 . S
C626 N633 1.356 . S
C627 C626 1.363 . S
C627 C630 1.363 . S
N628 C630 1.356 . S
N628 H640 0.984 . S
N628 H641 0.985 . S
N629 C631 1.356 . S
N629 H634 0.984 . S
N629 H635 0.985 . S
C630 C624 1.379 . S
C630 C627 1.363 . S
C630 N628 1.356 . S
C631 C625 1.363 . S
C631 C626 1.379 . S
C631 N629 1.356 . S
N632 C624 1.356 . S
N632 H638 0.984 . S
N632 H639 0.984 . S
N633 C626 1.356 . S
N633 H636 0.984 . S
N633 H637 0.985 . S
H634 N629 0.984 . S
H635 N629 0.985 . S
H636 N633 0.984 . S
H637 N633 0.985 . S
H638 N632 0.984 . S
H639 N632 0.984 . S
H640 N628 0.984 . S
H641 N628 0.985 . S
C642 C643 1.363 . S
C642 C648 1.379 . S
C642 N650 1.356 . S
C643 C642 1.363 . S
C643 C649 1.363 . S
C644 C645 1.363 . S
C644 C649 1.379 . S
C644 N651 1.356 . S
C645 C644 1.363 . S
C645 C648 1.363 . S
N646 C648 1.356 . S
N646 H658 0.984 . S
N646 H659 0.985 . S
N647 C649 1.356 . S
N647 H652 0.984 . S
N647 H653 0.985 . S
C648 C642 1.379 . S
C648 C645 1.363 . S
C648 N646 1.356 . S
C649 C643 1.363 . S
C649 C644 1.379 . S
C649 N647 1.356 . S
N650 C642 1.356 . S
N650 H656 0.984 1_455 S
N650 H657 0.984 . S
N651 C644 1.356 . S
N651 H654 0.984 . S
N651 H655 0.985 . S
H652 N647 0.984 . S
H653 N647 0.985 . S
H654 N651 0.984 . S
H655 N651 0.985 . S
H656 N650 0.984 1_655 S
H657 N650 0.984 . S
H658 N646 0.984 . S
H659 N646 0.985 . S
C660 C661 1.363 . S
C660 C666 1.379 . S
C660 N668 1.356 . S
C661 C660 1.363 . S
C661 C667 1.363 . S
C662 C663 1.363 . S
C662 C667 1.379 . S
C662 N669 1.356 . S
C663 C662 1.363 . S
C663 C666 1.363 . S
N664 C666 1.356 . S
N664 H676 0.984 . S
N664 H677 0.985 . S
N665 C667 1.356 . S
N665 H670 0.984 . S
N665 H671 0.985 . S
C666 C660 1.379 . S
C666 C663 1.363 . S
C666 N664 1.356 . S
C667 C661 1.363 . S
C667 C662 1.379 . S
C667 N665 1.356 . S
N668 C660 1.356 . S
N668 H674 0.984 . S
N668 H675 0.984 . S
N669 C662 1.356 . S
N669 H672 0.984 . S
N669 H673 0.985 . S
H670 N665 0.984 . S
H671 N665 0.985 . S
H672 N669 0.984 . S
H673 N669 0.985 . S
H674 N668 0.984 . S
H675 N668 0.984 . S
H676 N664 0.984 . S
H677 N664 0.985 . S
C678 C679 1.363 . S
C678 C684 1.379 1_455 S
C678 N686 1.356 . S
C679 C678 1.363 . S
C679 C685 1.363 1_545 S
C680 C681 1.363 1_465 S
C680 C685 1.379 . S
C680 N687 1.356 . S
C681 C680 1.363 1_645 S
C681 C684 1.363 . S
N682 C684 1.356 . S
N682 H694 0.984 . S
N682 H695 0.985 . S
N683 C685 1.356 . S
N683 H688 0.984 . S
N683 H689 0.985 . S
C684 C678 1.379 1_655 S
C684 C681 1.363 . S
C684 N682 1.356 . S
C685 C679 1.363 1_565 S
C685 C680 1.379 . S
C685 N683 1.356 . S
N686 C678 1.356 . S
N686 H692 0.984 1_455 S
N686 H693 0.984 . S
N687 C680 1.356 . S
N687 H690 0.984 . S
N687 H691 0.985 . S
H688 N683 0.984 . S
H689 N683 0.985 . S
H690 N687 0.984 . S
H691 N687 0.985 . S
H692 N686 0.984 1_655 S
H693 N686 0.984 . S
H694 N682 0.984 . S
H695 N682 0.985 . S
C696 C697 1.363 . S
C696 C702 1.379 . S
C696 N704 1.356 . S
C697 C696 1.363 . S
C697 C703 1.363 . S
C698 C699 1.363 . S
C698 C703 1.379 . S
C698 N705 1.356 . S
C699 C698 1.363 . S
C699 C702 1.363 . S
N700 C702 1.356 . S
N700 H712 0.984 . S
N700 H713 0.985 . S
N701 C703 1.356 . S
N701 H706 0.984 . S
N701 H707 0.985 . S
C702 C696 1.379 . S
C702 C699 1.363 . S
C702 N700 1.356 . S
C703 C697 1.363 . S
C703 C698 1.379 . S
C703 N701 1.356 . S
N704 C696 1.356 . S
N704 H710 0.984 . S
N704 H711 0.984 . S
N705 C698 1.356 . S
N705 H708 0.984 . S
N705 H709 0.985 . S
H706 N701 0.984 . S
H707 N701 0.985 . S
H708 N705 0.984 . S
H709 N705 0.985 . S
H710 N704 0.984 . S
H711 N704 0.984 . S
H712 N700 0.984 . S
H713 N700 0.985 . S
C714 C715 1.363 . S
C714 C720 1.379 . S
C714 N722 1.356 . S
C715 C714 1.363 . S
C715 C721 1.363 . S
C716 C717 1.363 . S
C716 C721 1.379 . S
C716 N723 1.356 . S
C717 C716 1.363 . S
C717 C720 1.363 . S
N718 C720 1.356 . S
N718 H730 0.984 . S
N718 H731 0.985 . S
N719 C721 1.356 . S
N719 H724 0.984 . S
N719 H725 0.985 . S
C720 C714 1.379 . S
C720 C717 1.363 . S
C720 N718 1.356 . S
C721 C715 1.363 . S
C721 C716 1.379 . S
C721 N719 1.356 . S
N722 C714 1.356 . S
N722 H728 0.984 . S
N722 H729 0.984 . S
N723 C716 1.356 . S
N723 H726 0.984 . S
N723 H727 0.985 . S
H724 N719 0.984 . S
H725 N719 0.985 . S
H726 N723 0.984 . S
H727 N723 0.985 . S
H728 N722 0.984 . S
H729 N722 0.984 . S
H730 N718 0.984 . S
H731 N718 0.985 . S
C732 C733 1.363 . S
C732 C738 1.379 . S
C732 N740 1.356 . S
C733 C732 1.363 . S
C733 C739 1.363 . S
C734 C735 1.363 . S
C734 C739 1.379 . S
C734 N741 1.356 . S
C735 C734 1.363 . S
C735 C738 1.363 . S
N736 C738 1.356 . S
N736 H748 0.984 . S
N736 H749 0.985 . S
N737 C739 1.356 . S
N737 H742 0.984 . S
N737 H743 0.985 . S
C738 C732 1.379 . S
C738 C735 1.363 . S
C738 N736 1.356 . S
C739 C733 1.363 . S
C739 C734 1.379 . S
C739 N737 1.356 . S
N740 C732 1.356 . S
N740 H746 0.984 . S
N740 H747 0.984 . S
N741 C734 1.356 . S
N741 H744 0.984 . S
N741 H745 0.985 . S
H742 N737 0.984 . S
H743 N737 0.985 . S
H744 N741 0.984 . S
H745 N741 0.985 . S
H746 N740 0.984 . S
H747 N740 0.984 . S
H748 N736 0.984 . S
H749 N736 0.985 . S
C750 C751 1.363 . S
C750 C756 1.379 . S
C750 N758 1.356 . S
C751 C750 1.363 . S
C751 C757 1.363 1_565 S
C752 C753 1.363 1_545 S
C752 C757 1.379 . S
C752 N759 1.356 . S
C753 C752 1.363 1_565 S
C753 C756 1.363 . S
N754 C756 1.356 . S
N754 H766 0.984 . S
N754 H767 0.985 . S
N755 C757 1.356 . S
N755 H760 0.984 . S
N755 H761 0.985 . S
C756 C750 1.379 . S
C756 C753 1.363 . S
C756 N754 1.356 . S
C757 C751 1.363 1_545 S
C757 C752 1.379 . S
C757 N755 1.356 . S
N758 C750 1.356 . S
N758 H764 0.984 . S
N758 H765 0.984 . S
N759 C752 1.356 . S
N759 H762 0.984 . S
N759 H763 0.985 . S
H760 N755 0.984 . S
H761 N755 0.985 . S
H762 N759 0.984 . S
H763 N759 0.985 . S
H764 N758 0.984 . S
H765 N758 0.984 . S
H766 N754 0.984 . S
H767 N754 0.985 . S
C768 C769 1.363 . S
C768 C774 1.379 . S
C768 N776 1.356 . S
C769 C768 1.363 . S
C769 C775 1.363 . S
C770 C771 1.363 . S
C770 C775 1.379 . S
C770 N777 1.356 . S
C771 C770 1.363 . S
C771 C774 1.363 . S
N772 C774 1.356 . S
N772 H784 0.984 . S
N772 H785 0.985 . S
N773 C775 1.356 . S
N773 H778 0.984 . S
N773 H779 0.985 . S
C774 C768 1.379 . S
C774 C771 1.363 . S
C774 N772 1.356 . S
C775 C769 1.363 . S
C775 C770 1.379 . S
C775 N773 1.356 . S
N776 C768 1.356 . S
N776 H782 0.984 . S
N776 H783 0.984 . S
N777 C770 1.356 . S
N777 H780 0.984 . S
N777 H781 0.985 . S
H778 N773 0.984 . S
H779 N773 0.985 . S
H780 N777 0.984 . S
H781 N777 0.985 . S
H782 N776 0.984 . S
H783 N776 0.984 . S
H784 N772 0.984 . S
H785 N772 0.985 . S
C786 C787 1.363 . S
C786 C792 1.379 . S
C786 N794 1.356 . S
C787 C786 1.363 . S
C787 C793 1.363 . S
C788 C789 1.363 . S
C788 C793 1.379 . S
C788 N795 1.356 . S
C789 C788 1.363 . S
C789 C792 1.363 . S
N790 C792 1.356 . S
N790 H802 0.984 . S
N790 H803 0.985 . S
N791 C793 1.356 . S
N791 H796 0.984 . S
N791 H797 0.985 . S
C792 C786 1.379 . S
C792 C789 1.363 . S
C792 N790 1.356 . S
C793 C787 1.363 . S
C793 C788 1.379 . S
C793 N791 1.356 . S
N794 C786 1.356 . S
N794 H800 0.984 . S
N794 H801 0.984 . S
N795 C788 1.356 . S
N795 H798 0.984 . S
N795 H799 0.985 . S
H796 N791 0.984 . S
H797 N791 0.985 . S
H798 N795 0.984 . S
H799 N795 0.985 . S
H800 N794 0.984 . S
H801 N794 0.984 . S
H802 N790 0.984 . S
H803 N790 0.985 . S
C804 C805 1.363 . S
C804 C810 1.379 . S
C804 N812 1.356 . S
C805 C804 1.363 . S
C805 C811 1.363 . S
C806 C807 1.363 . S
C806 C811 1.379 . S
C806 N813 1.356 . S
C807 C806 1.363 . S
C807 C810 1.363 . S
N808 C810 1.356 . S
N808 H820 0.984 . S
N808 H821 0.985 . S
N809 C811 1.356 . S
N809 H814 0.984 . S
N809 H815 0.985 . S
C810 C804 1.379 . S
C810 C807 1.363 . S
C810 N808 1.356 . S
C811 C805 1.363 . S
C811 C806 1.379 . S
C811 N809 1.356 . S
N812 C804 1.356 . S
N812 H818 0.984 . S
N812 H819 0.984 . S
N813 C806 1.356 . S
N813 H816 0.984 . S
N813 H817 0.985 . S
H814 N809 0.984 . S
H815 N809 0.985 . S
H816 N813 0.984 . S
H817 N813 0.985 . S
H818 N812 0.984 . S
H819 N812 0.984 . S
H820 N808 0.984 . S
H821 N808 0.985 . S
C822 C823 1.363 . S
C822 C828 1.379 . S
C822 N830 1.356 . S
C823 C822 1.363 . S
C823 C829 1.363 . S
C824 C825 1.363 . S
C824 C829 1.379 . S
C824 N831 1.356 . S
C825 C824 1.363 . S
C825 C828 1.363 . S
N826 C828 1.356 . S
N826 H838 0.984 . S
N826 H839 0.985 . S
N827 C829 1.356 . S
N827 H832 0.984 . S
N827 H833 0.985 . S
C828 C822 1.379 . S
C828 C825 1.363 . S
C828 N826 1.356 . S
C829 C823 1.363 . S
C829 C824 1.379 . S
C829 N827 1.356 . S
N830 C822 1.356 . S
N830 H836 0.984 . S
N830 H837 0.984 . S
N831 C824 1.356 . S
N831 H834 0.984 . S
N831 H835 0.985 . S
H832 N827 0.984 . S
H833 N827 0.985 . S
H834 N831 0.984 . S
H835 N831 0.985 . S
H836 N830 0.984 . S
H837 N830 0.984 . S
H838 N826 0.984 . S
H839 N826 0.985 . S
C840 C841 1.363 . S
C840 C846 1.379 . S
C840 N848 1.356 . S
C841 C840 1.363 . S
C841 C847 1.363 . S
C842 C843 1.363 . S
C842 C847 1.379 . S
C842 N849 1.356 . S
C843 C842 1.363 . S
C843 C846 1.363 . S
N844 C846 1.356 . S
N844 H856 0.984 . S
N844 H857 0.985 . S
N845 C847 1.356 . S
N845 H850 0.984 . S
N845 H851 0.985 . S
C846 C840 1.379 . S
C846 C843 1.363 . S
C846 N844 1.356 . S
C847 C841 1.363 . S
C847 C842 1.379 . S
C847 N845 1.356 . S
N848 C840 1.356 . S
N848 H854 0.984 . S
N848 H855 0.984 . S
N849 C842 1.356 . S
N849 H852 0.984 . S
N849 H853 0.998 . S
H850 N845 0.984 . S
H851 N845 0.985 . S
H852 N849 0.984 . S
H853 N849 0.998 . S
H854 N848 0.984 . S
H855 N848 0.984 . S
H856 N844 0.984 . S
H857 N844 0.985 . S
C858 C859 1.363 . S
C858 C864 1.379 . S
C858 N866 1.356 . S
C859 C858 1.363 . S
C859 C865 1.363 . S
C860 C861 1.363 . S
C860 C865 1.379 . S
C860 N867 1.356 . S
C861 C860 1.363 . S
C861 C864 1.363 . S
N862 C864 1.356 1_655 S
N862 H874 0.984 . S
N862 H875 0.985 . S
N863 C865 1.356 . S
N863 H868 0.984 . S
N863 H869 0.985 . S
C864 C858 1.379 . S
C864 C861 1.363 . S
C864 N862 1.356 1_455 S
C865 C859 1.363 . S
C865 C860 1.379 . S
C865 N863 1.356 . S
N866 C858 1.356 . S
N866 H872 0.984 1_455 S
N866 H873 0.984 . S
N867 C860 1.356 . S
N867 H870 0.984 . S
N867 H871 0.985 . S
H868 N863 0.984 . S
H869 N863 0.985 . S
H870 N867 0.984 . S
H871 N867 0.985 . S
H872 N866 0.984 1_655 S
H873 N866 0.984 . S
H874 N862 0.984 . S
H875 N862 0.985 . S
C876 C877 1.363 . S
C876 C882 1.379 . S
C876 N884 1.356 . S
C877 C876 1.363 . S
C877 C883 1.363 . S
C878 C879 1.363 . S
C878 C883 1.379 . S
C878 N885 1.356 . S
C879 C878 1.363 . S
C879 C882 1.363 . S
N880 C882 1.356 . S
N880 H892 0.984 . S
N880 H893 0.985 . S
N881 C883 1.356 . S
N881 H886 0.984 . S
N881 H887 0.985 . S
C882 C876 1.379 . S
C882 C879 1.363 . S
C882 N880 1.356 . S
C883 C877 1.363 . S
C883 C878 1.379 . S
C883 N881 1.356 . S
N884 C876 1.356 . S
N884 H890 0.984 . S
N884 H891 0.984 . S
N885 C878 1.356 . S
N885 H888 0.984 . S
N885 H889 0.985 . S
H886 N881 0.984 . S
H887 N881 0.985 . S
H888 N885 0.984 . S
H889 N885 0.985 . S
H890 N884 0.984 . S
H891 N884 0.984 . S
H892 N880 0.984 . S
H893 N880 0.985 . S
C894 C895 1.363 1_455 S
C894 C900 1.379 . S
C894 N902 1.356 . S
C895 C894 1.363 1_655 S
C895 C901 1.363 . S
C896 C897 1.363 1_655 S
C896 C901 1.379 . S
C896 N903 1.356 . S
C897 C896 1.363 1_455 S
C897 C900 1.363 . S
N898 C900 1.356 . S
N898 H910 0.984 . S
N898 H911 0.985 . S
N899 C901 1.356 . S
N899 H904 0.984 . S
N899 H905 0.985 . S
C900 C894 1.379 . S
C900 C897 1.363 . S
C900 N898 1.356 . S
C901 C895 1.363 . S
C901 C896 1.379 . S
C901 N899 1.356 . S
N902 C894 1.356 . S
N902 H908 0.984 . S
N902 H909 0.984 . S
N903 C896 1.356 . S
N903 H906 0.984 . S
N903 H907 0.985 . S
H904 N899 0.984 . S
H905 N899 0.985 . S
H906 N903 0.984 . S
H907 N903 0.985 . S
H908 N902 0.984 . S
H909 N902 0.984 . S
H910 N898 0.984 . S
H911 N898 0.985 . S
C912 C913 1.363 . S
C912 C918 1.379 . S
C912 N920 1.356 . S
C913 C912 1.363 . S
C913 C919 1.363 . S
C914 C915 1.363 . S
C914 C919 1.379 . S
C914 N921 1.356 . S
C915 C914 1.363 . S
C915 C918 1.363 . S
N916 C918 1.356 . S
N916 H928 0.984 . S
N916 H929 0.985 . S
N917 C919 1.356 . S
N917 H922 0.984 . S
N917 H923 0.985 . S
C918 C912 1.379 . S
C918 C915 1.363 . S
C918 N916 1.356 . S
C919 C913 1.363 . S
C919 C914 1.379 . S
C919 N917 1.356 . S
N920 C912 1.356 . S
N920 H926 0.984 . S
N920 H927 0.984 . S
N921 C914 1.356 . S
N921 H924 0.984 . S
N921 H925 0.985 . S
H922 N917 0.984 . S
H923 N917 0.985 . S
H924 N921 0.984 . S
H925 N921 0.985 . S
H926 N920 0.984 . S
H927 N920 0.984 . S
H928 N916 0.984 . S
H929 N916 0.985 . S
C930 C931 1.363 . S
C930 C936 1.379 . S
C930 N938 1.356 . S
C931 C930 1.363 . S
C931 C937 1.363 . S
C932 C933 1.363 . S
C932 C937 1.379 . S
C932 N939 1.356 . S
C933 C932 1.363 . S
C933 C936 1.363 . S
N934 C936 1.356 . S
N934 H946 0.984 . S
N934 H947 0.985 . S
N935 C937 1.356 . S
N935 H940 0.984 . S
N935 H941 0.985 . S
C936 C930 1.379 . S
C936 C933 1.363 . S
C936 N934 1.356 . S
C937 C931 1.363 . S
C937 C932 1.379 . S
C937 N935 1.356 . S
N938 C930 1.356 . S
N938 H944 0.984 . S
N938 H945 0.984 . S
N939 C932 1.356 . S
N939 H942 0.984 . S
N939 H943 0.985 . S
H940 N935 0.984 . S
H941 N935 0.985 . S
H942 N939 0.984 . S
H943 N939 0.985 . S
H944 N938 0.984 . S
H945 N938 0.984 . S
H946 N934 0.984 . S
H947 N934 0.985 . S
C948 C949 1.363 . S
C948 C954 1.379 . S
C948 N956 1.356 . S
C949 C948 1.363 . S
C949 C955 1.363 1_566 S
C950 C951 1.363 . S
C950 C955 1.379 1_565 S
C950 N957 1.356 . S
C951 C950 1.363 . S
C951 C954 1.363 1_554 S
N952 C954 1.356 . S
N952 H964 0.984 . S
N952 H965 0.985 1_556 S
N953 C955 1.356 . S
N953 H958 0.984 . S
N953 H959 0.985 . S
C954 C948 1.379 . S
C954 C951 1.363 1_556 S
C954 N952 1.356 . S
C955 C949 1.363 1_544 S
C955 C950 1.379 1_545 S
C955 N953 1.356 . S
N956 C948 1.356 . S
N956 H962 0.984 . S
N956 H963 0.984 . S
N957 C950 1.356 . S
N957 H960 0.984 . S
N957 H961 0.985 1_565 S
H958 N953 0.984 . S
H959 N953 0.985 . S
H960 N957 0.984 . S
H961 N957 0.985 1_545 S
H962 N956 0.984 . S
H963 N956 0.984 . S
H964 N952 0.984 . S
H965 N952 0.985 1_554 S
C966 C967 1.363 . S
C966 C972 1.379 . S
C966 N974 1.356 . S
C967 C966 1.363 . S
C967 C973 1.363 . S
C968 C969 1.363 . S
C968 C973 1.379 . S
C968 N975 1.356 . S
C969 C968 1.363 . S
C969 C972 1.363 . S
N970 C972 1.356 . S
N970 H982 0.984 . S
N970 H983 0.985 . S
N971 C973 1.356 . S
N971 H976 0.984 . S
N971 H977 0.985 . S
C972 C966 1.379 . S
C972 C969 1.363 . S
C972 N970 1.356 . S
C973 C967 1.363 . S
C973 C968 1.379 . S
C973 N971 1.356 . S
N974 C966 1.356 . S
N974 H980 0.984 . S
N974 H981 0.984 . S
N975 C968 1.356 . S
N975 H978 0.984 . S
N975 H979 0.985 . S
H976 N971 0.984 . S
H977 N971 0.985 . S
H978 N975 0.984 . S
H979 N975 0.985 . S
H980 N974 0.984 . S
H981 N974 0.984 . S
H982 N970 0.984 . S
H983 N970 0.985 . S
C984 C985 1.363 . S
C984 C990 1.379 . S
C984 N992 1.356 . S
C985 C984 1.363 . S
C985 C991 1.363 . S
C986 C987 1.363 . S
C986 C991 1.379 . S
C986 N993 1.356 . S
C987 C986 1.363 . S
C987 C990 1.363 . S
N988 C990 1.356 . S
N988 H1000 0.984 . S
N988 H1001 0.985 . S
N989 C991 1.356 . S
N989 H994 0.984 . S
N989 H995 0.985 . S
C990 C984 1.379 . S
C990 C987 1.363 . S
C990 N988 1.356 . S
C991 C985 1.363 . S
C991 C986 1.379 . S
C991 N989 1.356 . S
N992 C984 1.356 . S
N992 H998 0.984 . S
N992 H999 0.984 . S
N993 C986 1.356 . S
N993 H996 0.984 . S
N993 H997 0.985 . S
H994 N989 0.984 . S
H995 N989 0.985 . S
H996 N993 0.984 . S
H997 N993 0.985 . S
H998 N992 0.984 . S
H999 N992 0.984 . S
H1000 N988 0.984 . S
H1001 N988 0.985 . S
C1002 C1003 1.363 . S
C1002 C1008 1.379 . S
C1002 N1010 1.356 . S
C1003 C1002 1.363 . S
C1003 C1009 1.363 . S
C1004 C1005 1.363 . S
C1004 C1009 1.379 . S
C1004 N1011 1.356 . S
C1005 C1004 1.363 . S
C1005 C1008 1.363 . S
N1006 C1008 1.356 . S
N1006 H1018 0.984 . S
N1006 H1019 0.985 . S
N1007 C1009 1.356 . S
N1007 H1012 0.984 . S
N1007 H1013 0.985 . S
C1008 C1002 1.379 . S
C1008 C1005 1.363 . S
C1008 N1006 1.356 . S
C1009 C1003 1.363 . S
C1009 C1004 1.379 . S
C1009 N1007 1.356 . S
N1010 C1002 1.356 . S
N1010 H1016 0.984 . S
N1010 H1017 0.984 . S
N1011 C1004 1.356 . S
N1011 H1014 0.984 . S
N1011 H1015 0.985 . S
H1012 N1007 0.984 . S
H1013 N1007 0.985 . S
H1014 N1011 0.984 . S
H1015 N1011 0.985 . S
H1016 N1010 0.984 . S
H1017 N1010 0.984 . S
H1018 N1006 0.984 . S
H1019 N1006 0.985 . S
C1020 C1021 1.363 . S
C1020 C1026 1.379 . S
C1020 N1028 1.356 . S
C1021 C1020 1.363 . S
C1021 C1027 1.363 . S
C1022 C1023 1.363 . S
C1022 C1027 1.379 . S
C1022 N1029 1.356 . S
C1023 C1022 1.363 . S
C1023 C1026 1.363 . S
N1024 C1026 1.356 . S
N1024 H1036 0.984 . S
N1024 H1037 0.985 . S
N1025 C1027 1.356 . S
N1025 H1030 0.984 . S
N1025 H1031 0.985 . S
C1026 C1020 1.379 . S
C1026 C1023 1.363 . S
C1026 N1024 1.356 . S
C1027 C1021 1.363 . S
C1027 C1022 1.379 . S
C1027 N1025 1.356 . S
N1028 C1020 1.356 . S
N1028 H1034 0.984 . S
N1028 H1035 0.984 . S
N1029 C1022 1.356 . S
N1029 H1032 0.984 . S
N1029 H1033 0.985 . S
H1030 N1025 0.984 . S
H1031 N1025 0.985 . S
H1032 N1029 0.984 . S
H1033 N1029 0.985 . S
H1034 N1028 0.984 . S
H1035 N1028 0.984 . S
H1036 N1024 0.984 . S
H1037 N1024 0.985 . S
C1038 C1039 1.363 . S
C1038 C1044 1.379 . S
C1038 N1046 1.356 . S
C1039 C1038 1.363 . S
C1039 C1045 1.363 . S
C1040 C1041 1.363 . S
C1040 C1045 1.379 . S
C1040 N1047 1.356 . S
C1041 C1040 1.363 . S
C1041 C1044 1.363 . S
N1042 C1044 1.356 . S
N1042 H1054 0.984 . S
N1042 H1055 0.985 . S
N1043 C1045 1.356 . S
N1043 H1048 0.984 . S
N1043 H1049 0.985 . S
C1044 C1038 1.379 . S
C1044 C1041 1.363 . S
C1044 N1042 1.356 . S
C1045 C1039 1.363 . S
C1045 C1040 1.379 . S
C1045 N1043 1.356 . S
N1046 C1038 1.356 . S
N1046 H1052 0.984 . S
N1046 H1053 0.984 . S
N1047 C1040 1.356 . S
N1047 H1050 0.984 . S
N1047 H1051 0.985 . S
H1048 N1043 0.984 . S
H1049 N1043 0.985 . S
H1050 N1047 0.984 . S
H1051 N1047 0.985 . S
H1052 N1046 0.984 . S
H1053 N1046 0.984 . S
H1054 N1042 0.984 . S
H1055 N1042 0.985 . S
C1056 C1057 1.363 . S
C1056 C1062 1.379 . S
C1056 N1064 1.356 . S
C1057 C1056 1.363 . S
C1057 C1063 1.363 . S
C1058 C1059 1.363 . S
C1058 C1063 1.379 . S
C1058 N1065 1.356 . S
C1059 C1058 1.363 . S
C1059 C1062 1.363 . S
N1060 C1062 1.356 . S
N1060 H1072 0.984 . S
N1060 H1073 0.985 . S
N1061 C1063 1.356 . S
N1061 H1066 0.984 . S
N1061 H1067 0.985 . S
C1062 C1056 1.379 . S
C1062 C1059 1.363 . S
C1062 N1060 1.356 . S
C1063 C1057 1.363 . S
C1063 C1058 1.379 . S
C1063 N1061 1.356 . S
N1064 C1056 1.356 . S
N1064 H1070 0.984 . S
N1064 H1071 0.984 . S
N1065 C1058 1.356 . S
N1065 H1068 0.984 . S
N1065 H1069 0.985 . S
H1066 N1061 0.984 . S
H1067 N1061 0.985 . S
H1068 N1065 0.984 . S
H1069 N1065 0.985 . S
H1070 N1064 0.984 . S
H1071 N1064 0.984 . S
H1072 N1060 0.984 . S
H1073 N1060 0.985 . S
C1074 C1075 1.363 1_565 S
C1074 C1080 1.379 . S
C1074 N1082 1.356 . S
C1075 C1074 1.363 1_545 S
C1075 C1081 1.363 . S
C1076 C1077 1.363 . S
C1076 C1081 1.379 . S
C1076 N1083 1.356 . S
C1077 C1076 1.363 . S
C1077 C1080 1.363 1_545 S
N1078 C1080 1.356 . S
N1078 H1090 0.984 . S
N1078 H1091 0.985 . S
N1079 C1081 1.356 . S
N1079 H1084 0.984 . S
N1079 H1085 0.985 . S
C1080 C1074 1.379 . S
C1080 C1077 1.363 1_565 S
C1080 N1078 1.356 . S
C1081 C1075 1.363 . S
C1081 C1076 1.379 . S
C1081 N1079 1.356 . S
N1082 C1074 1.356 . S
N1082 H1088 0.984 . S
N1082 H1089 0.984 . S
N1083 C1076 1.356 . S
N1083 H1086 0.984 . S
N1083 H1087 0.985 . S
H1084 N1079 0.984 . S
H1085 N1079 0.985 . S
H1086 N1083 0.984 . S
H1087 N1083 0.985 . S
H1088 N1082 0.984 . S
H1089 N1082 0.984 . S
H1090 N1078 0.984 . S
H1091 N1078 0.985 . S
C1092 C1093 1.363 . S
C1092 C1098 1.379 . S
C1092 N1100 1.356 . S
C1093 C1092 1.363 . S
C1093 C1099 1.363 . S
C1094 C1095 1.363 . S
C1094 C1099 1.379 . S
C1094 N1101 1.356 . S
C1095 C1094 1.363 . S
C1095 C1098 1.363 . S
N1096 C1098 1.356 . S
N1096 H1108 0.984 . S
N1096 H1109 0.985 . S
N1097 C1099 1.356 . S
N1097 H1102 0.984 . S
N1097 H1103 0.985 . S
C1098 C1092 1.379 . S
C1098 C1095 1.363 . S
C1098 N1096 1.356 . S
C1099 C1093 1.363 . S
C1099 C1094 1.379 . S
C1099 N1097 1.356 . S
N1100 C1092 1.356 . S
N1100 H1106 0.984 . S
N1100 H1107 0.984 . S
N1101 C1094 1.356 . S
N1101 H1104 0.984 . S
N1101 H1105 0.985 . S
H1102 N1097 0.984 . S
H1103 N1097 0.985 . S
H1104 N1101 0.984 . S
H1105 N1101 0.985 . S
H1106 N1100 0.984 . S
H1107 N1100 0.984 . S
H1108 N1096 0.984 . S
H1109 N1096 0.985 . S
C1110 C1111 1.363 . S
C1110 C1116 1.379 . S
C1110 N1118 1.356 . S
C1111 C1110 1.363 . S
C1111 C1117 1.363 . S
C1112 C1113 1.363 . S
C1112 C1117 1.379 . S
C1112 N1119 1.356 . S
C1113 C1112 1.363 . S
C1113 C1116 1.363 . S
N1114 C1116 1.356 . S
N1114 H1126 0.984 . S
N1114 H1127 0.985 . S
N1115 C1117 1.356 . S
N1115 H1120 0.984 . S
N1115 H1121 0.985 . S
C1116 C1110 1.379 . S
C1116 C1113 1.363 . S
C1116 N1114 1.356 . S
C1117 C1111 1.363 . S
C1117 C1112 1.379 . S
C1117 N1115 1.356 . S
N1118 C1110 1.356 . S
N1118 H1124 0.984 . S
N1118 H1125 0.984 . S
N1119 C1112 1.356 . S
N1119 H1122 0.984 . S
N1119 H1123 0.985 . S
H1120 N1115 0.984 . S
H1121 N1115 0.985 . S
H1122 N1119 0.984 . S
H1123 N1119 0.985 . S
H1124 N1118 0.984 . S
H1125 N1118 0.984 . S
H1126 N1114 0.984 . S
H1127 N1114 0.985 . S
C1128 C1129 1.363 . S
C1128 C1134 1.379 . S
C1128 N1136 1.356 . S
C1129 C1128 1.363 . S
C1129 C1135 1.363 . S
C1130 C1131 1.363 . S
C1130 C1135 1.379 . S
C1130 N1137 1.356 . S
C1131 C1130 1.363 . S
C1131 C1134 1.363 . S
N1132 C1134 1.356 . S
N1132 H1144 0.984 . S
N1132 H1145 0.985 . S
N1133 C1135 1.356 . S
N1133 H1138 0.984 . S
N1133 H1139 0.985 . S
C1134 C1128 1.379 . S
C1134 C1131 1.363 . S
C1134 N1132 1.356 . S
C1135 C1129 1.363 . S
C1135 C1130 1.379 . S
C1135 N1133 1.356 . S
N1136 C1128 1.356 . S
N1136 H1142 0.984 . S
N1136 H1143 0.984 . S
N1137 C1130 1.356 . S
N1137 H1140 0.984 . S
N1137 H1141 0.985 . S
H1138 N1133 0.984 . S
H1139 N1133 0.985 . S
H1140 N1137 0.984 . S
H1141 N1137 0.985 . S
H1142 N1136 0.984 . S
H1143 N1136 0.984 . S
H1144 N1132 0.984 . S
H1145 N1132 0.985 . S
C1146 C1147 1.363 1_665 S
C1146 C1152 1.379 . S
C1146 N1154 1.356 . S
C1147 C1146 1.363 1_445 S
C1147 C1153 1.363 . S
C1148 C1149 1.363 1_455 S
C1148 C1153 1.379 . S
C1148 N1155 1.356 . S
C1149 C1148 1.363 1_655 S
C1149 C1152 1.363 1_545 S
N1150 C1152 1.356 . S
N1150 H1162 0.984 . S
N1150 H1163 0.985 . S
N1151 C1153 1.356 . S
N1151 H1156 0.984 . S
N1151 H1157 0.985 . S
C1152 C1146 1.379 . S
C1152 C1149 1.363 1_565 S
C1152 N1150 1.356 . S
C1153 C1147 1.363 . S
C1153 C1148 1.379 . S
C1153 N1151 1.356 . S
N1154 C1146 1.356 . S
N1154 H1160 0.984 . S
N1154 H1161 0.984 1_655 S
N1155 C1148 1.356 . S
N1155 H1158 0.984 . S
N1155 H1159 0.985 . S
H1156 N1151 0.984 . S
H1157 N1151 0.985 . S
H1158 N1155 0.984 . S
H1159 N1155 0.985 . S
H1160 N1154 0.984 . S
H1161 N1154 0.984 1_455 S
H1162 N1150 0.984 . S
H1163 N1150 0.985 . S
C1164 C1165 1.363 . S
C1164 C1170 1.379 . S
C1164 N1172 1.356 . S
C1165 C1164 1.363 . S
C1165 C1171 1.363 . S
C1166 C1167 1.363 . S
C1166 C1171 1.379 . S
C1166 N1173 1.356 . S
C1167 C1166 1.363 . S
C1167 C1170 1.363 . S
N1168 C1170 1.356 . S
N1168 H1180 0.984 . S
N1168 H1181 0.985 . S
N1169 C1171 1.356 . S
N1169 H1174 0.984 . S
N1169 H1175 0.985 . S
C1170 C1164 1.379 . S
C1170 C1167 1.363 . S
C1170 N1168 1.356 . S
C1171 C1165 1.363 . S
C1171 C1166 1.379 . S
C1171 N1169 1.356 . S
N1172 C1164 1.356 . S
N1172 H1178 0.984 . S
N1172 H1179 0.984 . S
N1173 C1166 1.356 . S
N1173 H1176 0.984 . S
N1173 H1177 0.985 . S
H1174 N1169 0.984 . S
H1175 N1169 0.985 . S
H1176 N1173 0.984 . S
H1177 N1173 0.985 . S
H1178 N1172 0.984 . S
H1179 N1172 0.984 . S
H1180 N1168 0.984 . S
H1181 N1168 0.985 . S
C1182 C1183 1.363 . S
C1182 C1188 1.379 . S
C1182 N1190 1.356 . S
C1183 C1182 1.363 . S
C1183 C1189 1.363 . S
C1184 C1185 1.363 . S
C1184 C1189 1.379 . S
C1184 N1191 1.356 . S
C1185 C1184 1.363 . S
C1185 C1188 1.363 . S
N1186 C1188 1.356 . S
N1186 H1198 0.984 . S
N1186 H1199 0.985 . S
N1187 C1189 1.356 . S
N1187 H1192 0.984 . S
N1187 H1193 0.985 . S
C1188 C1182 1.379 . S
C1188 C1185 1.363 . S
C1188 N1186 1.356 . S
C1189 C1183 1.363 . S
C1189 C1184 1.379 . S
C1189 N1187 1.356 . S
N1190 C1182 1.356 . S
N1190 H1196 0.984 . S
N1190 H1197 0.984 . S
N1191 C1184 1.356 . S
N1191 H1194 0.984 . S
N1191 H1195 0.985 . S
H1192 N1187 0.984 . S
H1193 N1187 0.985 . S
H1194 N1191 0.984 . S
H1195 N1191 0.985 . S
H1196 N1190 0.984 . S
H1197 N1190 0.984 . S
H1198 N1186 0.984 . S
H1199 N1186 0.985 . S
C1200 C1201 1.363 . S
C1200 C1206 1.379 . S
C1200 N1208 1.356 . S
C1201 C1200 1.363 . S
C1201 C1207 1.363 . S
C1202 C1203 1.363 . S
C1202 C1207 1.379 . S
C1202 N1209 1.356 . S
C1203 C1202 1.363 . S
C1203 C1206 1.363 . S
N1204 C1206 1.356 . S
N1204 H1216 0.984 . S
N1204 H1217 0.985 . S
N1205 C1207 1.356 . S
N1205 H1210 0.984 . S
N1205 H1211 0.985 . S
C1206 C1200 1.379 . S
C1206 C1203 1.363 . S
C1206 N1204 1.356 . S
C1207 C1201 1.363 . S
C1207 C1202 1.379 . S
C1207 N1205 1.356 . S
N1208 C1200 1.356 . S
N1208 H1214 0.984 . S
N1208 H1215 0.984 . S
N1209 C1202 1.356 . S
N1209 H1212 0.984 . S
N1209 H1213 0.985 . S
H1210 N1205 0.984 . S
H1211 N1205 0.985 . S
H1212 N1209 0.984 . S
H1213 N1209 0.985 . S
H1214 N1208 0.984 . S
H1215 N1208 0.984 . S
H1216 N1204 0.984 . S
H1217 N1204 0.985 . S
C1218 C1219 1.363 1_455 S
C1218 C1224 1.379 . S
C1218 N1226 1.356 1_556 S
C1219 C1218 1.363 1_655 S
C1219 C1225 1.363 . S
C1220 C1221 1.344 1_655 S
C1220 C1225 1.379 . S
C1220 N1227 1.356 . S
C1221 C1220 1.344 1_455 S
C1221 C1224 1.375 . S
N1222 C1224 1.356 . S
N1222 H1234 0.984 . S
N1222 H1235 0.985 . S
N1223 C1225 1.356 . S
N1223 H1228 0.984 . S
N1223 H1229 0.985 . S
C1224 C1218 1.379 . S
C1224 C1221 1.375 . S
C1224 N1222 1.356 . S
C1225 C1219 1.363 . S
C1225 C1220 1.379 . S
C1225 N1223 1.356 . S
N1226 C1218 1.356 1_554 S
N1226 H1232 0.984 . S
N1226 H1233 0.984 . S
N1227 C1220 1.356 . S
N1227 H1230 0.984 . S
N1227 H1231 0.985 . S
H1228 N1223 0.984 . S
H1229 N1223 0.985 . S
H1230 N1227 0.984 . S
H1231 N1227 0.985 . S
H1232 N1226 0.984 . S
H1233 N1226 0.984 . S
H1234 N1222 0.984 . S
H1235 N1222 0.985 . S
C1236 C1237 1.363 . S
C1236 C1242 1.379 . S
C1236 N1244 1.356 . S
C1237 C1236 1.363 . S
C1237 C1243 1.363 . S
C1238 C1239 1.363 . S
C1238 C1243 1.379 . S
C1238 N1245 1.356 . S
C1239 C1238 1.363 . S
C1239 C1242 1.363 . S
N1240 C1242 1.356 . S
N1240 H1252 0.984 . S
N1240 H1253 0.985 . S
N1241 C1243 1.356 . S
N1241 H1246 0.984 . S
N1241 H1247 0.985 . S
C1242 C1236 1.379 . S
C1242 C1239 1.363 . S
C1242 N1240 1.356 . S
C1243 C1237 1.363 . S
C1243 C1238 1.379 . S
C1243 N1241 1.356 . S
N1244 C1236 1.356 . S
N1244 H1250 0.984 . S
N1244 H1251 0.984 . S
N1245 C1238 1.356 . S
N1245 H1248 0.984 . S
N1245 H1249 0.985 . S
H1246 N1241 0.984 . S
H1247 N1241 0.985 . S
H1248 N1245 0.984 . S
H1249 N1245 0.985 . S
H1250 N1244 0.984 . S
H1251 N1244 0.984 . S
H1252 N1240 0.984 . S
H1253 N1240 0.985 . S
C1254 C1255 1.363 . S
C1254 C1260 1.379 . S
C1254 N1262 1.356 . S
C1255 C1254 1.363 . S
C1255 C1261 1.363 . S
C1256 C1257 1.363 . S
C1256 C1261 1.379 . S
C1256 N1263 1.356 . S
C1257 C1256 1.363 . S
C1257 C1260 1.363 . S
N1258 C1260 1.356 . S
N1258 H1270 0.984 . S
N1258 H1271 0.985 . S
N1259 C1261 1.356 1_554 S
N1259 H1264 0.984 . S
N1259 H1265 0.985 . S
C1260 C1254 1.379 . S
C1260 C1257 1.363 . S
C1260 N1258 1.356 . S
C1261 C1255 1.363 . S
C1261 C1256 1.379 . S
C1261 N1259 1.356 1_556 S
N1262 C1254 1.356 . S
N1262 H1268 0.984 . S
N1262 H1269 0.984 . S
N1263 C1256 1.356 . S
N1263 H1266 0.984 . S
N1263 H1267 0.985 . S
H1264 N1259 0.984 . S
H1265 N1259 0.985 . S
H1266 N1263 0.984 . S
H1267 N1263 0.985 . S
H1268 N1262 0.984 . S
H1269 N1262 0.984 . S
H1270 N1258 0.984 . S
H1271 N1258 0.985 . S
C1272 C1273 1.363 . S
C1272 C1278 1.379 . S
C1272 N1280 1.356 . S
C1273 C1272 1.363 . S
C1273 C1279 1.363 . S
C1274 C1275 1.363 . S
C1274 C1279 1.379 . S
C1274 N1281 1.356 . S
C1275 C1274 1.363 . S
C1275 C1278 1.363 . S
N1276 C1278 1.356 . S
N1276 H1288 0.984 . S
N1276 H1289 0.985 . S
N1277 C1279 1.356 . S
N1277 H1282 0.984 . S
N1277 H1283 0.985 . S
C1278 C1272 1.379 . S
C1278 C1275 1.363 . S
C1278 N1276 1.356 . S
C1279 C1273 1.363 . S
C1279 C1274 1.379 . S
C1279 N1277 1.356 . S
N1280 C1272 1.356 . S
N1280 H1286 0.984 . S
N1280 H1287 0.984 . S
N1281 C1274 1.356 . S
N1281 H1284 0.984 . S
N1281 H1285 0.985 . S
H1282 N1277 0.984 . S
H1283 N1277 0.985 . S
H1284 N1281 0.984 . S
H1285 N1281 0.985 . S
H1286 N1280 0.984 . S
H1287 N1280 0.984 . S
H1288 N1276 0.984 . S
H1289 N1276 0.985 . S
C1290 C1291 1.363 . S
C1290 C1296 1.379 . S
C1290 N1298 1.356 . S
C1291 C1290 1.363 . S
C1291 C1297 1.363 . S
C1292 C1293 1.363 . S
C1292 C1297 1.379 . S
C1292 N1299 1.356 . S
C1293 C1292 1.363 . S
C1293 C1296 1.363 . S
N1294 C1296 1.356 . S
N1294 H1306 0.984 . S
N1294 H1307 0.985 . S
N1295 C1297 1.356 1_556 S
N1295 H1300 0.984 . S
N1295 H1301 0.985 . S
C1296 C1290 1.379 . S
C1296 C1293 1.363 . S
C1296 N1294 1.356 . S
C1297 C1291 1.363 . S
C1297 C1292 1.379 . S
C1297 N1295 1.356 1_554 S
N1298 C1290 1.356 . S
N1298 H1304 0.984 . S
N1298 H1305 0.984 . S
N1299 C1292 1.356 . S
N1299 H1302 0.984 . S
N1299 H1303 0.985 . S
H1300 N1295 0.984 . S
H1301 N1295 0.985 . S
H1302 N1299 0.984 . S
H1303 N1299 0.985 . S
H1304 N1298 0.984 . S
H1305 N1298 0.984 . S
H1306 N1294 0.984 . S
H1307 N1294 0.985 . S
C1308 C1309 1.363 . S
C1308 C1314 1.379 . S
C1308 N1316 1.356 . S
C1309 C1308 1.363 . S
C1309 C1315 1.363 . S
C1310 C1311 1.363 . S
C1310 C1315 1.379 . S
C1310 N1317 1.356 . S
C1311 C1310 1.363 . S
C1311 C1314 1.363 . S
N1312 C1314 1.356 . S
N1312 H1324 0.984 . S
N1312 H1325 0.985 . S
N1313 C1315 1.356 . S
N1313 H1318 0.984 . S
N1313 H1319 0.985 . S
C1314 C1308 1.379 . S
C1314 C1311 1.363 . S
C1314 N1312 1.356 . S
C1315 C1309 1.363 . S
C1315 C1310 1.379 . S
C1315 N1313 1.356 . S
N1316 C1308 1.356 . S
N1316 H1322 0.984 . S
N1316 H1323 0.984 . S
N1317 C1310 1.356 . S
N1317 H1320 0.984 . S
N1317 H1321 0.985 . S
H1318 N1313 0.984 . S
H1319 N1313 0.985 . S
H1320 N1317 0.984 . S
H1321 N1317 0.985 . S
H1322 N1316 0.984 . S
H1323 N1316 0.984 . S
H1324 N1312 0.984 . S
H1325 N1312 0.985 . S
C1326 C1327 1.363 . S
C1326 C1332 1.379 . S
C1326 N1334 1.356 1_554 S
C1327 C1326 1.363 . S
C1327 C1333 1.363 . S
C1328 C1329 1.363 . S
C1328 C1333 1.379 . S
C1328 N1335 1.356 . S
C1329 C1328 1.363 . S
C1329 C1332 1.363 . S
N1330 C1332 1.356 . S
N1330 H1342 0.984 . S
N1330 H1343 0.985 . S
N1331 C1333 1.356 . S
N1331 H1336 0.984 . S
N1331 H1337 0.985 . S
C1332 C1326 1.379 . S
C1332 C1329 1.363 . S
C1332 N1330 1.356 . S
C1333 C1327 1.363 . S
C1333 C1328 1.379 . S
C1333 N1331 1.356 . S
N1334 C1326 1.356 1_556 S
N1334 H1340 0.984 . S
N1334 H1341 0.984 . S
N1335 C1328 1.356 . S
N1335 H1338 0.984 . S
N1335 H1339 0.985 . S
H1336 N1331 0.984 . S
H1337 N1331 0.985 . S
H1338 N1335 0.984 . S
H1339 N1335 0.985 . S
H1340 N1334 0.984 . S
H1341 N1334 0.984 . S
H1342 N1330 0.984 . S
H1343 N1330 0.985 . S
C1344 C1345 1.363 . S
C1344 C1350 1.379 . S
C1344 N1352 1.356 . S
C1345 C1344 1.363 . S
C1345 C1351 1.363 . S
C1346 C1347 1.363 . S
C1346 C1351 1.379 . S
C1346 N1353 1.356 . S
C1347 C1346 1.363 . S
C1347 C1350 1.363 . S
N1348 C1350 1.356 . S
N1348 H1360 0.984 . S
N1348 H1361 0.985 . S
N1349 C1351 1.356 . S
N1349 H1354 0.984 . S
N1349 H1355 0.985 . S
C1350 C1344 1.379 . S
C1350 C1347 1.363 . S
C1350 N1348 1.356 . S
C1351 C1345 1.363 . S
C1351 C1346 1.379 . S
C1351 N1349 1.356 . S
N1352 C1344 1.356 . S
N1352 H1358 0.984 . S
N1352 H1359 0.984 . S
N1353 C1346 1.356 . S
N1353 H1356 0.984 . S
N1353 H1357 0.985 . S
H1354 N1349 0.984 . S
H1355 N1349 0.985 . S
H1356 N1353 0.984 . S
H1357 N1353 0.985 . S
H1358 N1352 0.984 . S
H1359 N1352 0.984 . S
H1360 N1348 0.984 . S
H1361 N1348 0.985 . S
C1362 C1363 1.363 . S
C1362 C1368 1.379 . S
C1362 N1370 1.356 . S
C1363 C1362 1.363 . S
C1363 C1369 1.363 . S
C1364 C1365 1.363 . S
C1364 C1369 1.379 . S
C1364 N1371 1.356 . S
C1365 C1364 1.363 . S
C1365 C1368 1.363 . S
N1366 C1368 1.356 . S
N1366 H1378 0.984 . S
N1366 H1379 0.985 . S
N1367 C1369 1.356 . S
N1367 H1372 0.984 . S
N1367 H1373 0.985 . S
C1368 C1362 1.379 . S
C1368 C1365 1.363 . S
C1368 N1366 1.356 . S
C1369 C1363 1.363 . S
C1369 C1364 1.379 . S
C1369 N1367 1.356 . S
N1370 C1362 1.356 . S
N1370 H1376 0.984 . S
N1370 H1377 0.984 . S
N1371 C1364 1.356 . S
N1371 H1374 0.984 . S
N1371 H1375 0.985 . S
H1372 N1367 0.984 . S
H1373 N1367 0.985 . S
H1374 N1371 0.984 . S
H1375 N1371 0.985 . S
H1376 N1370 0.984 . S
H1377 N1370 0.984 . S
H1378 N1366 0.984 . S
H1379 N1366 0.985 . S
C1380 C1381 1.363 . S
C1380 C1386 1.379 . S
C1380 N1388 1.356 . S
C1381 C1380 1.363 . S
C1381 C1387 1.363 . S
C1382 C1383 1.363 . S
C1382 C1387 1.379 . S
C1382 N1389 1.356 . S
C1383 C1382 1.363 . S
C1383 C1386 1.363 . S
N1384 C1386 1.356 . S
N1384 H1396 0.984 . S
N1384 H1397 0.985 . S
N1385 C1387 1.356 . S
N1385 H1390 0.984 . S
N1385 H1391 0.985 . S
C1386 C1380 1.379 . S
C1386 C1383 1.363 . S
C1386 N1384 1.356 . S
C1387 C1381 1.363 . S
C1387 C1382 1.379 . S
C1387 N1385 1.356 . S
N1388 C1380 1.356 . S
N1388 H1394 0.984 . S
N1388 H1395 0.984 . S
N1389 C1382 1.356 . S
N1389 H1392 0.984 . S
N1389 H1393 0.985 . S
H1390 N1385 0.984 . S
H1391 N1385 0.985 . S
H1392 N1389 0.984 . S
H1393 N1389 0.985 . S
H1394 N1388 0.984 . S
H1395 N1388 0.984 . S
H1396 N1384 0.984 . S
H1397 N1384 0.985 . S
C1398 C1399 1.363 . S
C1398 C1404 1.379 . S
C1398 N1406 1.356 . S
C1399 C1398 1.363 . S
C1399 C1405 1.363 . S
C1400 C1401 1.363 . S
C1400 C1405 1.379 . S
C1400 N1407 1.356 . S
C1401 C1400 1.363 . S
C1401 C1404 1.363 . S
N1402 C1404 1.356 . S
N1402 H1414 0.984 . S
N1402 H1415 0.985 . S
N1403 C1405 1.356 . S
N1403 H1408 0.984 . S
N1403 H1409 0.985 . S
C1404 C1398 1.379 . S
C1404 C1401 1.363 . S
C1404 N1402 1.356 . S
C1405 C1399 1.363 . S
C1405 C1400 1.379 . S
C1405 N1403 1.356 . S
N1406 C1398 1.356 . S
N1406 H1412 0.984 . S
N1406 H1413 0.984 . S
N1407 C1400 1.356 . S
N1407 H1410 0.984 . S
N1407 H1411 0.985 . S
H1408 N1403 0.984 . S
H1409 N1403 0.985 . S
H1410 N1407 0.984 . S
H1411 N1407 0.985 . S
H1412 N1406 0.984 . S
H1413 N1406 0.984 . S
H1414 N1402 0.984 . S
H1415 N1402 0.985 . S
C1416 C1417 1.363 1_554 S
C1416 C1422 1.379 . S
C1416 N1424 1.356 . S
C1417 C1416 1.363 1_556 S
C1417 C1423 1.363 . S
C1418 C1419 1.363 . S
C1418 C1423 1.379 . S
C1418 N1425 1.356 . S
C1419 C1418 1.363 . S
C1419 C1422 1.363 1_556 S
N1420 C1422 1.356 . S
N1420 H1432 0.984 . S
N1420 H1433 0.985 . S
N1421 C1423 1.356 . S
N1421 H1426 0.984 . S
N1421 H1427 0.985 . S
C1422 C1416 1.379 . S
C1422 C1419 1.363 1_554 S
C1422 N1420 1.356 . S
C1423 C1417 1.363 . S
C1423 C1418 1.379 . S
C1423 N1421 1.356 . S
N1424 C1416 1.356 . S
N1424 H1430 0.984 . S
N1424 H1431 0.984 . S
N1425 C1418 1.356 . S
N1425 H1428 0.984 . S
N1425 H1429 0.985 . S
H1426 N1421 0.984 . S
H1427 N1421 0.985 . S
H1428 N1425 0.984 . S
H1429 N1425 0.985 . S
H1430 N1424 0.984 . S
H1431 N1424 0.984 . S
H1432 N1420 0.984 . S
H1433 N1420 0.985 . S
C1434 C1435 1.363 . S
C1434 C1440 1.379 . S
C1434 N1442 1.356 . S
C1435 C1434 1.363 . S
C1435 C1441 1.363 . S
C1436 C1437 1.363 . S
C1436 C1441 1.379 . S
C1436 N1443 1.356 . S
C1437 C1436 1.363 . S
C1437 C1440 1.363 . S
N1438 C1440 1.356 . S
N1438 H1450 0.984 . S
N1438 H1451 0.985 . S
N1439 C1441 1.356 . S
N1439 H1444 0.984 . S
N1439 H1445 0.985 . S
C1440 C1434 1.379 . S
C1440 C1437 1.363 . S
C1440 N1438 1.356 . S
C1441 C1435 1.363 . S
C1441 C1436 1.379 . S
C1441 N1439 1.356 . S
N1442 C1434 1.356 . S
N1442 H1448 0.984 . S
N1442 H1449 0.984 . S
N1443 C1436 1.356 . S
N1443 H1446 0.984 . S
N1443 H1447 0.985 . S
H1444 N1439 0.984 . S
H1445 N1439 0.985 . S
H1446 N1443 0.984 . S
H1447 N1443 0.985 . S
H1448 N1442 0.984 . S
H1449 N1442 0.984 . S
H1450 N1438 0.984 . S
H1451 N1438 0.985 . S
C1452 C1453 1.363 . S
C1452 C1458 1.379 1_554 S
C1452 N1460 1.356 1_554 S
C1453 C1452 1.363 . S
C1453 C1459 1.363 . S
C1454 C1455 1.363 . S
C1454 C1459 1.379 . S
C1454 N1461 1.356 . S
C1455 C1454 1.363 . S
C1455 C1458 1.363 1_554 S
N1456 C1458 1.356 . S
N1456 H1468 0.984 . S
N1456 H1469 0.985 . S
N1457 C1459 1.356 . S
N1457 H1462 0.984 . S
N1457 H1463 0.985 . S
C1458 C1452 1.379 1_556 S
C1458 C1455 1.363 1_556 S
C1458 N1456 1.356 . S
C1459 C1453 1.363 . S
C1459 C1454 1.379 . S
C1459 N1457 1.356 . S
N1460 C1452 1.356 1_556 S
N1460 H1466 0.984 . S
N1460 H1467 0.984 1_556 S
N1461 C1454 1.356 . S
N1461 H1464 0.984 . S
N1461 H1465 0.985 . S
H1462 N1457 0.984 . S
H1463 N1457 0.985 . S
H1464 N1461 0.984 . S
H1465 N1461 0.985 . S
H1466 N1460 0.984 . S
H1467 N1460 0.984 1_554 S
H1468 N1456 0.984 . S
H1469 N1456 0.985 . S
C1470 C1471 1.363 . S
C1470 C1476 1.379 . S
C1470 N1478 1.356 1_554 S
C1471 C1470 1.363 . S
C1471 C1477 1.363 . S
C1472 C1473 1.363 . S
C1472 C1477 1.379 . S
C1472 N1479 1.356 . S
C1473 C1472 1.363 . S
C1473 C1476 1.363 . S
N1474 C1476 1.356 1_556 S
N1474 H1486 0.984 . S
N1474 H1487 0.985 . S
N1475 C1477 1.356 1_545 S
N1475 H1480 0.984 . S
N1475 H1481 0.985 . S
C1476 C1470 1.379 . S
C1476 C1473 1.363 . S
C1476 N1474 1.356 1_554 S
C1477 C1471 1.363 . S
C1477 C1472 1.379 . S
C1477 N1475 1.356 1_565 S
N1478 C1470 1.356 1_556 S
N1478 H1484 0.984 . S
N1478 H1485 0.986 . S
N1479 C1472 1.356 . S
N1479 H1482 0.984 . S
N1479 H1483 0.985 . S
H1480 N1475 0.984 . S
H1481 N1475 0.985 . S
H1482 N1479 0.984 . S
H1483 N1479 0.985 . S
H1484 N1478 0.984 . S
H1485 N1478 0.986 . S
H1486 N1474 0.984 . S
H1487 N1474 0.985 . S
C627 C194 1.698 . S
C625 C66 1.692 . S
C645 C242 1.326 . S
C643 C76 1.346 . S
C661 C93 1.721 . S
C663 C278 1.630 . S
C681 C314 1.535 . S
C679 C54 1.582 . S
C699 C340 1.484 . S
C697 C126 1.488 . S
C717 C376 1.784 . S
C715 C150 1.814 . S
C733 C136 1.297 . S
C735 C411 1.327 . S
C753 C448 1.759 . S
C751 C117 1.779 . S
C769 C141 1.313 . S
C771 C482 1.310 . S
C789 C530 1.376 . S
C787 C112 1.407 . S
C805 C124 1.485 . S
C807 C483 1.510 . S
C825 C520 1.443 . S
C823 C148 1.440 . S
C841 C88 1.366 . S
C843 C566 1.284 . S
C859 C52 1.638 . S
C861 C555 1.628 . S
C877 C64 1.313 . S
C879 C556 1.323 . S
C895 C78 1.368 . S
C897 C554 1.364 . S
C913 C45 1.614 . S
C915 C302 1.604 . S
C931 C177 1.753 . S
C933 C303 1.757 . S
C951 C206 1.472 . S
C949 C189 1.551 1_565 S
C969 C231 1.569 . S
C967 C102 1.558 . S
C985 C57 1.755 . S
C987 C338 1.754 . S
C1005 C446 1.467 . S
C1003 C138 1.496 . S
C1023 C339 1.742 . S
C1021 C114 1.748 . S
C1041 C412 1.772 . S
C1039 C153 1.776 . S
C1059 C410 1.698 . S
C1057 C174 1.692 . S
C1075 C184 1.346 . S
C1077 C458 1.327 . S
C1093 C105 1.721 . S
C1095 C350 1.630 . S
C1113 C386 1.535 . S
C1111 C162 1.579 . S
C1129 C42 1.488 . S
C1131 C268 1.485 . S
C1149 C304 1.784 . S
C1147 C6 1.814 . S
C1167 C195 1.327 . S
C1165 C16 1.297 . S
C1185 C232 1.759 . S
C1183 C33 1.780 1_455 S
C1201 C21 1.313 . S
C1203 C518 1.310 . S
C1219 C28 1.407 . S
C1221 C494 1.378 1_455 S
C1237 C40 1.485 . S
C1239 C519 1.510 . S
C1255 C4 1.439 . S
C1257 C484 1.443 . S
C1275 C602 1.284 . S
C1273 C100 1.366 . S
C1293 C591 1.629 . S
C1291 C160 1.638 . S
C1311 C592 1.323 . S
C1309 C172 1.313 . S
C1327 C186 1.368 . S
C1329 C590 1.364 . S
C1345 C129 1.614 . S
C1347 C374 1.604 . S
C1365 C375 1.757 . S
C1363 C69 1.753 . S
C1383 C422 1.472 . S
C1381 C81 1.551 . S
C1401 C447 1.569 . S
C1399 C90 1.560 . S
C1417 C165 1.755 . S
C1419 C266 1.754 1_556 S
C1437 C230 1.467 . S
C1435 C18 1.497 . S
C1453 C30 1.748 . S
C1455 C267 1.742 . S
C1473 C196 1.772 . S
C1471 C9 1.776 1_565 S
