# Generated by pormake.
# Topology zzz, (3,6)-cn, num edge types: 1
# Building blocks:
#     Node 0, Type 0, BuildingBlock: KAKCAD_clean_linker_0, # of connection points: 3
#     Node 1, Type 0, BuildingBlock: KAKCAD_clean_linker_0, # of connection points: 3
#     Node 2, Type 0, BuildingBlock: KAKCAD_clean_linker_0, # of connection points: 3
#     Node 3, Type 0, BuildingBlock: KAKCAD_clean_linker_0, # of connection points: 3
#     Node 4, Type 0, BuildingBlock: KAKCAD_clean_linker_0, # of connection points: 3
#     Node 5, Type 0, BuildingBlock: KAKCAD_clean_linker_0, # of connection points: 3
#     Node 6, Type 0, BuildingBlock: KAKCAD_clean_linker_0, # of connection points: 3
#     Node 7, Type 0, BuildingBlock: KAKCAD_clean_linker_0, # of connection points: 3
#     Node 8, Type 1, BuildingBlock: JUFBIX_clean_sbu_0, # of connection points: 6
#     Node 9, Type 1, BuildingBlock: JUFBIX_clean_sbu_0, # of connection points: 6
#     Node 10, Type 1, BuildingBlock: JUFBIX_clean_sbu_0, # of connection points: 6
#     Node 11, Type 1, BuildingBlock: JUFBIX_clean_sbu_0, # of connection points: 6
#     Edge 12, Type (0, 1), BuildingBlock: AJUNOK_clean_linker_0, # of connection points: 2
#     Edge 13, Type (0, 1), BuildingBlock: AJUNOK_clean_linker_0, # of connection points: 2
#     Edge 14, Type (0, 1), BuildingBlock: AJUNOK_clean_linker_0, # of connection points: 2
#     Edge 15, Type (0, 1), BuildingBlock: AJUNOK_clean_linker_0, # of connection points: 2
#     Edge 16, Type (0, 1), BuildingBlock: AJUNOK_clean_linker_0, # of connection points: 2
#     Edge 17, Type (0, 1), BuildingBlock: AJUNOK_clean_linker_0, # of connection points: 2
#     Edge 18, Type (0, 1), BuildingBlock: AJUNOK_clean_linker_0, # of connection points: 2
#     Edge 19, Type (0, 1), BuildingBlock: AJUNOK_clean_linker_0, # of connection points: 2
#     Edge 20, Type (0, 1), BuildingBlock: AJUNOK_clean_linker_0, # of connection points: 2
#     Edge 21, Type (0, 1), BuildingBlock: AJUNOK_clean_linker_0, # of connection points: 2
#     Edge 22, Type (0, 1), BuildingBlock: AJUNOK_clean_linker_0, # of connection points: 2
#     Edge 23, Type (0, 1), BuildingBlock: AJUNOK_clean_linker_0, # of connection points: 2
#     Edge 24, Type (0, 1), BuildingBlock: AJUNOK_clean_linker_0, # of connection points: 2
#     Edge 25, Type (0, 1), BuildingBlock: AJUNOK_clean_linker_0, # of connection points: 2
#     Edge 26, Type (0, 1), BuildingBlock: AJUNOK_clean_linker_0, # of connection points: 2
#     Edge 27, Type (0, 1), BuildingBlock: AJUNOK_clean_linker_0, # of connection points: 2
#     Edge 28, Type (0, 1), BuildingBlock: AJUNOK_clean_linker_0, # of connection points: 2
#     Edge 29, Type (0, 1), BuildingBlock: AJUNOK_clean_linker_0, # of connection points: 2
#     Edge 30, Type (0, 1), BuildingBlock: AJUNOK_clean_linker_0, # of connection points: 2
#     Edge 31, Type (0, 1), BuildingBlock: AJUNOK_clean_linker_0, # of connection points: 2
#     Edge 32, Type (0, 1), BuildingBlock: AJUNOK_clean_linker_0, # of connection points: 2
#     Edge 33, Type (0, 1), BuildingBlock: AJUNOK_clean_linker_0, # of connection points: 2
#     Edge 34, Type (0, 1), BuildingBlock: AJUNOK_clean_linker_0, # of connection points: 2
#     Edge 35, Type (0, 1), BuildingBlock: AJUNOK_clean_linker_0, # of connection points: 2
# Relax obj value: 0.280
# Max RMSD: 0.229
# Mean RMSD: 0.186
data_MOF--net-zzz--node1-JUFBIX_clean_sbu_0--node2-KAKCAD_clean_linker_0--edge1-AJUNOK_clean_linker_0
_symmetry_space_group_name_H-M    P1
_symmetry_Int_Tables_number       1
_symmetry_cell_setting            triclinic
loop_
_symmetry_equiv_pos_as_xyz
'x, y, z'
_cell_length_a     45.973269
_cell_length_b     47.034239
_cell_length_c     18.143652
_cell_angle_alpha  81.054726
_cell_angle_beta   90.069825
_cell_angle_gamma 86.136139
loop_
_atom_site_label
_atom_site_type_symbol
_atom_site_fract_x
_atom_site_fract_y
_atom_site_fract_z
_atom_type_partial_charge
C0 C 0.85931 0.48111 0.08894 0.0
C1 C 0.88598 0.46902 0.12082 0.0
C2 C 0.83515 0.48459 0.13381 0.0
C3 C 0.83711 0.47564 0.21146 0.0
C4 C 0.86335 0.46143 0.24226 0.0
C5 C 0.8877 0.45848 0.19739 0.0
C6 C 0.81315 0.48416 0.26035 0.0
C7 C 0.78393 0.48581 0.23699 0.0
C8 C 0.76169 0.49795 0.27789 0.0
C9 C 0.76875 0.50791 0.3447 0.0
C10 C 0.79788 0.50496 0.37041 0.0
C11 C 0.81975 0.49347 0.32768 0.0
C12 C 0.80723 0.51397 0.44066 0.0
C13 C 0.81403 0.54259 0.44095 0.0
C14 C 0.81771 0.49255 0.49898 0.0
C15 C 0.83681 0.49909 0.55289 0.0
C16 C 0.84594 0.52721 0.54935 0.0
C17 C 0.73178 0.50127 0.24577 0.0
C18 C 0.71879 0.52885 0.21903 0.0
C19 C 0.71909 0.47697 0.22708 0.0
C20 C 0.69537 0.48018 0.17764 0.0
C21 C 0.68404 0.50779 0.14526 0.0
C22 C 0.69502 0.53209 0.16909 0.0
C23 C 0.83311 0.54921 0.49524 0.0
H24 H 0.8577 0.48966 0.02995 0.0
H25 H 0.81559 0.49599 0.10799 0.0
H26 H 0.86545 0.45364 0.30153 0.0
H27 H 0.90816 0.449 0.2228 0.0
H28 H 0.77844 0.47849 0.18525 0.0
H29 H 0.84225 0.49292 0.34616 0.0
H30 H 0.75184 0.51746 0.3765 0.0
H31 H 0.80662 0.55935 0.39568 0.0
H32 H 0.81324 0.47022 0.49888 0.0
H33 H 0.84629 0.48161 0.59359 0.0
H34 H 0.72843 0.54791 0.23192 0.0
H35 H 0.72879 0.45549 0.24691 0.0
H36 H 0.83918 0.57122 0.49213 0.0
H37 H 0.68661 0.55361 0.1451 0.0
H38 H 0.68691 0.46108 0.16142 0.0
C39 C 0.04007 0.8509 0.0368 0.0
C40 C 0.06065 0.8703 0.05049 0.0
C41 C 0.03567 0.8266 0.08906 0.0
C42 C 0.0516 0.82133 0.15637 0.0
C43 C 0.07366 0.83949 0.16786 0.0
C44 C 0.07838 0.86363 0.11488 0.0
C45 C 0.04244 0.79925 0.21742 0.0
C46 C 0.03665 0.77179 0.20361 0.0
C47 C 0.02359 0.75213 0.25778 0.0
C48 C 0.01573 0.76065 0.32706 0.0
C49 C 0.02252 0.7881 0.34243 0.0
C50 C 0.03595 0.80696 0.28715 0.0
C51 C 0.01456 0.79921 0.41285 0.0
C52 C 0.98525 0.80292 0.4333 0.0
C53 C 0.03568 0.81237 0.4496 0.0
C54 C 0.02755 0.83092 0.50031 0.0
C55 C 0.99802 0.83655 0.51683 0.0
C56 C 0.01738 0.72372 0.23681 0.0
C57 C 0.98873 0.71517 0.23521 0.0
C58 C 0.03947 0.70805 0.20345 0.0
C59 C 0.03273 0.68629 0.16313 0.0
C60 C 0.00371 0.67944 0.15534 0.0
C61 C 0.98198 0.69311 0.19515 0.0
C62 C 0.97707 0.8214 0.4848 0.0
H63 H 0.02592 0.85548 0.98801 0.0
H64 H 0.01837 0.81308 0.07908 0.0
H65 H 0.08646 0.8356 0.21904 0.0
H66 H 0.09497 0.87776 0.12591 0.0
H67 H 0.04152 0.76603 0.1491 0.0
H68 H 0.03974 0.8286 0.29693 0.0
H69 H 0.00494 0.74604 0.36865 0.0
H70 H 0.96845 0.79339 0.40524 0.0
H71 H 0.05842 0.81012 0.43446 0.0
H72 H 0.04435 0.84256 0.52187 0.0
H73 H 0.97126 0.72686 0.26025 0.0
H74 H 0.06179 0.71408 0.20404 0.0
H75 H 0.95414 0.82505 0.49648 0.0
H76 H 0.95952 0.6877 0.19256 0.0
H77 H 0.0501 0.67625 0.13373 0.0
C78 C 0.6747 0.02514 0.98941 0.0
C79 C 0.65267 0.04584 1.0028 0.0
C80 C 0.69916 0.01921 0.0361 0.0
C81 C 0.70201 0.0337 0.09753 0.0
C82 C 0.68061 0.05532 0.10905 0.0
C83 C 0.65612 0.0613 0.06214 0.0
C84 C 0.72553 0.02397 0.1535 0.0
C85 C 0.75382 0.01674 0.13128 0.0
C86 C 0.77531 1.00388 0.18358 0.0
C87 C 0.76817 0.99878 0.26014 0.0
C88 C 0.73981 1.00667 0.28307 0.0
C89 C 0.71888 0.0192 0.22931 0.0
C90 C 0.72974 1.0001 0.36116 0.0
C91 C 0.72718 0.97137 0.39432 0.0
C92 C 0.71514 0.02226 0.39336 0.0
C93 C 0.69556 0.01582 0.45142 0.0
C94 C 0.69023 0.98703 0.47888 0.0
C95 C 0.80478 0.99612 0.15547 0.0
C96 C 0.80722 0.98366 0.08989 0.0
C97 C 0.83014 1.00457 0.18686 0.0
C98 C 0.85694 1.00248 0.15034 0.0
C99 C 0.85889 0.99189 0.08179 0.0
C100 C 0.83377 0.98188 0.05314 0.0
C101 C 0.7077 0.96488 0.45313 0.0
H102 H 0.67229 0.01236 0.94526 0.0
H103 H 0.71501 1.00209 0.02654 0.0
H104 H 0.6824 0.067 0.15564 0.0
H105 H 0.63946 0.07741 0.07348 0.0
H106 H 0.75908 0.02113 0.07255 0.0
H107 H 0.69669 0.02382 0.2465 0.0
H108 H 0.78427 0.98849 0.30112 0.0
H109 H 0.73808 0.95387 0.37034 0.0
H110 H 0.71666 0.04461 0.36858 0.0
H111 H 0.68267 0.03347 0.46989 0.0
H112 H 0.78814 0.97661 0.06467 0.0
H113 H 0.82896 0.01432 0.23716 0.0
H114 H 0.70485 0.94247 0.47481 0.0
H115 H 0.8341 0.97418 0.99992 0.0
H116 H 0.87593 0.01018 0.1743 0.0
C117 C 0.47815 0.69382 0.46425 0.0
C118 C 0.50285 0.67416 0.47496 0.0
C119 C 0.47633 0.71623 0.40332 0.0
C120 C 0.49936 0.71968 0.35278 0.0
C121 C 0.52509 0.70176 0.36742 0.0
C122 C 0.52687 0.67928 0.42808 0.0
C123 C 0.49336 0.73438 0.27557 0.0
C124 C 0.49762 0.76373 0.25098 0.0
C125 C 0.49383 0.77526 0.17457 0.0
C126 C 0.48579 0.7573 0.12387 0.0
C127 C 0.48086 0.7283 0.1487 0.0
C128 C 0.48456 0.71719 0.22441 0.0
C129 C 0.47479 0.70832 0.09604 0.0
C130 C 0.45327 0.68844 0.11242 0.0
C131 C 0.49355 0.70587 0.03607 0.0
C132 C 0.49247 0.6825 0.99742 0.0
C133 C 0.47249 0.66143 0.01782 0.0
C134 C 0.49869 0.80578 0.14527 0.0
C135 C 0.47772 0.82787 0.15538 0.0
C136 C 0.52218 0.81235 0.09773 0.0
C137 C 0.52438 0.84039 0.0597 0.0
C138 C 0.50286 0.86248 0.06733 0.0
C139 C 0.47966 0.85589 0.11644 0.0
C140 C 0.45205 0.6652 0.07329 0.0
H141 H 0.45954 0.69087 0.50052 0.0
H142 H 0.45605 0.72935 0.39233 0.0
H143 H 0.54285 0.70355 0.32812 0.0
H144 H 0.54621 0.66459 0.43478 0.0
H145 H 0.50448 0.77719 0.29024 0.0
H146 H 0.48184 0.69449 0.24348 0.0
H147 H 0.48332 0.76593 0.06503 0.0
H148 H 0.43846 0.69001 0.15824 0.0
H149 H 0.51043 0.72078 0.02266 0.0
H150 H 0.50828 0.68002 0.95424 0.0
H151 H 0.45905 0.82313 0.19042 0.0
H152 H 0.53842 0.79553 0.08838 0.0
H153 H 0.43645 0.64918 0.08968 0.0
H154 H 0.46224 0.87201 0.12234 0.0
H155 H 0.54265 0.84464 0.02293 0.0
C156 C 0.133 0.57516 0.43805 0.0
C157 C 0.11138 0.55533 0.45305 0.0
C158 C 0.15759 0.56856 0.39675 0.0
C159 C 0.16073 0.54215 0.36963 0.0
C160 C 0.13925 0.52234 0.38519 0.0
C161 C 0.11503 0.52873 0.42692 0.0
C162 C 0.18607 0.53479 0.32463 0.0
C163 C 0.21457 0.53611 0.35016 0.0
C164 C 0.23853 0.52615 0.31066 0.0
C165 C 0.23362 0.51534 0.24352 0.0
C166 C 0.20488 0.51456 0.21716 0.0
C167 C 0.18149 0.52431 0.25805 0.0
C168 C 0.1975 0.50476 0.1463 0.0
C169 C 0.19888 0.52416 0.07957 0.0
C170 C 0.17974 0.48143 0.14896 0.0
C171 C 0.16066 0.47987 0.08986 0.0
C172 C 0.15907 0.50164 0.0273 0.0
C173 C 0.26802 0.52535 0.34462 0.0
C174 C 0.27718 0.5499 0.37101 0.0
C175 C 0.28478 0.49908 0.36258 0.0
C176 C 0.30895 0.49695 0.41083 0.0
C177 C 0.31681 0.5211 0.44147 0.0
C178 C 0.3014 0.54783 0.41861 0.0
C179 C 0.17986 0.52253 0.02023 0.0
H180 H 0.13091 0.59566 0.45836 0.0
H181 H 0.17395 0.58415 0.38531 0.0
H182 H 0.14149 0.50157 0.36617 0.0
H183 H 0.09952 0.51241 0.44036 0.0
H184 H 0.21804 0.5435 0.40301 0.0
H185 H 0.15936 0.52377 0.23763 0.0
H186 H 0.25182 0.50757 0.21254 0.0
H187 H 0.21211 0.54251 0.0765 0.0
H188 H 0.17807 0.46642 0.20028 0.0
H189 H 0.14502 0.46345 0.09676 0.0
H190 H 0.26461 0.57041 0.35795 0.0
H191 H 0.27807 0.4798 0.34345 0.0
H192 H 0.17948 0.53925 0.97182 0.0
H193 H 0.30697 0.56679 0.44122 0.0
H194 H 0.32077 0.47618 0.42662 0.0
C195 C 0.93363 0.19166 0.5095 0.0
C196 C 0.94894 0.16477 0.50958 0.0
C197 C 0.94007 0.21545 0.45686 0.0
C198 C 0.96196 0.21264 0.40379 0.0
C199 C 0.97688 0.18555 0.40382 0.0
C200 C 0.97034 0.16194 0.45573 0.0
C201 C 0.97043 0.23773 0.34986 0.0
C202 C 0.97359 0.26457 0.37218 0.0
C203 C 0.98541 0.2872 0.32386 0.0
C204 C 0.99468 0.2824 0.25206 0.0
C205 C 0.99058 0.25568 0.22859 0.0
C206 C 0.97804 0.23397 0.27727 0.0
C207 C 0.00041 0.24794 0.15607 0.0
C208 C 0.9792 0.24465 0.10279 0.0
C209 C 0.02822 0.23392 0.15232 0.0
C210 C 0.03375 0.21468 0.10135 0.0
C211 C 0.01153 0.20909 0.05318 0.0
C212 C 0.98889 0.31487 0.35239 0.0
C213 C 0.96552 0.32737 0.38903 0.0
C214 C 0.01622 0.3265 0.35359 0.0
C215 C 0.02045 0.34895 0.39458 0.0
C216 C 0.99735 0.36042 0.43446 0.0
C217 C 0.96969 0.34976 0.42958 0.0
C218 C 0.98471 0.22546 0.05181 0.0
H219 H 0.91697 0.19432 0.5505 0.0
H220 H 0.92807 0.236 0.45788 0.0
H221 H 0.99437 0.1827 0.36516 0.0
H222 H 0.98292 0.14161 0.45556 0.0
H223 H 0.96816 0.26748 0.42879 0.0
H224 H 0.97511 0.21344 0.25893 0.0
H225 H 0.00462 0.29923 0.21492 0.0
H226 H 0.95737 0.25461 0.10569 0.0
H227 H 0.04464 0.23538 0.1942 0.0
H228 H 0.05449 0.20215 0.10485 0.0
H229 H 0.94421 0.31882 0.38925 0.0
H230 H 0.0347 0.31713 0.3266 0.0
H231 H 0.96719 0.22175 0.01523 0.0
H232 H 0.95154 0.35756 0.46065 0.0
H233 H 0.04203 0.3567 0.39718 0.0
C234 C 0.32259 0.99358 0.57839 0.0
C235 C 0.34793 0.00818 0.56108 0.0
C236 C 0.29785 1.00011 0.53211 0.0
C237 C 0.29824 0.02153 0.46873 0.0
C238 C 0.32331 0.03691 0.45412 0.0
C239 C 0.34793 0.03016 0.49947 0.0
C240 C 0.27338 0.02743 0.41535 0.0
C241 C 0.24452 0.02985 0.43937 0.0
C242 C 0.22155 0.03794 0.38748 0.0
C243 C 0.22762 0.04384 0.31048 0.0
C244 C 0.25659 0.04052 0.28634 0.0
C245 C 0.27896 0.032 0.3389 0.0
C246 C 0.26573 0.04715 0.20787 0.0
C247 C 0.27606 0.02415 0.17184 0.0
C248 C 0.27482 0.07484 0.18247 0.0
C249 C 0.29638 0.07881 0.12811 0.0
C250 C 0.3091 0.05517 0.09797 0.0
C251 C 0.19158 0.03996 0.4164 0.0
C252 C 0.17833 0.01457 0.44443 0.0
C253 C 0.17842 0.06663 0.42841 0.0
C254 C 0.15283 0.06777 0.47025 0.0
C255 C 0.1401 0.04222 0.50072 0.0
C256 C 0.15274 0.01569 0.48568 0.0
C257 C 0.29755 0.02812 0.11726 0.0
H258 H 0.32219 0.9768 0.62652 0.0
H259 H 0.2788 0.98796 0.54468 0.0
H260 H 0.324 0.05412 0.40708 0.0
H261 H 0.36705 0.0422 0.48652 0.0
H262 H 0.23989 0.02625 0.49856 0.0
H263 H 0.30121 0.0295 0.3197 0.0
H264 H 0.21013 0.05061 0.27021 0.0
H265 H 0.27001 1.00246 0.19195 0.0
H266 H 0.26775 0.09275 0.21065 0.0
H267 H 0.30473 0.09994 0.11391 0.0
H268 H 0.18847 0.99375 0.43699 0.0
H269 H 0.18863 0.08642 0.40834 0.0
H270 H 0.30709 0.00942 0.09575 0.0
H271 H 0.14352 0.99565 0.50864 0.0
H272 H 0.14334 0.08854 0.48003 0.0
C273 C 0.47313 0.3662 0.1484 0.0
C274 C 0.49691 0.37088 0.10045 0.0
C275 C 0.4749 0.34369 0.20893 0.0
C276 C 0.50038 0.32532 0.22253 0.0
C277 C 0.52295 0.32815 0.17044 0.0
C278 C 0.52115 0.35061 0.10961 0.0
C279 C 0.5072 0.31156 0.30018 0.0
C280 C 0.506 0.28178 0.32619 0.0
C281 C 0.51216 0.27073 0.40231 0.0
C282 C 0.519 0.29009 0.45094 0.0
C283 C 0.52073 0.31951 0.42463 0.0
C284 C 0.5149 0.32992 0.34948 0.0
C285 C 0.52643 0.34026 0.47555 0.0
C286 C 0.5098 0.34082 0.54015 0.0
C287 C 0.54578 0.36195 0.45472 0.0
C288 C 0.54706 0.38484 0.49498 0.0
C289 C 0.52896 0.38639 0.55659 0.0
C290 C 0.51101 0.23941 0.43342 0.0
C291 C 0.48873 0.22292 0.41289 0.0
C292 C 0.53112 0.2264 0.48934 0.0
C293 C 0.528 0.19854 0.52694 0.0
C294 C 0.50512 0.18258 0.50864 0.0
C295 C 0.48589 0.19469 0.45003 0.0
C296 C 0.51097 0.36379 0.58017 0.0
H297 H 0.45413 0.38132 0.14285 0.0
H298 H 0.4575 0.34238 0.2493 0.0
H299 H 0.54305 0.31467 0.1805 0.0
H300 H 0.53951 0.35318 0.07241 0.0
H301 H 0.50042 0.2675 0.28772 0.0
H302 H 0.51548 0.35285 0.32927 0.0
H303 H 0.52274 0.28238 0.50986 0.0
H304 H 0.49457 0.3245 0.55705 0.0
H305 H 0.55896 0.36187 0.40527 0.0
H306 H 0.56092 0.40212 0.47541 0.0
H307 H 0.47278 0.2322 0.37047 0.0
H308 H 0.54903 0.23803 0.50543 0.0
H309 H 0.49691 0.36454 0.62781 0.0
H310 H 0.46804 0.18275 0.43496 0.0
H311 H 0.54335 0.18953 0.57117 0.0
Co312 Co 0.0087 0.03545 0.83077 0.0
C313 C 0.95795 0.00878 0.88234 0.0
Co314 Co 0.99133 1.00646 0.75743 0.0
C315 C 0.02133 0.08908 0.88528 0.0
C316 C 0.02627 0.05176 0.96943 0.0
N317 N 0.02106 0.05988 0.89568 0.0
N318 N 0.02637 0.0992 0.94958 0.0
C319 C 0.02938 0.07577 1.00253 0.0
H320 H 0.01588 0.10282 0.8329 0.0
H321 H 0.02549 0.03001 0.99859 0.0
C322 C 0.04217 0.03285 0.70572 0.0
N323 N 0.97901 0.98222 0.69166 0.0
C324 C 0.98092 0.95298 0.69876 0.0
C325 C 0.97076 0.99113 0.61999 0.0
N326 N 0.97461 0.94343 0.63407 0.0
C327 C 0.96794 0.96759 0.58494 0.0
C328 C 0.96915 0.06336 0.7237 0.0
O329 O 0.04073 0.04408 0.76536 0.0
O330 O 0.02267 0.01628 0.69266 0.0
O331 O 0.96775 0.03838 0.70586 0.0
O332 O 0.98592 0.06656 0.7769 0.0
O333 O 0.96011 0.99685 0.82392 0.0
H334 H 0.96866 0.01336 0.59315 0.0
H335 H 0.98762 0.93906 0.74992 0.0
O336 O 0.97654 0.02644 0.89445 0.0
O337 O 0.03145 1.00344 0.88428 0.0
O338 O 0.01501 0.97554 0.80969 0.0
C339 C 0.03085 0.97865 0.86484 0.0
H340 H 0.03162 0.07619 0.06176 0.0
H341 H 0.96315 0.96833 0.52622 0.0
Co342 Co 0.48646 0.03287 0.82598 0.0
C343 C 0.50279 0.97472 0.87412 0.0
Co344 Co 0.51361 0.01268 0.74443 0.0
C345 C 0.43596 0.04093 0.91757 0.0
C346 C 0.46473 0.07493 0.91597 0.0
N347 N 0.46202 0.04959 0.89156 0.0
N348 N 0.42205 0.0601 0.95608 0.0
C349 C 0.44033 0.08136 0.95583 0.0
H350 H 0.42728 0.02104 0.9076 0.0
H351 H 0.48281 0.08839 0.90325 0.0
C352 C 0.4974 0.0708 0.69623 0.0
N353 N 0.53769 0.99677 0.67573 0.0
C354 C 0.5668 0.98961 0.67889 0.0
C355 C 0.52979 0.99434 0.60549 0.0
N356 N 0.57713 0.98268 0.61364 0.0
C357 C 0.55377 0.98571 0.56754 0.0
C358 C 0.45492 0.00827 0.72374 0.0
O359 O 0.48529 0.06894 0.7597 0.0
O360 O 0.51076 0.04845 0.67788 0.0
O361 O 0.47984 1.00116 0.69961 0.0
O362 O 0.45331 0.0225 0.77766 0.0
O363 O 0.51609 0.9769 0.81199 0.0
H364 H 0.5084 1.00049 0.58127 0.0
H365 H 0.58045 0.99073 0.72683 0.0
O366 O 0.48816 0.99674 0.89104 0.0
O367 O 0.52 0.04304 0.87401 0.0
O368 O 0.54668 0.0246 0.79052 0.0
C369 C 0.54487 0.03755 0.84696 0.0
H370 H 0.43591 0.10073 0.98042 0.0
H371 H 0.55431 0.98408 0.5087 0.0
Co372 Co 0.52385 0.52393 0.80149 0.0
C373 C 0.49742 0.47971 0.89365 0.0
Co374 Co 0.47679 0.52251 0.77949 0.0
C375 C 0.57493 0.52194 0.89481 0.0
C376 C 0.58553 0.52866 0.77878 0.0
N377 N 0.56289 0.52524 0.82572 0.0
N378 N 0.6042 0.52276 0.8929 0.0
C379 C 0.61095 0.52718 0.8199 0.0
H380 H 0.56253 0.51826 0.94568 0.0
H381 H 0.58367 0.53176 0.71858 0.0
C382 C 0.50315 0.56659 0.68691 0.0
N383 N 0.43779 0.52086 0.75518 0.0
C384 C 0.42628 0.52146 0.6863 0.0
C385 C 0.41507 0.51727 0.8018 0.0
N386 N 0.39738 0.518 0.68812 0.0
C387 C 0.39018 0.51554 0.76072 0.0
C388 C 0.48781 0.55847 0.88002 0.0
O389 O 0.52613 0.55644 0.72373 0.0
O390 O 0.47953 0.5544 0.70175 0.0
O391 O 0.46702 0.54894 0.84678 0.0
O392 O 0.51385 0.54956 0.86867 0.0
O393 O 0.47438 0.49028 0.85775 0.0
H394 H 0.41657 0.51573 0.86181 0.0
H395 H 0.43901 0.52369 0.63581 0.0
O396 O 0.52112 0.49168 0.87846 0.0
O397 O 0.53366 0.49799 0.7338 0.0
O398 O 0.48693 0.49638 0.71303 0.0
C399 C 0.51308 0.48779 0.70164 0.0
H400 H 0.63268 0.52929 0.79775 0.0
H401 H 0.36846 0.51295 0.78255 0.0
Co402 Co 0.99632 0.54341 0.80894 0.0
C403 C 0.0489 0.5144 0.86098 0.0
Co404 Co 0.00358 0.50011 0.77456 0.0
C405 C 0.99294 0.58513 0.91225 0.0
C406 C 0.98198 0.60441 0.80007 0.0
N407 N 0.9901 0.57893 0.84222 0.0
N408 N 0.98664 0.61344 0.91555 0.0
C409 C 0.98002 0.6256 0.84466 0.0
H410 H 0.99953 0.56916 0.95995 0.0
H411 H 0.97814 0.60745 0.74045 0.0
C412 C 0.95127 0.52955 0.72238 0.0
N413 N 0.00983 0.4646 0.74121 0.0
C414 C 0.0053 0.45834 0.67186 0.0
C415 C 0.01973 0.43936 0.78183 0.0
N416 N 0.01182 0.43011 0.6677 0.0
C417 C 0.02102 0.41823 0.73698 0.0
C418 C 0.97446 0.49829 0.90654 0.0
O419 O 0.95998 0.54949 0.75522 0.0
O420 O 0.96698 0.50618 0.72399 0.0
O421 O 0.98483 0.48243 0.86092 0.0
O422 O 0.97711 0.52533 0.89384 0.0
O423 O 0.04068 0.49463 0.82648 0.0
H424 H 0.02547 0.43648 0.84048 0.0
H425 H 0.99776 0.47437 0.62523 0.0
O426 O 0.03217 0.53701 0.86105 0.0
O427 O 0.01606 0.56097 0.7234 0.0
O428 O 0.02177 0.51817 0.68876 0.0
C429 C 0.02527 0.54502 0.67677 0.0
H430 H 0.97502 0.64836 0.82557 0.0
H431 H 0.02772 0.39567 0.75448 0.0
C432 C 0.09047 0.02677 0.53804 0.0
C433 C 0.11434 0.04266 0.55036 0.0
C434 C 0.06709 0.02447 0.58757 0.0
C435 C 0.06656 0.03779 0.65212 0.0
H436 H 0.09003 0.01569 0.49001 0.0
H437 H 0.04951 0.0116 0.57553 0.0
S438 S 0.12365 0.08245 0.70924 0.0
N439 N 0.13594 0.0724 0.63108 0.0
N440 N 0.09191 0.06822 0.72424 0.0
C441 C 0.09 0.05437 0.66422 0.0
C442 C 0.11386 0.05679 0.61337 0.0
C443 C 0.49634 0.15178 0.63093 0.0
C444 C 0.50094 0.15393 0.55365 0.0
C445 C 0.49425 0.1249 0.67607 0.0
C446 C 0.49732 0.09902 0.64597 0.0
H447 H 0.4946 0.17108 0.6568 0.0
H448 H 0.4911 0.12438 0.73542 0.0
S449 S 0.50884 0.09306 0.4462 0.0
N450 N 0.50756 0.12811 0.44842 0.0
N451 N 0.50432 0.07748 0.53312 0.0
C452 C 0.50151 0.10095 0.56842 0.0
C453 C 0.50311 0.12841 0.52231 0.0
C454 C 0.36139 0.53743 0.49876 0.0
C455 C 0.33904 0.51823 0.50237 0.0
C456 C 0.38085 0.53675 0.55891 0.0
C457 C 0.3783 0.51725 0.62537 0.0
H458 H 0.36362 0.55332 0.44939 0.0
H459 H 0.39746 0.55217 0.55433 0.0
S460 S 0.32425 0.46184 0.66232 0.0
N461 N 0.31602 0.47867 0.57733 0.0
N462 N 0.35259 0.47742 0.6899 0.0
C463 C 0.35645 0.49759 0.62913 0.0
C464 C 0.33685 0.49805 0.56773 0.0
C465 C 0.02576 0.37483 0.53949 0.0
C466 C 0.00255 0.38099 0.48753 0.0
C467 C 0.02902 0.39145 0.59658 0.0
C468 C 0.00934 0.41509 0.60419 0.0
H469 H 0.04092 0.35628 0.53797 0.0
H470 H 0.04694 0.38544 0.63588 0.0
S471 S 0.94602 0.44168 0.47911 0.0
N472 N 0.96063 0.41365 0.44434 0.0
N473 N 0.96639 0.44448 0.55234 0.0
C474 C 0.98666 0.4222 0.55085 0.0
C475 C 0.98333 0.40523 0.49261 0.0
C476 C 0.9006 0.01983 0.02778 0.0
C477 C 0.88593 0.99419 0.0361 0.0
C478 C 0.9241 0.02405 0.97894 0.0
C479 C 0.93372 1.00301 0.93547 0.0
H480 H 0.89328 0.03726 0.05732 0.0
H481 H 0.93426 0.04438 0.97368 0.0
S482 S 0.90528 0.9307 0.94262 0.0
N483 N 0.88482 0.94624 1.00184 0.0
N484 N 0.92832 0.95467 0.90817 0.0
C485 C 0.91991 0.97693 0.94471 0.0
C486 C 0.89623 0.97242 0.99539 0.0
C487 C 0.51078 0.89381 0.9441 0.0
C488 C 0.50373 0.89159 0.02034 0.0
C489 C 0.51088 0.92069 0.89779 0.0
C490 C 0.50365 0.9466 0.92535 0.0
H491 H 0.51571 0.87455 0.91937 0.0
H492 H 0.5161 0.92107 0.83945 0.0
S493 S 0.48586 0.95313 0.12193 0.0
N494 N 0.49126 0.91806 0.12218 0.0
N495 N 0.49064 0.96841 0.03494 0.0
C496 C 0.49698 0.94481 1.00167 0.0
C497 C 0.49718 0.91741 0.04907 0.0
C498 C 0.63684 0.52804 0.08074 0.0
C499 C 0.6633 0.51114 0.081 0.0
C500 C 0.6174 0.53146 0.01952 0.0
C501 C 0.62407 0.51864 0.95586 0.0
H502 H 0.63105 0.53849 0.12835 0.0
H503 H 0.59724 0.5446 0.02134 0.0
S504 S 0.69056 0.47242 0.92879 0.0
N505 N 0.69515 0.4816 0.01201 0.0
N506 N 0.65868 0.48796 0.89771 0.0
C507 C 0.65044 0.50174 0.95556 0.0
C508 C 0.67003 0.49802 0.01791 0.0
C509 C 0.01419 0.63532 0.09336 0.0
C510 C 0.99637 0.66044 0.09976 0.0
C511 C 0.01024 0.61945 0.03482 0.0
C512 C 0.98842 0.62811 0.97987 0.0
H513 H 0.03183 0.62823 0.13296 0.0
H514 H 0.02516 0.60094 0.03094 0.0
S515 S 0.93428 0.6907 0.974 0.0
N516 N 0.95511 0.69229 0.04718 0.0
N517 N 0.94709 0.66195 0.93953 0.0
C518 C 0.96959 0.65233 0.98756 0.0
C519 C 0.97366 0.66855 0.04688 0.0
C520 C 0.94264 0.11241 0.5492 0.0
C521 C 0.94519 0.13992 0.56886 0.0
C522 C 0.94759 0.08744 0.60186 0.0
C523 C 0.95548 0.08916 0.67587 0.0
H524 H 0.93882 0.11013 0.49153 0.0
H525 H 0.94753 0.06673 0.5828 0.0
S526 S 0.95924 0.15626 0.75862 0.0
N527 N 0.95195 0.1676 0.66934 0.0
N528 N 0.96061 0.1207 0.76895 0.0
C529 C 0.95488 0.11662 0.69796 0.0
C530 C 0.94988 0.14204 0.64423 0.0
C531 C 0.37447 0.00774 0.68062 0.0
C532 C 0.37453 1.00164 0.60745 0.0
C533 C 0.4007 0.00816 0.71952 0.0
C534 C 0.42779 1.0024 0.68658 0.0
H535 H 0.3542 0.01399 0.70609 0.0
H536 H 0.39974 0.01431 0.77455 0.0
S537 S 0.43876 0.98088 0.49966 0.0
N538 N 0.40309 0.98663 0.50613 0.0
N539 N 0.45252 0.98698 0.57938 0.0
C540 C 0.42782 0.99397 0.61551 0.0
C541 C 0.40112 0.99377 0.57582 0.0
C542 C 0.49855 0.42696 0.59571 0.0
C543 C 0.52625 0.41291 0.59104 0.0
C544 C 0.49485 0.4519 0.62849 0.0
C545 C 0.5187 0.46373 0.65852 0.0
H546 H 0.47951 0.41855 0.5739 0.0
H547 H 0.4729 0.46154 0.63174 0.0
S548 S 0.59608 0.43539 0.65767 0.0
N549 N 0.57813 0.41282 0.61653 0.0
N550 N 0.57132 0.45981 0.67901 0.0
C551 C 0.54673 0.45027 0.65238 0.0
C552 C 0.55047 0.42484 0.61843 0.0
C553 C 0.09121 0.56949 0.57107 0.0
C554 C 0.08633 0.56068 0.50162 0.0
C555 C 0.06972 0.56738 0.62607 0.0
C556 C 0.04298 0.55616 0.61321 0.0
H557 H 0.11249 0.57578 0.58532 0.0
H558 H 0.07506 0.57203 0.68097 0.0
S559 S 0.01716 0.53601 0.43639 0.0
N560 N 0.05072 0.54547 0.41886 0.0
N561 N 0.01104 0.54008 0.52394 0.0
C562 C 0.03683 0.54989 0.54214 0.0
C563 C 0.05836 0.55257 0.48574 0.0
C564 C 0.05751 0.90081 0.92448 0.0
C565 C 0.06041 0.89889 1.00233 0.0
C566 C 0.04998 0.92723 0.87942 0.0
C567 C 0.04536 0.95277 0.91039 0.0
H568 H 0.05947 0.88149 0.89867 0.0
H569 H 0.04635 0.92738 0.82034 0.0
S570 S 0.05346 0.95997 0.10999 0.0
N571 N 0.06025 0.92522 0.10774 0.0
N572 N 0.04711 0.97497 0.02257 0.0
C573 C 0.05067 0.95158 0.98717 0.0
C574 C 0.05797 0.92459 0.0333 0.0
C575 C 0.59833 0.04669 0.99855 0.0
C576 C 0.62487 0.04872 0.96013 0.0
C577 C 0.57216 0.04458 0.96082 0.0
C578 C 0.57171 0.04417 0.88354 0.0
H579 H 0.59797 0.04521 0.05872 0.0
H580 H 0.55245 0.04175 0.99306 0.0
S581 S 0.63443 0.05403 0.75574 0.0
N582 N 0.64848 0.05409 0.83949 0.0
N583 N 0.59937 0.04957 0.76852 0.0
C584 C 0.59777 0.04801 0.84383 0.0
C585 C 0.62434 0.05042 0.88217 0.0
C586 C 0.45251 0.62482 0.94817 0.0
C587 C 0.47547 0.63396 0.98784 0.0
C588 C 0.45604 0.59942 0.91641 0.0
C589 C 0.48258 0.58231 0.92398 0.0
H590 H 0.43208 0.63785 0.93968 0.0
H591 H 0.43827 0.5938 0.88337 0.0
S592 S 0.54763 0.59509 0.03297 0.0
N593 N 0.5243 0.62277 0.03986 0.0
N594 N 0.53102 0.57499 0.98141 0.0
C595 C 0.50503 0.59053 0.96751 0.0
C596 C 0.50146 0.61639 0.99908 0.0
C597 C 0.91481 0.45853 0.01068 0.0
C598 C 0.91246 0.47148 0.07534 0.0
C599 C 0.93671 0.46556 0.95865 0.0
C600 C 0.95634 0.48633 0.969 0.0
H601 H 0.89881 0.44393 0.9987 0.0
H602 H 0.93695 0.45624 0.90764 0.0
S603 S 0.96059 0.52459 0.1321 0.0
N604 N 0.93276 0.50421 0.1498 0.0
N605 N 0.97352 0.51798 0.05113 0.0
C606 C 0.95513 0.49823 0.03533 0.0
C607 C 0.93324 0.49066 0.08883 0.0
C608 C 0.99261 0.16296 0.02655 0.0
C609 C 0.01435 0.18293 0.01555 0.0
C610 C 0.99617 0.13616 1.00171 0.0
C611 C 0.0214 0.12834 0.96406 0.0
H612 H 0.97327 0.16744 0.05797 0.0
H613 H 0.97953 0.12093 0.01417 0.0
S614 S 0.08378 0.17313 0.91541 0.0
N615 N 0.06139 0.19335 0.96021 0.0
N616 N 0.06776 0.14283 0.91325 0.0
C617 C 0.04273 0.14835 0.94963 0.0
C618 C 0.03931 0.17565 0.97553 0.0
C619 C 0.36045 0.06984 0.08849 0.0
C620 C 0.33715 0.05765 0.05713 0.0
C621 C 0.38795 0.07051 0.05519 0.0
C622 C 0.39342 0.05899 0.98907 0.0
H623 H 0.35764 0.07828 0.14048 0.0
H624 H 0.40528 0.07963 0.08232 0.0
S625 S 0.33902 0.02693 0.88086 0.0
N626 N 0.32088 0.03512 0.9541 0.0
N627 N 0.37243 0.03679 0.89066 0.0
C628 C 0.37012 0.04727 0.95616 0.0
C629 C 0.34207 0.0465 0.99037 0.0
C630 C 0.47335 0.40884 1.00059 0.0
C631 C 0.49758 0.39838 0.04687 0.0
C632 C 0.47321 0.43535 0.95234 0.0
C633 C 0.49727 0.45258 0.94856 0.0
H634 H 0.4544 0.39631 1.00124 0.0
H635 H 0.45421 0.44217 0.91703 0.0
S636 S 0.56514 0.43619 0.06318 0.0
N637 N 0.5455 0.40833 0.08936 0.0
N638 N 0.54547 0.45771 0.99854 0.0
C639 C 0.52143 0.44257 0.99563 0.0
C640 C 0.52154 0.41564 0.04467 0.0
C641 C 0.12233 0.48278 0.94674 0.0
C642 C 0.13255 0.50574 0.97862 0.0
C643 C 0.09553 0.48578 0.90766 0.0
C644 C 0.07772 0.51171 0.90012 0.0
H645 H 0.135 0.46227 0.95282 0.0
H646 H 0.08851 0.46747 0.88445 0.0
S647 S 0.09431 0.57799 0.97601 0.0
N648 N 0.12251 0.55497 1.0015 0.0
N649 N 0.0726 0.5608 0.92844 0.0
C650 C 0.08791 0.53485 0.9316 0.0
C651 C 0.11516 0.53182 0.9707 0.0
C652 C 0.9664 0.88131 0.52876 0.0
C653 C 0.98914 0.86109 0.55777 0.0
C654 C 0.96082 0.90726 0.55704 0.0
C655 C 0.97778 0.91444 0.61542 0.0
H656 H 0.9537 0.87788 0.481 0.0
H657 H 0.94362 0.92235 0.53099 0.0
S658 S 0.03754 0.86723 0.7179 0.0
N659 N 0.02651 0.84851 0.65454 0.0
N660 N 0.01691 0.89774 0.70546 0.0
C661 C 0.99947 0.89365 0.64812 0.0
C662 C 0.00497 0.86699 0.6197 0.0
C663 C 0.656 0.99706 0.58179 0.0
C664 C 0.66369 0.98086 0.52468 0.0
C665 C 0.62831 0.99609 0.61457 0.0
C666 C 0.60716 0.979 0.59132 0.0
H667 H 0.67103 0.01164 0.59893 0.0
H668 H 0.6228 0.01017 0.65496 0.0
S669 S 0.61716 0.92983 0.45086 0.0
N670 N 0.64827 0.94541 0.45079 0.0
N671 N 0.59685 0.94303 0.5142 0.0
C672 C 0.61525 0.96115 0.53836 0.0
C673 C 0.64334 0.96217 0.50474 0.0
C674 C 0.52646 0.63737 0.57756 0.0
C675 C 0.50252 0.64686 0.52941 0.0
C676 C 0.52678 0.61119 0.62728 0.0
C677 C 0.50321 0.59336 0.63069 0.0
H678 H 0.545 0.65043 0.57732 0.0
H679 H 0.5455 0.60513 0.66403 0.0
S680 S 0.43647 0.60704 0.5111 0.0
N681 N 0.45556 0.63527 0.48463 0.0
N682 N 0.45591 0.58652 0.57806 0.0
C683 C 0.4794 0.60236 0.58161 0.0
C684 C 0.47911 0.62895 0.53112 0.0
C685 C 0.8732 0.51983 0.67191 0.0
C686 C 0.87127 0.53226 0.59601 0.0
C687 C 0.89885 0.5202 0.71378 0.0
C688 C 0.92332 0.53326 0.68145 0.0
H689 H 0.85506 0.50891 0.69847 0.0
H690 H 0.89987 0.50941 0.77113 0.0
S691 S 0.93013 0.56877 0.48612 0.0
N692 N 0.89663 0.55797 0.49082 0.0
N693 N 0.94435 0.55917 0.57067 0.0
C694 C 0.92154 0.54657 0.60688 0.0
C695 C 0.89559 0.54604 0.56389 0.0
loop_
_geom_bond_atom_site_label_1
_geom_bond_atom_site_label_2
_geom_bond_distance
_geom_bond_site_symmetry_2
_ccdc_geom_bond_type
C0 C1 1.386 . S
C0 C2 1.397 . S
C0 H24 0.931 . S
C1 C0 1.386 . S
C1 C5 1.397 . S
C2 C0 1.397 . S
C2 C3 1.384 1_556 S
C2 H25 0.930 . S
C3 C2 1.384 1_554 S
C3 C4 1.377 . S
C3 C6 1.481 . S
C4 C3 1.377 . S
C4 C5 1.389 1_554 S
C4 H26 0.929 . S
C5 C1 1.397 . S
C5 C4 1.389 1_556 S
C5 H27 0.931 . S
C6 C3 1.481 . S
C6 C7 1.387 . S
C6 C11 1.390 . S
C7 C6 1.387 . S
C7 C8 1.401 . S
C7 H28 0.930 . S
C8 C7 1.401 . S
C8 C9 1.376 . S
C8 C17 1.511 . S
C9 C8 1.376 . S
C9 C10 1.392 . S
C9 H30 0.931 . S
C10 C9 1.392 . S
C10 C11 1.361 . S
C10 C12 1.500 . S
C11 C6 1.390 . S
C11 C10 1.361 . S
C11 H29 0.931 . S
C12 C10 1.500 . S
C12 C13 1.371 . S
C12 C14 1.365 . S
C13 C12 1.371 . S
C13 C23 1.386 . S
C13 H31 0.931 . S
C14 C12 1.365 . S
C14 C15 1.409 . S
C14 H32 0.929 . S
C15 C14 1.409 . S
C15 C16 1.380 . S
C15 H33 0.930 . S
C16 C15 1.380 . S
C16 C23 1.357 . S
C17 C8 1.511 . S
C17 C18 1.341 . S
C17 C19 1.371 . S
C18 C17 1.341 . S
C18 C22 1.394 . S
C18 H34 0.930 1_554 S
C19 C17 1.371 . S
C19 C20 1.392 . S
C19 H35 0.931 . S
C20 C19 1.392 . S
C20 C21 1.331 . S
C20 H38 0.932 . S
C21 C20 1.331 . S
C21 C22 1.336 . S
C22 C18 1.394 . S
C22 C21 1.336 . S
C22 H37 0.929 1_554 S
C23 C13 1.386 . S
C23 C16 1.357 . S
C23 H36 0.928 . S
H24 C0 0.931 . S
H25 C2 0.930 . S
H26 C4 0.929 . S
H27 C5 0.931 . S
H28 C7 0.930 . S
H29 C11 0.931 . S
H30 C9 0.931 . S
H31 C13 0.931 . S
H32 C14 0.929 . S
H33 C15 0.930 . S
H34 C18 0.930 1_556 S
H35 C19 0.931 . S
H36 C23 0.928 . S
H37 C22 0.929 1_556 S
H38 C20 0.932 . S
C39 C40 1.395 . S
C39 C41 1.397 . S
C39 H63 0.931 . S
C40 C39 1.395 . S
C40 C44 1.389 1_655 S
C41 C39 1.397 . S
C41 C42 1.379 1_556 S
C41 H64 0.930 . S
C42 C41 1.379 1_554 S
C42 C43 1.374 1_655 S
C42 C45 1.487 . S
C43 C42 1.374 1_455 S
C43 C44 1.389 1_554 S
C43 H65 0.929 . S
C44 C40 1.389 1_455 S
C44 C43 1.389 1_556 S
C44 H66 0.931 . S
C45 C42 1.487 . S
C45 C46 1.391 . S
C45 C50 1.390 . S
C46 C45 1.391 . S
C46 C47 1.400 . S
C46 H67 0.930 . S
C47 C46 1.400 . S
C47 C48 1.376 . S
C47 C56 1.515 . S
C48 C47 1.376 . S
C48 C49 1.393 . S
C48 H69 0.931 . S
C49 C48 1.393 . S
C49 C50 1.362 . S
C49 C51 1.499 1_655 S
C50 C45 1.390 . S
C50 C49 1.362 . S
C50 H68 0.930 . S
C51 C49 1.499 1_455 S
C51 C52 1.360 1_455 S
C51 C53 1.377 . S
C52 C51 1.360 1_655 S
C52 C62 1.386 . S
C52 H70 0.931 . S
C53 C51 1.377 . S
C53 C54 1.409 . S
C53 H71 0.929 . S
C54 C53 1.409 . S
C54 C55 1.380 . S
C54 H72 0.930 . S
C55 C54 1.380 . S
C55 C62 1.357 1_455 S
C56 C47 1.515 . S
C56 C57 1.341 . S
C56 C58 1.371 1_655 S
C57 C56 1.341 . S
C57 C61 1.394 . S
C57 H73 0.930 1_554 S
C58 C56 1.371 1_455 S
C58 C59 1.392 . S
C58 H74 0.931 . S
C59 C58 1.392 . S
C59 C60 1.322 1_455 S
C59 H77 0.932 . S
C60 C59 1.322 1_655 S
C60 C61 1.344 . S
C61 C57 1.394 . S
C61 C60 1.344 . S
C61 H76 0.929 1_554 S
C62 C52 1.386 . S
C62 C55 1.357 1_655 S
C62 H75 0.928 . S
H63 C39 0.931 . S
H64 C41 0.930 . S
H65 C43 0.929 . S
H66 C44 0.931 . S
H67 C46 0.930 . S
H68 C50 0.930 . S
H69 C48 0.931 . S
H70 C52 0.931 . S
H71 C53 0.929 . S
H72 C54 0.930 . S
H73 C57 0.930 1_556 S
H74 C58 0.931 . S
H75 C62 0.928 . S
H76 C61 0.929 1_556 S
H77 C59 0.932 . S
C78 C79 1.386 . S
C78 C80 1.397 . S
C78 H102 0.931 . S
C79 C78 1.386 . S
C79 C83 1.397 . S
C80 C78 1.397 . S
C80 C81 1.384 . S
C80 H103 0.930 . S
C81 C80 1.384 . S
C81 C82 1.377 . S
C81 C84 1.481 1_556 S
C82 C81 1.377 . S
C82 C83 1.389 . S
C82 H104 0.929 1_556 S
C83 C79 1.397 . S
C83 C82 1.389 . S
C83 H105 0.931 . S
C84 C81 1.481 1_554 S
C84 C85 1.387 . S
C84 C89 1.390 . S
C85 C84 1.387 . S
C85 C86 1.401 . S
C85 H106 0.930 1_554 S
C86 C85 1.401 . S
C86 C87 1.376 . S
C86 C95 1.511 . S
C87 C86 1.376 . S
C87 C88 1.392 . S
C87 H108 0.931 . S
C88 C87 1.392 . S
C88 C89 1.361 . S
C88 C90 1.500 . S
C89 C84 1.390 . S
C89 C88 1.361 . S
C89 H107 0.931 . S
C90 C88 1.500 . S
C90 C91 1.371 . S
C90 C92 1.365 . S
C91 C90 1.371 . S
C91 C101 1.386 . S
C91 H109 0.931 . S
C92 C90 1.365 . S
C92 C93 1.409 . S
C92 H110 0.929 . S
C93 C92 1.409 . S
C93 C94 1.380 . S
C93 H111 0.930 . S
C94 C93 1.380 . S
C94 C101 1.357 . S
C95 C86 1.511 . S
C95 C96 1.341 . S
C95 C97 1.371 . S
C96 C95 1.341 . S
C96 C100 1.394 1_554 S
C96 H112 0.930 1_554 S
C97 C95 1.371 . S
C97 C98 1.392 . S
C97 H113 0.931 . S
C98 C97 1.392 . S
C98 C99 1.331 . S
C98 H116 0.932 . S
C99 C98 1.331 . S
C99 C100 1.336 1_554 S
C100 C96 1.394 1_556 S
C100 C99 1.336 1_556 S
C100 H115 0.929 . S
C101 C91 1.386 . S
C101 C94 1.357 . S
C101 H114 0.928 . S
H102 C78 0.931 . S
H103 C80 0.930 . S
H104 C82 0.929 1_554 S
H105 C83 0.931 . S
H106 C85 0.930 1_556 S
H107 C89 0.931 . S
H108 C87 0.931 . S
H109 C91 0.931 . S
H110 C92 0.929 . S
H111 C93 0.930 . S
H112 C96 0.930 1_556 S
H113 C97 0.931 . S
H114 C101 0.928 . S
H115 C100 0.929 . S
H116 C98 0.932 . S
C117 C118 1.386 . S
C117 C119 1.397 . S
C117 H141 0.931 . S
C118 C117 1.386 . S
C118 C122 1.397 . S
C119 C117 1.397 . S
C119 C120 1.384 . S
C119 H142 0.930 . S
C120 C119 1.384 . S
C120 C121 1.377 . S
C120 C123 1.481 . S
C121 C120 1.377 . S
C121 C122 1.389 . S
C121 H143 0.929 . S
C122 C118 1.397 . S
C122 C121 1.389 . S
C122 H144 0.931 . S
C123 C120 1.481 . S
C123 C124 1.387 . S
C123 C128 1.390 . S
C124 C123 1.387 . S
C124 C125 1.401 . S
C124 H145 0.930 . S
C125 C124 1.401 . S
C125 C126 1.376 . S
C125 C134 1.511 . S
C126 C125 1.376 . S
C126 C127 1.392 . S
C126 H147 0.931 . S
C127 C126 1.392 . S
C127 C128 1.361 . S
C127 C129 1.500 . S
C128 C123 1.390 . S
C128 C127 1.361 . S
C128 H146 0.931 . S
C129 C127 1.500 . S
C129 C130 1.371 1_554 S
C129 C131 1.365 . S
C130 C129 1.371 1_556 S
C130 C140 1.386 . S
C130 H148 0.931 . S
C131 C129 1.365 . S
C131 C132 1.409 1_554 S
C131 H149 0.929 . S
C132 C131 1.409 1_556 S
C132 C133 1.380 . S
C132 H150 0.930 1_556 S
C133 C132 1.380 . S
C133 C140 1.357 . S
C134 C125 1.511 . S
C134 C135 1.341 . S
C134 C136 1.371 . S
C135 C134 1.341 . S
C135 C139 1.394 . S
C135 H151 0.930 . S
C136 C134 1.371 . S
C136 C137 1.392 1_554 S
C136 H152 0.931 1_554 S
C137 C136 1.392 1_556 S
C137 C138 1.331 1_556 S
C137 H155 0.932 . S
C138 C137 1.331 1_554 S
C138 C139 1.336 . S
C139 C135 1.394 . S
C139 C138 1.336 . S
C139 H154 0.929 . S
C140 C130 1.386 . S
C140 C133 1.357 . S
C140 H153 0.928 . S
H141 C117 0.931 . S
H142 C119 0.930 . S
H143 C121 0.929 . S
H144 C122 0.931 . S
H145 C124 0.930 . S
H146 C128 0.931 . S
H147 C126 0.931 . S
H148 C130 0.931 . S
H149 C131 0.929 . S
H150 C132 0.930 1_554 S
H151 C135 0.930 . S
H152 C136 0.931 1_556 S
H153 C140 0.928 . S
H154 C139 0.929 . S
H155 C137 0.932 . S
C156 C157 1.386 . S
C156 C158 1.397 . S
C156 H180 0.931 . S
C157 C156 1.386 . S
C157 C161 1.397 . S
C158 C156 1.397 . S
C158 C159 1.384 . S
C158 H181 0.930 . S
C159 C158 1.384 . S
C159 C160 1.377 . S
C159 C162 1.481 . S
C160 C159 1.377 . S
C160 C161 1.389 . S
C160 H182 0.929 . S
C161 C157 1.397 . S
C161 C160 1.389 . S
C161 H183 0.931 . S
C162 C159 1.481 . S
C162 C163 1.387 . S
C162 C167 1.390 . S
C163 C162 1.387 . S
C163 C164 1.401 . S
C163 H184 0.930 . S
C164 C163 1.401 . S
C164 C165 1.376 . S
C164 C173 1.511 . S
C165 C164 1.376 . S
C165 C166 1.392 . S
C165 H186 0.931 . S
C166 C165 1.392 . S
C166 C167 1.361 . S
C166 C168 1.500 . S
C167 C162 1.390 . S
C167 C166 1.361 . S
C167 H185 0.931 . S
C168 C166 1.500 . S
C168 C169 1.371 . S
C168 C170 1.365 . S
C169 C168 1.371 . S
C169 C179 1.386 . S
C169 H187 0.931 . S
C170 C168 1.365 . S
C170 C171 1.409 . S
C170 H188 0.929 . S
C171 C170 1.409 . S
C171 C172 1.380 . S
C171 H189 0.930 . S
C172 C171 1.380 . S
C172 C179 1.357 . S
C173 C164 1.511 . S
C173 C174 1.341 . S
C173 C175 1.371 . S
C174 C173 1.341 . S
C174 C178 1.394 . S
C174 H190 0.930 . S
C175 C173 1.371 . S
C175 C176 1.392 . S
C175 H191 0.931 . S
C176 C175 1.392 . S
C176 C177 1.331 . S
C176 H194 0.932 . S
C177 C176 1.331 . S
C177 C178 1.336 . S
C178 C174 1.394 . S
C178 C177 1.336 . S
C178 H193 0.929 . S
C179 C169 1.386 . S
C179 C172 1.357 . S
C179 H192 0.928 . S
H180 C156 0.931 . S
H181 C158 0.930 . S
H182 C160 0.929 . S
H183 C161 0.931 . S
H184 C163 0.930 . S
H185 C167 0.931 . S
H186 C165 0.931 . S
H187 C169 0.931 . S
H188 C170 0.929 . S
H189 C171 0.930 . S
H190 C174 0.930 . S
H191 C175 0.931 . S
H192 C179 0.928 . S
H193 C178 0.929 . S
H194 C176 0.932 . S
C195 C196 1.389 . S
C195 C197 1.397 . S
C195 H219 0.931 . S
C196 C195 1.389 . S
C196 C200 1.394 1_655 S
C197 C195 1.397 . S
C197 C198 1.383 . S
C197 H220 0.930 . S
C198 C197 1.383 . S
C198 C199 1.378 1_655 S
C198 C201 1.482 . S
C199 C198 1.378 1_455 S
C199 C200 1.389 . S
C199 H221 0.929 . S
C200 C196 1.394 1_455 S
C200 C199 1.389 . S
C200 H222 0.931 . S
C201 C198 1.482 . S
C201 C202 1.386 . S
C201 C206 1.390 . S
C202 C201 1.386 . S
C202 C203 1.403 . S
C202 H223 0.930 . S
C203 C202 1.403 . S
C203 C204 1.376 . S
C203 C212 1.511 . S
C204 C203 1.376 . S
C204 C205 1.394 1_655 S
C204 H225 0.931 . S
C205 C204 1.394 1_455 S
C205 C206 1.361 1_455 S
C205 C207 1.499 . S
C206 C201 1.390 . S
C206 C205 1.361 1_655 S
C206 H224 0.931 . S
C207 C205 1.499 . S
C207 C208 1.358 1_455 S
C207 C209 1.379 . S
C208 C207 1.358 1_655 S
C208 C218 1.386 . S
C208 H226 0.931 . S
C209 C207 1.379 . S
C209 C210 1.409 . S
C209 H227 0.929 . S
C210 C209 1.409 . S
C210 C211 1.384 . S
C210 H228 0.930 . S
C211 C210 1.384 . S
C211 C218 1.354 1_455 S
C212 C203 1.511 . S
C212 C213 1.341 . S
C212 C214 1.371 1_655 S
C213 C212 1.341 . S
C213 C217 1.394 . S
C213 H229 0.930 . S
C214 C212 1.371 1_455 S
C214 C215 1.392 . S
C214 H230 0.931 . S
C215 C214 1.392 . S
C215 C216 1.325 1_455 S
C215 H233 0.932 . S
C216 C215 1.325 1_655 S
C216 C217 1.343 . S
C217 C213 1.394 . S
C217 C216 1.343 . S
C217 H232 0.929 . S
C218 C208 1.386 . S
C218 C211 1.354 1_655 S
C218 H231 0.928 . S
H219 C195 0.931 . S
H220 C197 0.930 . S
H221 C199 0.929 . S
H222 C200 0.931 . S
H223 C202 0.930 . S
H224 C206 0.931 . S
H225 C204 0.931 . S
H226 C208 0.931 . S
H227 C209 0.929 . S
H228 C210 0.930 . S
H229 C213 0.930 . S
H230 C214 0.931 . S
H231 C218 0.928 . S
H232 C217 0.929 . S
H233 C215 0.932 . S
C234 C235 1.386 . S
C234 C236 1.397 . S
C234 H258 0.931 . S
C235 C234 1.386 . S
C235 C239 1.397 . S
C236 C234 1.397 . S
C236 C237 1.384 . S
C236 H259 0.930 . S
C237 C236 1.384 . S
C237 C238 1.377 . S
C237 C240 1.481 . S
C238 C237 1.377 . S
C238 C239 1.389 . S
C238 H260 0.929 . S
C239 C235 1.397 . S
C239 C238 1.389 . S
C239 H261 0.931 . S
C240 C237 1.481 . S
C240 C241 1.387 . S
C240 C245 1.390 . S
C241 C240 1.387 . S
C241 C242 1.401 . S
C241 H262 0.930 . S
C242 C241 1.401 . S
C242 C243 1.376 . S
C242 C251 1.511 . S
C243 C242 1.376 . S
C243 C244 1.392 . S
C243 H264 0.931 . S
C244 C243 1.392 . S
C244 C245 1.361 . S
C244 C246 1.500 . S
C245 C240 1.390 . S
C245 C244 1.361 . S
C245 H263 0.931 . S
C246 C244 1.500 . S
C246 C247 1.371 . S
C246 C248 1.365 . S
C247 C246 1.371 . S
C247 C257 1.386 . S
C247 H265 0.931 . S
C248 C246 1.365 . S
C248 C249 1.409 . S
C248 H266 0.929 . S
C249 C248 1.409 . S
C249 C250 1.380 . S
C249 H267 0.930 . S
C250 C249 1.380 . S
C250 C257 1.357 . S
C251 C242 1.511 . S
C251 C252 1.341 . S
C251 C253 1.371 . S
C252 C251 1.341 . S
C252 C256 1.394 . S
C252 H268 0.930 . S
C253 C251 1.371 . S
C253 C254 1.392 . S
C253 H269 0.931 . S
C254 C253 1.392 . S
C254 C255 1.331 . S
C254 H272 0.932 . S
C255 C254 1.331 . S
C255 C256 1.336 . S
C256 C252 1.394 . S
C256 C255 1.336 . S
C256 H271 0.929 . S
C257 C247 1.386 . S
C257 C250 1.357 . S
C257 H270 0.928 . S
H258 C234 0.931 . S
H259 C236 0.930 . S
H260 C238 0.929 . S
H261 C239 0.931 . S
H262 C241 0.930 . S
H263 C245 0.931 . S
H264 C243 0.931 . S
H265 C247 0.931 . S
H266 C248 0.929 . S
H267 C249 0.930 . S
H268 C252 0.930 . S
H269 C253 0.931 . S
H270 C257 0.928 . S
H271 C256 0.929 . S
H272 C254 0.932 . S
C273 C274 1.386 . S
C273 C275 1.397 . S
C273 H297 0.931 . S
C274 C273 1.386 . S
C274 C278 1.397 . S
C275 C273 1.397 . S
C275 C276 1.384 . S
C275 H298 0.930 . S
C276 C275 1.384 . S
C276 C277 1.377 . S
C276 C279 1.481 . S
C277 C276 1.377 . S
C277 C278 1.389 . S
C277 H299 0.929 . S
C278 C274 1.397 . S
C278 C277 1.389 . S
C278 H300 0.931 . S
C279 C276 1.481 . S
C279 C280 1.387 . S
C279 C284 1.390 . S
C280 C279 1.387 . S
C280 C281 1.401 . S
C280 H301 0.930 . S
C281 C280 1.401 . S
C281 C282 1.376 . S
C281 C290 1.511 . S
C282 C281 1.376 . S
C282 C283 1.392 . S
C282 H303 0.931 . S
C283 C282 1.392 . S
C283 C284 1.361 . S
C283 C285 1.500 . S
C284 C279 1.390 . S
C284 C283 1.361 . S
C284 H302 0.931 . S
C285 C283 1.500 . S
C285 C286 1.371 . S
C285 C287 1.365 . S
C286 C285 1.371 . S
C286 C296 1.386 . S
C286 H304 0.931 . S
C287 C285 1.365 . S
C287 C288 1.409 . S
C287 H305 0.929 . S
C288 C287 1.409 . S
C288 C289 1.380 . S
C288 H306 0.930 . S
C289 C288 1.380 . S
C289 C296 1.357 . S
C290 C281 1.511 . S
C290 C291 1.341 . S
C290 C292 1.371 . S
C291 C290 1.341 . S
C291 C295 1.394 . S
C291 H307 0.930 . S
C292 C290 1.371 . S
C292 C293 1.392 . S
C292 H308 0.931 . S
C293 C292 1.392 . S
C293 C294 1.331 . S
C293 H311 0.932 . S
C294 C293 1.331 . S
C294 C295 1.336 . S
C295 C291 1.394 . S
C295 C294 1.336 . S
C295 H310 0.929 . S
C296 C286 1.386 . S
C296 C289 1.357 . S
C296 H309 0.928 . S
H297 C273 0.931 . S
H298 C275 0.930 . S
H299 C277 0.929 . S
H300 C278 0.931 . S
H301 C280 0.930 . S
H302 C284 0.931 . S
H303 C282 0.931 . S
H304 C286 0.931 . S
H305 C287 0.929 . S
H306 C288 0.930 . S
H307 C291 0.930 . S
H308 C292 0.931 . S
H309 C296 0.928 . S
H310 C295 0.929 . S
H311 C293 0.932 . S
Co312 N317 2.057 . S
Co312 O329 2.021 . S
Co312 O332 2.062 1_455 S
Co312 O336 2.117 1_455 S
Co312 O337 2.020 1_545 S
C313 O333 1.259 1_545 S
C313 O336 1.258 . S
Co314 N323 2.057 1_545 S
Co314 O330 2.118 1_655 S
Co314 O331 2.025 . S
Co314 O333 2.020 1_545 S
Co314 O338 2.058 1_645 S
C315 N317 1.316 . S
C315 N318 1.347 1_556 S
C315 H320 0.931 . S
C316 N317 1.375 1_655 S
C316 C319 1.350 1_556 S
C316 H321 0.930 . S
N317 Co312 2.057 . S
N317 C315 1.316 . S
N317 C316 1.375 1_455 S
N318 C315 1.347 1_554 S
N318 C319 1.373 1_455 S
C319 C316 1.350 1_554 S
C319 N318 1.373 1_655 S
C319 H340 0.931 . S
H320 C315 0.931 . S
H321 C316 0.930 . S
C322 O329 1.259 . S
C322 O330 1.258 . S
N323 Co314 2.057 1_565 S
N323 C324 1.343 . S
N323 C325 1.344 1_655 S
C324 N323 1.343 . S
C324 N326 1.347 . S
C324 H335 0.931 . S
C325 N323 1.344 1_455 S
C325 C327 1.350 . S
C325 H334 0.930 . S
N326 C324 1.347 . S
N326 C327 1.373 1_655 S
C327 C325 1.350 . S
C327 N326 1.373 1_455 S
C327 H341 0.931 . S
C328 O331 1.256 . S
C328 O332 1.255 . S
O329 Co312 2.021 . S
O329 C322 1.259 . S
O330 Co314 2.118 1_455 S
O330 C322 1.258 . S
O331 Co314 2.025 . S
O331 C328 1.256 . S
O332 Co312 2.062 1_655 S
O332 C328 1.255 . S
O333 C313 1.259 1_565 S
O333 Co314 2.020 1_565 S
H334 C325 0.930 . S
H335 C324 0.931 . S
O336 Co312 2.117 1_655 S
O336 C313 1.258 . S
O337 Co312 2.020 1_565 S
O337 C339 1.256 . S
O338 Co314 2.058 1_465 S
O338 C339 1.255 . S
C339 O337 1.256 . S
C339 O338 1.255 . S
H340 C319 0.931 . S
H341 C327 0.931 . S
Co342 N347 2.057 . S
Co342 O359 2.021 . S
Co342 O362 2.062 . S
Co342 O366 2.117 1_545 S
Co342 O367 2.020 . S
C343 O363 1.259 . S
C343 O366 1.258 . S
Co344 N353 2.057 . S
Co344 O360 2.117 . S
Co344 O361 2.020 . S
Co344 O363 2.021 1_545 S
Co344 O368 2.062 1_545 S
C345 N347 1.316 . S
C345 N348 1.347 1_556 S
C345 H350 0.931 . S
C346 N347 1.375 . S
C346 C349 1.350 1_556 S
C346 H351 0.930 1_545 S
N347 Co342 2.057 . S
N347 C345 1.316 . S
N347 C346 1.375 . S
N348 C345 1.347 1_554 S
N348 C349 1.373 . S
C349 C346 1.350 1_554 S
C349 N348 1.373 . S
C349 H370 0.931 . S
H350 C345 0.931 . S
H351 C346 0.930 1_565 S
C352 O359 1.259 . S
C352 O360 1.258 . S
N353 Co344 2.057 . S
N353 C354 1.316 1_545 S
N353 C355 1.375 . S
C354 N353 1.316 1_565 S
C354 N356 1.347 . S
C354 H365 0.931 . S
C355 N353 1.375 . S
C355 C357 1.350 . S
C355 H364 0.930 . S
N356 C354 1.347 . S
N356 C357 1.373 1_565 S
C357 C355 1.350 . S
C357 N356 1.373 1_545 S
C357 H371 0.931 . S
C358 O361 1.256 . S
C358 O362 1.255 . S
O359 Co342 2.021 . S
O359 C352 1.259 . S
O360 Co344 2.117 . S
O360 C352 1.258 . S
O361 Co344 2.020 . S
O361 C358 1.256 . S
O362 Co342 2.062 . S
O362 C358 1.255 . S
O363 C343 1.259 . S
O363 Co344 2.021 1_565 S
H364 C355 0.930 . S
H365 C354 0.931 . S
O366 Co342 2.117 1_565 S
O366 C343 1.258 . S
O367 Co342 2.020 . S
O367 C369 1.256 . S
O368 Co344 2.062 1_565 S
O368 C369 1.255 1_565 S
C369 O367 1.256 . S
C369 O368 1.255 1_545 S
H370 C349 0.931 . S
H371 C357 0.931 . S
Co372 N377 2.057 . S
Co372 O389 2.021 . S
Co372 O392 2.062 . S
Co372 O396 2.117 . S
Co372 O397 2.020 . S
C373 O393 1.259 . S
C373 O396 1.258 . S
Co374 N383 2.057 . S
Co374 O390 2.117 . S
Co374 O391 2.020 . S
Co374 O393 2.021 . S
Co374 O398 2.062 . S
C375 N377 1.316 . S
C375 N378 1.347 . S
C375 H380 0.931 . S
C376 N377 1.375 . S
C376 C379 1.350 . S
C376 H381 0.930 . S
N377 Co372 2.057 . S
N377 C375 1.316 . S
N377 C376 1.375 . S
N378 C375 1.347 . S
N378 C379 1.373 . S
C379 C376 1.350 . S
C379 N378 1.373 . S
C379 H400 0.931 . S
H380 C375 0.931 . S
H381 C376 0.930 . S
C382 O389 1.259 . S
C382 O390 1.258 . S
N383 Co374 2.057 . S
N383 C384 1.316 . S
N383 C385 1.375 . S
C384 N383 1.316 . S
C384 N386 1.347 . S
C384 H395 0.931 . S
C385 N383 1.375 . S
C385 C387 1.350 . S
C385 H394 0.930 . S
N386 C384 1.347 . S
N386 C387 1.373 . S
C387 C385 1.350 . S
C387 N386 1.373 . S
C387 H401 0.931 . S
C388 O391 1.256 . S
C388 O392 1.255 . S
O389 Co372 2.021 . S
O389 C382 1.259 . S
O390 Co374 2.117 . S
O390 C382 1.258 . S
O391 Co374 2.020 . S
O391 C388 1.256 . S
O392 Co372 2.062 . S
O392 C388 1.255 . S
O393 C373 1.259 . S
O393 Co374 2.021 . S
H394 C385 0.930 . S
H395 C384 0.931 . S
O396 Co372 2.117 . S
O396 C373 1.258 . S
O397 Co372 2.020 . S
O397 C399 1.256 . S
O398 Co374 2.062 . S
O398 C399 1.255 . S
C399 O397 1.256 . S
C399 O398 1.255 . S
H400 C379 0.931 . S
H401 C387 0.931 . S
Co402 N407 2.057 . S
Co402 O419 2.021 1_455 S
Co402 O422 2.062 1_455 S
Co402 O426 2.117 . S
Co402 O427 2.020 . S
C403 O423 1.259 . S
C403 O426 1.258 . S
Co404 N413 2.057 . S
Co404 O420 2.117 . S
Co404 O421 2.020 . S
Co404 O423 2.021 1_655 S
Co404 O428 2.062 1_655 S
C405 N407 1.316 . S
C405 N408 1.347 . S
C405 H410 0.931 1_455 S
C406 N407 1.375 . S
C406 C409 1.350 . S
C406 H411 0.930 . S
N407 Co402 2.057 . S
N407 C405 1.316 . S
N407 C406 1.375 . S
N408 C405 1.347 . S
N408 C409 1.373 . S
C409 C406 1.350 . S
C409 N408 1.373 . S
C409 H430 0.931 . S
H410 C405 0.931 1_655 S
H411 C406 0.930 . S
C412 O419 1.259 . S
C412 O420 1.258 . S
N413 Co404 2.057 . S
N413 C414 1.316 . S
N413 C415 1.375 . S
C414 N413 1.316 . S
C414 N416 1.347 . S
C414 H425 0.931 1_655 S
C415 N413 1.375 . S
C415 C417 1.350 . S
C415 H424 0.930 . S
N416 C414 1.347 . S
N416 C417 1.373 . S
C417 C415 1.350 . S
C417 N416 1.373 . S
C417 H431 0.931 . S
C418 O421 1.256 . S
C418 O422 1.255 . S
O419 Co402 2.021 1_655 S
O419 C412 1.259 . S
O420 Co404 2.117 . S
O420 C412 1.258 . S
O421 Co404 2.020 . S
O421 C418 1.256 . S
O422 Co402 2.062 1_655 S
O422 C418 1.255 . S
O423 C403 1.259 . S
O423 Co404 2.021 1_455 S
H424 C415 0.930 . S
H425 C414 0.931 1_455 S
O426 Co402 2.117 . S
O426 C403 1.258 . S
O427 Co402 2.020 . S
O427 C429 1.256 . S
O428 Co404 2.062 1_455 S
O428 C429 1.255 . S
C429 O427 1.256 . S
C429 O428 1.255 . S
H430 C409 0.931 . S
H431 C417 0.931 . S
C432 C433 1.369 . S
C432 C434 1.419 . S
C432 H436 0.930 . S
C433 C432 1.369 . S
C433 C442 1.429 . S
C434 C432 1.419 . S
C434 C435 1.363 . S
C434 H437 0.929 . S
C435 C434 1.363 . S
C435 C441 1.428 . S
H436 C432 0.930 . S
H437 C434 0.929 . S
S438 N439 1.613 . S
S438 N440 1.610 . S
N439 S438 1.613 . S
N439 C442 1.350 . S
N440 S438 1.610 . S
N440 C441 1.351 . S
C441 C435 1.428 . S
C441 N440 1.351 . S
C441 C442 1.434 . S
C442 C433 1.429 . S
C442 N439 1.350 . S
C442 C441 1.434 . S
C443 C444 1.369 . S
C443 C445 1.419 . S
C443 H447 0.930 . S
C444 C443 1.369 . S
C444 C453 1.429 . S
C445 C443 1.419 . S
C445 C446 1.363 . S
C445 H448 0.929 . S
C446 C445 1.363 . S
C446 C452 1.428 . S
H447 C443 0.930 . S
H448 C445 0.929 . S
S449 N450 1.613 . S
S449 N451 1.610 . S
N450 S449 1.613 . S
N450 C453 1.350 . S
N451 S449 1.610 . S
N451 C452 1.351 . S
C452 C446 1.428 . S
C452 N451 1.351 . S
C452 C453 1.434 . S
C453 C444 1.429 . S
C453 N450 1.350 . S
C453 C452 1.434 . S
C454 C455 1.369 . S
C454 C456 1.419 . S
C454 H458 0.930 . S
C455 C454 1.369 . S
C455 C464 1.429 . S
C456 C454 1.419 . S
C456 C457 1.363 . S
C456 H459 0.929 . S
C457 C456 1.363 . S
C457 C463 1.428 . S
H458 C454 0.930 . S
H459 C456 0.929 . S
S460 N461 1.613 . S
S460 N462 1.610 . S
N461 S460 1.613 . S
N461 C464 1.350 . S
N462 S460 1.610 . S
N462 C463 1.351 . S
C463 C457 1.428 . S
C463 N462 1.351 . S
C463 C464 1.434 . S
C464 C455 1.429 . S
C464 N461 1.350 . S
C464 C463 1.434 . S
C465 C466 1.369 1_455 S
C465 C467 1.419 . S
C465 H469 0.930 . S
C466 C465 1.369 1_655 S
C466 C475 1.429 . S
C467 C465 1.419 . S
C467 C468 1.363 1_455 S
C467 H470 0.929 . S
C468 C467 1.363 1_655 S
C468 C474 1.428 . S
H469 C465 0.930 . S
H470 C467 0.929 . S
S471 N472 1.613 . S
S471 N473 1.610 . S
N472 S471 1.613 . S
N472 C475 1.350 . S
N473 S471 1.610 . S
N473 C474 1.351 . S
C474 C468 1.428 . S
C474 N473 1.351 . S
C474 C475 1.434 . S
C475 C466 1.429 . S
C475 N472 1.350 . S
C475 C474 1.434 . S
C476 C477 1.369 . S
C476 C478 1.419 . S
C476 H480 0.930 1_556 S
C477 C476 1.369 . S
C477 C486 1.429 . S
C478 C476 1.419 . S
C478 C479 1.363 . S
C478 H481 0.929 1_565 S
C479 C478 1.363 . S
C479 C485 1.428 . S
H480 C476 0.930 1_554 S
H481 C478 0.929 1_545 S
S482 N483 1.613 . S
S482 N484 1.610 . S
N483 S482 1.613 . S
N483 C486 1.350 . S
N484 S482 1.610 . S
N484 C485 1.351 . S
C485 C479 1.428 . S
C485 N484 1.351 . S
C485 C486 1.434 . S
C486 C477 1.429 . S
C486 N483 1.350 . S
C486 C485 1.434 . S
C487 C488 1.369 . S
C487 C489 1.419 . S
C487 H491 0.930 . S
C488 C487 1.369 . S
C488 C497 1.429 1_556 S
C489 C487 1.419 . S
C489 C490 1.363 . S
C489 H492 0.929 . S
C490 C489 1.363 . S
C490 C496 1.428 . S
H491 C487 0.930 . S
H492 C489 0.929 . S
S493 N494 1.613 . S
S493 N495 1.610 1_554 S
N494 S493 1.613 . S
N494 C497 1.350 . S
N495 S493 1.610 1_556 S
N495 C496 1.351 . S
C496 C490 1.428 . S
C496 N495 1.351 . S
C496 C497 1.434 1_556 S
C497 C488 1.429 1_554 S
C497 N494 1.350 . S
C497 C496 1.434 1_554 S
C498 C499 1.369 1_556 S
C498 C500 1.419 . S
C498 H502 0.930 . S
C499 C498 1.369 1_554 S
C499 C508 1.429 . S
C500 C498 1.419 . S
C500 C501 1.363 . S
C500 H503 0.929 . S
C501 C500 1.363 . S
C501 C507 1.428 . S
H502 C498 0.930 . S
H503 C500 0.929 . S
S504 N505 1.613 . S
S504 N506 1.610 . S
N505 S504 1.613 . S
N505 C508 1.350 . S
N506 S504 1.610 . S
N506 C507 1.351 1_554 S
C507 C501 1.428 . S
C507 N506 1.351 1_556 S
C507 C508 1.434 1_556 S
C508 C499 1.429 . S
C508 N505 1.350 . S
C508 C507 1.434 1_554 S
C509 C510 1.369 1_656 S
C509 C511 1.419 . S
C509 H513 0.930 1_556 S
C510 C509 1.369 1_454 S
C510 C519 1.429 1_554 S
C511 C509 1.419 . S
C511 C512 1.363 1_655 S
C511 H514 0.929 . S
C512 C511 1.363 1_455 S
C512 C518 1.428 . S
H513 C509 0.930 1_554 S
H514 C511 0.929 . S
S515 N516 1.613 . S
S515 N517 1.610 . S
N516 S515 1.613 . S
N516 C519 1.350 . S
N517 S515 1.610 . S
N517 C518 1.351 . S
C518 C512 1.428 . S
C518 N517 1.351 . S
C518 C519 1.434 . S
C519 C510 1.429 1_556 S
C519 N516 1.350 . S
C519 C518 1.434 . S
C520 C521 1.369 . S
C520 C522 1.419 1_455 S
C520 H524 0.930 . S
C521 C520 1.369 . S
C521 C530 1.429 1_455 S
C522 C520 1.419 1_655 S
C522 C523 1.363 . S
C522 H525 0.929 . S
C523 C522 1.363 . S
C523 C529 1.428 . S
H524 C520 0.930 . S
H525 C522 0.929 . S
S526 N527 1.613 . S
S526 N528 1.610 . S
N527 S526 1.613 . S
N527 C530 1.350 . S
N528 S526 1.610 . S
N528 C529 1.351 . S
C529 C523 1.428 . S
C529 N528 1.351 . S
C529 C530 1.434 . S
C530 C521 1.429 1_655 S
C530 N527 1.350 . S
C530 C529 1.434 . S
C531 C532 1.369 . S
C531 C533 1.419 . S
C531 H535 0.930 . S
C532 C531 1.369 . S
C532 C541 1.429 . S
C533 C531 1.419 . S
C533 C534 1.363 . S
C533 H536 0.929 . S
C534 C533 1.363 . S
C534 C540 1.428 . S
H535 C531 0.930 . S
H536 C533 0.929 . S
S537 N538 1.613 . S
S537 N539 1.610 . S
N538 S537 1.613 . S
N538 C541 1.350 . S
N539 S537 1.610 . S
N539 C540 1.351 . S
C540 C534 1.428 . S
C540 N539 1.351 . S
C540 C541 1.434 . S
C541 C532 1.429 . S
C541 N538 1.350 . S
C541 C540 1.434 . S
C542 C543 1.369 . S
C542 C544 1.419 . S
C542 H546 0.930 . S
C543 C542 1.369 . S
C543 C552 1.429 . S
C544 C542 1.419 . S
C544 C545 1.363 . S
C544 H547 0.929 . S
C545 C544 1.363 . S
C545 C551 1.428 . S
H546 C542 0.930 . S
H547 C544 0.929 . S
S548 N549 1.613 . S
S548 N550 1.610 . S
N549 S548 1.613 . S
N549 C552 1.350 . S
N550 S548 1.610 . S
N550 C551 1.351 . S
C551 C545 1.428 . S
C551 N550 1.351 . S
C551 C552 1.434 . S
C552 C543 1.429 . S
C552 N549 1.350 . S
C552 C551 1.434 . S
C553 C554 1.369 . S
C553 C555 1.419 . S
C553 H557 0.930 . S
C554 C553 1.369 . S
C554 C563 1.429 . S
C555 C553 1.419 . S
C555 C556 1.363 . S
C555 H558 0.929 . S
C556 C555 1.363 . S
C556 C562 1.428 . S
H557 C553 0.930 . S
H558 C555 0.929 . S
S559 N560 1.613 . S
S559 N561 1.610 . S
N560 S559 1.613 . S
N560 C563 1.350 . S
N561 S559 1.610 . S
N561 C562 1.351 . S
C562 C556 1.428 . S
C562 N561 1.351 . S
C562 C563 1.434 . S
C563 C554 1.429 . S
C563 N560 1.350 . S
C563 C562 1.434 . S
C564 C565 1.369 . S
C564 C566 1.419 1_655 S
C564 H568 0.930 . S
C565 C564 1.369 . S
C565 C574 1.429 1_655 S
C566 C564 1.419 1_455 S
C566 C567 1.363 . S
C566 H569 0.929 . S
C567 C566 1.363 . S
C567 C573 1.428 . S
H568 C564 0.930 . S
H569 C566 0.929 . S
S570 N571 1.613 1_554 S
S570 N572 1.610 . S
N571 S570 1.613 1_556 S
N571 C574 1.350 . S
N572 S570 1.610 . S
N572 C573 1.351 1_554 S
C573 C567 1.428 . S
C573 N572 1.351 1_556 S
C573 C574 1.434 . S
C574 C565 1.429 1_455 S
C574 N571 1.350 . S
C574 C573 1.434 . S
C575 C576 1.369 . S
C575 C577 1.419 . S
C575 H579 0.930 . S
C576 C575 1.369 . S
C576 C585 1.429 . S
C577 C575 1.419 . S
C577 C578 1.363 . S
C577 H580 0.929 . S
C578 C577 1.363 . S
C578 C584 1.428 . S
H579 C575 0.930 . S
H580 C577 0.929 . S
S581 N582 1.613 1_545 S
S581 N583 1.610 . S
N582 S581 1.613 1_565 S
N582 C585 1.350 . S
N583 S581 1.610 . S
N583 C584 1.351 1_545 S
C584 C578 1.428 . S
C584 N583 1.351 1_565 S
C584 C585 1.434 . S
C585 C576 1.429 . S
C585 N582 1.350 . S
C585 C584 1.434 . S
C586 C587 1.369 . S
C586 C588 1.419 . S
C586 H590 0.930 . S
C587 C586 1.369 . S
C587 C596 1.429 . S
C588 C586 1.419 . S
C588 C589 1.363 . S
C588 H591 0.929 . S
C589 C588 1.363 . S
C589 C595 1.428 . S
H590 C586 0.930 . S
H591 C588 0.929 . S
S592 N593 1.613 . S
S592 N594 1.610 . S
N593 S592 1.613 . S
N593 C596 1.350 1_554 S
N594 S592 1.610 . S
N594 C595 1.351 1_554 S
C595 C589 1.428 . S
C595 N594 1.351 1_556 S
C595 C596 1.434 . S
C596 C587 1.429 . S
C596 N593 1.350 1_556 S
C596 C595 1.434 . S
C597 C598 1.369 . S
C597 C599 1.419 . S
C597 H601 0.930 . S
C598 C597 1.369 . S
C598 C607 1.429 . S
C599 C597 1.419 . S
C599 C600 1.363 . S
C599 H602 0.929 . S
C600 C599 1.363 . S
C600 C606 1.428 . S
H601 C597 0.930 . S
H602 C599 0.929 . S
S603 N604 1.613 . S
S603 N605 1.610 . S
N604 S603 1.613 . S
N604 C607 1.350 . S
N605 S603 1.610 . S
N605 C606 1.351 . S
C606 C600 1.428 . S
C606 N605 1.351 . S
C606 C607 1.434 . S
C607 C598 1.429 . S
C607 N604 1.350 . S
C607 C606 1.434 . S
C608 C609 1.369 1_655 S
C608 C610 1.419 . S
C608 H612 0.930 . S
C609 C608 1.369 1_455 S
C609 C618 1.429 . S
C610 C608 1.419 . S
C610 C611 1.363 1_655 S
C610 H613 0.929 . S
C611 C610 1.363 1_455 S
C611 C617 1.428 . S
H612 C608 0.930 . S
H613 C610 0.929 . S
S614 N615 1.613 . S
S614 N616 1.610 . S
N615 S614 1.613 . S
N615 C618 1.350 1_556 S
N616 S614 1.610 . S
N616 C617 1.351 1_556 S
C617 C611 1.428 . S
C617 N616 1.351 1_554 S
C617 C618 1.434 . S
C618 C609 1.429 . S
C618 N615 1.350 1_554 S
C618 C617 1.434 . S
C619 C620 1.369 . S
C619 C621 1.419 . S
C619 H623 0.930 . S
C620 C619 1.369 . S
C620 C629 1.429 . S
C621 C619 1.419 . S
C621 C622 1.363 . S
C621 H624 0.929 . S
C622 C621 1.363 . S
C622 C628 1.428 . S
H623 C619 0.930 . S
H624 C621 0.929 . S
S625 N626 1.613 . S
S625 N627 1.610 . S
N626 S625 1.613 . S
N626 C629 1.350 . S
N627 S625 1.610 . S
N627 C628 1.351 . S
C628 C622 1.428 . S
C628 N627 1.351 . S
C628 C629 1.434 . S
C629 C620 1.429 . S
C629 N626 1.350 . S
C629 C628 1.434 . S
C630 C631 1.369 . S
C630 C632 1.419 1_554 S
C630 H634 0.930 . S
C631 C630 1.369 . S
C631 C640 1.429 . S
C632 C630 1.419 1_556 S
C632 C633 1.363 . S
C632 H635 0.929 . S
C633 C632 1.363 . S
C633 C639 1.428 1_556 S
H634 C630 0.930 . S
H635 C632 0.929 . S
S636 N637 1.613 . S
S636 N638 1.610 . S
N637 S636 1.613 . S
N637 C640 1.350 . S
N638 S636 1.610 . S
N638 C639 1.351 . S
C639 C633 1.428 1_554 S
C639 N638 1.351 . S
C639 C640 1.434 . S
C640 C631 1.429 . S
C640 N637 1.350 . S
C640 C639 1.434 . S
C641 C642 1.369 1_556 S
C641 C643 1.419 . S
C641 H645 0.930 . S
C642 C641 1.369 1_554 S
C642 C651 1.429 . S
C643 C641 1.419 . S
C643 C644 1.363 . S
C643 H646 0.929 . S
C644 C643 1.363 . S
C644 C650 1.428 1_556 S
H645 C641 0.930 . S
H646 C643 0.929 . S
S647 N648 1.613 . S
S647 N649 1.610 . S
N648 S647 1.613 . S
N648 C651 1.350 . S
N649 S647 1.610 . S
N649 C650 1.351 . S
C650 C644 1.428 1_554 S
C650 N649 1.351 . S
C650 C651 1.434 . S
C651 C642 1.429 . S
C651 N648 1.350 . S
C651 C650 1.434 . S
C652 C653 1.369 . S
C652 C654 1.419 . S
C652 H656 0.930 . S
C653 C652 1.369 . S
C653 C662 1.429 1_655 S
C654 C652 1.419 . S
C654 C655 1.363 . S
C654 H657 0.929 . S
C655 C654 1.363 . S
C655 C661 1.428 1_655 S
H656 C652 0.930 . S
H657 C654 0.929 . S
S658 N659 1.613 . S
S658 N660 1.610 . S
N659 S658 1.613 . S
N659 C662 1.350 . S
N660 S658 1.610 . S
N660 C661 1.351 . S
C661 C655 1.428 1_455 S
C661 N660 1.351 . S
C661 C662 1.434 . S
C662 C653 1.429 1_455 S
C662 N659 1.350 . S
C662 C661 1.434 . S
C663 C664 1.369 . S
C663 C665 1.419 . S
C663 H667 0.930 . S
C664 C663 1.369 . S
C664 C673 1.429 . S
C665 C663 1.419 . S
C665 C666 1.363 . S
C665 H668 0.929 . S
C666 C665 1.363 . S
C666 C672 1.428 . S
H667 C663 0.930 . S
H668 C665 0.929 . S
S669 N670 1.613 . S
S669 N671 1.610 . S
N670 S669 1.613 . S
N670 C673 1.350 . S
N671 S669 1.610 . S
N671 C672 1.351 . S
C672 C666 1.428 . S
C672 N671 1.351 . S
C672 C673 1.434 . S
C673 C664 1.429 . S
C673 N670 1.350 . S
C673 C672 1.434 . S
C674 C675 1.369 . S
C674 C676 1.419 . S
C674 H678 0.930 . S
C675 C674 1.369 . S
C675 C684 1.429 . S
C676 C674 1.419 . S
C676 C677 1.363 . S
C676 H679 0.929 . S
C677 C676 1.363 . S
C677 C683 1.428 . S
H678 C674 0.930 . S
H679 C676 0.929 . S
S680 N681 1.613 . S
S680 N682 1.610 . S
N681 S680 1.613 . S
N681 C684 1.350 . S
N682 S680 1.610 . S
N682 C683 1.351 . S
C683 C677 1.428 . S
C683 N682 1.351 . S
C683 C684 1.434 . S
C684 C675 1.429 . S
C684 N681 1.350 . S
C684 C683 1.434 . S
C685 C686 1.369 . S
C685 C687 1.419 . S
C685 H689 0.930 . S
C686 C685 1.369 . S
C686 C695 1.429 . S
C687 C685 1.419 . S
C687 C688 1.363 . S
C687 H690 0.929 . S
C688 C687 1.363 . S
C688 C694 1.428 . S
H689 C685 0.930 . S
H690 C687 0.929 . S
S691 N692 1.613 . S
S691 N693 1.610 . S
N692 S691 1.613 . S
N692 C695 1.350 . S
N693 S691 1.610 . S
N693 C694 1.351 . S
C694 C688 1.428 . S
C694 N693 1.351 . S
C694 C695 1.434 . S
C695 C686 1.429 . S
C695 N692 1.350 . S
C695 C694 1.434 . S
C433 C255 1.911 . S
C435 C322 1.966 . S
C446 C352 1.816 . S
C444 C294 1.780 . S
C457 N386 1.887 . S
C455 C177 1.825 . S
C468 N416 1.486 . S
C466 C216 1.569 . S
C479 C313 1.964 1_565 S
C477 C99 1.943 1_556 S
C488 C138 1.786 1_556 S
C490 C343 1.816 . S
C499 C21 1.843 . S
C501 N378 1.883 . S
C510 C60 1.561 1_455 S
C512 N408 1.499 . S
C523 C328 0.636 . S
C521 C196 0.715 1_455 S
C534 C358 1.203 . S
C532 C235 1.077 . S
C545 C399 0.943 . S
C543 C289 0.923 . S
C554 C157 1.015 . S
C556 C429 1.087 . S
C565 C40 0.679 . S
C567 C339 0.656 . S
C578 C369 1.203 1_565 S
C576 C79 1.086 . S
C589 C388 0.944 . S
C587 C133 0.916 . S
C598 C1 1.050 . S
C600 C418 1.077 . S
C609 C211 1.701 . S
C611 N318 1.814 . S
C620 C250 1.825 . S
C622 N348 1.965 . S
C633 C373 2.011 . S
C631 C274 1.894 . S
C644 C403 2.216 . S
C642 C172 2.058 . S
C653 C55 1.702 1_655 S
C655 N326 1.813 . S
C666 N356 1.964 . S
C664 C94 1.823 . S
C677 C382 2.011 . S
C675 C118 1.898 . S
C686 C16 2.064 . S
C688 C412 2.216 . S
