# Generated by pormake.
# Topology tsx, (6,3)-cn, num edge types: 1
# Building blocks:
#     Node 0, Type 0, BuildingBlock: MIDCAF_clean_sbu_0, # of connection points: 6
#     Node 1, Type 0, BuildingBlock: MIDCAF_clean_sbu_0, # of connection points: 6
#     Node 2, Type 1, BuildingBlock: INOVEN_clean_linker_0, # of connection points: 3
#     Node 3, Type 1, BuildingBlock: INOVEN_clean_linker_0, # of connection points: 3
#     Node 4, Type 1, BuildingBlock: INOVEN_clean_linker_0, # of connection points: 3
#     Node 5, Type 1, BuildingBlock: INOVEN_clean_linker_0, # of connection points: 3
#     Edge 6, Type (0, 1), BuildingBlock: KIFKEQ_clean_linker_1, # of connection points: 2
#     Edge 7, Type (0, 1), BuildingBlock: KIFKEQ_clean_linker_1, # of connection points: 2
#     Edge 8, Type (0, 1), BuildingBlock: KIFKEQ_clean_linker_1, # of connection points: 2
#     Edge 9, Type (0, 1), BuildingBlock: KIFKEQ_clean_linker_1, # of connection points: 2
#     Edge 10, Type (0, 1), BuildingBlock: KIFKEQ_clean_linker_1, # of connection points: 2
#     Edge 11, Type (0, 1), BuildingBlock: KIFKEQ_clean_linker_1, # of connection points: 2
#     Edge 12, Type (0, 1), BuildingBlock: KIFKEQ_clean_linker_1, # of connection points: 2
#     Edge 13, Type (0, 1), BuildingBlock: KIFKEQ_clean_linker_1, # of connection points: 2
#     Edge 14, Type (0, 1), BuildingBlock: KIFKEQ_clean_linker_1, # of connection points: 2
#     Edge 15, Type (0, 1), BuildingBlock: KIFKEQ_clean_linker_1, # of connection points: 2
#     Edge 16, Type (0, 1), BuildingBlock: KIFKEQ_clean_linker_1, # of connection points: 2
#     Edge 17, Type (0, 1), BuildingBlock: KIFKEQ_clean_linker_1, # of connection points: 2
# Relax obj value: 0.076
# Max RMSD: 0.148
# Mean RMSD: 0.105
data_MOF--net-tsx--node1-MIDCAF_clean_sbu_0--node2-INOVEN_clean_linker_0--edge1-KIFKEQ_clean_linker_1
_symmetry_space_group_name_H-M    P1
_symmetry_Int_Tables_number       1
_symmetry_cell_setting            triclinic
loop_
_symmetry_equiv_pos_as_xyz
'x, y, z'
_cell_length_a     19.08025
_cell_length_b     22.331065
_cell_length_c     36.704586
_cell_angle_alpha  90.882251
_cell_angle_beta   107.1178
_cell_angle_gamma 90.170738
loop_
_atom_site_label
_atom_site_type_symbol
_atom_site_fract_x
_atom_site_fract_y
_atom_site_fract_z
_atom_type_partial_charge
Zn0 Zn 0.95174 -0.01378 0.9509 0.0
Zn1 Zn 0.2068 -0.01528 0.06297 0.0
Zn2 Zn 0.08087 -0.01343 0.00648 0.0
C3 C 0.17447 0.10492 0.04475 0.0
C4 C 0.2292 0.91874 0.00214 0.0
O5 O 0.99865 0.93198 0.02399 0.0
O6 O 0.89655 0.93314 0.97579 0.0
C7 C 0.98786 0.10559 0.97511 0.0
O8 O 0.11745 0.08072 0.02095 0.0
O9 O 0.22242 0.07276 0.06683 0.0
O10 O 0.2622 0.93518 0.03593 0.0
O11 O 0.16254 0.93522 0.9863 0.0
O12 O 0.93821 0.07449 0.95221 0.0
O13 O 0.04557 0.08063 0.99682 0.0
O14 O 0.10109 0.94787 0.95488 0.0
O15 O 0.9924 0.95137 0.91145 0.0
C16 C 0.05988 0.93917 0.92043 0.0
O17 O 0.05969 0.94376 0.05599 0.0
O18 O 0.16679 0.94597 0.10079 0.0
C19 C 0.93162 0.91493 0.00844 0.0
C20 C 0.09923 0.9332 0.09029 0.0
Zn21 Zn 0.71478 0.51177 0.54158 0.0
Zn22 Zn 0.45836 0.48839 0.45197 0.0
Zn23 Zn 0.58814 0.50062 0.50264 0.0
C24 C 0.55897 0.44113 0.41822 0.0
C25 C 0.48357 0.61127 0.46691 0.0
O26 O 0.58127 0.47203 0.55826 0.0
O27 O 0.68435 0.51852 0.58883 0.0
C28 C 0.72657 0.41821 0.4989 0.0
O29 O 0.60227 0.45425 0.45164 0.0
O30 O 0.49107 0.45089 0.41049 0.0
O31 O 0.43496 0.57496 0.44815 0.0
O32 O 0.54552 0.59207 0.4881 0.0
O33 O 0.76256 0.43814 0.53135 0.0
O34 O 0.66337 0.44084 0.48193 0.0
O35 O 0.62094 0.59778 0.50774 0.0
O36 O 0.74069 0.58708 0.52079 0.0
C37 C 0.68519 0.62031 0.51168 0.0
O38 O 0.51902 0.4478 0.53052 0.0
O39 O 0.41547 0.43713 0.48359 0.0
C40 C 0.62523 0.49346 0.58937 0.0
C41 C 0.45354 0.42589 0.5172 0.0
H42 H 0.1339 -0.00736 0.45074 0.0
H43 H 0.15068 0.89248 0.35272 0.0
H44 H 0.96639 0.00739 0.34281 0.0
N45 N 1.0108 0.04935 0.41556 0.0
N46 N 0.95556 0.07633 0.39606 0.0
C47 C 0.11146 -0.02048 0.421 0.0
C48 C 0.14978 0.93925 0.40425 0.0
C49 C 0.04559 0.00492 0.39891 0.0
C50 C 1.01709 -0.01187 0.36011 0.0
C51 C 0.05425 0.94705 0.34334 0.0
C52 C 0.12052 0.92308 0.36565 0.0
H53 H 1.03499 0.00906 0.55607 0.0
H54 H 1.00303 0.90948 0.64921 0.0
H55 H 0.18474 0.0325 0.66903 0.0
N56 N 0.1514 0.07146 0.5965 0.0
N57 N 0.20814 0.09662 0.6171 0.0
C58 C 0.05235 -0.00219 0.586 0.0
C59 C 1.0122 0.95565 0.59988 0.0
C60 C 0.1142 0.02639 0.61086 0.0
C61 C 0.13675 0.01115 0.64972 0.0
C62 C 0.09744 0.96853 0.66382 0.0
C63 C 1.03484 0.94156 0.63865 0.0
H64 H 0.65846 0.4987 0.97053 0.0
H65 H 0.71115 0.41945 0.87434 0.0
H66 H 0.53099 0.5407 0.8558 0.0
N67 N 0.54724 0.56504 0.93009 0.0
N68 N 0.49513 0.59295 0.9085 0.0
C69 C 0.64676 0.49243 0.93998 0.0
C70 C 0.69185 0.45543 0.92526 0.0
C71 C 0.58817 0.52329 0.91505 0.0
C72 C 0.57433 0.51574 0.87531 0.0
C73 C 0.61914 0.47905 0.86053 0.0
C74 C 0.67683 0.44849 0.88569 0.0
H75 H 0.50484 0.5012 0.05453 0.0
H76 H 0.49129 0.40045 0.1511 0.0
H77 H 0.67337 0.51984 0.16232 0.0
N78 N 0.62741 0.56088 0.09029 0.0
N79 N 0.68342 0.58808 0.10993 0.0
C80 C 0.52784 0.48872 0.08405 0.0
C81 C 0.49074 0.4473 0.1003 0.0
C82 C 0.59341 0.51577 0.1064 0.0
C83 C 0.62277 0.49948 0.14489 0.0
C84 C 0.58673 0.45738 0.16115 0.0
C85 C 0.5207 0.43186 0.1386 0.0
H86 H 0.16557 0.17769 0.98434 0.0
H87 H 0.21934 0.17683 0.10696 0.0
H88 H 0.22286 0.27738 0.9879 0.0
H89 H 0.27444 0.27587 0.11064 0.0
H90 H 0.36079 0.45431 0.11588 0.0
H91 H 0.25777 0.38435 0.09392 0.0
H92 H 0.36099 0.30337 0.01546 0.0
H93 H 0.46386 0.37412 0.03732 0.0
C94 C 0.18698 0.1999 0.01186 0.0
C95 C 0.18845 0.16988 0.04543 0.0
C96 C 0.22015 0.25657 0.01392 0.0
C97 C 0.25336 0.28437 0.04954 0.0
C98 C 0.2487 0.25613 0.08273 0.0
C99 C 0.21729 0.1993 0.0807 0.0
C100 C 0.35988 0.42307 0.09285 0.0
C101 C 0.42033 0.419 0.0785 0.0
C102 C 0.30113 0.38295 0.08038 0.0
C103 C 0.3019 0.33775 0.05345 0.0
C104 C 0.35864 0.33791 0.0361 0.0
C105 C 0.41757 0.37832 0.04859 0.0
H106 H 0.16762 0.8355 0.9459 0.0
H107 H 0.37599 0.90429 0.0164 0.0
H108 H 0.23091 0.75578 0.92214 0.0
H109 H 0.43909 0.82496 0.99278 0.0
H110 H 0.51915 0.63569 0.98126 0.0
H111 H 0.45229 0.71711 0.001 0.0
H112 H 0.31521 0.73368 0.88469 0.0
H113 H 0.38187 0.65142 0.86533 0.0
C114 C 0.22694 0.83463 0.95551 0.0
C115 C 0.26677 0.87637 0.98288 0.0
C116 C 0.26325 0.78867 0.94214 0.0
C117 C 0.34003 0.78343 0.95607 0.0
C118 C 0.37984 0.82682 0.98217 0.0
C119 C 0.34367 0.87262 0.99544 0.0
C120 C 0.47439 0.65647 0.96007 0.0
C121 C 0.45515 0.6375 0.9217 0.0
C122 C 0.43644 0.70342 0.97124 0.0
C123 C 0.3787 0.73225 0.94432 0.0
C124 C 0.35891 0.71221 0.90615 0.0
C125 C 0.39698 0.66539 0.89504 0.0
H126 H 0.99664 0.82847 0.05915 0.0
H127 H 0.78547 0.90014 -0.0017 0.0
H128 H 0.93625 0.74985 0.08458 0.0
H129 H 0.72493 0.82152 0.02354 0.0
H130 H 0.64346 0.6325 0.03785 0.0
H131 H 0.70493 0.71395 0.01527 0.0
H132 H 0.8623 0.73083 0.12707 0.0
H133 H 0.80109 0.64846 0.14918 0.0
C134 C 0.93742 0.82836 0.052 0.0
C135 C 0.8959 0.871 0.02716 0.0
C136 C 0.9027 0.78304 0.06636 0.0
C137 C 0.82565 0.77909 0.05587 0.0
C138 C 0.78429 0.82259 0.03165 0.0
C139 C 0.81899 0.8679 0.01741 0.0
C140 C 0.69125 0.65357 0.05748 0.0
C141 C 0.71803 0.63442 0.09533 0.0
C142 C 0.72622 0.70051 0.04468 0.0
C143 C 0.78849 0.72911 0.06942 0.0
C144 C 0.81508 0.70942 0.10716 0.0
C145 C 0.78007 0.66259 0.11989 0.0
H146 H 0.95684 0.18443 0.91782 0.0
H147 H 0.98554 0.17008 0.03833 0.0
H148 H 0.90468 0.28385 0.91832 0.0
H149 H 0.93041 0.26957 0.03874 0.0
H150 H 0.83289 0.46582 0.92475 0.0
H151 H 0.9289 0.39154 0.94741 0.0
H152 H 0.79091 0.29693 0.00205 0.0
H153 H 0.69437 0.37142 0.97904 0.0
C154 C 0.95405 0.20362 0.94465 0.0
C155 C 0.97533 0.17015 0.97802 0.0
C156 C 0.92425 0.26047 0.94502 0.0
C157 C 0.91333 0.28432 0.97859 0.0
C158 C 0.93839 0.25217 0.01255 0.0
C159 C 0.97025 0.19567 0.01236 0.0
C160 C 0.82434 0.43047 0.94293 0.0
C161 C 0.75611 0.42374 0.94983 0.0
C162 C 0.87916 0.38798 0.9558 0.0
C163 C 0.86688 0.33814 0.97599 0.0
C164 C 0.80192 0.33515 0.9867 0.0
C165 C 0.74669 0.37772 0.9736 0.0
H166 H 0.66809 0.70553 0.56135 0.0
H167 H 0.7382 0.67836 0.46109 0.0
H168 H 0.73491 0.80012 0.57447 0.0
H169 H 0.80093 0.77522 0.4721 0.0
H170 H 1.01031 0.87412 0.54412 0.0
H171 H 0.91139 0.8048 0.51331 0.0
H172 H 0.7685 0.89715 0.56754 0.0
H173 H 0.8701 0.96383 0.60015 0.0
C174 C 0.69447 0.72169 0.54093 0.0
C175 C 0.6981 0.68502 0.51026 0.0
C176 C 0.73324 0.77607 0.54841 0.0
C177 C 0.77554 0.79519 0.52494 0.0
C178 C 0.77144 0.76132 0.49165 0.0
C179 C 0.73425 0.70629 0.4848 0.0
C180 C 0.95708 0.88031 0.54855 0.0
C181 C 0.94761 0.92397 0.57444 0.0
C182 C 0.89983 0.84072 0.53076 0.0
C183 C 0.83127 0.84447 0.53805 0.0
C184 C 0.82062 0.89158 0.56182 0.0
C185 C 0.87846 0.93035 0.5802 0.0
H186 H 0.87024 0.38952 0.51423 0.0
H187 H 0.6543 0.33481 0.44493 0.0
H188 H 0.92368 0.30568 0.48919 0.0
H189 H 0.70782 0.25012 0.41987 0.0
H190 H 0.84319 0.14013 0.3568 0.0
H191 H 0.78476 0.22388 0.38012 0.0
H192 H 0.93077 0.19869 0.49368 0.0
H193 H 0.9899 0.11633 0.46989 0.0
C194 C 0.83411 0.35956 0.49353 0.0
C195 C 0.75803 0.36907 0.48134 0.0
C196 C 0.86475 0.31119 0.47936 0.0
C197 C 0.82007 0.2707 0.4528 0.0
C198 C 0.74394 0.28076 0.44004 0.0
C199 C 0.71321 0.32944 0.45423 0.0
C200 C 0.86216 0.15268 0.38674 0.0
C201 C 0.92083 0.12228 0.4114 0.0
C202 C 0.82866 0.20027 0.40017 0.0
C203 C 0.85329 0.21829 0.43873 0.0
C204 C 0.91128 0.18673 0.46365 0.0
C205 C 0.94491 0.13927 0.45014 0.0
H206 H 0.52265 0.33501 0.56298 0.0
H207 H 0.31244 0.4194 0.51805 0.0
H208 H 0.46434 0.25493 0.58904 0.0
H209 H 0.25416 0.33982 0.54378 0.0
H210 H 0.16491 0.15056 0.54793 0.0
H211 H 0.22802 0.23312 0.52759 0.0
H212 H 0.39674 0.23171 0.63602 0.0
H213 H 0.33322 0.14847 0.65615 0.0
C214 C 0.46442 0.33733 0.55971 0.0
C215 C 0.42224 0.38384 0.53906 0.0
C216 C 0.4309 0.29134 0.57436 0.0
C217 C 0.35442 0.29064 0.56808 0.0
C218 C 0.31292 0.33843 0.54855 0.0
C219 C 0.34639 0.38431 0.53414 0.0
C220 C 0.21558 0.16771 0.56733 0.0
C221 C 0.2446 0.14323 0.6037 0.0
C222 C 0.25152 0.21531 0.55583 0.0
C223 C 0.31723 0.23931 0.58031 0.0
C224 C 0.34657 0.21406 0.61642 0.0
C225 C 0.31031 0.16668 0.62799 0.0
H226 H 0.48798 0.68968 0.5254 0.0
H227 H 0.43454 0.67504 0.40301 0.0
H228 H 0.42486 0.78668 0.51933 0.0
H229 H 0.37363 0.77146 0.39678 0.0
H230 H 0.17995 0.87138 0.46829 0.0
H231 H 0.28576 0.80545 0.49134 0.0
H232 H 0.38459 0.88181 0.41071 0.0
H233 H 0.27872 0.94693 0.38757 0.0
C234 C 0.46537 0.70847 0.49737 0.0
C235 C 0.46592 0.67539 0.46461 0.0
C236 C 0.42886 0.76354 0.49387 0.0
C237 C 0.39418 0.78661 0.4576 0.0
C238 C 0.40049 0.75542 0.42515 0.0
C239 C 0.43528 0.70014 0.42863 0.0
C240 C 0.22572 0.87559 0.45666 0.0
C241 C 0.22098 0.91338 0.42585 0.0
C242 C 0.28636 0.838 0.46985 0.0
C243 C 0.34288 0.83786 0.45236 0.0
C244 C 0.34141 0.8804 0.42435 0.0
C245 C 0.28097 0.91768 0.41117 0.0
H246 H 0.96507 0.96287 0.09733 0.0
H247 H 0.15957 0.86109 0.14976 0.0
H248 H 0.92641 0.9532 0.155 0.0
H249 H 0.1215 0.85139 0.20702 0.0
H250 H 0.04887 0.83742 0.3082 0.0
H251 H 1.03382 0.81787 0.24065 0.0
H252 H 0.98714 0.00493 0.21742 0.0
H253 H 1.00257 0.02447 0.28474 0.0
C254 C 0.99804 0.93652 0.12061 0.0
C255 C 0.06565 0.91323 0.11942 0.0
C256 C 0.9762 0.93133 0.15365 0.0
C257 C 1.02132 0.90218 0.1857 0.0
C258 C 0.08516 0.87377 0.18281 0.0
C259 C 0.10731 0.8796 0.15009 0.0
C260 C 1.03388 0.87408 0.28848 0.0
C261 C 1.02837 0.93271 0.30186 0.0
C262 C 1.02496 0.86282 0.24984 0.0
C263 C 1.01019 0.90995 0.22382 0.0
C264 C 0.99782 0.9675 0.23666 0.0
C265 C 1.00689 -0.02121 0.27533 0.0
H266 H 0.99615 0.86955 0.8585 0.0
H267 H 0.1917 -0.02683 0.91186 0.0
H268 H 1.02854 0.86575 0.79923 0.0
H269 H 0.22435 0.96982 0.85202 0.0
H270 H 0.14304 0.0456 0.72513 0.0
H271 H 0.15815 0.02374 0.79181 0.0
H272 H 0.11409 0.83654 0.76257 0.0
H273 H 0.09986 0.85823 0.69579 0.0
C274 C 0.04746 0.88976 0.85783 0.0
C275 C 0.09105 0.92215 0.88951 0.0
C276 C 0.06625 0.88743 0.82391 0.0
C277 C 0.12853 0.9182 0.8208 0.0
C278 C 0.17563 0.94623 0.85354 0.0
C279 C 0.15731 0.94774 0.88781 0.0
C280 C 0.13881 -0.0005 0.73303 0.0
C281 C 0.11888 0.95385 0.70503 0.0
C282 C 0.14775 -0.01309 0.77133 0.0
C283 C 0.13672 0.92846 0.78239 0.0
C284 C 0.12205 0.88212 0.7548 0.0
C285 C 0.11344 0.89465 0.71656 0.0
H286 H 0.66922 0.57472 0.64648 0.0
H287 H 0.54286 0.41147 0.61519 0.0
H288 H 0.65747 0.56984 0.71037 0.0
H289 H 0.53103 0.40633 0.68003 0.0
H290 H 0.49313 0.46533 0.80042 0.0
H291 H 0.48267 0.46808 0.73196 0.0
H292 H 0.71731 0.49161 0.75987 0.0
H293 H 0.72769 0.48992 0.82733 0.0
C294 C 0.63833 0.53784 0.65318 0.0
C295 C 0.60798 0.49269 0.62601 0.0
C296 C 0.63155 0.53519 0.68976 0.0
C297 C 0.59457 0.48716 0.70022 0.0
C298 C 0.55989 0.44382 0.67254 0.0
C299 C 0.56657 0.44667 0.63553 0.0
C300 C 0.54224 0.47096 0.79171 0.0
C301 C 0.61123 0.47735 0.81914 0.0
C302 C 0.53628 0.47206 0.75272 0.0
C303 C 0.59912 0.48052 0.74084 0.0
C304 C 0.66791 0.48564 0.76831 0.0
C305 C 0.67391 0.48415 0.80694 0.0
H306 H 0.49093 0.37169 0.35658 0.0
H307 H 0.69203 0.4692 0.40893 0.0
H308 H 0.52358 0.363 0.2975 0.0
H309 H 0.72474 0.46095 0.34932 0.0
H310 H 0.64112 0.53498 0.22136 0.0
H311 H 0.65949 0.51511 0.28854 0.0
H312 H 0.60943 0.32802 0.26152 0.0
H313 H 0.59216 0.34766 0.19418 0.0
C314 C 0.54327 0.38961 0.35576 0.0
C315 C 0.58843 0.42182 0.38706 0.0
C316 C 0.56226 0.38436 0.32198 0.0
C317 C 0.62635 0.41196 0.31866 0.0
C318 C 0.67473 0.43971 0.35105 0.0
C319 C 0.65619 0.44412 0.38517 0.0
C320 C 0.63668 0.48922 0.22983 0.0
C321 C 0.61371 0.44312 0.20234 0.0
C322 C 0.64739 0.47778 0.26841 0.0
C323 C 0.63503 0.4201 0.2802 0.0
C324 C 0.6184 0.37303 0.25314 0.0
C325 C 0.60813 0.38439 0.21462 0.0
loop_
_geom_bond_atom_site_label_1
_geom_bond_atom_site_label_2
_geom_bond_distance
_geom_bond_site_symmetry_2
_ccdc_geom_bond_type
Zn0 O6 1.920 1_545 S
Zn0 O12 1.898 . S
Zn0 O15 1.905 1_545 S
Zn1 O9 1.905 . S
Zn1 O10 1.898 1_545 S
Zn1 O18 1.920 1_545 S
Zn2 O5 2.080 1_445 S
Zn2 O8 2.114 . S
Zn2 O11 2.120 1_545 S
Zn2 O13 2.120 1_455 S
Zn2 O14 2.114 1_554 S
Zn2 O17 2.080 . S
C3 O8 1.166 . S
C3 O9 1.182 . S
C4 O10 1.167 . S
C4 O11 1.299 . S
O5 Zn2 2.080 1_665 S
O5 C19 1.305 . S
O6 Zn0 1.920 1_565 S
O6 C19 1.234 1_556 S
C7 O12 1.167 . S
C7 O13 1.299 1_556 S
O8 Zn2 2.114 . S
O8 C3 1.166 . S
O9 Zn1 1.905 . S
O9 C3 1.182 . S
O10 Zn1 1.898 1_565 S
O10 C4 1.167 . S
O11 Zn2 2.120 1_565 S
O11 C4 1.299 . S
O12 Zn0 1.898 . S
O12 C7 1.167 . S
O13 Zn2 2.120 1_655 S
O13 C7 1.299 1_554 S
O14 Zn2 2.114 1_556 S
O14 C16 1.165 1_445 S
O15 Zn0 1.905 1_565 S
O15 C16 1.185 . S
C16 O14 1.165 1_665 S
C16 O15 1.185 . S
O17 Zn2 2.080 . S
O17 C20 1.305 1_545 S
O18 Zn1 1.920 1_565 S
O18 C20 1.234 . S
C19 O5 1.305 . S
C19 O6 1.234 1_554 S
C20 O17 1.305 1_565 S
C20 O18 1.234 . S
Zn21 O27 1.920 . S
Zn21 O33 1.898 . S
Zn21 O36 1.905 . S
Zn22 O30 1.905 . S
Zn22 O31 1.898 . S
Zn22 O39 1.920 . S
Zn23 O26 2.080 . S
Zn23 O29 2.114 . S
Zn23 O32 2.120 . S
Zn23 O34 2.120 . S
Zn23 O35 2.114 . S
Zn23 O38 2.080 . S
C24 O29 1.166 . S
C24 O30 1.182 . S
C25 O31 1.167 . S
C25 O32 1.299 . S
O26 Zn23 2.080 . S
O26 C40 1.305 . S
O27 Zn21 1.920 . S
O27 C40 1.234 . S
C28 O33 1.167 . S
C28 O34 1.299 . S
O29 Zn23 2.114 . S
O29 C24 1.166 . S
O30 Zn22 1.905 . S
O30 C24 1.182 . S
O31 Zn22 1.898 . S
O31 C25 1.167 . S
O32 Zn23 2.120 . S
O32 C25 1.299 . S
O33 Zn21 1.898 . S
O33 C28 1.167 . S
O34 Zn23 2.120 . S
O34 C28 1.299 . S
O35 Zn23 2.114 . S
O35 C37 1.166 . S
O36 Zn21 1.905 . S
O36 C37 1.182 . S
C37 O35 1.166 . S
C37 O36 1.182 . S
O38 Zn23 2.080 . S
O38 C41 1.305 . S
O39 Zn22 1.920 . S
O39 C41 1.234 . S
C40 O26 1.305 . S
C40 O27 1.234 . S
C41 O38 1.305 . S
C41 O39 1.234 . S
H42 C47 0.929 1_565 S
H43 C52 0.931 . S
H44 C50 0.930 . S
N45 N46 1.234 . S
N45 C49 1.453 . S
N46 N45 1.234 . S
C47 H42 0.929 1_545 S
C47 C48 1.373 1_545 S
C47 C49 1.368 . S
C48 C47 1.373 1_565 S
C48 C52 1.397 . S
C49 N45 1.453 . S
C49 C47 1.368 . S
C49 C50 1.373 . S
C50 H44 0.930 . S
C50 C49 1.373 . S
C50 C51 1.371 . S
C51 C50 1.371 . S
C51 C52 1.383 1_545 S
C52 H43 0.931 . S
C52 C48 1.397 . S
C52 C51 1.383 1_565 S
H53 C58 0.929 1_565 S
H54 C63 0.931 . S
H55 C61 0.930 . S
N56 N57 1.234 . S
N56 C60 1.453 . S
N57 N56 1.234 . S
C58 H53 0.929 1_545 S
C58 C59 1.373 1_545 S
C58 C60 1.368 1_655 S
C59 C58 1.373 1_565 S
C59 C63 1.397 . S
C60 N56 1.453 . S
C60 C58 1.368 1_455 S
C60 C61 1.373 . S
C61 H55 0.930 . S
C61 C60 1.373 . S
C61 C62 1.371 1_455 S
C62 C61 1.371 1_655 S
C62 C63 1.383 1_545 S
C63 H54 0.931 . S
C63 C59 1.397 . S
C63 C62 1.383 1_565 S
H64 C69 0.929 . S
H65 C74 0.931 . S
H66 C72 0.930 . S
N67 N68 1.234 . S
N67 C71 1.453 . S
N68 N67 1.234 . S
C69 H64 0.929 . S
C69 C70 1.373 . S
C69 C71 1.368 . S
C70 C69 1.373 . S
C70 C74 1.397 . S
C71 N67 1.453 . S
C71 C69 1.368 . S
C71 C72 1.373 . S
C72 H66 0.930 . S
C72 C71 1.373 . S
C72 C73 1.371 . S
C73 C72 1.371 . S
C73 C74 1.383 . S
C74 H65 0.931 . S
C74 C70 1.397 . S
C74 C73 1.383 . S
H75 C80 0.929 . S
H76 C85 0.931 . S
H77 C83 0.930 . S
N78 N79 1.234 . S
N78 C82 1.453 . S
N79 N78 1.234 . S
C80 H75 0.929 . S
C80 C81 1.373 . S
C80 C82 1.368 . S
C81 C80 1.373 . S
C81 C85 1.397 . S
C82 N78 1.453 . S
C82 C80 1.368 . S
C82 C83 1.373 . S
C83 H77 0.930 . S
C83 C82 1.373 . S
C83 C84 1.371 . S
C84 C83 1.371 . S
C84 C85 1.383 . S
C85 H76 0.931 . S
C85 C81 1.397 . S
C85 C84 1.383 . S
H86 C94 0.950 . S
H87 C99 0.950 . S
H88 C96 0.950 . S
H89 C98 0.950 . S
H90 C100 0.950 . S
H91 C102 0.950 . S
H92 C104 0.950 . S
H93 C105 0.950 . S
C94 H86 0.950 . S
C94 C95 1.386 . S
C94 C96 1.391 . S
C95 C94 1.386 . S
C95 C99 1.393 . S
C96 H88 0.950 . S
C96 C94 1.391 . S
C96 C97 1.400 . S
C97 C96 1.400 . S
C97 C98 1.398 . S
C97 C103 1.491 . S
C98 H89 0.950 . S
C98 C97 1.398 . S
C98 C99 1.391 . S
C99 H87 0.950 . S
C99 C95 1.393 . S
C99 C98 1.391 . S
C100 H90 0.950 . S
C100 C101 1.386 . S
C100 C102 1.391 . S
C101 C100 1.386 . S
C101 C105 1.393 . S
C102 H91 0.950 . S
C102 C100 1.391 . S
C102 C103 1.400 . S
C103 C97 1.491 . S
C103 C102 1.400 . S
C103 C104 1.398 . S
C104 H92 0.950 . S
C104 C103 1.398 . S
C104 C105 1.391 . S
C105 H93 0.950 . S
C105 C101 1.393 . S
C105 C104 1.391 . S
H106 C114 0.950 . S
H107 C119 0.950 . S
H108 C116 0.950 . S
H109 C118 0.950 . S
H110 C120 0.950 1_554 S
H111 C122 0.950 . S
H112 C124 0.950 . S
H113 C125 0.950 . S
C114 H106 0.950 . S
C114 C115 1.386 . S
C114 C116 1.391 . S
C115 C114 1.386 . S
C115 C119 1.393 1_556 S
C116 H108 0.950 . S
C116 C114 1.391 . S
C116 C117 1.400 . S
C117 C116 1.400 . S
C117 C118 1.398 1_556 S
C117 C123 1.491 . S
C118 H109 0.950 . S
C118 C117 1.398 1_554 S
C118 C119 1.391 . S
C119 H107 0.950 . S
C119 C115 1.393 1_554 S
C119 C118 1.391 . S
C120 H110 0.950 1_556 S
C120 C121 1.386 . S
C120 C122 1.391 1_556 S
C121 C120 1.386 . S
C121 C125 1.393 . S
C122 H111 0.950 . S
C122 C120 1.391 1_554 S
C122 C123 1.400 1_554 S
C123 C117 1.491 . S
C123 C122 1.400 1_556 S
C123 C124 1.398 . S
C124 H112 0.950 . S
C124 C123 1.398 . S
C124 C125 1.391 . S
C125 H113 0.950 . S
C125 C121 1.393 . S
C125 C124 1.391 . S
H126 C134 0.950 . S
H127 C139 0.950 . S
H128 C136 0.950 . S
H129 C138 0.963 . S
H130 C140 0.950 . S
H131 C142 0.950 1_556 S
H132 C144 0.950 . S
H133 C145 0.950 . S
C134 H126 0.950 . S
C134 C135 1.386 . S
C134 C136 1.391 . S
C135 C134 1.386 . S
C135 C139 1.393 1_554 S
C136 H128 0.950 . S
C136 C134 1.391 . S
C136 C137 1.400 . S
C137 C136 1.400 . S
C137 C138 1.380 1_554 S
C137 C143 1.491 . S
C138 H129 0.963 . S
C138 C137 1.380 1_556 S
C138 C139 1.397 . S
C139 H127 0.950 . S
C139 C135 1.393 1_556 S
C139 C138 1.397 . S
C140 H130 0.950 . S
C140 C141 1.386 . S
C140 C142 1.391 . S
C141 C140 1.386 . S
C141 C145 1.393 . S
C142 H131 0.950 1_554 S
C142 C140 1.391 . S
C142 C143 1.400 . S
C143 C137 1.491 . S
C143 C142 1.400 . S
C143 C144 1.398 . S
C144 H132 0.950 . S
C144 C143 1.398 . S
C144 C145 1.391 . S
C145 H133 0.950 . S
C145 C141 1.393 . S
C145 C144 1.391 . S
H146 C154 0.950 . S
H147 C159 0.950 . S
H148 C156 0.950 . S
H149 C158 0.950 . S
H150 C160 0.950 . S
H151 C162 0.950 1_554 S
H152 C164 0.950 . S
H153 C165 0.950 . S
C154 H146 0.950 . S
C154 C155 1.386 . S
C154 C156 1.391 . S
C155 C154 1.386 . S
C155 C159 1.393 1_556 S
C156 H148 0.950 . S
C156 C154 1.391 . S
C156 C157 1.400 . S
C157 C156 1.400 . S
C157 C158 1.398 1_556 S
C157 C163 1.491 . S
C158 H149 0.950 . S
C158 C157 1.398 1_554 S
C158 C159 1.391 . S
C159 H147 0.950 . S
C159 C155 1.393 1_554 S
C159 C158 1.391 . S
C160 H150 0.950 . S
C160 C161 1.386 . S
C160 C162 1.391 . S
C161 C160 1.386 . S
C161 C165 1.393 . S
C162 H151 0.950 1_556 S
C162 C160 1.391 . S
C162 C163 1.400 . S
C163 C157 1.491 . S
C163 C162 1.400 . S
C163 C164 1.398 . S
C164 H152 0.950 . S
C164 C163 1.398 . S
C164 C165 1.391 . S
C165 H153 0.950 . S
C165 C161 1.393 . S
C165 C164 1.391 . S
H166 C174 0.950 . S
H167 C179 0.950 . S
H168 C176 0.950 . S
H169 C178 0.950 . S
H170 C180 0.950 . S
H171 C182 0.950 . S
H172 C184 0.950 . S
H173 C185 0.950 . S
C174 H166 0.950 . S
C174 C175 1.386 . S
C174 C176 1.391 . S
C175 C174 1.386 . S
C175 C179 1.393 . S
C176 H168 0.950 . S
C176 C174 1.391 . S
C176 C177 1.400 . S
C177 C176 1.400 . S
C177 C178 1.398 . S
C177 C183 1.491 . S
C178 H169 0.950 . S
C178 C177 1.398 . S
C178 C179 1.391 . S
C179 H167 0.950 . S
C179 C175 1.393 . S
C179 C178 1.391 . S
C180 H170 0.950 . S
C180 C181 1.386 . S
C180 C182 1.391 . S
C181 C180 1.386 . S
C181 C185 1.393 . S
C182 H171 0.950 . S
C182 C180 1.391 . S
C182 C183 1.400 . S
C183 C177 1.491 . S
C183 C182 1.400 . S
C183 C184 1.398 . S
C184 H172 0.950 . S
C184 C183 1.398 . S
C184 C185 1.391 . S
C185 H173 0.950 . S
C185 C181 1.393 . S
C185 C184 1.391 . S
H186 C194 0.950 . S
H187 C199 0.950 . S
H188 C196 0.950 . S
H189 C198 0.950 . S
H190 C200 0.950 . S
H191 C202 0.950 . S
H192 C204 0.950 . S
H193 C205 0.950 . S
C194 H186 0.950 . S
C194 C195 1.386 . S
C194 C196 1.391 . S
C195 C194 1.386 . S
C195 C199 1.393 . S
C196 H188 0.950 . S
C196 C194 1.391 . S
C196 C197 1.400 . S
C197 C196 1.400 . S
C197 C198 1.398 . S
C197 C203 1.491 . S
C198 H189 0.950 . S
C198 C197 1.398 . S
C198 C199 1.391 . S
C199 H187 0.950 . S
C199 C195 1.393 . S
C199 C198 1.391 . S
C200 H190 0.950 . S
C200 C201 1.386 . S
C200 C202 1.391 . S
C201 C200 1.386 . S
C201 C205 1.393 . S
C202 H191 0.950 . S
C202 C200 1.391 . S
C202 C203 1.400 . S
C203 C197 1.491 . S
C203 C202 1.400 . S
C203 C204 1.398 . S
C204 H192 0.950 . S
C204 C203 1.398 . S
C204 C205 1.391 . S
C205 H193 0.950 . S
C205 C201 1.393 . S
C205 C204 1.391 . S
H206 C214 0.950 . S
H207 C219 0.950 . S
H208 C216 0.950 . S
H209 C218 0.950 . S
H210 C220 0.950 . S
H211 C222 0.950 . S
H212 C224 0.950 . S
H213 C225 0.950 . S
C214 H206 0.950 . S
C214 C215 1.386 . S
C214 C216 1.391 . S
C215 C214 1.386 . S
C215 C219 1.393 . S
C216 H208 0.950 . S
C216 C214 1.391 . S
C216 C217 1.400 . S
C217 C216 1.400 . S
C217 C218 1.398 . S
C217 C223 1.491 . S
C218 H209 0.950 . S
C218 C217 1.398 . S
C218 C219 1.391 . S
C219 H207 0.950 . S
C219 C215 1.393 . S
C219 C218 1.391 . S
C220 H210 0.950 . S
C220 C221 1.386 . S
C220 C222 1.391 . S
C221 C220 1.386 . S
C221 C225 1.393 . S
C222 H211 0.950 . S
C222 C220 1.391 . S
C222 C223 1.400 . S
C223 C217 1.491 . S
C223 C222 1.400 . S
C223 C224 1.398 . S
C224 H212 0.950 . S
C224 C223 1.398 . S
C224 C225 1.391 . S
C225 H213 0.950 . S
C225 C221 1.393 . S
C225 C224 1.391 . S
H226 C234 0.950 . S
H227 C239 0.950 . S
H228 C236 0.950 . S
H229 C238 0.950 . S
H230 C240 0.950 . S
H231 C242 0.950 . S
H232 C244 0.950 . S
H233 C245 0.950 . S
C234 H226 0.950 . S
C234 C235 1.386 . S
C234 C236 1.391 . S
C235 C234 1.386 . S
C235 C239 1.393 . S
C236 H228 0.950 . S
C236 C234 1.391 . S
C236 C237 1.400 . S
C237 C236 1.400 . S
C237 C238 1.398 . S
C237 C243 1.491 . S
C238 H229 0.950 . S
C238 C237 1.398 . S
C238 C239 1.391 . S
C239 H227 0.950 . S
C239 C235 1.393 . S
C239 C238 1.391 . S
C240 H230 0.950 . S
C240 C241 1.386 . S
C240 C242 1.391 . S
C241 C240 1.386 . S
C241 C245 1.393 . S
C242 H231 0.950 . S
C242 C240 1.391 . S
C242 C243 1.400 . S
C243 C237 1.491 . S
C243 C242 1.400 . S
C243 C244 1.398 . S
C244 H232 0.950 . S
C244 C243 1.398 . S
C244 C245 1.391 . S
C245 H233 0.950 . S
C245 C241 1.393 . S
C245 C244 1.391 . S
H246 C254 0.950 . S
H247 C259 0.950 . S
H248 C256 0.950 . S
H249 C258 0.950 . S
H250 C260 0.950 . S
H251 C262 0.950 . S
H252 C264 0.950 . S
H253 C265 0.950 . S
C254 H246 0.950 . S
C254 C255 1.386 1_545 S
C254 C256 1.391 . S
C255 C254 1.386 1_565 S
C255 C259 1.393 . S
C256 H248 0.950 . S
C256 C254 1.391 . S
C256 C257 1.400 . S
C257 C256 1.400 . S
C257 C258 1.398 1_545 S
C257 C263 1.491 . S
C258 H249 0.950 . S
C258 C257 1.398 1_565 S
C258 C259 1.391 . S
C259 H247 0.950 . S
C259 C255 1.393 . S
C259 C258 1.391 . S
C260 H250 0.950 . S
C260 C261 1.386 1_565 S
C260 C262 1.391 . S
C261 C260 1.386 1_545 S
C261 C265 1.393 . S
C262 H251 0.950 . S
C262 C260 1.391 . S
C262 C263 1.400 1_565 S
C263 C257 1.491 . S
C263 C262 1.400 1_545 S
C263 C264 1.398 . S
C264 H252 0.950 . S
C264 C263 1.398 . S
C264 C265 1.391 . S
C265 H253 0.950 . S
C265 C261 1.393 . S
C265 C264 1.391 . S
H266 C274 0.950 . S
H267 C279 0.950 . S
H268 C276 0.950 . S
H269 C278 0.950 . S
H270 C280 0.950 . S
H271 C282 0.950 . S
H272 C284 0.950 . S
H273 C285 0.950 . S
C274 H266 0.950 . S
C274 C275 1.386 . S
C274 C276 1.391 . S
C275 C274 1.386 . S
C275 C279 1.393 1_465 S
C276 H268 0.950 . S
C276 C274 1.391 . S
C276 C277 1.400 1_565 S
C277 C276 1.400 1_545 S
C277 C278 1.398 1_455 S
C277 C283 1.491 . S
C278 H269 0.950 . S
C278 C277 1.398 1_655 S
C278 C279 1.391 . S
C279 H267 0.950 . S
C279 C275 1.393 1_645 S
C279 C278 1.391 . S
C280 H270 0.950 . S
C280 C281 1.386 1_655 S
C280 C282 1.391 . S
C281 C280 1.386 1_455 S
C281 C285 1.393 1_545 S
C282 H271 0.950 . S
C282 C280 1.391 . S
C282 C283 1.400 1_655 S
C283 C277 1.491 . S
C283 C282 1.400 1_455 S
C283 C284 1.398 1_545 S
C284 H272 0.950 . S
C284 C283 1.398 1_565 S
C284 C285 1.391 . S
C285 H273 0.950 . S
C285 C281 1.393 1_565 S
C285 C284 1.391 . S
H286 C294 0.950 . S
H287 C299 0.950 . S
H288 C296 0.950 . S
H289 C298 0.950 . S
H290 C300 0.950 . S
H291 C302 0.950 . S
H292 C304 0.950 . S
H293 C305 0.950 . S
C294 H286 0.950 . S
C294 C295 1.386 . S
C294 C296 1.391 . S
C295 C294 1.386 . S
C295 C299 1.393 . S
C296 H288 0.950 . S
C296 C294 1.391 . S
C296 C297 1.400 . S
C297 C296 1.400 . S
C297 C298 1.398 . S
C297 C303 1.491 . S
C298 H289 0.950 . S
C298 C297 1.398 . S
C298 C299 1.391 . S
C299 H287 0.950 . S
C299 C295 1.393 . S
C299 C298 1.391 . S
C300 H290 0.950 . S
C300 C301 1.386 . S
C300 C302 1.391 . S
C301 C300 1.386 . S
C301 C305 1.393 . S
C302 H291 0.950 . S
C302 C300 1.391 . S
C302 C303 1.400 . S
C303 C297 1.491 . S
C303 C302 1.400 . S
C303 C304 1.398 . S
C304 H292 0.950 . S
C304 C303 1.398 . S
C304 C305 1.391 . S
C305 H293 0.950 . S
C305 C301 1.393 . S
C305 C304 1.391 . S
H306 C314 0.950 . S
H307 C319 0.950 . S
H308 C316 0.950 . S
H309 C318 0.950 . S
H310 C320 0.950 . S
H311 C322 0.950 . S
H312 C324 0.950 . S
H313 C325 0.950 . S
C314 H306 0.950 . S
C314 C315 1.386 . S
C314 C316 1.391 . S
C315 C314 1.386 . S
C315 C319 1.393 . S
C316 H308 0.950 . S
C316 C314 1.391 . S
C316 C317 1.400 . S
C317 C316 1.400 . S
C317 C318 1.398 . S
C317 C323 1.491 . S
C318 H309 0.950 . S
C318 C317 1.398 . S
C318 C319 1.391 . S
C319 H307 0.950 . S
C319 C315 1.393 . S
C319 C318 1.391 . S
C320 H310 0.950 . S
C320 C321 1.386 . S
C320 C322 1.391 . S
C321 C320 1.386 . S
C321 C325 1.393 . S
C322 H311 0.950 . S
C322 C320 1.391 . S
C322 C323 1.400 . S
C323 C317 1.491 . S
C323 C322 1.400 . S
C323 C324 1.398 . S
C324 H312 0.950 . S
C324 C323 1.398 . S
C324 C325 1.391 . S
C325 H313 0.950 . S
C325 C321 1.393 . S
C325 C324 1.391 . S
C101 C81 1.318 . S
C95 C3 1.226 . S
C115 C4 1.431 1_556 S
C121 N68 1.519 . S
C135 C19 1.453 . S
C141 N79 1.535 . S
C155 C7 1.207 . S
C161 C70 1.331 . S
C175 C37 1.208 . S
C181 C59 1.332 . S
C195 C28 1.457 . S
C201 N46 1.523 1_655 S
C221 N57 1.534 . S
C215 C41 1.452 . S
C241 C48 1.330 . S
C235 C25 1.234 . S
C255 C20 1.373 . S
C261 C51 1.483 . S
C275 C16 1.381 1_455 S
C281 C62 1.530 1_455 S
C301 C73 1.477 . S
C295 C40 1.353 . S
C315 C24 1.378 . S
C321 C84 1.525 . S
