# Generated by pormake.
# Topology llk, (3,12)-cn, num edge types: 1
# Building blocks:
#     Node 0, Type 0, BuildingBlock: KAKCAD_clean_linker_0, # of connection points: 3
#     Node 1, Type 0, BuildingBlock: KAKCAD_clean_linker_0, # of connection points: 3
#     Node 2, Type 0, BuildingBlock: KAKCAD_clean_linker_0, # of connection points: 3
#     Node 3, Type 0, BuildingBlock: KAKCAD_clean_linker_0, # of connection points: 3
#     Node 4, Type 0, BuildingBlock: KAKCAD_clean_linker_0, # of connection points: 3
#     Node 5, Type 0, BuildingBlock: KAKCAD_clean_linker_0, # of connection points: 3
#     Node 6, Type 0, BuildingBlock: KAKCAD_clean_linker_0, # of connection points: 3
#     Node 7, Type 0, BuildingBlock: KAKCAD_clean_linker_0, # of connection points: 3
#     Node 8, Type 0, BuildingBlock: KAKCAD_clean_linker_0, # of connection points: 3
#     Node 9, Type 0, BuildingBlock: KAKCAD_clean_linker_0, # of connection points: 3
#     Node 10, Type 0, BuildingBlock: KAKCAD_clean_linker_0, # of connection points: 3
#     Node 11, Type 0, BuildingBlock: KAKCAD_clean_linker_0, # of connection points: 3
#     Node 12, Type 0, BuildingBlock: KAKCAD_clean_linker_0, # of connection points: 3
#     Node 13, Type 0, BuildingBlock: KAKCAD_clean_linker_0, # of connection points: 3
#     Node 14, Type 0, BuildingBlock: KAKCAD_clean_linker_0, # of connection points: 3
#     Node 15, Type 0, BuildingBlock: KAKCAD_clean_linker_0, # of connection points: 3
#     Node 16, Type 0, BuildingBlock: KAKCAD_clean_linker_0, # of connection points: 3
#     Node 17, Type 0, BuildingBlock: KAKCAD_clean_linker_0, # of connection points: 3
#     Node 18, Type 0, BuildingBlock: KAKCAD_clean_linker_0, # of connection points: 3
#     Node 19, Type 0, BuildingBlock: KAKCAD_clean_linker_0, # of connection points: 3
#     Node 20, Type 0, BuildingBlock: KAKCAD_clean_linker_0, # of connection points: 3
#     Node 21, Type 0, BuildingBlock: KAKCAD_clean_linker_0, # of connection points: 3
#     Node 22, Type 0, BuildingBlock: KAKCAD_clean_linker_0, # of connection points: 3
#     Node 23, Type 0, BuildingBlock: KAKCAD_clean_linker_0, # of connection points: 3
#     Node 24, Type 1, BuildingBlock: QEWDON_clean_sbu_0, # of connection points: 12
#     Node 25, Type 1, BuildingBlock: QEWDON_clean_sbu_0, # of connection points: 12
#     Node 26, Type 1, BuildingBlock: QEWDON_clean_sbu_0, # of connection points: 12
#     Node 27, Type 1, BuildingBlock: QEWDON_clean_sbu_0, # of connection points: 12
#     Node 28, Type 1, BuildingBlock: QEWDON_clean_sbu_0, # of connection points: 12
#     Node 29, Type 1, BuildingBlock: QEWDON_clean_sbu_0, # of connection points: 12
#     Edge 30, Type (0, 1), BuildingBlock: AJUNOK_clean_linker_0, # of connection points: 2
#     Edge 31, Type (0, 1), BuildingBlock: AJUNOK_clean_linker_0, # of connection points: 2
#     Edge 32, Type (0, 1), BuildingBlock: AJUNOK_clean_linker_0, # of connection points: 2
#     Edge 33, Type (0, 1), BuildingBlock: AJUNOK_clean_linker_0, # of connection points: 2
#     Edge 34, Type (0, 1), BuildingBlock: AJUNOK_clean_linker_0, # of connection points: 2
#     Edge 35, Type (0, 1), BuildingBlock: AJUNOK_clean_linker_0, # of connection points: 2
#     Edge 36, Type (0, 1), BuildingBlock: AJUNOK_clean_linker_0, # of connection points: 2
#     Edge 37, Type (0, 1), BuildingBlock: AJUNOK_clean_linker_0, # of connection points: 2
#     Edge 38, Type (0, 1), BuildingBlock: AJUNOK_clean_linker_0, # of connection points: 2
#     Edge 39, Type (0, 1), BuildingBlock: AJUNOK_clean_linker_0, # of connection points: 2
#     Edge 40, Type (0, 1), BuildingBlock: AJUNOK_clean_linker_0, # of connection points: 2
#     Edge 41, Type (0, 1), BuildingBlock: AJUNOK_clean_linker_0, # of connection points: 2
#     Edge 42, Type (0, 1), BuildingBlock: AJUNOK_clean_linker_0, # of connection points: 2
#     Edge 43, Type (0, 1), BuildingBlock: AJUNOK_clean_linker_0, # of connection points: 2
#     Edge 44, Type (0, 1), BuildingBlock: AJUNOK_clean_linker_0, # of connection points: 2
#     Edge 45, Type (0, 1), BuildingBlock: AJUNOK_clean_linker_0, # of connection points: 2
#     Edge 46, Type (0, 1), BuildingBlock: AJUNOK_clean_linker_0, # of connection points: 2
#     Edge 47, Type (0, 1), BuildingBlock: AJUNOK_clean_linker_0, # of connection points: 2
#     Edge 48, Type (0, 1), BuildingBlock: AJUNOK_clean_linker_0, # of connection points: 2
#     Edge 49, Type (0, 1), BuildingBlock: AJUNOK_clean_linker_0, # of connection points: 2
#     Edge 50, Type (0, 1), BuildingBlock: AJUNOK_clean_linker_0, # of connection points: 2
#     Edge 51, Type (0, 1), BuildingBlock: AJUNOK_clean_linker_0, # of connection points: 2
#     Edge 52, Type (0, 1), BuildingBlock: AJUNOK_clean_linker_0, # of connection points: 2
#     Edge 53, Type (0, 1), BuildingBlock: AJUNOK_clean_linker_0, # of connection points: 2
#     Edge 54, Type (0, 1), BuildingBlock: AJUNOK_clean_linker_0, # of connection points: 2
#     Edge 55, Type (0, 1), BuildingBlock: AJUNOK_clean_linker_0, # of connection points: 2
#     Edge 56, Type (0, 1), BuildingBlock: AJUNOK_clean_linker_0, # of connection points: 2
#     Edge 57, Type (0, 1), BuildingBlock: AJUNOK_clean_linker_0, # of connection points: 2
#     Edge 58, Type (0, 1), BuildingBlock: AJUNOK_clean_linker_0, # of connection points: 2
#     Edge 59, Type (0, 1), BuildingBlock: AJUNOK_clean_linker_0, # of connection points: 2
#     Edge 60, Type (0, 1), BuildingBlock: AJUNOK_clean_linker_0, # of connection points: 2
#     Edge 61, Type (0, 1), BuildingBlock: AJUNOK_clean_linker_0, # of connection points: 2
#     Edge 62, Type (0, 1), BuildingBlock: AJUNOK_clean_linker_0, # of connection points: 2
#     Edge 63, Type (0, 1), BuildingBlock: AJUNOK_clean_linker_0, # of connection points: 2
#     Edge 64, Type (0, 1), BuildingBlock: AJUNOK_clean_linker_0, # of connection points: 2
#     Edge 65, Type (0, 1), BuildingBlock: AJUNOK_clean_linker_0, # of connection points: 2
#     Edge 66, Type (0, 1), BuildingBlock: AJUNOK_clean_linker_0, # of connection points: 2
#     Edge 67, Type (0, 1), BuildingBlock: AJUNOK_clean_linker_0, # of connection points: 2
#     Edge 68, Type (0, 1), BuildingBlock: AJUNOK_clean_linker_0, # of connection points: 2
#     Edge 69, Type (0, 1), BuildingBlock: AJUNOK_clean_linker_0, # of connection points: 2
#     Edge 70, Type (0, 1), BuildingBlock: AJUNOK_clean_linker_0, # of connection points: 2
#     Edge 71, Type (0, 1), BuildingBlock: AJUNOK_clean_linker_0, # of connection points: 2
#     Edge 72, Type (0, 1), BuildingBlock: AJUNOK_clean_linker_0, # of connection points: 2
#     Edge 73, Type (0, 1), BuildingBlock: AJUNOK_clean_linker_0, # of connection points: 2
#     Edge 74, Type (0, 1), BuildingBlock: AJUNOK_clean_linker_0, # of connection points: 2
#     Edge 75, Type (0, 1), BuildingBlock: AJUNOK_clean_linker_0, # of connection points: 2
#     Edge 76, Type (0, 1), BuildingBlock: AJUNOK_clean_linker_0, # of connection points: 2
#     Edge 77, Type (0, 1), BuildingBlock: AJUNOK_clean_linker_0, # of connection points: 2
#     Edge 78, Type (0, 1), BuildingBlock: AJUNOK_clean_linker_0, # of connection points: 2
#     Edge 79, Type (0, 1), BuildingBlock: AJUNOK_clean_linker_0, # of connection points: 2
#     Edge 80, Type (0, 1), BuildingBlock: AJUNOK_clean_linker_0, # of connection points: 2
#     Edge 81, Type (0, 1), BuildingBlock: AJUNOK_clean_linker_0, # of connection points: 2
#     Edge 82, Type (0, 1), BuildingBlock: AJUNOK_clean_linker_0, # of connection points: 2
#     Edge 83, Type (0, 1), BuildingBlock: AJUNOK_clean_linker_0, # of connection points: 2
#     Edge 84, Type (0, 1), BuildingBlock: AJUNOK_clean_linker_0, # of connection points: 2
#     Edge 85, Type (0, 1), BuildingBlock: AJUNOK_clean_linker_0, # of connection points: 2
#     Edge 86, Type (0, 1), BuildingBlock: AJUNOK_clean_linker_0, # of connection points: 2
#     Edge 87, Type (0, 1), BuildingBlock: AJUNOK_clean_linker_0, # of connection points: 2
#     Edge 88, Type (0, 1), BuildingBlock: AJUNOK_clean_linker_0, # of connection points: 2
#     Edge 89, Type (0, 1), BuildingBlock: AJUNOK_clean_linker_0, # of connection points: 2
#     Edge 90, Type (0, 1), BuildingBlock: AJUNOK_clean_linker_0, # of connection points: 2
#     Edge 91, Type (0, 1), BuildingBlock: AJUNOK_clean_linker_0, # of connection points: 2
#     Edge 92, Type (0, 1), BuildingBlock: AJUNOK_clean_linker_0, # of connection points: 2
#     Edge 93, Type (0, 1), BuildingBlock: AJUNOK_clean_linker_0, # of connection points: 2
#     Edge 94, Type (0, 1), BuildingBlock: AJUNOK_clean_linker_0, # of connection points: 2
#     Edge 95, Type (0, 1), BuildingBlock: AJUNOK_clean_linker_0, # of connection points: 2
#     Edge 96, Type (0, 1), BuildingBlock: AJUNOK_clean_linker_0, # of connection points: 2
#     Edge 97, Type (0, 1), BuildingBlock: AJUNOK_clean_linker_0, # of connection points: 2
#     Edge 98, Type (0, 1), BuildingBlock: AJUNOK_clean_linker_0, # of connection points: 2
#     Edge 99, Type (0, 1), BuildingBlock: AJUNOK_clean_linker_0, # of connection points: 2
#     Edge 100, Type (0, 1), BuildingBlock: AJUNOK_clean_linker_0, # of connection points: 2
#     Edge 101, Type (0, 1), BuildingBlock: AJUNOK_clean_linker_0, # of connection points: 2
# Relax obj value: 0.130
# Max RMSD: 0.163
# Mean RMSD: 0.147
data_MOF--net-llk--node1-QEWDON_clean_sbu_0--node2-KAKCAD_clean_linker_0--edge1-AJUNOK_clean_linker_0
_symmetry_space_group_name_H-M    P1
_symmetry_Int_Tables_number       1
_symmetry_cell_setting            triclinic
loop_
_symmetry_equiv_pos_as_xyz
'x, y, z'
_cell_length_a     44.637817
_cell_length_b     45.915052
_cell_length_c     45.383882
_cell_angle_alpha  90.101545
_cell_angle_beta   90.00999
_cell_angle_gamma 89.654244
loop_
_atom_site_label
_atom_site_type_symbol
_atom_site_fract_x
_atom_site_fract_y
_atom_site_fract_z
_atom_type_partial_charge
C0 C 0.0236 0.37175 0.3258 0.0
C1 C 0.03484 0.36733 0.35429 0.0
C2 C 0.0277 0.35078 0.30401 0.0
C3 C 0.0443 0.32521 0.30967 0.0
C4 C 0.05751 0.32186 0.33772 0.0
C5 C 0.05262 0.34264 0.35989 0.0
C6 C 0.04568 0.30157 0.287 0.0
C7 C 0.04326 0.30829 0.25697 0.0
C8 C 0.03846 0.28664 0.23571 0.0
C9 C 0.03875 0.25705 0.24433 0.0
C10 C 0.0435 0.24975 0.27429 0.0
C11 C 0.04627 0.27216 0.29526 0.0
C12 C 0.04374 0.21931 0.28561 0.0
C13 C 0.01729 0.20286 0.28603 0.0
C14 C 0.06828 0.20977 0.30263 0.0
C15 C 0.06569 0.18577 0.32143 0.0
C16 C 0.03849 0.17085 0.32371 0.0
C17 C 0.0309 0.29693 0.2055 0.0
C18 C 0.0053 0.31456 0.20195 0.0
C19 C 0.05244 0.2965 0.18295 0.0
C20 C 0.04943 0.31505 0.15844 0.0
C21 C 0.02496 0.33456 0.15613 0.0
C22 C 0.00243 0.33321 0.17777 0.0
C23 C 0.01463 0.1789 0.30511 0.0
H24 H 0.01059 0.39106 0.32058 0.0
H25 H 0.01659 0.35433 0.28313 0.0
H26 H 0.0711 0.30294 0.34286 0.0
H27 H 0.06186 0.33889 0.38164 0.0
H28 H 0.04398 0.3308 0.24989 0.0
H29 H 0.04745 0.26639 0.31837 0.0
H30 H 0.03504 0.24008 0.22814 0.0
H31 H -0.0021 0.20999 0.27358 0.0
H32 H 0.08876 0.22231 0.30308 0.0
H33 H 0.08426 0.18018 0.33577 0.0
H34 H 0.9887 0.31585 0.21935 0.0
H35 H 0.07267 0.2836 0.18539 0.0
H36 H 0.99334 0.16781 0.30669 0.0
H37 H 0.98368 0.34827 0.17744 0.0
H38 H 0.06714 0.31532 0.14214 0.0
C39 C 0.69318 0.04747 0.33352 0.0
C40 C 0.66595 0.03531 0.3245 0.0
C41 C 0.7168 0.04948 0.31392 0.0
C42 C 0.71413 0.03805 0.28535 0.0
C43 C 0.68763 0.02358 0.27724 0.0
C44 C 0.66351 0.02253 0.29663 0.0
C45 C 0.73829 0.04278 0.26374 0.0
C46 C 0.76813 0.0438 0.27263 0.0
C47 C 0.79083 0.05143 0.25279 0.0
C48 C 0.78425 0.05394 0.22258 0.0
C49 C 0.75428 0.05136 0.2134 0.0
C50 C 0.73152 0.04769 0.23424 0.0
C51 C 0.74513 0.04758 0.18264 0.0
C52 C 0.73681 0.07173 0.16555 0.0
C53 C 0.73366 0.02015 0.17565 0.0
C54 C 0.71117 0.01747 0.15485 0.0
C55 C 0.70174 0.04151 0.13794 0.0
C56 C 0.82025 0.05793 0.26575 0.0
C57 C 0.82058 0.07763 0.28936 0.0
C58 C 0.84481 0.03929 0.26142 0.0
C59 C 0.8676 0.03797 0.28268 0.0
C60 C 0.86506 0.05413 0.30909 0.0
C61 C 0.84213 0.07519 0.31119 0.0
C62 C 0.71574 0.06858 0.14282 0.0
H63 H 0.6959 0.05637 0.35548 0.0
H64 H 0.73663 0.06099 0.321 0.0
H65 H 0.68521 0.01362 0.25574 0.0
H66 H 0.64278 0.01252 0.28959 0.0
H67 H 0.7739 0.03953 0.29543 0.0
H68 H 0.70839 0.04741 0.2269 0.0
H69 H 0.8019 0.05775 0.2067 0.0
H70 H 0.74471 0.09328 0.17128 0.0
H71 H 0.73881 1.00149 0.18942 0.0
H72 H 0.69974 0.99681 0.15406 0.0
H73 H 0.80181 0.0923 0.29302 0.0
H74 H 0.84511 0.0241 0.24314 0.0
H75 H 0.7092 0.08763 0.13031 0.0
H76 H 0.83892 0.08819 0.33086 0.0
H77 H 0.88604 0.02299 0.27914 0.0
C78 C 0.00954 0.70635 0.35644 0.0
C79 C 0.03268 0.68548 0.35688 0.0
C80 C 0.00752 0.72636 0.33355 0.0
C81 C 0.02834 0.72563 0.31042 0.0
C82 C 0.05141 0.70473 0.31064 0.0
C83 C 0.05362 0.68482 0.33378 0.0
C84 C 0.02568 0.74678 0.28618 0.0
C85 C 0.02172 0.77623 0.29258 0.0
C86 C 0.01759 0.79668 0.27009 0.0
C87 C 0.01734 0.7874 0.24042 0.0
C88 C 0.02153 0.75757 0.23382 0.0
C89 C 0.02586 0.73758 0.25686 0.0
C90 C 0.02027 0.74566 0.20351 0.0
C91 C 0.99288 0.74472 0.18823 0.0
C92 C 0.04445 0.72873 0.1933 0.0
C93 C 0.04067 0.70942 0.16984 0.0
C94 C 0.01266 0.70664 0.15619 0.0
C95 C 0.01385 0.8273 0.27942 0.0
C96 C 0.98997 0.83417 0.29841 0.0
C97 C 0.03804 0.84662 0.27725 0.0
C98 C 0.03933 0.87128 0.29553 0.0
C99 C 0.01663 0.87651 0.31634 0.0
C100 C 0.99144 0.85845 0.31683 0.0
C101 C 0.98905 0.72515 0.16473 0.0
H102 H 0.99237 0.70665 0.37331 0.0
H103 H 0.98923 0.74198 0.33356 0.0
H104 H 0.06775 0.70391 0.29301 0.0
H105 H 0.0715 0.66876 0.33352 0.0
H106 H 0.02206 0.78339 0.31539 0.0
H107 H 0.0283 0.71454 0.25197 0.0
H108 H 0.01386 0.80303 0.22288 0.0
H109 H 0.97381 0.75722 0.19604 0.0
H110 H 0.06562 0.72877 0.20499 0.0
H111 H 0.05909 0.69519 0.16365 0.0
H112 H 0.97137 0.8193 0.30084 0.0
H113 H 0.057 0.84137 0.26329 0.0
H114 H 0.96724 0.7232 0.15446 0.0
H115 H 0.97354 0.86236 0.3325 0.0
H116 H 0.05888 0.88513 0.29477 0.0
C117 C 0.34801 0.03008 0.31911 0.0
C118 C 0.34856 0.00688 0.33924 0.0
C119 C 0.32817 0.02979 0.29548 0.0
C120 C 0.3084 0.00646 0.29195 0.0
C121 C 0.3093 0.98304 0.31182 0.0
C122 C 0.32926 0.98327 0.33536 0.0
C123 C 0.28601 0.00686 0.26823 0.0
C124 C 0.29437 0.01226 0.23916 0.0
C125 C 0.27321 0.01037 0.21636 0.0
C126 C 0.24324 0.00376 0.22287 0.0
C127 C 0.23479 0.99885 0.25221 0.0
C128 C 0.25624 1.00066 0.27466 0.0
C129 C 0.20381 0.99233 0.26081 0.0
C130 C 0.18114 0.01305 0.25618 0.0
C131 C 0.19881 0.96915 0.28026 0.0
C132 C 0.17346 0.969 0.29802 0.0
C133 C 0.15224 0.99161 0.29598 0.0
C134 C 0.28436 0.0113 0.18598 0.0
C135 C 0.30186 0.03497 0.17707 0.0
C136 C 0.28449 0.98557 0.16921 0.0
C137 C 0.3045 0.98239 0.14576 0.0
C138 C 0.32393 0.00515 0.13873 0.0
C139 C 0.3215 0.03193 0.15344 0.0
C140 C 0.15533 0.01258 0.2736 0.0
H141 H 0.36244 0.04875 0.32208 0.0
H142 H 0.32762 0.04814 0.28051 0.0
H143 H 0.29444 0.96465 0.30919 0.0
H144 H 0.32957 0.96511 0.35058 0.0
H145 H 0.31774 0.01624 0.23407 0.0
H146 H 0.24967 0.99734 0.29743 0.0
H147 H 0.22692 1.00184 0.20531 0.0
H148 H 0.18467 0.03118 0.24136 0.0
H149 H 0.21613 0.95295 0.28411 0.0
H150 H 0.17227 0.95287 0.31534 0.0
H151 H 0.30229 0.05484 0.19 0.0
H152 H 0.27143 0.96697 0.17608 0.0
H153 H 0.13913 0.0301 0.27139 0.0
H154 H 0.33658 0.04962 0.14827 0.0
H155 H 0.3063 0.96162 0.13454 0.0
C156 C 0.96355 0.68288 0.68431 0.0
C157 C 0.98324 0.68604 0.66054 0.0
C158 C 0.96157 0.70469 0.70577 0.0
C159 C 0.97936 0.72981 0.70365 0.0
C160 C -0.00305 0.73392 0.67832 0.0
C161 C -0.00121 0.71223 0.65691 0.0
C162 C 0.9826 0.7499 0.72904 0.0
C163 C 0.98574 0.73884 0.75763 0.0
C164 C 0.99267 0.7572 0.78145 0.0
C165 C -0.00331 0.78718 0.77652 0.0
C166 C 0.99297 0.79843 0.74795 0.0
C167 C 0.98578 0.77982 0.72455 0.0
C168 C -0.00266 0.82933 0.7409 0.0
C169 C 0.97228 0.84788 0.73949 0.0
C170 C 0.02414 0.83762 0.72725 0.0
C171 C 0.02525 0.86312 0.71062 0.0
C172 C -0.00053 0.88043 0.70718 0.0
C173 C -0.00392 0.74389 0.81094 0.0
C174 C 0.97312 0.72607 0.82158 0.0
C175 C 0.02347 0.7449 0.82621 0.0
C176 C 0.02837 0.72681 0.85071 0.0
C177 C 0.00578 0.70783 0.86031 0.0
C178 C 0.97788 0.70832 0.84598 0.0
C179 C 0.97329 0.87328 0.72255 0.0
H180 H 0.95152 0.6627 0.68748 0.0
H181 H 0.9474 0.7012 0.72479 0.0
H182 H 0.01113 0.75284 0.67605 0.0
H183 H 0.01426 0.71489 0.63872 0.0
H184 H 0.98414 0.71556 0.76129 0.0
H185 H 0.98321 0.78875 0.70256 0.0
H186 H 0.00243 0.80153 0.79461 0.0
H187 H 0.95123 0.84143 0.74931 0.0
H188 H 0.04338 0.82311 0.72732 0.0
H189 H 0.04551 0.86805 0.6985 0.0
H190 H 0.95187 0.72483 0.8101 0.0
H191 H 0.04157 0.75835 0.8182 0.0
H192 H 0.95317 0.88635 0.71998 0.0
H193 H 0.96011 0.69381 0.85272 0.0
H194 H 0.04997 0.72703 0.86158 0.0
C195 C 0.36322 0.97276 0.70703 0.0
C196 C 0.36427 0.99304 0.68417 0.0
C197 C 0.34085 0.97487 0.72824 0.0
C198 C 0.31968 0.99766 0.72707 0.0
C199 C 0.3204 0.0175 0.7036 0.0
C200 C 0.34254 0.01514 0.68222 0.0
C201 C 0.29778 1.00135 0.75106 0.0
C202 C 0.30662 0.99737 0.78015 0.0
C203 C 0.28589 0.99858 0.80346 0.0
C204 C 0.25604 0.00726 0.79725 0.0
C205 C 0.24765 0.01349 0.76793 0.0
C206 C 0.26834 0.00924 0.74508 0.0
C207 C 0.2177 0.02405 0.75906 0.0
C208 C 0.19341 0.00488 0.75909 0.0
C209 C 0.21653 0.04871 0.74084 0.0
C210 C 0.19506 0.05075 0.7187 0.0
C211 C 0.17329 0.02895 0.71536 0.0
C212 C 0.29729 0.99206 0.83367 0.0
C213 C 0.3217 0.97278 0.83697 0.0
C214 C 0.28757 0.00767 0.85853 0.0
C215 C 0.30453 0.00706 0.88456 0.0
C216 C 0.33266 0.99271 0.88541 0.0
C217 C 0.33977 0.97394 0.86186 0.0
C218 C 0.1708 0.00784 0.73784 0.0
H219 H 0.37999 0.95568 0.70873 0.0
H220 H 0.34043 0.959 0.74585 0.0
H221 H 0.30463 0.03549 0.70237 0.0
H222 H 0.34351 0.03132 0.66489 0.0
H223 H 0.33019 0.99364 0.78452 0.0
H224 H 0.26137 0.0122 0.72236 0.0
H225 H 0.2397 0.00936 0.81476 0.0
H226 H 0.19355 0.98593 0.77328 0.0
H227 H 0.23495 0.06399 0.74066 0.0
H228 H 0.19778 0.06777 0.70249 0.0
H229 H 0.32872 0.95865 0.81909 0.0
H230 H 0.26809 0.02178 0.85743 0.0
H231 H 0.15287 0.99211 0.73773 0.0
H232 H 0.36053 0.96171 0.86115 0.0
H233 H 0.29618 0.01925 0.90323 0.0
C234 C -0.00286 0.34477 0.66323 0.0
C235 C 0.01775 0.36752 0.66542 0.0
C236 C -0.00282 0.3226 0.68419 0.0
C237 C 0.01813 0.32272 0.70736 0.0
C238 C 0.03895 0.34545 0.70924 0.0
C239 C 0.0387 0.36771 0.68845 0.0
C240 C 0.0181 0.29923 0.72959 0.0
C241 C 0.01383 0.27041 0.721 0.0
C242 C 0.01171 0.24781 0.74173 0.0
C243 C 0.01582 0.25453 0.77206 0.0
C244 C 0.02126 0.28375 0.78078 0.0
C245 C 0.02184 0.30568 0.75936 0.0
C246 C 0.02535 0.29365 0.81174 0.0
C247 C 0.00034 0.29649 0.83036 0.0
C248 C 0.05153 0.30915 0.81882 0.0
C249 C 0.05168 0.32932 0.84197 0.0
C250 C 0.02581 0.33411 0.85888 0.0
C251 C 0.00601 0.21788 0.72981 0.0
C252 C 0.9863 0.2147 0.70575 0.0
C253 C 0.02386 0.19386 0.73771 0.0
C254 C 0.02453 0.16876 0.7198 0.0
C255 C 0.00844 0.16771 0.69288 0.0
C256 C 0.98798 0.19042 0.68724 0.0
C257 C 0.00064 0.31646 0.85389 0.0
H258 H 0.98085 0.34435 0.64554 0.0
H259 H 0.9806 0.30555 0.68244 0.0
H260 H 0.05565 0.34585 0.72654 0.0
H261 H 0.05514 0.38491 0.69011 0.0
H262 H 0.01246 0.26554 0.69765 0.0
H263 H 0.02463 0.32819 0.76611 0.0
H264 H 0.01469 0.2375 0.7885 0.0
H265 H 0.97967 0.28541 0.82504 0.0
H266 H 0.07095 0.3078 0.80454 0.0
H267 H 0.07143 0.34248 0.84552 0.0
H268 H 0.97137 0.23236 0.69957 0.0
H269 H 0.03882 0.19519 0.75645 0.0
H270 H 0.98041 0.31977 0.86667 0.0
H271 H 0.97469 0.19072 0.66729 0.0
H272 H 0.03886 0.15088 0.72644 0.0
C273 C 0.72336 0.01648 0.68089 0.0
C274 C 0.70064 0.03658 0.67487 0.0
C275 C 0.74171 0.02061 0.70519 0.0
C276 C 0.73741 0.04484 0.72374 0.0
C277 C 0.71408 0.06463 0.71796 0.0
C278 C 0.69579 0.06054 0.69346 0.0
C279 C 0.75707 0.04865 0.74939 0.0
C280 C 0.78763 0.04339 0.74646 0.0
C281 C 0.80615 0.0409 0.7712 0.0
C282 C 0.79404 0.04572 0.7995 0.0
C283 C 0.76332 0.05282 0.80236 0.0
C284 C 0.74513 0.05417 0.77719 0.0
C285 C 0.74782 0.05466 0.83099 0.0
C286 C 0.74401 0.02915 0.84742 0.0
C287 C 0.72946 0.07897 0.83695 0.0
C288 C 0.70599 0.07696 0.85719 0.0
C289 C 0.7006 0.05067 0.87189 0.0
C290 C 0.83753 0.03221 0.76552 0.0
C291 C 0.84258 0.0075 0.7478 0.0
C292 C 0.86047 0.05267 0.7687 0.0
C293 C 0.88631 0.05048 0.75127 0.0
C294 C 0.88895 0.02833 0.72985 0.0
C295 C 0.86781 0.00578 0.7298 0.0
C296 C 0.72048 0.0271 0.86759 0.0
H297 H 0.72691 0.99773 0.66675 0.0
H298 H 0.75909 0.00465 0.70965 0.0
H299 H 0.71025 0.0833 0.73212 0.0
H300 H 0.67784 0.07592 0.68905 0.0
H301 H 0.79695 0.04004 0.72461 0.0
H302 H 0.72115 0.05749 0.77951 0.0
H303 H 0.80801 0.04332 0.81887 0.0
H304 H 0.75732 0.00991 0.8426 0.0
H305 H 0.73172 0.0987 0.8241 0.0
H306 H 0.69115 0.09547 0.86026 0.0
H307 H 0.8251 0.99145 0.74494 0.0
H308 H 0.8571 0.07188 0.78222 0.0
H309 H 0.71658 0.00637 0.87823 0.0
H310 H 0.86906 0.98829 0.71379 0.0
H311 H 0.90294 0.06747 0.75281 0.0
C312 C 0.3424 0.33599 0.99514 0.0
C313 C 0.33995 0.36174 0.01162 0.0
C314 C 0.31897 0.31608 0.99495 0.0
C315 C 0.29283 0.32156 0.0114 0.0
C316 C 0.28994 0.34799 0.02678 0.0
C317 C 0.31322 0.368 0.02668 0.0
C318 C 0.26949 0.29903 0.01412 0.0
C319 C 0.27773 0.26995 0.01797 0.0
C320 C 0.25618 0.24823 0.02183 0.0
C321 C 0.22545 0.25586 0.02197 0.0
C322 C 0.21701 0.28537 0.01831 0.0
C323 C 0.23913 0.30654 0.01425 0.0
C324 C 0.18567 0.29603 0.01873 0.0
C325 C 0.17297 0.30558 0.99212 0.0
C326 C 0.17349 0.30627 0.04536 0.0
C327 C 0.15117 0.32792 0.04529 0.0
C328 C 0.14111 0.34015 0.01856 0.0
C329 C 0.26784 0.21816 0.02495 0.0
C330 C 0.28788 0.21249 0.04814 0.0
C331 C 0.26798 0.19957 0.00034 0.0
C332 C 0.29007 0.17784 0.99751 0.0
C333 C 0.31246 0.17465 0.01915 0.0
C334 C 0.31002 0.19109 0.04522 0.0
C335 C 0.15092 0.32738 0.99202 0.0
H336 H 0.36277 0.33087 0.98317 0.0
H337 H 0.32157 0.29613 0.98241 0.0
H338 H 0.27017 0.35278 0.03977 0.0
H339 H 0.31059 0.38812 0.03894 0.0
H340 H 0.30131 0.26404 0.01834 0.0
H341 H 0.23253 0.32911 0.01115 0.0
H342 H 0.20857 0.23929 0.025 0.0
H343 H 0.18243 0.29848 0.9713 0.0
H344 H 0.18328 0.29966 0.06617 0.0
H345 H 0.14341 0.33655 0.06617 0.0
H346 H 0.28862 0.22686 0.06709 0.0
H347 H 0.25298 0.20371 0.98204 0.0
H348 H 0.14368 0.3361 0.97101 0.0
H349 H 0.32678 0.18923 0.06239 0.0
H350 H 0.29073 0.16481 0.97761 0.0
C351 C 0.3282 0.70825 0.02466 0.0
C352 C 0.32469 0.68348 0.00694 0.0
C353 C 0.30758 0.73095 0.02319 0.0
C354 C 0.28311 0.72942 0.00381 0.0
C355 C 0.27958 0.70461 0.98596 0.0
C356 C 0.30044 0.68183 0.98737 0.0
C357 C 0.26078 0.75326 0.00373 0.0
C358 C 0.27022 0.78211 0.00543 0.0
C359 C 0.25006 0.80476 0.01203 0.0
C360 C 0.21919 0.79843 0.01473 0.0
C361 C 0.20935 0.76937 0.01126 0.0
C362 C 0.23033 0.74713 0.0059 0.0
C363 C 0.17803 0.75989 0.0155 0.0
C364 C 0.16832 0.75242 0.04395 0.0
C365 C 0.16273 0.74846 0.99111 0.0
C366 C 0.14023 0.72775 0.99498 0.0
C367 C 0.13261 0.71788 0.02336 0.0
C368 C 0.26333 0.83363 0.01886 0.0
C369 C 0.28753 0.8345 0.03864 0.0
C370 C 0.25668 0.8586 0.00217 0.0
C371 C 0.27521 0.88328 0.00401 0.0
C372 C 0.30064 0.88326 0.02249 0.0
C373 C 0.30618 0.85861 0.04001 0.0
C374 C 0.14575 0.7316 0.04786 0.0
H375 H 0.34706 0.71011 0.03958 0.0
H376 H 0.31056 0.74953 0.03762 0.0
H377 H 0.26085 0.70295 0.97089 0.0
H378 H 0.29755 0.66287 0.97344 0.0
H379 H 0.2939 0.78681 0.00314 0.0
H380 H 0.22296 0.72466 0.00511 0.0
H381 H 0.20334 0.81553 0.0203 0.0
H382 H 0.1802 0.76047 0.06309 0.0
H383 H 0.17032 0.75324 0.96897 0.0
H384 H 0.1307 0.71762 0.97558 0.0
H385 H 0.2934 0.81549 0.0516 0.0
H386 H 0.2384 0.85838 0.98649 0.0
H387 H 0.13994 0.72491 0.06999 0.0
H388 H 0.32605 0.85706 0.05362 0.0
H389 H 0.27033 0.90191 0.99017 0.0
C390 C 0.72955 0.35737 0.97826 0.0
C391 C 0.7093 0.35785 0.00189 0.0
C392 C 0.75291 0.33705 0.97776 0.0
C393 C 0.75614 0.31695 0.00083 0.0
C394 C 0.73635 0.31797 0.0248 0.0
C395 C 0.71325 0.33842 0.02543 0.0
C396 C 0.77987 0.2946 -0.00013 0.0
C397 C 0.80945 0.30234 0.99431 0.0
C398 C 0.83241 0.28131 0.99447 0.0
C399 C 0.82537 0.25183 -0.00019 0.0
C400 C 0.79532 0.24397 0.00499 0.0
C401 C 0.77295 0.26552 0.00511 0.0
C402 C 0.78525 0.21365 0.00904 0.0
C403 C 0.78213 0.19566 0.9842 0.0
C404 C 0.76937 0.20683 0.03483 0.0
C405 C 0.74793 0.18483 0.03461 0.0
C406 C 0.74228 0.16905 0.00869 0.0
C407 C 0.86335 0.29212 0.99123 0.0
C408 C 0.87016 0.30955 0.96672 0.0
C409 C 0.88214 0.29307 0.01602 0.0
C410 C 0.90524 0.31357 0.01755 0.0
C411 C 0.90967 0.33331 0.99433 0.0
C412 C 0.89299 0.33012 0.96834 0.0
C413 C 0.76076 0.1734 0.98404 0.0
H414 H 0.72685 0.37218 0.95988 0.0
H415 H 0.76795 0.33653 0.95903 0.0
H416 H 0.73881 0.30298 0.04306 0.0
H417 H 0.69833 0.33893 0.04426 0.0
H418 H 0.81482 0.32512 0.99098 0.0
H419 H 0.74976 0.25948 0.00874 0.0
H420 H 0.8429 0.23541 -1e-05 0.0
H421 H 0.79368 0.20087 0.96391 0.0
H422 H 0.77109 0.2207 0.05411 0.0
H423 H 0.73408 0.18174 0.05394 0.0
H424 H 0.85573 0.30942 0.94751 0.0
H425 H 0.87696 0.28027 0.03537 0.0
H426 H 0.75671 0.16159 0.96376 0.0
H427 H 0.89605 0.3451 0.95018 0.0
H428 H 0.91767 0.31582 0.03793 0.0
C429 C 0.71351 0.696 0.02967 0.0
C430 C 0.69357 0.69252 0.00602 0.0
C431 C 0.73685 0.71576 0.02768 0.0
C432 C 0.74005 0.73271 0.00232 0.0
C433 C 0.7196 0.73002 0.97902 0.0
C434 C 0.69651 0.70988 0.9808 0.0
C435 C 0.76424 0.75391 0.00056 0.0
C436 C 0.79395 0.74517 0.00372 0.0
C437 C 0.81725 0.76544 0.00172 0.0
C438 C 0.81034 0.7952 0.99708 0.0
C439 C 0.78002 0.80385 0.99442 0.0
C440 C 0.7574 0.783 0.99593 0.0
C441 C 0.76951 0.83413 0.99135 0.0
C442 C 0.76292 0.84957 0.01731 0.0
C443 C 0.75387 0.84117 0.9654 0.0
C444 C 0.72929 0.86009 0.96636 0.0
C445 C 0.72059 0.87292 0.99307 0.0
C446 C 0.84807 0.75349 0.00266 0.0
C447 C 0.85636 0.73631 0.02699 0.0
C448 C 0.86438 0.75075 0.97631 0.0
C449 C 0.88629 0.72888 0.97334 0.0
C450 C 0.8921 0.70972 0.99673 0.0
C451 C 0.87808 0.71451 0.02399 0.0
C452 C 0.73858 0.86892 0.01817 0.0
H453 H 0.71103 0.68345 0.04971 0.0
H454 H 0.75215 0.71812 0.04606 0.0
H455 H 0.72179 0.74319 0.95936 0.0
H456 H 0.68129 0.70754 0.96236 0.0
H457 H 0.799 0.72222 0.00684 0.0
H458 H 0.73405 0.78962 0.99415 0.0
H459 H 0.82804 0.81117 0.99563 0.0
H460 H 0.77413 0.844 0.03774 0.0
H461 H 0.75811 0.82906 0.94529 0.0
H462 H 0.71595 0.86328 0.94666 0.0
H463 H 0.84375 0.73767 0.04736 0.0
H464 H 0.85801 0.76336 0.95713 0.0
H465 H 0.73233 0.87882 0.03899 0.0
H466 H 0.88225 0.69991 0.04229 0.0
H467 H 0.89695 0.72549 0.95216 0.0
C468 C 0.52137 0.87057 0.8119 0.0
C469 C 0.53447 0.8667 0.83973 0.0
C470 C 0.52418 0.84918 0.7903 0.0
C471 C 0.54109 0.82375 0.79558 0.0
C472 C 0.55619 0.82101 0.82274 0.0
C473 C 0.55274 0.84222 0.84469 0.0
C474 C 0.54104 0.79959 0.77359 0.0
C475 C 0.53846 0.80558 0.74346 0.0
C476 C 0.53403 0.78335 0.72276 0.0
C477 C 0.53383 0.75397 0.73222 0.0
C478 C 0.53803 0.74747 0.76247 0.0
C479 C 0.54105 0.77046 0.78274 0.0
C480 C 0.53825 0.71739 0.7748 0.0
C481 C 0.5119 0.70075 0.77552 0.0
C482 C 0.56253 0.70873 0.79263 0.0
C483 C 0.55967 0.68577 0.81264 0.0
C484 C 0.53255 0.67076 0.81517 0.0
C485 C 0.52874 0.79288 0.6919 0.0
C486 C 0.50196 0.80793 0.68547 0.0
C487 C 0.5532 0.79605 0.67271 0.0
C488 C 0.55174 0.8158 0.64911 0.0
C489 C 0.52572 0.83252 0.64424 0.0
C490 C 0.50045 0.82752 0.66185 0.0
C491 C 0.50905 0.67762 0.79565 0.0
H492 H 0.50775 0.88962 0.80725 0.0
H493 H 0.51184 0.85216 0.77 0.0
H494 H 0.57004 0.80214 0.82738 0.0
H495 H 0.56326 0.83885 0.86593 0.0
H496 H 0.53928 0.82793 0.73584 0.0
H497 H 0.54224 0.76544 0.80604 0.0
H498 H 0.53052 0.73658 0.71642 0.0
H499 H 0.49268 0.7072 0.76245 0.0
H500 H 0.58295 0.72137 0.79282 0.0
H501 H 0.57799 0.68103 0.82759 0.0
H502 H 0.4831 0.80666 0.70044 0.0
H503 H 0.57435 0.78543 0.67763 0.0
H504 H 0.48783 0.66644 0.79737 0.0
H505 H 0.48035 0.84052 0.65885 0.0
H506 H 0.57161 0.81955 0.63599 0.0
C507 C 0.2153 0.55063 0.8324 0.0
C508 C 0.18919 0.53668 0.82263 0.0
C509 C 0.24113 0.55054 0.81516 0.0
C510 C 0.24185 0.53579 0.78796 0.0
C511 C 0.21566 0.52169 0.77829 0.0
C512 C 0.18952 0.52258 0.79516 0.0
C513 C 0.26953 0.53581 0.76954 0.0
C514 C 0.298 0.53718 0.78247 0.0
C515 C 0.32413 0.53964 0.76529 0.0
C516 C 0.32182 0.53831 0.73428 0.0
C517 C 0.29331 0.53591 0.72113 0.0
C518 C 0.26759 0.53541 0.73881 0.0
C519 C 0.28814 0.53475 0.68905 0.0
C520 C 0.27926 0.56058 0.67491 0.0
C521 C 0.27967 0.5079 0.67678 0.0
C522 C 0.25935 0.50697 0.6533 0.0
C523 C 0.24737 0.53289 0.64188 0.0
C524 C 0.35289 0.54469 0.78107 0.0
C525 C 0.35334 0.56535 0.80391 0.0
C526 C 0.37792 0.52637 0.77728 0.0
C527 C 0.40175 0.52716 0.79761 0.0
C528 C 0.40083 0.54616 0.82213 0.0
C529 C 0.37655 0.56572 0.82438 0.0
C530 C 0.25882 0.55966 0.65155 0.0
H531 H 0.21588 0.56157 0.85356 0.0
H532 H 0.26038 0.56237 0.82318 0.0
H533 H 0.21521 0.50974 0.75772 0.0
H534 H 0.16958 0.51229 0.78658 0.0
H535 H 0.30005 0.53652 0.80624 0.0
H536 H 0.24583 0.53523 0.72819 0.0
H537 H 0.34167 0.53979 0.72065 0.0
H538 H 0.2849 0.58152 0.68439 0.0
H539 H 0.28558 0.48774 0.68778 0.0
H540 H 0.25053 0.48612 0.64635 0.0
H541 H 0.33446 0.57994 0.80727 0.0
H542 H 0.37817 0.51021 0.75987 0.0
H543 H 0.24967 0.5799 0.64311 0.0
H544 H 0.37404 0.58001 0.8432 0.0
H545 H 0.42016 0.51192 0.79493 0.0
C546 C 0.46429 0.1988 0.8413 0.0
C547 C 0.49091 0.18241 0.84399 0.0
C548 C 0.46175 0.22049 0.81979 0.0
C549 C 0.48541 0.22548 0.80014 0.0
C550 C 0.5117 0.20888 0.80238 0.0
C551 C 0.51456 0.18781 0.82425 0.0
C552 C 0.48326 0.24833 0.77752 0.0
C553 C 0.48055 0.27749 0.78579 0.0
C554 C 0.4817 0.29984 0.7647 0.0
C555 C 0.48489 0.29242 0.73449 0.0
C556 C 0.48669 0.26271 0.72605 0.0
C557 C 0.48625 0.2411 0.7478 0.0
C558 C 0.48961 0.25242 0.69512 0.0
C559 C 0.46371 0.2461 0.67871 0.0
C560 C 0.51703 0.24026 0.68602 0.0
C561 C 0.51824 0.22065 0.66238 0.0
C562 C 0.49198 0.21239 0.6474 0.0
C563 C 0.48146 0.33027 0.77614 0.0
C564 C 0.45837 0.33886 0.79547 0.0
C565 C 0.50756 0.34725 0.77492 0.0
C566 C 0.51162 0.3705 0.79475 0.0
C567 C 0.48967 0.37701 0.81603 0.0
C568 C 0.46249 0.36185 0.81529 0.0
C569 C 0.46487 0.22629 0.65503 0.0
H570 H 0.44536 0.19478 0.85558 0.0
H571 H 0.44123 0.23311 0.81823 0.0
H572 H 0.53032 0.21267 0.78757 0.0
H573 H 0.53559 0.17606 0.82595 0.0
H574 H 0.47901 0.28287 0.80904 0.0
H575 H 0.48833 0.21834 0.74155 0.0
H576 H 0.48599 0.30936 0.71796 0.0
H577 H 0.44217 0.25465 0.68568 0.0
H578 H 0.53716 0.24404 0.69879 0.0
H579 H 0.53948 0.2103 0.65723 0.0
H580 H 0.43816 0.32601 0.79711 0.0
H581 H 0.52592 0.34085 0.76067 0.0
H582 H 0.44435 0.22081 0.64364 0.0
H583 H 0.44529 0.36641 0.83153 0.0
H584 H 0.53286 0.38179 0.79505 0.0
C585 C 0.8333 0.52432 0.8308 0.0
C586 C 0.82967 0.5049 0.85427 0.0
C587 C 0.81247 0.52494 0.808 0.0
C588 C 0.78801 0.50584 0.80831 0.0
C589 C 0.78494 0.48597 0.83167 0.0
C590 C 0.80557 0.48567 0.85465 0.0
C591 C 0.7652 0.50717 0.78483 0.0
C592 C 0.77343 0.511 0.7555 0.0
C593 C 0.75177 0.51271 0.73321 0.0
C594 C 0.72105 0.50985 0.74042 0.0
C595 C 0.7127 0.50548 0.77019 0.0
C596 C 0.73498 0.50487 0.79196 0.0
C597 C 0.68137 0.50229 0.78078 0.0
C598 C 0.66102 0.5256 0.77879 0.0
C599 C 0.67523 0.4797 0.80075 0.0
C600 C 0.65236 0.48263 0.82152 0.0
C601 C 0.63413 0.50774 0.82217 0.0
C602 C 0.76346 0.51678 0.703 0.0
C603 C 0.77756 0.54331 0.69646 0.0
C604 C 0.77095 0.49198 0.6863 0.0
C605 C 0.79437 0.493 0.66573 0.0
C606 C 0.8104 0.51888 0.66153 0.0
C607 C 0.80089 0.54434 0.67591 0.0
C608 C 0.63721 0.52799 0.79895 0.0
H609 H 0.85205 0.5392 0.83033 0.0
H610 H 0.81521 0.54069 0.79048 0.0
H611 H 0.76663 0.4706 0.83215 0.0
H612 H 0.80293 0.47029 0.87254 0.0
H613 H 0.79699 0.51236 0.74979 0.0
H614 H 0.7286 0.50304 0.81495 0.0
H615 H 0.70415 0.51082 0.72332 0.0
H616 H 0.66504 0.54325 0.76351 0.0
H617 H 0.6905 0.46135 0.80268 0.0
H618 H 0.6509 0.46628 0.8386 0.0
H619 H 0.77283 0.56251 0.70962 0.0
H620 H 0.76101 0.47114 0.69146 0.0
H621 H 0.62247 0.54672 0.79741 0.0
H622 H 0.81308 0.56447 0.67303 0.0
H623 H 0.80142 0.47313 0.65477 0.0
C624 C 0.47255 0.18026 0.19861 0.0
C625 C 0.49442 0.18214 0.17643 0.0
C626 C 0.47062 0.20183 0.22045 0.0
C627 C 0.49039 0.22555 0.22014 0.0
C628 C 0.51255 0.22693 0.19828 0.0
C629 C 0.51455 0.2055 0.17673 0.0
C630 C 0.48889 0.24887 0.24262 0.0
C631 C 0.48861 0.2421 0.2726 0.0
C632 C 0.49277 0.26388 0.29399 0.0
C633 C 0.497 0.29311 0.28498 0.0
C634 C 0.49627 0.30014 0.25464 0.0
C635 C 0.49165 0.27791 0.23397 0.0
C636 C 0.50366 0.32934 0.24259 0.0
C637 C 0.4828 0.3524 0.24301 0.0
C638 C 0.52874 0.33152 0.22412 0.0
C639 C 0.53184 0.35494 0.20486 0.0
C640 C 0.51022 0.37741 0.2037 0.0
C641 C 0.49537 0.25407 0.32505 0.0
C642 C 0.47113 0.23948 0.33798 0.0
C643 C 0.52369 0.25199 0.33846 0.0
C644 C 0.52814 0.23368 0.36289 0.0
C645 C 0.50425 0.21742 0.37443 0.0
C646 C 0.47547 0.22154 0.36252 0.0
C647 C 0.48621 0.37639 0.22395 0.0
H648 H 0.45673 0.16247 0.19877 0.0
H649 H 0.45344 0.20026 0.23721 0.0
H650 H 0.52863 0.24452 0.19798 0.0
H651 H 0.53206 0.20713 0.16029 0.0
H652 H 0.48709 0.21949 0.27932 0.0
H653 H 0.49164 0.28315 0.21065 0.0
H654 H 0.50149 0.30988 0.30118 0.0
H655 H 0.46301 0.35106 0.25674 0.0
H656 H 0.54488 0.31383 0.22294 0.0
H657 H 0.55047 0.3544 0.18959 0.0
H658 H 0.44922 0.24021 0.3277 0.0
H659 H 0.54285 0.26254 0.32857 0.0
H660 H 0.46956 0.3936 0.22453 0.0
H661 H 0.45668 0.20915 0.37078 0.0
H662 H 0.55051 0.23103 0.37177 0.0
C663 C 0.84135 0.49705 0.20791 0.0
C664 C 0.84306 0.51955 0.1871 0.0
C665 C 0.81667 0.49522 0.22662 0.0
C666 C 0.79317 0.51563 0.22454 0.0
C667 C 0.79468 0.53787 0.20353 0.0
C668 C 0.8195 0.53991 0.18507 0.0
C669 C 0.76743 0.51396 0.24477 0.0
C670 C 0.77241 0.51096 0.27488 0.0
C671 C 0.74852 0.50791 0.29461 0.0
C672 C 0.71883 0.508 0.28384 0.0
C673 C 0.71364 0.51136 0.25329 0.0
C674 C 0.73808 0.51463 0.23411 0.0
C675 C 0.68351 0.50945 0.23973 0.0
C676 C 0.66931 0.4823 0.23738 0.0
C677 C 0.67304 0.53274 0.22243 0.0
C678 C 0.65034 0.52843 0.20167 0.0
C679 C 0.63795 0.50069 0.19753 0.0
C680 C 0.75656 0.5044 0.32603 0.0
C681 C 0.77636 0.48171 0.33346 0.0
C682 C 0.75294 0.52779 0.34569 0.0
C683 C 0.771 0.52974 0.37095 0.0
C684 C 0.79315 0.50848 0.37668 0.0
C685 C 0.79475 0.48392 0.35815 0.0
C686 C 0.64683 0.47786 0.21619 0.0
H687 H 0.8588 0.48063 0.20939 0.0
H688 H 0.81573 0.47765 0.24249 0.0
H689 H 0.77692 0.55396 0.20174 0.0
H690 H 0.82036 0.55753 0.16925 0.0
H691 H 0.79525 0.51111 0.28312 0.0
H692 H 0.73427 0.51648 0.21057 0.0
H693 H 0.70021 0.50517 0.29885 0.0
H694 H 0.67737 0.46391 0.2501 0.0
H695 H 0.68402 0.55371 0.22342 0.0
H696 H 0.64398 0.5463 0.18736 0.0
H697 H 0.78003 0.46377 0.31829 0.0
H698 H 0.73822 0.54582 0.34016 0.0
H699 H 0.63757 0.4563 0.21332 0.0
H700 H 0.81202 0.46753 0.36104 0.0
H701 H 0.76901 0.54881 0.3849 0.0
C702 C 0.52556 0.84701 0.1805 0.0
C703 C 0.54775 0.86837 0.1774 0.0
C704 C 0.52816 0.82558 0.20195 0.0
C705 C 0.55279 0.82525 0.22107 0.0
C706 C 0.57498 0.84661 0.21833 0.0
C707 C 0.57263 0.86791 0.19642 0.0
C708 C 0.55438 0.80289 0.24424 0.0
C709 C 0.55082 0.77363 0.23684 0.0
C710 C 0.54823 0.75225 0.25862 0.0
C711 C 0.54904 0.76057 0.28873 0.0
C712 C 0.55329 0.79029 0.29637 0.0
C713 C 0.55623 0.811 0.2738 0.0
C714 C 0.55252 0.80176 0.32714 0.0
C715 C 0.52578 0.80121 0.34351 0.0
C716 C 0.57572 0.8202 0.33666 0.0
C717 C 0.57134 0.83951 0.36022 0.0
C718 C 0.54379 0.84065 0.37501 0.0
C719 C 0.54385 0.72199 0.24784 0.0
C720 C 0.51654 0.71504 0.23414 0.0
C721 C 0.56904 0.70437 0.24198 0.0
C722 C 0.5675 0.68174 0.22112 0.0
C723 C 0.54067 0.67625 0.20589 0.0
C724 C 0.51492 0.69231 0.21356 0.0
C725 C 0.52144 0.82056 0.36726 0.0
H726 H 0.50586 0.84708 0.16656 0.0
H727 H 0.51054 0.80957 0.20401 0.0
H728 H 0.5942 0.8466 0.23292 0.0
H729 H 0.59031 0.88381 0.19423 0.0
H730 H 0.54952 0.76747 0.21377 0.0
H731 H 0.5582 0.83392 0.2793 0.0
H732 H 0.54629 0.74435 0.3058 0.0
H733 H 0.50732 0.7877 0.33638 0.0
H734 H 0.59642 0.82138 0.32427 0.0
H735 H 0.58886 0.85482 0.36573 0.0
H736 H 0.49706 0.72887 0.2374 0.0
H737 H 0.59055 0.70974 0.25156 0.0
H738 H 0.49993 0.82115 0.3783 0.0
H739 H 0.49402 0.68874 0.202 0.0
H740 H 0.58762 0.66955 0.21576 0.0
C741 C 0.23268 0.51735 0.16779 0.0
C742 C 0.20621 0.53367 0.16845 0.0
C743 C 0.25326 0.51999 0.19056 0.0
C744 C 0.24774 0.53933 0.21399 0.0
C745 C 0.22079 0.55531 0.21478 0.0
C746 C 0.20001 0.55235 0.19212 0.0
C747 C 0.27055 0.54328 0.23703 0.0
C748 C 0.30068 0.54509 0.22937 0.0
C749 C 0.323 0.54765 0.2509 0.0
C750 C 0.31471 0.55028 0.28085 0.0
C751 C 0.28405 0.5493 0.28851 0.0
C752 C 0.26241 0.54514 0.26655 0.0
C753 C 0.27234 0.55361 0.31859 0.0
C754 C 0.26913 0.52948 0.33723 0.0
C755 C 0.25395 0.57807 0.32306 0.0
C756 C 0.22988 0.57684 0.34252 0.0
C757 C 0.22459 0.5517 0.35939 0.0
C758 C 0.35433 0.54634 0.24028 0.0
C759 C 0.36251 0.52272 0.22225 0.0
C760 C 0.37292 0.57092 0.24119 0.0
C761 C 0.3981 0.57262 0.22258 0.0
C762 C 0.40481 0.54975 0.2029 0.0
C763 C 0.3872 0.52449 0.20369 0.0
C764 C 0.2457 0.52872 0.35783 0.0
H765 H 0.23728 0.50248 0.14976 0.0
H766 H 0.27353 0.50692 0.18981 0.0
H767 H 0.21609 0.57049 0.23251 0.0
H768 H 0.17937 0.56488 0.19279 0.0
H769 H 0.30697 0.54435 0.20628 0.0
H770 H 0.23895 0.54349 0.27261 0.0
H771 H 0.33164 0.55287 0.29773 0.0
H772 H 0.28269 0.51012 0.33382 0.0
H773 H 0.25551 0.5966 0.30838 0.0
H774 H 0.21393 0.59463 0.34186 0.0
H775 H 0.34824 0.50375 0.22069 0.0
H776 H 0.36679 0.58955 0.2546 0.0
H777 H 0.24283 0.50922 0.37089 0.0
H778 H 0.39134 0.50665 0.18853 0.0
H779 H 0.41151 0.59218 0.22272 0.0
C780 C 0.86725 0.84218 0.475 0.0
C781 C 0.86515 0.86375 0.49686 0.0
C782 C 0.8441 0.822 0.47144 0.0
C783 C 0.8185 0.82335 0.48956 0.0
C784 C 0.81638 0.84548 0.51089 0.0
C785 C 0.83932 0.86552 0.51434 0.0
C786 C 0.79462 0.80105 0.48774 0.0
C787 C 0.80196 0.77156 0.48503 0.0
C788 C 0.78005 0.74979 0.48746 0.0
C789 C 0.74989 0.75819 0.49338 0.0
C790 C 0.74221 0.78819 0.49568 0.0
C791 C 0.76468 0.80906 0.49195 0.0
C792 C 0.71188 0.79971 0.50373 0.0
C793 C 0.68826 0.7998 0.48326 0.0
C794 C 0.70944 0.81795 0.52859 0.0
C795 C 0.68555 0.83763 0.53162 0.0
C796 C 0.66278 0.83935 0.51019 0.0
C797 C 0.79104 0.71891 0.48642 0.0
C798 C 0.81172 0.71066 0.46439 0.0
C799 C 0.78735 0.7003 0.51066 0.0
C800 C 0.80631 0.67595 0.51435 0.0
C801 C 0.82974 0.67005 0.4942 0.0
C802 C 0.8309 0.6867 0.46829 0.0
C803 C 0.6639 0.81929 0.48654 0.0
H804 H 0.88701 0.84055 0.46123 0.0
H805 H 0.8463 0.80528 0.4547 0.0
H806 H 0.79732 0.84689 0.5256 0.0
H807 H 0.83707 0.88225 0.53108 0.0
H808 H 0.82532 0.76535 0.48273 0.0
H809 H 0.75884 0.832 0.49337 0.0
H810 H 0.73289 0.74176 0.49656 0.0
H811 H 0.68971 0.78647 0.4636 0.0
H812 H 0.72759 0.81887 0.54443 0.0
H813 H 0.68636 0.85301 0.54968 0.0
H814 H 0.81495 0.72439 0.44528 0.0
H815 H 0.77164 0.70589 0.52798 0.0
H816 H 0.64673 0.81966 0.46969 0.0
H817 H 0.84827 0.68276 0.45208 0.0
H818 H 0.80383 0.66284 0.534 0.0
C819 C 0.86839 0.21873 0.4999 0.0
C820 C 0.86649 0.19207 0.48501 0.0
C821 C 0.84488 0.23863 0.49857 0.0
C822 C 0.81905 0.23245 0.48197 0.0
C823 C 0.81793 0.20645 0.46561 0.0
C824 C 0.84152 0.18634 0.46716 0.0
C825 C 0.79274 0.25217 0.48409 0.0
C826 C 0.79707 0.28214 0.4863 0.0
C827 C 0.77375 0.30077 0.49471 0.0
C828 C 0.74478 0.2895 0.49938 0.0
C829 C 0.73956 0.25942 0.49504 0.0
C830 C 0.76383 0.24104 0.48777 0.0
C831 C 0.70978 0.24564 0.49953 0.0
C832 C 0.69464 0.24778 0.52667 0.0
C833 C 0.69919 0.22584 0.47832 0.0
C834 C 0.67564 0.20703 0.48482 0.0
C835 C 0.662 0.20761 0.51264 0.0
C836 C 0.78239 0.33112 0.50095 0.0
C837 C 0.7965 0.337 0.52797 0.0
C838 C 0.78663 0.35034 0.47729 0.0
C839 C 0.80608 0.37402 0.48006 0.0
C840 C 0.82147 0.37884 0.50658 0.0
C841 C 0.81583 0.36069 0.53078 0.0
C842 C 0.67092 0.22877 0.53322 0.0
H843 H 0.88747 0.22354 0.51382 0.0
H844 H 0.84637 0.25815 0.5119 0.0
H845 H 0.79846 0.20125 0.45242 0.0
H846 H 0.83949 0.1657 0.45576 0.0
H847 H 0.81929 0.29103 0.48299 0.0
H848 H 0.76042 0.21771 0.48664 0.0
H849 H 0.72671 0.30382 0.50625 0.0
H850 H 0.70244 0.26268 0.54349 0.0
H851 H 0.71035 0.22376 0.4572 0.0
H852 H 0.66901 0.191 0.46857 0.0
H853 H 0.79466 0.32178 0.5461 0.0
H854 H 0.77682 0.34565 0.45597 0.0
H855 H 0.66056 0.22964 0.55478 0.0
H856 H 0.82773 0.36382 0.55135 0.0
H857 H 0.81003 0.38786 0.46118 0.0
C858 C 0.18504 0.85918 0.49826 0.0
C859 C 0.16218 0.85707 0.51929 0.0
C860 C 0.20936 0.84003 0.49903 0.0
C861 C 0.21099 0.81836 0.52077 0.0
C862 C 0.18793 0.81631 0.54181 0.0
C863 C 0.16372 0.83566 0.54115 0.0
C864 C 0.23634 0.7975 0.52116 0.0
C865 C 0.26573 0.8069 0.51724 0.0
C866 C 0.28996 0.78717 0.51737 0.0
C867 C 0.28424 0.75713 0.52264 0.0
C868 C 0.2543 0.74758 0.52702 0.0
C869 C 0.23089 0.76802 0.52542 0.0
C870 C 0.24501 0.71687 0.53284 0.0
C871 C 0.24873 0.69509 0.51138 0.0
C872 C 0.22416 0.71202 0.55557 0.0
C873 C 0.20424 0.68867 0.55431 0.0
C874 C 0.20563 0.66823 0.5312 0.0
C875 C 0.32038 0.79983 0.51227 0.0
C876 C 0.32415 0.81944 0.48875 0.0
C877 C 0.34298 0.79828 0.5338 0.0
C878 C 0.36751 0.81753 0.53295 0.0
C879 C 0.3699 0.83882 0.51062 0.0
C880 C 0.34819 0.83883 0.48813 0.0
C881 C 0.22958 0.67079 0.51087 0.0
H882 H 0.18418 0.87587 0.48142 0.0
H883 H 0.22666 0.84191 0.48242 0.0
H884 H 0.18879 0.79995 0.55896 0.0
H885 H 0.14626 0.83397 0.55763 0.0
H886 H 0.26983 0.83 0.51446 0.0
H887 H 0.20787 0.76081 0.52731 0.0
H888 H 0.30259 0.74161 0.52327 0.0
H889 H 0.26448 0.69811 0.49351 0.0
H890 H 0.22066 0.72845 0.57241 0.0
H891 H 0.18611 0.68861 0.57006 0.0
H892 H 0.30705 0.82139 0.4719 0.0
H893 H 0.34063 0.78371 0.55238 0.0
H894 H 0.23222 0.65513 0.49319 0.0
H895 H 0.34843 0.85517 0.47099 0.0
H896 H 0.38389 0.8166 0.55052 0.0
C897 C 0.19643 0.17859 0.55093 0.0
C898 C 0.16877 0.18648 0.53842 0.0
C899 C 0.21923 0.19909 0.55391 0.0
C900 C 0.21525 0.22773 0.54351 0.0
C901 C 0.18671 0.23589 0.53285 0.0
C902 C 0.16359 0.21576 0.53121 0.0
C903 C 0.24109 0.24818 0.54106 0.0
C904 C 0.27037 0.23779 0.53631 0.0
C905 C 0.29389 0.25682 0.52927 0.0
C906 C 0.28766 0.28667 0.52513 0.0
C907 C 0.25845 0.29725 0.53016 0.0
C908 C 0.23611 0.27826 0.53981 0.0
C909 C 0.24845 0.32665 0.52141 0.0
C910 C 0.25306 0.35081 0.53976 0.0
C911 C 0.22747 0.32864 0.49849 0.0
C912 C 0.20952 0.3533 0.49546 0.0
C913 C 0.21253 0.37699 0.51488 0.0
C914 C 0.32406 0.24395 0.5246 0.0
C915 C 0.33644 0.22636 0.54683 0.0
C916 C 0.33757 0.2441 0.49661 0.0
C917 C 0.36144 0.22496 0.49033 0.0
C918 C 0.37224 0.20593 0.51213 0.0
C919 C 0.36034 0.20761 0.54067 0.0
C920 C 0.23546 0.37602 0.53626 0.0
H921 H 0.20108 0.15623 0.55703 0.0
H922 H 0.2403 0.19201 0.56333 0.0
H923 H 0.18224 0.25739 0.52417 0.0
H924 H 0.14208 0.22289 0.52275 0.0
H925 H 0.27498 0.21462 0.53655 0.0
H926 H 0.21408 0.28716 0.54449 0.0
H927 H 0.30504 0.30125 0.51761 0.0
H928 H 0.26886 0.34954 0.55784 0.0
H929 H 0.22319 0.31001 0.48442 0.0
H930 H 0.19205 0.35298 0.4789 0.0
H931 H 0.32628 0.22571 0.56851 0.0
H932 H 0.32822 0.25728 0.47906 0.0
H933 H 0.23913 0.39426 0.55093 0.0
H934 H 0.36825 0.19297 0.55774 0.0
H935 H 0.37033 0.22389 0.46815 0.0
Zn936 Zn 0.97455 0.99453 0.45058 0.0
Zn937 Zn 0.96975 0.06553 0.45891 0.0
O938 O -0.00266 0.03075 0.46144 0.0
H939 H 0.01617 0.03055 0.45117 0.0
C940 C 0.9477 0.95674 0.52324 0.0
O941 O 0.95025 0.97813 0.50424 0.0
Zn942 Zn 0.07886 0.06002 0.55792 0.0
Zn943 Zn 0.05837 0.99326 0.57484 0.0
O944 O 0.04614 0.03081 0.55598 0.0
H945 H 0.02903 0.03289 0.54337 0.0
Zn946 Zn 0.97645 0.9974 0.56617 0.0
O947 O 0.97633 0.03224 0.53937 0.0
Zn948 Zn 0.97656 0.06649 0.56652 0.0
H949 H 0.98119 0.03175 0.51865 0.0
Zn950 Zn 0.05316 0.9898 0.45795 0.0
O951 O 0.05963 0.02679 0.48118 0.0
H952 H 0.04772 0.03122 0.4983 0.0
Zn953 Zn 0.07037 0.05638 0.45099 0.0
C954 C 0.07975 0.9518 0.50224 0.0
O955 O 0.08538 0.97694 0.51486 0.0
O956 O 0.94152 0.00769 0.42288 0.0
O957 O 0.93323 0.05389 0.43539 0.0
O958 O 0.096 1.00078 0.59833 0.0
O959 O 0.11228 0.04443 0.58457 0.0
O960 O 0.96304 0.00756 0.60859 0.0
O961 O 0.95828 0.05568 0.60564 0.0
C962 C 0.01559 0.09506 0.42389 0.0
O963 O 0.0715 0.99223 0.4165 0.0
O964 O 0.08913 0.0374 0.41558 0.0
O965 O 0.03086 0.97606 0.60653 0.0
C966 C 0.92752 0.03161 0.41948 0.0
O967 O -0.00221 0.96106 0.4296 0.0
C968 C 0.03706 0.09524 0.58946 0.0
O969 O 0.9577 0.96002 0.54923 0.0
C970 C 0.11429 0.02171 0.6008 0.0
O971 O 0.06441 0.95149 0.47868 0.0
C972 C 0.94886 0.09947 0.51819 0.0
O973 O 0.9883 0.09542 0.43149 0.0
O974 O 0.03325 0.07799 0.43757 0.0
C975 C 0.95559 0.03195 0.61998 0.0
O976 O 0.06437 0.09401 0.58188 0.0
O977 O 0.01863 0.08058 0.57401 0.0
C978 C 0.09892 0.08854 0.49816 0.0
O979 O 0.9529 0.09728 0.54594 0.0
O980 O 0.96175 0.08103 0.50114 0.0
C981 C 0.08624 0.01228 0.40386 0.0
O982 O 0.0968 0.08555 0.47034 0.0
O983 O 0.08765 0.06914 0.51475 0.0
C984 C 0.01539 0.95305 0.60544 0.0
O985 O 0.01242 0.93932 0.5802 0.0
C986 C 0.00682 0.96752 0.40386 0.0
O987 O 0.00384 0.9946 0.39492 0.0
Zn988 Zn 0.46105 0.06253 0.03877 0.0
Zn989 Zn 0.47151 0.07798 0.97009 0.0
O990 O 0.48165 0.05004 0.00223 0.0
H991 H 0.49324 0.03233 0.00044 0.0
C992 C 0.5307 0.10374 0.08439 0.0
O993 O 0.52942 0.07516 0.08459 0.0
Zn994 Zn 0.56369 0.97206 0.96276 0.0
Zn995 Zn 0.56764 0.97791 0.0334 0.0
O996 O 0.55625 0.99949 0.99636 0.0
H997 H 0.54208 0.01537 0.9956 0.0
Zn998 Zn 0.57273 0.09444 0.03526 0.0
O999 O 0.55115 0.07703 0.00157 0.0
Zn1000 Zn 0.57745 0.07748 0.96646 0.0
H1001 H 0.53422 0.06451 0.00436 0.0
Zn1002 Zn 0.46697 0.96945 0.04509 0.0
O1003 O 0.48982 0.9728 0.00733 0.0
H1004 H 0.51012 0.96564 0.0057 0.0
Zn1005 Zn 0.45943 0.97346 0.97536 0.0
C1006 C 0.51123 0.95394 0.09169 0.0
O1007 O 0.51989 0.98117 0.09001 0.0
O1008 O 0.43286 0.09627 0.03034 0.0
O1009 O 0.44112 0.10943 0.984 0.0
O1010 O 0.60051 0.94823 0.0231 0.0
O1011 O 0.59301 0.93972 0.97532 0.0
O1012 O 0.61379 0.10989 0.02359 0.0
O1013 O 0.61929 0.0947 0.97701 0.0
C1014 C 0.44035 0.02974 0.94515 0.0
O1015 O 0.42293 0.95787 0.03847 0.0
O1016 O 0.41832 0.95936 0.98978 0.0
O1017 O 0.58138 1.0011 0.06983 0.0
C1018 C 0.42631 0.1118 0.00808 0.0
O1019 O 0.43178 0.03299 0.05483 0.0
C1020 C 0.59221 0.02096 0.934 0.0
O1021 O 0.54741 0.11645 0.06583 0.0
C1022 C 0.60718 0.935 -0.00066 0.0
O1023 O 0.48965 0.94512 0.07584 0.0
C1024 C 0.52725 0.10321 0.93548 0.0
O1025 O 0.44641 0.05641 0.94102 0.0
O1026 O 0.4581 0.01456 0.96074 0.0
C1027 C 0.62934 0.10743 0.00018 0.0
O1028 O 0.58728 0.9938 0.93167 0.0
O1029 O 0.57748 0.03562 0.95282 0.0
C1030 C 0.50241 0.94493 0.93595 0.0
O1031 O 0.55579 0.10168 0.93556 0.0
O1032 O 0.51274 0.0896 0.95516 0.0
C1033 C 0.40726 0.95442 0.01529 0.0
O1034 O 0.47491 0.94774 0.94287 0.0
O1035 O 0.52174 0.95888 0.95095 0.0
C1036 C 0.59483 0.02519 0.06684 0.0
O1037 O 0.59277 0.03904 0.04165 0.0
C1038 C 0.43362 0.01618 0.0768 0.0
O1039 O 0.45896 0.01433 0.09141 0.0
Zn1040 Zn 0.98587 0.49217 0.95442 0.0
Zn1041 Zn 0.96627 0.56261 0.95682 0.0
O1042 O 0.0014 0.53384 0.95418 0.0
H1043 H 0.01834 0.53626 0.94122 0.0
C1044 C 0.97149 0.44057 0.02355 0.0
O1045 O 0.00059 0.4423 0.02717 0.0
Zn1046 Zn 0.06615 0.56753 0.05982 0.0
Zn1047 Zn 0.06022 0.49451 0.06017 0.0
O1048 O 0.03634 0.53309 0.06165 0.0
H1049 H 0.01823 0.53315 0.07327 0.0
Zn1050 Zn 0.97155 0.49834 0.05315 0.0
O1051 O 0.97976 0.53582 0.03118 0.0
Zn1052 Zn 0.97052 0.5688 0.05951 0.0
H1053 H 0.99339 0.5368 0.01471 0.0
Zn1054 Zn 0.06438 0.50133 0.95883 0.0
O1055 O 0.0559 0.53784 0.98361 0.0
H1056 H 0.04554 0.53757 0.00226 0.0
Zn1057 Zn 0.06062 0.57252 0.9559 0.0
C1058 C 0.08857 0.45543 -0.00028 0.0
O1059 O 0.09857 0.47843 0.01377 0.0
O1060 O 0.94165 0.49439 0.94368 0.0
O1061 O 0.92994 0.54184 0.94212 0.0
O1062 O 0.10163 0.50415 0.0754 0.0
O1063 O 0.10494 0.55272 0.07538 0.0
O1064 O 0.94891 0.50586 0.09164 0.0
O1065 O 0.94521 0.55437 0.09304 0.0
C1066 C 0.00116 0.60557 0.93153 0.0
O1067 O 0.08728 0.51213 0.92097 0.0
O1068 O 0.08586 0.56068 0.92087 0.0
O1069 O 0.04802 0.45316 0.07782 0.0
C1070 C 0.92323 0.51508 0.93873 0.0
O1071 O 0.00649 0.45944 0.92833 0.0
C1072 C 0.02512 0.60456 0.08607 0.0
O1073 O 0.95511 0.46209 0.03097 0.0
C1074 C 0.11585 0.52753 0.08038 0.0
O1075 O 0.07276 0.45938 0.9767 0.0
C1076 C 0.94904 0.60052 0.01114 0.0
O1077 O 0.97394 0.59803 0.9328 0.0
O1078 O 0.02051 0.58836 0.94262 0.0
C1079 C 0.93955 0.52928 0.10356 0.0
O1080 O 0.05322 0.60124 0.08503 0.0
O1081 O 0.00924 0.5856 0.07319 0.0
C1082 C 0.07921 0.60691 0.00458 0.0
O1083 O 0.94971 0.60106 0.03901 0.0
O1084 O 0.95907 0.57793 0.99795 0.0
C1085 C 0.09416 0.5365 0.90943 0.0
O1086 O 0.07862 0.60603 0.97668 0.0
O1087 O 0.07207 0.58389 0.01868 0.0
C1088 C 0.024 0.44257 0.08843 0.0
O1089 O -0.0003 0.45879 0.08945 0.0
C1090 C 0.01047 0.43368 0.93804 0.0
O1091 O 0.0049 0.42858 0.96589 0.0
Zn1092 Zn 0.47683 0.48666 0.98521 0.0
Zn1093 Zn 0.47763 0.48201 0.05753 0.0
O1094 O 0.49097 0.50761 0.02304 0.0
H1095 H 0.49207 0.52859 0.02358 0.0
C1096 C 0.52001 0.44878 0.91849 0.0
O1097 O 0.52242 0.47709 0.91538 0.0
Zn1098 Zn 0.56611 0.56898 0.05797 0.0
Zn1099 Zn 0.55558 0.56905 0.98669 0.0
O1100 O 0.54798 0.54532 0.02432 0.0
H1101 H 0.54559 0.52448 0.02354 0.0
Zn1102 Zn 0.55014 0.45739 0.97881 0.0
O1103 O 0.53094 0.46133 0.01998 0.0
Zn1104 Zn 0.56474 0.46279 0.05005 0.0
H1105 H 0.51156 0.45294 0.02389 0.0
Zn1106 Zn 0.488 0.59395 0.98375 0.0
O1107 O 0.51003 0.59203 0.02369 0.0
H1108 H 0.52941 0.60096 0.02613 0.0
Zn1109 Zn 0.47924 0.59007 0.05662 0.0
C1110 C 0.514 0.6007 0.92131 0.0
O1111 O 0.51323 0.57213 0.92043 0.0
O1112 O 0.44786 0.45366 0.99457 0.0
O1113 O 0.44656 0.45361 0.04356 0.0
O1114 O 0.58239 0.60395 0.99516 0.0
O1115 O 0.59718 0.59515 0.04136 0.0
O1116 O 0.59318 0.44169 0.98377 0.0
O1117 O 0.6008 0.44374 0.03241 0.0
C1118 C 0.46285 0.53335 0.09299 0.0
O1119 O 0.44399 0.60562 0.99183 0.0
O1120 O 0.44052 0.60653 0.04087 0.0
O1121 O 0.56779 0.55197 0.94515 0.0
C1122 C 0.43757 0.44395 0.01875 0.0
O1123 O 0.46965 0.50442 0.94262 0.0
C1124 C 0.58352 0.51583 0.08717 0.0
O1125 O 0.52815 0.43714 0.94275 0.0
C1126 C 0.5993 0.60888 0.01712 0.0
O1127 O 0.50622 0.61365 0.94508 0.0
C1128 C 0.52819 0.44501 0.0967 0.0
O1129 O 0.46095 0.50605 0.08942 0.0
O1130 O 0.47118 0.54886 0.07111 0.0
C1131 C 0.60938 0.43731 0.00644 0.0
O1132 O 0.58455 0.54335 0.08796 0.0
O1133 O 0.57428 0.5035 0.06368 0.0
C1134 C 0.5205 0.60989 0.09896 0.0
O1135 O 0.55432 0.44162 0.08639 0.0
O1136 O 0.50915 0.45925 0.08135 0.0
C1137 C 0.42913 0.61053 0.01537 0.0
O1138 O 0.49341 0.61287 0.09118 0.0
O1139 O 0.53795 0.5942 0.08322 0.0
C1140 C 0.57466 0.52668 0.93576 0.0
O1141 O 0.57327 0.50443 0.95382 0.0
C1142 C 0.45931 0.5293 0.93534 0.0
O1143 O 0.45373 0.5486 0.95604 0.0
Zn1144 Zn 0.9577 0.49448 0.47016 0.0
Zn1145 Zn 0.95471 0.56355 0.46252 0.0
O1146 O 0.9832 0.52983 0.46528 0.0
H1147 H 0.00242 0.52786 0.45574 0.0
C1148 C 0.91401 0.4663 0.5187 0.0
O1149 O 0.90644 0.49359 0.52353 0.0
Zn1150 Zn 0.07837 0.56255 0.55973 0.0
Zn1151 Zn 0.08267 0.49337 0.5532 0.0
O1152 O 0.05427 0.52768 0.55235 0.0
H1153 H 0.03315 0.52741 0.54788 0.0
Zn1154 Zn 0.95984 0.48957 0.55213 0.0
O1155 O 0.97217 0.52823 0.53433 0.0
Zn1156 Zn 0.96642 0.55895 0.56539 0.0
H1157 H 0.98754 0.52969 0.5195 0.0
Zn1158 Zn 0.08069 0.4979 0.4642 0.0
O1159 O 0.06306 0.53238 0.48618 0.0
H1160 H 0.04529 0.5295 0.49785 0.0
Zn1161 Zn 0.0653 0.56654 0.45875 0.0
C1162 C 0.12199 0.46769 0.50326 0.0
O1163 O 0.1291 0.49464 0.50975 0.0
O1164 O 0.91464 0.50309 0.45641 0.0
O1165 O 0.91519 0.54992 0.44392 0.0
O1166 O 0.12407 0.50423 0.57103 0.0
O1167 O 0.11777 0.5517 0.57924 0.0
O1168 O 0.93048 0.49758 0.58595 0.0
O1169 O 0.93981 0.5435 0.59878 0.0
C1170 C 0.00547 0.59583 0.43871 0.0
O1171 O 0.10843 0.51205 0.43189 0.0
O1172 O 0.09081 0.55652 0.42251 0.0
O1173 O 0.06327 0.45615 0.56964 0.0
C1174 C 0.90183 0.52534 0.44521 0.0
O1175 O 0.97505 0.45809 0.44946 0.0
C1176 C 0.02584 0.5898 0.58938 0.0
O1177 O 0.9402 0.45799 0.52581 0.0
C1178 C 0.13343 0.52846 0.58096 0.0
O1179 O 0.10029 0.46303 0.4858 0.0
C1180 C 0.93248 0.59366 0.52245 0.0
O1181 O 0.97688 0.59474 0.43966 0.0
O1182 O 0.02106 0.57703 0.45244 0.0
C1183 C 0.92548 0.51969 0.60213 0.0
O1184 O 0.05414 0.589 0.58561 0.0
O1185 O 0.00941 0.57216 0.57493 0.0
C1186 C 0.09896 0.59828 0.50325 0.0
O1187 O 0.93983 0.59099 0.54932 0.0
O1188 O 0.94651 0.57776 0.50393 0.0
C1189 C 0.10927 0.53567 0.4174 0.0
O1190 O 0.09083 0.59866 0.47644 0.0
O1191 O 0.08502 0.58108 0.52027 0.0
C1192 C 0.0376 0.4585 0.58153 0.0
O1193 O 0.02354 0.48366 0.58111 0.0
C1194 C 0.00236 0.45345 0.44297 0.0
O1195 O 0.02296 0.47154 0.45239 0.0
Zn1196 Zn 0.48413 0.99794 0.4638 0.0
Zn1197 Zn 0.46441 0.06876 0.46478 0.0
O1198 O 0.49992 0.04 0.46519 0.0
H1199 H 0.51764 0.04246 0.45332 0.0
C1200 C 0.44587 0.94289 0.51767 0.0
O1201 O 0.45486 0.95621 0.49374 0.0
Zn1202 Zn 0.5649 0.07104 0.56157 0.0
Zn1203 Zn 0.55591 0.999 0.56401 0.0
O1204 O 0.53499 0.03809 0.55646 0.0
H1205 H 0.51922 0.03975 0.54212 0.0
Zn1206 Zn 0.47519 0.99423 0.55108 0.0
O1207 O 0.46831 0.03256 0.52858 0.0
Zn1208 Zn 0.4658 0.06556 0.56012 0.0
H1209 H 0.45769 0.03086 0.51012 0.0
Zn1210 Zn 0.56513 1.00099 0.4734 0.0
O1211 O 0.55553 0.03999 0.49624 0.0
H1212 H 0.5596 0.02103 0.48787 0.0
Zn1213 Zn 0.55801 0.07492 0.46719 0.0
C1214 C 0.59231 0.94785 0.51118 0.0
O1215 O 0.59133 0.96337 0.53544 0.0
O1216 O 0.44152 1.0005 0.44745 0.0
O1217 O 0.43155 0.04818 0.4439 0.0
O1218 O 0.59752 0.00706 0.58023 0.0
O1219 O 0.60148 0.05555 0.58085 0.0
O1220 O 0.47769 0.0041 0.59509 0.0
O1221 O 0.45031 0.04484 0.59474 0.0
C1222 C 0.5004 0.11331 0.4445 0.0
O1223 O 0.57867 0.01081 0.43138 0.0
O1224 O 0.57502 0.05915 0.43121 0.0
O1225 O 0.53775 0.96199 0.58508 0.0
C1226 C 0.42483 0.0216 0.43941 0.0
O1227 O 0.50707 0.96355 0.44101 0.0
C1228 C 0.51929 0.10709 0.58274 0.0
O1229 O 0.45116 0.95473 0.54257 0.0
C1230 C 0.61189 0.03019 0.58604 0.0
O1231 O 0.58319 0.95929 0.48713 0.0
C1232 C 0.43891 0.10143 0.52025 0.0
O1233 O 0.47315 0.10605 0.44442 0.0
O1234 O 0.51922 0.09498 0.45478 0.0
C1235 C 0.4588 0.02126 0.60705 0.0
O1236 O 0.54756 0.10463 0.58341 0.0
O1237 O 0.50461 0.08572 0.57197 0.0
C1238 C 0.5878 0.10821 0.50777 0.0
O1239 O 0.43871 0.09813 0.54789 0.0
O1240 O 0.45198 0.08189 0.50503 0.0
C1241 C 0.58196 0.03533 0.41877 0.0
O1242 O 0.58496 0.1068 0.48019 0.0
O1243 O 0.57572 0.08807 0.52274 0.0
C1244 C 0.53028 0.93816 0.57268 0.0
O1245 O 0.52965 0.93681 0.5438 0.0
C1246 C 0.51583 0.93953 0.45236 0.0
O1247 O 0.51385 0.9363 0.48101 0.0
C1248 C 0.14158 0.13974 0.54835 0.0
C1249 C 0.14707 0.16365 0.52971 0.0
C1250 C 0.12485 0.11582 0.53862 0.0
C1251 C 0.11304 0.11509 0.50995 0.0
H1252 H 0.15105 0.13913 0.57032 0.0
H1253 H 0.12226 0.09737 0.55319 0.0
S1254 S 0.11779 0.17356 0.45361 0.0
N1255 N 0.13763 0.18563 0.48169 0.0
N1256 N 0.10484 0.14172 0.46422 0.0
C1257 C 0.11659 0.1397 0.49183 0.0
C1258 C 0.13392 0.16374 0.5015 0.0
C1259 C 0.89351 0.16191 0.52149 0.0
C1260 C 0.88833 0.16888 0.49189 0.0
C1261 C 0.91316 0.13959 0.52925 0.0
C1262 C 0.92851 0.12302 0.50777 0.0
H1263 H 0.8819 0.17355 0.53892 0.0
H1264 H 0.91598 0.13527 0.55255 0.0
S1265 S 0.9239 0.13445 0.42695 0.0
N1266 N 0.90077 0.15903 0.44085 0.0
N1267 N 0.93752 0.11624 0.45537 0.0
C1268 C 0.92361 0.13001 0.47796 0.0
C1269 C 0.90355 0.15309 0.47004 0.0
C1270 C 0.89963 0.90329 0.48028 0.0
C1271 C 0.88985 0.88428 0.50245 0.0
C1272 C 0.91938 0.92611 0.48685 0.0
C1273 C 0.93008 0.93044 0.51577 0.0
H1274 H 0.89085 0.90139 0.45811 0.0
H1275 H 0.92548 0.94096 0.46936 0.0
S1276 S 0.91357 0.88392 0.58069 0.0
N1277 N 0.89422 0.86931 0.55352 0.0
N1278 N 0.93112 0.91193 0.5661 0.0
C1279 C 0.92172 0.91031 0.53764 0.0
C1280 C 0.90165 0.8873 0.53092 0.0
C1281 C 0.11667 0.87784 0.49581 0.0
C1282 C 0.13751 0.87831 0.51887 0.0
C1283 C 0.09628 0.90077 0.49206 0.0
C1284 C 0.09656 0.92525 0.5109 0.0
H1285 H 0.11699 0.86023 0.47989 0.0
H1286 H 0.08145 0.90001 0.47317 0.0
S1287 S 0.14562 0.93489 0.57619 0.0
N1288 N 0.15606 0.90328 0.56213 0.0
N1289 N 0.11806 0.94694 0.55512 0.0
C1290 C 0.11622 0.92491 0.53519 0.0
C1291 C 0.1367 0.9013 0.53912 0.0
C1292 C 0.50026 0.16993 0.12343 0.0
C1293 C 0.49702 0.16024 0.15261 0.0
C1294 C 0.50937 0.15093 0.1011 0.0
C1295 C 0.51533 0.12143 0.10703 0.0
H1296 H 0.4972 0.19275 0.1181 0.0
H1297 H 0.51301 0.15973 0.07926 0.0
S1298 S 0.50606 0.08431 0.17895 0.0
N1299 N 0.49753 0.11873 0.18579 0.0
N1300 N 0.51403 0.08261 0.14345 0.0
C1301 C 0.50961 0.11084 0.13554 0.0
C1302 C 0.50057 0.13037 0.15846 0.0
C1303 C 0.86288 0.52572 0.13639 0.0
C1304 C 0.8686 0.52134 0.16653 0.0
C1305 C 0.88629 0.52856 0.11632 0.0
C1306 C 0.91615 0.52691 0.12568 0.0
H1307 H 0.84009 0.52682 0.12821 0.0
H1308 H 0.88103 0.53187 0.09324 0.0
S1309 S 0.94352 0.51534 0.20164 0.0
N1310 N 0.90662 0.51549 0.20468 0.0
N1311 N 0.95077 0.52013 0.16627 0.0
C1312 C 0.92246 0.52206 0.15544 0.0
C1313 C 0.89859 0.51938 0.17608 0.0
C1314 C 0.53383 0.88265 0.12633 0.0
C1315 C 0.544 0.89098 0.15441 0.0
C1316 C 0.52457 0.90337 0.10576 0.0
C1317 C 0.52556 0.93328 0.11224 0.0
H1318 H 0.53187 0.85982 0.12059 0.0
H1319 H 0.51573 0.8958 0.08489 0.0
S1320 S 0.55383 0.96675 0.18117 0.0
N1321 N 0.55677 0.93133 0.18684 0.0
N1322 N 0.5403 0.97047 0.14749 0.0
C1323 C 0.53789 0.94211 0.13929 0.0
C1324 C 0.54693 0.92089 0.16055 0.0
C1325 C 0.15762 0.51627 0.15027 0.0
C1326 C 0.18461 0.53056 0.14468 0.0
C1327 C 0.13622 0.51364 0.12817 0.0
C1328 C 0.14113 0.5258 0.10024 0.0
H1329 H 0.15293 0.50745 0.17192 0.0
H1330 H 0.11508 0.50334 0.13341 0.0
S1331 S 0.20862 0.56444 0.07467 0.0
N1332 N 0.21596 0.55583 0.1093 0.0
N1333 N 0.17472 0.55187 0.06774 0.0
C1334 C 0.16816 0.53974 0.09422 0.0
C1335 C 0.19028 0.54185 0.11656 0.0
C1336 C 0.54864 0.89913 0.88226 0.0
C1337 C 0.52648 0.88674 0.86418 0.0
C1338 C 0.54091 0.91827 0.90532 0.0
C1339 C 0.51075 0.92538 0.91115 0.0
H1340 H 0.57208 0.89421 0.87839 0.0
H1341 H 0.55864 0.92734 0.91873 0.0
S1342 S 0.44427 0.89743 0.87064 0.0
N1343 N 0.47323 0.88184 0.85436 0.0
N1344 N 0.45861 0.91807 0.89677 0.0
C1345 C 0.48844 0.91287 0.89317 0.0
C1346 C 0.49632 0.89346 0.86995 0.0
C1347 C 0.15375 0.56242 0.85659 0.0
C1348 C 0.16205 0.53679 0.84155 0.0
C1349 C 0.13066 0.56247 0.87739 0.0
C1350 C 0.11489 0.53686 0.88399 0.0
H1351 H 0.16572 0.58253 0.85282 0.0
H1352 H 0.12607 0.58252 0.88922 0.0
S1353 S 0.12506 0.46481 0.84794 0.0
N1354 N 0.15096 0.4856 0.83297 0.0
N1355 N 0.10683 0.48595 0.87138 0.0
C1356 C 0.12156 0.51152 0.8677 0.0
C1357 C 0.14527 0.51142 0.84663 0.0
C1358 C 0.51042 0.13399 0.86068 0.0
C1359 C 0.49485 0.15997 0.86736 0.0
C1360 C 0.51935 0.11473 0.88287 0.0
C1361 C 0.51215 0.12018 0.91244 0.0
H1362 H 0.51689 0.12903 0.83821 0.0
H1363 H 0.53289 0.09593 0.87698 0.0
S1364 S 0.4696 0.1832 0.94187 0.0
N1365 N 0.47144 0.18919 0.90604 0.0
N1366 N 0.48688 0.15178 0.94744 0.0
C1367 C 0.49472 0.14471 0.91938 0.0
C1368 C 0.48628 0.16489 0.89688 0.0
C1369 C 0.88074 0.49404 0.87155 0.0
C1370 C 0.85183 0.50424 0.87785 0.0
C1371 C 0.90327 0.49583 0.89265 0.0
C1372 C 0.89758 0.50844 0.92031 0.0
H1373 H 0.8861 0.4854 0.84994 0.0
H1374 H 0.92571 0.48882 0.88669 0.0
S1375 S 0.82509 0.53671 0.94785 0.0
N1376 N 0.81792 0.52556 0.91392 0.0
N1377 N 0.86107 0.53006 0.95354 0.0
C1378 C 0.8686 0.51798 0.92721 0.0
C1379 C 0.84542 0.51552 0.9059 0.0
C1380 C 0.64016 0.67817 0.00062 0.0
C1381 C 0.66987 0.67059 0.0077 0.0
C1382 C 0.61719 0.65784 0.00337 0.0
C1383 C 0.62338 0.62971 0.01372 0.0
H1384 H 0.63458 0.70004 0.99346 0.0
H1385 H 0.59443 0.6643 0.99803 0.0
S1386 S 0.69766 0.59805 0.03139 0.0
N1387 N 0.70458 0.63217 0.02235 0.0
N1388 N 0.661 0.5943 0.02867 0.0
C1389 C 0.65295 0.6216 0.02008 0.0
C1390 C 0.67636 0.64202 0.01677 0.0
C1391 C 0.36381 0.65263 0.98325 0.0
C1392 C 0.34732 0.66016 0.00845 0.0
C1393 C 0.38933 0.63494 0.98543 0.0
C1394 C 0.39915 0.62426 0.01292 0.0
H1395 H 0.358 0.66187 0.96204 0.0
H1396 H 0.40224 0.63097 0.96561 0.0
S1397 S 0.35951 0.63344 0.08436 0.0
N1398 N 0.33956 0.6527 0.06074 0.0
N1399 N 0.38735 0.61912 0.06511 0.0
C1400 C 0.38116 0.62972 0.03785 0.0
C1401 C 0.3553 0.64781 0.03555 0.0
C1402 C 0.38036 0.39114 0.9885 0.0
C1403 C 0.3656 0.38164 0.01398 0.0
C1404 C 0.40399 0.41088 0.99034 0.0
C1405 C 0.41374 0.42175 0.01776 0.0
H1406 H 0.37318 0.38374 0.96695 0.0
H1407 H 0.41436 0.41791 0.97 0.0
S1408 S 0.38358 0.40137 0.09114 0.0
N1409 N 0.36336 0.38265 0.06742 0.0
N1410 N 0.40744 0.42021 0.07111 0.0
C1411 C 0.39959 0.41166 0.04349 0.0
C1412 C 0.37558 0.39152 0.04154 0.0
C1413 C 0.68777 0.40797 0.99655 0.0
C1414 C 0.68353 0.37803 0.00174 0.0
C1415 C 0.66354 0.42751 0.99759 0.0
C1416 C 0.63466 0.41742 0.00368 0.0
H1417 H 0.70999 0.41636 0.99233 0.0
H1418 H 0.66742 0.45051 0.99406 0.0
S1419 S 0.61132 0.34135 0.01676 0.0
N1420 N 0.64787 0.3393 0.01147 0.0
N1421 N 0.60257 0.37621 0.01385 0.0
C1422 C 0.63001 0.38767 0.00825 0.0
C1423 C 0.65444 0.36786 0.00717 0.0
C1424 C 0.9735 0.646 0.62398 0.0
C1425 C 0.99285 0.66031 0.64358 0.0
C1426 C 0.98376 0.62221 0.60713 0.0
C1427 C 0.01352 0.61217 0.60957 0.0
H1428 H 0.95069 0.65369 0.62116 0.0
H1429 H 0.96864 0.6123 0.59158 0.0
S1430 S 0.07135 0.64031 0.66117 0.0
N1431 N 0.04185 0.66143 0.66666 0.0
N1432 N 0.06111 0.61681 0.63562 0.0
C1433 C 0.03242 0.62559 0.63039 0.0
C1434 C 0.02208 0.64968 0.64722 0.0
C1435 C 0.41861 0.99832 0.67531 0.0
C1436 C 0.38971 0.99342 0.664 0.0
C1437 C 0.44213 0.00576 0.65652 0.0
C1438 C 0.43696 0.00817 0.62626 0.0
H1439 H 0.4225 0.9984 0.69887 0.0
H1440 H 0.46377 0.01125 0.66574 0.0
S1441 S 0.36682 0.99296 0.58562 0.0
N1442 N 0.35817 0.9882 0.62068 0.0
N1443 N 0.40262 1.00177 0.58519 0.0
C1444 C 0.40893 1.00092 0.61452 0.0
C1445 C 0.38509 0.99362 0.63352 0.0
C1446 C 0.02407 0.38412 0.61366 0.0
C1447 C 0.01818 0.39085 0.64332 0.0
C1448 C 0.02914 0.4063 0.59314 0.0
C1449 C 0.0276 0.43568 0.60166 0.0
H1450 H 0.0263 0.36164 0.60666 0.0
H1451 H 0.03509 0.40047 0.57074 0.0
S1452 S 0.01067 0.46437 0.67626 0.0
N1453 N 0.0096 0.42862 0.67993 0.0
N1454 N 0.01828 0.47039 0.64119 0.0
C1455 C 0.02003 0.44262 0.63087 0.0
C1456 C 0.01553 0.42011 0.65181 0.0
C1457 C 0.65952 0.0104 0.65047 0.0
C1458 C 0.68135 0.03215 0.64948 0.0
C1459 C 0.63833 0.0082 0.62806 0.0
C1460 C 0.63849 0.02789 0.60438 0.0
H1461 H 0.65794 0.99604 0.66933 0.0
H1462 H 0.62053 0.99242 0.6304 0.0
S1463 S 0.69441 0.08526 0.58975 0.0
N1464 N 0.70454 0.07113 0.62174 0.0
N1465 N 0.66432 0.06717 0.57932 0.0
C1466 C 0.66158 0.04829 0.60218 0.0
C1467 C 0.68316 0.05044 0.62495 0.0
C1468 C 0.04802 0.39979 0.39702 0.0
C1469 C 0.02627 0.38775 0.37825 0.0
C1470 C 0.04014 0.4207 0.41835 0.0
C1471 C 0.01018 0.42995 0.42184 0.0
H1472 H 0.07136 0.39362 0.39465 0.0
H1473 H 0.05767 0.42987 0.43195 0.0
S1474 S 0.94464 0.40368 0.37904 0.0
N1475 N 0.97342 0.38535 0.36554 0.0
N1476 N 0.95866 0.4248 0.40496 0.0
C1477 C 0.98818 0.4174 0.40365 0.0
C1478 C -0.00379 0.39626 0.38204 0.0
C1479 C 0.62434 0.01143 0.35136 0.0
C1480 C 0.64017 0.0368 0.34433 0.0
C1481 C 0.60371 0.01149 0.37446 0.0
C1482 C 0.59856 0.0369 0.39105 0.0
H1483 H 0.62925 0.99109 0.34019 0.0
H1484 H 0.59296 0.9912 0.38028 0.0
S1485 S 0.63255 0.1097 0.37871 0.0
N1486 N 0.64699 0.0886 0.35291 0.0
N1487 N 0.60961 0.08864 0.39738 0.0
C1488 C 0.61284 0.06292 0.38273 0.0
C1489 C 0.63335 0.06287 0.35903 0.0
C1490 C 0.0343 0.6332 0.37144 0.0
C1491 C 0.03278 0.6627 0.37985 0.0
C1492 C 0.02781 0.61112 0.3916 0.0
C1493 C 0.01963 0.61798 0.42061 0.0
H1494 H 0.0384 0.62721 0.34869 0.0
H1495 H 0.02719 0.58875 0.38396 0.0
S1496 S 0.01743 0.69104 0.45497 0.0
N1497 N 0.02675 0.69715 0.42031 0.0
N1498 N 0.0136 0.6554 0.45792 0.0
C1499 C 0.02027 0.64701 0.42994 0.0
C1500 C 0.02716 0.66949 0.40958 0.0
C1501 C 0.35695 0.00458 0.39349 0.0
C1502 C 0.3686 0.00796 0.36483 0.0
C1503 C 0.37521 0.00856 0.41826 0.0
C1504 C 0.40533 0.0159 0.41463 0.0
H1505 H 0.33345 0.9998 0.39673 0.0
H1506 H 0.36571 0.00647 0.44011 0.0
S1507 S 0.44725 0.02398 0.34477 0.0
N1508 N 0.41262 0.01654 0.33454 0.0
N1509 N 0.44678 0.02432 0.38113 0.0
C1510 C 0.41747 0.01812 0.38628 0.0
C1511 C 0.3991 0.01406 0.36126 0.0
C1512 C 0.01983 0.1614 0.37455 0.0
C1513 C 0.03365 0.15072 0.34887 0.0
C1514 C 0.01541 0.14346 0.39918 0.0
C1515 C 0.02511 0.11423 0.39934 0.0
H1516 H 0.01217 0.18382 0.37552 0.0
H1517 H 0.00388 0.15243 0.41818 0.0
S1518 S 0.05983 0.07506 0.33637 0.0
N1519 N 0.05549 0.10875 0.32428 0.0
N1520 N 0.04726 0.07488 0.37064 0.0
C1521 C 0.03885 0.1032 0.37368 0.0
C1522 C 0.04313 0.1215 0.34844 0.0
C1523 C 0.88934 0.06991 0.35619 0.0
C1524 C 0.88333 0.04747 0.33586 0.0
C1525 C 0.9015 0.06408 0.38385 0.0
C1526 C 0.90978 0.03574 0.39219 0.0
H1527 H 0.88439 0.09241 0.35093 0.0
H1528 H 0.90521 0.08228 0.39845 0.0
S1529 S 0.9019 0.969 0.3464 0.0
N1530 N 0.88749 0.9953 0.32604 0.0
N1531 N 0.91298 0.98485 0.37713 0.0
C1532 C 0.90517 0.01302 0.37176 0.0
C1533 C 0.89167 0.0188 0.34378 0.0
C1534 C 0.01766 0.92905 0.33057 0.0
C1535 C 0.01946 0.89969 0.33879 0.0
C1536 C 0.01543 0.95105 0.35195 0.0
C1537 C 0.01488 0.9444 0.3823 0.0
H1538 H 0.01654 0.93493 0.30749 0.0
H1539 H 0.01271 0.9733 0.34449 0.0
S1540 S 0.0248 0.87087 0.41488 0.0
N1541 N 0.02459 0.86511 0.37893 0.0
N1542 N 0.02067 0.90639 0.41926 0.0
C1543 C 0.01905 0.91517 0.39071 0.0
C1544 C 0.02121 0.89282 0.36891 0.0
C1545 C 0.13014 0.02447 0.33377 0.0
C1546 C 0.13125 0.99667 0.32076 0.0
C1547 C 0.11527 0.02921 0.36038 0.0
C1548 C 0.10065 0.00643 0.37508 0.0
H1549 H 0.14216 0.04254 0.32415 0.0
H1550 H 0.11584 0.05093 0.36974 0.0
S1551 S 0.09629 0.9295 0.34981 0.0
N1552 N 0.11555 0.94616 0.32386 0.0
N1553 N 0.08801 0.95483 0.37441 0.0
C1554 C 0.10095 0.97855 0.36199 0.0
C1555 C 0.11609 0.97376 0.33471 0.0
C1556 C 0.98243 0.89798 0.65814 0.0
C1557 C -0.00101 0.9029 0.68401 0.0
C1558 C 0.98654 0.91542 0.63314 0.0
C1559 C 0.00701 0.93857 0.63338 0.0
H1560 H 0.96762 0.87943 0.65662 0.0
H1561 H 0.97459 0.90991 0.61315 0.0
S1562 S 0.05334 0.96201 0.69725 0.0
N1563 N 0.03484 0.9334 0.70936 0.0
N1564 N 0.0421 0.96692 0.66295 0.0
C1565 C 0.02208 0.94491 0.66 0.0
C1566 C 0.01824 0.9268 0.68517 0.0
C1567 C 0.15004 0.0515 0.67006 0.0
C1568 C 0.15687 0.02633 0.68664 0.0
C1569 C 0.13858 0.04971 0.64137 0.0
C1570 C 0.13234 0.02268 0.62822 0.0
H1571 H 0.15341 0.07299 0.67927 0.0
H1572 H 0.13332 0.0698 0.62997 0.0
S1573 S 0.14427 0.94992 0.66207 0.0
N1574 N 0.15659 0.97314 0.68696 0.0
N1575 N 0.13234 0.97013 0.63443 0.0
C1576 C 0.1382 0.99732 0.64469 0.0
C1577 C 0.15088 0.99904 0.67353 0.0
C1578 C 0.9926 0.13659 0.64895 0.0
C1579 C 0.01511 0.14554 0.66904 0.0
C1580 C -0.00065 0.11992 0.62356 0.0
C1581 C 0.02892 0.1113 0.61716 0.0
H1582 H 0.96951 0.14303 0.65244 0.0
H1583 H 0.9814 0.11445 0.60852 0.0
S1584 S 0.0958 0.12505 0.66418 0.0
N1585 N 0.0682 0.1422 0.68112 0.0
N1586 N 0.08039 0.10984 0.63503 0.0
C1587 C 0.05129 0.11838 0.638 0.0
C1588 C 0.04455 0.13562 0.66349 0.0
C1589 C 0.92424 0.00571 0.69307 0.0
C1590 C 0.91024 0.0308 0.70467 0.0
C1591 C 0.93976 0.0065 0.66623 0.0
C1592 C 0.94203 0.03245 0.64988 0.0
H1593 H 0.92238 0.98503 0.70435 0.0
H1594 H 0.94931 0.98635 0.65791 0.0
S1595 S 0.91087 0.10468 0.67124 0.0
N1596 N 0.90051 0.08262 0.69795 0.0
N1597 N 0.9305 0.08432 0.64824 0.0
C1598 C 0.92945 0.05803 0.66193 0.0
C1599 C 0.91341 0.05716 0.68912 0.0
C1600 C 0.35082 0.01231 0.0917 0.0
C1601 C 0.35005 1.00012 0.11986 0.0
C1602 C 0.3779 0.01462 0.07653 0.0
C1603 C 0.40521 0.0056 0.08951 0.0
H1604 H 0.33073 0.02172 0.08214 0.0
H1605 H 0.37756 0.02558 0.05542 0.0
S1606 S 0.41347 0.96733 0.16094 0.0
N1607 N 0.37736 0.97511 0.15864 0.0
N1608 N 0.42871 0.97979 0.13033 0.0
C1609 C 0.40412 0.99087 0.11658 0.0
C1610 C 0.37639 0.98821 0.13182 0.0
C1611 C 0.05131 0.3752 0.12959 0.0
C1612 C 0.02494 0.35907 0.13423 0.0
C1613 C 0.05102 0.40138 0.11355 0.0
C1614 C 0.02427 0.41289 0.10179 0.0
H1615 H 0.07218 0.36842 0.13972 0.0
H1616 H 0.07173 0.41341 0.11165 0.0
S1617 S 0.95033 0.37634 0.10214 0.0
N1618 N 0.97225 0.35436 0.12138 0.0
N1619 N 0.97154 0.40399 0.09223 0.0
C1620 C -0.00186 0.39607 0.10447 0.0
C1621 C -0.00148 0.36913 0.12042 0.0
C1622 C 0.65414 0.06092 0.11456 0.0
C1623 C 0.67574 0.03842 0.11742 0.0
C1624 C 0.6278 0.05686 0.09803 0.0
C1625 C 0.62167 0.02982 0.08499 0.0
H1626 H 0.65708 0.08153 0.12577 0.0
H1627 H 0.61184 0.07463 0.09612 0.0
S1628 S 0.67052 0.96428 0.08491 0.0
N1629 N 0.68988 0.98911 0.10275 0.0
N1630 N 0.63889 0.98047 0.07554 0.0
C1631 C 0.6429 0.00734 0.08751 0.0
C1632 C 0.67029 0.0119 0.10271 0.0
C1633 C 0.01607 0.68339 0.10644 0.0
C1634 C 0.00773 0.68165 0.13621 0.0
C1635 C 0.01861 0.65811 0.0891 0.0
C1636 C 0.01273 0.63042 0.101 0.0
H1637 H 0.02255 0.70411 0.09709 0.0
H1638 H 0.02722 0.66001 0.06686 0.0
S1639 S 0.98918 0.61455 0.17744 0.0
N1640 N 0.99254 0.65037 0.17653 0.0
N1641 N -0.00281 0.60292 0.14385 0.0
C1642 C 0.00271 0.62864 0.13019 0.0
C1643 C 0.00026 0.6543 0.14786 0.0
C1644 C 0.38049 0.98052 0.91298 0.0
C1645 C 0.35662 1.00028 0.90744 0.0
C1646 C 0.40743 0.98965 0.92591 0.0
C1647 C 0.41119 0.01862 0.93477 0.0
H1648 H 0.37909 0.958 0.90607 0.0
H1649 H 0.42573 0.97424 0.92777 0.0
S1650 S 0.35337 0.07702 0.93452 0.0
N1651 N 0.33755 0.0494 0.91741 0.0
N1652 N 0.38696 0.06525 0.9439 0.0
C1653 C 0.38642 0.03757 0.93314 0.0
C1654 C 0.35936 0.02869 0.91918 0.0
C1655 C 0.01867 0.35585 0.90937 0.0
C1656 C 0.02394 0.35963 0.87912 0.0
C1657 C 0.0156 0.37994 0.92836 0.0
C1658 C 0.01713 0.40882 0.91776 0.0
H1659 H 0.01676 0.33412 0.91839 0.0
H1660 H 0.01122 0.37577 0.95143 0.0
S1661 S 0.03056 0.43019 0.84 0.0
N1662 N 0.03087 0.39423 0.83933 0.0
N1663 N 0.02473 0.43945 0.87471 0.0
C1664 C 0.02279 0.41278 0.8875 0.0
C1665 C 0.02624 0.38823 0.86828 0.0
C1666 C 0.64462 0.05376 0.87761 0.0
C1667 C 0.67296 0.04683 0.88961 0.0
C1668 C 0.61804 0.04672 0.89261 0.0
C1669 C 0.61918 0.03284 0.9201 0.0
H1670 H 0.64297 0.06342 0.8559 0.0
H1671 H 0.59664 0.05111 0.88221 0.0
S1672 S 0.68717 0.01139 0.96131 0.0
N1673 N 0.70016 0.02654 0.93105 0.0
N1674 N 0.65033 0.01331 0.95913 0.0
C1675 C 0.64718 0.02684 0.93271 0.0
C1676 C 0.67407 0.03384 0.9175 0.0
C1677 C 0.98914 0.68251 0.90577 0.0
C1678 C 0.01091 0.68576 0.8837 0.0
C1679 C 0.98779 0.65717 0.92268 0.0
C1680 C 0.00843 0.63424 0.91863 0.0
H1681 H 0.97165 0.69877 0.9085 0.0
H1682 H 0.96922 0.65481 0.9378 0.0
S1683 S 0.0726 0.63378 0.86693 0.0
N1684 N 0.05563 0.6653 0.86082 0.0
N1685 N 0.0535 0.6178 0.89352 0.0
C1686 C 0.03217 0.63836 0.89882 0.0
C1687 C 0.03334 0.66417 0.88115 0.0
C1688 C 0.10096 0.37302 0.99737 0.0
C1689 C 0.12429 0.3685 0.01782 0.0
C1690 C 0.08849 0.40087 0.99267 0.0
C1691 C 0.09885 0.42548 0.00819 0.0
H1692 H 0.09289 0.35503 0.98416 0.0
H1693 H 0.07129 0.40322 0.97599 0.0
S1694 S 0.15813 0.42522 0.06576 0.0
N1695 N 0.15632 0.39104 0.05467 0.0
N1696 N 0.13248 0.44288 0.04653 0.0
C1697 C 0.12099 0.42096 0.02991 0.0
C1698 C 0.13379 0.39265 0.03455 0.0
C1699 C 0.08823 0.68786 0.00898 0.0
C1700 C 0.11403 0.69105 0.02642 0.0
C1701 C 0.07493 0.66058 0.00501 0.0
C1702 C 0.08678 0.63527 0.01827 0.0
H1703 H 0.07945 0.70623 0.99668 0.0
H1704 H 0.05655 0.65891 0.98949 0.0
S1705 S 0.15113 0.63232 0.06959 0.0
N1706 N 0.14879 0.66696 0.05997 0.0
N1707 N 0.12346 0.61567 0.05237 0.0
C1708 C 0.11061 0.63851 0.0381 0.0
C1709 C 0.12433 0.66643 0.04218 0.0
C1710 C 0.35148 0.13961 0.03713 0.0
C1711 C 0.33999 0.15669 0.01408 0.0
C1712 C 0.37955 0.12609 0.035 0.0
C1713 C 0.39762 0.12871 0.00958 0.0
H1714 H 0.33881 0.13701 0.05731 0.0
H1715 H 0.38693 0.11325 0.05367 0.0
S1716 S 0.37689 0.16935 0.94186 0.0
N1717 N 0.3483 0.17473 0.96436 0.0
N1718 N 0.40076 0.14836 0.95995 0.0
C1719 C 0.38591 0.14483 0.98581 0.0
C1720 C 0.35721 0.15892 0.9881 0.0
C1721 C 0.91239 0.38731 0.99762 0.0
C1722 C 0.92715 0.36022 -0.00077 0.0
C1723 C 0.92715 0.41319 0.0048 0.0
C1724 C 0.95738 0.41304 0.01362 0.0
H1725 H 0.8889 0.38843 0.99167 0.0
H1726 H 0.91457 0.43342 0.00385 0.0
S1727 S 0.0065 0.34771 0.01967 0.0
N1728 N 0.97376 0.33467 0.00918 0.0
N1729 N 0.00191 0.38334 0.02234 0.0
C1730 C 0.97268 0.38609 0.01441 0.0
C1731 C 0.95745 0.35967 0.00739 0.0
C1732 C 0.66463 0.87463 0.98809 0.0
C1733 C 0.6917 0.88872 0.99515 0.0
C1734 C 0.63704 0.8895 0.98959 0.0
C1735 C 0.63578 0.91881 0.99837 0.0
H1736 H 0.66485 0.85194 0.98147 0.0
H1737 H 0.61665 0.87805 0.98403 0.0
S1738 S 0.70059 0.96565 0.01705 0.0
N1739 N 0.71563 0.9335 0.01005 0.0
N1740 N 0.66405 0.96171 0.01266 0.0
C1741 C 0.66273 0.93306 0.00527 0.0
C1742 C 0.69064 0.91793 0.00377 0.0
C1743 C 0.89288 0.65624 0.98774 0.0
C1744 C 0.9089 0.68222 0.99205 0.0
C1745 C 0.90714 0.62894 0.98976 0.0
C1746 C 0.93785 0.62683 0.99618 0.0
H1747 H 0.8688 0.657 0.98481 0.0
H1748 H 0.89356 0.60947 0.989 0.0
S1749 S 0.99013 0.68841 0.00675 0.0
N1750 N 0.95735 0.70424 0.00067 0.0
N1751 N 0.98416 0.65297 0.00482 0.0
C1752 C 0.95439 0.65271 0.99855 0.0
C1753 C 0.93991 0.68046 0.99639 0.0
C1754 C 0.33402 0.91743 0.99433 0.0
C1755 C 0.32345 0.90697 0.02156 0.0
C1756 C 0.36011 0.93439 0.99259 0.0
C1757 C 0.3768 0.94139 0.018 0.0
H1758 H 0.32324 0.91093 0.974 0.0
H1759 H 0.36805 0.94069 0.97098 0.0
S1760 S 0.35554 0.92354 0.09513 0.0
N1761 N 0.32905 0.90872 0.0748 0.0
N1762 N 0.3785 0.93928 0.07165 0.0
C1763 C 0.36503 0.93302 0.04555 0.0
C1764 C 0.3383 0.91616 0.04729 0.0
C1765 C 0.68667 0.16638 0.01181 0.0
C1766 C 0.71409 0.15232 0.00589 0.0
C1767 C 0.65945 0.15169 0.00897 0.0
C1768 C 0.6585 0.12245 -0.00016 0.0
H1769 H 0.68624 0.18902 0.01859 0.0
H1770 H 0.6389 0.16332 0.01412 0.0
S1771 S 0.72411 0.07535 0.98363 0.0
N1772 N 0.73882 0.1073 0.99165 0.0
N1773 N 0.68737 0.07955 0.98615 0.0
C1774 C 0.68568 0.10809 0.99378 0.0
C1775 C 0.71355 0.12308 0.99683 0.0
C1776 C 0.51923 0.66487 0.86818 0.0
C1777 C 0.52744 0.65188 0.84129 0.0
C1778 C 0.5155 0.64825 0.89386 0.0
C1779 C 0.51981 0.6178 0.89382 0.0
H1780 H 0.51574 0.68822 0.86937 0.0
H1781 H 0.50889 0.65944 0.91387 0.0
S1782 S 0.54199 0.57336 0.82861 0.0
N1783 N 0.54026 0.60703 0.81589 0.0
N1784 N 0.53299 0.57543 0.86387 0.0
C1785 C 0.52811 0.60453 0.86684 0.0
C1786 C 0.53199 0.62163 0.84068 0.0
C1787 C 0.43039 0.51508 0.85765 0.0
C1788 C 0.42216 0.54304 0.84754 0.0
C1789 C 0.44413 0.51107 0.88524 0.0
C1790 C 0.4495 0.53473 0.90433 0.0
H1791 H 0.42452 0.49588 0.84509 0.0
H1792 H 0.44884 0.489 0.89235 0.0
S1793 S 0.43786 0.61281 0.886 0.0
N1794 N 0.42617 0.59516 0.85649 0.0
N1795 N 0.44855 0.58745 0.90956 0.0
C1796 C 0.44324 0.56292 0.89369 0.0
C1797 C 0.43054 0.56708 0.86503 0.0
C1798 C 0.49839 0.42594 0.84009 0.0
C1799 C 0.49688 0.39544 0.84206 0.0
C1800 C 0.50511 0.44306 0.86504 0.0
C1801 C 0.51088 0.4303 0.89283 0.0
H1802 H 0.49426 0.43659 0.81919 0.0
H1803 H 0.50615 0.46647 0.86237 0.0
S1804 S 0.51009 0.35094 0.9089 0.0
N1805 N 0.50177 0.3531 0.87353 0.0
N1806 N 0.51459 0.38483 0.9202 0.0
C1807 C 0.50933 0.3997 0.89483 0.0
C1808 C 0.50232 0.38243 0.86953 0.0
C1809 C 0.60174 0.49079 0.86453 0.0
C1810 C 0.6151 0.5139 0.84888 0.0
C1811 C 0.58849 0.4951 0.89231 0.0
C1812 C 0.58687 0.5229 0.90533 0.0
H1813 H 0.60224 0.46888 0.8557 0.0
H1814 H 0.57996 0.47629 0.90385 0.0
S1815 S 0.61732 0.59118 0.87374 0.0
N1816 N 0.62577 0.5659 0.84919 0.0
N1817 N 0.59896 0.57418 0.90005 0.0
C1818 C 0.59883 0.54647 0.88945 0.0
C1819 C 0.61321 0.54197 0.86158 0.0
C1820 C 0.54124 0.40968 0.17118 0.0
C1821 C 0.51266 0.40011 0.1799 0.0
C1822 C 0.54554 0.42525 0.14504 0.0
C1823 C 0.52143 0.43264 0.1264 0.0
H1824 H 0.56086 0.40403 0.18406 0.0
H1825 H 0.56829 0.4308 0.139 0.0
S1826 S 0.44123 0.41948 0.14236 0.0
N1827 N 0.45912 0.40338 0.16975 0.0
N1828 N 0.4673 0.43388 0.12117 0.0
C1829 C 0.49236 0.42619 0.13631 0.0
C1830 C 0.48795 0.40973 0.1629 0.0
C1831 C 0.63227 0.48331 0.14562 0.0
C1832 C 0.61911 0.49539 0.17113 0.0
C1833 C 0.61837 0.48597 0.11786 0.0
C1834 C 0.59078 0.50056 0.11493 0.0
H1835 H 0.65467 0.47416 0.14672 0.0
H1836 H 0.63069 0.47932 0.09838 0.0
S1837 S 0.54501 0.53178 0.1756 0.0
N1838 N 0.57551 0.51938 0.19213 0.0
N1839 N 0.54905 0.52369 0.14034 0.0
C1840 C 0.57604 0.50982 0.14078 0.0
C1841 C 0.59034 0.50754 0.16882 0.0
C1842 C 0.51871 0.63352 0.17894 0.0
C1843 C 0.53976 0.65618 0.17998 0.0
C1844 C 0.51403 0.61742 0.15298 0.0
C1845 C 0.53025 0.6233 0.12707 0.0
H1846 H 0.50501 0.62889 0.19805 0.0
H1847 H 0.49683 0.60088 0.15288 0.0
S1848 S 0.5877 0.6804 0.11796 0.0
N1849 N 0.57705 0.68354 0.15271 0.0
N1850 N 0.56833 0.65305 0.10408 0.0
C1851 C 0.55213 0.64508 0.12805 0.0
C1852 C 0.55686 0.66159 0.15447 0.0
C1853 C 0.44644 0.52784 0.17383 0.0
C1854 C 0.42798 0.55205 0.17938 0.0
C1855 C 0.46031 0.52408 0.14654 0.0
C1856 C 0.45601 0.54409 0.12327 0.0
H1857 H 0.44816 0.51043 0.18985 0.0
H1858 H 0.47262 0.50395 0.14294 0.0
S1859 S 0.41886 0.61603 0.13049 0.0
N1860 N 0.41286 0.60015 0.16254 0.0
N1861 N 0.438 0.59239 0.11031 0.0
C1862 C 0.44122 0.57036 0.1299 0.0
C1863 C 0.42744 0.57449 0.15823 0.0
C1864 C 0.86582 0.51073 0.6611 0.0
C1865 C 0.83947 0.51855 0.64582 0.0
C1866 C 0.89402 0.51153 0.64725 0.0
C1867 C 0.89659 0.52043 0.61782 0.0
H1868 H 0.86456 0.50407 0.68395 0.0
H1869 H 0.91378 0.50508 0.65952 0.0
S1870 S 0.83445 0.54186 0.56795 0.0
N1871 N 0.81776 0.53462 0.59959 0.0
N1872 N 0.87059 0.53619 0.57353 0.0
C1873 C 0.87039 0.52796 0.60229 0.0
C1874 C 0.84182 0.52707 0.61631 0.0
C1875 C 0.53954 0.88435 0.63589 0.0
C1876 C 0.52664 0.85867 0.62497 0.0
C1877 C 0.53978 0.91004 0.61916 0.0
C1878 C 0.52742 0.91107 0.59059 0.0
H1879 H 0.54939 0.88462 0.6577 0.0
H1880 H 0.55033 0.9291 0.62856 0.0
S1881 S 0.49059 0.84945 0.55202 0.0
N1882 N 0.50072 0.83569 0.58419 0.0
N1883 N 0.50165 0.88373 0.55227 0.0
C1884 C 0.51444 0.88537 0.57939 0.0
C1885 C 0.51389 0.85926 0.59668 0.0
C1886 C 0.21683 0.52267 0.59643 0.0
C1887 C 0.21857 0.53219 0.62583 0.0
C1888 C 0.18904 0.52125 0.58186 0.0
C1889 C 0.16241 0.52948 0.59631 0.0
H1890 H 0.237 0.51636 0.58471 0.0
H1891 H 0.18837 0.514 0.55913 0.0
S1892 S 0.15482 0.55258 0.67415 0.0
N1893 N 0.19119 0.54757 0.66948 0.0
N1894 N 0.13922 0.54541 0.64196 0.0
C1895 C 0.16388 0.53847 0.62578 0.0
C1896 C 0.19195 0.53966 0.64061 0.0
C1897 C 0.51608 0.18639 0.60479 0.0
C1898 C 0.49318 0.18747 0.62602 0.0
C1899 C 0.5223 0.16076 0.58901 0.0
C1900 C 0.50598 0.13495 0.59368 0.0
H1901 H 0.53038 0.20508 0.60143 0.0
H1902 H 0.54129 0.16073 0.57412 0.0
S1903 S 0.44125 0.12711 0.64398 0.0
N1904 N 0.45206 0.16116 0.64874 0.0
N1905 N 0.46386 0.113 0.61882 0.0
C1906 C 0.48137 0.13634 0.61289 0.0
C1907 C 0.47498 0.16259 0.62913 0.0
C1908 C 0.83142 0.54101 0.40034 0.0
C1909 C 0.81736 0.51363 0.3988 0.0
C1910 C 0.85794 0.54499 0.41648 0.0
C1911 C 0.87166 0.52171 0.43159 0.0
H1912 H 0.82287 0.5592 0.38765 0.0
H1913 H 0.86837 0.56622 0.41604 0.0
S1914 S 0.84139 0.44663 0.43798 0.0
N1915 N 0.81706 0.46387 0.41686 0.0
N1916 N 0.86727 0.47081 0.44623 0.0
C1917 C 0.85677 0.49464 0.43171 0.0
C1918 C 0.82959 0.49075 0.41557 0.0
C1919 C 0.52826 0.89237 0.38383 0.0
C1920 C 0.5372 0.8653 0.39542 0.0
C1921 C 0.52212 0.91634 0.40227 0.0
C1922 C 0.52474 0.91429 0.43318 0.0
H1923 H 0.52581 0.89498 0.36022 0.0
H1924 H 0.51485 0.93652 0.39215 0.0
S1925 S 0.54919 0.84822 0.47428 0.0
N1926 N 0.54951 0.83787 0.43939 0.0
N1927 N 0.53823 0.88265 0.47427 0.0
C1928 C 0.53429 0.88728 0.44496 0.0
C1929 C 0.54044 0.86288 0.42606 0.0
C1930 C 0.18063 0.52091 0.3745 0.0
C1931 C 0.1953 0.54806 0.37506 0.0
C1932 C 0.15207 0.51739 0.38686 0.0
C1933 C 0.1365 0.541 0.39957 0.0
H1934 H 0.19103 0.50217 0.36412 0.0
H1935 H 0.1422 0.49588 0.38672 0.0
S1936 S 0.16518 0.61619 0.4084 0.0
N1937 N 0.19257 0.59844 0.39174 0.0
N1938 N 0.13809 0.59229 0.41269 0.0
C1939 C 0.15064 0.56828 0.40007 0.0
C1940 C 0.18018 0.57166 0.38847 0.0
C1941 C 0.4915 0.19175 0.42156 0.0
C1942 C 0.50934 0.1935 0.3961 0.0
C1943 C 0.49107 0.16636 0.43877 0.0
C1944 C 0.50847 0.14172 0.43129 0.0
H1945 H 0.47653 0.20953 0.42729 0.0
H1946 H 0.47557 0.16537 0.45711 0.0
S1947 S 0.55883 0.13517 0.36685 0.0
N1948 N 0.54528 0.16862 0.36463 0.0
N1949 N 0.5444 0.12093 0.39707 0.0
C1950 C 0.52764 0.14372 0.40689 0.0
C1951 C 0.52807 0.16962 0.38928 0.0
C1952 C 0.63365 0.87943 0.48449 0.0
C1953 C 0.64056 0.8643 0.5107 0.0
C1954 C 0.61694 0.90558 0.48474 0.0
C1955 C 0.60661 0.91815 0.51124 0.0
H1956 H 0.64243 0.87185 0.46358 0.0
H1957 H 0.61325 0.91666 0.46399 0.0
S1958 S 0.6134 0.88463 0.58548 0.0
N1959 N 0.63146 0.86182 0.56352 0.0
N1960 N 0.60128 0.9113 0.56413 0.0
C1961 C 0.61167 0.90235 0.53744 0.0
C1962 C 0.6283 0.87546 0.53713 0.0
C1963 C 0.65191 0.15647 0.52825 0.0
C1964 C 0.64068 0.18412 0.52034 0.0
C1965 C 0.63338 0.13175 0.52823 0.0
C1966 C 0.60303 0.13393 0.52025 0.0
H1967 H 0.67565 0.15358 0.53234 0.0
H1968 H 0.64349 0.11054 0.53175 0.0
S1969 S 0.56215 0.20171 0.50057 0.0
N1970 N 0.59686 0.21254 0.50671 0.0
N1971 N 0.56207 0.16623 0.50664 0.0
C1972 C 0.59112 0.16181 0.51452 0.0
C1973 C 0.60994 0.1869 0.51452 0.0
C1974 C 0.86801 0.63093 0.48027 0.0
C1975 C 0.85509 0.64956 0.50169 0.0
C1976 C 0.89337 0.6134 0.48663 0.0
C1977 C 0.90699 0.61377 0.51465 0.0
H1978 H 0.85841 0.62982 0.45839 0.0
H1979 H 0.90217 0.59936 0.46951 0.0
S1980 S 0.88329 0.66027 0.57797 0.0
N1981 N 0.85921 0.66829 0.55162 0.0
N1982 N 0.90592 0.63549 0.5637 0.0
C1983 C 0.89441 0.6326 0.5361 0.0
C1984 C 0.86877 0.65034 0.52963 0.0
C1985 C 0.39846 0.87698 0.53936 0.0
C1986 C 0.39264 0.86295 0.51228 0.0
C1987 C 0.41622 0.90221 0.541 0.0
C1988 C 0.42893 0.91479 0.51562 0.0
H1989 H 0.38819 0.86915 0.55943 0.0
H1990 H 0.41926 0.91239 0.56233 0.0
S1991 S 0.42442 0.88433 0.43977 0.0
N1992 N 0.40422 0.86185 0.45988 0.0
N1993 N 0.43675 0.9094 0.4628 0.0
C1994 C 0.42458 0.90017 0.48858 0.0
C1995 C 0.40669 0.87434 0.48695 0.0
C1996 C 0.18052 0.41108 0.48532 0.0
C1997 C 0.19058 0.40156 0.51314 0.0
C1998 C 0.15772 0.43188 0.48262 0.0
C1999 C 0.14446 0.44456 0.50757 0.0
H2000 H 0.19027 0.40232 0.46531 0.0
H2001 H 0.15075 0.4385 0.46074 0.0
S2002 S 0.16173 0.42759 0.58548 0.0
N2003 N 0.18449 0.40624 0.56637 0.0
N2004 N 0.14248 0.44647 0.56091 0.0
C2005 C 0.15439 0.43588 0.53552 0.0
C2006 C 0.1773 0.41416 0.5384 0.0
C2007 C 0.37982 0.15461 0.49618 0.0
C2008 C 0.39247 0.18128 0.50495 0.0
C2009 C 0.39636 0.1285 0.49767 0.0
C2010 C 0.42605 0.12837 0.50786 0.0
H2011 H 0.35627 0.15361 0.49049 0.0
H2012 H 0.38506 0.10812 0.49334 0.0
S2013 S 0.47052 0.1928 0.52974 0.0
N2014 N 0.43719 0.20632 0.52134 0.0
N2015 N 0.46836 0.15733 0.52397 0.0
C2016 C 0.43963 0.15518 0.51432 0.0
C2017 C 0.4228 0.18168 0.51292 0.0
C2018 C 0.8704 0.4008 0.49107 0.0
C2019 C 0.84449 0.40186 0.50882 0.0
C2020 C 0.89315 0.42169 0.49416 0.0
C2021 C 0.8902 0.44457 0.51458 0.0
H2022 H 0.87327 0.38347 0.47506 0.0
H2023 H 0.91291 0.42013 0.48037 0.0
S2024 S 0.82775 0.45585 0.56734 0.0
N2025 N 0.81806 0.4267 0.54831 0.0
N2026 N 0.86028 0.46616 0.55373 0.0
C2027 C 0.86452 0.44567 0.53245 0.0
C2028 C 0.84178 0.42424 0.52968 0.0
C2029 C 0.17068 0.64235 0.49641 0.0
C2030 C 0.17987 0.64766 0.52563 0.0
C2031 C 0.14464 0.62667 0.48996 0.0
C2032 C 0.12601 0.61541 0.5122 0.0
H2033 H 0.18301 0.65128 0.47802 0.0
H2034 H 0.13891 0.62365 0.46704 0.0
S2035 S 0.13959 0.62194 0.59256 0.0
N2036 N 0.16853 0.6384 0.5774 0.0
N2037 N 0.11849 0.61086 0.5649 0.0
C2038 C 0.1348 0.62016 0.54156 0.0
C2039 C 0.16186 0.63575 0.54831 0.0
loop_
_geom_bond_atom_site_label_1
_geom_bond_atom_site_label_2
_geom_bond_distance
_geom_bond_site_symmetry_2
_ccdc_geom_bond_type
C0 C1 1.386 . S
C0 C2 1.397 . S
C0 H24 0.931 . S
C1 C0 1.386 . S
C1 C5 1.397 . S
C2 C0 1.397 . S
C2 C3 1.384 . S
C2 H25 0.930 . S
C3 C2 1.384 . S
C3 C4 1.377 . S
C3 C6 1.481 . S
C4 C3 1.377 . S
C4 C5 1.389 . S
C4 H26 0.929 . S
C5 C1 1.397 . S
C5 C4 1.389 . S
C5 H27 0.931 . S
C6 C3 1.481 . S
C6 C7 1.387 . S
C6 C11 1.390 . S
C7 C6 1.387 . S
C7 C8 1.401 . S
C7 H28 0.930 . S
C8 C7 1.401 . S
C8 C9 1.376 . S
C8 C17 1.511 . S
C9 C8 1.376 . S
C9 C10 1.392 . S
C9 H30 0.931 . S
C10 C9 1.392 . S
C10 C11 1.361 . S
C10 C12 1.500 . S
C11 C6 1.390 . S
C11 C10 1.361 . S
C11 H29 0.931 . S
C12 C10 1.500 . S
C12 C13 1.371 . S
C12 C14 1.365 . S
C13 C12 1.371 . S
C13 C23 1.386 . S
C13 H31 0.931 . S
C14 C12 1.365 . S
C14 C15 1.409 . S
C14 H32 0.929 . S
C15 C14 1.409 . S
C15 C16 1.380 . S
C15 H33 0.930 . S
C16 C15 1.380 . S
C16 C23 1.357 . S
C17 C8 1.511 . S
C17 C18 1.341 . S
C17 C19 1.371 . S
C18 C17 1.341 . S
C18 C22 1.394 . S
C18 H34 0.930 . S
C19 C17 1.371 . S
C19 C20 1.392 . S
C19 H35 0.931 . S
C20 C19 1.392 . S
C20 C21 1.331 . S
C20 H38 0.932 . S
C21 C20 1.331 . S
C21 C22 1.336 . S
C22 C18 1.394 . S
C22 C21 1.336 . S
C22 H37 0.929 . S
C23 C13 1.386 . S
C23 C16 1.357 . S
C23 H36 0.928 . S
H24 C0 0.931 . S
H25 C2 0.930 . S
H26 C4 0.929 . S
H27 C5 0.931 . S
H28 C7 0.930 . S
H29 C11 0.931 . S
H30 C9 0.931 . S
H31 C13 0.931 . S
H32 C14 0.929 . S
H33 C15 0.930 . S
H34 C18 0.930 . S
H35 C19 0.931 . S
H36 C23 0.928 . S
H37 C22 0.929 . S
H38 C20 0.932 . S
C39 C40 1.386 . S
C39 C41 1.397 . S
C39 H63 0.931 . S
C40 C39 1.386 . S
C40 C44 1.397 . S
C41 C39 1.397 . S
C41 C42 1.384 . S
C41 H64 0.930 . S
C42 C41 1.384 . S
C42 C43 1.377 . S
C42 C45 1.481 . S
C43 C42 1.377 . S
C43 C44 1.389 . S
C43 H65 0.929 . S
C44 C40 1.397 . S
C44 C43 1.389 . S
C44 H66 0.931 . S
C45 C42 1.481 . S
C45 C46 1.387 . S
C45 C50 1.390 . S
C46 C45 1.387 . S
C46 C47 1.401 . S
C46 H67 0.930 . S
C47 C46 1.401 . S
C47 C48 1.376 . S
C47 C56 1.511 . S
C48 C47 1.376 . S
C48 C49 1.392 . S
C48 H69 0.931 . S
C49 C48 1.392 . S
C49 C50 1.361 . S
C49 C51 1.500 . S
C50 C45 1.390 . S
C50 C49 1.361 . S
C50 H68 0.931 . S
C51 C49 1.500 . S
C51 C52 1.371 . S
C51 C53 1.365 . S
C52 C51 1.371 . S
C52 C62 1.386 . S
C52 H70 0.931 . S
C53 C51 1.365 . S
C53 C54 1.409 . S
C53 H71 0.929 . S
C54 C53 1.409 . S
C54 C55 1.380 . S
C54 H72 0.930 . S
C55 C54 1.380 . S
C55 C62 1.357 . S
C56 C47 1.511 . S
C56 C57 1.341 . S
C56 C58 1.371 . S
C57 C56 1.341 . S
C57 C61 1.394 . S
C57 H73 0.930 . S
C58 C56 1.371 . S
C58 C59 1.392 . S
C58 H74 0.931 . S
C59 C58 1.392 . S
C59 C60 1.331 . S
C59 H77 0.932 . S
C60 C59 1.331 . S
C60 C61 1.336 . S
C61 C57 1.394 . S
C61 C60 1.336 . S
C61 H76 0.929 . S
C62 C52 1.386 . S
C62 C55 1.357 . S
C62 H75 0.928 . S
H63 C39 0.931 . S
H64 C41 0.930 . S
H65 C43 0.929 . S
H66 C44 0.931 . S
H67 C46 0.930 . S
H68 C50 0.931 . S
H69 C48 0.931 . S
H70 C52 0.931 . S
H71 C53 0.929 . S
H72 C54 0.930 . S
H73 C57 0.930 . S
H74 C58 0.931 . S
H75 C62 0.928 . S
H76 C61 0.929 . S
H77 C59 0.932 . S
C78 C79 1.386 . S
C78 C80 1.397 . S
C78 H102 0.931 1_455 S
C79 C78 1.386 . S
C79 C83 1.397 . S
C80 C78 1.397 . S
C80 C81 1.384 . S
C80 H103 0.930 1_455 S
C81 C80 1.384 . S
C81 C82 1.377 . S
C81 C84 1.481 . S
C82 C81 1.377 . S
C82 C83 1.389 . S
C82 H104 0.929 . S
C83 C79 1.397 . S
C83 C82 1.389 . S
C83 H105 0.931 . S
C84 C81 1.481 . S
C84 C85 1.387 . S
C84 C89 1.390 . S
C85 C84 1.387 . S
C85 C86 1.401 . S
C85 H106 0.930 . S
C86 C85 1.401 . S
C86 C87 1.376 . S
C86 C95 1.511 . S
C87 C86 1.376 . S
C87 C88 1.392 . S
C87 H108 0.931 . S
C88 C87 1.392 . S
C88 C89 1.361 . S
C88 C90 1.500 . S
C89 C84 1.390 . S
C89 C88 1.361 . S
C89 H107 0.931 . S
C90 C88 1.500 . S
C90 C91 1.371 . S
C90 C92 1.365 . S
C91 C90 1.371 . S
C91 C101 1.386 . S
C91 H109 0.943 . S
C92 C90 1.365 . S
C92 C93 1.409 . S
C92 H110 0.929 . S
C93 C92 1.409 . S
C93 C94 1.380 . S
C93 H111 0.930 . S
C94 C93 1.380 . S
C94 C101 1.357 . S
C95 C86 1.511 . S
C95 C96 1.341 . S
C95 C97 1.371 . S
C96 C95 1.341 . S
C96 C100 1.394 . S
C96 H112 0.930 . S
C97 C95 1.371 . S
C97 C98 1.392 . S
C97 H113 0.931 . S
C98 C97 1.392 . S
C98 C99 1.331 . S
C98 H116 0.932 . S
C99 C98 1.331 . S
C99 C100 1.336 . S
C100 C96 1.394 . S
C100 C99 1.336 . S
C100 H115 0.929 . S
C101 C91 1.386 . S
C101 C94 1.357 . S
C101 H114 0.928 . S
H102 C78 0.931 1_655 S
H103 C80 0.930 1_655 S
H104 C82 0.929 . S
H105 C83 0.931 . S
H106 C85 0.930 . S
H107 C89 0.931 . S
H108 C87 0.931 . S
H109 C91 0.943 . S
H110 C92 0.929 . S
H111 C93 0.930 . S
H112 C96 0.930 . S
H113 C97 0.931 . S
H114 C101 0.928 . S
H115 C100 0.929 . S
H116 C98 0.932 . S
C117 C118 1.386 . S
C117 C119 1.397 . S
C117 H141 0.931 . S
C118 C117 1.386 . S
C118 C122 1.397 1_545 S
C119 C117 1.397 . S
C119 C120 1.384 . S
C119 H142 0.930 . S
C120 C119 1.384 . S
C120 C121 1.377 1_545 S
C120 C123 1.481 . S
C121 C120 1.377 1_565 S
C121 C122 1.389 . S
C121 H143 0.929 . S
C122 C118 1.397 1_565 S
C122 C121 1.389 . S
C122 H144 0.931 . S
C123 C120 1.481 . S
C123 C124 1.387 . S
C123 C128 1.390 . S
C124 C123 1.387 . S
C124 C125 1.401 . S
C124 H145 0.930 . S
C125 C124 1.401 . S
C125 C126 1.376 . S
C125 C134 1.511 . S
C126 C125 1.376 . S
C126 C127 1.392 . S
C126 H147 0.931 . S
C127 C126 1.392 . S
C127 C128 1.361 . S
C127 C129 1.500 . S
C128 C123 1.390 . S
C128 C127 1.361 . S
C128 H146 0.931 . S
C129 C127 1.500 . S
C129 C130 1.371 . S
C129 C131 1.365 1_545 S
C130 C129 1.371 . S
C130 C140 1.386 . S
C130 H148 0.931 . S
C131 C129 1.365 1_565 S
C131 C132 1.409 . S
C131 H149 0.929 . S
C132 C131 1.409 . S
C132 C133 1.380 1_565 S
C132 H150 0.930 . S
C133 C132 1.380 1_545 S
C133 C140 1.357 . S
C134 C125 1.511 . S
C134 C135 1.341 . S
C134 C136 1.371 1_545 S
C135 C134 1.341 . S
C135 C139 1.394 . S
C135 H151 0.930 . S
C136 C134 1.371 1_565 S
C136 C137 1.392 . S
C136 H152 0.931 . S
C137 C136 1.392 . S
C137 C138 1.331 1_565 S
C137 H155 0.932 . S
C138 C137 1.331 1_545 S
C138 C139 1.336 . S
C139 C135 1.394 . S
C139 C138 1.336 . S
C139 H154 0.929 . S
C140 C130 1.386 . S
C140 C133 1.357 . S
C140 H153 0.928 . S
H141 C117 0.931 . S
H142 C119 0.930 . S
H143 C121 0.929 . S
H144 C122 0.931 . S
H145 C124 0.930 . S
H146 C128 0.931 . S
H147 C126 0.931 . S
H148 C130 0.931 . S
H149 C131 0.929 . S
H150 C132 0.930 . S
H151 C135 0.930 . S
H152 C136 0.931 . S
H153 C140 0.928 . S
H154 C139 0.929 . S
H155 C137 0.932 . S
C156 C157 1.384 . S
C156 C158 1.397 . S
C156 H180 0.931 . S
C157 C156 1.384 . S
C157 C161 1.400 1_655 S
C158 C156 1.397 . S
C158 C159 1.384 1_655 S
C158 H181 0.930 . S
C159 C158 1.384 1_455 S
C159 C160 1.377 . S
C159 C162 1.480 1_455 S
C160 C159 1.377 . S
C160 C161 1.389 . S
C160 H182 0.929 . S
C161 C157 1.400 1_455 S
C161 C160 1.389 . S
C161 H183 0.931 . S
C162 C159 1.480 1_655 S
C162 C163 1.388 . S
C162 C167 1.390 . S
C163 C162 1.388 . S
C163 C164 1.402 . S
C163 H184 0.930 . S
C164 C163 1.402 . S
C164 C165 1.376 . S
C164 C173 1.512 . S
C165 C164 1.376 . S
C165 C166 1.392 1_655 S
C165 H186 0.933 . S
C166 C165 1.392 1_455 S
C166 C167 1.361 1_455 S
C166 C168 1.499 . S
C167 C162 1.390 . S
C167 C166 1.361 1_655 S
C167 H185 0.931 1_655 S
C168 C166 1.499 . S
C168 C169 1.354 1_455 S
C168 C170 1.384 . S
C169 C168 1.354 1_655 S
C169 C179 1.386 . S
C169 H187 0.931 . S
C170 C168 1.384 . S
C170 C171 1.409 . S
C170 H188 0.929 . S
C171 C170 1.409 . S
C171 C172 1.387 . S
C171 H189 0.930 . S
C172 C171 1.387 . S
C172 C179 1.350 1_455 S
C173 C164 1.512 . S
C173 C174 1.341 . S
C173 C175 1.371 1_655 S
C174 C173 1.341 . S
C174 C178 1.394 . S
C174 H190 0.930 . S
C175 C173 1.371 1_455 S
C175 C176 1.392 . S
C175 H191 0.931 . S
C176 C175 1.392 . S
C176 C177 1.326 1_455 S
C176 H194 0.932 . S
C177 C176 1.326 1_655 S
C177 C178 1.341 . S
C178 C174 1.394 . S
C178 C177 1.341 . S
C178 H193 0.929 . S
C179 C169 1.386 . S
C179 C172 1.350 1_655 S
C179 H192 0.928 . S
H180 C156 0.931 . S
H181 C158 0.930 . S
H182 C160 0.929 . S
H183 C161 0.931 . S
H184 C163 0.930 . S
H185 C167 0.931 1_455 S
H186 C165 0.933 . S
H187 C169 0.931 . S
H188 C170 0.929 . S
H189 C171 0.930 . S
H190 C174 0.930 . S
H191 C175 0.931 . S
H192 C179 0.928 . S
H193 C178 0.929 . S
H194 C176 0.932 . S
C195 C196 1.386 1_565 S
C195 C197 1.397 . S
C195 H219 0.931 . S
C196 C195 1.386 1_545 S
C196 C200 1.397 . S
C197 C195 1.397 . S
C197 C198 1.384 1_565 S
C197 H220 0.930 . S
C198 C197 1.384 1_545 S
C198 C199 1.377 . S
C198 C201 1.481 . S
C199 C198 1.377 . S
C199 C200 1.389 . S
C199 H221 0.929 . S
C200 C196 1.397 . S
C200 C199 1.389 . S
C200 H222 0.931 . S
C201 C198 1.481 . S
C201 C202 1.387 . S
C201 C206 1.390 . S
C202 C201 1.387 . S
C202 C203 1.401 . S
C202 H223 0.930 . S
C203 C202 1.401 . S
C203 C204 1.376 . S
C203 C212 1.511 . S
C204 C203 1.376 . S
C204 C205 1.392 . S
C204 H225 0.931 . S
C205 C204 1.392 . S
C205 C206 1.361 . S
C205 C207 1.500 . S
C206 C201 1.390 . S
C206 C205 1.361 . S
C206 H224 0.931 . S
C207 C205 1.500 . S
C207 C208 1.371 1_545 S
C207 C209 1.365 . S
C208 C207 1.371 1_565 S
C208 C218 1.386 . S
C208 H226 0.931 . S
C209 C207 1.365 . S
C209 C210 1.409 . S
C209 H227 0.929 . S
C210 C209 1.409 . S
C210 C211 1.380 . S
C210 H228 0.930 . S
C211 C210 1.380 . S
C211 C218 1.357 1_545 S
C212 C203 1.511 . S
C212 C213 1.341 1_545 S
C212 C214 1.371 . S
C213 C212 1.341 1_565 S
C213 C217 1.394 . S
C213 H229 0.930 . S
C214 C212 1.371 . S
C214 C215 1.392 . S
C214 H230 0.931 . S
C215 C214 1.392 . S
C215 C216 1.331 . S
C215 H233 0.932 . S
C216 C215 1.331 . S
C216 C217 1.336 1_545 S
C217 C213 1.394 . S
C217 C216 1.336 1_565 S
C217 H232 0.929 . S
C218 C208 1.386 . S
C218 C211 1.357 1_565 S
C218 H231 0.928 . S
H219 C195 0.931 . S
H220 C197 0.930 . S
H221 C199 0.929 . S
H222 C200 0.931 . S
H223 C202 0.930 . S
H224 C206 0.931 . S
H225 C204 0.931 . S
H226 C208 0.931 . S
H227 C209 0.929 . S
H228 C210 0.930 . S
H229 C213 0.930 . S
H230 C214 0.931 . S
H231 C218 0.928 . S
H232 C217 0.929 . S
H233 C215 0.932 . S
C234 C235 1.386 . S
C234 C236 1.397 . S
C234 H258 0.931 1_455 S
C235 C234 1.386 . S
C235 C239 1.397 . S
C236 C234 1.397 . S
C236 C237 1.384 . S
C236 H259 0.930 1_455 S
C237 C236 1.384 . S
C237 C238 1.377 . S
C237 C240 1.481 . S
C238 C237 1.377 . S
C238 C239 1.389 . S
C238 H260 0.929 . S
C239 C235 1.397 . S
C239 C238 1.389 . S
C239 H261 0.931 . S
C240 C237 1.481 . S
C240 C241 1.387 . S
C240 C245 1.390 . S
C241 C240 1.387 . S
C241 C242 1.401 . S
C241 H262 0.930 . S
C242 C241 1.401 . S
C242 C243 1.376 . S
C242 C251 1.511 . S
C243 C242 1.376 . S
C243 C244 1.392 . S
C243 H264 0.931 . S
C244 C243 1.392 . S
C244 C245 1.361 . S
C244 C246 1.500 . S
C245 C240 1.390 . S
C245 C244 1.361 . S
C245 H263 0.931 . S
C246 C244 1.500 . S
C246 C247 1.371 . S
C246 C248 1.365 . S
C247 C246 1.371 . S
C247 C257 1.386 . S
C247 H265 0.941 . S
C248 C246 1.365 . S
C248 C249 1.409 . S
C248 H266 0.929 . S
C249 C248 1.409 . S
C249 C250 1.380 . S
C249 H267 0.930 . S
C250 C249 1.380 . S
C250 C257 1.357 . S
C251 C242 1.511 . S
C251 C252 1.341 . S
C251 C253 1.371 . S
C252 C251 1.341 . S
C252 C256 1.394 . S
C252 H268 0.930 . S
C253 C251 1.371 . S
C253 C254 1.392 . S
C253 H269 0.931 . S
C254 C253 1.392 . S
C254 C255 1.331 . S
C254 H272 0.932 . S
C255 C254 1.331 . S
C255 C256 1.336 . S
C256 C252 1.394 . S
C256 C255 1.336 . S
C256 H271 0.929 . S
C257 C247 1.386 . S
C257 C250 1.357 . S
C257 H270 0.928 . S
H258 C234 0.931 1_655 S
H259 C236 0.930 1_655 S
H260 C238 0.929 . S
H261 C239 0.931 . S
H262 C241 0.930 . S
H263 C245 0.931 . S
H264 C243 0.931 . S
H265 C247 0.941 . S
H266 C248 0.929 . S
H267 C249 0.930 . S
H268 C252 0.930 . S
H269 C253 0.931 . S
H270 C257 0.928 . S
H271 C256 0.929 . S
H272 C254 0.932 . S
C273 C274 1.386 . S
C273 C275 1.397 . S
C273 H297 0.931 . S
C274 C273 1.386 . S
C274 C278 1.397 . S
C275 C273 1.397 . S
C275 C276 1.384 . S
C275 H298 0.930 . S
C276 C275 1.384 . S
C276 C277 1.377 . S
C276 C279 1.481 . S
C277 C276 1.377 . S
C277 C278 1.389 . S
C277 H299 0.929 . S
C278 C274 1.397 . S
C278 C277 1.389 . S
C278 H300 0.931 . S
C279 C276 1.481 . S
C279 C280 1.387 . S
C279 C284 1.390 . S
C280 C279 1.387 . S
C280 C281 1.401 . S
C280 H301 0.930 . S
C281 C280 1.401 . S
C281 C282 1.376 . S
C281 C290 1.511 . S
C282 C281 1.376 . S
C282 C283 1.392 . S
C282 H303 0.931 . S
C283 C282 1.392 . S
C283 C284 1.361 . S
C283 C285 1.500 . S
C284 C279 1.390 . S
C284 C283 1.361 . S
C284 H302 0.931 . S
C285 C283 1.500 . S
C285 C286 1.371 . S
C285 C287 1.365 . S
C286 C285 1.371 . S
C286 C296 1.386 . S
C286 H304 0.931 . S
C287 C285 1.365 . S
C287 C288 1.409 . S
C287 H305 0.929 . S
C288 C287 1.409 . S
C288 C289 1.380 . S
C288 H306 0.930 . S
C289 C288 1.380 . S
C289 C296 1.357 . S
C290 C281 1.511 . S
C290 C291 1.341 . S
C290 C292 1.371 . S
C291 C290 1.341 . S
C291 C295 1.394 . S
C291 H307 0.930 . S
C292 C290 1.371 . S
C292 C293 1.392 . S
C292 H308 0.931 . S
C293 C292 1.392 . S
C293 C294 1.331 . S
C293 H311 0.932 . S
C294 C293 1.331 . S
C294 C295 1.336 . S
C295 C291 1.394 . S
C295 C294 1.336 . S
C295 H310 0.929 . S
C296 C286 1.386 . S
C296 C289 1.357 . S
C296 H309 0.928 . S
H297 C273 0.931 . S
H298 C275 0.930 . S
H299 C277 0.929 . S
H300 C278 0.931 . S
H301 C280 0.930 . S
H302 C284 0.931 . S
H303 C282 0.931 . S
H304 C286 0.931 . S
H305 C287 0.929 . S
H306 C288 0.930 . S
H307 C291 0.930 . S
H308 C292 0.931 . S
H309 C296 0.928 . S
H310 C295 0.929 . S
H311 C293 0.932 . S
C312 C313 1.386 . S
C312 C314 1.397 . S
C312 H336 0.931 1_554 S
C313 C312 1.386 . S
C313 C317 1.397 . S
C314 C312 1.397 . S
C314 C315 1.384 . S
C314 H337 0.930 1_554 S
C315 C314 1.384 . S
C315 C316 1.377 . S
C315 C318 1.481 . S
C316 C315 1.377 . S
C316 C317 1.389 . S
C316 H338 0.929 . S
C317 C313 1.397 . S
C317 C316 1.389 . S
C317 H339 0.931 . S
C318 C315 1.481 . S
C318 C319 1.387 . S
C318 C323 1.390 . S
C319 C318 1.387 . S
C319 C320 1.401 . S
C319 H340 0.930 . S
C320 C319 1.401 . S
C320 C321 1.376 . S
C320 C329 1.511 . S
C321 C320 1.376 . S
C321 C322 1.392 . S
C321 H342 0.931 . S
C322 C321 1.392 . S
C322 C323 1.361 . S
C322 C324 1.500 . S
C323 C318 1.390 . S
C323 C322 1.361 . S
C323 H341 0.931 . S
C324 C322 1.500 . S
C324 C325 1.371 . S
C324 C326 1.365 . S
C325 C324 1.371 . S
C325 C335 1.386 . S
C325 H343 0.931 1_554 S
C326 C324 1.365 . S
C326 C327 1.409 . S
C326 H344 0.929 . S
C327 C326 1.409 . S
C327 C328 1.380 . S
C327 H345 0.930 . S
C328 C327 1.380 . S
C328 C335 1.357 . S
C329 C320 1.511 . S
C329 C330 1.341 . S
C329 C331 1.371 . S
C330 C329 1.341 . S
C330 C334 1.394 . S
C330 H346 0.930 . S
C331 C329 1.371 . S
C331 C332 1.392 . S
C331 H347 0.931 . S
C332 C331 1.392 . S
C332 C333 1.331 . S
C332 H350 0.932 . S
C333 C332 1.331 . S
C333 C334 1.336 . S
C334 C330 1.394 . S
C334 C333 1.336 . S
C334 H349 0.929 . S
C335 C325 1.386 . S
C335 C328 1.357 . S
C335 H348 0.928 1_554 S
H336 C312 0.931 1_556 S
H337 C314 0.930 1_556 S
H338 C316 0.929 . S
H339 C317 0.931 . S
H340 C319 0.930 . S
H341 C323 0.931 . S
H342 C321 0.931 . S
H343 C325 0.931 1_556 S
H344 C326 0.929 . S
H345 C327 0.930 . S
H346 C330 0.930 . S
H347 C331 0.931 . S
H348 C335 0.928 1_556 S
H349 C334 0.929 . S
H350 C332 0.932 . S
C351 C352 1.386 . S
C351 C353 1.397 . S
C351 H375 0.931 . S
C352 C351 1.386 . S
C352 C356 1.397 1_554 S
C353 C351 1.397 . S
C353 C354 1.384 . S
C353 H376 0.930 . S
C354 C353 1.384 . S
C354 C355 1.377 1_554 S
C354 C357 1.481 . S
C355 C354 1.377 1_556 S
C355 C356 1.389 . S
C355 H377 0.929 . S
C356 C352 1.397 1_556 S
C356 C355 1.389 . S
C356 H378 0.931 . S
C357 C354 1.481 . S
C357 C358 1.387 . S
C357 C362 1.390 . S
C358 C357 1.387 . S
C358 C359 1.401 . S
C358 H379 0.930 . S
C359 C358 1.401 . S
C359 C360 1.376 . S
C359 C368 1.511 . S
C360 C359 1.376 . S
C360 C361 1.392 . S
C360 H381 0.931 . S
C361 C360 1.392 . S
C361 C362 1.361 . S
C361 C363 1.500 . S
C362 C357 1.390 . S
C362 C361 1.361 . S
C362 H380 0.931 . S
C363 C361 1.500 . S
C363 C364 1.371 . S
C363 C365 1.365 . S
C364 C363 1.371 . S
C364 C374 1.386 . S
C364 H382 0.931 . S
C365 C363 1.365 . S
C365 C366 1.409 . S
C365 H383 0.929 1_554 S
C366 C365 1.409 . S
C366 C367 1.380 . S
C366 H384 0.930 1_554 S
C367 C366 1.380 . S
C367 C374 1.357 . S
C368 C359 1.511 . S
C368 C369 1.341 . S
C368 C370 1.371 . S
C369 C368 1.341 . S
C369 C373 1.394 . S
C369 H385 0.930 . S
C370 C368 1.371 . S
C370 C371 1.392 . S
C370 H386 0.931 . S
C371 C370 1.392 . S
C371 C372 1.331 . S
C371 H389 0.932 . S
C372 C371 1.331 . S
C372 C373 1.336 . S
C373 C369 1.394 . S
C373 C372 1.336 . S
C373 H388 0.929 . S
C374 C364 1.386 . S
C374 C367 1.357 . S
C374 H387 0.928 . S
H375 C351 0.931 . S
H376 C353 0.930 . S
H377 C355 0.929 . S
H378 C356 0.931 . S
H379 C358 0.930 . S
H380 C362 0.931 . S
H381 C360 0.931 . S
H382 C364 0.931 . S
H383 C365 0.929 1_556 S
H384 C366 0.930 1_556 S
H385 C369 0.930 . S
H386 C370 0.931 . S
H387 C374 0.928 . S
H388 C373 0.929 . S
H389 C371 0.932 . S
C390 C391 1.386 1_556 S
C390 C392 1.397 . S
C390 H414 0.931 . S
C391 C390 1.386 1_554 S
C391 C395 1.397 . S
C392 C390 1.397 . S
C392 C393 1.384 1_556 S
C392 H415 0.930 . S
C393 C392 1.384 1_554 S
C393 C394 1.377 . S
C393 C396 1.481 . S
C394 C393 1.377 . S
C394 C395 1.389 . S
C394 H416 0.929 . S
C395 C391 1.397 . S
C395 C394 1.389 . S
C395 H417 0.931 . S
C396 C393 1.481 . S
C396 C397 1.387 . S
C396 C401 1.390 . S
C397 C396 1.387 . S
C397 C398 1.401 . S
C397 H418 0.930 1_554 S
C398 C397 1.401 . S
C398 C399 1.376 . S
C398 C407 1.512 . S
C399 C398 1.376 . S
C399 C400 1.392 . S
C399 H420 0.932 . S
C400 C399 1.392 . S
C400 C401 1.361 . S
C400 C402 1.500 . S
C401 C396 1.390 . S
C401 C400 1.361 . S
C401 H419 0.931 . S
C402 C400 1.500 . S
C402 C403 1.371 1_554 S
C402 C404 1.365 . S
C403 C402 1.371 1_556 S
C403 C413 1.386 . S
C403 H421 0.931 . S
C404 C402 1.365 . S
C404 C405 1.409 . S
C404 H422 0.929 . S
C405 C404 1.409 . S
C405 C406 1.380 . S
C405 H423 0.930 . S
C406 C405 1.380 . S
C406 C413 1.357 1_554 S
C407 C398 1.512 . S
C407 C408 1.337 1_554 S
C407 C409 1.376 . S
C408 C407 1.337 1_556 S
C408 C412 1.394 . S
C408 H424 0.930 . S
C409 C407 1.376 . S
C409 C410 1.392 . S
C409 H425 0.931 . S
C410 C409 1.392 . S
C410 C411 1.331 . S
C410 H428 0.932 . S
C411 C410 1.331 . S
C411 C412 1.336 1_554 S
C412 C408 1.394 . S
C412 C411 1.336 1_556 S
C412 H427 0.929 . S
C413 C403 1.386 . S
C413 C406 1.357 1_556 S
C413 H426 0.928 . S
H414 C390 0.931 . S
H415 C392 0.930 . S
H416 C394 0.929 . S
H417 C395 0.931 . S
H418 C397 0.930 1_556 S
H419 C401 0.931 . S
H420 C399 0.932 . S
H421 C403 0.931 . S
H422 C404 0.929 . S
H423 C405 0.930 . S
H424 C408 0.930 . S
H425 C409 0.931 . S
H426 C413 0.928 . S
H427 C412 0.929 . S
H428 C410 0.932 . S
C429 C430 1.386 . S
C429 C431 1.397 . S
C429 H453 0.931 . S
C430 C429 1.386 . S
C430 C434 1.397 1_554 S
C431 C429 1.397 . S
C431 C432 1.384 . S
C431 H454 0.930 . S
C432 C431 1.384 . S
C432 C433 1.377 1_554 S
C432 C435 1.481 . S
C433 C432 1.377 1_556 S
C433 C434 1.389 . S
C433 H455 0.929 . S
C434 C430 1.397 1_556 S
C434 C433 1.389 . S
C434 H456 0.931 . S
C435 C432 1.481 . S
C435 C436 1.387 . S
C435 C440 1.390 . S
C436 C435 1.387 . S
C436 C437 1.401 . S
C436 H457 0.930 . S
C437 C436 1.401 . S
C437 C438 1.376 . S
C437 C446 1.511 . S
C438 C437 1.376 . S
C438 C439 1.392 . S
C438 H459 0.931 . S
C439 C438 1.392 . S
C439 C440 1.361 . S
C439 C441 1.500 . S
C440 C435 1.390 . S
C440 C439 1.361 . S
C440 H458 0.931 . S
C441 C439 1.500 . S
C441 C442 1.371 . S
C441 C443 1.365 1_554 S
C442 C441 1.371 . S
C442 C452 1.386 . S
C442 H460 0.931 . S
C443 C441 1.365 1_556 S
C443 C444 1.409 . S
C443 H461 0.929 . S
C444 C443 1.409 . S
C444 C445 1.380 1_556 S
C444 H462 0.930 . S
C445 C444 1.380 1_554 S
C445 C452 1.357 . S
C446 C437 1.511 . S
C446 C447 1.341 . S
C446 C448 1.371 1_554 S
C447 C446 1.341 . S
C447 C451 1.394 . S
C447 H463 0.930 . S
C448 C446 1.371 1_556 S
C448 C449 1.392 . S
C448 H464 0.931 . S
C449 C448 1.392 . S
C449 C450 1.331 1_556 S
C449 H467 0.932 . S
C450 C449 1.331 1_554 S
C450 C451 1.336 . S
C451 C447 1.394 . S
C451 C450 1.336 . S
C451 H466 0.929 . S
C452 C442 1.386 . S
C452 C445 1.357 . S
C452 H465 0.928 . S
H453 C429 0.931 . S
H454 C431 0.930 . S
H455 C433 0.929 . S
H456 C434 0.931 . S
H457 C436 0.930 . S
H458 C440 0.931 . S
H459 C438 0.931 . S
H460 C442 0.931 . S
H461 C443 0.929 . S
H462 C444 0.930 . S
H463 C447 0.930 . S
H464 C448 0.931 . S
H465 C452 0.928 . S
H466 C451 0.929 . S
H467 C449 0.932 . S
C468 C469 1.386 . S
C468 C470 1.397 . S
C468 H492 0.931 . S
C469 C468 1.386 . S
C469 C473 1.397 . S
C470 C468 1.397 . S
C470 C471 1.384 . S
C470 H493 0.930 . S
C471 C470 1.384 . S
C471 C472 1.377 . S
C471 C474 1.481 . S
C472 C471 1.377 . S
C472 C473 1.389 . S
C472 H494 0.929 . S
C473 C469 1.397 . S
C473 C472 1.389 . S
C473 H495 0.931 . S
C474 C471 1.481 . S
C474 C475 1.387 . S
C474 C479 1.390 . S
C475 C474 1.387 . S
C475 C476 1.401 . S
C475 H496 0.930 . S
C476 C475 1.401 . S
C476 C477 1.376 . S
C476 C485 1.511 . S
C477 C476 1.376 . S
C477 C478 1.392 . S
C477 H498 0.931 . S
C478 C477 1.392 . S
C478 C479 1.361 . S
C478 C480 1.500 . S
C479 C474 1.390 . S
C479 C478 1.361 . S
C479 H497 0.931 . S
C480 C478 1.500 . S
C480 C481 1.371 . S
C480 C482 1.365 . S
C481 C480 1.371 . S
C481 C491 1.386 . S
C481 H499 0.931 . S
C482 C480 1.365 . S
C482 C483 1.409 . S
C482 H500 0.929 . S
C483 C482 1.409 . S
C483 C484 1.380 . S
C483 H501 0.930 . S
C484 C483 1.380 . S
C484 C491 1.357 . S
C485 C476 1.511 . S
C485 C486 1.341 . S
C485 C487 1.371 . S
C486 C485 1.341 . S
C486 C490 1.394 . S
C486 H502 0.930 . S
C487 C485 1.371 . S
C487 C488 1.392 . S
C487 H503 0.931 . S
C488 C487 1.392 . S
C488 C489 1.331 . S
C488 H506 0.932 . S
C489 C488 1.331 . S
C489 C490 1.336 . S
C490 C486 1.394 . S
C490 C489 1.336 . S
C490 H505 0.929 . S
C491 C481 1.386 . S
C491 C484 1.357 . S
C491 H504 0.928 . S
H492 C468 0.931 . S
H493 C470 0.930 . S
H494 C472 0.929 . S
H495 C473 0.931 . S
H496 C475 0.930 . S
H497 C479 0.931 . S
H498 C477 0.931 . S
H499 C481 0.931 . S
H500 C482 0.929 . S
H501 C483 0.930 . S
H502 C486 0.930 . S
H503 C487 0.931 . S
H504 C491 0.928 . S
H505 C490 0.929 . S
H506 C488 0.932 . S
C507 C508 1.386 . S
C507 C509 1.397 . S
C507 H531 0.931 . S
C508 C507 1.386 . S
C508 C512 1.397 . S
C509 C507 1.397 . S
C509 C510 1.384 . S
C509 H532 0.930 . S
C510 C509 1.384 . S
C510 C511 1.377 . S
C510 C513 1.481 . S
C511 C510 1.377 . S
C511 C512 1.389 . S
C511 H533 0.929 . S
C512 C508 1.397 . S
C512 C511 1.389 . S
C512 H534 0.931 . S
C513 C510 1.481 . S
C513 C514 1.387 . S
C513 C518 1.390 . S
C514 C513 1.387 . S
C514 C515 1.401 . S
C514 H535 0.930 . S
C515 C514 1.401 . S
C515 C516 1.376 . S
C515 C524 1.511 . S
C516 C515 1.376 . S
C516 C517 1.392 . S
C516 H537 0.931 . S
C517 C516 1.392 . S
C517 C518 1.361 . S
C517 C519 1.500 . S
C518 C513 1.390 . S
C518 C517 1.361 . S
C518 H536 0.931 . S
C519 C517 1.500 . S
C519 C520 1.371 . S
C519 C521 1.365 . S
C520 C519 1.371 . S
C520 C530 1.386 . S
C520 H538 0.931 . S
C521 C519 1.365 . S
C521 C522 1.409 . S
C521 H539 0.929 . S
C522 C521 1.409 . S
C522 C523 1.380 . S
C522 H540 0.930 . S
C523 C522 1.380 . S
C523 C530 1.357 . S
C524 C515 1.511 . S
C524 C525 1.341 . S
C524 C526 1.371 . S
C525 C524 1.341 . S
C525 C529 1.394 . S
C525 H541 0.930 . S
C526 C524 1.371 . S
C526 C527 1.392 . S
C526 H542 0.931 . S
C527 C526 1.392 . S
C527 C528 1.331 . S
C527 H545 0.932 . S
C528 C527 1.331 . S
C528 C529 1.336 . S
C529 C525 1.394 . S
C529 C528 1.336 . S
C529 H544 0.929 . S
C530 C520 1.386 . S
C530 C523 1.357 . S
C530 H543 0.928 . S
H531 C507 0.931 . S
H532 C509 0.930 . S
H533 C511 0.929 . S
H534 C512 0.931 . S
H535 C514 0.930 . S
H536 C518 0.931 . S
H537 C516 0.931 . S
H538 C520 0.931 . S
H539 C521 0.929 . S
H540 C522 0.930 . S
H541 C525 0.930 . S
H542 C526 0.931 . S
H543 C530 0.928 . S
H544 C529 0.929 . S
H545 C527 0.932 . S
C546 C547 1.386 . S
C546 C548 1.397 . S
C546 H570 0.931 . S
C547 C546 1.386 . S
C547 C551 1.397 . S
C548 C546 1.397 . S
C548 C549 1.384 . S
C548 H571 0.930 . S
C549 C548 1.384 . S
C549 C550 1.377 . S
C549 C552 1.481 . S
C550 C549 1.377 . S
C550 C551 1.389 . S
C550 H572 0.929 . S
C551 C547 1.397 . S
C551 C550 1.389 . S
C551 H573 0.931 . S
C552 C549 1.481 . S
C552 C553 1.387 . S
C552 C557 1.390 . S
C553 C552 1.387 . S
C553 C554 1.401 . S
C553 H574 0.930 . S
C554 C553 1.401 . S
C554 C555 1.376 . S
C554 C563 1.511 . S
C555 C554 1.376 . S
C555 C556 1.392 . S
C555 H576 0.931 . S
C556 C555 1.392 . S
C556 C557 1.361 . S
C556 C558 1.500 . S
C557 C552 1.390 . S
C557 C556 1.361 . S
C557 H575 0.931 . S
C558 C556 1.500 . S
C558 C559 1.371 . S
C558 C560 1.365 . S
C559 C558 1.371 . S
C559 C569 1.386 . S
C559 H577 0.931 . S
C560 C558 1.365 . S
C560 C561 1.409 . S
C560 H578 0.929 . S
C561 C560 1.409 . S
C561 C562 1.380 . S
C561 H579 0.930 . S
C562 C561 1.380 . S
C562 C569 1.357 . S
C563 C554 1.511 . S
C563 C564 1.341 . S
C563 C565 1.371 . S
C564 C563 1.341 . S
C564 C568 1.394 . S
C564 H580 0.930 . S
C565 C563 1.371 . S
C565 C566 1.392 . S
C565 H581 0.931 . S
C566 C565 1.392 . S
C566 C567 1.331 . S
C566 H584 0.932 . S
C567 C566 1.331 . S
C567 C568 1.336 . S
C568 C564 1.394 . S
C568 C567 1.336 . S
C568 H583 0.929 . S
C569 C559 1.386 . S
C569 C562 1.357 . S
C569 H582 0.928 . S
H570 C546 0.931 . S
H571 C548 0.930 . S
H572 C550 0.929 . S
H573 C551 0.931 . S
H574 C553 0.930 . S
H575 C557 0.931 . S
H576 C555 0.931 . S
H577 C559 0.931 . S
H578 C560 0.929 . S
H579 C561 0.930 . S
H580 C564 0.930 . S
H581 C565 0.931 . S
H582 C569 0.928 . S
H583 C568 0.929 . S
H584 C566 0.932 . S
C585 C586 1.386 . S
C585 C587 1.397 . S
C585 H609 0.931 . S
C586 C585 1.386 . S
C586 C590 1.397 . S
C587 C585 1.397 . S
C587 C588 1.384 . S
C587 H610 0.930 . S
C588 C587 1.384 . S
C588 C589 1.377 . S
C588 C591 1.481 . S
C589 C588 1.377 . S
C589 C590 1.389 . S
C589 H611 0.929 . S
C590 C586 1.397 . S
C590 C589 1.389 . S
C590 H612 0.931 . S
C591 C588 1.481 . S
C591 C592 1.387 . S
C591 C596 1.390 . S
C592 C591 1.387 . S
C592 C593 1.401 . S
C592 H613 0.930 . S
C593 C592 1.401 . S
C593 C594 1.376 . S
C593 C602 1.511 . S
C594 C593 1.376 . S
C594 C595 1.392 . S
C594 H615 0.931 . S
C595 C594 1.392 . S
C595 C596 1.361 . S
C595 C597 1.500 . S
C596 C591 1.390 . S
C596 C595 1.361 . S
C596 H614 0.931 . S
C597 C595 1.500 . S
C597 C598 1.371 . S
C597 C599 1.365 . S
C598 C597 1.371 . S
C598 C608 1.386 . S
C598 H616 0.931 . S
C599 C597 1.365 . S
C599 C600 1.409 . S
C599 H617 0.929 . S
C600 C599 1.409 . S
C600 C601 1.380 . S
C600 H618 0.930 . S
C601 C600 1.380 . S
C601 C608 1.357 . S
C602 C593 1.511 . S
C602 C603 1.341 . S
C602 C604 1.371 . S
C603 C602 1.341 . S
C603 C607 1.394 . S
C603 H619 0.930 . S
C604 C602 1.371 . S
C604 C605 1.392 . S
C604 H620 0.931 . S
C605 C604 1.392 . S
C605 C606 1.331 . S
C605 H623 0.932 . S
C606 C605 1.331 . S
C606 C607 1.336 . S
C607 C603 1.394 . S
C607 C606 1.336 . S
C607 H622 0.929 . S
C608 C598 1.386 . S
C608 C601 1.357 . S
C608 H621 0.928 . S
H609 C585 0.931 . S
H610 C587 0.930 . S
H611 C589 0.929 . S
H612 C590 0.931 . S
H613 C592 0.930 . S
H614 C596 0.931 . S
H615 C594 0.931 . S
H616 C598 0.931 . S
H617 C599 0.929 . S
H618 C600 0.930 . S
H619 C603 0.930 . S
H620 C604 0.931 . S
H621 C608 0.928 . S
H622 C607 0.929 . S
H623 C605 0.932 . S
C624 C625 1.386 . S
C624 C626 1.397 . S
C624 H648 0.931 . S
C625 C624 1.386 . S
C625 C629 1.397 . S
C626 C624 1.397 . S
C626 C627 1.384 . S
C626 H649 0.930 . S
C627 C626 1.384 . S
C627 C628 1.377 . S
C627 C630 1.481 . S
C628 C627 1.377 . S
C628 C629 1.389 . S
C628 H650 0.929 . S
C629 C625 1.397 . S
C629 C628 1.389 . S
C629 H651 0.931 . S
C630 C627 1.481 . S
C630 C631 1.387 . S
C630 C635 1.390 . S
C631 C630 1.387 . S
C631 C632 1.401 . S
C631 H652 0.930 . S
C632 C631 1.401 . S
C632 C633 1.376 . S
C632 C641 1.511 . S
C633 C632 1.376 . S
C633 C634 1.392 . S
C633 H654 0.931 . S
C634 C633 1.392 . S
C634 C635 1.361 . S
C634 C636 1.500 . S
C635 C630 1.390 . S
C635 C634 1.361 . S
C635 H653 0.931 . S
C636 C634 1.500 . S
C636 C637 1.371 . S
C636 C638 1.365 . S
C637 C636 1.371 . S
C637 C647 1.386 . S
C637 H655 0.931 . S
C638 C636 1.365 . S
C638 C639 1.409 . S
C638 H656 0.929 . S
C639 C638 1.409 . S
C639 C640 1.380 . S
C639 H657 0.930 . S
C640 C639 1.380 . S
C640 C647 1.357 . S
C641 C632 1.511 . S
C641 C642 1.341 . S
C641 C643 1.371 . S
C642 C641 1.341 . S
C642 C646 1.394 . S
C642 H658 0.930 . S
C643 C641 1.371 . S
C643 C644 1.392 . S
C643 H659 0.931 . S
C644 C643 1.392 . S
C644 C645 1.331 . S
C644 H662 0.932 . S
C645 C644 1.331 . S
C645 C646 1.336 . S
C646 C642 1.394 . S
C646 C645 1.336 . S
C646 H661 0.929 . S
C647 C637 1.386 . S
C647 C640 1.357 . S
C647 H660 0.928 . S
H648 C624 0.931 . S
H649 C626 0.930 . S
H650 C628 0.929 . S
H651 C629 0.931 . S
H652 C631 0.930 . S
H653 C635 0.931 . S
H654 C633 0.931 . S
H655 C637 0.931 . S
H656 C638 0.929 . S
H657 C639 0.930 . S
H658 C642 0.930 . S
H659 C643 0.931 . S
H660 C647 0.928 . S
H661 C646 0.929 . S
H662 C644 0.932 . S
C663 C664 1.386 . S
C663 C665 1.397 . S
C663 H687 0.931 . S
C664 C663 1.386 . S
C664 C668 1.397 . S
C665 C663 1.397 . S
C665 C666 1.384 . S
C665 H688 0.930 . S
C666 C665 1.384 . S
C666 C667 1.377 . S
C666 C669 1.481 . S
C667 C666 1.377 . S
C667 C668 1.389 . S
C667 H689 0.929 . S
C668 C664 1.397 . S
C668 C667 1.389 . S
C668 H690 0.931 . S
C669 C666 1.481 . S
C669 C670 1.387 . S
C669 C674 1.390 . S
C670 C669 1.387 . S
C670 C671 1.401 . S
C670 H691 0.930 . S
C671 C670 1.401 . S
C671 C672 1.376 . S
C671 C680 1.511 . S
C672 C671 1.376 . S
C672 C673 1.392 . S
C672 H693 0.931 . S
C673 C672 1.392 . S
C673 C674 1.361 . S
C673 C675 1.500 . S
C674 C669 1.390 . S
C674 C673 1.361 . S
C674 H692 0.931 . S
C675 C673 1.500 . S
C675 C676 1.371 . S
C675 C677 1.365 . S
C676 C675 1.371 . S
C676 C686 1.386 . S
C676 H694 0.931 . S
C677 C675 1.365 . S
C677 C678 1.409 . S
C677 H695 0.929 . S
C678 C677 1.409 . S
C678 C679 1.380 . S
C678 H696 0.930 . S
C679 C678 1.380 . S
C679 C686 1.357 . S
C680 C671 1.511 . S
C680 C681 1.341 . S
C680 C682 1.371 . S
C681 C680 1.341 . S
C681 C685 1.394 . S
C681 H697 0.930 . S
C682 C680 1.371 . S
C682 C683 1.392 . S
C682 H698 0.931 . S
C683 C682 1.392 . S
C683 C684 1.331 . S
C683 H701 0.932 . S
C684 C683 1.331 . S
C684 C685 1.336 . S
C685 C681 1.394 . S
C685 C684 1.336 . S
C685 H700 0.929 . S
C686 C676 1.386 . S
C686 C679 1.357 . S
C686 H699 0.928 . S
H687 C663 0.931 . S
H688 C665 0.930 . S
H689 C667 0.929 . S
H690 C668 0.931 . S
H691 C670 0.930 . S
H692 C674 0.931 . S
H693 C672 0.931 . S
H694 C676 0.931 . S
H695 C677 0.929 . S
H696 C678 0.930 . S
H697 C681 0.930 . S
H698 C682 0.931 . S
H699 C686 0.928 . S
H700 C685 0.929 . S
H701 C683 0.932 . S
C702 C703 1.386 . S
C702 C704 1.397 . S
C702 H726 0.931 . S
C703 C702 1.386 . S
C703 C707 1.397 . S
C704 C702 1.397 . S
C704 C705 1.384 . S
C704 H727 0.930 . S
C705 C704 1.384 . S
C705 C706 1.377 . S
C705 C708 1.481 . S
C706 C705 1.377 . S
C706 C707 1.389 . S
C706 H728 0.929 . S
C707 C703 1.397 . S
C707 C706 1.389 . S
C707 H729 0.931 . S
C708 C705 1.481 . S
C708 C709 1.387 . S
C708 C713 1.390 . S
C709 C708 1.387 . S
C709 C710 1.401 . S
C709 H730 0.930 . S
C710 C709 1.401 . S
C710 C711 1.376 . S
C710 C719 1.511 . S
C711 C710 1.376 . S
C711 C712 1.392 . S
C711 H732 0.931 . S
C712 C711 1.392 . S
C712 C713 1.361 . S
C712 C714 1.500 . S
C713 C708 1.390 . S
C713 C712 1.361 . S
C713 H731 0.931 . S
C714 C712 1.500 . S
C714 C715 1.371 . S
C714 C716 1.365 . S
C715 C714 1.371 . S
C715 C725 1.386 . S
C715 H733 0.931 . S
C716 C714 1.365 . S
C716 C717 1.409 . S
C716 H734 0.929 . S
C717 C716 1.409 . S
C717 C718 1.380 . S
C717 H735 0.930 . S
C718 C717 1.380 . S
C718 C725 1.357 . S
C719 C710 1.511 . S
C719 C720 1.341 . S
C719 C721 1.371 . S
C720 C719 1.341 . S
C720 C724 1.394 . S
C720 H736 0.930 . S
C721 C719 1.371 . S
C721 C722 1.392 . S
C721 H737 0.931 . S
C722 C721 1.392 . S
C722 C723 1.331 . S
C722 H740 0.932 . S
C723 C722 1.331 . S
C723 C724 1.336 . S
C724 C720 1.394 . S
C724 C723 1.336 . S
C724 H739 0.929 . S
C725 C715 1.386 . S
C725 C718 1.357 . S
C725 H738 0.928 . S
H726 C702 0.931 . S
H727 C704 0.930 . S
H728 C706 0.929 . S
H729 C707 0.931 . S
H730 C709 0.930 . S
H731 C713 0.931 . S
H732 C711 0.931 . S
H733 C715 0.931 . S
H734 C716 0.929 . S
H735 C717 0.930 . S
H736 C720 0.930 . S
H737 C721 0.931 . S
H738 C725 0.928 . S
H739 C724 0.929 . S
H740 C722 0.932 . S
C741 C742 1.386 . S
C741 C743 1.397 . S
C741 H765 0.931 . S
C742 C741 1.386 . S
C742 C746 1.397 . S
C743 C741 1.397 . S
C743 C744 1.384 . S
C743 H766 0.930 . S
C744 C743 1.384 . S
C744 C745 1.377 . S
C744 C747 1.481 . S
C745 C744 1.377 . S
C745 C746 1.389 . S
C745 H767 0.929 . S
C746 C742 1.397 . S
C746 C745 1.389 . S
C746 H768 0.931 . S
C747 C744 1.481 . S
C747 C748 1.387 . S
C747 C752 1.390 . S
C748 C747 1.387 . S
C748 C749 1.401 . S
C748 H769 0.930 . S
C749 C748 1.401 . S
C749 C750 1.376 . S
C749 C758 1.511 . S
C750 C749 1.376 . S
C750 C751 1.392 . S
C750 H771 0.931 . S
C751 C750 1.392 . S
C751 C752 1.361 . S
C751 C753 1.500 . S
C752 C747 1.390 . S
C752 C751 1.361 . S
C752 H770 0.931 . S
C753 C751 1.500 . S
C753 C754 1.371 . S
C753 C755 1.365 . S
C754 C753 1.371 . S
C754 C764 1.386 . S
C754 H772 0.931 . S
C755 C753 1.365 . S
C755 C756 1.409 . S
C755 H773 0.929 . S
C756 C755 1.409 . S
C756 C757 1.380 . S
C756 H774 0.930 . S
C757 C756 1.380 . S
C757 C764 1.357 . S
C758 C749 1.511 . S
C758 C759 1.341 . S
C758 C760 1.371 . S
C759 C758 1.341 . S
C759 C763 1.394 . S
C759 H775 0.930 . S
C760 C758 1.371 . S
C760 C761 1.392 . S
C760 H776 0.931 . S
C761 C760 1.392 . S
C761 C762 1.331 . S
C761 H779 0.932 . S
C762 C761 1.331 . S
C762 C763 1.336 . S
C763 C759 1.394 . S
C763 C762 1.336 . S
C763 H778 0.929 . S
C764 C754 1.386 . S
C764 C757 1.357 . S
C764 H777 0.928 . S
H765 C741 0.931 . S
H766 C743 0.930 . S
H767 C745 0.929 . S
H768 C746 0.931 . S
H769 C748 0.930 . S
H770 C752 0.931 . S
H771 C750 0.931 . S
H772 C754 0.931 . S
H773 C755 0.929 . S
H774 C756 0.930 . S
H775 C759 0.930 . S
H776 C760 0.931 . S
H777 C764 0.928 . S
H778 C763 0.929 . S
H779 C761 0.932 . S
C780 C781 1.386 . S
C780 C782 1.397 . S
C780 H804 0.931 . S
C781 C780 1.386 . S
C781 C785 1.397 . S
C782 C780 1.397 . S
C782 C783 1.384 . S
C782 H805 0.930 . S
C783 C782 1.384 . S
C783 C784 1.377 . S
C783 C786 1.481 . S
C784 C783 1.377 . S
C784 C785 1.389 . S
C784 H806 0.929 . S
C785 C781 1.397 . S
C785 C784 1.389 . S
C785 H807 0.931 . S
C786 C783 1.481 . S
C786 C787 1.387 . S
C786 C791 1.390 . S
C787 C786 1.387 . S
C787 C788 1.401 . S
C787 H808 0.930 . S
C788 C787 1.401 . S
C788 C789 1.376 . S
C788 C797 1.511 . S
C789 C788 1.376 . S
C789 C790 1.392 . S
C789 H810 0.931 . S
C790 C789 1.392 . S
C790 C791 1.361 . S
C790 C792 1.500 . S
C791 C786 1.390 . S
C791 C790 1.361 . S
C791 H809 0.931 . S
C792 C790 1.500 . S
C792 C793 1.371 . S
C792 C794 1.365 . S
C793 C792 1.371 . S
C793 C803 1.386 . S
C793 H811 0.931 . S
C794 C792 1.365 . S
C794 C795 1.409 . S
C794 H812 0.929 . S
C795 C794 1.409 . S
C795 C796 1.380 . S
C795 H813 0.930 . S
C796 C795 1.380 . S
C796 C803 1.357 . S
C797 C788 1.511 . S
C797 C798 1.341 . S
C797 C799 1.371 . S
C798 C797 1.341 . S
C798 C802 1.394 . S
C798 H814 0.930 . S
C799 C797 1.371 . S
C799 C800 1.392 . S
C799 H815 0.931 . S
C800 C799 1.392 . S
C800 C801 1.331 . S
C800 H818 0.932 . S
C801 C800 1.331 . S
C801 C802 1.336 . S
C802 C798 1.394 . S
C802 C801 1.336 . S
C802 H817 0.929 . S
C803 C793 1.386 . S
C803 C796 1.357 . S
C803 H816 0.928 . S
H804 C780 0.931 . S
H805 C782 0.930 . S
H806 C784 0.929 . S
H807 C785 0.931 . S
H808 C787 0.930 . S
H809 C791 0.931 . S
H810 C789 0.931 . S
H811 C793 0.931 . S
H812 C794 0.929 . S
H813 C795 0.930 . S
H814 C798 0.930 . S
H815 C799 0.931 . S
H816 C803 0.928 . S
H817 C802 0.929 . S
H818 C800 0.932 . S
C819 C820 1.386 . S
C819 C821 1.397 . S
C819 H843 0.931 . S
C820 C819 1.386 . S
C820 C824 1.397 . S
C821 C819 1.397 . S
C821 C822 1.384 . S
C821 H844 0.930 . S
C822 C821 1.384 . S
C822 C823 1.377 . S
C822 C825 1.481 . S
C823 C822 1.377 . S
C823 C824 1.389 . S
C823 H845 0.929 . S
C824 C820 1.397 . S
C824 C823 1.389 . S
C824 H846 0.931 . S
C825 C822 1.481 . S
C825 C826 1.387 . S
C825 C830 1.390 . S
C826 C825 1.387 . S
C826 C827 1.401 . S
C826 H847 0.930 . S
C827 C826 1.401 . S
C827 C828 1.376 . S
C827 C836 1.511 . S
C828 C827 1.376 . S
C828 C829 1.392 . S
C828 H849 0.931 . S
C829 C828 1.392 . S
C829 C830 1.361 . S
C829 C831 1.500 . S
C830 C825 1.390 . S
C830 C829 1.361 . S
C830 H848 0.931 . S
C831 C829 1.500 . S
C831 C832 1.371 . S
C831 C833 1.365 . S
C832 C831 1.371 . S
C832 C842 1.386 . S
C832 H850 0.931 . S
C833 C831 1.365 . S
C833 C834 1.409 . S
C833 H851 0.929 . S
C834 C833 1.409 . S
C834 C835 1.380 . S
C834 H852 0.930 . S
C835 C834 1.380 . S
C835 C842 1.357 . S
C836 C827 1.511 . S
C836 C837 1.341 . S
C836 C838 1.371 . S
C837 C836 1.341 . S
C837 C841 1.394 . S
C837 H853 0.930 . S
C838 C836 1.371 . S
C838 C839 1.392 . S
C838 H854 0.931 . S
C839 C838 1.392 . S
C839 C840 1.331 . S
C839 H857 0.932 . S
C840 C839 1.331 . S
C840 C841 1.336 . S
C841 C837 1.394 . S
C841 C840 1.336 . S
C841 H856 0.929 . S
C842 C832 1.386 . S
C842 C835 1.357 . S
C842 H855 0.928 . S
H843 C819 0.931 . S
H844 C821 0.930 . S
H845 C823 0.929 . S
H846 C824 0.931 . S
H847 C826 0.930 . S
H848 C830 0.931 . S
H849 C828 0.931 . S
H850 C832 0.931 . S
H851 C833 0.929 . S
H852 C834 0.930 . S
H853 C837 0.930 . S
H854 C838 0.931 . S
H855 C842 0.928 . S
H856 C841 0.929 . S
H857 C839 0.932 . S
C858 C859 1.386 . S
C858 C860 1.397 . S
C858 H882 0.931 . S
C859 C858 1.386 . S
C859 C863 1.397 . S
C860 C858 1.397 . S
C860 C861 1.384 . S
C860 H883 0.930 . S
C861 C860 1.384 . S
C861 C862 1.377 . S
C861 C864 1.481 . S
C862 C861 1.377 . S
C862 C863 1.389 . S
C862 H884 0.929 . S
C863 C859 1.397 . S
C863 C862 1.389 . S
C863 H885 0.931 . S
C864 C861 1.481 . S
C864 C865 1.387 . S
C864 C869 1.390 . S
C865 C864 1.387 . S
C865 C866 1.401 . S
C865 H886 0.930 . S
C866 C865 1.401 . S
C866 C867 1.376 . S
C866 C875 1.511 . S
C867 C866 1.376 . S
C867 C868 1.392 . S
C867 H888 0.931 . S
C868 C867 1.392 . S
C868 C869 1.361 . S
C868 C870 1.500 . S
C869 C864 1.390 . S
C869 C868 1.361 . S
C869 H887 0.931 . S
C870 C868 1.500 . S
C870 C871 1.371 . S
C870 C872 1.365 . S
C871 C870 1.371 . S
C871 C881 1.386 . S
C871 H889 0.931 . S
C872 C870 1.365 . S
C872 C873 1.409 . S
C872 H890 0.929 . S
C873 C872 1.409 . S
C873 C874 1.380 . S
C873 H891 0.930 . S
C874 C873 1.380 . S
C874 C881 1.357 . S
C875 C866 1.511 . S
C875 C876 1.341 . S
C875 C877 1.371 . S
C876 C875 1.341 . S
C876 C880 1.394 . S
C876 H892 0.930 . S
C877 C875 1.371 . S
C877 C878 1.392 . S
C877 H893 0.931 . S
C878 C877 1.392 . S
C878 C879 1.331 . S
C878 H896 0.932 . S
C879 C878 1.331 . S
C879 C880 1.336 . S
C880 C876 1.394 . S
C880 C879 1.336 . S
C880 H895 0.929 . S
C881 C871 1.386 . S
C881 C874 1.357 . S
C881 H894 0.928 . S
H882 C858 0.931 . S
H883 C860 0.930 . S
H884 C862 0.929 . S
H885 C863 0.931 . S
H886 C865 0.930 . S
H887 C869 0.931 . S
H888 C867 0.931 . S
H889 C871 0.931 . S
H890 C872 0.929 . S
H891 C873 0.930 . S
H892 C876 0.930 . S
H893 C877 0.931 . S
H894 C881 0.928 . S
H895 C880 0.929 . S
H896 C878 0.932 . S
C897 C898 1.386 . S
C897 C899 1.397 . S
C897 H921 0.931 . S
C898 C897 1.386 . S
C898 C902 1.397 . S
C899 C897 1.397 . S
C899 C900 1.384 . S
C899 H922 0.930 . S
C900 C899 1.384 . S
C900 C901 1.377 . S
C900 C903 1.481 . S
C901 C900 1.377 . S
C901 C902 1.389 . S
C901 H923 0.929 . S
C902 C898 1.397 . S
C902 C901 1.389 . S
C902 H924 0.931 . S
C903 C900 1.481 . S
C903 C904 1.387 . S
C903 C908 1.390 . S
C904 C903 1.387 . S
C904 C905 1.401 . S
C904 H925 0.930 . S
C905 C904 1.401 . S
C905 C906 1.376 . S
C905 C914 1.511 . S
C906 C905 1.376 . S
C906 C907 1.392 . S
C906 H927 0.931 . S
C907 C906 1.392 . S
C907 C908 1.361 . S
C907 C909 1.500 . S
C908 C903 1.390 . S
C908 C907 1.361 . S
C908 H926 0.931 . S
C909 C907 1.500 . S
C909 C910 1.371 . S
C909 C911 1.365 . S
C910 C909 1.371 . S
C910 C920 1.386 . S
C910 H928 0.931 . S
C911 C909 1.365 . S
C911 C912 1.409 . S
C911 H929 0.929 . S
C912 C911 1.409 . S
C912 C913 1.380 . S
C912 H930 0.930 . S
C913 C912 1.380 . S
C913 C920 1.357 . S
C914 C905 1.511 . S
C914 C915 1.341 . S
C914 C916 1.371 . S
C915 C914 1.341 . S
C915 C919 1.394 . S
C915 H931 0.930 . S
C916 C914 1.371 . S
C916 C917 1.392 . S
C916 H932 0.931 . S
C917 C916 1.392 . S
C917 C918 1.331 . S
C917 H935 0.932 . S
C918 C917 1.331 . S
C918 C919 1.336 . S
C919 C915 1.394 . S
C919 C918 1.336 . S
C919 H934 0.929 . S
C920 C910 1.386 . S
C920 C913 1.357 . S
C920 H933 0.928 . S
H921 C897 0.931 . S
H922 C899 0.930 . S
H923 C901 0.929 . S
H924 C902 0.931 . S
H925 C904 0.930 . S
H926 C908 0.931 . S
H927 C906 0.931 . S
H928 C910 0.931 . S
H929 C911 0.929 . S
H930 C912 0.930 . S
H931 C915 0.930 . S
H932 C916 0.931 . S
H933 C920 0.928 . S
H934 C919 0.929 . S
H935 C917 0.932 . S
Zn936 O938 1.933 1_565 S
Zn936 O956 1.989 . S
Zn936 O967 1.955 . S
Zn937 O938 1.911 . S
Zn937 O957 1.970 . S
Zn937 O973 1.945 . S
Zn937 O980 1.981 . S
O938 Zn936 1.933 1_545 S
O938 Zn937 1.911 . S
O938 H939 0.841 1_655 S
H939 O938 0.841 1_455 S
C940 O941 1.246 . S
C940 O969 1.276 . S
O941 C940 1.246 . S
Zn942 O944 1.911 . S
Zn942 O959 1.970 . S
Zn942 O976 1.945 . S
Zn942 O983 1.981 . S
Zn943 O944 1.933 1_565 S
Zn943 O958 1.985 . S
Zn943 O965 1.955 . S
O944 Zn942 1.911 . S
O944 Zn943 1.933 1_545 S
O944 H945 0.841 . S
H945 O944 0.841 . S
Zn946 O947 1.933 1_565 S
Zn946 O960 1.987 . S
Zn946 O969 1.955 . S
O947 Zn946 1.933 1_545 S
O947 Zn948 1.911 . S
O947 H949 0.841 . S
Zn948 O947 1.911 . S
Zn948 O961 1.970 . S
Zn948 O977 1.981 1_655 S
Zn948 O979 1.945 . S
H949 O947 0.841 . S
Zn950 O951 1.933 1_565 S
Zn950 O963 1.985 . S
Zn950 O971 1.955 . S
O951 Zn950 1.933 1_545 S
O951 H952 0.841 . S
O951 Zn953 1.911 . S
H952 O951 0.841 . S
Zn953 O951 1.911 . S
Zn953 O964 1.970 . S
Zn953 O974 1.981 . S
Zn953 O982 1.945 . S
C954 O955 1.246 . S
C954 O971 1.276 . S
O955 C954 1.246 . S
O956 Zn936 1.989 . S
O956 C966 1.228 1_565 S
O957 Zn937 1.970 . S
O957 C966 1.263 . S
O958 Zn943 1.985 . S
O958 C970 1.245 1_565 S
O959 Zn942 1.970 . S
O959 C970 1.263 . S
O960 Zn946 1.987 . S
O960 C975 1.235 1_565 S
O961 Zn948 1.970 . S
O961 C975 1.263 . S
C962 O973 1.262 1_455 S
C962 O974 1.245 . S
O963 Zn950 1.985 . S
O963 C981 1.245 1_565 S
O964 Zn953 1.970 . S
O964 C981 1.263 . S
O965 Zn943 1.955 . S
O965 C984 1.276 . S
C966 O956 1.228 1_545 S
C966 O957 1.263 . S
O967 Zn936 1.955 . S
O967 C986 1.276 1_655 S
C968 O976 1.262 . S
C968 O977 1.245 . S
O969 C940 1.276 . S
O969 Zn946 1.955 . S
C970 O958 1.245 1_545 S
C970 O959 1.263 . S
O971 Zn950 1.955 . S
O971 C954 1.276 . S
C972 O979 1.262 . S
C972 O980 1.245 . S
O973 Zn937 1.945 . S
O973 C962 1.262 1_655 S
O974 Zn953 1.981 . S
O974 C962 1.245 . S
C975 O960 1.235 1_545 S
C975 O961 1.263 . S
O976 Zn942 1.945 . S
O976 C968 1.262 . S
O977 Zn948 1.981 1_455 S
O977 C968 1.245 . S
C978 O982 1.262 . S
C978 O983 1.245 . S
O979 Zn948 1.945 . S
O979 C972 1.262 . S
O980 Zn937 1.981 . S
O980 C972 1.245 . S
C981 O963 1.245 1_545 S
C981 O964 1.263 . S
O982 Zn953 1.945 . S
O982 C978 1.262 . S
O983 Zn942 1.981 . S
O983 C978 1.245 . S
C984 O965 1.276 . S
C984 O985 1.246 . S
O985 C984 1.246 . S
C986 O967 1.276 1_455 S
C986 O987 1.246 . S
O987 C986 1.246 . S
Zn988 O990 1.933 . S
Zn988 O1008 1.985 . S
Zn988 O1019 1.955 . S
Zn989 O990 1.911 1_556 S
Zn989 O1009 1.970 . S
Zn989 O1025 1.945 . S
Zn989 O1032 1.981 . S
O990 Zn988 1.933 . S
O990 Zn989 1.911 1_554 S
O990 H991 0.841 . S
H991 O990 0.841 . S
C992 O993 1.246 . S
C992 O1021 1.276 . S
O993 C992 1.246 . S
Zn994 O996 1.911 1_556 S
Zn994 O1011 1.970 . S
Zn994 O1028 1.945 . S
Zn994 O1035 1.981 . S
Zn995 O996 1.933 . S
Zn995 O1010 1.985 . S
Zn995 O1017 1.955 . S
O996 Zn994 1.911 1_554 S
O996 Zn995 1.933 . S
O996 H997 0.841 1_565 S
H997 O996 0.841 1_545 S
Zn998 O999 1.933 . S
Zn998 O1012 1.985 . S
Zn998 O1021 1.955 . S
O999 Zn998 1.933 . S
O999 Zn1000 1.911 1_554 S
O999 H1001 0.841 . S
Zn1000 O999 1.911 1_556 S
Zn1000 O1013 1.970 . S
Zn1000 O1029 1.981 . S
Zn1000 O1031 1.945 . S
H1001 O999 0.841 . S
Zn1002 O1003 1.933 . S
Zn1002 O1015 1.985 . S
Zn1002 O1023 1.955 . S
O1003 Zn1002 1.933 . S
O1003 H1004 0.841 . S
O1003 Zn1005 1.911 1_554 S
H1004 O1003 0.841 . S
Zn1005 O1003 1.911 1_556 S
Zn1005 O1016 1.970 . S
Zn1005 O1026 1.981 1_565 S
Zn1005 O1034 1.945 . S
C1006 O1007 1.246 . S
C1006 O1023 1.276 . S
O1007 C1006 1.246 . S
O1008 Zn988 1.985 . S
O1008 C1018 1.245 . S
O1009 Zn989 1.970 . S
O1009 C1018 1.263 1_556 S
O1010 Zn995 1.985 . S
O1010 C1022 1.245 . S
O1011 Zn994 1.970 . S
O1011 C1022 1.263 1_556 S
O1012 Zn998 1.985 . S
O1012 C1027 1.245 . S
O1013 Zn1000 1.970 . S
O1013 C1027 1.263 1_556 S
C1014 O1025 1.262 . S
C1014 O1026 1.245 . S
O1015 Zn1002 1.985 . S
O1015 C1033 1.245 . S
O1016 Zn1005 1.970 . S
O1016 C1033 1.263 1_556 S
O1017 Zn995 1.955 . S
O1017 C1036 1.276 1_565 S
C1018 O1008 1.245 . S
C1018 O1009 1.263 1_554 S
O1019 Zn988 1.955 . S
O1019 C1038 1.276 . S
C1020 O1028 1.262 1_545 S
C1020 O1029 1.245 . S
O1021 C992 1.276 . S
O1021 Zn998 1.955 . S
C1022 O1010 1.245 . S
C1022 O1011 1.263 1_554 S
O1023 Zn1002 1.955 . S
O1023 C1006 1.276 . S
C1024 O1031 1.262 . S
C1024 O1032 1.245 . S
O1025 Zn989 1.945 . S
O1025 C1014 1.262 . S
O1026 Zn1005 1.981 1_545 S
O1026 C1014 1.245 . S
C1027 O1012 1.245 . S
C1027 O1013 1.263 1_554 S
O1028 Zn994 1.945 . S
O1028 C1020 1.262 1_565 S
O1029 Zn1000 1.981 . S
O1029 C1020 1.245 . S
C1030 O1034 1.262 . S
C1030 O1035 1.245 . S
O1031 Zn1000 1.945 . S
O1031 C1024 1.262 . S
O1032 Zn989 1.981 . S
O1032 C1024 1.245 . S
C1033 O1015 1.245 . S
C1033 O1016 1.263 1_554 S
O1034 Zn1005 1.945 . S
O1034 C1030 1.262 . S
O1035 Zn994 1.981 . S
O1035 C1030 1.245 . S
C1036 O1017 1.276 1_545 S
C1036 O1037 1.246 . S
O1037 C1036 1.246 . S
C1038 O1019 1.276 . S
C1038 O1039 1.246 . S
O1039 C1038 1.246 . S
Zn1040 O1042 1.933 . S
Zn1040 O1060 1.985 . S
Zn1040 O1071 1.955 . S
Zn1041 O1042 1.911 . S
Zn1041 O1061 1.970 . S
Zn1041 O1077 1.945 . S
Zn1041 O1084 1.981 . S
O1042 Zn1040 1.933 . S
O1042 Zn1041 1.911 . S
O1042 H1043 0.841 1_655 S
H1043 O1042 0.841 1_455 S
C1044 O1045 1.246 1_554 S
C1044 O1073 1.276 . S
O1045 C1044 1.246 1_556 S
Zn1046 O1048 1.911 . S
Zn1046 O1063 1.970 . S
Zn1046 O1080 1.945 . S
Zn1046 O1087 1.981 . S
Zn1047 O1048 1.933 . S
Zn1047 O1062 1.985 . S
Zn1047 O1069 1.955 . S
O1048 Zn1046 1.911 . S
O1048 Zn1047 1.933 . S
O1048 H1049 0.841 . S
H1049 O1048 0.841 . S
Zn1050 O1051 1.933 . S
Zn1050 O1064 1.985 . S
Zn1050 O1073 1.955 . S
O1051 Zn1050 1.933 . S
O1051 Zn1052 1.911 . S
O1051 H1053 0.841 . S
Zn1052 O1051 1.911 . S
Zn1052 O1065 1.970 . S
Zn1052 O1081 1.981 1_655 S
Zn1052 O1083 1.945 . S
H1053 O1051 0.841 . S
Zn1054 O1055 1.933 . S
Zn1054 O1067 1.985 . S
Zn1054 O1075 1.955 . S
O1055 Zn1054 1.933 . S
O1055 H1056 0.841 1_556 S
O1055 Zn1057 1.911 . S
H1056 O1055 0.841 1_554 S
Zn1057 O1055 1.911 . S
Zn1057 O1068 1.970 . S
Zn1057 O1078 1.981 . S
Zn1057 O1086 1.945 . S
C1058 O1059 1.246 . S
C1058 O1075 1.276 1_554 S
O1059 C1058 1.246 . S
O1060 Zn1040 1.985 . S
O1060 C1070 1.245 . S
O1061 Zn1041 1.970 . S
O1061 C1070 1.263 . S
O1062 Zn1047 1.985 . S
O1062 C1074 1.245 . S
O1063 Zn1046 1.970 . S
O1063 C1074 1.263 . S
O1064 Zn1050 1.985 . S
O1064 C1079 1.245 . S
O1065 Zn1052 1.970 . S
O1065 C1079 1.263 . S
C1066 O1077 1.262 1_455 S
C1066 O1078 1.245 . S
O1067 Zn1054 1.985 . S
O1067 C1085 1.245 . S
O1068 Zn1057 1.970 . S
O1068 C1085 1.263 . S
O1069 Zn1047 1.955 . S
O1069 C1088 1.276 . S
C1070 O1060 1.245 . S
C1070 O1061 1.263 . S
O1071 Zn1040 1.955 . S
O1071 C1090 1.276 1_655 S
C1072 O1080 1.262 . S
C1072 O1081 1.245 . S
O1073 C1044 1.276 . S
O1073 Zn1050 1.955 . S
C1074 O1062 1.245 . S
C1074 O1063 1.263 . S
O1075 Zn1054 1.955 . S
O1075 C1058 1.276 1_556 S
C1076 O1083 1.262 . S
C1076 O1084 1.245 1_554 S
O1077 Zn1041 1.945 . S
O1077 C1066 1.262 1_655 S
O1078 Zn1057 1.981 . S
O1078 C1066 1.245 . S
C1079 O1064 1.245 . S
C1079 O1065 1.263 . S
O1080 Zn1046 1.945 . S
O1080 C1072 1.262 . S
O1081 Zn1052 1.981 1_455 S
O1081 C1072 1.245 . S
C1082 O1086 1.262 1_554 S
C1082 O1087 1.245 . S
O1083 Zn1052 1.945 . S
O1083 C1076 1.262 . S
O1084 Zn1041 1.981 . S
O1084 C1076 1.245 1_556 S
C1085 O1067 1.245 . S
C1085 O1068 1.263 . S
O1086 Zn1057 1.945 . S
O1086 C1082 1.262 1_556 S
O1087 Zn1046 1.981 . S
O1087 C1082 1.245 . S
C1088 O1069 1.276 . S
C1088 O1089 1.246 . S
O1089 C1088 1.246 . S
C1090 O1071 1.276 1_455 S
C1090 O1091 1.246 . S
O1091 C1090 1.246 . S
Zn1092 O1094 1.933 1_556 S
Zn1092 O1112 1.985 . S
Zn1092 O1123 1.955 . S
Zn1093 O1094 1.911 . S
Zn1093 O1113 1.970 . S
Zn1093 O1129 1.945 . S
Zn1093 O1136 1.981 . S
O1094 Zn1092 1.933 1_554 S
O1094 Zn1093 1.911 . S
O1094 H1095 0.841 . S
H1095 O1094 0.841 . S
C1096 O1097 1.246 . S
C1096 O1125 1.276 . S
O1097 C1096 1.246 . S
Zn1098 O1100 1.911 . S
Zn1098 O1115 1.970 . S
Zn1098 O1132 1.945 . S
Zn1098 O1139 1.981 . S
Zn1099 O1100 1.933 1_556 S
Zn1099 O1114 1.985 . S
Zn1099 O1121 1.955 . S
O1100 Zn1098 1.911 . S
O1100 Zn1099 1.933 1_554 S
O1100 H1101 0.841 . S
H1101 O1100 0.841 . S
Zn1102 O1103 1.933 1_556 S
Zn1102 O1116 1.985 . S
Zn1102 O1125 1.955 . S
O1103 Zn1102 1.933 1_554 S
O1103 Zn1104 1.911 . S
O1103 H1105 0.841 . S
Zn1104 O1103 1.911 . S
Zn1104 O1117 1.970 . S
Zn1104 O1133 1.981 . S
Zn1104 O1135 1.945 . S
H1105 O1103 0.841 . S
Zn1106 O1107 1.933 1_556 S
Zn1106 O1119 1.985 . S
Zn1106 O1127 1.955 . S
O1107 Zn1106 1.933 1_554 S
O1107 H1108 0.841 . S
O1107 Zn1109 1.911 . S
H1108 O1107 0.841 . S
Zn1109 O1107 1.911 . S
Zn1109 O1120 1.970 . S
Zn1109 O1130 1.981 . S
Zn1109 O1138 1.945 . S
C1110 O1111 1.246 . S
C1110 O1127 1.276 . S
O1111 C1110 1.246 . S
O1112 Zn1092 1.985 . S
O1112 C1122 1.245 1_556 S
O1113 Zn1093 1.970 . S
O1113 C1122 1.263 . S
O1114 Zn1099 1.985 . S
O1114 C1126 1.245 1_556 S
O1115 Zn1098 1.970 . S
O1115 C1126 1.263 . S
O1116 Zn1102 1.985 . S
O1116 C1131 1.245 1_556 S
O1117 Zn1104 1.970 . S
O1117 C1131 1.263 . S
C1118 O1129 1.262 . S
C1118 O1130 1.245 . S
O1119 Zn1106 1.985 . S
O1119 C1137 1.245 1_556 S
O1120 Zn1109 1.970 . S
O1120 C1137 1.263 . S
O1121 Zn1099 1.955 . S
O1121 C1140 1.276 . S
C1122 O1112 1.245 1_554 S
C1122 O1113 1.263 . S
O1123 Zn1092 1.955 . S
O1123 C1142 1.276 . S
C1124 O1132 1.262 . S
C1124 O1133 1.245 . S
O1125 C1096 1.276 . S
O1125 Zn1102 1.955 . S
C1126 O1114 1.245 1_554 S
C1126 O1115 1.263 . S
O1127 Zn1106 1.955 . S
O1127 C1110 1.276 . S
C1128 O1135 1.262 . S
C1128 O1136 1.245 . S
O1129 Zn1093 1.945 . S
O1129 C1118 1.262 . S
O1130 Zn1109 1.981 . S
O1130 C1118 1.245 . S
C1131 O1116 1.245 1_554 S
C1131 O1117 1.263 . S
O1132 Zn1098 1.945 . S
O1132 C1124 1.262 . S
O1133 Zn1104 1.981 . S
O1133 C1124 1.245 . S
C1134 O1138 1.262 . S
C1134 O1139 1.245 . S
O1135 Zn1104 1.945 . S
O1135 C1128 1.262 . S
O1136 Zn1093 1.981 . S
O1136 C1128 1.245 . S
C1137 O1119 1.245 1_554 S
C1137 O1120 1.263 . S
O1138 Zn1109 1.945 . S
O1138 C1134 1.262 . S
O1139 Zn1098 1.981 . S
O1139 C1134 1.245 . S
C1140 O1121 1.276 . S
C1140 O1141 1.246 . S
O1141 C1140 1.246 . S
C1142 O1123 1.276 . S
C1142 O1143 1.246 . S
O1143 C1142 1.246 . S
Zn1144 O1146 1.933 . S
Zn1144 O1164 1.985 . S
Zn1144 O1175 1.955 . S
Zn1145 O1146 1.911 . S
Zn1145 O1165 1.970 . S
Zn1145 O1181 1.945 . S
Zn1145 O1188 1.981 . S
O1146 Zn1144 1.933 . S
O1146 Zn1145 1.911 . S
O1146 H1147 0.841 1_655 S
H1147 O1146 0.841 1_455 S
C1148 O1149 1.246 . S
C1148 O1177 1.276 . S
O1149 C1148 1.246 . S
Zn1150 O1152 1.911 . S
Zn1150 O1167 1.970 . S
Zn1150 O1184 1.945 . S
Zn1150 O1191 1.981 . S
Zn1151 O1152 1.933 . S
Zn1151 O1166 1.985 . S
Zn1151 O1173 1.955 . S
O1152 Zn1150 1.911 . S
O1152 Zn1151 1.933 . S
O1152 H1153 0.841 . S
H1153 O1152 0.841 . S
Zn1154 O1155 1.933 . S
Zn1154 O1168 1.985 . S
Zn1154 O1177 1.955 . S
O1155 Zn1154 1.933 . S
O1155 Zn1156 1.911 . S
O1155 H1157 0.841 . S
Zn1156 O1155 1.911 . S
Zn1156 O1169 1.970 . S
Zn1156 O1185 1.981 1_655 S
Zn1156 O1187 1.945 . S
H1157 O1155 0.841 . S
Zn1158 O1159 1.933 . S
Zn1158 O1171 1.985 . S
Zn1158 O1179 1.955 . S
O1159 Zn1158 1.933 . S
O1159 H1160 0.841 . S
O1159 Zn1161 1.911 . S
H1160 O1159 0.841 . S
Zn1161 O1159 1.911 . S
Zn1161 O1172 1.970 . S
Zn1161 O1182 1.981 . S
Zn1161 O1190 1.945 . S
C1162 O1163 1.246 . S
C1162 O1179 1.276 . S
O1163 C1162 1.246 . S
O1164 Zn1144 1.985 . S
O1164 C1174 1.245 . S
O1165 Zn1145 1.970 . S
O1165 C1174 1.263 . S
O1166 Zn1151 1.985 . S
O1166 C1178 1.245 . S
O1167 Zn1150 1.970 . S
O1167 C1178 1.263 . S
O1168 Zn1154 1.985 . S
O1168 C1183 1.245 . S
O1169 Zn1156 1.970 . S
O1169 C1183 1.263 . S
C1170 O1181 1.262 1_455 S
C1170 O1182 1.245 . S
O1171 Zn1158 1.985 . S
O1171 C1189 1.245 . S
O1172 Zn1161 1.970 . S
O1172 C1189 1.263 . S
O1173 Zn1151 1.955 . S
O1173 C1192 1.276 . S
C1174 O1164 1.245 . S
C1174 O1165 1.263 . S
O1175 Zn1144 1.955 . S
O1175 C1194 1.276 1_655 S
C1176 O1184 1.262 . S
C1176 O1185 1.245 . S
O1177 C1148 1.276 . S
O1177 Zn1154 1.955 . S
C1178 O1166 1.245 . S
C1178 O1167 1.263 . S
O1179 Zn1158 1.955 . S
O1179 C1162 1.276 . S
C1180 O1187 1.262 . S
C1180 O1188 1.245 . S
O1181 Zn1145 1.945 . S
O1181 C1170 1.262 1_655 S
O1182 Zn1161 1.981 . S
O1182 C1170 1.245 . S
C1183 O1168 1.245 . S
C1183 O1169 1.263 . S
O1184 Zn1150 1.945 . S
O1184 C1176 1.262 . S
O1185 Zn1156 1.981 1_455 S
O1185 C1176 1.245 . S
C1186 O1190 1.262 . S
C1186 O1191 1.245 . S
O1187 Zn1156 1.945 . S
O1187 C1180 1.262 . S
O1188 Zn1145 1.981 . S
O1188 C1180 1.245 . S
C1189 O1171 1.245 . S
C1189 O1172 1.263 . S
O1190 Zn1161 1.945 . S
O1190 C1186 1.262 . S
O1191 Zn1150 1.981 . S
O1191 C1186 1.245 . S
C1192 O1173 1.276 . S
C1192 O1193 1.246 . S
O1193 C1192 1.246 . S
C1194 O1175 1.276 1_455 S
C1194 O1195 1.246 . S
O1195 C1194 1.246 . S
Zn1196 O1198 1.933 1_565 S
Zn1196 O1216 1.985 . S
Zn1196 O1227 1.955 . S
Zn1197 O1198 1.911 . S
Zn1197 O1217 1.970 . S
Zn1197 O1233 1.945 . S
Zn1197 O1240 1.981 . S
O1198 Zn1196 1.933 1_545 S
O1198 Zn1197 1.911 . S
O1198 H1199 0.841 . S
H1199 O1198 0.841 . S
C1200 O1201 1.246 . S
C1200 O1229 1.276 . S
O1201 C1200 1.246 . S
Zn1202 O1204 1.911 . S
Zn1202 O1219 1.970 . S
Zn1202 O1236 1.945 . S
Zn1202 O1243 1.981 . S
Zn1203 O1204 1.933 1_565 S
Zn1203 O1218 1.985 1_565 S
Zn1203 O1225 1.955 . S
O1204 Zn1202 1.911 . S
O1204 Zn1203 1.933 1_545 S
O1204 H1205 0.841 . S
H1205 O1204 0.841 . S
Zn1206 O1207 1.933 1_565 S
Zn1206 O1220 1.985 . S
Zn1206 O1229 1.955 . S
O1207 Zn1206 1.933 1_545 S
O1207 Zn1208 1.911 . S
O1207 H1209 0.841 . S
Zn1208 O1207 1.911 . S
Zn1208 O1221 1.970 . S
Zn1208 O1237 1.981 . S
Zn1208 O1239 1.945 . S
H1209 O1207 0.841 . S
Zn1210 O1211 1.933 1_565 S
Zn1210 O1223 1.985 1_565 S
Zn1210 O1231 1.955 . S
O1211 Zn1210 1.933 1_545 S
O1211 H1212 0.841 . S
O1211 Zn1213 1.911 . S
H1212 O1211 0.841 . S
Zn1213 O1211 1.911 . S
Zn1213 O1224 1.970 . S
Zn1213 O1234 1.981 . S
Zn1213 O1242 1.945 . S
C1214 O1215 1.246 . S
C1214 O1231 1.276 . S
O1215 C1214 1.246 . S
O1216 Zn1196 1.985 . S
O1216 C1226 1.245 1_565 S
O1217 Zn1197 1.970 . S
O1217 C1226 1.263 . S
O1218 Zn1203 1.985 1_545 S
O1218 C1230 1.245 . S
O1219 Zn1202 1.970 . S
O1219 C1230 1.263 . S
O1220 Zn1206 1.985 . S
O1220 C1235 1.245 1_565 S
O1221 Zn1208 1.970 . S
O1221 C1235 1.263 . S
C1222 O1233 1.262 . S
C1222 O1234 1.245 . S
O1223 Zn1210 1.985 1_545 S
O1223 C1241 1.245 . S
O1224 Zn1213 1.970 . S
O1224 C1241 1.263 . S
O1225 Zn1203 1.955 . S
O1225 C1244 1.276 . S
C1226 O1216 1.245 1_545 S
C1226 O1217 1.263 . S
O1227 Zn1196 1.955 . S
O1227 C1246 1.276 . S
C1228 O1236 1.262 . S
C1228 O1237 1.245 . S
O1229 C1200 1.276 . S
O1229 Zn1206 1.955 . S
C1230 O1218 1.245 . S
C1230 O1219 1.263 . S
O1231 Zn1210 1.955 . S
O1231 C1214 1.276 . S
C1232 O1239 1.262 . S
C1232 O1240 1.245 . S
O1233 Zn1197 1.945 . S
O1233 C1222 1.262 . S
O1234 Zn1213 1.981 . S
O1234 C1222 1.245 . S
C1235 O1220 1.245 1_545 S
C1235 O1221 1.263 . S
O1236 Zn1202 1.945 . S
O1236 C1228 1.262 . S
O1237 Zn1208 1.981 . S
O1237 C1228 1.245 . S
C1238 O1242 1.262 . S
C1238 O1243 1.245 . S
O1239 Zn1208 1.945 . S
O1239 C1232 1.262 . S
O1240 Zn1197 1.981 . S
O1240 C1232 1.245 . S
C1241 O1223 1.245 . S
C1241 O1224 1.263 . S
O1242 Zn1213 1.945 . S
O1242 C1238 1.262 . S
O1243 Zn1202 1.981 . S
O1243 C1238 1.245 . S
C1244 O1225 1.276 . S
C1244 O1245 1.246 . S
O1245 C1244 1.246 . S
C1246 O1227 1.276 . S
C1246 O1247 1.246 . S
O1247 C1246 1.246 . S
C1248 C1249 1.369 . S
C1248 C1250 1.419 . S
C1248 H1252 0.930 . S
C1249 C1248 1.369 . S
C1249 C1258 1.429 . S
C1250 C1248 1.419 . S
C1250 C1251 1.363 . S
C1250 H1253 0.929 . S
C1251 C1250 1.363 . S
C1251 C1257 1.428 . S
H1252 C1248 0.930 . S
H1253 C1250 0.929 . S
S1254 N1255 1.613 . S
S1254 N1256 1.610 . S
N1255 S1254 1.613 . S
N1255 C1258 1.350 . S
N1256 S1254 1.610 . S
N1256 C1257 1.351 . S
C1257 C1251 1.428 . S
C1257 N1256 1.351 . S
C1257 C1258 1.434 . S
C1258 C1249 1.429 . S
C1258 N1255 1.350 . S
C1258 C1257 1.434 . S
C1259 C1260 1.369 . S
C1259 C1261 1.419 . S
C1259 H1263 0.930 . S
C1260 C1259 1.369 . S
C1260 C1269 1.429 . S
C1261 C1259 1.419 . S
C1261 C1262 1.363 . S
C1261 H1264 0.929 . S
C1262 C1261 1.363 . S
C1262 C1268 1.428 . S
H1263 C1259 0.930 . S
H1264 C1261 0.929 . S
S1265 N1266 1.613 . S
S1265 N1267 1.610 . S
N1266 S1265 1.613 . S
N1266 C1269 1.350 . S
N1267 S1265 1.610 . S
N1267 C1268 1.351 . S
C1268 C1262 1.428 . S
C1268 N1267 1.351 . S
C1268 C1269 1.434 . S
C1269 C1260 1.429 . S
C1269 N1266 1.350 . S
C1269 C1268 1.434 . S
C1270 C1271 1.369 . S
C1270 C1272 1.419 . S
C1270 H1274 0.930 . S
C1271 C1270 1.369 . S
C1271 C1280 1.429 . S
C1272 C1270 1.419 . S
C1272 C1273 1.363 . S
C1272 H1275 0.929 . S
C1273 C1272 1.363 . S
C1273 C1279 1.428 . S
H1274 C1270 0.930 . S
H1275 C1272 0.929 . S
S1276 N1277 1.613 . S
S1276 N1278 1.610 . S
N1277 S1276 1.613 . S
N1277 C1280 1.350 . S
N1278 S1276 1.610 . S
N1278 C1279 1.351 . S
C1279 C1273 1.428 . S
C1279 N1278 1.351 . S
C1279 C1280 1.434 . S
C1280 C1271 1.429 . S
C1280 N1277 1.350 . S
C1280 C1279 1.434 . S
C1281 C1282 1.369 . S
C1281 C1283 1.419 . S
C1281 H1285 0.930 . S
C1282 C1281 1.369 . S
C1282 C1291 1.429 . S
C1283 C1281 1.419 . S
C1283 C1284 1.363 . S
C1283 H1286 0.929 . S
C1284 C1283 1.363 . S
C1284 C1290 1.428 . S
H1285 C1281 0.930 . S
H1286 C1283 0.929 . S
S1287 N1288 1.613 . S
S1287 N1289 1.610 . S
N1288 S1287 1.613 . S
N1288 C1291 1.350 . S
N1289 S1287 1.610 . S
N1289 C1290 1.351 . S
C1290 C1284 1.428 . S
C1290 N1289 1.351 . S
C1290 C1291 1.434 . S
C1291 C1282 1.429 . S
C1291 N1288 1.350 . S
C1291 C1290 1.434 . S
C1292 C1293 1.369 . S
C1292 C1294 1.419 . S
C1292 H1296 0.930 . S
C1293 C1292 1.369 . S
C1293 C1302 1.429 . S
C1294 C1292 1.419 . S
C1294 C1295 1.363 . S
C1294 H1297 0.929 . S
C1295 C1294 1.363 . S
C1295 C1301 1.428 . S
H1296 C1292 0.930 . S
H1297 C1294 0.929 . S
S1298 N1299 1.613 . S
S1298 N1300 1.610 . S
N1299 S1298 1.613 . S
N1299 C1302 1.350 . S
N1300 S1298 1.610 . S
N1300 C1301 1.351 . S
C1301 C1295 1.428 . S
C1301 N1300 1.351 . S
C1301 C1302 1.434 . S
C1302 C1293 1.429 . S
C1302 N1299 1.350 . S
C1302 C1301 1.434 . S
C1303 C1304 1.369 . S
C1303 C1305 1.419 . S
C1303 H1307 0.930 . S
C1304 C1303 1.369 . S
C1304 C1313 1.429 . S
C1305 C1303 1.419 . S
C1305 C1306 1.363 . S
C1305 H1308 0.929 . S
C1306 C1305 1.363 . S
C1306 C1312 1.428 . S
H1307 C1303 0.930 . S
H1308 C1305 0.929 . S
S1309 N1310 1.613 . S
S1309 N1311 1.610 . S
N1310 S1309 1.613 . S
N1310 C1313 1.350 . S
N1311 S1309 1.610 . S
N1311 C1312 1.351 . S
C1312 C1306 1.428 . S
C1312 N1311 1.351 . S
C1312 C1313 1.434 . S
C1313 C1304 1.429 . S
C1313 N1310 1.350 . S
C1313 C1312 1.434 . S
C1314 C1315 1.369 . S
C1314 C1316 1.419 . S
C1314 H1318 0.930 . S
C1315 C1314 1.369 . S
C1315 C1324 1.429 . S
C1316 C1314 1.419 . S
C1316 C1317 1.363 . S
C1316 H1319 0.929 . S
C1317 C1316 1.363 . S
C1317 C1323 1.428 . S
H1318 C1314 0.930 . S
H1319 C1316 0.929 . S
S1320 N1321 1.613 . S
S1320 N1322 1.610 . S
N1321 S1320 1.613 . S
N1321 C1324 1.350 . S
N1322 S1320 1.610 . S
N1322 C1323 1.351 . S
C1323 C1317 1.428 . S
C1323 N1322 1.351 . S
C1323 C1324 1.434 . S
C1324 C1315 1.429 . S
C1324 N1321 1.350 . S
C1324 C1323 1.434 . S
C1325 C1326 1.369 . S
C1325 C1327 1.419 . S
C1325 H1329 0.930 . S
C1326 C1325 1.369 . S
C1326 C1335 1.429 . S
C1327 C1325 1.419 . S
C1327 C1328 1.363 . S
C1327 H1330 0.929 . S
C1328 C1327 1.363 . S
C1328 C1334 1.428 . S
H1329 C1325 0.930 . S
H1330 C1327 0.929 . S
S1331 N1332 1.613 . S
S1331 N1333 1.610 . S
N1332 S1331 1.613 . S
N1332 C1335 1.350 . S
N1333 S1331 1.610 . S
N1333 C1334 1.351 . S
C1334 C1328 1.428 . S
C1334 N1333 1.351 . S
C1334 C1335 1.434 . S
C1335 C1326 1.429 . S
C1335 N1332 1.350 . S
C1335 C1334 1.434 . S
C1336 C1337 1.369 . S
C1336 C1338 1.419 . S
C1336 H1340 0.930 . S
C1337 C1336 1.369 . S
C1337 C1346 1.429 . S
C1338 C1336 1.419 . S
C1338 C1339 1.363 . S
C1338 H1341 0.929 . S
C1339 C1338 1.363 . S
C1339 C1345 1.428 . S
H1340 C1336 0.930 . S
H1341 C1338 0.929 . S
S1342 N1343 1.613 . S
S1342 N1344 1.610 . S
N1343 S1342 1.613 . S
N1343 C1346 1.350 . S
N1344 S1342 1.610 . S
N1344 C1345 1.351 . S
C1345 C1339 1.428 . S
C1345 N1344 1.351 . S
C1345 C1346 1.434 . S
C1346 C1337 1.429 . S
C1346 N1343 1.350 . S
C1346 C1345 1.434 . S
C1347 C1348 1.369 . S
C1347 C1349 1.419 . S
C1347 H1351 0.930 . S
C1348 C1347 1.369 . S
C1348 C1357 1.429 . S
C1349 C1347 1.419 . S
C1349 C1350 1.363 . S
C1349 H1352 0.929 . S
C1350 C1349 1.363 . S
C1350 C1356 1.428 . S
H1351 C1347 0.930 . S
H1352 C1349 0.929 . S
S1353 N1354 1.613 . S
S1353 N1355 1.610 . S
N1354 S1353 1.613 . S
N1354 C1357 1.350 . S
N1355 S1353 1.610 . S
N1355 C1356 1.351 . S
C1356 C1350 1.428 . S
C1356 N1355 1.351 . S
C1356 C1357 1.434 . S
C1357 C1348 1.429 . S
C1357 N1354 1.350 . S
C1357 C1356 1.434 . S
C1358 C1359 1.369 . S
C1358 C1360 1.419 . S
C1358 H1362 0.930 . S
C1359 C1358 1.369 . S
C1359 C1368 1.429 . S
C1360 C1358 1.419 . S
C1360 C1361 1.363 . S
C1360 H1363 0.929 . S
C1361 C1360 1.363 . S
C1361 C1367 1.428 . S
H1362 C1358 0.930 . S
H1363 C1360 0.929 . S
S1364 N1365 1.613 . S
S1364 N1366 1.610 . S
N1365 S1364 1.613 . S
N1365 C1368 1.350 . S
N1366 S1364 1.610 . S
N1366 C1367 1.351 . S
C1367 C1361 1.428 . S
C1367 N1366 1.351 . S
C1367 C1368 1.434 . S
C1368 C1359 1.429 . S
C1368 N1365 1.350 . S
C1368 C1367 1.434 . S
C1369 C1370 1.369 . S
C1369 C1371 1.419 . S
C1369 H1373 0.930 . S
C1370 C1369 1.369 . S
C1370 C1379 1.429 . S
C1371 C1369 1.419 . S
C1371 C1372 1.363 . S
C1371 H1374 0.929 . S
C1372 C1371 1.363 . S
C1372 C1378 1.428 . S
H1373 C1369 0.930 . S
H1374 C1371 0.929 . S
S1375 N1376 1.613 . S
S1375 N1377 1.610 . S
N1376 S1375 1.613 . S
N1376 C1379 1.350 . S
N1377 S1375 1.610 . S
N1377 C1378 1.351 . S
C1378 C1372 1.428 . S
C1378 N1377 1.351 . S
C1378 C1379 1.434 . S
C1379 C1370 1.429 . S
C1379 N1376 1.350 . S
C1379 C1378 1.434 . S
C1380 C1381 1.369 1_556 S
C1380 C1382 1.419 . S
C1380 H1384 0.930 . S
C1381 C1380 1.369 1_554 S
C1381 C1390 1.429 . S
C1382 C1380 1.419 . S
C1382 C1383 1.363 1_556 S
C1382 H1385 0.929 . S
C1383 C1382 1.363 1_554 S
C1383 C1389 1.428 . S
H1384 C1380 0.930 . S
H1385 C1382 0.929 . S
S1386 N1387 1.613 . S
S1386 N1388 1.610 . S
N1387 S1386 1.613 . S
N1387 C1390 1.350 . S
N1388 S1386 1.610 . S
N1388 C1389 1.351 . S
C1389 C1383 1.428 . S
C1389 N1388 1.351 . S
C1389 C1390 1.434 . S
C1390 C1381 1.429 . S
C1390 N1387 1.350 . S
C1390 C1389 1.434 . S
C1391 C1392 1.369 1_556 S
C1391 C1393 1.419 . S
C1391 H1395 0.930 . S
C1392 C1391 1.369 1_554 S
C1392 C1401 1.429 . S
C1393 C1391 1.419 . S
C1393 C1394 1.363 1_556 S
C1393 H1396 0.929 . S
C1394 C1393 1.363 1_554 S
C1394 C1400 1.428 . S
H1395 C1391 0.930 . S
H1396 C1393 0.929 . S
S1397 N1398 1.613 . S
S1397 N1399 1.610 . S
N1398 S1397 1.613 . S
N1398 C1401 1.350 . S
N1399 S1397 1.610 . S
N1399 C1400 1.351 . S
C1400 C1394 1.428 . S
C1400 N1399 1.351 . S
C1400 C1401 1.434 . S
C1401 C1392 1.429 . S
C1401 N1398 1.350 . S
C1401 C1400 1.434 . S
C1402 C1403 1.369 1_556 S
C1402 C1404 1.419 . S
C1402 H1406 0.930 . S
C1403 C1402 1.369 1_554 S
C1403 C1412 1.429 . S
C1404 C1402 1.419 . S
C1404 C1405 1.363 1_556 S
C1404 H1407 0.929 . S
C1405 C1404 1.363 1_554 S
C1405 C1411 1.428 . S
H1406 C1402 0.930 . S
H1407 C1404 0.929 . S
S1408 N1409 1.613 . S
S1408 N1410 1.610 . S
N1409 S1408 1.613 . S
N1409 C1412 1.350 . S
N1410 S1408 1.610 . S
N1410 C1411 1.351 . S
C1411 C1405 1.428 . S
C1411 N1410 1.351 . S
C1411 C1412 1.434 . S
C1412 C1403 1.429 . S
C1412 N1409 1.350 . S
C1412 C1411 1.434 . S
C1413 C1414 1.369 1_556 S
C1413 C1415 1.419 . S
C1413 H1417 0.930 . S
C1414 C1413 1.369 1_554 S
C1414 C1423 1.429 . S
C1415 C1413 1.419 . S
C1415 C1416 1.363 1_556 S
C1415 H1418 0.929 . S
C1416 C1415 1.363 1_554 S
C1416 C1422 1.428 . S
H1417 C1413 0.930 . S
H1418 C1415 0.929 . S
S1419 N1420 1.613 . S
S1419 N1421 1.610 . S
N1420 S1419 1.613 . S
N1420 C1423 1.350 . S
N1421 S1419 1.610 . S
N1421 C1422 1.351 . S
C1422 C1416 1.428 . S
C1422 N1421 1.351 . S
C1422 C1423 1.434 . S
C1423 C1414 1.429 . S
C1423 N1420 1.350 . S
C1423 C1422 1.434 . S
C1424 C1425 1.369 1_655 S
C1424 C1426 1.419 . S
C1424 H1428 0.930 . S
C1425 C1424 1.369 1_455 S
C1425 C1434 1.429 . S
C1426 C1424 1.419 . S
C1426 C1427 1.363 1_655 S
C1426 H1429 0.929 . S
C1427 C1426 1.363 1_455 S
C1427 C1433 1.428 . S
H1428 C1424 0.930 . S
H1429 C1426 0.929 . S
S1430 N1431 1.613 . S
S1430 N1432 1.610 . S
N1431 S1430 1.613 . S
N1431 C1434 1.350 . S
N1432 S1430 1.610 . S
N1432 C1433 1.351 . S
C1433 C1427 1.428 . S
C1433 N1432 1.351 . S
C1433 C1434 1.434 . S
C1434 C1425 1.429 . S
C1434 N1431 1.350 . S
C1434 C1433 1.434 . S
C1435 C1436 1.369 . S
C1435 C1437 1.419 . S
C1435 H1439 0.925 1_545 S
C1436 C1435 1.369 . S
C1436 C1445 1.429 . S
C1437 C1435 1.419 . S
C1437 C1438 1.363 . S
C1437 H1440 0.929 . S
C1438 C1437 1.363 . S
C1438 C1444 1.428 . S
H1439 C1435 0.925 1_565 S
H1440 C1437 0.929 . S
S1441 N1442 1.613 . S
S1441 N1443 1.610 . S
N1442 S1441 1.613 . S
N1442 C1445 1.350 . S
N1443 S1441 1.610 . S
N1443 C1444 1.351 . S
C1444 C1438 1.428 . S
C1444 N1443 1.351 . S
C1444 C1445 1.434 . S
C1445 C1436 1.429 . S
C1445 N1442 1.350 . S
C1445 C1444 1.434 . S
C1446 C1447 1.369 . S
C1446 C1448 1.419 . S
C1446 H1450 0.930 . S
C1447 C1446 1.369 . S
C1447 C1456 1.429 . S
C1448 C1446 1.419 . S
C1448 C1449 1.363 . S
C1448 H1451 0.929 . S
C1449 C1448 1.363 . S
C1449 C1455 1.428 . S
H1450 C1446 0.930 . S
H1451 C1448 0.929 . S
S1452 N1453 1.613 . S
S1452 N1454 1.610 . S
N1453 S1452 1.613 . S
N1453 C1456 1.350 . S
N1454 S1452 1.610 . S
N1454 C1455 1.351 . S
C1455 C1449 1.428 . S
C1455 N1454 1.351 . S
C1455 C1456 1.434 . S
C1456 C1447 1.429 . S
C1456 N1453 1.350 . S
C1456 C1455 1.434 . S
C1457 C1458 1.369 . S
C1457 C1459 1.419 . S
C1457 H1461 0.930 . S
C1458 C1457 1.369 . S
C1458 C1467 1.429 . S
C1459 C1457 1.419 . S
C1459 C1460 1.363 . S
C1459 H1462 0.929 . S
C1460 C1459 1.363 . S
C1460 C1466 1.428 . S
H1461 C1457 0.930 . S
H1462 C1459 0.929 . S
S1463 N1464 1.613 . S
S1463 N1465 1.610 . S
N1464 S1463 1.613 . S
N1464 C1467 1.350 . S
N1465 S1463 1.610 . S
N1465 C1466 1.351 . S
C1466 C1460 1.428 . S
C1466 N1465 1.351 . S
C1466 C1467 1.434 . S
C1467 C1458 1.429 . S
C1467 N1464 1.350 . S
C1467 C1466 1.434 . S
C1468 C1469 1.369 . S
C1468 C1470 1.419 . S
C1468 H1472 0.930 . S
C1469 C1468 1.369 . S
C1469 C1478 1.429 . S
C1470 C1468 1.419 . S
C1470 C1471 1.363 . S
C1470 H1473 0.929 . S
C1471 C1470 1.363 . S
C1471 C1477 1.428 . S
H1472 C1468 0.930 . S
H1473 C1470 0.929 . S
S1474 N1475 1.613 . S
S1474 N1476 1.610 . S
N1475 S1474 1.613 . S
N1475 C1478 1.350 1_655 S
N1476 S1474 1.610 . S
N1476 C1477 1.351 1_655 S
C1477 C1471 1.428 . S
C1477 N1476 1.351 1_455 S
C1477 C1478 1.434 . S
C1478 C1469 1.429 . S
C1478 N1475 1.350 1_455 S
C1478 C1477 1.434 . S
C1479 C1480 1.369 . S
C1479 C1481 1.419 . S
C1479 H1483 0.930 . S
C1480 C1479 1.369 . S
C1480 C1489 1.429 . S
C1481 C1479 1.419 . S
C1481 C1482 1.363 . S
C1481 H1484 0.929 1_545 S
C1482 C1481 1.363 . S
C1482 C1488 1.428 . S
H1483 C1479 0.930 . S
H1484 C1481 0.929 1_565 S
S1485 N1486 1.613 . S
S1485 N1487 1.610 . S
N1486 S1485 1.613 . S
N1486 C1489 1.350 . S
N1487 S1485 1.610 . S
N1487 C1488 1.351 . S
C1488 C1482 1.428 . S
C1488 N1487 1.351 . S
C1488 C1489 1.434 . S
C1489 C1480 1.429 . S
C1489 N1486 1.350 . S
C1489 C1488 1.434 . S
C1490 C1491 1.369 . S
C1490 C1492 1.419 . S
C1490 H1494 0.930 . S
C1491 C1490 1.369 . S
C1491 C1500 1.429 . S
C1492 C1490 1.419 . S
C1492 C1493 1.363 . S
C1492 H1495 0.929 . S
C1493 C1492 1.363 . S
C1493 C1499 1.428 . S
H1494 C1490 0.930 . S
H1495 C1492 0.929 . S
S1496 N1497 1.613 . S
S1496 N1498 1.610 . S
N1497 S1496 1.613 . S
N1497 C1500 1.350 . S
N1498 S1496 1.610 . S
N1498 C1499 1.351 . S
C1499 C1493 1.428 . S
C1499 N1498 1.351 . S
C1499 C1500 1.434 . S
C1500 C1491 1.429 . S
C1500 N1497 1.350 . S
C1500 C1499 1.434 . S
C1501 C1502 1.369 1_565 S
C1501 C1503 1.418 1_565 S
C1501 H1505 0.930 . S
C1502 C1501 1.369 1_545 S
C1502 C1511 1.429 . S
C1503 C1501 1.418 1_545 S
C1503 C1504 1.364 . S
C1503 H1506 0.928 1_545 S
C1504 C1503 1.364 . S
C1504 C1510 1.428 . S
H1505 C1501 0.930 . S
H1506 C1503 0.928 1_565 S
S1507 N1508 1.613 . S
S1507 N1509 1.610 . S
N1508 S1507 1.613 . S
N1508 C1511 1.350 . S
N1509 S1507 1.610 . S
N1509 C1510 1.351 . S
C1510 C1504 1.428 . S
C1510 N1509 1.351 . S
C1510 C1511 1.434 . S
C1511 C1502 1.429 . S
C1511 N1508 1.350 . S
C1511 C1510 1.434 . S
C1512 C1513 1.369 . S
C1512 C1514 1.419 . S
C1512 H1516 0.930 . S
C1513 C1512 1.369 . S
C1513 C1522 1.429 . S
C1514 C1512 1.419 . S
C1514 C1515 1.363 . S
C1514 H1517 0.929 . S
C1515 C1514 1.363 . S
C1515 C1521 1.428 . S
H1516 C1512 0.930 . S
H1517 C1514 0.929 . S
S1518 N1519 1.613 . S
S1518 N1520 1.610 . S
N1519 S1518 1.613 . S
N1519 C1522 1.350 . S
N1520 S1518 1.610 . S
N1520 C1521 1.351 . S
C1521 C1515 1.428 . S
C1521 N1520 1.351 . S
C1521 C1522 1.434 . S
C1522 C1513 1.429 . S
C1522 N1519 1.350 . S
C1522 C1521 1.434 . S
C1523 C1524 1.369 . S
C1523 C1525 1.419 . S
C1523 H1527 0.930 . S
C1524 C1523 1.369 . S
C1524 C1533 1.429 . S
C1525 C1523 1.419 . S
C1525 C1526 1.363 . S
C1525 H1528 0.929 . S
C1526 C1525 1.363 . S
C1526 C1532 1.428 . S
H1527 C1523 0.930 . S
H1528 C1525 0.929 . S
S1529 N1530 1.613 1_565 S
S1529 N1531 1.610 . S
N1530 S1529 1.613 1_545 S
N1530 C1533 1.350 . S
N1531 S1529 1.610 . S
N1531 C1532 1.351 1_565 S
C1532 C1526 1.428 . S
C1532 N1531 1.351 1_545 S
C1532 C1533 1.434 . S
C1533 C1524 1.429 . S
C1533 N1530 1.350 . S
C1533 C1532 1.434 . S
C1534 C1535 1.369 . S
C1534 C1536 1.419 . S
C1534 H1538 0.930 . S
C1535 C1534 1.369 . S
C1535 C1544 1.429 . S
C1536 C1534 1.419 . S
C1536 C1537 1.363 . S
C1536 H1539 0.929 . S
C1537 C1536 1.363 . S
C1537 C1543 1.428 . S
H1538 C1534 0.930 . S
H1539 C1536 0.929 . S
S1540 N1541 1.613 . S
S1540 N1542 1.610 . S
N1541 S1540 1.613 . S
N1541 C1544 1.350 . S
N1542 S1540 1.610 . S
N1542 C1543 1.351 . S
C1543 C1537 1.428 . S
C1543 N1542 1.351 . S
C1543 C1544 1.434 . S
C1544 C1535 1.429 . S
C1544 N1541 1.350 . S
C1544 C1543 1.434 . S
C1545 C1546 1.369 . S
C1545 C1547 1.419 . S
C1545 H1549 0.930 . S
C1546 C1545 1.369 . S
C1546 C1555 1.429 1_545 S
C1547 C1545 1.419 . S
C1547 C1548 1.363 . S
C1547 H1550 0.929 . S
C1548 C1547 1.363 . S
C1548 C1554 1.428 1_545 S
H1549 C1545 0.930 . S
H1550 C1547 0.929 . S
S1551 N1552 1.613 . S
S1551 N1553 1.610 . S
N1552 S1551 1.613 . S
N1552 C1555 1.350 . S
N1553 S1551 1.610 . S
N1553 C1554 1.351 . S
C1554 C1548 1.428 1_565 S
C1554 N1553 1.351 . S
C1554 C1555 1.434 . S
C1555 C1546 1.429 1_565 S
C1555 N1552 1.350 . S
C1555 C1554 1.434 . S
C1556 C1557 1.369 1_655 S
C1556 C1558 1.419 . S
C1556 H1560 0.930 . S
C1557 C1556 1.369 1_455 S
C1557 C1566 1.429 . S
C1558 C1556 1.419 . S
C1558 C1559 1.363 1_655 S
C1558 H1561 0.929 . S
C1559 C1558 1.363 1_455 S
C1559 C1565 1.428 . S
H1560 C1556 0.930 . S
H1561 C1558 0.929 . S
S1562 N1563 1.613 . S
S1562 N1564 1.610 . S
N1563 S1562 1.613 . S
N1563 C1566 1.350 . S
N1564 S1562 1.610 . S
N1564 C1565 1.351 . S
C1565 C1559 1.428 . S
C1565 N1564 1.351 . S
C1565 C1566 1.434 . S
C1566 C1557 1.429 . S
C1566 N1563 1.350 . S
C1566 C1565 1.434 . S
C1567 C1568 1.369 . S
C1567 C1569 1.419 . S
C1567 H1571 0.930 . S
C1568 C1567 1.369 . S
C1568 C1577 1.429 1_545 S
C1569 C1567 1.419 . S
C1569 C1570 1.363 . S
C1569 H1572 0.929 . S
C1570 C1569 1.363 . S
C1570 C1576 1.428 1_545 S
H1571 C1567 0.930 . S
H1572 C1569 0.929 . S
S1573 N1574 1.613 . S
S1573 N1575 1.610 . S
N1574 S1573 1.613 . S
N1574 C1577 1.350 . S
N1575 S1573 1.610 . S
N1575 C1576 1.351 . S
C1576 C1570 1.428 1_565 S
C1576 N1575 1.351 . S
C1576 C1577 1.434 . S
C1577 C1568 1.429 1_565 S
C1577 N1574 1.350 . S
C1577 C1576 1.434 . S
C1578 C1579 1.369 1_655 S
C1578 C1580 1.419 . S
C1578 H1582 0.930 . S
C1579 C1578 1.369 1_455 S
C1579 C1588 1.429 . S
C1580 C1578 1.419 . S
C1580 C1581 1.363 1_655 S
C1580 H1583 0.929 . S
C1581 C1580 1.363 1_455 S
C1581 C1587 1.428 . S
H1582 C1578 0.930 . S
H1583 C1580 0.929 . S
S1584 N1585 1.613 . S
S1584 N1586 1.610 . S
N1585 S1584 1.613 . S
N1585 C1588 1.350 . S
N1586 S1584 1.610 . S
N1586 C1587 1.351 . S
C1587 C1581 1.428 . S
C1587 N1586 1.351 . S
C1587 C1588 1.434 . S
C1588 C1579 1.429 . S
C1588 N1585 1.350 . S
C1588 C1587 1.434 . S
C1589 C1590 1.369 . S
C1589 C1591 1.419 . S
C1589 H1593 0.930 1_545 S
C1590 C1589 1.369 . S
C1590 C1599 1.429 . S
C1591 C1589 1.419 . S
C1591 C1592 1.363 . S
C1591 H1594 0.929 1_545 S
C1592 C1591 1.363 . S
C1592 C1598 1.428 . S
H1593 C1589 0.930 1_565 S
H1594 C1591 0.929 1_565 S
S1595 N1596 1.613 . S
S1595 N1597 1.610 . S
N1596 S1595 1.613 . S
N1596 C1599 1.350 . S
N1597 S1595 1.610 . S
N1597 C1598 1.351 . S
C1598 C1592 1.428 . S
C1598 N1597 1.351 . S
C1598 C1599 1.434 . S
C1599 C1590 1.429 . S
C1599 N1596 1.350 . S
C1599 C1598 1.434 . S
C1600 C1601 1.369 . S
C1600 C1602 1.419 . S
C1600 H1604 0.930 . S
C1601 C1600 1.369 . S
C1601 C1610 1.429 1_545 S
C1602 C1600 1.419 . S
C1602 C1603 1.363 . S
C1602 H1605 0.929 . S
C1603 C1602 1.363 . S
C1603 C1609 1.428 1_545 S
H1604 C1600 0.930 . S
H1605 C1602 0.929 . S
S1606 N1607 1.613 . S
S1606 N1608 1.610 . S
N1607 S1606 1.613 . S
N1607 C1610 1.350 . S
N1608 S1606 1.610 . S
N1608 C1609 1.351 . S
C1609 C1603 1.428 1_565 S
C1609 N1608 1.351 . S
C1609 C1610 1.434 . S
C1610 C1601 1.429 1_565 S
C1610 N1607 1.350 . S
C1610 C1609 1.434 . S
C1611 C1612 1.369 . S
C1611 C1613 1.419 . S
C1611 H1615 0.930 . S
C1612 C1611 1.369 . S
C1612 C1621 1.429 . S
C1613 C1611 1.419 . S
C1613 C1614 1.363 . S
C1613 H1616 0.929 . S
C1614 C1613 1.363 . S
C1614 C1620 1.428 1_455 S
H1615 C1611 0.930 . S
H1616 C1613 0.929 . S
S1617 N1618 1.613 . S
S1617 N1619 1.610 . S
N1618 S1617 1.613 . S
N1618 C1621 1.350 1_655 S
N1619 S1617 1.610 . S
N1619 C1620 1.351 . S
C1620 C1614 1.428 1_655 S
C1620 N1619 1.351 . S
C1620 C1621 1.434 1_655 S
C1621 C1612 1.429 . S
C1621 N1618 1.350 1_455 S
C1621 C1620 1.434 1_455 S
C1622 C1623 1.369 . S
C1622 C1624 1.419 . S
C1622 H1626 0.930 . S
C1623 C1622 1.369 . S
C1623 C1632 1.429 . S
C1624 C1622 1.419 . S
C1624 C1625 1.363 . S
C1624 H1627 0.929 . S
C1625 C1624 1.363 . S
C1625 C1631 1.428 . S
H1626 C1622 0.930 . S
H1627 C1624 0.929 . S
S1628 N1629 1.613 1_565 S
S1628 N1630 1.599 1_565 S
N1629 S1628 1.613 1_545 S
N1629 C1632 1.350 . S
N1630 S1628 1.599 1_545 S
N1630 C1631 1.372 . S
C1631 C1625 1.428 . S
C1631 N1630 1.372 . S
C1631 C1632 1.434 . S
C1632 C1623 1.429 . S
C1632 N1629 1.350 . S
C1632 C1631 1.434 . S
C1633 C1634 1.369 . S
C1633 C1635 1.419 . S
C1633 H1637 0.930 . S
C1634 C1633 1.369 . S
C1634 C1643 1.429 . S
C1635 C1633 1.419 . S
C1635 C1636 1.363 . S
C1635 H1638 0.929 . S
C1636 C1635 1.363 . S
C1636 C1642 1.428 . S
H1637 C1633 0.930 . S
H1638 C1635 0.929 . S
S1639 N1640 1.613 . S
S1639 N1641 1.610 . S
N1640 S1639 1.613 . S
N1640 C1643 1.350 . S
N1641 S1639 1.610 . S
N1641 C1642 1.351 . S
C1642 C1636 1.428 . S
C1642 N1641 1.351 . S
C1642 C1643 1.434 . S
C1643 C1634 1.429 . S
C1643 N1640 1.350 . S
C1643 C1642 1.434 . S
C1644 C1645 1.369 1_565 S
C1644 C1646 1.419 . S
C1644 H1648 0.930 . S
C1645 C1644 1.369 1_545 S
C1645 C1654 1.429 . S
C1646 C1644 1.419 . S
C1646 C1647 1.363 1_565 S
C1646 H1649 0.929 . S
C1647 C1646 1.363 1_545 S
C1647 C1653 1.428 . S
H1648 C1644 0.930 . S
H1649 C1646 0.929 . S
S1650 N1651 1.613 . S
S1650 N1652 1.610 . S
N1651 S1650 1.613 . S
N1651 C1654 1.350 . S
N1652 S1650 1.610 . S
N1652 C1653 1.351 . S
C1653 C1647 1.428 . S
C1653 N1652 1.351 . S
C1653 C1654 1.434 . S
C1654 C1645 1.429 . S
C1654 N1651 1.350 . S
C1654 C1653 1.434 . S
C1655 C1656 1.369 . S
C1655 C1657 1.419 . S
C1655 H1659 0.930 . S
C1656 C1655 1.369 . S
C1656 C1665 1.429 . S
C1657 C1655 1.419 . S
C1657 C1658 1.363 . S
C1657 H1660 0.929 . S
C1658 C1657 1.363 . S
C1658 C1664 1.428 . S
H1659 C1655 0.930 . S
H1660 C1657 0.929 . S
S1661 N1662 1.613 . S
S1661 N1663 1.610 . S
N1662 S1661 1.613 . S
N1662 C1665 1.350 . S
N1663 S1661 1.610 . S
N1663 C1664 1.351 . S
C1664 C1658 1.428 . S
C1664 N1663 1.351 . S
C1664 C1665 1.434 . S
C1665 C1656 1.429 . S
C1665 N1662 1.350 . S
C1665 C1664 1.434 . S
C1666 C1667 1.369 . S
C1666 C1668 1.419 . S
C1666 H1670 0.930 . S
C1667 C1666 1.369 . S
C1667 C1676 1.429 . S
C1668 C1666 1.419 . S
C1668 C1669 1.363 . S
C1668 H1671 0.929 . S
C1669 C1668 1.363 . S
C1669 C1675 1.428 . S
H1670 C1666 0.930 . S
H1671 C1668 0.929 . S
S1672 N1673 1.613 . S
S1672 N1674 1.610 . S
N1673 S1672 1.613 . S
N1673 C1676 1.350 . S
N1674 S1672 1.610 . S
N1674 C1675 1.351 . S
C1675 C1669 1.428 . S
C1675 N1674 1.351 . S
C1675 C1676 1.434 . S
C1676 C1667 1.429 . S
C1676 N1673 1.350 . S
C1676 C1675 1.434 . S
C1677 C1678 1.369 1_655 S
C1677 C1679 1.420 . S
C1677 H1681 0.930 . S
C1678 C1677 1.369 1_455 S
C1678 C1687 1.429 . S
C1679 C1677 1.420 . S
C1679 C1680 1.360 1_655 S
C1679 H1682 0.932 . S
C1680 C1679 1.360 1_455 S
C1680 C1686 1.428 . S
H1681 C1677 0.930 . S
H1682 C1679 0.932 . S
S1683 N1684 1.613 . S
S1683 N1685 1.610 . S
N1684 S1683 1.613 . S
N1684 C1687 1.350 . S
N1685 S1683 1.610 . S
N1685 C1686 1.351 . S
C1686 C1680 1.428 . S
C1686 N1685 1.351 . S
C1686 C1687 1.434 . S
C1687 C1678 1.429 . S
C1687 N1684 1.350 . S
C1687 C1686 1.434 . S
C1688 C1689 1.369 . S
C1688 C1690 1.419 . S
C1688 H1692 0.930 1_554 S
C1689 C1688 1.369 . S
C1689 C1698 1.429 . S
C1690 C1688 1.419 . S
C1690 C1691 1.363 . S
C1690 H1693 0.929 1_554 S
C1691 C1690 1.363 . S
C1691 C1697 1.428 . S
H1692 C1688 0.930 1_556 S
H1693 C1690 0.929 1_556 S
S1694 N1695 1.613 . S
S1694 N1696 1.610 . S
N1695 S1694 1.613 . S
N1695 C1698 1.350 . S
N1696 S1694 1.610 . S
N1696 C1697 1.351 . S
C1697 C1691 1.428 . S
C1697 N1696 1.351 . S
C1697 C1698 1.434 . S
C1698 C1689 1.429 . S
C1698 N1695 1.350 . S
C1698 C1697 1.434 . S
C1699 C1700 1.349 1_556 S
C1699 C1701 1.419 . S
C1699 H1703 0.952 . S
C1700 C1699 1.349 1_554 S
C1700 C1709 1.429 . S
C1701 C1699 1.419 . S
C1701 C1702 1.343 1_556 S
C1701 H1704 0.950 . S
C1702 C1701 1.343 1_554 S
C1702 C1708 1.428 . S
H1703 C1699 0.952 . S
H1704 C1701 0.950 . S
S1705 N1706 1.613 . S
S1705 N1707 1.610 . S
N1706 S1705 1.613 . S
N1706 C1709 1.350 . S
N1707 S1705 1.610 . S
N1707 C1708 1.351 . S
C1708 C1702 1.428 . S
C1708 N1707 1.351 . S
C1708 C1709 1.434 . S
C1709 C1700 1.429 . S
C1709 N1706 1.350 . S
C1709 C1708 1.434 . S
C1710 C1711 1.369 . S
C1710 C1712 1.419 . S
C1710 H1714 0.930 . S
C1711 C1710 1.369 . S
C1711 C1720 1.445 . S
C1712 C1710 1.419 . S
C1712 C1713 1.363 . S
C1712 H1715 0.929 . S
C1713 C1712 1.363 . S
C1713 C1719 1.428 1_554 S
H1714 C1710 0.930 . S
H1715 C1712 0.929 . S
S1716 N1717 1.613 . S
S1716 N1718 1.610 . S
N1717 S1716 1.613 . S
N1717 C1720 1.334 1_556 S
N1718 S1716 1.610 . S
N1718 C1719 1.351 . S
C1719 C1713 1.428 1_556 S
C1719 N1718 1.351 . S
C1719 C1720 1.432 1_556 S
C1720 C1711 1.445 . S
C1720 N1717 1.334 1_554 S
C1720 C1719 1.432 1_554 S
C1721 C1722 1.369 1_556 S
C1721 C1723 1.419 . S
C1721 H1725 0.930 . S
C1722 C1721 1.369 1_554 S
C1722 C1731 1.429 . S
C1723 C1721 1.419 . S
C1723 C1724 1.363 1_556 S
C1723 H1726 0.929 . S
C1724 C1723 1.363 1_554 S
C1724 C1730 1.428 . S
H1725 C1721 0.930 . S
H1726 C1723 0.929 . S
S1727 N1728 1.613 1_455 S
S1727 N1729 1.610 . S
N1728 S1727 1.613 1_655 S
N1728 C1731 1.350 . S
N1729 S1727 1.610 . S
N1729 C1730 1.351 1_455 S
C1730 C1724 1.428 . S
C1730 N1729 1.351 1_655 S
C1730 C1731 1.434 . S
C1731 C1722 1.429 . S
C1731 N1728 1.350 . S
C1731 C1730 1.434 . S
C1732 C1733 1.369 . S
C1732 C1734 1.419 . S
C1732 H1736 0.930 . S
C1733 C1732 1.369 . S
C1733 C1742 1.429 . S
C1734 C1732 1.419 . S
C1734 C1735 1.363 . S
C1734 H1737 0.929 . S
C1735 C1734 1.363 . S
C1735 C1741 1.428 . S
H1736 C1732 0.930 . S
H1737 C1734 0.929 . S
S1738 N1739 1.613 . S
S1738 N1740 1.610 . S
N1739 S1738 1.613 . S
N1739 C1742 1.350 . S
N1740 S1738 1.610 . S
N1740 C1741 1.351 . S
C1741 C1735 1.428 . S
C1741 N1740 1.351 . S
C1741 C1742 1.434 . S
C1742 C1733 1.429 . S
C1742 N1739 1.350 . S
C1742 C1741 1.434 . S
C1743 C1744 1.369 . S
C1743 C1745 1.419 . S
C1743 H1747 0.930 . S
C1744 C1743 1.369 . S
C1744 C1753 1.429 1_554 S
C1745 C1743 1.419 . S
C1745 C1746 1.363 . S
C1745 H1748 0.929 . S
C1746 C1745 1.363 . S
C1746 C1752 1.428 1_554 S
H1747 C1743 0.930 . S
H1748 C1745 0.929 . S
S1749 N1750 1.613 . S
S1749 N1751 1.610 . S
N1750 S1749 1.613 . S
N1750 C1753 1.350 . S
N1751 S1749 1.610 . S
N1751 C1752 1.351 . S
C1752 C1746 1.428 1_556 S
C1752 N1751 1.351 . S
C1752 C1753 1.434 . S
C1753 C1744 1.429 1_556 S
C1753 N1750 1.350 . S
C1753 C1752 1.434 . S
C1754 C1755 1.369 . S
C1754 C1756 1.419 . S
C1754 H1758 0.930 1_554 S
C1755 C1754 1.369 . S
C1755 C1764 1.429 . S
C1756 C1754 1.419 . S
C1756 C1757 1.367 . S
C1756 H1759 0.925 1_554 S
C1757 C1756 1.367 . S
C1757 C1763 1.428 . S
H1758 C1754 0.930 1_556 S
H1759 C1756 0.925 1_556 S
S1760 N1761 1.613 . S
S1760 N1762 1.610 . S
N1761 S1760 1.613 . S
N1761 C1764 1.350 . S
N1762 S1760 1.610 . S
N1762 C1763 1.351 . S
C1763 C1757 1.428 . S
C1763 N1762 1.351 . S
C1763 C1764 1.434 . S
C1764 C1755 1.429 . S
C1764 N1761 1.350 . S
C1764 C1763 1.434 . S
C1765 C1766 1.369 . S
C1765 C1767 1.419 . S
C1765 H1769 0.930 . S
C1766 C1765 1.369 . S
C1766 C1775 1.429 1_554 S
C1767 C1765 1.419 . S
C1767 C1768 1.363 . S
C1767 H1770 0.929 . S
C1768 C1767 1.363 . S
C1768 C1774 1.428 1_554 S
H1769 C1765 0.930 . S
H1770 C1767 0.929 . S
S1771 N1772 1.613 . S
S1771 N1773 1.610 . S
N1772 S1771 1.613 . S
N1772 C1775 1.350 . S
N1773 S1771 1.610 . S
N1773 C1774 1.351 . S
C1774 C1768 1.428 1_556 S
C1774 N1773 1.351 . S
C1774 C1775 1.434 . S
C1775 C1766 1.429 1_556 S
C1775 N1772 1.350 . S
C1775 C1774 1.434 . S
C1776 C1777 1.369 . S
C1776 C1778 1.419 . S
C1776 H1780 0.930 . S
C1777 C1776 1.369 . S
C1777 C1786 1.429 . S
C1778 C1776 1.419 . S
C1778 C1779 1.363 . S
C1778 H1781 0.929 . S
C1779 C1778 1.363 . S
C1779 C1785 1.428 . S
H1780 C1776 0.930 . S
H1781 C1778 0.929 . S
S1782 N1783 1.613 . S
S1782 N1784 1.610 . S
N1783 S1782 1.613 . S
N1783 C1786 1.350 . S
N1784 S1782 1.610 . S
N1784 C1785 1.351 . S
C1785 C1779 1.428 . S
C1785 N1784 1.351 . S
C1785 C1786 1.434 . S
C1786 C1777 1.429 . S
C1786 N1783 1.350 . S
C1786 C1785 1.434 . S
C1787 C1788 1.369 . S
C1787 C1789 1.419 . S
C1787 H1791 0.930 . S
C1788 C1787 1.369 . S
C1788 C1797 1.429 . S
C1789 C1787 1.419 . S
C1789 C1790 1.363 . S
C1789 H1792 0.929 . S
C1790 C1789 1.363 . S
C1790 C1796 1.428 . S
H1791 C1787 0.930 . S
H1792 C1789 0.929 . S
S1793 N1794 1.613 . S
S1793 N1795 1.610 . S
N1794 S1793 1.613 . S
N1794 C1797 1.350 . S
N1795 S1793 1.610 . S
N1795 C1796 1.351 . S
C1796 C1790 1.428 . S
C1796 N1795 1.351 . S
C1796 C1797 1.434 . S
C1797 C1788 1.429 . S
C1797 N1794 1.350 . S
C1797 C1796 1.434 . S
C1798 C1799 1.369 . S
C1798 C1800 1.419 . S
C1798 H1802 0.930 . S
C1799 C1798 1.369 . S
C1799 C1808 1.429 . S
C1800 C1798 1.419 . S
C1800 C1801 1.363 . S
C1800 H1803 0.929 . S
C1801 C1800 1.363 . S
C1801 C1807 1.428 . S
H1802 C1798 0.930 . S
H1803 C1800 0.929 . S
S1804 N1805 1.613 . S
S1804 N1806 1.610 . S
N1805 S1804 1.613 . S
N1805 C1808 1.350 . S
N1806 S1804 1.610 . S
N1806 C1807 1.351 . S
C1807 C1801 1.428 . S
C1807 N1806 1.351 . S
C1807 C1808 1.434 . S
C1808 C1799 1.429 . S
C1808 N1805 1.350 . S
C1808 C1807 1.434 . S
C1809 C1810 1.369 . S
C1809 C1811 1.419 . S
C1809 H1813 0.930 . S
C1810 C1809 1.369 . S
C1810 C1819 1.429 . S
C1811 C1809 1.419 . S
C1811 C1812 1.363 . S
C1811 H1814 0.929 . S
C1812 C1811 1.363 . S
C1812 C1818 1.428 . S
H1813 C1809 0.930 . S
H1814 C1811 0.929 . S
S1815 N1816 1.613 . S
S1815 N1817 1.610 . S
N1816 S1815 1.613 . S
N1816 C1819 1.350 . S
N1817 S1815 1.610 . S
N1817 C1818 1.351 . S
C1818 C1812 1.428 . S
C1818 N1817 1.351 . S
C1818 C1819 1.434 . S
C1819 C1810 1.429 . S
C1819 N1816 1.350 . S
C1819 C1818 1.434 . S
C1820 C1821 1.369 . S
C1820 C1822 1.419 . S
C1820 H1824 0.930 . S
C1821 C1820 1.369 . S
C1821 C1830 1.429 . S
C1822 C1820 1.419 . S
C1822 C1823 1.363 . S
C1822 H1825 0.929 . S
C1823 C1822 1.363 . S
C1823 C1829 1.428 . S
H1824 C1820 0.930 . S
H1825 C1822 0.929 . S
S1826 N1827 1.613 . S
S1826 N1828 1.610 . S
N1827 S1826 1.613 . S
N1827 C1830 1.350 . S
N1828 S1826 1.610 . S
N1828 C1829 1.351 . S
C1829 C1823 1.428 . S
C1829 N1828 1.351 . S
C1829 C1830 1.434 . S
C1830 C1821 1.429 . S
C1830 N1827 1.350 . S
C1830 C1829 1.434 . S
C1831 C1832 1.369 . S
C1831 C1833 1.419 . S
C1831 H1835 0.930 . S
C1832 C1831 1.369 . S
C1832 C1841 1.429 . S
C1833 C1831 1.419 . S
C1833 C1834 1.363 . S
C1833 H1836 0.929 . S
C1834 C1833 1.363 . S
C1834 C1840 1.428 . S
H1835 C1831 0.930 . S
H1836 C1833 0.929 . S
S1837 N1838 1.613 . S
S1837 N1839 1.610 . S
N1838 S1837 1.613 . S
N1838 C1841 1.350 . S
N1839 S1837 1.610 . S
N1839 C1840 1.351 . S
C1840 C1834 1.428 . S
C1840 N1839 1.351 . S
C1840 C1841 1.434 . S
C1841 C1832 1.429 . S
C1841 N1838 1.350 . S
C1841 C1840 1.434 . S
C1842 C1843 1.369 . S
C1842 C1844 1.419 . S
C1842 H1846 0.930 . S
C1843 C1842 1.369 . S
C1843 C1852 1.429 . S
C1844 C1842 1.419 . S
C1844 C1845 1.363 . S
C1844 H1847 0.929 . S
C1845 C1844 1.363 . S
C1845 C1851 1.428 . S
H1846 C1842 0.930 . S
H1847 C1844 0.929 . S
S1848 N1849 1.613 . S
S1848 N1850 1.610 . S
N1849 S1848 1.613 . S
N1849 C1852 1.350 . S
N1850 S1848 1.610 . S
N1850 C1851 1.351 . S
C1851 C1845 1.428 . S
C1851 N1850 1.351 . S
C1851 C1852 1.434 . S
C1852 C1843 1.429 . S
C1852 N1849 1.350 . S
C1852 C1851 1.434 . S
C1853 C1854 1.369 . S
C1853 C1855 1.419 . S
C1853 H1857 0.930 . S
C1854 C1853 1.369 . S
C1854 C1863 1.429 . S
C1855 C1853 1.419 . S
C1855 C1856 1.363 . S
C1855 H1858 0.929 . S
C1856 C1855 1.363 . S
C1856 C1862 1.428 . S
H1857 C1853 0.930 . S
H1858 C1855 0.929 . S
S1859 N1860 1.613 . S
S1859 N1861 1.610 . S
N1860 S1859 1.613 . S
N1860 C1863 1.350 . S
N1861 S1859 1.610 . S
N1861 C1862 1.351 . S
C1862 C1856 1.428 . S
C1862 N1861 1.351 . S
C1862 C1863 1.434 . S
C1863 C1854 1.429 . S
C1863 N1860 1.350 . S
C1863 C1862 1.434 . S
C1864 C1865 1.369 . S
C1864 C1866 1.419 . S
C1864 H1868 0.930 . S
C1865 C1864 1.369 . S
C1865 C1874 1.429 . S
C1866 C1864 1.419 . S
C1866 C1867 1.363 . S
C1866 H1869 0.929 . S
C1867 C1866 1.363 . S
C1867 C1873 1.428 . S
H1868 C1864 0.930 . S
H1869 C1866 0.929 . S
S1870 N1871 1.613 . S
S1870 N1872 1.610 . S
N1871 S1870 1.613 . S
N1871 C1874 1.350 . S
N1872 S1870 1.610 . S
N1872 C1873 1.351 . S
C1873 C1867 1.428 . S
C1873 N1872 1.351 . S
C1873 C1874 1.434 . S
C1874 C1865 1.429 . S
C1874 N1871 1.350 . S
C1874 C1873 1.434 . S
C1875 C1876 1.369 . S
C1875 C1877 1.419 . S
C1875 H1879 0.930 . S
C1876 C1875 1.369 . S
C1876 C1885 1.429 . S
C1877 C1875 1.419 . S
C1877 C1878 1.363 . S
C1877 H1880 0.929 . S
C1878 C1877 1.363 . S
C1878 C1884 1.428 . S
H1879 C1875 0.930 . S
H1880 C1877 0.929 . S
S1881 N1882 1.613 . S
S1881 N1883 1.610 . S
N1882 S1881 1.613 . S
N1882 C1885 1.350 . S
N1883 S1881 1.610 . S
N1883 C1884 1.351 . S
C1884 C1878 1.428 . S
C1884 N1883 1.351 . S
C1884 C1885 1.434 . S
C1885 C1876 1.429 . S
C1885 N1882 1.350 . S
C1885 C1884 1.434 . S
C1886 C1887 1.369 . S
C1886 C1888 1.419 . S
C1886 H1890 0.930 . S
C1887 C1886 1.369 . S
C1887 C1896 1.429 . S
C1888 C1886 1.419 . S
C1888 C1889 1.363 . S
C1888 H1891 0.929 . S
C1889 C1888 1.363 . S
C1889 C1895 1.428 . S
H1890 C1886 0.930 . S
H1891 C1888 0.929 . S
S1892 N1893 1.613 . S
S1892 N1894 1.610 . S
N1893 S1892 1.613 . S
N1893 C1896 1.350 . S
N1894 S1892 1.610 . S
N1894 C1895 1.351 . S
C1895 C1889 1.428 . S
C1895 N1894 1.351 . S
C1895 C1896 1.434 . S
C1896 C1887 1.429 . S
C1896 N1893 1.350 . S
C1896 C1895 1.434 . S
C1897 C1898 1.369 . S
C1897 C1899 1.419 . S
C1897 H1901 0.930 . S
C1898 C1897 1.369 . S
C1898 C1907 1.429 . S
C1899 C1897 1.419 . S
C1899 C1900 1.363 . S
C1899 H1902 0.929 . S
C1900 C1899 1.363 . S
C1900 C1906 1.428 . S
H1901 C1897 0.930 . S
H1902 C1899 0.929 . S
S1903 N1904 1.613 . S
S1903 N1905 1.610 . S
N1904 S1903 1.613 . S
N1904 C1907 1.350 . S
N1905 S1903 1.610 . S
N1905 C1906 1.351 . S
C1906 C1900 1.428 . S
C1906 N1905 1.351 . S
C1906 C1907 1.434 . S
C1907 C1898 1.429 . S
C1907 N1904 1.350 . S
C1907 C1906 1.434 . S
C1908 C1909 1.369 . S
C1908 C1910 1.419 . S
C1908 H1912 0.930 . S
C1909 C1908 1.369 . S
C1909 C1918 1.429 . S
C1910 C1908 1.419 . S
C1910 C1911 1.363 . S
C1910 H1913 0.929 . S
C1911 C1910 1.363 . S
C1911 C1917 1.428 . S
H1912 C1908 0.930 . S
H1913 C1910 0.929 . S
S1914 N1915 1.613 . S
S1914 N1916 1.610 . S
N1915 S1914 1.613 . S
N1915 C1918 1.350 . S
N1916 S1914 1.610 . S
N1916 C1917 1.351 . S
C1917 C1911 1.428 . S
C1917 N1916 1.351 . S
C1917 C1918 1.434 . S
C1918 C1909 1.429 . S
C1918 N1915 1.350 . S
C1918 C1917 1.434 . S
C1919 C1920 1.369 . S
C1919 C1921 1.419 . S
C1919 H1923 0.930 . S
C1920 C1919 1.369 . S
C1920 C1929 1.429 . S
C1921 C1919 1.419 . S
C1921 C1922 1.363 . S
C1921 H1924 0.929 . S
C1922 C1921 1.363 . S
C1922 C1928 1.428 . S
H1923 C1919 0.930 . S
H1924 C1921 0.929 . S
S1925 N1926 1.613 . S
S1925 N1927 1.610 . S
N1926 S1925 1.613 . S
N1926 C1929 1.350 . S
N1927 S1925 1.610 . S
N1927 C1928 1.351 . S
C1928 C1922 1.428 . S
C1928 N1927 1.351 . S
C1928 C1929 1.434 . S
C1929 C1920 1.429 . S
C1929 N1926 1.350 . S
C1929 C1928 1.434 . S
C1930 C1931 1.369 . S
C1930 C1932 1.419 . S
C1930 H1934 0.930 . S
C1931 C1930 1.369 . S
C1931 C1940 1.429 . S
C1932 C1930 1.419 . S
C1932 C1933 1.363 . S
C1932 H1935 0.929 . S
C1933 C1932 1.363 . S
C1933 C1939 1.428 . S
H1934 C1930 0.930 . S
H1935 C1932 0.929 . S
S1936 N1937 1.613 . S
S1936 N1938 1.610 . S
N1937 S1936 1.613 . S
N1937 C1940 1.350 . S
N1938 S1936 1.610 . S
N1938 C1939 1.351 . S
C1939 C1933 1.428 . S
C1939 N1938 1.351 . S
C1939 C1940 1.434 . S
C1940 C1931 1.429 . S
C1940 N1937 1.350 . S
C1940 C1939 1.434 . S
C1941 C1942 1.369 . S
C1941 C1943 1.419 . S
C1941 H1945 0.930 . S
C1942 C1941 1.369 . S
C1942 C1951 1.429 . S
C1943 C1941 1.419 . S
C1943 C1944 1.363 . S
C1943 H1946 0.929 . S
C1944 C1943 1.363 . S
C1944 C1950 1.428 . S
H1945 C1941 0.930 . S
H1946 C1943 0.929 . S
S1947 N1948 1.613 . S
S1947 N1949 1.610 . S
N1948 S1947 1.613 . S
N1948 C1951 1.350 . S
N1949 S1947 1.610 . S
N1949 C1950 1.351 . S
C1950 C1944 1.428 . S
C1950 N1949 1.351 . S
C1950 C1951 1.434 . S
C1951 C1942 1.429 . S
C1951 N1948 1.350 . S
C1951 C1950 1.434 . S
C1952 C1953 1.369 . S
C1952 C1954 1.419 . S
C1952 H1956 0.930 . S
C1953 C1952 1.369 . S
C1953 C1962 1.429 . S
C1954 C1952 1.419 . S
C1954 C1955 1.363 . S
C1954 H1957 0.929 . S
C1955 C1954 1.363 . S
C1955 C1961 1.428 . S
H1956 C1952 0.930 . S
H1957 C1954 0.929 . S
S1958 N1959 1.613 . S
S1958 N1960 1.610 . S
N1959 S1958 1.613 . S
N1959 C1962 1.350 . S
N1960 S1958 1.610 . S
N1960 C1961 1.351 . S
C1961 C1955 1.428 . S
C1961 N1960 1.351 . S
C1961 C1962 1.434 . S
C1962 C1953 1.429 . S
C1962 N1959 1.350 . S
C1962 C1961 1.434 . S
C1963 C1964 1.369 . S
C1963 C1965 1.419 . S
C1963 H1967 0.930 . S
C1964 C1963 1.369 . S
C1964 C1973 1.429 . S
C1965 C1963 1.419 . S
C1965 C1966 1.363 . S
C1965 H1968 0.929 . S
C1966 C1965 1.363 . S
C1966 C1972 1.428 . S
H1967 C1963 0.930 . S
H1968 C1965 0.929 . S
S1969 N1970 1.613 . S
S1969 N1971 1.610 . S
N1970 S1969 1.613 . S
N1970 C1973 1.350 . S
N1971 S1969 1.610 . S
N1971 C1972 1.351 . S
C1972 C1966 1.428 . S
C1972 N1971 1.351 . S
C1972 C1973 1.434 . S
C1973 C1964 1.429 . S
C1973 N1970 1.350 . S
C1973 C1972 1.434 . S
C1974 C1975 1.369 . S
C1974 C1976 1.419 . S
C1974 H1978 0.930 . S
C1975 C1974 1.369 . S
C1975 C1984 1.429 . S
C1976 C1974 1.419 . S
C1976 C1977 1.363 . S
C1976 H1979 0.929 . S
C1977 C1976 1.363 . S
C1977 C1983 1.428 . S
H1978 C1974 0.930 . S
H1979 C1976 0.929 . S
S1980 N1981 1.613 . S
S1980 N1982 1.610 . S
N1981 S1980 1.613 . S
N1981 C1984 1.350 . S
N1982 S1980 1.610 . S
N1982 C1983 1.351 . S
C1983 C1977 1.428 . S
C1983 N1982 1.351 . S
C1983 C1984 1.434 . S
C1984 C1975 1.429 . S
C1984 N1981 1.350 . S
C1984 C1983 1.434 . S
C1985 C1986 1.369 . S
C1985 C1987 1.419 . S
C1985 H1989 0.930 . S
C1986 C1985 1.369 . S
C1986 C1995 1.429 . S
C1987 C1985 1.419 . S
C1987 C1988 1.363 . S
C1987 H1990 0.929 . S
C1988 C1987 1.363 . S
C1988 C1994 1.428 . S
H1989 C1985 0.930 . S
H1990 C1987 0.929 . S
S1991 N1992 1.613 . S
S1991 N1993 1.610 . S
N1992 S1991 1.613 . S
N1992 C1995 1.350 . S
N1993 S1991 1.610 . S
N1993 C1994 1.351 . S
C1994 C1988 1.428 . S
C1994 N1993 1.351 . S
C1994 C1995 1.434 . S
C1995 C1986 1.429 . S
C1995 N1992 1.350 . S
C1995 C1994 1.434 . S
C1996 C1997 1.369 . S
C1996 C1998 1.419 . S
C1996 H2000 0.930 . S
C1997 C1996 1.369 . S
C1997 C2006 1.429 . S
C1998 C1996 1.419 . S
C1998 C1999 1.363 . S
C1998 H2001 0.929 . S
C1999 C1998 1.363 . S
C1999 C2005 1.428 . S
H2000 C1996 0.930 . S
H2001 C1998 0.929 . S
S2002 N2003 1.613 . S
S2002 N2004 1.610 . S
N2003 S2002 1.613 . S
N2003 C2006 1.350 . S
N2004 S2002 1.610 . S
N2004 C2005 1.351 . S
C2005 C1999 1.428 . S
C2005 N2004 1.351 . S
C2005 C2006 1.434 . S
C2006 C1997 1.429 . S
C2006 N2003 1.350 . S
C2006 C2005 1.434 . S
C2007 C2008 1.369 . S
C2007 C2009 1.419 . S
C2007 H2011 0.930 . S
C2008 C2007 1.369 . S
C2008 C2017 1.429 . S
C2009 C2007 1.419 . S
C2009 C2010 1.363 . S
C2009 H2012 0.929 . S
C2010 C2009 1.363 . S
C2010 C2016 1.428 . S
H2011 C2007 0.930 . S
H2012 C2009 0.929 . S
S2013 N2014 1.613 . S
S2013 N2015 1.610 . S
N2014 S2013 1.613 . S
N2014 C2017 1.350 . S
N2015 S2013 1.610 . S
N2015 C2016 1.351 . S
C2016 C2010 1.428 . S
C2016 N2015 1.351 . S
C2016 C2017 1.434 . S
C2017 C2008 1.429 . S
C2017 N2014 1.350 . S
C2017 C2016 1.434 . S
C2018 C2019 1.369 . S
C2018 C2020 1.419 . S
C2018 H2022 0.930 . S
C2019 C2018 1.369 . S
C2019 C2028 1.429 . S
C2020 C2018 1.419 . S
C2020 C2021 1.363 . S
C2020 H2023 0.929 . S
C2021 C2020 1.363 . S
C2021 C2027 1.428 . S
H2022 C2018 0.930 . S
H2023 C2020 0.929 . S
S2024 N2025 1.613 . S
S2024 N2026 1.610 . S
N2025 S2024 1.613 . S
N2025 C2028 1.350 . S
N2026 S2024 1.610 . S
N2026 C2027 1.351 . S
C2027 C2021 1.428 . S
C2027 N2026 1.351 . S
C2027 C2028 1.434 . S
C2028 C2019 1.429 . S
C2028 N2025 1.350 . S
C2028 C2027 1.434 . S
C2029 C2030 1.369 . S
C2029 C2031 1.419 . S
C2029 H2033 0.930 . S
C2030 C2029 1.369 . S
C2030 C2039 1.429 . S
C2031 C2029 1.419 . S
C2031 C2032 1.363 . S
C2031 H2034 0.929 . S
C2032 C2031 1.363 . S
C2032 C2038 1.428 . S
H2033 C2029 0.930 . S
H2034 C2031 0.929 . S
S2035 N2036 1.613 . S
S2035 N2037 1.610 . S
N2036 S2035 1.613 . S
N2036 C2039 1.350 . S
N2037 S2035 1.610 . S
N2037 C2038 1.351 . S
C2038 C2032 1.428 . S
C2038 N2037 1.351 . S
C2038 C2039 1.434 . S
C2039 C2030 1.429 . S
C2039 N2036 1.350 . S
C2039 C2038 1.434 . S
C1251 C978 1.098 . S
C1249 C898 1.131 . S
C1260 C820 1.150 . S
C1262 C972 1.104 . S
C1273 C940 1.203 . S
C1271 C781 1.280 . S
C1282 C859 1.306 . S
C1284 C954 1.228 . S
C1295 C992 1.564 . S
C1293 C625 1.662 . S
C1306 C1079 1.141 . S
C1304 C664 1.172 . S
C1315 C703 1.709 . S
C1317 C1006 1.642 . S
C1328 C1074 0.853 . S
C1326 C742 0.859 . S
C1337 C469 1.706 . S
C1339 C1030 1.615 . S
C1350 C1085 1.191 . S
C1348 C508 1.227 . S
C1359 C547 1.659 . S
C1361 C1024 1.592 . S
C1370 C586 0.900 . S
C1372 C1070 0.895 . S
C1383 C1126 0.878 . S
C1381 C430 0.892 . S
C1392 C352 1.234 . S
C1394 C1137 1.207 . S
C1403 C313 0.957 . S
C1405 C1122 0.936 . S
C1416 C1131 1.264 . S
C1414 C391 1.296 . S
C1425 C157 1.242 1_455 S
C1427 C1176 1.199 . S
C1436 C196 0.495 . S
C1438 C1235 0.521 . S
C1447 C235 1.383 . S
C1449 C1192 1.275 . S
C1458 C274 0.883 . S
C1460 C1230 0.869 . S
C1471 C1194 1.312 . S
C1469 C1 1.396 . S
C1482 C1241 0.494 . S
C1480 C40 0.481 . S
C1491 C79 1.224 . S
C1493 C1170 1.165 . S
C1504 C1226 0.826 . S
C1502 C118 0.853 . S
C1515 C962 2.007 . S
C1513 C16 2.021 . S
C1524 C60 1.785 . S
C1526 C966 1.831 . S
C1535 C99 2.068 . S
C1537 C986 2.021 . S
C1546 C133 1.474 . S
C1548 C981 1.675 . S
C1557 C172 2.072 . S
C1559 C984 2.039 . S
C1570 C970 1.817 . S
C1568 C211 1.761 . S
C1579 C255 2.025 . S
C1581 C968 1.988 . S
C1592 C975 1.695 . S
C1590 C294 1.477 . S
C1603 C1038 2.045 . S
C1601 C138 2.071 . S
C1612 C21 2.222 . S
C1614 C1088 2.327 . S
C1625 C1036 1.677 . S
C1623 C55 1.710 . S
C1636 C1072 2.215 . S
C1634 C94 2.102 . S
C1645 C216 1.668 . S
C1647 C1014 1.644 . S
C1658 C1090 2.284 . S
C1656 C250 2.179 . S
C1669 C1020 1.994 . S
C1667 C289 2.012 . S
C1680 C1066 2.263 . S
C1678 C177 2.144 1_455 S
C1691 C1058 2.151 . S
C1689 C328 1.954 . S
C1700 C367 1.863 . S
C1702 C1082 2.114 . S
C1713 C1018 1.813 . S
C1711 C333 1.739 . S
C1724 C1044 2.154 . S
C1722 C411 1.929 . S
C1733 C445 1.676 . S
C1735 C1022 1.733 . S
C1744 C450 1.931 . S
C1746 C1076 2.135 . S
C1757 C1033 2.119 . S
C1755 C372 1.876 . S
C1768 C1027 2.160 . S
C1766 C406 1.918 . S
C1779 C1110 2.457 . S
C1777 C484 2.294 . S
C1790 C1142 2.256 . S
C1788 C528 2.025 . S
C1799 C567 2.270 . S
C1801 C1096 2.451 . S
C1812 C1140 1.861 . S
C1810 C601 1.681 . S
C1823 C1128 2.408 . S
C1821 C640 2.230 . S
C1832 C679 1.960 . S
C1834 C1124 2.192 . S
C1843 C723 2.300 . S
C1845 C1134 2.510 . S
C1856 C1118 1.839 . S
C1854 C762 1.639 . S
C1867 C1183 2.019 . S
C1865 C606 1.965 . S
C1876 C489 2.095 . S
C1878 C1244 2.276 . S
C1889 C1178 1.882 . S
C1887 C523 1.620 . S
C1900 C1228 2.268 . S
C1898 C562 2.022 . S
C1911 C1174 1.821 . S
C1909 C684 1.585 . S
C1920 C718 1.980 . S
C1922 C1246 2.183 . S
C1933 C1189 1.941 . S
C1931 C757 1.882 . S
C1944 C1222 2.134 . S
C1942 C645 1.950 . S
C1955 C1214 2.219 . S
C1953 C796 2.083 . S
C1964 C835 2.121 . S
C1966 C1238 2.222 . S
C1977 C1180 1.887 . S
C1975 C801 1.896 . S
C1986 C879 2.192 . S
C1988 C1200 2.294 . S
C1999 C1162 1.912 . S
C1997 C913 1.936 . S
C2010 C1232 2.164 . S
C2008 C918 2.024 . S
C2021 C1148 1.923 . S
C2019 C840 1.983 . S
C2030 C874 1.913 . S
C2032 C1186 1.890 . S
