# Generated by pormake.
# Topology zzz, (3,6)-cn, num edge types: 1
# Building blocks:
#     Node 0, Type 0, BuildingBlock: QEWDON_clean_linker_0, # of connection points: 3
#     Node 1, Type 0, BuildingBlock: QEWDON_clean_linker_0, # of connection points: 3
#     Node 2, Type 0, BuildingBlock: QEWDON_clean_linker_0, # of connection points: 3
#     Node 3, Type 0, BuildingBlock: QEWDON_clean_linker_0, # of connection points: 3
#     Node 4, Type 0, BuildingBlock: QEWDON_clean_linker_0, # of connection points: 3
#     Node 5, Type 0, BuildingBlock: QEWDON_clean_linker_0, # of connection points: 3
#     Node 6, Type 0, BuildingBlock: QEWDON_clean_linker_0, # of connection points: 3
#     Node 7, Type 0, BuildingBlock: QEWDON_clean_linker_0, # of connection points: 3
#     Node 8, Type 1, BuildingBlock: KUMBUR_clean_sbu_1, # of connection points: 6
#     Node 9, Type 1, BuildingBlock: KUMBUR_clean_sbu_1, # of connection points: 6
#     Node 10, Type 1, BuildingBlock: KUMBUR_clean_sbu_1, # of connection points: 6
#     Node 11, Type 1, BuildingBlock: KUMBUR_clean_sbu_1, # of connection points: 6
#     Edge 12, Type (0, 1), BuildingBlock: AJUNOK_clean_linker_0, # of connection points: 2
#     Edge 13, Type (0, 1), BuildingBlock: AJUNOK_clean_linker_0, # of connection points: 2
#     Edge 14, Type (0, 1), BuildingBlock: AJUNOK_clean_linker_0, # of connection points: 2
#     Edge 15, Type (0, 1), BuildingBlock: AJUNOK_clean_linker_0, # of connection points: 2
#     Edge 16, Type (0, 1), BuildingBlock: AJUNOK_clean_linker_0, # of connection points: 2
#     Edge 17, Type (0, 1), BuildingBlock: AJUNOK_clean_linker_0, # of connection points: 2
#     Edge 18, Type (0, 1), BuildingBlock: AJUNOK_clean_linker_0, # of connection points: 2
#     Edge 19, Type (0, 1), BuildingBlock: AJUNOK_clean_linker_0, # of connection points: 2
#     Edge 20, Type (0, 1), BuildingBlock: AJUNOK_clean_linker_0, # of connection points: 2
#     Edge 21, Type (0, 1), BuildingBlock: AJUNOK_clean_linker_0, # of connection points: 2
#     Edge 22, Type (0, 1), BuildingBlock: AJUNOK_clean_linker_0, # of connection points: 2
#     Edge 23, Type (0, 1), BuildingBlock: AJUNOK_clean_linker_0, # of connection points: 2
#     Edge 24, Type (0, 1), BuildingBlock: AJUNOK_clean_linker_0, # of connection points: 2
#     Edge 25, Type (0, 1), BuildingBlock: AJUNOK_clean_linker_0, # of connection points: 2
#     Edge 26, Type (0, 1), BuildingBlock: AJUNOK_clean_linker_0, # of connection points: 2
#     Edge 27, Type (0, 1), BuildingBlock: AJUNOK_clean_linker_0, # of connection points: 2
#     Edge 28, Type (0, 1), BuildingBlock: AJUNOK_clean_linker_0, # of connection points: 2
#     Edge 29, Type (0, 1), BuildingBlock: AJUNOK_clean_linker_0, # of connection points: 2
#     Edge 30, Type (0, 1), BuildingBlock: AJUNOK_clean_linker_0, # of connection points: 2
#     Edge 31, Type (0, 1), BuildingBlock: AJUNOK_clean_linker_0, # of connection points: 2
#     Edge 32, Type (0, 1), BuildingBlock: AJUNOK_clean_linker_0, # of connection points: 2
#     Edge 33, Type (0, 1), BuildingBlock: AJUNOK_clean_linker_0, # of connection points: 2
#     Edge 34, Type (0, 1), BuildingBlock: AJUNOK_clean_linker_0, # of connection points: 2
#     Edge 35, Type (0, 1), BuildingBlock: AJUNOK_clean_linker_0, # of connection points: 2
# Relax obj value: 0.160
# Max RMSD: 0.111
# Mean RMSD: 0.043
data_MOF--net-zzz--node1-KUMBUR_clean_sbu_1--node2-QEWDON_clean_linker_0--edge1-AJUNOK_clean_linker_0
_symmetry_space_group_name_H-M    P1
_symmetry_Int_Tables_number       1
_symmetry_cell_setting            triclinic
loop_
_symmetry_equiv_pos_as_xyz
'x, y, z'
_cell_length_a     39.501068
_cell_length_b     39.277279
_cell_length_c     11.586668
_cell_angle_alpha  90.461653
_cell_angle_beta   89.974377
_cell_angle_gamma 90.064329
loop_
_atom_site_label
_atom_site_type_symbol
_atom_site_fract_x
_atom_site_fract_y
_atom_site_fract_z
_atom_type_partial_charge
H0 H 0.77738 0.52345 0.15334 0.0
C1 C 0.79401 0.52749 0.22631 0.0
C2 C 0.82425 0.50943 0.228 0.0
C3 C 0.78657 0.55223 0.31032 0.0
H4 H 0.87221 0.5022 0.30837 0.0
C5 C 0.848 0.51501 0.31561 0.0
C6 C 0.84228 0.53775 0.40756 0.0
C7 C 0.81126 0.55728 0.4027 0.0
C8 C 0.75525 0.57456 0.28837 0.0
H9 H 0.80647 0.57597 0.46978 0.0
C10 C 0.72631 0.56381 0.2194 0.0
C11 C 0.70017 0.58711 0.18379 0.0
C12 C 0.75631 0.60877 0.32335 0.0
H13 H 0.7774 0.6186 0.37299 0.0
C14 C 0.73119 0.63154 0.28999 0.0
H15 H 0.7246 0.53765 0.19094 0.0
C16 C 0.70399 0.62113 0.22112 0.0
H17 H 0.68509 0.6401 0.20133 0.0
H18 H 0.73285 0.65788 0.31766 0.0
H19 H 0.08035 0.78871 0.19392 0.0
C20 C 0.07355 0.80751 0.25864 0.0
C21 C 0.08837 0.83941 0.25108 0.0
C22 C 0.05153 0.79951 0.34963 0.0
H23 H 0.09179 0.88971 0.31787 0.0
C24 C 0.08155 0.86458 0.33347 0.0
C25 C 0.06264 0.8581 0.43372 0.0
C26 C 0.0468 0.82504 0.43976 0.0
C27 C 0.03688 0.76343 0.35117 0.0
H28 H 1.03139 0.81906 0.51373 0.0
C29 C 0.0336 0.74252 0.24848 0.0
C30 C 1.02502 0.70706 0.25317 0.0
C31 C 1.02882 0.74835 0.45692 0.0
H32 H 1.03125 0.76229 0.53733 0.0
C33 C 1.01891 0.71435 0.46206 0.0
H34 H 0.03736 0.75389 0.16497 0.0
C35 C 1.01768 0.69392 0.36294 0.0
H36 H 1.01177 0.6673 0.37352 0.0
H37 H 1.01335 0.70338 0.54509 0.0
H38 H 0.81058 0.07684 0.21135 0.0
C39 C 0.79483 0.07278 0.28617 0.0
C40 C 0.76341 0.08888 0.28849 0.0
C41 C 0.80449 0.05045 0.37473 0.0
H42 H 0.71997 0.10125 0.39084 0.0
C43 C 0.74339 0.08684 0.38783 0.0
C44 C 0.74714 0.05966 0.46384 0.0
C45 C 0.77895 0.04202 0.46035 0.0
C46 C 0.84081 1.03688 0.37531 0.0
H47 H 0.78321 1.02151 0.52029 0.0
C48 C 0.863 1.03701 0.27588 0.0
C49 C 0.89833 1.02893 0.28434 0.0
C50 C 0.85491 1.02707 0.48091 0.0
H51 H 0.84006 1.02739 0.55937 0.0
C52 C 0.889 1.01855 0.48957 0.0
H53 H 0.85308 0.04295 0.19171 0.0
C54 C 0.91041 1.01961 0.39374 0.0
H55 H 0.93696 1.01429 0.40683 0.0
H56 H 0.89911 1.01252 0.57333 0.0
H57 H 0.53192 0.80262 0.15252 0.0
C58 C 0.53562 0.78623 0.22563 0.0
C59 C 0.52092 0.75405 0.21938 0.0
C60 C 0.55456 0.79676 0.32232 0.0
H61 H 0.51436 0.7053 0.29711 0.0
C62 C 0.52578 0.73033 0.30652 0.0
C63 C 0.5446 0.73807 0.40535 0.0
C64 C 0.55903 0.77175 0.41363 0.0
C65 C 0.56972 0.83311 0.32216 0.0
H66 H 0.57279 0.77818 0.49129 0.0
C67 C 0.56051 0.85933 0.23987 0.0
C68 C 0.5775 0.89162 0.23547 0.0
C69 C 0.59533 0.84158 0.40165 0.0
H70 H 0.60413 0.82351 0.46455 0.0
C71 C 0.61117 0.87337 0.4002 0.0
H72 H 0.54069 0.85509 0.17747 0.0
C73 C 0.60258 0.89788 0.31875 0.0
H74 H 0.61582 0.92205 0.32112 0.0
H75 H 0.63101 0.87881 0.46191 0.0
H76 H 0.29115 0.5914 0.29268 0.0
C77 C 0.27439 0.58413 0.22275 0.0
C78 C 0.24153 0.5965 0.22579 0.0
C79 C 0.28649 0.56546 0.12808 0.0
H80 H 0.19322 0.59943 0.14312 0.0
C81 C 0.21888 0.58978 0.13581 0.0
C82 C 0.2286 0.57172 0.03639 0.0
C83 C 0.263 0.55914 0.03311 0.0
C84 C 0.32472 0.55843 0.12679 0.0
H85 H 0.27147 0.54551 0.95693 0.0
C86 C 0.3452 0.5556 0.23059 0.0
C87 C 0.38153 0.55748 0.2274 0.0
C88 C 0.34193 0.56023 0.02125 0.0
H89 H 0.32821 0.56266 0.94093 0.0
C90 C 0.37718 0.56152 0.01745 0.0
H91 H 0.33306 0.55322 0.31385 0.0
C92 C 0.39653 0.56115 0.11836 0.0
H93 H 0.4237 0.56337 0.11081 0.0
H94 H 0.38959 0.56372 0.93477 0.0
H95 H 1.02826 0.30741 0.30098 0.0
C96 C 0.03392 0.2906 0.22952 0.0
C97 C 1.02976 0.25607 0.24857 0.0
C98 C 0.04391 0.30313 0.1215 0.0
H99 H 1.02973 0.20595 0.17653 0.0
C100 C 0.0337 0.23266 0.1581 0.0
C101 C 0.0404 0.24268 0.04449 0.0
C102 C 0.04671 0.27848 0.02701 0.0
C103 C 0.04871 0.34192 0.11166 0.0
H104 H 0.05295 0.28678 0.94097 0.0
C105 C 0.05176 0.36444 0.21101 0.0
C106 C 0.05317 0.40056 0.20017 0.0
C107 C 0.04829 0.3574 1.00272 0.0
H108 H 0.04537 0.34251 0.92457 0.0
C109 C 0.05058 0.39276 0.99199 0.0
H110 H 0.05328 0.35465 0.29754 0.0
C111 C 0.05302 0.41402 0.08893 0.0
H112 H 0.05406 0.44131 0.07744 0.0
H113 H 0.04961 0.40382 0.90716 0.0
H114 H 0.28281 0.99729 0.24473 0.0
C115 C 0.30037 1.00731 0.18191 0.0
C116 C 0.33144 0.99058 0.16673 0.0
C117 C 0.29209 1.03632 0.11692 0.0
H118 H 0.37882 0.98918 0.07502 0.0
C119 C 0.35454 1.00188 0.08358 0.0
C120 C 0.34851 1.03073 0.0177 0.0
C121 C 0.31726 0.04842 0.0358 0.0
C122 C 0.25694 0.0525 0.13122 0.0
H123 H 0.31293 0.07143 0.98741 0.0
C124 C 0.23574 0.04906 0.23263 0.0
C125 C 0.2025 0.06383 0.23821 0.0
C126 C 0.24328 0.07043 0.03771 0.0
H127 H 0.257 0.07291 0.95746 0.0
C128 C 0.21108 0.08471 0.04329 0.0
H129 H 0.24498 1.03576 0.3076 0.0
C130 C 0.19098 0.08149 0.14122 0.0
H131 H 0.16591 0.0927 0.14053 0.0
H132 H 0.20147 0.09818 0.96983 0.0
H133 H 0.4869 0.2691 0.22947 0.0
C134 C 0.49572 0.2886 0.1715 0.0
C135 C 0.47764 0.31899 0.17039 0.0
C136 C 0.52559 0.28435 0.10731 0.0
H137 H 0.47184 0.36758 0.08818 0.0
C138 C 0.48634 0.34431 0.09015 0.0
C139 C 0.51545 0.34253 0.02149 0.0
C140 C 0.5358 0.31225 0.03259 0.0
C141 C 0.54471 0.25053 0.12128 0.0
H142 H 0.55907 0.31058 0.98371 0.0
C143 C 0.54071 0.22827 0.22003 0.0
C144 C 0.55678 0.19565 0.22594 0.0
C145 C 0.5656 0.23888 0.03117 0.0
H146 H 0.569 0.25371 0.95377 0.0
C147 C 0.58163 0.20727 0.03689 0.0
H148 H 0.5258 0.23611 0.29372 0.0
C149 C 0.57725 0.18609 0.13201 0.0
H150 H 0.5897 0.16167 0.13107 0.0
H151 H 0.5973 0.19878 0.96557 0.0
Tb152 Tb 1.01514 0.05154 0.63702 0.0
C153 C 0.12761 0.11372 0.89123 0.0
N154 N 0.12803 0.08438 0.828 0.0
C155 C 0.17897 0.10292 0.73347 0.0
C156 C 0.15179 0.13962 0.87301 0.0
C157 C 0.15524 0.07755 0.75821 0.0
C158 C 0.17662 0.13454 0.78854 0.0
C159 C 0.10485 0.1455 0.05393 0.0
C160 C 0.10466 0.11659 0.98127 0.0
C161 C 0.12808 0.17185 0.03363 0.0
C162 C 0.15156 0.16887 0.94354 0.0
Tb163 Tb 0.08593 0.04592 0.87149 0.0
N164 N 0.08241 0.09068 0.99863 0.0
C165 C 0.08197 0.14688 0.14583 0.0
C166 C 0.06106 0.09121 0.09171 0.0
C167 C 0.06016 0.11952 0.16553 0.0
H168 H 0.15907 0.05248 0.72163 0.0
H169 H 0.04261 0.12027 0.23725 0.0
H170 H 0.9523 1.00711 0.74203 0.0
H171 H 0.08325 0.03924 0.22984 0.0
H172 H 0.0439 0.07029 0.10639 0.0
H173 H 0.08133 0.16882 0.20244 0.0
H174 H 0.05874 0.07146 0.39214 0.0
H175 H 0.19953 0.09776 0.67411 0.0
H176 H 0.12842 0.19439 0.08816 0.0
H177 H 0.16987 0.18905 0.93054 0.0
H178 H 0.9203 0.95481 0.69153 0.0
H179 H 0.19546 0.1539 0.77116 0.0
H180 H 0.0643 0.9804 0.18948 0.0
N181 N 0.98733 1.00144 0.60389 0.0
C182 C 0.99592 0.98366 0.50758 0.0
C183 C 0.94176 0.96245 0.63972 0.0
C184 C 0.97893 0.95337 0.47662 0.0
C185 C 0.96 0.99189 0.66848 0.0
C186 C 0.95124 0.94312 0.5432 0.0
N187 N 1.03297 1.02842 0.4628 0.0
C188 C 0.0524 0.04484 0.38248 0.0
C189 C 1.03107 0.97884 0.33767 0.0
C190 C 1.02076 0.99685 0.43752 0.0
C191 C 0.055 0.99376 0.26522 0.0
C192 C 0.06543 1.02708 0.28714 0.0
H193 H 0.93713 0.92031 0.52122 0.0
H194 H 0.97763 0.91095 0.35583 0.0
H195 H 1.02415 0.93281 0.23565 0.0
O196 O 0.98411 0.06795 0.50021 0.0
O197 O 1.02655 1.00167 0.7195 0.0
O198 O 0.08333 1.00251 0.74731 0.0
O199 O 0.96845 0.07421 0.67604 0.0
O200 O 0.06643 0.07254 0.5925 0.0
O201 O 0.10172 1.03695 0.69086 0.0
O202 O 0.09089 1.00525 0.98781 0.0
O203 O 0.04975 0.08905 0.86546 0.0
O204 O 0.03851 0.10199 0.67949 0.0
O205 O 0.13073 0.04157 0.9672 0.0
O206 O 0.03558 1.02877 0.93862 0.0
O207 O 0.99612 0.05396 0.81695 0.0
C208 C 0.05578 0.98568 0.71663 0.0
C209 C 0.94476 0.11127 0.54147 0.0
C210 C 0.9518 0.17202 0.51407 0.0
C211 C 0.92101 0.17233 0.45175 0.0
C212 C 0.91452 0.11189 0.47873 0.0
C213 C 0.90207 0.1426 0.43749 0.0
C214 C 0.9613 0.1417 0.56873 0.0
C215 C 0.09574 0.05628 0.60114 0.0
C216 C 0.96028 0.07862 0.56892 0.0
C217 C 0.9898 0.93473 0.37958 0.0
C218 C 1.01629 0.94715 0.31132 0.0
C219 C 0.04642 0.11221 0.78505 0.0
C220 C 0.14737 0.9846 0.98351 0.0
C221 C 0.16021 0.92406 0.97511 0.0
C222 C 0.19311 0.93127 0.93733 0.0
C223 C 0.18042 0.99166 0.94434 0.0
C224 C 0.13764 0.95078 0.99852 0.0
C225 C 0.20304 0.96507 0.92113 0.0
C226 C 1.00425 0.03932 0.91575 0.0
C227 C 0.1227 1.01204 1.00693 0.0
H228 H 0.91241 0.19479 0.40708 0.0
H229 H 0.9009 0.08869 0.4595 0.0
H230 H 0.87888 0.14297 0.38775 0.0
H231 H 0.98302 0.1409 0.62528 0.0
H232 H 0.21111 0.91092 0.92249 0.0
H233 H 0.18885 1.0176 0.93168 0.0
H234 H 0.11262 0.94517 0.03225 0.0
H235 H 0.22846 0.97073 0.892 0.0
Tb236 Tb 0.5572 0.08046 0.83556 0.0
C237 C 0.57785 0.93934 0.70374 0.0
N238 N 0.58243 0.96697 0.63579 0.0
C239 C 0.63787 0.94641 0.58519 0.0
C240 C 0.60396 0.91553 0.72207 0.0
C241 C 0.61069 0.96857 0.56758 0.0
C242 C 0.63489 0.92038 0.66586 0.0
C243 C 0.53848 0.90303 0.80531 0.0
C244 C 0.54578 0.93306 0.74449 0.0
C245 C 0.56487 0.8804 0.83136 0.0
C246 C 0.59764 0.88671 0.79 0.0
Tb247 Tb 0.53733 1.00436 0.62564 0.0
N248 N 0.52125 0.95592 0.71951 0.0
C249 C 0.50479 0.8963 0.83496 0.0
C250 C 0.48809 0.94856 0.74189 0.0
C251 C 0.47939 0.91884 0.80085 0.0
H252 H 0.61235 0.98669 0.49836 0.0
H253 H 0.45315 0.91345 0.82055 0.0
H254 H 0.48941 0.12981 0.81773 0.0
H255 H 0.6892 0.11873 0.84536 0.0
H256 H 0.46844 0.96581 0.7151 0.0
H257 H 0.49806 0.87345 0.88145 0.0
H258 H 0.64 0.0834 0.89721 0.0
H259 H 0.6607 0.94885 0.53422 0.0
H260 H 0.55998 0.85748 0.88005 0.0
H261 H 0.61751 0.8684 0.80658 0.0
H262 H 0.47489 0.18625 0.73855 0.0
H263 H 0.65567 0.90276 0.67761 0.0
H264 H 0.68107 0.1709 0.73018 0.0
N265 N 0.54144 0.13327 0.77228 0.0
C266 C 0.56659 0.15365 0.73319 0.0
C267 C 0.50076 0.17726 0.73555 0.0
C268 C 0.55965 0.18608 0.68785 0.0
C269 C 0.50905 0.14541 0.78071 0.0
C270 C 0.52608 0.19742 0.68667 0.0
N271 N 0.60469 0.11301 0.80263 0.0
C272 C 0.63626 0.10536 0.84341 0.0
C273 C 0.62668 0.16466 0.71953 0.0
C274 C 0.5995 0.14301 0.74834 0.0
C275 C 0.65948 0.155 0.75063 0.0
C276 C 0.66418 0.12561 0.81552 0.0
H277 H 0.51966 0.22218 0.65244 0.0
H278 H 0.58172 0.23145 0.61339 0.0
H279 H 0.64059 0.21269 0.64159 0.0
O280 O 0.566 0.1147 0.97225 0.0
O281 O 0.5283 0.08889 0.67398 0.0
O282 O 0.55066 0.05328 0.54002 0.0
O283 O 0.53575 0.07025 0.99804 0.0
O284 O 0.60206 0.05026 0.77619 0.0
O285 O 0.58528 1.03295 0.59634 0.0
O286 O 0.49677 1.00325 0.50761 0.0
O287 O 0.53183 0.99963 0.81562 0.0
O288 O 0.57662 1.02935 0.88388 0.0
O289 O 0.54008 0.97123 0.48279 0.0
O290 O 0.48928 1.02744 0.69475 0.0
O291 O 0.50371 0.06469 0.84461 0.0
C292 C 0.54002 0.08399 0.56925 0.0
C293 C 0.57882 0.08047 0.13121 0.0
C294 C 0.63907 0.07026 0.1588 0.0
C295 C 0.63092 0.03948 0.21435 0.0
C296 C 0.57116 0.05124 0.19514 0.0
C297 C 0.59723 1.03079 0.23622 0.0
C298 C 0.61268 0.09077 0.12046 0.0
C299 C 0.60975 0.04102 0.66964 0.0
C300 C 0.55411 0.09355 0.04784 0.0
C301 C 0.58653 0.20666 0.65032 0.0
C302 C 0.62004 0.19597 0.66627 0.0
C303 C 0.5567 1.00248 0.89026 0.0
C304 C 0.48678 0.94702 0.4408 0.0
C305 C 0.43014 0.92409 0.40855 0.0
C306 C 0.44265 0.89095 0.42156 0.0
C307 C 0.49899 0.91363 0.45502 0.0
C308 C 0.45243 0.95187 0.41719 0.0
C309 C 0.47697 0.88583 0.4454 0.0
C310 C 0.48107 0.04683 0.78575 0.0
C311 C 0.50912 0.97709 0.45226 0.0
H312 H 0.65044 1.0222 0.24276 0.0
H313 H 0.54522 0.04267 0.20445 0.0
H314 H 0.59134 1.00739 0.2808 0.0
H315 H 0.61871 0.11302 0.07057 0.0
H316 H 0.42599 0.86918 0.41235 0.0
H317 H 0.52546 0.9089 0.47339 0.0
H318 H 0.44311 0.97746 0.40277 0.0
H319 H 0.48661 0.86023 0.45556 0.0
Tb320 Tb 0.56904 0.52666 0.63168 0.0
C321 C 0.47029 0.51474 0.03849 0.0
N322 N 0.46389 0.51971 0.92575 0.0
C323 C 0.41494 0.48374 0.93581 0.0
C324 C 0.44958 0.49327 0.1048 0.0
C325 C 0.43602 0.50566 0.87422 0.0
C326 C 0.42187 0.47739 0.05174 0.0
C327 C 0.50013 0.53298 0.20902 0.0
C328 C 0.49442 0.5352 0.09027 0.0
C329 C 0.48223 0.50896 0.27349 0.0
C330 C 0.45591 0.49039 0.223 0.0
Tb331 Tb 0.49748 0.55758 0.83447 0.0
N332 N 0.50885 0.56023 0.02703 0.0
C333 C 0.5215 0.55679 0.26092 0.0
C334 C 0.52501 0.58674 0.08128 0.0
C335 C 0.53292 0.58468 0.19821 0.0
H336 H 0.43003 0.51168 0.78588 0.0
H337 H 0.54706 0.60489 0.24009 0.0
H338 H 0.61262 0.4645 0.75557 0.0
H339 H 0.61631 0.61852 0.32455 0.0
H340 H 0.53247 0.6092 0.03413 0.0
H341 H 0.52669 0.55534 0.35131 0.0
H342 H 0.5755 0.57663 0.3993 0.0
H343 H 0.39298 0.47247 0.89476 0.0
H344 H 0.48793 0.50513 0.36321 0.0
H345 H 0.44038 0.47457 0.27711 0.0
H346 H 0.67069 0.45608 0.82893 0.0
H347 H 0.40467 0.4617 0.10062 0.0
H348 H 0.67215 0.62484 0.41997 0.0
N349 N 0.62367 0.51237 0.67904 0.0
C350 C 0.64818 0.53465 0.65024 0.0
C351 C 0.66467 0.47852 0.77942 0.0
C352 C 0.68175 0.53098 0.68888 0.0
C353 C 0.63174 0.48343 0.73787 0.0
C354 C 0.68968 0.5028 0.75686 0.0
N355 N 0.60797 0.55864 0.5305 0.0
C356 C 0.60032 0.57777 0.43597 0.0
C357 C 0.66438 0.58217 0.53275 0.0
C358 C 0.63982 0.55921 0.57301 0.0
C359 C 0.65502 0.60507 0.44704 0.0
C360 C 0.62337 0.60183 0.39442 0.0
H361 H 0.71517 0.49894 0.78863 0.0
H362 H 0.7322 0.55288 0.68436 0.0
H363 H 0.71674 0.59836 0.54822 0.0
O364 O 0.53946 0.48451 0.59156 0.0
O365 O 0.55836 0.5824 0.61168 0.0
O366 O 0.52159 0.60257 0.75358 0.0
O367 O 0.58454 0.49491 0.49276 0.0
O368 O 0.52209 0.54937 0.55366 0.0
O369 O 0.48626 0.52713 0.68101 0.0
O370 O 0.45754 0.58269 0.91885 0.0
O371 O 0.50318 0.50109 0.81317 0.0
O372 O 0.55986 0.49577 0.79036 0.0
O373 O 0.46182 0.5843 0.73476 0.0
O374 O 0.55104 0.57468 0.87669 0.0
O375 O 0.58392 0.53063 0.81341 0.0
C376 C 0.54191 0.60764 0.6642 0.0
C377 C 0.54065 0.46035 0.4082 0.0
C378 C 0.49616 0.42237 0.33834 0.0
C379 C 0.50583 0.43 0.22437 0.0
C380 C 0.55023 0.46738 0.29453 0.0
C381 C 0.53261 0.45242 0.20305 0.0
C382 C 0.51385 0.43761 0.42948 0.0
C383 C 0.4908 0.54026 0.57946 0.0
C384 C 0.5588 0.47452 0.50756 0.0
C385 C 0.70628 0.55483 0.65451 0.0
C386 C 0.6975 0.58067 0.57699 0.0
C387 C 0.53083 0.4825 0.82361 0.0
C388 C 0.43245 0.62906 0.82474 0.0
C389 C 0.43936 0.68802 0.88349 0.0
C390 C 0.4078 0.69589 0.83515 0.0
C391 C 0.40114 0.63705 0.77485 0.0
C392 C 0.45156 0.65458 0.87807 0.0
C393 C 0.38891 0.67043 0.77986 0.0
C394 C 0.57943 0.55666 0.88257 0.0
C395 C 0.44431 0.59385 0.82379 0.0
H396 H 0.49299 0.41847 0.15164 0.0
H397 H 0.57068 0.4849 0.27647 0.0
H398 H 0.53931 0.45888 0.11572 0.0
H399 H 0.50733 0.43094 0.51747 0.0
H400 H 0.39781 0.72152 0.84077 0.0
H401 H 0.38606 0.61744 0.73322 0.0
H402 H 0.47551 0.6482 0.91829 0.0
H403 H 0.36462 0.67648 0.74211 0.0
Tb404 Tb 0.03996 0.58973 0.60295 0.0
C405 C 0.09593 0.4778 0.91013 0.0
N406 N 0.07255 0.47677 0.82368 0.0
C407 C 0.09858 0.42632 0.74572 0.0
C408 C 0.12201 0.45335 0.91578 0.0
C409 C 0.07311 0.45097 0.74354 0.0
C410 C 0.12316 0.42753 0.83203 0.0
C411 C 0.11944 0.50708 0.07714 0.0
C412 C 0.09444 0.50441 0.9904 0.0
C413 C 0.14566 0.48301 0.08169 0.0
C414 C 0.14671 0.45602 1.00231 0.0
Tb415 Tb 1.03237 0.51881 0.83007 0.0
N416 N 0.06934 0.52818 0.98097 0.0
C417 C 0.11774 0.53417 0.15576 0.0
C418 C 0.06647 0.55317 0.06327 0.0
C419 C 0.09094 0.55705 0.14948 0.0
H420 H 0.05316 0.44822 0.68097 0.0
H421 H 0.08869 0.57738 0.21269 0.0
H422 H 0.99846 0.65253 0.73681 0.0
H423 H 1.01516 0.5227 0.19777 0.0
H424 H 0.04491 0.56958 0.06751 0.0
H425 H 0.13659 0.53725 0.22297 0.0
H426 H 0.05091 0.54184 0.35784 0.0
H427 H 0.09885 0.40602 0.68198 0.0
H428 H 0.16551 0.48523 0.14574 0.0
H429 H 0.16714 0.43772 1.0072 0.0
H430 H 0.94851 0.68845 0.69876 0.0
H431 H 0.14285 0.40834 0.83344 0.0
H432 H 0.95993 0.5501 0.16399 0.0
N433 N 0.99234 0.62241 0.58452 0.0
C434 C 0.9741 0.61703 0.48633 0.0
C435 C 0.95533 0.66835 0.63873 0.0
C436 C 0.94533 0.63697 0.46156 0.0
C437 C 0.98341 0.64775 0.66067 0.0
C438 C 0.93632 0.66308 0.53856 0.0
N439 N 1.01271 0.57313 0.43556 0.0
C440 C 1.02543 0.55146 0.35314 0.0
C441 C 0.96395 0.58306 0.31407 0.0
C442 C 0.9837 0.59064 0.41267 0.0
C443 C 0.97464 0.55711 0.23947 0.0
C444 C 1.00578 0.54158 0.25831 0.0
H445 H 0.91443 0.67893 0.52244 0.0
H446 H 0.9033 0.64408 0.3441 0.0
H447 H 0.91928 0.59656 0.21606 0.0
O448 O 0.07796 0.60337 0.48324 0.0
O449 O 0.98829 0.57783 0.67234 0.0
O450 O 0.98962 0.521 0.70419 0.0
O451 O 0.04549 0.64081 0.55816 0.0
O452 O 0.0596 0.53775 0.55502 0.0
O453 O 1.024 0.50179 0.65159 0.0
O454 O 0.99069 0.51212 0.94301 0.0
O455 O 0.08468 0.53106 0.76859 0.0
O456 O 0.08392 0.58746 0.72474 0.0
O457 O 1.02417 0.47112 0.90321 0.0
O458 O 1.01712 0.57129 0.89142 0.0
O459 O 0.0469 0.60913 0.77868 0.0
C460 C 0.97262 0.54819 0.67094 0.0
C461 C 0.10174 0.65723 0.53459 0.0
C462 C 0.16236 0.66716 0.53525 0.0
C463 C 0.15793 0.69757 0.59701 0.0
C464 C 0.09735 0.68761 0.59862 0.0
C465 C 0.12534 0.70758 0.62956 0.0
C466 C 0.13434 0.64732 0.50392 0.0
C467 C 0.04398 0.50791 0.56361 0.0
C468 C 0.07272 0.63581 0.49962 0.0
C469 C 0.92574 0.62937 0.36364 0.0
C470 C 0.9347 0.60215 0.29118 0.0
C471 C 0.10028 0.56072 0.76542 0.0
C472 C 0.96687 0.45709 0.91064 0.0
C473 C 0.90688 0.4439 0.91738 0.0
C474 C 0.91181 0.41546 0.84604 0.0
C475 C 0.97169 0.42869 0.83695 0.0
C476 C 0.93437 0.4644 0.95004 0.0
C477 C 0.94428 0.40802 0.80534 0.0
C478 C 1.03012 0.60216 0.87358 0.0
C479 C 0.99527 0.47928 0.9462 0.0
H480 H 0.17944 0.71348 0.61884 0.0
H481 H 0.07241 0.696 0.62491 0.0
H482 H 0.12171 0.73099 0.67787 0.0
H483 H 0.13805 0.62439 0.45247 0.0
H484 H 0.89072 0.39926 0.82197 0.0
H485 H 0.99651 0.42235 0.80354 0.0
H486 H 0.93039 0.486 1.00751 0.0
H487 H 0.94826 0.38622 0.74925 0.0
C488 C 0.16541 1.03055 0.38056 0.0
C489 C 0.17847 0.06184 0.34112 0.0
C490 C 0.13876 1.02911 0.46318 0.0
C491 C 0.12321 0.05877 0.50913 0.0
H492 H 0.17511 1.00696 0.34473 0.0
H493 H 0.1297 1.0044 0.48933 0.0
S494 S 0.15091 0.14698 0.44697 0.0
N495 N 0.17539 0.12325 0.36349 0.0
N496 N 0.12589 0.12031 0.51635 0.0
C497 C 0.13671 0.09007 0.47277 0.0
C498 C 0.16401 0.09161 0.38991 0.0
C499 C 0.52026 0.16023 0.36676 0.0
C500 C 0.55249 0.17032 0.3254 0.0
C501 C 0.51621 0.13291 0.44635 0.0
C502 C 0.54409 0.1138 0.48703 0.0
H503 H 0.49783 0.17279 0.33455 0.0
H504 H 0.49091 0.12612 0.47387 0.0
S505 S 0.63404 0.13307 0.42421 0.0
N506 N 0.61302 0.16123 0.34714 0.0
N507 N 0.6051 0.10987 0.48956 0.0
C508 C 0.57628 0.12453 0.45034 0.0
C509 C 0.58053 0.15262 0.37196 0.0
C510 C 0.43248 0.57954 0.34456 0.0
C511 C 0.40517 0.55615 0.33292 0.0
C512 C 0.45886 0.57543 0.42707 0.0
C513 C 0.4601 0.54723 0.50184 0.0
H514 H 0.43414 0.60089 0.28625 0.0
H515 H 0.47916 0.59399 0.42935 0.0
S516 S 0.3949 0.47878 0.51173 0.0
N517 N 0.3809 0.50436 0.40985 0.0
N518 N 0.43022 0.49613 0.56088 0.0
C519 C 0.43209 0.52462 0.49555 0.0
C520 C 0.40497 0.52906 0.41232 0.0
C521 C 1.02145 0.434 0.35492 0.0
C522 C 0.05244 0.42524 0.3019 0.0
C523 C 1.01913 0.46051 0.43847 0.0
C524 C 0.04752 0.48024 0.47193 0.0
H525 H 0.99854 0.42072 0.32964 0.0
H526 H 0.99458 0.46608 0.4756 0.0
S527 S 0.13525 0.4655 0.36977 0.0
N528 N 0.11268 0.43726 0.29615 0.0
N529 N 0.10818 0.48693 0.45107 0.0
C530 C 0.07874 0.47136 0.42123 0.0
C531 C 0.08119 0.44408 0.337 0.0
C532 C 0.95118 1.00779 0.17556 0.0
C533 C 0.92366 1.03098 0.18393 0.0
C534 C 0.97699 1.01072 0.09085 0.0
C535 C 0.97669 1.03668 1.00751 0.0
H536 H 0.95293 0.98689 0.23547 0.0
H537 H 0.99717 0.99209 0.08982 0.0
S538 S 0.91179 0.10517 0.99074 0.0
N539 N 0.89924 0.08196 0.10099 0.0
N540 N 0.94634 0.08662 0.9407 0.0
C541 C 0.94924 0.05986 1.01359 0.0
C542 C 0.92322 0.0572 0.10117 0.0
C543 C 0.59847 0.93625 0.09121 0.0
C544 C 0.57096 0.91907 0.14445 0.0
C545 C 0.59384 0.96349 1.01275 0.0
C546 C 0.56139 0.97522 0.98194 0.0
H547 H 0.62414 0.92842 0.10999 0.0
H548 H 0.61599 0.97499 0.97398 0.0
S549 S 0.48064 0.94234 0.10379 0.0
N550 N 0.50981 0.91821 0.16415 0.0
N551 N 0.50116 0.96885 0.01849 0.0
C552 C 0.53365 0.95887 0.03586 0.0
C553 C 0.53837 0.93106 0.11583 0.0
C554 C 0.65405 0.60288 0.03429 0.0
C555 C 0.66909 0.578 0.10735 0.0
C556 C 0.62436 0.59666 0.96781 0.0
C557 C 0.60804 0.56481 0.96688 0.0
H558 H 0.66561 0.62769 0.02568 0.0
H559 H 0.61489 0.61673 0.91301 0.0
S560 S 0.63533 0.48995 0.1376 0.0
N561 N 0.66315 0.51964 0.17324 0.0
N562 N 0.60942 0.5076 0.04367 0.0
C563 C 0.62273 0.53942 0.03695 0.0
C564 C 0.65251 0.54597 0.10742 0.0
C565 C 1.00275 0.65388 0.14528 0.0
C566 C 1.02467 0.68262 0.14846 0.0
C567 C 1.00435 0.62849 0.05746 0.0
C568 C 1.02763 0.63032 0.96546 0.0
H569 H 0.98391 0.65075 0.2119 0.0
H570 H 0.98703 0.60718 0.06179 0.0
S571 S 0.08872 0.70159 0.92264 0.0
N572 N 0.06964 0.71147 0.04491 0.0
N573 N 0.07147 0.66548 0.87866 0.0
C574 C 0.04857 0.65975 0.96382 0.0
C575 C 0.04735 0.6853 0.05465 0.0
C576 C 0.98464 0.25411 0.39771 0.0
C577 C 1.01682 0.24379 0.36003 0.0
C578 C 0.96522 0.23285 0.46805 0.0
C579 C 0.97686 0.20005 0.497 0.0
H580 H 0.97292 0.27667 0.3624 0.0
H581 H 0.9395 0.24047 0.4875 0.0
S582 S 0.06475 0.16847 0.4522 0.0
N583 N 0.06384 0.20553 0.38697 0.0
N584 N 1.02683 0.16333 0.50795 0.0
C585 C 1.01147 0.19276 0.47682 0.0
C586 C 1.03155 0.21528 0.41023 0.0
C587 C 0.35876 0.93472 0.20247 0.0
C588 C 0.34335 0.96428 0.24764 0.0
C589 C 0.38439 0.91814 0.26358 0.0
C590 C 0.395 0.9306 0.37157 0.0
H591 H 0.35406 0.92708 0.11383 0.0
H592 H 0.39864 0.89827 0.22006 0.0
S593 S 0.35593 1.00072 0.5403 0.0
N594 N 0.33543 1.00065 0.41608 0.0
N595 N 0.38316 0.96891 0.5321 0.0
C596 C 0.37594 0.95645 0.4251 0.0
C597 C 0.35001 0.97344 0.36275 0.0
C598 C 0.47838 0.33175 0.37365 0.0
C599 C 0.4578 0.32892 0.2747 0.0
C600 C 0.48781 0.3643 0.41214 0.0
C601 C 0.47336 0.39319 0.36062 0.0
H602 H 0.49419 0.3106 0.39937 0.0
H603 H 0.50995 0.36666 0.4668 0.0
S604 S 0.39565 0.39257 0.18168 0.0
N605 N 0.40731 0.35226 0.18784 0.0
N606 N 0.42337 0.41411 0.26045 0.0
C607 C 0.44317 0.38838 0.2981 0.0
C608 C 0.43416 0.35502 0.26037 0.0
C609 C 0.22153 0.65232 0.29862 0.0
C610 C 0.23095 0.6186 0.32155 0.0
C611 C 0.20398 0.67147 0.38105 0.0
C612 C 0.19497 0.65697 0.48697 0.0
H613 H 0.22543 0.66292 0.21355 0.0
H614 H 0.19364 0.69587 0.35607 0.0
S615 S 0.21942 0.57211 0.59513 0.0
N616 N 0.23505 0.57346 0.46289 0.0
N617 N 0.20123 0.60943 0.61768 0.0
C618 C 0.20804 0.62496 0.51593 0.0
C619 C 0.22609 0.60555 0.43242 0.0
C620 C 0.14532 0.85642 0.18535 0.0
C621 C 0.11185 0.84756 0.15705 0.0
C622 C 0.16433 0.87712 0.11229 0.0
C623 C 0.14999 0.88975 1.01049 0.0
H624 H 0.15536 0.85055 0.26991 0.0
H625 H 0.18826 0.88707 0.14352 0.0
S626 S 0.06692 0.86635 0.88533 0.0
N627 N 0.06787 0.84679 1.011 0.0
N628 N 0.10368 0.88611 0.87309 0.0
C629 C 0.11875 0.87658 0.97316 0.0
C630 C 0.09945 0.85542 0.04736 0.0
C631 C 0.73375 0.06189 0.13122 0.0
C632 C 0.74426 0.09305 0.18017 0.0
C633 C 0.69928 0.05522 0.11555 0.0
C634 C 0.67495 0.08044 0.13869 0.0
H635 H 0.75093 0.0404 0.12853 0.0
H636 H 0.69159 1.02942 0.09477 0.0
S637 S 0.69362 0.17175 0.19952 0.0
N638 N 0.73085 0.15274 0.20349 0.0
N639 N 0.66599 0.14161 0.16694 0.0
C640 C 0.68663 0.11418 0.15558 0.0
C641 C 0.72178 0.12047 0.17385 0.0
C642 C 0.46439 0.741 0.13888 0.0
C643 C 0.49935 0.7447 0.12137 0.0
C644 C 0.44407 0.72558 0.05473 0.0
C645 C 0.4584 0.71311 0.95192 0.0
H646 H 0.45311 0.74832 0.22066 0.0
H647 H 0.41764 0.72091 0.07416 0.0
S648 S 0.54803 0.72021 0.86088 0.0
N649 N 0.54698 0.73785 0.99084 0.0
N650 N 0.50875 0.70836 0.83233 0.0
C651 C 0.49289 0.71894 0.93027 0.0
C652 C 0.51348 0.73487 0.01547 0.0
C653 C 0.84521 0.45406 0.15235 0.0
C654 C 0.83368 0.48721 0.13026 0.0
C655 C 0.86506 0.4367 0.07129 0.0
C656 C 0.87389 0.45225 0.96697 0.0
H657 H 0.84172 0.44298 0.23688 0.0
H658 H 0.87697 0.41303 0.09629 0.0
S659 S 0.84462 0.53552 0.85927 0.0
N660 N 0.82797 0.53256 0.98968 0.0
N661 N 0.86543 0.49961 0.8373 0.0
C662 C 0.85877 0.48324 0.93774 0.0
C663 C 0.8386 0.50096 0.01997 0.0
C664 C 1.01391 0.18785 0.96509 0.0
C665 C 0.03859 0.21399 0.9524 0.0
C666 C 1.0157 0.15627 0.90581 0.0
C667 C 0.04123 0.14897 0.82472 0.0
H668 H 0.99365 0.19096 0.02726 0.0
H669 H 0.99742 0.13676 0.92729 0.0
S670 S 0.10797 0.21023 0.7357 0.0
N671 N 0.08714 0.23116 0.83779 0.0
N672 N 0.08931 0.1727 0.72238 0.0
C673 C 0.06412 0.17585 0.80128 0.0
C674 C 0.06292 0.20804 0.8648 0.0
C675 C 0.38731 1.02135 0.84422 0.0
C676 C 0.37749 0.04182 0.93974 0.0
C677 C 0.4196 1.02444 0.79051 0.0
C678 C 0.44455 0.0474 0.83165 0.0
H679 H 0.37041 1.00145 0.81418 0.0
H680 H 0.42546 1.00747 0.71933 0.0
S681 S 0.43148 0.10761 0.07881 0.0
N682 N 0.39528 0.08671 0.07017 0.0
N683 N 0.45542 0.09228 0.97386 0.0
C684 C 0.43442 0.06884 0.9251 0.0
C685 C 0.40132 0.06604 0.97787 0.0
C686 C 0.55301 0.39418 0.96182 0.0
C687 C 0.52307 0.37457 0.9487 0.0
C688 C 0.55603 0.42807 0.91735 0.0
C689 C 0.52886 0.44495 0.86116 0.0
H690 H 0.57372 0.38402 1.012 0.0
H691 H 0.57931 0.44189 0.93341 0.0
S692 S 0.44703 0.40355 0.78637 0.0
N693 N 0.46747 0.37398 0.85887 0.0
N694 N 0.47259 0.43678 0.78249 0.0
C695 C 0.49968 0.42491 0.84201 0.0
C696 C 0.49697 0.39031 0.88375 0.0
C697 C 0.18822 0.53747 0.9014 0.0
C698 C 0.20144 0.56892 0.94093 0.0
C699 C 0.15714 0.5353 0.83807 0.0
C700 C 0.13657 0.56412 0.81446 0.0
H701 H 0.20108 0.51414 0.92404 0.0
H702 H 0.14877 0.51047 0.80969 0.0
S703 S 0.16369 0.65323 0.87363 0.0
N704 N 0.19423 0.63016 0.93035 0.0
N705 N 0.13617 0.62588 0.81889 0.0
C706 C 0.15121 0.59582 0.8444 0.0
C707 C 0.18314 0.59815 0.90586 0.0
C708 C 0.08865 0.91097 0.5315 0.0
C709 C 0.06152 0.88705 0.52529 0.0
C710 C 0.08694 0.94157 0.59607 0.0
C711 C 0.05844 0.95026 0.66238 0.0
H712 H 0.11187 0.90653 0.48427 0.0
H713 H 0.1081 0.95896 0.59171 0.0
S714 S 0.98723 0.89091 0.7224 0.0
N715 N 1.00893 0.87112 0.62007 0.0
N716 N 1.00706 0.92736 0.74697 0.0
C717 C 0.03321 0.92474 0.67145 0.0
C718 C 0.0345 0.89357 0.60277 0.0
C719 C 0.68434 0.04764 0.45709 0.0
C720 C 0.71431 0.04842 0.52376 0.0
C721 C 0.65177 0.04504 0.50563 0.0
C722 C 0.64632 0.04212 0.625 0.0
H723 H 0.68611 0.05081 0.36495 0.0
H724 H 0.6303 0.04622 0.44827 0.0
S725 S 0.716 1.03495 0.83981 0.0
N726 N 0.73627 0.04182 0.71742 0.0
N727 N 0.67515 1.03425 0.8087 0.0
C728 C 0.67611 0.03993 0.69352 0.0
C729 C 0.70981 0.04349 0.64327 0.0
C730 C 0.57555 0.69011 0.51477 0.0
C731 C 0.54603 0.70977 0.49586 0.0
C732 C 0.57447 0.65792 0.57188 0.0
C733 C 0.54383 0.64343 0.61257 0.0
H734 H 0.59945 0.69876 0.47983 0.0
H735 H 0.59785 0.64396 0.58231 0.0
S736 S 0.45913 0.68312 0.57872 0.0
N737 N 0.4852 0.71133 0.52265 0.0
N738 N 0.48316 0.6516 0.62419 0.0
C739 C 0.51442 0.66311 0.59538 0.0
C740 C 0.51553 0.6958 0.53889 0.0
C741 C 0.88389 0.57162 0.54108 0.0
C742 C 0.87089 0.54032 0.49899 0.0
C743 C 0.91508 0.57361 0.60398 0.0
C744 C 0.93624 0.54495 0.62285 0.0
H745 H 0.87061 0.59499 0.52189 0.0
H746 H 0.92298 0.59811 0.63681 0.0
S747 S 0.90954 0.4558 0.56246 0.0
N748 N 0.87829 0.47885 0.51025 0.0
N749 N 0.93732 0.48326 0.61467 0.0
C750 C 0.92182 0.5133 0.59166 0.0
C751 C 0.88946 0.51097 0.53298 0.0
loop_
_geom_bond_atom_site_label_1
_geom_bond_atom_site_label_2
_geom_bond_distance
_geom_bond_site_symmetry_2
_ccdc_geom_bond_type
H0 C1 0.949 . S
C1 H0 0.949 . S
C1 C2 1.395 . S
C1 C3 1.391 . S
C2 C1 1.395 . S
C2 C5 1.390 . S
C3 C1 1.391 . S
C3 C7 1.387 . S
C3 C8 1.491 . S
H4 C5 0.950 . S
C5 C2 1.390 . S
C5 H4 0.950 . S
C5 C6 1.378 . S
C6 C5 1.378 . S
C6 C7 1.409 . S
C7 C3 1.387 . S
C7 C6 1.409 . S
C7 H9 0.951 . S
C8 C3 1.491 . S
C8 C10 1.382 . S
C8 C12 1.404 . S
H9 C7 0.951 . S
C10 C8 1.382 . S
C10 C11 1.390 . S
C10 H15 0.949 . S
C11 C10 1.390 . S
C11 C16 1.399 . S
C12 C8 1.404 . S
C12 H13 0.950 . S
C12 C14 1.375 . S
H13 C12 0.950 . S
C14 C12 1.375 . S
C14 C16 1.382 . S
C14 H18 0.950 . S
H15 C10 0.949 . S
C16 C11 1.399 . S
C16 C14 1.382 . S
C16 H17 0.952 . S
H17 C16 0.952 . S
H18 C14 0.950 . S
H19 C20 0.949 . S
C20 H19 0.949 . S
C20 C21 1.395 . S
C20 C22 1.391 . S
C21 C20 1.395 . S
C21 C24 1.390 . S
C22 C20 1.391 . S
C22 C26 1.387 . S
C22 C27 1.491 . S
H23 C24 0.950 . S
C24 C21 1.390 . S
C24 H23 0.950 . S
C24 C25 1.378 . S
C25 C24 1.378 . S
C25 C26 1.409 . S
C26 C22 1.387 . S
C26 C25 1.409 . S
C26 H28 0.951 . S
C27 C22 1.491 . S
C27 C29 1.382 . S
C27 C31 1.404 . S
H28 C26 0.951 . S
C29 C27 1.382 . S
C29 C30 1.390 . S
C29 H34 0.949 . S
C30 C29 1.390 . S
C30 C35 1.399 . S
C31 C27 1.404 . S
C31 H32 0.950 . S
C31 C33 1.375 . S
H32 C31 0.950 . S
C33 C31 1.375 . S
C33 C35 1.382 . S
C33 H37 0.950 . S
H34 C29 0.949 . S
C35 C30 1.399 . S
C35 C33 1.382 . S
C35 H36 0.952 . S
H36 C35 0.952 . S
H37 C33 0.950 . S
H38 C39 0.949 . S
C39 H38 0.949 . S
C39 C40 1.395 . S
C39 C41 1.391 . S
C40 C39 1.395 . S
C40 C43 1.390 . S
C41 C39 1.391 . S
C41 C45 1.387 . S
C41 C46 1.491 . S
H42 C43 0.950 . S
C43 C40 1.390 . S
C43 H42 0.950 . S
C43 C44 1.378 . S
C44 C43 1.378 . S
C44 C45 1.409 . S
C45 C41 1.387 . S
C45 C44 1.409 . S
C45 H47 0.951 . S
C46 C41 1.491 . S
C46 C48 1.382 . S
C46 C50 1.404 . S
H47 C45 0.951 . S
C48 C46 1.382 . S
C48 C49 1.390 . S
C48 H53 0.949 . S
C49 C48 1.390 . S
C49 C54 1.399 . S
C50 C46 1.404 . S
C50 H51 0.950 . S
C50 C52 1.375 . S
H51 C50 0.950 . S
C52 C50 1.375 . S
C52 C54 1.382 . S
C52 H56 0.950 . S
H53 C48 0.949 . S
C54 C49 1.399 . S
C54 C52 1.382 . S
C54 H55 0.952 . S
H55 C54 0.952 . S
H56 C52 0.950 . S
H57 C58 0.949 . S
C58 H57 0.949 . S
C58 C59 1.395 . S
C58 C60 1.391 . S
C59 C58 1.395 . S
C59 C62 1.390 . S
C60 C58 1.391 . S
C60 C64 1.387 . S
C60 C65 1.491 . S
H61 C62 0.950 . S
C62 C59 1.390 . S
C62 H61 0.950 . S
C62 C63 1.378 . S
C63 C62 1.378 . S
C63 C64 1.409 . S
C64 C60 1.387 . S
C64 C63 1.409 . S
C64 H66 0.951 . S
C65 C60 1.491 . S
C65 C67 1.382 . S
C65 C69 1.404 . S
H66 C64 0.951 . S
C67 C65 1.382 . S
C67 C68 1.390 . S
C67 H72 0.949 . S
C68 C67 1.390 . S
C68 C73 1.399 . S
C69 C65 1.404 . S
C69 H70 0.950 . S
C69 C71 1.375 . S
H70 C69 0.950 . S
C71 C69 1.375 . S
C71 C73 1.382 . S
C71 H75 0.950 . S
H72 C67 0.949 . S
C73 C68 1.399 . S
C73 C71 1.382 . S
C73 H74 0.952 . S
H74 C73 0.952 . S
H75 C71 0.950 . S
H76 C77 0.949 . S
C77 H76 0.949 . S
C77 C78 1.395 . S
C77 C79 1.398 . S
C78 C77 1.395 . S
C78 C81 1.390 1_554 S
C79 C77 1.398 . S
C79 C83 1.380 1_554 S
C79 C84 1.491 . S
H80 C81 0.950 . S
C81 C78 1.390 1_556 S
C81 H80 0.950 . S
C81 C82 1.378 . S
C82 C81 1.378 . S
C82 C83 1.409 . S
C83 C79 1.380 1_556 S
C83 C82 1.409 . S
C83 H85 0.951 . S
C84 C79 1.491 . S
C84 C86 1.382 . S
C84 C88 1.404 1_554 S
H85 C83 0.951 . S
C86 C84 1.382 . S
C86 C87 1.390 . S
C86 H91 0.949 . S
C87 C86 1.390 . S
C87 C92 1.399 . S
C88 C84 1.404 1_556 S
C88 H89 0.950 . S
C88 C90 1.375 . S
H89 C88 0.950 . S
C90 C88 1.375 . S
C90 C92 1.382 1_556 S
C90 H94 0.950 . S
H91 C86 0.949 . S
C92 C87 1.399 . S
C92 C90 1.382 1_554 S
C92 H93 0.952 . S
H93 C92 0.952 . S
H94 C90 0.950 . S
H95 C96 0.949 . S
C96 H95 0.949 . S
C96 C97 1.395 . S
C96 C98 1.391 . S
C97 C96 1.395 . S
C97 C100 1.390 1_554 S
C98 C96 1.391 . S
C98 C102 1.387 1_554 S
C98 C103 1.491 . S
H99 C100 0.950 . S
C100 C97 1.390 1_556 S
C100 H99 0.950 . S
C100 C101 1.378 . S
C101 C100 1.378 . S
C101 C102 1.409 . S
C102 C98 1.387 1_556 S
C102 C101 1.409 . S
C102 H104 0.951 . S
C103 C98 1.491 . S
C103 C105 1.382 . S
C103 C107 1.404 1_454 S
H104 C102 0.951 . S
C105 C103 1.382 . S
C105 C106 1.390 . S
C105 H110 0.949 . S
C106 C105 1.390 . S
C106 C111 1.399 . S
C107 C103 1.404 1_656 S
C107 H108 0.950 . S
C107 C109 1.375 . S
H108 C107 0.950 . S
C109 C107 1.375 . S
C109 C111 1.382 1_656 S
C109 H113 0.950 . S
H110 C105 0.949 . S
C111 C106 1.399 . S
C111 C109 1.382 1_454 S
C111 H112 0.952 1_455 S
H112 C111 0.952 1_655 S
H113 C109 0.950 . S
H114 C115 0.949 . S
C115 H114 0.949 . S
C115 C116 1.395 . S
C115 C117 1.391 . S
C116 C115 1.395 . S
C116 C119 1.390 1_554 S
C117 C115 1.391 . S
C117 C121 1.387 1_554 S
C117 C122 1.491 . S
H118 C119 0.950 . S
C119 C116 1.390 1_556 S
C119 H118 0.950 . S
C119 C120 1.378 . S
C120 C119 1.378 . S
C120 C121 1.409 . S
C121 C117 1.387 1_556 S
C121 C120 1.409 . S
C121 H123 0.951 . S
C122 C117 1.491 . S
C122 C124 1.382 . S
C122 C126 1.404 1_544 S
H123 C121 0.951 . S
C124 C122 1.382 . S
C124 C125 1.390 . S
C124 H129 0.949 . S
C125 C124 1.390 . S
C125 C130 1.399 . S
C126 C122 1.404 1_566 S
C126 H127 0.950 . S
C126 C128 1.375 . S
H127 C126 0.950 . S
C128 C126 1.375 . S
C128 C130 1.382 1_566 S
C128 H132 0.950 . S
H129 C124 0.949 . S
C130 C125 1.399 . S
C130 C128 1.382 1_544 S
C130 H131 0.952 1_545 S
H131 C130 0.952 1_565 S
H132 C128 0.950 . S
H133 C134 0.949 . S
C134 H133 0.949 . S
C134 C135 1.395 . S
C134 C136 1.391 1_554 S
C135 C134 1.395 . S
C135 C138 1.390 1_554 S
C136 C134 1.391 1_556 S
C136 C140 1.387 . S
C136 C141 1.491 1_556 S
H137 C138 0.950 . S
C138 C135 1.390 1_556 S
C138 H137 0.950 . S
C138 C139 1.378 . S
C139 C138 1.378 . S
C139 C140 1.409 . S
C140 C136 1.387 . S
C140 C139 1.409 . S
C140 H142 0.951 . S
C141 C136 1.491 1_554 S
C141 C143 1.382 . S
C141 C145 1.404 1_554 S
H142 C140 0.951 . S
C143 C141 1.382 . S
C143 C144 1.390 . S
C143 H148 0.949 . S
C144 C143 1.390 . S
C144 C149 1.399 . S
C145 C141 1.404 1_556 S
C145 H146 0.950 . S
C145 C147 1.375 . S
H146 C145 0.950 . S
C147 C145 1.375 . S
C147 C149 1.382 1_556 S
C147 H151 0.950 . S
H148 C143 0.949 . S
C149 C144 1.399 . S
C149 C147 1.382 1_554 S
C149 H150 0.952 . S
H150 C149 0.952 . S
H151 C147 0.950 . S
Tb152 N181 2.617 . S
Tb152 N187 2.572 . S
Tb152 O196 2.460 1_655 S
Tb152 O197 2.387 1_545 S
Tb152 O199 2.428 . S
Tb152 O200 2.308 1_655 S
Tb152 O204 2.349 1_655 S
Tb152 O207 2.393 . S
Tb152 C216 2.802 . S
C153 N154 1.379 1_554 S
C153 C156 1.416 . S
C153 C160 1.424 . S
N154 C153 1.379 1_556 S
N154 C157 1.334 . S
N154 Tb163 2.617 1_545 S
C155 C157 1.390 . S
C155 C158 1.339 . S
C155 H175 0.930 . S
C156 C153 1.416 . S
C156 C158 1.416 1_554 S
C156 C162 1.448 . S
C157 N154 1.334 . S
C157 C155 1.390 . S
C157 H168 0.930 1_545 S
C158 C155 1.339 . S
C158 C156 1.416 1_556 S
C158 H179 0.930 1_556 S
C159 C160 1.413 . S
C159 C161 1.427 . S
C159 C165 1.416 . S
C160 C153 1.424 . S
C160 C159 1.413 . S
C160 N164 1.361 . S
C161 C159 1.427 . S
C161 C162 1.328 . S
C161 H176 0.929 . S
C162 C156 1.448 . S
C162 C161 1.328 . S
C162 H177 0.930 . S
Tb163 N154 2.617 1_565 S
Tb163 N164 2.572 1_566 S
Tb163 O198 2.349 . S
Tb163 O201 2.393 . S
Tb163 O202 2.465 . S
Tb163 O203 2.387 1_565 S
Tb163 O205 2.428 . S
Tb163 O206 2.308 1_465 S
Tb163 C227 2.802 . S
N164 C160 1.361 . S
N164 Tb163 2.572 1_544 S
N164 C166 1.340 . S
C165 C159 1.416 . S
C165 C167 1.332 . S
C165 H173 0.931 . S
C166 N164 1.340 . S
C166 C167 1.407 . S
C166 H172 0.930 1_455 S
C167 C165 1.332 . S
C167 C166 1.407 . S
C167 H169 0.929 1_455 S
H168 C157 0.930 1_565 S
H169 C167 0.929 1_655 S
H170 C185 0.930 . S
H171 C192 0.929 . S
H172 C166 0.930 1_655 S
H173 C165 0.931 . S
H174 C188 0.930 . S
H175 C155 0.930 . S
H176 C161 0.929 . S
H177 C162 0.930 . S
H178 C183 0.930 . S
H179 C158 0.930 1_554 S
H180 C191 0.931 . S
N181 Tb152 2.617 . S
N181 C182 1.379 1_545 S
N181 C185 1.334 . S
C182 N181 1.379 1_565 S
C182 C184 1.416 . S
C182 C190 1.424 . S
C183 H178 0.930 . S
C183 C185 1.390 . S
C183 C186 1.339 1_545 S
C184 C182 1.416 . S
C184 C186 1.416 . S
C184 C217 1.448 . S
C185 H170 0.930 . S
C185 N181 1.334 . S
C185 C183 1.390 . S
C186 C183 1.339 1_565 S
C186 C184 1.416 . S
C186 H193 0.930 . S
N187 Tb152 2.572 . S
N187 C188 1.340 1_655 S
N187 C190 1.361 1_545 S
C188 H174 0.930 . S
C188 N187 1.340 1_455 S
C188 C192 1.407 1_545 S
C189 C190 1.413 . S
C189 C191 1.416 . S
C189 C218 1.427 . S
C190 C182 1.424 . S
C190 N187 1.361 1_565 S
C190 C189 1.413 . S
C191 H180 0.931 . S
C191 C189 1.416 . S
C191 C192 1.332 1_655 S
C192 H171 0.929 . S
C192 C188 1.407 1_565 S
C192 C191 1.332 1_455 S
H193 C186 0.930 . S
H194 C217 0.930 . S
H195 C218 0.929 . S
O196 Tb152 2.460 1_455 S
O196 C216 1.250 1_455 S
O197 Tb152 2.387 1_565 S
O197 C208 1.264 . S
O198 Tb163 2.349 . S
O198 C208 1.243 1_455 S
O199 Tb152 2.428 . S
O199 C216 1.256 . S
O200 Tb152 2.308 1_455 S
O200 C215 1.266 . S
O201 Tb163 2.393 . S
O201 C215 1.248 1_565 S
O202 Tb163 2.465 . S
O202 C227 1.264 . S
O203 Tb163 2.387 1_545 S
O203 C219 1.264 . S
O204 Tb152 2.349 1_455 S
O204 C219 1.243 . S
O205 Tb163 2.428 . S
O205 C227 1.256 . S
O206 Tb163 2.308 1_645 S
O206 C226 1.266 . S
O207 Tb152 2.393 . S
O207 C226 1.248 . S
C208 O197 1.264 . S
C208 O198 1.243 1_655 S
C209 C212 1.399 . S
C209 C214 1.383 . S
C209 C216 1.496 . S
C210 C211 1.399 . S
C210 C214 1.389 . S
C211 C210 1.399 . S
C211 C213 1.380 . S
C211 H228 0.929 . S
C212 C209 1.399 . S
C212 C213 1.392 . S
C212 H229 0.929 . S
C213 C211 1.380 . S
C213 C212 1.392 . S
C213 H230 0.929 . S
C214 C209 1.383 . S
C214 C210 1.389 . S
C214 H231 0.931 1_655 S
C215 O200 1.266 . S
C215 O201 1.248 1_545 S
C216 Tb152 2.802 . S
C216 O196 1.250 1_655 S
C216 O199 1.256 . S
C216 C209 1.496 . S
C217 C184 1.448 . S
C217 H194 0.930 . S
C217 C218 1.328 . S
C218 C189 1.427 . S
C218 H195 0.929 . S
C218 C217 1.328 . S
C219 O203 1.264 . S
C219 O204 1.243 . S
C220 C223 1.399 . S
C220 C224 1.383 . S
C220 C227 1.496 1_554 S
C221 C222 1.399 . S
C221 C224 1.389 . S
C222 C221 1.399 . S
C222 C225 1.380 . S
C222 H232 0.929 . S
C223 C220 1.399 . S
C223 C225 1.392 . S
C223 H233 0.929 1_554 S
C224 C220 1.383 . S
C224 C221 1.389 . S
C224 H234 0.931 . S
C225 C222 1.380 . S
C225 C223 1.392 . S
C225 H235 0.929 . S
C226 O206 1.266 . S
C226 O207 1.248 . S
C227 Tb163 2.802 . S
C227 O202 1.264 . S
C227 O205 1.256 . S
C227 C220 1.496 1_556 S
H228 C211 0.929 . S
H229 C212 0.929 . S
H230 C213 0.929 . S
H231 C214 0.931 1_455 S
H232 C222 0.929 . S
H233 C223 0.929 1_556 S
H234 C224 0.931 . S
H235 C225 0.929 . S
Tb236 N265 2.617 . S
Tb236 N271 2.572 . S
Tb236 O280 2.465 . S
Tb236 O281 2.387 . S
Tb236 O283 2.428 1_556 S
Tb236 O284 2.308 . S
Tb236 O288 2.349 1_545 S
Tb236 O291 2.393 . S
Tb236 C300 2.802 1_556 S
C237 N238 1.379 . S
C237 C240 1.416 . S
C237 C244 1.424 . S
N238 C237 1.379 . S
N238 C241 1.334 . S
N238 Tb247 2.617 . S
C239 C241 1.390 . S
C239 C242 1.339 . S
C239 H259 0.930 . S
C240 C237 1.416 . S
C240 C242 1.416 . S
C240 C246 1.448 . S
C241 N238 1.334 . S
C241 C239 1.390 . S
C241 H252 0.930 . S
C242 C239 1.339 . S
C242 C240 1.416 . S
C242 H263 0.930 . S
C243 C244 1.413 . S
C243 C245 1.427 . S
C243 C249 1.416 . S
C244 C237 1.424 . S
C244 C243 1.413 . S
C244 N248 1.361 . S
C245 C243 1.427 . S
C245 C246 1.328 . S
C245 H260 0.929 . S
C246 C240 1.448 . S
C246 C245 1.328 . S
C246 H261 0.930 . S
Tb247 N238 2.617 . S
Tb247 N248 2.572 . S
Tb247 O282 2.349 1_565 S
Tb247 O285 2.393 . S
Tb247 O286 2.465 . S
Tb247 O287 2.387 . S
Tb247 O289 2.428 . S
Tb247 O290 2.299 1_565 S
Tb247 C311 2.802 . S
N248 C244 1.361 . S
N248 Tb247 2.572 . S
N248 C250 1.340 . S
C249 C243 1.416 . S
C249 C251 1.332 . S
C249 H257 0.931 . S
C250 N248 1.340 . S
C250 C251 1.407 . S
C250 H256 0.930 . S
C251 C249 1.332 . S
C251 C250 1.407 . S
C251 H253 0.929 . S
H252 C241 0.930 . S
H253 C251 0.929 . S
H254 C269 0.928 1_554 S
H255 C276 0.929 . S
H256 C250 0.930 . S
H257 C249 0.931 . S
H258 C272 0.930 . S
H259 C239 0.930 . S
H260 C245 0.929 . S
H261 C246 0.930 . S
H262 C267 0.930 . S
H263 C242 0.930 . S
H264 C275 0.931 . S
N265 Tb236 2.617 . S
N265 C266 1.379 . S
N265 C269 1.339 . S
C266 N265 1.379 . S
C266 C268 1.416 . S
C266 C274 1.424 . S
C267 H262 0.930 . S
C267 C269 1.387 1_554 S
C267 C270 1.339 . S
C268 C266 1.416 . S
C268 C270 1.416 1_556 S
C268 C301 1.448 . S
C269 H254 0.928 1_556 S
C269 N265 1.339 . S
C269 C267 1.387 1_556 S
C270 C267 1.339 . S
C270 C268 1.416 1_554 S
C270 H277 0.930 . S
N271 Tb236 2.572 . S
N271 C272 1.340 . S
N271 C274 1.361 . S
C272 H258 0.930 . S
C272 N271 1.340 . S
C272 C276 1.407 . S
C273 C274 1.413 . S
C273 C275 1.416 . S
C273 C302 1.427 . S
C274 C266 1.424 . S
C274 N271 1.361 . S
C274 C273 1.413 . S
C275 H264 0.931 . S
C275 C273 1.416 . S
C275 C276 1.332 . S
C276 H255 0.929 . S
C276 C272 1.407 . S
C276 C275 1.332 . S
H277 C270 0.930 . S
H278 C301 0.930 . S
H279 C302 0.929 . S
O280 Tb236 2.465 . S
O280 C300 1.264 1_556 S
O281 Tb236 2.387 . S
O281 C292 1.264 . S
O282 Tb247 2.349 1_545 S
O282 C292 1.243 . S
O283 Tb236 2.428 1_554 S
O283 C300 1.256 . S
O284 Tb236 2.308 . S
O284 C299 1.266 1_545 S
O285 Tb247 2.393 . S
O285 C299 1.248 . S
O286 Tb247 2.465 . S
O286 C311 1.264 . S
O287 Tb247 2.387 . S
O287 C303 1.264 . S
O288 Tb236 2.349 1_565 S
O288 C303 1.243 . S
O289 Tb247 2.428 . S
O289 C311 1.256 . S
O290 Tb247 2.299 1_545 S
O290 C310 1.280 . S
O291 Tb236 2.393 . S
O291 C310 1.248 . S
C292 O281 1.264 . S
C292 O282 1.243 . S
C293 C296 1.399 . S
C293 C298 1.383 . S
C293 C300 1.496 . S
C294 C295 1.399 . S
C294 C298 1.389 . S
C295 C294 1.399 . S
C295 C297 1.380 . S
C295 H312 0.929 . S
C296 C293 1.399 . S
C296 C297 1.392 . S
C296 H313 0.929 . S
C297 C295 1.380 . S
C297 C296 1.392 . S
C297 H314 0.929 . S
C298 C293 1.383 . S
C298 C294 1.389 . S
C298 H315 0.931 . S
C299 O284 1.266 1_565 S
C299 O285 1.248 . S
C300 Tb236 2.802 1_554 S
C300 O280 1.264 1_554 S
C300 O283 1.256 . S
C300 C293 1.496 . S
C301 C268 1.448 . S
C301 H278 0.930 . S
C301 C302 1.328 . S
C302 C273 1.427 . S
C302 H279 0.929 . S
C302 C301 1.328 . S
C303 O287 1.264 . S
C303 O288 1.243 . S
C304 C307 1.399 . S
C304 C308 1.390 . S
C304 C311 1.496 . S
C305 C306 1.394 1_545 S
C305 C308 1.388 1_545 S
C306 C305 1.394 1_565 S
C306 C309 1.380 . S
C306 H316 0.929 . S
C307 C304 1.399 . S
C307 C309 1.392 . S
C307 H317 0.929 . S
C308 C304 1.390 . S
C308 C305 1.388 1_565 S
C308 H318 0.925 1_565 S
C309 C306 1.380 . S
C309 C307 1.392 . S
C309 H319 0.929 . S
C310 O290 1.280 . S
C310 O291 1.248 . S
C311 Tb247 2.802 . S
C311 O286 1.264 . S
C311 O289 1.256 . S
C311 C304 1.496 . S
H312 C295 0.929 . S
H313 C296 0.929 . S
H314 C297 0.929 . S
H315 C298 0.931 . S
H316 C306 0.929 . S
H317 C307 0.929 . S
H318 C308 0.925 1_545 S
H319 C309 0.929 . S
Tb320 N349 2.617 . S
Tb320 N355 2.572 . S
Tb320 O364 2.465 . S
Tb320 O365 2.387 . S
Tb320 O367 2.428 . S
Tb320 O368 2.308 . S
Tb320 O372 2.349 . S
Tb320 O375 2.393 . S
Tb320 C384 2.802 . S
C321 N322 1.379 1_554 S
C321 C324 1.416 . S
C321 C328 1.424 . S
N322 C321 1.379 1_556 S
N322 C325 1.334 . S
N322 Tb331 2.617 . S
C323 C325 1.390 . S
C323 C326 1.339 . S
C323 H343 0.930 . S
C324 C321 1.416 . S
C324 C326 1.416 1_554 S
C324 C330 1.448 . S
C325 N322 1.334 . S
C325 C323 1.390 . S
C325 H336 0.930 . S
C326 C323 1.339 . S
C326 C324 1.416 1_556 S
C326 H347 0.930 1_556 S
C327 C328 1.413 . S
C327 C329 1.427 . S
C327 C333 1.416 . S
C328 C321 1.424 . S
C328 C327 1.413 . S
C328 N332 1.361 . S
C329 C327 1.427 . S
C329 C330 1.328 . S
C329 H344 0.929 . S
C330 C324 1.448 . S
C330 C329 1.328 . S
C330 H345 0.930 . S
Tb331 N322 2.617 . S
Tb331 N332 2.572 1_556 S
Tb331 O366 2.349 . S
Tb331 O369 2.393 . S
Tb331 O370 2.465 . S
Tb331 O371 2.387 . S
Tb331 O373 2.428 . S
Tb331 O374 2.308 . S
Tb331 C395 2.802 . S
N332 C328 1.361 . S
N332 Tb331 2.572 1_554 S
N332 C334 1.340 . S
C333 C327 1.416 . S
C333 C335 1.332 . S
C333 H341 0.931 . S
C334 N332 1.340 . S
C334 C335 1.407 . S
C334 H340 0.930 . S
C335 C333 1.332 . S
C335 C334 1.407 . S
C335 H337 0.929 . S
H336 C325 0.930 . S
H337 C335 0.929 . S
H338 C353 0.930 . S
H339 C360 0.929 . S
H340 C334 0.930 . S
H341 C333 0.931 . S
H342 C356 0.930 . S
H343 C323 0.930 . S
H344 C329 0.929 . S
H345 C330 0.930 . S
H346 C351 0.930 . S
H347 C326 0.930 1_554 S
H348 C359 0.931 . S
N349 Tb320 2.617 . S
N349 C350 1.379 . S
N349 C353 1.334 . S
C350 N349 1.379 . S
C350 C352 1.416 . S
C350 C358 1.424 . S
C351 H346 0.930 . S
C351 C353 1.390 . S
C351 C354 1.339 . S
C352 C350 1.416 . S
C352 C354 1.416 . S
C352 C385 1.448 . S
C353 H338 0.930 . S
C353 N349 1.334 . S
C353 C351 1.390 . S
C354 C351 1.339 . S
C354 C352 1.416 . S
C354 H361 0.930 . S
N355 Tb320 2.572 . S
N355 C356 1.340 . S
N355 C358 1.361 . S
C356 H342 0.930 . S
C356 N355 1.340 . S
C356 C360 1.407 . S
C357 C358 1.413 . S
C357 C359 1.416 . S
C357 C386 1.427 . S
C358 C350 1.424 . S
C358 N355 1.361 . S
C358 C357 1.413 . S
C359 H348 0.931 . S
C359 C357 1.416 . S
C359 C360 1.332 . S
C360 H339 0.929 . S
C360 C356 1.407 . S
C360 C359 1.332 . S
H361 C354 0.930 . S
H362 C385 0.930 . S
H363 C386 0.929 . S
O364 Tb320 2.465 . S
O364 C384 1.264 . S
O365 Tb320 2.387 . S
O365 C376 1.264 . S
O366 Tb331 2.349 . S
O366 C376 1.243 . S
O367 Tb320 2.428 . S
O367 C384 1.256 . S
O368 Tb320 2.308 . S
O368 C383 1.266 . S
O369 Tb331 2.393 . S
O369 C383 1.248 . S
O370 Tb331 2.465 . S
O370 C395 1.264 . S
O371 Tb331 2.387 . S
O371 C387 1.264 . S
O372 Tb320 2.349 . S
O372 C387 1.243 . S
O373 Tb331 2.428 . S
O373 C395 1.256 . S
O374 Tb331 2.308 . S
O374 C394 1.266 . S
O375 Tb320 2.393 . S
O375 C394 1.248 . S
C376 O365 1.264 . S
C376 O366 1.243 . S
C377 C380 1.399 . S
C377 C382 1.383 . S
C377 C384 1.496 . S
C378 C379 1.399 . S
C378 C382 1.389 . S
C379 C378 1.399 . S
C379 C381 1.380 . S
C379 H396 0.929 . S
C380 C377 1.399 . S
C380 C381 1.392 . S
C380 H397 0.929 . S
C381 C379 1.380 . S
C381 C380 1.392 . S
C381 H398 0.929 . S
C382 C377 1.383 . S
C382 C378 1.389 . S
C382 H399 0.931 . S
C383 O368 1.266 . S
C383 O369 1.248 . S
C384 Tb320 2.802 . S
C384 O364 1.264 . S
C384 O367 1.256 . S
C384 C377 1.496 . S
C385 C352 1.448 . S
C385 H362 0.930 . S
C385 C386 1.328 . S
C386 C357 1.427 . S
C386 H363 0.929 . S
C386 C385 1.328 . S
C387 O371 1.264 . S
C387 O372 1.243 . S
C388 C391 1.399 . S
C388 C392 1.383 . S
C388 C395 1.496 1_554 S
C389 C390 1.399 . S
C389 C392 1.389 . S
C390 C389 1.399 . S
C390 C393 1.380 . S
C390 H400 0.929 . S
C391 C388 1.399 . S
C391 C393 1.392 . S
C391 H401 0.929 1_554 S
C392 C388 1.383 . S
C392 C389 1.389 . S
C392 H402 0.931 . S
C393 C390 1.380 . S
C393 C391 1.392 . S
C393 H403 0.929 . S
C394 O374 1.266 . S
C394 O375 1.248 . S
C395 Tb331 2.802 . S
C395 O370 1.264 . S
C395 O373 1.256 . S
C395 C388 1.496 1_556 S
H396 C379 0.929 . S
H397 C380 0.929 . S
H398 C381 0.929 . S
H399 C382 0.931 . S
H400 C390 0.929 . S
H401 C391 0.929 1_556 S
H402 C392 0.931 . S
H403 C393 0.929 . S
Tb404 N433 2.617 . S
Tb404 N439 2.572 . S
Tb404 O448 2.465 . S
Tb404 O449 2.387 1_455 S
Tb404 O451 2.428 . S
Tb404 O452 2.308 . S
Tb404 O456 2.349 . S
Tb404 O459 2.393 . S
Tb404 C468 2.802 . S
C405 N406 1.379 1_554 S
C405 C408 1.416 . S
C405 C412 1.424 . S
N406 C405 1.379 1_556 S
N406 C409 1.334 . S
N406 Tb415 2.617 1_455 S
C407 C409 1.390 . S
C407 C410 1.339 . S
C407 H427 0.930 . S
C408 C405 1.416 . S
C408 C410 1.416 1_554 S
C408 C414 1.448 . S
C409 N406 1.334 . S
C409 C407 1.390 . S
C409 H420 0.930 1_455 S
C410 C407 1.339 . S
C410 C408 1.416 1_556 S
C410 H431 0.930 1_556 S
C411 C412 1.413 . S
C411 C413 1.427 . S
C411 C417 1.416 . S
C412 C405 1.424 . S
C412 C411 1.413 . S
C412 N416 1.361 . S
C413 C411 1.427 . S
C413 C414 1.328 . S
C413 H428 0.929 . S
C414 C408 1.448 . S
C414 C413 1.328 . S
C414 H429 0.930 . S
Tb415 N406 2.617 1_655 S
Tb415 N416 2.572 1_656 S
Tb415 O450 2.349 . S
Tb415 O453 2.393 . S
Tb415 O454 2.465 . S
Tb415 O455 2.387 1_655 S
Tb415 O457 2.428 . S
Tb415 O458 2.308 1_655 S
Tb415 C479 2.802 . S
N416 C412 1.361 . S
N416 Tb415 2.572 1_454 S
N416 C418 1.340 . S
C417 C411 1.416 . S
C417 C419 1.332 . S
C417 H425 0.931 . S
C418 N416 1.340 . S
C418 C419 1.407 . S
C418 H424 0.930 . S
C419 C417 1.332 . S
C419 C418 1.407 . S
C419 H421 0.929 . S
H420 C409 0.930 1_655 S
H421 C419 0.929 . S
H422 C437 0.930 . S
H423 C444 0.929 . S
H424 C418 0.930 . S
H425 C417 0.931 . S
H426 C440 0.930 . S
H427 C407 0.930 . S
H428 C413 0.929 . S
H429 C414 0.930 . S
H430 C435 0.930 . S
H431 C410 0.930 1_554 S
H432 C443 0.931 . S
N433 Tb404 2.617 . S
N433 C434 1.362 1_455 S
N433 C437 1.334 . S
C434 N433 1.362 1_655 S
C434 C436 1.430 . S
C434 C442 1.428 . S
C435 H430 0.930 . S
C435 C437 1.390 . S
C435 C438 1.339 1_455 S
C436 C434 1.430 . S
C436 C438 1.416 . S
C436 C469 1.448 . S
C437 H422 0.930 . S
C437 N433 1.334 . S
C437 C435 1.390 . S
C438 C435 1.339 1_655 S
C438 C436 1.416 . S
C438 H445 0.930 . S
N439 Tb404 2.572 . S
N439 C440 1.340 . S
N439 C442 1.361 1_455 S
C440 H426 0.930 . S
C440 N439 1.340 . S
C440 C444 1.407 1_455 S
C441 C442 1.413 . S
C441 C443 1.416 . S
C441 C470 1.427 . S
C442 C434 1.428 . S
C442 N439 1.361 1_655 S
C442 C441 1.413 . S
C443 H432 0.931 . S
C443 C441 1.416 . S
C443 C444 1.332 . S
C444 H423 0.929 . S
C444 C440 1.407 1_655 S
C444 C443 1.332 . S
H445 C438 0.930 . S
H446 C469 0.930 . S
H447 C470 0.929 . S
O448 Tb404 2.465 . S
O448 C468 1.264 . S
O449 Tb404 2.387 1_655 S
O449 C460 1.264 . S
O450 Tb415 2.349 . S
O450 C460 1.243 . S
O451 Tb404 2.428 . S
O451 C468 1.256 . S
O452 Tb404 2.308 . S
O452 C467 1.266 . S
O453 Tb415 2.393 . S
O453 C467 1.248 1_655 S
O454 Tb415 2.465 . S
O454 C479 1.264 . S
O455 Tb415 2.387 1_455 S
O455 C471 1.264 . S
O456 Tb404 2.349 . S
O456 C471 1.243 . S
O457 Tb415 2.428 . S
O457 C479 1.256 . S
O458 Tb415 2.308 1_455 S
O458 C478 1.266 . S
O459 Tb404 2.393 . S
O459 C478 1.248 . S
C460 O449 1.264 . S
C460 O450 1.243 . S
C461 C464 1.399 . S
C461 C466 1.383 . S
C461 C468 1.496 . S
C462 C463 1.399 . S
C462 C466 1.389 . S
C463 C462 1.399 . S
C463 C465 1.380 . S
C463 H480 0.929 . S
C464 C461 1.399 . S
C464 C465 1.392 . S
C464 H481 0.929 . S
C465 C463 1.380 . S
C465 C464 1.392 . S
C465 H482 0.929 . S
C466 C461 1.383 . S
C466 C462 1.389 . S
C466 H483 0.931 . S
C467 O452 1.266 . S
C467 O453 1.248 1_455 S
C468 Tb404 2.802 . S
C468 O448 1.264 . S
C468 O451 1.256 . S
C468 C461 1.496 . S
C469 C436 1.448 . S
C469 H446 0.930 . S
C469 C470 1.328 . S
C470 C441 1.427 . S
C470 H447 0.929 . S
C470 C469 1.328 . S
C471 O455 1.264 . S
C471 O456 1.243 . S
C472 C475 1.399 . S
C472 C476 1.383 . S
C472 C479 1.496 1_554 S
C473 C474 1.399 . S
C473 C476 1.389 . S
C474 C473 1.399 . S
C474 C477 1.380 . S
C474 H484 0.929 . S
C475 C472 1.399 . S
C475 C477 1.392 . S
C475 H485 0.929 1_554 S
C476 C472 1.383 . S
C476 C473 1.389 . S
C476 H486 0.931 . S
C477 C474 1.380 . S
C477 C475 1.392 . S
C477 H487 0.929 . S
C478 O458 1.266 . S
C478 O459 1.248 . S
C479 Tb415 2.802 . S
C479 O454 1.264 . S
C479 O457 1.256 . S
C479 C472 1.496 1_556 S
H480 C463 0.929 . S
H481 C464 0.929 . S
H482 C465 0.929 . S
H483 C466 0.931 . S
H484 C474 0.929 . S
H485 C475 0.929 1_556 S
H486 C476 0.931 . S
H487 C477 0.929 . S
C488 C489 1.369 . S
C488 C490 1.419 1_545 S
C488 H492 0.930 1_545 S
C489 C488 1.369 . S
C489 C498 1.429 . S
C490 C488 1.419 1_565 S
C490 C491 1.363 1_565 S
C490 H493 0.929 . S
C491 C490 1.363 1_545 S
C491 C497 1.428 . S
H492 C488 0.930 1_565 S
H493 C490 0.929 . S
S494 N495 1.613 . S
S494 N496 1.610 . S
N495 S494 1.613 . S
N495 C498 1.350 . S
N496 S494 1.610 . S
N496 C497 1.351 . S
C497 C491 1.428 . S
C497 N496 1.351 . S
C497 C498 1.434 . S
C498 C489 1.429 . S
C498 N495 1.350 . S
C498 C497 1.434 . S
C499 C500 1.369 . S
C499 C501 1.419 . S
C499 H503 0.930 . S
C500 C499 1.369 . S
C500 C509 1.429 . S
C501 C499 1.419 . S
C501 C502 1.363 . S
C501 H504 0.929 . S
C502 C501 1.363 . S
C502 C508 1.428 . S
H503 C499 0.930 . S
H504 C501 0.929 . S
S505 N506 1.613 . S
S505 N507 1.610 . S
N506 S505 1.613 . S
N506 C509 1.350 . S
N507 S505 1.610 . S
N507 C508 1.351 . S
C508 C502 1.428 . S
C508 N507 1.351 . S
C508 C509 1.434 . S
C509 C500 1.429 . S
C509 N506 1.350 . S
C509 C508 1.434 . S
C510 C511 1.369 . S
C510 C512 1.419 . S
C510 H514 0.930 . S
C511 C510 1.369 . S
C511 C520 1.429 . S
C512 C510 1.419 . S
C512 C513 1.363 . S
C512 H515 0.929 . S
C513 C512 1.363 . S
C513 C519 1.428 . S
H514 C510 0.930 . S
H515 C512 0.929 . S
S516 N517 1.613 . S
S516 N518 1.610 . S
N517 S516 1.613 . S
N517 C520 1.350 . S
N518 S516 1.610 . S
N518 C519 1.351 . S
C519 C513 1.428 . S
C519 N518 1.351 . S
C519 C520 1.434 . S
C520 C511 1.429 . S
C520 N517 1.350 . S
C520 C519 1.434 . S
C521 C522 1.369 . S
C521 C523 1.419 . S
C521 H525 0.930 . S
C522 C521 1.369 . S
C522 C531 1.429 . S
C523 C521 1.419 . S
C523 C524 1.363 . S
C523 H526 0.929 . S
C524 C523 1.363 . S
C524 C530 1.428 . S
H525 C521 0.930 . S
H526 C523 0.929 . S
S527 N528 1.613 . S
S527 N529 1.610 . S
N528 S527 1.613 . S
N528 C531 1.350 . S
N529 S527 1.610 . S
N529 C530 1.351 . S
C530 C524 1.428 . S
C530 N529 1.351 . S
C530 C531 1.434 . S
C531 C522 1.429 . S
C531 N528 1.350 . S
C531 C530 1.434 . S
C532 C533 1.369 . S
C532 C534 1.419 1_554 S
C532 H536 0.930 . S
C533 C532 1.369 . S
C533 C542 1.429 1_565 S
C534 C532 1.419 1_556 S
C534 C535 1.363 . S
C534 H537 0.929 . S
C535 C534 1.363 . S
C535 C541 1.428 1_566 S
H536 C532 0.930 . S
H537 C534 0.929 . S
S538 N539 1.613 . S
S538 N540 1.610 . S
N539 S538 1.613 . S
N539 C542 1.350 . S
N540 S538 1.610 . S
N540 C541 1.351 . S
C541 C535 1.428 1_544 S
C541 N540 1.351 . S
C541 C542 1.434 . S
C542 C533 1.429 1_545 S
C542 N539 1.350 . S
C542 C541 1.434 . S
C543 C544 1.369 . S
C543 C545 1.419 . S
C543 H547 0.930 . S
C544 C543 1.369 . S
C544 C553 1.429 . S
C545 C543 1.419 . S
C545 C546 1.363 1_554 S
C545 H548 0.929 . S
C546 C545 1.363 1_556 S
C546 C552 1.428 1_556 S
H547 C543 0.930 . S
H548 C545 0.929 . S
S549 N550 1.613 . S
S549 N551 1.610 1_554 S
N550 S549 1.613 . S
N550 C553 1.350 . S
N551 S549 1.610 1_556 S
N551 C552 1.351 1_556 S
C552 C546 1.428 1_554 S
C552 N551 1.351 1_554 S
C552 C553 1.434 . S
C553 C544 1.429 . S
C553 N550 1.350 . S
C553 C552 1.434 . S
C554 C555 1.369 . S
C554 C556 1.419 . S
C554 H558 0.930 . S
C555 C554 1.369 . S
C555 C564 1.429 . S
C556 C554 1.419 . S
C556 C557 1.363 1_554 S
C556 H559 0.929 . S
C557 C556 1.363 1_556 S
C557 C563 1.428 1_556 S
H558 C554 0.930 . S
H559 C556 0.929 . S
S560 N561 1.613 . S
S560 N562 1.610 1_554 S
N561 S560 1.613 . S
N561 C564 1.350 . S
N562 S560 1.610 1_556 S
N562 C563 1.351 1_556 S
C563 C557 1.428 1_554 S
C563 N562 1.351 1_554 S
C563 C564 1.434 . S
C564 C555 1.429 . S
C564 N561 1.350 . S
C564 C563 1.434 . S
C565 C566 1.369 . S
C565 C567 1.419 1_554 S
C565 H569 0.930 . S
C566 C565 1.369 . S
C566 C575 1.429 1_655 S
C567 C565 1.419 1_556 S
C567 C568 1.363 . S
C567 H570 0.929 . S
C568 C567 1.363 . S
C568 C574 1.428 1_656 S
H569 C565 0.930 . S
H570 C567 0.929 . S
S571 N572 1.613 . S
S571 N573 1.610 . S
N572 S571 1.613 . S
N572 C575 1.350 . S
N573 S571 1.610 . S
N573 C574 1.351 . S
C574 C568 1.428 1_454 S
C574 N573 1.351 . S
C574 C575 1.434 . S
C575 C566 1.429 1_455 S
C575 N572 1.350 . S
C575 C574 1.434 . S
C576 C577 1.369 . S
C576 C578 1.419 1_455 S
C576 H580 0.930 . S
C577 C576 1.369 . S
C577 C586 1.429 . S
C578 C576 1.419 1_655 S
C578 C579 1.363 1_655 S
C578 H581 0.929 . S
C579 C578 1.363 1_455 S
C579 C585 1.428 . S
H580 C576 0.930 . S
H581 C578 0.929 . S
S582 N583 1.613 . S
S582 N584 1.610 . S
N583 S582 1.613 . S
N583 C586 1.350 . S
N584 S582 1.610 . S
N584 C585 1.351 . S
C585 C579 1.428 . S
C585 N584 1.351 . S
C585 C586 1.434 . S
C586 C577 1.429 . S
C586 N583 1.350 . S
C586 C585 1.434 . S
C587 C588 1.369 . S
C587 C589 1.419 . S
C587 H591 0.930 . S
C588 C587 1.369 . S
C588 C597 1.429 . S
C589 C587 1.419 . S
C589 C590 1.363 . S
C589 H592 0.938 . S
C590 C589 1.363 . S
C590 C596 1.428 . S
H591 C587 0.930 . S
H592 C589 0.938 . S
S593 N594 1.613 . S
S593 N595 1.610 1_556 S
N594 S593 1.613 . S
N594 C597 1.350 1_556 S
N595 S593 1.610 1_554 S
N595 C596 1.351 . S
C596 C590 1.428 . S
C596 N595 1.351 . S
C596 C597 1.434 . S
C597 C588 1.429 . S
C597 N594 1.350 1_554 S
C597 C596 1.434 . S
C598 C599 1.369 . S
C598 C600 1.419 . S
C598 H602 0.930 . S
C599 C598 1.369 . S
C599 C608 1.429 . S
C600 C598 1.419 . S
C600 C601 1.363 . S
C600 H603 0.929 . S
C601 C600 1.363 . S
C601 C607 1.428 . S
H602 C598 0.930 . S
H603 C600 0.929 . S
S604 N605 1.613 . S
S604 N606 1.610 . S
N605 S604 1.613 . S
N605 C608 1.350 . S
N606 S604 1.610 . S
N606 C607 1.351 . S
C607 C601 1.428 . S
C607 N606 1.351 . S
C607 C608 1.434 . S
C608 C599 1.429 . S
C608 N605 1.350 . S
C608 C607 1.434 . S
C609 C610 1.369 . S
C609 C611 1.419 . S
C609 H613 0.930 . S
C610 C609 1.369 . S
C610 C619 1.429 . S
C611 C609 1.419 . S
C611 C612 1.363 . S
C611 H614 0.929 . S
C612 C611 1.363 . S
C612 C618 1.428 . S
H613 C609 0.930 . S
H614 C611 0.929 . S
S615 N616 1.613 . S
S615 N617 1.610 . S
N616 S615 1.613 . S
N616 C619 1.350 . S
N617 S615 1.610 . S
N617 C618 1.351 . S
C618 C612 1.428 . S
C618 N617 1.351 . S
C618 C619 1.434 . S
C619 C610 1.429 . S
C619 N616 1.350 . S
C619 C618 1.434 . S
C620 C621 1.369 1_455 S
C620 C622 1.419 . S
C620 H624 0.930 . S
C621 C620 1.369 1_655 S
C621 C630 1.429 . S
C622 C620 1.419 . S
C622 C623 1.363 . S
C622 H625 0.929 . S
C623 C622 1.363 . S
C623 C629 1.428 1_455 S
H624 C620 0.930 . S
H625 C622 0.929 . S
S626 N627 1.613 1_556 S
S626 N628 1.610 1_556 S
N627 S626 1.613 1_554 S
N627 C630 1.350 . S
N628 S626 1.610 1_554 S
N628 C629 1.351 . S
C629 C623 1.428 1_655 S
C629 N628 1.351 . S
C629 C630 1.434 . S
C630 C621 1.429 . S
C630 N627 1.350 . S
C630 C629 1.434 . S
C631 C632 1.369 . S
C631 C633 1.419 . S
C631 H635 0.930 . S
C632 C631 1.369 . S
C632 C641 1.429 1_565 S
C633 C631 1.419 . S
C633 C634 1.363 1_565 S
C633 H636 0.929 . S
C634 C633 1.363 1_545 S
C634 C640 1.428 . S
H635 C631 0.930 . S
H636 C633 0.929 . S
S637 N638 1.613 . S
S637 N639 1.610 . S
N638 S637 1.613 . S
N638 C641 1.350 . S
N639 S637 1.610 . S
N639 C640 1.351 . S
C640 C634 1.428 . S
C640 N639 1.351 . S
C640 C641 1.434 . S
C641 C632 1.429 1_545 S
C641 N638 1.350 . S
C641 C640 1.434 . S
C642 C643 1.369 . S
C642 C644 1.419 . S
C642 H646 0.930 . S
C643 C642 1.369 . S
C643 C652 1.429 . S
C644 C642 1.419 . S
C644 C645 1.363 . S
C644 H647 0.929 . S
C645 C644 1.363 . S
C645 C651 1.428 . S
H646 C642 0.930 . S
H647 C644 0.929 . S
S648 N649 1.613 . S
S648 N650 1.610 . S
N649 S648 1.613 . S
N649 C652 1.350 . S
N650 S648 1.610 . S
N650 C651 1.351 . S
C651 C645 1.428 . S
C651 N650 1.351 . S
C651 C652 1.434 . S
C652 C643 1.429 . S
C652 N649 1.350 . S
C652 C651 1.434 . S
C653 C654 1.369 . S
C653 C655 1.419 . S
C653 H657 0.930 . S
C654 C653 1.369 . S
C654 C663 1.429 . S
C655 C653 1.419 . S
C655 C656 1.363 . S
C655 H658 0.929 . S
C656 C655 1.363 . S
C656 C662 1.428 . S
H657 C653 0.930 . S
H658 C655 0.929 . S
S659 N660 1.613 . S
S659 N661 1.610 . S
N660 S659 1.613 . S
N660 C663 1.350 . S
N661 S659 1.610 . S
N661 C662 1.351 . S
C662 C656 1.428 . S
C662 N661 1.351 . S
C662 C663 1.434 . S
C663 C654 1.429 . S
C663 N660 1.350 . S
C663 C662 1.434 . S
C664 C665 1.369 . S
C664 C666 1.419 . S
C664 H668 0.930 . S
C665 C664 1.369 . S
C665 C674 1.429 . S
C666 C664 1.419 . S
C666 C667 1.363 . S
C666 H669 0.929 . S
C667 C666 1.363 . S
C667 C673 1.428 . S
H668 C664 0.930 . S
H669 C666 0.929 . S
S670 N671 1.613 . S
S670 N672 1.610 . S
N671 S670 1.613 . S
N671 C674 1.350 . S
N672 S670 1.610 . S
N672 C673 1.351 . S
C673 C667 1.428 . S
C673 N672 1.351 . S
C673 C674 1.434 . S
C674 C665 1.429 . S
C674 N671 1.350 . S
C674 C673 1.434 . S
C675 C676 1.369 . S
C675 C677 1.419 . S
C675 H679 0.930 . S
C676 C675 1.369 . S
C676 C685 1.429 . S
C677 C675 1.419 . S
C677 C678 1.363 . S
C677 H680 0.929 . S
C678 C677 1.363 . S
C678 C684 1.428 . S
H679 C675 0.930 . S
H680 C677 0.929 . S
S681 N682 1.613 . S
S681 N683 1.610 . S
N682 S681 1.613 . S
N682 C685 1.350 . S
N683 S681 1.610 . S
N683 C684 1.351 . S
C684 C678 1.428 . S
C684 N683 1.351 . S
C684 C685 1.434 . S
C685 C676 1.429 . S
C685 N682 1.350 . S
C685 C684 1.434 . S
C686 C687 1.369 . S
C686 C688 1.419 . S
C686 H690 0.930 . S
C687 C686 1.369 . S
C687 C696 1.429 . S
C688 C686 1.419 . S
C688 C689 1.363 . S
C688 H691 0.929 . S
C689 C688 1.363 . S
C689 C695 1.428 . S
H690 C686 0.930 . S
H691 C688 0.929 . S
S692 N693 1.613 . S
S692 N694 1.610 . S
N693 S692 1.613 . S
N693 C696 1.350 . S
N694 S692 1.610 . S
N694 C695 1.351 . S
C695 C689 1.428 . S
C695 N694 1.351 . S
C695 C696 1.434 . S
C696 C687 1.429 . S
C696 N693 1.350 . S
C696 C695 1.434 . S
C697 C698 1.369 . S
C697 C699 1.419 . S
C697 H701 0.930 . S
C698 C697 1.369 . S
C698 C707 1.429 . S
C699 C697 1.419 . S
C699 C700 1.363 . S
C699 H702 0.929 . S
C700 C699 1.363 . S
C700 C706 1.428 . S
H701 C697 0.930 . S
H702 C699 0.929 . S
S703 N704 1.613 . S
S703 N705 1.610 . S
N704 S703 1.613 . S
N704 C707 1.350 . S
N705 S703 1.610 . S
N705 C706 1.351 . S
C706 C700 1.428 . S
C706 N705 1.351 . S
C706 C707 1.434 . S
C707 C698 1.429 . S
C707 N704 1.350 . S
C707 C706 1.434 . S
C708 C709 1.369 1_455 S
C708 C710 1.419 . S
C708 H712 0.930 . S
C709 C708 1.369 1_655 S
C709 C718 1.429 . S
C710 C708 1.419 . S
C710 C711 1.363 1_455 S
C710 H713 0.929 . S
C711 C710 1.363 1_655 S
C711 C717 1.428 . S
H712 C708 0.930 . S
H713 C710 0.929 . S
S714 N715 1.613 . S
S714 N716 1.610 . S
N715 S714 1.613 . S
N715 C718 1.350 . S
N716 S714 1.610 . S
N716 C717 1.351 . S
C717 C711 1.428 . S
C717 N716 1.351 . S
C717 C718 1.434 . S
C718 C709 1.429 . S
C718 N715 1.350 . S
C718 C717 1.434 . S
C719 C720 1.369 . S
C719 C721 1.419 . S
C719 H723 0.930 . S
C720 C719 1.369 . S
C720 C729 1.429 1_565 S
C721 C719 1.419 . S
C721 C722 1.363 . S
C721 H724 0.929 . S
C722 C721 1.363 . S
C722 C728 1.428 1_565 S
H723 C719 0.930 . S
H724 C721 0.929 . S
S725 N726 1.613 . S
S725 N727 1.610 . S
N726 S725 1.613 . S
N726 C729 1.350 . S
N727 S725 1.610 . S
N727 C728 1.351 . S
C728 C722 1.428 1_545 S
C728 N727 1.351 . S
C728 C729 1.434 . S
C729 C720 1.429 1_545 S
C729 N726 1.350 . S
C729 C728 1.434 . S
C730 C731 1.369 . S
C730 C732 1.419 . S
C730 H734 0.930 . S
C731 C730 1.369 . S
C731 C740 1.429 . S
C732 C730 1.419 . S
C732 C733 1.363 . S
C732 H735 0.929 . S
C733 C732 1.363 . S
C733 C739 1.428 . S
H734 C730 0.930 . S
H735 C732 0.929 . S
S736 N737 1.613 . S
S736 N738 1.610 . S
N737 S736 1.613 . S
N737 C740 1.350 . S
N738 S736 1.610 . S
N738 C739 1.351 . S
C739 C733 1.428 . S
C739 N738 1.351 . S
C739 C740 1.434 . S
C740 C731 1.429 . S
C740 N737 1.350 . S
C740 C739 1.434 . S
C741 C742 1.369 . S
C741 C743 1.419 . S
C741 H745 0.930 . S
C742 C741 1.369 . S
C742 C751 1.429 . S
C743 C741 1.419 . S
C743 C744 1.363 . S
C743 H746 0.929 . S
C744 C743 1.363 . S
C744 C750 1.428 . S
H745 C741 0.930 . S
H746 C743 0.929 . S
S747 N748 1.613 . S
S747 N749 1.610 . S
N748 S747 1.613 . S
N748 C751 1.350 . S
N749 S747 1.610 . S
N749 C750 1.351 . S
C750 C744 1.428 . S
C750 N749 1.351 . S
C750 C751 1.434 . S
C751 C742 1.429 . S
C751 N748 1.350 . S
C751 C750 1.434 . S
C489 C125 2.103 . S
C491 C215 2.154 . S
C502 C292 2.154 . S
C500 C144 2.100 . S
C513 C383 2.154 . S
C511 C87 2.103 . S
C524 C467 2.141 . S
C522 C106 2.089 . S
C535 C226 2.151 1_565 S
C533 C49 2.161 . S
C544 C68 2.162 . S
C546 C303 2.155 . S
C555 C11 2.159 . S
C557 C394 2.151 . S
C566 C30 2.148 . S
C568 C478 2.138 1_655 S
C579 C210 0.795 1_455 S
C577 C97 0.780 . S
C590 C305 0.778 . S
C588 C116 0.765 . S
C601 C378 0.800 . S
C599 C135 0.789 . S
C610 C78 0.784 . S
C612 C462 0.775 . S
C621 C21 0.796 . S
C623 C221 0.786 . S
C634 C294 0.777 . S
C632 C40 0.767 . S
C645 C389 0.800 . S
C643 C59 0.796 . S
C654 C2 0.776 . S
C656 C473 0.782 . S
C665 C101 2.036 . S
C667 C219 2.256 . S
C676 C120 2.041 . S
C678 C310 2.316 . S
C689 C387 2.273 . S
C687 C139 2.049 . S
C700 C471 2.276 . S
C698 C82 2.052 . S
C709 C25 2.027 . S
C711 C208 2.260 . S
C722 C299 2.316 . S
C720 C44 2.044 . S
C733 C376 2.274 . S
C731 C63 2.048 . S
C742 C6 2.056 . S
C744 C460 2.275 . S
