# Generated by pormake.
# Topology pyr, (3,6)-cn, num edge types: 1
# Building blocks:
#     Node 0, Type 0, BuildingBlock: BETDAH_clean_linker_0, # of connection points: 3
#     Node 1, Type 0, BuildingBlock: BETDAH_clean_linker_0, # of connection points: 3
#     Node 2, Type 0, BuildingBlock: BETDAH_clean_linker_0, # of connection points: 3
#     Node 3, Type 0, BuildingBlock: BETDAH_clean_linker_0, # of connection points: 3
#     Node 4, Type 0, BuildingBlock: BETDAH_clean_linker_0, # of connection points: 3
#     Node 5, Type 0, BuildingBlock: BETDAH_clean_linker_0, # of connection points: 3
#     Node 6, Type 0, BuildingBlock: BETDAH_clean_linker_0, # of connection points: 3
#     Node 7, Type 0, BuildingBlock: BETDAH_clean_linker_0, # of connection points: 3
#     Node 8, Type 1, BuildingBlock: PAMTUU_clean_sbu_0, # of connection points: 6
#     Node 9, Type 1, BuildingBlock: PAMTUU_clean_sbu_0, # of connection points: 6
#     Node 10, Type 1, BuildingBlock: PAMTUU_clean_sbu_0, # of connection points: 6
#     Node 11, Type 1, BuildingBlock: PAMTUU_clean_sbu_0, # of connection points: 6
#     Edge 12, Type (0, 1), BuildingBlock: MIFKUJ_clean_linker_0, # of connection points: 2
#     Edge 13, Type (0, 1), BuildingBlock: MIFKUJ_clean_linker_0, # of connection points: 2
#     Edge 14, Type (0, 1), BuildingBlock: MIFKUJ_clean_linker_0, # of connection points: 2
#     Edge 15, Type (0, 1), BuildingBlock: MIFKUJ_clean_linker_0, # of connection points: 2
#     Edge 16, Type (0, 1), BuildingBlock: MIFKUJ_clean_linker_0, # of connection points: 2
#     Edge 17, Type (0, 1), BuildingBlock: MIFKUJ_clean_linker_0, # of connection points: 2
#     Edge 18, Type (0, 1), BuildingBlock: MIFKUJ_clean_linker_0, # of connection points: 2
#     Edge 19, Type (0, 1), BuildingBlock: MIFKUJ_clean_linker_0, # of connection points: 2
#     Edge 20, Type (0, 1), BuildingBlock: MIFKUJ_clean_linker_0, # of connection points: 2
#     Edge 21, Type (0, 1), BuildingBlock: MIFKUJ_clean_linker_0, # of connection points: 2
#     Edge 22, Type (0, 1), BuildingBlock: MIFKUJ_clean_linker_0, # of connection points: 2
#     Edge 23, Type (0, 1), BuildingBlock: MIFKUJ_clean_linker_0, # of connection points: 2
#     Edge 24, Type (0, 1), BuildingBlock: MIFKUJ_clean_linker_0, # of connection points: 2
#     Edge 25, Type (0, 1), BuildingBlock: MIFKUJ_clean_linker_0, # of connection points: 2
#     Edge 26, Type (0, 1), BuildingBlock: MIFKUJ_clean_linker_0, # of connection points: 2
#     Edge 27, Type (0, 1), BuildingBlock: MIFKUJ_clean_linker_0, # of connection points: 2
#     Edge 28, Type (0, 1), BuildingBlock: MIFKUJ_clean_linker_0, # of connection points: 2
#     Edge 29, Type (0, 1), BuildingBlock: MIFKUJ_clean_linker_0, # of connection points: 2
#     Edge 30, Type (0, 1), BuildingBlock: MIFKUJ_clean_linker_0, # of connection points: 2
#     Edge 31, Type (0, 1), BuildingBlock: MIFKUJ_clean_linker_0, # of connection points: 2
#     Edge 32, Type (0, 1), BuildingBlock: MIFKUJ_clean_linker_0, # of connection points: 2
#     Edge 33, Type (0, 1), BuildingBlock: MIFKUJ_clean_linker_0, # of connection points: 2
#     Edge 34, Type (0, 1), BuildingBlock: MIFKUJ_clean_linker_0, # of connection points: 2
#     Edge 35, Type (0, 1), BuildingBlock: MIFKUJ_clean_linker_0, # of connection points: 2
# Relax obj value: 0.100
# Max RMSD: 0.172
# Mean RMSD: 0.133
data_MOF--net-pyr--node1-PAMTUU_clean_sbu_0--node2-BETDAH_clean_linker_0--edge1-MIFKUJ_clean_linker_0
_symmetry_space_group_name_H-M    P1
_symmetry_Int_Tables_number       1
_symmetry_cell_setting            triclinic
loop_
_symmetry_equiv_pos_as_xyz
'x, y, z'
_cell_length_a     48.798083
_cell_length_b     50.492638
_cell_length_c     50.829265
_cell_angle_alpha  90.339823
_cell_angle_beta   89.836594
_cell_angle_gamma 104.77785
loop_
_atom_site_label
_atom_site_type_symbol
_atom_site_fract_x
_atom_site_fract_y
_atom_site_fract_z
_atom_type_partial_charge
H0 H 0.3344 0.23421 0.22774 0.0
H1 H 0.36963 0.29569 0.17023 0.0
H2 H 0.30379 0.30668 0.22237 0.0
C3 C 0.33514 0.25376 0.21866 0.0
C4 C 0.3171 0.2695 0.22778 0.0
C5 C 0.35408 0.26294 0.19787 0.0
C6 C 0.3552 0.28839 0.1864 0.0
C7 C 0.33675 0.30395 0.19468 0.0
C8 C 0.31762 0.29442 0.21539 0.0
N9 N 0.33794 0.32901 0.18171 0.0
C10 C 0.31528 0.34093 0.18092 0.0
H11 H 0.27359 0.81158 0.73425 0.0
H12 H 0.1987 0.84168 0.73286 0.0
H13 H 0.20257 0.77129 0.68628 0.0
C14 C 0.25233 0.81006 0.72708 0.0
C15 C 0.24002 0.78927 0.70913 0.0
C16 C 0.23764 0.82901 0.73581 0.0
C17 C 0.21021 0.82713 0.72627 0.0
C18 C 0.1976 0.80628 0.7083 0.0
C19 C 0.21244 0.78731 0.70008 0.0
N20 N 0.17003 0.80388 0.69821 0.0
C21 C 0.15977 0.82647 0.69267 0.0
H22 H 0.70634 0.37564 0.91081 0.0
H23 H 0.7003 0.43447 0.85108 0.0
H24 H 0.63413 0.36014 0.8595 0.0
C25 C 0.69518 0.38155 0.89436 0.0
C26 C 0.66882 0.36438 0.8868 0.0
C27 C 0.70701 0.40682 0.88175 0.0
C28 C 0.69171 0.41512 0.86085 0.0
C29 C 0.66523 0.39804 0.85279 0.0
C30 C 0.65428 0.37308 0.86598 0.0
N31 N 0.64773 0.4047 0.83249 0.0
C32 C 0.65326 0.42476 0.81278 0.0
H33 H 0.83418 0.73785 0.40977 0.0
H34 H 0.90695 0.73702 0.36214 0.0
H35 H 0.83676 0.66565 0.3653 0.0
C36 C 0.84494 0.7273 0.39616 0.0
C37 C 0.83178 0.7001 0.38877 0.0
C38 C 0.87205 0.74098 0.38692 0.0
C39 C 0.88552 0.72741 0.36849 0.0
C40 C 0.87252 0.70048 0.35989 0.0
C41 C 0.84574 0.68698 0.37029 0.0
N42 N 0.88944 0.68478 0.34734 0.0
C43 C 0.89132 0.67984 0.32028 0.0
H44 H 0.77701 0.79686 0.84476 0.0
H45 H 0.71081 0.77125 0.90216 0.0
H46 H 0.70676 0.83387 0.84639 0.0
C47 C 0.75683 0.79807 0.85299 0.0
C48 C 0.74297 0.81685 0.8426 0.0
C49 C 0.74566 0.78183 0.87468 0.0
C50 C 0.71987 0.78393 0.88559 0.0
C51 C 0.7059 0.80276 0.87568 0.0
C52 C 0.71765 0.81949 0.85433 0.0
N53 N 0.67989 0.80403 0.88744 0.0
C54 C 0.67046 0.82774 0.88875 0.0
H55 H 0.82532 0.23451 0.36042 0.0
H56 H 0.86931 0.30179 0.40931 0.0
H57 H 0.80229 0.31117 0.35827 0.0
C58 C 0.82825 0.25539 0.36741 0.0
C59 C 0.81155 0.27165 0.35701 0.0
C60 C 0.84925 0.26607 0.38618 0.0
C61 C 0.85348 0.29338 0.39451 0.0
C62 C 0.83617 0.30947 0.38508 0.0
C63 C 0.81542 0.29866 0.36602 0.0
N64 N 0.8395 0.33618 0.39556 0.0
C65 C 0.81657 0.3474 0.39918 0.0
H66 H 0.33983 0.73591 0.17113 0.0
H67 H 0.33813 0.67967 0.23534 0.0
H68 H 0.40698 0.75183 0.22786 0.0
C69 C 0.34883 0.73053 0.18913 0.0
C70 C 0.37468 0.74761 0.19804 0.0
C71 C 0.33472 0.7063 0.20249 0.0
C72 C 0.34815 0.69824 0.22489 0.0
C73 C 0.37467 0.71463 0.23372 0.0
C74 C 0.3872 0.73913 0.22034 0.0
N75 N 0.39053 0.70795 0.25535 0.0
C76 C 0.38388 0.68754 0.2747 0.0
H77 H 0.20346 0.36839 0.6761 0.0
H78 H 0.19587 0.42828 0.73478 0.0
H79 H 0.12714 0.35704 0.72176 0.0
C80 C 0.19126 0.37521 0.69131 0.0
C81 C 0.16391 0.35903 0.69729 0.0
C82 C 0.20313 0.40035 0.70433 0.0
C83 C 0.18722 0.40911 0.72456 0.0
C84 C 0.15987 0.393 0.73117 0.0
C85 C 0.14853 0.36852 0.71716 0.0
N86 N 0.14183 0.40072 0.75045 0.0
C87 C 0.14824 0.4197 0.77121 0.0
Tb88 Tb 0.04696 0.05878 0.51369 0.0
Tb89 Tb 0.99277 0.04887 0.55403 0.0
C90 C 0.99619 1.00523 0.51116 0.0
C91 C 0.10585 0.08827 0.46651 0.0
C92 C 0.13984 0.12893 0.4343 0.0
C93 C 0.14839 0.10512 0.44052 0.0
C94 C 0.13151 0.08499 0.45646 0.0
C95 C 0.09751 0.1123 0.46104 0.0
C96 C 0.11435 0.13246 0.44496 0.0
C97 C 0.08743 0.06569 0.48127 0.0
O98 O 0.02485 0.08945 0.50356 0.0
O99 O 0.98117 0.06523 0.51746 0.0
O100 O 0.0163 0.0914 0.56038 0.0
O101 O 0.06005 0.09038 0.5441 0.0
O102 O 0.94871 0.03485 0.55914 0.0
O103 O 0.97568 0.05482 0.59083 0.0
O104 O 0.02483 0.0347 0.57529 0.0
O105 O 0.05134 0.02654 0.54016 0.0
O106 O 0.01332 0.02503 0.49785 0.0
O107 O 0.98992 1.00892 0.53587 0.0
C108 C 0.99723 0.08505 0.50358 0.0
O109 O 0.09079 0.06597 0.50671 0.0
O110 O 0.06076 0.05918 0.47465 0.0
C111 C 0.04379 0.10211 0.55836 0.0
C112 C 0.93344 0.02266 0.6024 0.0
C113 C 0.90164 0.98683 0.63993 0.0
C114 C 0.89271 0.00966 0.63127 0.0
C115 C 0.90849 0.0274 0.61269 0.0
C116 C 0.94235 0.9997 0.61054 0.0
C117 C 0.9265 0.98183 0.62918 0.0
C118 C 0.94997 0.04241 0.58373 0.0
C119 C 0.04403 0.02358 0.56507 0.0
H120 H 0.16766 0.10158 0.43232 0.0
H121 H 0.13818 0.0665 0.46041 0.0
H122 H 0.07774 0.11519 0.46873 0.0
H123 H 0.10735 0.15068 0.44069 0.0
H124 H 0.87342 0.01379 0.63883 0.0
H125 H 0.90132 0.045 0.60649 0.0
H126 H 0.96166 0.99583 0.60272 0.0
H127 H 0.93399 0.9645 0.63561 0.0
Tb128 Tb 0.55326 0.06015 0.06125 0.0
Tb129 Tb 0.49689 0.05084 0.02356 0.0
C130 C 0.54797 0.02476 1.00937 0.0
C131 C 0.60981 0.0909 0.11005 0.0
C132 C 0.63951 0.12915 0.14714 0.0
C133 C 0.65421 0.11904 0.12726 0.0
C134 C 0.63946 0.09991 0.10896 0.0
C135 C 0.59502 0.10205 0.12916 0.0
C136 C 0.60978 0.12087 0.14765 0.0
C137 C 0.59485 0.06863 0.0924 0.0
O138 O 0.56489 0.09037 0.02973 0.0
O139 O 0.52044 0.09376 0.01893 0.0
O140 O 0.48651 0.06544 0.06167 0.0
O141 O 0.53069 0.08961 0.07432 0.0
O142 O 0.47927 0.05719 0.98729 0.0
O143 O 0.45255 0.03921 0.01982 0.0
O144 O 0.49227 0.01067 0.04124 0.0
O145 O 0.5222 0.02396 0.0765 0.0
O146 O 0.55844 0.02959 0.03319 0.0
O147 O 0.52647 0.03372 1.00098 0.0
C148 C 0.54813 0.10359 0.01839 0.0
O149 O 0.56892 0.05626 0.09886 0.0
O150 O 0.59748 0.07306 0.06718 0.0
C151 C 0.50309 0.08477 0.07583 0.0
C152 C 0.43555 0.02622 0.97715 0.0
C153 C 0.40085 0.99018 0.9412 0.0
C154 C 0.39107 0.01095 0.95369 0.0
C155 C 0.40831 0.02881 0.97148 0.0
C156 C 0.44533 1.00524 0.96519 0.0
C157 C 0.42811 0.98738 0.94725 0.0
C158 C 0.45347 0.04606 0.99512 0.0
C159 C 0.50198 1.00568 0.06432 0.0
H160 H 0.67716 0.12501 0.12658 0.0
H161 H 0.65126 0.09156 0.0944 0.0
H162 H 0.57211 0.09572 0.13033 0.0
H163 H 0.59798 0.12861 0.16265 0.0
H164 H 0.37037 0.01388 0.94918 0.0
H165 H 0.4005 0.04494 0.98056 0.0
H166 H 0.46631 1.00287 0.9695 0.0
H167 H 0.43609 0.97139 0.93813 0.0
Tb168 Tb 0.51244 0.52577 0.52927 0.0
Tb169 Tb 0.5165 0.58289 0.56063 0.0
C170 C 0.48516 0.5708 0.50511 0.0
C171 C 0.53481 0.46923 0.49604 0.0
C172 C 0.57934 0.44772 0.47761 0.0
C173 C 0.55882 0.45235 0.46012 0.0
C174 C 0.53669 0.46288 0.46929 0.0
C175 C 0.55522 0.46444 0.5136 0.0
C176 C 0.57718 0.45364 0.50448 0.0
C177 C 0.51231 0.48199 0.50491 0.0
O178 O 0.54798 0.55565 0.51157 0.0
O179 O 0.55932 0.58716 0.545 0.0
O180 O 0.52882 0.55535 0.58882 0.0
O181 O 0.54405 0.527 0.56033 0.0
O182 O 0.52359 0.62577 0.561 0.0
O183 O 0.5144 0.60258 0.59675 0.0
O184 O 0.47227 0.55989 0.5649 0.0
O185 O 0.47771 0.51666 0.5579 0.0
O186 O 0.48292 0.54441 0.50813 0.0
O187 O 0.50041 0.58901 0.52147 0.0
C188 C 0.56564 0.57682 0.52263 0.0
O189 O 0.50832 0.48334 0.5302 0.0
O190 O 0.51185 0.50479 0.49335 0.0
C191 C 0.54286 0.53675 0.58428 0.0
C192 C 0.49495 0.63997 0.59271 0.0
C193 C 0.45051 0.66214 0.60978 0.0
C194 C 0.47736 0.6702 0.62172 0.0
C195 C 0.4994 0.65917 0.61324 0.0
C196 C 0.46839 0.63221 0.58036 0.0
C197 C 0.44636 0.64331 0.58876 0.0
C198 C 0.5172 0.62635 0.58586 0.0
C199 C 0.46302 0.53317 0.56724 0.0
H200 H 0.55984 0.44773 0.43936 0.0
H201 H 0.52122 0.46643 0.4554 0.0
H202 H 0.55451 0.46939 0.53432 0.0
H203 H 0.59287 0.45053 0.51834 0.0
H204 H 0.48127 0.68492 0.63774 0.0
H205 H 0.51973 0.66521 0.62308 0.0
H206 H 0.46451 0.6171 0.56467 0.0
H207 H 0.42585 0.6365 0.57936 0.0
Tb208 Tb 0.02347 0.58298 0.02814 0.0
Tb209 Tb 0.01698 0.52528 0.05803 0.0
C210 C 0.04802 0.53564 1.00343 0.0
C211 C 1.00074 0.63831 0.99547 0.0
C212 C 0.95475 0.65723 0.97725 0.0
C213 C 0.98004 0.66201 0.96264 0.0
C214 C 1.00288 0.65266 0.97173 0.0
C215 C 0.97552 0.63349 1.01011 0.0
C216 C 0.95278 0.64304 1.00116 0.0
C217 C 0.02389 0.62647 1.00365 0.0
O218 O 0.97854 0.56127 0.02454 0.0
O219 O 0.98321 0.5176 0.02852 0.0
O220 O 0.98872 0.54608 0.07883 0.0
O221 O 0.01291 0.58979 0.06904 0.0
O222 O 0.00976 0.48248 0.05693 0.0
O223 O 0.01521 0.50437 0.09388 0.0
O224 O 0.05535 0.55267 0.07457 0.0
O225 O 0.06616 0.58692 0.04367 0.0
O226 O 0.03538 0.55535 0.99942 0.0
O227 O 0.04814 0.52496 0.02697 0.0
C228 C 0.96875 0.53476 0.02057 0.0
O229 O 0.0282 0.62555 0.02885 0.0
O230 O 0.02414 0.60347 0.9922 0.0
C231 C 0.99515 0.57249 0.08416 0.0
C232 C 0.03571 0.46727 0.09028 0.0
C233 C 0.07975 0.44495 0.10807 0.0
C234 C 0.05663 0.44543 0.12454 0.0
C235 C 0.0348 0.45644 0.11568 0.0
C236 C 0.05852 0.46651 0.07363 0.0
C237 C 0.0802 0.45529 0.08238 0.0
C238 C 0.01398 0.4811 0.08214 0.0
C239 C 0.0729 0.5746 0.06459 0.0
H240 H 0.98218 0.6731 0.94426 0.0
H241 H 0.02207 0.65626 0.96004 0.0
H242 H 0.97322 0.62196 0.02825 0.0
H243 H 0.93343 0.63882 0.01266 0.0
H244 H 0.05576 0.43802 0.14455 0.0
H245 H 0.01754 0.45713 0.1289 0.0
H246 H 0.05987 0.47496 0.05399 0.0
H247 H 0.09739 0.45485 0.069 0.0
H248 H 0.26051 0.2671 0.2322 0.0
H249 H 0.22854 0.2472 0.26832 0.0
H250 H 0.29886 0.23019 0.31029 0.0
H251 H 0.33063 0.2496 0.2742 0.0
H252 H 0.25597 0.18646 0.30896 0.0
H253 H 0.26757 0.28226 0.32889 0.0
H254 H 0.26609 0.32968 0.31922 0.0
H255 H 0.17675 0.30247 0.30404 0.0
H256 H 0.17778 0.25481 0.31329 0.0
H257 H 0.19742 0.14866 0.43273 0.0
H258 H 0.2257 0.1768 0.39847 0.0
H259 H 0.14928 0.18288 0.35929 0.0
H260 H 0.12077 0.15452 0.39347 0.0
H261 H 0.19209 0.23181 0.35769 0.0
H262 H 0.18023 0.13657 0.33825 0.0
H263 H 0.18126 0.08901 0.3478 0.0
H264 H 0.27097 0.1152 0.36131 0.0
H265 H 0.2704 0.16301 0.35225 0.0
C266 C 0.26913 0.25943 0.24932 0.0
C267 C 0.29798 0.25968 0.25035 0.0
C268 C 0.25088 0.24811 0.26994 0.0
C269 C 0.26132 0.23726 0.29207 0.0
C270 C 0.29029 0.23827 0.29336 0.0
C271 C 0.30841 0.24932 0.27273 0.0
C272 C 0.24207 0.22348 0.31332 0.0
C273 C 0.24231 0.19657 0.31982 0.0
C274 C 0.22348 0.23628 0.3269 0.0
C275 C 0.22281 0.26494 0.32152 0.0
C276 C 0.24765 0.28636 0.3233 0.0
C277 C 0.24689 0.31328 0.31793 0.0
C278 C 0.22136 0.31907 0.31095 0.0
C279 C 0.19652 0.29795 0.30941 0.0
C280 C 0.19717 0.27099 0.31474 0.0
C281 C 0.18663 0.15614 0.41693 0.0
C282 C 0.15687 0.14908 0.41562 0.0
C283 C 0.20279 0.17229 0.39743 0.0
C284 C 0.18955 0.18153 0.37615 0.0
C285 C 0.15988 0.1759 0.37555 0.0
C286 C 0.14365 0.15975 0.39512 0.0
C287 C 0.20671 0.19519 0.35365 0.0
C288 C 0.20585 0.22185 0.34679 0.0
C289 C 0.22475 0.18219 0.33961 0.0
C290 C 0.22522 0.15341 0.3448 0.0
C291 C 0.20014 0.13222 0.34344 0.0
C292 C 0.20065 0.10521 0.34875 0.0
C293 C 0.22615 0.0991 0.35522 0.0
C294 C 0.25122 0.11997 0.35633 0.0
C295 C 0.25083 0.14702 0.35109 0.0
H296 H 0.2265 0.07817 0.35932 0.0
H297 H 0.22081 0.33993 0.30679 0.0
H298 H 0.29126 0.86209 0.73464 0.0
H299 H 0.31641 0.89078 0.77032 0.0
H300 H 0.24008 0.8721 0.81711 0.0
H301 H 0.21472 0.84315 0.78135 0.0
H302 H 0.27227 0.92685 0.82241 0.0
H303 H 0.28565 0.83615 0.82698 0.0
H304 H 0.29763 0.79494 0.80928 0.0
H305 H 0.38223 0.8421 0.79243 0.0
H306 H 0.3706 0.88373 0.8096 0.0
H307 H 0.34399 0.96575 0.94372 0.0
H308 H 0.31403 0.93898 0.9094 0.0
H309 H 0.38721 0.94768 0.8592 0.0
H310 H 0.41727 0.97441 0.89343 0.0
H311 H 0.35419 0.89653 0.85726 0.0
H312 H 0.34062 0.98743 0.85089 0.0
H313 H 0.32876 0.02909 0.86765 0.0
H314 H 0.24499 0.98198 0.88756 0.0
H315 H 0.25649 0.93995 0.87125 0.0
C316 C 0.27975 0.86437 0.75241 0.0
C317 C 0.25117 0.85009 0.75543 0.0
C318 C 0.29412 0.88076 0.77274 0.0
C319 C 0.28023 0.88307 0.79651 0.0
C320 C 0.25117 0.87043 0.79893 0.0
C321 C 0.23672 0.85399 0.77851 0.0
C322 C 0.29669 0.89698 0.81932 0.0
C323 C 0.28993 0.92004 0.83032 0.0
C324 C 0.31996 0.88823 0.82932 0.0
C325 C 0.32716 0.86312 0.81937 0.0
C326 C 0.30675 0.83778 0.81933 0.0
C327 C 0.31348 0.81434 0.8094 0.0
C328 C 0.34065 0.81591 0.79968 0.0
C329 C 0.36118 0.84092 0.79994 0.0
C330 C 0.35453 0.86445 0.80978 0.0
C331 C 0.35368 0.96196 0.92535 0.0
C332 C 0.38297 0.9723 0.92121 0.0
C333 C 0.33654 0.94669 0.90577 0.0
C334 C 0.34833 0.9417 0.8816 0.0
C335 C 0.37767 0.95132 0.8777 0.0
C336 C 0.39484 0.96649 0.89731 0.0
C337 C 0.33011 0.92674 0.86019 0.0
C338 C 0.33648 0.90335 0.84948 0.0
C339 C 0.30654 0.93523 0.85047 0.0
C340 C 0.29952 0.96051 0.8601 0.0
C341 C 0.31974 0.98592 0.85903 0.0
C342 C 0.31307 0.0096 0.86841 0.0
C343 C 0.28616 1.00817 0.87873 0.0
C344 C 0.26584 0.98305 0.8796 0.0
C345 C 0.27241 0.9593 0.87027 0.0
H346 H 0.28104 0.02653 0.88599 0.0
H347 H 0.34582 0.79774 0.79199 0.0
H348 H 0.63241 0.46984 0.81125 0.0
H349 H 0.61665 0.49037 0.77225 0.0
H350 H 0.64593 0.43377 0.72246 0.0
H351 H 0.6621 0.41361 0.76152 0.0
H352 H 0.65579 0.48145 0.69805 0.0
H353 H 0.57422 0.42428 0.74022 0.0
H354 H 0.54109 0.40746 0.77675 0.0
H355 H 0.52366 0.48638 0.78366 0.0
H356 H 0.55699 0.50378 0.74738 0.0
H357 H 0.57327 0.49715 0.58445 0.0
H358 H 0.59449 0.47961 0.62214 0.0
H359 H 0.56558 0.53496 0.67371 0.0
H360 H 0.54411 0.55223 0.63635 0.0
H361 H 0.55597 0.48748 0.69676 0.0
H362 H 0.63761 0.5445 0.65403 0.0
H363 H 0.67027 0.56069 0.61703 0.0
H364 H 0.68705 0.48146 0.6106 0.0
H365 H 0.6542 0.46468 0.64737 0.0
C366 C 0.63616 0.46227 0.79193 0.0
C367 C 0.649 0.44041 0.7895 0.0
C368 C 0.62676 0.47379 0.76954 0.0
C369 C 0.62947 0.46347 0.74405 0.0
C370 C 0.64341 0.44229 0.74165 0.0
C371 C 0.65284 0.43081 0.76406 0.0
C372 C 0.61692 0.47392 0.72018 0.0
C373 C 0.63385 0.48243 0.69776 0.0
C374 C 0.58835 0.47579 0.71945 0.0
C375 C 0.56832 0.46541 0.74128 0.0
C376 C 0.56349 0.4381 0.74967 0.0
C377 C 0.54465 0.42846 0.7703 0.0
C378 C 0.53034 0.44587 0.78256 0.0
C379 C 0.53479 0.47294 0.77417 0.0
C380 C 0.55364 0.4827 0.75357 0.0
C381 C 0.57153 0.50574 0.60378 0.0
C382 C 0.5569 0.5263 0.60706 0.0
C383 C 0.58385 0.49571 0.62545 0.0
C384 C 0.58209 0.506 0.65113 0.0
C385 C 0.56743 0.52647 0.65435 0.0
C386 C 0.55515 0.53649 0.63277 0.0
C387 C 0.5949 0.49527 0.67469 0.0
C388 C 0.57795 0.4866 0.69706 0.0
C389 C 0.6234 0.49321 0.6753 0.0
C390 C 0.64323 0.50326 0.65327 0.0
C391 C 0.64811 0.53047 0.6446 0.0
C392 C 0.66668 0.53976 0.62369 0.0
C393 C 0.68066 0.52209 0.61142 0.0
C394 C 0.67617 0.49511 0.6201 0.0
C395 C 0.65759 0.4857 0.64098 0.0
H396 H 0.69503 0.52932 0.59524 0.0
H397 H 0.51576 0.43836 0.79853 0.0
H398 H 0.861 0.6375 0.29043 0.0
H399 H 0.87597 0.61966 0.24917 0.0
H400 H 0.95351 0.68399 0.25042 0.0
H401 H 0.93822 0.70201 0.29138 0.0
H402 H 0.93526 0.67594 0.20126 0.0
H403 H 0.94913 0.6159 0.27081 0.0
H404 H 0.93414 0.58452 0.30815 0.0
H405 H 0.87291 0.53037 0.259 0.0
H406 H 0.88731 0.56161 0.22144 0.0
H407 H 0.01666 0.62059 0.11075 0.0
H408 H 0.99765 0.63853 0.14943 0.0
H409 H 0.92618 0.56764 0.14982 0.0
H410 H 0.94619 0.54883 0.11181 0.0
H411 H 0.93889 0.57875 0.19732 0.0
H412 H 0.92503 0.63712 0.12737 0.0
H413 H 0.93898 0.66813 0.08961 0.0
H414 H 0.99792 0.72512 0.1384 0.0
H415 H 0.98459 0.69428 0.17638 0.0
C416 C 0.88099 0.64809 0.2816 0.0
C417 C 0.89829 0.67134 0.29399 0.0
C418 C 0.88974 0.63771 0.2581 0.0
C419 C 0.91623 0.65007 0.24658 0.0
C420 C 0.93305 0.67389 0.25865 0.0
C421 C 0.92425 0.68429 0.2821 0.0
C422 C 0.92681 0.63798 0.22248 0.0
C423 C 0.9363 0.65475 0.20056 0.0
C424 C 0.92761 0.61009 0.2209 0.0
C425 C 0.91911 0.59122 0.2434 0.0
C426 C 0.93235 0.59738 0.26802 0.0
C427 C 0.92398 0.57961 0.28921 0.0
C428 C 0.90253 0.5555 0.28597 0.0
C429 C 0.88948 0.54907 0.2615 0.0
C430 C 0.89776 0.56679 0.24025 0.0
C431 C 0.99682 0.60878 0.11897 0.0
C432 C 0.98291 0.58328 0.10785 0.0
C433 C 0.98574 0.61924 0.14114 0.0
C434 C 0.95983 0.60503 0.15254 0.0
C435 C 0.94606 0.57932 0.14161 0.0
C436 C 0.95751 0.56853 0.11972 0.0
C437 C 0.94749 0.61672 0.17597 0.0
C438 C 0.93771 0.59991 0.19783 0.0
C439 C 0.94617 0.64453 0.17739 0.0
C440 C 0.95396 0.66328 0.15467 0.0
C441 C 0.94106 0.65621 0.13001 0.0
C442 C 0.94886 0.67376 0.10857 0.0
C443 C 0.96937 0.69856 0.11159 0.0
C444 C 0.98206 0.7059 0.13608 0.0
C445 C 0.97437 0.68841 0.15758 0.0
H446 H 0.97539 0.7121 0.09496 0.0
H447 H 0.89608 0.54177 0.3024 0.0
H448 H 0.33709 0.20882 0.18522 0.0
H449 H 0.36587 0.17966 0.16783 0.0
H450 H 0.43992 0.24808 0.16998 0.0
H451 H 0.41088 0.27758 0.18687 0.0
H452 H 0.43901 0.22114 0.12578 0.0
H453 H 0.42892 0.19553 0.21602 0.0
H454 H 0.40379 0.18096 0.25771 0.0
H455 H 0.35735 0.10608 0.22125 0.0
H456 H 0.3819 0.12037 0.17921 0.0
H457 H 0.52971 0.13328 0.0995 0.0
H458 H 0.50764 0.1644 0.12383 0.0
H459 H 0.42569 0.10763 0.11416 0.0
H460 H 0.44746 0.07645 0.08973 0.0
H461 H 0.4353 0.13057 0.16515 0.0
H462 H 0.44378 0.15914 0.07398 0.0
H463 H 0.47042 0.17384 0.03304 0.0
H464 H 0.52211 0.24402 0.07304 0.0
H465 H 0.49608 0.22946 0.11437 0.0
C466 C 0.35956 0.21757 0.1822 0.0
C467 C 0.37183 0.24539 0.18758 0.0
C468 C 0.37601 0.20089 0.17232 0.0
C469 C 0.4052 0.21152 0.16808 0.0
C470 C 0.41748 0.2394 0.17321 0.0
C471 C 0.40091 0.25622 0.18282 0.0
C472 C 0.42259 0.1936 0.15765 0.0
C473 C 0.43861 0.20159 0.13472 0.0
C474 C 0.42185 0.16789 0.16909 0.0
C475 C 0.40712 0.15913 0.19439 0.0
C476 C 0.41321 0.17604 0.21683 0.0
C477 C 0.39908 0.16782 0.24054 0.0
C478 C 0.37894 0.14264 0.24211 0.0
C479 C 0.37294 0.12559 0.21999 0.0
C480 C 0.38698 0.13373 0.19623 0.0
C481 C 0.50702 0.12727 0.10278 0.0
C482 C 0.49028 0.10249 0.09252 0.0
C483 C 0.49447 0.14511 0.11662 0.0
C484 C 0.46504 0.13836 0.12055 0.0
C485 C 0.44845 0.11317 0.11128 0.0
C486 C 0.46091 0.09545 0.09724 0.0
C487 C 0.45123 0.15803 0.13323 0.0
C488 C 0.43591 0.15032 0.15652 0.0
C489 C 0.45283 0.18406 0.12228 0.0
C490 C 0.4682 0.19304 0.09734 0.0
C491 C 0.46098 0.17759 0.07411 0.0
C492 C 0.47595 0.18591 0.05082 0.0
C493 C 0.49801 0.2098 0.05046 0.0
C494 C 0.50506 0.22548 0.07337 0.0
C495 C 0.4902 0.21721 0.09672 0.0
H496 H 0.50959 0.2162 0.03242 0.0
H497 H 0.36803 0.13631 0.26048 0.0
H498 H 0.16249 0.84525 0.64349 0.0
H499 H 0.14401 0.88278 0.62712 0.0
H500 H 0.11549 0.89626 0.70539 0.0
H501 H 0.13379 0.85818 0.7217 0.0
H502 H 0.07521 0.89672 0.66893 0.0
H503 H 0.17303 0.941 0.67972 0.0
H504 H 0.22461 0.94705 0.6756 0.0
H505 H 0.21792 0.94824 0.59143 0.0
H506 H 0.16622 0.94179 0.59501 0.0
H507 H 0.03889 0.01596 0.6185 0.0
H508 H 0.05986 0.98626 0.64551 0.0
H509 H 0.09839 0.96132 0.57628 0.0
H510 H 0.07825 0.99132 0.54937 0.0
H511 H 0.135 0.97146 0.61542 0.0
H512 H 0.0362 0.9215 0.60522 0.0
H513 H 0.98463 0.91557 0.6096 0.0
H514 H 0.99338 0.92557 0.69336 0.0
H515 H 0.04509 0.93196 0.68943 0.0
C516 C 0.1524 0.85639 0.65716 0.0
C517 C 0.14953 0.84918 0.68374 0.0
C518 C 0.14197 0.87785 0.64786 0.0
C519 C 0.12872 0.89259 0.6651 0.0
C520 C 0.12575 0.88523 0.69178 0.0
C521 C 0.13621 0.86364 0.70109 0.0
C522 C 0.11741 0.91512 0.6548 0.0
C523 C 0.08837 0.91339 0.65767 0.0
C524 C 0.13454 0.93673 0.63992 0.0
C525 C 0.16569 0.94074 0.63765 0.0
C526 C 0.18252 0.94236 0.66033 0.0
C527 C 0.21179 0.94589 0.65808 0.0
C528 C 0.22453 0.94798 0.63327 0.0
C529 C 0.20802 0.94661 0.61064 0.0
C530 C 0.17874 0.94306 0.61277 0.0
C531 C 0.0519 1.00418 0.60903 0.0
C532 C 0.05685 1.00599 0.58174 0.0
C533 C 0.06377 0.98714 0.62451 0.0
C534 C 0.08046 0.97134 0.61289 0.0
C535 C 0.08563 0.97336 0.58571 0.0
C536 C 0.07402 0.9905 0.5703 0.0
C537 C 0.09262 0.95249 0.62871 0.0
C538 C 0.12189 0.95501 0.62698 0.0
C539 C 0.07568 0.93167 0.64464 0.0
C540 C 0.04455 0.92753 0.64699 0.0
C541 C 0.02716 0.92263 0.62455 0.0
C542 C 0.9979 0.91916 0.62696 0.0
C543 C 0.98574 0.92027 0.65174 0.0
C544 C 1.00282 0.92476 0.67418 0.0
C545 C 0.0321 0.9283 0.67187 0.0
H546 H 0.96309 0.9176 0.65357 0.0
H547 H 0.24719 0.95071 0.63157 0.0
H548 H 0.75534 0.39029 0.89039 0.0
H549 H 0.7988 0.41508 0.9124 0.0
H550 H 0.76632 0.48668 0.91833 0.0
H551 H 0.72264 0.46182 0.89568 0.0
H552 H 0.82286 0.50221 0.90979 0.0
H553 H 0.76343 0.4429 0.97104 0.0
H554 H 0.73315 0.39935 0.98754 0.0
H555 H 0.80348 0.36285 0.98349 0.0
H556 H 0.83409 0.40607 0.96654 0.0
H557 H 0.92806 0.56176 1.00713 0.0
H558 H 0.88346 0.5435 0.9835 0.0
H559 H 0.90279 0.46501 0.97682 0.0
H560 H 0.94662 0.48279 1.0013 0.0
H561 H 0.85025 0.45584 0.98748 0.0
H562 H 0.90893 0.51582 0.92345 0.0
H563 H 0.93862 0.56033 0.9084 0.0
H564 H 0.86902 0.59684 0.91977 0.0
H565 H 0.83897 0.55256 0.93508 0.0
C566 C 0.7575 0.41144 0.89607 0.0
C567 C 0.73523 0.4239 0.89138 0.0
C568 C 0.78243 0.42563 0.90886 0.0
C569 C 0.78587 0.4527 0.91784 0.0
C570 C 0.76434 0.4658 0.91188 0.0
C571 C 0.73933 0.45158 0.8988 0.0
C572 C 0.81128 0.46648 0.93435 0.0
C573 C 0.82861 0.49218 0.92696 0.0
C574 C 0.81925 0.45363 0.95684 0.0
C575 C 0.80099 0.42767 0.96731 0.0
C576 C 0.7724 0.42554 0.97351 0.0
C577 C 0.75518 0.40091 0.98295 0.0
C578 C 0.76637 0.37833 0.98651 0.0
C579 C 0.79483 0.38035 0.98069 0.0
C580 C 0.81213 0.40491 0.97118 0.0
C581 C 0.92281 0.54057 1.00069 0.0
C582 C 0.94117 0.52383 1.00628 0.0
C583 C 0.89725 0.53014 0.98689 0.0
C584 C 0.88955 0.5028 0.97771 0.0
C585 C 0.90787 0.48611 0.9835 0.0
C586 C 0.93315 0.49639 0.99757 0.0
C587 C 0.86246 0.49122 0.96251 0.0
C588 C 0.84462 0.46592 0.97028 0.0
C589 C 0.85402 0.50456 0.94054 0.0
C590 C 0.87179 0.53095 0.93061 0.0
C591 C 0.89999 0.53336 0.92279 0.0
C592 C 0.91687 0.55854 0.91422 0.0
C593 C 0.90573 0.58141 0.91319 0.0
C594 C 0.87762 0.57911 0.92059 0.0
C595 C 0.86064 0.55396 0.92917 0.0
H596 H 0.91886 0.6009 0.90662 0.0
H597 H 0.753 0.35928 0.99382 0.0
H598 H 0.81687 0.70325 0.44066 0.0
H599 H 0.77236 0.68159 0.4623 0.0
H600 H 0.74059 0.64008 0.39 0.0
H601 H 0.78502 0.66285 0.3677 0.0
H602 H 0.70053 0.65898 0.41208 0.0
H603 H 0.76171 0.60637 0.44414 0.0
H604 H 0.80463 0.59824 0.46448 0.0
H605 H 0.78729 0.63698 0.53583 0.0
H606 H 0.74445 0.64568 0.5158 0.0
H607 H 0.58143 0.56684 0.47243 0.0
H608 H 0.62595 0.58705 0.4497 0.0
H609 H 0.65725 0.63539 0.51857 0.0
H610 H 0.61248 0.61529 0.54153 0.0
H611 H 0.69735 0.61179 0.49776 0.0
H612 H 0.63696 0.66551 0.46468 0.0
H613 H 0.59563 0.6757 0.44315 0.0
H614 H 0.61185 0.63423 0.37307 0.0
H615 H 0.6532 0.62365 0.39426 0.0
C616 C 0.80041 0.68974 0.42912 0.0
C617 C 0.80468 0.68519 0.40217 0.0
C618 C 0.77494 0.67697 0.44175 0.0
C619 C 0.75294 0.65878 0.42805 0.0
C620 C 0.75713 0.65392 0.40117 0.0
C621 C 0.7827 0.66683 0.38843 0.0
C622 C 0.72542 0.64565 0.44166 0.0
C623 C 0.69988 0.64821 0.43056 0.0
C624 C 0.72429 0.63214 0.46623 0.0
C625 C 0.75 0.6269 0.47837 0.0
C626 C 0.76716 0.61334 0.4641 0.0
C627 C 0.79146 0.6086 0.47559 0.0
C628 C 0.79872 0.61715 0.50141 0.0
C629 C 0.78166 0.6304 0.51582 0.0
C630 C 0.75735 0.63521 0.50442 0.0
C631 C 0.5977 0.58179 0.48286 0.0
C632 C 0.59315 0.58936 0.50895 0.0
C633 C 0.62321 0.59349 0.46969 0.0
C634 C 0.64508 0.61302 0.48221 0.0
C635 C 0.64078 0.62044 0.50836 0.0
C636 C 0.61507 0.60895 0.52149 0.0
C637 C 0.67252 0.62519 0.46816 0.0
C638 C 0.69803 0.62243 0.47919 0.0
C639 C 0.67362 0.63837 0.44346 0.0
C640 C 0.64799 0.64355 0.43115 0.0
C641 C 0.63149 0.65826 0.4448 0.0
C642 C 0.60813 0.66421 0.43261 0.0
C643 C 0.60111 0.6556 0.40676 0.0
C644 C 0.61732 0.64088 0.39309 0.0
C645 C 0.64073 0.63494 0.40517 0.0
H646 H 0.58318 0.66042 0.39724 0.0
H647 H 0.81754 0.61345 0.51026 0.0
H648 H 0.26258 0.32212 0.20072 0.0
H649 H 0.22154 0.34065 0.19222 0.0
H650 H 0.27409 0.4044 0.14458 0.0
H651 H 0.31512 0.38611 0.15352 0.0
H652 H 0.23869 0.42442 0.17471 0.0
H653 H 0.23138 0.34716 0.11659 0.0
H654 H 0.22889 0.299 0.10544 0.0
H655 H 0.15359 0.27259 0.15229 0.0
H656 H 0.15586 0.32061 0.164 0.0
H657 H 0.13644 0.46525 0.09821 0.0
H658 H 0.17558 0.44768 0.11368 0.0
H659 H 0.11685 0.38429 0.15673 0.0
H660 H 0.07731 0.40077 0.14006 0.0
H661 H 0.15412 0.3637 0.13219 0.0
H662 H 0.15988 0.44225 0.18759 0.0
H663 H 0.16244 0.49076 0.19714 0.0
H664 H 0.24078 0.51527 0.15443 0.0
H665 H 0.23851 0.46692 0.1443 0.0
C666 C 0.26528 0.34029 0.18874 0.0
C667 C 0.29171 0.35287 0.17774 0.0
C668 C 0.2419 0.35076 0.18378 0.0
C669 C 0.2447 0.37372 0.1675 0.0
C670 C 0.27146 0.3867 0.15719 0.0
C671 C 0.29481 0.37627 0.16223 0.0
C672 C 0.21965 0.38369 0.16033 0.0
C673 C 0.22027 0.41122 0.16525 0.0
C674 C 0.19538 0.36631 0.14846 0.0
C675 C 0.19397 0.33744 0.14141 0.0
C676 C 0.21442 0.33107 0.12468 0.0
C677 C 0.21303 0.3038 0.11823 0.0
C678 C 0.19115 0.28274 0.12822 0.0
C679 C 0.17056 0.28892 0.14462 0.0
C680 C 0.17188 0.31615 0.15115 0.0
C681 C 0.13174 0.44735 0.11069 0.0
C682 C 0.10365 0.43441 0.11783 0.0
C683 C 0.15423 0.43757 0.11986 0.0
C684 C 0.14923 0.41496 0.13678 0.0
C685 C 0.12124 0.40189 0.14385 0.0
C686 C 0.09867 0.4115 0.13448 0.0
C687 C 0.17315 0.40451 0.14645 0.0
C688 C 0.17237 0.37688 0.14194 0.0
C689 C 0.19728 0.42185 0.15862 0.0
C690 C 0.19891 0.45094 0.16502 0.0
C691 C 0.17757 0.45799 0.1801 0.0
C692 C 0.17898 0.48546 0.18563 0.0
C693 C 0.20172 0.50609 0.17634 0.0
C694 C 0.22317 0.49928 0.16159 0.0
C695 C 0.22185 0.47184 0.15598 0.0
H696 H 0.20276 0.52735 0.18061 0.0
H697 H 0.1901 0.26165 0.1232 0.0
H698 H 0.61258 0.3396 0.89814 0.0
H699 H 0.5926 0.296 0.91994 0.0
H700 H 0.6765 0.28465 0.93022 0.0
H701 H 0.69659 0.3276 0.90719 0.0
H702 H 0.64311 0.23782 0.91692 0.0
H703 H 0.63608 0.3049 0.98183 0.0
H704 H 0.62246 0.34515 0.99993 0.0
H705 H 0.53464 0.30538 0.98706 0.0
H706 H 0.54775 0.26504 0.96852 0.0
H707 H 0.60451 0.12961 1.0106 0.0
H708 H 0.62481 0.17343 0.98895 0.0
H709 H 0.54083 0.18288 0.97451 0.0
H710 H 0.52038 0.13921 0.99636 0.0
H711 H 0.57439 0.23058 0.99025 0.0
H712 H 0.58185 0.1636 0.92506 0.0
H713 H 0.59574 0.12322 0.90765 0.0
H714 H 0.68332 0.16289 0.92195 0.0
H715 H 0.66991 0.20339 0.9398 0.0
C716 C 0.62691 0.3278 0.90471 0.0
C717 C 0.65641 0.33755 0.90072 0.0
C718 C 0.61538 0.30285 0.91761 0.0
C719 C 0.63291 0.28688 0.92731 0.0
C720 C 0.66232 0.29641 0.92316 0.0
C721 C 0.67388 0.3213 0.91014 0.0
C722 C 0.62066 0.26022 0.94142 0.0
C723 C 0.62841 0.23645 0.9332 0.0
C724 C 0.60088 0.25783 0.9624 0.0
C725 C 0.59293 0.28207 0.97352 0.0
C726 C 0.61388 0.30483 0.98266 0.0
C727 C 0.60625 0.32765 0.99303 0.0
C728 C 0.57771 0.32786 0.99457 0.0
C729 C 0.55674 0.30522 0.9858 0.0
C730 C 0.56426 0.28236 0.97537 0.0
C731 C 0.59028 0.14093 1.00282 0.0
C732 C 0.56069 0.13054 1.0052 0.0
C733 C 0.60197 0.16606 0.99027 0.0
C734 C 0.58448 0.18159 0.97962 0.0
C735 C 0.55494 0.17146 0.98238 0.0
C736 C 0.54322 0.1463 0.99485 0.0
C737 C 0.59687 0.20829 0.96572 0.0
C738 C 0.58913 0.23202 0.97398 0.0
C739 C 0.61672 0.21067 0.94484 0.0
C740 C 0.62485 0.18641 0.934 0.0
C741 C 0.60405 0.16363 0.92467 0.0
C742 C 0.61184 0.14074 0.9147 0.0
C743 C 0.64039 0.14046 0.91376 0.0
C744 C 0.66121 0.16312 0.92273 0.0
C745 C 0.65353 0.18606 0.93276 0.0
H746 H 0.64637 0.12271 0.90603 0.0
H747 H 0.57184 0.34553 1.00262 0.0
H748 H 0.90427 0.78719 0.36192 0.0
H749 H 0.92601 0.83227 0.38146 0.0
H750 H 0.89527 0.80166 0.45792 0.0
H751 H 0.87348 0.75701 0.43859 0.0
H752 H 0.88577 0.84957 0.45214 0.0
H753 H 0.96725 0.81387 0.43786 0.0
H754 H 1.0002 0.79453 0.41169 0.0
H755 H 0.01914 0.86575 0.36248 0.0
H756 H 0.986 0.88537 0.38818 0.0
H757 H 0.96512 0.95712 0.53314 0.0
H758 H 0.94538 0.91311 0.5113 0.0
H759 H 0.97882 0.94805 0.43704 0.0
H760 H 0.99929 0.99188 0.4589 0.0
H761 H 0.98664 0.89903 0.43998 0.0
H762 H 0.90598 0.93518 0.45467 0.0
H763 H 0.87316 0.95469 0.48084 0.0
H764 H 0.85251 0.88271 0.52899 0.0
H765 H 0.88549 0.8629 0.5033 0.0
C766 C 0.90235 0.79003 0.38293 0.0
C767 C 0.88679 0.76839 0.39854 0.0
C768 C 0.91485 0.81588 0.39414 0.0
C769 C 0.91249 0.82063 0.42134 0.0
C770 C 0.89732 0.79887 0.43691 0.0
C771 C 0.88475 0.77321 0.42575 0.0
C772 C 0.9252 0.84818 0.43374 0.0
C773 C 0.90794 0.86016 0.44967 0.0
C774 C 0.95396 0.86267 0.43017 0.0
C775 C 0.97393 0.85094 0.41476 0.0
C776 C 0.97828 0.82531 0.42134 0.0
C777 C 0.99702 0.81431 0.40661 0.0
C778 C 0.01169 0.82886 0.38539 0.0
C779 C 0.00772 0.85448 0.3789 0.0
C780 C 0.98898 0.86555 0.39355 0.0
C781 C 0.96826 0.95552 0.51214 0.0
C782 C 0.98375 0.97829 0.49785 0.0
C783 C 0.95679 0.93025 0.49958 0.0
C784 C 0.96008 0.92708 0.47228 0.0
C785 C 0.97582 0.94973 0.45806 0.0
C786 C 0.98749 0.97494 0.47063 0.0
C787 C 0.94726 0.90026 0.45859 0.0
C788 C 0.96446 0.88846 0.44239 0.0
C789 C 0.91842 0.88591 0.46188 0.0
C790 C 0.89839 0.89767 0.47721 0.0
C791 C 0.89457 0.92358 0.47094 0.0
C792 C 0.87592 0.93468 0.48568 0.0
C793 C 0.86081 0.91998 0.50661 0.0
C794 C 0.86425 0.89409 0.51279 0.0
C795 C 0.88289 0.8829 0.49813 0.0
H796 H 0.8464 0.92861 0.518 0.0
H797 H 0.02619 0.82032 0.37401 0.0
H798 H 0.24639 0.77448 0.65816 0.0
H799 H 0.27905 0.74879 0.64131 0.0
H800 H 0.3045 0.7368 0.72067 0.0
H801 H 0.27202 0.76259 0.73758 0.0
H802 H 0.34931 0.75641 0.69042 0.0
H803 H 0.26456 0.68354 0.68364 0.0
H804 H 0.21542 0.66181 0.67018 0.0
H805 H 0.23922 0.6745 0.58893 0.0
H806 H 0.28845 0.69666 0.60192 0.0
H807 H 0.43556 0.66744 0.66091 0.0
H808 H 0.39698 0.68564 0.67755 0.0
H809 H 0.37298 0.69875 0.598 0.0
H810 H 0.41153 0.68036 0.58119 0.0
H811 H 0.32691 0.67782 0.62816 0.0
H812 H 0.41106 0.75169 0.6349 0.0
H813 H 0.46019 0.77378 0.64815 0.0
H814 H 0.4372 0.7597 0.72944 0.0
H815 H 0.388 0.73715 0.71665 0.0
C816 C 0.25848 0.76581 0.67202 0.0
C817 C 0.25677 0.77061 0.69916 0.0
C818 C 0.27716 0.75117 0.66238 0.0
C819 C 0.29418 0.74081 0.67974 0.0
C820 C 0.29167 0.74471 0.70692 0.0
C821 C 0.27313 0.75944 0.71654 0.0
C822 C 0.31608 0.72772 0.66958 0.0
C823 C 0.34432 0.73893 0.67715 0.0
C824 C 0.30969 0.70545 0.65164 0.0
C825 C 0.28014 0.69199 0.64377 0.0
C826 C 0.25927 0.68189 0.66291 0.0
C827 C 0.23141 0.66946 0.65536 0.0
C828 C 0.22419 0.66684 0.62872 0.0
C829 C 0.24484 0.67657 0.60956 0.0
C830 C 0.27273 0.68904 0.617 0.0
C831 C 0.42218 0.67437 0.64696 0.0
C832 C 0.42676 0.67277 0.61975 0.0
C833 C 0.4001 0.68468 0.65649 0.0
C834 C 0.38236 0.69391 0.63902 0.0
C835 C 0.38643 0.69175 0.61182 0.0
C836 C 0.40845 0.68127 0.60226 0.0
C837 C 0.36002 0.70641 0.6492 0.0
C838 C 0.3318 0.69521 0.64154 0.0
C839 C 0.36638 0.72875 0.66705 0.0
C840 C 0.39591 0.7425 0.6748 0.0
C841 C 0.41653 0.75312 0.65559 0.0
C842 C 0.44438 0.76575 0.66302 0.0
C843 C 0.45183 0.76808 0.68962 0.0
C844 C 0.43141 0.75785 0.70885 0.0
C845 C 0.40354 0.74516 0.70152 0.0
H846 H 0.4734 0.77786 0.69533 0.0
H847 H 0.2026 0.65722 0.62292 0.0
H848 H 0.75194 0.87223 0.83687 0.0
H849 H 0.77739 0.90057 0.80112 0.0
H850 H 0.78809 0.82804 0.76144 0.0
H851 H 0.76313 0.79978 0.79731 0.0
H852 H 0.83651 0.86561 0.76242 0.0
H853 H 0.74081 0.86393 0.73939 0.0
H854 H 0.69264 0.86949 0.74697 0.0
H855 H 0.72697 0.95495 0.76382 0.0
H856 H 0.77539 0.94983 0.75669 0.0
H857 H 0.88727 0.93073 0.6413 0.0
H858 H 0.8588 0.90111 0.67468 0.0
H859 H 0.85034 0.97238 0.71796 0.0
H860 H 0.87868 1.00202 0.68475 0.0
H861 H 0.80028 0.93476 0.71417 0.0
H862 H 0.89618 0.93587 0.73757 0.0
H863 H 0.94408 0.9302 0.72865 0.0
H864 H 0.9089 0.84524 0.71021 0.0
H865 H 0.86072 0.85051 0.71859 0.0
C866 C 0.75935 0.86236 0.82029 0.0
C867 C 0.75565 0.83386 0.81984 0.0
C868 C 0.77389 0.87854 0.79989 0.0
C869 C 0.78455 0.86641 0.77851 0.0
C870 C 0.78021 0.83786 0.77778 0.0
C871 C 0.76592 0.82175 0.79824 0.0
C872 C 0.80118 0.88348 0.75738 0.0
C873 C 0.8284 0.88045 0.75161 0.0
C874 C 0.79087 0.90324 0.74363 0.0
C875 C 0.76175 0.90643 0.74774 0.0
C876 C 0.7381 0.88387 0.74489 0.0
C877 C 0.71075 0.88695 0.74908 0.0
C878 C 0.70676 0.91254 0.75594 0.0
C879 C 0.7301 0.93513 0.75854 0.0
C880 C 0.7575 0.93216 0.7544 0.0
C881 C 0.87954 0.94005 0.65806 0.0
C882 C 0.88515 0.96868 0.66039 0.0
C883 C 0.86324 0.92313 0.67707 0.0
C884 C 0.85258 0.93457 0.69886 0.0
C885 C 0.85822 0.96313 0.70123 0.0
C886 C 0.87439 0.98002 0.68222 0.0
C887 C 0.83553 0.91687 0.7193 0.0
C888 C 0.80829 0.91983 0.72495 0.0
C889 C 0.84579 0.897 0.73288 0.0
C890 C 0.87481 0.89365 0.72847 0.0
C891 C 0.89864 0.91601 0.73147 0.0
C892 C 0.92584 0.91288 0.72651 0.0
C893 C 0.92952 0.8874 0.7188 0.0
C894 C 0.90601 0.86498 0.71615 0.0
C895 C 0.87875 0.86802 0.72101 0.0
H896 H 0.95059 0.88502 0.71493 0.0
H897 H 0.68557 0.91489 0.75919 0.0
H898 H 0.76941 0.22462 0.35889 0.0
H899 H 0.73788 0.20322 0.32312 0.0
H900 H 0.77598 0.27101 0.27242 0.0
H901 H 0.80677 0.29296 0.30864 0.0
H902 H 0.72186 0.25497 0.26241 0.0
H903 H 0.79608 0.20975 0.27067 0.0
H904 H 0.82714 0.18558 0.2933 0.0
H905 H 0.75503 0.11972 0.31243 0.0
H906 H 0.72346 0.14371 0.29027 0.0
H907 H 0.68271 0.17564 0.14252 0.0
H908 H 0.71008 0.20294 0.17836 0.0
H909 H 0.65945 0.14867 0.23533 0.0
H910 H 0.63187 0.12163 0.19974 0.0
H911 H 0.72079 0.1588 0.24047 0.0
H912 H 0.6471 0.20648 0.23069 0.0
H913 H 0.61844 0.23136 0.20566 0.0
H914 H 0.69361 0.29338 0.18577 0.0
H915 H 0.72278 0.26863 0.21039 0.0
C916 C 0.77075 0.23504 0.34018 0.0
C917 C 0.79056 0.26027 0.33634 0.0
C918 C 0.75288 0.22278 0.31973 0.0
C919 C 0.75506 0.23517 0.29486 0.0
C920 C 0.774 0.261 0.29138 0.0
C921 C 0.79156 0.27352 0.31202 0.0
C922 C 0.73846 0.2206 0.2723 0.0
C923 C 0.72192 0.23406 0.25744 0.0
C924 C 0.73843 0.19325 0.2658 0.0
C925 C 0.75737 0.17866 0.27902 0.0
C926 C 0.78682 0.19021 0.27987 0.0
C927 C 0.80452 0.17653 0.29259 0.0
C928 C 0.79306 0.15116 0.30435 0.0
C929 C 0.76387 0.13939 0.30335 0.0
C930 C 0.74606 0.15301 0.29069 0.0
C931 C 0.67737 0.16974 0.16272 0.0
C932 C 0.65517 0.14665 0.16845 0.0
C933 C 0.69288 0.18533 0.1831 0.0
C934 C 0.68665 0.17777 0.20939 0.0
C935 C 0.66446 0.1548 0.21512 0.0
C936 C 0.64867 0.13951 0.19483 0.0
C937 C 0.70401 0.19305 0.23101 0.0
C938 C 0.72081 0.17971 0.24554 0.0
C939 C 0.70468 0.2206 0.23683 0.0
C940 C 0.68715 0.23554 0.22214 0.0
C941 C 0.65755 0.22528 0.22077 0.0
C942 C 0.6412 0.23939 0.2067 0.0
C943 C 0.6542 0.2639 0.19407 0.0
C944 C 0.68357 0.27438 0.19554 0.0
C945 C 0.70002 0.26033 0.20956 0.0
H946 H 0.64151 0.27479 0.18319 0.0
H947 H 0.8068 0.14061 0.31419 0.0
H948 H 0.38803 0.6345 0.2786 0.0
H949 H 0.40193 0.61252 0.31776 0.0
H950 H 0.40345 0.68502 0.36355 0.0
H951 H 0.38958 0.70681 0.32451 0.0
H952 H 0.45069 0.66898 0.37232 0.0
H953 H 0.35117 0.6236 0.37165 0.0
H954 H 0.30659 0.59602 0.35238 0.0
H955 H 0.34431 0.52877 0.34056 0.0
H956 H 0.38926 0.55609 0.35946 0.0
H957 H 0.47343 0.6209 0.49881 0.0
H958 H 0.45261 0.63806 0.46094 0.0
H959 H 0.4445 0.56104 0.42073 0.0
H960 H 0.46427 0.54334 0.4592 0.0
H961 H 0.40084 0.57828 0.40805 0.0
H962 H 0.4994 0.62182 0.40985 0.0
H963 H 0.54388 0.648 0.43003 0.0
H964 H 0.51028 0.71845 0.43718 0.0
H965 H 0.4649 0.69219 0.41826 0.0
C966 C 0.39057 0.64541 0.29721 0.0
C967 C 0.38706 0.6722 0.29854 0.0
C968 C 0.39869 0.63287 0.31967 0.0
C969 C 0.40377 0.6469 0.34401 0.0
C970 C 0.39976 0.67355 0.34526 0.0
C971 C 0.39149 0.68594 0.32292 0.0
C972 C 0.41445 0.63458 0.36782 0.0
C973 C 0.43949 0.64931 0.3803 0.0
C974 C 0.40065 0.60844 0.37804 0.0
C975 C 0.37366 0.59199 0.36671 0.0
C976 C 0.35003 0.60301 0.36474 0.0
C977 C 0.32468 0.58741 0.35393 0.0
C978 C 0.32264 0.56069 0.34518 0.0
C979 C 0.34593 0.54949 0.3473 0.0
C980 C 0.37134 0.56501 0.35808 0.0
C981 C 0.46712 0.60747 0.482 0.0
C982 C 0.47086 0.58068 0.48223 0.0
C983 C 0.45526 0.61743 0.46011 0.0
C984 C 0.44742 0.60128 0.43727 0.0
C985 C 0.45035 0.5742 0.43778 0.0
C986 C 0.46179 0.56405 0.45991 0.0
C987 C 0.43694 0.61285 0.41283 0.0
C988 C 0.41206 0.59797 0.40014 0.0
C989 C 0.45106 0.63877 0.40219 0.0
C990 C 0.47861 0.65492 0.41286 0.0
C991 C 0.50139 0.64284 0.41587 0.0
C992 C 0.52679 0.65771 0.42712 0.0
C993 C 0.53002 0.68495 0.43475 0.0
C994 C 0.50776 0.69735 0.43126 0.0
C995 C 0.48212 0.68243 0.42039 0.0
H996 H 0.54976 0.69645 0.44338 0.0
H997 H 0.303 0.54864 0.33682 0.0
H998 H 0.12691 0.46416 0.7746 0.0
H999 H 0.11348 0.48508 0.81469 0.0
H1000 H 0.14755 0.43034 0.8619 0.0
H1001 H 0.16045 0.40911 0.82162 0.0
H1002 H 0.09788 0.4314 0.88082 0.0
H1003 H 0.17982 0.50211 0.85672 0.0
H1004 H 0.21042 0.5358 0.82729 0.0
H1005 H 0.14432 0.5772 0.81838 0.0
H1006 H 0.11318 0.54354 0.84749 0.0
H1007 H 0.07825 0.49604 1.00284 0.0
H1008 H 0.09894 0.478 0.96486 0.0
H1009 H 0.06836 0.53188 0.91363 0.0
H1010 H 0.04836 0.55042 0.95144 0.0
H1011 H 0.11861 0.53132 0.89784 0.0
H1012 H 0.03596 0.46001 0.91969 0.0
H1013 H 1.00451 0.42632 0.94853 0.0
H1014 H 0.07097 0.38607 0.96099 0.0
H1015 H 0.10295 0.41974 0.93247 0.0
C1016 C 0.13224 0.45713 0.79355 0.0
C1017 C 0.14537 0.43544 0.79494 0.0
C1018 C 0.12446 0.46907 0.81658 0.0
C1019 C 0.12965 0.45967 0.8417 0.0
C1020 C 0.14327 0.4382 0.84298 0.0
C1021 C 0.15099 0.42623 0.81991 0.0
C1022 C 0.11969 0.47125 0.86642 0.0
C1023 C 0.1029 0.45326 0.88468 0.0
C1024 C 0.12537 0.49982 0.87152 0.0
C1025 C 0.14409 0.52016 0.85411 0.0
C1026 C 0.17174 0.51829 0.84834 0.0
C1027 C 0.18919 0.5374 0.83174 0.0
C1028 C 0.1793 0.55859 0.82092 0.0
C1029 C 0.15195 0.56076 0.82675 0.0
C1030 C 0.1344 0.54169 0.84332 0.0
C1031 C 0.07597 0.50415 0.98351 0.0
C1032 C 0.06146 0.52476 0.98044 0.0
C1033 C 0.08772 0.49364 0.96165 0.0
C1034 C 0.08502 0.50314 0.93597 0.0
C1035 C 0.07091 0.52402 0.933 0.0
C1036 C 0.05932 0.53462 0.95481 0.0
C1037 C 0.09669 0.49148 0.91219 0.0
C1038 C 0.11375 0.50945 0.89407 0.0
C1039 C 0.09114 0.4629 0.90714 0.0
C1040 C 0.07193 0.44256 0.92418 0.0
C1041 C 0.04392 0.44408 0.92873 0.0
C1042 C 0.026 0.42498 0.94499 0.0
C1043 C 0.03576 0.40412 0.95665 0.0
C1044 C 0.06345 0.40227 0.95199 0.0
C1045 C 0.08148 0.42134 0.93576 0.0
H1046 H 0.02185 0.38935 0.96924 0.0
H1047 H 0.19284 0.57336 0.80807 0.0
H1048 H 0.62028 0.83594 0.87369 0.0
H1049 H 0.59966 0.87299 0.88889 0.0
H1050 H 0.67637 0.90901 0.93194 0.0
H1051 H 0.69681 0.87195 0.91679 0.0
H1052 H 0.62912 0.90011 0.96264 0.0
H1053 H 0.65903 0.94039 0.87833 0.0
H1054 H 0.6619 0.94125 0.82989 0.0
H1055 H 0.57149 0.92731 0.82503 0.0
H1056 H 0.56804 0.92598 0.87346 0.0
H1057 H 0.60179 0.01931 0.01122 0.0
H1058 H 0.6225 0.9886 0.98531 0.0
H1059 H 0.54427 0.96072 0.94224 0.0
H1060 H 0.52354 0.99234 0.96775 0.0
H1061 H 0.58965 0.9643 0.91024 0.0
H1062 H 0.55887 0.92358 0.99339 0.0
H1063 H 0.55465 0.92171 0.04174 0.0
H1064 H 0.64474 0.93422 0.04862 0.0
H1065 H 0.64956 0.93658 1.00031 0.0
C1066 C 0.63285 0.8522 0.88588 0.0
C1067 C 0.66004 0.85145 0.89407 0.0
C1068 C 0.62114 0.87331 0.89452 0.0
C1069 C 0.63652 0.89379 0.9115 0.0
C1070 C 0.66416 0.89343 0.91884 0.0
C1071 C 0.67586 0.87241 0.91014 0.0
C1072 C 0.62299 0.91405 0.92366 0.0
C1073 C 0.62088 0.91442 0.95118 0.0
C1074 C 0.6112 0.93193 0.90864 0.0
C1075 C 0.61326 0.9328 0.87953 0.0
C1076 C 0.63973 0.93726 0.86693 0.0
C1077 C 0.64147 0.93789 0.83947 0.0
C1078 C 0.61689 0.93426 0.82439 0.0
C1079 C 0.59052 0.93008 0.83674 0.0
C1080 C 0.58866 0.92941 0.86419 0.0
C1081 C 0.589 1.00682 0.9961 0.0
C1082 C 0.5609 1.00792 0.99177 0.0
C1083 C 0.60088 0.98924 0.98131 0.0
C1084 C 0.58471 0.97186 0.96228 0.0
C1085 C 0.55706 0.97384 0.95695 0.0
C1086 C 0.54524 0.99184 0.97155 0.0
C1087 C 0.5964 0.95072 0.94923 0.0
C1088 C 0.59794 0.95 0.92165 0.0
C1089 C 0.60745 0.93221 0.96414 0.0
C1090 C 0.60459 0.93047 0.99322 0.0
C1091 C 0.57781 0.92609 1.00522 0.0
C1092 C 0.5753 0.92493 0.03262 0.0
C1093 C 0.59942 0.92789 0.04824 0.0
C1094 C 0.62608 0.93195 0.03649 0.0
C1095 C 0.62871 0.93318 1.0091 0.0
H1096 H 0.59744 0.927 0.06945 0.0
H1097 H 0.61828 0.93475 0.80313 0.0
H1098 H 0.9067 0.27774 0.39307 0.0
H1099 H 0.93409 0.24787 0.4119 0.0
H1100 H 0.85687 0.18475 0.42386 0.0
H1101 H 0.82947 0.21444 0.40516 0.0
H1102 H 0.8924 0.19443 0.46779 0.0
H1103 H 0.89767 0.17817 0.37461 0.0
H1104 H 0.9082 0.19151 0.32837 0.0
H1105 H 0.99565 0.22588 0.34795 0.0
H1106 H 0.98554 0.21308 0.39443 0.0
H1107 H 0.94081 0.07859 0.4947 0.0
H1108 H 0.91814 0.11055 0.47341 0.0
H1109 H 1.00004 0.1654 0.45811 0.0
H1110 H 0.02307 0.13317 0.47901 0.0
H1111 H 0.96488 0.1627 0.41658 0.0
H1112 H 0.96051 0.17759 0.50927 0.0
H1113 H 0.95039 0.16447 0.55563 0.0
H1114 H 0.86201 0.13385 0.53755 0.0
H1115 H 0.87167 0.14642 0.49098 0.0
C1116 C 0.89563 0.25752 0.39981 0.0
C1117 C 0.86601 0.24833 0.39759 0.0
C1118 C 0.91126 0.24047 0.41039 0.0
C1119 C 0.89746 0.21409 0.4191 0.0
C1120 C 0.86788 0.20503 0.41719 0.0
C1121 C 0.8523 0.22192 0.40638 0.0
C1122 C 0.9137 0.1959 0.43048 0.0
C1123 C 0.90806 0.18727 0.45655 0.0
C1124 C 0.93467 0.18726 0.41597 0.0
C1125 C 0.94078 0.19496 0.38805 0.0
C1126 C 0.91909 0.18881 0.36911 0.0
C1127 C 0.92499 0.19622 0.34284 0.0
C1128 C 0.95256 0.20961 0.33524 0.0
C1129 C 0.9743 0.21555 0.35388 0.0
C1130 C 0.9685 0.20821 0.38018 0.0
C1131 C 0.95408 0.09735 0.48668 0.0
C1132 C 0.98375 0.10346 0.48878 0.0
C1133 C 0.94105 0.11565 0.47458 0.0
C1134 C 0.95739 0.14059 0.46467 0.0
C1135 C 0.98706 0.14632 0.46578 0.0
C1136 C 1.00016 0.12789 0.47776 0.0
C1137 C 0.9433 0.16089 0.45383 0.0
C1138 C 0.94937 0.17 0.42791 0.0
C1139 C 0.9228 0.17012 0.46853 0.0
C1140 C 0.91686 0.16275 0.49658 0.0
C1141 C 0.93895 0.16789 0.51514 0.0
C1142 C 0.93329 0.16057 0.54146 0.0
C1143 C 0.90558 0.14828 0.54952 0.0
C1144 C 0.88347 0.14335 0.53127 0.0
C1145 C 0.88902 0.15059 0.50492 0.0
H1146 H 0.90125 0.14263 0.5699 0.0
H1147 H 0.95709 0.21532 0.31489 0.0
H1148 H 0.31092 0.64974 0.20143 0.0
H1149 H 0.26611 0.62477 0.1812 0.0
H1150 H 0.24967 0.70143 0.15841 0.0
H1151 H 0.29248 0.72616 0.18052 0.0
H1152 H 0.20316 0.67224 0.16896 0.0
H1153 H 0.27746 0.65289 0.11522 0.0
H1154 H 0.31957 0.63587 0.10568 0.0
H1155 H 0.27503 0.55542 0.13107 0.0
H1156 H 0.23274 0.57204 0.1411 0.0
H1157 H 0.10808 0.62679 0.06152 0.0
H1158 H 0.1515 0.64639 0.08661 0.0
H1159 H 0.14429 0.56855 0.12396 0.0
H1160 H 0.10065 0.54892 0.0993 0.0
H1161 H 0.20093 0.59481 0.10789 0.0
H1162 H 0.12495 0.61582 0.15749 0.0
H1163 H 0.08314 0.63425 0.16342 0.0
H1164 H 0.1325 0.71432 0.14168 0.0
H1165 H 0.17451 0.69626 0.13519 0.0
C1166 C 0.29754 0.66131 0.19253 0.0
C1167 C 0.30612 0.69019 0.19226 0.0
C1168 C 0.27195 0.64692 0.18045 0.0
C1169 C 0.25441 0.66093 0.16726 0.0
C1170 C 0.26249 0.68972 0.16801 0.0
C1171 C 0.28754 0.704 0.18049 0.0
C1172 C 0.22782 0.64621 0.15255 0.0
C1173 C 0.20306 0.65555 0.1554 0.0
C1174 C 0.22671 0.62382 0.13509 0.0
C1175 C 0.25208 0.61379 0.12919 0.0
C1176 C 0.27673 0.63162 0.11895 0.0
C1177 C 0.30061 0.62203 0.11343 0.0
C1178 C 0.3 0.5946 0.11786 0.0
C1179 C 0.27547 0.57667 0.12774 0.0
C1180 C 0.25155 0.58615 0.13333 0.0
C1181 C 0.11581 0.61373 0.07489 0.0
C1182 C 0.10064 0.58621 0.07832 0.0
C1183 C 0.14066 0.62503 0.08936 0.0
C1184 C 0.15128 0.60907 0.10742 0.0
C1185 C 0.13669 0.58138 0.11024 0.0
C1186 C 0.11159 0.57019 0.09612 0.0
C1187 C 0.17701 0.62148 0.1239 0.0
C1188 C 0.20134 0.61155 0.12148 0.0
C1189 C 0.17795 0.64366 0.14137 0.0
C1190 C 0.15281 0.65463 0.14562 0.0
C1191 C 0.12684 0.63732 0.15378 0.0
C1192 C 0.10311 0.6477 0.15727 0.0
C1193 C 0.10514 0.67542 0.15287 0.0
C1194 C 0.13094 0.69284 0.14505 0.0
C1195 C 0.15473 0.68254 0.14148 0.0
H1196 H 0.08674 0.68342 0.15557 0.0
H1197 H 0.3185 0.58722 0.11357 0.0
H1198 H 0.25039 0.38263 0.69226 0.0
H1199 H 0.29399 0.40788 0.67121 0.0
H1200 H 0.26551 0.48193 0.67549 0.0
H1201 H 0.2208 0.45617 0.69553 0.0
H1202 H 0.28726 0.47912 0.62895 0.0
H1203 H 0.32135 0.46984 0.7152 0.0
H1204 H 0.32855 0.44615 0.75589 0.0
H1205 H 0.37139 0.39575 0.71203 0.0
H1206 H 0.36412 0.41889 0.671 0.0
H1207 H 0.42448 0.55982 0.58705 0.0
H1208 H 0.3812 0.54035 0.61225 0.0
H1209 H 0.39662 0.46022 0.60585 0.0
H1210 H 0.43985 0.47947 0.58075 0.0
H1211 H 0.38206 0.46997 0.65565 0.0
H1212 H 0.34517 0.47837 0.56908 0.0
H1213 H 0.33833 0.50302 0.52888 0.0
H1214 H 0.30146 0.55686 0.57466 0.0
H1215 H 0.30843 0.53274 0.6152 0.0
C1216 C 0.25331 0.40433 0.68886 0.0
C1217 C 0.23176 0.4172 0.69553 0.0
C1218 C 0.27858 0.41891 0.67698 0.0
C1219 C 0.28355 0.44708 0.67181 0.0
C1220 C 0.26243 0.46026 0.67917 0.0
C1221 C 0.23693 0.44555 0.69097 0.0
C1222 C 0.31018 0.46218 0.65778 0.0
C1223 C 0.308 0.4775 0.63517 0.0
C1224 C 0.33748 0.45989 0.66533 0.0
C1225 C 0.34199 0.44597 0.68998 0.0
C1226 C 0.33214 0.45358 0.7142 0.0
C1227 C 0.33625 0.44027 0.73733 0.0
C1228 C 0.35036 0.41942 0.73654 0.0
C1229 C 0.36044 0.41189 0.71261 0.0
C1230 C 0.35636 0.42512 0.68941 0.0
C1231 C 0.41862 0.53801 0.59083 0.0
C1232 C 0.43581 0.52128 0.58165 0.0
C1233 C 0.39373 0.52685 0.60525 0.0
C1234 C 0.38533 0.49867 0.61096 0.0
C1235 C 0.40248 0.48199 0.60183 0.0
C1236 C 0.42724 0.49307 0.58729 0.0
C1237 C 0.35903 0.48652 0.62672 0.0
C1238 C 0.3613 0.47175 0.64962 0.0
C1239 C 0.3319 0.48951 0.61956 0.0
C1240 C 0.3276 0.50394 0.5952 0.0
C1241 C 0.33581 0.4956 0.5706 0.0
C1242 C 0.33187 0.50945 0.54775 0.0
C1243 C 0.31955 0.53154 0.54922 0.0
C1244 C 0.31105 0.53978 0.57355 0.0
C1245 C 0.31497 0.52601 0.59647 0.0
H1246 H 0.31652 0.54224 0.53151 0.0
H1247 H 0.35353 0.40914 0.75447 0.0
H1248 H 0.77094 0.7461 0.8499 0.0
H1249 H 0.8027 0.72106 0.86935 0.0
H1250 H 0.78959 0.75297 0.94596 0.0
H1251 H 0.75794 0.77818 0.92659 0.0
H1252 H 0.84617 0.76103 0.93302 0.0
H1253 H 0.76204 0.68738 0.93351 0.0
H1254 H 0.71944 0.65596 0.91458 0.0
H1255 H 0.77125 0.62516 0.85994 0.0
H1256 H 0.81417 0.65671 0.87829 0.0
H1257 H 0.92237 0.68426 1.00515 0.0
H1258 H 0.88332 0.7019 0.98891 0.0
H1259 H 0.8935 0.67023 0.91148 0.0
H1260 H 0.93241 0.65224 0.92771 0.0
H1261 H 0.83713 0.66109 0.92603 0.0
H1262 H 0.92043 0.73571 0.92309 0.0
H1263 H 0.96359 0.76749 0.94065 0.0
H1264 H 0.91379 0.79696 0.99824 0.0
H1265 H 0.87035 0.76502 0.98125 0.0
C1266 C 0.7746 0.74749 0.87093 0.0
C1267 C 0.76203 0.76406 0.88676 0.0
C1268 C 0.7926 0.73309 0.88202 0.0
C1269 C 0.79839 0.73513 0.90909 0.0
C1270 C 0.7853 0.75111 0.92504 0.0
C1271 C 0.7671 0.76532 0.914 0.0
C1272 C 0.81963 0.72213 0.92039 0.0
C1273 C 0.84395 0.73912 0.93194 0.0
C1274 C 0.81707 0.69366 0.91819 0.0
C1275 C 0.79131 0.67462 0.90712 0.0
C1276 C 0.76434 0.67409 0.9173 0.0
C1277 C 0.74014 0.65622 0.9067 0.0
C1278 C 0.74263 0.63862 0.88602 0.0
C1279 C 0.76935 0.63883 0.87594 0.0
C1280 C 0.79363 0.65668 0.88645 0.0
C1281 C 0.91609 0.68084 0.98473 0.0
C1282 C 0.93053 0.66709 0.96762 0.0
C1283 C 0.8939 0.69101 0.97546 0.0
C1284 C 0.88576 0.68759 0.94895 0.0
C1285 C 0.89955 0.67314 0.93199 0.0
C1286 C 0.92188 0.6631 0.94121 0.0
C1287 C 0.86355 0.70001 0.93873 0.0
C1288 C 0.83918 0.68296 0.92729 0.0
C1289 C 0.8661 0.72848 0.94084 0.0
C1290 C 0.89218 0.74775 0.95109 0.0
C1291 C 0.91871 0.74879 0.93965 0.0
C1292 C 0.94322 0.76686 0.94947 0.0
C1293 C 0.94145 0.78418 0.9706 0.0
C1294 C 0.91514 0.7835 0.9819 0.0
C1295 C 0.89056 0.76542 0.97218 0.0
H1296 H 0.96045 0.79817 0.97817 0.0
H1297 H 0.72386 0.62479 0.87785 0.0
H1298 H 0.34885 0.78265 0.17156 0.0
H1299 H 0.37084 0.825 0.14848 0.0
H1300 H 0.45348 0.81726 0.17071 0.0
H1301 H 0.43192 0.77399 0.19265 0.0
H1302 H 0.44464 0.87151 0.17907 0.0
H1303 H 0.43436 0.80321 0.11038 0.0
H1304 H 0.40758 0.76461 0.08329 0.0
H1305 H 0.35267 0.81333 0.057 0.0
H1306 H 0.37888 0.85211 0.08425 0.0
H1307 H 0.52644 0.97929 0.10107 0.0
H1308 H 0.506 0.93564 0.12278 0.0
H1309 H 0.42791 0.92793 0.08027 0.0
H1310 H 0.44906 0.9708 0.05731 0.0
H1311 H 0.43413 0.88074 0.08279 0.0
H1312 H 0.44029 0.94791 0.15051 0.0
H1313 H 0.46296 0.98711 0.17891 0.0
H1314 H 0.51998 0.94235 0.20886 0.0
H1315 H 0.49786 0.903 0.18038 0.0
C1316 C 0.37174 0.78944 0.17126 0.0
C1317 C 0.38835 0.77424 0.18411 0.0
C1318 C 0.38432 0.814 0.15813 0.0
C1319 C 0.41391 0.82449 0.15769 0.0
C1320 C 0.43061 0.80978 0.17079 0.0
C1321 C 0.41809 0.78494 0.18356 0.0
C1322 C 0.42733 0.85068 0.14352 0.0
C1323 C 0.44268 0.87344 0.15796 0.0
C1324 C 0.42404 0.85369 0.11609 0.0
C1325 C 0.40841 0.83047 0.09955 0.0
C1326 C 0.41643 0.80562 0.09899 0.0
C1327 C 0.40138 0.78372 0.08358 0.0
C1328 C 0.37839 0.78649 0.06849 0.0
C1329 C 0.37046 0.8112 0.06873 0.0
C1330 C 0.38542 0.83315 0.08413 0.0
C1331 C 0.5049 0.9683 0.09632 0.0
C1332 C 0.48941 0.97878 0.07748 0.0
C1333 C 0.49303 0.94329 0.10899 0.0
C1334 C 0.4649 0.92836 0.10394 0.0
C1335 C 0.44956 0.93873 0.08482 0.0
C1336 C 0.46168 0.96342 0.07166 0.0
C1337 C 0.45161 0.90198 0.11829 0.0
C1338 C 0.4362 0.87907 0.10391 0.0
C1339 C 0.45429 0.89904 0.14593 0.0
C1340 C 0.4676 0.92262 0.16311 0.0
C1341 C 0.45778 0.9465 0.16302 0.0
C1342 C 0.47052 0.96873 0.17915 0.0
C1343 C 0.49295 0.96725 0.19562 0.0
C1344 C 0.50263 0.94349 0.19606 0.0
C1345 C 0.48999 0.9212 0.17995 0.0
H1346 H 0.50278 0.98448 0.20809 0.0
H1347 H 0.36677 0.76951 0.05657 0.0
H1348 H 0.17326 0.34515 0.64564 0.0
H1349 H 0.15451 0.30205 0.62277 0.0
H1350 H 0.10495 0.26971 0.69113 0.0
H1351 H 0.12588 0.31183 0.71518 0.0
H1352 H 0.1214 0.23089 0.67254 0.0
H1353 H 0.0774 0.29348 0.6305 0.0
H1354 H 0.07444 0.33553 0.60751 0.0
H1355 H 0.12326 0.3158 0.54332 0.0
H1356 H 0.12682 0.27379 0.5661 0.0
H1357 H 0.02284 0.12401 0.60106 0.0
H1358 H 0.04378 0.16714 0.62419 0.0
H1359 H 0.1142 0.18385 0.57015 0.0
H1360 H 0.09374 0.14031 0.54726 0.0
H1361 H 0.0867 0.22976 0.58082 0.0
H1362 H 0.12781 0.16485 0.62566 0.0
H1363 H 0.12553 0.12193 0.64947 0.0
H1364 H 0.07483 0.14591 0.70983 0.0
H1365 H 0.07646 0.18881 0.68615 0.0
C1366 C 0.15883 0.32885 0.65622 0.0
C1367 C 0.15137 0.33252 0.68261 0.0
C1368 C 0.14753 0.30412 0.64274 0.0
C1369 C 0.12758 0.28242 0.65476 0.0
C1370 C 0.12011 0.28594 0.68109 0.0
C1371 C 0.13191 0.31045 0.69482 0.0
C1372 C 0.11491 0.25603 0.64015 0.0
C1373 C 0.11351 0.23087 0.65261 0.0
C1374 C 0.10471 0.2554 0.6139 0.0
C1375 C 0.10262 0.28064 0.60014 0.0
C1376 C 0.08768 0.29821 0.61157 0.0
C1377 C 0.08587 0.32202 0.59856 0.0
C1378 C 0.09873 0.32837 0.574 0.0
C1379 C 0.11336 0.31088 0.56237 0.0
C1380 C 0.11526 0.28705 0.5753 0.0
C1381 C 0.0428 0.13682 0.59405 0.0
C1382 C 0.0566 0.12856 0.57227 0.0
C1383 C 0.05478 0.16149 0.60736 0.0
C1384 C 0.08062 0.17882 0.59898 0.0
C1385 C 0.09426 0.17088 0.57701 0.0
C1386 C 0.08258 0.14589 0.564 0.0
C1387 C 0.09336 0.20509 0.61328 0.0
C1388 C 0.09468 0.23008 0.60074 0.0
C1389 C 0.10279 0.20557 0.63964 0.0
C1390 C 0.10202 0.17991 0.65399 0.0
C1391 C 0.11597 0.16086 0.64389 0.0
C1392 C 0.11483 0.13656 0.65739 0.0
C1393 C 0.09998 0.13116 0.68111 0.0
C1394 C 0.0863 0.1501 0.69143 0.0
C1395 C 0.08734 0.17442 0.67799 0.0
H1396 H 0.09912 0.11234 0.69154 0.0
H1397 H 0.0973 0.34681 0.56396 0.0
H1398 H 0.80108 0.38914 0.37554 0.0
H1399 H 0.75957 0.40633 0.38649 0.0
H1400 H 0.73598 0.34499 0.44699 0.0
H1401 H 0.77717 0.32765 0.43569 0.0
H1402 H 0.69051 0.34892 0.41977 0.0
H1403 H 0.76901 0.41126 0.46225 0.0
H1404 H 0.81618 0.44376 0.46474 0.0
H1405 H 0.78963 0.49709 0.41043 0.0
H1406 H 0.74238 0.4647 0.40734 0.0
H1407 H 0.59953 0.40662 0.4983 0.0
H1408 H 0.63933 0.38962 0.48234 0.0
H1409 H 0.65282 0.44803 0.419 0.0
H1410 H 0.6131 0.46522 0.43496 0.0
H1411 H 0.70269 0.44628 0.44522 0.0
H1412 H 0.62273 0.38403 0.40509 0.0
H1413 H 0.57552 0.35148 0.4043 0.0
H1414 H 0.60496 0.2978 0.45611 0.0
H1415 H 0.65227 0.33025 0.45753 0.0
C1416 C 0.78688 0.3794 0.39109 0.0
C1417 C 0.79205 0.3573 0.40495 0.0
C1418 C 0.76331 0.38922 0.39739 0.0
C1419 C 0.74485 0.37712 0.41777 0.0
C1420 C 0.74992 0.35463 0.43122 0.0
C1421 C 0.77341 0.34482 0.42487 0.0
C1422 C 0.72046 0.38805 0.4254 0.0
C1423 C 0.69322 0.37015 0.42557 0.0
C1424 C 0.72391 0.41588 0.43248 0.0
C1425 C 0.75227 0.43541 0.43433 0.0
C1426 C 0.7733 0.42981 0.45067 0.0
C1427 C 0.80004 0.44823 0.45222 0.0
C1428 C 0.80593 0.47244 0.43768 0.0
C1429 C 0.78505 0.47831 0.42163 0.0
C1430 C 0.75829 0.45993 0.41999 0.0
C1431 C 0.61105 0.41587 0.48102 0.0
C1432 C 0.6032 0.43717 0.46781 0.0
C1433 C 0.63363 0.40605 0.47184 0.0
C1434 C 0.64884 0.41745 0.44938 0.0
C1435 C 0.64127 0.43892 0.43632 0.0
C1436 C 0.6185 0.44857 0.44534 0.0
C1437 C 0.67286 0.4071 0.43975 0.0
C1438 C 0.7 0.42511 0.43923 0.0
C1439 C 0.66935 0.37934 0.43254 0.0
C1440 C 0.64097 0.3597 0.4316 0.0
C1441 C 0.61908 0.36539 0.41649 0.0
C1442 C 0.59231 0.34694 0.4159 0.0
C1443 C 0.58722 0.32262 0.4302 0.0
C1444 C 0.60892 0.31666 0.44506 0.0
C1445 C 0.63573 0.33507 0.44575 0.0
H1446 H 0.56648 0.30836 0.42971 0.0
H1447 H 0.82664 0.48668 0.43891 0.0
loop_
_geom_bond_atom_site_label_1
_geom_bond_atom_site_label_2
_geom_bond_distance
_geom_bond_site_symmetry_2
_ccdc_geom_bond_type
H0 C3 0.929 . S
H1 C6 0.929 . S
H2 C8 0.930 . S
C3 H0 0.929 . S
C3 C4 1.398 . S
C3 C5 1.396 . S
C4 C3 1.398 . S
C4 C8 1.407 . S
C5 C3 1.396 . S
C5 C6 1.394 . S
C6 H1 0.929 . S
C6 C5 1.394 . S
C6 C7 1.382 . S
C7 C6 1.382 . S
C7 C8 1.392 . S
C7 N9 1.420 . S
C8 H2 0.930 . S
C8 C4 1.407 . S
C8 C7 1.392 . S
N9 C7 1.420 . S
N9 C10 1.244 . S
C10 N9 1.244 . S
H11 C14 0.929 . S
H12 C17 0.929 . S
H13 C19 0.930 . S
C14 H11 0.929 . S
C14 C15 1.398 . S
C14 C16 1.396 . S
C15 C14 1.398 . S
C15 C19 1.407 . S
C16 C14 1.396 . S
C16 C17 1.394 . S
C17 H12 0.929 . S
C17 C16 1.394 . S
C17 C18 1.382 . S
C18 C17 1.382 . S
C18 C19 1.392 . S
C18 N20 1.420 . S
C19 H13 0.930 . S
C19 C15 1.407 . S
C19 C18 1.392 . S
N20 C18 1.420 . S
N20 C21 1.244 . S
C21 N20 1.244 . S
H22 C25 0.929 . S
H23 C28 0.929 . S
H24 C30 0.930 . S
C25 H22 0.929 . S
C25 C26 1.398 . S
C25 C27 1.396 . S
C26 C25 1.398 . S
C26 C30 1.407 . S
C27 C25 1.396 . S
C27 C28 1.394 . S
C28 H23 0.929 . S
C28 C27 1.394 . S
C28 C29 1.382 . S
C29 C28 1.382 . S
C29 C30 1.392 . S
C29 N31 1.420 . S
C30 H24 0.930 . S
C30 C26 1.407 . S
C30 C29 1.392 . S
N31 C29 1.420 . S
N31 C32 1.244 . S
C32 N31 1.244 . S
H33 C36 0.929 . S
H34 C39 0.929 . S
H35 C41 0.930 . S
C36 H33 0.929 . S
C36 C37 1.398 . S
C36 C38 1.396 . S
C37 C36 1.398 . S
C37 C41 1.407 . S
C38 C36 1.396 . S
C38 C39 1.394 . S
C39 H34 0.929 . S
C39 C38 1.394 . S
C39 C40 1.382 . S
C40 C39 1.382 . S
C40 C41 1.392 . S
C40 N42 1.420 . S
C41 H35 0.930 . S
C41 C37 1.407 . S
C41 C40 1.392 . S
N42 C40 1.420 . S
N42 C43 1.244 . S
C43 N42 1.244 . S
H44 C47 0.929 . S
H45 C50 0.929 . S
H46 C52 0.930 . S
C47 H44 0.929 . S
C47 C48 1.398 . S
C47 C49 1.396 . S
C48 C47 1.398 . S
C48 C52 1.407 . S
C49 C47 1.396 . S
C49 C50 1.394 . S
C50 H45 0.929 . S
C50 C49 1.394 . S
C50 C51 1.382 . S
C51 C50 1.382 . S
C51 C52 1.392 . S
C51 N53 1.420 . S
C52 H46 0.930 . S
C52 C48 1.407 . S
C52 C51 1.392 . S
N53 C51 1.420 . S
N53 C54 1.244 . S
C54 N53 1.244 . S
H55 C58 0.929 . S
H56 C61 0.929 . S
H57 C63 0.930 . S
C58 H55 0.929 . S
C58 C59 1.398 . S
C58 C60 1.396 . S
C59 C58 1.398 . S
C59 C63 1.407 . S
C60 C58 1.396 . S
C60 C61 1.394 . S
C61 H56 0.929 . S
C61 C60 1.394 . S
C61 C62 1.382 . S
C62 C61 1.382 . S
C62 C63 1.392 . S
C62 N64 1.420 . S
C63 H57 0.930 . S
C63 C59 1.407 . S
C63 C62 1.392 . S
N64 C62 1.420 . S
N64 C65 1.244 . S
C65 N64 1.244 . S
H66 C69 0.929 . S
H67 C72 0.929 . S
H68 C74 0.930 . S
C69 H66 0.929 . S
C69 C70 1.398 . S
C69 C71 1.396 . S
C70 C69 1.398 . S
C70 C74 1.407 . S
C71 C69 1.396 . S
C71 C72 1.394 . S
C72 H67 0.929 . S
C72 C71 1.394 . S
C72 C73 1.382 . S
C73 C72 1.382 . S
C73 C74 1.392 . S
C73 N75 1.420 . S
C74 H68 0.930 . S
C74 C70 1.407 . S
C74 C73 1.392 . S
N75 C73 1.420 . S
N75 C76 1.244 . S
C76 N75 1.244 . S
H77 C80 0.929 . S
H78 C83 0.929 . S
H79 C85 0.930 . S
C80 H77 0.929 . S
C80 C81 1.398 . S
C80 C82 1.396 . S
C81 C80 1.398 . S
C81 C85 1.407 . S
C82 C80 1.396 . S
C82 C83 1.394 . S
C83 H78 0.929 . S
C83 C82 1.394 . S
C83 C84 1.382 . S
C84 C83 1.382 . S
C84 C85 1.392 . S
C84 N86 1.420 . S
C85 H79 0.930 . S
C85 C81 1.407 . S
C85 C84 1.392 . S
N86 C84 1.420 . S
N86 C87 1.244 . S
C87 N86 1.244 . S
Tb88 C97 2.764 . S
Tb88 O98 2.325 . S
Tb88 O101 2.303 . S
Tb88 O105 2.322 . S
Tb88 O106 2.349 1_545 S
Tb88 O109 2.415 . S
Tb88 O110 2.399 . S
Tb89 O99 2.322 . S
Tb89 O100 2.349 1_655 S
Tb89 O102 2.415 1_545 S
Tb89 O103 2.399 . S
Tb89 O104 2.325 1_655 S
Tb89 O107 2.327 . S
Tb89 C118 2.764 1_545 S
C90 O106 1.261 1_655 S
C90 O107 1.231 1_565 S
C91 C94 1.358 . S
C91 C95 1.332 . S
C91 C97 1.504 . S
C92 C93 1.373 . S
C92 C96 1.308 . S
C93 C92 1.373 . S
C93 C94 1.429 . S
C93 H120 0.932 . S
C94 C91 1.358 . S
C94 C93 1.429 . S
C94 H121 0.930 . S
C95 C91 1.332 . S
C95 C96 1.394 . S
C95 H122 0.932 . S
C96 C92 1.308 . S
C96 C95 1.394 . S
C96 H123 0.929 . S
C97 Tb88 2.764 . S
C97 C91 1.504 . S
C97 O109 1.239 . S
C97 O110 1.263 . S
O98 Tb88 2.325 . S
O98 C108 1.236 1_455 S
O99 Tb89 2.322 . S
O99 C108 1.257 . S
O100 Tb89 2.349 1_455 S
O100 C111 1.261 . S
O101 Tb88 2.303 . S
O101 C111 1.257 . S
O102 Tb89 2.415 1_565 S
O102 C118 1.239 . S
O103 Tb89 2.399 . S
O103 C118 1.263 1_545 S
O104 Tb89 2.325 1_455 S
O104 C119 1.236 1_545 S
O105 Tb88 2.322 . S
O105 C119 1.257 1_545 S
O106 Tb88 2.349 1_565 S
O106 C90 1.261 1_455 S
O107 Tb89 2.327 . S
O107 C90 1.231 1_545 S
C108 O98 1.236 1_655 S
C108 O99 1.257 . S
O109 Tb88 2.415 . S
O109 C97 1.239 . S
O110 Tb88 2.399 . S
O110 C97 1.263 . S
C111 O100 1.261 . S
C111 O101 1.257 . S
C112 C115 1.358 . S
C112 C116 1.332 . S
C112 C118 1.504 . S
C113 C114 1.373 . S
C113 C117 1.308 . S
C114 C113 1.373 . S
C114 C115 1.429 . S
C114 H124 0.932 . S
C115 C112 1.358 . S
C115 C114 1.429 . S
C115 H125 0.930 1_565 S
C116 C112 1.332 . S
C116 C117 1.394 . S
C116 H126 0.932 . S
C117 C113 1.308 . S
C117 C116 1.394 . S
C117 H127 0.929 . S
C118 Tb89 2.764 1_565 S
C118 O102 1.239 . S
C118 O103 1.263 1_565 S
C118 C112 1.504 . S
C119 O104 1.236 1_565 S
C119 O105 1.257 1_565 S
H120 C93 0.932 . S
H121 C94 0.930 . S
H122 C95 0.932 . S
H123 C96 0.929 . S
H124 C114 0.932 . S
H125 C115 0.930 1_545 S
H126 C116 0.932 . S
H127 C117 0.929 . S
Tb128 C137 2.764 . S
Tb128 O138 2.325 . S
Tb128 O141 2.303 . S
Tb128 O145 2.322 1_545 S
Tb128 O146 2.349 . S
Tb128 O149 2.415 . S
Tb128 O150 2.399 . S
Tb129 O139 2.322 . S
Tb129 O140 2.349 . S
Tb129 O142 2.415 1_544 S
Tb129 O143 2.409 . S
Tb129 O144 2.325 1_545 S
Tb129 O147 2.303 . S
Tb129 C158 2.764 1_544 S
C130 O146 1.261 . S
C130 O147 1.257 . S
C131 C134 1.358 . S
C131 C135 1.332 . S
C131 C137 1.504 . S
C132 C133 1.373 . S
C132 C136 1.308 . S
C133 C132 1.373 . S
C133 C134 1.429 . S
C133 H160 0.932 . S
C134 C131 1.358 . S
C134 C133 1.429 . S
C134 H161 0.930 . S
C135 C131 1.332 . S
C135 C136 1.394 . S
C135 H162 0.932 . S
C136 C132 1.308 . S
C136 C135 1.394 . S
C136 H163 0.929 . S
C137 Tb128 2.764 . S
C137 C131 1.504 . S
C137 O149 1.239 . S
C137 O150 1.263 . S
O138 Tb128 2.325 . S
O138 C148 1.236 . S
O139 Tb129 2.322 . S
O139 C148 1.257 . S
O140 Tb129 2.349 . S
O140 C151 1.261 . S
O141 Tb128 2.303 . S
O141 C151 1.257 . S
O142 Tb129 2.415 1_566 S
O142 C158 1.239 . S
O143 Tb129 2.409 . S
O143 C158 1.249 1_544 S
O144 Tb129 2.325 1_565 S
O144 C159 1.236 . S
O145 Tb128 2.322 1_565 S
O145 C159 1.257 . S
O146 Tb128 2.349 . S
O146 C130 1.261 . S
O147 Tb129 2.303 . S
O147 C130 1.257 . S
C148 O138 1.236 . S
C148 O139 1.257 . S
O149 Tb128 2.415 . S
O149 C137 1.239 . S
O150 Tb128 2.399 . S
O150 C137 1.263 . S
C151 O140 1.261 . S
C151 O141 1.257 . S
C152 C155 1.358 . S
C152 C156 1.332 . S
C152 C158 1.504 . S
C153 C154 1.373 . S
C153 C157 1.308 . S
C154 C153 1.373 . S
C154 C155 1.429 . S
C154 H164 0.932 . S
C155 C152 1.358 . S
C155 C154 1.429 . S
C155 H165 0.930 . S
C156 C152 1.332 . S
C156 C157 1.394 . S
C156 H166 0.932 . S
C157 C153 1.308 . S
C157 C156 1.394 . S
C157 H167 0.929 . S
C158 Tb129 2.764 1_566 S
C158 O142 1.239 . S
C158 O143 1.249 1_566 S
C158 C152 1.504 . S
C159 O144 1.236 . S
C159 O145 1.257 . S
H160 C133 0.932 . S
H161 C134 0.930 . S
H162 C135 0.932 . S
H163 C136 0.929 . S
H164 C154 0.932 . S
H165 C155 0.930 . S
H166 C156 0.932 . S
H167 C157 0.929 . S
Tb168 C177 2.764 . S
Tb168 O178 2.325 . S
Tb168 O181 2.303 . S
Tb168 O185 2.322 . S
Tb168 O186 2.349 . S
Tb168 O189 2.415 . S
Tb168 O190 2.399 . S
Tb169 O179 2.322 . S
Tb169 O180 2.349 . S
Tb169 O182 2.415 . S
Tb169 O183 2.399 . S
Tb169 O184 2.325 . S
Tb169 O187 2.303 . S
Tb169 C198 2.764 . S
C170 O186 1.261 . S
C170 O187 1.257 . S
C171 C174 1.358 . S
C171 C175 1.332 . S
C171 C177 1.504 . S
C172 C173 1.373 . S
C172 C176 1.308 . S
C173 C172 1.373 . S
C173 C174 1.429 . S
C173 H200 0.932 . S
C174 C171 1.358 . S
C174 C173 1.429 . S
C174 H201 0.930 . S
C175 C171 1.332 . S
C175 C176 1.394 . S
C175 H202 0.932 . S
C176 C172 1.308 . S
C176 C175 1.394 . S
C176 H203 0.929 . S
C177 Tb168 2.764 . S
C177 C171 1.504 . S
C177 O189 1.239 . S
C177 O190 1.263 . S
O178 Tb168 2.325 . S
O178 C188 1.236 . S
O179 Tb169 2.322 . S
O179 C188 1.257 . S
O180 Tb169 2.349 . S
O180 C191 1.261 . S
O181 Tb168 2.303 . S
O181 C191 1.257 . S
O182 Tb169 2.415 . S
O182 C198 1.239 . S
O183 Tb169 2.399 . S
O183 C198 1.263 . S
O184 Tb169 2.325 . S
O184 C199 1.236 . S
O185 Tb168 2.322 . S
O185 C199 1.257 . S
O186 Tb168 2.349 . S
O186 C170 1.261 . S
O187 Tb169 2.303 . S
O187 C170 1.257 . S
C188 O178 1.236 . S
C188 O179 1.257 . S
O189 Tb168 2.415 . S
O189 C177 1.239 . S
O190 Tb168 2.399 . S
O190 C177 1.263 . S
C191 O180 1.261 . S
C191 O181 1.257 . S
C192 C195 1.358 . S
C192 C196 1.332 . S
C192 C198 1.504 . S
C193 C194 1.373 . S
C193 C197 1.308 . S
C194 C193 1.373 . S
C194 C195 1.429 . S
C194 H204 0.932 . S
C195 C192 1.358 . S
C195 C194 1.429 . S
C195 H205 0.930 . S
C196 C192 1.332 . S
C196 C197 1.394 . S
C196 H206 0.932 . S
C197 C193 1.308 . S
C197 C196 1.394 . S
C197 H207 0.929 . S
C198 Tb169 2.764 . S
C198 O182 1.239 . S
C198 O183 1.263 . S
C198 C192 1.504 . S
C199 O184 1.236 . S
C199 O185 1.257 . S
H200 C173 0.932 . S
H201 C174 0.930 . S
H202 C175 0.932 . S
H203 C176 0.929 . S
H204 C194 0.932 . S
H205 C195 0.930 . S
H206 C196 0.932 . S
H207 C197 0.929 . S
Tb208 C217 2.764 1_455 S
Tb208 O218 2.325 1_455 S
Tb208 O221 2.303 1_556 S
Tb208 O225 2.322 1_556 S
Tb208 O226 2.349 . S
Tb208 O229 2.415 1_455 S
Tb208 O230 2.399 . S
Tb209 O219 2.322 1_455 S
Tb209 O220 2.349 . S
Tb209 O222 2.415 . S
Tb209 O223 2.399 . S
Tb209 O224 2.325 . S
Tb209 O227 2.303 1_554 S
Tb209 C238 2.764 . S
C210 O226 1.261 . S
C210 O227 1.257 . S
C211 C214 1.358 . S
C211 C215 1.332 . S
C211 C217 1.504 . S
C212 C213 1.373 . S
C212 C216 1.308 . S
C213 C212 1.373 . S
C213 C214 1.429 . S
C213 H240 0.932 . S
C214 C211 1.358 . S
C214 C213 1.429 . S
C214 H241 0.930 . S
C215 C211 1.332 . S
C215 C216 1.394 . S
C215 H242 0.932 . S
C216 C212 1.308 . S
C216 C215 1.394 . S
C216 H243 0.929 . S
C217 Tb208 2.764 1_655 S
C217 C211 1.504 . S
C217 O229 1.239 . S
C217 O230 1.263 1_655 S
O218 Tb208 2.325 1_655 S
O218 C228 1.236 . S
O219 Tb209 2.322 1_655 S
O219 C228 1.257 1_554 S
O220 Tb209 2.349 . S
O220 C231 1.261 . S
O221 Tb208 2.303 1_554 S
O221 C231 1.257 . S
O222 Tb209 2.415 . S
O222 C238 1.239 . S
O223 Tb209 2.399 . S
O223 C238 1.263 . S
O224 Tb209 2.325 . S
O224 C239 1.236 . S
O225 Tb208 2.322 1_554 S
O225 C239 1.257 . S
O226 Tb208 2.349 . S
O226 C210 1.261 . S
O227 Tb209 2.303 1_556 S
O227 C210 1.257 . S
C228 O218 1.236 . S
C228 O219 1.257 1_556 S
O229 Tb208 2.415 1_655 S
O229 C217 1.239 . S
O230 Tb208 2.399 . S
O230 C217 1.263 1_455 S
C231 O220 1.261 . S
C231 O221 1.257 . S
C232 C235 1.358 . S
C232 C236 1.332 . S
C232 C238 1.504 . S
C233 C234 1.373 . S
C233 C237 1.308 . S
C234 C233 1.373 . S
C234 C235 1.429 . S
C234 H244 0.932 . S
C235 C232 1.358 . S
C235 C234 1.429 . S
C235 H245 0.930 . S
C236 C232 1.332 . S
C236 C237 1.394 . S
C236 H246 0.932 . S
C237 C233 1.308 . S
C237 C236 1.394 . S
C237 H247 0.929 . S
C238 Tb209 2.764 . S
C238 O222 1.239 . S
C238 O223 1.263 . S
C238 C232 1.504 . S
C239 O224 1.236 . S
C239 O225 1.257 . S
H240 C213 0.932 . S
H241 C214 0.930 . S
H242 C215 0.932 . S
H243 C216 0.929 . S
H244 C234 0.932 . S
H245 C235 0.930 . S
H246 C236 0.932 . S
H247 C237 0.929 . S
H248 C266 0.951 . S
H249 C268 0.951 . S
H250 C270 0.950 . S
H251 C271 0.950 . S
H252 C273 0.950 . S
H253 C276 0.950 . S
H254 C277 0.950 . S
H255 C279 0.950 . S
H256 C280 0.950 . S
H257 C281 0.951 . S
H258 C283 0.951 . S
H259 C285 0.950 . S
H260 C286 0.950 . S
H261 C288 0.950 . S
H262 C291 0.950 . S
H263 C292 0.950 . S
H264 C294 0.950 . S
H265 C295 0.950 . S
C266 H248 0.951 . S
C266 C267 1.366 . S
C266 C268 1.388 . S
C267 C266 1.366 . S
C267 C271 1.385 . S
C268 H249 0.951 . S
C268 C266 1.388 . S
C268 C269 1.366 . S
C269 C268 1.366 . S
C269 C270 1.414 . S
C269 C272 1.499 . S
C270 H250 0.950 . S
C270 C269 1.414 . S
C270 C271 1.374 . S
C271 H251 0.950 . S
C271 C267 1.385 . S
C271 C270 1.374 . S
C272 C269 1.499 . S
C272 C273 1.373 . S
C272 C274 1.389 . S
C273 H252 0.950 . S
C273 C272 1.373 . S
C273 C289 1.377 . S
C274 C272 1.389 . S
C274 C275 1.524 . S
C274 C288 1.377 . S
C275 C274 1.524 . S
C275 C276 1.397 . S
C275 C280 1.363 . S
C276 H253 0.950 . S
C276 C275 1.397 . S
C276 C277 1.334 . S
C277 H254 0.950 . S
C277 C276 1.334 . S
C277 C278 1.287 . S
C278 C277 1.287 . S
C278 C279 1.524 . S
C278 H297 0.913 . S
C279 H255 0.950 . S
C279 C278 1.524 . S
C279 C280 1.415 . S
C280 H256 0.950 . S
C280 C275 1.363 . S
C280 C279 1.415 . S
C281 H257 0.951 . S
C281 C282 1.366 . S
C281 C283 1.388 . S
C282 C281 1.366 . S
C282 C286 1.385 . S
C283 H258 0.951 . S
C283 C281 1.388 . S
C283 C284 1.366 . S
C284 C283 1.366 . S
C284 C285 1.414 . S
C284 C287 1.499 . S
C285 H259 0.950 . S
C285 C284 1.414 . S
C285 C286 1.374 . S
C286 H260 0.950 . S
C286 C282 1.385 . S
C286 C285 1.374 . S
C287 C284 1.499 . S
C287 C288 1.373 . S
C287 C289 1.389 . S
C288 H261 0.950 . S
C288 C274 1.377 . S
C288 C287 1.373 . S
C289 C273 1.377 . S
C289 C287 1.389 . S
C289 C290 1.524 . S
C290 C289 1.524 . S
C290 C291 1.397 . S
C290 C295 1.363 . S
C291 H262 0.950 . S
C291 C290 1.397 . S
C291 C292 1.334 . S
C292 H263 0.950 . S
C292 C291 1.334 . S
C292 C293 1.287 . S
C293 C292 1.287 . S
C293 C294 1.524 . S
C293 H296 0.999 . S
C294 H264 0.950 . S
C294 C293 1.524 . S
C294 C295 1.415 . S
C295 H265 0.950 . S
C295 C290 1.363 . S
C295 C294 1.415 . S
H296 C293 0.999 . S
H297 C278 0.913 . S
H298 C316 0.951 . S
H299 C318 0.951 . S
H300 C320 0.950 . S
H301 C321 0.950 . S
H302 C323 0.950 . S
H303 C326 0.950 . S
H304 C327 0.950 . S
H305 C329 0.950 . S
H306 C330 0.950 . S
H307 C331 0.951 . S
H308 C333 0.951 . S
H309 C335 0.950 . S
H310 C336 0.950 . S
H311 C338 0.950 . S
H312 C341 0.950 . S
H313 C342 0.950 . S
H314 C344 0.950 . S
H315 C345 0.950 . S
C316 H298 0.951 . S
C316 C317 1.366 . S
C316 C318 1.388 . S
C317 C316 1.366 . S
C317 C321 1.385 . S
C318 H299 0.951 . S
C318 C316 1.388 . S
C318 C319 1.366 . S
C319 C318 1.366 . S
C319 C320 1.414 . S
C319 C322 1.499 . S
C320 H300 0.950 . S
C320 C319 1.414 . S
C320 C321 1.374 . S
C321 H301 0.950 . S
C321 C317 1.385 . S
C321 C320 1.374 . S
C322 C319 1.499 . S
C322 C323 1.373 . S
C322 C324 1.389 . S
C323 H302 0.950 . S
C323 C322 1.373 . S
C323 C339 1.377 . S
C324 C322 1.389 . S
C324 C325 1.524 . S
C324 C338 1.377 . S
C325 C324 1.524 . S
C325 C326 1.397 . S
C325 C330 1.363 . S
C326 H303 0.950 . S
C326 C325 1.397 . S
C326 C327 1.334 . S
C327 H304 0.950 . S
C327 C326 1.334 . S
C327 C328 1.287 . S
C328 C327 1.287 . S
C328 C329 1.524 . S
C328 H347 0.913 . S
C329 H305 0.950 . S
C329 C328 1.524 . S
C329 C330 1.415 . S
C330 H306 0.950 . S
C330 C325 1.363 . S
C330 C329 1.415 . S
C331 H307 0.951 . S
C331 C332 1.366 . S
C331 C333 1.388 . S
C332 C331 1.366 . S
C332 C336 1.385 . S
C333 H308 0.951 . S
C333 C331 1.388 . S
C333 C334 1.366 . S
C334 C333 1.366 . S
C334 C335 1.414 . S
C334 C337 1.499 . S
C335 H309 0.950 . S
C335 C334 1.414 . S
C335 C336 1.374 . S
C336 H310 0.950 . S
C336 C332 1.385 . S
C336 C335 1.374 . S
C337 C334 1.499 . S
C337 C338 1.373 . S
C337 C339 1.389 . S
C338 H311 0.950 . S
C338 C324 1.377 . S
C338 C337 1.373 . S
C339 C323 1.377 . S
C339 C337 1.389 . S
C339 C340 1.524 . S
C340 C339 1.524 . S
C340 C341 1.397 . S
C340 C345 1.363 . S
C341 H312 0.950 . S
C341 C340 1.397 . S
C341 C342 1.334 . S
C342 H313 0.950 . S
C342 C341 1.334 . S
C342 C343 1.287 . S
C343 C342 1.287 . S
C343 C344 1.524 . S
C343 H346 0.999 . S
C344 H314 0.950 . S
C344 C343 1.524 . S
C344 C345 1.415 . S
C345 H315 0.950 . S
C345 C340 1.363 . S
C345 C344 1.415 . S
H346 C343 0.999 . S
H347 C328 0.913 . S
H348 C366 0.951 . S
H349 C368 0.951 . S
H350 C370 0.950 . S
H351 C371 0.950 . S
H352 C373 0.950 . S
H353 C376 0.950 . S
H354 C377 0.950 . S
H355 C379 0.950 . S
H356 C380 0.950 . S
H357 C381 0.951 . S
H358 C383 0.951 . S
H359 C385 0.950 . S
H360 C386 0.950 . S
H361 C388 0.950 . S
H362 C391 0.950 . S
H363 C392 0.950 . S
H364 C394 0.950 . S
H365 C395 0.950 . S
C366 H348 0.951 . S
C366 C367 1.366 . S
C366 C368 1.388 . S
C367 C366 1.366 . S
C367 C371 1.385 . S
C368 H349 0.951 . S
C368 C366 1.388 . S
C368 C369 1.366 . S
C369 C368 1.366 . S
C369 C370 1.414 . S
C369 C372 1.499 . S
C370 H350 0.950 . S
C370 C369 1.414 . S
C370 C371 1.374 . S
C371 H351 0.950 . S
C371 C367 1.385 . S
C371 C370 1.374 . S
C372 C369 1.499 . S
C372 C373 1.373 . S
C372 C374 1.389 . S
C373 H352 0.950 . S
C373 C372 1.373 . S
C373 C389 1.377 . S
C374 C372 1.389 . S
C374 C375 1.524 . S
C374 C388 1.377 . S
C375 C374 1.524 . S
C375 C376 1.397 . S
C375 C380 1.363 . S
C376 H353 0.950 . S
C376 C375 1.397 . S
C376 C377 1.334 . S
C377 H354 0.950 . S
C377 C376 1.334 . S
C377 C378 1.287 . S
C378 C377 1.287 . S
C378 C379 1.524 . S
C378 H397 0.913 . S
C379 H355 0.950 . S
C379 C378 1.524 . S
C379 C380 1.415 . S
C380 H356 0.950 . S
C380 C375 1.363 . S
C380 C379 1.415 . S
C381 H357 0.951 . S
C381 C382 1.366 . S
C381 C383 1.388 . S
C382 C381 1.366 . S
C382 C386 1.385 . S
C383 H358 0.951 . S
C383 C381 1.388 . S
C383 C384 1.366 . S
C384 C383 1.366 . S
C384 C385 1.414 . S
C384 C387 1.499 . S
C385 H359 0.950 . S
C385 C384 1.414 . S
C385 C386 1.374 . S
C386 H360 0.950 . S
C386 C382 1.385 . S
C386 C385 1.374 . S
C387 C384 1.499 . S
C387 C388 1.373 . S
C387 C389 1.389 . S
C388 H361 0.950 . S
C388 C374 1.377 . S
C388 C387 1.373 . S
C389 C373 1.377 . S
C389 C387 1.389 . S
C389 C390 1.524 . S
C390 C389 1.524 . S
C390 C391 1.397 . S
C390 C395 1.363 . S
C391 H362 0.950 . S
C391 C390 1.397 . S
C391 C392 1.334 . S
C392 H363 0.950 . S
C392 C391 1.334 . S
C392 C393 1.287 . S
C393 C392 1.287 . S
C393 C394 1.524 . S
C393 H396 0.999 . S
C394 H364 0.950 . S
C394 C393 1.524 . S
C394 C395 1.415 . S
C395 H365 0.950 . S
C395 C390 1.363 . S
C395 C394 1.415 . S
H396 C393 0.999 . S
H397 C378 0.913 . S
H398 C416 0.951 . S
H399 C418 0.951 . S
H400 C420 0.950 . S
H401 C421 0.950 . S
H402 C423 0.950 . S
H403 C426 0.950 . S
H404 C427 0.950 . S
H405 C429 0.950 . S
H406 C430 0.950 . S
H407 C431 0.951 . S
H408 C433 0.951 1_455 S
H409 C435 0.950 . S
H410 C436 0.950 . S
H411 C438 0.950 . S
H412 C441 0.950 . S
H413 C442 0.950 . S
H414 C444 0.950 . S
H415 C445 0.950 . S
C416 H398 0.951 . S
C416 C417 1.366 . S
C416 C418 1.388 . S
C417 C416 1.366 . S
C417 C421 1.385 . S
C418 H399 0.951 . S
C418 C416 1.388 . S
C418 C419 1.366 . S
C419 C418 1.366 . S
C419 C420 1.414 . S
C419 C422 1.499 . S
C420 H400 0.950 . S
C420 C419 1.414 . S
C420 C421 1.374 . S
C421 H401 0.950 . S
C421 C417 1.385 . S
C421 C420 1.374 . S
C422 C419 1.499 . S
C422 C423 1.373 . S
C422 C424 1.389 . S
C423 H402 0.950 . S
C423 C422 1.373 . S
C423 C439 1.377 . S
C424 C422 1.389 . S
C424 C425 1.524 . S
C424 C438 1.377 . S
C425 C424 1.524 . S
C425 C426 1.397 . S
C425 C430 1.363 . S
C426 H403 0.950 . S
C426 C425 1.397 . S
C426 C427 1.334 . S
C427 H404 0.950 . S
C427 C426 1.334 . S
C427 C428 1.287 . S
C428 C427 1.287 . S
C428 C429 1.524 . S
C428 H447 0.913 . S
C429 H405 0.950 . S
C429 C428 1.524 . S
C429 C430 1.415 . S
C430 H406 0.950 . S
C430 C425 1.363 . S
C430 C429 1.415 . S
C431 H407 0.951 . S
C431 C432 1.366 1_455 S
C431 C433 1.388 1_455 S
C432 C431 1.366 1_655 S
C432 C436 1.385 . S
C433 H408 0.951 1_655 S
C433 C431 1.388 1_655 S
C433 C434 1.366 . S
C434 C433 1.366 . S
C434 C435 1.414 . S
C434 C437 1.499 . S
C435 H409 0.950 . S
C435 C434 1.414 . S
C435 C436 1.374 . S
C436 H410 0.950 . S
C436 C432 1.385 . S
C436 C435 1.374 . S
C437 C434 1.499 . S
C437 C438 1.373 . S
C437 C439 1.389 . S
C438 H411 0.950 . S
C438 C424 1.377 . S
C438 C437 1.373 . S
C439 C423 1.377 . S
C439 C437 1.389 . S
C439 C440 1.524 . S
C440 C439 1.524 . S
C440 C441 1.397 . S
C440 C445 1.363 1_655 S
C441 H412 0.950 . S
C441 C440 1.397 . S
C441 C442 1.334 1_655 S
C442 H413 0.950 . S
C442 C441 1.334 1_455 S
C442 C443 1.287 . S
C443 C442 1.287 . S
C443 C444 1.524 . S
C443 H446 0.999 . S
C444 H414 0.950 . S
C444 C443 1.524 . S
C444 C445 1.415 . S
C445 H415 0.950 . S
C445 C440 1.363 1_455 S
C445 C444 1.415 . S
H446 C443 0.999 . S
H447 C428 0.913 . S
H448 C466 0.951 . S
H449 C468 0.951 . S
H450 C470 0.950 . S
H451 C471 0.950 . S
H452 C473 0.950 . S
H453 C476 0.950 . S
H454 C477 0.950 . S
H455 C479 0.950 . S
H456 C480 0.950 . S
H457 C481 0.951 . S
H458 C483 0.951 . S
H459 C485 0.950 . S
H460 C486 0.950 . S
H461 C488 0.950 . S
H462 C491 0.950 . S
H463 C492 0.950 . S
H464 C494 0.950 . S
H465 C495 0.950 . S
C466 H448 0.951 . S
C466 C467 1.366 . S
C466 C468 1.388 . S
C467 C466 1.366 . S
C467 C471 1.385 . S
C468 H449 0.951 . S
C468 C466 1.388 . S
C468 C469 1.366 . S
C469 C468 1.366 . S
C469 C470 1.414 . S
C469 C472 1.499 . S
C470 H450 0.950 . S
C470 C469 1.414 . S
C470 C471 1.374 . S
C471 H451 0.950 . S
C471 C467 1.385 . S
C471 C470 1.374 . S
C472 C469 1.499 . S
C472 C473 1.373 . S
C472 C474 1.389 . S
C473 H452 0.950 . S
C473 C472 1.373 . S
C473 C489 1.377 . S
C474 C472 1.389 . S
C474 C475 1.524 . S
C474 C488 1.377 . S
C475 C474 1.524 . S
C475 C476 1.397 . S
C475 C480 1.363 . S
C476 H453 0.950 . S
C476 C475 1.397 . S
C476 C477 1.334 . S
C477 H454 0.950 . S
C477 C476 1.334 . S
C477 C478 1.287 . S
C478 C477 1.287 . S
C478 C479 1.524 . S
C478 H497 0.913 . S
C479 H455 0.950 . S
C479 C478 1.524 . S
C479 C480 1.415 . S
C480 H456 0.950 . S
C480 C475 1.363 . S
C480 C479 1.415 . S
C481 H457 0.951 . S
C481 C482 1.366 . S
C481 C483 1.388 . S
C482 C481 1.366 . S
C482 C486 1.385 . S
C483 H458 0.951 . S
C483 C481 1.388 . S
C483 C484 1.366 . S
C484 C483 1.366 . S
C484 C485 1.414 . S
C484 C487 1.499 . S
C485 H459 0.950 . S
C485 C484 1.414 . S
C485 C486 1.374 . S
C486 H460 0.950 . S
C486 C482 1.385 . S
C486 C485 1.374 . S
C487 C484 1.499 . S
C487 C488 1.373 . S
C487 C489 1.389 . S
C488 H461 0.950 . S
C488 C474 1.377 . S
C488 C487 1.373 . S
C489 C473 1.377 . S
C489 C487 1.389 . S
C489 C490 1.524 . S
C490 C489 1.524 . S
C490 C491 1.397 . S
C490 C495 1.363 . S
C491 H462 0.950 . S
C491 C490 1.397 . S
C491 C492 1.334 . S
C492 H463 0.950 . S
C492 C491 1.334 . S
C492 C493 1.287 . S
C493 C492 1.287 . S
C493 C494 1.524 . S
C493 H496 0.999 1_554 S
C494 H464 0.950 . S
C494 C493 1.524 . S
C494 C495 1.415 . S
C495 H465 0.950 . S
C495 C490 1.363 . S
C495 C494 1.415 . S
H496 C493 0.999 1_556 S
H497 C478 0.913 . S
H498 C516 0.951 . S
H499 C518 0.951 . S
H500 C520 0.950 . S
H501 C521 0.950 . S
H502 C523 0.950 . S
H503 C526 0.950 . S
H504 C527 0.950 . S
H505 C529 0.950 . S
H506 C530 0.950 . S
H507 C531 0.932 1_545 S
H508 C533 0.951 . S
H509 C535 0.950 . S
H510 C536 0.950 . S
H511 C538 0.950 . S
H512 C541 0.950 . S
H513 C542 0.950 . S
H514 C544 0.950 . S
H515 C545 0.950 . S
C516 H498 0.951 . S
C516 C517 1.366 . S
C516 C518 1.388 . S
C517 C516 1.366 . S
C517 C521 1.385 . S
C518 H499 0.951 . S
C518 C516 1.388 . S
C518 C519 1.366 . S
C519 C518 1.366 . S
C519 C520 1.414 . S
C519 C522 1.499 . S
C520 H500 0.950 . S
C520 C519 1.414 . S
C520 C521 1.374 . S
C521 H501 0.950 . S
C521 C517 1.385 . S
C521 C520 1.374 . S
C522 C519 1.499 . S
C522 C523 1.373 . S
C522 C524 1.389 . S
C523 H502 0.950 . S
C523 C522 1.373 . S
C523 C539 1.377 . S
C524 C522 1.389 . S
C524 C525 1.524 . S
C524 C538 1.377 . S
C525 C524 1.524 . S
C525 C526 1.397 . S
C525 C530 1.363 . S
C526 H503 0.950 . S
C526 C525 1.397 . S
C526 C527 1.334 . S
C527 H504 0.950 . S
C527 C526 1.334 . S
C527 C528 1.287 . S
C528 C527 1.287 . S
C528 C529 1.524 . S
C528 H547 0.913 . S
C529 H505 0.950 . S
C529 C528 1.524 . S
C529 C530 1.415 . S
C530 H506 0.950 . S
C530 C525 1.363 . S
C530 C529 1.415 . S
C531 H507 0.932 1_565 S
C531 C532 1.366 . S
C531 C533 1.388 . S
C532 C531 1.366 . S
C532 C536 1.385 . S
C533 H508 0.951 . S
C533 C531 1.388 . S
C533 C534 1.366 . S
C534 C533 1.366 . S
C534 C535 1.414 . S
C534 C537 1.499 . S
C535 H509 0.950 . S
C535 C534 1.414 . S
C535 C536 1.374 . S
C536 H510 0.950 . S
C536 C532 1.385 . S
C536 C535 1.374 . S
C537 C534 1.499 . S
C537 C538 1.373 . S
C537 C539 1.389 . S
C538 H511 0.950 . S
C538 C524 1.377 . S
C538 C537 1.373 . S
C539 C523 1.377 . S
C539 C537 1.389 . S
C539 C540 1.524 . S
C540 C539 1.524 . S
C540 C541 1.397 . S
C540 C545 1.363 . S
C541 H512 0.950 . S
C541 C540 1.397 . S
C541 C542 1.334 1_455 S
C542 H513 0.950 . S
C542 C541 1.334 1_655 S
C542 C543 1.287 . S
C543 C542 1.287 . S
C543 C544 1.524 1_655 S
C543 H546 0.999 . S
C544 H514 0.950 . S
C544 C543 1.524 1_455 S
C544 C545 1.415 . S
C545 H515 0.950 . S
C545 C540 1.363 . S
C545 C544 1.415 . S
H546 C543 0.999 . S
H547 C528 0.913 . S
H548 C566 0.951 . S
H549 C568 0.951 . S
H550 C570 0.950 . S
H551 C571 0.950 . S
H552 C573 0.950 . S
H553 C576 0.950 . S
H554 C577 0.950 1_554 S
H555 C579 0.950 . S
H556 C580 0.950 . S
H557 C581 0.951 . S
H558 C583 0.951 . S
H559 C585 0.950 . S
H560 C586 0.950 . S
H561 C588 0.950 . S
H562 C591 0.950 . S
H563 C592 0.950 . S
H564 C594 0.950 . S
H565 C595 0.950 . S
C566 H548 0.951 . S
C566 C567 1.366 . S
C566 C568 1.388 . S
C567 C566 1.366 . S
C567 C571 1.385 . S
C568 H549 0.951 . S
C568 C566 1.388 . S
C568 C569 1.366 . S
C569 C568 1.366 . S
C569 C570 1.414 . S
C569 C572 1.499 . S
C570 H550 0.950 . S
C570 C569 1.414 . S
C570 C571 1.374 . S
C571 H551 0.950 . S
C571 C567 1.385 . S
C571 C570 1.374 . S
C572 C569 1.499 . S
C572 C573 1.373 . S
C572 C574 1.389 . S
C573 H552 0.950 . S
C573 C572 1.373 . S
C573 C589 1.377 . S
C574 C572 1.389 . S
C574 C575 1.524 . S
C574 C588 1.377 . S
C575 C574 1.524 . S
C575 C576 1.397 . S
C575 C580 1.363 . S
C576 H553 0.950 . S
C576 C575 1.397 . S
C576 C577 1.334 . S
C577 H554 0.950 1_556 S
C577 C576 1.334 . S
C577 C578 1.287 1_556 S
C578 C577 1.287 1_554 S
C578 C579 1.524 1_554 S
C578 H597 0.913 . S
C579 H555 0.950 . S
C579 C578 1.524 1_556 S
C579 C580 1.415 . S
C580 H556 0.950 . S
C580 C575 1.363 . S
C580 C579 1.415 . S
C581 H557 0.951 . S
C581 C582 1.366 . S
C581 C583 1.388 . S
C582 C581 1.366 . S
C582 C586 1.385 . S
C583 H558 0.951 . S
C583 C581 1.388 . S
C583 C584 1.366 . S
C584 C583 1.366 . S
C584 C585 1.414 . S
C584 C587 1.499 . S
C585 H559 0.950 . S
C585 C584 1.414 . S
C585 C586 1.374 . S
C586 H560 0.950 . S
C586 C582 1.385 . S
C586 C585 1.374 . S
C587 C584 1.499 . S
C587 C588 1.373 . S
C587 C589 1.389 . S
C588 H561 0.950 . S
C588 C574 1.377 . S
C588 C587 1.373 . S
C589 C573 1.377 . S
C589 C587 1.389 . S
C589 C590 1.524 . S
C590 C589 1.524 . S
C590 C591 1.397 . S
C590 C595 1.363 . S
C591 H562 0.950 . S
C591 C590 1.397 . S
C591 C592 1.334 . S
C592 H563 0.950 . S
C592 C591 1.334 . S
C592 C593 1.287 . S
C593 C592 1.287 . S
C593 C594 1.524 . S
C593 H596 0.999 . S
C594 H564 0.950 . S
C594 C593 1.524 . S
C594 C595 1.415 . S
C595 H565 0.950 . S
C595 C590 1.363 . S
C595 C594 1.415 . S
H596 C593 0.999 . S
H597 C578 0.913 . S
H598 C616 0.951 . S
H599 C618 0.951 . S
H600 C620 0.950 . S
H601 C621 0.950 . S
H602 C623 0.950 . S
H603 C626 0.950 . S
H604 C627 0.950 . S
H605 C629 0.950 . S
H606 C630 0.950 . S
H607 C631 0.951 . S
H608 C633 0.951 . S
H609 C635 0.950 . S
H610 C636 0.950 . S
H611 C638 0.950 . S
H612 C641 0.950 . S
H613 C642 0.950 . S
H614 C644 0.950 . S
H615 C645 0.950 . S
C616 H598 0.951 . S
C616 C617 1.366 . S
C616 C618 1.388 . S
C617 C616 1.366 . S
C617 C621 1.385 . S
C618 H599 0.951 . S
C618 C616 1.388 . S
C618 C619 1.366 . S
C619 C618 1.366 . S
C619 C620 1.414 . S
C619 C622 1.499 . S
C620 H600 0.950 . S
C620 C619 1.414 . S
C620 C621 1.374 . S
C621 H601 0.950 . S
C621 C617 1.385 . S
C621 C620 1.374 . S
C622 C619 1.499 . S
C622 C623 1.373 . S
C622 C624 1.389 . S
C623 H602 0.950 . S
C623 C622 1.373 . S
C623 C639 1.377 . S
C624 C622 1.389 . S
C624 C625 1.524 . S
C624 C638 1.377 . S
C625 C624 1.524 . S
C625 C626 1.397 . S
C625 C630 1.363 . S
C626 H603 0.950 . S
C626 C625 1.397 . S
C626 C627 1.334 . S
C627 H604 0.950 . S
C627 C626 1.334 . S
C627 C628 1.287 . S
C628 C627 1.287 . S
C628 C629 1.524 . S
C628 H647 0.913 . S
C629 H605 0.950 . S
C629 C628 1.524 . S
C629 C630 1.415 . S
C630 H606 0.950 . S
C630 C625 1.363 . S
C630 C629 1.415 . S
C631 H607 0.951 . S
C631 C632 1.366 . S
C631 C633 1.388 . S
C632 C631 1.366 . S
C632 C636 1.385 . S
C633 H608 0.951 . S
C633 C631 1.388 . S
C633 C634 1.366 . S
C634 C633 1.366 . S
C634 C635 1.414 . S
C634 C637 1.499 . S
C635 H609 0.950 . S
C635 C634 1.414 . S
C635 C636 1.374 . S
C636 H610 0.950 . S
C636 C632 1.385 . S
C636 C635 1.374 . S
C637 C634 1.499 . S
C637 C638 1.373 . S
C637 C639 1.389 . S
C638 H611 0.950 . S
C638 C624 1.377 . S
C638 C637 1.373 . S
C639 C623 1.377 . S
C639 C637 1.389 . S
C639 C640 1.524 . S
C640 C639 1.524 . S
C640 C641 1.397 . S
C640 C645 1.363 . S
C641 H612 0.950 . S
C641 C640 1.397 . S
C641 C642 1.334 . S
C642 H613 0.950 . S
C642 C641 1.334 . S
C642 C643 1.287 . S
C643 C642 1.287 . S
C643 C644 1.524 . S
C643 H646 0.999 . S
C644 H614 0.950 . S
C644 C643 1.524 . S
C644 C645 1.415 . S
C645 H615 0.950 . S
C645 C640 1.363 . S
C645 C644 1.415 . S
H646 C643 0.999 . S
H647 C628 0.913 . S
H648 C666 0.951 . S
H649 C668 0.951 . S
H650 C670 0.950 . S
H651 C671 0.950 . S
H652 C673 0.950 . S
H653 C676 0.950 . S
H654 C677 0.950 . S
H655 C679 0.950 . S
H656 C680 0.950 . S
H657 C681 0.951 . S
H658 C683 0.951 . S
H659 C685 0.950 . S
H660 C686 0.950 . S
H661 C688 0.950 . S
H662 C691 0.950 . S
H663 C692 0.950 . S
H664 C694 0.950 . S
H665 C695 0.950 . S
C666 H648 0.951 . S
C666 C667 1.366 . S
C666 C668 1.388 . S
C667 C666 1.366 . S
C667 C671 1.385 . S
C668 H649 0.951 . S
C668 C666 1.388 . S
C668 C669 1.366 . S
C669 C668 1.366 . S
C669 C670 1.414 . S
C669 C672 1.499 . S
C670 H650 0.950 . S
C670 C669 1.414 . S
C670 C671 1.374 . S
C671 H651 0.950 . S
C671 C667 1.385 . S
C671 C670 1.374 . S
C672 C669 1.499 . S
C672 C673 1.373 . S
C672 C674 1.389 . S
C673 H652 0.950 . S
C673 C672 1.373 . S
C673 C689 1.377 . S
C674 C672 1.389 . S
C674 C675 1.524 . S
C674 C688 1.377 . S
C675 C674 1.524 . S
C675 C676 1.397 . S
C675 C680 1.363 . S
C676 H653 0.950 . S
C676 C675 1.397 . S
C676 C677 1.334 . S
C677 H654 0.950 . S
C677 C676 1.334 . S
C677 C678 1.287 . S
C678 C677 1.287 . S
C678 C679 1.524 . S
C678 H697 0.913 . S
C679 H655 0.950 . S
C679 C678 1.524 . S
C679 C680 1.415 . S
C680 H656 0.950 . S
C680 C675 1.363 . S
C680 C679 1.415 . S
C681 H657 0.951 . S
C681 C682 1.366 . S
C681 C683 1.388 . S
C682 C681 1.366 . S
C682 C686 1.385 . S
C683 H658 0.951 . S
C683 C681 1.388 . S
C683 C684 1.366 . S
C684 C683 1.366 . S
C684 C685 1.414 . S
C684 C687 1.499 . S
C685 H659 0.950 . S
C685 C684 1.414 . S
C685 C686 1.374 . S
C686 H660 0.950 . S
C686 C682 1.385 . S
C686 C685 1.374 . S
C687 C684 1.499 . S
C687 C688 1.373 . S
C687 C689 1.389 . S
C688 H661 0.950 . S
C688 C674 1.377 . S
C688 C687 1.373 . S
C689 C673 1.377 . S
C689 C687 1.389 . S
C689 C690 1.524 . S
C690 C689 1.524 . S
C690 C691 1.397 . S
C690 C695 1.363 . S
C691 H662 0.950 . S
C691 C690 1.397 . S
C691 C692 1.334 . S
C692 H663 0.950 . S
C692 C691 1.334 . S
C692 C693 1.287 . S
C693 C692 1.287 . S
C693 C694 1.524 . S
C693 H696 0.999 . S
C694 H664 0.950 . S
C694 C693 1.524 . S
C694 C695 1.415 . S
C695 H665 0.950 . S
C695 C690 1.363 . S
C695 C694 1.415 . S
H696 C693 0.999 . S
H697 C678 0.913 . S
H698 C716 0.951 . S
H699 C718 0.951 . S
H700 C720 0.950 . S
H701 C721 0.950 . S
H702 C723 0.950 . S
H703 C726 0.950 1_556 S
H704 C727 0.950 . S
H705 C729 0.950 . S
H706 C730 0.950 . S
H707 C731 0.951 . S
H708 C733 0.951 . S
H709 C735 0.950 . S
H710 C736 0.950 . S
H711 C738 0.950 1_554 S
H712 C741 0.950 . S
H713 C742 0.950 . S
H714 C744 0.950 . S
H715 C745 0.950 . S
C716 H698 0.951 . S
C716 C717 1.366 . S
C716 C718 1.388 . S
C717 C716 1.366 . S
C717 C721 1.385 . S
C718 H699 0.951 . S
C718 C716 1.388 . S
C718 C719 1.366 . S
C719 C718 1.366 . S
C719 C720 1.414 . S
C719 C722 1.499 . S
C720 H700 0.950 . S
C720 C719 1.414 . S
C720 C721 1.374 . S
C721 H701 0.950 . S
C721 C717 1.385 . S
C721 C720 1.374 . S
C722 C719 1.499 . S
C722 C723 1.373 . S
C722 C724 1.389 . S
C723 H702 0.950 . S
C723 C722 1.373 . S
C723 C739 1.377 . S
C724 C722 1.389 . S
C724 C725 1.502 1_556 S
C724 C738 1.377 . S
C725 C724 1.502 1_554 S
C725 C726 1.400 . S
C725 C730 1.383 . S
C726 H703 0.950 1_554 S
C726 C725 1.400 . S
C726 C727 1.334 . S
C727 H704 0.950 . S
C727 C726 1.334 . S
C727 C728 1.287 . S
C728 C727 1.287 . S
C728 C729 1.524 . S
C728 H747 0.913 . S
C729 H705 0.950 . S
C729 C728 1.524 . S
C729 C730 1.415 . S
C730 H706 0.950 . S
C730 C725 1.383 . S
C730 C729 1.415 . S
C731 H707 0.951 . S
C731 C732 1.366 1_556 S
C731 C733 1.388 . S
C732 C731 1.366 1_554 S
C732 C736 1.385 . S
C733 H708 0.951 . S
C733 C731 1.388 . S
C733 C734 1.366 . S
C734 C733 1.366 . S
C734 C735 1.414 1_556 S
C734 C737 1.499 . S
C735 H709 0.950 . S
C735 C734 1.414 1_554 S
C735 C736 1.374 . S
C736 H710 0.950 . S
C736 C732 1.385 . S
C736 C735 1.374 . S
C737 C734 1.499 . S
C737 C738 1.373 . S
C737 C739 1.389 . S
C738 H711 0.950 1_556 S
C738 C724 1.377 . S
C738 C737 1.373 . S
C739 C723 1.377 . S
C739 C737 1.389 . S
C739 C740 1.524 . S
C740 C739 1.524 . S
C740 C741 1.397 . S
C740 C745 1.363 . S
C741 H712 0.950 . S
C741 C740 1.397 . S
C741 C742 1.334 . S
C742 H713 0.950 . S
C742 C741 1.334 . S
C742 C743 1.287 . S
C743 C742 1.287 . S
C743 C744 1.524 . S
C743 H746 0.999 . S
C744 H714 0.950 . S
C744 C743 1.524 . S
C744 C745 1.415 . S
C745 H715 0.950 . S
C745 C740 1.363 . S
C745 C744 1.415 . S
H746 C743 0.999 . S
H747 C728 0.913 . S
H748 C766 0.951 . S
H749 C768 0.951 . S
H750 C770 0.950 . S
H751 C771 0.950 . S
H752 C773 0.950 . S
H753 C776 0.950 . S
H754 C777 0.950 . S
H755 C779 0.950 . S
H756 C780 0.950 . S
H757 C781 0.951 . S
H758 C783 0.951 . S
H759 C785 0.950 . S
H760 C786 0.950 . S
H761 C788 0.950 . S
H762 C791 0.950 . S
H763 C792 0.950 . S
H764 C794 0.950 . S
H765 C795 0.950 . S
C766 H748 0.951 . S
C766 C767 1.366 . S
C766 C768 1.388 . S
C767 C766 1.366 . S
C767 C771 1.385 . S
C768 H749 0.951 . S
C768 C766 1.388 . S
C768 C769 1.366 . S
C769 C768 1.366 . S
C769 C770 1.414 . S
C769 C772 1.499 . S
C770 H750 0.950 . S
C770 C769 1.414 . S
C770 C771 1.374 . S
C771 H751 0.950 . S
C771 C767 1.385 . S
C771 C770 1.374 . S
C772 C769 1.499 . S
C772 C773 1.373 . S
C772 C774 1.389 . S
C773 H752 0.950 . S
C773 C772 1.373 . S
C773 C789 1.377 . S
C774 C772 1.389 . S
C774 C775 1.524 . S
C774 C788 1.377 . S
C775 C774 1.524 . S
C775 C776 1.397 . S
C775 C780 1.363 . S
C776 H753 0.950 . S
C776 C775 1.397 . S
C776 C777 1.334 . S
C777 H754 0.950 . S
C777 C776 1.334 . S
C777 C778 1.287 . S
C778 C777 1.287 . S
C778 C779 1.524 . S
C778 H797 0.913 . S
C779 H755 0.950 . S
C779 C778 1.524 . S
C779 C780 1.415 . S
C780 H756 0.950 . S
C780 C775 1.363 . S
C780 C779 1.415 . S
C781 H757 0.951 . S
C781 C782 1.366 . S
C781 C783 1.388 . S
C782 C781 1.366 . S
C782 C786 1.385 . S
C783 H758 0.951 . S
C783 C781 1.388 . S
C783 C784 1.366 . S
C784 C783 1.366 . S
C784 C785 1.414 . S
C784 C787 1.499 . S
C785 H759 0.950 . S
C785 C784 1.414 . S
C785 C786 1.374 . S
C786 H760 0.950 . S
C786 C782 1.385 . S
C786 C785 1.374 . S
C787 C784 1.499 . S
C787 C788 1.373 . S
C787 C789 1.389 . S
C788 H761 0.950 . S
C788 C774 1.377 . S
C788 C787 1.373 . S
C789 C773 1.377 . S
C789 C787 1.389 . S
C789 C790 1.524 . S
C790 C789 1.524 . S
C790 C791 1.397 . S
C790 C795 1.363 . S
C791 H762 0.950 . S
C791 C790 1.397 . S
C791 C792 1.334 . S
C792 H763 0.950 . S
C792 C791 1.334 . S
C792 C793 1.287 . S
C793 C792 1.287 . S
C793 C794 1.524 . S
C793 H796 0.999 . S
C794 H764 0.950 . S
C794 C793 1.524 . S
C794 C795 1.415 . S
C795 H765 0.950 . S
C795 C790 1.363 . S
C795 C794 1.415 . S
H796 C793 0.999 . S
H797 C778 0.913 . S
H798 C816 0.951 . S
H799 C818 0.951 . S
H800 C820 0.950 . S
H801 C821 0.950 . S
H802 C823 0.950 . S
H803 C826 0.950 . S
H804 C827 0.950 . S
H805 C829 0.950 . S
H806 C830 0.950 . S
H807 C831 0.951 . S
H808 C833 0.951 . S
H809 C835 0.950 . S
H810 C836 0.950 . S
H811 C838 0.950 . S
H812 C841 0.950 . S
H813 C842 0.950 . S
H814 C844 0.950 . S
H815 C845 0.950 . S
C816 H798 0.951 . S
C816 C817 1.366 . S
C816 C818 1.388 . S
C817 C816 1.366 . S
C817 C821 1.385 . S
C818 H799 0.951 . S
C818 C816 1.388 . S
C818 C819 1.366 . S
C819 C818 1.366 . S
C819 C820 1.414 . S
C819 C822 1.499 . S
C820 H800 0.950 . S
C820 C819 1.414 . S
C820 C821 1.374 . S
C821 H801 0.950 . S
C821 C817 1.385 . S
C821 C820 1.374 . S
C822 C819 1.499 . S
C822 C823 1.373 . S
C822 C824 1.389 . S
C823 H802 0.950 . S
C823 C822 1.373 . S
C823 C839 1.377 . S
C824 C822 1.389 . S
C824 C825 1.524 . S
C824 C838 1.377 . S
C825 C824 1.524 . S
C825 C826 1.397 . S
C825 C830 1.363 . S
C826 H803 0.950 . S
C826 C825 1.397 . S
C826 C827 1.334 . S
C827 H804 0.950 . S
C827 C826 1.334 . S
C827 C828 1.287 . S
C828 C827 1.287 . S
C828 C829 1.524 . S
C828 H847 0.913 . S
C829 H805 0.950 . S
C829 C828 1.524 . S
C829 C830 1.415 . S
C830 H806 0.950 . S
C830 C825 1.363 . S
C830 C829 1.415 . S
C831 H807 0.951 . S
C831 C832 1.366 . S
C831 C833 1.388 . S
C832 C831 1.366 . S
C832 C836 1.385 . S
C833 H808 0.951 . S
C833 C831 1.388 . S
C833 C834 1.366 . S
C834 C833 1.366 . S
C834 C835 1.414 . S
C834 C837 1.499 . S
C835 H809 0.950 . S
C835 C834 1.414 . S
C835 C836 1.374 . S
C836 H810 0.950 . S
C836 C832 1.385 . S
C836 C835 1.374 . S
C837 C834 1.499 . S
C837 C838 1.373 . S
C837 C839 1.389 . S
C838 H811 0.950 . S
C838 C824 1.377 . S
C838 C837 1.373 . S
C839 C823 1.377 . S
C839 C837 1.389 . S
C839 C840 1.524 . S
C840 C839 1.524 . S
C840 C841 1.397 . S
C840 C845 1.363 . S
C841 H812 0.950 . S
C841 C840 1.397 . S
C841 C842 1.334 . S
C842 H813 0.950 . S
C842 C841 1.334 . S
C842 C843 1.287 . S
C843 C842 1.287 . S
C843 C844 1.524 . S
C843 H846 0.999 . S
C844 H814 0.950 . S
C844 C843 1.524 . S
C844 C845 1.415 . S
C845 H815 0.950 . S
C845 C840 1.363 . S
C845 C844 1.415 . S
H846 C843 0.999 . S
H847 C828 0.913 . S
H848 C866 0.951 . S
H849 C868 0.951 . S
H850 C870 0.950 . S
H851 C871 0.950 . S
H852 C873 0.950 . S
H853 C876 0.950 . S
H854 C877 0.950 . S
H855 C879 0.950 . S
H856 C880 0.950 . S
H857 C881 0.951 . S
H858 C883 0.951 . S
H859 C885 0.950 . S
H860 C886 0.950 . S
H861 C888 0.950 . S
H862 C891 0.950 . S
H863 C892 0.950 . S
H864 C894 0.950 . S
H865 C895 0.950 . S
C866 H848 0.951 . S
C866 C867 1.366 . S
C866 C868 1.388 . S
C867 C866 1.366 . S
C867 C871 1.385 . S
C868 H849 0.951 . S
C868 C866 1.388 . S
C868 C869 1.366 . S
C869 C868 1.366 . S
C869 C870 1.414 . S
C869 C872 1.499 . S
C870 H850 0.950 . S
C870 C869 1.414 . S
C870 C871 1.374 . S
C871 H851 0.950 . S
C871 C867 1.385 . S
C871 C870 1.374 . S
C872 C869 1.499 . S
C872 C873 1.373 . S
C872 C874 1.389 . S
C873 H852 0.950 . S
C873 C872 1.373 . S
C873 C889 1.377 . S
C874 C872 1.389 . S
C874 C875 1.524 . S
C874 C888 1.377 . S
C875 C874 1.524 . S
C875 C876 1.397 . S
C875 C880 1.363 . S
C876 H853 0.950 . S
C876 C875 1.397 . S
C876 C877 1.334 . S
C877 H854 0.950 . S
C877 C876 1.334 . S
C877 C878 1.287 . S
C878 C877 1.287 . S
C878 C879 1.524 . S
C878 H897 0.913 . S
C879 H855 0.950 . S
C879 C878 1.524 . S
C879 C880 1.415 . S
C880 H856 0.950 . S
C880 C875 1.363 . S
C880 C879 1.415 . S
C881 H857 0.951 . S
C881 C882 1.366 . S
C881 C883 1.388 . S
C882 C881 1.366 . S
C882 C886 1.385 . S
C883 H858 0.951 . S
C883 C881 1.388 . S
C883 C884 1.366 . S
C884 C883 1.366 . S
C884 C885 1.414 . S
C884 C887 1.499 . S
C885 H859 0.950 . S
C885 C884 1.414 . S
C885 C886 1.374 . S
C886 H860 0.950 . S
C886 C882 1.385 . S
C886 C885 1.374 . S
C887 C884 1.499 . S
C887 C888 1.373 . S
C887 C889 1.389 . S
C888 H861 0.950 . S
C888 C874 1.377 . S
C888 C887 1.373 . S
C889 C873 1.377 . S
C889 C887 1.389 . S
C889 C890 1.524 . S
C890 C889 1.524 . S
C890 C891 1.397 . S
C890 C895 1.363 . S
C891 H862 0.950 . S
C891 C890 1.397 . S
C891 C892 1.334 . S
C892 H863 0.950 . S
C892 C891 1.334 . S
C892 C893 1.287 . S
C893 C892 1.287 . S
C893 C894 1.524 . S
C893 H896 0.999 . S
C894 H864 0.950 . S
C894 C893 1.524 . S
C894 C895 1.415 . S
C895 H865 0.950 . S
C895 C890 1.363 . S
C895 C894 1.415 . S
H896 C893 0.999 . S
H897 C878 0.913 . S
H898 C916 0.951 . S
H899 C918 0.951 . S
H900 C920 0.950 . S
H901 C921 0.950 . S
H902 C923 0.950 . S
H903 C926 0.950 . S
H904 C927 0.950 . S
H905 C929 0.950 . S
H906 C930 0.950 . S
H907 C931 0.951 . S
H908 C933 0.951 . S
H909 C935 0.950 . S
H910 C936 0.950 . S
H911 C938 0.950 . S
H912 C941 0.950 . S
H913 C942 0.950 . S
H914 C944 0.950 . S
H915 C945 0.950 . S
C916 H898 0.951 . S
C916 C917 1.366 . S
C916 C918 1.388 . S
C917 C916 1.366 . S
C917 C921 1.385 . S
C918 H899 0.951 . S
C918 C916 1.388 . S
C918 C919 1.366 . S
C919 C918 1.366 . S
C919 C920 1.414 . S
C919 C922 1.499 . S
C920 H900 0.950 . S
C920 C919 1.414 . S
C920 C921 1.374 . S
C921 H901 0.950 . S
C921 C917 1.385 . S
C921 C920 1.374 . S
C922 C919 1.499 . S
C922 C923 1.373 . S
C922 C924 1.389 . S
C923 H902 0.950 . S
C923 C922 1.373 . S
C923 C939 1.377 . S
C924 C922 1.389 . S
C924 C925 1.524 . S
C924 C938 1.377 . S
C925 C924 1.524 . S
C925 C926 1.397 . S
C925 C930 1.363 . S
C926 H903 0.950 . S
C926 C925 1.397 . S
C926 C927 1.334 . S
C927 H904 0.950 . S
C927 C926 1.334 . S
C927 C928 1.287 . S
C928 C927 1.287 . S
C928 C929 1.524 . S
C928 H947 0.913 . S
C929 H905 0.950 . S
C929 C928 1.524 . S
C929 C930 1.415 . S
C930 H906 0.950 . S
C930 C925 1.363 . S
C930 C929 1.415 . S
C931 H907 0.951 . S
C931 C932 1.366 . S
C931 C933 1.388 . S
C932 C931 1.366 . S
C932 C936 1.385 . S
C933 H908 0.951 . S
C933 C931 1.388 . S
C933 C934 1.366 . S
C934 C933 1.366 . S
C934 C935 1.414 . S
C934 C937 1.499 . S
C935 H909 0.950 . S
C935 C934 1.414 . S
C935 C936 1.374 . S
C936 H910 0.950 . S
C936 C932 1.385 . S
C936 C935 1.374 . S
C937 C934 1.499 . S
C937 C938 1.373 . S
C937 C939 1.389 . S
C938 H911 0.950 . S
C938 C924 1.377 . S
C938 C937 1.373 . S
C939 C923 1.377 . S
C939 C937 1.389 . S
C939 C940 1.524 . S
C940 C939 1.524 . S
C940 C941 1.397 . S
C940 C945 1.363 . S
C941 H912 0.950 . S
C941 C940 1.397 . S
C941 C942 1.334 . S
C942 H913 0.950 . S
C942 C941 1.334 . S
C942 C943 1.287 . S
C943 C942 1.287 . S
C943 C944 1.524 . S
C943 H946 0.999 . S
C944 H914 0.950 . S
C944 C943 1.524 . S
C944 C945 1.415 . S
C945 H915 0.950 . S
C945 C940 1.363 . S
C945 C944 1.415 . S
H946 C943 0.999 . S
H947 C928 0.913 . S
H948 C966 0.951 . S
H949 C968 0.951 . S
H950 C970 0.950 . S
H951 C971 0.950 . S
H952 C973 0.950 . S
H953 C976 0.950 . S
H954 C977 0.950 . S
H955 C979 0.950 . S
H956 C980 0.950 . S
H957 C981 0.951 . S
H958 C983 0.951 . S
H959 C985 0.950 . S
H960 C986 0.950 . S
H961 C988 0.950 . S
H962 C991 0.950 . S
H963 C992 0.950 . S
H964 C994 0.950 . S
H965 C995 0.950 . S
C966 H948 0.951 . S
C966 C967 1.366 . S
C966 C968 1.388 . S
C967 C966 1.366 . S
C967 C971 1.385 . S
C968 H949 0.951 . S
C968 C966 1.388 . S
C968 C969 1.366 . S
C969 C968 1.366 . S
C969 C970 1.414 . S
C969 C972 1.499 . S
C970 H950 0.950 . S
C970 C969 1.414 . S
C970 C971 1.374 . S
C971 H951 0.950 . S
C971 C967 1.385 . S
C971 C970 1.374 . S
C972 C969 1.499 . S
C972 C973 1.373 . S
C972 C974 1.389 . S
C973 H952 0.950 . S
C973 C972 1.373 . S
C973 C989 1.377 . S
C974 C972 1.389 . S
C974 C975 1.524 . S
C974 C988 1.377 . S
C975 C974 1.524 . S
C975 C976 1.397 . S
C975 C980 1.363 . S
C976 H953 0.950 . S
C976 C975 1.397 . S
C976 C977 1.334 . S
C977 H954 0.950 . S
C977 C976 1.334 . S
C977 C978 1.287 . S
C978 C977 1.287 . S
C978 C979 1.524 . S
C978 H997 0.913 . S
C979 H955 0.950 . S
C979 C978 1.524 . S
C979 C980 1.415 . S
C980 H956 0.950 . S
C980 C975 1.363 . S
C980 C979 1.415 . S
C981 H957 0.951 . S
C981 C982 1.366 . S
C981 C983 1.388 . S
C982 C981 1.366 . S
C982 C986 1.385 . S
C983 H958 0.951 . S
C983 C981 1.388 . S
C983 C984 1.366 . S
C984 C983 1.366 . S
C984 C985 1.414 . S
C984 C987 1.499 . S
C985 H959 0.950 . S
C985 C984 1.414 . S
C985 C986 1.374 . S
C986 H960 0.950 . S
C986 C982 1.385 . S
C986 C985 1.374 . S
C987 C984 1.499 . S
C987 C988 1.373 . S
C987 C989 1.389 . S
C988 H961 0.950 . S
C988 C974 1.377 . S
C988 C987 1.373 . S
C989 C973 1.377 . S
C989 C987 1.389 . S
C989 C990 1.524 . S
C990 C989 1.524 . S
C990 C991 1.397 . S
C990 C995 1.363 . S
C991 H962 0.950 . S
C991 C990 1.397 . S
C991 C992 1.334 . S
C992 H963 0.950 . S
C992 C991 1.334 . S
C992 C993 1.287 . S
C993 C992 1.287 . S
C993 C994 1.524 . S
C993 H996 0.999 . S
C994 H964 0.950 . S
C994 C993 1.524 . S
C994 C995 1.415 . S
C995 H965 0.950 . S
C995 C990 1.363 . S
C995 C994 1.415 . S
H996 C993 0.999 . S
H997 C978 0.913 . S
H998 C1016 0.951 . S
H999 C1018 0.951 . S
H1000 C1020 0.950 . S
H1001 C1021 0.950 . S
H1002 C1023 0.950 . S
H1003 C1026 0.950 . S
H1004 C1027 0.950 . S
H1005 C1029 0.950 . S
H1006 C1030 0.950 . S
H1007 C1031 0.951 . S
H1008 C1033 0.951 . S
H1009 C1035 0.950 . S
H1010 C1036 0.950 . S
H1011 C1038 0.950 . S
H1012 C1041 0.950 . S
H1013 C1042 0.950 . S
H1014 C1044 0.950 . S
H1015 C1045 0.950 . S
C1016 H998 0.951 . S
C1016 C1017 1.366 . S
C1016 C1018 1.388 . S
C1017 C1016 1.366 . S
C1017 C1021 1.385 . S
C1018 H999 0.951 . S
C1018 C1016 1.388 . S
C1018 C1019 1.366 . S
C1019 C1018 1.366 . S
C1019 C1020 1.414 . S
C1019 C1022 1.499 . S
C1020 H1000 0.950 . S
C1020 C1019 1.414 . S
C1020 C1021 1.374 . S
C1021 H1001 0.950 . S
C1021 C1017 1.385 . S
C1021 C1020 1.374 . S
C1022 C1019 1.499 . S
C1022 C1023 1.373 . S
C1022 C1024 1.389 . S
C1023 H1002 0.950 . S
C1023 C1022 1.373 . S
C1023 C1039 1.377 . S
C1024 C1022 1.389 . S
C1024 C1025 1.524 . S
C1024 C1038 1.377 . S
C1025 C1024 1.524 . S
C1025 C1026 1.397 . S
C1025 C1030 1.363 . S
C1026 H1003 0.950 . S
C1026 C1025 1.397 . S
C1026 C1027 1.334 . S
C1027 H1004 0.950 . S
C1027 C1026 1.334 . S
C1027 C1028 1.287 . S
C1028 C1027 1.287 . S
C1028 C1029 1.524 . S
C1028 H1047 0.913 . S
C1029 H1005 0.950 . S
C1029 C1028 1.524 . S
C1029 C1030 1.415 . S
C1030 H1006 0.950 . S
C1030 C1025 1.363 . S
C1030 C1029 1.415 . S
C1031 H1007 0.951 . S
C1031 C1032 1.366 . S
C1031 C1033 1.388 . S
C1032 C1031 1.366 . S
C1032 C1036 1.385 . S
C1033 H1008 0.951 . S
C1033 C1031 1.388 . S
C1033 C1034 1.366 . S
C1034 C1033 1.366 . S
C1034 C1035 1.414 . S
C1034 C1037 1.499 . S
C1035 H1009 0.950 . S
C1035 C1034 1.414 . S
C1035 C1036 1.374 . S
C1036 H1010 0.950 . S
C1036 C1032 1.385 . S
C1036 C1035 1.374 . S
C1037 C1034 1.499 . S
C1037 C1038 1.373 . S
C1037 C1039 1.389 . S
C1038 H1011 0.950 . S
C1038 C1024 1.377 . S
C1038 C1037 1.373 . S
C1039 C1023 1.377 . S
C1039 C1037 1.389 . S
C1039 C1040 1.524 . S
C1040 C1039 1.524 . S
C1040 C1041 1.397 . S
C1040 C1045 1.363 . S
C1041 H1012 0.950 . S
C1041 C1040 1.397 . S
C1041 C1042 1.334 . S
C1042 H1013 0.950 . S
C1042 C1041 1.334 . S
C1042 C1043 1.287 . S
C1043 C1042 1.287 . S
C1043 C1044 1.524 . S
C1043 H1046 0.999 . S
C1044 H1014 0.950 . S
C1044 C1043 1.524 . S
C1044 C1045 1.415 . S
C1045 H1015 0.950 . S
C1045 C1040 1.363 . S
C1045 C1044 1.415 . S
H1046 C1043 0.999 . S
H1047 C1028 0.913 . S
H1048 C1066 0.951 . S
H1049 C1068 0.951 . S
H1050 C1070 0.950 . S
H1051 C1071 0.950 . S
H1052 C1073 0.950 . S
H1053 C1076 0.950 . S
H1054 C1077 0.950 . S
H1055 C1079 0.950 . S
H1056 C1080 0.950 . S
H1057 C1081 0.950 1_545 S
H1058 C1083 0.951 . S
H1059 C1085 0.950 . S
H1060 C1086 0.950 . S
H1061 C1088 0.950 . S
H1062 C1091 0.950 . S
H1063 C1092 0.950 . S
H1064 C1094 0.950 . S
H1065 C1095 0.950 1_556 S
C1066 H1048 0.951 . S
C1066 C1067 1.366 . S
C1066 C1068 1.388 . S
C1067 C1066 1.366 . S
C1067 C1071 1.385 . S
C1068 H1049 0.951 . S
C1068 C1066 1.388 . S
C1068 C1069 1.366 . S
C1069 C1068 1.366 . S
C1069 C1070 1.414 . S
C1069 C1072 1.499 . S
C1070 H1050 0.950 . S
C1070 C1069 1.414 . S
C1070 C1071 1.374 . S
C1071 H1051 0.950 . S
C1071 C1067 1.385 . S
C1071 C1070 1.374 . S
C1072 C1069 1.499 . S
C1072 C1073 1.373 . S
C1072 C1074 1.389 . S
C1073 H1052 0.950 . S
C1073 C1072 1.373 . S
C1073 C1089 1.377 . S
C1074 C1072 1.389 . S
C1074 C1075 1.524 . S
C1074 C1088 1.377 . S
C1075 C1074 1.524 . S
C1075 C1076 1.397 . S
C1075 C1080 1.363 . S
C1076 H1053 0.950 . S
C1076 C1075 1.397 . S
C1076 C1077 1.334 . S
C1077 H1054 0.950 . S
C1077 C1076 1.334 . S
C1077 C1078 1.287 . S
C1078 C1077 1.287 . S
C1078 C1079 1.524 . S
C1078 H1097 0.913 . S
C1079 H1055 0.950 . S
C1079 C1078 1.524 . S
C1079 C1080 1.415 . S
C1080 H1056 0.950 . S
C1080 C1075 1.363 . S
C1080 C1079 1.415 . S
C1081 H1057 0.950 1_565 S
C1081 C1082 1.366 . S
C1081 C1083 1.388 1_554 S
C1082 C1081 1.366 . S
C1082 C1086 1.385 . S
C1083 H1058 0.951 . S
C1083 C1081 1.388 1_556 S
C1083 C1084 1.366 . S
C1084 C1083 1.366 . S
C1084 C1085 1.414 . S
C1084 C1087 1.499 . S
C1085 H1059 0.950 . S
C1085 C1084 1.414 . S
C1085 C1086 1.374 1_556 S
C1086 H1060 0.950 . S
C1086 C1082 1.385 . S
C1086 C1085 1.374 1_554 S
C1087 C1084 1.499 . S
C1087 C1088 1.373 . S
C1087 C1089 1.389 . S
C1088 H1061 0.950 . S
C1088 C1074 1.377 . S
C1088 C1087 1.373 . S
C1089 C1073 1.377 . S
C1089 C1087 1.389 . S
C1089 C1090 1.524 1_556 S
C1090 C1089 1.524 1_554 S
C1090 C1091 1.397 . S
C1090 C1095 1.363 . S
C1091 H1062 0.950 . S
C1091 C1090 1.397 . S
C1091 C1092 1.334 . S
C1092 H1063 0.950 . S
C1092 C1091 1.334 . S
C1092 C1093 1.287 . S
C1093 C1092 1.287 . S
C1093 C1094 1.524 . S
C1093 H1096 0.999 . S
C1094 H1064 0.950 . S
C1094 C1093 1.524 . S
C1094 C1095 1.415 . S
C1095 H1065 0.950 1_554 S
C1095 C1090 1.363 . S
C1095 C1094 1.415 . S
H1096 C1093 0.999 . S
H1097 C1078 0.913 . S
H1098 C1116 0.951 . S
H1099 C1118 0.951 . S
H1100 C1120 0.950 . S
H1101 C1121 0.950 . S
H1102 C1123 0.950 . S
H1103 C1126 0.950 . S
H1104 C1127 0.950 . S
H1105 C1129 0.950 . S
H1106 C1130 0.950 . S
H1107 C1131 0.951 . S
H1108 C1133 0.951 . S
H1109 C1135 0.950 . S
H1110 C1136 0.950 1_455 S
H1111 C1138 0.950 . S
H1112 C1141 0.950 . S
H1113 C1142 0.950 . S
H1114 C1144 0.950 . S
H1115 C1145 0.950 . S
C1116 H1098 0.951 . S
C1116 C1117 1.366 . S
C1116 C1118 1.388 . S
C1117 C1116 1.366 . S
C1117 C1121 1.385 . S
C1118 H1099 0.951 . S
C1118 C1116 1.388 . S
C1118 C1119 1.366 . S
C1119 C1118 1.366 . S
C1119 C1120 1.414 . S
C1119 C1122 1.499 . S
C1120 H1100 0.950 . S
C1120 C1119 1.414 . S
C1120 C1121 1.374 . S
C1121 H1101 0.950 . S
C1121 C1117 1.385 . S
C1121 C1120 1.374 . S
C1122 C1119 1.499 . S
C1122 C1123 1.373 . S
C1122 C1124 1.389 . S
C1123 H1102 0.950 . S
C1123 C1122 1.373 . S
C1123 C1139 1.377 . S
C1124 C1122 1.389 . S
C1124 C1125 1.524 . S
C1124 C1138 1.377 . S
C1125 C1124 1.524 . S
C1125 C1126 1.397 . S
C1125 C1130 1.363 . S
C1126 H1103 0.950 . S
C1126 C1125 1.397 . S
C1126 C1127 1.334 . S
C1127 H1104 0.950 . S
C1127 C1126 1.334 . S
C1127 C1128 1.287 . S
C1128 C1127 1.287 . S
C1128 C1129 1.524 . S
C1128 H1147 0.913 . S
C1129 H1105 0.950 . S
C1129 C1128 1.524 . S
C1129 C1130 1.415 . S
C1130 H1106 0.950 . S
C1130 C1125 1.363 . S
C1130 C1129 1.415 . S
C1131 H1107 0.951 . S
C1131 C1132 1.366 . S
C1131 C1133 1.388 . S
C1132 C1131 1.366 . S
C1132 C1136 1.385 . S
C1133 H1108 0.951 . S
C1133 C1131 1.388 . S
C1133 C1134 1.366 . S
C1134 C1133 1.366 . S
C1134 C1135 1.414 . S
C1134 C1137 1.499 . S
C1135 H1109 0.950 . S
C1135 C1134 1.414 . S
C1135 C1136 1.374 . S
C1136 H1110 0.950 1_655 S
C1136 C1132 1.385 . S
C1136 C1135 1.374 . S
C1137 C1134 1.499 . S
C1137 C1138 1.373 . S
C1137 C1139 1.389 . S
C1138 H1111 0.950 . S
C1138 C1124 1.377 . S
C1138 C1137 1.373 . S
C1139 C1123 1.377 . S
C1139 C1137 1.389 . S
C1139 C1140 1.524 . S
C1140 C1139 1.524 . S
C1140 C1141 1.397 . S
C1140 C1145 1.363 . S
C1141 H1112 0.950 . S
C1141 C1140 1.397 . S
C1141 C1142 1.334 . S
C1142 H1113 0.950 . S
C1142 C1141 1.334 . S
C1142 C1143 1.287 . S
C1143 C1142 1.287 . S
C1143 C1144 1.524 . S
C1143 H1146 0.999 . S
C1144 H1114 0.950 . S
C1144 C1143 1.524 . S
C1144 C1145 1.415 . S
C1145 H1115 0.950 . S
C1145 C1140 1.363 . S
C1145 C1144 1.415 . S
H1146 C1143 0.999 . S
H1147 C1128 0.913 . S
H1148 C1166 0.951 . S
H1149 C1168 0.951 . S
H1150 C1170 0.950 . S
H1151 C1171 0.950 . S
H1152 C1173 0.950 . S
H1153 C1176 0.950 . S
H1154 C1177 0.950 . S
H1155 C1179 0.950 . S
H1156 C1180 0.950 . S
H1157 C1181 0.951 . S
H1158 C1183 0.951 . S
H1159 C1185 0.950 . S
H1160 C1186 0.950 . S
H1161 C1188 0.950 . S
H1162 C1191 0.950 . S
H1163 C1192 0.950 . S
H1164 C1194 0.950 . S
H1165 C1195 0.950 . S
C1166 H1148 0.951 . S
C1166 C1167 1.366 . S
C1166 C1168 1.388 . S
C1167 C1166 1.366 . S
C1167 C1171 1.385 . S
C1168 H1149 0.951 . S
C1168 C1166 1.388 . S
C1168 C1169 1.366 . S
C1169 C1168 1.366 . S
C1169 C1170 1.414 . S
C1169 C1172 1.499 . S
C1170 H1150 0.950 . S
C1170 C1169 1.414 . S
C1170 C1171 1.374 . S
C1171 H1151 0.950 . S
C1171 C1167 1.385 . S
C1171 C1170 1.374 . S
C1172 C1169 1.499 . S
C1172 C1173 1.373 . S
C1172 C1174 1.389 . S
C1173 H1152 0.950 . S
C1173 C1172 1.373 . S
C1173 C1189 1.377 . S
C1174 C1172 1.389 . S
C1174 C1175 1.524 . S
C1174 C1188 1.377 . S
C1175 C1174 1.524 . S
C1175 C1176 1.397 . S
C1175 C1180 1.363 . S
C1176 H1153 0.950 . S
C1176 C1175 1.397 . S
C1176 C1177 1.334 . S
C1177 H1154 0.950 . S
C1177 C1176 1.334 . S
C1177 C1178 1.287 . S
C1178 C1177 1.287 . S
C1178 C1179 1.524 . S
C1178 H1197 0.913 . S
C1179 H1155 0.950 . S
C1179 C1178 1.524 . S
C1179 C1180 1.415 . S
C1180 H1156 0.950 . S
C1180 C1175 1.363 . S
C1180 C1179 1.415 . S
C1181 H1157 0.951 . S
C1181 C1182 1.366 . S
C1181 C1183 1.388 . S
C1182 C1181 1.366 . S
C1182 C1186 1.385 . S
C1183 H1158 0.951 . S
C1183 C1181 1.388 . S
C1183 C1184 1.366 . S
C1184 C1183 1.366 . S
C1184 C1185 1.414 . S
C1184 C1187 1.499 . S
C1185 H1159 0.950 . S
C1185 C1184 1.414 . S
C1185 C1186 1.374 . S
C1186 H1160 0.950 . S
C1186 C1182 1.385 . S
C1186 C1185 1.374 . S
C1187 C1184 1.499 . S
C1187 C1188 1.373 . S
C1187 C1189 1.389 . S
C1188 H1161 0.950 . S
C1188 C1174 1.377 . S
C1188 C1187 1.373 . S
C1189 C1173 1.377 . S
C1189 C1187 1.389 . S
C1189 C1190 1.524 . S
C1190 C1189 1.524 . S
C1190 C1191 1.397 . S
C1190 C1195 1.363 . S
C1191 H1162 0.950 . S
C1191 C1190 1.397 . S
C1191 C1192 1.334 . S
C1192 H1163 0.950 . S
C1192 C1191 1.334 . S
C1192 C1193 1.287 . S
C1193 C1192 1.287 . S
C1193 C1194 1.524 . S
C1193 H1196 0.999 . S
C1194 H1164 0.950 . S
C1194 C1193 1.524 . S
C1194 C1195 1.415 . S
C1195 H1165 0.950 . S
C1195 C1190 1.363 . S
C1195 C1194 1.415 . S
H1196 C1193 0.999 . S
H1197 C1178 0.913 . S
H1198 C1216 0.951 . S
H1199 C1218 0.951 . S
H1200 C1220 0.950 . S
H1201 C1221 0.950 . S
H1202 C1223 0.950 . S
H1203 C1226 0.950 . S
H1204 C1227 0.950 . S
H1205 C1229 0.950 . S
H1206 C1230 0.950 . S
H1207 C1231 0.951 . S
H1208 C1233 0.951 . S
H1209 C1235 0.950 . S
H1210 C1236 0.950 . S
H1211 C1238 0.950 . S
H1212 C1241 0.950 . S
H1213 C1242 0.950 . S
H1214 C1244 0.950 . S
H1215 C1245 0.950 . S
C1216 H1198 0.951 . S
C1216 C1217 1.366 . S
C1216 C1218 1.388 . S
C1217 C1216 1.366 . S
C1217 C1221 1.385 . S
C1218 H1199 0.951 . S
C1218 C1216 1.388 . S
C1218 C1219 1.366 . S
C1219 C1218 1.366 . S
C1219 C1220 1.414 . S
C1219 C1222 1.499 . S
C1220 H1200 0.950 . S
C1220 C1219 1.414 . S
C1220 C1221 1.374 . S
C1221 H1201 0.950 . S
C1221 C1217 1.385 . S
C1221 C1220 1.374 . S
C1222 C1219 1.499 . S
C1222 C1223 1.373 . S
C1222 C1224 1.389 . S
C1223 H1202 0.950 . S
C1223 C1222 1.373 . S
C1223 C1239 1.377 . S
C1224 C1222 1.389 . S
C1224 C1225 1.524 . S
C1224 C1238 1.377 . S
C1225 C1224 1.524 . S
C1225 C1226 1.397 . S
C1225 C1230 1.363 . S
C1226 H1203 0.950 . S
C1226 C1225 1.397 . S
C1226 C1227 1.334 . S
C1227 H1204 0.950 . S
C1227 C1226 1.334 . S
C1227 C1228 1.287 . S
C1228 C1227 1.287 . S
C1228 C1229 1.524 . S
C1228 H1247 0.913 . S
C1229 H1205 0.950 . S
C1229 C1228 1.524 . S
C1229 C1230 1.415 . S
C1230 H1206 0.950 . S
C1230 C1225 1.363 . S
C1230 C1229 1.415 . S
C1231 H1207 0.951 . S
C1231 C1232 1.366 . S
C1231 C1233 1.388 . S
C1232 C1231 1.366 . S
C1232 C1236 1.385 . S
C1233 H1208 0.951 . S
C1233 C1231 1.388 . S
C1233 C1234 1.366 . S
C1234 C1233 1.366 . S
C1234 C1235 1.414 . S
C1234 C1237 1.499 . S
C1235 H1209 0.950 . S
C1235 C1234 1.414 . S
C1235 C1236 1.374 . S
C1236 H1210 0.950 . S
C1236 C1232 1.385 . S
C1236 C1235 1.374 . S
C1237 C1234 1.499 . S
C1237 C1238 1.373 . S
C1237 C1239 1.389 . S
C1238 H1211 0.950 . S
C1238 C1224 1.377 . S
C1238 C1237 1.373 . S
C1239 C1223 1.377 . S
C1239 C1237 1.389 . S
C1239 C1240 1.524 . S
C1240 C1239 1.524 . S
C1240 C1241 1.397 . S
C1240 C1245 1.363 . S
C1241 H1212 0.950 . S
C1241 C1240 1.397 . S
C1241 C1242 1.334 . S
C1242 H1213 0.950 . S
C1242 C1241 1.334 . S
C1242 C1243 1.287 . S
C1243 C1242 1.287 . S
C1243 C1244 1.524 . S
C1243 H1246 0.999 . S
C1244 H1214 0.950 . S
C1244 C1243 1.524 . S
C1244 C1245 1.415 . S
C1245 H1215 0.950 . S
C1245 C1240 1.363 . S
C1245 C1244 1.415 . S
H1246 C1243 0.999 . S
H1247 C1228 0.913 . S
H1248 C1266 0.951 . S
H1249 C1268 0.951 . S
H1250 C1270 0.950 . S
H1251 C1271 0.950 . S
H1252 C1273 0.950 . S
H1253 C1276 0.950 . S
H1254 C1277 0.950 . S
H1255 C1279 0.950 . S
H1256 C1280 0.950 . S
H1257 C1281 0.951 . S
H1258 C1283 0.951 . S
H1259 C1285 0.950 . S
H1260 C1286 0.950 . S
H1261 C1288 0.950 . S
H1262 C1291 0.950 . S
H1263 C1292 0.950 . S
H1264 C1294 0.950 . S
H1265 C1295 0.950 . S
C1266 H1248 0.951 . S
C1266 C1267 1.366 . S
C1266 C1268 1.388 . S
C1267 C1266 1.366 . S
C1267 C1271 1.385 . S
C1268 H1249 0.951 . S
C1268 C1266 1.388 . S
C1268 C1269 1.366 . S
C1269 C1268 1.366 . S
C1269 C1270 1.414 . S
C1269 C1272 1.499 . S
C1270 H1250 0.950 . S
C1270 C1269 1.414 . S
C1270 C1271 1.374 . S
C1271 H1251 0.950 . S
C1271 C1267 1.385 . S
C1271 C1270 1.374 . S
C1272 C1269 1.499 . S
C1272 C1273 1.373 . S
C1272 C1274 1.389 . S
C1273 H1252 0.950 . S
C1273 C1272 1.373 . S
C1273 C1289 1.377 . S
C1274 C1272 1.389 . S
C1274 C1275 1.524 . S
C1274 C1288 1.377 . S
C1275 C1274 1.524 . S
C1275 C1276 1.397 . S
C1275 C1280 1.363 . S
C1276 H1253 0.950 . S
C1276 C1275 1.397 . S
C1276 C1277 1.334 . S
C1277 H1254 0.950 . S
C1277 C1276 1.334 . S
C1277 C1278 1.287 . S
C1278 C1277 1.287 . S
C1278 C1279 1.524 . S
C1278 H1297 0.913 . S
C1279 H1255 0.950 . S
C1279 C1278 1.524 . S
C1279 C1280 1.415 . S
C1280 H1256 0.950 . S
C1280 C1275 1.363 . S
C1280 C1279 1.415 . S
C1281 H1257 0.951 . S
C1281 C1282 1.366 . S
C1281 C1283 1.388 . S
C1282 C1281 1.366 . S
C1282 C1286 1.385 . S
C1283 H1258 0.951 . S
C1283 C1281 1.388 . S
C1283 C1284 1.366 . S
C1284 C1283 1.366 . S
C1284 C1285 1.414 . S
C1284 C1287 1.499 . S
C1285 H1259 0.950 . S
C1285 C1284 1.414 . S
C1285 C1286 1.374 . S
C1286 H1260 0.950 . S
C1286 C1282 1.385 . S
C1286 C1285 1.374 . S
C1287 C1284 1.499 . S
C1287 C1288 1.373 . S
C1287 C1289 1.389 . S
C1288 H1261 0.950 . S
C1288 C1274 1.377 . S
C1288 C1287 1.373 . S
C1289 C1273 1.377 . S
C1289 C1287 1.389 . S
C1289 C1290 1.524 . S
C1290 C1289 1.524 . S
C1290 C1291 1.397 . S
C1290 C1295 1.363 . S
C1291 H1262 0.950 . S
C1291 C1290 1.397 . S
C1291 C1292 1.334 . S
C1292 H1263 0.950 . S
C1292 C1291 1.334 . S
C1292 C1293 1.287 . S
C1293 C1292 1.287 . S
C1293 C1294 1.524 . S
C1293 H1296 0.999 . S
C1294 H1264 0.950 . S
C1294 C1293 1.524 . S
C1294 C1295 1.415 . S
C1295 H1265 0.950 . S
C1295 C1290 1.363 . S
C1295 C1294 1.415 . S
H1296 C1293 0.999 . S
H1297 C1278 0.913 . S
H1298 C1316 0.951 . S
H1299 C1318 0.951 . S
H1300 C1320 0.950 . S
H1301 C1321 0.950 . S
H1302 C1323 0.950 . S
H1303 C1326 0.950 . S
H1304 C1327 0.950 . S
H1305 C1329 0.950 . S
H1306 C1330 0.950 . S
H1307 C1331 0.951 . S
H1308 C1333 0.951 . S
H1309 C1335 0.950 . S
H1310 C1336 0.950 . S
H1311 C1338 0.950 . S
H1312 C1341 0.950 . S
H1313 C1342 0.950 . S
H1314 C1344 0.950 . S
H1315 C1345 0.950 . S
C1316 H1298 0.951 . S
C1316 C1317 1.366 . S
C1316 C1318 1.388 . S
C1317 C1316 1.366 . S
C1317 C1321 1.385 . S
C1318 H1299 0.951 . S
C1318 C1316 1.388 . S
C1318 C1319 1.366 . S
C1319 C1318 1.366 . S
C1319 C1320 1.414 . S
C1319 C1322 1.499 . S
C1320 H1300 0.950 . S
C1320 C1319 1.414 . S
C1320 C1321 1.374 . S
C1321 H1301 0.950 . S
C1321 C1317 1.385 . S
C1321 C1320 1.374 . S
C1322 C1319 1.499 . S
C1322 C1323 1.373 . S
C1322 C1324 1.389 . S
C1323 H1302 0.950 . S
C1323 C1322 1.373 . S
C1323 C1339 1.377 . S
C1324 C1322 1.389 . S
C1324 C1325 1.524 . S
C1324 C1338 1.377 . S
C1325 C1324 1.524 . S
C1325 C1326 1.397 . S
C1325 C1330 1.363 . S
C1326 H1303 0.950 . S
C1326 C1325 1.397 . S
C1326 C1327 1.334 . S
C1327 H1304 0.950 . S
C1327 C1326 1.334 . S
C1327 C1328 1.287 . S
C1328 C1327 1.287 . S
C1328 C1329 1.524 . S
C1328 H1347 0.913 . S
C1329 H1305 0.950 . S
C1329 C1328 1.524 . S
C1329 C1330 1.415 . S
C1330 H1306 0.950 . S
C1330 C1325 1.363 . S
C1330 C1329 1.415 . S
C1331 H1307 0.951 . S
C1331 C1332 1.366 . S
C1331 C1333 1.388 . S
C1332 C1331 1.366 . S
C1332 C1336 1.385 . S
C1333 H1308 0.951 . S
C1333 C1331 1.388 . S
C1333 C1334 1.366 . S
C1334 C1333 1.366 . S
C1334 C1335 1.414 . S
C1334 C1337 1.499 . S
C1335 H1309 0.950 . S
C1335 C1334 1.414 . S
C1335 C1336 1.374 . S
C1336 H1310 0.950 . S
C1336 C1332 1.385 . S
C1336 C1335 1.374 . S
C1337 C1334 1.499 . S
C1337 C1338 1.373 . S
C1337 C1339 1.389 . S
C1338 H1311 0.950 . S
C1338 C1324 1.377 . S
C1338 C1337 1.373 . S
C1339 C1323 1.377 . S
C1339 C1337 1.389 . S
C1339 C1340 1.524 . S
C1340 C1339 1.524 . S
C1340 C1341 1.397 . S
C1340 C1345 1.363 . S
C1341 H1312 0.950 . S
C1341 C1340 1.397 . S
C1341 C1342 1.334 . S
C1342 H1313 0.950 . S
C1342 C1341 1.334 . S
C1342 C1343 1.287 . S
C1343 C1342 1.287 . S
C1343 C1344 1.524 . S
C1343 H1346 0.999 . S
C1344 H1314 0.950 . S
C1344 C1343 1.524 . S
C1344 C1345 1.415 . S
C1345 H1315 0.950 . S
C1345 C1340 1.363 . S
C1345 C1344 1.415 . S
H1346 C1343 0.999 . S
H1347 C1328 0.913 . S
H1348 C1366 0.951 . S
H1349 C1368 0.951 . S
H1350 C1370 0.950 . S
H1351 C1371 0.950 . S
H1352 C1373 0.950 . S
H1353 C1376 0.950 . S
H1354 C1377 0.950 . S
H1355 C1379 0.950 . S
H1356 C1380 0.950 . S
H1357 C1381 0.951 . S
H1358 C1383 0.951 . S
H1359 C1385 0.950 . S
H1360 C1386 0.950 . S
H1361 C1388 0.950 . S
H1362 C1391 0.950 . S
H1363 C1392 0.950 . S
H1364 C1394 0.950 . S
H1365 C1395 0.950 . S
C1366 H1348 0.951 . S
C1366 C1367 1.366 . S
C1366 C1368 1.388 . S
C1367 C1366 1.366 . S
C1367 C1371 1.385 . S
C1368 H1349 0.951 . S
C1368 C1366 1.388 . S
C1368 C1369 1.366 . S
C1369 C1368 1.366 . S
C1369 C1370 1.414 . S
C1369 C1372 1.499 . S
C1370 H1350 0.950 . S
C1370 C1369 1.414 . S
C1370 C1371 1.374 . S
C1371 H1351 0.950 . S
C1371 C1367 1.385 . S
C1371 C1370 1.374 . S
C1372 C1369 1.499 . S
C1372 C1373 1.373 . S
C1372 C1374 1.389 . S
C1373 H1352 0.950 . S
C1373 C1372 1.373 . S
C1373 C1389 1.377 . S
C1374 C1372 1.389 . S
C1374 C1375 1.524 . S
C1374 C1388 1.377 . S
C1375 C1374 1.524 . S
C1375 C1376 1.397 . S
C1375 C1380 1.363 . S
C1376 H1353 0.950 . S
C1376 C1375 1.397 . S
C1376 C1377 1.334 . S
C1377 H1354 0.950 . S
C1377 C1376 1.334 . S
C1377 C1378 1.287 . S
C1378 C1377 1.287 . S
C1378 C1379 1.524 . S
C1378 H1397 0.913 . S
C1379 H1355 0.950 . S
C1379 C1378 1.524 . S
C1379 C1380 1.415 . S
C1380 H1356 0.950 . S
C1380 C1375 1.363 . S
C1380 C1379 1.415 . S
C1381 H1357 0.951 . S
C1381 C1382 1.366 . S
C1381 C1383 1.388 . S
C1382 C1381 1.366 . S
C1382 C1386 1.385 . S
C1383 H1358 0.951 . S
C1383 C1381 1.388 . S
C1383 C1384 1.366 . S
C1384 C1383 1.366 . S
C1384 C1385 1.414 . S
C1384 C1387 1.499 . S
C1385 H1359 0.950 . S
C1385 C1384 1.414 . S
C1385 C1386 1.374 . S
C1386 H1360 0.950 . S
C1386 C1382 1.385 . S
C1386 C1385 1.374 . S
C1387 C1384 1.499 . S
C1387 C1388 1.373 . S
C1387 C1389 1.389 . S
C1388 H1361 0.950 . S
C1388 C1374 1.377 . S
C1388 C1387 1.373 . S
C1389 C1373 1.377 . S
C1389 C1387 1.389 . S
C1389 C1390 1.524 . S
C1390 C1389 1.524 . S
C1390 C1391 1.397 . S
C1390 C1395 1.363 . S
C1391 H1362 0.950 . S
C1391 C1390 1.397 . S
C1391 C1392 1.334 . S
C1392 H1363 0.950 . S
C1392 C1391 1.334 . S
C1392 C1393 1.287 . S
C1393 C1392 1.287 . S
C1393 C1394 1.524 . S
C1393 H1396 0.999 . S
C1394 H1364 0.950 . S
C1394 C1393 1.524 . S
C1394 C1395 1.415 . S
C1395 H1365 0.950 . S
C1395 C1390 1.363 . S
C1395 C1394 1.415 . S
H1396 C1393 0.999 . S
H1397 C1378 0.913 . S
H1398 C1416 0.951 . S
H1399 C1418 0.951 . S
H1400 C1420 0.950 . S
H1401 C1421 0.950 . S
H1402 C1423 0.950 . S
H1403 C1426 0.950 . S
H1404 C1427 0.950 . S
H1405 C1429 0.950 . S
H1406 C1430 0.950 . S
H1407 C1431 0.951 . S
H1408 C1433 0.951 . S
H1409 C1435 0.950 . S
H1410 C1436 0.950 . S
H1411 C1438 0.950 . S
H1412 C1441 0.950 . S
H1413 C1442 0.950 . S
H1414 C1444 0.950 . S
H1415 C1445 0.950 . S
C1416 H1398 0.951 . S
C1416 C1417 1.366 . S
C1416 C1418 1.388 . S
C1417 C1416 1.366 . S
C1417 C1421 1.385 . S
C1418 H1399 0.951 . S
C1418 C1416 1.388 . S
C1418 C1419 1.366 . S
C1419 C1418 1.366 . S
C1419 C1420 1.414 . S
C1419 C1422 1.499 . S
C1420 H1400 0.950 . S
C1420 C1419 1.414 . S
C1420 C1421 1.374 . S
C1421 H1401 0.950 . S
C1421 C1417 1.385 . S
C1421 C1420 1.374 . S
C1422 C1419 1.499 . S
C1422 C1423 1.373 . S
C1422 C1424 1.389 . S
C1423 H1402 0.950 . S
C1423 C1422 1.373 . S
C1423 C1439 1.377 . S
C1424 C1422 1.389 . S
C1424 C1425 1.524 . S
C1424 C1438 1.377 . S
C1425 C1424 1.524 . S
C1425 C1426 1.397 . S
C1425 C1430 1.363 . S
C1426 H1403 0.950 . S
C1426 C1425 1.397 . S
C1426 C1427 1.334 . S
C1427 H1404 0.950 . S
C1427 C1426 1.334 . S
C1427 C1428 1.287 . S
C1428 C1427 1.287 . S
C1428 C1429 1.524 . S
C1428 H1447 0.913 . S
C1429 H1405 0.950 . S
C1429 C1428 1.524 . S
C1429 C1430 1.415 . S
C1430 H1406 0.950 . S
C1430 C1425 1.363 . S
C1430 C1429 1.415 . S
C1431 H1407 0.951 . S
C1431 C1432 1.366 . S
C1431 C1433 1.388 . S
C1432 C1431 1.366 . S
C1432 C1436 1.385 . S
C1433 H1408 0.951 . S
C1433 C1431 1.388 . S
C1433 C1434 1.366 . S
C1434 C1433 1.366 . S
C1434 C1435 1.414 . S
C1434 C1437 1.499 . S
C1435 H1409 0.950 . S
C1435 C1434 1.414 . S
C1435 C1436 1.374 . S
C1436 H1410 0.950 . S
C1436 C1432 1.385 . S
C1436 C1435 1.374 . S
C1437 C1434 1.499 . S
C1437 C1438 1.373 . S
C1437 C1439 1.389 . S
C1438 H1411 0.950 . S
C1438 C1424 1.377 . S
C1438 C1437 1.373 . S
C1439 C1423 1.377 . S
C1439 C1437 1.389 . S
C1439 C1440 1.524 . S
C1440 C1439 1.524 . S
C1440 C1441 1.397 . S
C1440 C1445 1.363 . S
C1441 H1412 0.950 . S
C1441 C1440 1.397 . S
C1441 C1442 1.334 . S
C1442 H1413 0.950 . S
C1442 C1441 1.334 . S
C1442 C1443 1.287 . S
C1443 C1442 1.287 . S
C1443 C1444 1.524 . S
C1443 H1446 0.999 . S
C1444 H1414 0.950 . S
C1444 C1443 1.524 . S
C1444 C1445 1.415 . S
C1445 H1415 0.950 . S
C1445 C1440 1.363 . S
C1445 C1444 1.415 . S
H1446 C1443 0.999 . S
H1447 C1428 0.913 . S
C267 C4 0.882 . S
C282 C92 0.888 . S
C317 C16 1.372 . S
C332 C153 1.405 . S
C382 C191 2.032 . S
C367 C32 2.069 . S
C417 C43 2.193 . S
C432 C231 2.149 1_655 S
C482 C151 1.843 . S
C467 C5 1.843 . S
C532 C119 1.663 . S
C517 C21 1.613 . S
C582 C228 1.582 . S
C567 C27 1.585 . S
C632 C188 1.609 . S
C617 C37 1.635 . S
C667 C10 0.922 . S
C682 C233 0.923 . S
C732 C148 2.632 . S
C717 C26 2.630 . S
C767 C38 1.820 . S
C782 C90 1.793 . S
C817 C15 1.523 . S
C832 C193 1.558 . S
C882 C113 1.082 . S
C867 C48 1.071 . S
C917 C59 1.096 . S
C932 C132 1.106 . S
C967 C76 2.427 . S
C982 C170 2.364 . S
C1017 C87 1.907 . S
C1032 C210 1.891 . S
C1067 C54 0.954 . S
C1082 C130 0.956 1_565 S
C1132 C108 2.482 . S
C1117 C60 2.427 . S
C1182 C239 1.460 . S
C1167 C71 1.458 . S
C1232 C199 1.719 . S
C1217 C82 1.724 . S
C1267 C49 1.246 . S
C1282 C212 1.275 . S
C1332 C159 2.015 . S
C1317 C70 2.019 . S
C1382 C111 2.324 . S
C1367 C81 2.368 . S
C1417 C65 1.272 . S
C1432 C172 1.297 . S
