# Generated by pormake.
# Topology rtl, (3,6)-cn, num edge types: 1
# Building blocks:
#     Node 0, Type 0, BuildingBlock: MIDCAF_clean_linker_0, # of connection points: 3
#     Node 1, Type 0, BuildingBlock: MIDCAF_clean_linker_0, # of connection points: 3
#     Node 2, Type 0, BuildingBlock: MIDCAF_clean_linker_0, # of connection points: 3
#     Node 3, Type 0, BuildingBlock: MIDCAF_clean_linker_0, # of connection points: 3
#     Node 4, Type 1, BuildingBlock: LEVNOQ01_clean_sbu_1, # of connection points: 6
#     Node 5, Type 1, BuildingBlock: LEVNOQ01_clean_sbu_1, # of connection points: 6
#     Edge 6, Type (0, 1), BuildingBlock: FUNLAD_clean_linker_1, # of connection points: 2
#     Edge 7, Type (0, 1), BuildingBlock: FUNLAD_clean_linker_1, # of connection points: 2
#     Edge 8, Type (0, 1), BuildingBlock: FUNLAD_clean_linker_1, # of connection points: 2
#     Edge 9, Type (0, 1), BuildingBlock: FUNLAD_clean_linker_1, # of connection points: 2
#     Edge 10, Type (0, 1), BuildingBlock: FUNLAD_clean_linker_1, # of connection points: 2
#     Edge 11, Type (0, 1), BuildingBlock: FUNLAD_clean_linker_1, # of connection points: 2
#     Edge 12, Type (0, 1), BuildingBlock: FUNLAD_clean_linker_1, # of connection points: 2
#     Edge 13, Type (0, 1), BuildingBlock: FUNLAD_clean_linker_1, # of connection points: 2
#     Edge 14, Type (0, 1), BuildingBlock: FUNLAD_clean_linker_1, # of connection points: 2
#     Edge 15, Type (0, 1), BuildingBlock: FUNLAD_clean_linker_1, # of connection points: 2
#     Edge 16, Type (0, 1), BuildingBlock: FUNLAD_clean_linker_1, # of connection points: 2
#     Edge 17, Type (0, 1), BuildingBlock: FUNLAD_clean_linker_1, # of connection points: 2
# Relax obj value: 0.027
# Max RMSD: 0.061
# Mean RMSD: 0.047
data_MOF--net-rtl--node1-LEVNOQ01_clean_sbu_1--node2-MIDCAF_clean_linker_0--edge1-FUNLAD_clean_linker_1
_symmetry_space_group_name_H-M    P1
_symmetry_Int_Tables_number       1
_symmetry_cell_setting            triclinic
loop_
_symmetry_equiv_pos_as_xyz
'x, y, z'
_cell_length_a     38.627781
_cell_length_b     43.84039
_cell_length_c     30.851701
_cell_angle_alpha  90.271149
_cell_angle_beta   97.842868
_cell_angle_gamma 90.376206
loop_
_atom_site_label
_atom_site_type_symbol
_atom_site_fract_x
_atom_site_fract_y
_atom_site_fract_z
_atom_type_partial_charge
C0 C 0.20708 0.95353 0.18877 0.0
C1 C 0.21503 0.94057 0.23035 0.0
C2 C 0.24088 0.91788 0.23666 0.0
C3 C 0.25772 0.90801 0.20166 0.0
H4 H 0.31913 0.83616 0.15949 0.0
H5 H 0.35552 0.79078 0.16128 0.0
H6 H 0.37381 0.80806 0.0285 0.0
H7 H 0.33799 0.8534 0.02676 0.0
H8 H 0.28551 0.89228 0.96634 0.0
H9 H 0.25827 0.90664 0.89338 0.0
H10 H 0.18711 0.9653 0.95044 0.0
H11 H 0.21393 0.95095 0.02332 0.0
H12 H 0.21646 0.95419 0.12234 0.0
H13 H 0.1872 0.97091 0.18287 0.0
H14 H 0.24728 0.90682 0.26795 0.0
H15 H 0.27687 0.89002 0.20729 0.0
N16 N 0.28805 0.88564 0.12554 0.0
N17 N 0.28944 0.88629 0.04972 0.0
N18 N 0.25344 0.92019 0.08102 0.0
C19 C 0.30082 0.87443 0.08966 0.0
C20 C 0.26579 0.90912 0.04504 0.0
C21 C 0.26446 0.90879 0.1214 0.0
C22 C 0.32521 0.84829 0.09284 0.0
C23 C 0.3311 0.83038 0.1308 0.0
C24 C 0.35172 0.80413 0.13164 0.0
C25 C 0.36688 0.7954 0.09451 0.0
C26 C 0.36223 0.81407 0.05744 0.0
C27 C 0.34155 0.84006 0.05647 0.0
C28 C 0.25155 0.92005 0.00083 0.0
C29 C 0.26411 0.90831 0.96345 0.0
C30 C 0.24857 0.9165 0.92162 0.0
C31 C 0.21991 0.93622 0.91624 0.0
C32 C 0.20831 0.9491 0.95348 0.0
C33 C 0.22399 0.94109 0.99534 0.0
C34 C 0.24901 0.92055 0.15971 0.0
C35 C 0.22389 0.94381 0.154 0.0
C36 C 0.66996 0.58557 0.45931 0.0
C37 C 0.68003 0.59335 0.41889 0.0
C38 C 0.71061 0.61085 0.41796 0.0
C39 C 0.73016 0.62102 0.45707 0.0
H40 H 0.81134 0.68191 0.51178 0.0
H41 H 0.85173 0.72525 0.513 0.0
H42 H 0.83751 0.74519 0.64636 0.0
H43 H 0.7979 0.7015 0.64606 0.0
H44 H 0.74799 0.66075 0.69411 0.0
H45 H 0.72316 0.64642 0.75998 0.0
H46 H 0.68395 0.5625 0.69712 0.0
H47 H 0.70841 0.5767 0.63153 0.0
H48 H 0.68061 0.58901 0.52869 0.0
H49 H 0.64647 0.57218 0.46083 0.0
H50 H 0.71869 0.61769 0.38716 0.0
H51 H 0.75306 0.63513 0.45542 0.0
N52 N 0.76202 0.64914 0.53971 0.0
N53 N 0.76617 0.6525 0.61628 0.0
N54 N 0.72862 0.61659 0.57789 0.0
C55 C 0.77628 0.66232 0.57819 0.0
C56 C 0.74256 0.62948 0.6164 0.0
C57 C 0.73802 0.62623 0.53939 0.0
C58 C 0.80128 0.68819 0.57877 0.0
C59 C 0.8169 0.69537 0.54148 0.0
C60 C 0.84006 0.72007 0.54215 0.0
C61 C 0.84732 0.73847 0.57962 0.0
C62 C 0.83191 0.73143 0.61695 0.0
C63 C 0.80937 0.70634 0.61668 0.0
C64 C 0.73026 0.61982 0.6576 0.0
C65 C 0.7346 0.639 0.69464 0.0
C66 C 0.72037 0.63087 0.7323 0.0
C67 C 0.70235 0.60312 0.73407 0.0
C68 C 0.69862 0.58364 0.69737 0.0
C69 C 0.71234 0.59195 0.65952 0.0
C70 C 0.71963 0.61361 0.49768 0.0
C71 C 0.68967 0.59524 0.49821 0.0
C72 C 0.80521 0.07492 0.8847 0.0
C73 C 0.80362 0.09132 0.84565 0.0
C74 C 0.78766 0.12015 0.84281 0.0
C75 C 0.77422 0.1325 0.87895 0.0
H76 H 0.71411 0.20225 0.92049 0.0
H77 H 0.67901 0.24844 0.91614 0.0
H78 H 0.66325 0.23747 0.05102 0.0
H79 H 0.69863 0.19144 0.05585 0.0
H80 H 0.75227 0.14556 0.117 0.0
H81 H 0.78135 0.12731 0.18697 0.0
H82 H 0.84562 0.06812 0.1194 0.0
H83 H 0.81693 0.08632 0.04984 0.0
H84 H 0.79452 0.07416 0.95066 0.0
H85 H 0.81727 0.05264 0.88766 0.0
H86 H 0.78539 0.13311 0.81279 0.0
H87 H 0.76243 0.15488 0.87611 0.0
N88 N 0.74296 0.15394 0.9552 0.0
N89 N 0.74469 0.15408 0.03173 0.0
N90 N 0.77655 0.11802 0.9977 0.0
C91 C 0.73255 0.16615 0.99194 0.0
C92 C 0.76685 0.12996 0.03474 0.0
C93 C 0.7648 0.1297 0.95793 0.0
C94 C 0.70934 0.1931 0.98861 0.0
C95 C 0.70291 0.20941 0.94918 0.0
C96 C 0.6828 0.23587 0.94656 0.0
C97 C 0.66801 0.24622 0.98288 0.0
C98 C 0.67363 0.22961 0.02208 0.0
C99 C 0.69422 0.20339 0.02496 0.0
C100 C 0.78224 0.11757 0.07767 0.0
C101 C 0.77235 0.12842 0.11712 0.0
C102 C 0.78893 0.11772 0.15735 0.0
C103 C 0.81575 0.09596 0.15876 0.0
C104 C 0.82502 0.08479 0.11936 0.0
C105 C 0.80846 0.0953 0.07939 0.0
C106 C 0.77683 0.11636 0.91852 0.0
C107 C 0.79226 0.08735 0.92082 0.0
C108 C 0.2871 0.44291 0.62803 0.0
C109 C 0.28299 0.42301 0.66263 0.0
C110 C 0.26143 0.39726 0.65436 0.0
C111 C 0.24461 0.39109 0.61224 0.0
H112 H 0.16155 0.34256 0.54141 0.0
H113 H 0.12854 0.29519 0.53415 0.0
H114 H 0.1552 0.2826 0.40377 0.0
H115 H 0.18852 0.33035 0.411 0.0
H116 H 0.22117 0.3906 0.36799 0.0
H117 H 0.25064 0.40858 0.30825 0.0
H118 H 0.31847 0.46534 0.39858 0.0
H119 H 0.28919 0.44718 0.45853 0.0
H120 H 0.27526 0.45166 0.55933 0.0
H121 H 0.30418 0.46266 0.63323 0.0
H122 H 0.25804 0.38154 0.68048 0.0
H123 H 0.2287 0.37062 0.60707 0.0
N124 N 0.2121 0.37782 0.52453 0.0
N125 N 0.21391 0.38064 0.44902 0.0
N126 N 0.24774 0.41435 0.49702 0.0
C127 C 0.20111 0.36744 0.48339 0.0
C128 C 0.23708 0.40428 0.45553 0.0
C129 C 0.23534 0.40126 0.5317 0.0
C130 C 0.17776 0.34032 0.47681 0.0
C131 C 0.15991 0.33005 0.51082 0.0
C132 C 0.14053 0.30293 0.50642 0.0
C133 C 0.13863 0.28534 0.46787 0.0
C134 C 0.15586 0.2959 0.43357 0.0
C135 C 0.17493 0.32325 0.43776 0.0
C136 C 0.25278 0.41731 0.41827 0.0
C137 C 0.24205 0.40723 0.37511 0.0
C138 C 0.25887 0.41782 0.34058 0.0
C139 C 0.28679 0.43883 0.34849 0.0
C140 C 0.29693 0.44933 0.39142 0.0
C141 C 0.28009 0.43887 0.42582 0.0
C142 C 0.24972 0.41018 0.5771 0.0
C143 C 0.27073 0.43646 0.58559 0.0
O144 O 0.98329 0.05368 0.63322 0.0
Mg145 Mg 0.03394 0.05441 0.61461 0.0
O146 O 0.96107 0.0204 0.58208 0.0
Mg147 Mg 0.0049 0.00799 0.54014 0.0
O148 O 0.03 0.05593 0.54839 0.0
O149 O 0.05314 0.09379 0.59178 0.0
O150 O 0.04999 0.99557 0.49725 0.0
O151 O 0.96994 0.03198 0.48314 0.0
Mg152 Mg 0.98411 0.96351 0.46639 0.0
O153 O 0.97897 0.95985 0.53204 0.0
O154 O 0.03507 0.95385 0.45767 0.0
O155 O 0.96317 -0.00024 0.42782 0.0
O156 O 0.94439 0.93557 0.47883 0.0
C157 C 0.06402 0.99348 0.63071 0.0
C158 C 0.95798 0.03773 0.61462 0.0
C159 C 0.0441 0.08288 0.55296 0.0
C160 C 0.05721 0.97447 0.471 0.0
C161 C 0.95894 0.02591 0.44337 0.0
C162 C 0.95146 0.94319 0.51947 0.0
O163 O 0.06952 0.02144 0.63941 0.0
O164 O 0.04024 0.98494 0.6 0.0
O165 O 0.55509 0.49589 0.13408 0.0
Mg166 Mg 0.51764 0.46594 0.10324 0.0
O167 O 0.53165 0.5317 0.08942 0.0
Mg168 Mg 0.49158 0.50943 0.03275 0.0
O169 O 0.51674 0.46055 0.0368 0.0
O170 O 0.53645 0.42553 0.08727 0.0
O171 O 0.45056 0.48767 0.97561 0.0
O172 O 0.53465 0.51944 0.98673 0.0
Mg173 Mg 0.46763 0.55344 0.96431 0.0
O174 O 0.46805 0.55915 0.03016 0.0
O175 O 0.42861 0.52544 0.93345 0.0
O176 O 0.51513 0.55547 0.94036 0.0
O177 O 0.45026 0.59437 0.97921 0.0
C178 C 0.44526 0.48133 0.11135 0.0
C179 C 0.5532 0.52339 0.12231 0.0
C180 C 0.53066 0.43407 0.04698 0.0
C181 C 0.42905 0.49766 0.94365 0.0
C182 C 0.53905 0.53743 0.95548 0.0
C183 C 0.45542 0.58607 0.01966 0.0
O184 O 0.46988 0.46417 0.12723 0.0
O185 O 0.4487 0.49863 0.07892 0.0
H186 H 0.13379 0.23745 0.4449 0.0
C187 C 0.12257 0.25438 0.46468 0.0
H188 H 0.08501 0.26218 0.50727 0.0
H189 H 0.04995 0.12045 0.43102 0.0
H190 H 0.02609 0.14486 0.36308 0.0
H191 H 0.03079 0.2006 0.35444 0.0
H192 H 0.05971 0.23229 0.41366 0.0
C193 C 0.09701 0.24574 0.48762 0.0
C194 C 0.08968 0.21283 0.49391 0.0
C195 C 0.07243 0.19469 0.45926 0.0
C196 C 0.06878 0.16263 0.46474 0.0
C197 C 0.05245 0.14497 0.42911 0.0
C198 C 0.03885 0.15868 0.38984 0.0
C199 C 0.04158 0.19007 0.38493 0.0
C200 C 0.05832 0.20796 0.41906 0.0
H201 H 0.02326 0.11459 0.50213 0.0
C202 C 0.04699 0.10296 0.51576 0.0
H203 H 0.1015 0.10373 0.52743 0.0
H204 H 0.12148 0.24161 0.56808 0.0
H205 H 0.1411 0.2182 0.63786 0.0
H206 H 0.13377 0.16294 0.64827 0.0
H207 H 0.10703 0.13091 0.5892 0.0
C208 C 0.07827 0.11554 0.51239 0.0
C209 C 0.08174 0.14897 0.50527 0.0
C210 C 0.09762 0.16748 0.54062 0.0
C211 C 0.1015 0.19939 0.53488 0.0
C212 C 0.1176 0.21727 0.57059 0.0
C213 C 0.12904 0.20414 0.61095 0.0
C214 C 0.12493 0.17306 0.61679 0.0
C215 C 0.1095 0.15487 0.58228 0.0
H216 H 0.40317 0.76482 0.06615 0.0
C217 C 0.38691 0.76678 0.0922 0.0
H218 H 0.36505 0.74207 0.14084 0.0
H219 H 0.37711 0.62043 0.03108 0.0
H220 H 0.31439 0.62738 0.02334 0.0
H221 H 0.28919 0.673 0.05375 0.0
H222 H 0.32658 0.71195 0.09199 0.0
C223 C 0.38302 0.74204 0.11672 0.0
C224 C 0.39825 0.71244 0.10536 0.0
C225 C 0.37589 0.68923 0.08496 0.0
C226 C 0.39038 0.66294 0.06741 0.0
C227 C 0.36752 0.6408 0.0452 0.0
C228 C 0.33144 0.64449 0.04051 0.0
C229 C 0.31726 0.67017 0.05765 0.0
C230 C 0.33906 0.69235 0.0796 0.0
H231 H 0.44291 0.59959 0.08538 0.0
C232 C 0.44676 0.60775 0.05317 0.0
H233 H 0.44671 0.64549 0.01072 0.0
H234 H 0.44824 0.75074 0.14743 0.0
H235 H 0.51118 0.74429 0.15335 0.0
H236 H 0.53621 0.69892 0.12194 0.0
H237 H 0.49842 0.65961 0.0846 0.0
C238 C 0.44177 0.63726 0.0425 0.0
C239 C 0.42713 0.6599 0.07057 0.0
C240 C 0.44944 0.68224 0.09301 0.0
C241 C 0.435 0.7085 0.11068 0.0
C242 C 0.45791 0.73061 0.13272 0.0
C243 C 0.49403 0.7271 0.13652 0.0
C244 C 0.50813 0.70155 0.11885 0.0
C245 C 0.48621 0.67925 0.09739 0.0
H246 H 0.89512 0.76184 0.56527 0.0
C247 C 0.8709 0.76502 0.57893 0.0
H248 H 0.83631 0.79655 0.60131 0.0
H249 H 0.94059 0.90705 0.64358 0.0
H250 H 0.91903 0.89901 0.71309 0.0
H251 H 0.88139 0.85473 0.72366 0.0
H252 H 0.86478 0.81839 0.66491 0.0
C253 C 0.86099 0.7933 0.58876 0.0
C254 C 0.88267 0.82077 0.5819 0.0
C255 C 0.89255 0.84155 0.61697 0.0
C256 C 0.91457 0.86697 0.61112 0.0
C257 C 0.92385 0.88747 0.64641 0.0
C258 C 0.91175 0.88307 0.68645 0.0
C259 C 0.89055 0.85813 0.69239 0.0
C260 C 0.88112 0.83746 0.65829 0.0
H261 H 0.90769 0.92792 0.55219 0.0
C262 C 0.93536 0.92453 0.55072 0.0
H263 H 0.9765 0.89307 0.55764 0.0
H264 H 0.86043 0.79148 0.50369 0.0
H265 H 0.88274 0.79913 0.43506 0.0
H266 H 0.9268 0.83909 0.42785 0.0
H267 H 0.94788 0.87211 0.48899 0.0
C268 C 0.94991 0.89777 0.5635 0.0
C269 C 0.92727 0.87118 0.57066 0.0
C270 C 0.91707 0.85071 0.53542 0.0
C271 C 0.89349 0.82637 0.54039 0.0
C272 C 0.88052 0.80866 0.50301 0.0
C273 C 0.89266 0.81317 0.46304 0.0
C274 C 0.91732 0.83573 0.45893 0.0
C275 C 0.92922 0.85453 0.49441 0.0
H276 H 0.65952 0.29386 0.96127 0.0
C277 C 0.64957 0.27579 0.98032 0.0
H278 H 0.61137 0.26323 0.01972 0.0
H279 H 0.59588 0.39413 0.09828 0.0
H280 H 0.61856 0.36513 0.162 0.0
H281 H 0.63727 0.3119 0.15499 0.0
H282 H 0.63329 0.28746 0.08408 0.0
C283 C 0.62189 0.28125 0.00115 0.0
C284 C 0.60831 0.31276 0.00474 0.0
C285 C 0.61102 0.32681 0.04657 0.0
C286 C 0.60058 0.35761 0.05051 0.0
C287 C 0.60352 0.37093 0.09289 0.0
C288 C 0.61655 0.35451 0.13 0.0
C289 C 0.62706 0.32456 0.12605 0.0
C290 C 0.62452 0.31079 0.08499 0.0
H291 H 0.52241 0.39777 0.99768 0.0
C292 C 0.54188 0.41344 0.01411 0.0
H293 H 0.59477 0.42179 0.03632 0.0
H294 H 0.59464 0.29138 0.92051 0.0
H295 H 0.57289 0.32076 0.85616 0.0
H296 H 0.55852 0.37522 0.86251 0.0
H297 H 0.56512 0.40046 0.93347 0.0
C298 C 0.57596 0.4064 0.01786 0.0
C299 C 0.58728 0.37436 0.01256 0.0
C300 C 0.58427 0.36025 0.97082 0.0
C301 C 0.59411 0.32921 0.96697 0.0
C302 C 0.58908 0.31523 0.92511 0.0
C303 C 0.57634 0.33178 0.88794 0.0
C304 C 0.56812 0.36241 0.89154 0.0
C305 C 0.5719 0.37659 0.93244 0.0
H306 H 0.16828 0.95992 0.25373 0.0
C307 C 0.19341 0.94943 0.26464 0.0
H308 H 0.22712 0.93497 0.32093 0.0
H309 H 0.12468 0.02086 0.42111 0.0
H310 H 0.17056 0.058 0.4155 0.0
H311 H 0.21979 0.0459 0.37531 0.0
H312 H 0.2231 0.99655 0.33985 0.0
C313 C 0.20205 0.94444 0.30769 0.0
C314 C 0.17578 0.94996 0.33786 0.0
C315 C 0.17507 0.97822 0.36017 0.0
C316 C 0.14721 0.9848 0.38456 0.0
C317 C 0.14587 0.01409 0.40374 0.0
C318 C 0.17193 0.03576 0.40044 0.0
C319 C 0.19961 0.02898 0.37771 0.0
C320 C 0.20122 0.00062 0.35755 0.0
H321 H 0.11483 0.97897 0.47324 0.0
C322 C 0.09028 0.97506 0.45219 0.0
H323 H 0.06421 0.96627 0.38903 0.0
H324 H 0.17054 0.89304 0.30064 0.0
H325 H 0.1248 0.85565 0.3058 0.0
H326 H 0.07735 0.86619 0.34963 0.0
H327 H 0.07533 0.91409 0.38845 0.0
C328 C 0.08943 0.9695 0.40909 0.0
C329 C 0.12079 0.96255 0.38771 0.0
C330 C 0.12223 0.93388 0.36638 0.0
C331 C 0.14967 0.92765 0.34137 0.0
C332 C 0.15012 0.89905 0.31983 0.0
C333 C 0.12411 0.8773 0.32265 0.0
C334 C 0.0974 0.88325 0.3473 0.0
C335 C 0.09647 0.91101 0.36921 0.0
H336 H 0.67442 0.61522 0.78958 0.0
C337 C 0.68491 0.59623 0.77279 0.0
H338 H 0.69107 0.54845 0.77061 0.0
H339 H 0.62521 0.58018 0.95664 0.0
H340 H 0.68026 0.60614 0.9807 0.0
H341 H 0.72539 0.61066 0.93161 0.0
H342 H 0.71559 0.58952 0.85799 0.0
C343 C 0.68031 0.56764 0.78657 0.0
C344 C 0.65596 0.56114 0.81883 0.0
C345 C 0.66285 0.57239 0.86238 0.0
C346 C 0.6372 0.56915 0.89106 0.0
C347 C 0.64399 0.58175 0.93372 0.0
C348 C 0.67547 0.59666 0.94795 0.0
C349 C 0.70086 0.59925 0.92028 0.0
C350 C 0.69483 0.58718 0.87802 0.0
H351 H 0.59145 0.52001 0.94582 0.0
C352 C 0.57154 0.53678 0.93516 0.0
H353 H 0.55544 0.5723 0.89091 0.0
H354 H 0.63501 0.53547 0.73799 0.0
H355 H 0.5803 0.50917 0.71463 0.0
H356 H 0.53654 0.50253 0.76515 0.0
H357 H 0.54736 0.52228 0.83942 0.0
C358 C 0.57567 0.55598 0.9023 0.0
C359 C 0.60514 0.55416 0.87635 0.0
C360 C 0.59904 0.54149 0.83365 0.0
C361 C 0.62444 0.545 0.80479 0.0
C362 C 0.61695 0.53316 0.76165 0.0
C363 C 0.58554 0.51803 0.74771 0.0
C364 C 0.5609 0.51433 0.77612 0.0
C365 C 0.56741 0.52586 0.81861 0.0
H366 H 0.86102 0.07415 0.19743 0.0
C367 C 0.83643 0.08558 0.20003 0.0
H368 H 0.80274 0.09976 0.24531 0.0
H369 H 0.89557 -0.00164 0.36449 0.0
H370 H 0.84875 0.96475 0.33282 0.0
H371 H 0.80242 0.98332 0.27627 0.0
H372 H 0.80268 0.03585 0.25127 0.0
C373 C 0.82725 0.08941 0.2401 0.0
C374 C 0.85172 0.0796 0.27867 0.0
C375 C 0.85068 0.04913 0.29342 0.0
C376 C 0.87747 0.03842 0.32569 0.0
C377 C 0.8761 0.0077 0.33964 0.0
C378 C 0.84929 0.98815 0.32183 0.0
C379 C 0.82321 -0.00138 0.29001 0.0
C380 C 0.82371 0.02876 0.2759 0.0
H381 H 0.92364 0.06543 0.43044 0.0
C382 C 0.93858 0.04838 0.41545 0.0
H383 H 0.95005 0.02789 0.35723 0.0
H384 H 0.85959 0.13986 0.25956 0.0
H385 H 0.90727 0.17332 0.28998 0.0
H386 H 0.95449 0.15446 0.34515 0.0
H387 H 0.95426 0.10198 0.37035 0.0
C388 C 0.93509 0.04517 0.37179 0.0
C389 C 0.9052 0.05821 0.34294 0.0
C390 C 0.90556 0.08898 0.32943 0.0
C391 C 0.87858 0.09976 0.29734 0.0
C392 C 0.87965 0.13048 0.28365 0.0
C393 C 0.90681 0.14991 0.3009 0.0
C394 C 0.93339 0.13929 0.33199 0.0
C395 C 0.93293 0.10917 0.34622 0.0
H396 H 0.31237 0.40621 0.72414 0.0
C397 C 0.30344 0.42678 0.70657 0.0
H398 H 0.3026 0.47489 0.70859 0.0
H399 H 0.36526 0.42577 0.91063 0.0
H400 H 0.30743 0.40435 0.91276 0.0
H401 H 0.26183 0.40773 0.84868 0.0
H402 H 0.27411 0.43185 0.78173 0.0
C403 C 0.31159 0.45406 0.7253 0.0
C404 C 0.3366 0.45648 0.76651 0.0
C405 C 0.32855 0.44344 0.80598 0.0
C406 C 0.35418 0.44315 0.84381 0.0
C407 C 0.34618 0.42809 0.88175 0.0
C408 C 0.31319 0.41545 0.88327 0.0
C409 C 0.28758 0.41723 0.84713 0.0
C410 C 0.29504 0.43094 0.80881 0.0
H411 H 0.37622 0.4848 0.91653 0.0
C412 C 0.40331 0.47793 0.91759 0.0
H413 H 0.43983 0.45696 0.88306 0.0
H414 H 0.36005 0.48416 0.69646 0.0
H415 H 0.41592 0.50918 0.69574 0.0
H416 H 0.45914 0.51164 0.76232 0.0
H417 H 0.44684 0.48903 0.82981 0.0
C418 C 0.41234 0.46151 0.88411 0.0
C419 C 0.38705 0.45773 0.84308 0.0
C420 C 0.39465 0.4716 0.80379 0.0
C421 C 0.36948 0.47077 0.76551 0.0
C422 C 0.37795 0.48438 0.72665 0.0
C423 C 0.41 0.49885 0.72571 0.0
C424 C 0.43432 0.50021 0.76317 0.0
C425 C 0.42688 0.48692 0.80181 0.0
H426 H 0.62874 0.58291 0.38073 0.0
C427 C 0.65659 0.5846 0.37866 0.0
H428 H 0.69557 0.57876 0.33747 0.0
H429 H 0.55541 0.50639 0.23287 0.0
H430 H 0.56375 0.47032 0.29231 0.0
H431 H 0.60866 0.47924 0.35604 0.0
H432 H 0.64558 0.5244 0.36048 0.0
C433 C 0.66792 0.57772 0.34059 0.0
C434 C 0.6425 0.57087 0.30092 0.0
C435 C 0.62138 0.54414 0.29864 0.0
C436 C 0.5956 0.53895 0.26176 0.0
C437 C 0.57512 0.51187 0.2602 0.0
C438 C 0.57972 0.4908 0.29409 0.0
C439 C 0.60499 0.49583 0.32996 0.0
C440 C 0.62581 0.52201 0.33225 0.0
H441 H 0.602 0.54786 0.14496 0.0
C442 C 0.57477 0.54557 0.1498 0.0
H443 H 0.5381 0.54919 0.19379 0.0
H444 H 0.67934 0.62383 0.29458 0.0
H445 H 0.67031 0.66056 0.23576 0.0
H446 H 0.62446 0.65232 0.17278 0.0
H447 H 0.58763 0.607 0.16804 0.0
C448 C 0.56481 0.55388 0.18814 0.0
C449 C 0.59117 0.56037 0.22704 0.0
C450 C 0.61234 0.58701 0.22933 0.0
C451 C 0.63832 0.59205 0.26606 0.0
C452 C 0.65914 0.61885 0.26754 0.0
C453 C 0.6542 0.64017 0.23401 0.0
C454 C 0.62843 0.6355 0.19852 0.0
C455 C 0.60761 0.6093 0.19607 0.0
H456 H 0.82215 0.05288 0.8087 0.0
C457 C 0.81935 0.07757 0.80909 0.0
H458 H 0.83454 0.11879 0.78127 0.0
H459 H 0.96693 0.04841 0.72827 0.0
H460 H 0.99351 0.07458 0.79364 0.0
H461 H 0.95752 0.10298 0.84006 0.0
H462 H 0.89457 0.1054 0.82104 0.0
C463 C 0.83409 0.09404 0.77987 0.0
C464 C 0.85556 0.07852 0.75013 0.0
C465 C 0.89228 0.07735 0.7617 0.0
C466 C 0.91291 0.06067 0.73521 0.0
C467 C 0.94968 0.06023 0.74737 0.0
C468 C 0.96541 0.07529 0.78486 0.0
C469 C 0.94516 0.09129 0.81096 0.0
C470 C 0.90904 0.09245 0.79966 0.0
H471 H 0.9074 0.0595 0.61612 0.0
C472 C 0.92411 0.04123 0.63024 0.0
H473 H 0.93748 0.01247 0.68388 0.0
H474 H 0.78608 0.07785 0.71791 0.0
H475 H 0.75884 0.05091 0.65296 0.0
H476 H 0.79428 0.02051 0.60809 0.0
H477 H 0.85724 0.01701 0.62772 0.0
C478 C 0.91916 0.02933 0.66882 0.0
C479 C 0.8967 0.04525 0.6971 0.0
C480 C 0.85992 0.0465 0.68551 0.0
C481 C 0.83936 0.06342 0.71192 0.0
C482 C 0.80278 0.06486 0.69933 0.0
C483 C 0.78686 0.04959 0.66211 0.0
C484 C 0.80683 0.03253 0.63679 0.0
C485 C 0.84295 0.03085 0.64826 0.0
H486 H 0.33374 0.45809 0.3249 0.0
C487 C 0.30792 0.44851 0.31403 0.0
H488 H 0.27248 0.43625 0.25763 0.0
H489 H 0.38702 0.52447 0.17546 0.0
H490 H 0.34956 0.56504 0.19449 0.0
H491 H 0.29924 0.554 0.23343 0.0
H492 H 0.28649 0.50211 0.25422 0.0
C493 C 0.29797 0.4453 0.27075 0.0
C494 C 0.32361 0.45125 0.2399 0.0
C495 C 0.32979 0.48134 0.22618 0.0
C496 C 0.35809 0.48751 0.20229 0.0
C497 C 0.3651 0.51816 0.19191 0.0
C498 C 0.34393 0.54177 0.20298 0.0
C499 C 0.31565 0.53557 0.22503 0.0
C500 C 0.30865 0.50576 0.2368 0.0
H501 H 0.3884 0.4887 0.11175 0.0
C502 C 0.41229 0.48058 0.13072 0.0
H503 H 0.43601 0.46114 0.18966 0.0
H504 H 0.31699 0.39077 0.25867 0.0
H505 H 0.3535 0.34962 0.23865 0.0
H506 H 0.40159 0.35976 0.19555 0.0
H507 H 0.41348 0.41104 0.17224 0.0
C508 C 0.41184 0.46918 0.17116 0.0
C509 C 0.37938 0.46323 0.19094 0.0
C510 C 0.37202 0.43288 0.20302 0.0
C511 C 0.34415 0.42692 0.22754 0.0
C512 C 0.33791 0.39654 0.24006 0.0
C513 C 0.35859 0.37269 0.2287 0.0
C514 C 0.38567 0.3784 0.20447 0.0
C515 C 0.39232 0.40803 0.19151 0.0
H516 H 0.21819 0.94154 0.84468 0.0
C517 C 0.20261 0.94279 0.87145 0.0
H518 H 0.15171 0.9489 0.88819 0.0
H519 H 0.10113 0.02878 0.72192 0.0
H520 H 0.10438 0.0667 0.77948 0.0
H521 H 0.12971 0.05423 0.85501 0.0
H522 H 0.15158 0.00355 0.87332 0.0
C523 C 0.16818 0.94819 0.86236 0.0
C524 C 0.15184 0.95501 0.81708 0.0
C525 C 0.13936 0.98476 0.80695 0.0
C526 C 0.12551 0.99208 0.76326 0.0
C527 C 0.11271 0.02197 0.75424 0.0
C528 C 0.11425 0.04402 0.7871 0.0
C529 C 0.12844 0.03698 0.82961 0.0
C530 C 0.14088 0.00776 0.83964 0.0
H531 H 0.06771 0.95211 0.67175 0.0
C532 C 0.08237 0.97138 0.66147 0.0
H533 H 0.12758 -0.00133 0.67251 0.0
H534 H 0.16827 0.89456 0.82704 0.0
H535 H 0.16511 0.85637 0.76944 0.0
H536 H 0.14423 0.86977 0.69276 0.0
H537 H 0.1259 0.9214 0.67334 0.0
C538 C 0.11365 0.97918 0.68363 0.0
C539 C 0.12462 0.96969 0.72961 0.0
C540 C 0.13591 0.93962 0.74004 0.0
C541 C 0.14907 0.93215 0.78404 0.0
C542 C 0.15911 0.90171 0.79397 0.0
C543 C 0.15724 0.87952 0.76125 0.0
C544 C 0.14541 0.88706 0.71809 0.0
C545 C 0.13488 0.91674 0.70739 0.0
loop_
_geom_bond_atom_site_label_1
_geom_bond_atom_site_label_2
_geom_bond_distance
_geom_bond_site_symmetry_2
_ccdc_geom_bond_type
C0 C1 1.384 . S
C0 H13 0.947 . S
C0 C35 1.382 . S
C1 C0 1.384 . S
C1 C2 1.378 . S
C2 C1 1.378 . S
C2 C3 1.378 . S
C2 H14 0.952 . S
C3 C2 1.378 . S
C3 H15 0.950 . S
C3 C34 1.383 . S
H4 C23 0.947 . S
H5 C24 0.946 . S
H6 C26 0.953 . S
H7 C27 0.945 . S
H8 C29 0.952 . S
H9 C30 0.949 . S
H10 C32 0.950 . S
H11 C33 0.948 . S
H12 C35 0.951 . S
H13 C0 0.947 . S
H14 C2 0.952 . S
H15 C3 0.950 . S
N16 C19 1.382 . S
N16 C21 1.363 . S
N17 C19 1.371 . S
N17 C20 1.372 . S
N18 C20 1.361 . S
N18 C21 1.377 . S
C19 N16 1.382 . S
C19 N17 1.371 . S
C19 C22 1.480 . S
C20 N17 1.372 . S
C20 N18 1.361 . S
C20 C28 1.457 . S
C21 N16 1.363 . S
C21 N18 1.377 . S
C21 C34 1.479 . S
C22 C19 1.480 . S
C22 C23 1.383 . S
C22 C27 1.385 . S
C23 H4 0.947 . S
C23 C22 1.383 . S
C23 C24 1.388 . S
C24 H5 0.946 . S
C24 C23 1.388 . S
C24 C25 1.384 . S
C25 C24 1.384 . S
C25 C26 1.377 . S
C26 H6 0.953 . S
C26 C25 1.377 . S
C26 C27 1.369 . S
C27 H7 0.945 . S
C27 C22 1.385 . S
C27 C26 1.369 . S
C28 C20 1.457 . S
C28 C29 1.372 1_554 S
C28 C33 1.364 . S
C29 H8 0.952 . S
C29 C28 1.372 1_556 S
C29 C30 1.389 . S
C30 H9 0.949 . S
C30 C29 1.389 . S
C30 C31 1.387 . S
C31 C30 1.387 . S
C31 C32 1.372 . S
C32 H10 0.950 . S
C32 C31 1.372 . S
C32 C33 1.379 1_556 S
C33 H11 0.948 . S
C33 C28 1.364 . S
C33 C32 1.379 1_554 S
C34 C3 1.383 . S
C34 C21 1.479 . S
C34 C35 1.398 . S
C35 C0 1.382 . S
C35 H12 0.951 . S
C35 C34 1.398 . S
C36 C37 1.384 . S
C36 H49 0.947 . S
C36 C71 1.382 . S
C37 C36 1.384 . S
C37 C38 1.378 . S
C38 C37 1.378 . S
C38 C39 1.378 . S
C38 H50 0.952 . S
C39 C38 1.378 . S
C39 H51 0.950 . S
C39 C70 1.383 . S
H40 C59 0.947 . S
H41 C60 0.946 . S
H42 C62 0.953 . S
H43 C63 0.945 . S
H44 C65 0.952 . S
H45 C66 0.949 . S
H46 C68 0.950 . S
H47 C69 0.948 . S
H48 C71 0.951 . S
H49 C36 0.947 . S
H50 C38 0.952 . S
H51 C39 0.950 . S
N52 C55 1.382 . S
N52 C57 1.363 . S
N53 C55 1.371 . S
N53 C56 1.372 . S
N54 C56 1.361 . S
N54 C57 1.377 . S
C55 N52 1.382 . S
C55 N53 1.371 . S
C55 C58 1.480 . S
C56 N53 1.372 . S
C56 N54 1.361 . S
C56 C64 1.457 . S
C57 N52 1.363 . S
C57 N54 1.377 . S
C57 C70 1.479 . S
C58 C55 1.480 . S
C58 C59 1.383 . S
C58 C63 1.385 . S
C59 H40 0.947 . S
C59 C58 1.383 . S
C59 C60 1.388 . S
C60 H41 0.946 . S
C60 C59 1.388 . S
C60 C61 1.384 . S
C61 C60 1.384 . S
C61 C62 1.377 . S
C62 H42 0.953 . S
C62 C61 1.377 . S
C62 C63 1.369 . S
C63 H43 0.945 . S
C63 C58 1.385 . S
C63 C62 1.369 . S
C64 C56 1.457 . S
C64 C65 1.372 . S
C64 C69 1.364 . S
C65 H44 0.952 . S
C65 C64 1.372 . S
C65 C66 1.389 . S
C66 H45 0.949 . S
C66 C65 1.389 . S
C66 C67 1.387 . S
C67 C66 1.387 . S
C67 C68 1.372 . S
C68 H46 0.950 . S
C68 C67 1.372 . S
C68 C69 1.379 . S
C69 H47 0.948 . S
C69 C64 1.364 . S
C69 C68 1.379 . S
C70 C39 1.383 . S
C70 C57 1.479 . S
C70 C71 1.398 . S
C71 C36 1.382 . S
C71 H48 0.951 . S
C71 C70 1.398 . S
C72 C73 1.384 . S
C72 H85 0.947 . S
C72 C107 1.382 . S
C73 C72 1.384 . S
C73 C74 1.378 . S
C74 C73 1.378 . S
C74 C75 1.378 . S
C74 H86 0.952 . S
C75 C74 1.378 . S
C75 H87 0.950 . S
C75 C106 1.383 . S
H76 C95 0.947 . S
H77 C96 0.946 . S
H78 C98 0.953 . S
H79 C99 0.945 . S
H80 C101 0.952 . S
H81 C102 0.949 . S
H82 C104 0.950 . S
H83 C105 0.948 . S
H84 C107 0.951 . S
H85 C72 0.947 . S
H86 C74 0.952 . S
H87 C75 0.950 . S
N88 C91 1.362 1_556 S
N88 C93 1.363 . S
N89 C91 1.390 . S
N89 C92 1.372 . S
N90 C92 1.361 . S
N90 C93 1.377 1_554 S
C91 N88 1.362 1_554 S
C91 N89 1.390 . S
C91 C94 1.482 1_554 S
C92 N89 1.372 . S
C92 N90 1.361 . S
C92 C100 1.457 . S
C93 N88 1.363 . S
C93 N90 1.377 1_556 S
C93 C106 1.479 . S
C94 C91 1.482 1_556 S
C94 C95 1.389 . S
C94 C99 1.378 1_556 S
C95 H76 0.947 . S
C95 C94 1.389 . S
C95 C96 1.388 . S
C96 H77 0.946 . S
C96 C95 1.388 . S
C96 C97 1.384 . S
C97 C96 1.384 . S
C97 C98 1.377 1_556 S
C98 H78 0.953 . S
C98 C97 1.377 1_554 S
C98 C99 1.369 . S
C99 H79 0.945 . S
C99 C94 1.378 1_554 S
C99 C98 1.369 . S
C100 C92 1.457 . S
C100 C101 1.372 . S
C100 C105 1.364 . S
C101 H80 0.952 . S
C101 C100 1.372 . S
C101 C102 1.389 . S
C102 H81 0.949 . S
C102 C101 1.389 . S
C102 C103 1.387 . S
C103 C102 1.387 . S
C103 C104 1.372 . S
C104 H82 0.950 . S
C104 C103 1.372 . S
C104 C105 1.379 . S
C105 H83 0.948 . S
C105 C100 1.364 . S
C105 C104 1.379 . S
C106 C75 1.383 . S
C106 C93 1.479 . S
C106 C107 1.398 . S
C107 C72 1.382 . S
C107 H84 0.951 . S
C107 C106 1.398 . S
C108 C109 1.384 . S
C108 H121 0.947 . S
C108 C143 1.382 . S
C109 C108 1.384 . S
C109 C110 1.378 . S
C110 C109 1.378 . S
C110 C111 1.378 . S
C110 H122 0.952 . S
C111 C110 1.378 . S
C111 H123 0.950 . S
C111 C142 1.383 . S
H112 C131 0.947 . S
H113 C132 0.946 . S
H114 C134 0.953 . S
H115 C135 0.945 . S
H116 C137 0.952 . S
H117 C138 0.949 . S
H118 C140 0.950 . S
H119 C141 0.948 . S
H120 C143 0.951 . S
H121 C108 0.947 . S
H122 C110 0.952 . S
H123 C111 0.950 . S
N124 C127 1.382 . S
N124 C129 1.363 . S
N125 C127 1.371 . S
N125 C128 1.372 . S
N126 C128 1.361 . S
N126 C129 1.377 . S
C127 N124 1.382 . S
C127 N125 1.371 . S
C127 C130 1.480 . S
C128 N125 1.372 . S
C128 N126 1.361 . S
C128 C136 1.457 . S
C129 N124 1.363 . S
C129 N126 1.377 . S
C129 C142 1.479 . S
C130 C127 1.480 . S
C130 C131 1.383 . S
C130 C135 1.385 . S
C131 H112 0.947 . S
C131 C130 1.383 . S
C131 C132 1.388 . S
C132 H113 0.946 . S
C132 C131 1.388 . S
C132 C133 1.384 . S
C133 C132 1.384 . S
C133 C134 1.377 . S
C134 H114 0.953 . S
C134 C133 1.377 . S
C134 C135 1.369 . S
C135 H115 0.945 . S
C135 C130 1.385 . S
C135 C134 1.369 . S
C136 C128 1.457 . S
C136 C137 1.372 . S
C136 C141 1.364 . S
C137 H116 0.952 . S
C137 C136 1.372 . S
C137 C138 1.389 . S
C138 H117 0.949 . S
C138 C137 1.389 . S
C138 C139 1.387 . S
C139 C138 1.387 . S
C139 C140 1.372 . S
C140 H118 0.950 . S
C140 C139 1.372 . S
C140 C141 1.379 . S
C141 H119 0.948 . S
C141 C136 1.364 . S
C141 C140 1.379 . S
C142 C111 1.383 . S
C142 C129 1.479 . S
C142 C143 1.398 . S
C143 C108 1.382 . S
C143 H120 0.951 . S
C143 C142 1.398 . S
O144 Mg145 1.990 1_655 S
O144 C158 1.253 . S
Mg145 O144 1.990 1_455 S
Mg145 O148 2.180 . S
Mg145 O149 2.117 . S
Mg145 O163 2.030 . S
O146 Mg147 2.072 1_655 S
O146 C158 1.260 . S
Mg147 O146 2.072 1_455 S
Mg147 O148 2.099 . S
Mg147 O150 2.079 1_545 S
Mg147 O151 2.072 1_455 S
Mg147 O153 2.099 1_445 S
Mg147 O164 2.079 1_545 S
O148 Mg145 2.180 . S
O148 Mg147 2.099 . S
O148 C159 1.279 . S
O149 Mg145 2.117 . S
O149 C159 1.250 . S
O150 Mg147 2.079 1_565 S
O150 C160 1.264 . S
O151 Mg147 2.072 1_655 S
O151 C161 1.260 . S
Mg152 O153 2.180 . S
Mg152 O154 2.030 1_655 S
Mg152 O155 1.990 1_565 S
Mg152 O156 2.117 . S
O153 Mg147 2.099 1_665 S
O153 Mg152 2.180 . S
O153 C162 1.279 . S
O154 Mg152 2.030 1_455 S
O154 C160 1.248 . S
O155 Mg152 1.990 1_545 S
O155 C161 1.253 . S
O156 Mg152 2.117 . S
O156 C162 1.250 . S
C157 O163 1.248 1_565 S
C157 O164 1.264 . S
C158 O144 1.253 . S
C158 O146 1.260 . S
C159 O148 1.279 . S
C159 O149 1.250 . S
C160 O150 1.264 . S
C160 O154 1.248 . S
C161 O151 1.260 . S
C161 O155 1.253 . S
C162 O153 1.279 . S
C162 O156 1.250 . S
O163 Mg145 2.030 . S
O163 C157 1.248 1_545 S
O164 Mg147 2.079 1_565 S
O164 C157 1.264 . S
O165 Mg166 1.990 . S
O165 C179 1.253 . S
Mg166 O165 1.990 . S
Mg166 O169 2.180 . S
Mg166 O170 2.117 . S
Mg166 O184 2.030 . S
O167 Mg168 2.072 . S
O167 C179 1.260 . S
Mg168 O167 2.072 . S
Mg168 O169 2.099 . S
Mg168 O171 2.079 1_554 S
Mg168 O172 2.072 1_554 S
Mg168 O174 2.099 . S
Mg168 O185 2.079 . S
O169 Mg166 2.180 . S
O169 Mg168 2.099 . S
O169 C180 1.279 . S
O170 Mg166 2.117 . S
O170 C180 1.250 . S
O171 Mg168 2.079 1_556 S
O171 C181 1.264 . S
O172 Mg168 2.072 1_556 S
O172 C182 1.260 . S
Mg173 O174 2.180 1_556 S
Mg173 O175 2.030 . S
Mg173 O176 1.990 . S
Mg173 O177 2.126 . S
O174 Mg168 2.099 . S
O174 Mg173 2.180 1_554 S
O174 C183 1.279 . S
O175 Mg173 2.030 . S
O175 C181 1.248 . S
O176 Mg173 1.990 . S
O176 C182 1.253 . S
O177 Mg173 2.126 . S
O177 C183 1.241 1_556 S
C178 O184 1.248 . S
C178 O185 1.264 . S
C179 O165 1.253 . S
C179 O167 1.260 . S
C180 O169 1.279 . S
C180 O170 1.250 . S
C181 O171 1.264 . S
C181 O175 1.248 . S
C182 O172 1.260 . S
C182 O176 1.253 . S
C183 O174 1.279 . S
C183 O177 1.241 1_554 S
O184 Mg166 2.030 . S
O184 C178 1.248 . S
O185 Mg168 2.079 . S
O185 C178 1.264 . S
H186 C187 0.951 . S
C187 H186 0.951 . S
C187 C193 1.265 . S
H188 C193 0.950 . S
H189 C197 0.949 . S
H190 C198 0.950 . S
H191 C199 0.951 . S
H192 C200 0.951 . S
C193 C187 1.265 . S
C193 H188 0.950 . S
C193 C194 1.478 . S
C194 C193 1.478 . S
C194 C195 1.397 . S
C194 C211 1.394 . S
C195 C194 1.397 . S
C195 C196 1.438 . S
C195 C200 1.429 . S
C196 C195 1.438 . S
C196 C197 1.428 . S
C196 C209 1.394 . S
C197 H189 0.949 . S
C197 C196 1.428 . S
C197 C198 1.345 . S
C198 H190 0.950 . S
C198 C197 1.345 . S
C198 C199 1.424 . S
C199 H191 0.951 . S
C199 C198 1.424 . S
C199 C200 1.347 . S
C200 H192 0.951 . S
C200 C195 1.429 . S
C200 C199 1.347 . S
H201 C202 0.951 . S
C202 H201 0.951 . S
C202 C208 1.265 . S
H203 C208 0.950 . S
H204 C212 0.949 . S
H205 C213 0.950 . S
H206 C214 0.951 . S
H207 C215 0.951 . S
C208 C202 1.265 . S
C208 H203 0.950 . S
C208 C209 1.478 . S
C209 C196 1.394 . S
C209 C208 1.478 . S
C209 C210 1.397 . S
C210 C209 1.397 . S
C210 C211 1.438 . S
C210 C215 1.429 . S
C211 C194 1.394 . S
C211 C210 1.438 . S
C211 C212 1.428 . S
C212 H204 0.949 . S
C212 C211 1.428 . S
C212 C213 1.345 . S
C213 H205 0.950 . S
C213 C212 1.345 . S
C213 C214 1.424 . S
C214 H206 0.951 . S
C214 C213 1.424 . S
C214 C215 1.347 . S
C215 H207 0.951 . S
C215 C210 1.429 . S
C215 C214 1.347 . S
H216 C217 0.951 . S
C217 H216 0.951 . S
C217 C223 1.265 . S
H218 C223 0.950 . S
H219 C227 0.949 . S
H220 C228 0.950 . S
H221 C229 0.951 . S
H222 C230 0.951 . S
C223 C217 1.265 . S
C223 H218 0.950 . S
C223 C224 1.478 . S
C224 C223 1.478 . S
C224 C225 1.397 . S
C224 C241 1.394 . S
C225 C224 1.397 . S
C225 C226 1.438 . S
C225 C230 1.429 . S
C226 C225 1.438 . S
C226 C227 1.428 . S
C226 C239 1.394 . S
C227 H219 0.949 . S
C227 C226 1.428 . S
C227 C228 1.345 . S
C228 H220 0.950 . S
C228 C227 1.345 . S
C228 C229 1.424 . S
C229 H221 0.951 . S
C229 C228 1.424 . S
C229 C230 1.347 . S
C230 H222 0.951 . S
C230 C225 1.429 . S
C230 C229 1.347 . S
H231 C232 0.951 . S
C232 H231 0.951 . S
C232 C238 1.265 . S
H233 C238 0.950 . S
H234 C242 0.949 . S
H235 C243 0.950 . S
H236 C244 0.951 . S
H237 C245 0.951 . S
C238 C232 1.265 . S
C238 H233 0.950 . S
C238 C239 1.478 . S
C239 C226 1.394 . S
C239 C238 1.478 . S
C239 C240 1.397 . S
C240 C239 1.397 . S
C240 C241 1.438 . S
C240 C245 1.429 . S
C241 C224 1.394 . S
C241 C240 1.438 . S
C241 C242 1.428 . S
C242 H234 0.949 . S
C242 C241 1.428 . S
C242 C243 1.345 . S
C243 H235 0.950 . S
C243 C242 1.345 . S
C243 C244 1.424 . S
C244 H236 0.951 . S
C244 C243 1.424 . S
C244 C245 1.347 . S
C245 H237 0.951 . S
C245 C240 1.429 . S
C245 C244 1.347 . S
H246 C247 0.951 . S
C247 H246 0.951 . S
C247 C253 1.265 . S
H248 C253 0.950 . S
H249 C257 0.949 . S
H250 C258 0.950 . S
H251 C259 0.951 . S
H252 C260 0.951 . S
C253 C247 1.265 . S
C253 H248 0.950 . S
C253 C254 1.478 . S
C254 C253 1.478 . S
C254 C255 1.397 . S
C254 C271 1.394 . S
C255 C254 1.397 . S
C255 C256 1.438 . S
C255 C260 1.429 . S
C256 C255 1.438 . S
C256 C257 1.428 . S
C256 C269 1.394 . S
C257 H249 0.949 . S
C257 C256 1.428 . S
C257 C258 1.345 . S
C258 H250 0.950 . S
C258 C257 1.345 . S
C258 C259 1.424 . S
C259 H251 0.951 . S
C259 C258 1.424 . S
C259 C260 1.347 . S
C260 H252 0.951 . S
C260 C255 1.429 . S
C260 C259 1.347 . S
H261 C262 0.951 . S
C262 H261 0.951 . S
C262 C268 1.265 . S
H263 C268 0.950 . S
H264 C272 0.949 . S
H265 C273 0.950 . S
H266 C274 0.951 . S
H267 C275 0.951 . S
C268 C262 1.265 . S
C268 H263 0.950 . S
C268 C269 1.478 . S
C269 C256 1.394 . S
C269 C268 1.478 . S
C269 C270 1.397 . S
C270 C269 1.397 . S
C270 C271 1.438 . S
C270 C275 1.429 . S
C271 C254 1.394 . S
C271 C270 1.438 . S
C271 C272 1.428 . S
C272 H264 0.949 . S
C272 C271 1.428 . S
C272 C273 1.345 . S
C273 H265 0.950 . S
C273 C272 1.345 . S
C273 C274 1.424 . S
C274 H266 0.951 . S
C274 C273 1.424 . S
C274 C275 1.347 . S
C275 H267 0.951 . S
C275 C270 1.429 . S
C275 C274 1.347 . S
H276 C277 0.951 . S
C277 H276 0.951 . S
C277 C283 1.265 1_556 S
H278 C283 0.950 . S
H279 C287 0.949 . S
H280 C288 0.950 . S
H281 C289 0.951 . S
H282 C290 0.951 . S
C283 C277 1.265 1_554 S
C283 H278 0.950 . S
C283 C284 1.478 . S
C284 C283 1.478 . S
C284 C285 1.397 . S
C284 C301 1.394 1_554 S
C285 C284 1.397 . S
C285 C286 1.438 . S
C285 C290 1.429 . S
C286 C285 1.438 . S
C286 C287 1.428 . S
C286 C299 1.394 . S
C287 H279 0.949 . S
C287 C286 1.428 . S
C287 C288 1.345 . S
C288 H280 0.950 . S
C288 C287 1.345 . S
C288 C289 1.424 . S
C289 H281 0.951 . S
C289 C288 1.424 . S
C289 C290 1.347 . S
C290 H282 0.951 . S
C290 C285 1.429 . S
C290 C289 1.347 . S
H291 C292 0.951 . S
C292 H291 0.951 . S
C292 C298 1.265 . S
H293 C298 0.950 1_556 S
H294 C302 0.949 . S
H295 C303 0.950 . S
H296 C304 0.951 . S
H297 C305 0.951 . S
C298 C292 1.265 . S
C298 H293 0.950 1_554 S
C298 C299 1.478 . S
C299 C286 1.394 . S
C299 C298 1.478 . S
C299 C300 1.397 1_554 S
C300 C299 1.397 1_556 S
C300 C301 1.438 . S
C300 C305 1.429 . S
C301 C284 1.394 1_556 S
C301 C300 1.438 . S
C301 C302 1.428 . S
C302 H294 0.949 . S
C302 C301 1.428 . S
C302 C303 1.345 . S
C303 H295 0.950 . S
C303 C302 1.345 . S
C303 C304 1.424 . S
C304 H296 0.951 . S
C304 C303 1.424 . S
C304 C305 1.347 . S
C305 H297 0.951 . S
C305 C300 1.429 . S
C305 C304 1.347 . S
H306 C307 0.951 . S
C307 H306 0.951 . S
C307 C313 1.265 . S
H308 C313 0.950 . S
H309 C317 0.949 . S
H310 C318 0.950 . S
H311 C319 0.951 . S
H312 C320 0.951 . S
C313 C307 1.265 . S
C313 H308 0.950 . S
C313 C314 1.478 . S
C314 C313 1.478 . S
C314 C315 1.397 . S
C314 C331 1.394 . S
C315 C314 1.397 . S
C315 C316 1.438 . S
C315 C320 1.429 1_565 S
C316 C315 1.438 . S
C316 C317 1.428 1_565 S
C316 C329 1.394 . S
C317 H309 0.949 . S
C317 C316 1.428 1_545 S
C317 C318 1.345 . S
C318 H310 0.950 . S
C318 C317 1.345 . S
C318 C319 1.424 . S
C319 H311 0.951 . S
C319 C318 1.424 . S
C319 C320 1.347 . S
C320 H312 0.951 . S
C320 C315 1.429 1_545 S
C320 C319 1.347 . S
H321 C322 0.951 . S
C322 H321 0.951 . S
C322 C328 1.265 . S
H323 C328 0.950 . S
H324 C332 0.949 . S
H325 C333 0.950 . S
H326 C334 0.951 . S
H327 C335 0.951 . S
C328 C322 1.265 . S
C328 H323 0.950 . S
C328 C329 1.478 . S
C329 C316 1.394 . S
C329 C328 1.478 . S
C329 C330 1.397 . S
C330 C329 1.397 . S
C330 C331 1.438 . S
C330 C335 1.429 . S
C331 C314 1.394 . S
C331 C330 1.438 . S
C331 C332 1.428 . S
C332 H324 0.949 . S
C332 C331 1.428 . S
C332 C333 1.345 . S
C333 H325 0.950 . S
C333 C332 1.345 . S
C333 C334 1.424 . S
C334 H326 0.951 . S
C334 C333 1.424 . S
C334 C335 1.347 . S
C335 H327 0.951 . S
C335 C330 1.429 . S
C335 C334 1.347 . S
H336 C337 0.951 . S
C337 H336 0.951 . S
C337 C343 1.265 . S
H338 C343 0.950 . S
H339 C347 0.949 . S
H340 C348 0.950 . S
H341 C349 0.951 . S
H342 C350 0.951 . S
C343 C337 1.265 . S
C343 H338 0.950 . S
C343 C344 1.478 . S
C344 C343 1.478 . S
C344 C345 1.397 . S
C344 C361 1.394 . S
C345 C344 1.397 . S
C345 C346 1.438 . S
C345 C350 1.429 . S
C346 C345 1.438 . S
C346 C347 1.428 . S
C346 C359 1.394 . S
C347 H339 0.949 . S
C347 C346 1.428 . S
C347 C348 1.345 . S
C348 H340 0.950 . S
C348 C347 1.345 . S
C348 C349 1.424 . S
C349 H341 0.951 . S
C349 C348 1.424 . S
C349 C350 1.347 . S
C350 H342 0.951 . S
C350 C345 1.429 . S
C350 C349 1.347 . S
H351 C352 0.951 . S
C352 H351 0.951 . S
C352 C358 1.265 . S
H353 C358 0.950 . S
H354 C362 0.949 . S
H355 C363 0.950 . S
H356 C364 0.951 . S
H357 C365 0.951 . S
C358 C352 1.265 . S
C358 H353 0.950 . S
C358 C359 1.478 . S
C359 C346 1.394 . S
C359 C358 1.478 . S
C359 C360 1.397 . S
C360 C359 1.397 . S
C360 C361 1.438 . S
C360 C365 1.429 . S
C361 C344 1.394 . S
C361 C360 1.438 . S
C361 C362 1.428 . S
C362 H354 0.949 . S
C362 C361 1.428 . S
C362 C363 1.345 . S
C363 H355 0.950 . S
C363 C362 1.345 . S
C363 C364 1.424 . S
C364 H356 0.951 . S
C364 C363 1.424 . S
C364 C365 1.347 . S
C365 H357 0.951 . S
C365 C360 1.429 . S
C365 C364 1.347 . S
H366 C367 0.951 . S
C367 H366 0.951 . S
C367 C373 1.265 . S
H368 C373 0.950 . S
H369 C377 0.952 . S
H370 C378 0.950 . S
H371 C379 0.951 . S
H372 C380 0.951 . S
C373 C367 1.265 . S
C373 H368 0.950 . S
C373 C374 1.478 . S
C374 C373 1.478 . S
C374 C375 1.397 . S
C374 C391 1.394 . S
C375 C374 1.397 . S
C375 C376 1.438 . S
C375 C380 1.429 . S
C376 C375 1.438 . S
C376 C377 1.428 . S
C376 C389 1.394 . S
C377 H369 0.952 . S
C377 C376 1.428 . S
C377 C378 1.345 1_545 S
C378 H370 0.950 . S
C378 C377 1.345 1_565 S
C378 C379 1.424 . S
C379 H371 0.951 . S
C379 C378 1.424 . S
C379 C380 1.347 1_565 S
C380 H372 0.951 . S
C380 C375 1.429 . S
C380 C379 1.347 1_545 S
H381 C382 0.951 . S
C382 H381 0.951 . S
C382 C388 1.265 . S
H383 C388 0.950 . S
H384 C392 0.949 . S
H385 C393 0.950 . S
H386 C394 0.951 . S
H387 C395 0.951 . S
C388 C382 1.265 . S
C388 H383 0.950 . S
C388 C389 1.478 . S
C389 C376 1.394 . S
C389 C388 1.478 . S
C389 C390 1.397 . S
C390 C389 1.397 . S
C390 C391 1.438 . S
C390 C395 1.429 . S
C391 C374 1.394 . S
C391 C390 1.438 . S
C391 C392 1.428 . S
C392 H384 0.949 . S
C392 C391 1.428 . S
C392 C393 1.345 . S
C393 H385 0.950 . S
C393 C392 1.345 . S
C393 C394 1.424 . S
C394 H386 0.951 . S
C394 C393 1.424 . S
C394 C395 1.347 . S
C395 H387 0.951 . S
C395 C390 1.429 . S
C395 C394 1.347 . S
H396 C397 0.951 . S
C397 H396 0.951 . S
C397 C403 1.265 . S
H398 C403 0.950 . S
H399 C407 0.949 . S
H400 C408 0.950 . S
H401 C409 0.951 . S
H402 C410 0.951 . S
C403 C397 1.265 . S
C403 H398 0.950 . S
C403 C404 1.478 . S
C404 C403 1.478 . S
C404 C405 1.397 . S
C404 C421 1.394 . S
C405 C404 1.397 . S
C405 C406 1.438 . S
C405 C410 1.429 . S
C406 C405 1.438 . S
C406 C407 1.428 . S
C406 C419 1.394 . S
C407 H399 0.949 . S
C407 C406 1.428 . S
C407 C408 1.345 . S
C408 H400 0.950 . S
C408 C407 1.345 . S
C408 C409 1.424 . S
C409 H401 0.951 . S
C409 C408 1.424 . S
C409 C410 1.347 . S
C410 H402 0.951 . S
C410 C405 1.429 . S
C410 C409 1.347 . S
H411 C412 0.951 . S
C412 H411 0.951 . S
C412 C418 1.265 . S
H413 C418 0.950 . S
H414 C422 0.949 . S
H415 C423 0.950 . S
H416 C424 0.951 . S
H417 C425 0.951 . S
C418 C412 1.265 . S
C418 H413 0.950 . S
C418 C419 1.478 . S
C419 C406 1.394 . S
C419 C418 1.478 . S
C419 C420 1.397 . S
C420 C419 1.397 . S
C420 C421 1.438 . S
C420 C425 1.429 . S
C421 C404 1.394 . S
C421 C420 1.438 . S
C421 C422 1.428 . S
C422 H414 0.949 . S
C422 C421 1.428 . S
C422 C423 1.345 . S
C423 H415 0.950 . S
C423 C422 1.345 . S
C423 C424 1.424 . S
C424 H416 0.951 . S
C424 C423 1.424 . S
C424 C425 1.347 . S
C425 H417 0.951 . S
C425 C420 1.429 . S
C425 C424 1.347 . S
H426 C427 0.951 . S
C427 H426 0.951 . S
C427 C433 1.265 . S
H428 C433 0.950 . S
H429 C437 0.949 . S
H430 C438 0.950 . S
H431 C439 0.951 . S
H432 C440 0.951 . S
C433 C427 1.265 . S
C433 H428 0.950 . S
C433 C434 1.478 . S
C434 C433 1.478 . S
C434 C435 1.397 . S
C434 C451 1.394 . S
C435 C434 1.397 . S
C435 C436 1.438 . S
C435 C440 1.429 . S
C436 C435 1.438 . S
C436 C437 1.428 . S
C436 C449 1.394 . S
C437 H429 0.949 . S
C437 C436 1.428 . S
C437 C438 1.345 . S
C438 H430 0.950 . S
C438 C437 1.345 . S
C438 C439 1.424 . S
C439 H431 0.951 . S
C439 C438 1.424 . S
C439 C440 1.347 . S
C440 H432 0.951 . S
C440 C435 1.429 . S
C440 C439 1.347 . S
H441 C442 0.951 . S
C442 H441 0.951 . S
C442 C448 1.265 . S
H443 C448 0.950 . S
H444 C452 0.949 . S
H445 C453 0.950 . S
H446 C454 0.951 . S
H447 C455 0.951 . S
C448 C442 1.265 . S
C448 H443 0.950 . S
C448 C449 1.478 . S
C449 C436 1.394 . S
C449 C448 1.478 . S
C449 C450 1.397 . S
C450 C449 1.397 . S
C450 C451 1.438 . S
C450 C455 1.429 . S
C451 C434 1.394 . S
C451 C450 1.438 . S
C451 C452 1.428 . S
C452 H444 0.949 . S
C452 C451 1.428 . S
C452 C453 1.345 . S
C453 H445 0.950 . S
C453 C452 1.345 . S
C453 C454 1.424 . S
C454 H446 0.951 . S
C454 C453 1.424 . S
C454 C455 1.347 . S
C455 H447 0.951 . S
C455 C450 1.429 . S
C455 C454 1.347 . S
H456 C457 0.951 . S
C457 H456 0.951 . S
C457 C463 1.265 . S
H458 C463 0.950 . S
H459 C467 0.949 . S
H460 C468 0.942 1_455 S
H461 C469 0.951 . S
H462 C470 0.951 . S
C463 C457 1.265 . S
C463 H458 0.950 . S
C463 C464 1.478 . S
C464 C463 1.478 . S
C464 C465 1.397 . S
C464 C481 1.394 . S
C465 C464 1.397 . S
C465 C466 1.438 . S
C465 C470 1.429 . S
C466 C465 1.438 . S
C466 C467 1.428 . S
C466 C479 1.394 . S
C467 H459 0.949 . S
C467 C466 1.428 . S
C467 C468 1.345 . S
C468 H460 0.942 1_655 S
C468 C467 1.345 . S
C468 C469 1.424 . S
C469 H461 0.951 . S
C469 C468 1.424 . S
C469 C470 1.347 . S
C470 H462 0.951 . S
C470 C465 1.429 . S
C470 C469 1.347 . S
H471 C472 0.951 . S
C472 H471 0.951 . S
C472 C478 1.265 . S
H473 C478 0.950 . S
H474 C482 0.949 . S
H475 C483 0.950 . S
H476 C484 0.951 . S
H477 C485 0.951 . S
C478 C472 1.265 . S
C478 H473 0.950 . S
C478 C479 1.478 . S
C479 C466 1.394 . S
C479 C478 1.478 . S
C479 C480 1.397 . S
C480 C479 1.397 . S
C480 C481 1.438 . S
C480 C485 1.429 . S
C481 C464 1.394 . S
C481 C480 1.438 . S
C481 C482 1.428 . S
C482 H474 0.949 . S
C482 C481 1.428 . S
C482 C483 1.345 . S
C483 H475 0.950 . S
C483 C482 1.345 . S
C483 C484 1.424 . S
C484 H476 0.951 . S
C484 C483 1.424 . S
C484 C485 1.347 . S
C485 H477 0.951 . S
C485 C480 1.429 . S
C485 C484 1.347 . S
H486 C487 0.951 . S
C487 H486 0.951 . S
C487 C493 1.265 . S
H488 C493 0.950 . S
H489 C497 0.949 . S
H490 C498 0.950 . S
H491 C499 0.951 . S
H492 C500 0.951 . S
C493 C487 1.265 . S
C493 H488 0.950 . S
C493 C494 1.478 . S
C494 C493 1.478 . S
C494 C495 1.397 . S
C494 C511 1.394 . S
C495 C494 1.397 . S
C495 C496 1.438 . S
C495 C500 1.429 . S
C496 C495 1.438 . S
C496 C497 1.428 . S
C496 C509 1.394 . S
C497 H489 0.949 . S
C497 C496 1.428 . S
C497 C498 1.345 . S
C498 H490 0.950 . S
C498 C497 1.345 . S
C498 C499 1.424 . S
C499 H491 0.951 . S
C499 C498 1.424 . S
C499 C500 1.347 . S
C500 H492 0.951 . S
C500 C495 1.429 . S
C500 C499 1.347 . S
H501 C502 0.951 . S
C502 H501 0.951 . S
C502 C508 1.265 . S
H503 C508 0.950 . S
H504 C512 0.949 . S
H505 C513 0.950 . S
H506 C514 0.951 . S
H507 C515 0.951 . S
C508 C502 1.265 . S
C508 H503 0.950 . S
C508 C509 1.478 . S
C509 C496 1.394 . S
C509 C508 1.478 . S
C509 C510 1.397 . S
C510 C509 1.397 . S
C510 C511 1.438 . S
C510 C515 1.429 . S
C511 C494 1.394 . S
C511 C510 1.438 . S
C511 C512 1.428 . S
C512 H504 0.949 . S
C512 C511 1.428 . S
C512 C513 1.345 . S
C513 H505 0.950 . S
C513 C512 1.345 . S
C513 C514 1.424 . S
C514 H506 0.951 . S
C514 C513 1.424 . S
C514 C515 1.347 . S
C515 H507 0.951 . S
C515 C510 1.429 . S
C515 C514 1.347 . S
H516 C517 0.951 . S
C517 H516 0.951 . S
C517 C523 1.265 . S
H518 C523 0.950 . S
H519 C527 0.949 . S
H520 C528 0.950 . S
H521 C529 0.951 . S
H522 C530 0.951 . S
C523 C517 1.265 . S
C523 H518 0.950 . S
C523 C524 1.478 . S
C524 C523 1.478 . S
C524 C525 1.397 . S
C524 C541 1.394 . S
C525 C524 1.397 . S
C525 C526 1.438 . S
C525 C530 1.429 1_565 S
C526 C525 1.438 . S
C526 C527 1.428 1_565 S
C526 C539 1.394 . S
C527 H519 0.949 . S
C527 C526 1.428 1_545 S
C527 C528 1.345 . S
C528 H520 0.950 . S
C528 C527 1.345 . S
C528 C529 1.424 . S
C529 H521 0.951 . S
C529 C528 1.424 . S
C529 C530 1.347 . S
C530 H522 0.951 . S
C530 C525 1.429 1_545 S
C530 C529 1.347 . S
H531 C532 0.951 . S
C532 H531 0.951 . S
C532 C538 1.265 . S
H533 C538 0.950 . S
H534 C542 0.949 . S
H535 C543 0.950 . S
H536 C544 0.951 . S
H537 C545 0.951 . S
C538 C532 1.265 . S
C538 H533 0.950 . S
C538 C539 1.478 . S
C539 C526 1.394 . S
C539 C538 1.478 . S
C539 C540 1.397 . S
C540 C539 1.397 . S
C540 C541 1.438 . S
C540 C545 1.429 . S
C541 C524 1.394 . S
C541 C540 1.438 . S
C541 C542 1.428 . S
C542 H534 0.949 . S
C542 C541 1.428 . S
C542 C543 1.345 . S
C543 H535 0.950 . S
C543 C542 1.345 . S
C543 C544 1.424 . S
C544 H536 0.951 . S
C544 C543 1.424 . S
C544 C545 1.347 . S
C545 H537 0.951 . S
C545 C540 1.429 . S
C545 C544 1.347 . S
C202 C159 1.338 . S
C187 C133 1.447 . S
C217 C25 1.519 . S
C232 C183 1.414 . S
C247 C61 1.682 . S
C262 C162 1.484 . S
C277 C97 1.604 . S
C292 C180 1.411 . S
C322 C160 1.627 . S
C307 C1 1.594 . S
C352 C182 1.605 . S
C337 C67 1.589 . S
C367 C103 1.526 . S
C382 C161 1.493 . S
C397 C109 1.527 . S
C412 C181 1.489 . S
C442 C179 1.459 . S
C427 C37 1.570 . S
C472 C158 1.528 . S
C457 C73 1.609 . S
C502 C178 1.631 . S
C487 C139 1.527 . S
C517 C31 1.615 . S
C532 C157 1.512 . S
