# Generated by pormake.
# Topology pyr, (3,6)-cn, num edge types: 1
# Building blocks:
#     Node 0, Type 0, BuildingBlock: CUQRIR_clean_linker_1, # of connection points: 3
#     Node 1, Type 0, BuildingBlock: CUQRIR_clean_linker_1, # of connection points: 3
#     Node 2, Type 0, BuildingBlock: CUQRIR_clean_linker_1, # of connection points: 3
#     Node 3, Type 0, BuildingBlock: CUQRIR_clean_linker_1, # of connection points: 3
#     Node 4, Type 0, BuildingBlock: CUQRIR_clean_linker_1, # of connection points: 3
#     Node 5, Type 0, BuildingBlock: CUQRIR_clean_linker_1, # of connection points: 3
#     Node 6, Type 0, BuildingBlock: CUQRIR_clean_linker_1, # of connection points: 3
#     Node 7, Type 0, BuildingBlock: CUQRIR_clean_linker_1, # of connection points: 3
#     Node 8, Type 1, BuildingBlock: JUFBIX_clean_sbu_0, # of connection points: 6
#     Node 9, Type 1, BuildingBlock: JUFBIX_clean_sbu_0, # of connection points: 6
#     Node 10, Type 1, BuildingBlock: JUFBIX_clean_sbu_0, # of connection points: 6
#     Node 11, Type 1, BuildingBlock: JUFBIX_clean_sbu_0, # of connection points: 6
#     Edge 12, Type (0, 1), BuildingBlock: AJUNOK_clean_linker_0, # of connection points: 2
#     Edge 13, Type (0, 1), BuildingBlock: AJUNOK_clean_linker_0, # of connection points: 2
#     Edge 14, Type (0, 1), BuildingBlock: AJUNOK_clean_linker_0, # of connection points: 2
#     Edge 15, Type (0, 1), BuildingBlock: AJUNOK_clean_linker_0, # of connection points: 2
#     Edge 16, Type (0, 1), BuildingBlock: AJUNOK_clean_linker_0, # of connection points: 2
#     Edge 17, Type (0, 1), BuildingBlock: AJUNOK_clean_linker_0, # of connection points: 2
#     Edge 18, Type (0, 1), BuildingBlock: AJUNOK_clean_linker_0, # of connection points: 2
#     Edge 19, Type (0, 1), BuildingBlock: AJUNOK_clean_linker_0, # of connection points: 2
#     Edge 20, Type (0, 1), BuildingBlock: AJUNOK_clean_linker_0, # of connection points: 2
#     Edge 21, Type (0, 1), BuildingBlock: AJUNOK_clean_linker_0, # of connection points: 2
#     Edge 22, Type (0, 1), BuildingBlock: AJUNOK_clean_linker_0, # of connection points: 2
#     Edge 23, Type (0, 1), BuildingBlock: AJUNOK_clean_linker_0, # of connection points: 2
#     Edge 24, Type (0, 1), BuildingBlock: AJUNOK_clean_linker_0, # of connection points: 2
#     Edge 25, Type (0, 1), BuildingBlock: AJUNOK_clean_linker_0, # of connection points: 2
#     Edge 26, Type (0, 1), BuildingBlock: AJUNOK_clean_linker_0, # of connection points: 2
#     Edge 27, Type (0, 1), BuildingBlock: AJUNOK_clean_linker_0, # of connection points: 2
#     Edge 28, Type (0, 1), BuildingBlock: AJUNOK_clean_linker_0, # of connection points: 2
#     Edge 29, Type (0, 1), BuildingBlock: AJUNOK_clean_linker_0, # of connection points: 2
#     Edge 30, Type (0, 1), BuildingBlock: AJUNOK_clean_linker_0, # of connection points: 2
#     Edge 31, Type (0, 1), BuildingBlock: AJUNOK_clean_linker_0, # of connection points: 2
#     Edge 32, Type (0, 1), BuildingBlock: AJUNOK_clean_linker_0, # of connection points: 2
#     Edge 33, Type (0, 1), BuildingBlock: AJUNOK_clean_linker_0, # of connection points: 2
#     Edge 34, Type (0, 1), BuildingBlock: AJUNOK_clean_linker_0, # of connection points: 2
#     Edge 35, Type (0, 1), BuildingBlock: AJUNOK_clean_linker_0, # of connection points: 2
# Relax obj value: 0.186
# Max RMSD: 0.233
# Mean RMSD: 0.155
data_MOF--net-pry--node1-JUFBIX_clean_sbu_0--node2-CUQRIR_clean_linker_1--edge1-AJUNOK_clean_linker_0
_symmetry_space_group_name_H-M    P1
_symmetry_Int_Tables_number       1
_symmetry_cell_setting            triclinic
loop_
_symmetry_equiv_pos_as_xyz
'x, y, z'
_cell_length_a     24.323534
_cell_length_b     23.011064
_cell_length_c     23.802764
_cell_angle_alpha  78.44176
_cell_angle_beta   90.30845
_cell_angle_gamma 94.401208
loop_
_atom_site_label
_atom_site_type_symbol
_atom_site_fract_x
_atom_site_fract_y
_atom_site_fract_z
_atom_type_partial_charge
C0 C 0.21319 0.2184 0.24164 0.0
N1 N 0.24894 0.17472 0.25107 0.0
N2 N 0.22447 0.25742 0.19161 0.0
C3 C 0.16395 0.21951 0.27973 0.0
C4 C 0.26919 0.23561 0.17082 0.0
N5 N 0.28462 0.18519 0.20669 0.0
C6 C 0.2987 0.26457 0.1159 0.0
H7 H 0.13226 0.18417 0.27336 0.0
H8 H 0.14468 0.2623 0.27047 0.0
H9 H 0.17609 0.21 0.32546 0.0
H10 H 0.34368 0.25978 0.11997 0.0
H11 H 0.29116 0.31241 0.10397 0.0
H12 H 0.28327 0.24231 0.08102 0.0
C13 C 0.36837 0.71234 0.78684 0.0
N14 N 0.36746 0.75853 0.81404 0.0
N15 N 0.41736 0.6878 0.79384 0.0
C16 C 0.32704 0.70087 0.74201 0.0
C17 C 0.44538 0.7194 0.82874 0.0
N18 N 0.41513 0.76247 0.84096 0.0
C19 C 0.50361 0.70998 0.84752 0.0
H20 H 0.32418 0.65344 0.73851 0.0
H21 H 0.34042 0.72827 0.69978 0.0
H22 H 0.28554 0.71287 0.7524 0.0
H23 H 0.53243 0.72957 0.81158 0.0
H24 H 0.50907 0.66159 0.85868 0.0
H25 H 0.51404 0.73068 0.8849 0.0
C26 C 0.67401 0.39152 0.89634 0.0
N27 N 0.70516 0.37785 0.94392 0.0
N28 N 0.69711 0.43931 0.85952 0.0
C29 C 0.62228 0.35598 0.88341 0.0
C30 C 0.74379 0.45472 0.88629 0.0
N31 N 0.74895 0.41751 0.93798 0.0
C32 C 0.78477 0.50552 0.86166 0.0
H33 H 0.62204 0.35207 0.83769 0.0
H34 H 0.58599 0.3799 0.89098 0.0
H35 H 0.61732 0.31073 0.91037 0.0
H36 H 0.76654 0.53692 0.82623 0.0
H37 H 0.82098 0.48759 0.84486 0.0
H38 H 0.79952 0.52958 0.89555 0.0
C39 C 0.95406 0.60085 0.51093 0.0
N40 N 1.00223 0.62408 0.48443 0.0
N41 N 0.94348 0.62621 0.55588 0.0
C42 C 0.91132 0.56254 0.48607 0.0
C43 C 0.99061 0.65968 0.56049 0.0
N44 N 1.02511 0.66193 0.51527 0.0
C45 C 0.99626 0.70149 0.60207 0.0
H46 H 0.88654 0.59127 0.45426 0.0
H47 H 0.88303 0.53725 0.52037 0.0
H48 H 0.93129 0.5313 0.46414 0.0
H49 H 0.96589 0.68778 0.63778 0.0
H50 H 0.98915 0.74734 0.57956 0.0
H51 H 1.03824 0.70175 0.62041 0.0
C52 C 0.86172 0.87663 0.94235 0.0
N53 N 0.90109 0.86616 0.90579 0.0
N54 N 0.83718 0.9273 0.9211 0.0
C55 C 0.84369 0.83431 0.99714 0.0
C56 C 0.86281 0.9469 0.86898 0.0
N57 N 0.90131 0.9095 0.85889 0.0
C58 C 0.85426 1.0058 0.83059 0.0
H59 H 0.79935 0.83687 1.00621 0.0
H60 H 0.86794 0.84642 1.03328 0.0
H61 H 0.85058 0.78774 0.99479 0.0
H62 H 0.83982 0.0375 0.85578 0.0
H63 H 0.8225 0.99949 0.79833 0.0
H64 H 0.89302 0.02503 0.80747 0.0
C65 C 0.80651 0.33267 0.40735 0.0
N66 N 0.80851 0.28496 0.38264 0.0
N67 N 0.76919 0.36943 0.38082 0.0
C68 C 0.83389 0.33837 0.46286 0.0
C69 C 0.74922 0.3421 0.33881 0.0
N70 N 0.77202 0.29007 0.34074 0.0
C71 C 0.7036 0.36433 0.29919 0.0
H72 H 0.87533 0.321 0.46487 0.0
H73 H 0.80855 0.31154 0.49888 0.0
H74 H 0.83753 0.38546 0.46781 0.0
H75 H 0.71065 0.41323 0.28429 0.0
H76 H 0.66362 0.35562 0.32269 0.0
H77 H 0.70121 0.34233 0.26171 0.0
C78 C 0.36544 0.63127 0.20941 0.0
N79 N 0.41035 0.66383 0.22444 0.0
N80 N 0.34882 0.65436 0.15556 0.0
C81 C 0.33757 0.57648 0.24652 0.0
C82 C 0.38437 0.70255 0.1384 0.0
N83 N 0.42239 0.7078 0.17942 0.0
C84 C 0.37782 0.74817 0.084 0.0
H85 H 0.31734 0.54696 0.21965 0.0
H86 H 0.30517 0.58976 0.273 0.0
H87 H 0.36758 0.55168 0.27535 0.0
H88 H 0.33444 0.74787 0.06942 0.0
H89 H 0.40334 0.73744 0.04951 0.0
H90 H 0.39144 0.79365 0.08993 0.0
C91 C 0.11515 0.36224 0.65042 0.0
N92 N 0.1407 0.33993 0.6101 0.0
N93 N 0.14327 0.41251 0.65927 0.0
C94 C 0.06424 0.3334 0.68324 0.0
C95 C 0.18619 0.42084 0.62216 0.0
N96 N 0.18472 0.37664 0.59209 0.0
C97 C 0.23453 0.4661 0.6221 0.0
H98 H 1.04124 0.3671 0.69867 0.0
H99 H 0.07616 0.30028 0.721 0.0
H100 H 1.03721 0.30981 0.65592 0.0
H101 H 0.27256 0.44296 0.63401 0.0
H102 H 0.22855 0.49614 0.65219 0.0
H103 H 0.24094 0.49334 0.57828 0.0
Co104 Co 0.05543 1.00814 0.52479 0.0
C105 C 0.08912 0.89416 0.52646 0.0
Co106 Co 0.1298 0.98841 0.5746 0.0
C107 C 0.95589 0.06325 0.49003 0.0
C108 C 0.97866 1.00849 0.43244 0.0
N109 N 0.99214 0.02372 0.48291 0.0
N110 N 0.92118 0.07422 0.44567 0.0
C111 C 0.93539 0.04019 0.40908 0.0
H112 H 0.95823 0.08801 0.52426 0.0
H113 H 1.00192 0.98044 0.41161 0.0
C114 C 0.09876 0.10264 0.57008 0.0
N115 N 0.19286 0.97732 0.61593 0.0
C116 C 0.20448 0.93153 0.65783 0.0
C117 C 0.23616 0.01804 0.61395 0.0
N118 N 0.25318 0.94241 0.68247 0.0
C119 C 0.27339 0.99661 0.65476 0.0
C120 C 0.15217 0.03697 0.45704 0.0
O121 O 0.06098 0.08798 0.53767 0.0
O122 O 0.13185 0.06477 0.59142 0.0
O123 O 0.17438 0.01972 0.50549 0.0
O124 O 0.09969 0.03484 0.45512 0.0
O125 O 0.12824 0.91037 0.5571 0.0
H126 H 0.24002 0.06098 0.58513 0.0
H127 H 0.17823 0.89069 0.6691 0.0
O128 O 0.05144 0.92927 0.51076 0.0
O129 O 1.01095 0.98098 0.59577 0.0
O130 O 0.08524 0.95789 0.6444 0.0
C131 C 1.033 0.9605 0.64393 0.0
H132 H 0.91896 0.04218 0.36642 0.0
H133 H 0.31256 0.01881 0.66311 0.0
Co134 Co 0.5453 0.04501 1.04615 0.0
C135 C 0.53526 0.93733 0.12888 0.0
Co136 Co 0.59019 0.0445 0.12657 0.0
C137 C 0.50988 0.98716 0.95672 0.0
C138 C 0.45707 0.05624 0.96133 0.0
N139 N 0.50497 0.03462 0.98148 0.0
N140 N 0.46703 0.97756 0.92307 0.0
C141 C 0.43327 0.02062 0.9259 0.0
H142 H 0.54095 0.95575 0.96839 0.0
H143 H 0.43806 0.09177 0.97564 0.0
C144 C 0.60405 0.15179 1.04489 0.0
N145 N 0.63139 0.04913 0.1906 0.0
C146 C 0.63766 0.0963 0.21614 0.0
C147 C 0.67028 0.01299 0.21384 0.0
N148 N 0.67965 0.09174 0.25331 0.0
C149 C 0.70064 0.03963 0.25208 0.0
C150 C 0.65311 1.00954 1.03849 0.0
O151 O 0.57062 0.12667 1.01375 0.0
O152 O 0.61619 0.12375 0.09418 0.0
O153 O 0.65494 0.01581 0.09074 0.0
O154 O 0.60856 0.02026 1.01199 0.0
O155 O 0.56514 0.96515 0.15998 0.0
H156 H 0.67863 0.97215 0.2007 0.0
H157 H 0.61519 0.13569 0.20395 0.0
O158 O 0.52245 0.96394 0.07913 0.0
O159 O 0.48074 0.07094 0.08062 0.0
O160 O 0.52464 0.07371 0.16049 0.0
C161 C 0.48019 0.08126 0.13141 0.0
H162 H 0.39277 0.02365 0.90694 0.0
H163 H 0.73696 0.02371 0.2748 0.0
Co164 Co 0.59011 0.59378 0.534 0.0
C165 C 0.51644 0.60231 0.4457 0.0
Co166 Co 0.53122 0.51484 0.54709 0.0
C167 C 0.69445 0.64445 0.54828 0.0
C168 C 0.64399 0.71589 0.51794 0.0
N169 N 0.64308 0.65594 0.53098 0.0
N170 N 0.72716 0.6937 0.54856 0.0
C171 C 0.69661 0.73948 0.5278 0.0
H172 H 0.70848 0.60008 0.55958 0.0
H173 H 0.60899 0.7406 0.50251 0.0
C174 C 0.60469 0.50705 0.63482 0.0
N175 N 0.48182 0.44919 0.55115 0.0
C176 C 0.42766 0.4477 0.53911 0.0
C177 C 0.49361 0.39166 0.56299 0.0
N178 N 0.4052 0.39158 0.54257 0.0
C179 C 0.44642 0.35609 0.55828 0.0
C180 C 0.62531 0.50438 0.4854 0.0
O181 O 0.62119 0.55706 0.60505 0.0
O182 O 0.56419 0.47761 0.61736 0.0
O183 O 0.57925 0.47891 0.50463 0.0
O184 O 0.63853 0.5565 0.49286 0.0
O185 O 0.49767 0.55297 0.47655 0.0
H186 H 0.534 0.37658 0.57434 0.0
H187 H 0.40484 0.48704 0.52968 0.0
O188 O 0.55851 0.63027 0.46274 0.0
O189 O 0.54241 0.63035 0.57637 0.0
O190 O 0.48434 0.5507 0.59148 0.0
C191 C 0.49955 0.6018 0.60153 0.0
H192 H 0.71124 0.78603 0.52022 0.0
H193 H 0.4424 0.30794 0.56674 0.0
Co194 Co 0.05854 0.54432 1.00572 0.0
C195 C 0.94767 0.49423 1.04361 0.0
Co196 Co 1.02871 0.55614 0.09006 0.0
C197 C 0.10749 0.5118 0.9025 0.0
C198 C 1.02663 0.54296 0.89413 0.0
N199 N 0.06769 0.53079 0.93228 0.0
N200 N 0.09233 0.51312 0.84744 0.0
C201 C 1.04161 0.5325 0.8425 0.0
H202 H 0.1464 0.49768 0.92048 0.0
H203 H 0.98741 0.55836 0.90326 0.0
C204 C 0.13932 0.60222 0.05357 0.0
N205 N 1.01784 0.58231 0.16059 0.0
C206 C 1.01263 0.56001 0.21818 0.0
C207 C 1.02437 0.64194 0.15762 0.0
N208 N 1.01459 0.60415 0.24908 0.0
C209 C 1.0219 0.65508 0.21049 0.0
C210 C 0.0873 0.45281 0.09573 0.0
O211 O 0.13217 0.58128 1.00813 0.0
O212 O 0.0992 0.59762 0.0883 0.0
O213 O 0.06378 0.48341 0.12721 0.0
O214 O 0.08602 0.46976 1.04123 0.0
O215 O 0.95612 0.51223 0.09075 0.0
H216 H 1.03451 0.67516 0.11954 0.0
H217 H 1.00869 0.51299 0.23699 0.0
O218 O 0.98561 0.50566 1.00563 0.0
O219 O 1.03258 0.62016 0.96947 0.0
O220 O 0.99554 0.62788 0.04986 0.0
C221 C 1.00425 0.64899 0.99695 0.0
H222 H 1.01643 0.53698 0.80441 0.0
H223 H 1.02717 0.69918 0.22024 0.0
C224 C 0.19471 0.08359 0.29825 0.0
C225 C 0.24147 0.12391 0.29852 0.0
C226 C 0.16739 0.05393 0.34948 0.0
C227 C 0.18657 0.06149 0.40378 0.0
H228 H 0.17539 0.08042 0.25777 0.0
H229 H 0.12941 0.02697 0.34636 0.0
S230 S 0.31128 0.15604 0.4289 0.0
N231 N 0.30783 0.16591 0.3583 0.0
N232 N 0.25914 0.10779 0.45436 0.0
C233 C 0.2364 0.09696 0.40488 0.0
C234 C 0.2633 0.12833 0.35251 0.0
C235 C 0.40002 0.82889 0.90777 0.0
C236 C 0.43316 0.81314 0.86573 0.0
C237 C 0.41062 0.88316 0.92582 0.0
C238 C 0.45465 0.92362 0.90216 0.0
H239 H 0.36488 0.79939 0.92576 0.0
H240 H 0.38449 0.8936 0.95855 0.0
S241 S 0.5509 0.90626 0.78797 0.0
N242 N 0.50968 0.84453 0.79858 0.0
N243 N 0.53056 0.94549 0.834 0.0
C244 C 0.48818 0.90847 0.86045 0.0
C245 C 0.4772 0.85352 0.84176 0.0
C246 C 0.62458 0.48261 0.7953 0.0
C247 C 0.67768 0.46205 0.80254 0.0
C248 C 0.60053 0.49532 0.74087 0.0
C249 C 0.62889 0.48802 0.69181 0.0
H250 H 0.60114 0.48758 0.83236 0.0
H251 H 0.55967 0.51143 0.73705 0.0
S252 S 0.76819 0.43437 0.68754 0.0
N253 N 0.75712 0.43354 0.75619 0.0
N254 N 0.71285 0.45983 0.65342 0.0
C255 C 0.68231 0.46862 0.69816 0.0
C256 C 0.70651 0.45497 0.75369 0.0
C257 C 0.97747 0.65368 0.38336 0.0
C258 C 1.01243 0.62392 0.42471 0.0
C259 C 0.97624 0.64369 0.32734 0.0
C260 C 1.00987 0.60336 0.30969 0.0
H261 H 0.94893 0.68308 0.39525 0.0
H262 H 0.9489 0.66828 0.29698 0.0
S263 S 0.10801 0.5128 0.40179 0.0
N264 N 0.08024 0.55072 0.44507 0.0
N265 N 0.07956 0.53342 0.33833 0.0
C266 C 1.045 0.57288 0.35051 0.0
C267 C 1.04595 0.58293 0.40821 0.0
C268 C 0.38109 0.15205 0.22355 0.0
C269 C 0.3298 0.1497 0.19537 0.0
C270 C 0.42877 0.12855 0.20428 0.0
C271 C 0.42807 0.10228 0.15511 0.0
H272 H 0.38505 0.17449 0.25938 0.0
H273 H 0.46704 0.13299 0.22703 0.0
S274 S 0.30295 0.08225 0.06783 0.0
N275 N 0.2812 0.11634 0.11736 0.0
N276 N 0.3688 0.07326 0.0811 0.0
C277 C 0.37628 0.09839 0.12785 0.0
C278 C 0.32805 0.12176 0.14778 0.0
C279 C 0.36703 0.85321 0.74707 0.0
C280 C 0.33958 0.81005 0.78968 0.0
C281 C 0.33895 0.89826 0.71428 0.0
C282 C 0.28221 0.90105 0.72251 0.0
H283 H 0.40983 0.84979 0.73687 0.0
H284 H 0.36111 0.92885 0.67988 0.0
S285 S 0.19318 0.80136 0.83305 0.0
N286 N 0.25446 0.77453 0.84198 0.0
N287 N 0.20048 0.85997 0.77986 0.0
C288 C 0.25479 0.85975 0.76709 0.0
C289 C 0.28383 0.81395 0.80089 0.0
C290 C 0.79348 0.45786 1.0181 0.0
C291 C 0.79472 0.42131 0.97702 0.0
C292 C 0.84241 0.47761 1.04389 0.0
C293 C 0.89466 0.46228 1.02881 0.0
H294 H 0.75484 0.47464 1.02729 0.0
H295 H 0.83961 0.50852 0.0724 0.0
S296 S 0.91946 0.36381 0.92662 0.0
N297 N 0.85201 0.36816 0.9254 0.0
N298 N 0.94312 0.40378 0.97319 0.0
C299 C 0.89558 0.42278 0.99031 0.0
C300 C 0.84602 0.40282 0.96456 0.0
C301 C 0.8747 0.69495 0.51478 0.0
C302 C 0.89147 0.65067 0.56017 0.0
C303 C 0.82206 0.71538 0.51426 0.0
C304 C 0.78493 0.69237 0.55932 0.0
H305 H 0.90166 0.71138 0.4781 0.0
H306 H 0.80862 0.74502 0.47629 0.0
S307 S 0.8136 0.58651 0.69356 0.0
N308 N 0.87077 0.59199 0.65496 0.0
N309 N 0.77117 0.63069 0.65455 0.0
C310 C 0.80341 0.65294 0.60761 0.0
C311 C 0.85689 0.63179 0.60786 0.0
C312 C 0.18457 0.3541 0.19455 0.0
C313 C 0.19252 0.3073 0.16568 0.0
C314 C 0.14914 0.39947 0.17312 0.0
C315 C 0.1207 0.40105 0.12101 0.0
H316 H 0.20548 0.35508 0.23467 0.0
H317 H 0.14498 0.43432 0.19702 0.0
S318 S 0.12725 0.28918 1.02848 0.0
N319 N 0.168 0.26531 0.08259 0.0
N320 N 0.10388 0.35097 1.04102 0.0
C321 C 0.12913 0.35494 0.09131 0.0
C322 C 0.16439 0.30827 0.11375 0.0
C323 C 0.65274 0.31601 1.02438 0.0
C324 C 0.69618 0.32217 0.98417 0.0
C325 C 0.62294 0.26071 1.04413 0.0
C326 C 0.63467 0.21001 1.02314 0.0
H327 H 0.63866 0.3553 1.03656 0.0
H328 H 0.58899 0.25817 0.07403 0.0
S329 S 0.74881 0.20042 0.92391 0.0
N330 N 0.75286 0.27111 0.92932 0.0
N331 N 0.69689 0.16756 0.96592 0.0
C332 C 0.68055 0.21445 0.98662 0.0
C333 C 0.71149 0.27032 0.96758 0.0
C334 C 1.03316 0.76394 0.46186 0.0
C335 C 0.0593 0.71584 0.49399 0.0
C336 C 1.0458 0.8222 0.46984 0.0
C337 C 0.08587 0.83491 0.50957 0.0
H338 H 0.99702 0.75563 0.43723 0.0
H339 H 1.0208 0.85663 0.44797 0.0
S340 S 0.17719 0.72671 0.59125 0.0
N341 N 0.1351 0.68635 0.55685 0.0
N342 N 0.15995 0.79591 0.57173 0.0
C343 C 0.11839 0.78869 0.5348 0.0
C344 C 0.10539 0.72929 0.52626 0.0
C345 C 0.47376 0.70099 0.70649 0.0
C346 C 0.44167 0.66318 0.74974 0.0
C347 C 0.49034 0.68141 0.65766 0.0
C348 C 0.47489 0.62333 0.64978 0.0
H349 H 0.4848 0.74665 0.70991 0.0
H350 H 0.51562 0.71215 0.62591 0.0
S351 S 0.39002 0.5075 0.75121 0.0
N352 N 0.39457 0.56579 0.78223 0.0
N353 N 0.4252 0.52812 0.69038 0.0
C354 C 0.44235 0.58513 0.69291 0.0
C355 C 0.42599 0.60522 0.74292 0.0
C356 C 0.99242 0.9214 0.80599 0.0
C357 C 0.93422 0.91533 0.80604 0.0
C358 C 1.02386 0.9344 0.754 0.0
C359 C 0.99877 0.94237 0.69925 0.0
H360 H 1.0138 0.91796 0.84639 0.0
H361 H 0.06834 0.93982 0.75684 0.0
S362 S 0.84763 0.92403 0.67607 0.0
N363 N 0.8533 0.91271 0.74652 0.0
N364 N 0.91115 0.93821 0.65011 0.0
C365 C 0.94058 0.93415 0.69922 0.0
C366 C 0.90883 0.92042 0.75198 0.0
C367 C 0.7804 0.21218 0.28454 0.0
C368 C 0.74831 0.24058 0.3181 0.0
C369 C 0.75837 0.16185 0.26492 0.0
C370 C 0.70368 0.13907 0.27828 0.0
H371 H 0.8225 0.22923 0.27342 0.0
H372 H 0.78352 0.1415 0.23801 0.0
S373 S 0.60542 0.19305 0.37026 0.0
N374 N 0.66148 0.23865 0.36876 0.0
N375 N 0.61937 0.14576 0.32942 0.0
C376 C 0.67182 0.16622 0.31278 0.0
C377 C 0.69436 0.21661 0.33342 0.0
C378 C 0.40787 0.643 0.33125 0.0
C379 C 0.43837 0.65418 0.27943 0.0
C380 C 0.43343 0.62727 0.38483 0.0
C381 C 0.49091 0.62446 0.38912 0.0
H382 H 0.36362 0.64542 0.33033 0.0
H383 H 0.40794 0.61701 0.42327 0.0
S384 S 0.59002 0.65046 0.2672 0.0
N385 N 0.52947 0.66031 0.23643 0.0
N386 N 0.57779 0.63507 0.33704 0.0
C387 C 0.52223 0.63785 0.33798 0.0
C388 C 0.49598 0.65189 0.28325 0.0
C389 C 0.12439 0.49903 0.69901 0.0
C390 C 0.13832 0.44012 0.70749 0.0
C391 C 0.11505 0.52508 0.74586 0.0
C392 C 0.11893 0.49271 0.80243 0.0
H393 H 0.11868 0.52403 0.65599 0.0
H394 H 0.10122 0.5696 0.73804 0.0
S395 S 0.1618 0.33943 0.84612 0.0
N396 N 0.16261 0.35238 0.77527 0.0
N397 N 0.14265 0.40073 0.86402 0.0
C398 C 0.13683 0.43519 0.81123 0.0
C399 C 0.14682 0.40885 0.76342 0.0
C400 C 0.79699 0.96072 1.00553 0.0
C401 C 0.79278 0.95207 0.94835 0.0
C402 C 0.75249 0.97941 1.03432 0.0
C403 C 0.7013 0.99049 1.00747 0.0
H404 H 0.83504 0.95239 1.02846 0.0
H405 H 0.75825 0.98479 0.07818 0.0
S406 S 0.66885 0.97442 0.85778 0.0
N407 N 0.73283 0.95545 0.86662 0.0
N408 N 0.65052 0.99175 0.91865 0.0
C409 C 0.69715 0.98271 0.94984 0.0
C410 C 0.74231 0.9634 0.92092 0.0
C411 C 0.89167 0.23113 0.3839 0.0
C412 C 0.83751 0.23298 0.40283 0.0
C413 C 0.91875 0.17866 0.39787 0.0
C414 C 0.89218 0.12679 0.43096 0.0
H415 H 0.91254 0.27019 0.35727 0.0
H416 H 0.9606 0.17828 0.38271 0.0
S417 S 0.75071 0.10943 0.49104 0.0
N418 N 0.75841 0.1795 0.45654 0.0
N419 N 0.80958 0.08041 0.48288 0.0
C420 C 0.83836 0.12834 0.4507 0.0
C421 C 0.81083 0.18172 0.43653 0.0
C422 C 0.29402 0.61264 0.08254 0.0
C423 C 0.29692 0.64199 0.12911 0.0
C424 C 0.24344 0.60292 0.05516 0.0
C425 C 0.19444 0.62322 0.07302 0.0
H426 H 0.33092 0.59641 0.06798 0.0
H427 H 0.24237 0.57748 1.02145 0.0
S428 S 0.18323 0.70963 0.18848 0.0
N429 N 0.24869 0.69527 0.18876 0.0
N430 N 0.15436 0.67935 0.1372 0.0
C431 C 0.19818 0.65553 0.11774 0.0
C432 C 0.24916 0.66428 0.14584 0.0
C433 C 0.26761 0.32303 0.59726 0.0
C434 C 0.23254 0.36204 0.56454 0.0
C435 C 0.32432 0.32861 0.58594 0.0
C436 C 0.34739 0.37376 0.54186 0.0
H437 H 0.25242 0.29351 0.63615 0.0
H438 H 0.35069 0.30198 0.61577 0.0
S439 S 0.2707 0.47651 0.43542 0.0
N440 N 0.22269 0.43877 0.48 0.0
N441 N 0.32972 0.44967 0.45829 0.0
C442 C 0.31174 0.40737 0.50417 0.0
C443 C 0.25399 0.40113 0.51547 0.0
C444 C 0.9657 0.80992 0.97198 0.0
C445 C 0.93717 0.81779 0.91954 0.0
C446 C 0.98746 0.75566 0.99626 0.0
C447 C 0.98339 0.70716 0.96832 0.0
H448 H 0.96808 0.84511 0.99625 0.0
H449 H 1.00698 0.75148 1.03771 0.0
S450 S 0.91731 0.70592 0.82746 0.0
N451 N 0.90825 0.77294 0.83929 0.0
N452 N 0.95221 0.67225 0.88276 0.0
C453 C 0.95843 0.7157 0.91386 0.0
C454 C 0.93477 0.77065 0.88991 0.0
C455 C 0.45664 0.79884 0.21253 0.0
C456 C 0.46221 0.758 0.17659 0.0
C457 C 0.48376 0.85625 0.19921 0.0
C458 C 0.51604 0.8744 0.14898 0.0
H459 H 0.42812 0.78781 0.24853 0.0
H460 H 0.47628 0.88782 0.22598 0.0
S461 S 0.54955 0.78102 1.04588 0.0
N462 N 0.50826 0.7368 0.09368 0.0
N463 N 0.55669 0.84538 0.06686 0.0
C464 C 0.52487 0.83257 0.11519 0.0
C465 C 0.49875 0.77401 0.12964 0.0
C466 C 0.10788 0.27101 0.54805 0.0
C467 C 0.13058 0.28071 0.59998 0.0
C468 C 0.09549 0.21292 0.53911 0.0
C469 C 0.10654 0.16326 0.58163 0.0
H470 H 0.09937 0.30855 0.51462 0.0
H471 H 0.07856 0.20686 0.4983 0.0
S472 S 0.16489 0.16652 0.72545 0.0
N473 N 0.16228 0.23721 0.69464 0.0
N474 N 0.14052 0.12811 0.6779 0.0
C475 C 0.1291 0.17292 0.6338 0.0
C476 C 0.14077 0.23172 0.64299 0.0
C477 C 0.68935 0.37677 0.43974 0.0
C478 C 0.73645 0.40432 0.40894 0.0
C479 C 0.65358 0.40982 0.46371 0.0
C480 C 0.664 0.47171 0.45823 0.0
H481 H 0.67983 0.32928 0.44431 0.0
H482 H 0.61761 0.38642 0.48689 0.0
S483 S 0.78369 0.56394 0.38248 0.0
N484 N 0.7929 0.49566 0.37437 0.0
N485 N 0.7262 0.55898 0.42045 0.0
C486 C 0.71194 0.49964 0.42829 0.0
C487 C 0.74812 0.46561 0.40339 0.0
loop_
_geom_bond_atom_site_label_1
_geom_bond_atom_site_label_2
_geom_bond_distance
_geom_bond_site_symmetry_2
_ccdc_geom_bond_type
C0 N1 1.317 . S
C0 N2 1.348 . S
C0 C3 1.485 . S
N1 C0 1.317 . S
N1 N5 1.370 . S
N2 C0 1.348 . S
N2 C4 1.346 . S
C3 C0 1.485 . S
C3 H7 0.960 . S
C3 H8 0.961 . S
C3 H9 0.960 . S
C4 N2 1.346 . S
C4 N5 1.307 . S
C4 C6 1.486 . S
N5 N1 1.370 . S
N5 C4 1.307 . S
C6 C4 1.486 . S
C6 H10 0.960 . S
C6 H11 0.960 . S
C6 H12 0.959 . S
H7 C3 0.960 . S
H8 C3 0.961 . S
H9 C3 0.960 . S
H10 C6 0.960 . S
H11 C6 0.960 . S
H12 C6 0.959 . S
C13 N14 1.317 . S
C13 N15 1.348 . S
C13 C16 1.485 . S
N14 C13 1.317 . S
N14 N18 1.370 . S
N15 C13 1.348 . S
N15 C17 1.346 . S
C16 C13 1.485 . S
C16 H20 0.960 . S
C16 H21 0.961 . S
C16 H22 0.960 . S
C17 N15 1.346 . S
C17 N18 1.307 . S
C17 C19 1.486 . S
N18 N14 1.370 . S
N18 C17 1.307 . S
C19 C17 1.486 . S
C19 H23 0.960 . S
C19 H24 0.960 . S
C19 H25 0.959 . S
H20 C16 0.960 . S
H21 C16 0.961 . S
H22 C16 0.960 . S
H23 C19 0.960 . S
H24 C19 0.960 . S
H25 C19 0.959 . S
C26 N27 1.317 . S
C26 N28 1.348 . S
C26 C29 1.485 . S
N27 C26 1.317 . S
N27 N31 1.370 . S
N28 C26 1.348 . S
N28 C30 1.346 . S
C29 C26 1.485 . S
C29 H33 0.960 . S
C29 H34 0.961 . S
C29 H35 0.960 . S
C30 N28 1.346 . S
C30 N31 1.307 . S
C30 C32 1.486 . S
N31 N27 1.370 . S
N31 C30 1.307 . S
C32 C30 1.486 . S
C32 H36 0.960 . S
C32 H37 0.960 . S
C32 H38 0.959 . S
H33 C29 0.960 . S
H34 C29 0.961 . S
H35 C29 0.960 . S
H36 C32 0.960 . S
H37 C32 0.960 . S
H38 C32 0.959 . S
C39 N40 1.317 . S
C39 N41 1.348 . S
C39 C42 1.485 . S
N40 C39 1.317 . S
N40 N44 1.370 . S
N41 C39 1.348 . S
N41 C43 1.346 . S
C42 C39 1.485 . S
C42 H46 0.960 . S
C42 H47 0.961 . S
C42 H48 0.960 . S
C43 N41 1.346 . S
C43 N44 1.307 . S
C43 C45 1.486 . S
N44 N40 1.370 . S
N44 C43 1.307 . S
C45 C43 1.486 . S
C45 H49 0.960 . S
C45 H50 0.960 . S
C45 H51 0.959 . S
H46 C42 0.960 . S
H47 C42 0.961 . S
H48 C42 0.960 . S
H49 C45 0.960 . S
H50 C45 0.960 . S
H51 C45 0.959 . S
C52 N53 1.317 . S
C52 N54 1.348 . S
C52 C55 1.485 . S
N53 C52 1.317 . S
N53 N57 1.370 . S
N54 C52 1.348 . S
N54 C56 1.346 . S
C55 C52 1.485 . S
C55 H59 0.960 . S
C55 H60 0.961 1_556 S
C55 H61 0.960 1_556 S
C56 N54 1.346 . S
C56 N57 1.307 . S
C56 C58 1.486 1_565 S
N57 N53 1.370 . S
N57 C56 1.307 . S
C58 C56 1.486 1_545 S
C58 H62 0.960 . S
C58 H63 0.960 . S
C58 H64 0.959 . S
H59 C55 0.960 . S
H60 C55 0.961 1_554 S
H61 C55 0.960 1_554 S
H62 C58 0.960 . S
H63 C58 0.960 . S
H64 C58 0.959 . S
C65 N66 1.317 . S
C65 N67 1.348 . S
C65 C68 1.485 . S
N66 C65 1.317 . S
N66 N70 1.370 . S
N67 C65 1.348 . S
N67 C69 1.346 . S
C68 C65 1.485 . S
C68 H72 0.960 . S
C68 H73 0.961 . S
C68 H74 0.960 . S
C69 N67 1.346 . S
C69 N70 1.307 . S
C69 C71 1.486 . S
N70 N66 1.370 . S
N70 C69 1.307 . S
C71 C69 1.486 . S
C71 H75 0.960 . S
C71 H76 0.960 . S
C71 H77 0.959 . S
H72 C68 0.960 . S
H73 C68 0.961 . S
H74 C68 0.960 . S
H75 C71 0.960 . S
H76 C71 0.960 . S
H77 C71 0.959 . S
C78 N79 1.317 . S
C78 N80 1.348 . S
C78 C81 1.485 . S
N79 C78 1.317 . S
N79 N83 1.370 . S
N80 C78 1.348 . S
N80 C82 1.346 . S
C81 C78 1.485 . S
C81 H85 0.960 . S
C81 H86 0.961 . S
C81 H87 0.960 . S
C82 N80 1.346 . S
C82 N83 1.307 . S
C82 C84 1.486 . S
N83 N79 1.370 . S
N83 C82 1.307 . S
C84 C82 1.486 . S
C84 H88 0.960 . S
C84 H89 0.960 . S
C84 H90 0.959 . S
H85 C81 0.960 . S
H86 C81 0.961 . S
H87 C81 0.960 . S
H88 C84 0.960 . S
H89 C84 0.960 . S
H90 C84 0.959 . S
C91 N92 1.317 . S
C91 N93 1.348 . S
C91 C94 1.485 . S
N92 C91 1.317 . S
N92 N96 1.370 . S
N93 C91 1.348 . S
N93 C95 1.346 . S
C94 C91 1.485 . S
C94 H98 0.960 1_455 S
C94 H99 0.961 . S
C94 H100 0.960 . S
C95 N93 1.346 . S
C95 N96 1.307 . S
C95 C97 1.486 . S
N96 N92 1.370 . S
N96 C95 1.307 . S
C97 C95 1.486 . S
C97 H101 0.960 . S
C97 H102 0.960 . S
C97 H103 0.959 . S
H98 C94 0.960 1_655 S
H99 C94 0.961 . S
H100 C94 0.960 . S
H101 C97 0.960 . S
H102 C97 0.960 . S
H103 C97 0.959 . S
Co104 N109 2.057 . S
Co104 O121 2.021 1_655 S
Co104 O124 2.062 1_655 S
Co104 O128 2.117 1_545 S
Co104 O129 2.020 . S
C105 O125 1.259 . S
C105 O128 1.258 1_455 S
Co106 N115 2.057 . S
Co106 O122 2.117 1_565 S
Co106 O123 2.020 1_565 S
Co106 O125 2.021 . S
Co106 O130 2.062 . S
C107 N109 1.316 . S
C107 N110 1.347 . S
C107 H112 0.931 . S
C108 N109 1.375 . S
C108 C111 1.350 . S
C108 H113 0.930 1_545 S
N109 Co104 2.057 . S
N109 C107 1.316 . S
N109 C108 1.375 . S
N110 C107 1.347 . S
N110 C111 1.373 . S
C111 C108 1.350 . S
C111 N110 1.373 . S
C111 H132 0.931 . S
H112 C107 0.931 . S
H113 C108 0.930 1_565 S
C114 O121 1.259 . S
C114 O122 1.258 . S
N115 Co106 2.057 . S
N115 C116 1.316 . S
N115 C117 1.375 1_565 S
C116 N115 1.316 . S
C116 N118 1.347 . S
C116 H127 0.931 . S
C117 N115 1.375 1_545 S
C117 C119 1.350 . S
C117 H126 0.930 . S
N118 C116 1.347 . S
N118 C119 1.373 1_565 S
C119 C117 1.350 . S
C119 N118 1.373 1_545 S
C119 H133 0.931 . S
C120 O123 1.256 . S
C120 O124 1.255 . S
O121 Co104 2.021 1_455 S
O121 C114 1.259 . S
O122 Co106 2.117 1_545 S
O122 C114 1.258 . S
O123 Co106 2.020 1_545 S
O123 C120 1.256 . S
O124 Co104 2.062 1_455 S
O124 C120 1.255 . S
O125 C105 1.259 . S
O125 Co106 2.021 . S
H126 C117 0.930 . S
H127 C116 0.931 . S
O128 Co104 2.117 1_565 S
O128 C105 1.258 1_655 S
O129 Co104 2.020 . S
O129 C131 1.256 1_645 S
O130 Co106 2.062 . S
O130 C131 1.255 . S
C131 O129 1.256 1_465 S
C131 O130 1.255 . S
H132 C111 0.931 . S
H133 C119 0.931 . S
Co134 N139 2.057 1_545 S
Co134 O151 2.021 . S
Co134 O154 2.062 1_545 S
Co134 O158 2.117 1_546 S
Co134 O159 2.020 1_556 S
C135 O155 1.259 . S
C135 O158 1.258 . S
Co136 N145 2.057 . S
Co136 O152 2.117 . S
Co136 O153 2.020 . S
Co136 O155 2.021 1_545 S
Co136 O160 2.062 . S
C137 N139 1.316 . S
C137 N140 1.347 . S
C137 H142 0.931 1_565 S
C138 N139 1.375 . S
C138 C141 1.350 . S
C138 H143 0.930 . S
N139 Co134 2.057 1_565 S
N139 C137 1.316 . S
N139 C138 1.375 . S
N140 C137 1.347 . S
N140 C141 1.373 . S
C141 C138 1.350 . S
C141 N140 1.373 . S
C141 H162 0.931 . S
H142 C137 0.931 1_545 S
H143 C138 0.930 . S
C144 O151 1.259 . S
C144 O152 1.258 1_556 S
N145 Co136 2.057 . S
N145 C146 1.316 . S
N145 C147 1.375 . S
C146 N145 1.316 . S
C146 N148 1.347 . S
C146 H157 0.931 . S
C147 N145 1.375 . S
C147 C149 1.350 . S
C147 H156 0.930 . S
N148 C146 1.347 . S
N148 C149 1.373 . S
C149 C147 1.350 . S
C149 N148 1.373 . S
C149 H163 0.931 . S
C150 O153 1.256 1_565 S
C150 O154 1.255 1_554 S
O151 Co134 2.021 . S
O151 C144 1.259 . S
O152 Co136 2.117 . S
O152 C144 1.258 1_554 S
O153 Co136 2.020 . S
O153 C150 1.256 1_545 S
O154 Co134 2.062 1_565 S
O154 C150 1.255 1_556 S
O155 C135 1.259 . S
O155 Co136 2.021 1_565 S
H156 C147 0.930 . S
H157 C146 0.931 . S
O158 Co134 2.117 1_564 S
O158 C135 1.258 . S
O159 Co134 2.020 1_554 S
O159 C161 1.256 . S
O160 Co136 2.062 . S
O160 C161 1.255 . S
C161 O159 1.256 . S
C161 O160 1.255 . S
H162 C141 0.931 . S
H163 C149 0.931 . S
Co164 N169 2.057 . S
Co164 O181 2.021 . S
Co164 O184 2.062 . S
Co164 O188 2.117 . S
Co164 O189 2.020 . S
C165 O185 1.259 . S
C165 O188 1.258 . S
Co166 N175 2.057 . S
Co166 O182 2.117 . S
Co166 O183 2.020 . S
Co166 O185 2.021 . S
Co166 O190 2.062 . S
C167 N169 1.316 . S
C167 N170 1.347 . S
C167 H172 0.931 . S
C168 N169 1.375 . S
C168 C171 1.350 . S
C168 H173 0.930 . S
N169 Co164 2.057 . S
N169 C167 1.316 . S
N169 C168 1.375 . S
N170 C167 1.347 . S
N170 C171 1.373 . S
C171 C168 1.350 . S
C171 N170 1.373 . S
C171 H192 0.931 . S
H172 C167 0.931 . S
H173 C168 0.930 . S
C174 O181 1.259 . S
C174 O182 1.258 . S
N175 Co166 2.057 . S
N175 C176 1.316 . S
N175 C177 1.375 . S
C176 N175 1.316 . S
C176 N178 1.347 . S
C176 H187 0.931 . S
C177 N175 1.375 . S
C177 C179 1.350 . S
C177 H186 0.930 . S
N178 C176 1.347 . S
N178 C179 1.373 . S
C179 C177 1.350 . S
C179 N178 1.373 . S
C179 H193 0.931 . S
C180 O183 1.256 . S
C180 O184 1.255 . S
O181 Co164 2.021 . S
O181 C174 1.259 . S
O182 Co166 2.117 . S
O182 C174 1.258 . S
O183 Co166 2.020 . S
O183 C180 1.256 . S
O184 Co164 2.062 . S
O184 C180 1.255 . S
O185 C165 1.259 . S
O185 Co166 2.021 . S
H186 C177 0.930 . S
H187 C176 0.931 . S
O188 Co164 2.117 . S
O188 C165 1.258 . S
O189 Co164 2.020 . S
O189 C191 1.256 . S
O190 Co166 2.062 . S
O190 C191 1.255 . S
C191 O189 1.256 . S
C191 O190 1.255 . S
H192 C171 0.931 . S
H193 C179 0.931 . S
Co194 N199 2.057 . S
Co194 O211 2.021 . S
Co194 O214 2.062 . S
Co194 O218 2.117 1_455 S
Co194 O219 2.020 . S
C195 O215 1.259 1_556 S
C195 O218 1.258 . S
Co196 N205 2.057 . S
Co196 O212 2.117 1_655 S
Co196 O213 2.020 1_655 S
Co196 O215 2.021 . S
Co196 O220 2.062 . S
C197 N199 1.316 . S
C197 N200 1.347 . S
C197 H202 0.931 . S
C198 N199 1.375 1_655 S
C198 C201 1.350 1_655 S
C198 H203 0.930 . S
N199 Co194 2.057 . S
N199 C197 1.316 . S
N199 C198 1.375 1_455 S
N200 C197 1.347 . S
N200 C201 1.373 . S
C201 C198 1.350 1_455 S
C201 N200 1.373 . S
C201 H222 0.931 1_455 S
H202 C197 0.931 . S
H203 C198 0.930 . S
C204 O211 1.259 1_554 S
C204 O212 1.258 . S
N205 Co196 2.057 . S
N205 C206 1.316 . S
N205 C207 1.375 1_655 S
C206 N205 1.316 . S
C206 N208 1.347 . S
C206 H217 0.931 . S
C207 N205 1.375 1_455 S
C207 C209 1.350 . S
C207 H216 0.930 . S
N208 C206 1.347 . S
N208 C209 1.373 1_655 S
C209 C207 1.350 . S
C209 N208 1.373 1_455 S
C209 H223 0.931 . S
C210 O213 1.256 . S
C210 O214 1.255 1_554 S
O211 Co194 2.021 . S
O211 C204 1.259 1_556 S
O212 Co196 2.117 1_455 S
O212 C204 1.258 . S
O213 Co196 2.020 1_455 S
O213 C210 1.256 . S
O214 Co194 2.062 . S
O214 C210 1.255 1_556 S
O215 C195 1.259 1_554 S
O215 Co196 2.021 . S
H216 C207 0.930 . S
H217 C206 0.931 . S
O218 Co194 2.117 1_655 S
O218 C195 1.258 . S
O219 Co194 2.020 . S
O219 C221 1.256 1_455 S
O220 Co196 2.062 . S
O220 C221 1.255 1_554 S
C221 O219 1.256 1_655 S
C221 O220 1.255 1_556 S
H222 C201 0.931 1_655 S
H223 C209 0.931 . S
C224 C225 1.369 . S
C224 C226 1.419 . S
C224 H228 0.930 . S
C225 C224 1.369 . S
C225 C234 1.429 . S
C226 C224 1.419 . S
C226 C227 1.363 . S
C226 H229 0.913 1_545 S
C227 C226 1.363 . S
C227 C233 1.428 . S
H228 C224 0.930 . S
H229 C226 0.913 1_565 S
S230 N231 1.613 . S
S230 N232 1.610 . S
N231 S230 1.613 . S
N231 C234 1.350 . S
N232 S230 1.610 . S
N232 C233 1.351 . S
C233 C227 1.428 . S
C233 N232 1.351 . S
C233 C234 1.434 . S
C234 C225 1.429 . S
C234 N231 1.350 . S
C234 C233 1.434 . S
C235 C236 1.369 . S
C235 C237 1.419 . S
C235 H239 0.930 . S
C236 C235 1.369 . S
C236 C245 1.429 . S
C237 C235 1.419 . S
C237 C238 1.363 . S
C237 H240 0.929 . S
C238 C237 1.363 . S
C238 C244 1.428 . S
H239 C235 0.930 . S
H240 C237 0.929 . S
S241 N242 1.613 1_545 S
S241 N243 1.610 . S
N242 S241 1.613 1_565 S
N242 C245 1.350 . S
N243 S241 1.610 . S
N243 C244 1.351 1_545 S
C244 C238 1.428 . S
C244 N243 1.351 1_565 S
C244 C245 1.434 . S
C245 C236 1.429 . S
C245 N242 1.350 . S
C245 C244 1.434 . S
C246 C247 1.369 . S
C246 C248 1.419 . S
C246 H250 0.930 . S
C247 C246 1.369 . S
C247 C256 1.429 . S
C248 C246 1.419 . S
C248 C249 1.363 . S
C248 H251 0.929 . S
C249 C248 1.363 . S
C249 C255 1.428 . S
H250 C246 0.930 . S
H251 C248 0.929 . S
S252 N253 1.613 . S
S252 N254 1.610 . S
N253 S252 1.613 . S
N253 C256 1.350 . S
N254 S252 1.610 . S
N254 C255 1.351 . S
C255 C249 1.428 . S
C255 N254 1.351 . S
C255 C256 1.434 . S
C256 C247 1.429 . S
C256 N253 1.350 . S
C256 C255 1.434 . S
C257 C258 1.369 . S
C257 C259 1.419 . S
C257 H261 0.930 . S
C258 C257 1.369 . S
C258 C267 1.429 1_655 S
C259 C257 1.419 . S
C259 C260 1.363 . S
C259 H262 0.929 . S
C260 C259 1.363 . S
C260 C266 1.428 . S
H261 C257 0.930 . S
H262 C259 0.929 . S
S263 N264 1.613 . S
S263 N265 1.610 . S
N264 S263 1.613 . S
N264 C267 1.350 . S
N265 S263 1.610 . S
N265 C266 1.351 1_455 S
C266 C260 1.428 . S
C266 N265 1.351 1_655 S
C266 C267 1.434 1_655 S
C267 C258 1.429 1_455 S
C267 N264 1.350 . S
C267 C266 1.434 1_455 S
C268 C269 1.369 . S
C268 C270 1.419 . S
C268 H272 0.930 . S
C269 C268 1.369 . S
C269 C278 1.429 . S
C270 C268 1.419 . S
C270 C271 1.363 . S
C270 H273 0.929 . S
C271 C270 1.363 . S
C271 C277 1.428 . S
H272 C268 0.930 . S
H273 C270 0.929 . S
S274 N275 1.613 1_556 S
S274 N276 1.610 . S
N275 S274 1.613 1_554 S
N275 C278 1.350 . S
N276 S274 1.610 . S
N276 C277 1.351 1_556 S
C277 C271 1.428 . S
C277 N276 1.351 1_554 S
C277 C278 1.434 . S
C278 C269 1.429 . S
C278 N275 1.350 . S
C278 C277 1.434 . S
C279 C280 1.369 . S
C279 C281 1.419 . S
C279 H283 0.930 . S
C280 C279 1.369 . S
C280 C289 1.429 . S
C281 C279 1.419 . S
C281 C282 1.363 . S
C281 H284 0.929 . S
C282 C281 1.363 . S
C282 C288 1.428 . S
H283 C279 0.930 . S
H284 C281 0.929 . S
S285 N286 1.613 . S
S285 N287 1.610 . S
N286 S285 1.613 . S
N286 C289 1.350 . S
N287 S285 1.610 . S
N287 C288 1.351 . S
C288 C282 1.428 . S
C288 N287 1.351 . S
C288 C289 1.434 . S
C289 C280 1.429 . S
C289 N286 1.350 . S
C289 C288 1.434 . S
C290 C291 1.369 . S
C290 C292 1.419 . S
C290 H294 0.945 . S
C291 C290 1.369 . S
C291 C300 1.429 . S
C292 C290 1.419 . S
C292 C293 1.363 . S
C292 H295 0.929 1_556 S
C293 C292 1.363 . S
C293 C299 1.428 . S
H294 C290 0.945 . S
H295 C292 0.929 1_554 S
S296 N297 1.613 . S
S296 N298 1.610 . S
N297 S296 1.613 . S
N297 C300 1.350 . S
N298 S296 1.610 . S
N298 C299 1.351 . S
C299 C293 1.428 . S
C299 N298 1.351 . S
C299 C300 1.434 . S
C300 C291 1.429 . S
C300 N297 1.350 . S
C300 C299 1.434 . S
C301 C302 1.369 . S
C301 C303 1.419 . S
C301 H305 0.930 . S
C302 C301 1.369 . S
C302 C311 1.429 . S
C303 C301 1.419 . S
C303 C304 1.363 . S
C303 H306 0.929 . S
C304 C303 1.363 . S
C304 C310 1.428 . S
H305 C301 0.930 . S
H306 C303 0.929 . S
S307 N308 1.613 . S
S307 N309 1.610 . S
N308 S307 1.613 . S
N308 C311 1.350 . S
N309 S307 1.610 . S
N309 C310 1.351 . S
C310 C304 1.428 . S
C310 N309 1.351 . S
C310 C311 1.434 . S
C311 C302 1.429 . S
C311 N308 1.350 . S
C311 C310 1.434 . S
C312 C313 1.369 . S
C312 C314 1.419 . S
C312 H316 0.930 . S
C313 C312 1.369 . S
C313 C322 1.429 . S
C314 C312 1.419 . S
C314 C315 1.363 . S
C314 H317 0.929 . S
C315 C314 1.363 . S
C315 C321 1.428 . S
H316 C312 0.930 . S
H317 C314 0.929 . S
S318 N319 1.613 1_655 S
S318 N320 1.610 . S
N319 S318 1.613 1_455 S
N319 C322 1.350 . S
N320 S318 1.610 . S
N320 C321 1.351 1_655 S
C321 C315 1.428 . S
C321 N320 1.351 1_455 S
C321 C322 1.434 . S
C322 C313 1.429 . S
C322 N319 1.350 . S
C322 C321 1.434 . S
C323 C324 1.369 . S
C323 C325 1.419 . S
C323 H327 0.930 . S
C324 C323 1.369 . S
C324 C333 1.429 . S
C325 C323 1.419 . S
C325 C326 1.363 . S
C325 H328 0.929 . S
C326 C325 1.363 . S
C326 C332 1.428 . S
H327 C323 0.930 . S
H328 C325 0.929 . S
S329 N330 1.613 . S
S329 N331 1.610 . S
N330 S329 1.613 . S
N330 C333 1.350 . S
N331 S329 1.610 . S
N331 C332 1.351 . S
C332 C326 1.428 . S
C332 N331 1.351 . S
C332 C333 1.434 . S
C333 C324 1.429 . S
C333 N330 1.350 . S
C333 C332 1.434 . S
C334 C335 1.369 . S
C334 C336 1.419 . S
C334 H338 0.930 . S
C335 C334 1.369 . S
C335 C344 1.429 1_655 S
C336 C334 1.419 . S
C336 C337 1.363 1_655 S
C336 H339 0.929 . S
C337 C336 1.363 1_455 S
C337 C343 1.428 . S
H338 C334 0.930 . S
H339 C336 0.929 . S
S340 N341 1.613 . S
S340 N342 1.610 . S
N341 S340 1.613 . S
N341 C344 1.350 . S
N342 S340 1.610 . S
N342 C343 1.351 . S
C343 C337 1.428 . S
C343 N342 1.351 . S
C343 C344 1.434 . S
C344 C335 1.429 1_455 S
C344 N341 1.350 . S
C344 C343 1.434 . S
C345 C346 1.369 . S
C345 C347 1.419 . S
C345 H349 0.930 . S
C346 C345 1.369 . S
C346 C355 1.429 . S
C347 C345 1.419 . S
C347 C348 1.363 . S
C347 H350 0.929 . S
C348 C347 1.363 . S
C348 C354 1.428 . S
H349 C345 0.930 . S
H350 C347 0.929 . S
S351 N352 1.613 . S
S351 N353 1.610 . S
N352 S351 1.613 . S
N352 C355 1.350 . S
N353 S351 1.610 . S
N353 C354 1.351 . S
C354 C348 1.428 . S
C354 N353 1.351 . S
C354 C355 1.434 . S
C355 C346 1.429 . S
C355 N352 1.350 . S
C355 C354 1.434 . S
C356 C357 1.369 1_455 S
C356 C358 1.419 . S
C356 H360 0.930 . S
C357 C356 1.369 1_655 S
C357 C366 1.429 . S
C358 C356 1.419 . S
C358 C359 1.363 1_455 S
C358 H361 0.929 1_565 S
C359 C358 1.363 1_655 S
C359 C365 1.428 . S
H360 C356 0.930 . S
H361 C358 0.929 1_545 S
S362 N363 1.613 . S
S362 N364 1.610 . S
N363 S362 1.613 . S
N363 C366 1.350 . S
N364 S362 1.610 . S
N364 C365 1.351 . S
C365 C359 1.428 . S
C365 N364 1.351 . S
C365 C366 1.434 . S
C366 C357 1.429 . S
C366 N363 1.350 . S
C366 C365 1.434 . S
C367 C368 1.369 . S
C367 C369 1.419 . S
C367 H371 0.930 . S
C368 C367 1.369 . S
C368 C377 1.429 . S
C369 C367 1.419 . S
C369 C370 1.363 . S
C369 H372 0.929 . S
C370 C369 1.363 . S
C370 C376 1.428 . S
H371 C367 0.930 . S
H372 C369 0.929 . S
S373 N374 1.613 . S
S373 N375 1.610 . S
N374 S373 1.613 . S
N374 C377 1.350 . S
N375 S373 1.610 . S
N375 C376 1.351 . S
C376 C370 1.428 . S
C376 N375 1.351 . S
C376 C377 1.434 . S
C377 C368 1.429 . S
C377 N374 1.350 . S
C377 C376 1.434 . S
C378 C379 1.369 . S
C378 C380 1.419 . S
C378 H382 0.930 . S
C379 C378 1.369 . S
C379 C388 1.429 . S
C380 C378 1.419 . S
C380 C381 1.363 . S
C380 H383 0.929 . S
C381 C380 1.363 . S
C381 C387 1.428 . S
H382 C378 0.930 . S
H383 C380 0.929 . S
S384 N385 1.613 . S
S384 N386 1.610 . S
N385 S384 1.613 . S
N385 C388 1.350 . S
N386 S384 1.610 . S
N386 C387 1.351 . S
C387 C381 1.428 . S
C387 N386 1.351 . S
C387 C388 1.434 . S
C388 C379 1.429 . S
C388 N385 1.350 . S
C388 C387 1.434 . S
C389 C390 1.369 . S
C389 C391 1.419 . S
C389 H393 0.930 . S
C390 C389 1.369 . S
C390 C399 1.429 . S
C391 C389 1.419 . S
C391 C392 1.363 . S
C391 H394 0.929 . S
C392 C391 1.363 . S
C392 C398 1.428 . S
H393 C389 0.930 . S
H394 C391 0.929 . S
S395 N396 1.613 . S
S395 N397 1.610 . S
N396 S395 1.613 . S
N396 C399 1.350 . S
N397 S395 1.610 . S
N397 C398 1.351 . S
C398 C392 1.428 . S
C398 N397 1.351 . S
C398 C399 1.434 . S
C399 C390 1.429 . S
C399 N396 1.350 . S
C399 C398 1.434 . S
C400 C401 1.369 . S
C400 C402 1.419 1_556 S
C400 H404 0.930 1_556 S
C401 C400 1.369 . S
C401 C410 1.415 1_565 S
C402 C400 1.419 1_554 S
C402 C403 1.363 1_554 S
C402 H405 0.929 . S
C403 C402 1.363 1_556 S
C403 C409 1.428 1_565 S
H404 C400 0.930 1_554 S
H405 C402 0.929 . S
S406 N407 1.613 . S
S406 N408 1.610 . S
N407 S406 1.613 . S
N407 C410 1.360 . S
N408 S406 1.610 . S
N408 C409 1.351 . S
C409 C403 1.428 1_545 S
C409 N408 1.351 . S
C409 C410 1.439 . S
C410 C401 1.415 1_545 S
C410 N407 1.360 . S
C410 C409 1.439 . S
C411 C412 1.369 . S
C411 C413 1.419 . S
C411 H415 0.930 . S
C412 C411 1.369 . S
C412 C421 1.429 . S
C413 C411 1.419 . S
C413 C414 1.363 . S
C413 H416 0.929 . S
C414 C413 1.363 . S
C414 C420 1.428 . S
H415 C411 0.930 . S
H416 C413 0.929 . S
S417 N418 1.613 1_565 S
S417 N419 1.610 1_565 S
N418 S417 1.613 1_545 S
N418 C421 1.350 . S
N419 S417 1.610 1_545 S
N419 C420 1.351 . S
C420 C414 1.428 . S
C420 N419 1.351 . S
C420 C421 1.434 . S
C421 C412 1.429 . S
C421 N418 1.350 . S
C421 C420 1.434 . S
C422 C423 1.369 . S
C422 C424 1.419 . S
C422 H426 0.930 . S
C423 C422 1.369 . S
C423 C432 1.429 . S
C424 C422 1.419 . S
C424 C425 1.363 . S
C424 H427 0.929 1_554 S
C425 C424 1.363 . S
C425 C431 1.428 . S
H426 C422 0.930 . S
H427 C424 0.929 1_556 S
S428 N429 1.613 . S
S428 N430 1.610 . S
N429 S428 1.613 . S
N429 C432 1.350 . S
N430 S428 1.610 . S
N430 C431 1.351 . S
C431 C425 1.428 . S
C431 N430 1.351 . S
C431 C432 1.434 . S
C432 C423 1.429 . S
C432 N429 1.350 . S
C432 C431 1.434 . S
C433 C434 1.369 . S
C433 C435 1.419 . S
C433 H437 0.930 . S
C434 C433 1.369 . S
C434 C443 1.429 . S
C435 C433 1.419 . S
C435 C436 1.363 . S
C435 H438 0.929 . S
C436 C435 1.363 . S
C436 C442 1.428 . S
H437 C433 0.930 . S
H438 C435 0.929 . S
S439 N440 1.613 . S
S439 N441 1.610 . S
N440 S439 1.613 . S
N440 C443 1.350 . S
N441 S439 1.610 . S
N441 C442 1.351 . S
C442 C436 1.428 . S
C442 N441 1.351 . S
C442 C443 1.434 . S
C443 C434 1.429 . S
C443 N440 1.350 . S
C443 C442 1.434 . S
C444 C445 1.369 . S
C444 C446 1.419 . S
C444 H448 0.930 . S
C445 C444 1.369 . S
C445 C454 1.429 . S
C446 C444 1.419 . S
C446 C447 1.363 . S
C446 H449 0.929 1_556 S
C447 C446 1.363 . S
C447 C453 1.428 . S
H448 C444 0.930 . S
H449 C446 0.929 1_554 S
S450 N451 1.613 . S
S450 N452 1.610 . S
N451 S450 1.613 . S
N451 C454 1.350 . S
N452 S450 1.610 . S
N452 C453 1.351 . S
C453 C447 1.428 . S
C453 N452 1.351 . S
C453 C454 1.434 . S
C454 C445 1.429 . S
C454 N451 1.350 . S
C454 C453 1.434 . S
C455 C456 1.369 . S
C455 C457 1.419 . S
C455 H459 0.930 . S
C456 C455 1.369 . S
C456 C465 1.429 . S
C457 C455 1.419 . S
C457 C458 1.363 . S
C457 H460 0.929 . S
C458 C457 1.363 . S
C458 C464 1.428 . S
H459 C455 0.930 . S
H460 C457 0.929 . S
S461 N462 1.613 . S
S461 N463 1.610 . S
N462 S461 1.613 . S
N462 C465 1.350 . S
N463 S461 1.610 . S
N463 C464 1.351 . S
C464 C458 1.428 . S
C464 N463 1.351 . S
C464 C465 1.434 . S
C465 C456 1.429 . S
C465 N462 1.350 . S
C465 C464 1.434 . S
C466 C467 1.369 . S
C466 C468 1.419 . S
C466 H470 0.930 . S
C467 C466 1.369 . S
C467 C476 1.429 . S
C468 C466 1.419 . S
C468 C469 1.363 . S
C468 H471 0.929 . S
C469 C468 1.363 . S
C469 C475 1.428 . S
H470 C466 0.930 . S
H471 C468 0.929 . S
S472 N473 1.613 . S
S472 N474 1.610 . S
N473 S472 1.613 . S
N473 C476 1.350 . S
N474 S472 1.610 . S
N474 C475 1.351 . S
C475 C469 1.428 . S
C475 N474 1.351 . S
C475 C476 1.434 . S
C476 C467 1.429 . S
C476 N473 1.350 . S
C476 C475 1.434 . S
C477 C478 1.369 . S
C477 C479 1.419 . S
C477 H481 0.930 . S
C478 C477 1.369 . S
C478 C487 1.429 . S
C479 C477 1.419 . S
C479 C480 1.363 . S
C479 H482 0.929 . S
C480 C479 1.363 . S
C480 C486 1.428 . S
H481 C477 0.930 . S
H482 C479 0.929 . S
S483 N484 1.613 . S
S483 N485 1.610 . S
N484 S483 1.613 . S
N484 C487 1.350 . S
N485 S483 1.610 . S
N485 C486 1.351 . S
C486 C480 1.428 . S
C486 N485 1.351 . S
C486 C487 1.434 . S
C487 C478 1.429 . S
C487 N484 1.350 . S
C487 C486 1.434 . S
C225 N1 2.018 . S
C227 C120 2.114 . S
C236 N18 1.358 . S
C238 N140 1.324 . S
C249 C174 1.625 . S
C247 N28 1.628 . S
C258 N40 1.361 . S
C260 N208 1.333 . S
C271 C161 2.516 . S
C269 N5 2.468 . S
C282 N118 1.151 . S
C280 N14 1.187 . S
C293 C195 1.996 . S
C291 N31 1.956 . S
C304 N170 0.854 . S
C302 N41 0.852 . S
C313 N2 1.708 . S
C315 C210 1.730 . S
C326 C144 1.755 . S
C324 N27 1.699 . S
C335 N44 1.458 . S
C337 C105 1.517 . S
C346 N15 1.228 . S
C348 C191 1.245 . S
C359 C131 2.343 1_655 S
C357 N57 2.339 . S
C368 N70 1.055 . S
C370 N148 1.035 . S
C379 N79 1.821 . S
C381 C165 1.878 . S
C390 N93 1.177 . S
C392 N200 1.137 . S
C401 N54 2.209 . S
C403 C150 2.209 1_556 S
C414 N110 1.434 . S
C412 N66 1.496 . S
C425 C204 1.607 . S
C423 N80 1.594 . S
C436 N178 1.038 . S
C434 N96 1.022 . S
C445 N53 1.738 . S
C447 C221 1.769 . S
C458 C135 1.673 . S
C456 N83 1.640 . S
C469 C114 1.519 . S
C467 N92 1.490 . S
C478 N67 1.224 . S
C480 C180 1.240 . S
