# Generated by pormake.
# Topology tsx, (6,3)-cn, num edge types: 1
# Building blocks:
#     Node 0, Type 0, BuildingBlock: VOLQOD_clean_sbu_1, # of connection points: 6
#     Node 1, Type 0, BuildingBlock: VOLQOD_clean_sbu_1, # of connection points: 6
#     Node 2, Type 1, BuildingBlock: PAMTOO_clean_linker_0, # of connection points: 3
#     Node 3, Type 1, BuildingBlock: PAMTOO_clean_linker_0, # of connection points: 3
#     Node 4, Type 1, BuildingBlock: PAMTOO_clean_linker_0, # of connection points: 3
#     Node 5, Type 1, BuildingBlock: PAMTOO_clean_linker_0, # of connection points: 3
#     Edge 6, Type (0, 1), BuildingBlock: CIFDUS_clean_linker_0, # of connection points: 2
#     Edge 7, Type (0, 1), BuildingBlock: CIFDUS_clean_linker_0, # of connection points: 2
#     Edge 8, Type (0, 1), BuildingBlock: CIFDUS_clean_linker_0, # of connection points: 2
#     Edge 9, Type (0, 1), BuildingBlock: CIFDUS_clean_linker_0, # of connection points: 2
#     Edge 10, Type (0, 1), BuildingBlock: CIFDUS_clean_linker_0, # of connection points: 2
#     Edge 11, Type (0, 1), BuildingBlock: CIFDUS_clean_linker_0, # of connection points: 2
#     Edge 12, Type (0, 1), BuildingBlock: CIFDUS_clean_linker_0, # of connection points: 2
#     Edge 13, Type (0, 1), BuildingBlock: CIFDUS_clean_linker_0, # of connection points: 2
#     Edge 14, Type (0, 1), BuildingBlock: CIFDUS_clean_linker_0, # of connection points: 2
#     Edge 15, Type (0, 1), BuildingBlock: CIFDUS_clean_linker_0, # of connection points: 2
#     Edge 16, Type (0, 1), BuildingBlock: CIFDUS_clean_linker_0, # of connection points: 2
#     Edge 17, Type (0, 1), BuildingBlock: CIFDUS_clean_linker_0, # of connection points: 2
# Relax obj value: 0.055
# Max RMSD: 0.111
# Mean RMSD: 0.100
data_MOF--net-tsx--node1-VOLQOD_clean_sbu_1--node2-PAMTOO_clean_linker_0--edge1-CIFDUS_clean_linker_0
_symmetry_space_group_name_H-M    P1
_symmetry_Int_Tables_number       1
_symmetry_cell_setting            triclinic
loop_
_symmetry_equiv_pos_as_xyz
'x, y, z'
_cell_length_a     18.570148
_cell_length_b     19.163843
_cell_length_c     32.914851
_cell_angle_alpha  83.031998
_cell_angle_beta   89.492821
_cell_angle_gamma 89.698461
loop_
_atom_site_label
_atom_site_type_symbol
_atom_site_fract_x
_atom_site_fract_y
_atom_site_fract_z
_atom_type_partial_charge
O0 O 0.07933 0.99277 0.09169 0.0
Zn1 Zn 0.09898 0.98846 0.03244 0.0
O2 O 0.01025 0.99805 0.00113 0.0
Zn3 Zn 0.99791 0.91283 0.97484 0.0
Zn4 Zn 0.92875 0.00897 0.03839 0.0
Zn5 Zn 0.0171 0.08034 0.95951 0.0
O6 O 0.98878 0.93621 0.91398 0.0
O7 O 0.01246 0.05051 0.9023 0.0
O8 O 0.15443 0.90016 0.02498 0.0
O9 O 0.08485 0.8496 0.98275 0.0
O10 O 0.9118 0.85699 -0.00205 0.0
O11 O 0.86413 0.92397 0.04187 0.0
O12 O 0.86991 0.0957 0.01896 0.0
O13 O 0.16409 0.06971 0.01627 0.0
O14 O 0.93359 0.14627 0.96601 0.0
O15 O 0.10932 0.1355 0.96555 0.0
C16 C 0.02463 0.00817 0.11243 0.0
C17 C 0.99876 0.9919 0.8893 0.0
C18 C 0.86396 0.86805 0.02446 0.0
C19 C 0.1423 0.85067 0.00345 0.0
C20 C 0.8796 0.14582 0.99028 0.0
C21 C 0.1621 0.12415 0.99007 0.0
O22 O 0.96297 0.01817 0.09597 0.0
O23 O 0.55346 0.53492 0.59253 0.0
Zn24 Zn 0.58057 0.5351 0.5334 0.0
O25 O 0.49619 0.54301 0.49819 0.0
Zn26 Zn 0.48944 0.45871 0.47014 0.0
Zn27 Zn 0.4103 0.55121 0.53218 0.0
Zn28 Zn 0.50494 0.62647 0.45774 0.0
O29 O 0.48676 0.48397 0.40884 0.0
O30 O 0.50356 0.59952 0.40009 0.0
O31 O 0.63869 0.44827 0.52685 0.0
O32 O 0.57673 0.39692 0.48146 0.0
O33 O 0.40159 0.40118 0.48895 0.0
O34 O 0.34516 0.46887 0.5294 0.0
O35 O 0.35531 0.64036 0.51454 0.0
O36 O 0.64583 0.6172 0.5196 0.0
O37 O 0.42205 0.6933 0.4637 0.0
O38 O 0.59704 0.67962 0.4655 0.0
C39 C 0.49424 0.54328 0.61112 0.0
C40 C 0.49484 0.5415 0.38546 0.0
C41 C 0.34871 0.41294 0.51215 0.0
C42 C 0.63106 0.39892 0.50462 0.0
C43 C 0.36708 0.69215 0.48726 0.0
C44 C 0.64678 0.66981 0.49206 0.0
O45 O 0.43513 0.55115 0.59177 0.0
H46 H 0.1185 0.97423 0.34992 0.0
H47 H 0.94318 0.11798 0.36382 0.0
H48 H 0.08019 0.05033 0.46555 0.0
H49 H 0.93983 0.08403 0.49864 0.0
C50 C 0.91546 0.0974 0.46798 0.0
O51 O 0.96783 0.12651 0.44127 0.0
H52 H 0.894 0.04795 0.45816 0.0
C53 C 0.08799 0.00735 0.36837 0.0
C54 C 0.10676 0.00817 0.40941 0.0
C55 C 0.02971 0.04723 0.35116 0.0
C56 C 0.98841 0.0867 0.37625 0.0
C57 C 0.00682 0.08761 0.41744 0.0
C58 C 0.06612 0.04878 0.43388 0.0
H59 H 0.11781 0.11686 0.64224 0.0
H60 H 0.98085 0.9366 0.63926 0.0
H61 H 0.10639 0.01389 0.53359 0.0
H62 H 0.97866 0.95804 0.50592 0.0
C63 C 0.95552 0.93844 0.53642 0.0
O64 O 0.01169 0.92098 0.56306 0.0
H65 H 0.92143 0.98064 0.54719 0.0
C66 C 0.09533 0.07619 0.62602 0.0
C67 C 0.11621 0.07277 0.58519 0.0
C68 C 0.04716 0.02711 0.6463 0.0
C69 C 0.01971 0.97393 0.62488 0.0
C70 C 0.04135 0.96942 0.58434 0.0
C71 C 0.09074 0.01767 0.56497 0.0
H72 H 0.66092 0.45934 0.84958 0.0
H73 H 0.47685 0.59288 0.86177 0.0
H74 H 0.58168 0.49182 0.96901 0.0
H75 H 0.42151 0.51425 0.98617 0.0
C76 C 0.41255 0.54356 0.95554 0.0
O77 O 0.47596 0.57569 0.94165 0.0
H78 H 0.39473 0.50512 0.93486 0.0
C79 C 0.62347 0.4846 0.86868 0.0
C80 C 0.62876 0.4709 0.91141 0.0
C81 C 0.56912 0.52841 0.85028 0.0
C82 C 0.51902 0.55852 0.87527 0.0
C83 C 0.52365 0.54522 0.91798 0.0
C84 C 0.57831 0.50139 0.93603 0.0
H85 H 0.62786 0.56369 0.15209 0.0
H86 H 0.49126 0.38546 0.14232 0.0
H87 H 0.61534 0.47442 0.03863 0.0
H88 H 0.49118 0.41478 0.00851 0.0
C89 C 0.46751 0.39421 0.03867 0.0
O90 O 0.5234 0.37675 0.06553 0.0
H91 H 0.43269 0.4357 0.04966 0.0
C92 C 0.6051 0.52567 0.13406 0.0
C93 C 0.62593 0.527 0.09281 0.0
C94 C 0.55681 0.47488 0.15259 0.0
C95 C 0.52965 0.42435 0.12914 0.0
C96 C 0.5513 0.42417 0.08824 0.0
C97 C 0.60003 0.47468 0.0704 0.0
H98 H 0.26657 0.12703 0.047 0.0
H99 H 0.18737 0.24119 0.93496 0.0
H100 H 0.27823 0.332 0.93921 0.0
H101 H 0.37623 0.38166 0.9767 0.0
H102 H 0.44957 0.27009 0.09064 0.0
H103 H 0.36498 0.17529 0.08359 0.0
C104 C 0.26941 0.17133 0.02319 0.0
C105 C 0.22006 0.17709 0.99063 0.0
C106 C 0.32078 0.22382 0.02622 0.0
C107 C 0.22451 0.23534 0.96035 0.0
C108 C 0.27642 0.28733 0.96279 0.0
C109 C 0.37424 0.336 -0.00037 0.0
C110 C 0.42032 0.33212 0.03355 0.0
C111 C 0.32425 0.28246 0.99584 0.0
C112 C 0.41602 0.27371 0.06372 0.0
C113 C 0.36732 0.21964 0.05982 0.0
H114 H 0.1496 0.75596 0.9484 0.0
H115 H 0.25951 0.82107 0.05247 0.0
H116 H 0.35239 0.73194 0.04676 0.0
H117 H 0.40316 0.63586 0.01171 0.0
H118 H 0.295 0.57358 0.90666 0.0
H119 H 0.20072 0.66144 0.91306 0.0
C120 C 0.19358 0.75045 0.97003 0.0
C121 C 0.19731 0.79502 0.00093 0.0
C122 C 0.24727 0.69975 0.96626 0.0
C123 C 0.25522 0.78751 0.02839 0.0
C124 C 0.30843 0.73658 0.02515 0.0
C125 C 0.35875 0.64179 0.99035 0.0
C126 C 0.35527 0.59821 0.95906 0.0
C127 C 0.30513 0.69261 0.99412 0.0
C128 C 0.29821 0.60635 0.93117 0.0
C129 C 0.24443 0.65648 0.93485 0.0
H130 H 0.86061 0.73313 0.00561 0.0
H131 H 0.74421 0.87972 0.0719 0.0
H132 H 0.65885 0.788 0.09698 0.0
H133 H 0.61994 0.66557 0.10252 0.0
H134 H 0.73819 0.517 0.0388 0.0
H135 H 0.81913 0.61055 0.00962 0.0
C136 C 0.81623 0.74525 0.02526 0.0
C137 C 0.80923 0.81332 0.03698 0.0
C138 C 0.76766 0.6919 0.04009 0.0
C139 C 0.75134 0.82784 0.06254 0.0
C140 C 0.70241 0.77538 0.07694 0.0
C141 C 0.6638 0.65339 0.08253 0.0
C142 C 0.67348 0.58408 0.07336 0.0
C143 C 0.71071 0.70706 0.06642 0.0
C144 C 0.72931 0.56984 0.04636 0.0
C145 C 0.77588 0.62327 0.02983 0.0
H146 H 0.89712 0.27279 0.94511 0.0
H147 H 0.74332 0.15114 0.02278 0.0
H148 H 0.65381 0.24501 0.00904 0.0
H149 H 0.61606 0.35763 0.96989 0.0
H150 H 0.77103 0.47726 0.89213 0.0
H151 H 0.86341 0.38875 0.91143 0.0
C152 C 0.84414 0.26676 0.9592 0.0
C153 C 0.82674 0.20449 0.98444 0.0
C154 C 0.79304 0.32074 0.95115 0.0
C155 C 0.75812 0.19829 0.00299 0.0
C156 C 0.70682 0.25196 0.99513 0.0
C157 C 0.67047 0.36481 0.9579 0.0
C158 C 0.68659 0.42333 0.92923 0.0
C159 C 0.72324 0.31292 0.96863 0.0
C160 C 0.75722 0.43208 0.91381 0.0
C161 C 0.80999 0.38146 0.92475 0.0
H162 H 0.74415 0.67892 0.55215 0.0
H163 H 0.681 0.77805 0.43284 0.0
H164 H 0.77475 0.86654 0.4352 0.0
H165 H 0.87097 0.91865 0.47256 0.0
H166 H 0.92832 0.82323 0.59345 0.0
H167 H 0.84075 0.72987 0.58893 0.0
C168 C 0.75113 0.71947 0.52644 0.0
C169 C 0.70551 0.72176 0.49234 0.0
C170 C 0.80425 0.77069 0.52827 0.0
C171 C 0.71515 0.77512 0.45951 0.0
C172 C 0.76877 0.82572 0.46082 0.0
C173 C 0.86493 0.8767 0.49759 0.0
C174 C 0.9074 0.87665 0.53273 0.0
C175 C 0.81314 0.82434 0.49521 0.0
C176 C 0.89772 0.82336 0.56558 0.0
C177 C 0.84729 0.77027 0.56313 0.0
H178 H 0.64382 0.29873 0.45306 0.0
H179 H 0.74697 0.37736 0.55539 0.0
H180 H 0.84346 0.29093 0.55319 0.0
H181 H 0.89988 0.19415 0.52143 0.0
H182 H 0.79821 0.11717 0.41857 0.0
H183 H 0.69983 0.20221 0.42151 0.0
C184 C 0.6871 0.29677 0.47509 0.0
C185 C 0.68794 0.34448 0.50439 0.0
C186 C 0.74279 0.2474 0.47344 0.0
C187 C 0.74487 0.34137 0.53247 0.0
C188 C 0.80018 0.29199 0.53124 0.0
C189 C 0.8558 0.19597 0.4999 0.0
C190 C 0.8551 0.14907 0.47029 0.0
C191 C 0.79986 0.24501 0.50175 0.0
C192 C 0.79883 0.15237 0.44196 0.0
C193 C 0.74284 0.20089 0.44363 0.0
H194 H 0.35221 0.27553 0.49749 0.0
H195 H 0.21952 0.42813 0.54988 0.0
H196 H 0.13385 0.33667 0.57451 0.0
H197 H 0.10101 0.21271 0.58579 0.0
H198 H 0.2337 0.05824 0.53565 0.0
H199 H 0.31431 0.15127 0.50487 0.0
C200 C 0.30407 0.28895 0.51379 0.0
C201 C 0.29282 0.35857 0.52217 0.0
C202 C 0.25527 0.23574 0.52851 0.0
C203 C 0.23003 0.37495 0.54333 0.0
C204 C 0.18094 0.32267 0.5575 0.0
C205 C 0.14774 0.19939 0.56821 0.0
C206 C 0.16229 0.12873 0.56367 0.0
C207 C 0.19394 0.25277 0.55114 0.0
C208 C 0.22167 0.11232 0.53976 0.0
C209 C 0.26784 0.16544 0.52231 0.0
H210 H 0.37812 0.81354 0.43557 0.0
H211 H 0.23893 0.70459 0.52787 0.0
H212 H 0.14945 0.79852 0.51584 0.0
H213 H 0.10577 0.90614 0.47424 0.0
H214 H 0.24364 0.01127 0.3803 0.0
H215 H 0.3391 0.92509 0.39832 0.0
C216 C 0.32847 0.81037 0.4533 0.0
C217 C 0.31502 0.75148 0.48216 0.0
C218 C 0.27697 0.86412 0.44597 0.0
C219 C 0.25058 0.74893 0.50515 0.0
C220 C 0.1993 0.80268 0.49833 0.0
C221 C 0.15742 0.91082 0.45849 0.0
C222 C 0.16797 0.96445 0.42596 0.0
C223 C 0.21126 0.85982 0.46821 0.0
C224 C 0.23462 0.97002 0.40536 0.0
C225 C 0.28892 0.92064 0.4155 0.0
H226 H 0.92172 0.01899 0.17183 0.0
H227 H 0.1518 0.0215 0.1506 0.0
H228 H 0.17221 0.03953 0.22125 0.0
H229 H 0.12638 0.05241 0.28912 0.0
H230 H 0.89789 0.04249 0.31374 0.0
H231 H 0.87519 0.03208 0.24144 0.0
C232 C 0.97624 0.0235 0.18272 0.0
C233 C 0.03505 0.01836 0.15587 0.0
C234 C 0.98798 0.03325 0.22387 0.0
C235 C 0.10542 0.02444 0.17052 0.0
C236 C 0.11731 0.03513 0.21095 0.0
C237 C 0.0715 0.04731 0.27887 0.0
C238 C 0.01405 0.04721 0.30694 0.0
C239 C 0.05916 0.0391 0.23788 0.0
C240 C 0.94318 0.04294 0.29275 0.0
C241 C 0.93023 0.03635 0.2515 0.0
H242 H 0.9951 0.09909 0.82657 0.0
H243 H 0.00339 0.87274 0.85153 0.0
H244 H 0.0144 0.86339 0.77857 0.0
H245 H 0.03068 0.91948 0.70799 0.0
H246 H 0.01831 0.14554 0.68265 0.0
H247 H 1.00023 0.15472 0.75527 0.0
C248 C 0.99883 0.0477 0.81605 0.0
C249 C 0.99907 0.98686 0.84465 0.0
C250 C 0.00502 0.0425 0.77391 0.0
C251 C 0.00316 0.92062 0.83033 0.0
C252 C 0.00968 0.91511 0.78853 0.0
C253 C 0.02266 0.97069 0.71819 0.0
C254 C 0.02713 0.0317 0.68984 0.0
C255 C 0.01179 0.9757 0.76007 0.0
C256 C 0.01696 0.09768 0.70384 0.0
C257 C 0.00625 0.10305 0.74539 0.0
H258 H 0.60968 0.55912 0.65888 0.0
H259 H 0.37932 0.5299 0.66426 0.0
H260 H 0.38132 0.52696 0.73873 0.0
H261 H 0.44977 0.52662 0.80268 0.0
H262 H 0.67975 0.55804 0.79625 0.0
H263 H 0.67649 0.56623 0.72178 0.0
C264 C 0.55981 0.55212 0.67628 0.0
C265 C 0.49459 0.54402 0.65604 0.0
C266 C 0.56128 0.55079 0.71893 0.0
C267 C 0.43036 0.53605 0.67907 0.0
C268 C 0.43144 0.53431 0.72167 0.0
C269 C 0.49892 0.53641 0.7849 0.0
C270 C 0.56499 0.54095 0.80497 0.0
C271 C 0.49672 0.54097 0.74197 0.0
C272 C 0.62837 0.55314 0.78154 0.0
C273 C 0.62657 0.55799 0.73897 0.0
H274 H 0.50149 0.42687 0.34374 0.0
H275 H 0.4952 0.65386 0.32568 0.0
H276 H 0.50842 0.65273 0.25196 0.0
H277 H 0.52752 0.58794 0.193 0.0
H278 H 0.54022 0.36135 0.21113 0.0
H279 H 0.51682 0.3618 0.28426 0.0
C280 C 0.50237 0.47616 0.32371 0.0
C281 C 0.49771 0.54038 0.34042 0.0
C282 C 0.511 0.47525 0.28128 0.0
C283 C 0.49909 0.60364 0.31383 0.0
C284 C 0.50664 0.60309 0.2716 0.0
C285 C 0.52553 0.53857 0.21293 0.0
C286 C 0.53636 0.47473 0.1965 0.0
C287 C 0.51376 0.53928 0.25508 0.0
C288 C 0.53162 0.41126 0.22275 0.0
C289 C 0.51881 0.4115 0.26468 0.0
loop_
_geom_bond_atom_site_label_1
_geom_bond_atom_site_label_2
_geom_bond_distance
_geom_bond_site_symmetry_2
_ccdc_geom_bond_type
O0 Zn1 1.953 . S
O0 C16 1.226 . S
Zn1 O0 1.953 . S
Zn1 O2 1.949 1_565 S
Zn1 O8 1.919 . S
Zn1 O13 1.924 1_565 S
O2 Zn1 1.949 1_545 S
O2 Zn3 1.923 1_544 S
O2 Zn4 1.950 1_455 S
O2 Zn5 1.945 1_554 S
Zn3 O2 1.923 1_566 S
Zn3 O6 1.933 . S
Zn3 O9 1.941 . S
Zn3 O10 1.965 1_455 S
Zn4 O2 1.950 1_655 S
Zn4 O11 1.938 1_545 S
Zn4 O12 1.906 . S
Zn4 O22 1.953 . S
Zn5 O2 1.945 1_556 S
Zn5 O7 1.932 . S
Zn5 O14 1.977 1_455 S
Zn5 O15 1.910 . S
O6 Zn3 1.933 . S
O6 C17 1.226 1_565 S
O7 Zn5 1.932 . S
O7 C17 1.307 . S
O8 Zn1 1.919 . S
O8 C19 1.253 1_554 S
O9 Zn3 1.941 . S
O9 C19 1.283 . S
O10 Zn3 1.965 1_655 S
O10 C18 1.303 1_556 S
O11 Zn4 1.938 1_565 S
O11 C18 1.247 . S
O12 Zn4 1.906 . S
O12 C20 1.304 1_554 S
O13 Zn1 1.924 1_545 S
O13 C21 1.311 . S
O14 Zn5 1.977 1_655 S
O14 C20 1.272 . S
O15 Zn5 1.910 . S
O15 C21 1.231 1_556 S
C16 O0 1.226 . S
C16 O22 1.297 1_465 S
C17 O6 1.226 1_545 S
C17 O7 1.307 . S
C18 O10 1.303 1_554 S
C18 O11 1.247 . S
C19 O8 1.253 1_556 S
C19 O9 1.283 . S
C20 O12 1.304 1_556 S
C20 O14 1.272 . S
C21 O13 1.311 . S
C21 O15 1.231 1_554 S
O22 Zn4 1.953 . S
O22 C16 1.297 1_645 S
O23 Zn24 1.953 . S
O23 C39 1.225 . S
Zn24 O23 1.953 . S
Zn24 O25 1.949 . S
Zn24 O31 1.919 . S
Zn24 O36 1.924 . S
O25 Zn24 1.949 . S
O25 Zn26 1.923 . S
O25 Zn27 1.950 . S
O25 Zn28 1.945 . S
Zn26 O25 1.923 . S
Zn26 O29 1.933 . S
Zn26 O32 1.941 . S
Zn26 O33 1.965 . S
Zn27 O25 1.950 . S
Zn27 O34 1.938 . S
Zn27 O35 1.906 . S
Zn27 O45 1.953 . S
Zn28 O25 1.945 . S
Zn28 O30 1.932 . S
Zn28 O37 1.977 . S
Zn28 O38 1.910 . S
O29 Zn26 1.933 . S
O29 C40 1.226 . S
O30 Zn28 1.932 . S
O30 C40 1.307 . S
O31 Zn24 1.919 . S
O31 C42 1.253 . S
O32 Zn26 1.941 . S
O32 C42 1.283 . S
O33 Zn26 1.965 . S
O33 C41 1.303 . S
O34 Zn27 1.938 . S
O34 C41 1.247 . S
O35 Zn27 1.906 . S
O35 C43 1.304 . S
O36 Zn24 1.924 . S
O36 C44 1.311 . S
O37 Zn28 1.977 . S
O37 C43 1.272 . S
O38 Zn28 1.910 . S
O38 C44 1.231 . S
C39 O23 1.225 . S
C39 O45 1.298 . S
C40 O29 1.226 . S
C40 O30 1.307 . S
C41 O33 1.303 . S
C41 O34 1.247 . S
C42 O31 1.253 . S
C42 O32 1.283 . S
C43 O35 1.304 . S
C43 O37 1.272 . S
C44 O36 1.311 . S
C44 O38 1.231 . S
O45 Zn27 1.953 . S
O45 C39 1.298 . S
H46 C53 0.929 . S
H47 C56 0.930 . S
H48 C58 0.929 . S
H49 C50 0.969 . S
C50 H49 0.969 . S
C50 O51 1.550 . S
C50 H52 0.973 . S
O51 C50 1.550 . S
O51 C57 1.412 . S
H52 C50 0.973 . S
C53 H46 0.929 . S
C53 C54 1.400 . S
C53 C55 1.364 . S
C54 C53 1.400 . S
C54 C58 1.377 . S
C55 C53 1.364 . S
C55 C56 1.374 1_465 S
C56 H47 0.930 . S
C56 C55 1.374 1_645 S
C56 C57 1.383 . S
C57 O51 1.412 . S
C57 C56 1.383 . S
C57 C58 1.394 1_645 S
C58 H48 0.929 . S
C58 C54 1.377 . S
C58 C57 1.394 1_465 S
H59 C66 0.929 . S
H60 C69 0.930 . S
H61 C71 0.929 . S
H62 C63 0.969 . S
C63 H62 0.969 . S
C63 O64 1.550 . S
C63 H65 0.973 . S
O64 C63 1.550 . S
O64 C70 1.412 1_665 S
H65 C63 0.973 . S
C66 H59 0.929 . S
C66 C67 1.400 . S
C66 C68 1.364 . S
C67 C66 1.400 . S
C67 C71 1.377 . S
C68 C66 1.364 . S
C68 C69 1.374 1_445 S
C69 H60 0.930 . S
C69 C68 1.374 1_665 S
C69 C70 1.383 1_665 S
C70 O64 1.412 1_445 S
C70 C69 1.383 1_445 S
C70 C71 1.394 . S
C71 H61 0.929 . S
C71 C67 1.377 . S
C71 C70 1.394 . S
H72 C79 0.929 . S
H73 C82 0.930 . S
H74 C84 0.929 . S
H75 C76 0.969 . S
C76 H75 0.969 . S
C76 O77 1.550 . S
C76 H78 0.973 . S
O77 C76 1.550 . S
O77 C83 1.412 . S
H78 C76 0.973 . S
C79 H72 0.929 . S
C79 C80 1.400 . S
C79 C81 1.364 . S
C80 C79 1.400 . S
C80 C84 1.377 . S
C81 C79 1.364 . S
C81 C82 1.374 . S
C82 H73 0.930 . S
C82 C81 1.374 . S
C82 C83 1.383 . S
C83 O77 1.412 . S
C83 C82 1.383 . S
C83 C84 1.394 . S
C84 H74 0.929 . S
C84 C80 1.377 . S
C84 C83 1.394 . S
H85 C92 0.929 . S
H86 C95 0.930 . S
H87 C97 0.929 . S
H88 C89 0.969 . S
C89 H88 0.969 . S
C89 O90 1.550 . S
C89 H91 0.973 . S
O90 C89 1.550 . S
O90 C96 1.412 . S
H91 C89 0.973 . S
C92 H85 0.929 . S
C92 C93 1.400 . S
C92 C94 1.364 . S
C93 C92 1.400 . S
C93 C97 1.377 . S
C94 C92 1.364 . S
C94 C95 1.374 . S
C95 H86 0.930 . S
C95 C94 1.374 . S
C95 C96 1.383 . S
C96 O90 1.412 . S
C96 C95 1.383 . S
C96 C97 1.394 . S
C97 H87 0.929 . S
C97 C93 1.377 . S
C97 C96 1.394 . S
H98 C104 0.930 1_556 S
H99 C107 0.930 . S
H100 C108 0.930 . S
H101 C109 0.930 . S
H102 C112 0.930 1_556 S
H103 C113 0.930 . S
C104 H98 0.930 1_554 S
C104 C105 1.355 . S
C104 C106 1.415 . S
C105 C104 1.355 . S
C105 C107 1.419 . S
C106 C104 1.415 . S
C106 C111 1.425 . S
C106 C113 1.409 1_554 S
C107 H99 0.930 . S
C107 C105 1.419 . S
C107 C108 1.362 . S
C108 H100 0.930 . S
C108 C107 1.362 . S
C108 C111 1.409 . S
C109 H101 0.930 . S
C109 C110 1.355 . S
C109 C111 1.415 . S
C110 C109 1.355 . S
C110 C112 1.419 . S
C111 C106 1.425 . S
C111 C108 1.409 . S
C111 C109 1.415 . S
C112 H102 0.930 1_554 S
C112 C110 1.419 . S
C112 C113 1.362 1_554 S
C113 H103 0.930 . S
C113 C106 1.409 1_556 S
C113 C112 1.362 1_556 S
H114 C120 0.930 1_554 S
H115 C123 0.930 . S
H116 C124 0.930 . S
H117 C125 0.930 . S
H118 C128 0.930 . S
H119 C129 0.930 1_554 S
C120 H114 0.930 1_556 S
C120 C121 1.355 . S
C120 C122 1.415 . S
C121 C120 1.355 . S
C121 C123 1.419 . S
C122 C120 1.415 . S
C122 C127 1.425 . S
C122 C129 1.409 . S
C123 H115 0.930 . S
C123 C121 1.419 . S
C123 C124 1.362 . S
C124 H116 0.930 . S
C124 C123 1.362 . S
C124 C127 1.409 . S
C125 H117 0.930 . S
C125 C126 1.355 . S
C125 C127 1.415 . S
C126 C125 1.355 . S
C126 C128 1.419 . S
C127 C122 1.425 . S
C127 C124 1.409 . S
C127 C125 1.415 . S
C128 H118 0.930 . S
C128 C126 1.419 . S
C128 C129 1.362 . S
C129 H119 0.930 1_556 S
C129 C122 1.409 . S
C129 C128 1.362 . S
H130 C136 0.930 . S
H131 C139 0.930 . S
H132 C140 0.930 . S
H133 C141 0.930 . S
H134 C144 0.930 . S
H135 C145 0.930 . S
C136 H130 0.930 . S
C136 C137 1.355 . S
C136 C138 1.415 . S
C137 C136 1.355 . S
C137 C139 1.419 . S
C138 C136 1.415 . S
C138 C143 1.425 . S
C138 C145 1.409 . S
C139 H131 0.930 . S
C139 C137 1.419 . S
C139 C140 1.362 . S
C140 H132 0.930 . S
C140 C139 1.362 . S
C140 C143 1.409 . S
C141 H133 0.930 . S
C141 C142 1.355 . S
C141 C143 1.415 . S
C142 C141 1.355 . S
C142 C144 1.419 . S
C143 C138 1.425 . S
C143 C140 1.409 . S
C143 C141 1.415 . S
C144 H134 0.930 . S
C144 C142 1.419 . S
C144 C145 1.362 . S
C145 H135 0.930 . S
C145 C138 1.409 . S
C145 C144 1.362 . S
H146 C152 0.930 . S
H147 C155 0.930 1_554 S
H148 C156 0.930 1_554 S
H149 C157 0.930 . S
H150 C160 0.930 . S
H151 C161 0.930 . S
C152 H146 0.930 . S
C152 C153 1.355 . S
C152 C154 1.415 . S
C153 C152 1.355 . S
C153 C155 1.419 . S
C154 C152 1.415 . S
C154 C159 1.425 . S
C154 C161 1.409 . S
C155 H147 0.930 1_556 S
C155 C153 1.419 . S
C155 C156 1.362 . S
C156 H148 0.930 1_556 S
C156 C155 1.362 . S
C156 C159 1.409 . S
C157 H149 0.930 . S
C157 C158 1.355 . S
C157 C159 1.415 . S
C158 C157 1.355 . S
C158 C160 1.419 . S
C159 C154 1.425 . S
C159 C156 1.409 . S
C159 C157 1.415 . S
C160 H150 0.930 . S
C160 C158 1.419 . S
C160 C161 1.362 . S
C161 H151 0.930 . S
C161 C154 1.409 . S
C161 C160 1.362 . S
H162 C168 0.930 . S
H163 C171 0.930 . S
H164 C172 0.930 . S
H165 C173 0.930 . S
H166 C176 0.930 . S
H167 C177 0.930 . S
C168 H162 0.930 . S
C168 C169 1.355 . S
C168 C170 1.415 . S
C169 C168 1.355 . S
C169 C171 1.419 . S
C170 C168 1.415 . S
C170 C175 1.425 . S
C170 C177 1.409 . S
C171 H163 0.930 . S
C171 C169 1.419 . S
C171 C172 1.362 . S
C172 H164 0.930 . S
C172 C171 1.362 . S
C172 C175 1.409 . S
C173 H165 0.930 . S
C173 C174 1.355 . S
C173 C175 1.415 . S
C174 C173 1.355 . S
C174 C176 1.419 . S
C175 C170 1.425 . S
C175 C172 1.409 . S
C175 C173 1.415 . S
C176 H166 0.930 . S
C176 C174 1.419 . S
C176 C177 1.362 . S
C177 H167 0.930 . S
C177 C170 1.409 . S
C177 C176 1.362 . S
H178 C184 0.930 . S
H179 C187 0.930 . S
H180 C188 0.930 . S
H181 C189 0.930 . S
H182 C192 0.930 . S
H183 C193 0.930 . S
C184 H178 0.930 . S
C184 C185 1.355 . S
C184 C186 1.415 . S
C185 C184 1.355 . S
C185 C187 1.419 . S
C186 C184 1.415 . S
C186 C191 1.425 . S
C186 C193 1.409 . S
C187 H179 0.930 . S
C187 C185 1.419 . S
C187 C188 1.362 . S
C188 H180 0.930 . S
C188 C187 1.362 . S
C188 C191 1.409 . S
C189 H181 0.930 . S
C189 C190 1.355 . S
C189 C191 1.415 . S
C190 C189 1.355 . S
C190 C192 1.419 . S
C191 C186 1.425 . S
C191 C188 1.409 . S
C191 C189 1.415 . S
C192 H182 0.930 . S
C192 C190 1.419 . S
C192 C193 1.362 . S
C193 H183 0.930 . S
C193 C186 1.409 . S
C193 C192 1.362 . S
H194 C200 0.930 . S
H195 C203 0.930 . S
H196 C204 0.930 . S
H197 C205 0.930 . S
H198 C208 0.930 . S
H199 C209 0.930 . S
C200 H194 0.930 . S
C200 C201 1.355 . S
C200 C202 1.415 . S
C201 C200 1.355 . S
C201 C203 1.419 . S
C202 C200 1.415 . S
C202 C207 1.425 . S
C202 C209 1.409 . S
C203 H195 0.930 . S
C203 C201 1.419 . S
C203 C204 1.362 . S
C204 H196 0.930 . S
C204 C203 1.362 . S
C204 C207 1.409 . S
C205 H197 0.930 . S
C205 C206 1.355 . S
C205 C207 1.415 . S
C206 C205 1.355 . S
C206 C208 1.419 . S
C207 C202 1.425 . S
C207 C204 1.409 . S
C207 C205 1.415 . S
C208 H198 0.930 . S
C208 C206 1.419 . S
C208 C209 1.362 . S
C209 H199 0.930 . S
C209 C202 1.409 . S
C209 C208 1.362 . S
H210 C216 0.930 . S
H211 C219 0.930 . S
H212 C220 0.930 . S
H213 C221 0.930 . S
H214 C224 0.930 . S
H215 C225 0.930 . S
C216 H210 0.930 . S
C216 C217 1.355 . S
C216 C218 1.415 . S
C217 C216 1.355 . S
C217 C219 1.419 . S
C218 C216 1.415 . S
C218 C223 1.425 . S
C218 C225 1.409 . S
C219 H211 0.930 . S
C219 C217 1.419 . S
C219 C220 1.362 . S
C220 H212 0.930 . S
C220 C219 1.362 . S
C220 C223 1.409 . S
C221 H213 0.930 . S
C221 C222 1.355 . S
C221 C223 1.415 . S
C222 C221 1.355 . S
C222 C224 1.419 . S
C223 C218 1.425 . S
C223 C220 1.409 . S
C223 C221 1.415 . S
C224 H214 0.930 . S
C224 C222 1.419 . S
C224 C225 1.362 . S
C225 H215 0.930 . S
C225 C218 1.409 . S
C225 C224 1.362 . S
H226 C232 0.930 . S
H227 C235 0.930 . S
H228 C236 0.930 . S
H229 C237 0.930 . S
H230 C240 0.930 . S
H231 C241 0.930 . S
C232 H226 0.930 . S
C232 C233 1.355 1_645 S
C232 C234 1.415 . S
C233 C232 1.355 1_465 S
C233 C235 1.419 . S
C234 C232 1.415 . S
C234 C239 1.425 1_645 S
C234 C241 1.409 . S
C235 H227 0.930 . S
C235 C233 1.419 . S
C235 C236 1.362 . S
C236 H228 0.930 . S
C236 C235 1.362 . S
C236 C239 1.409 . S
C237 H229 0.930 . S
C237 C238 1.355 . S
C237 C239 1.415 . S
C238 C237 1.355 . S
C238 C240 1.419 1_465 S
C239 C234 1.425 1_465 S
C239 C236 1.409 . S
C239 C237 1.415 . S
C240 H230 0.930 . S
C240 C238 1.419 1_645 S
C240 C241 1.362 . S
C241 H231 0.930 . S
C241 C234 1.409 . S
C241 C240 1.362 . S
H242 C248 0.930 . S
H243 C251 0.930 . S
H244 C252 0.930 . S
H245 C253 0.930 1_655 S
H246 C256 0.930 . S
H247 C257 0.930 . S
C248 H242 0.930 . S
C248 C249 1.355 . S
C248 C250 1.415 . S
C249 C248 1.355 . S
C249 C251 1.419 1_445 S
C250 C248 1.415 . S
C250 C255 1.425 . S
C250 C257 1.409 . S
C251 H243 0.930 . S
C251 C249 1.419 1_665 S
C251 C252 1.362 . S
C252 H244 0.930 . S
C252 C251 1.362 . S
C252 C255 1.409 1_665 S
C253 H245 0.930 1_455 S
C253 C254 1.355 1_565 S
C253 C255 1.415 1_565 S
C254 C253 1.355 1_545 S
C254 C256 1.419 . S
C255 C250 1.425 . S
C255 C252 1.409 1_445 S
C255 C253 1.415 1_545 S
C256 H246 0.930 . S
C256 C254 1.419 . S
C256 C257 1.362 . S
C257 H247 0.930 . S
C257 C250 1.409 . S
C257 C256 1.362 . S
H258 C264 0.930 . S
H259 C267 0.930 . S
H260 C268 0.930 . S
H261 C269 0.930 . S
H262 C272 0.930 . S
H263 C273 0.930 . S
C264 H258 0.930 . S
C264 C265 1.355 . S
C264 C266 1.415 . S
C265 C264 1.355 . S
C265 C267 1.419 . S
C266 C264 1.415 . S
C266 C271 1.425 . S
C266 C273 1.409 . S
C267 H259 0.930 . S
C267 C265 1.419 . S
C267 C268 1.362 . S
C268 H260 0.930 . S
C268 C267 1.362 . S
C268 C271 1.409 . S
C269 H261 0.930 . S
C269 C270 1.355 . S
C269 C271 1.415 . S
C270 C269 1.355 . S
C270 C272 1.419 . S
C271 C266 1.425 . S
C271 C268 1.409 . S
C271 C269 1.415 . S
C272 H262 0.930 . S
C272 C270 1.419 . S
C272 C273 1.362 . S
C273 H263 0.930 . S
C273 C266 1.409 . S
C273 C272 1.362 . S
H274 C280 0.930 . S
H275 C283 0.930 . S
H276 C284 0.930 . S
H277 C285 0.930 . S
H278 C288 0.930 . S
H279 C289 0.930 . S
C280 H274 0.930 . S
C280 C281 1.355 . S
C280 C282 1.415 . S
C281 C280 1.355 . S
C281 C283 1.419 . S
C282 C280 1.415 . S
C282 C287 1.425 . S
C282 C289 1.409 . S
C283 H275 0.930 . S
C283 C281 1.419 . S
C283 C284 1.362 . S
C284 H276 0.930 . S
C284 C283 1.362 . S
C284 C287 1.409 . S
C285 H277 0.930 . S
C285 C286 1.355 . S
C285 C287 1.415 . S
C286 C285 1.355 . S
C286 C288 1.419 . S
C287 C282 1.425 . S
C287 C284 1.409 . S
C287 C285 1.415 . S
C288 H278 0.930 . S
C288 C286 1.419 . S
C288 C289 1.362 . S
C289 H279 0.930 . S
C289 C282 1.409 . S
C289 C288 1.362 . S
C110 C89 1.351 . S
C105 C21 1.427 . S
C121 C19 1.437 . S
C126 C76 1.339 . S
C137 C18 1.447 . S
C142 C93 1.486 . S
C153 C20 1.500 . S
C158 C80 1.491 . S
C169 C44 1.410 . S
C174 C63 1.284 . S
C185 C42 1.399 . S
C190 C50 1.346 . S
C206 C67 1.480 . S
C201 C41 1.452 . S
C222 C54 1.492 . S
C217 C43 1.502 . S
C233 C16 1.520 . S
C238 C55 1.527 . S
C249 C17 1.483 . S
C254 C68 1.478 . S
C270 C81 1.518 . S
C265 C39 1.525 . S
C281 C40 1.498 . S
C286 C94 1.499 . S
