# Generated by pormake.
# Topology the, (3,8)-cn, num edge types: 1
# Building blocks:
#     Node 0, Type 0, BuildingBlock: KAKCAD_clean_linker_0, # of connection points: 3
#     Node 1, Type 0, BuildingBlock: KAKCAD_clean_linker_0, # of connection points: 3
#     Node 2, Type 0, BuildingBlock: KAKCAD_clean_linker_0, # of connection points: 3
#     Node 3, Type 0, BuildingBlock: KAKCAD_clean_linker_0, # of connection points: 3
#     Node 4, Type 0, BuildingBlock: KAKCAD_clean_linker_0, # of connection points: 3
#     Node 5, Type 0, BuildingBlock: KAKCAD_clean_linker_0, # of connection points: 3
#     Node 6, Type 0, BuildingBlock: KAKCAD_clean_linker_0, # of connection points: 3
#     Node 7, Type 0, BuildingBlock: KAKCAD_clean_linker_0, # of connection points: 3
#     Node 8, Type 1, BuildingBlock: GIZVER_clean_sbu_0, # of connection points: 8
#     Node 9, Type 1, BuildingBlock: GIZVER_clean_sbu_0, # of connection points: 8
#     Node 10, Type 1, BuildingBlock: GIZVER_clean_sbu_0, # of connection points: 8
#     Edge 11, Type (0, 1), BuildingBlock: XUDNAN_clean_linker_2, # of connection points: 2
#     Edge 12, Type (0, 1), BuildingBlock: XUDNAN_clean_linker_2, # of connection points: 2
#     Edge 13, Type (0, 1), BuildingBlock: XUDNAN_clean_linker_2, # of connection points: 2
#     Edge 14, Type (0, 1), BuildingBlock: XUDNAN_clean_linker_2, # of connection points: 2
#     Edge 15, Type (0, 1), BuildingBlock: XUDNAN_clean_linker_2, # of connection points: 2
#     Edge 16, Type (0, 1), BuildingBlock: XUDNAN_clean_linker_2, # of connection points: 2
#     Edge 17, Type (0, 1), BuildingBlock: XUDNAN_clean_linker_2, # of connection points: 2
#     Edge 18, Type (0, 1), BuildingBlock: XUDNAN_clean_linker_2, # of connection points: 2
#     Edge 19, Type (0, 1), BuildingBlock: XUDNAN_clean_linker_2, # of connection points: 2
#     Edge 20, Type (0, 1), BuildingBlock: XUDNAN_clean_linker_2, # of connection points: 2
#     Edge 21, Type (0, 1), BuildingBlock: XUDNAN_clean_linker_2, # of connection points: 2
#     Edge 22, Type (0, 1), BuildingBlock: XUDNAN_clean_linker_2, # of connection points: 2
#     Edge 23, Type (0, 1), BuildingBlock: XUDNAN_clean_linker_2, # of connection points: 2
#     Edge 24, Type (0, 1), BuildingBlock: XUDNAN_clean_linker_2, # of connection points: 2
#     Edge 25, Type (0, 1), BuildingBlock: XUDNAN_clean_linker_2, # of connection points: 2
#     Edge 26, Type (0, 1), BuildingBlock: XUDNAN_clean_linker_2, # of connection points: 2
#     Edge 27, Type (0, 1), BuildingBlock: XUDNAN_clean_linker_2, # of connection points: 2
#     Edge 28, Type (0, 1), BuildingBlock: XUDNAN_clean_linker_2, # of connection points: 2
#     Edge 29, Type (0, 1), BuildingBlock: XUDNAN_clean_linker_2, # of connection points: 2
#     Edge 30, Type (0, 1), BuildingBlock: XUDNAN_clean_linker_2, # of connection points: 2
#     Edge 31, Type (0, 1), BuildingBlock: XUDNAN_clean_linker_2, # of connection points: 2
#     Edge 32, Type (0, 1), BuildingBlock: XUDNAN_clean_linker_2, # of connection points: 2
#     Edge 33, Type (0, 1), BuildingBlock: XUDNAN_clean_linker_2, # of connection points: 2
#     Edge 34, Type (0, 1), BuildingBlock: XUDNAN_clean_linker_2, # of connection points: 2
# Relax obj value: 0.045
# Max RMSD: 0.139
# Mean RMSD: 0.067
data_MOF--net-the--node1-GIZVER_clean_sbu_0--node2-KAKCAD_clean_linker_0--edge1-XUDNAN_clean_linker_2
_symmetry_space_group_name_H-M    P1
_symmetry_Int_Tables_number       1
_symmetry_cell_setting            triclinic
loop_
_symmetry_equiv_pos_as_xyz
'x, y, z'
_cell_length_a     50.142996
_cell_length_b     47.314168
_cell_length_c     43.811338
_cell_angle_alpha  86.785713
_cell_angle_beta   94.035553
_cell_angle_gamma 101.62857
loop_
_atom_site_label
_atom_site_type_symbol
_atom_site_fract_x
_atom_site_fract_y
_atom_site_fract_z
_atom_type_partial_charge
C0 C 0.37582 0.40571 0.30363 0.0
C1 C 0.37862 0.43581 0.30477 0.0
C2 C 0.36659 0.38757 0.32848 0.0
C3 C 0.36015 0.39902 0.35532 0.0
C4 C 0.36323 0.42915 0.35667 0.0
C5 C 0.37238 0.44736 0.33166 0.0
C6 C 0.34926 0.37933 0.38116 0.0
C7 C 0.35932 0.35395 0.3887 0.0
C8 C 0.34711 0.33359 0.4107 0.0
C9 C 0.32497 0.33904 0.42564 0.0
C10 C 0.31493 0.36435 0.41869 0.0
C11 C 0.32727 0.38457 0.39673 0.0
C12 C 0.28984 0.36813 0.43221 0.0
C13 C 0.26619 0.34662 0.42927 0.0
C14 C 0.28915 0.39318 0.44753 0.0
C15 C 0.26507 0.3966 0.45984 0.0
C16 C 0.24113 0.37527 0.45648 0.0
C17 C 0.3558 0.30552 0.41635 0.0
C18 C 0.36023 0.28972 0.39162 0.0
C19 C 0.35789 0.29343 0.44626 0.0
C20 C 0.36362 0.26579 0.45127 0.0
C21 C 0.36723 0.24967 0.42645 0.0
C22 C 0.36585 0.26207 0.39662 0.0
C23 C 0.24206 0.35024 0.44102 0.0
H24 H 0.38093 0.39607 0.28353 0.0
H25 H 0.36405 0.36447 0.32639 0.0
H26 H 0.35862 0.43868 0.37708 0.0
H27 H 0.37419 0.47043 0.33323 0.0
H28 H 0.3765 0.34983 0.3772 0.0
H29 H 0.31863 0.40348 0.3905 0.0
H30 H 0.31483 0.32308 0.44196 0.0
H31 H 0.26622 0.32728 0.41715 0.0
H32 H 0.30727 0.40995 0.45016 0.0
H33 H 0.26527 0.41596 0.47198 0.0
H34 H 0.35847 0.29834 0.3683 0.0
H35 H 0.35475 0.30521 0.46576 0.0
H36 H 0.22397 0.33367 0.43721 0.0
H37 H 0.36894 0.2503 0.37709 0.0
H38 H 0.36447 0.25674 0.4745 0.0
C39 C 0.77877 0.38496 0.37268 0.0
C40 C 0.80209 0.37355 0.36826 0.0
C41 C 0.75365 0.37416 0.3572 0.0
C42 C 0.75114 0.35147 0.33728 0.0
C43 C 0.77421 0.34012 0.33256 0.0
C44 C 0.79943 0.3512 0.34759 0.0
C45 C 0.72424 0.33839 0.32272 0.0
C46 C 0.71273 0.35228 0.29743 0.0
C47 C 0.68782 0.33899 0.28273 0.0
C48 C 0.67446 0.31172 0.29406 0.0
C49 C 0.68526 0.29781 0.32 0.0
C50 C 0.71036 0.31148 0.334 0.0
C51 C 0.67026 0.26929 0.33256 0.0
C52 C 0.64154 0.26223 0.33042 0.0
C53 C 0.68443 0.24891 0.34709 0.0
C54 C 0.67038 0.22264 0.3595 0.0
C55 C 0.64166 0.21548 0.35714 0.0
C56 C 0.67543 0.35344 0.25569 0.0
C57 C 0.67434 0.38292 0.25556 0.0
C58 C 0.66363 0.33754 0.23024 0.0
C59 C 0.6506 0.35059 0.20561 0.0
C60 C 0.64889 0.3799 0.20579 0.0
C61 C 0.66115 0.39595 0.23098 0.0
C62 C 0.62752 0.23566 0.34212 0.0
H63 H 0.77964 0.40176 0.3887 0.0
H64 H 0.73599 0.383 0.36139 0.0
H65 H 0.77269 0.32259 0.31724 0.0
H66 H 0.81682 0.34218 0.34288 0.0
H67 H 0.72353 0.37304 0.28877 0.0
H68 H 0.71911 0.30159 0.35416 0.0
H69 H 0.65545 0.30142 0.2826 0.0
H70 H 0.62965 0.27732 0.32 0.0
H71 H 0.70649 0.25304 0.34886 0.0
H72 H 0.68224 0.20815 0.37127 0.0
H73 H 0.68308 0.39577 0.27484 0.0
H74 H 0.66435 0.31487 0.2294 0.0
H75 H 0.60549 0.23104 0.33914 0.0
H76 H 0.66049 0.41864 0.23176 0.0
H77 H 0.64122 0.33748 0.18677 0.0
C78 C 0.66719 0.64519 0.25236 0.0
C79 C 0.65627 0.66086 0.22816 0.0
C80 C 0.67938 0.65888 0.2787 0.0
C81 C 0.68151 0.68881 0.28138 0.0
C82 C 0.67038 0.70447 0.2571 0.0
C83 C 0.65771 0.69059 0.23089 0.0
C84 C 0.69518 0.70327 0.30949 0.0
C85 C 0.71732 0.69339 0.32506 0.0
C86 C 0.72902 0.70483 0.35295 0.0
C87 C 0.71902 0.72735 0.36485 0.0
C88 C 0.69743 0.73816 0.34932 0.0
C89 C 0.68564 0.72606 0.3217 0.0
C90 C 0.68657 0.76147 0.36255 0.0
C91 C 0.67924 0.75898 0.39312 0.0
C92 C 0.68358 0.7864 0.34475 0.0
C93 C 0.67389 0.80863 0.35743 0.0
C94 C 0.66648 0.8061 0.38797 0.0
C95 C 0.75024 0.69163 0.37058 0.0
C96 C 0.74679 0.66142 0.37368 0.0
C97 C 0.77348 0.70867 0.38503 0.0
C98 C 0.79269 0.69567 0.40247 0.0
C99 C 0.78869 0.66544 0.40612 0.0
C100 C 0.76573 0.64852 0.39121 0.0
C101 C 0.66904 0.78096 0.40562 0.0
H102 H 0.66592 0.62214 0.2511 0.0
H103 H 0.68685 0.64578 0.29714 0.0
H104 H 0.67181 0.72754 0.25807 0.0
H105 H 0.6495 0.70319 0.21247 0.0
H106 H 0.72555 0.67655 0.31554 0.0
H107 H 0.6683 0.73368 0.31049 0.0
H108 H 0.7277 0.73614 0.3865 0.0
H109 H 0.68117 0.73989 0.40727 0.0
H110 H 0.68915 0.78887 0.32116 0.0
H111 H 0.67194 0.8277 0.34327 0.0
H112 H 0.72901 0.64764 0.36316 0.0
H113 H 0.77677 0.73202 0.38287 0.0
H114 H 0.66357 0.77852 0.42924 0.0
H115 H 0.76225 0.62516 0.39337 0.0
H116 H 0.81019 0.70918 0.41379 0.0
C117 C 0.30584 0.64862 0.21789 0.0
C118 C 0.33401 0.65168 0.21449 0.0
C119 C 0.29619 0.66143 0.24182 0.0
C120 C 0.31434 0.67708 0.2638 0.0
C121 C 0.3425 0.68041 0.26023 0.0
C122 C 0.35214 0.66829 0.23579 0.0
C123 C 0.30393 0.68914 0.29063 0.0
C124 C 0.2792 0.67518 0.30289 0.0
C125 C 0.26911 0.68603 0.32795 0.0
C126 C 0.28424 0.71084 0.34159 0.0
C127 C 0.30899 0.72535 0.32991 0.0
C128 C 0.31858 0.71443 0.30437 0.0
C129 C 0.32456 0.75217 0.34412 0.0
C130 C 0.31096 0.77347 0.35273 0.0
C131 C 0.35308 0.75664 0.34938 0.0
C132 C 0.36759 0.78171 0.36303 0.0
C133 C 0.35397 0.80307 0.37151 0.0
C134 C 0.24234 0.67153 0.33925 0.0
C135 C 0.2192 0.66675 0.31887 0.0
C136 C 0.23982 0.66167 0.36995 0.0
C137 C 0.21476 0.64624 0.37977 0.0
C138 C 0.1916 0.64076 0.35916 0.0
C139 C 0.19411 0.65187 0.32875 0.0
C140 C 0.32547 0.79861 0.36615 0.0
H141 H 0.291 0.63586 0.20244 0.0
H142 H 0.27435 0.65887 0.24297 0.0
H143 H 0.35733 0.69196 0.2766 0.0
H144 H 0.37397 0.67205 0.2338 0.0
H145 H 0.26778 0.65536 0.29345 0.0
H146 H 0.33713 0.72619 0.29477 0.0
H147 H 0.27655 0.71895 0.36117 0.0
H148 H 0.28905 0.77087 0.34876 0.0
H149 H 0.36416 0.74057 0.34326 0.0
H150 H 0.38955 0.78456 0.36656 0.0
H151 H 0.22054 0.67454 0.29518 0.0
H152 H 0.25744 0.66506 0.38608 0.0
H153 H 0.3143 0.81447 0.37262 0.0
H154 H 0.1767 0.64894 0.31235 0.0
H155 H 0.21384 0.63784 0.40324 0.0
C156 C 0.23196 0.66255 0.67562 0.0
C157 C 0.22628 0.63353 0.66738 0.0
C158 C 0.25778 0.6753 0.68815 0.0
C159 C 0.27872 0.65941 0.69299 0.0
C160 C 0.27296 0.63023 0.68529 0.0
C161 C 0.24713 0.6175 0.67248 0.0
C162 C 0.30667 0.67375 0.70471 0.0
C163 C 0.32162 0.66018 0.72767 0.0
C164 C 0.34802 0.67388 0.73831 0.0
C165 C 0.35925 0.70136 0.72568 0.0
C166 C 0.34472 0.71552 0.70313 0.0
C167 C 0.31848 0.70141 0.69275 0.0
C168 C 0.35702 0.74519 0.69096 0.0
C169 C 0.37325 0.76531 0.71048 0.0
C170 C 0.35309 0.75364 0.65989 0.0
C171 C 0.3652 0.78132 0.6487 0.0
C172 C 0.3817 0.80128 0.66824 0.0
C173 C 0.36423 0.66052 0.76308 0.0
C174 C 0.35264 0.64852 0.79044 0.0
C175 C 0.39238 0.66247 0.76069 0.0
C176 C 0.40881 0.65462 0.78554 0.0
C177 C 0.39763 0.64437 0.81355 0.0
C178 C 0.36919 0.64046 0.81543 0.0
C179 C 0.38558 0.79272 0.69927 0.0
H180 H 0.21658 0.67569 0.67183 0.0
H181 H 0.26136 0.69774 0.69404 0.0
H182 H 0.28863 0.6174 0.6885 0.0
H183 H 0.24345 0.59503 0.66671 0.0
H184 H 0.31271 0.63906 0.73726 0.0
H185 H 0.30707 0.71204 0.67535 0.0
H186 H 0.37953 0.71193 0.73373 0.0
H187 H 0.37645 0.75999 0.73464 0.0
H188 H 0.34097 0.73875 0.64402 0.0
H189 H 0.36142 0.78708 0.62475 0.0
H190 H 0.33106 0.64678 0.79311 0.0
H191 H 0.40194 0.67097 0.73978 0.0
H192 H 0.3985 0.80705 0.71508 0.0
H193 H 0.35993 0.63259 0.83668 0.0
H194 H 0.43053 0.65728 0.78306 0.0
C195 C 0.35152 0.35558 0.81621 0.0
C196 C 0.37864 0.36895 0.81151 0.0
C197 C 0.33668 0.33658 0.79484 0.0
C198 C 0.34892 0.33025 0.76877 0.0
C199 C 0.37656 0.34228 0.7652 0.0
C200 C 0.3912 0.36166 0.78621 0.0
C201 C 0.33232 0.31416 0.7435 0.0
C202 C 0.30851 0.32294 0.73145 0.0
C203 C 0.29448 0.3109 0.705 0.0
C204 C 0.3042 0.28952 0.69065 0.0
C205 C 0.32725 0.279 0.70325 0.0
C206 C 0.34126 0.29184 0.72974 0.0
C207 C 0.33646 0.25474 0.68885 0.0
C208 C 0.31778 0.23416 0.67201 0.0
C209 C 0.36391 0.25163 0.69188 0.0
C210 C 0.37221 0.22861 0.679 0.0
C211 C 0.35361 0.20839 0.66161 0.0
C212 C 0.26983 0.32125 0.69231 0.0
C213 C 0.24779 0.31999 0.71066 0.0
C214 C 0.26873 0.33376 0.66255 0.0
C215 C 0.24636 0.34587 0.65177 0.0
C216 C 0.22443 0.34529 0.6704 0.0
C217 C 0.22523 0.33153 0.69973 0.0
C218 C 0.32627 0.21182 0.65816 0.0
H219 H 0.34139 0.36102 0.83546 0.0
H220 H 0.3154 0.32755 0.79814 0.0
H221 H 0.38643 0.33802 0.74521 0.0
H222 H 0.41211 0.37174 0.78215 0.0
H223 H 0.30154 0.34024 0.74181 0.0
H224 H 0.359 0.28448 0.74014 0.0
H225 H 0.29355 0.28119 0.66968 0.0
H226 H 0.29633 0.23494 0.6695 0.0
H227 H 0.37931 0.26705 0.704 0.0
H228 H 0.39334 0.22682 0.68299 0.0
H229 H 0.2481 0.31017 0.73359 0.0
H230 H 0.28563 0.33511 0.64807 0.0
H231 H 0.31114 0.19748 0.64449 0.0
H232 H 0.2085 0.32983 0.71449 0.0
H233 H 0.24678 0.35653 0.62925 0.0
C234 C 0.66893 0.22301 0.67077 0.0
C235 C 0.64806 0.22327 0.64745 0.0
C236 C 0.68293 0.2487 0.6836 0.0
C237 C 0.67607 0.27521 0.67393 0.0
C238 C 0.65498 0.27569 0.65125 0.0
C239 C 0.64127 0.25008 0.63798 0.0
C240 C 0.6916 0.30246 0.68667 0.0
C241 C 0.71796 0.31395 0.67737 0.0
C242 C 0.73275 0.34016 0.68858 0.0
C243 C 0.72101 0.35455 0.70969 0.0
C244 C 0.69505 0.34276 0.72043 0.0
C245 C 0.68028 0.3168 0.70823 0.0
C246 C 0.68409 0.35697 0.7452 0.0
C247 C 0.70182 0.37077 0.76862 0.0
C248 C 0.65599 0.35661 0.74611 0.0
C249 C 0.64598 0.36944 0.76985 0.0
C250 C 0.6638 0.38321 0.79326 0.0
C251 C 0.76076 0.35222 0.67883 0.0
C252 C 0.78046 0.33483 0.68021 0.0
C253 C 0.76811 0.38124 0.66855 0.0
C254 C 0.79452 0.39252 0.65938 0.0
C255 C 0.81438 0.37515 0.66072 0.0
C256 C 0.80696 0.34619 0.67156 0.0
C257 C 0.69189 0.38388 0.79203 0.0
H258 H 0.67447 0.20295 0.67934 0.0
H259 H 0.69912 0.24788 0.70116 0.0
H260 H 0.64954 0.29599 0.6433 0.0
H261 H 0.62578 0.25151 0.61979 0.0
H262 H 0.72674 0.30273 0.66094 0.0
H263 H 0.66035 0.30713 0.71611 0.0
H264 H 0.73248 0.37479 0.71816 0.0
H265 H 0.72351 0.37115 0.76926 0.0
H266 H 0.64165 0.34653 0.72839 0.0
H267 H 0.62419 0.36815 0.77004 0.0
H268 H 0.77548 0.3125 0.68851 0.0
H269 H 0.75327 0.3951 0.66707 0.0
H270 H 0.70644 0.39469 0.80915 0.0
H271 H 0.82168 0.33221 0.6737 0.0
H272 H 0.79912 0.41472 0.6507 0.0
C273 C 0.66328 0.64513 0.74769 0.0
C274 C 0.68349 0.63719 0.76843 0.0
C275 C 0.67008 0.65856 0.7193 0.0
C276 C 0.69731 0.66477 0.71107 0.0
C277 C 0.71757 0.65721 0.73201 0.0
C278 C 0.71072 0.64339 0.76018 0.0
C279 C 0.70447 0.67826 0.68044 0.0
C280 C 0.69072 0.69917 0.66645 0.0
C281 C 0.69663 0.7109 0.63689 0.0
C282 C 0.71679 0.7018 0.62142 0.0
C283 C 0.73101 0.68147 0.63539 0.0
C284 C 0.72473 0.66971 0.66467 0.0
C285 C 0.75206 0.6716 0.61936 0.0
C286 C 0.74526 0.65735 0.59182 0.0
C287 C 0.77849 0.67408 0.63311 0.0
C288 C 0.79761 0.66152 0.62013 0.0
C289 C 0.79043 0.64585 0.5935 0.0
C290 C 0.68145 0.73232 0.62207 0.0
C291 C 0.65309 0.72826 0.62402 0.0
C292 C 0.6951 0.75688 0.6059 0.0
C293 C 0.68068 0.77708 0.59213 0.0
C294 C 0.65231 0.77301 0.59417 0.0
C295 C 0.63869 0.74839 0.61025 0.0
C296 C 0.76428 0.64429 0.57909 0.0
H297 H 0.64216 0.64122 0.75341 0.0
H298 H 0.65386 0.66367 0.70365 0.0
H299 H 0.73882 0.66202 0.72671 0.0
H300 H 0.72682 0.63733 0.77536 0.0
H301 H 0.67564 0.70668 0.67872 0.0
H302 H 0.73515 0.65313 0.67466 0.0
H303 H 0.72136 0.71036 0.59848 0.0
H304 H 0.72488 0.65512 0.58101 0.0
H305 H 0.78404 0.68501 0.6544 0.0
H306 H 0.81756 0.66274 0.63182 0.0
H307 H 0.64196 0.7094 0.63605 0.0
H308 H 0.717 0.76068 0.60422 0.0
H309 H 0.75836 0.6323 0.55852 0.0
H310 H 0.61689 0.74485 0.61261 0.0
H311 H 0.69169 0.79578 0.57976 0.0
Co312 Co 0.06652 0.47353 0.54217 0.0
Co313 Co 0.03996 0.46116 0.48946 0.0
Co314 Co 0.01164 0.50378 0.521 0.0
O315 O 0.02947 0.46976 0.52671 0.0
H316 H 0.01774 0.45301 0.53553 0.0
O317 O 0.99255 0.53746 0.51639 0.0
Co318 Co 0.95371 0.53183 0.50422 0.0
Co319 Co 0.9832 0.54374 0.55667 0.0
H320 H 1.00342 0.55458 0.50715 0.0
O321 O 0.04743 0.42526 0.48292 0.0
O322 O 0.07657 0.46412 0.50149 0.0
O323 O 0.03768 0.489 0.45607 0.0
O324 O 0.03591 0.52376 0.48761 0.0
O325 O 0.98553 0.48214 0.4894 0.0
O326 O 0.91905 0.52983 0.4932 0.0
O327 O 0.95178 0.56999 0.49576 0.0
O328 O 0.94971 0.49158 0.50991 0.0
O329 O 0.98734 0.48343 0.55367 0.0
O330 O 0.98734 0.51497 0.58903 0.0
O331 O 0.94605 0.53472 0.54724 0.0
O332 O 0.96917 0.57593 0.56684 0.0
C333 C 0.0893 0.4471 0.56545 0.0
C334 C 0.06447 0.52888 0.5493 0.0
C335 C 0.04136 0.51556 0.46177 0.0
C336 C 0.07199 0.43809 0.49151 0.0
C337 C 0.9262 0.5577 0.49009 0.0
C338 C 0.95977 0.47782 0.49113 0.0
C339 C 0.98202 0.48922 0.5804 0.0
C340 C 0.94616 0.55885 0.55983 0.0
O341 O 0.10021 0.47372 0.5582 0.0
O342 O 0.06411 0.43649 0.55629 0.0
O343 O 0.03872 0.52528 0.55217 0.0
O344 O 0.07333 0.51324 0.53124 0.0
Co345 Co 0.53623 0.95575 0.49291 0.0
Co346 Co 0.54622 0.97627 0.54875 0.0
Co347 Co 0.50463 0.00976 0.51078 0.0
O348 O 0.53768 0.9926 0.50977 0.0
H349 H 0.55325 1.0067 0.50337 0.0
O350 O 0.47116 0.02635 0.5125 0.0
Co351 Co 0.47147 0.062 0.53134 0.0
Co352 Co 0.46392 0.04538 0.47617 0.0
H353 H 0.45544 0.01172 0.51744 0.0
O354 O 0.5787 0.9618 0.56006 0.0
O355 O 0.54119 0.93927 0.53442 0.0
O356 O 0.519 0.97396 0.57851 0.0
O357 O 0.48694 0.97984 0.5422 0.0
O358 O 0.52434 0.03595 0.54326 0.0
O359 O 0.46927 0.09372 0.54987 0.0
O360 O 0.43629 0.05441 0.5421 0.0
O361 O 0.5088 0.07438 0.52417 0.0
O362 O 0.52299 0.03913 0.47917 0.0
O363 O 0.492 0.05561 0.44809 0.0
O364 O 0.45981 0.0796 0.49128 0.0
O365 O 0.4291 0.04738 0.46373 0.0
C366 C 0.56464 0.93574 0.47618 0.0
C367 C 0.48145 0.95706 0.47949 0.0
C368 C 0.49414 0.97091 0.56903 0.0
C369 C 0.56469 0.93854 0.54812 0.0
C370 C 0.44442 0.08 0.55333 0.0
C371 C 0.52615 0.06338 0.54106 0.0
C372 C 0.51648 0.05386 0.45544 0.0
C373 C 0.43642 0.07257 0.47556 0.0
O374 O 0.53918 0.92265 0.47681 0.0
O375 O 0.57219 0.96149 0.48696 0.0
O376 O 0.48479 0.98453 0.47768 0.0
O377 O 0.49808 0.94492 0.49599 0.0
Co378 Co 0.47292 0.55108 0.06344 0.0
Co379 Co 0.47936 0.50101 0.0775 0.0
Co380 Co 0.51282 0.51722 0.0178 0.0
O381 O 0.47869 0.51873 0.03945 0.0
H382 H 0.46235 0.51044 0.02744 0.0
O383 O 0.54675 0.51599 0.99745 0.0
Co384 Co 0.54728 0.50297 0.95754 0.0
Co385 Co 0.56214 0.55224 0.98237 0.0
H386 H 0.55997 0.50893 0.01138 0.0
O387 O 0.44754 0.48223 0.0939 0.0
O388 O 0.47176 0.52721 0.10239 0.0
O389 O 0.51233 0.48883 0.09083 0.0
O390 O 0.52234 0.48265 0.04341 0.0
O391 O 0.49002 0.49118 0.98675 0.0
O392 O 0.55039 0.48921 0.92097 0.0
O393 O 0.57912 0.49063 0.96296 0.0
O394 O 0.51306 0.51303 0.94757 0.0
O395 O 0.50265 0.55081 0.99157 0.0
O396 O 0.53992 0.58108 0.97713 0.0
O397 O 0.56702 0.54198 0.94344 0.0
O398 O 0.599 0.56221 0.97904 0.0
C399 C 0.44 0.56608 0.07688 0.0
C400 C 0.53379 0.56028 0.0666 0.0
C401 C 0.52637 0.4791 0.07254 0.0
C402 C 0.45282 0.50521 0.11 0.0
C403 C 0.57262 0.48325 0.9347 0.0
C404 C 0.49175 0.49696 0.95789 0.0
C405 C 0.51424 0.5745 0.97845 0.0
C406 C 0.59216 0.55419 0.95121 0.0
O407 O 0.46489 0.57891 0.08391 0.0
O408 O 0.43551 0.54391 0.05928 0.0
O409 O 0.53749 0.54329 0.04663 0.0
O410 O 0.51019 0.56322 0.0723 0.0
H411 H 0.22239 0.42604 0.45733 0.0
H412 H 0.20024 0.33417 0.48079 0.0
H413 H 0.15458 0.34037 0.49292 0.0
H414 H 0.18625 0.44959 0.51862 0.0
H415 H 0.17663 0.47849 0.49469 0.0
H416 H 0.20783 0.4667 0.48896 0.0
H417 H 0.19179 0.45848 0.43205 0.0
H418 H 0.16037 0.46969 0.4379 0.0
H419 H 0.15959 0.43486 0.42279 0.0
H420 H 0.10969 0.35554 0.49602 0.0
H421 H 0.07093 0.38028 0.49886 0.0
H422 H 0.12418 0.46266 0.47925 0.0
C423 C 0.20831 0.40726 0.46577 0.0
C424 C 0.21491 0.37951 0.46758 0.0
C425 C 0.1955 0.35554 0.47832 0.0
C426 C 0.16954 0.35884 0.48547 0.0
C427 C 0.16348 0.38631 0.48235 0.0
C428 C 0.18253 0.41024 0.47358 0.0
C429 C 0.17083 0.4374 0.47205 0.0
C430 C 0.1863 0.4593 0.49496 0.0
C431 C 0.17063 0.45088 0.43925 0.0
C432 C 0.1422 0.42495 0.48127 0.0
C433 C 0.13819 0.39536 0.4865 0.0
C434 C 0.1127 0.37877 0.49265 0.0
C435 C 0.09083 0.39292 0.49402 0.0
C436 C 0.09484 0.42329 0.48971 0.0
C437 C 0.12082 0.43945 0.48334 0.0
H438 H 0.59058 0.20358 0.38092 0.0
H439 H 0.65803 0.16277 0.36353 0.0
H440 H 0.6338 0.11713 0.38689 0.0
H441 H 0.57284 0.16677 0.45163 0.0
H442 H 0.53661 0.16311 0.4434 0.0
H443 H 0.55981 0.19296 0.42644 0.0
H444 H 0.53904 0.17834 0.37237 0.0
H445 H 0.51576 0.14846 0.3892 0.0
H446 H 0.53782 0.14216 0.36063 0.0
H447 H 0.60268 0.07601 0.41506 0.0
H448 H 0.56564 0.0425 0.44109 0.0
H449 H 0.51693 0.10884 0.43368 0.0
C450 C 0.60028 0.1851 0.3814 0.0
C451 C 0.62658 0.18731 0.37043 0.0
C452 C 0.63833 0.16227 0.37238 0.0
C453 C 0.62458 0.13601 0.3854 0.0
C454 C 0.59878 0.13476 0.39594 0.0
C455 C 0.58661 0.15857 0.39365 0.0
C456 C 0.55841 0.15145 0.40586 0.0
C457 C 0.55684 0.16965 0.43347 0.0
C458 C 0.53646 0.15533 0.38049 0.0
C459 C 0.55663 0.11993 0.41547 0.0
C460 C 0.58025 0.11072 0.41003 0.0
C461 C 0.58391 0.08286 0.41891 0.0
C462 C 0.56284 0.06399 0.43366 0.0
C463 C 0.53826 0.07289 0.43867 0.0
C464 C 0.53521 0.10118 0.4293 0.0
H465 H 0.8451 0.67374 0.40742 0.0
H466 H 0.77405 0.62419 0.45051 0.0
H467 H 0.80303 0.59502 0.48017 0.0
H468 H 0.87681 0.61609 0.3982 0.0
H469 H 0.91135 0.63472 0.40686 0.0
H470 H 0.88604 0.65469 0.39168 0.0
H471 H 0.89657 0.68747 0.43773 0.0
H472 H 0.92169 0.66755 0.45385 0.0
H473 H 0.89397 0.67185 0.47607 0.0
H474 H 0.83632 0.56579 0.49675 0.0
H475 H 0.87445 0.5408 0.50595 0.0
H476 H 0.92733 0.61084 0.45826 0.0
C477 C 0.83589 0.65726 0.42376 0.0
C478 C 0.80729 0.65103 0.42654 0.0
C479 C 0.79583 0.62904 0.44776 0.0
C480 C 0.81214 0.61247 0.46483 0.0
C481 C 0.84 0.61831 0.46073 0.0
C482 C 0.85205 0.64042 0.44122 0.0
C483 C 0.88237 0.64057 0.44001 0.0
C484 C 0.88955 0.63626 0.40724 0.0
C485 C 0.89968 0.66851 0.45269 0.0
C486 C 0.88511 0.61447 0.46105 0.0
C487 C 0.86021 0.60205 0.47244 0.0
C488 C 0.85616 0.57581 0.48894 0.0
C489 C 0.87807 0.56179 0.49409 0.0
C490 C 0.90421 0.57437 0.48396 0.0
C491 C 0.90786 0.60126 0.46731 0.0
H492 H 0.3961 0.80856 0.41606 0.0
H493 H 0.34689 0.85862 0.35871 0.0
H494 H 0.37264 0.90338 0.38152 0.0
H495 H 0.40209 0.85158 0.48338 0.0
H496 H 0.43677 0.84811 0.49348 0.0
H497 H 0.41384 0.81989 0.47343 0.0
H498 H 0.44777 0.82406 0.43061 0.0
H499 H 0.47082 0.85218 0.45059 0.0
H500 H 0.45928 0.85864 0.4114 0.0
H501 H 0.40519 0.94319 0.4095 0.0
H502 H 0.44177 0.97433 0.44021 0.0
H503 H 0.46927 0.89795 0.47916 0.0
C504 C 0.39077 0.82893 0.40823 0.0
C505 C 0.3694 0.83001 0.38558 0.0
C506 C 0.36292 0.85715 0.37627 0.0
C507 C 0.37751 0.88273 0.38902 0.0
C508 C 0.39846 0.88089 0.41125 0.0
C509 C 0.40501 0.85466 0.42086 0.0
C510 C 0.42864 0.85859 0.4448 0.0
C511 C 0.4198 0.84366 0.47559 0.0
C512 C 0.45307 0.84773 0.43367 0.0
C513 C 0.43469 0.89115 0.44671 0.0
C514 C 0.417 0.90368 0.42736 0.0
C515 C 0.41908 0.93358 0.42485 0.0
C516 C 0.43992 0.95112 0.44238 0.0
C517 C 0.45846 0.9387 0.46212 0.0
C518 C 0.45548 0.90826 0.46437 0.0
H519 H 0.21405 0.59704 0.61903 0.0
H520 H 0.17605 0.64006 0.6839 0.0
H521 H 0.13065 0.61942 0.66015 0.0
H522 H 0.16795 0.60668 0.55409 0.0
H523 H 0.16773 0.57188 0.53923 0.0
H524 H 0.19727 0.59007 0.56127 0.0
H525 H 0.19441 0.54537 0.59886 0.0
H526 H 0.16497 0.52703 0.5768 0.0
H527 H 0.16306 0.53133 0.61715 0.0
H528 H 0.08875 0.59316 0.62927 0.0
H529 H 0.05462 0.56334 0.59445 0.0
H530 H 0.1203 0.53817 0.54976 0.0
C531 C 0.19619 0.60194 0.62844 0.0
C532 C 0.19878 0.62029 0.6534 0.0
C533 C 0.17476 0.62639 0.66462 0.0
C534 C 0.14881 0.61466 0.65133 0.0
C535 C 0.14703 0.59685 0.62666 0.0
C536 C 0.17012 0.59053 0.61532 0.0
C537 C 0.16265 0.57085 0.58857 0.0
C538 C 0.17461 0.58577 0.55905 0.0
C539 C 0.17182 0.54193 0.59579 0.0
C540 C 0.13181 0.56689 0.5868 0.0
C541 C 0.12311 0.58206 0.60889 0.0
C542 C 0.09539 0.58126 0.61184 0.0
C543 C 0.07612 0.5643 0.59191 0.0
C544 C 0.08462 0.54835 0.56928 0.0
C545 C 0.11294 0.55005 0.56671 0.0
H546 H 0.40516 0.20607 0.64319 0.0
H547 H 0.32288 0.15469 0.64649 0.0
H548 H 0.33672 0.117 0.61862 0.0
H549 H 0.42043 0.19197 0.57462 0.0
H550 H 0.45455 0.18511 0.58147 0.0
H551 H 0.44214 0.20864 0.60554 0.0
H552 H 0.44881 0.18032 0.65523 0.0
H553 H 0.46556 0.15792 0.63428 0.0
H554 H 0.43763 0.14164 0.65732 0.0
H555 H 0.35929 0.08504 0.58842 0.0
H556 H 0.3896 0.06079 0.56138 0.0
H557 H 0.45731 0.13159 0.58151 0.0
C558 C 0.38996 0.18677 0.63893 0.0
C559 C 0.36258 0.18418 0.64683 0.0
C560 C 0.34371 0.15825 0.63991 0.0
C561 C 0.35146 0.13631 0.62435 0.0
C562 C 0.37841 0.13996 0.61659 0.0
C563 C 0.39752 0.16421 0.62439 0.0
C564 C 0.42538 0.16261 0.6141 0.0
C565 C 0.43629 0.18855 0.5926 0.0
C566 C 0.44553 0.16049 0.64189 0.0
C567 C 0.41854 0.13445 0.59767 0.0
C568 C 0.39146 0.12142 0.5998 0.0
C569 C 0.38059 0.09495 0.58679 0.0
C570 C 0.39794 0.08131 0.57149 0.0
C571 C 0.42583 0.09418 0.5693 0.0
C572 C 0.43608 0.12113 0.58261 0.0
H573 H 0.84515 0.43078 0.66499 0.0
H574 H 0.84735 0.34648 0.63174 0.0
H575 H 0.89322 0.36542 0.61405 0.0
H576 H 0.87617 0.47087 0.60098 0.0
H577 H 0.89461 0.50019 0.62337 0.0
H578 H 0.86303 0.47908 0.636 0.0
H579 H 0.88789 0.46821 0.68802 0.0
H580 H 0.91963 0.48883 0.67499 0.0
H581 H 0.9174 0.45178 0.6885 0.0
H582 H 0.93739 0.3939 0.59648 0.0
H583 H 0.97527 0.43082 0.57725 0.0
H584 H 0.94437 0.49716 0.62022 0.0
C585 C 0.85517 0.4162 0.65401 0.0
C586 C 0.84246 0.38687 0.65029 0.0
C587 C 0.85666 0.36875 0.6358 0.0
C588 C 0.88279 0.37936 0.62546 0.0
C589 C 0.89462 0.40826 0.62953 0.0
C590 C 0.88122 0.42652 0.64323 0.0
C591 C 0.89774 0.45718 0.64282 0.0
C592 C 0.88194 0.47804 0.62471 0.0
C593 C 0.90616 0.46708 0.67553 0.0
C594 C 0.92228 0.45335 0.62625 0.0
C595 C 0.92018 0.42487 0.61913 0.0
C596 C 0.93944 0.41621 0.60224 0.0
C597 C 0.96094 0.43733 0.5915 0.0
C598 C 0.96308 0.46681 0.59761 0.0
C599 C 0.9438 0.47473 0.61591 0.0
H600 H 0.66677 0.83209 0.5954 0.0
H601 H 0.6028 0.76264 0.56207 0.0
H602 H 0.57485 0.79818 0.54366 0.0
H603 H 0.62521 0.87351 0.62328 0.0
H604 H 0.6449 0.90816 0.6116 0.0
H605 H 0.66136 0.87783 0.61919 0.0
H606 H 0.67971 0.8846 0.56481 0.0
H607 H 0.66353 0.91522 0.55718 0.0
H608 H 0.65618 0.88552 0.53186 0.0
H609 H 0.55224 0.83996 0.5337 0.0
H610 H 0.53656 0.886 0.5307 0.0
H611 H 0.61549 0.9292 0.56924 0.0
C612 C 0.64718 0.82444 0.58352 0.0
C613 C 0.63688 0.7946 0.58028 0.0
C614 C 0.61091 0.78538 0.56516 0.0
C615 C 0.59499 0.80539 0.55445 0.0
C616 C 0.60546 0.83455 0.55871 0.0
C617 C 0.63105 0.84416 0.57254 0.0
C618 C 0.63679 0.8766 0.57566 0.0
C619 C 0.64238 0.88447 0.60944 0.0
C620 C 0.66046 0.89135 0.55622 0.0
C621 C 0.60998 0.88352 0.56258 0.0
C622 C 0.59239 0.85895 0.55257 0.0
C623 C 0.56596 0.85944 0.54098 0.0
C624 C 0.55725 0.88575 0.53947 0.0
C625 C 0.57487 0.91128 0.54958 0.0
C626 C 0.60163 0.9101 0.56117 0.0
H627 H 0.40145 0.2295 0.47023 0.0
H628 H 0.34356 0.20245 0.39399 0.0
H629 H 0.35233 0.15293 0.40118 0.0
H630 H 0.45006 0.18979 0.45468 0.0
H631 H 0.45842 0.18014 0.49408 0.0
H632 H 0.4458 0.21275 0.48473 0.0
H633 H 0.40672 0.19554 0.52128 0.0
H634 H 0.41932 0.16268 0.5306 0.0
H635 H 0.38446 0.16087 0.51647 0.0
H636 H 0.36869 0.10718 0.4152 0.0
H637 H 0.39361 0.06892 0.43287 0.0
H638 H 0.4415 0.12594 0.49959 0.0
C639 C 0.39031 0.21304 0.45538 0.0
C640 C 0.37187 0.21978 0.43152 0.0
C641 C 0.358 0.19779 0.4122 0.0
C642 C 0.36265 0.16957 0.41627 0.0
C643 C 0.38114 0.16372 0.43984 0.0
C644 C 0.39475 0.18479 0.45906 0.0
C645 C 0.41455 0.17309 0.48163 0.0
C646 C 0.44395 0.18994 0.47857 0.0
C647 C 0.40572 0.17306 0.51447 0.0
C648 C 0.41093 0.1426 0.47113 0.0
C649 C 0.39103 0.13742 0.44753 0.0
C650 C 0.38422 0.11093 0.43378 0.0
C651 C 0.3985 0.08932 0.44405 0.0
C652 C 0.41962 0.09448 0.46755 0.0
C653 C 0.42553 0.12135 0.48156 0.0
H654 H 0.82333 0.42895 0.38721 0.0
H655 H 0.84174 0.34293 0.38922 0.0
H656 H 0.8856 0.3608 0.41743 0.0
H657 H 0.89192 0.4695 0.38022 0.0
H658 H 0.88775 0.49693 0.40542 0.0
H659 H 0.85872 0.47791 0.38321 0.0
H660 H 0.83323 0.46274 0.43284 0.0
H661 H 0.86214 0.48185 0.45509 0.0
H662 H 0.84911 0.44411 0.46383 0.0
H663 H 0.92818 0.38855 0.44644 0.0
H664 H 0.96275 0.42264 0.47704 0.0
H665 H 0.91431 0.48851 0.45888 0.0
C666 C 0.83636 0.41367 0.39365 0.0
C667 C 0.82885 0.38446 0.38544 0.0
C668 C 0.84703 0.36557 0.3943 0.0
C669 C 0.87205 0.37547 0.41061 0.0
C670 C 0.87869 0.40433 0.41828 0.0
C671 C 0.8612 0.42306 0.41031 0.0
C672 C 0.87239 0.45268 0.42259 0.0
C673 C 0.87803 0.4756 0.39629 0.0
C674 C 0.85307 0.46081 0.44491 0.0
C675 C 0.89869 0.44759 0.43907 0.0
C676 C 0.90231 0.41975 0.43595 0.0
C677 C 0.92544 0.41037 0.44909 0.0
C678 C 0.94502 0.42983 0.46629 0.0
C679 C 0.94099 0.45804 0.47062 0.0
C680 C 0.91769 0.46695 0.45647 0.0
H681 H 0.62007 0.80198 0.41894 0.0
H682 H 0.68976 0.86354 0.38689 0.0
H683 H 0.67264 0.9032 0.40861 0.0
H684 H 0.57153 0.84651 0.40097 0.0
H685 H 0.55204 0.83453 0.43396 0.0
H686 H 0.57086 0.81082 0.41807 0.0
H687 H 0.59665 0.80511 0.47095 0.0
H688 H 0.57736 0.82841 0.48673 0.0
H689 H 0.61412 0.83696 0.4901 0.0
H690 H 0.64767 0.93616 0.43368 0.0
H691 H 0.61487 0.96047 0.45618 0.0
H692 H 0.56019 0.87767 0.46922 0.0
C693 C 0.63185 0.82378 0.41685 0.0
C694 C 0.65632 0.82975 0.40142 0.0
C695 C 0.67093 0.85859 0.39858 0.0
C696 C 0.66145 0.88118 0.41099 0.0
C697 C 0.63719 0.87461 0.42595 0.0
C698 C 0.62246 0.84665 0.42871 0.0
C699 C 0.5962 0.84561 0.44426 0.0
C700 C 0.57118 0.83367 0.42304 0.0
C701 C 0.5961 0.82798 0.47483 0.0
C702 C 0.59823 0.87741 0.44938 0.0
C703 C 0.62226 0.89372 0.43919 0.0
C704 C 0.62875 0.92361 0.44166 0.0
C705 C 0.61002 0.93722 0.4545 0.0
C706 C 0.5849 0.92102 0.4642 0.0
C707 C 0.57912 0.89069 0.46176 0.0
H708 H 0.16862 0.63659 0.41563 0.0
H709 H 0.15518 0.60219 0.32463 0.0
H710 H 0.11227 0.57135 0.33964 0.0
H711 H 0.14583 0.5692 0.45509 0.0
H712 H 0.13015 0.58412 0.48453 0.0
H713 H 0.15853 0.60593 0.46583 0.0
H714 H 0.12948 0.64467 0.45092 0.0
H715 H 0.10091 0.62275 0.46934 0.0
H716 H 0.09712 0.63453 0.42971 0.0
H717 H 0.07286 0.54139 0.36486 0.0
H718 H 0.04062 0.51228 0.39994 0.0
H719 H 0.07911 0.56464 0.47519 0.0
C720 C 0.15668 0.62267 0.39877 0.0
C721 C 0.16531 0.62243 0.36865 0.0
C722 C 0.14885 0.60369 0.3475 0.0
C723 C 0.1244 0.58585 0.35586 0.0
C724 C 0.11654 0.58671 0.38556 0.0
C725 C 0.13221 0.60444 0.40682 0.0
C726 C 0.11992 0.59958 0.43787 0.0
C727 C 0.13979 0.58908 0.46226 0.0
C728 C 0.11135 0.62702 0.44752 0.0
C729 C 0.09522 0.57597 0.43076 0.0
C730 C 0.09358 0.56913 0.40034 0.0
C731 C 0.07368 0.54678 0.38863 0.0
C732 C 0.05543 0.5304 0.4087 0.0
C733 C 0.05709 0.53648 0.44012 0.0
C734 C 0.07686 0.56003 0.45109 0.0
H735 H 0.40257 0.81786 0.61144 0.0
H736 H 0.39119 0.85212 0.69854 0.0
H737 H 0.41668 0.89974 0.68166 0.0
H738 H 0.46907 0.85652 0.60131 0.0
H739 H 0.46408 0.86339 0.56063 0.0
H740 H 0.444 0.83202 0.57894 0.0
H741 H 0.39981 0.84811 0.55725 0.0
H742 H 0.41978 0.87967 0.53899 0.0
H743 H 0.39448 0.88355 0.56488 0.0
H744 H 0.44761 0.94246 0.65767 0.0
H745 H 0.47851 0.97813 0.626 0.0
H746 H 0.46588 0.91822 0.55271 0.0
C747 C 0.40486 0.83543 0.62679 0.0
C748 C 0.39507 0.83079 0.65664 0.0
C749 C 0.39902 0.8546 0.67595 0.0
C750 C 0.41329 0.88195 0.66645 0.0
C751 C 0.4231 0.88555 0.63726 0.0
C752 C 0.41869 0.86309 0.61747 0.0
C753 C 0.43181 0.87273 0.58742 0.0
C754 C 0.45353 0.85512 0.58176 0.0
C755 C 0.41017 0.87091 0.56055 0.0
C756 C 0.4447 0.90387 0.59374 0.0
C757 C 0.43956 0.9108 0.62269 0.0
C758 C 0.45125 0.93753 0.63468 0.0
C759 C 0.46873 0.95764 0.61664 0.0
C760 C 0.47385 0.95108 0.58682 0.0
C761 C 0.4615 0.92399 0.57515 0.0
H762 H 0.20101 0.35105 0.61159 0.0
H763 H 0.19605 0.37403 0.70545 0.0
H764 H 0.15853 0.3987 0.68892 0.0
H765 H 0.19136 0.4189 0.57802 0.0
H766 H 0.17155 0.40386 0.54481 0.0
H767 H 0.19649 0.38543 0.56383 0.0
H768 H 0.15953 0.33926 0.57022 0.0
H769 H 0.13435 0.3574 0.5511 0.0
H770 H 0.12889 0.34081 0.58875 0.0
H771 H 0.12278 0.42258 0.66251 0.0
H772 H 0.09275 0.44646 0.62696 0.0
H773 H 0.12249 0.4112 0.54993 0.0
C774 C 0.19213 0.36125 0.62875 0.0
C775 C 0.20142 0.35999 0.66003 0.0
C776 C 0.18896 0.37373 0.68154 0.0
C777 C 0.16767 0.38805 0.67235 0.0
C778 C 0.15907 0.38881 0.64148 0.0
C779 C 0.17102 0.376 0.61993 0.0
C780 C 0.15895 0.3815 0.58793 0.0
C781 C 0.18093 0.39844 0.56747 0.0
C782 C 0.14457 0.35304 0.57368 0.0
C783 C 0.13858 0.39968 0.59489 0.0
C784 C 0.13879 0.40329 0.62601 0.0
C785 C 0.12226 0.41973 0.63813 0.0
C786 C 0.10526 0.43312 0.61787 0.0
C787 C 0.10502 0.43005 0.58597 0.0
C788 C 0.12184 0.41315 0.5743 0.0
H789 H 0.59446 0.20875 0.62379 0.0
H790 H 0.6693 0.17536 0.63701 0.0
H791 H 0.64599 0.13027 0.61344 0.0
H792 H 0.54714 0.14193 0.63647 0.0
H793 H 0.52269 0.14976 0.60667 0.0
H794 H 0.54476 0.17883 0.62632 0.0
H795 H 0.56188 0.20189 0.5744 0.0
H796 H 0.53976 0.17293 0.55466 0.0
H797 H 0.57581 0.18068 0.549 0.0
H798 H 0.61396 0.08791 0.58859 0.0
H799 H 0.57699 0.05402 0.56119 0.0
H800 H 0.52496 0.11707 0.56019 0.0
C801 C 0.60619 0.1922 0.62159 0.0
C802 C 0.63384 0.19587 0.63282 0.0
C803 C 0.64798 0.17313 0.62954 0.0
C804 C 0.63495 0.14738 0.61589 0.0
C805 C 0.60777 0.14459 0.60516 0.0
C806 C 0.59364 0.16653 0.60757 0.0
C807 C 0.5649 0.15863 0.5931 0.0
C808 C 0.54362 0.1572 0.61707 0.0
C809 C 0.56034 0.17979 0.56619 0.0
C810 C 0.56513 0.12889 0.58207 0.0
C811 C 0.58988 0.12094 0.5896 0.0
C812 C 0.59456 0.09402 0.58242 0.0
C813 C 0.57345 0.07487 0.56695 0.0
C814 C 0.54819 0.08295 0.55835 0.0
C815 C 0.54413 0.11034 0.56614 0.0
H816 H 0.84431 0.66435 0.58245 0.0
H817 H 0.7791 0.58862 0.5823 0.0
H818 H 0.81207 0.55806 0.57312 0.0
H819 H 0.88175 0.64028 0.5223 0.0
H820 H 0.91469 0.65572 0.53975 0.0
H821 H 0.8858 0.67215 0.54415 0.0
H822 H 0.8935 0.66797 0.60311 0.0
H823 H 0.92241 0.65151 0.5993 0.0
H824 H 0.89469 0.6332 0.62163 0.0
H825 H 0.8526 0.53534 0.57066 0.0
H826 H 0.89732 0.52241 0.56572 0.0
H827 H 0.93611 0.61312 0.5656 0.0
C828 C 0.83699 0.6414 0.5799 0.0
C829 C 0.80929 0.62872 0.58303 0.0
C830 C 0.80025 0.59868 0.5796 0.0
C831 C 0.81882 0.58118 0.57464 0.0
C832 C 0.84619 0.5942 0.57278 0.0
C833 C 0.85518 0.62369 0.57453 0.0
C834 C 0.88571 0.63217 0.57192 0.0
C835 C 0.8924 0.65122 0.5428 0.0
C836 C 0.8999 0.64708 0.60071 0.0
C837 C 0.8926 0.60273 0.56948 0.0
C838 C 0.8695 0.58113 0.5702 0.0
C839 C 0.87077 0.55207 0.56955 0.0
C840 C 0.89624 0.54496 0.56685 0.0
C841 C 0.92002 0.56682 0.56497 0.0
C842 C 0.91821 0.59602 0.56684 0.0
H843 H 0.36515 0.42624 0.24398 0.0
H844 H 0.41462 0.488 0.30491 0.0
H845 H 0.43414 0.5169 0.26017 0.0
H846 H 0.4155 0.42452 0.19507 0.0
H847 H 0.39346 0.42087 0.1606 0.0
H848 H 0.3799 0.40806 0.19685 0.0
H849 H 0.34352 0.44009 0.18784 0.0
H850 H 0.35704 0.45304 0.15146 0.0
H851 H 0.35421 0.47834 0.17976 0.0
H852 H 0.45285 0.53516 0.20953 0.0
H853 H 0.46917 0.54148 0.15728 0.0
H854 H 0.40851 0.46669 0.12989 0.0
C855 C 0.37986 0.44602 0.24797 0.0
C856 C 0.38835 0.45483 0.278 0.0
C857 C 0.40749 0.481 0.28214 0.0
C858 C 0.41873 0.49753 0.25685 0.0
C859 C 0.41047 0.48772 0.2276 0.0
C860 C 0.39134 0.46263 0.22307 0.0
C861 C 0.38782 0.45523 0.18968 0.0
C862 C 0.39459 0.42542 0.18532 0.0
C863 C 0.35893 0.45678 0.17641 0.0
C864 C 0.40883 0.47937 0.17629 0.0
C865 C 0.42131 0.49822 0.19839 0.0
C866 C 0.4428 0.52095 0.19188 0.0
C867 C 0.45194 0.52434 0.16212 0.0
C868 C 0.44006 0.5046 0.13948 0.0
C869 C 0.41784 0.48228 0.1466 0.0
H870 H 0.39345 0.59794 0.856 0.0
H871 H 0.44385 0.68122 0.83304 0.0
H872 H 0.47638 0.67437 0.8763 0.0
H873 H 0.40654 0.60184 0.94038 0.0
H874 H 0.40751 0.56401 0.94576 0.0
H875 H 0.38658 0.57621 0.91462 0.0
H876 H 0.41109 0.55259 0.87547 0.0
H877 H 0.43097 0.53974 0.90701 0.0
H878 H 0.44782 0.56107 0.87591 0.0
H879 H 0.50523 0.65755 0.91933 0.0
H880 H 0.52961 0.63072 0.95807 0.0
H881 H 0.46131 0.55793 0.9543 0.0
C882 C 0.41112 0.61488 0.86044 0.0
C883 C 0.41612 0.64011 0.84097 0.0
C884 C 0.4397 0.6616 0.84734 0.0
C885 C 0.45822 0.65801 0.87205 0.0
C886 C 0.45299 0.63281 0.89048 0.0
C887 C 0.43006 0.61155 0.88507 0.0
C888 C 0.43032 0.58581 0.90745 0.0
C889 C 0.40631 0.58174 0.92829 0.0
C890 C 0.43006 0.55819 0.89041 0.0
C891 C 0.45738 0.59559 0.9255 0.0
C892 C 0.46984 0.62299 0.91559 0.0
C893 C 0.49555 0.6362 0.92754 0.0
C894 C 0.50925 0.62078 0.94961 0.0
C895 C 0.49736 0.59233 0.95962 0.0
C896 C 0.47075 0.57989 0.94777 0.0
H897 H 0.39114 0.36764 0.87392 0.0
H898 H 0.39844 0.4239 0.79209 0.0
H899 H 0.42315 0.46435 0.82269 0.0
H900 H 0.38426 0.42269 0.92824 0.0
H901 H 0.40501 0.40867 0.95834 0.0
H902 H 0.38516 0.38473 0.93088 0.0
H903 H 0.42877 0.36787 0.91728 0.0
H904 H 0.44866 0.39158 0.9448 0.0
H905 H 0.45777 0.39438 0.90552 0.0
H906 H 0.4494 0.49742 0.8604 0.0
H907 H 0.47918 0.52078 0.90261 0.0
H908 H 0.45653 0.44383 0.96121 0.0
C909 C 0.39765 0.38865 0.8627 0.0
C910 C 0.39287 0.39285 0.83072 0.0
C911 C 0.40202 0.42037 0.81655 0.0
C912 C 0.41586 0.44347 0.83377 0.0
C913 C 0.42051 0.43868 0.86517 0.0
C914 C 0.41192 0.41197 0.87958 0.0
C915 C 0.4218 0.41225 0.9132 0.0
C916 C 0.39761 0.40676 0.93389 0.0
C917 C 0.44035 0.39022 0.92062 0.0
C918 C 0.43776 0.44308 0.91517 0.0
C919 C 0.43628 0.45795 0.88722 0.0
C920 C 0.45053 0.48611 0.88247 0.0
C921 C 0.46741 0.49918 0.90661 0.0
C922 C 0.47001 0.48421 0.93523 0.0
C923 C 0.45443 0.45601 0.9398 0.0
H924 H 0.6202 0.41137 0.79184 0.0
H925 H 0.68336 0.38516 0.8536 0.0
H926 H 0.66787 0.40903 0.89558 0.0
H927 H 0.62205 0.47987 0.82178 0.0
H928 H 0.58558 0.47742 0.81816 0.0
H929 H 0.60167 0.45848 0.79261 0.0
H930 H 0.57003 0.41035 0.8082 0.0
H931 H 0.55366 0.42918 0.83364 0.0
H932 H 0.5684 0.39897 0.8481 0.0
H933 H 0.64606 0.43645 0.93104 0.0
H934 H 0.61775 0.463 0.95791 0.0
H935 H 0.56748 0.4696 0.87398 0.0
C936 C 0.63065 0.41028 0.81422 0.0
C937 C 0.65337 0.3966 0.81902 0.0
C938 C 0.66643 0.39608 0.84883 0.0
C939 C 0.65763 0.40942 0.87302 0.0
C940 C 0.63547 0.42296 0.86735 0.0
C941 C 0.62192 0.42319 0.83879 0.0
C942 C 0.59829 0.43876 0.839 0.0
C943 C 0.60214 0.46523 0.81657 0.0
C944 C 0.57098 0.41808 0.83181 0.0
C945 C 0.60092 0.44758 0.87203 0.0
C946 C 0.62252 0.43825 0.88797 0.0
C947 C 0.62902 0.44377 0.91882 0.0
C948 C 0.61284 0.45894 0.93389 0.0
C949 C 0.5903 0.46833 0.91818 0.0
C950 C 0.58448 0.46266 0.88674 0.0
H951 H 0.63709 0.59756 0.78224 0.0
H952 H 0.71309 0.64511 0.82357 0.0
H953 H 0.7003 0.62318 0.87404 0.0
H954 H 0.59657 0.60919 0.84009 0.0
H955 H 0.57408 0.57431 0.83855 0.0
H956 H 0.59095 0.59013 0.80498 0.0
H957 H 0.61132 0.54432 0.80117 0.0
H958 H 0.59474 0.52855 0.83507 0.0
H959 H 0.63113 0.53238 0.83351 0.0
H960 H 0.67782 0.59993 0.92046 0.0
H961 H 0.64601 0.57942 0.95998 0.0
H962 H 0.58362 0.54867 0.88903 0.0
C963 C 0.65117 0.60332 0.80182 0.0
C964 C 0.67626 0.62295 0.79871 0.0
C965 C 0.69406 0.62965 0.82506 0.0
C966 C 0.68694 0.61736 0.85393 0.0
C967 C 0.66194 0.59844 0.85615 0.0
C968 C 0.64427 0.59151 0.83085 0.0
C969 C 0.61756 0.57274 0.8399 0.0
C970 C 0.59337 0.58748 0.83032 0.0
C971 C 0.61346 0.54271 0.82659 0.0
C972 C 0.62265 0.57104 0.87434 0.0
C973 C 0.64859 0.58553 0.88316 0.0
C974 C 0.65755 0.58828 0.91384 0.0
C975 C 0.63928 0.57657 0.93612 0.0
C976 C 0.61226 0.56254 0.92761 0.0
C977 C 0.60417 0.55911 0.89628 0.0
H978 H 0.60579 0.66225 0.20022 0.0
H979 H 0.67745 0.62521 0.19391 0.0
H980 H 0.65521 0.59802 0.14926 0.0
H981 H 0.55775 0.59842 0.18373 0.0
H982 H 0.53371 0.61654 0.16212 0.0
H983 H 0.5562 0.63502 0.19169 0.0
H984 H 0.574 0.67651 0.15256 0.0
H985 H 0.55152 0.6581 0.12285 0.0
H986 H 0.58763 0.66827 0.11785 0.0
H987 H 0.62431 0.57329 0.10656 0.0
H988 H 0.58638 0.55112 0.07096 0.0
H989 H 0.53447 0.60337 0.10623 0.0
C990 C 0.61694 0.64882 0.18904 0.0
C991 C 0.64341 0.64597 0.20029 0.0
C992 C 0.65715 0.62765 0.18559 0.0
C993 C 0.64474 0.61225 0.16016 0.0
C994 C 0.61849 0.61526 0.1498 0.0
C995 C 0.6047 0.633 0.16386 0.0
C996 C 0.57601 0.63094 0.14954 0.0
C997 C 0.55467 0.61955 0.17318 0.0
C998 C 0.57207 0.6602 0.13482 0.0
C999 C 0.57574 0.60908 0.12547 0.0
C1000 C 0.60051 0.60053 0.12573 0.0
C1001 C 0.60486 0.57996 0.10602 0.0
C1002 C 0.58321 0.56754 0.08581 0.0
C1003 C 0.55742 0.5755 0.08567 0.0
C1004 C 0.55391 0.59682 0.10562 0.0
H1005 H 0.38228 0.63179 0.21472 0.0
H1006 H 0.30981 0.63868 0.1565 0.0
H1007 H 0.32687 0.61401 0.11612 0.0
H1008 H 0.42778 0.64998 0.15434 0.0
H1009 H 0.45015 0.62662 0.16983 0.0
H1010 H 0.43081 0.64223 0.19506 0.0
H1011 H 0.40911 0.5909 0.21695 0.0
H1012 H 0.42967 0.5763 0.19234 0.0
H1013 H 0.39321 0.56356 0.19068 0.0
H1014 H 0.35289 0.58783 0.08127 0.0
H1015 H 0.38721 0.56834 0.05467 0.0
H1016 H 0.4434 0.58416 0.13449 0.0
C1017 C 0.36991 0.62859 0.1935 0.0
C1018 C 0.34441 0.63722 0.18936 0.0
C1019 C 0.32906 0.63178 0.16099 0.0
C1020 C 0.33867 0.61787 0.13766 0.0
C1021 C 0.36392 0.60979 0.14266 0.0
C1022 C 0.37943 0.6154 0.1698 0.0
C1023 C 0.40669 0.60659 0.169 0.0
C1024 C 0.43024 0.63292 0.17223 0.0
C1025 C 0.40979 0.5829 0.19371 0.0
C1026 C 0.40417 0.59505 0.13721 0.0
C1027 C 0.37925 0.59657 0.12235 0.0
C1028 C 0.37252 0.58673 0.0927 0.0
C1029 C 0.39201 0.5756 0.07778 0.0
C1030 C 0.41798 0.57508 0.0924 0.0
C1031 C 0.4238 0.58463 0.12256 0.0
H1032 H 0.61387 0.41714 0.21002 0.0
H1033 H 0.64894 0.37275 0.14378 0.0
H1034 H 0.62212 0.39353 0.10191 0.0
H1035 H 0.54717 0.4073 0.17427 0.0
H1036 H 0.54164 0.44227 0.1834 0.0
H1037 H 0.56438 0.42474 0.20778 0.0
H1038 H 0.60331 0.46952 0.20123 0.0
H1039 H 0.58062 0.48723 0.17694 0.0
H1040 H 0.61253 0.48281 0.16326 0.0
H1041 H 0.59043 0.4195 0.06689 0.0
H1042 H 0.55666 0.44714 0.04299 0.0
H1043 H 0.54287 0.47351 0.13294 0.0
C1044 C 0.61627 0.4121 0.18669 0.0
C1045 C 0.63364 0.39334 0.18028 0.0
C1046 C 0.63564 0.38687 0.14938 0.0
C1047 C 0.62057 0.3987 0.12539 0.0
C1048 C 0.6035 0.41696 0.13259 0.0
C1049 C 0.60134 0.4236 0.16255 0.0
C1050 C 0.58111 0.44315 0.16446 0.0
C1051 C 0.55716 0.42848 0.1836 0.0
C1052 C 0.59525 0.47241 0.17722 0.0
C1053 C 0.57205 0.44634 0.13097 0.0
C1054 C 0.58523 0.4313 0.11278 0.0
C1055 C 0.57999 0.43131 0.081 0.0
C1056 C 0.56075 0.44704 0.06759 0.0
C1057 C 0.54683 0.46234 0.08599 0.0
C1058 C 0.55283 0.46189 0.11807 0.0
loop_
_geom_bond_atom_site_label_1
_geom_bond_atom_site_label_2
_geom_bond_distance
_geom_bond_site_symmetry_2
_ccdc_geom_bond_type
C0 C1 1.386 . S
C0 C2 1.397 . S
C0 H24 0.931 . S
C1 C0 1.386 . S
C1 C5 1.397 . S
C2 C0 1.397 . S
C2 C3 1.384 . S
C2 H25 0.930 . S
C3 C2 1.384 . S
C3 C4 1.377 . S
C3 C6 1.481 . S
C4 C3 1.377 . S
C4 C5 1.389 . S
C4 H26 0.929 . S
C5 C1 1.397 . S
C5 C4 1.389 . S
C5 H27 0.931 . S
C6 C3 1.481 . S
C6 C7 1.387 . S
C6 C11 1.390 . S
C7 C6 1.387 . S
C7 C8 1.401 . S
C7 H28 0.930 . S
C8 C7 1.401 . S
C8 C9 1.376 . S
C8 C17 1.511 . S
C9 C8 1.376 . S
C9 C10 1.392 . S
C9 H30 0.931 . S
C10 C9 1.392 . S
C10 C11 1.361 . S
C10 C12 1.500 . S
C11 C6 1.390 . S
C11 C10 1.361 . S
C11 H29 0.931 . S
C12 C10 1.500 . S
C12 C13 1.371 . S
C12 C14 1.365 . S
C13 C12 1.371 . S
C13 C23 1.386 . S
C13 H31 0.931 . S
C14 C12 1.365 . S
C14 C15 1.409 . S
C14 H32 0.929 . S
C15 C14 1.409 . S
C15 C16 1.380 . S
C15 H33 0.930 . S
C16 C15 1.380 . S
C16 C23 1.357 . S
C17 C8 1.511 . S
C17 C18 1.341 . S
C17 C19 1.371 . S
C18 C17 1.341 . S
C18 C22 1.394 . S
C18 H34 0.930 . S
C19 C17 1.371 . S
C19 C20 1.392 . S
C19 H35 0.931 . S
C20 C19 1.392 . S
C20 C21 1.331 . S
C20 H38 0.932 . S
C21 C20 1.331 . S
C21 C22 1.336 . S
C22 C18 1.394 . S
C22 C21 1.336 . S
C22 H37 0.929 . S
C23 C13 1.386 . S
C23 C16 1.357 . S
C23 H36 0.928 . S
H24 C0 0.931 . S
H25 C2 0.930 . S
H26 C4 0.929 . S
H27 C5 0.931 . S
H28 C7 0.930 . S
H29 C11 0.931 . S
H30 C9 0.931 . S
H31 C13 0.931 . S
H32 C14 0.929 . S
H33 C15 0.930 . S
H34 C18 0.930 . S
H35 C19 0.931 . S
H36 C23 0.928 . S
H37 C22 0.929 . S
H38 C20 0.932 . S
C39 C40 1.386 . S
C39 C41 1.397 . S
C39 H63 0.931 . S
C40 C39 1.386 . S
C40 C44 1.397 . S
C41 C39 1.397 . S
C41 C42 1.384 . S
C41 H64 0.930 . S
C42 C41 1.384 . S
C42 C43 1.377 . S
C42 C45 1.481 . S
C43 C42 1.377 . S
C43 C44 1.389 . S
C43 H65 0.929 . S
C44 C40 1.397 . S
C44 C43 1.389 . S
C44 H66 0.931 . S
C45 C42 1.481 . S
C45 C46 1.387 . S
C45 C50 1.390 . S
C46 C45 1.387 . S
C46 C47 1.401 . S
C46 H67 0.930 . S
C47 C46 1.401 . S
C47 C48 1.376 . S
C47 C56 1.511 . S
C48 C47 1.376 . S
C48 C49 1.392 . S
C48 H69 0.931 . S
C49 C48 1.392 . S
C49 C50 1.361 . S
C49 C51 1.500 . S
C50 C45 1.390 . S
C50 C49 1.361 . S
C50 H68 0.931 . S
C51 C49 1.500 . S
C51 C52 1.371 . S
C51 C53 1.365 . S
C52 C51 1.371 . S
C52 C62 1.386 . S
C52 H70 0.931 . S
C53 C51 1.365 . S
C53 C54 1.409 . S
C53 H71 0.929 . S
C54 C53 1.409 . S
C54 C55 1.380 . S
C54 H72 0.930 . S
C55 C54 1.380 . S
C55 C62 1.357 . S
C56 C47 1.511 . S
C56 C57 1.341 . S
C56 C58 1.371 . S
C57 C56 1.341 . S
C57 C61 1.394 . S
C57 H73 0.930 . S
C58 C56 1.371 . S
C58 C59 1.392 . S
C58 H74 0.931 . S
C59 C58 1.392 . S
C59 C60 1.331 . S
C59 H77 0.932 . S
C60 C59 1.331 . S
C60 C61 1.336 . S
C61 C57 1.394 . S
C61 C60 1.336 . S
C61 H76 0.929 . S
C62 C52 1.386 . S
C62 C55 1.357 . S
C62 H75 0.928 . S
H63 C39 0.931 . S
H64 C41 0.930 . S
H65 C43 0.929 . S
H66 C44 0.931 . S
H67 C46 0.930 . S
H68 C50 0.931 . S
H69 C48 0.931 . S
H70 C52 0.931 . S
H71 C53 0.929 . S
H72 C54 0.930 . S
H73 C57 0.930 . S
H74 C58 0.931 . S
H75 C62 0.928 . S
H76 C61 0.929 . S
H77 C59 0.932 . S
C78 C79 1.386 . S
C78 C80 1.397 . S
C78 H102 0.931 . S
C79 C78 1.386 . S
C79 C83 1.397 . S
C80 C78 1.397 . S
C80 C81 1.384 . S
C80 H103 0.930 . S
C81 C80 1.384 . S
C81 C82 1.377 . S
C81 C84 1.481 . S
C82 C81 1.377 . S
C82 C83 1.389 . S
C82 H104 0.929 . S
C83 C79 1.397 . S
C83 C82 1.389 . S
C83 H105 0.931 . S
C84 C81 1.481 . S
C84 C85 1.387 . S
C84 C89 1.390 . S
C85 C84 1.387 . S
C85 C86 1.401 . S
C85 H106 0.930 . S
C86 C85 1.401 . S
C86 C87 1.376 . S
C86 C95 1.511 . S
C87 C86 1.376 . S
C87 C88 1.392 . S
C87 H108 0.931 . S
C88 C87 1.392 . S
C88 C89 1.361 . S
C88 C90 1.500 . S
C89 C84 1.390 . S
C89 C88 1.361 . S
C89 H107 0.931 . S
C90 C88 1.500 . S
C90 C91 1.371 . S
C90 C92 1.365 . S
C91 C90 1.371 . S
C91 C101 1.386 . S
C91 H109 0.931 . S
C92 C90 1.365 . S
C92 C93 1.409 . S
C92 H110 0.929 . S
C93 C92 1.409 . S
C93 C94 1.380 . S
C93 H111 0.930 . S
C94 C93 1.380 . S
C94 C101 1.357 . S
C95 C86 1.511 . S
C95 C96 1.341 . S
C95 C97 1.371 . S
C96 C95 1.341 . S
C96 C100 1.394 . S
C96 H112 0.930 . S
C97 C95 1.371 . S
C97 C98 1.392 . S
C97 H113 0.931 . S
C98 C97 1.392 . S
C98 C99 1.331 . S
C98 H116 0.932 . S
C99 C98 1.331 . S
C99 C100 1.336 . S
C100 C96 1.394 . S
C100 C99 1.336 . S
C100 H115 0.929 . S
C101 C91 1.386 . S
C101 C94 1.357 . S
C101 H114 0.928 . S
H102 C78 0.931 . S
H103 C80 0.930 . S
H104 C82 0.929 . S
H105 C83 0.931 . S
H106 C85 0.930 . S
H107 C89 0.931 . S
H108 C87 0.931 . S
H109 C91 0.931 . S
H110 C92 0.929 . S
H111 C93 0.930 . S
H112 C96 0.930 . S
H113 C97 0.931 . S
H114 C101 0.928 . S
H115 C100 0.929 . S
H116 C98 0.932 . S
C117 C118 1.386 . S
C117 C119 1.397 . S
C117 H141 0.931 . S
C118 C117 1.386 . S
C118 C122 1.397 . S
C119 C117 1.397 . S
C119 C120 1.384 . S
C119 H142 0.930 . S
C120 C119 1.384 . S
C120 C121 1.377 . S
C120 C123 1.481 . S
C121 C120 1.377 . S
C121 C122 1.389 . S
C121 H143 0.929 . S
C122 C118 1.397 . S
C122 C121 1.389 . S
C122 H144 0.931 . S
C123 C120 1.481 . S
C123 C124 1.387 . S
C123 C128 1.390 . S
C124 C123 1.387 . S
C124 C125 1.401 . S
C124 H145 0.930 . S
C125 C124 1.401 . S
C125 C126 1.376 . S
C125 C134 1.511 . S
C126 C125 1.376 . S
C126 C127 1.392 . S
C126 H147 0.931 . S
C127 C126 1.392 . S
C127 C128 1.361 . S
C127 C129 1.500 . S
C128 C123 1.390 . S
C128 C127 1.361 . S
C128 H146 0.931 . S
C129 C127 1.500 . S
C129 C130 1.371 . S
C129 C131 1.365 . S
C130 C129 1.371 . S
C130 C140 1.386 . S
C130 H148 0.931 . S
C131 C129 1.365 . S
C131 C132 1.409 . S
C131 H149 0.929 . S
C132 C131 1.409 . S
C132 C133 1.380 . S
C132 H150 0.930 . S
C133 C132 1.380 . S
C133 C140 1.357 . S
C134 C125 1.511 . S
C134 C135 1.341 . S
C134 C136 1.371 . S
C135 C134 1.341 . S
C135 C139 1.394 . S
C135 H151 0.930 . S
C136 C134 1.371 . S
C136 C137 1.392 . S
C136 H152 0.931 . S
C137 C136 1.392 . S
C137 C138 1.331 . S
C137 H155 0.932 . S
C138 C137 1.331 . S
C138 C139 1.336 . S
C139 C135 1.394 . S
C139 C138 1.336 . S
C139 H154 0.929 . S
C140 C130 1.386 . S
C140 C133 1.357 . S
C140 H153 0.928 . S
H141 C117 0.931 . S
H142 C119 0.930 . S
H143 C121 0.929 . S
H144 C122 0.931 . S
H145 C124 0.930 . S
H146 C128 0.931 . S
H147 C126 0.931 . S
H148 C130 0.931 . S
H149 C131 0.929 . S
H150 C132 0.930 . S
H151 C135 0.930 . S
H152 C136 0.931 . S
H153 C140 0.928 . S
H154 C139 0.929 . S
H155 C137 0.932 . S
C156 C157 1.386 . S
C156 C158 1.397 . S
C156 H180 0.931 . S
C157 C156 1.386 . S
C157 C161 1.397 . S
C158 C156 1.397 . S
C158 C159 1.384 . S
C158 H181 0.930 . S
C159 C158 1.384 . S
C159 C160 1.377 . S
C159 C162 1.481 . S
C160 C159 1.377 . S
C160 C161 1.389 . S
C160 H182 0.929 . S
C161 C157 1.397 . S
C161 C160 1.389 . S
C161 H183 0.931 . S
C162 C159 1.481 . S
C162 C163 1.387 . S
C162 C167 1.390 . S
C163 C162 1.387 . S
C163 C164 1.401 . S
C163 H184 0.930 . S
C164 C163 1.401 . S
C164 C165 1.376 . S
C164 C173 1.511 . S
C165 C164 1.376 . S
C165 C166 1.392 . S
C165 H186 0.931 . S
C166 C165 1.392 . S
C166 C167 1.361 . S
C166 C168 1.500 . S
C167 C162 1.390 . S
C167 C166 1.361 . S
C167 H185 0.931 . S
C168 C166 1.500 . S
C168 C169 1.371 . S
C168 C170 1.365 . S
C169 C168 1.371 . S
C169 C179 1.386 . S
C169 H187 0.931 . S
C170 C168 1.365 . S
C170 C171 1.409 . S
C170 H188 0.929 . S
C171 C170 1.409 . S
C171 C172 1.380 . S
C171 H189 0.930 . S
C172 C171 1.380 . S
C172 C179 1.357 . S
C173 C164 1.511 . S
C173 C174 1.341 . S
C173 C175 1.371 . S
C174 C173 1.341 . S
C174 C178 1.394 . S
C174 H190 0.930 . S
C175 C173 1.371 . S
C175 C176 1.392 . S
C175 H191 0.931 . S
C176 C175 1.392 . S
C176 C177 1.331 . S
C176 H194 0.932 . S
C177 C176 1.331 . S
C177 C178 1.336 . S
C178 C174 1.394 . S
C178 C177 1.336 . S
C178 H193 0.929 . S
C179 C169 1.386 . S
C179 C172 1.357 . S
C179 H192 0.928 . S
H180 C156 0.931 . S
H181 C158 0.930 . S
H182 C160 0.929 . S
H183 C161 0.931 . S
H184 C163 0.930 . S
H185 C167 0.931 . S
H186 C165 0.931 . S
H187 C169 0.931 . S
H188 C170 0.929 . S
H189 C171 0.930 . S
H190 C174 0.930 . S
H191 C175 0.931 . S
H192 C179 0.928 . S
H193 C178 0.929 . S
H194 C176 0.932 . S
C195 C196 1.386 . S
C195 C197 1.397 . S
C195 H219 0.931 . S
C196 C195 1.386 . S
C196 C200 1.397 . S
C197 C195 1.397 . S
C197 C198 1.384 . S
C197 H220 0.930 . S
C198 C197 1.384 . S
C198 C199 1.377 . S
C198 C201 1.481 . S
C199 C198 1.377 . S
C199 C200 1.389 . S
C199 H221 0.929 . S
C200 C196 1.397 . S
C200 C199 1.389 . S
C200 H222 0.931 . S
C201 C198 1.481 . S
C201 C202 1.387 . S
C201 C206 1.390 . S
C202 C201 1.387 . S
C202 C203 1.401 . S
C202 H223 0.930 . S
C203 C202 1.401 . S
C203 C204 1.376 . S
C203 C212 1.511 . S
C204 C203 1.376 . S
C204 C205 1.392 . S
C204 H225 0.931 . S
C205 C204 1.392 . S
C205 C206 1.361 . S
C205 C207 1.500 . S
C206 C201 1.390 . S
C206 C205 1.361 . S
C206 H224 0.931 . S
C207 C205 1.500 . S
C207 C208 1.371 . S
C207 C209 1.365 . S
C208 C207 1.371 . S
C208 C218 1.386 . S
C208 H226 0.931 . S
C209 C207 1.365 . S
C209 C210 1.409 . S
C209 H227 0.929 . S
C210 C209 1.409 . S
C210 C211 1.380 . S
C210 H228 0.930 . S
C211 C210 1.380 . S
C211 C218 1.357 . S
C212 C203 1.511 . S
C212 C213 1.341 . S
C212 C214 1.371 . S
C213 C212 1.341 . S
C213 C217 1.394 . S
C213 H229 0.930 . S
C214 C212 1.371 . S
C214 C215 1.392 . S
C214 H230 0.931 . S
C215 C214 1.392 . S
C215 C216 1.331 . S
C215 H233 0.932 . S
C216 C215 1.331 . S
C216 C217 1.336 . S
C217 C213 1.394 . S
C217 C216 1.336 . S
C217 H232 0.929 . S
C218 C208 1.386 . S
C218 C211 1.357 . S
C218 H231 0.928 . S
H219 C195 0.931 . S
H220 C197 0.930 . S
H221 C199 0.929 . S
H222 C200 0.931 . S
H223 C202 0.930 . S
H224 C206 0.931 . S
H225 C204 0.931 . S
H226 C208 0.931 . S
H227 C209 0.929 . S
H228 C210 0.930 . S
H229 C213 0.930 . S
H230 C214 0.931 . S
H231 C218 0.928 . S
H232 C217 0.929 . S
H233 C215 0.932 . S
C234 C235 1.386 . S
C234 C236 1.397 . S
C234 H258 0.931 . S
C235 C234 1.386 . S
C235 C239 1.397 . S
C236 C234 1.397 . S
C236 C237 1.384 . S
C236 H259 0.930 . S
C237 C236 1.384 . S
C237 C238 1.377 . S
C237 C240 1.481 . S
C238 C237 1.377 . S
C238 C239 1.389 . S
C238 H260 0.929 . S
C239 C235 1.397 . S
C239 C238 1.389 . S
C239 H261 0.931 . S
C240 C237 1.481 . S
C240 C241 1.387 . S
C240 C245 1.390 . S
C241 C240 1.387 . S
C241 C242 1.401 . S
C241 H262 0.930 . S
C242 C241 1.401 . S
C242 C243 1.376 . S
C242 C251 1.511 . S
C243 C242 1.376 . S
C243 C244 1.392 . S
C243 H264 0.931 . S
C244 C243 1.392 . S
C244 C245 1.361 . S
C244 C246 1.500 . S
C245 C240 1.390 . S
C245 C244 1.361 . S
C245 H263 0.931 . S
C246 C244 1.500 . S
C246 C247 1.371 . S
C246 C248 1.365 . S
C247 C246 1.371 . S
C247 C257 1.386 . S
C247 H265 0.931 . S
C248 C246 1.365 . S
C248 C249 1.409 . S
C248 H266 0.929 . S
C249 C248 1.409 . S
C249 C250 1.380 . S
C249 H267 0.930 . S
C250 C249 1.380 . S
C250 C257 1.357 . S
C251 C242 1.511 . S
C251 C252 1.341 . S
C251 C253 1.371 . S
C252 C251 1.341 . S
C252 C256 1.394 . S
C252 H268 0.930 . S
C253 C251 1.371 . S
C253 C254 1.392 . S
C253 H269 0.931 . S
C254 C253 1.392 . S
C254 C255 1.331 . S
C254 H272 0.932 . S
C255 C254 1.331 . S
C255 C256 1.336 . S
C256 C252 1.394 . S
C256 C255 1.336 . S
C256 H271 0.929 . S
C257 C247 1.386 . S
C257 C250 1.357 . S
C257 H270 0.928 . S
H258 C234 0.931 . S
H259 C236 0.930 . S
H260 C238 0.929 . S
H261 C239 0.931 . S
H262 C241 0.930 . S
H263 C245 0.931 . S
H264 C243 0.931 . S
H265 C247 0.931 . S
H266 C248 0.929 . S
H267 C249 0.930 . S
H268 C252 0.930 . S
H269 C253 0.931 . S
H270 C257 0.928 . S
H271 C256 0.929 . S
H272 C254 0.932 . S
C273 C274 1.386 . S
C273 C275 1.397 . S
C273 H297 0.931 . S
C274 C273 1.386 . S
C274 C278 1.397 . S
C275 C273 1.397 . S
C275 C276 1.384 . S
C275 H298 0.930 . S
C276 C275 1.384 . S
C276 C277 1.377 . S
C276 C279 1.481 . S
C277 C276 1.377 . S
C277 C278 1.389 . S
C277 H299 0.929 . S
C278 C274 1.397 . S
C278 C277 1.389 . S
C278 H300 0.931 . S
C279 C276 1.481 . S
C279 C280 1.387 . S
C279 C284 1.390 . S
C280 C279 1.387 . S
C280 C281 1.401 . S
C280 H301 0.930 . S
C281 C280 1.401 . S
C281 C282 1.376 . S
C281 C290 1.511 . S
C282 C281 1.376 . S
C282 C283 1.392 . S
C282 H303 0.931 . S
C283 C282 1.392 . S
C283 C284 1.361 . S
C283 C285 1.500 . S
C284 C279 1.390 . S
C284 C283 1.361 . S
C284 H302 0.931 . S
C285 C283 1.500 . S
C285 C286 1.371 . S
C285 C287 1.365 . S
C286 C285 1.371 . S
C286 C296 1.386 . S
C286 H304 0.931 . S
C287 C285 1.365 . S
C287 C288 1.409 . S
C287 H305 0.929 . S
C288 C287 1.409 . S
C288 C289 1.380 . S
C288 H306 0.930 . S
C289 C288 1.380 . S
C289 C296 1.357 . S
C290 C281 1.511 . S
C290 C291 1.341 . S
C290 C292 1.371 . S
C291 C290 1.341 . S
C291 C295 1.394 . S
C291 H307 0.930 . S
C292 C290 1.371 . S
C292 C293 1.392 . S
C292 H308 0.931 . S
C293 C292 1.392 . S
C293 C294 1.331 . S
C293 H311 0.932 . S
C294 C293 1.331 . S
C294 C295 1.336 . S
C295 C291 1.394 . S
C295 C294 1.336 . S
C295 H310 0.929 . S
C296 C286 1.386 . S
C296 C289 1.357 . S
C296 H309 0.928 . S
H297 C273 0.931 . S
H298 C275 0.930 . S
H299 C277 0.929 . S
H300 C278 0.931 . S
H301 C280 0.930 . S
H302 C284 0.931 . S
H303 C282 0.931 . S
H304 C286 0.931 . S
H305 C287 0.929 . S
H306 C288 0.930 . S
H307 C291 0.930 . S
H308 C292 0.931 . S
H309 C296 0.928 . S
H310 C295 0.929 . S
H311 C293 0.932 . S
Co312 O315 2.042 . S
Co312 O322 2.264 . S
Co312 O341 2.286 . S
Co312 O342 2.069 . S
Co312 O344 2.015 . S
Co313 O315 2.122 . S
Co313 O321 2.073 . S
Co313 O322 2.327 . S
Co313 O323 1.976 . S
Co314 O315 2.087 . S
Co314 O317 2.087 1_455 S
Co314 O324 2.111 . S
Co314 O325 2.143 1_455 S
Co314 O329 2.111 1_455 S
Co314 O343 2.143 . S
O315 Co312 2.042 . S
O315 Co313 2.122 . S
O315 Co314 2.087 . S
O315 H316 0.980 . S
H316 O315 0.980 . S
O317 Co314 2.087 1_655 S
O317 Co318 2.042 . S
O317 Co319 2.122 . S
O317 H320 0.980 . S
Co318 O317 2.042 . S
Co318 O326 2.286 . S
Co318 O327 2.069 . S
Co318 O328 2.015 . S
Co318 O331 2.264 . S
Co319 O317 2.122 . S
Co319 O330 1.976 . S
Co319 O331 2.327 . S
Co319 O332 2.073 . S
H320 O317 0.980 . S
O321 Co313 2.073 . S
O321 C336 1.245 . S
O322 Co312 2.264 . S
O322 Co313 2.327 . S
O322 C336 1.257 . S
O323 Co313 1.976 . S
O323 C335 1.251 . S
O324 Co314 2.111 . S
O324 C335 1.274 . S
O325 Co314 2.143 1_655 S
O325 C338 1.246 . S
O326 Co318 2.286 . S
O326 C337 1.259 . S
O327 Co318 2.069 . S
O327 C337 1.289 . S
O328 Co318 2.015 . S
O328 C338 1.257 . S
O329 Co314 2.111 1_655 S
O329 C339 1.274 . S
O330 Co319 1.976 . S
O330 C339 1.251 . S
O331 Co318 2.264 . S
O331 Co319 2.327 . S
O331 C340 1.257 . S
O332 Co319 2.073 . S
O332 C340 1.245 . S
C333 O341 1.259 . S
C333 O342 1.289 . S
C334 O343 1.246 . S
C334 O344 1.257 . S
C335 O323 1.251 . S
C335 O324 1.274 . S
C336 O321 1.245 . S
C336 O322 1.257 . S
C337 O326 1.259 . S
C337 O327 1.289 . S
C338 O325 1.246 . S
C338 O328 1.257 . S
C339 O329 1.274 . S
C339 O330 1.251 . S
C340 O331 1.257 . S
C340 O332 1.245 . S
O341 Co312 2.286 . S
O341 C333 1.259 . S
O342 Co312 2.069 . S
O342 C333 1.289 . S
O343 Co314 2.143 . S
O343 C334 1.246 . S
O344 Co312 2.015 . S
O344 C334 1.257 . S
Co345 O348 2.042 . S
Co345 O355 2.264 . S
Co345 O374 2.286 . S
Co345 O375 2.069 . S
Co345 O377 2.015 . S
Co346 O348 2.122 . S
Co346 O354 2.073 . S
Co346 O355 2.327 . S
Co346 O356 1.976 . S
Co347 O348 2.087 1_545 S
Co347 O350 2.087 . S
Co347 O357 2.111 1_545 S
Co347 O358 2.143 . S
Co347 O362 2.111 . S
Co347 O376 2.143 1_545 S
O348 Co345 2.042 . S
O348 Co346 2.122 . S
O348 Co347 2.087 1_565 S
O348 H349 0.980 . S
H349 O348 0.980 . S
O350 Co347 2.087 . S
O350 Co351 2.042 . S
O350 Co352 2.122 . S
O350 H353 0.980 . S
Co351 O350 2.042 . S
Co351 O359 2.286 . S
Co351 O360 2.069 . S
Co351 O361 2.015 . S
Co351 O364 2.264 . S
Co352 O350 2.122 . S
Co352 O363 1.976 . S
Co352 O364 2.327 . S
Co352 O365 2.073 . S
H353 O350 0.980 . S
O354 Co346 2.073 . S
O354 C369 1.245 . S
O355 Co345 2.264 . S
O355 Co346 2.327 . S
O355 C369 1.257 . S
O356 Co346 1.976 . S
O356 C368 1.251 . S
O357 Co347 2.111 1_565 S
O357 C368 1.274 . S
O358 Co347 2.143 . S
O358 C371 1.246 . S
O359 Co351 2.286 . S
O359 C370 1.259 . S
O360 Co351 2.069 . S
O360 C370 1.289 . S
O361 Co351 2.015 . S
O361 C371 1.257 . S
O362 Co347 2.111 . S
O362 C372 1.274 . S
O363 Co352 1.976 . S
O363 C372 1.251 . S
O364 Co351 2.264 . S
O364 Co352 2.327 . S
O364 C373 1.257 . S
O365 Co352 2.073 . S
O365 C373 1.245 . S
C366 O374 1.259 . S
C366 O375 1.289 . S
C367 O376 1.246 . S
C367 O377 1.257 . S
C368 O356 1.251 . S
C368 O357 1.274 . S
C369 O354 1.245 . S
C369 O355 1.257 . S
C370 O359 1.259 . S
C370 O360 1.289 . S
C371 O358 1.246 . S
C371 O361 1.257 . S
C372 O362 1.274 . S
C372 O363 1.251 . S
C373 O364 1.257 . S
C373 O365 1.245 . S
O374 Co345 2.286 . S
O374 C366 1.259 . S
O375 Co345 2.069 . S
O375 C366 1.289 . S
O376 Co347 2.143 1_565 S
O376 C367 1.246 . S
O377 Co345 2.015 . S
O377 C367 1.257 . S
Co378 O381 2.042 . S
Co378 O388 2.264 . S
Co378 O407 2.286 . S
Co378 O408 2.069 . S
Co378 O410 2.015 . S
Co379 O381 2.122 . S
Co379 O387 2.073 . S
Co379 O388 2.327 . S
Co379 O389 1.976 . S
Co380 O381 2.087 . S
Co380 O383 2.087 1_554 S
Co380 O390 2.111 . S
Co380 O391 2.143 1_554 S
Co380 O395 2.111 1_554 S
Co380 O409 2.143 . S
O381 Co378 2.042 . S
O381 Co379 2.122 . S
O381 Co380 2.087 . S
O381 H382 0.980 . S
H382 O381 0.980 . S
O383 Co380 2.087 1_556 S
O383 Co384 2.042 . S
O383 Co385 2.122 . S
O383 H386 0.980 . S
Co384 O383 2.042 . S
Co384 O392 2.286 . S
Co384 O393 2.069 . S
Co384 O394 2.015 . S
Co384 O397 2.264 . S
Co385 O383 2.122 . S
Co385 O396 1.976 . S
Co385 O397 2.327 . S
Co385 O398 2.073 . S
H386 O383 0.980 . S
O387 Co379 2.073 . S
O387 C402 1.245 . S
O388 Co378 2.264 . S
O388 Co379 2.327 . S
O388 C402 1.257 . S
O389 Co379 1.976 . S
O389 C401 1.251 . S
O390 Co380 2.111 . S
O390 C401 1.274 . S
O391 Co380 2.143 1_556 S
O391 C404 1.246 . S
O392 Co384 2.286 . S
O392 C403 1.259 . S
O393 Co384 2.069 . S
O393 C403 1.289 . S
O394 Co384 2.015 . S
O394 C404 1.257 . S
O395 Co380 2.111 1_556 S
O395 C405 1.274 . S
O396 Co385 1.976 . S
O396 C405 1.251 . S
O397 Co384 2.264 . S
O397 Co385 2.327 . S
O397 C406 1.257 . S
O398 Co385 2.073 . S
O398 C406 1.245 . S
C399 O407 1.259 . S
C399 O408 1.289 . S
C400 O409 1.246 . S
C400 O410 1.257 . S
C401 O389 1.251 . S
C401 O390 1.274 . S
C402 O387 1.245 . S
C402 O388 1.257 . S
C403 O392 1.259 . S
C403 O393 1.289 . S
C404 O391 1.246 . S
C404 O394 1.257 . S
C405 O395 1.274 . S
C405 O396 1.251 . S
C406 O397 1.257 . S
C406 O398 1.245 . S
O407 Co378 2.286 . S
O407 C399 1.259 . S
O408 Co378 2.069 . S
O408 C399 1.289 . S
O409 Co380 2.143 . S
O409 C400 1.246 . S
O410 Co378 2.015 . S
O410 C400 1.257 . S
H411 C423 0.930 . S
H412 C425 0.930 . S
H413 C426 0.930 . S
H414 C430 0.959 . S
H415 C430 0.959 . S
H416 C430 0.961 . S
H417 C431 0.960 . S
H418 C431 0.961 . S
H419 C431 0.959 . S
H420 C434 0.929 . S
H421 C435 0.931 . S
H422 C437 0.930 . S
C423 H411 0.930 . S
C423 C424 1.399 . S
C423 C428 1.399 . S
C424 C423 1.399 . S
C424 C425 1.376 . S
C425 H412 0.930 . S
C425 C424 1.376 . S
C425 C426 1.388 . S
C426 H413 0.930 . S
C426 C425 1.388 . S
C426 C427 1.390 . S
C427 C426 1.390 . S
C427 C428 1.394 . S
C427 C433 1.465 . S
C428 C423 1.399 . S
C428 C427 1.394 . S
C428 C429 1.516 . S
C429 C428 1.516 . S
C429 C430 1.502 . S
C429 C431 1.561 . S
C429 C432 1.526 . S
C430 H414 0.959 . S
C430 H415 0.959 . S
C430 H416 0.961 . S
C430 C429 1.502 . S
C431 H417 0.960 . S
C431 H418 0.961 . S
C431 H419 0.959 . S
C431 C429 1.561 . S
C432 C429 1.526 . S
C432 C433 1.396 . S
C432 C437 1.390 . S
C433 C427 1.465 . S
C433 C432 1.396 . S
C433 C434 1.399 . S
C434 H420 0.929 . S
C434 C433 1.399 . S
C434 C435 1.385 . S
C435 H421 0.931 . S
C435 C434 1.385 . S
C435 C436 1.389 . S
C436 C435 1.389 . S
C436 C437 1.387 . S
C437 H422 0.930 . S
C437 C432 1.390 . S
C437 C436 1.387 . S
H438 C450 0.930 . S
H439 C452 0.930 . S
H440 C453 0.930 . S
H441 C457 0.959 . S
H442 C457 0.959 . S
H443 C457 0.961 . S
H444 C458 0.960 . S
H445 C458 0.961 . S
H446 C458 0.959 . S
H447 C461 0.929 . S
H448 C462 0.931 . S
H449 C464 0.930 . S
C450 H438 0.930 . S
C450 C451 1.399 . S
C450 C455 1.399 . S
C451 C450 1.399 . S
C451 C452 1.376 . S
C452 H439 0.930 . S
C452 C451 1.376 . S
C452 C453 1.388 . S
C453 H440 0.930 . S
C453 C452 1.388 . S
C453 C454 1.390 . S
C454 C453 1.390 . S
C454 C455 1.394 . S
C454 C460 1.465 . S
C455 C450 1.399 . S
C455 C454 1.394 . S
C455 C456 1.516 . S
C456 C455 1.516 . S
C456 C457 1.502 . S
C456 C458 1.561 . S
C456 C459 1.526 . S
C457 H441 0.959 . S
C457 H442 0.959 . S
C457 H443 0.961 . S
C457 C456 1.502 . S
C458 H444 0.960 . S
C458 H445 0.961 . S
C458 H446 0.959 . S
C458 C456 1.561 . S
C459 C456 1.526 . S
C459 C460 1.396 . S
C459 C464 1.390 . S
C460 C454 1.465 . S
C460 C459 1.396 . S
C460 C461 1.399 . S
C461 H447 0.929 . S
C461 C460 1.399 . S
C461 C462 1.385 . S
C462 H448 0.931 . S
C462 C461 1.385 . S
C462 C463 1.389 . S
C463 C462 1.389 . S
C463 C464 1.387 . S
C464 H449 0.930 . S
C464 C459 1.390 . S
C464 C463 1.387 . S
H465 C477 0.930 . S
H466 C479 0.930 . S
H467 C480 0.930 . S
H468 C484 0.959 . S
H469 C484 0.959 . S
H470 C484 0.961 . S
H471 C485 0.960 . S
H472 C485 0.961 . S
H473 C485 0.959 . S
H474 C488 0.929 . S
H475 C489 0.931 . S
H476 C491 0.930 . S
C477 H465 0.930 . S
C477 C478 1.399 . S
C477 C482 1.399 . S
C478 C477 1.399 . S
C478 C479 1.376 . S
C479 H466 0.930 . S
C479 C478 1.376 . S
C479 C480 1.388 . S
C480 H467 0.930 . S
C480 C479 1.388 . S
C480 C481 1.390 . S
C481 C480 1.390 . S
C481 C482 1.394 . S
C481 C487 1.465 . S
C482 C477 1.399 . S
C482 C481 1.394 . S
C482 C483 1.516 . S
C483 C482 1.516 . S
C483 C484 1.502 . S
C483 C485 1.561 . S
C483 C486 1.526 . S
C484 H468 0.959 . S
C484 H469 0.959 . S
C484 H470 0.961 . S
C484 C483 1.502 . S
C485 H471 0.960 . S
C485 H472 0.961 . S
C485 H473 0.959 . S
C485 C483 1.561 . S
C486 C483 1.526 . S
C486 C487 1.396 . S
C486 C491 1.390 . S
C487 C481 1.465 . S
C487 C486 1.396 . S
C487 C488 1.399 . S
C488 H474 0.929 . S
C488 C487 1.399 . S
C488 C489 1.385 . S
C489 H475 0.931 . S
C489 C488 1.385 . S
C489 C490 1.389 . S
C490 C489 1.389 . S
C490 C491 1.387 . S
C491 H476 0.930 . S
C491 C486 1.390 . S
C491 C490 1.387 . S
H492 C504 0.930 . S
H493 C506 0.930 . S
H494 C507 0.930 . S
H495 C511 0.959 . S
H496 C511 0.959 . S
H497 C511 0.961 . S
H498 C512 0.960 . S
H499 C512 0.961 . S
H500 C512 0.959 . S
H501 C515 0.929 . S
H502 C516 0.931 . S
H503 C518 0.930 . S
C504 H492 0.930 . S
C504 C505 1.399 . S
C504 C509 1.399 . S
C505 C504 1.399 . S
C505 C506 1.376 . S
C506 H493 0.930 . S
C506 C505 1.376 . S
C506 C507 1.388 . S
C507 H494 0.930 . S
C507 C506 1.388 . S
C507 C508 1.390 . S
C508 C507 1.390 . S
C508 C509 1.394 . S
C508 C514 1.465 . S
C509 C504 1.399 . S
C509 C508 1.394 . S
C509 C510 1.516 . S
C510 C509 1.516 . S
C510 C511 1.502 . S
C510 C512 1.561 . S
C510 C513 1.526 . S
C511 H495 0.959 . S
C511 H496 0.959 . S
C511 H497 0.961 . S
C511 C510 1.502 . S
C512 H498 0.960 . S
C512 H499 0.961 . S
C512 H500 0.959 . S
C512 C510 1.561 . S
C513 C510 1.526 . S
C513 C514 1.396 . S
C513 C518 1.390 . S
C514 C508 1.465 . S
C514 C513 1.396 . S
C514 C515 1.399 . S
C515 H501 0.929 . S
C515 C514 1.399 . S
C515 C516 1.385 . S
C516 H502 0.931 . S
C516 C515 1.385 . S
C516 C517 1.389 . S
C517 C516 1.389 . S
C517 C518 1.387 . S
C518 H503 0.930 . S
C518 C513 1.390 . S
C518 C517 1.387 . S
H519 C531 0.930 . S
H520 C533 0.930 . S
H521 C534 0.930 . S
H522 C538 0.959 . S
H523 C538 0.959 . S
H524 C538 0.961 . S
H525 C539 0.960 . S
H526 C539 0.961 . S
H527 C539 0.959 . S
H528 C542 0.929 . S
H529 C543 0.931 . S
H530 C545 0.930 . S
C531 H519 0.930 . S
C531 C532 1.399 . S
C531 C536 1.399 . S
C532 C531 1.399 . S
C532 C533 1.376 . S
C533 H520 0.930 . S
C533 C532 1.376 . S
C533 C534 1.388 . S
C534 H521 0.930 . S
C534 C533 1.388 . S
C534 C535 1.390 . S
C535 C534 1.390 . S
C535 C536 1.394 . S
C535 C541 1.465 . S
C536 C531 1.399 . S
C536 C535 1.394 . S
C536 C537 1.516 . S
C537 C536 1.516 . S
C537 C538 1.502 . S
C537 C539 1.561 . S
C537 C540 1.526 . S
C538 H522 0.959 . S
C538 H523 0.959 . S
C538 H524 0.961 . S
C538 C537 1.502 . S
C539 H525 0.960 . S
C539 H526 0.961 . S
C539 H527 0.959 . S
C539 C537 1.561 . S
C540 C537 1.526 . S
C540 C541 1.396 . S
C540 C545 1.390 . S
C541 C535 1.465 . S
C541 C540 1.396 . S
C541 C542 1.399 . S
C542 H528 0.929 . S
C542 C541 1.399 . S
C542 C543 1.385 . S
C543 H529 0.931 . S
C543 C542 1.385 . S
C543 C544 1.389 . S
C544 C543 1.389 . S
C544 C545 1.387 . S
C545 H530 0.930 . S
C545 C540 1.390 . S
C545 C544 1.387 . S
H546 C558 0.930 . S
H547 C560 0.930 . S
H548 C561 0.930 . S
H549 C565 0.959 . S
H550 C565 0.959 . S
H551 C565 0.961 . S
H552 C566 0.960 . S
H553 C566 0.961 . S
H554 C566 0.959 . S
H555 C569 0.929 . S
H556 C570 0.931 . S
H557 C572 0.930 . S
C558 H546 0.930 . S
C558 C559 1.399 . S
C558 C563 1.399 . S
C559 C558 1.399 . S
C559 C560 1.376 . S
C560 H547 0.930 . S
C560 C559 1.376 . S
C560 C561 1.388 . S
C561 H548 0.930 . S
C561 C560 1.388 . S
C561 C562 1.390 . S
C562 C561 1.390 . S
C562 C563 1.394 . S
C562 C568 1.465 . S
C563 C558 1.399 . S
C563 C562 1.394 . S
C563 C564 1.516 . S
C564 C563 1.516 . S
C564 C565 1.502 . S
C564 C566 1.561 . S
C564 C567 1.526 . S
C565 H549 0.959 . S
C565 H550 0.959 . S
C565 H551 0.961 . S
C565 C564 1.502 . S
C566 H552 0.960 . S
C566 H553 0.961 . S
C566 H554 0.959 . S
C566 C564 1.561 . S
C567 C564 1.526 . S
C567 C568 1.396 . S
C567 C572 1.390 . S
C568 C562 1.465 . S
C568 C567 1.396 . S
C568 C569 1.399 . S
C569 H555 0.929 . S
C569 C568 1.399 . S
C569 C570 1.385 . S
C570 H556 0.931 . S
C570 C569 1.385 . S
C570 C571 1.389 . S
C571 C570 1.389 . S
C571 C572 1.387 . S
C572 H557 0.930 . S
C572 C567 1.390 . S
C572 C571 1.387 . S
H573 C585 0.930 . S
H574 C587 0.930 . S
H575 C588 0.930 . S
H576 C592 0.959 . S
H577 C592 0.959 . S
H578 C592 0.961 . S
H579 C593 0.960 . S
H580 C593 0.961 . S
H581 C593 0.959 . S
H582 C596 0.929 . S
H583 C597 0.931 . S
H584 C599 0.930 . S
C585 H573 0.930 . S
C585 C586 1.399 . S
C585 C590 1.399 . S
C586 C585 1.399 . S
C586 C587 1.376 . S
C587 H574 0.930 . S
C587 C586 1.376 . S
C587 C588 1.388 . S
C588 H575 0.930 . S
C588 C587 1.388 . S
C588 C589 1.390 . S
C589 C588 1.390 . S
C589 C590 1.394 . S
C589 C595 1.465 . S
C590 C585 1.399 . S
C590 C589 1.394 . S
C590 C591 1.516 . S
C591 C590 1.516 . S
C591 C592 1.502 . S
C591 C593 1.561 . S
C591 C594 1.526 . S
C592 H576 0.959 . S
C592 H577 0.959 . S
C592 H578 0.961 . S
C592 C591 1.502 . S
C593 H579 0.960 . S
C593 H580 0.961 . S
C593 H581 0.959 . S
C593 C591 1.561 . S
C594 C591 1.526 . S
C594 C595 1.396 . S
C594 C599 1.390 . S
C595 C589 1.465 . S
C595 C594 1.396 . S
C595 C596 1.399 . S
C596 H582 0.929 . S
C596 C595 1.399 . S
C596 C597 1.385 . S
C597 H583 0.931 . S
C597 C596 1.385 . S
C597 C598 1.389 . S
C598 C597 1.389 . S
C598 C599 1.387 . S
C599 H584 0.930 . S
C599 C594 1.390 . S
C599 C598 1.387 . S
H600 C612 0.930 . S
H601 C614 0.930 . S
H602 C615 0.930 . S
H603 C619 0.959 . S
H604 C619 0.959 . S
H605 C619 0.961 . S
H606 C620 0.960 . S
H607 C620 0.961 . S
H608 C620 0.959 . S
H609 C623 0.929 . S
H610 C624 0.931 . S
H611 C626 0.930 . S
C612 H600 0.930 . S
C612 C613 1.399 . S
C612 C617 1.399 . S
C613 C612 1.399 . S
C613 C614 1.376 . S
C614 H601 0.930 . S
C614 C613 1.376 . S
C614 C615 1.388 . S
C615 H602 0.930 . S
C615 C614 1.388 . S
C615 C616 1.390 . S
C616 C615 1.390 . S
C616 C617 1.394 . S
C616 C622 1.465 . S
C617 C612 1.399 . S
C617 C616 1.394 . S
C617 C618 1.516 . S
C618 C617 1.516 . S
C618 C619 1.502 . S
C618 C620 1.561 . S
C618 C621 1.526 . S
C619 H603 0.959 . S
C619 H604 0.959 . S
C619 H605 0.961 . S
C619 C618 1.502 . S
C620 H606 0.960 . S
C620 H607 0.961 . S
C620 H608 0.959 . S
C620 C618 1.561 . S
C621 C618 1.526 . S
C621 C622 1.396 . S
C621 C626 1.390 . S
C622 C616 1.465 . S
C622 C621 1.396 . S
C622 C623 1.399 . S
C623 H609 0.929 . S
C623 C622 1.399 . S
C623 C624 1.385 . S
C624 H610 0.931 . S
C624 C623 1.385 . S
C624 C625 1.389 . S
C625 C624 1.389 . S
C625 C626 1.387 . S
C626 H611 0.930 . S
C626 C621 1.390 . S
C626 C625 1.387 . S
H627 C639 0.930 . S
H628 C641 0.930 . S
H629 C642 0.930 . S
H630 C646 0.959 . S
H631 C646 0.959 . S
H632 C646 0.961 . S
H633 C647 0.960 . S
H634 C647 0.961 . S
H635 C647 0.959 . S
H636 C650 0.929 . S
H637 C651 0.931 . S
H638 C653 0.930 . S
C639 H627 0.930 . S
C639 C640 1.399 . S
C639 C644 1.399 . S
C640 C639 1.399 . S
C640 C641 1.376 . S
C641 H628 0.930 . S
C641 C640 1.376 . S
C641 C642 1.388 . S
C642 H629 0.930 . S
C642 C641 1.388 . S
C642 C643 1.390 . S
C643 C642 1.390 . S
C643 C644 1.394 . S
C643 C649 1.465 . S
C644 C639 1.399 . S
C644 C643 1.394 . S
C644 C645 1.516 . S
C645 C644 1.516 . S
C645 C646 1.502 . S
C645 C647 1.561 . S
C645 C648 1.526 . S
C646 H630 0.959 . S
C646 H631 0.959 . S
C646 H632 0.961 . S
C646 C645 1.502 . S
C647 H633 0.960 . S
C647 H634 0.961 . S
C647 H635 0.959 . S
C647 C645 1.561 . S
C648 C645 1.526 . S
C648 C649 1.396 . S
C648 C653 1.390 . S
C649 C643 1.465 . S
C649 C648 1.396 . S
C649 C650 1.399 . S
C650 H636 0.929 . S
C650 C649 1.399 . S
C650 C651 1.385 . S
C651 H637 0.931 . S
C651 C650 1.385 . S
C651 C652 1.389 . S
C652 C651 1.389 . S
C652 C653 1.387 . S
C653 H638 0.930 . S
C653 C648 1.390 . S
C653 C652 1.387 . S
H654 C666 0.930 . S
H655 C668 0.930 . S
H656 C669 0.930 . S
H657 C673 0.959 . S
H658 C673 0.959 . S
H659 C673 0.961 . S
H660 C674 0.960 . S
H661 C674 0.961 . S
H662 C674 0.959 . S
H663 C677 0.929 . S
H664 C678 0.931 . S
H665 C680 0.930 . S
C666 H654 0.930 . S
C666 C667 1.399 . S
C666 C671 1.399 . S
C667 C666 1.399 . S
C667 C668 1.376 . S
C668 H655 0.930 . S
C668 C667 1.376 . S
C668 C669 1.388 . S
C669 H656 0.930 . S
C669 C668 1.388 . S
C669 C670 1.390 . S
C670 C669 1.390 . S
C670 C671 1.394 . S
C670 C676 1.465 . S
C671 C666 1.399 . S
C671 C670 1.394 . S
C671 C672 1.516 . S
C672 C671 1.516 . S
C672 C673 1.502 . S
C672 C674 1.561 . S
C672 C675 1.526 . S
C673 H657 0.959 . S
C673 H658 0.959 . S
C673 H659 0.961 . S
C673 C672 1.502 . S
C674 H660 0.960 . S
C674 H661 0.961 . S
C674 H662 0.959 . S
C674 C672 1.561 . S
C675 C672 1.526 . S
C675 C676 1.396 . S
C675 C680 1.390 . S
C676 C670 1.465 . S
C676 C675 1.396 . S
C676 C677 1.399 . S
C677 H663 0.929 . S
C677 C676 1.399 . S
C677 C678 1.385 . S
C678 H664 0.931 . S
C678 C677 1.385 . S
C678 C679 1.389 . S
C679 C678 1.389 . S
C679 C680 1.387 . S
C680 H665 0.930 . S
C680 C675 1.390 . S
C680 C679 1.387 . S
H681 C693 0.930 . S
H682 C695 0.930 . S
H683 C696 0.930 . S
H684 C700 0.959 . S
H685 C700 0.959 . S
H686 C700 0.961 . S
H687 C701 0.960 . S
H688 C701 0.961 . S
H689 C701 0.959 . S
H690 C704 0.929 . S
H691 C705 0.931 . S
H692 C707 0.930 . S
C693 H681 0.930 . S
C693 C694 1.399 . S
C693 C698 1.399 . S
C694 C693 1.399 . S
C694 C695 1.376 . S
C695 H682 0.930 . S
C695 C694 1.376 . S
C695 C696 1.388 . S
C696 H683 0.930 . S
C696 C695 1.388 . S
C696 C697 1.390 . S
C697 C696 1.390 . S
C697 C698 1.394 . S
C697 C703 1.465 . S
C698 C693 1.399 . S
C698 C697 1.394 . S
C698 C699 1.516 . S
C699 C698 1.516 . S
C699 C700 1.502 . S
C699 C701 1.561 . S
C699 C702 1.526 . S
C700 H684 0.959 . S
C700 H685 0.959 . S
C700 H686 0.961 . S
C700 C699 1.502 . S
C701 H687 0.960 . S
C701 H688 0.961 . S
C701 H689 0.959 . S
C701 C699 1.561 . S
C702 C699 1.526 . S
C702 C703 1.396 . S
C702 C707 1.390 . S
C703 C697 1.465 . S
C703 C702 1.396 . S
C703 C704 1.399 . S
C704 H690 0.929 . S
C704 C703 1.399 . S
C704 C705 1.385 . S
C705 H691 0.931 . S
C705 C704 1.385 . S
C705 C706 1.389 . S
C706 C705 1.389 . S
C706 C707 1.387 . S
C707 H692 0.930 . S
C707 C702 1.390 . S
C707 C706 1.387 . S
H708 C720 0.930 . S
H709 C722 0.930 . S
H710 C723 0.930 . S
H711 C727 0.959 . S
H712 C727 0.959 . S
H713 C727 0.961 . S
H714 C728 0.960 . S
H715 C728 0.961 . S
H716 C728 0.959 . S
H717 C731 0.929 . S
H718 C732 0.931 . S
H719 C734 0.930 . S
C720 H708 0.930 . S
C720 C721 1.399 . S
C720 C725 1.399 . S
C721 C720 1.399 . S
C721 C722 1.376 . S
C722 H709 0.930 . S
C722 C721 1.376 . S
C722 C723 1.388 . S
C723 H710 0.930 . S
C723 C722 1.388 . S
C723 C724 1.390 . S
C724 C723 1.390 . S
C724 C725 1.394 . S
C724 C730 1.465 . S
C725 C720 1.399 . S
C725 C724 1.394 . S
C725 C726 1.516 . S
C726 C725 1.516 . S
C726 C727 1.502 . S
C726 C728 1.561 . S
C726 C729 1.526 . S
C727 H711 0.959 . S
C727 H712 0.959 . S
C727 H713 0.961 . S
C727 C726 1.502 . S
C728 H714 0.960 . S
C728 H715 0.961 . S
C728 H716 0.959 . S
C728 C726 1.561 . S
C729 C726 1.526 . S
C729 C730 1.396 . S
C729 C734 1.390 . S
C730 C724 1.465 . S
C730 C729 1.396 . S
C730 C731 1.399 . S
C731 H717 0.929 . S
C731 C730 1.399 . S
C731 C732 1.385 . S
C732 H718 0.931 . S
C732 C731 1.385 . S
C732 C733 1.389 . S
C733 C732 1.389 . S
C733 C734 1.387 . S
C734 H719 0.930 . S
C734 C729 1.390 . S
C734 C733 1.387 . S
H735 C747 0.930 . S
H736 C749 0.930 . S
H737 C750 0.930 . S
H738 C754 0.959 . S
H739 C754 0.959 . S
H740 C754 0.961 . S
H741 C755 0.960 . S
H742 C755 0.961 . S
H743 C755 0.959 . S
H744 C758 0.929 . S
H745 C759 0.931 . S
H746 C761 0.930 . S
C747 H735 0.930 . S
C747 C748 1.399 . S
C747 C752 1.399 . S
C748 C747 1.399 . S
C748 C749 1.376 . S
C749 H736 0.930 . S
C749 C748 1.376 . S
C749 C750 1.388 . S
C750 H737 0.930 . S
C750 C749 1.388 . S
C750 C751 1.390 . S
C751 C750 1.390 . S
C751 C752 1.394 . S
C751 C757 1.465 . S
C752 C747 1.399 . S
C752 C751 1.394 . S
C752 C753 1.516 . S
C753 C752 1.516 . S
C753 C754 1.502 . S
C753 C755 1.561 . S
C753 C756 1.526 . S
C754 H738 0.959 . S
C754 H739 0.959 . S
C754 H740 0.961 . S
C754 C753 1.502 . S
C755 H741 0.960 . S
C755 H742 0.961 . S
C755 H743 0.959 . S
C755 C753 1.561 . S
C756 C753 1.526 . S
C756 C757 1.396 . S
C756 C761 1.390 . S
C757 C751 1.465 . S
C757 C756 1.396 . S
C757 C758 1.399 . S
C758 H744 0.929 . S
C758 C757 1.399 . S
C758 C759 1.385 . S
C759 H745 0.931 . S
C759 C758 1.385 . S
C759 C760 1.389 . S
C760 C759 1.389 . S
C760 C761 1.387 . S
C761 H746 0.930 . S
C761 C756 1.390 . S
C761 C760 1.387 . S
H762 C774 0.930 . S
H763 C776 0.930 . S
H764 C777 0.930 . S
H765 C781 0.959 . S
H766 C781 0.959 . S
H767 C781 0.961 . S
H768 C782 0.960 . S
H769 C782 0.961 . S
H770 C782 0.959 . S
H771 C785 0.929 . S
H772 C786 0.931 . S
H773 C788 0.930 . S
C774 H762 0.930 . S
C774 C775 1.399 . S
C774 C779 1.399 . S
C775 C774 1.399 . S
C775 C776 1.376 . S
C776 H763 0.930 . S
C776 C775 1.376 . S
C776 C777 1.388 . S
C777 H764 0.930 . S
C777 C776 1.388 . S
C777 C778 1.390 . S
C778 C777 1.390 . S
C778 C779 1.394 . S
C778 C784 1.465 . S
C779 C774 1.399 . S
C779 C778 1.394 . S
C779 C780 1.516 . S
C780 C779 1.516 . S
C780 C781 1.502 . S
C780 C782 1.561 . S
C780 C783 1.526 . S
C781 H765 0.959 . S
C781 H766 0.959 . S
C781 H767 0.961 . S
C781 C780 1.502 . S
C782 H768 0.960 . S
C782 H769 0.961 . S
C782 H770 0.959 . S
C782 C780 1.561 . S
C783 C780 1.526 . S
C783 C784 1.396 . S
C783 C788 1.390 . S
C784 C778 1.465 . S
C784 C783 1.396 . S
C784 C785 1.399 . S
C785 H771 0.929 . S
C785 C784 1.399 . S
C785 C786 1.385 . S
C786 H772 0.931 . S
C786 C785 1.385 . S
C786 C787 1.389 . S
C787 C786 1.389 . S
C787 C788 1.387 . S
C788 H773 0.930 . S
C788 C783 1.390 . S
C788 C787 1.387 . S
H789 C801 0.930 . S
H790 C803 0.930 . S
H791 C804 0.930 . S
H792 C808 0.959 . S
H793 C808 0.959 . S
H794 C808 0.961 . S
H795 C809 0.960 . S
H796 C809 0.961 . S
H797 C809 0.959 . S
H798 C812 0.929 . S
H799 C813 0.931 . S
H800 C815 0.930 . S
C801 H789 0.930 . S
C801 C802 1.399 . S
C801 C806 1.399 . S
C802 C801 1.399 . S
C802 C803 1.376 . S
C803 H790 0.930 . S
C803 C802 1.376 . S
C803 C804 1.388 . S
C804 H791 0.930 . S
C804 C803 1.388 . S
C804 C805 1.390 . S
C805 C804 1.390 . S
C805 C806 1.394 . S
C805 C811 1.465 . S
C806 C801 1.399 . S
C806 C805 1.394 . S
C806 C807 1.516 . S
C807 C806 1.516 . S
C807 C808 1.502 . S
C807 C809 1.561 . S
C807 C810 1.526 . S
C808 H792 0.959 . S
C808 H793 0.959 . S
C808 H794 0.961 . S
C808 C807 1.502 . S
C809 H795 0.960 . S
C809 H796 0.961 . S
C809 H797 0.959 . S
C809 C807 1.561 . S
C810 C807 1.526 . S
C810 C811 1.396 . S
C810 C815 1.390 . S
C811 C805 1.465 . S
C811 C810 1.396 . S
C811 C812 1.399 . S
C812 H798 0.929 . S
C812 C811 1.399 . S
C812 C813 1.385 . S
C813 H799 0.931 . S
C813 C812 1.385 . S
C813 C814 1.389 . S
C814 C813 1.389 . S
C814 C815 1.387 . S
C815 H800 0.930 . S
C815 C810 1.390 . S
C815 C814 1.387 . S
H816 C828 0.930 . S
H817 C830 0.930 . S
H818 C831 0.930 . S
H819 C835 0.959 . S
H820 C835 0.959 . S
H821 C835 0.961 . S
H822 C836 0.960 . S
H823 C836 0.961 . S
H824 C836 0.959 . S
H825 C839 0.929 . S
H826 C840 0.931 . S
H827 C842 0.930 . S
C828 H816 0.930 . S
C828 C829 1.399 . S
C828 C833 1.399 . S
C829 C828 1.399 . S
C829 C830 1.376 . S
C830 H817 0.930 . S
C830 C829 1.376 . S
C830 C831 1.388 . S
C831 H818 0.930 . S
C831 C830 1.388 . S
C831 C832 1.390 . S
C832 C831 1.390 . S
C832 C833 1.394 . S
C832 C838 1.465 . S
C833 C828 1.399 . S
C833 C832 1.394 . S
C833 C834 1.516 . S
C834 C833 1.516 . S
C834 C835 1.502 . S
C834 C836 1.561 . S
C834 C837 1.526 . S
C835 H819 0.959 . S
C835 H820 0.959 . S
C835 H821 0.961 . S
C835 C834 1.502 . S
C836 H822 0.960 . S
C836 H823 0.961 . S
C836 H824 0.959 . S
C836 C834 1.561 . S
C837 C834 1.526 . S
C837 C838 1.396 . S
C837 C842 1.390 . S
C838 C832 1.465 . S
C838 C837 1.396 . S
C838 C839 1.399 . S
C839 H825 0.929 . S
C839 C838 1.399 . S
C839 C840 1.385 . S
C840 H826 0.931 . S
C840 C839 1.385 . S
C840 C841 1.389 . S
C841 C840 1.389 . S
C841 C842 1.387 . S
C842 H827 0.930 . S
C842 C837 1.390 . S
C842 C841 1.387 . S
H843 C855 0.930 . S
H844 C857 0.930 . S
H845 C858 0.930 . S
H846 C862 0.959 . S
H847 C862 0.959 . S
H848 C862 0.961 . S
H849 C863 0.960 . S
H850 C863 0.961 . S
H851 C863 0.959 . S
H852 C866 0.929 . S
H853 C867 0.931 . S
H854 C869 0.930 . S
C855 H843 0.930 . S
C855 C856 1.399 . S
C855 C860 1.399 . S
C856 C855 1.399 . S
C856 C857 1.376 . S
C857 H844 0.930 . S
C857 C856 1.376 . S
C857 C858 1.388 . S
C858 H845 0.930 . S
C858 C857 1.388 . S
C858 C859 1.390 . S
C859 C858 1.390 . S
C859 C860 1.394 . S
C859 C865 1.465 . S
C860 C855 1.399 . S
C860 C859 1.394 . S
C860 C861 1.516 . S
C861 C860 1.516 . S
C861 C862 1.502 . S
C861 C863 1.561 . S
C861 C864 1.526 . S
C862 H846 0.959 . S
C862 H847 0.959 . S
C862 H848 0.961 . S
C862 C861 1.502 . S
C863 H849 0.960 . S
C863 H850 0.961 . S
C863 H851 0.959 . S
C863 C861 1.561 . S
C864 C861 1.526 . S
C864 C865 1.396 . S
C864 C869 1.390 . S
C865 C859 1.465 . S
C865 C864 1.396 . S
C865 C866 1.399 . S
C866 H852 0.929 . S
C866 C865 1.399 . S
C866 C867 1.385 . S
C867 H853 0.931 . S
C867 C866 1.385 . S
C867 C868 1.389 . S
C868 C867 1.389 . S
C868 C869 1.387 . S
C869 H854 0.930 . S
C869 C864 1.390 . S
C869 C868 1.387 . S
H870 C882 0.930 . S
H871 C884 0.930 . S
H872 C885 0.930 . S
H873 C889 0.959 . S
H874 C889 0.959 . S
H875 C889 0.961 . S
H876 C890 0.960 . S
H877 C890 0.961 . S
H878 C890 0.959 . S
H879 C893 0.929 . S
H880 C894 0.931 . S
H881 C896 0.930 . S
C882 H870 0.930 . S
C882 C883 1.399 . S
C882 C887 1.399 . S
C883 C882 1.399 . S
C883 C884 1.376 . S
C884 H871 0.930 . S
C884 C883 1.376 . S
C884 C885 1.388 . S
C885 H872 0.930 . S
C885 C884 1.388 . S
C885 C886 1.390 . S
C886 C885 1.390 . S
C886 C887 1.394 . S
C886 C892 1.465 . S
C887 C882 1.399 . S
C887 C886 1.394 . S
C887 C888 1.516 . S
C888 C887 1.516 . S
C888 C889 1.502 . S
C888 C890 1.561 . S
C888 C891 1.526 . S
C889 H873 0.959 . S
C889 H874 0.959 . S
C889 H875 0.961 . S
C889 C888 1.502 . S
C890 H876 0.960 . S
C890 H877 0.961 . S
C890 H878 0.959 . S
C890 C888 1.561 . S
C891 C888 1.526 . S
C891 C892 1.396 . S
C891 C896 1.390 . S
C892 C886 1.465 . S
C892 C891 1.396 . S
C892 C893 1.399 . S
C893 H879 0.929 . S
C893 C892 1.399 . S
C893 C894 1.385 . S
C894 H880 0.931 . S
C894 C893 1.385 . S
C894 C895 1.389 . S
C895 C894 1.389 . S
C895 C896 1.387 . S
C896 H881 0.930 . S
C896 C891 1.390 . S
C896 C895 1.387 . S
H897 C909 0.930 . S
H898 C911 0.930 . S
H899 C912 0.930 . S
H900 C916 0.959 . S
H901 C916 0.959 . S
H902 C916 0.961 . S
H903 C917 0.960 . S
H904 C917 0.961 . S
H905 C917 0.959 . S
H906 C920 0.929 . S
H907 C921 0.931 . S
H908 C923 0.930 . S
C909 H897 0.930 . S
C909 C910 1.399 . S
C909 C914 1.399 . S
C910 C909 1.399 . S
C910 C911 1.376 . S
C911 H898 0.930 . S
C911 C910 1.376 . S
C911 C912 1.388 . S
C912 H899 0.930 . S
C912 C911 1.388 . S
C912 C913 1.390 . S
C913 C912 1.390 . S
C913 C914 1.394 . S
C913 C919 1.465 . S
C914 C909 1.399 . S
C914 C913 1.394 . S
C914 C915 1.516 . S
C915 C914 1.516 . S
C915 C916 1.502 . S
C915 C917 1.561 . S
C915 C918 1.526 . S
C916 H900 0.959 . S
C916 H901 0.959 . S
C916 H902 0.961 . S
C916 C915 1.502 . S
C917 H903 0.960 . S
C917 H904 0.961 . S
C917 H905 0.959 . S
C917 C915 1.561 . S
C918 C915 1.526 . S
C918 C919 1.396 . S
C918 C923 1.390 . S
C919 C913 1.465 . S
C919 C918 1.396 . S
C919 C920 1.399 . S
C920 H906 0.929 . S
C920 C919 1.399 . S
C920 C921 1.385 . S
C921 H907 0.931 . S
C921 C920 1.385 . S
C921 C922 1.389 . S
C922 C921 1.389 . S
C922 C923 1.387 . S
C923 H908 0.930 . S
C923 C918 1.390 . S
C923 C922 1.387 . S
H924 C936 0.930 . S
H925 C938 0.930 . S
H926 C939 0.930 . S
H927 C943 0.959 . S
H928 C943 0.959 . S
H929 C943 0.961 . S
H930 C944 0.960 . S
H931 C944 0.961 . S
H932 C944 0.959 . S
H933 C947 0.929 . S
H934 C948 0.931 . S
H935 C950 0.930 . S
C936 H924 0.930 . S
C936 C937 1.399 . S
C936 C941 1.399 . S
C937 C936 1.399 . S
C937 C938 1.376 . S
C938 H925 0.930 . S
C938 C937 1.376 . S
C938 C939 1.388 . S
C939 H926 0.930 . S
C939 C938 1.388 . S
C939 C940 1.390 . S
C940 C939 1.390 . S
C940 C941 1.394 . S
C940 C946 1.465 . S
C941 C936 1.399 . S
C941 C940 1.394 . S
C941 C942 1.516 . S
C942 C941 1.516 . S
C942 C943 1.502 . S
C942 C944 1.561 . S
C942 C945 1.526 . S
C943 H927 0.959 . S
C943 H928 0.959 . S
C943 H929 0.961 . S
C943 C942 1.502 . S
C944 H930 0.960 . S
C944 H931 0.961 . S
C944 H932 0.959 . S
C944 C942 1.561 . S
C945 C942 1.526 . S
C945 C946 1.396 . S
C945 C950 1.390 . S
C946 C940 1.465 . S
C946 C945 1.396 . S
C946 C947 1.399 . S
C947 H933 0.929 . S
C947 C946 1.399 . S
C947 C948 1.385 . S
C948 H934 0.931 . S
C948 C947 1.385 . S
C948 C949 1.389 . S
C949 C948 1.389 . S
C949 C950 1.387 . S
C950 H935 0.930 . S
C950 C945 1.390 . S
C950 C949 1.387 . S
H951 C963 0.930 . S
H952 C965 0.930 . S
H953 C966 0.930 . S
H954 C970 0.959 . S
H955 C970 0.959 . S
H956 C970 0.961 . S
H957 C971 0.960 . S
H958 C971 0.961 . S
H959 C971 0.959 . S
H960 C974 0.929 . S
H961 C975 0.931 . S
H962 C977 0.930 . S
C963 H951 0.930 . S
C963 C964 1.399 . S
C963 C968 1.399 . S
C964 C963 1.399 . S
C964 C965 1.376 . S
C965 H952 0.930 . S
C965 C964 1.376 . S
C965 C966 1.388 . S
C966 H953 0.930 . S
C966 C965 1.388 . S
C966 C967 1.390 . S
C967 C966 1.390 . S
C967 C968 1.394 . S
C967 C973 1.465 . S
C968 C963 1.399 . S
C968 C967 1.394 . S
C968 C969 1.516 . S
C969 C968 1.516 . S
C969 C970 1.502 . S
C969 C971 1.561 . S
C969 C972 1.526 . S
C970 H954 0.959 . S
C970 H955 0.959 . S
C970 H956 0.961 . S
C970 C969 1.502 . S
C971 H957 0.960 . S
C971 H958 0.961 . S
C971 H959 0.959 . S
C971 C969 1.561 . S
C972 C969 1.526 . S
C972 C973 1.396 . S
C972 C977 1.390 . S
C973 C967 1.465 . S
C973 C972 1.396 . S
C973 C974 1.399 . S
C974 H960 0.929 . S
C974 C973 1.399 . S
C974 C975 1.385 . S
C975 H961 0.931 . S
C975 C974 1.385 . S
C975 C976 1.389 . S
C976 C975 1.389 . S
C976 C977 1.387 . S
C977 H962 0.930 . S
C977 C972 1.390 . S
C977 C976 1.387 . S
H978 C990 0.930 . S
H979 C992 0.930 . S
H980 C993 0.930 . S
H981 C997 0.959 . S
H982 C997 0.959 . S
H983 C997 0.961 . S
H984 C998 0.960 . S
H985 C998 0.961 . S
H986 C998 0.959 . S
H987 C1001 0.929 . S
H988 C1002 0.931 . S
H989 C1004 0.930 . S
C990 H978 0.930 . S
C990 C991 1.399 . S
C990 C995 1.399 . S
C991 C990 1.399 . S
C991 C992 1.376 . S
C992 H979 0.930 . S
C992 C991 1.376 . S
C992 C993 1.388 . S
C993 H980 0.930 . S
C993 C992 1.388 . S
C993 C994 1.390 . S
C994 C993 1.390 . S
C994 C995 1.394 . S
C994 C1000 1.465 . S
C995 C990 1.399 . S
C995 C994 1.394 . S
C995 C996 1.516 . S
C996 C995 1.516 . S
C996 C997 1.502 . S
C996 C998 1.561 . S
C996 C999 1.526 . S
C997 H981 0.959 . S
C997 H982 0.959 . S
C997 H983 0.961 . S
C997 C996 1.502 . S
C998 H984 0.960 . S
C998 H985 0.961 . S
C998 H986 0.959 . S
C998 C996 1.561 . S
C999 C996 1.526 . S
C999 C1000 1.396 . S
C999 C1004 1.390 . S
C1000 C994 1.465 . S
C1000 C999 1.396 . S
C1000 C1001 1.399 . S
C1001 H987 0.929 . S
C1001 C1000 1.399 . S
C1001 C1002 1.385 . S
C1002 H988 0.931 . S
C1002 C1001 1.385 . S
C1002 C1003 1.389 . S
C1003 C1002 1.389 . S
C1003 C1004 1.387 . S
C1004 H989 0.930 . S
C1004 C999 1.390 . S
C1004 C1003 1.387 . S
H1005 C1017 0.930 . S
H1006 C1019 0.930 . S
H1007 C1020 0.930 . S
H1008 C1024 0.959 . S
H1009 C1024 0.959 . S
H1010 C1024 0.961 . S
H1011 C1025 0.960 . S
H1012 C1025 0.961 . S
H1013 C1025 0.959 . S
H1014 C1028 0.929 . S
H1015 C1029 0.931 . S
H1016 C1031 0.930 . S
C1017 H1005 0.930 . S
C1017 C1018 1.399 . S
C1017 C1022 1.399 . S
C1018 C1017 1.399 . S
C1018 C1019 1.376 . S
C1019 H1006 0.930 . S
C1019 C1018 1.376 . S
C1019 C1020 1.388 . S
C1020 H1007 0.930 . S
C1020 C1019 1.388 . S
C1020 C1021 1.390 . S
C1021 C1020 1.390 . S
C1021 C1022 1.394 . S
C1021 C1027 1.465 . S
C1022 C1017 1.399 . S
C1022 C1021 1.394 . S
C1022 C1023 1.516 . S
C1023 C1022 1.516 . S
C1023 C1024 1.502 . S
C1023 C1025 1.561 . S
C1023 C1026 1.526 . S
C1024 H1008 0.959 . S
C1024 H1009 0.959 . S
C1024 H1010 0.961 . S
C1024 C1023 1.502 . S
C1025 H1011 0.960 . S
C1025 H1012 0.961 . S
C1025 H1013 0.959 . S
C1025 C1023 1.561 . S
C1026 C1023 1.526 . S
C1026 C1027 1.396 . S
C1026 C1031 1.390 . S
C1027 C1021 1.465 . S
C1027 C1026 1.396 . S
C1027 C1028 1.399 . S
C1028 H1014 0.929 . S
C1028 C1027 1.399 . S
C1028 C1029 1.385 . S
C1029 H1015 0.931 . S
C1029 C1028 1.385 . S
C1029 C1030 1.389 . S
C1030 C1029 1.389 . S
C1030 C1031 1.387 . S
C1031 H1016 0.930 . S
C1031 C1026 1.390 . S
C1031 C1030 1.387 . S
H1032 C1044 0.930 . S
H1033 C1046 0.930 . S
H1034 C1047 0.930 . S
H1035 C1051 0.959 . S
H1036 C1051 0.959 . S
H1037 C1051 0.961 . S
H1038 C1052 0.960 . S
H1039 C1052 0.961 . S
H1040 C1052 0.959 . S
H1041 C1055 0.929 . S
H1042 C1056 0.931 . S
H1043 C1058 0.930 . S
C1044 H1032 0.930 . S
C1044 C1045 1.399 . S
C1044 C1049 1.399 . S
C1045 C1044 1.399 . S
C1045 C1046 1.376 . S
C1046 H1033 0.930 . S
C1046 C1045 1.376 . S
C1046 C1047 1.388 . S
C1047 H1034 0.930 . S
C1047 C1046 1.388 . S
C1047 C1048 1.390 . S
C1048 C1047 1.390 . S
C1048 C1049 1.394 . S
C1048 C1054 1.465 . S
C1049 C1044 1.399 . S
C1049 C1048 1.394 . S
C1049 C1050 1.516 . S
C1050 C1049 1.516 . S
C1050 C1051 1.502 . S
C1050 C1052 1.561 . S
C1050 C1053 1.526 . S
C1051 H1035 0.959 . S
C1051 H1036 0.959 . S
C1051 H1037 0.961 . S
C1051 C1050 1.502 . S
C1052 H1038 0.960 . S
C1052 H1039 0.961 . S
C1052 H1040 0.959 . S
C1052 C1050 1.561 . S
C1053 C1050 1.526 . S
C1053 C1054 1.396 . S
C1053 C1058 1.390 . S
C1054 C1048 1.465 . S
C1054 C1053 1.396 . S
C1054 C1055 1.399 . S
C1055 H1041 0.929 . S
C1055 C1054 1.399 . S
C1055 C1056 1.385 . S
C1056 H1042 0.931 . S
C1056 C1055 1.385 . S
C1056 C1057 1.389 . S
C1057 C1056 1.389 . S
C1057 C1058 1.387 . S
C1058 H1043 0.930 . S
C1058 C1053 1.390 . S
C1058 C1057 1.387 . S
C436 C336 1.133 . S
C424 C16 1.137 . S
C463 C372 1.703 . S
C451 C55 1.785 . S
C490 C337 1.388 . S
C478 C99 1.366 . S
C517 C367 1.496 . S
C505 C133 1.547 . S
C544 C334 1.461 . S
C532 C157 1.537 . S
C559 C211 1.686 . S
C571 C370 1.688 . S
C586 C255 1.174 . S
C598 C339 1.152 . S
C625 C369 1.480 . S
C613 C294 1.483 . S
C652 C373 1.429 . S
C640 C21 1.474 . S
C679 C338 1.526 . S
C667 C40 1.527 . S
C706 C366 1.702 . S
C694 C94 1.704 . S
C733 C335 1.009 . S
C721 C138 1.174 . S
C760 C368 1.644 . S
C748 C172 1.783 . S
C775 C216 1.405 . S
C787 C333 1.378 . S
C802 C235 1.536 . S
C814 C371 1.497 . S
C841 C340 1.110 . S
C829 C289 1.118 . S
C868 C402 1.687 . S
C856 C1 1.770 . S
C883 C177 2.015 . S
C895 C405 1.865 . S
C922 C404 1.676 . S
C910 C196 1.716 . S
C937 C250 2.059 . S
C949 C403 2.033 . S
C976 C406 1.660 . S
C964 C274 1.785 . S
C991 C79 1.729 . S
C1003 C400 1.718 . S
C1030 C399 2.049 . S
C1018 C118 2.079 . S
C1045 C60 2.030 . S
C1057 C401 1.916 . S
