# Generated by pormake.
# Topology pth, (4,4)-cn, num edge types: 1
# Building blocks:
#     Node 0, Type 0, BuildingBlock: QUQFOY_clean_sbu_3, # of connection points: 4
#     Node 1, Type 0, BuildingBlock: QUQFOY_clean_sbu_3, # of connection points: 4
#     Node 2, Type 0, BuildingBlock: QUQFOY_clean_sbu_3, # of connection points: 4
#     Node 3, Type 1, BuildingBlock: AZAVOO_clean_linker_0, # of connection points: 4
#     Node 4, Type 1, BuildingBlock: AZAVOO_clean_linker_0, # of connection points: 4
#     Node 5, Type 1, BuildingBlock: AZAVOO_clean_linker_0, # of connection points: 4
#     Edge 6, Type (0, 1), BuildingBlock: XUDNAN_clean_linker_2, # of connection points: 2
#     Edge 7, Type (0, 1), BuildingBlock: XUDNAN_clean_linker_2, # of connection points: 2
#     Edge 8, Type (0, 1), BuildingBlock: XUDNAN_clean_linker_2, # of connection points: 2
#     Edge 9, Type (0, 1), BuildingBlock: XUDNAN_clean_linker_2, # of connection points: 2
#     Edge 10, Type (0, 1), BuildingBlock: XUDNAN_clean_linker_2, # of connection points: 2
#     Edge 11, Type (0, 1), BuildingBlock: XUDNAN_clean_linker_2, # of connection points: 2
#     Edge 12, Type (0, 1), BuildingBlock: XUDNAN_clean_linker_2, # of connection points: 2
#     Edge 13, Type (0, 1), BuildingBlock: XUDNAN_clean_linker_2, # of connection points: 2
#     Edge 14, Type (0, 1), BuildingBlock: XUDNAN_clean_linker_2, # of connection points: 2
#     Edge 15, Type (0, 1), BuildingBlock: XUDNAN_clean_linker_2, # of connection points: 2
#     Edge 16, Type (0, 1), BuildingBlock: XUDNAN_clean_linker_2, # of connection points: 2
#     Edge 17, Type (0, 1), BuildingBlock: XUDNAN_clean_linker_2, # of connection points: 2
# Relax obj value: 0.108
# Max RMSD: 0.224
# Mean RMSD: 0.148
data_MOF--net-pth--node1-QUQFOY_clean_sbu_3--node2-AZAVOO_clean_linker_0--edge1-XUDNAN_clean_linker_2
_symmetry_space_group_name_H-M    P1
_symmetry_Int_Tables_number       1
_symmetry_cell_setting            triclinic
loop_
_symmetry_equiv_pos_as_xyz
'x, y, z'
_cell_length_a     26.375195
_cell_length_b     26.457256
_cell_length_c     72.758575
_cell_angle_alpha  92.528445
_cell_angle_beta   89.502307
_cell_angle_gamma 120.91497
loop_
_atom_site_label
_atom_site_type_symbol
_atom_site_fract_x
_atom_site_fract_y
_atom_site_fract_z
_atom_type_partial_charge
C0 C 0.05905 0.18985 0.11446 0.0
O1 O 0.03774 0.20467 0.10162 0.0
Cd2 Cd 0.00922 0.15608 0.07159 0.0
O3 O 0.06785 0.14702 0.11222 0.0
Cd4 Cd 0.05662 0.07452 0.08758 0.0
C5 C 0.1448 0.18004 0.0582 0.0
O6 O 0.96077 0.05213 0.0752 0.0
O7 O 0.00445 0.01223 0.06081 0.0
O8 O 0.02943 0.00282 0.11105 0.0
C9 C 0.96022 0.0188 0.062 0.0
O10 O 0.10252 0.18959 0.05634 0.0
C11 C 0.06892 0.99044 0.10708 0.0
O12 O 0.14137 0.14267 0.06937 0.0
O13 O 0.10322 0.01767 0.09404 0.0
C14 C 0.15742 0.12002 0.42603 0.0
O15 O 0.17237 0.14489 0.41078 0.0
Cd16 Cd 0.10033 0.14589 0.39135 0.0
O17 O 0.10438 0.09728 0.43149 0.0
Cd18 Cd 0.00768 0.0838 0.42265 0.0
C19 C 0.00132 -0.0038 0.38661 0.0
O20 O 0.05033 0.1814 0.4111 0.0
O21 O 0.95794 0.12281 0.40435 0.0
O22 O 0.00284 0.10082 0.45555 0.0
C23 C 0.00291 0.17444 0.40441 0.0
O24 O 0.04069 0.04328 0.37941 0.0
C25 C 0.9491 0.06077 0.45707 0.0
O26 O 0.98257 -0.00199 0.40264 0.0
O27 O 0.92201 0.0314 0.44246 0.0
C28 C 0.95574 0.13149 0.72694 0.0
O29 O 0.96391 0.17599 0.73676 0.0
Cd30 Cd 0.03324 0.21523 0.76227 0.0
O31 O 0.98569 0.10734 0.73003 0.0
Cd32 Cd 0.06401 0.11957 0.7511 0.0
C33 C 0.97425 0.09166 0.78734 0.0
O34 O 0.12674 0.22786 0.75303 0.0
O35 O 0.14417 0.17939 0.77266 0.0
O36 O 0.10628 0.10024 0.7241 0.0
C37 C 0.15996 0.22824 0.76563 0.0
O38 O 0.98638 0.14462 0.78623 0.0
C39 C 0.11397 0.06131 0.73091 0.0
O40 O 0.99336 0.06888 0.77545 0.0
O41 O 0.09643 0.04743 0.74725 0.0
H42 H 0.04612 0.39297 0.1462 0.0
H43 H 0.02415 0.89814 0.26869 0.0
H44 H 0.93954 0.39463 0.23754 0.0
H45 H 0.96881 0.33108 0.22164 0.0
H46 H 0.14811 0.44526 0.24185 0.0
H47 H 0.11863 0.51025 0.25693 0.0
H48 H 0.94662 0.46625 0.20667 0.0
H49 H 0.97134 0.42903 0.17867 0.0
H50 H 0.15665 0.53383 0.19388 0.0
H51 H 0.13116 0.56994 0.22193 0.0
H52 H 0.93086 0.5888 0.21367 0.0
H53 H 0.94857 0.6522 0.18787 0.0
H54 H 0.13697 0.72956 0.19565 0.0
H55 H 0.11865 0.66565 0.22125 0.0
H56 H 0.89755 0.6075 0.25222 0.0
H57 H 0.88826 0.69453 0.25732 0.0
H58 H 0.07862 0.80473 0.26155 0.0
H59 H 0.08711 0.71728 0.25649 0.0
H60 H 0.888 0.54362 0.28371 0.0
H61 H 0.87342 0.59995 0.30875 0.0
H62 H 0.06263 0.70769 0.3169 0.0
H63 H 0.07667 0.65154 0.29182 0.0
H64 H 0.90624 0.43767 0.28401 0.0
H65 H 0.90532 0.3902 0.31236 0.0
H66 H 0.09611 0.49687 0.31557 0.0
H67 H 0.09613 0.54495 0.28768 0.0
O68 O 0.03738 0.40993 0.15694 0.0
O69 O 0.13241 0.47318 0.1634 0.0
O70 O 0.92888 0.80457 0.26411 0.0
O71 O 0.02654 0.8632 0.26623 0.0
C72 C 0.01595 0.50668 0.24993 0.0
C73 C 0.02145 0.53824 0.23409 0.0
C74 C 0.01315 0.58673 0.23534 0.0
C75 C -0.00165 0.60317 0.25229 0.0
C76 C 0.9929 0.57169 0.2681 0.0
C77 C 0.00221 0.52377 0.26697 0.0
C78 C 0.02706 0.45727 0.24819 0.0
C79 C 0.98443 0.4042 0.23934 0.0
C80 C 0.00144 0.36789 0.2302 0.0
C81 C 0.06129 0.38399 0.23004 0.0
C82 C 0.10198 0.43248 0.24134 0.0
C83 C 0.08504 0.46921 0.25024 0.0
C84 C 0.03712 0.5208 0.21624 0.0
C85 C 0.99254 0.48158 0.20379 0.0
C86 C 0.00678 0.46018 0.18788 0.0
C87 C 0.06596 0.47825 0.18409 0.0
C88 C 0.11065 0.51901 0.19639 0.0
C89 C 0.09628 0.53988 0.21237 0.0
C90 C 0.02349 0.62261 0.21918 0.0
C91 C 0.97584 0.61916 0.20965 0.0
C92 C 0.98608 0.65552 0.19502 0.0
C93 C 0.04419 0.69585 0.18974 0.0
C94 C 0.09174 0.69836 0.1992 0.0
C95 C 0.08142 0.6621 0.21384 0.0
C96 C 0.99295 0.65631 0.25394 0.0
C97 C 0.93712 0.65058 0.2541 0.0
C98 C 0.93199 0.7003 0.25707 0.0
C99 C 0.98274 0.75661 0.25991 0.0
C100 C 0.03868 0.76209 0.25943 0.0
C101 C 0.0437 0.71231 0.25647 0.0
C102 C 0.98334 0.59369 0.28604 0.0
C103 C 0.92607 0.57803 0.29138 0.0
C104 C 0.91787 0.61029 0.3056 0.0
C105 C 0.96697 0.65867 0.31453 0.0
C106 C 0.0241 0.67112 0.31004 0.0
C107 C 0.0322 0.63879 0.29591 0.0
C108 C 0.00129 0.49417 0.2838 0.0
C109 C 0.94766 0.45056 0.29091 0.0
C110 C 0.9473 0.42349 0.30703 0.0
C111 C 0.00063 0.4399 0.31626 0.0
C112 C 0.05419 0.48387 0.309 0.0
C113 C 0.05444 0.5109 0.29296 0.0
C114 C 0.08081 0.45391 0.16752 0.0
C115 C 0.97751 0.80939 0.26351 0.0
H116 H 0.58218 0.97649 0.46542 0.0
H117 H 0.21739 0.11619 0.60524 0.0
H118 H 0.53471 0.91207 0.56285 0.0
H119 H 0.61912 0.90941 0.54973 0.0
H120 H 0.73552 0.08889 0.57035 0.0
H121 H 0.65104 0.09056 0.58365 0.0
H122 H 0.45573 0.93418 0.53485 0.0
H123 H 0.49381 0.93651 0.50387 0.0
H124 H 0.64683 0.10768 0.51778 0.0
H125 H 0.60792 0.10499 0.5486 0.0
H126 H 0.35103 0.95466 0.54953 0.0
H127 H 0.31039 0.97717 0.52303 0.0
H128 H 0.46829 0.14982 0.52194 0.0
H129 H 0.50853 0.12669 0.54829 0.0
H130 H 0.32637 0.93854 0.59372 0.0
H131 H 0.24378 0.95233 0.60169 0.0
H132 H 0.35171 0.1372 0.59043 0.0
H133 H 0.43412 0.12289 0.58269 0.0
H134 H 0.40541 0.91905 0.62007 0.0
H135 H 0.34929 0.91374 0.64776 0.0
H136 H 0.42117 0.10178 0.64745 0.0
H137 H 0.47688 0.10663 0.61986 0.0
H138 H 0.52426 0.91645 0.60787 0.0
H139 H 0.59338 0.92121 0.63115 0.0
H140 H 0.65916 0.10743 0.64105 0.0
H141 H 0.58855 0.10136 0.61838 0.0
O142 O 0.5675 0.97675 0.47763 0.0
O143 O 0.6432 0.06641 0.48508 0.0
O144 O 0.19427 0.01331 0.60644 0.0
O145 O 0.24896 0.10931 0.60183 0.0
C146 C 0.53522 0.00801 0.5778 0.0
C147 C 0.50698 0.0168 0.56292 0.0
C148 C 0.45874 0.02482 0.56614 0.0
C149 C 0.43739 0.02202 0.58413 0.0
C150 C 0.46631 0.01409 0.59905 0.0
C151 C 0.51589 0.00823 0.59592 0.0
C152 C 0.58694 0.00154 0.57411 0.0
C153 C 0.57877 0.94999 0.56505 0.0
C154 C 0.6269 0.94878 0.55745 0.0
C155 C 0.68384 -0.00077 0.55877 0.0
C156 C 0.69237 0.04912 0.56921 0.0
C157 C 0.64418 0.05023 0.57684 0.0
C158 C 0.52922 0.01926 0.54395 0.0
C159 C 0.49729 0.97222 0.53112 0.0
C160 C 0.51925 0.97362 0.51347 0.0
C161 C 0.57346 0.02222 0.50837 0.0
C162 C 0.60499 0.06956 0.52126 0.0
C163 C 0.58295 0.06811 0.53887 0.0
C164 C 0.43268 0.03899 0.55071 0.0
C165 C 0.37651 -0.00261 0.54359 0.0
C166 C 0.35343 0.0104 0.52853 0.0
C167 C 0.38636 0.06517 0.52036 0.0
C168 C 0.44234 0.10694 0.52774 0.0
C169 C 0.46522 0.09397 0.54282 0.0
C170 C 0.38606 0.02965 0.58757 0.0
C171 C 0.3319 0.98187 0.59287 0.0
C172 C 0.28487 0.9899 0.59744 0.0
C173 C 0.29119 0.04593 0.59673 0.0
C174 C 0.34535 0.09352 0.59114 0.0
C175 C 0.39238 0.08542 0.5866 0.0
C176 C 0.4446 0.01312 0.61793 0.0
C177 C 0.4104 0.95927 0.62636 0.0
C178 C 0.37838 0.9563 0.64212 0.0
C179 C 0.3802 0.00719 0.64951 0.0
C180 C 0.41827 0.06176 0.64183 0.0
C181 C 0.45038 0.0647 0.62619 0.0
C182 C 0.55141 0.0085 0.61156 0.0
C183 C 0.55283 0.95782 0.61541 0.0
C184 C 0.59272 0.96086 0.62856 0.0
C185 C 0.63221 0.01482 0.63791 0.0
C186 C 0.62891 0.06495 0.63439 0.0
C187 C 0.58871 0.06169 0.62139 0.0
C188 C 0.59697 0.02337 0.48968 0.0
C189 C 0.24176 0.05494 0.60195 0.0
H190 H 0.56457 0.66166 0.03652 0.0
H191 H 0.33842 0.22372 0.87176 0.0
H192 H 0.55907 0.72124 0.94203 0.0
H193 H 0.62077 0.80532 0.96301 0.0
H194 H 0.77626 0.80775 0.94238 0.0
H195 H 0.71358 0.72148 0.92215 0.0
H196 H 0.48502 0.60095 0.95964 0.0
H197 H 0.50135 0.6222 0.99285 0.0
H198 H 0.68051 0.65938 0.98694 0.0
H199 H 0.66318 0.6368 0.95382 0.0
H200 H 0.40704 0.48981 0.93162 0.0
H201 H 0.35149 0.41519 0.9539 0.0
H202 H 0.51312 0.42752 0.97233 0.0
H203 H 0.56786 0.49988 0.94914 0.0
H204 H 0.40931 0.50159 0.89105 0.0
H205 H 0.33919 0.40255 0.87824 0.0
H206 H 0.45938 0.34493 0.89305 0.0
H207 H 0.52936 0.44435 0.90566 0.0
H208 H 0.48766 0.62449 0.87535 0.0
H209 H 0.44459 0.58679 0.84465 0.0
H210 H 0.53615 0.49038 0.84011 0.0
H211 H 0.57827 0.52769 0.87104 0.0
H212 H 0.57447 0.73937 0.89725 0.0
H213 H 0.63788 0.82412 0.87881 0.0
H214 H 0.74312 0.7462 0.86419 0.0
H215 H 0.67829 0.66109 0.88216 0.0
O216 O 0.55876 0.65254 0.02341 0.0
O217 O 0.65097 0.67272 0.01953 0.0
O218 O 0.30154 0.29274 0.87211 0.0
O219 O 0.36569 0.26342 0.8765 0.0
C220 C 0.59351 0.65475 0.92242 0.0
C221 C 0.56376 0.60684 0.93405 0.0
C222 C 0.52532 0.54953 0.92642 0.0
C223 C 0.51663 0.54013 0.90717 0.0
C224 C 0.54757 0.58794 0.89553 0.0
C225 C 0.58654 0.64507 0.90316 0.0
C226 C 0.63186 0.71485 0.93081 0.0
C227 C 0.60663 0.74105 0.94171 0.0
C228 C 0.64205 0.78928 0.95363 0.0
C229 C 0.70337 0.8125 0.95464 0.0
C230 C 0.72898 0.7899 0.94225 0.0
C231 C 0.69341 0.74113 0.9305 0.0
C232 C 0.57285 0.6172 0.95434 0.0
C233 C 0.52752 0.61304 0.96558 0.0
C234 C 0.53708 0.62549 0.98453 0.0
C235 C 0.59229 0.64263 0.99255 0.0
C236 C 0.63748 0.64632 0.98122 0.0
C237 C 0.62772 0.63348 0.9623 0.0
C238 C 0.49141 0.50021 0.93877 0.0
C239 C 0.43021 0.47538 0.94017 0.0
C240 C 0.39873 0.43334 0.9531 0.0
C241 C 0.42804 0.41609 0.96512 0.0
C242 C 0.48915 0.43955 0.96323 0.0
C243 C 0.52054 0.48112 0.95008 0.0
C244 C 0.47443 0.48011 0.89922 0.0
C245 C 0.42055 0.46759 0.8914 0.0
C246 C 0.3805 0.41095 0.88417 0.0
C247 C 0.39362 0.36577 0.88469 0.0
C248 C 0.4479 0.37868 0.89243 0.0
C249 C 0.48789 0.43536 0.89967 0.0
C250 C 0.5354 0.57817 0.87545 0.0
C251 C 0.50008 0.59695 0.86745 0.0
C252 C 0.47561 0.57543 0.84987 0.0
C253 C 0.48629 0.53489 0.84007 0.0
C254 C 0.52639 0.5208 0.84747 0.0
C255 C 0.55073 0.54226 0.86506 0.0
C256 C 0.62196 0.69433 0.891 0.0
C257 C 0.6109 0.74055 0.88988 0.0
C258 C 0.64744 0.78902 0.87946 0.0
C259 C 0.69588 0.79218 0.87011 0.0
C260 C 0.70582 0.74493 0.87099 0.0
C261 C 0.66903 0.69637 0.8813 0.0
C262 C 0.60266 0.65687 0.01263 0.0
C263 C 0.35074 0.30524 0.87736 0.0
H264 H 0.00494 0.15554 0.14738 0.0
H265 H 0.14961 0.30183 0.12042 0.0
H266 H 0.17659 0.3623 0.14962 0.0
H267 H 0.95976 0.24139 0.17185 0.0
H268 H 0.93789 0.19881 0.19215 0.0
H269 H 0.9365 0.16421 0.17019 0.0
H270 H 0.00477 0.13042 0.18342 0.0
H271 H 0.00672 0.16552 0.20543 0.0
H272 H 0.07468 0.18441 0.19396 0.0
H273 H 0.1827 0.40868 0.18047 0.0
H274 H 0.15984 0.44368 0.20932 0.0
H275 H 0.00845 0.26848 0.21654 0.0
C276 C 0.04307 0.19988 0.14787 0.0
C277 C 0.07606 0.22426 0.13196 0.0
C278 C 0.12449 0.28275 0.13267 0.0
C279 C 0.14028 0.31704 0.14917 0.0
C280 C 0.10675 0.29205 0.1647 0.0
C281 C 0.05869 0.23506 0.16416 0.0
C282 C 0.02543 0.22158 0.18208 0.0
C283 C 0.96111 0.20559 0.17887 0.0
C284 C 0.02808 0.17257 0.1918 0.0
C285 C 0.06118 0.28045 0.19254 0.0
C286 C 0.1088 0.31984 0.18244 0.0
C287 C 0.14608 0.37806 0.18864 0.0
C288 C 0.13291 0.39739 0.2052 0.0
C289 C 0.08242 0.35878 0.21534 0.0
C290 C 0.04743 0.29901 0.20917 0.0
H291 H 0.83036 -0.00362 0.46348 0.0
H292 H 0.00108 0.1014 0.49107 0.0
H293 H 0.95149 0.08726 0.52096 0.0
H294 H 0.75826 0.05455 0.48958 0.0
H295 H 0.68852 0.98598 0.48992 0.0
H296 H 0.73805 -0.0007 0.47118 0.0
H297 H 0.73581 0.90238 0.47758 0.0
H298 H 0.68684 0.88975 0.49654 0.0
H299 H 0.75554 0.89209 0.50019 0.0
H300 H 0.88326 0.06827 0.54746 0.0
H301 H 0.80135 0.04963 0.56827 0.0
H302 H 0.67598 0.9598 0.52304 0.0
C303 C 0.85732 0.01551 0.47585 0.0
C304 C 0.91951 0.0497 0.475 0.0
C305 C 0.9533 0.07497 0.49143 0.0
C306 C 0.92559 0.06692 0.50848 0.0
C307 C 0.8641 0.03352 0.50883 0.0
C308 C 0.83037 0.00834 0.49294 0.0
C309 C 0.76503 0.97855 0.49686 0.0
C310 C 0.73581 0.00631 0.48626 0.0
C311 C 0.73399 0.91172 0.49254 0.0
C312 C 0.76734 0.99228 0.51735 0.0
C313 C 0.82479 0.0232 0.52406 0.0
C314 C 0.83803 0.04354 0.5424 0.0
C315 C 0.79132 0.03298 0.55409 0.0
C316 C 0.73227 0.0028 0.54733 0.0
C317 C 0.72039 0.98146 0.52878 0.0
H318 H 0.91596 0.97128 0.78979 0.0
H319 H 0.94472 0.13157 0.81851 0.0
H320 H 0.87706 0.07245 0.84281 0.0
H321 H 0.76181 0.88428 0.79911 0.0
H322 H 0.76253 0.81735 0.80202 0.0
H323 H 0.81521 0.87227 0.7872 0.0
H324 H 0.90127 0.87701 0.80567 0.0
H325 H 0.84882 0.82192 0.8205 0.0
H326 H 0.90647 0.89189 0.83022 0.0
H327 H 0.80596 -0.00371 0.86385 0.0
H328 H 0.73596 0.90788 0.88027 0.0
H329 H 0.74995 0.79695 0.83715 0.0
C330 C 0.90851 0.994 0.80128 0.0
C331 C 0.93582 0.05608 0.80228 0.0
C332 C 0.92428 0.08405 0.81743 0.0
C333 C 0.88596 0.05089 0.83132 0.0
C334 C 0.85929 0.98979 0.82982 0.0
C335 C 0.86996 0.96155 0.81519 0.0
C336 C 0.83435 0.89523 0.81665 0.0
C337 C 0.7909 0.86555 0.80027 0.0
C338 C 0.87517 0.87005 0.81837 0.0
C339 C 0.80213 0.8907 0.83438 0.0
C340 C 0.81726 0.94575 0.84177 0.0
C341 C 0.7935 0.95288 0.85816 0.0
C342 C 0.75336 0.90233 0.8673 0.0
C343 C 0.73708 0.84532 0.85998 0.0
C344 C 0.76183 0.83979 0.84324 0.0
H345 H 0.00377 0.92924 0.13627 0.0
H346 H 0.14598 0.95144 0.10061 0.0
H347 H 0.15393 0.87654 0.11743 0.0
H348 H 0.06423 0.91202 0.17775 0.0
H349 H 0.99339 0.85785 0.1864 0.0
H350 H -0.0014 0.91246 0.17133 0.0
H351 H 0.9216 0.82953 0.14908 0.0
H352 H 0.91635 0.77465 0.16404 0.0
H353 H 0.93479 0.77264 0.14022 0.0
H354 H 0.14652 0.79959 0.13838 0.0
H355 H 0.12525 0.72753 0.16216 0.0
H356 H 0.98893 0.7576 0.18411 0.0
C357 C 0.03656 0.91835 0.13196 0.0
C358 C 0.07424 0.94607 0.11713 0.0
C359 C 0.11667 0.9307 0.11195 0.0
C360 C 0.12145 0.88819 0.12139 0.0
C361 C 0.0835 0.86163 0.13595 0.0
C362 C 0.04198 0.87622 0.14122 0.0
C363 C 0.00701 0.84191 0.15747 0.0
C364 C 0.0164 0.88355 0.17422 0.0
C365 C 0.94104 0.80233 0.15239 0.0
C366 C 0.03538 0.80573 0.16054 0.0
C367 C 0.07933 0.8176 0.14798 0.0
C368 C 0.11221 0.78995 0.14829 0.0
C369 C 0.1 0.74933 0.16187 0.0
C370 C 0.05535 0.73688 0.17493 0.0
C371 C 0.02263 0.76542 0.17413 0.0
H372 H 0.14078 0.07362 0.45997 0.0
H373 H 0.27408 0.16085 0.41852 0.0
H374 H 0.34744 0.15635 0.43817 0.0
H375 H 0.23624 0.14605 0.49926 0.0
H376 H 0.20101 0.08156 0.5128 0.0
H377 H 0.15916 0.09163 0.49543 0.0
H378 H 0.12979 0.98973 0.48007 0.0
H379 H 0.17161 0.97936 0.49738 0.0
H380 H 0.1868 0.97454 0.47337 0.0
H381 H 0.406 0.14199 0.46235 0.0
H382 H 0.44546 0.1187 0.48929 0.0
H383 H 0.27369 0.04215 0.51485 0.0
C384 C 0.18535 0.09179 0.45497 0.0
C385 C 0.20166 0.11756 0.43768 0.0
C386 C 0.26054 0.1409 0.43171 0.0
C387 C 0.30252 0.13855 0.44277 0.0
C388 C 0.28485 0.1128 0.45972 0.0
C389 C 0.2277 0.08989 0.46579 0.0
C390 C 0.21994 0.06468 0.48457 0.0
C391 C 0.20311 0.09799 0.49885 0.0
C392 C 0.17434 -0.00187 0.48379 0.0
C393 C 0.28168 0.07678 0.48809 0.0
C394 C 0.31851 0.10464 0.47363 0.0
C395 C 0.37764 0.12034 0.47378 0.0
C396 C 0.39969 0.10722 0.48917 0.0
C397 C 0.36262 0.07869 0.50415 0.0
C398 C 0.30289 0.06336 0.50352 0.0
H399 H 0.24059 0.23808 0.79083 0.0
H400 H 0.20006 0.34181 0.75585 0.0
H401 H 0.28768 0.43308 0.76858 0.0
H402 H 0.28267 0.33248 0.82989 0.0
H403 H 0.34082 0.32006 0.83668 0.0
H404 H 0.2785 0.26378 0.82347 0.0
H405 H 0.3502 0.26277 0.79898 0.0
H406 H 0.41245 0.31972 0.8122 0.0
H407 H 0.40248 0.33039 0.7885 0.0
H408 H 0.37454 0.51328 0.78751 0.0
H409 H 0.45116 0.57468 0.81121 0.0
H410 H 0.4329 0.41651 0.83322 0.0
C411 C 0.25044 0.27989 0.78565 0.0
C412 C 0.21357 0.28294 0.77237 0.0
C413 C 0.22788 0.33853 0.76601 0.0
C414 C 0.27763 0.39052 0.77311 0.0
C415 C 0.31276 0.3859 0.78637 0.0
C416 C 0.29979 0.33186 0.79249 0.0
C417 C 0.34202 0.3386 0.8076 0.0
C418 C 0.30896 0.31217 0.82546 0.0
C419 C 0.37898 0.31125 0.80144 0.0
C420 C 0.37964 0.405 0.80953 0.0
C421 C 0.36277 0.4317 0.79703 0.0
C422 C 0.38868 0.49283 0.79717 0.0
C423 C 0.43196 0.52731 0.81069 0.0
C424 C 0.44858 0.50045 0.8239 0.0
C425 C 0.4227 0.4386 0.82298 0.0
H426 H 0.86773 0.15539 0.72073 0.0
H427 H 0.94032 0.0498 0.69977 0.0
H428 H 0.86302 0.00552 0.67546 0.0
H429 H 0.71438 0.0432 0.71291 0.0
H430 H 0.69307 0.09471 0.70636 0.0
H431 H 0.75414 0.11824 0.72218 0.0
H432 H 0.82241 0.20242 0.70095 0.0
H433 H 0.76151 0.1793 0.68512 0.0
H434 H 0.82904 0.1849 0.67716 0.0
H435 H 0.77989 0.97497 0.65291 0.0
H436 H 0.69701 0.96076 0.63353 0.0
H437 H 0.67534 0.08224 0.6702 0.0
C438 C 0.86753 0.12312 0.711 0.0
C439 C 0.9102 0.1062 0.71212 0.0
C440 C 0.90807 0.06344 0.6992 0.0
C441 C 0.86431 0.03797 0.68535 0.0
C442 C 0.82274 0.05536 0.6847 0.0
C443 C 0.82385 0.09684 0.69719 0.0
C444 C 0.774 0.10778 0.69344 0.0
C445 C 0.73138 0.0899 0.70969 0.0
C446 C 0.7982 0.17243 0.68889 0.0
C447 C 0.74523 0.06658 0.67674 0.0
C448 C 0.77393 0.03667 0.67195 0.0
C449 C 0.7566 -0.00238 0.65664 0.0
C450 C 0.70907 0.98946 0.6458 0.0
C451 C 0.6792 0.02003 0.65036 0.0
C452 C 0.69734 0.05847 0.66622 0.0
H453 H 0.93496 0.92767 0.03773 0.0
H454 H 0.8822 0.054 0.05336 0.0
H455 H 0.81125 0.01674 0.02701 0.0
H456 H 0.92996 0.93633 0.98967 0.0
H457 H 0.90025 0.85869 0.98471 0.0
H458 H 0.94511 0.89398 0.00508 0.0
H459 H 0.86111 0.81858 0.0254 0.0
H460 H 0.81639 0.7825 0.00505 0.0
H461 H 0.78829 0.80843 0.02351 0.0
H462 H 0.74954 0.96786 -0.00225 0.0
H463 H 0.69666 0.90634 0.96988 0.0
H464 H 0.78882 0.81077 0.97493 0.0
C465 C 0.9082 0.94728 0.03569 0.0
C466 C 0.91405 0.99379 0.04748 0.0
C467 C 0.87805 0.01807 0.04448 0.0
C468 C 0.83796 -0.00258 0.02952 0.0
C469 C 0.83415 0.95214 0.01792 0.0
C470 C 0.86773 0.92683 0.02105 0.0
C471 C 0.85516 0.87837 0.0068 0.0
C472 C 0.91094 0.89274 -0.00408 0.0
C473 C 0.82865 0.81843 0.01573 0.0
C474 C 0.81001 0.88096 -0.00508 0.0
C475 C 0.79837 0.92373 0.00147 0.0
C476 C 0.75809 0.934 0.99258 0.0
C477 C 0.72828 0.89886 0.97678 0.0
C478 C 0.73891 0.85402 0.9701 0.0
C479 C 0.78062 0.84553 0.97934 0.0
H480 H 0.04382 0.97456 0.35463 0.0
H481 H 0.9134 0.88702 0.39677 0.0
H482 H 0.88628 0.79027 0.38204 0.0
H483 H 0.96013 0.86909 0.31621 0.0
H484 H 0.02583 0.87499 0.3064 0.0
H485 H 0.03018 0.93701 0.3192 0.0
H486 H 0.11066 0.94123 0.34055 0.0
H487 H 0.10593 0.87887 0.32795 0.0
H488 H 0.09503 0.87651 0.35246 0.0
H489 H 0.87797 0.70262 0.36367 0.0
H490 H 0.8896 0.63206 0.34309 0.0
H491 H 0.02634 0.77821 0.31366 0.0
C492 C 0.00874 0.93518 0.36059 0.0
C493 C 0.98061 0.93846 0.37683 0.0
C494 C 0.93551 0.88567 0.38431 0.0
C495 C 0.91973 0.83049 0.37604 0.0
C496 C 0.94936 0.82888 0.36028 0.0
C497 C 0.99268 0.8799 0.35258 0.0
C498 C 0.02027 0.86635 0.33625 0.0
C499 C 0.00836 0.88815 0.31846 0.0
C500 C 0.0869 0.89227 0.33951 0.0
C501 C 0.98664 0.79979 0.33619 0.0
C502 C 0.94545 0.7788 0.35 0.0
C503 C 0.90988 0.71858 0.35275 0.0
C504 C 0.91674 0.67889 0.34104 0.0
C505 C 0.95931 0.69985 0.327 0.0
C506 C 0.9942 0.76103 0.32453 0.0
H507 H 0.15305 0.08329 0.69577 0.0
H508 H 0.14874 0.98636 0.74293 0.0
H509 H 0.21233 0.95614 0.72652 0.0
H510 H 0.15464 0.9809 0.66002 0.0
H511 H 0.20393 0.04056 0.6459 0.0
H512 H 0.15276 0.04812 0.66064 0.0
H513 H 0.24015 0.14371 0.67578 0.0
H514 H 0.29141 0.13581 0.66126 0.0
H515 H 0.30101 0.14135 0.68591 0.0
H516 H 0.28336 0.94341 0.70552 0.0
H517 H 0.35392 0.94867 0.68178 0.0
H518 H 0.3107 0.05511 0.64914 0.0
C519 C 0.16446 0.05476 0.70256 0.0
C520 C 0.14585 0.03702 0.7206 0.0
C521 C 0.16225 0.00016 0.72905 0.0
C522 C 0.19837 0.98284 0.71984 0.0
C523 C 0.21723 0.0025 0.70221 0.0
C524 C 0.20031 0.03726 0.69362 0.0
C525 C 0.22895 0.05554 0.67511 0.0
C526 C 0.18227 0.0297 0.6595 0.0
C527 C 0.26768 0.1231 0.6745 0.0
C528 C 0.266 0.02707 0.6748 0.0
C529 C 0.25832 0.99603 0.69039 0.0
C530 C 0.28936 0.96725 0.6932 0.0
C531 C 0.32927 0.97047 0.6797 0.0
C532 C 0.33813 0.00288 0.66381 0.0
C533 C 0.30556 0.0309 0.66134 0.0
H534 H 0.17833 0.28001 0.0401 0.0
H535 H 0.22939 0.15148 0.04998 0.0
H536 H 0.31166 0.20065 0.02817 0.0
H537 H 0.20287 0.28855 0.99293 0.0
H538 H 0.23127 0.36666 0.99245 0.0
H539 H 0.17992 0.32425 0.00988 0.0
H540 H 0.25425 0.39379 0.03538 0.0
H541 H 0.30569 0.43685 0.01801 0.0
H542 H 0.32824 0.40644 0.03567 0.0
H543 H 0.38302 0.25979 0.00302 0.0
H544 H 0.43956 0.32599 0.97809 0.0
H545 H 0.34238 0.41666 0.9863 0.0
C546 C 0.20714 0.26246 0.03787 0.0
C547 C 0.19742 0.21184 0.04667 0.0
C548 C 0.23628 0.19044 0.04343 0.0
C549 C 0.28297 0.21798 0.03105 0.0
C550 C 0.29046 0.26718 0.02229 0.0
C551 C 0.25395 0.28956 0.02576 0.0
C552 C 0.26984 0.34176 0.0143 0.0
C553 C 0.21789 0.32953 0.00164 0.0
C554 C 0.29076 0.39804 0.02657 0.0
C555 C 0.32009 0.34448 0.00343 0.0
C556 C 0.33168 0.30139 0.00821 0.0
C557 C 0.3748 0.29418 -0.00065 0.0
C558 C 0.40677 0.33205 0.98525 0.0
C559 C 0.39524 0.37636 0.98017 0.0
C560 C 0.35171 0.3827 0.9896 0.0
H561 H 0.93294 0.16645 0.3755 0.0
H562 H 0.07409 0.29163 0.41254 0.0
H563 H 0.0805 0.37404 0.39591 0.0
H564 H -0.00253 0.24131 0.3358 0.0
H565 H 0.92943 0.22429 0.3246 0.0
H566 H 0.92917 0.1754 0.34106 0.0
H567 H 0.85025 0.18441 0.35998 0.0
H568 H 0.85022 0.23339 0.34353 0.0
H569 H 0.86434 0.25637 0.36756 0.0
H570 H 0.07741 0.44205 0.37406 0.0
H571 H 0.06894 0.49158 0.34735 0.0
H572 H 0.93398 0.32215 0.32327 0.0
C573 C 0.96404 0.21128 0.38036 0.0
C574 C 0.00257 0.22298 0.3954 0.0
C575 C 0.04404 0.282 0.40108 0.0
C576 C 0.04778 0.329 0.39179 0.0
C577 C 0.01002 0.31612 0.37678 0.0
C578 C 0.96908 0.25876 0.37102 0.0
C579 C 0.93827 0.25698 0.35331 0.0
C580 C 0.94928 0.22247 0.33778 0.0
C581 C 0.87182 0.23127 0.35628 0.0
C582 C 0.96934 0.32217 0.34981 0.0
C583 C 0.00976 0.3555 0.36369 0.0
C584 C 0.04568 0.4165 0.36315 0.0
C585 C 0.04088 0.44415 0.34785 0.0
C586 C 0.00103 0.41074 0.33317 0.0
C587 C 0.96416 0.34903 0.33438 0.0
loop_
_geom_bond_atom_site_label_1
_geom_bond_atom_site_label_2
_geom_bond_distance
_geom_bond_site_symmetry_2
_ccdc_geom_bond_type
C0 O1 1.306 . S
C0 O3 1.160 . S
O1 C0 1.306 . S
O1 Cd2 2.228 1_455 S
Cd2 O1 2.228 1_655 S
Cd2 O6 2.273 . S
Cd2 O10 2.277 1_655 S
O3 C0 1.160 . S
O3 Cd4 2.203 . S
Cd4 O3 2.203 . S
Cd4 O6 2.411 1_455 S
Cd4 O7 2.333 1_545 S
Cd4 O8 2.352 1_545 S
Cd4 O12 2.277 . S
Cd4 O13 2.356 . S
C5 O10 1.209 . S
C5 O12 1.226 . S
O6 Cd2 2.273 . S
O6 Cd4 2.411 1_655 S
O6 C9 1.320 . S
O7 Cd4 2.333 1_565 S
O7 C9 1.214 1_465 S
O8 Cd4 2.352 1_565 S
O8 C11 1.258 . S
C9 O6 1.320 . S
C9 O7 1.214 1_645 S
O10 Cd2 2.277 1_455 S
O10 C5 1.209 . S
C11 O8 1.258 . S
C11 O13 1.282 1_565 S
O12 Cd4 2.277 . S
O12 C5 1.226 . S
O13 Cd4 2.356 . S
O13 C11 1.282 1_545 S
C14 O15 1.306 . S
C14 O17 1.160 . S
O15 C14 1.306 . S
O15 Cd16 2.228 . S
Cd16 O15 2.228 . S
Cd16 O20 2.273 . S
Cd16 O24 2.277 . S
O17 C14 1.160 . S
O17 Cd18 2.203 1_455 S
Cd18 O17 2.203 1_655 S
Cd18 O20 2.411 1_655 S
Cd18 O21 2.333 . S
Cd18 O22 2.352 . S
Cd18 O26 2.277 1_545 S
Cd18 O27 2.356 1_545 S
C19 O24 1.209 1_565 S
C19 O26 1.226 1_455 S
O20 Cd16 2.273 . S
O20 Cd18 2.411 1_455 S
O20 C23 1.320 . S
O21 Cd18 2.333 . S
O21 C23 1.214 1_655 S
O22 Cd18 2.352 . S
O22 C25 1.258 . S
C23 O20 1.320 . S
C23 O21 1.214 1_455 S
O24 Cd16 2.277 . S
O24 C19 1.209 1_545 S
C25 O22 1.258 . S
C25 O27 1.282 1_545 S
O26 Cd18 2.277 1_565 S
O26 C19 1.226 1_655 S
O27 Cd18 2.356 1_565 S
O27 C25 1.282 1_565 S
C28 O29 1.306 1_655 S
C28 O31 1.160 1_655 S
O29 C28 1.306 1_455 S
O29 Cd30 2.228 . S
Cd30 O29 2.228 . S
Cd30 O34 2.273 . S
Cd30 O38 2.277 . S
O31 C28 1.160 1_455 S
O31 Cd32 2.203 . S
Cd32 O31 2.203 . S
Cd32 O34 2.411 . S
Cd32 O35 2.333 . S
Cd32 O36 2.352 . S
Cd32 O40 2.277 . S
Cd32 O41 2.356 . S
C33 O38 1.217 1_655 S
C33 O40 1.211 1_655 S
O34 Cd30 2.273 . S
O34 Cd32 2.411 . S
O34 C37 1.320 . S
O35 Cd32 2.333 . S
O35 C37 1.214 . S
O36 Cd32 2.352 . S
O36 C39 1.258 . S
C37 O34 1.320 . S
C37 O35 1.214 . S
O38 Cd30 2.277 . S
O38 C33 1.217 1_455 S
C39 O36 1.258 . S
C39 O41 1.282 . S
O40 Cd32 2.277 . S
O40 C33 1.211 1_455 S
O41 Cd32 2.356 . S
O41 C39 1.282 . S
H42 O68 0.856 . S
H43 O71 0.854 . S
H44 C79 0.930 . S
H45 C80 0.930 . S
H46 C82 0.930 . S
H47 C83 0.930 . S
H48 C85 0.931 1_655 S
H49 C86 0.930 1_655 S
H50 C88 0.930 . S
H51 C89 0.929 . S
H52 C91 0.930 1_655 S
H53 C92 0.931 1_655 S
H54 C94 0.930 . S
H55 C95 0.929 . S
H56 C97 0.931 . S
H57 C98 0.930 . S
H58 C100 0.930 . S
H59 C101 0.932 . S
H60 C103 0.930 . S
H61 C104 0.929 . S
H62 C106 0.931 . S
H63 C107 0.930 . S
H64 C109 0.929 . S
H65 C110 0.931 . S
H66 C112 0.930 . S
H67 C113 0.929 . S
O68 H42 0.856 . S
O68 C114 1.300 . S
O69 C114 1.209 . S
O70 C115 1.199 . S
O71 H43 0.854 . S
O71 C115 1.297 . S
C72 C73 1.404 . S
C72 C77 1.397 . S
C72 C78 1.492 . S
C73 C72 1.404 . S
C73 C74 1.396 . S
C73 C84 1.492 . S
C74 C73 1.396 . S
C74 C75 1.397 . S
C74 C90 1.509 . S
C75 C74 1.397 . S
C75 C76 1.412 . S
C75 C96 1.485 . S
C76 C75 1.412 . S
C76 C77 1.388 . S
C76 C102 1.490 . S
C77 C72 1.397 . S
C77 C76 1.388 . S
C77 C108 1.519 . S
C78 C72 1.492 . S
C78 C79 1.363 1_455 S
C78 C83 1.390 . S
C79 H44 0.930 . S
C79 C78 1.363 1_655 S
C79 C80 1.372 . S
C80 H45 0.930 . S
C80 C79 1.372 . S
C80 C81 1.383 1_655 S
C81 C80 1.383 1_455 S
C81 C82 1.395 . S
C82 H46 0.930 . S
C82 C81 1.395 . S
C82 C83 1.362 . S
C83 H47 0.930 . S
C83 C78 1.390 . S
C83 C82 1.362 . S
C84 C73 1.492 . S
C84 C85 1.377 . S
C84 C89 1.397 . S
C85 H48 0.931 1_455 S
C85 C84 1.377 . S
C85 C86 1.376 . S
C86 H49 0.930 1_455 S
C86 C85 1.376 . S
C86 C87 1.376 . S
C87 C86 1.376 . S
C87 C88 1.378 . S
C87 C114 1.486 . S
C88 H50 0.930 . S
C88 C87 1.378 . S
C88 C89 1.376 . S
C89 H51 0.929 . S
C89 C84 1.397 . S
C89 C88 1.376 . S
C90 C74 1.509 . S
C90 C91 1.391 . S
C90 C95 1.386 . S
C91 H52 0.930 1_455 S
C91 C90 1.391 . S
C91 C92 1.375 . S
C92 H53 0.931 1_455 S
C92 C91 1.375 . S
C92 C93 1.375 . S
C93 C92 1.375 . S
C93 C94 1.361 . S
C94 H54 0.930 . S
C94 C93 1.361 . S
C94 C95 1.399 . S
C95 H55 0.929 . S
C95 C90 1.386 . S
C95 C94 1.399 . S
C96 C75 1.485 . S
C96 C97 1.394 1_455 S
C96 C101 1.360 . S
C97 H56 0.931 . S
C97 C96 1.394 1_655 S
C97 C98 1.372 . S
C98 H57 0.930 . S
C98 C97 1.372 . S
C98 C99 1.397 1_655 S
C99 C98 1.397 1_455 S
C99 C100 1.390 . S
C99 C115 1.476 . S
C100 H58 0.930 . S
C100 C99 1.390 . S
C100 C101 1.366 . S
C101 H59 0.932 . S
C101 C96 1.360 . S
C101 C100 1.366 . S
C102 C76 1.490 . S
C102 C103 1.380 1_455 S
C102 C107 1.386 . S
C103 H60 0.930 . S
C103 C102 1.380 1_655 S
C103 C104 1.381 . S
C104 H61 0.929 . S
C104 C103 1.381 . S
C104 C105 1.371 1_655 S
C105 C104 1.371 1_455 S
C105 C106 1.380 . S
C106 H62 0.931 . S
C106 C105 1.380 . S
C106 C107 1.387 . S
C107 H63 0.930 . S
C107 C102 1.386 . S
C107 C106 1.387 . S
C108 C77 1.519 . S
C108 C109 1.377 1_455 S
C108 C113 1.361 . S
C109 H64 0.929 . S
C109 C108 1.377 1_655 S
C109 C110 1.386 . S
C110 H65 0.931 . S
C110 C109 1.386 . S
C110 C111 1.363 1_655 S
C111 C110 1.363 1_455 S
C111 C112 1.385 . S
C112 H66 0.930 . S
C112 C111 1.385 . S
C112 C113 1.396 . S
C113 H67 0.929 . S
C113 C108 1.361 . S
C113 C112 1.396 . S
C114 O68 1.300 . S
C114 O69 1.209 . S
C114 C87 1.486 . S
C115 O70 1.199 . S
C115 O71 1.297 . S
C115 C99 1.476 . S
H116 O142 0.856 . S
H117 O145 0.854 . S
H118 C153 0.930 1_565 S
H119 C154 0.930 1_565 S
H120 C156 0.930 . S
H121 C157 0.930 . S
H122 C159 0.931 . S
H123 C160 0.930 . S
H124 C162 0.930 . S
H125 C163 0.929 . S
H126 C165 0.930 . S
H127 C166 0.931 . S
H128 C168 0.930 . S
H129 C169 0.929 . S
H130 C171 0.931 . S
H131 C172 0.930 . S
H132 C174 0.930 . S
H133 C175 0.932 . S
H134 C177 0.930 . S
H135 C178 0.914 1_565 S
H136 C180 0.931 . S
H137 C181 0.930 . S
H138 C183 0.929 . S
H139 C184 0.931 . S
H140 C186 0.930 . S
H141 C187 0.929 . S
O142 H116 0.856 . S
O142 C188 1.300 . S
O143 C188 1.209 . S
O144 C189 1.199 . S
O145 H117 0.854 . S
O145 C189 1.297 . S
C146 C147 1.404 . S
C146 C151 1.397 . S
C146 C152 1.492 . S
C147 C146 1.404 . S
C147 C148 1.396 . S
C147 C158 1.492 . S
C148 C147 1.396 . S
C148 C149 1.397 . S
C148 C164 1.509 . S
C149 C148 1.397 . S
C149 C150 1.412 . S
C149 C170 1.485 . S
C150 C149 1.412 . S
C150 C151 1.388 . S
C150 C176 1.490 . S
C151 C146 1.397 . S
C151 C150 1.388 . S
C151 C182 1.519 . S
C152 C146 1.492 . S
C152 C153 1.363 . S
C152 C157 1.390 . S
C153 H118 0.930 1_545 S
C153 C152 1.363 . S
C153 C154 1.372 . S
C154 H119 0.930 1_545 S
C154 C153 1.372 . S
C154 C155 1.383 . S
C155 C154 1.383 . S
C155 C156 1.395 . S
C156 H120 0.930 . S
C156 C155 1.395 . S
C156 C157 1.362 . S
C157 H121 0.930 . S
C157 C152 1.390 . S
C157 C156 1.362 . S
C158 C147 1.492 . S
C158 C159 1.377 . S
C158 C163 1.397 . S
C159 H122 0.931 . S
C159 C158 1.377 . S
C159 C160 1.376 . S
C160 H123 0.930 . S
C160 C159 1.376 . S
C160 C161 1.376 . S
C161 C160 1.376 . S
C161 C162 1.378 . S
C161 C188 1.486 . S
C162 H124 0.930 . S
C162 C161 1.378 . S
C162 C163 1.376 . S
C163 H125 0.929 . S
C163 C158 1.397 . S
C163 C162 1.376 . S
C164 C148 1.509 . S
C164 C165 1.391 . S
C164 C169 1.386 . S
C165 H126 0.930 . S
C165 C164 1.391 . S
C165 C166 1.375 . S
C166 H127 0.931 . S
C166 C165 1.375 . S
C166 C167 1.375 . S
C167 C166 1.375 . S
C167 C168 1.361 . S
C168 H128 0.930 . S
C168 C167 1.361 . S
C168 C169 1.399 . S
C169 H129 0.929 . S
C169 C164 1.386 . S
C169 C168 1.399 . S
C170 C149 1.485 . S
C170 C171 1.394 . S
C170 C175 1.360 . S
C171 H130 0.931 . S
C171 C170 1.394 . S
C171 C172 1.372 . S
C172 H131 0.930 . S
C172 C171 1.372 . S
C172 C173 1.397 . S
C173 C172 1.397 . S
C173 C174 1.390 . S
C173 C189 1.476 . S
C174 H132 0.930 . S
C174 C173 1.390 . S
C174 C175 1.366 . S
C175 H133 0.932 . S
C175 C170 1.360 . S
C175 C174 1.366 . S
C176 C150 1.490 . S
C176 C177 1.380 . S
C176 C181 1.386 . S
C177 H134 0.930 . S
C177 C176 1.380 . S
C177 C178 1.381 . S
C178 H135 0.914 1_545 S
C178 C177 1.381 . S
C178 C179 1.371 . S
C179 C178 1.371 . S
C179 C180 1.380 . S
C180 H136 0.931 . S
C180 C179 1.380 . S
C180 C181 1.387 . S
C181 H137 0.930 . S
C181 C176 1.386 . S
C181 C180 1.387 . S
C182 C151 1.519 . S
C182 C183 1.377 . S
C182 C187 1.361 . S
C183 H138 0.929 . S
C183 C182 1.377 . S
C183 C184 1.386 . S
C184 H139 0.931 . S
C184 C183 1.386 . S
C184 C185 1.363 . S
C185 C184 1.363 . S
C185 C186 1.385 . S
C186 H140 0.930 . S
C186 C185 1.385 . S
C186 C187 1.396 . S
C187 H141 0.929 . S
C187 C182 1.361 . S
C187 C186 1.396 . S
C188 O142 1.300 . S
C188 O143 1.209 . S
C188 C161 1.486 . S
C189 O144 1.199 . S
C189 O145 1.297 . S
C189 C173 1.476 . S
H190 O216 0.856 . S
H191 O219 0.854 . S
H192 C227 0.930 . S
H193 C228 0.930 . S
H194 C230 0.930 . S
H195 C231 0.930 . S
H196 C233 0.931 . S
H197 C234 0.930 . S
H198 C236 0.917 1_554 S
H199 C237 0.929 . S
H200 C239 0.930 . S
H201 C240 0.931 . S
H202 C242 0.930 . S
H203 C243 0.929 . S
H204 C245 0.931 . S
H205 C246 0.930 . S
H206 C248 0.930 . S
H207 C249 0.932 . S
H208 C251 0.930 . S
H209 C252 0.929 . S
H210 C254 0.931 . S
H211 C255 0.930 . S
H212 C257 0.929 . S
H213 C258 0.931 . S
H214 C260 0.930 . S
H215 C261 0.929 . S
O216 H190 0.856 . S
O216 C262 1.300 . S
O217 C262 1.209 . S
O218 C263 1.199 . S
O219 H191 0.854 . S
O219 C263 1.297 . S
C220 C221 1.404 . S
C220 C225 1.397 . S
C220 C226 1.492 . S
C221 C220 1.404 . S
C221 C222 1.396 . S
C221 C232 1.492 . S
C222 C221 1.396 . S
C222 C223 1.397 . S
C222 C238 1.509 . S
C223 C222 1.397 . S
C223 C224 1.412 . S
C223 C244 1.485 . S
C224 C223 1.412 . S
C224 C225 1.388 . S
C224 C250 1.490 . S
C225 C220 1.397 . S
C225 C224 1.388 . S
C225 C256 1.519 . S
C226 C220 1.492 . S
C226 C227 1.363 . S
C226 C231 1.390 . S
C227 H192 0.930 . S
C227 C226 1.363 . S
C227 C228 1.372 . S
C228 H193 0.930 . S
C228 C227 1.372 . S
C228 C229 1.383 . S
C229 C228 1.383 . S
C229 C230 1.395 . S
C230 H194 0.930 . S
C230 C229 1.395 . S
C230 C231 1.362 . S
C231 H195 0.930 . S
C231 C226 1.390 . S
C231 C230 1.362 . S
C232 C221 1.492 . S
C232 C233 1.377 . S
C232 C237 1.397 . S
C233 H196 0.931 . S
C233 C232 1.377 . S
C233 C234 1.376 1_556 S
C234 H197 0.930 . S
C234 C233 1.376 1_554 S
C234 C235 1.376 . S
C235 C234 1.376 . S
C235 C236 1.348 1_554 S
C235 C262 1.486 . S
C236 H198 0.917 1_556 S
C236 C235 1.348 1_556 S
C236 C237 1.421 . S
C237 H199 0.929 . S
C237 C232 1.397 . S
C237 C236 1.421 . S
C238 C222 1.509 . S
C238 C239 1.391 . S
C238 C243 1.386 . S
C239 H200 0.930 . S
C239 C238 1.391 . S
C239 C240 1.375 . S
C240 H201 0.931 . S
C240 C239 1.375 . S
C240 C241 1.375 . S
C241 C240 1.375 . S
C241 C242 1.361 . S
C242 H202 0.930 . S
C242 C241 1.361 . S
C242 C243 1.399 . S
C243 H203 0.929 . S
C243 C238 1.386 . S
C243 C242 1.399 . S
C244 C223 1.485 . S
C244 C245 1.394 . S
C244 C249 1.360 . S
C245 H204 0.931 . S
C245 C244 1.394 . S
C245 C246 1.372 . S
C246 H205 0.930 . S
C246 C245 1.372 . S
C246 C247 1.397 . S
C247 C246 1.397 . S
C247 C248 1.390 . S
C247 C263 1.476 . S
C248 H206 0.930 . S
C248 C247 1.390 . S
C248 C249 1.366 . S
C249 H207 0.932 . S
C249 C244 1.360 . S
C249 C248 1.366 . S
C250 C224 1.490 . S
C250 C251 1.380 . S
C250 C255 1.386 . S
C251 H208 0.930 . S
C251 C250 1.380 . S
C251 C252 1.381 . S
C252 H209 0.929 . S
C252 C251 1.381 . S
C252 C253 1.371 . S
C253 C252 1.371 . S
C253 C254 1.380 . S
C254 H210 0.931 . S
C254 C253 1.380 . S
C254 C255 1.387 . S
C255 H211 0.930 . S
C255 C250 1.386 . S
C255 C254 1.387 . S
C256 C225 1.519 . S
C256 C257 1.377 . S
C256 C261 1.361 . S
C257 H212 0.929 . S
C257 C256 1.377 . S
C257 C258 1.386 . S
C258 H213 0.931 . S
C258 C257 1.386 . S
C258 C259 1.363 . S
C259 C258 1.363 . S
C259 C260 1.385 . S
C260 H214 0.930 . S
C260 C259 1.385 . S
C260 C261 1.396 . S
C261 H215 0.929 . S
C261 C256 1.361 . S
C261 C260 1.396 . S
C262 O216 1.300 . S
C262 O217 1.209 . S
C262 C235 1.486 . S
C263 O218 1.199 . S
C263 O219 1.297 . S
C263 C247 1.476 . S
H264 C276 0.930 1_655 S
H265 C278 0.930 . S
H266 C279 0.930 . S
H267 C283 0.959 . S
H268 C283 0.959 . S
H269 C283 0.961 . S
H270 C284 0.960 . S
H271 C284 0.965 . S
H272 C284 0.959 . S
H273 C287 0.929 . S
H274 C288 0.931 . S
H275 C290 0.930 . S
C276 H264 0.930 1_455 S
C276 C277 1.399 . S
C276 C281 1.399 . S
C277 C276 1.399 . S
C277 C278 1.376 . S
C278 H265 0.930 . S
C278 C277 1.376 . S
C278 C279 1.388 . S
C279 H266 0.930 . S
C279 C278 1.388 . S
C279 C280 1.390 . S
C280 C279 1.390 . S
C280 C281 1.394 . S
C280 C286 1.465 . S
C281 C276 1.399 . S
C281 C280 1.394 . S
C281 C282 1.516 1_455 S
C282 C281 1.516 1_655 S
C282 C283 1.502 . S
C282 C284 1.561 1_655 S
C282 C285 1.526 1_655 S
C283 H267 0.959 . S
C283 H268 0.959 . S
C283 H269 0.961 . S
C283 C282 1.502 . S
C284 H270 0.960 . S
C284 H271 0.965 . S
C284 H272 0.959 . S
C284 C282 1.561 1_455 S
C285 C282 1.526 1_455 S
C285 C286 1.396 . S
C285 C290 1.390 1_455 S
C286 C280 1.465 . S
C286 C285 1.396 . S
C286 C287 1.399 . S
C287 H273 0.929 . S
C287 C286 1.399 . S
C287 C288 1.385 . S
C288 H274 0.931 . S
C288 C287 1.385 . S
C288 C289 1.389 . S
C289 C288 1.389 . S
C289 C290 1.387 1_455 S
C290 H275 0.930 . S
C290 C285 1.390 1_655 S
C290 C289 1.387 1_655 S
H291 C303 0.931 . S
H292 C305 0.930 . S
H293 C306 0.930 . S
H294 C310 0.959 . S
H295 C310 0.959 . S
H296 C310 0.961 . S
H297 C311 0.960 . S
H298 C311 0.961 . S
H299 C311 0.959 . S
H300 C314 0.929 . S
H301 C315 0.931 . S
H302 C317 0.930 1_565 S
C303 H291 0.931 . S
C303 C304 1.399 1_565 S
C303 C308 1.398 1_565 S
C304 C303 1.399 1_545 S
C304 C305 1.376 . S
C305 H292 0.930 . S
C305 C304 1.376 . S
C305 C306 1.388 . S
C306 H293 0.930 . S
C306 C305 1.388 . S
C306 C307 1.390 . S
C307 C306 1.390 . S
C307 C308 1.394 . S
C307 C313 1.465 . S
C308 C303 1.398 1_545 S
C308 C307 1.394 . S
C308 C309 1.516 1_545 S
C309 C308 1.516 1_565 S
C309 C310 1.502 . S
C309 C311 1.561 . S
C309 C312 1.526 1_565 S
C310 H294 0.959 . S
C310 H295 0.959 . S
C310 H296 0.961 . S
C310 C309 1.502 . S
C311 H297 0.960 . S
C311 H298 0.961 . S
C311 H299 0.959 . S
C311 C309 1.561 . S
C312 C309 1.526 1_545 S
C312 C313 1.396 . S
C312 C317 1.390 . S
C313 C307 1.465 . S
C313 C312 1.396 . S
C313 C314 1.399 . S
C314 H300 0.929 . S
C314 C313 1.399 . S
C314 C315 1.385 . S
C315 H301 0.931 . S
C315 C314 1.385 . S
C315 C316 1.389 . S
C316 C315 1.389 . S
C316 C317 1.387 . S
C317 H302 0.930 1_545 S
C317 C312 1.390 . S
C317 C316 1.387 . S
H318 C330 0.930 . S
H319 C332 0.930 1_445 S
H320 C333 0.930 . S
H321 C337 0.959 . S
H322 C337 0.959 . S
H323 C337 0.961 . S
H324 C338 0.960 . S
H325 C338 0.961 . S
H326 C338 0.959 . S
H327 C341 0.929 . S
H328 C342 0.931 . S
H329 C344 0.930 . S
C330 H318 0.930 . S
C330 C331 1.399 . S
C330 C335 1.399 . S
C331 C330 1.399 . S
C331 C332 1.376 . S
C332 H319 0.930 1_665 S
C332 C331 1.376 . S
C332 C333 1.388 . S
C333 H320 0.930 . S
C333 C332 1.388 . S
C333 C334 1.390 . S
C334 C333 1.390 . S
C334 C335 1.394 . S
C334 C340 1.465 . S
C335 C330 1.399 . S
C335 C334 1.394 . S
C335 C336 1.516 . S
C336 C335 1.516 . S
C336 C337 1.502 . S
C336 C338 1.561 . S
C336 C339 1.526 . S
C337 H321 0.959 . S
C337 H322 0.959 . S
C337 H323 0.961 . S
C337 C336 1.502 . S
C338 H324 0.960 . S
C338 H325 0.961 . S
C338 H326 0.959 . S
C338 C336 1.561 . S
C339 C336 1.526 . S
C339 C340 1.396 . S
C339 C344 1.390 . S
C340 C334 1.465 . S
C340 C339 1.396 . S
C340 C341 1.399 . S
C341 H327 0.929 . S
C341 C340 1.399 . S
C341 C342 1.385 . S
C342 H328 0.931 . S
C342 C341 1.385 . S
C342 C343 1.389 . S
C343 C342 1.389 . S
C343 C344 1.387 . S
C344 H329 0.930 . S
C344 C339 1.390 . S
C344 C343 1.387 . S
H345 C357 0.930 . S
H346 C359 0.930 . S
H347 C360 0.930 . S
H348 C364 0.959 . S
H349 C364 0.959 . S
H350 C364 0.961 . S
H351 C365 0.960 . S
H352 C365 0.961 . S
H353 C365 0.959 . S
H354 C368 0.929 . S
H355 C369 0.931 . S
H356 C371 0.930 . S
C357 H345 0.930 . S
C357 C358 1.399 . S
C357 C362 1.399 . S
C358 C357 1.399 . S
C358 C359 1.376 . S
C359 H346 0.930 . S
C359 C358 1.376 . S
C359 C360 1.388 . S
C360 H347 0.930 . S
C360 C359 1.388 . S
C360 C361 1.390 . S
C361 C360 1.390 . S
C361 C362 1.394 . S
C361 C367 1.465 . S
C362 C357 1.399 . S
C362 C361 1.394 . S
C362 C363 1.516 . S
C363 C362 1.516 . S
C363 C364 1.502 . S
C363 C365 1.561 1_455 S
C363 C366 1.526 . S
C364 H348 0.959 . S
C364 H349 0.959 . S
C364 H350 0.961 . S
C364 C363 1.502 . S
C365 H351 0.960 . S
C365 H352 0.961 . S
C365 H353 0.959 . S
C365 C363 1.561 1_655 S
C366 C363 1.526 . S
C366 C367 1.396 . S
C366 C371 1.390 . S
C367 C361 1.465 . S
C367 C366 1.396 . S
C367 C368 1.399 . S
C368 H354 0.929 . S
C368 C367 1.399 . S
C368 C369 1.385 . S
C369 H355 0.931 . S
C369 C368 1.385 . S
C369 C370 1.389 . S
C370 C369 1.389 . S
C370 C371 1.387 . S
C371 H356 0.930 . S
C371 C366 1.390 . S
C371 C370 1.387 . S
H372 C384 0.930 . S
H373 C386 0.930 . S
H374 C387 0.930 . S
H375 C391 0.959 . S
H376 C391 0.959 . S
H377 C391 0.961 . S
H378 C392 0.960 . S
H379 C392 0.961 . S
H380 C392 0.959 . S
H381 C395 0.929 . S
H382 C396 0.931 . S
H383 C398 0.930 . S
C384 H372 0.930 . S
C384 C385 1.399 . S
C384 C389 1.399 . S
C385 C384 1.399 . S
C385 C386 1.376 . S
C386 H373 0.930 . S
C386 C385 1.376 . S
C386 C387 1.388 . S
C387 H374 0.930 . S
C387 C386 1.388 . S
C387 C388 1.390 . S
C388 C387 1.390 . S
C388 C389 1.394 . S
C388 C394 1.465 . S
C389 C384 1.399 . S
C389 C388 1.394 . S
C389 C390 1.516 . S
C390 C389 1.516 . S
C390 C391 1.502 . S
C390 C392 1.561 . S
C390 C393 1.526 . S
C391 H375 0.959 . S
C391 H376 0.959 . S
C391 H377 0.961 . S
C391 C390 1.502 . S
C392 H378 0.960 . S
C392 H379 0.961 . S
C392 H380 0.959 . S
C392 C390 1.561 . S
C393 C390 1.526 . S
C393 C394 1.396 . S
C393 C398 1.390 . S
C394 C388 1.465 . S
C394 C393 1.396 . S
C394 C395 1.399 . S
C395 H381 0.929 . S
C395 C394 1.399 . S
C395 C396 1.385 . S
C396 H382 0.931 . S
C396 C395 1.385 . S
C396 C397 1.389 . S
C397 C396 1.389 . S
C397 C398 1.387 . S
C398 H383 0.930 . S
C398 C393 1.390 . S
C398 C397 1.387 . S
H399 C411 0.930 . S
H400 C413 0.930 . S
H401 C414 0.930 . S
H402 C418 0.959 . S
H403 C418 0.959 . S
H404 C418 0.961 . S
H405 C419 0.960 . S
H406 C419 0.961 . S
H407 C419 0.959 . S
H408 C422 0.929 . S
H409 C423 0.931 . S
H410 C425 0.930 . S
C411 H399 0.930 . S
C411 C412 1.399 . S
C411 C416 1.399 . S
C412 C411 1.399 . S
C412 C413 1.376 . S
C413 H400 0.930 . S
C413 C412 1.376 . S
C413 C414 1.388 . S
C414 H401 0.930 . S
C414 C413 1.388 . S
C414 C415 1.390 . S
C415 C414 1.390 . S
C415 C416 1.394 . S
C415 C421 1.465 . S
C416 C411 1.399 . S
C416 C415 1.394 . S
C416 C417 1.516 . S
C417 C416 1.516 . S
C417 C418 1.502 . S
C417 C419 1.561 . S
C417 C420 1.526 . S
C418 H402 0.959 . S
C418 H403 0.959 . S
C418 H404 0.961 . S
C418 C417 1.502 . S
C419 H405 0.960 . S
C419 H406 0.961 . S
C419 H407 0.959 . S
C419 C417 1.561 . S
C420 C417 1.526 . S
C420 C421 1.396 . S
C420 C425 1.390 . S
C421 C415 1.465 . S
C421 C420 1.396 . S
C421 C422 1.399 . S
C422 H408 0.929 . S
C422 C421 1.399 . S
C422 C423 1.385 . S
C423 H409 0.931 . S
C423 C422 1.385 . S
C423 C424 1.389 . S
C424 C423 1.389 . S
C424 C425 1.387 . S
C425 H410 0.930 . S
C425 C420 1.390 . S
C425 C424 1.387 . S
H426 C438 0.930 . S
H427 C440 0.930 1_455 S
H428 C441 0.930 . S
H429 C445 0.959 . S
H430 C445 0.959 . S
H431 C445 0.961 . S
H432 C446 0.960 . S
H433 C446 0.961 . S
H434 C446 0.959 . S
H435 C449 0.929 . S
H436 C450 0.931 . S
H437 C452 0.930 . S
C438 H426 0.930 . S
C438 C439 1.399 . S
C438 C443 1.399 . S
C439 C438 1.399 . S
C439 C440 1.376 . S
C440 H427 0.930 1_655 S
C440 C439 1.376 . S
C440 C441 1.388 . S
C441 H428 0.930 . S
C441 C440 1.388 . S
C441 C442 1.390 . S
C442 C441 1.390 . S
C442 C443 1.394 . S
C442 C448 1.465 . S
C443 C438 1.399 . S
C443 C442 1.394 . S
C443 C444 1.516 . S
C444 C443 1.516 . S
C444 C445 1.502 . S
C444 C446 1.561 . S
C444 C447 1.526 . S
C445 H429 0.959 . S
C445 H430 0.959 . S
C445 H431 0.961 . S
C445 C444 1.502 . S
C446 H432 0.960 . S
C446 H433 0.961 . S
C446 H434 0.959 . S
C446 C444 1.561 . S
C447 C444 1.526 . S
C447 C448 1.396 . S
C447 C452 1.390 . S
C448 C442 1.465 . S
C448 C447 1.396 . S
C448 C449 1.399 . S
C449 H435 0.929 . S
C449 C448 1.399 . S
C449 C450 1.385 . S
C450 H436 0.931 . S
C450 C449 1.385 . S
C450 C451 1.389 . S
C451 C450 1.389 . S
C451 C452 1.387 . S
C452 H437 0.930 . S
C452 C447 1.390 . S
C452 C451 1.387 . S
H453 C465 0.930 . S
H454 C467 0.930 . S
H455 C468 0.930 . S
H456 C472 0.959 . S
H457 C472 0.959 . S
H458 C472 0.961 . S
H459 C473 0.960 . S
H460 C473 0.961 . S
H461 C473 0.959 . S
H462 C476 0.929 . S
H463 C477 0.931 . S
H464 C479 0.930 . S
C465 H453 0.930 . S
C465 C466 1.399 . S
C465 C470 1.399 . S
C466 C465 1.399 . S
C466 C467 1.376 1_565 S
C467 H454 0.930 . S
C467 C466 1.376 1_545 S
C467 C468 1.388 . S
C468 H455 0.930 . S
C468 C467 1.388 . S
C468 C469 1.390 1_545 S
C469 C468 1.390 1_565 S
C469 C470 1.394 . S
C469 C475 1.481 . S
C470 C465 1.399 . S
C470 C469 1.394 . S
C470 C471 1.516 . S
C471 C470 1.516 . S
C471 C472 1.502 . S
C471 C473 1.561 . S
C471 C474 1.511 1_554 S
C472 H456 0.959 . S
C472 H457 0.959 . S
C472 H458 0.961 . S
C472 C471 1.502 . S
C473 H459 0.960 . S
C473 H460 0.961 . S
C473 H461 0.959 . S
C473 C471 1.561 . S
C474 C471 1.511 1_556 S
C474 C475 1.397 1_556 S
C474 C479 1.403 . S
C475 C469 1.481 . S
C475 C474 1.397 1_554 S
C475 C476 1.384 1_554 S
C476 H462 0.929 . S
C476 C475 1.384 1_556 S
C476 C477 1.385 . S
C477 H463 0.931 . S
C477 C476 1.385 . S
C477 C478 1.389 . S
C478 C477 1.389 . S
C478 C479 1.387 . S
C479 H464 0.930 . S
C479 C474 1.403 . S
C479 C478 1.387 . S
H480 C492 0.930 . S
H481 C494 0.930 . S
H482 C495 0.930 . S
H483 C499 0.959 1_655 S
H484 C499 0.959 . S
H485 C499 0.961 . S
H486 C500 0.960 . S
H487 C500 0.961 . S
H488 C500 0.959 . S
H489 C503 0.929 . S
H490 C504 0.931 . S
H491 C506 0.930 . S
C492 H480 0.930 . S
C492 C493 1.399 . S
C492 C497 1.399 . S
C493 C492 1.399 . S
C493 C494 1.376 1_455 S
C494 H481 0.930 . S
C494 C493 1.376 1_655 S
C494 C495 1.388 . S
C495 H482 0.930 . S
C495 C494 1.388 . S
C495 C496 1.390 . S
C496 C495 1.390 . S
C496 C497 1.394 1_655 S
C496 C502 1.465 . S
C497 C492 1.399 . S
C497 C496 1.394 1_455 S
C497 C498 1.516 . S
C498 C497 1.516 . S
C498 C499 1.502 . S
C498 C500 1.561 . S
C498 C501 1.526 . S
C499 H483 0.959 1_455 S
C499 H484 0.959 . S
C499 H485 0.961 . S
C499 C498 1.502 . S
C500 H486 0.960 . S
C500 H487 0.961 . S
C500 H488 0.959 . S
C500 C498 1.561 . S
C501 C498 1.526 . S
C501 C502 1.396 1_455 S
C501 C506 1.390 . S
C502 C496 1.465 . S
C502 C501 1.396 1_655 S
C502 C503 1.399 . S
C503 H489 0.929 . S
C503 C502 1.399 . S
C503 C504 1.385 . S
C504 H490 0.931 . S
C504 C503 1.385 . S
C504 C505 1.389 . S
C505 C504 1.389 . S
C505 C506 1.387 1_655 S
C506 H491 0.930 . S
C506 C501 1.390 . S
C506 C505 1.387 1_455 S
H507 C519 0.930 . S
H508 C521 0.930 . S
H509 C522 0.930 . S
H510 C526 0.959 1_545 S
H511 C526 0.959 . S
H512 C526 0.961 . S
H513 C527 0.960 . S
H514 C527 0.961 . S
H515 C527 0.959 . S
H516 C530 0.929 . S
H517 C531 0.931 . S
H518 C533 0.930 . S
C519 H507 0.930 . S
C519 C520 1.399 . S
C519 C524 1.399 . S
C520 C519 1.399 . S
C520 C521 1.376 . S
C521 H508 0.930 . S
C521 C520 1.376 . S
C521 C522 1.388 . S
C522 H509 0.930 . S
C522 C521 1.388 . S
C522 C523 1.390 . S
C523 C522 1.390 . S
C523 C524 1.394 . S
C523 C529 1.465 . S
C524 C519 1.399 . S
C524 C523 1.394 . S
C524 C525 1.516 . S
C525 C524 1.516 . S
C525 C526 1.502 1_545 S
C525 C527 1.561 1_545 S
C525 C528 1.526 . S
C526 H510 0.959 1_565 S
C526 H511 0.959 . S
C526 H512 0.961 . S
C526 C525 1.502 1_565 S
C527 H513 0.960 . S
C527 H514 0.961 . S
C527 H515 0.959 . S
C527 C525 1.561 1_565 S
C528 C525 1.526 . S
C528 C529 1.396 . S
C528 C533 1.390 . S
C529 C523 1.465 . S
C529 C528 1.396 . S
C529 C530 1.399 . S
C530 H516 0.929 . S
C530 C529 1.399 . S
C530 C531 1.385 . S
C531 H517 0.931 . S
C531 C530 1.385 . S
C531 C532 1.389 . S
C532 C531 1.389 . S
C532 C533 1.387 . S
C533 H518 0.930 . S
C533 C528 1.390 . S
C533 C532 1.387 . S
H534 C546 0.930 . S
H535 C548 0.930 . S
H536 C549 0.930 . S
H537 C553 0.959 . S
H538 C553 0.959 . S
H539 C553 0.961 . S
H540 C554 0.960 . S
H541 C554 0.961 . S
H542 C554 0.959 . S
H543 C557 0.929 . S
H544 C558 0.931 . S
H545 C560 0.930 . S
C546 H534 0.930 . S
C546 C547 1.399 . S
C546 C551 1.399 . S
C547 C546 1.399 . S
C547 C548 1.376 . S
C548 H535 0.930 . S
C548 C547 1.376 . S
C548 C549 1.388 . S
C549 H536 0.930 . S
C549 C548 1.388 . S
C549 C550 1.390 . S
C550 C549 1.390 . S
C550 C551 1.394 . S
C550 C556 1.465 . S
C551 C546 1.399 . S
C551 C550 1.394 . S
C551 C552 1.516 . S
C552 C551 1.516 . S
C552 C553 1.502 . S
C552 C554 1.561 . S
C552 C555 1.526 . S
C553 H537 0.959 . S
C553 H538 0.959 . S
C553 H539 0.961 . S
C553 C552 1.502 . S
C554 H540 0.960 . S
C554 H541 0.961 . S
C554 H542 0.959 . S
C554 C552 1.561 . S
C555 C552 1.526 . S
C555 C556 1.396 . S
C555 C560 1.390 . S
C556 C550 1.465 . S
C556 C555 1.396 . S
C556 C557 1.399 1_554 S
C557 H543 0.929 . S
C557 C556 1.399 1_556 S
C557 C558 1.385 . S
C558 H544 0.931 . S
C558 C557 1.385 . S
C558 C559 1.389 . S
C559 C558 1.389 . S
C559 C560 1.387 1_556 S
C560 H545 0.930 . S
C560 C555 1.390 . S
C560 C559 1.387 1_554 S
H561 C573 0.930 . S
H562 C575 0.930 . S
H563 C576 0.930 . S
H564 C580 0.959 . S
H565 C580 0.959 . S
H566 C580 0.961 . S
H567 C581 0.960 . S
H568 C581 0.961 . S
H569 C581 0.959 . S
H570 C584 0.929 . S
H571 C585 0.931 . S
H572 C587 0.930 1_655 S
C573 H561 0.930 . S
C573 C574 1.399 1_655 S
C573 C578 1.399 1_655 S
C574 C573 1.399 1_455 S
C574 C575 1.376 . S
C575 H562 0.930 . S
C575 C574 1.376 . S
C575 C576 1.388 . S
C576 H563 0.930 . S
C576 C575 1.388 . S
C576 C577 1.390 . S
C577 C576 1.390 . S
C577 C578 1.394 . S
C577 C583 1.465 . S
C578 C573 1.399 1_455 S
C578 C577 1.394 . S
C578 C579 1.516 1_455 S
C579 C578 1.516 1_655 S
C579 C580 1.502 . S
C579 C581 1.561 . S
C579 C582 1.526 1_655 S
C580 H564 0.959 . S
C580 H565 0.959 . S
C580 H566 0.961 . S
C580 C579 1.502 . S
C581 H567 0.960 . S
C581 H568 0.961 . S
C581 H569 0.959 . S
C581 C579 1.561 . S
C582 C579 1.526 1_455 S
C582 C583 1.396 . S
C582 C587 1.390 . S
C583 C577 1.465 . S
C583 C582 1.396 . S
C583 C584 1.399 . S
C584 H570 0.929 . S
C584 C583 1.399 . S
C584 C585 1.385 . S
C585 H571 0.931 . S
C585 C584 1.385 . S
C585 C586 1.389 . S
C586 C585 1.389 . S
C586 C587 1.387 . S
C587 H572 0.930 1_455 S
C587 C582 1.390 . S
C587 C586 1.387 . S
C289 C81 1.366 . S
C277 C0 1.519 . S
C304 C25 1.447 . S
C316 C155 1.387 . S
C331 C33 2.124 1_565 S
C343 C259 2.120 . S
C358 C11 0.807 . S
C370 C93 0.814 . S
C397 C167 0.815 . S
C385 C14 0.814 . S
C412 C37 1.570 . S
C424 C253 1.491 . S
C451 C185 2.119 . S
C439 C28 2.123 . S
C466 C9 1.569 1_565 S
C478 C229 1.508 . S
C505 C105 1.552 1_655 S
C493 C19 1.607 . S
C532 C179 1.373 . S
C520 C39 1.513 . S
C559 C241 0.834 . S
C547 C5 0.842 . S
C574 C23 2.221 . S
C586 C111 2.224 . S
