# Generated by pormake.
# Topology pyr, (3,6)-cn, num edge types: 1
# Building blocks:
#     Node 0, Type 0, BuildingBlock: PAMTOO_clean_linker_0, # of connection points: 3
#     Node 1, Type 0, BuildingBlock: PAMTOO_clean_linker_0, # of connection points: 3
#     Node 2, Type 0, BuildingBlock: PAMTOO_clean_linker_0, # of connection points: 3
#     Node 3, Type 0, BuildingBlock: PAMTOO_clean_linker_0, # of connection points: 3
#     Node 4, Type 0, BuildingBlock: PAMTOO_clean_linker_0, # of connection points: 3
#     Node 5, Type 0, BuildingBlock: PAMTOO_clean_linker_0, # of connection points: 3
#     Node 6, Type 0, BuildingBlock: PAMTOO_clean_linker_0, # of connection points: 3
#     Node 7, Type 0, BuildingBlock: PAMTOO_clean_linker_0, # of connection points: 3
#     Node 8, Type 1, BuildingBlock: BETDIP_clean_sbu_0, # of connection points: 6
#     Node 9, Type 1, BuildingBlock: BETDIP_clean_sbu_0, # of connection points: 6
#     Node 10, Type 1, BuildingBlock: BETDIP_clean_sbu_0, # of connection points: 6
#     Node 11, Type 1, BuildingBlock: BETDIP_clean_sbu_0, # of connection points: 6
#     Edge 12, Type (0, 1), BuildingBlock: OJICUG_clean_linker_0, # of connection points: 2
#     Edge 13, Type (0, 1), BuildingBlock: OJICUG_clean_linker_0, # of connection points: 2
#     Edge 14, Type (0, 1), BuildingBlock: OJICUG_clean_linker_0, # of connection points: 2
#     Edge 15, Type (0, 1), BuildingBlock: OJICUG_clean_linker_0, # of connection points: 2
#     Edge 16, Type (0, 1), BuildingBlock: OJICUG_clean_linker_0, # of connection points: 2
#     Edge 17, Type (0, 1), BuildingBlock: OJICUG_clean_linker_0, # of connection points: 2
#     Edge 18, Type (0, 1), BuildingBlock: OJICUG_clean_linker_0, # of connection points: 2
#     Edge 19, Type (0, 1), BuildingBlock: OJICUG_clean_linker_0, # of connection points: 2
#     Edge 20, Type (0, 1), BuildingBlock: OJICUG_clean_linker_0, # of connection points: 2
#     Edge 21, Type (0, 1), BuildingBlock: OJICUG_clean_linker_0, # of connection points: 2
#     Edge 22, Type (0, 1), BuildingBlock: OJICUG_clean_linker_0, # of connection points: 2
#     Edge 23, Type (0, 1), BuildingBlock: OJICUG_clean_linker_0, # of connection points: 2
#     Edge 24, Type (0, 1), BuildingBlock: OJICUG_clean_linker_0, # of connection points: 2
#     Edge 25, Type (0, 1), BuildingBlock: OJICUG_clean_linker_0, # of connection points: 2
#     Edge 26, Type (0, 1), BuildingBlock: OJICUG_clean_linker_0, # of connection points: 2
#     Edge 27, Type (0, 1), BuildingBlock: OJICUG_clean_linker_0, # of connection points: 2
#     Edge 28, Type (0, 1), BuildingBlock: OJICUG_clean_linker_0, # of connection points: 2
#     Edge 29, Type (0, 1), BuildingBlock: OJICUG_clean_linker_0, # of connection points: 2
#     Edge 30, Type (0, 1), BuildingBlock: OJICUG_clean_linker_0, # of connection points: 2
#     Edge 31, Type (0, 1), BuildingBlock: OJICUG_clean_linker_0, # of connection points: 2
#     Edge 32, Type (0, 1), BuildingBlock: OJICUG_clean_linker_0, # of connection points: 2
#     Edge 33, Type (0, 1), BuildingBlock: OJICUG_clean_linker_0, # of connection points: 2
#     Edge 34, Type (0, 1), BuildingBlock: OJICUG_clean_linker_0, # of connection points: 2
#     Edge 35, Type (0, 1), BuildingBlock: OJICUG_clean_linker_0, # of connection points: 2
# Relax obj value: 0.257
# Max RMSD: 0.304
# Mean RMSD: 0.154
data_MOF--net-pyr--node1-BETDIP_clean_sbu_0--node2-PAMTOO_clean_linker_0--edge1-OJICUG_clean_linker_0
_symmetry_space_group_name_H-M    P1
_symmetry_Int_Tables_number       1
_symmetry_cell_setting            triclinic
loop_
_symmetry_equiv_pos_as_xyz
'x, y, z'
_cell_length_a     26.187851
_cell_length_b     28.178949
_cell_length_c     26.333818
_cell_angle_alpha  90.579213
_cell_angle_beta   94.010485
_cell_angle_gamma 110.50851
loop_
_atom_site_label
_atom_site_type_symbol
_atom_site_fract_x
_atom_site_fract_y
_atom_site_fract_z
_atom_type_partial_charge
H0 H 0.3307 0.32461 0.35472 0.0
H1 H 0.49648 0.34497 0.40524 0.0
H2 H 0.45656 0.37242 0.24974 0.0
H3 H 0.55961 0.32354 0.36451 0.0
C4 C 0.56719 0.34091 0.3268 0.0
O5 O 0.53566 0.37067 0.31627 0.0
H6 H 0.61073 0.36641 0.33057 0.0
C7 C 0.373 0.3337 0.34646 0.0
C8 C 0.38886 0.34952 0.2978 0.0
C9 C 0.4114 0.33108 0.38507 0.0
C10 C 0.4663 0.34478 0.37488 0.0
C11 C 0.48231 0.35733 0.32559 0.0
C12 C 0.44358 0.36006 0.28706 0.0
H13 H 0.13008 0.85987 0.86822 0.0
H14 H 0.10527 0.82042 0.70804 0.0
H15 H 0.20734 0.76315 0.80483 0.0
H16 H 0.20816 0.83377 0.67939 0.0
C17 C 0.20225 0.79266 0.67614 0.0
O18 O 0.1672 0.76534 0.71102 0.0
H19 H 0.1829 0.77953 0.6372 0.0
C20 C 0.13566 0.83819 0.83617 0.0
C21 C 0.16922 0.8089 0.84308 0.0
C22 C 0.11337 0.84368 0.78763 0.0
C23 C 0.12143 0.8162 0.74607 0.0
C24 C 0.15554 0.7875 0.75226 0.0
C25 C 0.17978 0.78419 0.80061 0.0
H26 H 0.73522 0.36252 1.03011 0.0
H27 H 0.6191 0.35539 0.90372 0.0
H28 H 0.76683 0.48572 0.92667 0.0
H29 H 0.65405 0.49797 0.89804 0.0
C30 C 0.64341 0.471 0.86446 0.0
O31 O 0.6778 0.44301 0.86616 0.0
H32 H 0.6007 0.44484 0.86747 0.0
C33 C 0.72307 0.37978 0.99703 0.0
C34 C 0.75743 0.42789 0.98272 0.0
C35 C 0.67297 0.3534 0.9693 0.0
C36 C 0.65736 0.3754 0.9257 0.0
C37 C 0.6915 0.42301 0.9099 0.0
C38 C 0.74115 0.44898 0.93871 0.0
H39 H 0.89141 0.82757 0.52634 0.0
H40 H 0.87607 0.69416 0.43511 0.0
H41 H 1.0147 0.83088 0.42578 0.0
H42 H 0.95309 0.77397 0.32326 0.0
C43 C 0.94408 0.73464 0.33635 0.0
O44 O 0.96387 0.73713 0.38712 0.0
H45 H 0.89891 0.71526 0.33332 0.0
C46 C 0.90659 0.80806 0.49882 0.0
C47 C 0.95682 0.83484 0.47916 0.0
C48 C 0.87678 0.75684 0.48444 0.0
C49 C 0.89734 0.73345 0.44698 0.0
C50 C 0.946 0.76029 0.42444 0.0
C51 C 0.9763 0.81067 0.44166 0.0
H52 H 0.58593 0.87855 0.8775 0.0
H53 H 0.61988 0.84772 1.03308 0.0
H54 H 0.70242 0.80529 0.91653 0.0
H55 H 0.64589 0.72917 1.0007 0.0
C56 C 0.67945 0.75571 1.02662 0.0
O57 O 0.69035 0.8053 1.01315 0.0
H58 H 0.6659 0.75134 1.06588 0.0
C59 C 0.60639 0.86157 0.90501 0.0
C60 C 0.64485 0.84098 0.88949 0.0
C61 C 0.59877 0.86616 0.95676 0.0
C62 C 0.62385 0.84325 0.99278 0.0
C63 C 0.6598 0.81997 0.97759 0.0
C64 C 0.67073 0.81938 0.92638 0.0
H65 H 0.98267 0.29044 0.41378 0.0
H66 H 0.92646 0.41043 0.45743 0.0
H67 H 0.02134 0.35656 0.56567 0.0
H68 H 0.95583 0.41118 0.62783 0.0
C69 C 0.93249 0.39688 0.59055 0.0
O70 O 0.96669 0.41726 0.55239 0.0
H71 H 0.92006 0.35478 0.5906 0.0
C72 C 0.98224 0.31912 0.44132 0.0
C73 C 1.00628 0.31995 0.49076 0.0
C74 C 0.95339 0.3516 0.42855 0.0
C75 C 0.94981 0.38607 0.4659 0.0
C76 C 0.97485 0.388 0.51503 0.0
C77 C 1.00451 0.35622 0.52682 0.0
H78 H 0.37468 0.82152 0.19637 0.0
H79 H 0.35232 0.70358 0.3057 0.0
H80 H 0.48996 0.84254 0.32634 0.0
H81 H 0.5203 0.76055 0.36394 0.0
C82 C 0.47964 0.73066 0.36724 0.0
O83 O 0.43999 0.75304 0.36474 0.0
H84 H 0.47239 0.70359 0.33413 0.0
C85 C 0.38693 0.80726 0.23141 0.0
C86 C 0.43496 0.83819 0.25969 0.0
C87 C 0.35614 0.75807 0.24679 0.0
C88 C 0.37526 0.74037 0.29183 0.0
C89 C 0.42346 0.77043 0.32052 0.0
C90 C 0.45308 0.81926 0.30417 0.0
H91 H 0.08574 0.34063 0.87729 0.0
H92 H 0.21619 0.48155 0.85302 0.0
H93 H 0.19704 0.3495 0.76114 0.0
H94 H 0.31099 0.41439 0.79947 0.0
C95 C 0.30725 0.45203 0.79273 0.0
O96 O 0.25357 0.44578 0.77776 0.0
H97 H 0.31973 0.47451 0.82938 0.0
C98 C 0.12103 0.36215 0.85754 0.0
C99 C 0.13816 0.33807 0.81771 0.0
C100 C 0.14918 0.41434 0.87114 0.0
C101 C 0.19405 0.44172 0.84376 0.0
C102 C 0.21135 0.41829 0.80463 0.0
C103 C 0.18374 0.36679 0.79213 0.0
Tb104 Tb 0.98904 1.06149 0.64809 0.0
Tb105 Tb 0.10988 0.10246 0.6615 0.0
C106 C 0.88988 1.00633 0.63043 0.0
C107 C 0.84733 0.96828 0.65651 0.0
C108 C 0.79252 0.96253 0.64435 0.0
C109 C 0.75171 0.93117 0.67275 0.0
C110 C 0.76523 0.90504 0.71367 0.0
C111 C 0.81981 0.90828 0.72361 0.0
C112 C 0.86071 0.93993 0.69535 0.0
C113 C 0.03006 0.13991 0.71491 0.0
C114 C 0.05235 1.01129 0.72455 0.0
C115 C 0.20923 0.15725 0.6748 0.0
C116 C 0.25045 0.18488 0.64011 0.0
C117 C 0.27402 0.23792 0.64505 0.0
C118 C 0.30808 0.26524 0.60882 0.0
C119 C 0.31947 0.23983 0.56736 0.0
C120 C 0.2979 0.18661 0.56382 0.0
C121 C 0.26358 0.15937 0.59973 0.0
C122 C 0.06881 1.0258 0.59275 0.0
C123 C 0.04711 0.15264 0.58386 0.0
O124 O 0.93072 0.99352 0.61777 0.0
O125 O 0.90616 1.05248 0.64997 0.0
O126 O 0.04799 0.10407 0.70907 0.0
O127 O 0.98528 0.1298 0.68603 0.0
O128 O 1.00835 1.00449 0.69355 0.0
O129 O 0.09396 1.05465 0.72664 0.0
O130 O 0.16924 0.1743 0.67895 0.0
O131 O 0.19181 0.10775 0.67095 0.0
O132 O 0.05128 1.06143 0.60033 0.0
O133 O 0.11383 1.03525 0.62097 0.0
O134 O 0.09162 0.15895 0.61407 0.0
O135 O 1.00382 0.11075 0.58406 0.0
H136 H 0.78155 0.98395 0.61425 0.0
H137 H 0.7099 0.92923 0.66439 0.0
H138 H 0.83141 0.8891 0.7554 0.0
H139 H 0.90285 0.94384 0.70523 0.0
H140 H 0.26457 0.25834 0.676 0.0
H141 H 0.32452 0.30625 0.61258 0.0
H142 H 0.30539 0.16607 0.53188 0.0
H143 H 0.2459 0.1185 0.59472 0.0
Tb144 Tb 0.60771 0.11507 0.12433 0.0
Tb145 Tb 0.48725 0.08478 0.11001 0.0
C146 C 0.70849 0.16589 0.13347 0.0
C147 C 0.74383 0.20166 0.17307 0.0
C148 C 0.79251 0.23893 0.1607 0.0
C149 C 0.82638 0.27303 0.19841 0.0
C150 C 0.812 0.27022 0.24912 0.0
C151 C 0.76222 0.2335 0.26081 0.0
C152 C 0.72835 0.19975 0.2231 0.0
C153 C 0.55486 1.03344 0.17472 0.0
C154 C 0.54563 0.17213 0.18895 0.0
C155 C 0.38589 1.03686 1.09862 0.0
C156 C 0.35103 0.98567 1.08026 0.0
C157 C 0.29614 0.9766 1.06499 0.0
C158 C 0.26479 0.93186 1.03802 0.0
C159 C 0.28813 0.89567 1.0254 0.0
C160 C 0.34206 0.90318 1.04423 0.0
C161 C 0.37322 0.94781 1.07185 0.0
C162 C 0.54232 0.16567 1.05945 0.0
C163 C 0.54993 1.029 1.04717 0.0
O164 O 0.6723 0.18116 0.10909 0.0
O165 O 0.68754 0.11864 0.14628 0.0
O166 O 0.54128 1.07224 0.16876 0.0
O167 O 0.60147 1.04197 0.15586 0.0
O168 O 0.59188 0.17014 0.17377 0.0
O169 O 0.49769 0.13819 0.17315 0.0
O170 O 0.41525 1.04044 0.14165 0.0
O171 O 0.41387 1.06549 1.06407 0.0
O172 O 0.5536 0.12589 1.06539 0.0
O173 O 0.49693 0.15958 1.07975 0.0
O174 O 0.5058 1.02399 1.07117 0.0
O175 O 0.59417 1.06985 1.05475 0.0
H176 H 0.80451 0.24143 0.12198 0.0
H177 H 0.86401 0.30125 0.18795 0.0
H178 H 0.75015 0.22953 0.29949 0.0
H179 H 0.69046 0.1716 0.23321 0.0
H180 H 0.27841 1.00544 1.07122 0.0
H181 H 0.22363 0.92763 1.02351 0.0
H182 H 0.36093 0.87581 1.03531 0.0
H183 H 0.4153 0.95376 1.08429 0.0
Tb184 Tb 0.57858 0.65738 0.6448 0.0
Tb185 Tb 0.56505 0.55244 0.58519 0.0
C186 C 0.562 0.73713 0.66698 0.0
C187 C 0.51127 0.74833 0.6675 0.0
C188 C 0.46467 0.7196 0.63643 0.0
C189 C 0.41511 0.72714 0.6402 0.0
C190 C 0.41098 0.76325 0.67547 0.0
C191 C 0.45804 0.79231 0.7062 0.0
C192 C 0.50774 0.78483 0.70226 0.0
C193 C 0.62408 0.6 0.69869 0.0
C194 C 0.47454 0.55555 0.65706 0.0
C195 C 0.58201 0.47259 0.56405 0.0
C196 C 0.63228 0.46062 0.56926 0.0
C197 C 0.68083 0.49692 0.59097 0.0
C198 C 0.72956 0.48712 0.59364 0.0
C199 C 0.73063 0.44037 0.57542 0.0
C200 C 0.68144 0.40371 0.55442 0.0
C201 C 0.63272 0.41391 0.55114 0.0
C202 C 0.51622 0.60792 0.53239 0.0
C203 C 0.67209 0.65365 0.57721 0.0
O204 O 0.57589 0.72758 0.62209 0.0
O205 O 0.56688 0.70498 0.70088 0.0
O206 O 0.60062 0.59269 0.65436 0.0
O207 O 0.62599 0.6448 0.71338 0.0
O208 O 0.49651 0.606 0.66074 0.0
O209 O 0.49559 0.52693 0.63141 0.0
O210 O 0.56319 0.48057 0.60692 0.0
O211 O 0.58218 0.50676 0.53059 0.0
O212 O 0.54266 0.61697 0.57543 0.0
O213 O 0.51355 0.56264 0.5185 0.0
O214 O 0.64724 0.60379 0.56946 0.0
O215 O 0.65221 0.68261 0.60383 0.0
H216 H 0.46639 0.6908 0.6097 0.0
H217 H 0.38004 0.70472 0.61533 0.0
H218 H 0.45621 0.82003 0.73412 0.0
H219 H 0.54314 0.8068 0.72709 0.0
H220 H 0.68121 0.53314 0.60545 0.0
H221 H 0.76653 0.51663 0.60929 0.0
H222 H 0.68037 0.36695 0.54086 0.0
H223 H 0.59549 0.38544 0.53436 0.0
Tb224 Tb 0.05884 0.61536 1.07559 0.0
Tb225 Tb 0.06409 0.53825 0.14975 0.0
C226 C 0.02355 0.67125 1.02055 0.0
C227 C 0.97351 0.6837 1.02126 0.0
C228 C 0.92567 0.64859 1.0385 0.0
C229 C 0.87807 0.6602 1.03894 0.0
C230 C 0.87765 0.70748 1.02295 0.0
C231 C 0.92586 0.74292 1.0065 0.0
C232 C 0.97339 0.731 1.00546 0.0
C233 C 0.15754 0.63552 0.12339 0.0
C234 C 0.01971 0.62 0.18836 0.0
C235 C 0.0977 0.48276 0.20716 0.0
C236 C 0.13637 0.45558 0.20507 0.0
C237 C 0.17985 0.47098 0.1734 0.0
C238 C 0.21992 0.44854 0.17656 0.0
C239 C 0.21707 0.41025 0.21134 0.0
C240 C 0.17197 0.39357 0.24126 0.0
C241 C 0.13209 0.41604 0.23812 0.0
C242 C 0.96583 0.52049 0.10298 0.0
C243 C 0.09719 0.52953 1.03482 0.0
O244 O 0.01593 0.62403 1.0084 0.0
O245 O 0.05937 0.68855 1.0596 0.0
O246 O 0.1118 0.61629 0.14174 0.0
O247 O 0.14813 0.64786 1.07725 0.0
O248 O 1.01463 0.62973 0.13937 0.0
O249 O 0.04271 0.58694 0.20312 0.0
O250 O 0.11948 0.53226 0.20816 0.0
O251 O 0.05287 0.46556 0.17691 0.0
O252 O 1.01132 0.53797 1.0841 0.0
O253 O 0.97434 0.50908 0.14975 0.0
O254 O 0.09952 0.51629 1.08303 0.0
O255 O 0.0799 0.56694 1.02197 0.0
H256 H 0.92508 0.61214 1.0517 0.0
H257 H 0.84179 0.63247 1.05249 0.0
H258 H 0.92657 0.77957 0.99381 0.0
H259 H 1.01 0.75865 0.99234 0.0
H260 H 0.18378 0.50143 0.14745 0.0
H261 H 0.25378 0.46197 0.15267 0.0
H262 H 0.16878 0.36483 0.26909 0.0
H263 H 0.09893 0.40378 0.26295 0.0
C264 C 0.35673 0.32981 0.4596 0.0
C265 C 0.39362 0.31272 0.43556 0.0
H266 H 0.30459 0.32021 0.52057 0.0
C267 C 0.41038 0.27512 0.4582 0.0
H268 H 0.34368 0.35919 0.44319 0.0
C269 C 0.38825 0.25298 0.50258 0.0
C270 C 0.3493 0.26834 0.52524 0.0
H271 H 0.43864 0.26115 0.44029 0.0
H272 H 0.40035 0.22281 0.51835 0.0
C273 C 0.33486 0.30791 0.50414 0.0
C274 C 0.25722 0.83066 0.89635 0.0
C275 C 0.19984 0.81251 0.89323 0.0
H276 H 0.33078 0.87125 0.9419 0.0
C277 C 0.17296 0.80975 0.93807 0.0
H278 H 0.27896 0.8333 0.86236 0.0
C279 C 0.20264 0.83157 0.98374 0.0
C280 C 0.25955 0.85638 0.98512 0.0
H281 H 0.12869 0.79517 0.93671 0.0
H282 H 0.18064 0.83321 1.01668 0.0
C283 C 0.28693 0.85246 0.94206 0.0
C284 C 0.60846 0.48076 0.7732 0.0
C285 C 0.64616 0.5007 0.81577 0.0
H286 H 0.57137 0.4963 0.70284 0.0
C287 C 0.68159 0.5514 0.81497 0.0
H288 H 0.5803 0.44196 0.77273 0.0
C289 C 0.67657 0.58237 0.77482 0.0
C290 C 0.63668 0.56343 0.73377 0.0
H291 H 0.71101 0.56801 0.84702 0.0
H292 H 0.70234 0.62206 0.77712 0.0
C293 C 0.60368 0.5118 0.73273 0.0
C294 C 0.98537 0.66617 0.31554 0.0
C295 C 0.96776 0.70609 0.30022 0.0
H296 H 0.01597 0.60807 0.29286 0.0
C297 C 0.966 0.71596 0.24792 0.0
H298 H 0.98583 0.65639 0.35517 0.0
C299 C 0.98224 0.68787 0.21214 0.0
C300 C 1.00073 0.64847 0.2272 0.0
H301 H 0.95128 0.74541 0.23445 0.0
H302 H 0.98028 0.69726 0.17243 0.0
C303 C 1.00219 0.63813 0.27959 0.0
C304 C 0.60152 0.30034 0.25783 0.0
C305 C 0.55831 0.29962 0.28674 0.0
H306 H 0.63155 0.26058 0.20504 0.0
C307 C 0.50962 0.25716 0.28218 0.0
H308 H 0.63961 0.3324 0.26087 0.0
C309 C 0.50472 0.21571 0.24985 0.0
C310 C 0.54886 0.21577 0.22237 0.0
H311 H 0.47604 0.25537 0.30478 0.0
H312 H 0.46708 0.18318 0.24745 0.0
C313 C 0.59698 0.25885 0.22625 0.0
C314 C 0.04398 0.87671 0.74538 0.0
C315 C 0.09033 0.88441 0.77912 0.0
H316 H 0.99434 0.91097 0.7028 0.0
C317 C 0.11876 0.9333 0.80067 0.0
H318 H 0.02114 0.8394 0.72849 0.0
C319 C 0.10364 0.97425 0.78597 0.0
C320 C 0.05957 0.96717 0.74964 0.0
H321 H 0.15505 0.94066 0.82638 0.0
H322 H 0.12843 1.01188 0.80092 0.0
C323 C 0.02843 0.91768 0.73108 0.0
C324 C 0.85846 0.4816 0.99015 0.0
C325 C 0.81038 0.45518 1.01368 0.0
H326 H 0.94499 0.52265 0.99966 0.0
C327 C 0.8138 0.45326 1.06727 0.0
H328 H 0.85777 0.48367 0.94909 0.0
C329 C 0.86389 0.47553 1.09623 0.0
C330 C 0.91206 0.50045 1.07251 0.0
H331 H 0.77766 0.43422 1.08702 0.0
H332 H 0.86502 0.47252 0.13723 0.0
C333 C 0.90862 0.50383 1.01917 0.0
C334 C 0.81652 0.7422 0.55877 0.0
C335 C 0.82474 0.72846 0.509 0.0
H336 H 0.76208 0.73043 0.61852 0.0
C337 C 0.78222 0.68805 0.48304 0.0
H338 H 0.8483 0.77147 0.58145 0.0
C339 C 0.73341 0.6629 0.50575 0.0
C340 C 0.72495 0.67831 0.55442 0.0
H341 H 0.78579 0.67632 0.44462 0.0
H342 H 0.70148 0.63237 0.48447 0.0
C343 C 0.76706 0.7182 0.58063 0.0
C344 C 0.29533 0.32527 0.25327 0.0
C345 C 0.34878 0.36056 0.2617 0.0
H346 H 0.21177 0.31292 0.22921 0.0
C347 C 0.36009 0.41 0.24471 0.0
H348 H 0.28565 0.2868 0.26578 0.0
C349 C 0.31766 0.42527 0.22451 0.0
C350 C 0.2632 0.39125 0.22074 0.0
H351 H 0.40083 0.43807 0.25125 0.0
H352 H 0.32706 0.46476 0.21581 0.0
C353 C 0.25301 0.3404 0.23281 0.0
C354 C 0.58623 0.29794 1.00545 0.0
C355 C 0.63714 0.30342 0.9874 0.0
H356 H 0.51716 0.25074 1.04299 0.0
C357 C 0.65563 0.26217 0.99098 0.0
H358 H 0.57113 0.32915 1.00364 0.0
C359 C 0.62415 0.21671 1.01253 0.0
C360 C 0.57434 0.21204 1.03272 0.0
H361 H 0.69474 0.26529 0.9774 0.0
H362 H 0.63934 0.18559 1.01418 0.0
C363 C 0.55549 0.25304 1.0282 0.0
C364 C 0.04066 0.89667 0.52739 0.0
C365 C 0.98923 0.8869 0.50111 0.0
H366 H 0.10539 0.9476 0.57737 0.0
C367 C 0.96585 0.92496 0.50222 0.0
H368 H 0.05942 0.86797 0.52793 0.0
C369 C 0.99259 0.97104 0.52995 0.0
C370 C 0.04255 0.9796 0.55861 0.0
H371 H 0.92616 0.91853 0.4825 0.0
H372 H 0.97338 0.99938 0.53004 0.0
C373 C 0.06677 0.94224 0.55604 0.0
C374 C 0.3055 0.82642 0.68711 0.0
C375 C 0.25629 0.7847 0.68166 0.0
H376 H 0.39283 0.85251 0.68885 0.0
C377 C 0.25818 0.73576 0.67664 0.0
H378 H 0.3051 0.86462 0.69058 0.0
C379 C 0.30839 0.7287 0.67592 0.0
C380 C 0.35778 0.77052 0.67981 0.0
H381 H 0.2207 0.70309 0.6721 0.0
H382 H 0.30846 0.69044 0.67184 0.0
C383 C 0.35573 0.81942 0.68625 0.0
C384 C 0.68907 0.81945 0.81438 0.0
C385 C 0.66587 0.85134 0.83799 0.0
H386 H 0.73922 0.81147 0.75601 0.0
C387 C 0.66958 0.89734 0.81521 0.0
H388 H 0.68618 0.78331 0.83006 0.0
C389 C 0.69828 0.91242 0.77224 0.0
C390 C 0.72513 0.8826 0.75137 0.0
H391 H 0.65392 0.92397 0.83236 0.0
H392 H 0.70299 0.94947 0.75778 0.0
C393 C 0.71908 0.83527 0.7718 0.0
C394 C 0.86542 0.33908 0.37678 0.0
C395 C 0.92056 0.34315 0.37883 0.0
H396 H 0.78795 0.31411 0.33343 0.0
C397 C 0.94144 0.33109 0.3347 0.0
H398 H 0.84797 0.34798 0.41009 0.0
C399 C 0.90675 0.31047 0.29118 0.0
C400 C 0.85051 0.30197 0.2907 0.0
H401 H 0.98402 0.33468 0.33487 0.0
H402 H 0.9235 0.29799 0.25934 0.0
C403 C 0.8308 0.31889 0.33305 0.0
C404 C 0.52041 0.72436 0.45726 0.0
C405 C 0.48097 0.70235 0.41638 0.0
H406 H 0.56297 0.71205 0.52591 0.0
C407 C 0.44816 0.65098 0.41886 0.0
H408 H 0.54668 0.76374 0.45644 0.0
C409 C 0.45742 0.6215 0.4588 0.0
C410 C 0.49914 0.6426 0.49797 0.0
H411 H 0.41756 0.63278 0.38812 0.0
H412 H 0.43353 0.58134 0.45767 0.0
C413 C 0.52946 0.69482 0.49752 0.0
C414 C 0.1251 0.42292 0.96221 0.0
C415 C 0.13257 0.44177 0.91286 0.0
H416 H 0.10962 0.43589 1.03949 0.0
C417 C 0.12836 0.48964 0.90443 0.0
H418 H 0.1286 0.38654 0.97038 0.0
C419 C 0.1173 0.51784 0.94382 0.0
C420 C 0.11082 0.49962 0.99345 0.0
H421 H 0.1337 0.50549 0.86703 0.0
H422 H 0.11422 0.5543 0.93529 0.0
C423 C 0.11483 0.4516 1.00202 0.0
C424 C 0.54047 0.89591 1.01214 0.0
C425 C 0.57702 0.90511 0.97376 0.0
H426 H 0.50178 0.92841 1.06475 0.0
C427 C 0.59912 0.95446 0.9558 0.0
H428 H 0.52319 0.8583 1.02678 0.0
C429 C 0.58776 0.99439 0.97789 0.0
C430 C 0.55328 0.9857 1.01775 0.0
H431 H 0.62812 0.96289 0.92681 0.0
H432 H 0.60771 1.03245 0.96518 0.0
C433 C 0.52809 0.93591 1.03357 0.0
C434 C 0.06978 0.28561 0.54147 0.0
C435 C 0.02357 0.27736 0.50732 0.0
H436 H 0.11426 0.2522 0.59193 0.0
C437 C 0.98953 0.22728 0.49373 0.0
H438 H 0.09686 0.32379 0.55238 0.0
C439 C 0.99936 0.18647 0.51624 0.0
C440 C 0.04349 0.19478 0.5528 0.0
H441 H 0.95313 0.21954 0.4681 0.0
H442 H 0.97074 0.14853 0.50678 0.0
C443 C 0.07985 0.24461 0.56384 0.0
C444 C 0.28621 0.6722 0.21465 0.0
C445 C 0.30435 0.72582 0.21582 0.0
H446 H 0.2256 0.60173 0.18515 0.0
C447 C 0.27247 0.74847 0.18644 0.0
H448 H 0.30937 0.65271 0.23574 0.0
C449 C 0.22555 0.71901 0.15621 0.0
C450 C 0.20787 0.66587 0.15527 0.0
H451 H 0.28312 0.78919 0.18695 0.0
H452 H 0.20243 0.73794 0.13405 0.0
C453 C 0.23828 0.64268 0.18524 0.0
C454 C 0.36241 0.45126 0.71752 0.0
C455 C 0.3451 0.47897 0.75285 0.0
H456 H 0.41642 0.45343 0.65952 0.0
C457 C 0.36609 0.53219 0.75241 0.0
H458 H 0.34637 0.4102 0.7166 0.0
C459 C 0.40624 0.55721 0.71958 0.0
C460 C 0.42618 0.52952 0.68628 0.0
H461 H 0.35294 0.55442 0.77889 0.0
H462 H 0.42305 0.59826 0.72175 0.0
C463 C 0.40259 0.47618 0.68478 0.0
C464 C 0.78116 0.77765 1.04627 0.0
C465 C 0.7308 0.74313 1.02538 0.0
H466 H 0.86718 0.79363 1.06126 0.0
C467 C 0.72883 0.69635 1.00468 0.0
H468 H 0.7836 0.81357 1.0634 0.0
C469 C 0.7765 0.68473 1.00393 0.0
C470 C 0.82708 0.71975 1.02376 0.0
H471 H 0.69043 0.66884 0.98892 0.0
H472 H 0.77395 0.64857 0.98728 0.0
C473 C 0.82892 0.76631 1.04496 0.0
C474 C 0.51971 0.90044 0.2261 0.0
C475 C 0.46661 0.88966 0.24133 0.0
H476 H 0.58819 0.9534 0.19255 0.0
C477 C 0.44303 0.92749 0.23629 0.0
H478 H 0.53888 0.87209 0.22914 0.0
C479 C 0.47194 0.97491 0.21648 0.0
C480 C 0.52433 0.98501 0.19947 0.0
H481 H 0.40219 0.92038 0.24785 0.0
H482 H 0.45308 1.00339 0.21425 0.0
C483 C 0.54786 0.94714 0.205 0.0
C484 C 0.135 0.24917 0.79596 0.0
C485 C 0.10769 0.28417 0.7993 0.0
H486 H 0.1316 0.17561 0.76891 0.0
C487 C 0.05349 0.26947 0.77793 0.0
H488 H 0.17694 0.2594 0.81171 0.0
C489 C 0.02828 0.22222 0.75183 0.0
C490 C 0.05609 0.18781 0.74706 0.0
H491 H 0.03154 0.29563 0.77907 0.0
H492 H 0.9872 0.21315 0.7342 0.0
C493 C 0.10923 0.20131 0.77095 0.0
C494 C 0.87073 0.43971 0.62335 0.0
C495 C 0.88175 0.41048 0.58509 0.0
H496 H 0.814 0.47062 0.65129 0.0
C497 C 0.84308 0.39116 0.54348 0.0
H498 H 0.89955 0.45441 0.65624 0.0
C499 C 0.79437 0.40126 0.53995 0.0
C500 C 0.78285 0.43012 0.57852 0.0
H501 H 0.85016 0.36763 0.51404 0.0
H502 H 0.76588 0.3865 0.50689 0.0
C503 C 0.82174 0.44918 0.62029 0.0
loop_
_geom_bond_atom_site_label_1
_geom_bond_atom_site_label_2
_geom_bond_distance
_geom_bond_site_symmetry_2
_ccdc_geom_bond_type
H0 C7 0.929 . S
H1 C10 0.930 . S
H2 C12 0.929 . S
H3 C4 0.969 . S
C4 H3 0.969 . S
C4 O5 1.550 . S
C4 H6 0.973 . S
O5 C4 1.550 . S
O5 C11 1.412 . S
H6 C4 0.973 . S
C7 H0 0.929 . S
C7 C8 1.400 . S
C7 C9 1.364 . S
C8 C7 1.400 . S
C8 C12 1.377 . S
C9 C7 1.364 . S
C9 C10 1.374 . S
C10 H1 0.930 . S
C10 C9 1.374 . S
C10 C11 1.383 . S
C11 O5 1.412 . S
C11 C10 1.383 . S
C11 C12 1.394 . S
C12 H2 0.929 . S
C12 C8 1.377 . S
C12 C11 1.394 . S
H13 C20 0.929 . S
H14 C23 0.930 . S
H15 C25 0.929 . S
H16 C17 0.969 . S
C17 H16 0.969 . S
C17 O18 1.550 . S
C17 H19 0.973 . S
O18 C17 1.550 . S
O18 C24 1.412 . S
H19 C17 0.973 . S
C20 H13 0.929 . S
C20 C21 1.400 . S
C20 C22 1.364 . S
C21 C20 1.400 . S
C21 C25 1.377 . S
C22 C20 1.364 . S
C22 C23 1.374 . S
C23 H14 0.930 . S
C23 C22 1.374 . S
C23 C24 1.383 . S
C24 O18 1.412 . S
C24 C23 1.383 . S
C24 C25 1.394 . S
C25 H15 0.929 . S
C25 C21 1.377 . S
C25 C24 1.394 . S
H26 C33 0.929 . S
H27 C36 0.930 . S
H28 C38 0.929 . S
H29 C30 0.969 . S
C30 H29 0.969 . S
C30 O31 1.550 . S
C30 H32 0.973 . S
O31 C30 1.550 . S
O31 C37 1.412 . S
H32 C30 0.973 . S
C33 H26 0.929 . S
C33 C34 1.400 . S
C33 C35 1.364 . S
C34 C33 1.400 . S
C34 C38 1.377 . S
C35 C33 1.364 . S
C35 C36 1.374 . S
C36 H27 0.930 . S
C36 C35 1.374 . S
C36 C37 1.383 . S
C37 O31 1.412 . S
C37 C36 1.383 . S
C37 C38 1.394 . S
C38 H28 0.929 . S
C38 C34 1.377 . S
C38 C37 1.394 . S
H39 C46 0.929 . S
H40 C49 0.930 . S
H41 C51 0.929 . S
H42 C43 0.969 . S
C43 H42 0.969 . S
C43 O44 1.550 . S
C43 H45 0.973 . S
O44 C43 1.550 . S
O44 C50 1.412 . S
H45 C43 0.973 . S
C46 H39 0.929 . S
C46 C47 1.400 . S
C46 C48 1.364 . S
C47 C46 1.400 . S
C47 C51 1.377 . S
C48 C46 1.364 . S
C48 C49 1.374 . S
C49 H40 0.930 . S
C49 C48 1.374 . S
C49 C50 1.383 . S
C50 O44 1.412 . S
C50 C49 1.383 . S
C50 C51 1.394 . S
C51 H41 0.929 . S
C51 C47 1.377 . S
C51 C50 1.394 . S
H52 C59 0.929 . S
H53 C62 0.930 . S
H54 C64 0.929 . S
H55 C56 0.969 . S
C56 H55 0.969 . S
C56 O57 1.550 . S
C56 H58 0.973 . S
O57 C56 1.550 . S
O57 C63 1.412 . S
H58 C56 0.973 . S
C59 H52 0.929 . S
C59 C60 1.400 . S
C59 C61 1.364 . S
C60 C59 1.400 . S
C60 C64 1.377 . S
C61 C59 1.364 . S
C61 C62 1.374 . S
C62 H53 0.930 . S
C62 C61 1.374 . S
C62 C63 1.383 . S
C63 O57 1.412 . S
C63 C62 1.383 . S
C63 C64 1.394 . S
C64 H54 0.929 . S
C64 C60 1.377 . S
C64 C63 1.394 . S
H65 C72 0.929 . S
H66 C75 0.930 . S
H67 C77 0.929 . S
H68 C69 0.969 . S
C69 H68 0.969 . S
C69 O70 1.550 . S
C69 H71 0.973 . S
O70 C69 1.550 . S
O70 C76 1.412 . S
H71 C69 0.973 . S
C72 H65 0.929 . S
C72 C73 1.400 1_655 S
C72 C74 1.364 . S
C73 C72 1.400 1_455 S
C73 C77 1.377 . S
C74 C72 1.364 . S
C74 C75 1.374 . S
C75 H66 0.930 . S
C75 C74 1.374 . S
C75 C76 1.383 . S
C76 O70 1.412 . S
C76 C75 1.383 . S
C76 C77 1.394 1_655 S
C77 H67 0.929 . S
C77 C73 1.377 . S
C77 C76 1.394 1_455 S
H78 C85 0.929 . S
H79 C88 0.930 . S
H80 C90 0.929 . S
H81 C82 0.969 . S
C82 H81 0.969 . S
C82 O83 1.550 . S
C82 H84 0.973 . S
O83 C82 1.550 . S
O83 C89 1.412 . S
H84 C82 0.973 . S
C85 H78 0.929 . S
C85 C86 1.400 . S
C85 C87 1.364 . S
C86 C85 1.400 . S
C86 C90 1.377 . S
C87 C85 1.364 . S
C87 C88 1.374 . S
C88 H79 0.930 . S
C88 C87 1.374 . S
C88 C89 1.383 . S
C89 O83 1.412 . S
C89 C88 1.383 . S
C89 C90 1.394 . S
C90 H80 0.929 . S
C90 C86 1.377 . S
C90 C89 1.394 . S
H91 C98 0.929 . S
H92 C101 0.930 . S
H93 C103 0.929 . S
H94 C95 0.969 . S
C95 H94 0.969 . S
C95 O96 1.550 . S
C95 H97 0.973 . S
O96 C95 1.550 . S
O96 C102 1.412 . S
H97 C95 0.973 . S
C98 H91 0.929 . S
C98 C99 1.400 . S
C98 C100 1.364 . S
C99 C98 1.400 . S
C99 C103 1.377 . S
C100 C98 1.364 . S
C100 C101 1.374 . S
C101 H92 0.930 . S
C101 C100 1.374 . S
C101 C102 1.383 . S
C102 O96 1.412 . S
C102 C101 1.383 . S
C102 C103 1.394 . S
C103 H93 0.929 . S
C103 C99 1.377 . S
C103 C102 1.394 . S
Tb104 C106 2.809 1_545 S
Tb104 O124 2.484 1_545 S
Tb104 O125 2.440 1_545 S
Tb104 O126 2.658 1_655 S
Tb104 O127 2.409 1_655 S
Tb104 O128 2.378 1_645 S
Tb104 O132 2.325 1_545 S
Tb104 O135 2.341 . S
Tb105 C115 2.809 . S
Tb105 O126 2.325 . S
Tb105 O129 2.341 1_545 S
Tb105 O130 2.484 . S
Tb105 O131 2.440 . S
Tb105 O132 2.658 1_445 S
Tb105 O133 2.409 1_545 S
Tb105 O134 2.378 . S
C106 Tb104 2.809 1_565 S
C106 C107 1.514 . S
C106 O124 1.248 . S
C106 O125 1.266 . S
C107 C106 1.514 . S
C107 C108 1.359 . S
C107 C112 1.348 . S
C108 C107 1.359 . S
C108 C109 1.380 . S
C108 H136 0.929 . S
C109 C108 1.380 . S
C109 C110 1.347 . S
C109 H137 0.931 . S
C110 C109 1.347 . S
C110 C111 1.369 . S
C111 C110 1.369 . S
C111 C112 1.408 . S
C111 H138 0.930 . S
C112 C107 1.348 . S
C112 C111 1.408 . S
C112 H139 0.930 . S
C113 O126 1.281 . S
C113 O127 1.254 . S
C114 O128 1.236 . S
C114 O129 1.266 . S
C115 Tb105 2.809 . S
C115 C116 1.514 . S
C115 O130 1.248 . S
C115 O131 1.266 . S
C116 C115 1.514 . S
C116 C117 1.359 . S
C116 C121 1.348 . S
C117 C116 1.359 . S
C117 C118 1.380 . S
C117 H140 0.929 . S
C118 C117 1.380 . S
C118 C119 1.347 . S
C118 H141 0.931 . S
C119 C118 1.347 . S
C119 C120 1.369 . S
C120 C119 1.369 . S
C120 C121 1.408 . S
C120 H142 0.930 . S
C121 C116 1.348 . S
C121 C120 1.408 . S
C121 H143 0.930 . S
C122 O132 1.281 . S
C122 O133 1.254 1_655 S
C123 O134 1.236 1_655 S
C123 O135 1.266 . S
O124 Tb104 2.484 1_565 S
O124 C106 1.248 . S
O125 Tb104 2.440 1_565 S
O125 C106 1.266 . S
O126 Tb104 2.658 1_455 S
O126 Tb105 2.325 . S
O126 C113 1.281 . S
O127 Tb104 2.409 1_455 S
O127 C113 1.254 . S
O128 Tb104 2.378 1_465 S
O128 C114 1.236 . S
O129 Tb105 2.341 1_565 S
O129 C114 1.266 . S
O130 Tb105 2.484 . S
O130 C115 1.248 . S
O131 Tb105 2.440 . S
O131 C115 1.266 . S
O132 Tb104 2.325 1_565 S
O132 Tb105 2.658 1_665 S
O132 C122 1.281 . S
O133 Tb105 2.409 1_565 S
O133 C122 1.254 1_455 S
O134 Tb105 2.378 . S
O134 C123 1.236 1_455 S
O135 Tb104 2.341 . S
O135 C123 1.266 . S
H136 C108 0.929 . S
H137 C109 0.931 . S
H138 C111 0.930 . S
H139 C112 0.930 . S
H140 C117 0.929 . S
H141 C118 0.931 . S
H142 C120 0.930 . S
H143 C121 0.930 . S
Tb144 C146 2.809 . S
Tb144 O164 2.484 . S
Tb144 O165 2.440 . S
Tb144 O166 2.658 1_545 S
Tb144 O167 2.409 1_545 S
Tb144 O168 2.378 . S
Tb144 O172 2.325 1_554 S
Tb144 O175 2.341 1_544 S
Tb145 C155 2.809 1_545 S
Tb145 O166 2.325 1_546 S
Tb145 O169 2.341 1_556 S
Tb145 O170 2.484 1_545 S
Tb145 O171 2.440 1_545 S
Tb145 O172 2.658 . S
Tb145 O173 2.409 . S
Tb145 O174 2.378 1_545 S
C146 Tb144 2.809 . S
C146 C147 1.514 . S
C146 O164 1.248 . S
C146 O165 1.266 . S
C147 C146 1.514 . S
C147 C148 1.359 . S
C147 C152 1.348 . S
C148 C147 1.359 . S
C148 C149 1.380 . S
C148 H176 0.929 . S
C149 C148 1.380 . S
C149 C150 1.347 . S
C149 H177 0.931 . S
C150 C149 1.347 . S
C150 C151 1.369 . S
C151 C150 1.369 . S
C151 C152 1.408 . S
C151 H178 0.930 . S
C152 C147 1.348 . S
C152 C151 1.408 . S
C152 H179 0.930 . S
C153 O166 1.281 . S
C153 O167 1.254 . S
C154 O168 1.236 . S
C154 O169 1.266 . S
C155 Tb145 2.809 1_565 S
C155 C156 1.514 . S
C155 O170 1.248 . S
C155 O171 1.266 . S
C156 C155 1.514 . S
C156 C157 1.359 . S
C156 C161 1.348 . S
C157 C156 1.359 . S
C157 C158 1.380 . S
C157 H180 0.929 . S
C158 C157 1.380 . S
C158 C159 1.347 . S
C158 H181 0.931 . S
C159 C158 1.347 . S
C159 C160 1.369 . S
C160 C159 1.369 . S
C160 C161 1.408 . S
C160 H182 0.930 . S
C161 C156 1.348 . S
C161 C160 1.408 . S
C161 H183 0.930 . S
C162 O172 1.281 . S
C162 O173 1.254 . S
C163 O174 1.236 . S
C163 O175 1.266 . S
O164 Tb144 2.484 . S
O164 C146 1.248 . S
O165 Tb144 2.440 . S
O165 C146 1.266 . S
O166 Tb144 2.658 1_565 S
O166 Tb145 2.325 1_564 S
O166 C153 1.281 . S
O167 Tb144 2.409 1_565 S
O167 C153 1.254 . S
O168 Tb144 2.378 . S
O168 C154 1.236 . S
O169 Tb145 2.341 1_554 S
O169 C154 1.266 . S
O170 Tb145 2.484 1_565 S
O170 C155 1.248 . S
O171 Tb145 2.440 1_565 S
O171 C155 1.266 . S
O172 Tb144 2.325 1_556 S
O172 Tb145 2.658 . S
O172 C162 1.281 . S
O173 Tb145 2.409 . S
O173 C162 1.254 . S
O174 Tb145 2.378 1_565 S
O174 C163 1.236 . S
O175 Tb144 2.341 1_566 S
O175 C163 1.266 . S
H176 C148 0.929 . S
H177 C149 0.931 . S
H178 C151 0.930 . S
H179 C152 0.930 . S
H180 C157 0.929 . S
H181 C158 0.931 . S
H182 C160 0.930 . S
H183 C161 0.930 . S
Tb184 C186 2.809 . S
Tb184 O204 2.484 . S
Tb184 O205 2.440 . S
Tb184 O206 2.658 . S
Tb184 O207 2.409 . S
Tb184 O208 2.378 . S
Tb184 O212 2.325 . S
Tb184 O215 2.341 . S
Tb185 C195 2.809 . S
Tb185 O206 2.325 . S
Tb185 O209 2.341 . S
Tb185 O210 2.484 . S
Tb185 O211 2.440 . S
Tb185 O212 2.658 . S
Tb185 O213 2.409 . S
Tb185 O214 2.378 . S
C186 Tb184 2.809 . S
C186 C187 1.514 . S
C186 O204 1.248 . S
C186 O205 1.266 . S
C187 C186 1.514 . S
C187 C188 1.359 . S
C187 C192 1.348 . S
C188 C187 1.359 . S
C188 C189 1.380 . S
C188 H216 0.929 . S
C189 C188 1.380 . S
C189 C190 1.347 . S
C189 H217 0.931 . S
C190 C189 1.347 . S
C190 C191 1.369 . S
C191 C190 1.369 . S
C191 C192 1.408 . S
C191 H218 0.930 . S
C192 C187 1.348 . S
C192 C191 1.408 . S
C192 H219 0.930 . S
C193 O206 1.281 . S
C193 O207 1.254 . S
C194 O208 1.236 . S
C194 O209 1.266 . S
C195 Tb185 2.809 . S
C195 C196 1.514 . S
C195 O210 1.248 . S
C195 O211 1.266 . S
C196 C195 1.514 . S
C196 C197 1.359 . S
C196 C201 1.348 . S
C197 C196 1.359 . S
C197 C198 1.380 . S
C197 H220 0.929 . S
C198 C197 1.380 . S
C198 C199 1.347 . S
C198 H221 0.931 . S
C199 C198 1.347 . S
C199 C200 1.369 . S
C200 C199 1.369 . S
C200 C201 1.408 . S
C200 H222 0.930 . S
C201 C196 1.348 . S
C201 C200 1.408 . S
C201 H223 0.930 . S
C202 O212 1.281 . S
C202 O213 1.254 . S
C203 O214 1.236 . S
C203 O215 1.266 . S
O204 Tb184 2.484 . S
O204 C186 1.248 . S
O205 Tb184 2.440 . S
O205 C186 1.266 . S
O206 Tb184 2.658 . S
O206 Tb185 2.325 . S
O206 C193 1.281 . S
O207 Tb184 2.409 . S
O207 C193 1.254 . S
O208 Tb184 2.378 . S
O208 C194 1.236 . S
O209 Tb185 2.341 . S
O209 C194 1.266 . S
O210 Tb185 2.484 . S
O210 C195 1.248 . S
O211 Tb185 2.440 . S
O211 C195 1.266 . S
O212 Tb184 2.325 . S
O212 Tb185 2.658 . S
O212 C202 1.281 . S
O213 Tb185 2.409 . S
O213 C202 1.254 . S
O214 Tb185 2.378 . S
O214 C203 1.236 . S
O215 Tb184 2.341 . S
O215 C203 1.266 . S
H216 C188 0.929 . S
H217 C189 0.931 . S
H218 C191 0.930 . S
H219 C192 0.930 . S
H220 C197 0.929 . S
H221 C198 0.931 . S
H222 C200 0.930 . S
H223 C201 0.930 . S
Tb224 C226 2.809 1_455 S
Tb224 O244 2.484 1_455 S
Tb224 O245 2.440 . S
Tb224 O246 2.658 . S
Tb224 O247 2.409 . S
Tb224 O248 2.378 1_455 S
Tb224 O252 2.325 1_455 S
Tb224 O255 2.341 1_554 S
Tb225 C235 2.809 . S
Tb225 O246 2.325 . S
Tb225 O249 2.341 1_455 S
Tb225 O250 2.484 . S
Tb225 O251 2.440 . S
Tb225 O252 2.658 1_455 S
Tb225 O253 2.409 1_455 S
Tb225 O254 2.378 . S
C226 Tb224 2.809 1_655 S
C226 C227 1.514 . S
C226 O244 1.248 . S
C226 O245 1.266 1_655 S
C227 C226 1.514 . S
C227 C228 1.359 1_554 S
C227 C232 1.348 . S
C228 C227 1.359 1_556 S
C228 C229 1.380 . S
C228 H256 0.929 . S
C229 C228 1.380 . S
C229 C230 1.347 . S
C229 H257 0.931 . S
C230 C229 1.347 . S
C230 C231 1.368 1_556 S
C231 C230 1.368 1_554 S
C231 C232 1.409 . S
C231 H258 0.931 . S
C232 C227 1.348 . S
C232 C231 1.409 . S
C232 H259 0.930 . S
C233 O246 1.281 . S
C233 O247 1.254 . S
C234 O248 1.236 . S
C234 O249 1.266 . S
C235 Tb225 2.809 . S
C235 C236 1.514 . S
C235 O250 1.248 . S
C235 O251 1.266 . S
C236 C235 1.514 . S
C236 C237 1.359 . S
C236 C241 1.348 . S
C237 C236 1.359 . S
C237 C238 1.380 . S
C237 H260 0.929 . S
C238 C237 1.380 . S
C238 C239 1.347 . S
C238 H261 0.931 . S
C239 C238 1.347 . S
C239 C240 1.369 . S
C240 C239 1.369 . S
C240 C241 1.408 . S
C240 H262 0.930 . S
C241 C236 1.348 . S
C241 C240 1.408 . S
C241 H263 0.930 . S
C242 O252 1.281 . S
C242 O253 1.254 . S
C243 O254 1.225 1_556 S
C243 O255 1.269 . S
O244 Tb224 2.484 1_655 S
O244 C226 1.248 . S
O245 Tb224 2.440 . S
O245 C226 1.266 1_455 S
O246 Tb224 2.658 . S
O246 Tb225 2.325 . S
O246 C233 1.281 . S
O247 Tb224 2.409 . S
O247 C233 1.254 . S
O248 Tb224 2.378 1_655 S
O248 C234 1.236 . S
O249 Tb225 2.341 1_655 S
O249 C234 1.266 . S
O250 Tb225 2.484 . S
O250 C235 1.248 . S
O251 Tb225 2.440 . S
O251 C235 1.266 . S
O252 Tb224 2.325 1_655 S
O252 Tb225 2.658 1_655 S
O252 C242 1.281 . S
O253 Tb225 2.409 1_655 S
O253 C242 1.254 . S
O254 Tb225 2.378 . S
O254 C243 1.225 1_554 S
O255 Tb224 2.341 1_556 S
O255 C243 1.269 . S
H256 C228 0.929 . S
H257 C229 0.931 . S
H258 C231 0.931 . S
H259 C232 0.930 . S
H260 C237 0.929 . S
H261 C238 0.931 . S
H262 C240 0.930 . S
H263 C241 0.930 . S
C264 C265 1.387 . S
C264 H268 0.950 . S
C264 C273 1.390 . S
C265 C264 1.387 . S
C265 C267 1.387 . S
H266 C273 0.950 . S
C267 C265 1.387 . S
C267 C269 1.390 . S
C267 H271 0.950 . S
H268 C264 0.950 . S
C269 C267 1.390 . S
C269 C270 1.387 . S
C269 H272 0.950 . S
C270 C269 1.387 . S
C270 C273 1.387 . S
H271 C267 0.950 . S
H272 C269 0.950 . S
C273 C264 1.390 . S
C273 H266 0.950 . S
C273 C270 1.387 . S
C274 C275 1.387 . S
C274 H278 0.950 . S
C274 C283 1.390 . S
C275 C274 1.387 . S
C275 C277 1.387 . S
H276 C283 0.950 . S
C277 C275 1.387 . S
C277 C279 1.390 . S
C277 H281 0.950 . S
H278 C274 0.950 . S
C279 C277 1.390 . S
C279 C280 1.387 . S
C279 H282 0.950 . S
C280 C279 1.387 . S
C280 C283 1.387 . S
H281 C277 0.950 . S
H282 C279 0.950 . S
C283 C274 1.390 . S
C283 H276 0.950 . S
C283 C280 1.387 . S
C284 C285 1.387 . S
C284 H288 0.950 . S
C284 C293 1.390 . S
C285 C284 1.387 . S
C285 C287 1.387 . S
H286 C293 0.950 . S
C287 C285 1.387 . S
C287 C289 1.390 . S
C287 H291 0.950 . S
H288 C284 0.950 . S
C289 C287 1.390 . S
C289 C290 1.387 . S
C289 H292 0.950 . S
C290 C289 1.387 . S
C290 C293 1.387 . S
H291 C287 0.950 . S
H292 C289 0.950 . S
C293 C284 1.390 . S
C293 H286 0.950 . S
C293 C290 1.387 . S
C294 C295 1.387 . S
C294 H298 0.950 . S
C294 C303 1.390 . S
C295 C294 1.387 . S
C295 C297 1.387 . S
H296 C303 0.950 . S
C297 C295 1.387 . S
C297 C299 1.390 . S
C297 H301 0.950 . S
H298 C294 0.950 . S
C299 C297 1.390 . S
C299 C300 1.387 . S
C299 H302 0.950 . S
C300 C299 1.387 . S
C300 C303 1.387 . S
H301 C297 0.950 . S
H302 C299 0.950 . S
C303 C294 1.390 . S
C303 H296 0.950 . S
C303 C300 1.387 . S
C304 C305 1.387 . S
C304 H308 0.950 . S
C304 C313 1.390 . S
C305 C304 1.387 . S
C305 C307 1.387 . S
H306 C313 0.950 . S
C307 C305 1.387 . S
C307 C309 1.390 . S
C307 H311 0.950 . S
H308 C304 0.950 . S
C309 C307 1.390 . S
C309 C310 1.387 . S
C309 H312 0.950 . S
C310 C309 1.387 . S
C310 C313 1.387 . S
H311 C307 0.950 . S
H312 C309 0.950 . S
C313 C304 1.390 . S
C313 H306 0.950 . S
C313 C310 1.387 . S
C314 C315 1.387 . S
C314 H318 0.950 . S
C314 C323 1.390 . S
C315 C314 1.387 . S
C315 C317 1.387 . S
H316 C323 0.936 1_655 S
C317 C315 1.387 . S
C317 C319 1.390 . S
C317 H321 0.950 . S
H318 C314 0.950 . S
C319 C317 1.390 . S
C319 C320 1.387 . S
C319 H322 0.950 . S
C320 C319 1.387 . S
C320 C323 1.387 . S
H321 C317 0.950 . S
H322 C319 0.950 . S
C323 C314 1.390 . S
C323 H316 0.936 1_455 S
C323 C320 1.387 . S
C324 C325 1.387 . S
C324 H328 0.950 . S
C324 C333 1.390 . S
C325 C324 1.387 . S
C325 C327 1.387 . S
H326 C333 0.950 . S
C327 C325 1.387 . S
C327 C329 1.390 . S
C327 H331 0.950 . S
H328 C324 0.950 . S
C329 C327 1.390 . S
C329 C330 1.387 . S
C329 H332 0.950 1_556 S
C330 C329 1.387 . S
C330 C333 1.387 . S
H331 C327 0.950 . S
H332 C329 0.950 1_554 S
C333 C324 1.390 . S
C333 H326 0.950 . S
C333 C330 1.387 . S
C334 C335 1.387 . S
C334 H338 0.950 . S
C334 C343 1.390 . S
C335 C334 1.387 . S
C335 C337 1.387 . S
H336 C343 0.950 . S
C337 C335 1.387 . S
C337 C339 1.390 . S
C337 H341 0.950 . S
H338 C334 0.950 . S
C339 C337 1.390 . S
C339 C340 1.387 . S
C339 H342 0.950 . S
C340 C339 1.387 . S
C340 C343 1.387 . S
H341 C337 0.950 . S
H342 C339 0.950 . S
C343 C334 1.390 . S
C343 H336 0.950 . S
C343 C340 1.387 . S
C344 C345 1.387 . S
C344 H348 0.950 . S
C344 C353 1.390 . S
C345 C344 1.387 . S
C345 C347 1.387 . S
H346 C353 0.950 . S
C347 C345 1.387 . S
C347 C349 1.390 . S
C347 H351 0.950 . S
H348 C344 0.950 . S
C349 C347 1.390 . S
C349 C350 1.387 . S
C349 H352 0.950 . S
C350 C349 1.387 . S
C350 C353 1.387 . S
H351 C347 0.950 . S
H352 C349 0.950 . S
C353 C344 1.390 . S
C353 H346 0.950 . S
C353 C350 1.387 . S
C354 C355 1.387 . S
C354 H358 0.950 . S
C354 C363 1.390 . S
C355 C354 1.387 . S
C355 C357 1.387 . S
H356 C363 0.950 . S
C357 C355 1.387 . S
C357 C359 1.390 . S
C357 H361 0.950 . S
H358 C354 0.950 . S
C359 C357 1.390 . S
C359 C360 1.387 . S
C359 H362 0.950 . S
C360 C359 1.387 . S
C360 C363 1.387 . S
H361 C357 0.950 . S
H362 C359 0.950 . S
C363 C354 1.390 . S
C363 H356 0.950 . S
C363 C360 1.387 . S
C364 C365 1.387 . S
C364 H368 0.950 . S
C364 C373 1.390 . S
C365 C364 1.387 . S
C365 C367 1.387 . S
H366 C373 0.950 1_455 S
C367 C365 1.387 . S
C367 C369 1.390 . S
C367 H371 0.950 . S
H368 C364 0.950 . S
C369 C367 1.390 . S
C369 C370 1.387 . S
C369 H372 0.950 . S
C370 C369 1.387 . S
C370 C373 1.387 . S
H371 C367 0.950 . S
H372 C369 0.950 . S
C373 C364 1.390 . S
C373 H366 0.950 1_655 S
C373 C370 1.387 . S
C374 C375 1.387 . S
C374 H378 0.950 . S
C374 C383 1.390 . S
C375 C374 1.387 . S
C375 C377 1.387 . S
H376 C383 0.950 . S
C377 C375 1.387 . S
C377 C379 1.390 . S
C377 H381 0.950 . S
H378 C374 0.950 . S
C379 C377 1.390 . S
C379 C380 1.387 . S
C379 H382 0.950 . S
C380 C379 1.387 . S
C380 C383 1.387 . S
H381 C377 0.950 . S
H382 C379 0.950 . S
C383 C374 1.390 . S
C383 H376 0.950 . S
C383 C380 1.387 . S
C384 C385 1.387 . S
C384 H388 0.950 . S
C384 C393 1.390 . S
C385 C384 1.387 . S
C385 C387 1.387 . S
H386 C393 0.950 . S
C387 C385 1.387 . S
C387 C389 1.390 . S
C387 H391 0.950 . S
H388 C384 0.950 . S
C389 C387 1.390 . S
C389 C390 1.387 . S
C389 H392 0.950 . S
C390 C389 1.387 . S
C390 C393 1.387 . S
H391 C387 0.950 . S
H392 C389 0.950 . S
C393 C384 1.390 . S
C393 H386 0.950 . S
C393 C390 1.387 . S
C394 C395 1.387 . S
C394 H398 0.950 . S
C394 C403 1.390 . S
C395 C394 1.387 . S
C395 C397 1.387 . S
H396 C403 0.950 . S
C397 C395 1.387 . S
C397 C399 1.390 . S
C397 H401 0.950 . S
H398 C394 0.950 . S
C399 C397 1.390 . S
C399 C400 1.387 . S
C399 H402 0.950 . S
C400 C399 1.387 . S
C400 C403 1.387 . S
H401 C397 0.950 . S
H402 C399 0.950 . S
C403 C394 1.390 . S
C403 H396 0.950 . S
C403 C400 1.387 . S
C404 C405 1.387 . S
C404 H408 0.950 . S
C404 C413 1.390 . S
C405 C404 1.387 . S
C405 C407 1.387 . S
H406 C413 0.950 . S
C407 C405 1.387 . S
C407 C409 1.390 . S
C407 H411 0.950 . S
H408 C404 0.950 . S
C409 C407 1.390 . S
C409 C410 1.387 . S
C409 H412 0.950 . S
C410 C409 1.387 . S
C410 C413 1.387 . S
H411 C407 0.950 . S
H412 C409 0.950 . S
C413 C404 1.390 . S
C413 H406 0.950 . S
C413 C410 1.387 . S
C414 C415 1.387 . S
C414 H418 0.950 . S
C414 C423 1.390 . S
C415 C414 1.387 . S
C415 C417 1.387 . S
H416 C423 0.950 . S
C417 C415 1.387 . S
C417 C419 1.390 . S
C417 H421 0.950 . S
H418 C414 0.950 . S
C419 C417 1.390 . S
C419 C420 1.387 . S
C419 H422 0.950 . S
C420 C419 1.387 . S
C420 C423 1.387 . S
H421 C417 0.950 . S
H422 C419 0.950 . S
C423 C414 1.390 . S
C423 H416 0.950 . S
C423 C420 1.387 . S
C424 C425 1.387 . S
C424 H428 0.950 . S
C424 C433 1.390 . S
C425 C424 1.387 . S
C425 C427 1.387 . S
H426 C433 0.950 . S
C427 C425 1.387 . S
C427 C429 1.390 . S
C427 H431 0.950 . S
H428 C424 0.950 . S
C429 C427 1.390 . S
C429 C430 1.387 . S
C429 H432 0.950 . S
C430 C429 1.387 . S
C430 C433 1.387 . S
H431 C427 0.950 . S
H432 C429 0.950 . S
C433 C424 1.390 . S
C433 H426 0.950 . S
C433 C430 1.387 . S
C434 C435 1.387 . S
C434 H438 0.950 . S
C434 C443 1.390 . S
C435 C434 1.387 . S
C435 C437 1.387 1_455 S
H436 C443 0.950 . S
C437 C435 1.387 1_655 S
C437 C439 1.390 . S
C437 H441 0.950 . S
H438 C434 0.950 . S
C439 C437 1.390 . S
C439 C440 1.387 . S
C439 H442 0.950 . S
C440 C439 1.387 . S
C440 C443 1.387 1_655 S
H441 C437 0.950 . S
H442 C439 0.950 . S
C443 C434 1.390 . S
C443 H436 0.950 . S
C443 C440 1.387 1_455 S
C444 C445 1.387 . S
C444 H448 0.950 . S
C444 C453 1.390 . S
C445 C444 1.387 . S
C445 C447 1.387 . S
H446 C453 0.950 . S
C447 C445 1.387 . S
C447 C449 1.390 . S
C447 H451 0.950 . S
H448 C444 0.950 . S
C449 C447 1.390 . S
C449 C450 1.387 . S
C449 H452 0.950 . S
C450 C449 1.387 . S
C450 C453 1.387 . S
H451 C447 0.950 . S
H452 C449 0.950 . S
C453 C444 1.390 . S
C453 H446 0.950 . S
C453 C450 1.387 . S
C454 C455 1.387 . S
C454 H458 0.950 . S
C454 C463 1.390 . S
C455 C454 1.387 . S
C455 C457 1.387 . S
H456 C463 0.950 . S
C457 C455 1.387 . S
C457 C459 1.390 . S
C457 H461 0.950 . S
H458 C454 0.950 . S
C459 C457 1.390 . S
C459 C460 1.387 . S
C459 H462 0.950 . S
C460 C459 1.387 . S
C460 C463 1.387 . S
H461 C457 0.950 . S
H462 C459 0.950 . S
C463 C454 1.390 . S
C463 H456 0.950 . S
C463 C460 1.387 . S
C464 C465 1.387 . S
C464 H468 0.950 . S
C464 C473 1.390 . S
C465 C464 1.387 . S
C465 C467 1.387 . S
H466 C473 0.950 . S
C467 C465 1.387 . S
C467 C469 1.390 . S
C467 H471 0.950 . S
H468 C464 0.950 . S
C469 C467 1.390 . S
C469 C470 1.387 . S
C469 H472 0.950 . S
C470 C469 1.387 . S
C470 C473 1.387 . S
H471 C467 0.950 . S
H472 C469 0.950 . S
C473 C464 1.390 . S
C473 H466 0.950 . S
C473 C470 1.387 . S
C474 C475 1.387 . S
C474 H478 0.950 . S
C474 C483 1.390 . S
C475 C474 1.387 . S
C475 C477 1.387 . S
H476 C483 0.950 . S
C477 C475 1.387 . S
C477 C479 1.390 . S
C477 H481 0.950 . S
H478 C474 0.950 . S
C479 C477 1.390 . S
C479 C480 1.387 . S
C479 H482 0.950 . S
C480 C479 1.387 . S
C480 C483 1.387 . S
H481 C477 0.950 . S
H482 C479 0.950 . S
C483 C474 1.390 . S
C483 H476 0.950 . S
C483 C480 1.387 . S
C484 C485 1.387 . S
C484 H488 0.950 . S
C484 C493 1.390 . S
C485 C484 1.387 . S
C485 C487 1.387 . S
H486 C493 0.950 . S
C487 C485 1.387 . S
C487 C489 1.390 . S
C487 H491 0.950 . S
H488 C484 0.950 . S
C489 C487 1.390 . S
C489 C490 1.387 . S
C489 H492 0.950 . S
C490 C489 1.387 . S
C490 C493 1.387 . S
H491 C487 0.950 . S
H492 C489 0.950 . S
C493 C484 1.390 . S
C493 H486 0.950 . S
C493 C490 1.387 . S
C494 C495 1.387 . S
C494 H498 0.950 . S
C494 C503 1.390 . S
C495 C494 1.387 . S
C495 C497 1.387 . S
H496 C503 0.950 . S
C497 C495 1.387 . S
C497 C499 1.390 . S
C497 H501 0.950 . S
H498 C494 0.950 . S
C499 C497 1.390 . S
C499 C500 1.387 . S
C499 H502 0.950 . S
C500 C499 1.387 . S
C500 C503 1.387 . S
H501 C497 0.950 . S
H502 C499 0.950 . S
C503 C494 1.390 . S
C503 H496 0.950 . S
C503 C500 1.387 . S
C265 C9 1.523 . S
C270 C119 1.579 . S
C275 C21 1.124 . S
C280 C159 1.191 . S
C290 C193 2.234 . S
C285 C30 2.219 . S
C295 C43 2.412 . S
C300 C234 2.451 . S
C310 C154 1.508 . S
C305 C4 1.259 . S
C320 C114 2.367 . S
C315 C22 2.218 . S
C330 C242 1.557 1_556 S
C325 C34 1.544 . S
C340 C203 1.734 . S
C335 C48 1.807 . S
C345 C8 1.667 . S
C350 C239 1.722 . S
C360 C162 2.011 . S
C355 C35 2.067 . S
C365 C47 2.557 . S
C370 C122 2.419 . S
C375 C17 1.635 . S
C380 C190 1.684 . S
C390 C110 1.199 . S
C385 C60 1.191 . S
C395 C74 1.063 . S
C400 C150 1.099 . S
C405 C82 1.818 . S
C410 C202 1.931 . S
C415 C100 3.028 . S
C420 C243 2.941 . S
C425 C61 1.638 . S
C430 C163 1.753 . S
C440 C123 1.926 . S
C435 C73 1.741 . S
C450 C233 1.833 . S
C445 C87 1.897 . S
C460 C194 1.700 . S
C455 C95 1.832 . S
C465 C56 1.446 . S
C470 C230 1.407 . S
C480 C153 2.222 . S
C475 C86 2.274 . S
C490 C113 2.479 . S
C485 C99 2.562 . S
C495 C69 1.209 . S
C500 C199 1.470 . S
