# Generated by pormake.
# Topology zzz, (3,6)-cn, num edge types: 1
# Building blocks:
#     Node 0, Type 0, BuildingBlock: BETDAH_clean_linker_0, # of connection points: 3
#     Node 1, Type 0, BuildingBlock: BETDAH_clean_linker_0, # of connection points: 3
#     Node 2, Type 0, BuildingBlock: BETDAH_clean_linker_0, # of connection points: 3
#     Node 3, Type 0, BuildingBlock: BETDAH_clean_linker_0, # of connection points: 3
#     Node 4, Type 0, BuildingBlock: BETDAH_clean_linker_0, # of connection points: 3
#     Node 5, Type 0, BuildingBlock: BETDAH_clean_linker_0, # of connection points: 3
#     Node 6, Type 0, BuildingBlock: BETDAH_clean_linker_0, # of connection points: 3
#     Node 7, Type 0, BuildingBlock: BETDAH_clean_linker_0, # of connection points: 3
#     Node 8, Type 1, BuildingBlock: BETDAH_clean_sbu_0, # of connection points: 6
#     Node 9, Type 1, BuildingBlock: BETDAH_clean_sbu_0, # of connection points: 6
#     Node 10, Type 1, BuildingBlock: BETDAH_clean_sbu_0, # of connection points: 6
#     Node 11, Type 1, BuildingBlock: BETDAH_clean_sbu_0, # of connection points: 6
#     Edge 12, Type (0, 1), BuildingBlock: KIFKEQ_clean_linker_1, # of connection points: 2
#     Edge 13, Type (0, 1), BuildingBlock: KIFKEQ_clean_linker_1, # of connection points: 2
#     Edge 14, Type (0, 1), BuildingBlock: KIFKEQ_clean_linker_1, # of connection points: 2
#     Edge 15, Type (0, 1), BuildingBlock: KIFKEQ_clean_linker_1, # of connection points: 2
#     Edge 16, Type (0, 1), BuildingBlock: KIFKEQ_clean_linker_1, # of connection points: 2
#     Edge 17, Type (0, 1), BuildingBlock: KIFKEQ_clean_linker_1, # of connection points: 2
#     Edge 18, Type (0, 1), BuildingBlock: KIFKEQ_clean_linker_1, # of connection points: 2
#     Edge 19, Type (0, 1), BuildingBlock: KIFKEQ_clean_linker_1, # of connection points: 2
#     Edge 20, Type (0, 1), BuildingBlock: KIFKEQ_clean_linker_1, # of connection points: 2
#     Edge 21, Type (0, 1), BuildingBlock: KIFKEQ_clean_linker_1, # of connection points: 2
#     Edge 22, Type (0, 1), BuildingBlock: KIFKEQ_clean_linker_1, # of connection points: 2
#     Edge 23, Type (0, 1), BuildingBlock: KIFKEQ_clean_linker_1, # of connection points: 2
#     Edge 24, Type (0, 1), BuildingBlock: KIFKEQ_clean_linker_1, # of connection points: 2
#     Edge 25, Type (0, 1), BuildingBlock: KIFKEQ_clean_linker_1, # of connection points: 2
#     Edge 26, Type (0, 1), BuildingBlock: KIFKEQ_clean_linker_1, # of connection points: 2
#     Edge 27, Type (0, 1), BuildingBlock: KIFKEQ_clean_linker_1, # of connection points: 2
#     Edge 28, Type (0, 1), BuildingBlock: KIFKEQ_clean_linker_1, # of connection points: 2
#     Edge 29, Type (0, 1), BuildingBlock: KIFKEQ_clean_linker_1, # of connection points: 2
#     Edge 30, Type (0, 1), BuildingBlock: KIFKEQ_clean_linker_1, # of connection points: 2
#     Edge 31, Type (0, 1), BuildingBlock: KIFKEQ_clean_linker_1, # of connection points: 2
#     Edge 32, Type (0, 1), BuildingBlock: KIFKEQ_clean_linker_1, # of connection points: 2
#     Edge 33, Type (0, 1), BuildingBlock: KIFKEQ_clean_linker_1, # of connection points: 2
#     Edge 34, Type (0, 1), BuildingBlock: KIFKEQ_clean_linker_1, # of connection points: 2
#     Edge 35, Type (0, 1), BuildingBlock: KIFKEQ_clean_linker_1, # of connection points: 2
# Relax obj value: 0.271
# Max RMSD: 0.190
# Mean RMSD: 0.165
data_MOF--net-zzz--node1-BETDAH_clean_sbu_0--node2-BETDAH_clean_linker_0--edge1-KIFKEQ_clean_linker_1
_symmetry_space_group_name_H-M    P1
_symmetry_Int_Tables_number       1
_symmetry_cell_setting            triclinic
loop_
_symmetry_equiv_pos_as_xyz
'x, y, z'
_cell_length_a     53.033352
_cell_length_b     52.941158
_cell_length_c     13.495465
_cell_angle_alpha  89.975168
_cell_angle_beta   89.982712
_cell_angle_gamma 89.847672
loop_
_atom_site_label
_atom_site_type_symbol
_atom_site_fract_x
_atom_site_fract_y
_atom_site_fract_z
_atom_type_partial_charge
H0 H 0.81033 0.52906 0.36766 0.0
H1 H 0.73393 0.52301 0.27253 0.0
H2 H 0.752 0.517 0.5841 0.0
C3 C 0.79047 0.52771 0.38669 0.0
C4 C 0.78371 0.5236 0.4853 0.0
C5 C 0.77256 0.52716 0.31085 0.0
C6 C 0.74716 0.52412 0.33305 0.0
C7 C 0.73914 0.52119 0.43141 0.0
C8 C 0.75769 0.52055 0.50831 0.0
N9 N 0.71289 0.51762 0.45257 0.0
C10 C 0.6937 0.5176 0.38013 0.0
H11 H 1.01149 0.81091 0.37666 0.0
H12 H 1.01558 0.73404 0.28113 0.0
H13 H 1.00595 0.75135 0.59252 0.0
C14 C 1.01029 0.79094 0.39472 0.0
C15 C 1.00807 0.78366 0.49359 0.0
C16 C 1.01312 0.77309 0.31939 0.0
C17 C 1.01272 0.74739 0.3409 0.0
C18 C 1.00952 0.73908 0.43893 0.0
C19 C 1.00751 0.75743 0.51617 0.0
N20 N 1.0092 0.7126 0.4606 0.0
C21 C 1.01017 0.69351 0.38798 0.0
H22 H 0.72464 1.01439 0.3736 0.0
H23 H 0.80188 1.01693 0.28328 0.0
H24 H 0.783 1.00863 0.59394 0.0
C25 C 0.74448 1.01321 0.39321 0.0
C26 C 0.75126 1.01109 0.49268 0.0
C27 C 0.76269 1.01531 0.31887 0.0
C28 C 0.78824 1.01477 0.34237 0.0
C29 C 0.79601 1.01187 0.44125 0.0
C30 C 0.77731 1.01025 0.51714 0.0
N31 N 0.82233 1.01107 0.46501 0.0
C32 C 0.84179 1.01259 0.39423 0.0
H33 H 0.53417 0.72534 0.38181 0.0
H34 H 0.52821 0.80154 0.27819 0.0
H35 H 0.51507 0.78429 0.58726 0.0
C36 C 0.53195 0.74531 0.39814 0.0
C37 C 0.52527 0.75241 0.49418 0.0
C38 C 0.53252 0.76284 0.32047 0.0
C39 C 0.5283 0.7884 0.33973 0.0
C40 C 0.52263 0.79666 0.43611 0.0
C41 C 0.52075 0.7784 0.51371 0.0
N42 N 0.51742 0.82282 0.45452 0.0
C43 C 0.5174 0.84181 0.38128 0.0
H44 H 0.22753 0.53461 0.10201 0.0
H45 H 0.30299 0.52611 0.20704 0.0
H46 H 0.28161 0.49447 0.92331 0.0
C47 C 0.24665 0.52795 0.08912 0.0
C48 C 0.25211 0.51446 1.00299 0.0
C49 C 0.26493 0.53181 0.16186 0.0
C50 C 0.28937 0.52291 0.14881 0.0
C51 C 0.29592 0.50964 0.06235 0.0
C52 C 0.277 0.50511 0.98939 0.0
N53 N 0.3211 0.50048 0.04917 0.0
C54 C 0.34037 0.5035 0.11973 0.0
H55 H 1.01127 0.22665 0.12254 0.0
H56 H 1.01545 0.30343 0.21807 0.0
H57 H 0.03404 0.28396 0.91481 0.0
C58 C 1.01503 0.24631 0.10485 0.0
C59 C 0.02286 0.25275 0.0095 0.0
C60 C 1.01236 0.26461 0.17869 0.0
C61 C 1.01742 0.28984 0.15877 0.0
C62 C 0.02507 0.29731 0.06348 0.0
C63 C 0.0279 0.27854 0.98832 0.0
N64 N 0.03004 0.32337 0.04299 0.0
C65 C 0.02769 0.3428 0.1136 0.0
H66 H 0.31002 0.01918 0.12529 0.0
H67 H 0.23305 1.01735 0.2179 0.0
H68 H 0.25145 0.03349 0.91163 0.0
C69 C 0.2902 0.02158 0.10707 0.0
C70 C 0.28328 0.02673 0.00949 0.0
C71 C 0.2721 1.01833 0.18102 0.0
C72 C 0.24657 0.02058 0.15932 0.0
C73 C 0.23867 0.02656 0.06276 0.0
C74 C 0.25724 0.02944 0.98693 0.0
N75 N 0.21236 0.02928 0.04117 0.0
C76 C 0.19312 0.02758 0.1128 0.0
H77 H 0.53445 0.30856 0.07601 0.0
H78 H 0.52667 0.23477 0.20053 0.0
H79 H 0.48871 0.25351 0.92627 0.0
C80 C 0.52737 0.28939 0.06939 0.0
C81 C 0.51144 0.28328 0.99088 0.0
C82 C 0.53242 0.27206 0.14473 0.0
C83 C 0.52275 0.24764 0.14024 0.0
C84 C 0.50742 0.24031 0.06037 0.0
C85 C 0.50137 0.2585 0.98602 0.0
N86 N 0.49728 0.21528 0.05576 0.0
C87 C 0.50132 0.19638 0.12752 0.0
Ho88 Ho 0.03716 1.01531 0.82727 0.0
Ho89 Ho 0.9996 0.02149 0.66969 0.0
C90 C 1.01307 0.96454 0.72314 0.0
C91 C 0.0633 1.00098 0.97719 0.0
C92 C 0.06188 0.97623 0.02409 0.0
C93 C 0.03871 0.96348 0.02306 0.0
C94 C 0.03795 0.93763 0.03816 0.0
C95 C 0.06031 0.9241 0.0543 0.0
C96 C 0.08327 0.93705 0.06326 0.0
C97 C 0.08406 0.96311 0.04758 0.0
C98 C 0.05795 0.02792 0.65011 0.0
C99 C 0.01984 0.07155 0.78518 0.0
C100 C 0.98061 0.03209 0.49967 0.0
C101 C 0.98078 0.0569 0.45159 0.0
C102 C 1.00389 0.06883 0.43223 0.0
C103 C 1.00468 0.09469 0.41654 0.0
C104 C 0.98243 0.10905 0.41948 0.0
C105 C 0.95915 0.09698 0.43171 0.0
C106 C 0.95831 0.07096 0.44695 0.0
C107 C 0.97191 1.01771 0.83911 0.0
O108 O 0.02803 0.97409 0.79237 0.0
O109 O 0.99978 0.97932 0.66442 0.0
O110 O 0.07181 1.00013 0.88651 0.0
O111 O 0.04313 1.0151 0.98572 0.0
O112 O 0.06402 0.03788 0.73435 0.0
O113 O 0.04037 1.01208 0.66421 0.0
O114 O 1.01034 0.06245 0.70166 0.0
O115 O 0.02877 0.05617 0.85353 0.0
O116 O 0.96726 0.0313 0.58071 0.0
O117 O 1.00247 0.02092 0.50985 0.0
O118 O 0.96297 0.0196 0.75062 0.0
O119 O 0.99587 1.01683 0.8349 0.0
H120 H 0.02135 0.97312 1.00354 0.0
H121 H 0.01996 0.92804 0.03304 0.0
H122 H 0.1007 0.92686 0.07628 0.0
H123 H 0.1021 0.97267 0.04698 0.0
H124 H 0.0216 0.05863 0.4362 0.0
H125 H 0.0229 0.10365 0.40784 0.0
H126 H 0.94175 0.10775 0.43275 0.0
H127 H 0.94031 0.06214 0.46235 0.0
Ho128 Ho 0.52126 0.03733 0.848 0.0
Ho129 Ho 0.51312 1.00088 0.65876 0.0
C130 C 0.5703 1.01595 0.7215 0.0
C131 C 0.53365 0.05289 0.02068 0.0
C132 C 0.55935 0.05244 0.06067 0.0
C133 C 0.57354 0.0301 0.05389 0.0
C134 C 0.59962 0.03085 0.05781 0.0
C135 C 0.61211 0.054 0.06785 0.0
C136 C 0.59801 0.07613 0.08357 0.0
C137 C 0.5717 0.07534 0.08012 0.0
C138 C 0.5146 0.06532 0.67868 0.0
C139 C 0.46416 0.02265 0.78428 0.0
C140 C 0.50194 0.98507 0.48502 0.0
C141 C 0.47661 0.98525 0.44207 0.0
C142 C 0.46161 1.00701 0.45192 0.0
C143 C 0.43559 1.00531 0.44443 0.0
C144 C 0.4241 0.98186 0.42767 0.0
C145 C 0.43915 0.96053 0.40909 0.0
C146 C 0.46533 0.96224 0.41619 0.0
C147 C 0.51694 0.97326 0.83059 0.0
O148 O 0.56157 0.02814 0.80095 0.0
O149 O 0.55534 1.00485 0.65582 0.0
O150 O 0.53105 0.06809 0.94502 0.0
O151 O 0.52287 0.03091 0.00628 0.0
O152 O 0.51735 0.07453 0.76693 0.0
O153 O 0.51498 0.04146 0.68808 0.0
O154 O 0.47288 1.0114 0.70257 0.0
O155 O 0.47915 0.03255 0.8529 0.0
O156 O 0.5041 0.96998 0.56119 0.0
O157 O 0.51231 1.00715 0.50045 0.0
O158 O 0.51326 0.96378 0.74336 0.0
O159 O 0.51885 0.99692 0.81836 0.0
H160 H 0.56475 1.01223 0.03801 0.0
H161 H 0.61004 1.01336 0.04885 0.0
H162 H 0.60727 0.09419 0.09249 0.0
H163 H 0.56114 0.09285 0.08439 0.0
H164 H 0.4697 0.025 0.47282 0.0
H165 H 0.42439 0.02221 0.45603 0.0
H166 H 0.43067 0.94228 0.39529 0.0
H167 H 0.47658 0.9452 0.40968 0.0
Ho168 Ho 0.4976 0.52171 0.83389 0.0
Ho169 Ho 0.53202 0.51512 0.67755 0.0
C170 C 0.51806 0.57153 0.71877 0.0
C171 C 0.47343 0.53714 0.98756 0.0
C172 C 0.47555 0.56205 0.03298 0.0
C173 C 0.49924 0.57384 0.03473 0.0
C174 C 0.50094 0.5996 0.05086 0.0
C175 C 0.47906 0.61387 0.06568 0.0
C176 C 0.45549 0.60208 0.07068 0.0
C177 C 0.45372 0.57611 0.05387 0.0
C178 C 0.47357 0.51053 0.66111 0.0
C179 C 0.51012 0.46502 0.78978 0.0
C180 C 0.55745 0.50035 0.52547 0.0
C181 C 0.56092 0.47465 0.48815 0.0
C182 C 0.54024 0.45818 0.48384 0.0
C183 C 0.54404 0.43255 0.46837 0.0
C184 C 0.56853 0.42294 0.45764 0.0
C185 C 0.58915 0.43948 0.45661 0.0
C186 C 0.58535 0.46527 0.47228 0.0
C187 C 0.55589 0.52558 0.85202 0.0
O188 O 0.51096 0.56223 0.80543 0.0
O189 O 0.52452 0.55599 0.64717 0.0
O190 O 0.46386 0.53763 0.89859 0.0
O191 O 0.49352 0.52289 0.99319 0.0
O192 O 0.46826 0.50086 0.74662 0.0
O193 O 0.49177 0.52579 0.6707 0.0
O194 O 0.51972 0.47433 0.70684 0.0
O195 O 0.50228 0.4804 0.85973 0.0
O196 O 0.56764 0.50438 0.61183 0.0
O197 O 0.53464 0.50956 0.51925 0.0
O198 O 0.56084 0.53619 0.76779 0.0
O199 O 0.53769 0.5104 0.84049 0.0
H200 H 0.51635 0.56355 0.01714 0.0
H201 H 0.51926 0.60862 0.04774 0.0
H202 H 0.43852 0.61309 0.0828 0.0
H203 H 0.43531 0.56733 0.05108 0.0
H204 H 0.52118 0.46485 0.49666 0.0
H205 H 0.52783 0.42012 0.46678 0.0
H206 H 0.60816 0.43234 0.44737 0.0
H207 H 0.60152 0.4777 0.47645 0.0
Ho208 Ho 1.01339 0.49986 0.84221 0.0
Ho209 Ho 0.02046 0.53576 0.67267 0.0
C210 C 0.96454 0.51815 0.71468 0.0
C211 C 1.00191 0.4832 0.01536 0.0
C212 C 0.97668 0.4831 0.06035 0.0
C213 C 0.96454 0.50614 0.08075 0.0
C214 C 0.93848 0.50705 0.0893 0.0
C215 C 0.92421 0.48498 0.07816 0.0
C216 C 0.9364 0.46158 0.06945 0.0
C217 C 0.96259 0.46063 0.06082 0.0
C218 C 0.01796 0.47091 0.67508 0.0
C219 C 0.07047 0.51203 0.78477 0.0
C220 C 0.03452 0.56042 0.51843 0.0
C221 C 0.05923 0.56037 0.4714 0.0
C222 C 0.07386 0.53824 0.4736 0.0
C223 C 0.09951 0.53936 0.45403 0.0
C224 C 0.11088 0.56262 0.43271 0.0
C225 C 0.09596 0.58445 0.42396 0.0
C226 C 0.07019 0.58333 0.44355 0.0
C227 C 1.00804 0.55843 0.84737 0.0
O228 O 0.97301 0.51144 0.80345 0.0
O229 O 0.98025 0.52507 0.64408 0.0
O230 O 1.00427 0.46855 0.93817 0.0
O231 O 1.01204 0.50539 1.00082 0.0
O232 O 1.01535 0.46231 0.76406 0.0
O233 O 0.01873 0.49479 0.67975 0.0
O234 O 0.06129 0.52524 0.70901 0.0
O235 O 0.05546 0.50085 0.84922 0.0
O236 O 0.03461 0.57008 0.60742 0.0
O237 O 0.02191 0.53925 0.51327 0.0
O238 O 0.99827 0.56403 0.76211 0.0
O239 O 0.02353 0.54042 0.83536 0.0
H240 H 0.97481 0.5238 0.08198 0.0
H241 H 0.92935 0.52523 0.0988 0.0
H242 H 0.92563 0.44432 0.06183 0.0
H243 H 0.97157 0.44263 0.04568 0.0
H244 H 0.06583 0.52035 0.49633 0.0
H245 H 0.11063 0.52221 0.45935 0.0
H246 H 0.10443 0.60258 0.40766 0.0
H247 H 0.05917 0.6006 0.44324 0.0
H248 H 0.14299 0.01972 0.08325 0.0
H249 H 0.19809 0.03245 0.31215 0.0
H250 H 0.10935 0.01925 0.20825 0.0
H251 H 0.16499 0.03114 0.43741 0.0
H252 H 0.10016 0.05634 0.62975 0.0
H253 H 0.13176 0.0554 0.49997 0.0
H254 H 0.0892 0.99827 0.34511 0.0
H255 H 0.05698 0.99963 0.47619 0.0
C256 C 0.14791 0.02222 0.16053 0.0
C257 C 0.17316 0.02625 0.18777 0.0
C258 C 0.12863 0.0218 0.23256 0.0
C259 C 0.13412 0.02545 0.33394 0.0
C260 C 0.15966 0.02887 0.36051 0.0
C261 C 0.17883 0.02938 0.28856 0.0
C262 C 0.09735 0.04362 0.5679 0.0
C263 C 0.07593 0.02802 0.56417 0.0
C264 C 0.11576 0.04288 0.49334 0.0
C265 C 0.11355 0.02647 0.41163 0.0
C266 C 0.09171 1.01125 0.40625 0.0
C267 C 0.07318 1.01197 0.48162 0.0
H268 H 0.48754 0.14714 0.11099 0.0
H269 H 0.52248 0.19998 0.31049 0.0
H270 H 0.49081 0.11385 0.23726 0.0
H271 H 0.52663 0.16694 0.43515 0.0
H272 H 0.50444 0.11493 0.68114 0.0
H273 H 0.50195 0.14488 0.54705 0.0
H274 H 0.51588 0.08504 0.33646 0.0
H275 H 0.51797 0.05444 0.47392 0.0
C276 C 0.49612 0.15156 0.18171 0.0
C277 C 0.50455 0.17623 0.20105 0.0
C278 C 0.49817 0.13241 0.2541 0.0
C279 C 0.50868 0.13748 0.34807 0.0
C280 C 0.5178 0.16218 0.36535 0.0
C281 C 0.51564 0.18124 0.29328 0.0
C282 C 0.50687 0.10787 0.60639 0.0
C283 C 0.51133 0.082 0.58934 0.0
C284 C 0.50571 0.12532 0.52871 0.0
C285 C 0.50917 0.11782 0.42969 0.0
C286 C 0.51303 0.09173 0.41143 0.0
C287 C 0.51416 0.07404 0.49036 0.0
H288 H 0.33399 0.50798 0.31825 0.0
H289 H 0.39109 0.50542 0.0914 0.0
H290 H 0.36656 0.51155 0.44519 0.0
H291 H 0.42406 0.50819 0.21861 0.0
H292 H 0.47686 0.53352 0.47657 0.0
H293 H 0.44507 0.53344 0.3438 0.0
H294 H 0.39716 0.48614 0.52386 0.0
H295 H 0.42844 0.48652 0.6549 0.0
C296 C 0.35357 0.5082 0.29556 0.0
C297 C 0.36 0.50634 0.19498 0.0
C298 C 0.37237 0.51003 0.36851 0.0
C299 C 0.39821 0.50984 0.34314 0.0
C300 C 0.40451 0.50856 0.24165 0.0
C301 C 0.38562 0.5068 0.16857 0.0
C302 C 0.45952 0.52311 0.48734 0.0
C303 C 0.45524 0.5101 0.57679 0.0
C304 C 0.44128 0.52297 0.41107 0.0
C305 C 0.41821 0.50998 0.4227 0.0
C306 C 0.41428 0.49682 0.51207 0.0
C307 C 0.43244 0.49684 0.58741 0.0
H308 H 0.99678 0.34314 0.27381 0.0
H309 H 0.05282 0.38747 0.12239 0.0
H310 H 0.99348 0.37542 0.40225 0.0
H311 H 0.04997 0.41993 0.25198 0.0
H312 H 0.02429 0.48289 0.47412 0.0
H313 H 0.02564 0.45308 0.33362 0.0
H314 H 1.01654 0.39085 0.53744 0.0
H315 H 1.0147 0.42014 0.6745 0.0
C316 C 1.00849 0.35982 0.26823 0.0
C317 C 0.02524 0.36265 0.18858 0.0
C318 C 1.00671 0.3784 0.34228 0.0
C319 C 0.02168 0.40044 0.33913 0.0
C320 C 0.038 0.40346 0.2574 0.0
C321 C 0.03979 0.38476 0.1833 0.0
C322 C 0.02253 0.46284 0.48834 0.0
C323 C 0.01932 0.45402 0.586 0.0
C324 C 0.02341 0.44567 0.40787 0.0
C325 C 0.02095 0.41932 0.42315 0.0
C326 C 0.01793 0.41083 0.52121 0.0
C327 C 1.0171 0.42779 0.60064 0.0
H328 H 0.84587 0.04656 0.24478 0.0
H329 H 0.88325 0.98254 0.37646 0.0
H330 H 0.87901 0.0493 0.11924 0.0
H331 H 0.91635 0.98468 0.24937 0.0
H332 H 0.9826 1.00716 0.0389 0.0
H333 H 0.95237 1.00689 0.17817 0.0
H334 H 0.89262 0.02793 0.97682 0.0
H335 H 0.9223 0.02855 0.84125 0.0
C336 C 0.86123 0.03303 0.24664 0.0
C337 C 0.86192 1.01429 0.32011 0.0
C338 C 0.88026 0.03445 0.17422 0.0
C339 C 0.90056 1.01707 0.17265 0.0
C340 C 0.90134 0.99857 0.24795 0.0
C341 C 0.88224 0.99719 0.32052 0.0
C342 C 0.96303 1.01186 0.02507 0.0
C343 C 0.955 1.01784 0.92838 0.0
C344 C 0.94559 1.01158 0.10475 0.0
C345 C 0.91981 1.01755 0.08981 0.0
C346 C 0.91217 0.02369 0.99296 0.0
C347 C 0.92935 0.0238 0.91428 0.0
H348 H 0.47686 0.85898 0.27864 0.0
H349 H 0.55658 0.87059 0.31652 0.0
H350 H 0.47545 0.89307 0.15618 0.0
H351 H 0.55554 0.9045 0.19231 0.0
H352 H 0.54232 0.97753 0.01118 0.0
H353 H 0.54206 0.94713 0.14942 0.0
H354 H 0.48754 0.90201 0.99161 0.0
H355 H 0.48775 0.93233 0.85683 0.0
C356 C 0.49413 0.86882 0.26035 0.0
C357 C 0.51683 0.86205 0.30695 0.0
C358 C 0.49341 0.88838 0.18966 0.0
C359 C 0.51541 0.90181 0.1631 0.0
C360 C 0.53811 0.89503 0.21102 0.0
C361 C 0.53879 0.8754 0.28177 0.0
C362 C 0.52986 0.96152 0.00777 0.0
C363 C 0.51487 0.9577 0.92325 0.0
C364 C 0.52993 0.94375 0.0863 0.0
C365 C 0.51476 0.9218 0.08275 0.0
C366 C 0.49925 0.91862 0.99904 0.0
C367 C 0.49944 0.93611 0.92094 0.0
H368 H 0.64341 0.51108 0.41034 0.0
H369 H 0.69814 0.52425 0.1802 0.0
H370 H 0.60946 0.51266 0.28708 0.0
H371 H 0.66473 0.52512 0.05689 0.0
H372 H 0.59957 0.55223 0.86813 0.0
H373 H 0.63191 0.54981 0.99529 0.0
H374 H 0.58829 0.49354 0.1509 0.0
H375 H 0.55544 0.49654 0.02325 0.0
C376 C 0.6482 0.51419 0.33325 0.0
C377 C 0.67351 0.51773 0.30553 0.0
C378 C 0.62872 0.51495 0.26209 0.0
C379 C 0.63399 0.51931 0.16088 0.0
C380 C 0.65954 0.52233 0.13369 0.0
C381 C 0.67892 0.52163 0.20478 0.0
C382 C 0.59673 0.53941 0.92966 0.0
C383 C 0.57478 0.52459 0.93486 0.0
C384 C 0.61554 0.53779 1.00271 0.0
C385 C 0.6132 0.52124 0.08412 0.0
C386 C 0.59093 0.50668 0.09033 0.0
C387 C 0.57203 0.50832 0.01676 0.0
H388 H 0.04851 0.66123 0.34031 0.0
H389 H 0.97206 0.68082 0.26494 0.0
H390 H 0.04842 0.62808 0.2133 0.0
H391 H 0.9713 0.64736 0.14089 0.0
H392 H 0.98287 0.60314 0.85882 0.0
H393 H 0.98444 0.6352 0.98659 0.0
H394 H 0.03474 0.58813 0.15861 0.0
H395 H 0.03396 0.55627 0.02647 0.0
C396 C 0.03163 0.65834 0.29658 0.0
C397 C 1.01031 0.67366 0.31225 0.0
C398 C 0.03145 0.63914 0.22401 0.0
C399 C 1.00988 0.63473 0.16498 0.0
C400 C 0.98854 0.6502 0.1822 0.0
C401 C 0.98882 0.66938 0.25424 0.0
C402 C 0.99422 0.59946 0.92399 0.0
C403 C 1.00817 0.57691 0.93188 0.0
C404 C 0.995 0.61795 0.99844 0.0
C405 C 1.00953 0.61457 0.08499 0.0
C406 C 0.02347 0.59183 0.0933 0.0
C407 C 0.02285 0.57332 0.01778 0.0
H408 H 0.96515 0.2569 0.24555 0.0
H409 H 0.04357 0.2511 0.32645 0.0
H410 H 0.95524 0.22183 0.35583 0.0
H411 H 0.0337 0.21605 0.43677 0.0
H412 H 1.00962 0.13628 0.28889 0.0
H413 H 1.01558 0.18174 0.28695 0.0
H414 H 0.96463 0.18989 0.53461 0.0
H415 H 0.95917 0.1437 0.53906 0.0
C416 C 0.97986 0.24941 0.293 0.0
C417 C 1.00508 0.25616 0.27751 0.0
C418 C 0.9742 0.22942 0.35623 0.0
C419 C 0.99385 0.21621 0.40255 0.0
C420 C 0.01833 0.2262 0.40161 0.0
C421 C 0.02398 0.24619 0.33854 0.0
C422 C 0.99992 0.14769 0.34369 0.0
C423 C 0.98406 0.13665 0.41425 0.0
C424 C 1.00348 0.17357 0.34323 0.0
C425 C 0.99113 0.18889 0.41289 0.0
C426 C 0.97466 0.17814 0.48197 0.0
C427 C 0.9713 0.15198 0.48326 0.0
H428 H 0.27147 0.97098 0.25298 0.0
H429 H 0.29412 0.04717 0.3205 0.0
H430 H 0.30396 0.95468 0.36422 0.0
H431 H 0.32654 0.03123 0.4309 0.0
H432 H 0.39331 1.00298 0.56502 0.0
H433 H 0.34747 1.00575 0.56039 0.0
H434 H 0.34722 0.95976 0.29561 0.0
H435 H 0.39287 0.95653 0.30244 0.0
C436 C 0.2823 0.98419 0.29698 0.0
C437 C 0.28077 1.01018 0.27847 0.0
C438 C 0.30097 0.97491 0.35989 0.0
C439 C 0.31812 0.99166 0.40381 0.0
C440 C 0.3136 1.01782 0.39813 0.0
C441 C 0.29503 0.02705 0.33499 0.0
C442 C 0.38329 0.99281 0.50799 0.0
C443 C 0.39649 0.97985 0.43338 0.0
C444 C 0.35712 0.99427 0.50569 0.0
C445 C 0.34381 0.98304 0.42775 0.0
C446 C 0.35691 0.96822 0.3579 0.0
C447 C 0.38309 0.96659 0.36092 0.0
H448 H 0.50762 0.28967 0.30217 0.0
H449 H 0.58222 0.27863 0.18299 0.0
H450 H 0.5234 0.32206 0.41231 0.0
H451 H 0.59877 0.31023 0.29788 0.0
H452 H 0.5501 0.38604 0.57605 0.0
H453 H 0.54807 0.34102 0.53811 0.0
H454 H 0.59222 0.35414 0.27319 0.0
H455 H 0.59461 0.39875 0.31341 0.0
C456 C 0.52776 0.29308 0.30477 0.0
C457 C 0.54384 0.28185 0.23525 0.0
C458 C 0.5369 0.31168 0.36784 0.0
C459 C 0.56234 0.31904 0.36266 0.0
C460 C 0.579 0.30525 0.30204 0.0
C461 C 0.5697 0.28697 0.23741 0.0
C462 C 0.55984 0.37896 0.51126 0.0
C463 C 0.57207 0.39562 0.44635 0.0
C464 C 0.55877 0.35329 0.48962 0.0
C465 C 0.56971 0.344 0.40205 0.0
C466 C 0.58387 0.36049 0.34204 0.0
C467 C 0.58512 0.38612 0.36436 0.0
H468 H 0.25842 0.5812 0.20669 0.0
H469 H 0.25084 0.50572 0.32222 0.0
H470 H 0.22522 0.5958 0.31796 0.0
H471 H 0.21674 0.51951 0.4283 0.0
H472 H 0.14519 0.54168 0.55613 0.0
H473 H 0.19095 0.54166 0.5395 0.0
H474 H 0.18358 0.58588 0.27086 0.0
H475 H 0.13823 0.58686 0.2919 0.0
C476 C 0.2506 0.56813 0.26024 0.0
C477 C 0.25665 0.54242 0.25607 0.0
C478 C 0.23136 0.57631 0.32273 0.0
C479 C 0.21759 0.5586 0.37828 0.0
C480 C 0.22674 0.53371 0.38608 0.0
C481 C 0.24638 0.5257 0.32538 0.0
C482 C 0.15362 0.55185 0.49532 0.0
C483 C 0.13843 0.56417 0.42523 0.0
C484 C 0.17973 0.55191 0.48571 0.0
C485 C 0.19103 0.56385 0.40422 0.0
C486 C 0.17571 0.57709 0.33631 0.0
C487 C 0.14965 0.5774 0.34724 0.0
H488 H 0.98476 0.7983 0.18545 0.0
H489 H 0.05978 0.77047 0.24379 0.0
H490 H 1.00203 0.83073 0.07753 0.0
H491 H 0.0773 0.80311 0.13642 0.0
H492 H 0.0816 0.89271 0.19029 0.0
H493 H 0.07387 0.84755 0.20792 0.0
H494 H 0.02916 0.84833 0.94009 0.0
H495 H 0.03638 0.89361 0.9248 0.0
C496 C 1.0048 0.79814 0.16952 0.0
C497 C 0.02107 0.78226 0.2224 0.0
C498 C 1.01475 0.81671 0.10816 0.0
C499 C 0.04103 0.81959 0.10072 0.0
C500 C 0.05701 0.80124 0.14186 0.0
C501 C 0.047 0.78248 0.20232 0.0
C502 C 0.07084 0.883 0.13372 0.0
C503 C 0.05942 0.89643 0.0565 0.0
C504 C 0.06661 0.85717 0.14301 0.0
C505 C 0.05109 0.84452 0.07457 0.0
C506 C 0.04126 0.85768 0.99331 0.0
C507 C 0.04532 0.88349 0.98473 0.0
H508 H 0.73821 0.98457 0.19197 0.0
H509 H 0.76599 0.06045 0.22838 0.0
H510 H 0.7064 0.99978 0.07718 0.0
H511 H 0.73402 0.07596 0.11322 0.0
H512 H 0.64514 0.07999 0.18343 0.0
H513 H 0.69059 0.07448 0.18865 0.0
H514 H 0.68685 0.02394 0.93757 0.0
H515 H 0.64122 0.0291 0.93405 0.0
C516 C 0.73852 1.00425 0.1698 0.0
C517 C 0.75407 0.02149 0.21898 0.0
C518 C 0.72032 1.01305 0.10409 0.0
C519 C 0.71744 0.03917 0.0886 0.0
C520 C 0.7358 0.05579 0.12507 0.0
C521 C 0.75415 0.04692 0.19029 0.0
C522 C 0.65413 0.06847 0.12719 0.0
C523 C 0.63975 0.05469 0.05924 0.0
C524 C 0.6802 0.06549 0.1293 0.0
C525 C 0.69221 0.04878 0.06316 0.0
C526 C 0.67802 0.03691 0.98919 0.0
C527 C 0.65196 0.03976 0.98765 0.0
H528 H 0.56482 0.73076 0.22635 0.0
H529 H 0.49425 0.77067 0.19306 0.0
H530 H 0.54883 0.69688 0.12163 0.0
H531 H 0.47833 0.73671 0.08925 0.0
H532 H 0.48669 0.64585 0.91359 0.0
H533 H 0.50258 0.68943 0.92698 0.0
H534 H 0.49396 0.6856 0.24476 0.0
H535 H 0.47864 0.64211 0.23121 0.0
C536 C 0.54671 0.7332 0.19039 0.0
C537 C 0.53049 0.75285 0.2193 0.0
C538 C 0.53753 0.71381 0.13097 0.0
C539 C 0.51235 0.71437 0.09949 0.0
C540 C 0.49787 0.7362 0.11274 0.0
C541 C 0.50709 0.75566 0.17173 0.0
C542 C 0.48763 0.6548 0.98558 0.0
C543 C 0.48151 0.64118 0.07151 0.0
C544 C 0.49669 0.67942 0.99305 0.0
C545 C 0.49944 0.69034 0.08658 0.0
C546 C 0.49177 0.67724 0.17193 0.0
C547 C 0.48287 0.65266 0.16443 0.0
H548 H 0.80004 0.56005 0.2017 0.0
H549 H 0.76746 0.48551 0.19893 0.0
H550 H 0.83319 0.54581 0.09128 0.0
H551 H 0.80075 0.47099 0.08815 0.0
H552 H 0.88787 0.45828 0.17497 0.0
H553 H 0.8427 0.46711 0.17367 0.0
H554 H 0.85399 0.52466 0.95081 0.0
H555 H 0.89917 0.51641 0.95605 0.0
C556 C 0.79903 0.54111 0.17154 0.0
C557 C 0.78177 0.52369 0.20962 0.0
C558 C 0.81805 0.53282 0.10849 0.0
C559 C 0.81985 0.50705 0.08398 0.0
C560 C 0.79988 0.49084 0.10755 0.0
C561 C 0.78072 0.49921 0.17003 0.0
C562 C 0.8805 0.47227 0.12392 0.0
C563 C 0.89678 0.48702 0.06662 0.0
C564 C 0.85467 0.47713 0.1219 0.0
C565 C 0.84492 0.49657 0.06156 0.0
C566 C 0.86108 0.50961 0.99768 0.0
C567 C 0.88684 0.50501 1.00103 0.0
H568 H 0.06428 0.22315 0.9816 0.0
H569 H 0.9871 0.23184 0.88916 0.0
H570 H 0.06493 0.18025 0.91452 0.0
H571 H 0.9874 0.18879 0.82275 0.0
H572 H 0.99917 0.1108 0.67536 0.0
H573 H 1.00196 0.15632 0.70784 0.0
H574 H 0.04724 0.14112 0.96712 0.0
H575 H 0.04464 0.09614 0.93447 0.0
C576 C 0.04778 0.21627 0.94287 0.0
C577 C 0.0259 0.23129 0.93818 0.0
C578 C 0.04791 0.1914 0.90616 0.0
C579 C 0.02607 0.18061 0.86416 0.0
C580 C 1.00468 0.19628 0.85359 0.0
C581 C 1.00455 0.22116 0.89079 0.0
C582 C 1.00979 0.1172 0.7391 0.0
C583 C 0.02155 0.09955 0.80238 0.0
C584 C 1.01135 0.14339 0.75801 0.0
C585 C 0.02499 0.15274 0.84004 0.0
C586 C 0.03694 0.13498 0.90223 0.0
C587 C 0.03521 0.10895 0.88391 0.0
H588 H 0.30974 0.06817 0.9482 0.0
H589 H 0.30672 0.98732 0.91896 0.0
H590 H 0.35259 0.06813 0.88082 0.0
H591 H 0.3497 0.98686 0.85471 0.0
H592 H 0.42645 0.99328 0.70377 0.0
H593 H 0.38111 0.99519 0.73706 0.0
H594 H 0.39322 0.05763 0.93702 0.0
H595 H 0.43827 0.05564 0.90385 0.0
C596 C 0.31785 0.05048 0.9233 0.0
C597 C 0.30442 0.02784 0.93615 0.0
C598 C 0.34275 0.05031 0.88685 0.0
C599 C 0.35517 0.02743 0.86342 0.0
C600 C 0.34104 1.00495 0.87051 0.0
C601 C 0.31614 1.00518 0.90657 0.0
C602 C 0.41939 1.00757 0.75414 0.0
C603 C 0.4362 0.02431 0.80081 0.0
C604 C 0.39329 1.00863 0.7737 0.0
C605 C 0.38304 0.02678 0.83899 0.0
C606 C 0.39996 0.04369 0.88459 0.0
C607 C 0.42603 0.04239 0.86626 0.0
H608 H 0.47098 0.31432 0.0102 0.0
H609 H 0.53766 0.30267 0.83401 0.0
H610 H 0.46805 0.3578 0.95039 0.0
H611 H 0.53503 0.34622 0.77395 0.0
H612 H 0.51914 0.4262 0.65724 0.0
H613 H 0.51479 0.38062 0.68512 0.0
H614 H 0.49153 0.39509 0.98625 0.0
H615 H 0.49509 0.44023 0.95765 0.0
C616 C 0.4843 0.32068 0.95471 0.0
C617 C 0.50414 0.30474 0.92488 0.0
C618 C 0.48301 0.34587 0.92201 0.0
C619 C 0.50159 0.35593 0.85851 0.0
C620 C 0.52028 0.33932 0.82235 0.0
C621 C 0.52166 0.31416 0.85583 0.0
C622 C 0.51306 0.41963 0.72923 0.0
C623 C 0.50758 0.43708 0.80504 0.0
C624 C 0.51067 0.39344 0.74542 0.0
C625 C 0.5028 0.38391 0.83798 0.0
C626 C 0.49717 0.40147 0.91331 0.0
C627 C 0.49945 0.42754 0.89706 0.0
H628 H 0.22916 0.54872 0.88319 0.0
H629 H 0.22418 0.47146 0.9801 0.0
H630 H 0.18607 0.54695 0.82196 0.0
H631 H 0.18116 0.469 0.9155 0.0
H632 H 0.09586 0.48361 0.92292 0.0
H633 H 0.14077 0.48207 0.95698 0.0
H634 H 0.1542 0.53461 0.71852 0.0
H635 H 0.10889 0.53648 0.68503 0.0
C636 C 0.21921 0.53089 0.88677 0.0
C637 C 0.23043 0.51005 0.93433 0.0
C638 C 0.19423 0.52986 0.85223 0.0
C639 C 0.1795 0.50791 0.86439 0.0
C640 C 0.19141 0.48649 0.90626 0.0
C641 C 0.21643 0.48761 0.94122 0.0
C642 C 0.10832 0.49473 0.87675 0.0
C643 C 0.09846 0.51015 0.80077 0.0
C644 C 0.13435 0.49365 0.89586 0.0
C645 C 0.15163 0.50798 0.83979 0.0
C646 C 0.14172 0.52327 0.76332 0.0
C647 C 0.11563 0.52428 0.74379 0.0
H648 H 0.04913 0.80854 0.56233 0.0
H649 H 0.96812 0.80848 0.57868 0.0
H650 H 0.05011 0.85142 0.6275 0.0
H651 H 0.96881 0.85118 0.64806 0.0
H652 H 0.97634 0.93755 0.62729 0.0
H653 H 0.9749 0.89247 0.59293 0.0
H654 H 0.04545 0.88241 0.74799 0.0
H655 H 0.04684 0.92774 0.78186 0.0
C656 C 0.03154 0.81724 0.58507 0.0
C657 C 1.0086 0.80468 0.56783 0.0
C658 C 0.03203 0.84211 0.6218 0.0
C659 C 1.00952 0.85537 0.64243 0.0
C660 C 0.9866 0.84208 0.63136 0.0
C661 C 0.98615 0.81723 0.59385 0.0
C662 C 0.99149 0.92572 0.65489 0.0
C663 C 1.01166 0.93648 0.70786 0.0
C664 C 0.99056 0.89962 0.63586 0.0
C665 C 1.00992 0.88324 0.66822 0.0
C666 C 0.03014 0.8941 0.72119 0.0
C667 C 0.03089 0.92022 0.74141 0.0
H668 H 0.72524 0.97062 0.56534 0.0
H669 H 0.72701 0.05184 0.57094 0.0
H670 H 0.68243 0.97125 0.63306 0.0
H671 H 0.68403 0.0528 0.63609 0.0
H672 H 0.6077 0.04707 0.79443 0.0
H673 H 0.65299 0.0456 0.75959 0.0
H674 H 0.64159 0.98043 0.57284 0.0
H675 H 0.59657 0.98202 0.60734 0.0
C676 C 0.71686 0.98861 0.58506 0.0
C677 C 0.72995 1.01114 0.56557 0.0
C678 C 0.69199 0.98907 0.62179 0.0
C679 C 0.67924 1.01212 0.63901 0.0
C680 C 0.69299 0.03462 0.62512 0.0
C681 C 0.71787 0.03412 0.58856 0.0
C682 C 0.61488 0.03232 0.74644 0.0
C683 C 0.59827 1.01465 0.704 0.0
C684 C 0.64096 0.03153 0.72591 0.0
C685 C 0.6514 1.01271 0.66401 0.0
C686 C 0.63468 0.99492 0.62257 0.0
C687 C 0.60863 0.99597 0.64172 0.0
H688 H 0.55585 0.73245 0.64028 0.0
H689 H 0.48435 0.72209 0.49504 0.0
H690 H 0.55337 0.68919 0.70679 0.0
H691 H 0.48212 0.67895 0.55866 0.0
H692 H 0.5102 0.59579 0.54329 0.0
H693 H 0.5098 0.6411 0.50942 0.0
H694 H 0.5274 0.65627 0.81548 0.0
H695 H 0.52667 0.61059 0.85068 0.0
C696 C 0.53906 0.7214 0.62643 0.0
C697 C 0.51998 0.73108 0.56436 0.0
C698 C 0.53778 0.69645 0.66342 0.0
C699 C 0.51771 0.68035 0.63693 0.0
C700 C 0.49797 0.69062 0.57995 0.0
C701 C 0.49901 0.71557 0.54485 0.0
C702 C 0.51385 0.60872 0.60378 0.0
C703 C 0.51828 0.59943 0.69994 0.0
C704 C 0.51349 0.63478 0.58441 0.0
C705 C 0.51822 0.6525 0.65995 0.0
C706 C 0.52342 0.64324 0.75576 0.0
C707 C 0.52296 0.61705 0.77596 0.0
H708 H 0.80415 0.55673 0.62145 0.0
H709 H 0.81406 0.48261 0.49601 0.0
H710 H 0.8475 0.55515 0.68655 0.0
H711 H 0.85723 0.48116 0.55844 0.0
H712 H 0.9409 0.50507 0.54235 0.0
H713 H 0.89573 0.50503 0.50564 0.0
H714 H 0.88006 0.53332 0.79881 0.0
H715 H 0.92564 0.5328 0.83603 0.0
C716 C 0.81514 0.53964 0.61167 0.0
C717 C 0.80528 0.51952 0.55558 0.0
C718 C 0.84017 0.53885 0.64775 0.0
C719 C 0.85618 0.5182 0.62633 0.0
C720 C 0.84572 0.49753 0.5754 0.0
C721 C 0.82072 0.49813 0.54118 0.0
C722 C 0.92783 0.51104 0.59946 0.0
C723 C 0.93683 0.51831 0.69321 0.0
C724 C 0.90185 0.51092 0.57861 0.0
C725 C 0.884 0.51866 0.65001 0.0
C726 C 0.89312 0.52682 0.74268 0.0
C727 C 0.91917 0.52634 0.76436 0.0
loop_
_geom_bond_atom_site_label_1
_geom_bond_atom_site_label_2
_geom_bond_distance
_geom_bond_site_symmetry_2
_ccdc_geom_bond_type
H0 C3 0.929 . S
H1 C6 0.929 . S
H2 C8 0.930 . S
C3 H0 0.929 . S
C3 C4 1.398 . S
C3 C5 1.396 . S
C4 C3 1.398 . S
C4 C8 1.407 . S
C5 C3 1.396 . S
C5 C6 1.394 . S
C6 H1 0.929 . S
C6 C5 1.394 . S
C6 C7 1.382 . S
C7 C6 1.382 . S
C7 C8 1.392 . S
C7 N9 1.420 . S
C8 H2 0.930 . S
C8 C4 1.407 . S
C8 C7 1.392 . S
N9 C7 1.420 . S
N9 C10 1.244 . S
C10 N9 1.244 . S
H11 C14 0.929 . S
H12 C17 0.929 . S
H13 C19 0.930 . S
C14 H11 0.929 . S
C14 C15 1.395 1_655 S
C14 C16 1.395 1_655 S
C15 C14 1.395 1_455 S
C15 C19 1.413 . S
C16 C14 1.395 1_455 S
C16 C17 1.397 . S
C17 H12 0.929 . S
C17 C16 1.397 . S
C17 C18 1.382 . S
C18 C17 1.382 . S
C18 C19 1.392 . S
C18 N20 1.420 . S
C19 H13 0.930 . S
C19 C15 1.413 . S
C19 C18 1.392 . S
N20 C18 1.420 . S
N20 C21 1.232 1_455 S
C21 N20 1.232 1_655 S
H22 C25 0.929 . S
H23 C28 0.929 . S
H24 C30 0.930 . S
C25 H22 0.929 . S
C25 C26 1.395 1_565 S
C25 C27 1.395 1_565 S
C26 C25 1.395 1_545 S
C26 C30 1.413 . S
C27 C25 1.395 1_545 S
C27 C28 1.397 . S
C28 H23 0.929 . S
C28 C27 1.397 . S
C28 C29 1.382 . S
C29 C28 1.382 . S
C29 C30 1.392 . S
C29 N31 1.420 . S
C30 H24 0.930 . S
C30 C26 1.413 . S
C30 C29 1.392 . S
N31 C29 1.420 . S
N31 C32 1.232 1_545 S
C32 N31 1.232 1_565 S
H33 C36 0.929 . S
H34 C39 0.929 . S
H35 C41 0.930 . S
C36 H33 0.929 . S
C36 C37 1.398 . S
C36 C38 1.396 . S
C37 C36 1.398 . S
C37 C41 1.407 . S
C38 C36 1.396 . S
C38 C39 1.394 . S
C39 H34 0.929 . S
C39 C38 1.394 . S
C39 C40 1.382 . S
C40 C39 1.382 . S
C40 C41 1.392 . S
C40 N42 1.420 . S
C41 H35 0.930 . S
C41 C37 1.407 . S
C41 C40 1.392 . S
N42 C40 1.420 . S
N42 C43 1.244 . S
C43 N42 1.244 . S
H44 C47 0.929 1_556 S
H45 C50 0.929 . S
H46 C52 0.930 . S
C47 H44 0.929 1_554 S
C47 C48 1.398 1_554 S
C47 C49 1.396 . S
C48 C47 1.398 1_556 S
C48 C52 1.407 . S
C49 C47 1.396 . S
C49 C50 1.394 . S
C50 H45 0.929 . S
C50 C49 1.394 . S
C50 C51 1.382 . S
C51 C50 1.382 . S
C51 C52 1.392 1_554 S
C51 N53 1.420 . S
C52 H46 0.930 . S
C52 C48 1.407 . S
C52 C51 1.392 1_556 S
N53 C51 1.420 . S
N53 C54 1.244 . S
C54 N53 1.244 . S
H55 C58 0.929 1_556 S
H56 C61 0.929 . S
H57 C63 0.930 . S
C58 H55 0.929 1_554 S
C58 C59 1.394 1_654 S
C58 C60 1.394 1_655 S
C59 C58 1.394 1_456 S
C59 C63 1.416 . S
C60 C58 1.394 1_455 S
C60 C61 1.398 . S
C61 H56 0.929 . S
C61 C60 1.398 . S
C61 C62 1.382 . S
C62 C61 1.382 . S
C62 C63 1.392 1_554 S
C62 N64 1.420 . S
C63 H57 0.930 . S
C63 C59 1.416 . S
C63 C62 1.392 1_556 S
N64 C62 1.420 . S
N64 C65 1.237 1_455 S
C65 N64 1.237 1_655 S
H66 C69 0.929 1_556 S
H67 C72 0.929 . S
H68 C74 0.930 . S
C69 H66 0.929 1_554 S
C69 C70 1.395 1_564 S
C69 C71 1.394 1_565 S
C70 C69 1.395 1_546 S
C70 C74 1.416 . S
C71 C69 1.394 1_545 S
C71 C72 1.398 . S
C72 H67 0.929 . S
C72 C71 1.398 . S
C72 C73 1.382 . S
C73 C72 1.382 . S
C73 C74 1.392 1_554 S
C73 N75 1.420 . S
C74 H68 0.930 . S
C74 C70 1.416 . S
C74 C73 1.392 1_556 S
N75 C73 1.420 . S
N75 C76 1.237 1_545 S
C76 N75 1.237 1_565 S
H77 C80 0.929 1_556 S
H78 C83 0.929 . S
H79 C85 0.930 . S
C80 H77 0.929 1_554 S
C80 C81 1.398 1_554 S
C80 C82 1.396 . S
C81 C80 1.398 1_556 S
C81 C85 1.407 . S
C82 C80 1.396 . S
C82 C83 1.394 . S
C83 H78 0.929 . S
C83 C82 1.394 . S
C83 C84 1.382 . S
C84 C83 1.382 . S
C84 C85 1.392 1_554 S
C84 N86 1.420 . S
C85 H79 0.930 . S
C85 C81 1.407 . S
C85 C84 1.392 1_556 S
N86 C84 1.420 . S
N86 C87 1.244 . S
C87 N86 1.244 . S
Ho88 C91 2.811 . S
Ho88 O108 2.322 . S
Ho88 O110 2.378 . S
Ho88 O111 2.530 . S
Ho88 O112 2.381 . S
Ho88 O113 2.669 1_565 S
Ho88 O115 2.346 1_565 S
Ho88 O119 2.305 1_455 S
Ho89 C100 2.811 . S
Ho89 O109 2.346 1_545 S
Ho89 O113 2.305 1_655 S
Ho89 O114 2.322 . S
Ho89 O116 2.378 . S
Ho89 O117 2.526 . S
Ho89 O118 2.381 . S
Ho89 O119 2.669 1_545 S
C90 O108 1.259 1_655 S
C90 O109 1.268 . S
C91 Ho88 2.811 . S
C91 C92 1.484 1_556 S
C91 O110 1.215 . S
C91 O111 1.305 . S
C92 C91 1.484 1_554 S
C92 C93 1.351 . S
C92 C97 1.414 . S
C93 C92 1.351 . S
C93 C94 1.442 . S
C93 H120 0.930 1_455 S
C94 C93 1.442 . S
C94 C95 1.381 . S
C94 H121 0.931 1_455 S
C95 C94 1.381 . S
C95 C96 1.321 . S
C96 C95 1.321 . S
C96 C97 1.403 . S
C96 H122 0.934 . S
C97 C92 1.414 . S
C97 C96 1.403 . S
C97 H123 0.930 1_554 S
C98 O112 1.298 . S
C98 O113 1.243 1_565 S
C99 O114 1.259 1_455 S
C99 O115 1.268 . S
C100 Ho89 2.811 . S
C100 C101 1.488 . S
C100 O116 1.215 . S
C100 O117 1.295 . S
C101 C100 1.488 . S
C101 C102 1.348 . S
C101 C106 1.413 . S
C102 C101 1.348 . S
C102 C103 1.442 . S
C102 H124 0.930 1_655 S
C103 C102 1.442 . S
C103 C104 1.381 . S
C103 H125 0.931 1_655 S
C104 C103 1.381 . S
C104 C105 1.321 . S
C105 C104 1.321 . S
C105 C106 1.403 . S
C105 H126 0.934 . S
C106 C101 1.413 . S
C106 C105 1.403 . S
C106 H127 0.930 . S
C107 O118 1.275 . S
C107 O119 1.256 1_545 S
O108 Ho88 2.322 . S
O108 C90 1.259 1_455 S
O109 Ho89 2.346 1_565 S
O109 C90 1.268 . S
O110 Ho88 2.378 . S
O110 C91 1.215 . S
O111 Ho88 2.530 . S
O111 C91 1.305 . S
O112 Ho88 2.381 . S
O112 C98 1.298 . S
O113 Ho88 2.669 1_545 S
O113 Ho89 2.305 1_455 S
O113 C98 1.243 1_545 S
O114 Ho89 2.322 . S
O114 C99 1.259 1_655 S
O115 Ho88 2.346 1_545 S
O115 C99 1.268 . S
O116 Ho89 2.378 . S
O116 C100 1.215 . S
O117 Ho89 2.526 . S
O117 C100 1.295 . S
O118 Ho89 2.381 . S
O118 C107 1.275 . S
O119 Ho88 2.305 1_655 S
O119 Ho89 2.669 1_565 S
O119 C107 1.256 1_565 S
H120 C93 0.930 1_655 S
H121 C94 0.931 1_655 S
H122 C96 0.934 . S
H123 C97 0.930 1_556 S
H124 C102 0.930 1_455 S
H125 C103 0.931 1_455 S
H126 C105 0.934 . S
H127 C106 0.930 . S
Ho128 C131 2.811 . S
Ho128 O148 2.322 . S
Ho128 O150 2.378 . S
Ho128 O151 2.528 . S
Ho128 O152 2.381 . S
Ho128 O153 2.669 . S
Ho128 O155 2.346 . S
Ho128 O159 2.305 1_545 S
Ho129 C140 2.811 . S
Ho129 O149 2.346 . S
Ho129 O153 2.305 1_565 S
Ho129 O154 2.322 . S
Ho129 O156 2.378 . S
Ho129 O157 2.524 . S
Ho129 O158 2.381 . S
Ho129 O159 2.669 . S
C130 O148 1.259 1_565 S
C130 O149 1.268 . S
C131 Ho128 2.811 . S
C131 C132 1.488 1_556 S
C131 O150 1.215 . S
C131 O151 1.300 . S
C132 C131 1.488 1_554 S
C132 C133 1.348 . S
C132 C137 1.413 . S
C133 C132 1.348 . S
C133 C134 1.442 . S
C133 H160 0.930 1_545 S
C134 C133 1.442 . S
C134 C135 1.381 . S
C134 H161 0.931 1_545 S
C135 C134 1.381 . S
C135 C136 1.321 . S
C136 C135 1.321 . S
C136 C137 1.403 . S
C136 H162 0.934 . S
C137 C132 1.413 . S
C137 C136 1.403 . S
C137 H163 0.930 1_554 S
C138 O152 1.275 . S
C138 O153 1.256 . S
C139 O154 1.259 1_545 S
C139 O155 1.268 . S
C140 Ho129 2.811 . S
C140 C141 1.488 . S
C140 O156 1.215 . S
C140 O157 1.290 . S
C141 C140 1.488 . S
C141 C142 1.348 . S
C141 C146 1.413 . S
C142 C141 1.348 . S
C142 C143 1.442 . S
C142 H164 0.930 1_565 S
C143 C142 1.442 . S
C143 C144 1.381 . S
C143 H165 0.931 1_565 S
C144 C143 1.381 . S
C144 C145 1.321 . S
C145 C144 1.321 . S
C145 C146 1.403 . S
C145 H166 0.934 . S
C146 C141 1.413 . S
C146 C145 1.403 . S
C146 H167 0.930 . S
C147 O158 1.275 . S
C147 O159 1.256 . S
O148 Ho128 2.322 . S
O148 C130 1.259 1_545 S
O149 Ho129 2.346 . S
O149 C130 1.268 . S
O150 Ho128 2.378 . S
O150 C131 1.215 . S
O151 Ho128 2.528 . S
O151 C131 1.300 . S
O152 Ho128 2.381 . S
O152 C138 1.275 . S
O153 Ho128 2.669 . S
O153 Ho129 2.305 1_545 S
O153 C138 1.256 . S
O154 Ho129 2.322 . S
O154 C139 1.259 1_565 S
O155 Ho128 2.346 . S
O155 C139 1.268 . S
O156 Ho129 2.378 . S
O156 C140 1.215 . S
O157 Ho129 2.524 . S
O157 C140 1.290 . S
O158 Ho129 2.381 . S
O158 C147 1.275 . S
O159 Ho128 2.305 1_565 S
O159 Ho129 2.669 . S
O159 C147 1.256 . S
H160 C133 0.930 1_565 S
H161 C134 0.931 1_565 S
H162 C136 0.934 . S
H163 C137 0.930 1_556 S
H164 C142 0.930 1_545 S
H165 C143 0.931 1_545 S
H166 C145 0.934 . S
H167 C146 0.930 . S
Ho168 C171 2.811 . S
Ho168 O188 2.322 . S
Ho168 O190 2.378 . S
Ho168 O191 2.524 . S
Ho168 O192 2.381 . S
Ho168 O193 2.669 . S
Ho168 O195 2.346 . S
Ho168 O199 2.305 . S
Ho169 C180 2.811 . S
Ho169 O189 2.346 . S
Ho169 O193 2.305 . S
Ho169 O194 2.322 . S
Ho169 O196 2.378 . S
Ho169 O197 2.524 . S
Ho169 O198 2.381 . S
Ho169 O199 2.669 . S
C170 O188 1.259 . S
C170 O189 1.268 . S
C171 Ho168 2.811 . S
C171 C172 1.488 1_556 S
C171 O190 1.215 . S
C171 O191 1.289 . S
C172 C171 1.488 1_554 S
C172 C173 1.348 . S
C172 C177 1.413 . S
C173 C172 1.348 . S
C173 C174 1.442 . S
C173 H200 0.930 . S
C174 C173 1.442 . S
C174 C175 1.381 . S
C174 H201 0.931 . S
C175 C174 1.381 . S
C175 C176 1.321 . S
C176 C175 1.321 . S
C176 C177 1.403 . S
C176 H202 0.934 . S
C177 C172 1.413 . S
C177 C176 1.403 . S
C177 H203 0.930 1_554 S
C178 O192 1.275 . S
C178 O193 1.256 . S
C179 O194 1.259 . S
C179 O195 1.268 . S
C180 Ho169 2.811 . S
C180 C181 1.488 . S
C180 O196 1.215 . S
C180 O197 1.289 . S
C181 C180 1.488 . S
C181 C182 1.348 . S
C181 C186 1.413 . S
C182 C181 1.348 . S
C182 C183 1.442 . S
C182 H204 0.930 . S
C183 C182 1.442 . S
C183 C184 1.381 . S
C183 H205 0.931 . S
C184 C183 1.381 . S
C184 C185 1.321 . S
C185 C184 1.321 . S
C185 C186 1.403 . S
C185 H206 0.934 . S
C186 C181 1.413 . S
C186 C185 1.403 . S
C186 H207 0.930 . S
C187 O198 1.275 . S
C187 O199 1.256 . S
O188 Ho168 2.322 . S
O188 C170 1.259 . S
O189 Ho169 2.346 . S
O189 C170 1.268 . S
O190 Ho168 2.378 . S
O190 C171 1.215 . S
O191 Ho168 2.524 . S
O191 C171 1.289 . S
O192 Ho168 2.381 . S
O192 C178 1.275 . S
O193 Ho168 2.669 . S
O193 Ho169 2.305 . S
O193 C178 1.256 . S
O194 Ho169 2.322 . S
O194 C179 1.259 . S
O195 Ho168 2.346 . S
O195 C179 1.268 . S
O196 Ho169 2.378 . S
O196 C180 1.215 . S
O197 Ho169 2.524 . S
O197 C180 1.289 . S
O198 Ho169 2.381 . S
O198 C187 1.275 . S
O199 Ho168 2.305 . S
O199 Ho169 2.669 . S
O199 C187 1.256 . S
H200 C173 0.930 . S
H201 C174 0.931 . S
H202 C176 0.934 . S
H203 C177 0.930 1_556 S
H204 C182 0.930 . S
H205 C183 0.931 . S
H206 C185 0.934 . S
H207 C186 0.930 . S
Ho208 C211 2.811 . S
Ho208 O228 2.322 . S
Ho208 O230 2.378 . S
Ho208 O231 2.524 . S
Ho208 O232 2.381 . S
Ho208 O233 2.669 1_655 S
Ho208 O235 2.346 1_655 S
Ho208 O239 2.305 . S
Ho209 C220 2.811 . S
Ho209 O229 2.346 1_455 S
Ho209 O233 2.305 . S
Ho209 O234 2.322 . S
Ho209 O236 2.378 . S
Ho209 O237 2.524 . S
Ho209 O238 2.381 . S
Ho209 O239 2.669 1_455 S
C210 O228 1.259 . S
C210 O229 1.268 . S
C211 Ho208 2.811 . S
C211 C212 1.488 1_556 S
C211 O230 1.215 . S
C211 O231 1.289 . S
C212 C211 1.488 1_554 S
C212 C213 1.348 . S
C212 C217 1.413 . S
C213 C212 1.348 . S
C213 C214 1.442 . S
C213 H240 0.930 . S
C214 C213 1.442 . S
C214 C215 1.381 . S
C214 H241 0.931 . S
C215 C214 1.381 . S
C215 C216 1.321 . S
C216 C215 1.321 . S
C216 C217 1.403 . S
C216 H242 0.934 . S
C217 C212 1.413 . S
C217 C216 1.403 . S
C217 H243 0.930 1_554 S
C218 O232 1.291 . S
C218 O233 1.247 1_655 S
C219 O234 1.259 . S
C219 O235 1.268 . S
C220 Ho209 2.811 . S
C220 C221 1.488 . S
C220 O236 1.215 . S
C220 O237 1.289 . S
C221 C220 1.488 . S
C221 C222 1.348 . S
C221 C226 1.413 . S
C222 C221 1.348 . S
C222 C223 1.442 . S
C222 H244 0.930 . S
C223 C222 1.442 . S
C223 C224 1.381 . S
C223 H245 0.931 . S
C224 C223 1.381 . S
C224 C225 1.321 . S
C225 C224 1.321 . S
C225 C226 1.403 . S
C225 H246 0.934 . S
C226 C221 1.413 . S
C226 C225 1.403 . S
C226 H247 0.930 . S
C227 O238 1.297 . S
C227 O239 1.244 1_455 S
O228 Ho208 2.322 . S
O228 C210 1.259 . S
O229 Ho209 2.346 1_655 S
O229 C210 1.268 . S
O230 Ho208 2.378 . S
O230 C211 1.215 . S
O231 Ho208 2.524 . S
O231 C211 1.289 . S
O232 Ho208 2.381 . S
O232 C218 1.291 . S
O233 Ho208 2.669 1_455 S
O233 Ho209 2.305 . S
O233 C218 1.247 1_455 S
O234 Ho209 2.322 . S
O234 C219 1.259 . S
O235 Ho208 2.346 1_455 S
O235 C219 1.268 . S
O236 Ho209 2.378 . S
O236 C220 1.215 . S
O237 Ho209 2.524 . S
O237 C220 1.289 . S
O238 Ho209 2.381 . S
O238 C227 1.297 . S
O239 Ho208 2.305 . S
O239 Ho209 2.669 1_655 S
O239 C227 1.244 1_655 S
H240 C213 0.930 . S
H241 C214 0.931 . S
H242 C216 0.934 . S
H243 C217 0.930 1_556 S
H244 C222 0.930 . S
H245 C223 0.931 . S
H246 C225 0.934 . S
H247 C226 0.930 . S
H248 C256 0.950 . S
H249 C261 0.950 . S
H250 C258 0.950 . S
H251 C260 0.950 . S
H252 C262 0.950 . S
H253 C264 0.950 . S
H254 C266 0.950 . S
H255 C267 0.950 . S
C256 H248 0.950 . S
C256 C257 1.391 . S
C256 C258 1.391 . S
C257 C256 1.391 . S
C257 C261 1.387 1_565 S
C258 H250 0.950 . S
C258 C256 1.391 . S
C258 C259 1.397 1_565 S
C259 C258 1.397 1_545 S
C259 C260 1.401 . S
C259 C265 1.491 . S
C260 H251 0.950 . S
C260 C259 1.401 . S
C260 C261 1.391 . S
C261 H249 0.950 . S
C261 C257 1.387 1_545 S
C261 C260 1.391 . S
C262 H252 0.950 . S
C262 C263 1.386 . S
C262 C264 1.391 . S
C263 C262 1.386 . S
C263 C267 1.393 1_545 S
C264 H253 0.950 . S
C264 C262 1.391 . S
C264 C265 1.400 . S
C265 C259 1.491 . S
C265 C264 1.400 . S
C265 C266 1.398 1_545 S
C266 H254 0.950 . S
C266 C265 1.398 1_565 S
C266 C267 1.391 . S
C267 H255 0.950 . S
C267 C263 1.393 1_565 S
C267 C266 1.391 . S
H268 C276 0.950 . S
H269 C281 0.950 . S
H270 C278 0.950 . S
H271 C280 0.950 . S
H272 C282 0.950 . S
H273 C284 0.950 . S
H274 C286 0.950 . S
H275 C287 0.950 . S
C276 H268 0.950 . S
C276 C277 1.386 . S
C276 C278 1.391 . S
C277 C276 1.386 . S
C277 C281 1.393 . S
C278 H270 0.950 . S
C278 C276 1.391 . S
C278 C279 1.400 . S
C279 C278 1.400 . S
C279 C280 1.398 . S
C279 C285 1.491 . S
C280 H271 0.950 . S
C280 C279 1.398 . S
C280 C281 1.391 . S
C281 H269 0.950 . S
C281 C277 1.393 . S
C281 C280 1.391 . S
C282 H272 0.950 . S
C282 C283 1.386 . S
C282 C284 1.391 . S
C283 C282 1.386 . S
C283 C287 1.393 . S
C284 H273 0.950 . S
C284 C282 1.391 . S
C284 C285 1.400 . S
C285 C279 1.491 . S
C285 C284 1.400 . S
C285 C286 1.398 . S
C286 H274 0.950 . S
C286 C285 1.398 . S
C286 C287 1.391 . S
C287 H275 0.950 . S
C287 C283 1.393 . S
C287 C286 1.391 . S
H288 C296 0.950 . S
H289 C301 0.950 . S
H290 C298 0.950 . S
H291 C300 0.950 . S
H292 C302 0.950 . S
H293 C304 0.950 . S
H294 C306 0.950 . S
H295 C307 0.950 . S
C296 H288 0.950 . S
C296 C297 1.386 . S
C296 C298 1.391 . S
C297 C296 1.386 . S
C297 C301 1.393 . S
C298 H290 0.950 . S
C298 C296 1.391 . S
C298 C299 1.400 . S
C299 C298 1.400 . S
C299 C300 1.398 . S
C299 C305 1.491 . S
C300 H291 0.950 . S
C300 C299 1.398 . S
C300 C301 1.391 . S
C301 H289 0.950 . S
C301 C297 1.393 . S
C301 C300 1.391 . S
C302 H292 0.950 . S
C302 C303 1.386 . S
C302 C304 1.391 . S
C303 C302 1.386 . S
C303 C307 1.393 . S
C304 H293 0.950 . S
C304 C302 1.391 . S
C304 C305 1.400 . S
C305 C299 1.491 . S
C305 C304 1.400 . S
C305 C306 1.398 . S
C306 H294 0.950 . S
C306 C305 1.398 . S
C306 C307 1.391 . S
C307 H295 0.950 . S
C307 C303 1.393 . S
C307 C306 1.391 . S
H308 C316 0.950 . S
H309 C321 0.950 . S
H310 C318 0.950 . S
H311 C320 0.950 . S
H312 C322 0.950 . S
H313 C324 0.950 . S
H314 C326 0.950 . S
H315 C327 0.950 . S
C316 H308 0.950 . S
C316 C317 1.386 1_655 S
C316 C318 1.391 . S
C317 C316 1.386 1_455 S
C317 C321 1.393 . S
C318 H310 0.950 . S
C318 C316 1.391 . S
C318 C319 1.400 1_655 S
C319 C318 1.400 1_455 S
C319 C320 1.398 . S
C319 C325 1.492 . S
C320 H311 0.950 . S
C320 C319 1.398 . S
C320 C321 1.391 . S
C321 H309 0.950 . S
C321 C317 1.393 . S
C321 C320 1.391 . S
C322 H312 0.950 . S
C322 C323 1.401 . S
C322 C324 1.391 . S
C323 C322 1.401 . S
C323 C327 1.378 1_455 S
C324 H313 0.950 . S
C324 C322 1.391 . S
C324 C325 1.413 . S
C325 C319 1.492 . S
C325 C324 1.413 . S
C325 C326 1.385 1_455 S
C326 H314 0.950 . S
C326 C325 1.385 1_655 S
C326 C327 1.391 . S
C327 H315 0.950 . S
C327 C323 1.378 1_655 S
C327 C326 1.391 . S
H328 C336 0.950 . S
H329 C341 0.950 . S
H330 C338 0.950 . S
H331 C340 0.950 . S
H332 C342 0.949 1_556 S
H333 C344 0.950 . S
H334 C346 0.950 1_556 S
H335 C347 0.950 . S
C336 H328 0.950 . S
C336 C337 1.397 . S
C336 C338 1.391 . S
C337 C336 1.397 . S
C337 C341 1.382 1_545 S
C338 H330 0.950 . S
C338 C336 1.391 . S
C338 C339 1.394 1_545 S
C339 C338 1.394 1_565 S
C339 C340 1.404 . S
C339 C345 1.491 . S
C340 H331 0.950 . S
C340 C339 1.404 . S
C340 C341 1.391 . S
C341 H329 0.950 . S
C341 C337 1.382 1_565 S
C341 C340 1.391 . S
C342 H332 0.949 1_554 S
C342 C343 1.385 1_554 S
C342 C344 1.392 . S
C343 C342 1.385 1_556 S
C343 C347 1.393 1_565 S
C344 H333 0.950 . S
C344 C342 1.392 . S
C344 C345 1.400 . S
C345 C339 1.491 . S
C345 C344 1.400 . S
C345 C346 1.407 1_565 S
C346 H334 0.950 1_554 S
C346 C345 1.407 1_545 S
C346 C347 1.382 1_554 S
C347 H335 0.950 . S
C347 C343 1.393 1_545 S
C347 C346 1.382 1_556 S
H348 C356 0.950 . S
H349 C361 0.950 . S
H350 C358 0.950 . S
H351 C360 0.950 . S
H352 C362 0.950 . S
H353 C364 0.950 . S
H354 C366 0.950 . S
H355 C367 0.950 . S
C356 H348 0.950 . S
C356 C357 1.386 . S
C356 C358 1.391 . S
C357 C356 1.386 . S
C357 C361 1.393 . S
C358 H350 0.950 . S
C358 C356 1.391 . S
C358 C359 1.400 . S
C359 C358 1.400 . S
C359 C360 1.398 . S
C359 C365 1.491 . S
C360 H351 0.950 . S
C360 C359 1.398 . S
C360 C361 1.391 . S
C361 H349 0.950 . S
C361 C357 1.393 . S
C361 C360 1.391 . S
C362 H352 0.950 . S
C362 C363 1.386 . S
C362 C364 1.391 1_556 S
C363 C362 1.386 . S
C363 C367 1.393 . S
C364 H353 0.950 . S
C364 C362 1.391 1_554 S
C364 C365 1.400 . S
C365 C359 1.491 . S
C365 C364 1.400 . S
C365 C366 1.398 . S
C366 H354 0.950 . S
C366 C365 1.398 . S
C366 C367 1.391 1_554 S
C367 H355 0.950 . S
C367 C363 1.393 . S
C367 C366 1.391 1_556 S
H368 C376 0.950 . S
H369 C381 0.950 . S
H370 C378 0.950 . S
H371 C380 0.950 . S
H372 C382 0.950 . S
H373 C384 0.950 . S
H374 C386 0.950 . S
H375 C387 0.950 . S
C376 H368 0.950 . S
C376 C377 1.386 . S
C376 C378 1.391 . S
C377 C376 1.386 . S
C377 C381 1.393 . S
C378 H370 0.950 . S
C378 C376 1.391 . S
C378 C379 1.400 . S
C379 C378 1.400 . S
C379 C380 1.398 . S
C379 C385 1.491 . S
C380 H371 0.950 . S
C380 C379 1.398 . S
C380 C381 1.391 . S
C381 H369 0.950 . S
C381 C377 1.393 . S
C381 C380 1.391 . S
C382 H372 0.950 . S
C382 C383 1.386 . S
C382 C384 1.391 . S
C383 C382 1.386 . S
C383 C387 1.393 1_556 S
C384 H373 0.950 . S
C384 C382 1.391 . S
C384 C385 1.400 1_556 S
C385 C379 1.491 . S
C385 C384 1.400 1_554 S
C385 C386 1.398 . S
C386 H374 0.950 . S
C386 C385 1.398 . S
C386 C387 1.391 . S
C387 H375 0.950 . S
C387 C383 1.393 1_554 S
C387 C386 1.391 . S
H388 C396 0.950 . S
H389 C401 0.950 . S
H390 C398 0.950 . S
H391 C400 0.950 . S
H392 C402 0.950 . S
H393 C404 0.950 . S
H394 C406 0.950 . S
H395 C407 0.950 . S
C396 H388 0.950 . S
C396 C397 1.355 1_455 S
C396 C398 1.391 . S
C397 C396 1.355 1_655 S
C397 C401 1.425 . S
C398 H390 0.950 . S
C398 C396 1.391 . S
C398 C399 1.400 1_455 S
C399 C398 1.400 1_655 S
C399 C400 1.398 . S
C399 C405 1.492 . S
C400 H391 0.950 . S
C400 C399 1.398 . S
C400 C401 1.391 . S
C401 H389 0.950 . S
C401 C397 1.425 . S
C401 C400 1.391 . S
C402 H392 0.950 . S
C402 C403 1.386 . S
C402 C404 1.391 1_556 S
C403 C402 1.386 . S
C403 C407 1.393 1_655 S
C404 H393 0.950 . S
C404 C402 1.391 1_554 S
C404 C405 1.430 . S
C405 C399 1.492 . S
C405 C404 1.430 . S
C405 C406 1.369 1_655 S
C406 H394 0.950 . S
C406 C405 1.369 1_455 S
C406 C407 1.391 1_554 S
C407 H395 0.950 . S
C407 C403 1.393 1_455 S
C407 C406 1.391 1_556 S
H408 C416 0.950 . S
H409 C421 0.950 . S
H410 C418 0.950 . S
H411 C420 0.950 . S
H412 C422 0.950 . S
H413 C424 0.950 1_455 S
H414 C426 0.950 . S
H415 C427 0.950 . S
C416 H408 0.950 . S
C416 C417 1.386 1_655 S
C416 C418 1.391 . S
C417 C416 1.386 1_455 S
C417 C421 1.393 . S
C418 H410 0.950 . S
C418 C416 1.391 . S
C418 C419 1.400 . S
C419 C418 1.400 . S
C419 C420 1.398 1_655 S
C419 C425 1.491 . S
C420 H411 0.950 . S
C420 C419 1.398 1_455 S
C420 C421 1.391 . S
C421 H409 0.950 . S
C421 C417 1.393 . S
C421 C420 1.391 . S
C422 H412 0.950 . S
C422 C423 1.386 . S
C422 C424 1.391 . S
C423 C422 1.386 . S
C423 C427 1.393 . S
C424 H413 0.950 1_655 S
C424 C422 1.391 . S
C424 C425 1.400 . S
C425 C419 1.491 . S
C425 C424 1.400 . S
C425 C426 1.398 . S
C426 H414 0.950 . S
C426 C425 1.398 . S
C426 C427 1.391 . S
C427 H415 0.950 . S
C427 C423 1.393 . S
C427 C426 1.391 . S
H428 C436 0.950 . S
H429 C441 0.950 . S
H430 C438 0.950 . S
H431 C440 0.950 . S
H432 C442 0.950 . S
H433 C444 0.950 . S
H434 C446 0.950 . S
H435 C447 0.950 . S
C436 H428 0.950 . S
C436 C437 1.386 1_565 S
C436 C438 1.391 . S
C437 C436 1.386 1_545 S
C437 C441 1.393 . S
C438 H430 0.950 . S
C438 C436 1.391 . S
C438 C439 1.400 . S
C439 C438 1.400 . S
C439 C440 1.398 1_565 S
C439 C445 1.491 . S
C440 H431 0.950 . S
C440 C439 1.398 1_545 S
C440 C441 1.391 . S
C441 H429 0.950 . S
C441 C437 1.393 . S
C441 C440 1.391 . S
C442 H432 0.950 . S
C442 C443 1.386 . S
C442 C444 1.391 . S
C443 C442 1.386 . S
C443 C447 1.393 . S
C444 H433 0.950 . S
C444 C442 1.391 . S
C444 C445 1.400 . S
C445 C439 1.491 . S
C445 C444 1.400 . S
C445 C446 1.398 . S
C446 H434 0.950 . S
C446 C445 1.398 . S
C446 C447 1.391 . S
C447 H435 0.950 . S
C447 C443 1.393 . S
C447 C446 1.391 . S
H448 C456 0.950 . S
H449 C461 0.950 . S
H450 C458 0.950 . S
H451 C460 0.950 . S
H452 C462 0.950 . S
H453 C464 0.950 . S
H454 C466 0.950 . S
H455 C467 0.950 . S
C456 H448 0.950 . S
C456 C457 1.386 . S
C456 C458 1.391 . S
C457 C456 1.386 . S
C457 C461 1.393 . S
C458 H450 0.950 . S
C458 C456 1.391 . S
C458 C459 1.400 . S
C459 C458 1.400 . S
C459 C460 1.398 . S
C459 C465 1.491 . S
C460 H451 0.950 . S
C460 C459 1.398 . S
C460 C461 1.391 . S
C461 H449 0.950 . S
C461 C457 1.393 . S
C461 C460 1.391 . S
C462 H452 0.950 . S
C462 C463 1.386 . S
C462 C464 1.391 . S
C463 C462 1.386 . S
C463 C467 1.393 . S
C464 H453 0.950 . S
C464 C462 1.391 . S
C464 C465 1.400 . S
C465 C459 1.491 . S
C465 C464 1.400 . S
C465 C466 1.398 . S
C466 H454 0.950 . S
C466 C465 1.398 . S
C466 C467 1.391 . S
C467 H455 0.950 . S
C467 C463 1.393 . S
C467 C466 1.391 . S
H468 C476 0.950 . S
H469 C481 0.950 . S
H470 C478 0.950 . S
H471 C480 0.950 . S
H472 C482 0.950 . S
H473 C484 0.950 . S
H474 C486 0.950 . S
H475 C487 0.950 . S
C476 H468 0.950 . S
C476 C477 1.386 . S
C476 C478 1.391 . S
C477 C476 1.386 . S
C477 C481 1.393 . S
C478 H470 0.950 . S
C478 C476 1.391 . S
C478 C479 1.400 . S
C479 C478 1.400 . S
C479 C480 1.398 . S
C479 C485 1.491 . S
C480 H471 0.950 . S
C480 C479 1.398 . S
C480 C481 1.391 . S
C481 H469 0.950 . S
C481 C477 1.393 . S
C481 C480 1.391 . S
C482 H472 0.950 . S
C482 C483 1.386 . S
C482 C484 1.391 . S
C483 C482 1.386 . S
C483 C487 1.393 . S
C484 H473 0.950 . S
C484 C482 1.391 . S
C484 C485 1.400 . S
C485 C479 1.491 . S
C485 C484 1.400 . S
C485 C486 1.398 . S
C486 H474 0.950 . S
C486 C485 1.398 . S
C486 C487 1.391 . S
C487 H475 0.950 . S
C487 C483 1.393 . S
C487 C486 1.391 . S
H488 C496 0.947 1_655 S
H489 C501 0.949 1_655 S
H490 C498 0.950 . S
H491 C500 0.950 . S
H492 C502 0.950 . S
H493 C504 0.950 . S
H494 C506 0.950 . S
H495 C507 0.950 1_556 S
C496 H488 0.947 1_455 S
C496 C497 1.384 1_455 S
C496 C498 1.395 . S
C497 C496 1.384 1_655 S
C497 C501 1.393 1_655 S
C498 H490 0.950 . S
C498 C496 1.395 . S
C498 C499 1.400 . S
C499 C498 1.400 . S
C499 C500 1.398 . S
C499 C505 1.491 . S
C500 H491 0.950 . S
C500 C499 1.398 . S
C500 C501 1.391 . S
C501 H489 0.949 1_455 S
C501 C497 1.393 1_455 S
C501 C500 1.391 . S
C502 H492 0.950 . S
C502 C503 1.386 . S
C502 C504 1.391 . S
C503 C502 1.386 . S
C503 C507 1.393 . S
C504 H493 0.950 . S
C504 C502 1.391 . S
C504 C505 1.400 . S
C505 C499 1.491 . S
C505 C504 1.400 . S
C505 C506 1.398 . S
C506 H494 0.950 . S
C506 C505 1.398 . S
C506 C507 1.391 . S
C507 H495 0.950 1_554 S
C507 C503 1.393 . S
C507 C506 1.391 . S
H508 C516 0.950 . S
H509 C521 0.950 . S
H510 C518 0.950 . S
H511 C520 0.950 . S
H512 C522 0.950 . S
H513 C524 0.950 . S
H514 C526 0.950 1_565 S
H515 C527 0.950 . S
C516 H508 0.950 . S
C516 C517 1.386 . S
C516 C518 1.391 . S
C517 C516 1.386 . S
C517 C521 1.393 1_565 S
C518 H510 0.950 . S
C518 C516 1.391 . S
C518 C519 1.400 1_565 S
C519 C518 1.400 1_545 S
C519 C520 1.398 . S
C519 C525 1.491 . S
C520 H511 0.950 . S
C520 C519 1.398 . S
C520 C521 1.391 . S
C521 H509 0.950 . S
C521 C517 1.393 1_545 S
C521 C520 1.391 . S
C522 H512 0.950 . S
C522 C523 1.386 . S
C522 C524 1.391 . S
C523 C522 1.386 . S
C523 C527 1.393 . S
C524 H513 0.950 . S
C524 C522 1.391 . S
C524 C525 1.400 . S
C525 C519 1.491 . S
C525 C524 1.400 . S
C525 C526 1.398 . S
C526 H514 0.950 1_545 S
C526 C525 1.398 . S
C526 C527 1.391 . S
C527 H515 0.950 . S
C527 C523 1.393 . S
C527 C526 1.391 . S
H528 C536 0.950 . S
H529 C541 0.950 . S
H530 C538 0.950 . S
H531 C540 0.950 . S
H532 C542 0.950 1_556 S
H533 C544 0.950 . S
H534 C546 0.950 . S
H535 C547 0.950 . S
C536 H528 0.950 . S
C536 C537 1.386 . S
C536 C538 1.391 . S
C537 C536 1.386 . S
C537 C541 1.393 . S
C538 H530 0.950 . S
C538 C536 1.391 . S
C538 C539 1.400 . S
C539 C538 1.400 . S
C539 C540 1.398 . S
C539 C545 1.491 . S
C540 H531 0.950 . S
C540 C539 1.398 . S
C540 C541 1.391 . S
C541 H529 0.950 . S
C541 C537 1.393 . S
C541 C540 1.391 . S
C542 H532 0.950 1_554 S
C542 C543 1.386 . S
C542 C544 1.391 . S
C543 C542 1.386 . S
C543 C547 1.393 . S
C544 H533 0.950 . S
C544 C542 1.391 . S
C544 C545 1.400 . S
C545 C539 1.491 . S
C545 C544 1.400 . S
C545 C546 1.398 . S
C546 H534 0.950 . S
C546 C545 1.398 . S
C546 C547 1.391 . S
C547 H535 0.950 . S
C547 C543 1.393 . S
C547 C546 1.391 . S
H548 C556 0.950 . S
H549 C561 0.950 . S
H550 C558 0.950 . S
H551 C560 0.950 . S
H552 C562 0.950 . S
H553 C564 0.950 . S
H554 C566 0.950 . S
H555 C567 0.950 . S
C556 H548 0.950 . S
C556 C557 1.386 . S
C556 C558 1.391 . S
C557 C556 1.386 . S
C557 C561 1.393 . S
C558 H550 0.950 . S
C558 C556 1.391 . S
C558 C559 1.400 . S
C559 C558 1.400 . S
C559 C560 1.398 . S
C559 C565 1.491 . S
C560 H551 0.950 . S
C560 C559 1.398 . S
C560 C561 1.391 . S
C561 H549 0.950 . S
C561 C557 1.393 . S
C561 C560 1.391 . S
C562 H552 0.950 . S
C562 C563 1.386 . S
C562 C564 1.391 . S
C563 C562 1.386 . S
C563 C567 1.393 . S
C564 H553 0.950 . S
C564 C562 1.391 . S
C564 C565 1.400 . S
C565 C559 1.491 . S
C565 C564 1.400 . S
C565 C566 1.398 . S
C566 H554 0.950 . S
C566 C565 1.398 . S
C566 C567 1.391 . S
C567 H555 0.950 . S
C567 C563 1.393 . S
C567 C566 1.391 . S
H568 C576 0.950 . S
H569 C581 0.950 . S
H570 C578 0.950 . S
H571 C580 0.950 . S
H572 C582 0.950 . S
H573 C584 0.950 . S
H574 C586 0.950 . S
H575 C587 0.950 . S
C576 H568 0.950 . S
C576 C577 1.386 . S
C576 C578 1.391 . S
C577 C576 1.386 . S
C577 C581 1.393 1_455 S
C578 H570 0.950 . S
C578 C576 1.391 . S
C578 C579 1.400 . S
C579 C578 1.400 . S
C579 C580 1.398 1_455 S
C579 C585 1.491 . S
C580 H571 0.950 . S
C580 C579 1.398 1_655 S
C580 C581 1.391 . S
C581 H569 0.950 . S
C581 C577 1.393 1_655 S
C581 C580 1.391 . S
C582 H572 0.950 . S
C582 C583 1.386 1_655 S
C582 C584 1.391 . S
C583 C582 1.386 1_455 S
C583 C587 1.393 . S
C584 H573 0.950 . S
C584 C582 1.391 . S
C584 C585 1.400 1_655 S
C585 C579 1.491 . S
C585 C584 1.400 1_455 S
C585 C586 1.398 . S
C586 H574 0.950 . S
C586 C585 1.398 . S
C586 C587 1.391 . S
C587 H575 0.950 . S
C587 C583 1.393 . S
C587 C586 1.391 . S
H588 C596 0.950 . S
H589 C601 0.950 . S
H590 C598 0.950 . S
H591 C600 0.950 . S
H592 C602 0.950 . S
H593 C604 0.950 . S
H594 C606 0.950 . S
H595 C607 0.950 . S
C596 H588 0.950 . S
C596 C597 1.386 . S
C596 C598 1.391 . S
C597 C596 1.386 . S
C597 C601 1.393 1_545 S
C598 H590 0.950 . S
C598 C596 1.391 . S
C598 C599 1.400 . S
C599 C598 1.400 . S
C599 C600 1.398 1_545 S
C599 C605 1.491 . S
C600 H591 0.950 . S
C600 C599 1.398 1_565 S
C600 C601 1.391 . S
C601 H589 0.950 . S
C601 C597 1.393 1_565 S
C601 C600 1.391 . S
C602 H592 0.950 . S
C602 C603 1.386 1_565 S
C602 C604 1.391 . S
C603 C602 1.386 1_545 S
C603 C607 1.393 . S
C604 H593 0.950 . S
C604 C602 1.391 . S
C604 C605 1.400 1_565 S
C605 C599 1.491 . S
C605 C604 1.400 1_545 S
C605 C606 1.398 . S
C606 H594 0.950 . S
C606 C605 1.398 . S
C606 C607 1.391 . S
C607 H595 0.950 . S
C607 C603 1.393 . S
C607 C606 1.391 . S
H608 C616 0.950 1_554 S
H609 C621 0.950 . S
H610 C618 0.950 . S
H611 C620 0.950 . S
H612 C622 0.950 . S
H613 C624 0.950 . S
H614 C626 0.950 . S
H615 C627 0.950 . S
C616 H608 0.950 1_556 S
C616 C617 1.386 . S
C616 C618 1.391 . S
C617 C616 1.386 . S
C617 C621 1.393 . S
C618 H610 0.950 . S
C618 C616 1.391 . S
C618 C619 1.400 . S
C619 C618 1.400 . S
C619 C620 1.398 . S
C619 C625 1.491 . S
C620 H611 0.950 . S
C620 C619 1.398 . S
C620 C621 1.391 . S
C621 H609 0.950 . S
C621 C617 1.393 . S
C621 C620 1.391 . S
C622 H612 0.950 . S
C622 C623 1.386 . S
C622 C624 1.391 . S
C623 C622 1.386 . S
C623 C627 1.393 . S
C624 H613 0.950 . S
C624 C622 1.391 . S
C624 C625 1.400 . S
C625 C619 1.491 . S
C625 C624 1.400 . S
C625 C626 1.398 . S
C626 H614 0.950 . S
C626 C625 1.398 . S
C626 C627 1.391 . S
C627 H615 0.950 . S
C627 C623 1.393 . S
C627 C626 1.391 . S
H628 C636 0.950 . S
H629 C641 0.950 . S
H630 C638 0.950 . S
H631 C640 0.950 . S
H632 C642 0.950 . S
H633 C644 0.950 . S
H634 C646 0.950 . S
H635 C647 0.950 . S
C636 H628 0.950 . S
C636 C637 1.386 . S
C636 C638 1.391 . S
C637 C636 1.386 . S
C637 C641 1.393 . S
C638 H630 0.950 . S
C638 C636 1.391 . S
C638 C639 1.400 . S
C639 C638 1.400 . S
C639 C640 1.398 . S
C639 C645 1.491 . S
C640 H631 0.950 . S
C640 C639 1.398 . S
C640 C641 1.391 . S
C641 H629 0.950 . S
C641 C637 1.393 . S
C641 C640 1.391 . S
C642 H632 0.950 . S
C642 C643 1.386 . S
C642 C644 1.391 . S
C643 C642 1.386 . S
C643 C647 1.393 . S
C644 H633 0.950 . S
C644 C642 1.391 . S
C644 C645 1.400 . S
C645 C639 1.491 . S
C645 C644 1.400 . S
C645 C646 1.398 . S
C646 H634 0.950 . S
C646 C645 1.398 . S
C646 C647 1.391 . S
C647 H635 0.950 . S
C647 C643 1.393 . S
C647 C646 1.391 . S
H648 C656 0.950 . S
H649 C661 0.950 . S
H650 C658 0.950 . S
H651 C660 0.950 . S
H652 C662 0.950 . S
H653 C664 0.950 . S
H654 C666 0.950 . S
H655 C667 0.950 . S
C656 H648 0.950 . S
C656 C657 1.386 1_455 S
C656 C658 1.391 . S
C657 C656 1.386 1_655 S
C657 C661 1.393 . S
C658 H650 0.950 . S
C658 C656 1.391 . S
C658 C659 1.400 1_455 S
C659 C658 1.400 1_655 S
C659 C660 1.398 . S
C659 C665 1.491 . S
C660 H651 0.950 . S
C660 C659 1.398 . S
C660 C661 1.391 . S
C661 H649 0.950 . S
C661 C657 1.393 . S
C661 C660 1.391 . S
C662 H652 0.950 . S
C662 C663 1.386 . S
C662 C664 1.391 . S
C663 C662 1.386 . S
C663 C667 1.393 1_655 S
C664 H653 0.950 . S
C664 C662 1.391 . S
C664 C665 1.400 . S
C665 C659 1.491 . S
C665 C664 1.400 . S
C665 C666 1.398 1_655 S
C666 H654 0.950 . S
C666 C665 1.398 1_455 S
C666 C667 1.391 . S
C667 H655 0.950 . S
C667 C663 1.393 1_455 S
C667 C666 1.391 . S
H668 C676 0.950 . S
H669 C681 0.950 . S
H670 C678 0.950 . S
H671 C680 0.950 . S
H672 C682 0.950 . S
H673 C684 0.950 . S
H674 C686 0.950 . S
H675 C687 0.950 . S
C676 H668 0.950 . S
C676 C677 1.386 . S
C676 C678 1.391 . S
C677 C676 1.386 . S
C677 C681 1.393 1_565 S
C678 H670 0.950 . S
C678 C676 1.391 . S
C678 C679 1.400 . S
C679 C678 1.400 . S
C679 C680 1.398 1_565 S
C679 C685 1.491 . S
C680 H671 0.950 . S
C680 C679 1.398 1_545 S
C680 C681 1.391 . S
C681 H669 0.950 . S
C681 C677 1.393 1_545 S
C681 C680 1.391 . S
C682 H672 0.950 . S
C682 C683 1.386 1_545 S
C682 C684 1.391 . S
C683 C682 1.386 1_565 S
C683 C687 1.393 . S
C684 H673 0.950 . S
C684 C682 1.391 . S
C684 C685 1.400 1_545 S
C685 C679 1.491 . S
C685 C684 1.400 1_565 S
C685 C686 1.398 . S
C686 H674 0.950 . S
C686 C685 1.398 . S
C686 C687 1.391 . S
C687 H675 0.950 . S
C687 C683 1.393 . S
C687 C686 1.391 . S
H688 C696 0.950 . S
H689 C701 0.950 . S
H690 C698 0.950 . S
H691 C700 0.950 . S
H692 C702 0.950 . S
H693 C704 0.950 . S
H694 C706 0.950 . S
H695 C707 0.950 . S
C696 H688 0.950 . S
C696 C697 1.386 . S
C696 C698 1.391 . S
C697 C696 1.386 . S
C697 C701 1.393 . S
C698 H690 0.950 . S
C698 C696 1.391 . S
C698 C699 1.400 . S
C699 C698 1.400 . S
C699 C700 1.398 . S
C699 C705 1.491 . S
C700 H691 0.950 . S
C700 C699 1.398 . S
C700 C701 1.391 . S
C701 H689 0.950 . S
C701 C697 1.393 . S
C701 C700 1.391 . S
C702 H692 0.950 . S
C702 C703 1.386 . S
C702 C704 1.391 . S
C703 C702 1.386 . S
C703 C707 1.393 . S
C704 H693 0.950 . S
C704 C702 1.391 . S
C704 C705 1.400 . S
C705 C699 1.491 . S
C705 C704 1.400 . S
C705 C706 1.398 . S
C706 H694 0.950 . S
C706 C705 1.398 . S
C706 C707 1.391 . S
C707 H695 0.950 . S
C707 C703 1.393 . S
C707 C706 1.391 . S
H708 C716 0.950 . S
H709 C721 0.950 . S
H710 C718 0.950 . S
H711 C720 0.950 . S
H712 C722 0.950 . S
H713 C724 0.950 . S
H714 C726 0.950 . S
H715 C727 0.950 . S
C716 H708 0.950 . S
C716 C717 1.386 . S
C716 C718 1.391 . S
C717 C716 1.386 . S
C717 C721 1.393 . S
C718 H710 0.950 . S
C718 C716 1.391 . S
C718 C719 1.400 . S
C719 C718 1.400 . S
C719 C720 1.398 . S
C719 C725 1.491 . S
C720 H711 0.950 . S
C720 C719 1.398 . S
C720 C721 1.391 . S
C721 H709 0.950 . S
C721 C717 1.393 . S
C721 C720 1.391 . S
C722 H712 0.950 . S
C722 C723 1.386 . S
C722 C724 1.391 . S
C723 C722 1.386 . S
C723 C727 1.393 . S
C724 H713 0.950 . S
C724 C722 1.391 . S
C724 C725 1.400 . S
C725 C719 1.491 . S
C725 C724 1.400 . S
C725 C726 1.398 . S
C726 H714 0.950 . S
C726 C725 1.398 . S
C726 C727 1.391 . S
C727 H715 0.950 . S
C727 C723 1.393 . S
C727 C726 1.391 . S
C257 C76 1.812 . S
C263 C98 1.946 1_545 S
C283 C138 1.957 . S
C277 C87 1.818 . S
C303 C178 1.952 . S
C297 C54 1.829 . S
C323 C218 1.946 1_455 S
C317 C65 1.816 1_455 S
C343 C107 1.951 1_565 S
C337 C32 1.835 1_545 S
C357 C43 1.836 . S
C363 C147 1.955 . S
C377 C10 1.827 . S
C383 C187 1.951 . S
C397 C21 1.833 . S
C403 C227 1.948 1_655 S
C423 C104 0.484 . S
C417 C60 0.483 . S
C443 C144 0.535 . S
C437 C71 0.529 . S
C463 C184 0.539 . S
C457 C82 0.536 . S
C477 C49 0.511 . S
C483 C224 0.524 . S
C497 C16 0.537 1_655 S
C503 C95 0.534 . S
C523 C135 0.524 . S
C517 C27 0.510 1_565 S
C543 C175 0.478 . S
C537 C38 0.509 . S
C557 C5 0.496 . S
C563 C215 0.510 . S
C577 C59 2.011 . S
C583 C99 2.264 . S
C597 C70 1.994 . S
C603 C139 2.255 . S
C623 C179 2.256 . S
C617 C81 2.004 . S
C643 C219 2.254 . S
C637 C48 2.016 . S
C657 C15 2.008 1_655 S
C663 C90 2.268 . S
C683 C130 2.256 . S
C677 C26 2.026 1_565 S
C703 C170 2.253 . S
C697 C37 2.019 . S
C717 C4 2.025 . S
C723 C210 2.270 . S
