# Generated by pormake.
# Topology ant, (3,6)-cn, num edge types: 1
# Building blocks:
#     Node 0, Type 0, BuildingBlock: MIDCAF_clean_linker_0, # of connection points: 3
#     Node 1, Type 0, BuildingBlock: MIDCAF_clean_linker_0, # of connection points: 3
#     Node 2, Type 0, BuildingBlock: MIDCAF_clean_linker_0, # of connection points: 3
#     Node 3, Type 0, BuildingBlock: MIDCAF_clean_linker_0, # of connection points: 3
#     Node 4, Type 0, BuildingBlock: MIDCAF_clean_linker_0, # of connection points: 3
#     Node 5, Type 0, BuildingBlock: MIDCAF_clean_linker_0, # of connection points: 3
#     Node 6, Type 0, BuildingBlock: MIDCAF_clean_linker_0, # of connection points: 3
#     Node 7, Type 0, BuildingBlock: MIDCAF_clean_linker_0, # of connection points: 3
#     Node 8, Type 1, BuildingBlock: MIDCAF_clean_sbu_0, # of connection points: 6
#     Node 9, Type 1, BuildingBlock: MIDCAF_clean_sbu_0, # of connection points: 6
#     Node 10, Type 1, BuildingBlock: MIDCAF_clean_sbu_0, # of connection points: 6
#     Node 11, Type 1, BuildingBlock: MIDCAF_clean_sbu_0, # of connection points: 6
#     Edge 12, Type (0, 1), BuildingBlock: XUDNAN_clean_linker_2, # of connection points: 2
#     Edge 13, Type (0, 1), BuildingBlock: XUDNAN_clean_linker_2, # of connection points: 2
#     Edge 14, Type (0, 1), BuildingBlock: XUDNAN_clean_linker_2, # of connection points: 2
#     Edge 15, Type (0, 1), BuildingBlock: XUDNAN_clean_linker_2, # of connection points: 2
#     Edge 16, Type (0, 1), BuildingBlock: XUDNAN_clean_linker_2, # of connection points: 2
#     Edge 17, Type (0, 1), BuildingBlock: XUDNAN_clean_linker_2, # of connection points: 2
#     Edge 18, Type (0, 1), BuildingBlock: XUDNAN_clean_linker_2, # of connection points: 2
#     Edge 19, Type (0, 1), BuildingBlock: XUDNAN_clean_linker_2, # of connection points: 2
#     Edge 20, Type (0, 1), BuildingBlock: XUDNAN_clean_linker_2, # of connection points: 2
#     Edge 21, Type (0, 1), BuildingBlock: XUDNAN_clean_linker_2, # of connection points: 2
#     Edge 22, Type (0, 1), BuildingBlock: XUDNAN_clean_linker_2, # of connection points: 2
#     Edge 23, Type (0, 1), BuildingBlock: XUDNAN_clean_linker_2, # of connection points: 2
#     Edge 24, Type (0, 1), BuildingBlock: XUDNAN_clean_linker_2, # of connection points: 2
#     Edge 25, Type (0, 1), BuildingBlock: XUDNAN_clean_linker_2, # of connection points: 2
#     Edge 26, Type (0, 1), BuildingBlock: XUDNAN_clean_linker_2, # of connection points: 2
#     Edge 27, Type (0, 1), BuildingBlock: XUDNAN_clean_linker_2, # of connection points: 2
#     Edge 28, Type (0, 1), BuildingBlock: XUDNAN_clean_linker_2, # of connection points: 2
#     Edge 29, Type (0, 1), BuildingBlock: XUDNAN_clean_linker_2, # of connection points: 2
#     Edge 30, Type (0, 1), BuildingBlock: XUDNAN_clean_linker_2, # of connection points: 2
#     Edge 31, Type (0, 1), BuildingBlock: XUDNAN_clean_linker_2, # of connection points: 2
#     Edge 32, Type (0, 1), BuildingBlock: XUDNAN_clean_linker_2, # of connection points: 2
#     Edge 33, Type (0, 1), BuildingBlock: XUDNAN_clean_linker_2, # of connection points: 2
#     Edge 34, Type (0, 1), BuildingBlock: XUDNAN_clean_linker_2, # of connection points: 2
#     Edge 35, Type (0, 1), BuildingBlock: XUDNAN_clean_linker_2, # of connection points: 2
# Relax obj value: 0.104
# Max RMSD: 0.159
# Mean RMSD: 0.105
data_MOF--net-ant--node1-MIDCAF_clean_sbu_0--node2-MIDCAF_clean_linker_0--edge1-XUDNAN_clean_linker_2
_symmetry_space_group_name_H-M    P1
_symmetry_Int_Tables_number       1
_symmetry_cell_setting            triclinic
loop_
_symmetry_equiv_pos_as_xyz
'x, y, z'
_cell_length_a     33.964111
_cell_length_b     33.866195
_cell_length_c     93.187261
_cell_angle_alpha  90.301666
_cell_angle_beta   93.898444
_cell_angle_gamma 90.045384
loop_
_atom_site_label
_atom_site_type_symbol
_atom_site_fract_x
_atom_site_fract_y
_atom_site_fract_z
_atom_type_partial_charge
C0 C 0.13697 0.3164 0.07566 0.0
C1 C 0.15252 0.3215 0.08991 0.0
C2 C 0.17261 0.28984 0.09682 0.0
C3 C 0.17709 0.25396 0.08966 0.0
H4 H 0.18309 0.12556 0.09557 0.0
H5 H 0.19975 0.06209 0.10692 0.0
H6 H 0.24934 0.0222 0.06796 0.0
H7 H 0.23212 0.08512 0.05651 0.0
H8 H 0.1849 0.11905 0.02671 0.0
H9 H 0.16193 0.11255 0.00136 0.0
H10 H 0.08433 0.21215 0.0057 0.0
H11 H 0.10728 0.219 0.03096 0.0
H12 H 0.12918 0.27771 0.05749 0.0
H13 H 0.12095 0.34002 0.07009 0.0
H14 H 0.1856 0.29296 0.10771 0.0
H15 H 0.19302 0.2304 0.09531 0.0
N16 N 0.18416 0.17953 0.07466 0.0
N17 N 0.17902 0.14262 0.05324 0.0
N18 N 0.15595 0.20776 0.05344 0.0
C19 C 0.19018 0.14528 0.06747 0.0
C20 C 0.16168 0.17361 0.04617 0.0
C21 C 0.16741 0.21111 0.06765 0.0
C22 C 0.20599 0.11006 0.07512 0.0
C23 C 0.19832 0.10356 0.08955 0.0
C24 C 0.20772 0.0673 0.09603 0.0
C25 C 0.22575 0.03743 0.08828 0.0
C26 C 0.23575 0.04492 0.07419 0.0
C27 C 0.22564 0.08078 0.06762 0.0
C28 C 0.148 0.16965 0.03083 0.0
C29 C 0.16283 0.13949 0.02227 0.0
C30 C 0.14976 0.13572 0.00778 0.0
C31 C 0.12114 0.1616 0.00167 0.0
C32 C 0.106 0.19144 0.01024 0.0
C33 C 0.11947 0.1956 0.02465 0.0
C34 C 0.16176 0.24889 0.07538 0.0
C35 C 0.14155 0.28053 0.06847 0.0
C36 C 0.20203 0.85498 0.32858 0.0
C37 C 0.20755 0.83287 0.34126 0.0
C38 C 0.17576 0.81087 0.34595 0.0
C39 C 0.13929 0.81047 0.33792 0.0
H40 H 0.00809 0.83671 0.33846 0.0
H41 H 0.94162 0.83959 0.34679 0.0
H42 H 0.89378 0.7968 0.30552 0.0
H43 H 0.96029 0.79399 0.29705 0.0
H44 H 0.01123 0.81159 0.26974 0.0
H45 H 0.02044 0.80371 0.24407 0.0
H46 H 0.14554 0.8233 0.2523 0.0
H47 H 0.13678 0.83095 0.27779 0.0
H48 H 0.16316 0.87028 0.31046 0.0
H49 H 0.22613 0.87186 0.32464 0.0
H50 H 0.17934 0.79356 0.35569 0.0
H51 H 0.1155 0.79257 0.34155 0.0
N52 N 0.06219 0.82235 0.32058 0.0
N53 N 0.03304 0.81807 0.29699 0.0
N54 N 0.10122 0.82727 0.30085 0.0
C55 C 0.02935 0.81809 0.31144 0.0
C56 C 0.06892 0.82265 0.29162 0.0
C57 C 0.09824 0.82703 0.31529 0.0
C58 C 0.98957 0.81556 0.31704 0.0
C59 C 0.98357 0.82741 0.3312 0.0
C60 C 0.94548 0.82923 0.33595 0.0
C61 C 0.91261 0.81878 0.32673 0.0
C62 C 0.91863 0.80496 0.31284 0.0
C63 C 0.95673 0.80361 0.308 0.0
C64 C 0.07334 0.82135 0.2759 0.0
C65 C 0.04067 0.8146 0.26607 0.0
C66 C 0.04582 0.81032 0.25136 0.0
C67 C 0.08373 0.8125 0.24626 0.0
C68 C 0.11605 0.82089 0.25599 0.0
C69 C 0.11095 0.82532 0.27062 0.0
C70 C 0.13448 0.83122 0.3249 0.0
C71 C 0.16605 0.85388 0.32043 0.0
C72 C 0.70192 0.86088 0.55917 0.0
C73 C 0.71601 0.87396 0.5729 0.0
C74 C 0.72833 0.84562 0.58325 0.0
C75 C 0.72665 0.80518 0.57992 0.0
H76 H 0.68085 0.61644 0.57472 0.0
H77 H 0.705 0.55993 0.58879 0.0
H78 H 0.8166 0.61893 0.59806 0.0
H79 H 0.79167 0.67662 0.58417 0.0
H80 H 0.70669 0.63347 0.53039 0.0
H81 H 0.68204 0.61632 0.50582 0.0
H82 H 0.608 0.71978 0.50442 0.0
H83 H 0.6334 0.73782 0.52882 0.0
H84 H 0.68882 0.81191 0.54516 0.0
H85 H 0.69167 0.8818 0.551 0.0
H86 H 0.73971 0.8547 0.5939 0.0
H87 H 0.73639 0.78422 0.58815 0.0
N88 N 0.72405 0.72116 0.5719 0.0
N89 N 0.7034 0.67149 0.55533 0.0
N90 N 0.69237 0.73786 0.54954 0.0
C91 C 0.72063 0.68217 0.56834 0.0
C92 C 0.68935 0.69911 0.54586 0.0
C93 C 0.70968 0.74929 0.5625 0.0
C94 C 0.73438 0.65083 0.57842 0.0
C95 C 0.71026 0.6177 0.58 0.0
C96 C 0.72403 0.58545 0.5881 0.0
C97 C 0.76261 0.58516 0.59455 0.0
C98 C 0.78669 0.61858 0.59322 0.0
C99 C 0.77242 0.65151 0.58537 0.0
C100 C 0.67209 0.68711 0.53149 0.0
C101 C 0.6848 0.65232 0.52492 0.0
C102 C 0.67076 0.64244 0.5109 0.0
C103 C 0.64296 0.66657 0.5034 0.0
C104 C 0.6291 0.70052 0.51012 0.0
C105 C 0.64386 0.71095 0.524 0.0
C106 C 0.71237 0.79213 0.56618 0.0
C107 C 0.70006 0.8206 0.55586 0.0
C108 C 0.70415 0.3134 0.81861 0.0
C109 C 0.71039 0.34052 0.83004 0.0
C110 C 0.67742 0.36058 0.83492 0.0
C111 C 0.63949 0.35427 0.82829 0.0
H112 H 0.50814 0.35951 0.83194 0.0
H113 H 0.44388 0.36512 0.84229 0.0
H114 H 0.39374 0.2832 0.81044 0.0
H115 H 0.45743 0.27782 0.80002 0.0
H116 H 0.49993 0.26885 0.77033 0.0
H117 H 0.50072 0.24917 0.74504 0.0
H118 H 0.61638 0.30105 0.74317 0.0
H119 H 0.61588 0.32051 0.76835 0.0
H120 H 0.66336 0.28691 0.803 0.0
H121 H 0.72822 0.29611 0.81485 0.0
H122 H 0.68095 0.38175 0.84366 0.0
H123 H 0.61476 0.37053 0.8321 0.0
N124 N 0.5607 0.32502 0.8154 0.0
N125 N 0.52492 0.30753 0.79378 0.0
N126 N 0.59358 0.3134 0.79441 0.0
C127 C 0.52552 0.31709 0.80799 0.0
C128 C 0.55877 0.30607 0.78689 0.0
C129 C 0.59496 0.32272 0.80863 0.0
C130 C 0.48782 0.31848 0.8151 0.0
C131 C 0.48349 0.34243 0.82725 0.0
C132 C 0.44673 0.34578 0.83312 0.0
C133 C 0.41386 0.32465 0.82713 0.0
C134 C 0.41859 0.29962 0.81533 0.0
C135 C 0.45505 0.29681 0.80931 0.0
C136 C 0.55798 0.29599 0.77139 0.0
C137 C 0.52536 0.27639 0.76448 0.0
C138 C 0.52579 0.26506 0.75003 0.0
C139 C 0.55852 0.27376 0.74215 0.0
C140 C 0.59054 0.29442 0.74893 0.0
C141 C 0.59039 0.3052 0.7634 0.0
C142 C 0.63397 0.32829 0.81651 0.0
C143 C 0.6667 0.30777 0.81186 0.0
C144 C 0.07348 0.62274 0.91916 0.0
C145 C 0.04305 0.6252 0.90821 0.0
C146 C 0.02965 0.66281 0.90377 0.0
C147 C 0.04549 0.69707 0.91052 0.0
H148 H 0.06738 0.82498 0.9066 0.0
H149 H 0.05226 0.893 0.8993 0.0
H150 H 0.08317 0.93332 0.94262 0.0
H151 H 0.0984 0.86585 0.94993 0.0
H152 H 0.14926 0.8107 0.97119 0.0
H153 H 0.18242 0.79848 0.99476 0.0
H154 H 0.19282 0.67487 0.98402 0.0
H155 H 0.15892 0.68676 0.96062 0.0
H156 H 0.11231 0.65315 0.93435 0.0
H157 H 0.08539 0.59439 0.92258 0.0
H158 H 0.00633 0.6657 0.89532 0.0
H159 H 0.03396 0.72555 0.90709 0.0
N160 N 0.08109 0.7671 0.92546 0.0
N161 N 0.11725 0.79309 0.94579 0.0
N162 N 0.11365 0.72479 0.94222 0.0
C163 C 0.09448 0.79895 0.9334 0.0
C164 C 0.12716 0.75611 0.95024 0.0
C165 C 0.09061 0.72978 0.92987 0.0
C166 C 0.08417 0.83987 0.92885 0.0
C167 C 0.0708 0.84833 0.91457 0.0
C168 C 0.06237 0.88729 0.91037 0.0
C169 C 0.06649 0.91846 0.9204 0.0
C170 C 0.07937 0.9099 0.93468 0.0
C171 C 0.08832 0.87118 0.93883 0.0
C172 C 0.15085 0.74965 0.96403 0.0
C173 C 0.15897 0.78097 0.97377 0.0
C174 C 0.17828 0.77401 0.98728 0.0
C175 C 0.19006 0.73562 0.99134 0.0
C176 C 0.18354 0.70468 0.98134 0.0
C177 C 0.16412 0.71157 0.96789 0.0
C178 C 0.07512 0.69433 0.92181 0.0
C179 C 0.08918 0.65668 0.92586 0.0
C180 C 0.53598 0.77236 0.16153 0.0
C181 C 0.53634 0.77039 0.14646 0.0
C182 C 0.57294 0.77262 0.14025 0.0
C183 C 0.6082 0.77677 0.14892 0.0
H184 H 0.73572 0.74603 0.15268 0.0
H185 H 0.80287 0.73035 0.14645 0.0
H186 H 0.84988 0.7978 0.1832 0.0
H187 H 0.78338 0.8126 0.18956 0.0
H188 H 0.7324 0.81848 0.21684 0.0
H189 H 0.72952 0.81986 0.24298 0.0
H190 H 0.60916 0.77826 0.23846 0.0
H191 H 0.61171 0.777 0.21236 0.0
H192 H 0.56912 0.77781 0.18169 0.0
H193 H 0.50861 0.76972 0.16677 0.0
H194 H 0.57437 0.77142 0.12869 0.0
H195 H 0.63581 0.77849 0.14379 0.0
N196 N 0.68086 0.78075 0.16806 0.0
N197 N 0.71085 0.79129 0.19123 0.0
N198 N 0.6421 0.78923 0.18781 0.0
C199 C 0.71418 0.78493 0.17697 0.0
C200 C 0.67507 0.79336 0.19676 0.0
C201 C 0.64455 0.78328 0.17344 0.0
C202 C 0.75416 0.78009 0.17172 0.0
C203 C 0.76044 0.75795 0.15928 0.0
C204 C 0.79893 0.74898 0.15572 0.0
C205 C 0.83179 0.76218 0.16449 0.0
C206 C 0.82531 0.78618 0.17644 0.0
C207 C 0.78708 0.79489 0.18003 0.0
C208 C 0.67233 0.79741 0.2125 0.0
C209 C 0.7052 0.8099 0.2214 0.0
C210 C 0.70357 0.81087 0.23636 0.0
C211 C 0.66927 0.79883 0.24271 0.0
C212 C 0.63614 0.78725 0.23382 0.0
C213 C 0.63755 0.78679 0.21888 0.0
C214 C 0.60763 0.77885 0.16399 0.0
C215 C 0.57097 0.77666 0.17014 0.0
C216 C 0.46914 0.12261 0.41651 0.0
C217 C 0.48475 0.1135 0.40329 0.0
C218 C 0.50809 0.14211 0.39691 0.0
C219 C 0.51803 0.17751 0.40413 0.0
H220 H 0.5547 0.30441 0.40272 0.0
H221 H 0.56882 0.37091 0.39422 0.0
H222 H 0.57021 0.41533 0.43772 0.0
H223 H 0.55684 0.34889 0.44632 0.0
H224 H 0.61403 0.27137 0.46592 0.0
H225 H 0.64472 0.24974 0.48898 0.0
H226 H 0.56533 0.15011 0.48866 0.0
H227 H 0.5346 0.17145 0.46553 0.0
H228 H 0.46933 0.16246 0.43442 0.0
H229 H 0.45013 0.10195 0.42156 0.0
H230 H 0.52092 0.13616 0.3868 0.0
H231 H 0.53804 0.19787 0.39941 0.0
N232 N 0.53003 0.25287 0.42187 0.0
N233 N 0.56087 0.27143 0.44426 0.0
N234 N 0.53586 0.20744 0.44085 0.0
C235 C 0.54815 0.28092 0.43055 0.0
C236 C 0.55502 0.23465 0.44944 0.0
C237 C 0.52333 0.21621 0.42711 0.0
C238 C 0.55485 0.32134 0.4252 0.0
C239 C 0.55783 0.32837 0.41046 0.0
C240 C 0.56609 0.36634 0.4056 0.0
C241 C 0.57069 0.39812 0.41534 0.0
C242 C 0.56667 0.39134 0.43001 0.0
C243 C 0.55923 0.35327 0.4349 0.0
C244 C 0.57185 0.22316 0.46388 0.0
C245 C 0.60292 0.24498 0.47078 0.0
C246 C 0.62081 0.23237 0.4839 0.0
C247 C 0.60766 0.19801 0.49049 0.0
C248 C 0.57607 0.17664 0.48378 0.0
C249 C 0.55853 0.1889 0.47055 0.0
C250 C 0.50537 0.18454 0.41793 0.0
C251 C 0.47981 0.15745 0.42383 0.0
C252 C 0.07151 0.34085 0.67679 0.0
C253 C 0.06304 0.32367 0.66318 0.0
C254 C 0.09374 0.30562 0.65617 0.0
C255 C 0.13194 0.30383 0.66282 0.0
H256 H 0.26572 0.3292 0.65923 0.0
H257 H 0.3306 0.32851 0.64924 0.0
H258 H 0.37596 0.25485 0.6842 0.0
H259 H 0.3115 0.25584 0.6943 0.0
H260 H 0.27549 0.27334 0.72452 0.0
H261 H 0.2764 0.26358 0.75044 0.0
H262 H 0.16184 0.31845 0.75103 0.0
H263 H 0.16068 0.32833 0.7251 0.0
H264 H 0.11466 0.3509 0.69423 0.0
H265 H 0.04837 0.35463 0.6825 0.0
H266 H 0.088 0.29226 0.64565 0.0
H267 H 0.15474 0.28881 0.65732 0.0
N268 N 0.21189 0.30637 0.67752 0.0
N269 N 0.24834 0.29707 0.69956 0.0
N270 N 0.18108 0.31202 0.69927 0.0
C271 C 0.24683 0.29843 0.68499 0.0
C272 C 0.21574 0.304 0.70679 0.0
C273 C 0.17879 0.31306 0.68465 0.0
C274 C 0.28366 0.29295 0.67762 0.0
C275 C 0.28931 0.31223 0.66461 0.0
C276 C 0.32643 0.31199 0.65894 0.0
C277 C 0.35824 0.29185 0.66603 0.0
C278 C 0.35189 0.27046 0.67851 0.0
C279 C 0.31506 0.27127 0.68431 0.0
C280 C 0.21778 0.30124 0.72268 0.0
C281 C 0.25067 0.28384 0.73016 0.0
C282 C 0.25126 0.27819 0.74501 0.0
C283 C 0.21923 0.29026 0.75271 0.0
C284 C 0.18715 0.30926 0.74537 0.0
C285 C 0.18633 0.31454 0.73049 0.0
C286 C 0.13994 0.31934 0.67674 0.0
C287 C 0.10944 0.33845 0.68354 0.0
Zn288 Zn 0.22092 0.65248 0.14289 0.0
Zn289 Zn 0.13032 0.69475 0.1063 0.0
Zn290 Zn 0.17823 0.68024 0.12365 0.0
C291 C 0.19325 0.67761 0.09182 0.0
C292 C 0.18024 0.76104 0.11059 0.0
O293 O 0.1562 0.70885 0.14248 0.0
O294 O 0.20012 0.68543 0.15872 0.0
C295 C 0.17871 0.59095 0.1272 0.0
O296 O 0.20697 0.69426 0.10358 0.0
O297 O 0.15842 0.66401 0.09132 0.0
O298 O 0.14347 0.75466 0.10878 0.0
O299 O 0.20323 0.73108 0.11298 0.0
O300 O 0.19934 0.59748 0.13881 0.0
O301 O 0.16899 0.61944 0.11883 0.0
O302 O 0.23517 0.70583 0.11841 0.0
O303 O 0.27104 0.67136 0.13464 0.0
C304 C 0.26897 0.69588 0.12442 0.0
O305 O 0.12232 0.70081 0.13241 0.0
O306 O 0.08167 0.67699 0.11505 0.0
C307 C 0.17109 0.70784 0.15552 0.0
C308 C 0.08707 0.69136 0.12758 0.0
Zn309 Zn 0.53851 0.71006 0.35473 0.0
Zn310 Zn 0.61503 0.80097 0.39276 0.0
Zn311 Zn 0.57511 0.75954 0.37303 0.0
C312 C 0.54406 0.84102 0.38593 0.0
C313 C 0.65879 0.80275 0.36868 0.0
O314 O 0.57621 0.69837 0.38193 0.0
O315 O 0.55467 0.65958 0.36387 0.0
C316 C 0.48237 0.7645 0.36402 0.0
O317 O 0.53799 0.81159 0.37721 0.0
O318 O 0.57447 0.84218 0.39449 0.0
O319 O 0.65976 0.8152 0.38148 0.0
O320 O 0.62951 0.78158 0.36352 0.0
O321 O 0.48509 0.73137 0.35787 0.0
O322 O 0.51371 0.78203 0.3695 0.0
O323 O 0.60549 0.76245 0.35284 0.0
O324 O 0.5665 0.72707 0.33774 0.0
C325 C 0.59615 0.74934 0.34005 0.0
O326 O 0.58892 0.72402 0.39298 0.0
O327 O 0.62423 0.76238 0.40827 0.0
C328 C 0.56923 0.66363 0.3766 0.0
C329 C 0.60778 0.72968 0.40533 0.0
Zn330 Zn 0.66509 0.2811 0.60543 0.0
Zn331 Zn 0.73756 0.181 0.64101 0.0
Zn332 Zn 0.70296 0.23309 0.62272 0.0
C333 C 0.79135 0.2435 0.63699 0.0
C334 C 0.71972 0.1401 0.61544 0.0
O335 O 0.64595 0.25115 0.63182 0.0
O336 O 0.61959 0.29438 0.61629 0.0
C337 C 0.73595 0.31833 0.61362 0.0
O338 O 0.76133 0.25815 0.62967 0.0
O339 O 0.7892 0.2097 0.64259 0.0
O340 O 0.73164 0.13421 0.62836 0.0
O341 O 0.70964 0.17517 0.61118 0.0
O342 O 0.70564 0.32249 0.60518 0.0
O343 O 0.74072 0.28679 0.62123 0.0
O344 O 0.69343 0.20354 0.60132 0.0
O345 O 0.65643 0.24645 0.58864 0.0
C346 C 0.67386 0.21365 0.58956 0.0
O347 O 0.66655 0.22591 0.64135 0.0
O348 O 0.69983 0.18531 0.65629 0.0
C349 C 0.61827 0.27569 0.62789 0.0
C350 C 0.67013 0.20687 0.65331 0.0
Zn351 Zn 0.03148 0.22606 0.8516 0.0
Zn352 Zn 0.11189 0.31148 0.89158 0.0
Zn353 Zn 0.06927 0.27276 0.87196 0.0
C354 C 0.09717 0.24115 0.90405 0.0
C355 C 0.04212 0.3549 0.88528 0.0
O356 O 0.10652 0.26516 0.85357 0.0
O357 O 0.07348 0.22568 0.83795 0.0
C358 C 0.04085 0.18128 0.87658 0.0
O359 O 0.07557 0.23831 0.89215 0.0
O360 O 0.12017 0.27008 0.90631 0.0
O361 O 0.0712 0.3523 0.89442 0.0
O362 O 0.03645 0.32827 0.87543 0.0
O363 O 0.02749 0.17813 0.86366 0.0
O364 O 0.05632 0.21403 0.88136 0.0
O365 O 0.01333 0.30325 0.86587 0.0
O366 O 0.98624 0.26376 0.84891 0.0
C367 C 0.98484 0.29467 0.85654 0.0
O368 O 0.12743 0.28909 0.86357 0.0
O369 O 0.15667 0.32733 0.88042 0.0
C370 C 0.10379 0.24584 0.84158 0.0
C371 C 0.15652 0.31133 0.86817 0.0
H372 H 0.15939 0.39649 0.07904 0.0
H373 H 0.13692 0.33322 0.11807 0.0
H374 H 0.13569 0.39634 0.1313 0.0
H375 H 0.22328 0.4671 0.09478 0.0
H376 H 0.20553 0.50772 0.08373 0.0
H377 H 0.20121 0.45798 0.07693 0.0
H378 H 0.12583 0.46731 0.07189 0.0
H379 H 0.12997 0.51723 0.07864 0.0
H380 H 0.09641 0.48315 0.08624 0.0
H381 H 0.14423 0.46449 0.14085 0.0
H382 H 0.15925 0.53464 0.14599 0.0
H383 H 0.17194 0.55518 0.10063 0.0
C384 C 0.15322 0.39594 0.09028 0.0
C385 C 0.14845 0.3598 0.09753 0.0
C386 C 0.14129 0.36042 0.11233 0.0
C387 C 0.14017 0.39615 0.11992 0.0
C388 C 0.14572 0.4311 0.11252 0.0
C389 C 0.15169 0.43142 0.098 0.0
C390 C 0.15881 0.47305 0.09282 0.0
C391 C 0.19963 0.47665 0.08671 0.0
C392 C 0.12578 0.48594 0.08174 0.0
C393 C 0.15708 0.49588 0.10679 0.0
C394 C 0.14935 0.47102 0.11799 0.0
C395 C 0.14953 0.48441 0.13214 0.0
C396 C 0.15825 0.5242 0.13496 0.0
C397 C 0.16627 0.55019 0.12368 0.0
C398 C 0.165 0.53601 0.10938 0.0
H399 H 0.84999 0.76653 0.32543 0.0
H400 H 0.8844 0.88546 0.33851 0.0
H401 H 0.81869 0.8965 0.34746 0.0
H402 H 0.74327 0.78988 0.31534 0.0
H403 H 0.72607 0.74405 0.3224 0.0
H404 H 0.77366 0.74635 0.31496 0.0
H405 H 0.80729 0.71956 0.33871 0.0
H406 H 0.75994 0.71655 0.34618 0.0
H407 H 0.79929 0.74442 0.35542 0.0
H408 H 0.75379 0.89307 0.35721 0.0
H409 H 0.69323 0.87426 0.36855 0.0
H410 H 0.69875 0.75711 0.34977 0.0
C411 C 0.8432 0.7951 0.32991 0.0
C412 C 0.87218 0.8252 0.33132 0.0
C413 C 0.8627 0.86198 0.33746 0.0
C414 C 0.82535 0.86865 0.34242 0.0
C415 C 0.79765 0.8383 0.34112 0.0
C416 C 0.8059 0.80221 0.33503 0.0
C417 C 0.77185 0.77351 0.33628 0.0
C418 C 0.75258 0.76281 0.32136 0.0
C419 C 0.78542 0.73633 0.34465 0.0
C420 C 0.74432 0.79853 0.34472 0.0
C421 C 0.75951 0.83612 0.34701 0.0
C422 C 0.74122 0.86399 0.35531 0.0
C423 C 0.70696 0.85298 0.36174 0.0
C424 C 0.69132 0.81442 0.35991 0.0
C425 C 0.70976 0.78703 0.35106 0.0
H426 H 0.72908 0.54368 0.61544 0.0
H427 H 0.82818 0.54287 0.58864 0.0
H428 H 0.84314 0.47395 0.59585 0.0
H429 H 0.77357 0.4722 0.64428 0.0
H430 H 0.72566 0.45048 0.64599 0.0
H431 H 0.72985 0.50227 0.64193 0.0
H432 H 0.68208 0.49268 0.61928 0.0
H433 H 0.67779 0.44125 0.62326 0.0
H434 H 0.69352 0.45624 0.60601 0.0
H435 H 0.83609 0.40125 0.60083 0.0
H436 H 0.80823 0.33408 0.60341 0.0
H437 H 0.71596 0.3827 0.62786 0.0
C438 C 0.75497 0.52945 0.61163 0.0
C439 C 0.77771 0.54851 0.60162 0.0
C440 C 0.81087 0.52893 0.59654 0.0
C441 C 0.81951 0.48976 0.60058 0.0
C442 C 0.79523 0.47095 0.60995 0.0
C443 C 0.76406 0.49059 0.61566 0.0
C444 C 0.73897 0.46273 0.62381 0.0
C445 C 0.74223 0.47251 0.63997 0.0
C446 C 0.69558 0.46325 0.61771 0.0
C447 C 0.75884 0.42384 0.62085 0.0
C448 C 0.79188 0.42906 0.61315 0.0
C449 C 0.81124 0.39686 0.60732 0.0
C450 C 0.79543 0.35877 0.60887 0.0
C451 C 0.76081 0.35348 0.61621 0.0
C452 C 0.74345 0.38612 0.62273 0.0
H453 H 0.77986 0.3397 0.81657 0.0
H454 H 0.73408 0.35544 0.8586 0.0
H455 H 0.80234 0.35883 0.86956 0.0
H456 H 0.84977 0.27168 0.82777 0.0
H457 H 0.88602 0.28732 0.81572 0.0
H458 H 0.83452 0.29534 0.81102 0.0
H459 H 0.84804 0.37016 0.80806 0.0
H460 H 0.89973 0.36231 0.8129 0.0
H461 H 0.87228 0.39761 0.82276 0.0
H462 H 0.87625 0.35208 0.87628 0.0
H463 H 0.94559 0.32865 0.8782 0.0
H464 H 0.94069 0.31133 0.83205 0.0
C465 C 0.7839 0.34419 0.82809 0.0
C466 C 0.75124 0.34717 0.83668 0.0
C467 C 0.75837 0.35367 0.85168 0.0
C468 C 0.79716 0.35558 0.85803 0.0
C469 C 0.82859 0.35104 0.84925 0.0
C470 C 0.82217 0.34533 0.83458 0.0
C471 C 0.86007 0.3357 0.82768 0.0
C472 C 0.85742 0.29511 0.82012 0.0
C473 C 0.87065 0.3684 0.81723 0.0
C474 C 0.88871 0.33514 0.84082 0.0
C475 C 0.87046 0.34534 0.85314 0.0
C476 C 0.89086 0.34454 0.86668 0.0
C477 C 0.93028 0.33142 0.86768 0.0
C478 C 0.94831 0.31836 0.85525 0.0
C479 C 0.9276 0.32154 0.84168 0.0
H480 H 0.02478 0.55749 0.92203 0.0
H481 H 0.02433 0.60872 0.87952 0.0
H482 H 0.0065 0.54361 0.86872 0.0
H483 H 0.07498 0.47577 0.91428 0.0
H484 H 0.04973 0.44273 0.92568 0.0
H485 H 0.0519 0.49446 0.9298 0.0
H486 H 0.97547 0.49659 0.9294 0.0
H487 H 0.97317 0.44462 0.92509 0.0
H488 H 0.94639 0.4796 0.91366 0.0
H489 H 1.0014 0.47046 0.8626 0.0
H490 H 0.01557 0.39875 0.86196 0.0
H491 H 0.02132 0.39596 0.90847 0.0
C492 C 0.02002 0.55526 0.91045 0.0
C493 C 0.02603 0.5882 0.90162 0.0
C494 C 0.01941 0.58404 0.88652 0.0
C495 C 0.00922 0.54711 0.8803 0.0
C496 C 0.0052 0.51476 0.88934 0.0
C497 C 0.01019 0.51873 0.90413 0.0
C498 C 0.01031 0.47906 0.91151 0.0
C499 C 0.04902 0.47264 0.92084 0.0
C500 C 0.97417 0.47472 0.92044 0.0
C501 C 0.00726 0.45184 0.89856 0.0
C502 C 1.00293 0.47277 0.88584 0.0
C503 C 1.00387 0.4538 0.8725 0.0
C504 C 0.01162 0.41296 0.8722 0.0
C505 C 0.01922 0.39196 0.88518 0.0
C506 C 0.01489 0.41131 0.89841 0.0
H507 H 0.86518 0.75566 0.1384 0.0
H508 H 0.89087 0.74007 0.1843 0.0
H509 H 0.95894 0.72046 0.17996 0.0
H510 H 0.92168 0.67208 0.12723 0.0
H511 H 0.93846 0.6966 0.11164 0.0
H512 H 0.89178 0.70988 0.11838 0.0
H513 H 0.91428 0.78296 0.1205 0.0
H514 H 0.96103 0.76989 0.11378 0.0
H515 H 0.95955 0.79509 0.13082 0.0
H516 H 0.02459 0.70215 0.17063 0.0
H517 H 0.0823 0.68627 0.15676 0.0
H518 H 0.0137 0.71359 0.11714 0.0
C519 C 0.88499 0.74783 0.14753 0.0
C520 C 0.87264 0.74976 0.1617 0.0
C521 C 0.89976 0.73959 0.17335 0.0
C522 C 0.93846 0.72813 0.17101 0.0
C523 C 0.94971 0.72678 0.15693 0.0
C524 C 0.92377 0.73626 0.14538 0.0
C525 C 0.94331 0.73242 0.13132 0.0
C526 C 0.92257 0.70086 0.12157 0.0
C527 C 0.94462 0.77248 0.12366 0.0
C528 C 0.9842 0.71921 0.13677 0.0
C529 C 0.98739 0.7162 0.15157 0.0
C530 C 0.02248 0.70462 0.15903 0.0
C531 C 0.0552 0.69604 0.15111 0.0
C532 C 0.05261 0.69946 0.13597 0.0
C533 C 0.0165 0.71077 0.12874 0.0
H534 H 0.53288 0.46805 0.42024 0.0
H535 H 0.63052 0.4178 0.39872 0.0
H536 H 0.64639 0.48373 0.38941 0.0
H537 H 0.50066 0.53037 0.39215 0.0
H538 H 0.48626 0.57064 0.40337 0.0
H539 H 0.48605 0.52093 0.41006 0.0
H540 H 0.53307 0.54171 0.43205 0.0
H541 H 0.53199 0.59151 0.42535 0.0
H542 H 0.57858 0.56684 0.42902 0.0
H543 H 0.64828 0.55281 0.38077 0.0
H544 H 0.63271 0.61976 0.37163 0.0
H545 H 0.53293 0.626 0.39809 0.0
C546 C 0.55808 0.47124 0.41381 0.0
C547 C 0.58072 0.43803 0.41024 0.0
C548 C 0.61285 0.44294 0.40152 0.0
C549 C 0.62227 0.48028 0.39632 0.0
C550 C 0.5992 0.51242 0.3999 0.0
C551 C 0.5676 0.50832 0.40838 0.0
C552 C 0.54508 0.54684 0.40934 0.0
C553 C 0.50197 0.54189 0.40337 0.0
C554 C 0.54736 0.56265 0.42487 0.0
C555 C 0.56824 0.57288 0.39973 0.0
C556 C 0.59986 0.55257 0.39467 0.0
C557 C 0.62408 0.56924 0.38485 0.0
C558 C 0.61513 0.60722 0.37975 0.0
C559 C 0.58231 0.62801 0.38445 0.0
C560 C 0.55895 0.61101 0.39474 0.0
H561 H 0.02341 0.25866 0.65258 0.0
H562 H 0.0089 0.38383 0.66052 0.0
H563 H 0.93799 0.37852 0.6525 0.0
H564 H 0.95174 0.25006 0.62101 0.0
H565 H 0.93481 0.20242 0.62657 0.0
H566 H 0.98505 0.21747 0.63111 0.0
H567 H 0.97536 0.20495 0.65806 0.0
H568 H 0.92513 0.19012 0.65363 0.0
H569 H 0.93568 0.22943 0.66644 0.0
H570 H 0.86718 0.35794 0.64524 0.0
H571 H 0.80317 0.32336 0.64058 0.0
H572 H 0.86482 0.21185 0.63807 0.0
C573 C 0.00554 0.28516 0.65223 0.0
C574 C 0.02166 0.32176 0.65696 0.0
C575 C 0.99707 0.35555 0.65685 0.0
C576 C 0.95686 0.35282 0.65227 0.0
C577 C 0.9417 0.31605 0.64791 0.0
C578 C 0.96538 0.28283 0.64787 0.0
C579 C 0.94149 0.24616 0.64395 0.0
C580 C 0.95402 0.22797 0.62982 0.0
C581 C 0.9446 0.21591 0.65626 0.0
C582 C 0.90055 0.26369 0.64208 0.0
C583 C 0.90118 0.30413 0.64415 0.0
C584 C 0.86647 0.32636 0.64342 0.0
C585 C 0.83027 0.3066 0.64064 0.0
C586 C 0.82918 0.26513 0.63876 0.0
C587 C 0.86484 0.24365 0.63941 0.0
H588 H 0.41234 0.23352 0.66111 0.0
H589 H 0.39539 0.36047 0.66048 0.0
H590 H 0.46355 0.3695 0.65347 0.0
H591 H 0.51536 0.23369 0.67458 0.0
H592 H 0.52951 0.19373 0.66312 0.0
H593 H 0.48003 0.19617 0.66891 0.0
H594 H 0.4511 0.19437 0.64258 0.0
H595 H 0.50027 0.19069 0.63661 0.0
H596 H 0.46797 0.22965 0.62993 0.0
H597 H 0.53099 0.36527 0.64553 0.0
H598 H 0.59309 0.34793 0.63485 0.0
H599 H 0.56826 0.22351 0.64028 0.0
C600 C 0.42322 0.26316 0.65957 0.0
C601 C 0.39872 0.29637 0.66129 0.0
C602 C 0.41362 0.3347 0.65905 0.0
C603 C 0.45237 0.34011 0.65522 0.0
C604 C 0.47581 0.30687 0.65363 0.0
C605 C 0.46182 0.2691 0.65555 0.0
C606 C 0.49247 0.23847 0.65211 0.0
C607 C 0.50513 0.21408 0.66548 0.0
C608 C 0.47703 0.21173 0.63956 0.0
C609 C 0.52567 0.265 0.64778 0.0
C610 C 0.51534 0.30435 0.64891 0.0
C611 C 0.53961 0.33463 0.6447 0.0
C612 C 0.5748 0.32451 0.63868 0.0
C613 C 0.58544 0.2845 0.63692 0.0
C614 C 0.56112 0.25431 0.64186 0.0
H615 H 0.46362 0.80255 0.15059 0.0
H616 H 0.52313 0.72346 0.12239 0.0
H617 H 0.45904 0.70644 0.10981 0.0
H618 H 0.38828 0.74042 0.15659 0.0
H619 H 0.35054 0.77765 0.15728 0.0
H620 H 0.40122 0.79046 0.16168 0.0
H621 H 0.39644 0.84522 0.14229 0.0
H622 H 0.34559 0.83222 0.13774 0.0
H623 H 0.38043 0.83268 0.12399 0.0
H624 H 0.38811 0.68871 0.1033 0.0
H625 H 0.31771 0.67029 0.10436 0.0
H626 H 0.30439 0.75947 0.13703 0.0
C627 C 0.46335 0.78221 0.14159 0.0
C628 C 0.49862 0.76443 0.1375 0.0
C629 C 0.49676 0.73806 0.12561 0.0
C630 C 0.46038 0.72816 0.11838 0.0
C631 C 0.42605 0.74515 0.12305 0.0
C632 C 0.42732 0.77187 0.13435 0.0
C633 C 0.38622 0.78205 0.13857 0.0
C634 C 0.3813 0.77201 0.15446 0.0
C635 C 0.37662 0.82564 0.13546 0.0
C636 C 0.36169 0.75511 0.12849 0.0
C637 C 0.38503 0.73485 0.11932 0.0
C638 C 0.36943 0.70519 0.11013 0.0
C639 C 0.32944 0.69501 0.11073 0.0
C640 C 0.30577 0.71435 0.12047 0.0
C641 C 0.32176 0.74544 0.12911 0.0
H642 H 0.36105 0.26738 0.83406 0.0
H643 H 0.37727 0.3943 0.83244 0.0
H644 H 0.31023 0.40411 0.84061 0.0
H645 H 0.25919 0.26466 0.82197 0.0
H646 H 0.24534 0.22666 0.83422 0.0
H647 H 0.29461 0.2281 0.82821 0.0
H648 H 0.325 0.23121 0.85422 0.0
H649 H 0.27626 0.22783 0.8606 0.0
H650 H 0.30826 0.26818 0.86639 0.0
H651 H 0.24335 0.40038 0.84983 0.0
H652 H 0.18169 0.38351 0.861 0.0
H653 H 0.20706 0.25893 0.85628 0.0
C654 C 0.35032 0.29721 0.83538 0.0
C655 C 0.37424 0.33015 0.83262 0.0
C656 C 0.35951 0.36872 0.83462 0.0
C657 C 0.3214 0.37455 0.83914 0.0
C658 C 0.29848 0.34149 0.84168 0.0
C659 C 0.31248 0.30357 0.84005 0.0
C660 C 0.2825 0.27321 0.84423 0.0
C661 C 0.26959 0.24658 0.83138 0.0
C662 C 0.29899 0.24867 0.85713 0.0
C663 C 0.24928 0.3 0.84839 0.0
C664 C 0.2593 0.33929 0.84683 0.0
C665 C 0.23496 0.36978 0.85095 0.0
C666 C 0.20002 0.35996 0.85724 0.0
C667 C 0.18953 0.32005 0.85923 0.0
C668 C 0.21402 0.28965 0.85448 0.0
H669 H 0.24948 0.76653 0.34877 0.0
H670 H 0.25608 0.89431 0.34975 0.0
H671 H 0.3262 0.89056 0.35874 0.0
H672 H 0.32055 0.74784 0.38066 0.0
H673 H 0.34105 0.70538 0.37213 0.0
H674 H 0.28993 0.71817 0.36826 0.0
H675 H 0.30124 0.72008 0.34105 0.0
H676 H 0.35233 0.70766 0.34483 0.0
H677 H 0.33922 0.75166 0.33482 0.0
H678 H 0.39729 0.87296 0.36445 0.0
H679 H 0.46337 0.84256 0.36618 0.0
H680 H 0.41101 0.72661 0.36154 0.0
C681 C 0.26536 0.79365 0.35139 0.0
C682 C 0.24736 0.83072 0.34878 0.0
C683 C 0.26938 0.86565 0.3518 0.0
C684 C 0.30912 0.86378 0.35694 0.0
C685 C 0.32639 0.82674 0.35901 0.0
C686 C 0.30516 0.79227 0.35639 0.0
C687 C 0.33165 0.75635 0.35797 0.0
C688 C 0.3201 0.73041 0.37051 0.0
C689 C 0.33107 0.73256 0.34383 0.0
C690 C 0.37125 0.77604 0.36138 0.0
C691 C 0.36752 0.81659 0.36218 0.0
C692 C 0.40039 0.84116 0.36421 0.0
C693 C 0.43796 0.82379 0.36533 0.0
C694 C 0.44261 0.7825 0.36436 0.0
C695 C 0.40857 0.75838 0.36251 0.0
H696 H 0.69583 0.91104 0.59769 0.0
H697 H 0.73971 0.93441 0.55591 0.0
H698 H 0.74145 0.00584 0.56146 0.0
H699 H 0.63416 0.99798 0.59921 0.0
H700 H 0.64521 0.00553 0.61822 0.0
H701 H 0.64607 0.95643 0.61072 0.0
H702 H 0.71797 0.9472 0.62137 0.0
H703 H 0.7172 0.99611 0.62899 0.0
H704 H 0.75511 0.98268 0.61725 0.0
H705 H 0.74172 0.07509 0.57227 0.0
H706 H 0.7414 0.13499 0.58771 0.0
H707 H 0.69546 0.0663 0.62181 0.0
C708 C 0.70599 0.93112 0.58973 0.0
C709 C 0.71756 0.91701 0.57634 0.0
C710 C 0.73022 0.94447 0.56617 0.0
C711 C 0.73142 0.98513 0.56924 0.0
C712 C 0.71968 0.99802 0.58251 0.0
C713 C 0.70721 0.97177 0.59259 0.0
C714 C 0.69696 0.99299 0.60617 0.0
C715 C 0.65299 0.98793 0.60872 0.0
C716 C 0.72339 0.97891 0.61921 0.0
C717 C 0.70624 0.03518 0.60228 0.0
C718 C 0.71905 0.03765 0.58856 0.0
C719 C 0.7309 0.07355 0.58291 0.0
C720 C 0.72997 0.10762 0.5916 0.0
C721 C 0.71696 0.10558 0.60564 0.0
C722 C 0.7049 0.06884 0.61098 0.0
H723 H 0.16791 0.99283 0.09867 0.0
H724 H 0.29162 0.99053 0.09 0.0
H725 H 0.29506 0.91983 0.09677 0.0
H726 H 0.17276 0.92176 0.12885 0.0
H727 H 0.12599 0.89995 0.12292 0.0
H728 H 0.1352 0.95136 0.11951 0.0
H729 H 0.11809 0.93946 0.09229 0.0
H730 H 0.10929 0.88802 0.09558 0.0
H731 H 0.14459 0.90225 0.08296 0.0
H732 H 0.2833 0.84825 0.10283 0.0
H733 H 0.25698 0.78142 0.10676 0.0
H734 H 0.14007 0.8308 0.11012 0.0
C735 C 0.19601 0.97771 0.09866 0.0
C736 C 0.22972 0.99705 0.09411 0.0
C737 C 0.26565 0.97611 0.09364 0.0
C738 C 0.26784 0.9361 0.09748 0.0
C739 C 0.23373 0.91759 0.10162 0.0
C740 C 0.19849 0.93777 0.10222 0.0
C741 C 0.1652 0.91043 0.10562 0.0
C742 C 0.14883 0.92154 0.12009 0.0
C743 C 0.13238 0.91002 0.09338 0.0
C744 C 0.18696 0.87153 0.10656 0.0
C745 C 0.22658 0.87628 0.10446 0.0
C746 C 0.25236 0.84425 0.10455 0.0
C747 C 0.23714 0.8064 0.10678 0.0
C748 C 0.19645 0.80094 0.10865 0.0
C749 C 0.17126 0.83404 0.10863 0.0
H750 H 0.48531 0.0439 0.4181 0.0
H751 H 0.47745 0.09043 0.37469 0.0
H752 H 0.48126 0.02249 0.36508 0.0
H753 H 0.55446 0.97473 0.41335 0.0
H754 H 0.53466 0.93749 0.4246 0.0
H755 H 0.5247 0.98869 0.42786 0.0
H756 H 0.44949 0.97464 0.42552 0.0
H757 H 0.45924 0.92313 0.42231 0.0
H758 H 0.4279 0.95059 0.40957 0.0
H759 H 0.49781 0.95115 0.36061 0.0
H760 H 0.52382 0.8829 0.36174 0.0
H761 H 0.51592 0.88279 0.40788 0.0
C762 C 0.48264 0.03998 0.40655 0.0
C763 C 0.48081 0.07277 0.39718 0.0
C764 C 0.47912 0.06595 0.38212 0.0
C765 C 0.48088 0.02739 0.37656 0.0
C766 C 0.48367 0.99588 0.38616 0.0
C767 C 0.48398 1.00183 0.40085 0.0
C768 C 0.49104 0.96366 0.40899 0.0
C769 C 0.52843 0.96633 0.4193 0.0
C770 C 0.45475 0.95234 0.41707 0.0
C771 C 0.49658 0.93551 0.39665 0.0
C772 C 0.4917 0.95446 0.38353 0.0
C773 C 0.50021 0.93563 0.37076 0.0
C774 C 0.51474 0.89684 0.37147 0.0
C775 C 0.51988 0.87707 0.38481 0.0
C776 C 0.51028 0.89662 0.39749 0.0
H777 H 0.09069 0.95767 0.89683 0.0
H778 H 0.023 0.97291 0.93428 0.0
H779 H 0.00973 0.04238 0.92746 0.0
H780 H 0.13556 0.0542 0.89846 0.0
H781 H 0.13377 0.05991 0.87921 0.0
H782 H 0.13749 0.01134 0.88697 0.0
H783 H 0.07462 0.98953 0.87163 0.0
H784 H 0.07082 0.03797 0.86379 0.0
H785 H 0.02979 0.01761 0.87258 0.0
H786 H 1.00168 0.10976 0.9159 0.0
H787 H 1.00165 0.16999 0.90084 0.0
H788 H 0.07769 0.11186 0.87192 0.0
C789 C 0.07279 0.97555 0.90352 0.0
C790 C 0.05773 0.95988 0.91606 0.0
C791 C 0.03498 0.98441 0.92467 0.0
C792 C 0.02722 0.02384 0.92086 0.0
C793 C 0.04268 0.03844 0.90847 0.0
C794 C 0.06513 0.01508 0.89996 0.0
C795 C 0.07881 0.03806 0.88731 0.0
C796 C 0.1241 0.04105 0.88804 0.0
C797 C 0.06253 0.0197 0.87298 0.0
C798 C 0.06018 0.07784 0.88993 0.0
C799 C 0.0394 0.07751 0.90218 0.0
C800 C 0.01855 0.11056 0.90646 0.0
C801 C 0.01914 0.1448 0.89803 0.0
C802 C 0.0411 0.14592 0.88571 0.0
C803 C 0.06143 0.11189 0.88153 0.0
H804 H 0.16838 0.15819 0.97925 0.0
H805 H 0.04581 0.16195 0.98936 0.0
H806 H 0.02544 0.16871 0.96353 0.0
H807 H 0.16322 0.23186 0.95557 0.0
H808 H 0.1965 0.21196 0.94311 0.0
H809 H 0.20092 0.1971 0.9616 0.0
H810 H 0.19373 0.12367 0.95384 0.0
H811 H 0.18943 0.1384 0.93523 0.0
H812 H 0.15161 0.10832 0.94234 0.0
H813 H 0.01936 0.18887 0.93807 0.0
H814 H 0.02824 0.22228 0.91503 0.0
H815 H 0.15435 0.20466 0.9209 0.0
C816 C 0.13721 0.15873 0.97591 0.0
C817 C 0.10858 0.15917 0.98619 0.0
C818 C 0.0681 0.16146 0.98158 0.0
C819 C 0.0563 0.16495 0.96695 0.0
C820 C 0.08534 0.16589 0.95708 0.0
C821 C 0.12502 0.16257 0.96135 0.0
C822 C 0.15059 0.17052 0.94899 0.0
C823 C 0.17946 0.2049 0.95253 0.0
C824 C 0.17264 0.13298 0.94486 0.0
C825 C 0.11927 0.18154 0.93738 0.0
C826 C 0.08175 0.17748 0.94212 0.0
C827 C 0.04839 0.19064 0.934 0.0
C828 C 0.05359 0.20921 0.92087 0.0
C829 C 0.09169 0.21407 0.91596 0.0
C830 C 0.12482 0.19961 0.92421 0.0
H831 H 0.13892 0.76286 0.23667 0.0
H832 H 0.04313 0.84004 0.22171 0.0
H833 H 0.05576 0.82348 0.19643 0.0
H834 H 0.20436 0.78468 0.20915 0.0
H835 H 0.22182 0.73457 0.20808 0.0
H836 H 0.20526 0.75335 0.22475 0.0
H837 H 0.15512 0.69566 0.22545 0.0
H838 H 0.17163 0.67665 0.20882 0.0
H839 H 0.12011 0.68752 0.2103 0.0
H840 H 0.08078 0.79847 0.17264 0.0
H841 H 0.11259 0.76443 0.15287 0.0
H842 H 0.18987 0.70291 0.18432 0.0
C843 C 0.12086 0.77667 0.22808 0.0
C844 C 0.0904 0.80308 0.23108 0.0
C845 C 0.06668 0.81974 0.21958 0.0
C846 C 0.07376 0.81064 0.20523 0.0
C847 C 0.1044 0.78465 0.20267 0.0
C848 C 0.12731 0.76774 0.21383 0.0
C849 C 0.1576 0.73981 0.20841 0.0
C850 C 0.19975 0.75397 0.21286 0.0
C851 C 0.15068 0.6974 0.21355 0.0
C852 C 0.1484 0.74357 0.19241 0.0
C853 C 0.11784 0.76969 0.18922 0.0
C854 C 0.10459 0.77783 0.17504 0.0
C855 C 0.1228 0.75834 0.1639 0.0
C856 C 0.15334 0.73057 0.16704 0.0
C857 C 0.16646 0.72373 0.1815 0.0
H858 H 0.69064 0.6682 0.48138 0.0
H859 H 0.56908 0.65116 0.49109 0.0
H860 H 0.54906 0.64868 0.46501 0.0
H861 H 0.67126 0.73632 0.4561 0.0
H862 H 0.70908 0.72229 0.4444 0.0
H863 H 0.715 0.71104 0.46319 0.0
H864 H 0.72414 0.63697 0.45702 0.0
H865 H 0.71799 0.64815 0.4381 0.0
H866 H 0.6869 0.61172 0.44571 0.0
H867 H 0.54099 0.65947 0.43842 0.0
H868 H 0.54422 0.69078 0.41459 0.0
H869 H 0.67033 0.70569 0.42255 0.0
C870 C 0.6601 0.66222 0.47793 0.0
C871 C 0.63143 0.65889 0.48808 0.0
C872 C 0.59142 0.65303 0.48336 0.0
C873 C 0.57993 0.65132 0.4686 0.0
C874 C 0.60882 0.65585 0.45876 0.0
C875 C 0.64815 0.66137 0.46328 0.0
C876 C 0.67228 0.673 0.4509 0.0
C877 C 0.69307 0.71303 0.45383 0.0
C878 C 0.70209 0.64051 0.44775 0.0
C879 C 0.64008 0.67574 0.43891 0.0
C880 C 0.60394 0.66408 0.44347 0.0
C881 C 0.56925 0.66775 0.43464 0.0
C882 C 0.57132 0.68537 0.4211 0.0
C883 C 0.6076 0.70006 0.41679 0.0
C884 C 0.64246 0.69381 0.42556 0.0
H885 H 0.58097 0.31427 0.71865 0.0
H886 H 0.54352 0.19889 0.73241 0.0
H887 H 0.55849 0.17074 0.70891 0.0
H888 H 0.54567 0.30125 0.67951 0.0
H889 H 0.58752 0.32767 0.67345 0.0
H890 H 0.56765 0.34077 0.69029 0.0
H891 H 0.63601 0.33092 0.70369 0.0
H892 H 0.65652 0.31834 0.687 0.0
H893 H 0.66143 0.28461 0.70192 0.0
H894 H 0.59044 0.15287 0.68662 0.0
H895 H 0.63177 0.14759 0.66585 0.0
H896 H 0.64482 0.27475 0.66543 0.0
C897 C 0.57489 0.28332 0.71652 0.0
C898 C 0.561 0.25872 0.72729 0.0
C899 C 0.55363 0.21831 0.72422 0.0
C900 C 0.56211 0.20207 0.71092 0.0
C901 C 0.57717 0.22682 0.70072 0.0
C902 C 0.58267 0.26678 0.70321 0.0
C903 C 0.60222 0.28621 0.69092 0.0
C904 C 0.57408 0.31571 0.68307 0.0
C905 C 0.64136 0.30616 0.6962 0.0
C906 C 0.60912 0.25052 0.68156 0.0
C907 C 0.59415 0.21659 0.68737 0.0
C908 C 0.60125 0.17929 0.68172 0.0
C909 C 0.62475 0.17653 0.66998 0.0
C910 C 0.64048 0.21084 0.66397 0.0
C911 C 0.63186 0.2483 0.6696 0.0
H912 H 0.17143 0.6735 0.00814 0.0
H913 H 0.24279 0.77979 0.00866 0.0
H914 H 0.26204 0.76921 0.03444 0.0
H915 H 0.13225 0.68886 0.0401 0.0
H916 H 0.13179 0.63785 0.04552 0.0
H917 H 0.12991 0.65 0.02677 0.0
H918 H 0.19182 0.60684 0.02364 0.0
H919 H 0.19395 0.59465 0.04249 0.0
H920 H 0.23633 0.61604 0.03483 0.0
H921 H 0.26578 0.75174 0.06097 0.0
H922 H 0.24969 0.73189 0.08542 0.0
H923 H 0.17698 0.63664 0.06705 0.0
C924 C 0.19234 0.69378 0.0135 0.0
C925 C 0.20588 0.72726 0.00631 0.0
C926 C 0.23194 0.75394 0.01393 0.0
C927 C 0.24336 0.74794 0.02855 0.0
C928 C 0.22877 0.71495 0.03537 0.0
C929 C 0.20393 0.68823 0.02802 0.0
C930 C 0.18837 0.65784 0.03803 0.0
C931 C 0.14292 0.65874 0.03758 0.0
C932 C 0.20354 0.61638 0.03453 0.0
C933 C 0.20672 0.67267 0.05229 0.0
C934 C 0.23071 0.70507 0.05057 0.0
C935 C 0.2477 0.72592 0.06241 0.0
C936 C 0.23855 0.71436 0.07628 0.0
C937 C 0.21212 0.68271 0.07811 0.0
C938 C 0.19758 0.66071 0.06598 0.0
H939 H 0.64433 0.73738 0.25848 0.0
H940 H 0.69165 0.8561 0.26258 0.0
H941 H 0.68539 0.85392 0.28892 0.0
H942 H 0.57239 0.74695 0.28269 0.0
H943 H 0.57779 0.6979 0.28998 0.0
H944 H 0.59053 0.70744 0.27191 0.0
H945 H 0.66091 0.67983 0.27807 0.0
H946 H 0.64825 0.67017 0.29619 0.0
H947 H 0.6906 0.70027 0.29309 0.0
H948 H 0.66546 0.84142 0.3143 0.0
H949 H 0.63498 0.81928 0.33625 0.0
H950 H 0.60437 0.70758 0.3155 0.0
C951 C 0.65373 0.76276 0.26496 0.0
C952 C 0.66823 0.79699 0.25855 0.0
C953 C 0.68061 0.82953 0.26734 0.0
C954 C 0.6772 0.82852 0.28228 0.0
C955 C 0.66206 0.79447 0.28824 0.0
C956 C 0.65099 0.76202 0.27983 0.0
C957 C 0.63364 0.7298 0.28862 0.0
C958 C 0.59108 0.71998 0.28296 0.0
C959 C 0.65993 0.69283 0.28901 0.0
C960 C 0.63483 0.74983 0.30316 0.0
C961 C 0.65179 0.78691 0.30283 0.0
C962 C 0.65307 0.81205 0.31477 0.0
C963 C 0.63606 0.79911 0.32725 0.0
C964 C 0.61841 0.76131 0.32771 0.0
C965 C 0.61833 0.73636 0.31554 0.0
H966 H 0.57052 0.17897 0.51452 0.0
H967 H 0.68638 0.19071 0.49824 0.0
H968 H 0.71721 0.17837 0.52258 0.0
H969 H 0.58963 0.23281 0.54432 0.0
H970 H 0.56065 0.20447 0.5561 0.0
H971 H 0.54835 0.20372 0.53708 0.0
H972 H 0.55398 0.12735 0.53698 0.0
H973 H 0.56665 0.12801 0.5561 0.0
H974 H 0.59888 0.10425 0.54413 0.0
H975 H 0.73476 0.17901 0.54875 0.0
H976 H 0.73711 0.19708 0.5745 0.0
H977 H 0.61049 0.18394 0.57421 0.0
C978 C 0.60238 0.17731 0.51602 0.0
C979 C 0.62615 0.18539 0.50456 0.0
C980 C 0.66773 0.18451 0.50694 0.0
C981 C 0.68545 0.1771 0.52068 0.0
C982 C 0.66118 0.17042 0.53191 0.0
C983 C 0.62046 0.17033 0.52971 0.0
C984 C 0.60096 0.16898 0.54383 0.0
C985 C 0.57332 0.20461 0.54542 0.0
C986 C 0.57882 0.1298 0.54535 0.0
C987 C 0.63694 0.17119 0.55433 0.0
C988 C 0.67148 0.17061 0.54726 0.0
C989 C 0.70812 0.17793 0.55448 0.0
C990 C 0.70931 0.18781 0.56913 0.0
C991 C 0.67418 0.18997 0.57637 0.0
C992 C 0.63783 0.18041 0.56899 0.0
H993 H 0.19804 0.33716 0.77504 0.0
H994 H 0.23379 0.21814 0.76455 0.0
H995 H 0.21903 0.19615 0.78877 0.0
H996 H 0.23347 0.33218 0.81485 0.0
H997 H 0.19208 0.36086 0.82007 0.0
H998 H 0.21274 0.36986 0.80306 0.0
H999 H 0.14443 0.35899 0.78963 0.0
H1000 H 0.12317 0.35047 0.80647 0.0
H1001 H 0.11789 0.3138 0.79237 0.0
H1002 H 0.18647 0.18398 0.81112 0.0
H1003 H 0.14328 0.18374 0.83141 0.0
H1004 H 0.13211 0.31085 0.82873 0.0
C1005 C 0.20391 0.30679 0.77806 0.0
C1006 C 0.21718 0.27934 0.768 0.0
C1007 C 0.22422 0.23974 0.77219 0.0
C1008 C 0.21589 0.22698 0.78591 0.0
C1009 C 0.20136 0.25438 0.79541 0.0
C1010 C 0.19634 0.29371 0.79183 0.0
C1011 C 0.17687 0.31621 0.80355 0.0
C1012 C 0.2055 0.34656 0.81081 0.0
C1013 C 0.13831 0.33599 0.79765 0.0
C1014 C 0.16897 0.28278 0.81369 0.0
C1015 C 0.1838 0.24745 0.80886 0.0
C1016 C 0.17576 0.21155 0.81529 0.0
C1017 C 0.15127 0.21164 0.82676 0.0
C1018 C 0.13544 0.24736 0.8317 0.0
C1019 C 0.1452 0.28344 0.82539 0.0
loop_
_geom_bond_atom_site_label_1
_geom_bond_atom_site_label_2
_geom_bond_distance
_geom_bond_site_symmetry_2
_ccdc_geom_bond_type
C0 C1 1.384 . S
C0 H13 0.947 . S
C0 C35 1.382 . S
C1 C0 1.384 . S
C1 C2 1.378 . S
C2 C1 1.378 . S
C2 C3 1.378 . S
C2 H14 0.952 . S
C3 C2 1.378 . S
C3 H15 0.950 . S
C3 C34 1.383 . S
H4 C23 0.947 . S
H5 C24 0.946 . S
H6 C26 0.953 . S
H7 C27 0.945 . S
H8 C29 0.952 . S
H9 C30 0.949 . S
H10 C32 0.950 . S
H11 C33 0.948 . S
H12 C35 0.951 . S
H13 C0 0.947 . S
H14 C2 0.952 . S
H15 C3 0.950 . S
N16 C19 1.382 . S
N16 C21 1.363 . S
N17 C19 1.371 . S
N17 C20 1.372 . S
N18 C20 1.361 . S
N18 C21 1.377 . S
C19 N16 1.382 . S
C19 N17 1.371 . S
C19 C22 1.480 . S
C20 N17 1.372 . S
C20 N18 1.361 . S
C20 C28 1.457 . S
C21 N16 1.363 . S
C21 N18 1.377 . S
C21 C34 1.479 . S
C22 C19 1.480 . S
C22 C23 1.383 . S
C22 C27 1.385 . S
C23 H4 0.947 . S
C23 C22 1.383 . S
C23 C24 1.388 . S
C24 H5 0.946 . S
C24 C23 1.388 . S
C24 C25 1.384 . S
C25 C24 1.384 . S
C25 C26 1.377 . S
C26 H6 0.953 . S
C26 C25 1.377 . S
C26 C27 1.369 . S
C27 H7 0.945 . S
C27 C22 1.385 . S
C27 C26 1.369 . S
C28 C20 1.457 . S
C28 C29 1.372 . S
C28 C33 1.364 . S
C29 H8 0.952 . S
C29 C28 1.372 . S
C29 C30 1.389 . S
C30 H9 0.949 . S
C30 C29 1.389 . S
C30 C31 1.387 . S
C31 C30 1.387 . S
C31 C32 1.372 . S
C32 H10 0.950 . S
C32 C31 1.372 . S
C32 C33 1.379 . S
C33 H11 0.948 . S
C33 C28 1.364 . S
C33 C32 1.379 . S
C34 C3 1.383 . S
C34 C21 1.479 . S
C34 C35 1.398 . S
C35 C0 1.382 . S
C35 H12 0.951 . S
C35 C34 1.398 . S
C36 C37 1.384 . S
C36 H49 0.947 . S
C36 C71 1.382 . S
C37 C36 1.384 . S
C37 C38 1.378 . S
C38 C37 1.378 . S
C38 C39 1.378 . S
C38 H50 0.952 . S
C39 C38 1.378 . S
C39 H51 0.950 . S
C39 C70 1.383 . S
H40 C59 0.947 . S
H41 C60 0.946 . S
H42 C62 0.953 . S
H43 C63 0.945 . S
H44 C65 0.952 . S
H45 C66 0.949 . S
H46 C68 0.950 . S
H47 C69 0.948 . S
H48 C71 0.951 . S
H49 C36 0.947 . S
H50 C38 0.952 . S
H51 C39 0.950 . S
N52 C55 1.382 . S
N52 C57 1.363 . S
N53 C55 1.371 . S
N53 C56 1.372 . S
N54 C56 1.361 . S
N54 C57 1.377 . S
C55 N52 1.382 . S
C55 N53 1.371 . S
C55 C58 1.480 . S
C56 N53 1.372 . S
C56 N54 1.361 . S
C56 C64 1.457 . S
C57 N52 1.363 . S
C57 N54 1.377 . S
C57 C70 1.479 . S
C58 C55 1.480 . S
C58 C59 1.383 . S
C58 C63 1.385 . S
C59 H40 0.947 . S
C59 C58 1.383 . S
C59 C60 1.388 . S
C60 H41 0.946 . S
C60 C59 1.388 . S
C60 C61 1.384 1_455 S
C61 C60 1.384 1_655 S
C61 C62 1.377 . S
C62 H42 0.953 . S
C62 C61 1.377 . S
C62 C63 1.369 1_655 S
C63 H43 0.945 . S
C63 C58 1.385 . S
C63 C62 1.369 1_455 S
C64 C56 1.457 . S
C64 C65 1.372 . S
C64 C69 1.364 . S
C65 H44 0.952 . S
C65 C64 1.372 . S
C65 C66 1.389 . S
C66 H45 0.949 . S
C66 C65 1.389 . S
C66 C67 1.387 . S
C67 C66 1.387 . S
C67 C68 1.372 . S
C68 H46 0.950 . S
C68 C67 1.372 . S
C68 C69 1.379 . S
C69 H47 0.948 . S
C69 C64 1.364 . S
C69 C68 1.379 . S
C70 C39 1.383 . S
C70 C57 1.479 . S
C70 C71 1.398 . S
C71 C36 1.382 . S
C71 H48 0.951 . S
C71 C70 1.398 . S
C72 C73 1.384 . S
C72 H85 0.947 . S
C72 C107 1.382 . S
C73 C72 1.384 . S
C73 C74 1.378 . S
C74 C73 1.378 . S
C74 C75 1.378 . S
C74 H86 0.952 . S
C75 C74 1.378 . S
C75 H87 0.950 . S
C75 C106 1.383 . S
H76 C95 0.947 . S
H77 C96 0.946 . S
H78 C98 0.953 . S
H79 C99 0.945 . S
H80 C101 0.952 . S
H81 C102 0.949 . S
H82 C104 0.950 . S
H83 C105 0.948 . S
H84 C107 0.951 . S
H85 C72 0.947 . S
H86 C74 0.952 . S
H87 C75 0.950 . S
N88 C91 1.382 . S
N88 C93 1.363 . S
N89 C91 1.371 . S
N89 C92 1.372 . S
N90 C92 1.361 . S
N90 C93 1.377 . S
C91 N88 1.382 . S
C91 N89 1.371 . S
C91 C94 1.480 . S
C92 N89 1.372 . S
C92 N90 1.361 . S
C92 C100 1.457 . S
C93 N88 1.363 . S
C93 N90 1.377 . S
C93 C106 1.479 . S
C94 C91 1.480 . S
C94 C95 1.383 . S
C94 C99 1.385 . S
C95 H76 0.947 . S
C95 C94 1.383 . S
C95 C96 1.388 . S
C96 H77 0.946 . S
C96 C95 1.388 . S
C96 C97 1.384 . S
C97 C96 1.384 . S
C97 C98 1.377 . S
C98 H78 0.953 . S
C98 C97 1.377 . S
C98 C99 1.369 . S
C99 H79 0.945 . S
C99 C94 1.385 . S
C99 C98 1.369 . S
C100 C92 1.457 . S
C100 C101 1.372 . S
C100 C105 1.364 . S
C101 H80 0.952 . S
C101 C100 1.372 . S
C101 C102 1.389 . S
C102 H81 0.949 . S
C102 C101 1.389 . S
C102 C103 1.387 . S
C103 C102 1.387 . S
C103 C104 1.372 . S
C104 H82 0.950 . S
C104 C103 1.372 . S
C104 C105 1.379 . S
C105 H83 0.948 . S
C105 C100 1.364 . S
C105 C104 1.379 . S
C106 C75 1.383 . S
C106 C93 1.479 . S
C106 C107 1.398 . S
C107 C72 1.382 . S
C107 H84 0.951 . S
C107 C106 1.398 . S
C108 C109 1.384 . S
C108 H121 0.947 . S
C108 C143 1.382 . S
C109 C108 1.384 . S
C109 C110 1.378 . S
C110 C109 1.378 . S
C110 C111 1.378 . S
C110 H122 0.952 . S
C111 C110 1.378 . S
C111 H123 0.950 . S
C111 C142 1.383 . S
H112 C131 0.947 . S
H113 C132 0.946 . S
H114 C134 0.953 . S
H115 C135 0.945 . S
H116 C137 0.952 . S
H117 C138 0.949 . S
H118 C140 0.950 . S
H119 C141 0.948 . S
H120 C143 0.951 . S
H121 C108 0.947 . S
H122 C110 0.952 . S
H123 C111 0.950 . S
N124 C127 1.382 . S
N124 C129 1.363 . S
N125 C127 1.371 . S
N125 C128 1.372 . S
N126 C128 1.361 . S
N126 C129 1.377 . S
C127 N124 1.382 . S
C127 N125 1.371 . S
C127 C130 1.480 . S
C128 N125 1.372 . S
C128 N126 1.361 . S
C128 C136 1.457 . S
C129 N124 1.363 . S
C129 N126 1.377 . S
C129 C142 1.479 . S
C130 C127 1.480 . S
C130 C131 1.383 . S
C130 C135 1.385 . S
C131 H112 0.947 . S
C131 C130 1.383 . S
C131 C132 1.388 . S
C132 H113 0.946 . S
C132 C131 1.388 . S
C132 C133 1.384 . S
C133 C132 1.384 . S
C133 C134 1.377 . S
C134 H114 0.953 . S
C134 C133 1.377 . S
C134 C135 1.369 . S
C135 H115 0.945 . S
C135 C130 1.385 . S
C135 C134 1.369 . S
C136 C128 1.457 . S
C136 C137 1.372 . S
C136 C141 1.364 . S
C137 H116 0.952 . S
C137 C136 1.372 . S
C137 C138 1.389 . S
C138 H117 0.949 . S
C138 C137 1.389 . S
C138 C139 1.387 . S
C139 C138 1.387 . S
C139 C140 1.372 . S
C140 H118 0.950 . S
C140 C139 1.372 . S
C140 C141 1.379 . S
C141 H119 0.948 . S
C141 C136 1.364 . S
C141 C140 1.379 . S
C142 C111 1.383 . S
C142 C129 1.479 . S
C142 C143 1.398 . S
C143 C108 1.382 . S
C143 H120 0.951 . S
C143 C142 1.398 . S
C144 C145 1.384 . S
C144 H157 0.947 . S
C144 C179 1.382 . S
C145 C144 1.384 . S
C145 C146 1.378 . S
C146 C145 1.378 . S
C146 C147 1.378 . S
C146 H158 0.952 . S
C147 C146 1.378 . S
C147 H159 0.950 . S
C147 C178 1.383 . S
H148 C167 0.947 . S
H149 C168 0.946 . S
H150 C170 0.953 . S
H151 C171 0.945 . S
H152 C173 0.952 . S
H153 C174 0.949 . S
H154 C176 0.950 . S
H155 C177 0.948 . S
H156 C179 0.951 . S
H157 C144 0.947 . S
H158 C146 0.952 . S
H159 C147 0.950 . S
N160 C163 1.382 . S
N160 C165 1.363 . S
N161 C163 1.371 . S
N161 C164 1.372 . S
N162 C164 1.361 . S
N162 C165 1.377 . S
C163 N160 1.382 . S
C163 N161 1.371 . S
C163 C166 1.480 . S
C164 N161 1.372 . S
C164 N162 1.361 . S
C164 C172 1.457 . S
C165 N160 1.363 . S
C165 N162 1.377 . S
C165 C178 1.479 . S
C166 C163 1.480 . S
C166 C167 1.383 . S
C166 C171 1.385 . S
C167 H148 0.947 . S
C167 C166 1.383 . S
C167 C168 1.388 . S
C168 H149 0.946 . S
C168 C167 1.388 . S
C168 C169 1.384 . S
C169 C168 1.384 . S
C169 C170 1.377 . S
C170 H150 0.953 . S
C170 C169 1.377 . S
C170 C171 1.369 . S
C171 H151 0.945 . S
C171 C166 1.385 . S
C171 C170 1.369 . S
C172 C164 1.457 . S
C172 C173 1.372 . S
C172 C177 1.364 . S
C173 H152 0.952 . S
C173 C172 1.372 . S
C173 C174 1.389 . S
C174 H153 0.949 . S
C174 C173 1.389 . S
C174 C175 1.387 . S
C175 C174 1.387 . S
C175 C176 1.372 . S
C176 H154 0.950 . S
C176 C175 1.372 . S
C176 C177 1.379 . S
C177 H155 0.948 . S
C177 C172 1.364 . S
C177 C176 1.379 . S
C178 C147 1.383 . S
C178 C165 1.479 . S
C178 C179 1.398 . S
C179 C144 1.382 . S
C179 H156 0.951 . S
C179 C178 1.398 . S
C180 C181 1.384 . S
C180 H193 0.947 . S
C180 C215 1.382 . S
C181 C180 1.384 . S
C181 C182 1.378 . S
C182 C181 1.378 . S
C182 C183 1.378 . S
C182 H194 0.952 . S
C183 C182 1.378 . S
C183 H195 0.950 . S
C183 C214 1.383 . S
H184 C203 0.947 . S
H185 C204 0.946 . S
H186 C206 0.953 . S
H187 C207 0.945 . S
H188 C209 0.952 . S
H189 C210 0.949 . S
H190 C212 0.950 . S
H191 C213 0.948 . S
H192 C215 0.951 . S
H193 C180 0.947 . S
H194 C182 0.952 . S
H195 C183 0.950 . S
N196 C199 1.382 . S
N196 C201 1.363 . S
N197 C199 1.371 . S
N197 C200 1.372 . S
N198 C200 1.361 . S
N198 C201 1.377 . S
C199 N196 1.382 . S
C199 N197 1.371 . S
C199 C202 1.480 . S
C200 N197 1.372 . S
C200 N198 1.361 . S
C200 C208 1.457 . S
C201 N196 1.363 . S
C201 N198 1.377 . S
C201 C214 1.479 . S
C202 C199 1.480 . S
C202 C203 1.383 . S
C202 C207 1.385 . S
C203 H184 0.947 . S
C203 C202 1.383 . S
C203 C204 1.388 . S
C204 H185 0.946 . S
C204 C203 1.388 . S
C204 C205 1.384 . S
C205 C204 1.384 . S
C205 C206 1.377 . S
C206 H186 0.953 . S
C206 C205 1.377 . S
C206 C207 1.369 . S
C207 H187 0.945 . S
C207 C202 1.385 . S
C207 C206 1.369 . S
C208 C200 1.457 . S
C208 C209 1.372 . S
C208 C213 1.364 . S
C209 H188 0.952 . S
C209 C208 1.372 . S
C209 C210 1.389 . S
C210 H189 0.949 . S
C210 C209 1.389 . S
C210 C211 1.387 . S
C211 C210 1.387 . S
C211 C212 1.372 . S
C212 H190 0.950 . S
C212 C211 1.372 . S
C212 C213 1.379 . S
C213 H191 0.948 . S
C213 C208 1.364 . S
C213 C212 1.379 . S
C214 C183 1.383 . S
C214 C201 1.479 . S
C214 C215 1.398 . S
C215 C180 1.382 . S
C215 H192 0.951 . S
C215 C214 1.398 . S
C216 C217 1.384 . S
C216 H229 0.947 . S
C216 C251 1.382 . S
C217 C216 1.384 . S
C217 C218 1.378 . S
C218 C217 1.378 . S
C218 C219 1.378 . S
C218 H230 0.952 . S
C219 C218 1.378 . S
C219 H231 0.950 . S
C219 C250 1.383 . S
H220 C239 0.947 . S
H221 C240 0.946 . S
H222 C242 0.953 . S
H223 C243 0.945 . S
H224 C245 0.952 . S
H225 C246 0.949 . S
H226 C248 0.950 . S
H227 C249 0.948 . S
H228 C251 0.951 . S
H229 C216 0.947 . S
H230 C218 0.952 . S
H231 C219 0.950 . S
N232 C235 1.382 . S
N232 C237 1.363 . S
N233 C235 1.371 . S
N233 C236 1.372 . S
N234 C236 1.361 . S
N234 C237 1.377 . S
C235 N232 1.382 . S
C235 N233 1.371 . S
C235 C238 1.480 . S
C236 N233 1.372 . S
C236 N234 1.361 . S
C236 C244 1.457 . S
C237 N232 1.363 . S
C237 N234 1.377 . S
C237 C250 1.479 . S
C238 C235 1.480 . S
C238 C239 1.383 . S
C238 C243 1.385 . S
C239 H220 0.947 . S
C239 C238 1.383 . S
C239 C240 1.388 . S
C240 H221 0.946 . S
C240 C239 1.388 . S
C240 C241 1.384 . S
C241 C240 1.384 . S
C241 C242 1.377 . S
C242 H222 0.953 . S
C242 C241 1.377 . S
C242 C243 1.369 . S
C243 H223 0.945 . S
C243 C238 1.385 . S
C243 C242 1.369 . S
C244 C236 1.457 . S
C244 C245 1.372 . S
C244 C249 1.364 . S
C245 H224 0.952 . S
C245 C244 1.372 . S
C245 C246 1.389 . S
C246 H225 0.949 . S
C246 C245 1.389 . S
C246 C247 1.387 . S
C247 C246 1.387 . S
C247 C248 1.372 . S
C248 H226 0.950 . S
C248 C247 1.372 . S
C248 C249 1.379 . S
C249 H227 0.948 . S
C249 C244 1.364 . S
C249 C248 1.379 . S
C250 C219 1.383 . S
C250 C237 1.479 . S
C250 C251 1.398 . S
C251 C216 1.382 . S
C251 H228 0.951 . S
C251 C250 1.398 . S
C252 C253 1.384 . S
C252 H265 0.947 . S
C252 C287 1.382 1_655 S
C253 C252 1.384 . S
C253 C254 1.378 1_655 S
C254 C253 1.378 1_455 S
C254 C255 1.378 . S
C254 H266 0.952 . S
C255 C254 1.378 . S
C255 H267 0.950 . S
C255 C286 1.383 . S
H256 C275 0.947 . S
H257 C276 0.946 . S
H258 C278 0.953 . S
H259 C279 0.945 . S
H260 C281 0.952 . S
H261 C282 0.949 . S
H262 C284 0.950 . S
H263 C285 0.948 . S
H264 C287 0.951 . S
H265 C252 0.947 . S
H266 C254 0.952 . S
H267 C255 0.950 . S
N268 C271 1.382 . S
N268 C273 1.363 . S
N269 C271 1.371 . S
N269 C272 1.372 . S
N270 C272 1.361 . S
N270 C273 1.377 . S
C271 N268 1.382 . S
C271 N269 1.371 . S
C271 C274 1.480 . S
C272 N269 1.372 . S
C272 N270 1.361 . S
C272 C280 1.457 . S
C273 N268 1.363 . S
C273 N270 1.377 . S
C273 C286 1.479 . S
C274 C271 1.480 . S
C274 C275 1.383 . S
C274 C279 1.385 . S
C275 H256 0.947 . S
C275 C274 1.383 . S
C275 C276 1.388 . S
C276 H257 0.946 . S
C276 C275 1.388 . S
C276 C277 1.384 . S
C277 C276 1.384 . S
C277 C278 1.377 . S
C278 H258 0.953 . S
C278 C277 1.377 . S
C278 C279 1.369 . S
C279 H259 0.945 . S
C279 C274 1.385 . S
C279 C278 1.369 . S
C280 C272 1.457 . S
C280 C281 1.372 . S
C280 C285 1.364 . S
C281 H260 0.952 . S
C281 C280 1.372 . S
C281 C282 1.389 . S
C282 H261 0.949 . S
C282 C281 1.389 . S
C282 C283 1.387 . S
C283 C282 1.387 . S
C283 C284 1.372 . S
C284 H262 0.950 . S
C284 C283 1.372 . S
C284 C285 1.379 . S
C285 H263 0.948 . S
C285 C280 1.364 . S
C285 C284 1.379 . S
C286 C255 1.383 . S
C286 C273 1.479 . S
C286 C287 1.398 . S
C287 C252 1.382 1_455 S
C287 H264 0.951 . S
C287 C286 1.398 . S
Zn288 O294 1.920 . S
Zn288 O300 1.898 . S
Zn288 O303 1.905 . S
Zn289 O297 1.905 . S
Zn289 O298 1.898 . S
Zn289 O306 1.920 . S
Zn290 O293 2.080 . S
Zn290 O296 2.114 . S
Zn290 O299 2.120 . S
Zn290 O301 2.120 . S
Zn290 O302 2.114 . S
Zn290 O305 2.080 . S
C291 O296 1.166 . S
C291 O297 1.182 . S
C292 O298 1.167 . S
C292 O299 1.299 . S
O293 Zn290 2.080 . S
O293 C307 1.305 . S
O294 Zn288 1.920 . S
O294 C307 1.234 . S
C295 O300 1.167 . S
C295 O301 1.299 . S
O296 Zn290 2.114 . S
O296 C291 1.166 . S
O297 Zn289 1.905 . S
O297 C291 1.182 . S
O298 Zn289 1.898 . S
O298 C292 1.167 . S
O299 Zn290 2.120 . S
O299 C292 1.299 . S
O300 Zn288 1.898 . S
O300 C295 1.167 . S
O301 Zn290 2.120 . S
O301 C295 1.299 . S
O302 Zn290 2.114 . S
O302 C304 1.166 . S
O303 Zn288 1.905 . S
O303 C304 1.182 . S
C304 O302 1.166 . S
C304 O303 1.182 . S
O305 Zn290 2.080 . S
O305 C308 1.305 . S
O306 Zn289 1.920 . S
O306 C308 1.234 . S
C307 O293 1.305 . S
C307 O294 1.234 . S
C308 O305 1.305 . S
C308 O306 1.234 . S
Zn309 O315 1.920 . S
Zn309 O321 1.898 . S
Zn309 O324 1.905 . S
Zn310 O318 1.905 . S
Zn310 O319 1.898 . S
Zn310 O327 1.920 . S
Zn311 O314 2.080 . S
Zn311 O317 2.114 . S
Zn311 O320 2.120 . S
Zn311 O322 2.120 . S
Zn311 O323 2.114 . S
Zn311 O326 2.080 . S
C312 O317 1.166 . S
C312 O318 1.182 . S
C313 O319 1.167 . S
C313 O320 1.299 . S
O314 Zn311 2.080 . S
O314 C328 1.305 . S
O315 Zn309 1.920 . S
O315 C328 1.234 . S
C316 O321 1.167 . S
C316 O322 1.299 . S
O317 Zn311 2.114 . S
O317 C312 1.166 . S
O318 Zn310 1.905 . S
O318 C312 1.182 . S
O319 Zn310 1.898 . S
O319 C313 1.167 . S
O320 Zn311 2.120 . S
O320 C313 1.299 . S
O321 Zn309 1.898 . S
O321 C316 1.167 . S
O322 Zn311 2.120 . S
O322 C316 1.299 . S
O323 Zn311 2.114 . S
O323 C325 1.166 . S
O324 Zn309 1.905 . S
O324 C325 1.182 . S
C325 O323 1.166 . S
C325 O324 1.182 . S
O326 Zn311 2.080 . S
O326 C329 1.305 . S
O327 Zn310 1.920 . S
O327 C329 1.234 . S
C328 O314 1.305 . S
C328 O315 1.234 . S
C329 O326 1.305 . S
C329 O327 1.234 . S
Zn330 O336 1.920 . S
Zn330 O342 1.898 . S
Zn330 O345 1.905 . S
Zn331 O339 1.905 . S
Zn331 O340 1.898 . S
Zn331 O348 1.920 . S
Zn332 O335 2.080 . S
Zn332 O338 2.114 . S
Zn332 O341 2.120 . S
Zn332 O343 2.120 . S
Zn332 O344 2.114 . S
Zn332 O347 2.080 . S
C333 O338 1.166 . S
C333 O339 1.182 . S
C334 O340 1.167 . S
C334 O341 1.299 . S
O335 Zn332 2.080 . S
O335 C349 1.305 . S
O336 Zn330 1.920 . S
O336 C349 1.234 . S
C337 O342 1.167 . S
C337 O343 1.299 . S
O338 Zn332 2.114 . S
O338 C333 1.166 . S
O339 Zn331 1.905 . S
O339 C333 1.182 . S
O340 Zn331 1.898 . S
O340 C334 1.167 . S
O341 Zn332 2.120 . S
O341 C334 1.299 . S
O342 Zn330 1.898 . S
O342 C337 1.167 . S
O343 Zn332 2.120 . S
O343 C337 1.299 . S
O344 Zn332 2.114 . S
O344 C346 1.166 . S
O345 Zn330 1.905 . S
O345 C346 1.182 . S
C346 O344 1.166 . S
C346 O345 1.182 . S
O347 Zn332 2.080 . S
O347 C350 1.305 . S
O348 Zn331 1.920 . S
O348 C350 1.234 . S
C349 O335 1.305 . S
C349 O336 1.234 . S
C350 O347 1.305 . S
C350 O348 1.234 . S
Zn351 O357 1.920 . S
Zn351 O363 1.898 . S
Zn351 O366 1.905 . S
Zn352 O360 1.905 . S
Zn352 O361 1.898 . S
Zn352 O369 1.920 . S
Zn353 O356 2.080 . S
Zn353 O359 2.114 . S
Zn353 O362 2.120 . S
Zn353 O364 2.120 . S
Zn353 O365 2.114 . S
Zn353 O368 2.080 . S
C354 O359 1.166 . S
C354 O360 1.182 . S
C355 O361 1.167 . S
C355 O362 1.299 . S
O356 Zn353 2.080 . S
O356 C370 1.305 . S
O357 Zn351 1.920 . S
O357 C370 1.234 . S
C358 O363 1.167 . S
C358 O364 1.299 . S
O359 Zn353 2.114 . S
O359 C354 1.166 . S
O360 Zn352 1.905 . S
O360 C354 1.182 . S
O361 Zn352 1.898 . S
O361 C355 1.167 . S
O362 Zn353 2.120 . S
O362 C355 1.299 . S
O363 Zn351 1.898 . S
O363 C358 1.167 . S
O364 Zn353 2.120 . S
O364 C358 1.299 . S
O365 Zn353 2.114 . S
O365 C367 1.166 . S
O366 Zn351 1.905 . S
O366 C367 1.182 . S
C367 O365 1.166 . S
C367 O366 1.182 . S
O368 Zn353 2.080 . S
O368 C371 1.305 . S
O369 Zn352 1.920 . S
O369 C371 1.234 . S
C370 O356 1.305 . S
C370 O357 1.234 . S
C371 O368 1.305 . S
C371 O369 1.234 . S
H372 C384 0.930 . S
H373 C386 0.930 . S
H374 C387 0.930 . S
H375 C391 0.959 . S
H376 C391 0.959 . S
H377 C391 0.961 . S
H378 C392 0.960 . S
H379 C392 0.961 . S
H380 C392 0.959 . S
H381 C395 0.929 . S
H382 C396 0.931 . S
H383 C398 0.930 . S
C384 H372 0.930 . S
C384 C385 1.399 . S
C384 C389 1.399 . S
C385 C384 1.399 . S
C385 C386 1.376 . S
C386 H373 0.930 . S
C386 C385 1.376 . S
C386 C387 1.388 . S
C387 H374 0.930 . S
C387 C386 1.388 . S
C387 C388 1.390 . S
C388 C387 1.390 . S
C388 C389 1.394 . S
C388 C394 1.465 . S
C389 C384 1.399 . S
C389 C388 1.394 . S
C389 C390 1.516 . S
C390 C389 1.516 . S
C390 C391 1.502 . S
C390 C392 1.561 . S
C390 C393 1.526 . S
C391 H375 0.959 . S
C391 H376 0.959 . S
C391 H377 0.961 . S
C391 C390 1.502 . S
C392 H378 0.960 . S
C392 H379 0.961 . S
C392 H380 0.959 . S
C392 C390 1.561 . S
C393 C390 1.526 . S
C393 C394 1.396 . S
C393 C398 1.390 . S
C394 C388 1.465 . S
C394 C393 1.396 . S
C394 C395 1.399 . S
C395 H381 0.929 . S
C395 C394 1.399 . S
C395 C396 1.385 . S
C396 H382 0.931 . S
C396 C395 1.385 . S
C396 C397 1.389 . S
C397 C396 1.389 . S
C397 C398 1.387 . S
C398 H383 0.930 . S
C398 C393 1.390 . S
C398 C397 1.387 . S
H399 C411 0.930 . S
H400 C413 0.930 . S
H401 C414 0.930 . S
H402 C418 0.959 . S
H403 C418 0.959 . S
H404 C418 0.961 . S
H405 C419 0.960 . S
H406 C419 0.961 . S
H407 C419 0.959 . S
H408 C422 0.929 . S
H409 C423 0.931 . S
H410 C425 0.930 . S
C411 H399 0.930 . S
C411 C412 1.399 . S
C411 C416 1.399 . S
C412 C411 1.399 . S
C412 C413 1.376 . S
C413 H400 0.930 . S
C413 C412 1.376 . S
C413 C414 1.388 . S
C414 H401 0.930 . S
C414 C413 1.388 . S
C414 C415 1.390 . S
C415 C414 1.390 . S
C415 C416 1.394 . S
C415 C421 1.465 . S
C416 C411 1.399 . S
C416 C415 1.394 . S
C416 C417 1.516 . S
C417 C416 1.516 . S
C417 C418 1.502 . S
C417 C419 1.561 . S
C417 C420 1.526 . S
C418 H402 0.959 . S
C418 H403 0.959 . S
C418 H404 0.961 . S
C418 C417 1.502 . S
C419 H405 0.960 . S
C419 H406 0.961 . S
C419 H407 0.959 . S
C419 C417 1.561 . S
C420 C417 1.526 . S
C420 C421 1.396 . S
C420 C425 1.390 . S
C421 C415 1.465 . S
C421 C420 1.396 . S
C421 C422 1.399 . S
C422 H408 0.929 . S
C422 C421 1.399 . S
C422 C423 1.385 . S
C423 H409 0.931 . S
C423 C422 1.385 . S
C423 C424 1.389 . S
C424 C423 1.389 . S
C424 C425 1.387 . S
C425 H410 0.930 . S
C425 C420 1.390 . S
C425 C424 1.387 . S
H426 C438 0.930 . S
H427 C440 0.930 . S
H428 C441 0.930 . S
H429 C445 0.959 . S
H430 C445 0.959 . S
H431 C445 0.961 . S
H432 C446 0.960 . S
H433 C446 0.961 . S
H434 C446 0.959 . S
H435 C449 0.929 . S
H436 C450 0.931 . S
H437 C452 0.930 . S
C438 H426 0.930 . S
C438 C439 1.399 . S
C438 C443 1.399 . S
C439 C438 1.399 . S
C439 C440 1.376 . S
C440 H427 0.930 . S
C440 C439 1.376 . S
C440 C441 1.388 . S
C441 H428 0.930 . S
C441 C440 1.388 . S
C441 C442 1.390 . S
C442 C441 1.390 . S
C442 C443 1.394 . S
C442 C448 1.465 . S
C443 C438 1.399 . S
C443 C442 1.394 . S
C443 C444 1.516 . S
C444 C443 1.516 . S
C444 C445 1.502 . S
C444 C446 1.561 . S
C444 C447 1.526 . S
C445 H429 0.959 . S
C445 H430 0.959 . S
C445 H431 0.961 . S
C445 C444 1.502 . S
C446 H432 0.960 . S
C446 H433 0.961 . S
C446 H434 0.959 . S
C446 C444 1.561 . S
C447 C444 1.526 . S
C447 C448 1.396 . S
C447 C452 1.390 . S
C448 C442 1.465 . S
C448 C447 1.396 . S
C448 C449 1.399 . S
C449 H435 0.929 . S
C449 C448 1.399 . S
C449 C450 1.385 . S
C450 H436 0.931 . S
C450 C449 1.385 . S
C450 C451 1.389 . S
C451 C450 1.389 . S
C451 C452 1.387 . S
C452 H437 0.930 . S
C452 C447 1.390 . S
C452 C451 1.387 . S
H453 C465 0.930 . S
H454 C467 0.930 . S
H455 C468 0.930 . S
H456 C472 0.959 . S
H457 C472 0.959 . S
H458 C472 0.961 . S
H459 C473 0.960 . S
H460 C473 0.961 . S
H461 C473 0.959 . S
H462 C476 0.929 . S
H463 C477 0.931 1_455 S
H464 C479 0.930 . S
C465 H453 0.930 . S
C465 C466 1.399 . S
C465 C470 1.399 . S
C466 C465 1.399 . S
C466 C467 1.376 . S
C467 H454 0.930 . S
C467 C466 1.376 . S
C467 C468 1.388 . S
C468 H455 0.930 . S
C468 C467 1.388 . S
C468 C469 1.390 . S
C469 C468 1.390 . S
C469 C470 1.394 . S
C469 C475 1.465 . S
C470 C465 1.399 . S
C470 C469 1.394 . S
C470 C471 1.516 . S
C471 C470 1.516 . S
C471 C472 1.502 . S
C471 C473 1.561 . S
C471 C474 1.526 . S
C472 H456 0.959 . S
C472 H457 0.959 . S
C472 H458 0.961 . S
C472 C471 1.502 . S
C473 H459 0.960 . S
C473 H460 0.961 . S
C473 H461 0.959 . S
C473 C471 1.561 . S
C474 C471 1.526 . S
C474 C475 1.396 . S
C474 C479 1.390 . S
C475 C469 1.465 . S
C475 C474 1.396 . S
C475 C476 1.399 . S
C476 H462 0.929 . S
C476 C475 1.399 . S
C476 C477 1.385 . S
C477 H463 0.931 1_655 S
C477 C476 1.385 . S
C477 C478 1.381 1_655 S
C478 C477 1.381 1_455 S
C478 C479 1.373 1_455 S
C479 H464 0.930 . S
C479 C474 1.390 . S
C479 C478 1.373 1_655 S
H480 C492 0.930 . S
H481 C494 0.930 . S
H482 C495 0.930 . S
H483 C499 0.959 . S
H484 C499 0.959 . S
H485 C499 0.961 . S
H486 C500 0.960 . S
H487 C500 0.961 . S
H488 C500 0.959 . S
H489 C503 0.929 . S
H490 C504 0.931 . S
H491 C506 0.930 . S
C492 H480 0.930 . S
C492 C493 1.399 . S
C492 C497 1.399 . S
C493 C492 1.399 . S
C493 C494 1.376 . S
C494 H481 0.930 . S
C494 C493 1.376 . S
C494 C495 1.388 . S
C495 H482 0.930 . S
C495 C494 1.388 . S
C495 C496 1.390 . S
C496 C495 1.390 . S
C496 C497 1.394 . S
C496 C502 1.465 . S
C497 C492 1.399 . S
C497 C496 1.394 . S
C497 C498 1.516 . S
C498 C497 1.516 . S
C498 C499 1.502 . S
C498 C500 1.561 1_455 S
C498 C501 1.526 . S
C499 H483 0.959 . S
C499 H484 0.959 . S
C499 H485 0.961 . S
C499 C498 1.502 . S
C500 H486 0.960 . S
C500 H487 0.961 . S
C500 H488 0.959 . S
C500 C498 1.561 1_655 S
C501 C498 1.526 . S
C501 C502 1.396 . S
C501 C506 1.390 . S
C502 C496 1.465 . S
C502 C501 1.396 . S
C502 C503 1.399 . S
C503 H489 0.929 . S
C503 C502 1.399 . S
C503 C504 1.385 . S
C504 H490 0.931 . S
C504 C503 1.385 . S
C504 C505 1.389 . S
C505 C504 1.389 . S
C505 C506 1.387 . S
C506 H491 0.930 . S
C506 C501 1.390 . S
C506 C505 1.387 . S
H507 C519 0.930 . S
H508 C521 0.930 . S
H509 C522 0.930 . S
H510 C526 0.959 . S
H511 C526 0.959 . S
H512 C526 0.961 . S
H513 C527 0.960 . S
H514 C527 0.961 . S
H515 C527 0.959 . S
H516 C530 0.929 . S
H517 C531 0.931 1_455 S
H518 C533 0.930 . S
C519 H507 0.930 . S
C519 C520 1.399 . S
C519 C524 1.399 . S
C520 C519 1.399 . S
C520 C521 1.376 . S
C521 H508 0.930 . S
C521 C520 1.376 . S
C521 C522 1.388 . S
C522 H509 0.930 . S
C522 C521 1.388 . S
C522 C523 1.390 . S
C523 C522 1.390 . S
C523 C524 1.394 . S
C523 C529 1.465 . S
C524 C519 1.399 . S
C524 C523 1.394 . S
C524 C525 1.516 . S
C525 C524 1.516 . S
C525 C526 1.502 . S
C525 C527 1.561 . S
C525 C528 1.526 . S
C526 H510 0.959 . S
C526 H511 0.959 . S
C526 H512 0.961 . S
C526 C525 1.502 . S
C527 H513 0.960 . S
C527 H514 0.961 . S
C527 H515 0.959 . S
C527 C525 1.561 . S
C528 C525 1.526 . S
C528 C529 1.396 . S
C528 C533 1.390 . S
C529 C523 1.465 . S
C529 C528 1.396 . S
C529 C530 1.399 . S
C530 H516 0.929 . S
C530 C529 1.399 . S
C530 C531 1.385 . S
C531 H517 0.931 1_655 S
C531 C530 1.385 . S
C531 C532 1.389 1_655 S
C532 C531 1.389 1_455 S
C532 C533 1.387 1_455 S
C533 H518 0.930 . S
C533 C528 1.390 . S
C533 C532 1.387 1_655 S
H534 C546 0.930 . S
H535 C548 0.930 . S
H536 C549 0.930 . S
H537 C553 0.959 . S
H538 C553 0.959 . S
H539 C553 0.961 . S
H540 C554 0.960 . S
H541 C554 0.961 . S
H542 C554 0.959 . S
H543 C557 0.929 . S
H544 C558 0.931 . S
H545 C560 0.930 . S
C546 H534 0.930 . S
C546 C547 1.399 . S
C546 C551 1.399 . S
C547 C546 1.399 . S
C547 C548 1.376 . S
C548 H535 0.930 . S
C548 C547 1.376 . S
C548 C549 1.388 . S
C549 H536 0.930 . S
C549 C548 1.388 . S
C549 C550 1.390 . S
C550 C549 1.390 . S
C550 C551 1.394 . S
C550 C556 1.465 . S
C551 C546 1.399 . S
C551 C550 1.394 . S
C551 C552 1.516 . S
C552 C551 1.516 . S
C552 C553 1.502 . S
C552 C554 1.561 . S
C552 C555 1.526 . S
C553 H537 0.959 . S
C553 H538 0.959 . S
C553 H539 0.961 . S
C553 C552 1.502 . S
C554 H540 0.960 . S
C554 H541 0.961 . S
C554 H542 0.959 . S
C554 C552 1.561 . S
C555 C552 1.526 . S
C555 C556 1.396 . S
C555 C560 1.390 . S
C556 C550 1.465 . S
C556 C555 1.396 . S
C556 C557 1.399 . S
C557 H543 0.929 . S
C557 C556 1.399 . S
C557 C558 1.385 . S
C558 H544 0.931 . S
C558 C557 1.385 . S
C558 C559 1.389 . S
C559 C558 1.389 . S
C559 C560 1.387 . S
C560 H545 0.930 . S
C560 C555 1.390 . S
C560 C559 1.387 . S
H561 C573 0.930 . S
H562 C575 0.930 . S
H563 C576 0.930 . S
H564 C580 0.959 . S
H565 C580 0.959 . S
H566 C580 0.961 . S
H567 C581 0.960 . S
H568 C581 0.961 . S
H569 C581 0.959 . S
H570 C584 0.929 . S
H571 C585 0.931 . S
H572 C587 0.930 . S
C573 H561 0.930 . S
C573 C574 1.399 . S
C573 C578 1.399 . S
C574 C573 1.399 . S
C574 C575 1.376 . S
C575 H562 0.930 . S
C575 C574 1.376 . S
C575 C576 1.388 . S
C576 H563 0.930 . S
C576 C575 1.388 . S
C576 C577 1.390 . S
C577 C576 1.390 . S
C577 C578 1.394 . S
C577 C583 1.465 . S
C578 C573 1.399 . S
C578 C577 1.394 . S
C578 C579 1.516 . S
C579 C578 1.516 . S
C579 C580 1.502 . S
C579 C581 1.561 . S
C579 C582 1.526 . S
C580 H564 0.959 . S
C580 H565 0.959 . S
C580 H566 0.961 . S
C580 C579 1.502 . S
C581 H567 0.960 . S
C581 H568 0.961 . S
C581 H569 0.959 . S
C581 C579 1.561 . S
C582 C579 1.526 . S
C582 C583 1.396 . S
C582 C587 1.390 . S
C583 C577 1.465 . S
C583 C582 1.396 . S
C583 C584 1.399 . S
C584 H570 0.929 . S
C584 C583 1.399 . S
C584 C585 1.385 . S
C585 H571 0.931 . S
C585 C584 1.385 . S
C585 C586 1.389 . S
C586 C585 1.389 . S
C586 C587 1.387 . S
C587 H572 0.930 . S
C587 C582 1.390 . S
C587 C586 1.387 . S
H588 C600 0.930 . S
H589 C602 0.930 . S
H590 C603 0.930 . S
H591 C607 0.959 . S
H592 C607 0.959 . S
H593 C607 0.961 . S
H594 C608 0.960 . S
H595 C608 0.961 . S
H596 C608 0.959 . S
H597 C611 0.929 . S
H598 C612 0.931 . S
H599 C614 0.930 . S
C600 H588 0.930 . S
C600 C601 1.399 . S
C600 C605 1.399 . S
C601 C600 1.399 . S
C601 C602 1.376 . S
C602 H589 0.930 . S
C602 C601 1.376 . S
C602 C603 1.388 . S
C603 H590 0.930 . S
C603 C602 1.388 . S
C603 C604 1.390 . S
C604 C603 1.390 . S
C604 C605 1.394 . S
C604 C610 1.465 . S
C605 C600 1.399 . S
C605 C604 1.394 . S
C605 C606 1.516 . S
C606 C605 1.516 . S
C606 C607 1.502 . S
C606 C608 1.561 . S
C606 C609 1.526 . S
C607 H591 0.959 . S
C607 H592 0.959 . S
C607 H593 0.961 . S
C607 C606 1.502 . S
C608 H594 0.960 . S
C608 H595 0.961 . S
C608 H596 0.959 . S
C608 C606 1.561 . S
C609 C606 1.526 . S
C609 C610 1.396 . S
C609 C614 1.390 . S
C610 C604 1.465 . S
C610 C609 1.396 . S
C610 C611 1.399 . S
C611 H597 0.929 . S
C611 C610 1.399 . S
C611 C612 1.385 . S
C612 H598 0.931 . S
C612 C611 1.385 . S
C612 C613 1.389 . S
C613 C612 1.389 . S
C613 C614 1.387 . S
C614 H599 0.930 . S
C614 C609 1.390 . S
C614 C613 1.387 . S
H615 C627 0.930 . S
H616 C629 0.930 . S
H617 C630 0.930 . S
H618 C634 0.959 . S
H619 C634 0.959 . S
H620 C634 0.961 . S
H621 C635 0.960 . S
H622 C635 0.961 . S
H623 C635 0.959 . S
H624 C638 0.929 . S
H625 C639 0.931 . S
H626 C641 0.930 . S
C627 H615 0.930 . S
C627 C628 1.399 . S
C627 C632 1.399 . S
C628 C627 1.399 . S
C628 C629 1.376 . S
C629 H616 0.930 . S
C629 C628 1.376 . S
C629 C630 1.388 . S
C630 H617 0.930 . S
C630 C629 1.388 . S
C630 C631 1.390 . S
C631 C630 1.390 . S
C631 C632 1.394 . S
C631 C637 1.465 . S
C632 C627 1.399 . S
C632 C631 1.394 . S
C632 C633 1.516 . S
C633 C632 1.516 . S
C633 C634 1.502 . S
C633 C635 1.561 . S
C633 C636 1.526 . S
C634 H618 0.959 . S
C634 H619 0.959 . S
C634 H620 0.961 . S
C634 C633 1.502 . S
C635 H621 0.960 . S
C635 H622 0.961 . S
C635 H623 0.959 . S
C635 C633 1.561 . S
C636 C633 1.526 . S
C636 C637 1.396 . S
C636 C641 1.390 . S
C637 C631 1.465 . S
C637 C636 1.396 . S
C637 C638 1.399 . S
C638 H624 0.929 . S
C638 C637 1.399 . S
C638 C639 1.385 . S
C639 H625 0.931 . S
C639 C638 1.385 . S
C639 C640 1.389 . S
C640 C639 1.389 . S
C640 C641 1.387 . S
C641 H626 0.930 . S
C641 C636 1.390 . S
C641 C640 1.387 . S
H642 C654 0.930 . S
H643 C656 0.930 . S
H644 C657 0.930 . S
H645 C661 0.959 . S
H646 C661 0.959 . S
H647 C661 0.961 . S
H648 C662 0.960 . S
H649 C662 0.961 . S
H650 C662 0.959 . S
H651 C665 0.929 . S
H652 C666 0.931 . S
H653 C668 0.930 . S
C654 H642 0.930 . S
C654 C655 1.399 . S
C654 C659 1.399 . S
C655 C654 1.399 . S
C655 C656 1.376 . S
C656 H643 0.930 . S
C656 C655 1.376 . S
C656 C657 1.388 . S
C657 H644 0.930 . S
C657 C656 1.388 . S
C657 C658 1.390 . S
C658 C657 1.390 . S
C658 C659 1.394 . S
C658 C664 1.465 . S
C659 C654 1.399 . S
C659 C658 1.394 . S
C659 C660 1.516 . S
C660 C659 1.516 . S
C660 C661 1.502 . S
C660 C662 1.561 . S
C660 C663 1.526 . S
C661 H645 0.959 . S
C661 H646 0.959 . S
C661 H647 0.961 . S
C661 C660 1.502 . S
C662 H648 0.960 . S
C662 H649 0.961 . S
C662 H650 0.959 . S
C662 C660 1.561 . S
C663 C660 1.526 . S
C663 C664 1.396 . S
C663 C668 1.390 . S
C664 C658 1.465 . S
C664 C663 1.396 . S
C664 C665 1.399 . S
C665 H651 0.929 . S
C665 C664 1.399 . S
C665 C666 1.385 . S
C666 H652 0.931 . S
C666 C665 1.385 . S
C666 C667 1.389 . S
C667 C666 1.389 . S
C667 C668 1.387 . S
C668 H653 0.930 . S
C668 C663 1.390 . S
C668 C667 1.387 . S
H669 C681 0.930 . S
H670 C683 0.930 . S
H671 C684 0.930 . S
H672 C688 0.959 . S
H673 C688 0.959 . S
H674 C688 0.961 . S
H675 C689 0.960 . S
H676 C689 0.961 . S
H677 C689 0.959 . S
H678 C692 0.929 . S
H679 C693 0.931 . S
H680 C695 0.930 . S
C681 H669 0.930 . S
C681 C682 1.399 . S
C681 C686 1.399 . S
C682 C681 1.399 . S
C682 C683 1.376 . S
C683 H670 0.930 . S
C683 C682 1.376 . S
C683 C684 1.388 . S
C684 H671 0.930 . S
C684 C683 1.388 . S
C684 C685 1.390 . S
C685 C684 1.390 . S
C685 C686 1.394 . S
C685 C691 1.465 . S
C686 C681 1.399 . S
C686 C685 1.394 . S
C686 C687 1.516 . S
C687 C686 1.516 . S
C687 C688 1.502 . S
C687 C689 1.561 . S
C687 C690 1.526 . S
C688 H672 0.959 . S
C688 H673 0.959 . S
C688 H674 0.961 . S
C688 C687 1.502 . S
C689 H675 0.960 . S
C689 H676 0.961 . S
C689 H677 0.959 . S
C689 C687 1.561 . S
C690 C687 1.526 . S
C690 C691 1.396 . S
C690 C695 1.390 . S
C691 C685 1.465 . S
C691 C690 1.396 . S
C691 C692 1.399 . S
C692 H678 0.929 . S
C692 C691 1.399 . S
C692 C693 1.385 . S
C693 H679 0.931 . S
C693 C692 1.385 . S
C693 C694 1.389 . S
C694 C693 1.389 . S
C694 C695 1.387 . S
C695 H680 0.930 . S
C695 C690 1.390 . S
C695 C694 1.387 . S
H696 C708 0.930 . S
H697 C710 0.930 . S
H698 C711 0.930 . S
H699 C715 0.959 . S
H700 C715 0.959 1_545 S
H701 C715 0.961 . S
H702 C716 0.960 1_565 S
H703 C716 0.961 . S
H704 C716 0.959 . S
H705 C719 0.929 . S
H706 C720 0.931 . S
H707 C722 0.930 . S
C708 H696 0.930 . S
C708 C709 1.399 . S
C708 C713 1.399 . S
C709 C708 1.399 . S
C709 C710 1.376 . S
C710 H697 0.930 . S
C710 C709 1.376 . S
C710 C711 1.388 . S
C711 H698 0.930 . S
C711 C710 1.388 . S
C711 C712 1.390 1_565 S
C712 C711 1.390 1_545 S
C712 C713 1.394 1_545 S
C712 C718 1.465 . S
C713 C708 1.399 . S
C713 C712 1.394 1_565 S
C713 C714 1.516 1_565 S
C714 C713 1.516 1_545 S
C714 C715 1.502 1_545 S
C714 C716 1.561 . S
C714 C717 1.526 . S
C715 H699 0.959 . S
C715 H700 0.959 1_565 S
C715 H701 0.961 . S
C715 C714 1.502 1_565 S
C716 H702 0.960 1_545 S
C716 H703 0.961 . S
C716 H704 0.959 . S
C716 C714 1.561 . S
C717 C714 1.526 . S
C717 C718 1.396 . S
C717 C722 1.390 . S
C718 C712 1.465 . S
C718 C717 1.396 . S
C718 C719 1.399 . S
C719 H705 0.929 . S
C719 C718 1.399 . S
C719 C720 1.385 . S
C720 H706 0.931 . S
C720 C719 1.385 . S
C720 C721 1.389 . S
C721 C720 1.389 . S
C721 C722 1.387 . S
C722 H707 0.930 . S
C722 C717 1.390 . S
C722 C721 1.387 . S
H723 C735 0.930 . S
H724 C737 0.930 . S
H725 C738 0.930 . S
H726 C742 0.959 . S
H727 C742 0.959 . S
H728 C742 0.961 1_545 S
H729 C743 0.960 1_545 S
H730 C743 0.961 . S
H731 C743 0.959 . S
H732 C746 0.929 . S
H733 C747 0.931 . S
H734 C749 0.930 . S
C735 H723 0.930 . S
C735 C736 1.399 . S
C735 C740 1.399 . S
C736 C735 1.399 . S
C736 C737 1.376 . S
C737 H724 0.930 . S
C737 C736 1.376 . S
C737 C738 1.388 1_545 S
C738 H725 0.930 . S
C738 C737 1.388 1_565 S
C738 C739 1.390 . S
C739 C738 1.390 . S
C739 C740 1.394 1_565 S
C739 C745 1.465 . S
C740 C735 1.399 . S
C740 C739 1.394 1_545 S
C740 C741 1.516 1_545 S
C741 C740 1.516 1_565 S
C741 C742 1.502 . S
C741 C743 1.561 . S
C741 C744 1.526 . S
C742 H726 0.959 . S
C742 H727 0.959 . S
C742 H728 0.961 1_565 S
C742 C741 1.502 . S
C743 H729 0.960 1_565 S
C743 H730 0.961 . S
C743 H731 0.959 . S
C743 C741 1.561 . S
C744 C741 1.526 . S
C744 C745 1.396 . S
C744 C749 1.390 . S
C745 C739 1.465 . S
C745 C744 1.396 . S
C745 C746 1.399 . S
C746 H732 0.929 . S
C746 C745 1.399 . S
C746 C747 1.385 . S
C747 H733 0.931 . S
C747 C746 1.385 . S
C747 C748 1.389 . S
C748 C747 1.389 . S
C748 C749 1.387 . S
C749 H734 0.930 . S
C749 C744 1.390 . S
C749 C748 1.387 . S
H750 C762 0.930 . S
H751 C764 0.930 . S
H752 C765 0.930 . S
H753 C769 0.959 . S
H754 C769 0.959 . S
H755 C769 0.961 . S
H756 C770 0.960 . S
H757 C770 0.961 . S
H758 C770 0.959 . S
H759 C773 0.929 . S
H760 C774 0.931 . S
H761 C776 0.930 . S
C762 H750 0.930 . S
C762 C763 1.399 . S
C762 C767 1.399 1_545 S
C763 C762 1.399 . S
C763 C764 1.376 . S
C764 H751 0.930 . S
C764 C763 1.376 . S
C764 C765 1.388 . S
C765 H752 0.930 . S
C765 C764 1.388 . S
C765 C766 1.390 1_545 S
C766 C765 1.390 1_565 S
C766 C767 1.394 . S
C766 C772 1.465 . S
C767 C762 1.399 1_565 S
C767 C766 1.394 . S
C767 C768 1.516 . S
C768 C767 1.516 . S
C768 C769 1.502 . S
C768 C770 1.561 . S
C768 C771 1.526 . S
C769 H753 0.959 . S
C769 H754 0.959 . S
C769 H755 0.961 . S
C769 C768 1.502 . S
C770 H756 0.960 . S
C770 H757 0.961 . S
C770 H758 0.959 . S
C770 C768 1.561 . S
C771 C768 1.526 . S
C771 C772 1.396 . S
C771 C776 1.390 . S
C772 C766 1.465 . S
C772 C771 1.396 . S
C772 C773 1.399 . S
C773 H759 0.929 . S
C773 C772 1.399 . S
C773 C774 1.385 . S
C774 H760 0.931 . S
C774 C773 1.385 . S
C774 C775 1.389 . S
C775 C774 1.389 . S
C775 C776 1.387 . S
C776 H761 0.930 . S
C776 C771 1.390 . S
C776 C775 1.387 . S
H777 C789 0.930 . S
H778 C791 0.930 . S
H779 C792 0.930 1_545 S
H780 C796 0.959 . S
H781 C796 0.959 1_545 S
H782 C796 0.961 . S
H783 C797 0.960 1_565 S
H784 C797 0.961 . S
H785 C797 0.959 . S
H786 C800 0.929 . S
H787 C801 0.931 . S
H788 C803 0.930 . S
C789 H777 0.930 . S
C789 C790 1.399 . S
C789 C794 1.399 . S
C790 C789 1.399 . S
C790 C791 1.376 . S
C791 H778 0.930 . S
C791 C790 1.376 . S
C791 C792 1.388 . S
C792 H779 0.930 1_565 S
C792 C791 1.388 . S
C792 C793 1.390 1_565 S
C793 C792 1.390 1_545 S
C793 C794 1.394 1_545 S
C793 C799 1.465 . S
C794 C789 1.399 . S
C794 C793 1.394 1_565 S
C794 C795 1.516 1_565 S
C795 C794 1.516 1_545 S
C795 C796 1.502 1_545 S
C795 C797 1.561 . S
C795 C798 1.526 . S
C796 H780 0.959 . S
C796 H781 0.959 1_565 S
C796 H782 0.961 . S
C796 C795 1.502 1_565 S
C797 H783 0.960 1_545 S
C797 H784 0.961 . S
C797 H785 0.959 . S
C797 C795 1.561 . S
C798 C795 1.526 . S
C798 C799 1.396 . S
C798 C803 1.390 . S
C799 C793 1.465 . S
C799 C798 1.396 . S
C799 C800 1.399 . S
C800 H786 0.929 . S
C800 C799 1.399 . S
C800 C801 1.385 . S
C801 H787 0.931 . S
C801 C800 1.385 . S
C801 C802 1.389 . S
C802 C801 1.389 . S
C802 C803 1.387 . S
C803 H788 0.930 . S
C803 C798 1.390 . S
C803 C802 1.387 . S
H804 C816 0.930 . S
H805 C818 0.930 . S
H806 C819 0.930 . S
H807 C823 0.959 . S
H808 C823 0.959 . S
H809 C823 0.961 . S
H810 C824 0.960 . S
H811 C824 0.961 . S
H812 C824 0.959 . S
H813 C827 0.929 . S
H814 C828 0.931 . S
H815 C830 0.930 . S
C816 H804 0.930 . S
C816 C817 1.399 . S
C816 C821 1.399 . S
C817 C816 1.399 . S
C817 C818 1.376 . S
C818 H805 0.930 . S
C818 C817 1.376 . S
C818 C819 1.388 . S
C819 H806 0.930 . S
C819 C818 1.388 . S
C819 C820 1.390 . S
C820 C819 1.390 . S
C820 C821 1.394 . S
C820 C826 1.465 . S
C821 C816 1.399 . S
C821 C820 1.394 . S
C821 C822 1.516 . S
C822 C821 1.516 . S
C822 C823 1.502 . S
C822 C824 1.561 . S
C822 C825 1.526 . S
C823 H807 0.959 . S
C823 H808 0.959 . S
C823 H809 0.961 . S
C823 C822 1.502 . S
C824 H810 0.960 . S
C824 H811 0.961 . S
C824 H812 0.959 . S
C824 C822 1.561 . S
C825 C822 1.526 . S
C825 C826 1.396 . S
C825 C830 1.390 . S
C826 C820 1.465 . S
C826 C825 1.396 . S
C826 C827 1.399 . S
C827 H813 0.929 . S
C827 C826 1.399 . S
C827 C828 1.385 . S
C828 H814 0.931 . S
C828 C827 1.385 . S
C828 C829 1.389 . S
C829 C828 1.389 . S
C829 C830 1.387 . S
C830 H815 0.930 . S
C830 C825 1.390 . S
C830 C829 1.387 . S
H831 C843 0.930 . S
H832 C845 0.930 . S
H833 C846 0.930 . S
H834 C850 0.959 . S
H835 C850 0.959 . S
H836 C850 0.961 . S
H837 C851 0.960 . S
H838 C851 0.961 . S
H839 C851 0.959 . S
H840 C854 0.929 . S
H841 C855 0.931 . S
H842 C857 0.930 . S
C843 H831 0.930 . S
C843 C844 1.399 . S
C843 C848 1.399 . S
C844 C843 1.399 . S
C844 C845 1.376 . S
C845 H832 0.930 . S
C845 C844 1.376 . S
C845 C846 1.388 . S
C846 H833 0.930 . S
C846 C845 1.388 . S
C846 C847 1.390 . S
C847 C846 1.390 . S
C847 C848 1.394 . S
C847 C853 1.465 . S
C848 C843 1.399 . S
C848 C847 1.394 . S
C848 C849 1.516 . S
C849 C848 1.516 . S
C849 C850 1.502 . S
C849 C851 1.561 . S
C849 C852 1.526 . S
C850 H834 0.959 . S
C850 H835 0.959 . S
C850 H836 0.961 . S
C850 C849 1.502 . S
C851 H837 0.960 . S
C851 H838 0.961 . S
C851 H839 0.959 . S
C851 C849 1.561 . S
C852 C849 1.526 . S
C852 C853 1.396 . S
C852 C857 1.390 . S
C853 C847 1.465 . S
C853 C852 1.396 . S
C853 C854 1.399 . S
C854 H840 0.929 . S
C854 C853 1.399 . S
C854 C855 1.385 . S
C855 H841 0.931 . S
C855 C854 1.385 . S
C855 C856 1.389 . S
C856 C855 1.389 . S
C856 C857 1.387 . S
C857 H842 0.930 . S
C857 C852 1.390 . S
C857 C856 1.387 . S
H858 C870 0.930 . S
H859 C872 0.930 . S
H860 C873 0.930 . S
H861 C877 0.959 . S
H862 C877 0.959 . S
H863 C877 0.961 . S
H864 C878 0.960 . S
H865 C878 0.961 . S
H866 C878 0.959 . S
H867 C881 0.929 . S
H868 C882 0.931 . S
H869 C884 0.930 . S
C870 H858 0.930 . S
C870 C871 1.399 . S
C870 C875 1.399 . S
C871 C870 1.399 . S
C871 C872 1.376 . S
C872 H859 0.930 . S
C872 C871 1.376 . S
C872 C873 1.388 . S
C873 H860 0.930 . S
C873 C872 1.388 . S
C873 C874 1.390 . S
C874 C873 1.390 . S
C874 C875 1.394 . S
C874 C880 1.465 . S
C875 C870 1.399 . S
C875 C874 1.394 . S
C875 C876 1.516 . S
C876 C875 1.516 . S
C876 C877 1.502 . S
C876 C878 1.561 . S
C876 C879 1.526 . S
C877 H861 0.959 . S
C877 H862 0.959 . S
C877 H863 0.961 . S
C877 C876 1.502 . S
C878 H864 0.960 . S
C878 H865 0.961 . S
C878 H866 0.959 . S
C878 C876 1.561 . S
C879 C876 1.526 . S
C879 C880 1.396 . S
C879 C884 1.390 . S
C880 C874 1.465 . S
C880 C879 1.396 . S
C880 C881 1.399 . S
C881 H867 0.929 . S
C881 C880 1.399 . S
C881 C882 1.385 . S
C882 H868 0.931 . S
C882 C881 1.385 . S
C882 C883 1.389 . S
C883 C882 1.389 . S
C883 C884 1.387 . S
C884 H869 0.930 . S
C884 C879 1.390 . S
C884 C883 1.387 . S
H885 C897 0.930 . S
H886 C899 0.930 . S
H887 C900 0.930 . S
H888 C904 0.959 . S
H889 C904 0.959 . S
H890 C904 0.961 . S
H891 C905 0.960 . S
H892 C905 0.961 . S
H893 C905 0.959 . S
H894 C908 0.929 . S
H895 C909 0.931 . S
H896 C911 0.930 . S
C897 H885 0.930 . S
C897 C898 1.399 . S
C897 C902 1.399 . S
C898 C897 1.399 . S
C898 C899 1.376 . S
C899 H886 0.930 . S
C899 C898 1.376 . S
C899 C900 1.388 . S
C900 H887 0.930 . S
C900 C899 1.388 . S
C900 C901 1.390 . S
C901 C900 1.390 . S
C901 C902 1.394 . S
C901 C907 1.465 . S
C902 C897 1.399 . S
C902 C901 1.394 . S
C902 C903 1.516 . S
C903 C902 1.516 . S
C903 C904 1.502 . S
C903 C905 1.561 . S
C903 C906 1.526 . S
C904 H888 0.959 . S
C904 H889 0.959 . S
C904 H890 0.961 . S
C904 C903 1.502 . S
C905 H891 0.960 . S
C905 H892 0.961 . S
C905 H893 0.959 . S
C905 C903 1.561 . S
C906 C903 1.526 . S
C906 C907 1.396 . S
C906 C911 1.390 . S
C907 C901 1.465 . S
C907 C906 1.396 . S
C907 C908 1.399 . S
C908 H894 0.929 . S
C908 C907 1.399 . S
C908 C909 1.385 . S
C909 H895 0.931 . S
C909 C908 1.385 . S
C909 C910 1.389 . S
C910 C909 1.389 . S
C910 C911 1.387 . S
C911 H896 0.930 . S
C911 C906 1.390 . S
C911 C910 1.387 . S
H912 C924 0.930 . S
H913 C926 0.930 . S
H914 C927 0.930 . S
H915 C931 0.959 . S
H916 C931 0.959 . S
H917 C931 0.961 . S
H918 C932 0.960 . S
H919 C932 0.961 . S
H920 C932 0.959 . S
H921 C935 0.929 . S
H922 C936 0.931 . S
H923 C938 0.930 . S
C924 H912 0.930 . S
C924 C925 1.399 . S
C924 C929 1.399 . S
C925 C924 1.399 . S
C925 C926 1.376 . S
C926 H913 0.930 . S
C926 C925 1.376 . S
C926 C927 1.388 . S
C927 H914 0.930 . S
C927 C926 1.388 . S
C927 C928 1.390 . S
C928 C927 1.390 . S
C928 C929 1.394 . S
C928 C934 1.465 . S
C929 C924 1.399 . S
C929 C928 1.394 . S
C929 C930 1.516 . S
C930 C929 1.516 . S
C930 C931 1.502 . S
C930 C932 1.561 . S
C930 C933 1.526 . S
C931 H915 0.959 . S
C931 H916 0.959 . S
C931 H917 0.961 . S
C931 C930 1.502 . S
C932 H918 0.960 . S
C932 H919 0.961 . S
C932 H920 0.959 . S
C932 C930 1.561 . S
C933 C930 1.526 . S
C933 C934 1.396 . S
C933 C938 1.390 . S
C934 C928 1.465 . S
C934 C933 1.396 . S
C934 C935 1.399 . S
C935 H921 0.929 . S
C935 C934 1.399 . S
C935 C936 1.385 . S
C936 H922 0.931 . S
C936 C935 1.385 . S
C936 C937 1.389 . S
C937 C936 1.389 . S
C937 C938 1.387 . S
C938 H923 0.930 . S
C938 C933 1.390 . S
C938 C937 1.387 . S
H939 C951 0.930 . S
H940 C953 0.930 . S
H941 C954 0.930 . S
H942 C958 0.959 . S
H943 C958 0.959 . S
H944 C958 0.961 . S
H945 C959 0.960 . S
H946 C959 0.961 . S
H947 C959 0.959 . S
H948 C962 0.929 . S
H949 C963 0.931 . S
H950 C965 0.930 . S
C951 H939 0.930 . S
C951 C952 1.399 . S
C951 C956 1.399 . S
C952 C951 1.399 . S
C952 C953 1.376 . S
C953 H940 0.930 . S
C953 C952 1.376 . S
C953 C954 1.388 . S
C954 H941 0.930 . S
C954 C953 1.388 . S
C954 C955 1.390 . S
C955 C954 1.390 . S
C955 C956 1.394 . S
C955 C961 1.465 . S
C956 C951 1.399 . S
C956 C955 1.394 . S
C956 C957 1.516 . S
C957 C956 1.516 . S
C957 C958 1.502 . S
C957 C959 1.561 . S
C957 C960 1.526 . S
C958 H942 0.959 . S
C958 H943 0.959 . S
C958 H944 0.961 . S
C958 C957 1.502 . S
C959 H945 0.960 . S
C959 H946 0.961 . S
C959 H947 0.959 . S
C959 C957 1.561 . S
C960 C957 1.526 . S
C960 C961 1.396 . S
C960 C965 1.390 . S
C961 C955 1.465 . S
C961 C960 1.396 . S
C961 C962 1.399 . S
C962 H948 0.929 . S
C962 C961 1.399 . S
C962 C963 1.385 . S
C963 H949 0.931 . S
C963 C962 1.385 . S
C963 C964 1.389 . S
C964 C963 1.389 . S
C964 C965 1.387 . S
C965 H950 0.930 . S
C965 C960 1.390 . S
C965 C964 1.387 . S
H966 C978 0.930 . S
H967 C980 0.930 . S
H968 C981 0.930 . S
H969 C985 0.959 . S
H970 C985 0.959 . S
H971 C985 0.961 . S
H972 C986 0.960 . S
H973 C986 0.961 . S
H974 C986 0.959 . S
H975 C989 0.929 . S
H976 C990 0.931 . S
H977 C992 0.930 . S
C978 H966 0.930 . S
C978 C979 1.399 . S
C978 C983 1.399 . S
C979 C978 1.399 . S
C979 C980 1.376 . S
C980 H967 0.930 . S
C980 C979 1.376 . S
C980 C981 1.388 . S
C981 H968 0.930 . S
C981 C980 1.388 . S
C981 C982 1.390 . S
C982 C981 1.390 . S
C982 C983 1.394 . S
C982 C988 1.465 . S
C983 C978 1.399 . S
C983 C982 1.394 . S
C983 C984 1.516 . S
C984 C983 1.516 . S
C984 C985 1.502 . S
C984 C986 1.561 . S
C984 C987 1.526 . S
C985 H969 0.959 . S
C985 H970 0.959 . S
C985 H971 0.961 . S
C985 C984 1.502 . S
C986 H972 0.960 . S
C986 H973 0.961 . S
C986 H974 0.959 . S
C986 C984 1.561 . S
C987 C984 1.526 . S
C987 C988 1.396 . S
C987 C992 1.390 . S
C988 C982 1.465 . S
C988 C987 1.396 . S
C988 C989 1.399 . S
C989 H975 0.929 . S
C989 C988 1.399 . S
C989 C990 1.385 . S
C990 H976 0.931 . S
C990 C989 1.385 . S
C990 C991 1.389 . S
C991 C990 1.389 . S
C991 C992 1.387 . S
C992 H977 0.930 . S
C992 C987 1.390 . S
C992 C991 1.387 . S
H993 C1005 0.930 . S
H994 C1007 0.930 . S
H995 C1008 0.930 . S
H996 C1012 0.959 . S
H997 C1012 0.959 . S
H998 C1012 0.961 . S
H999 C1013 0.960 . S
H1000 C1013 0.961 . S
H1001 C1013 0.959 . S
H1002 C1016 0.929 . S
H1003 C1017 0.931 . S
H1004 C1019 0.930 . S
C1005 H993 0.930 . S
C1005 C1006 1.399 . S
C1005 C1010 1.399 . S
C1006 C1005 1.399 . S
C1006 C1007 1.376 . S
C1007 H994 0.930 . S
C1007 C1006 1.376 . S
C1007 C1008 1.388 . S
C1008 H995 0.930 . S
C1008 C1007 1.388 . S
C1008 C1009 1.390 . S
C1009 C1008 1.390 . S
C1009 C1010 1.394 . S
C1009 C1015 1.465 . S
C1010 C1005 1.399 . S
C1010 C1009 1.394 . S
C1010 C1011 1.516 . S
C1011 C1010 1.516 . S
C1011 C1012 1.502 . S
C1011 C1013 1.561 . S
C1011 C1014 1.526 . S
C1012 H996 0.959 . S
C1012 H997 0.959 . S
C1012 H998 0.961 . S
C1012 C1011 1.502 . S
C1013 H999 0.960 . S
C1013 H1000 0.961 . S
C1013 H1001 0.959 . S
C1013 C1011 1.561 . S
C1014 C1011 1.526 . S
C1014 C1015 1.396 . S
C1014 C1019 1.390 . S
C1015 C1009 1.465 . S
C1015 C1014 1.396 . S
C1015 C1016 1.399 . S
C1016 H1002 0.929 . S
C1016 C1015 1.399 . S
C1016 C1017 1.385 . S
C1017 H1003 0.931 . S
C1017 C1016 1.385 . S
C1017 C1018 1.389 . S
C1018 C1017 1.389 . S
C1018 C1019 1.387 . S
C1019 H1004 0.930 . S
C1019 C1014 1.390 . S
C1019 C1018 1.387 . S
C397 C295 1.470 . S
C385 C1 1.672 . S
C424 C313 1.248 . S
C412 C61 1.400 . S
C439 C97 1.372 . S
C451 C337 1.262 . S
C478 C367 1.292 . S
C466 C109 1.457 . S
C505 C355 1.320 . S
C493 C145 1.407 . S
C520 C205 1.358 . S
C532 C308 1.374 . S
C547 C241 1.601 . S
C559 C328 1.484 . S
C574 C253 1.450 . S
C586 C333 1.359 . S
C601 C277 1.413 . S
C613 C349 1.255 . S
C628 C181 1.478 . S
C640 C304 1.330 . S
C667 C371 1.264 . S
C655 C133 1.410 . S
C694 C316 1.344 . S
C682 C37 1.447 . S
C709 C73 1.651 . S
C721 C334 1.522 . S
C736 C25 1.379 . S
C748 C292 1.311 . S
C775 C312 1.368 . S
C763 C217 1.421 . S
C802 C358 1.526 . S
C790 C169 1.613 . S
C829 C354 1.287 . S
C817 C31 1.501 1_556 S
C856 C307 1.386 . S
C844 C67 1.452 . S
C871 C103 1.484 . S
C883 C329 1.251 . S
C898 C139 1.425 . S
C910 C350 1.342 . S
C937 C291 1.287 . S
C925 C175 1.466 1_554 S
C952 C211 1.493 . S
C964 C325 1.417 . S
C991 C346 1.322 . S
C979 C247 1.477 . S
C1018 C370 1.330 . S
C1006 C283 1.427 . S
