# Generated by pormake.
# Topology zzz, (3,6)-cn, num edge types: 1
# Building blocks:
#     Node 0, Type 0, BuildingBlock: BELTOD_clean_linker_0, # of connection points: 3
#     Node 1, Type 0, BuildingBlock: BELTOD_clean_linker_0, # of connection points: 3
#     Node 2, Type 0, BuildingBlock: BELTOD_clean_linker_0, # of connection points: 3
#     Node 3, Type 0, BuildingBlock: BELTOD_clean_linker_0, # of connection points: 3
#     Node 4, Type 0, BuildingBlock: BELTOD_clean_linker_0, # of connection points: 3
#     Node 5, Type 0, BuildingBlock: BELTOD_clean_linker_0, # of connection points: 3
#     Node 6, Type 0, BuildingBlock: BELTOD_clean_linker_0, # of connection points: 3
#     Node 7, Type 0, BuildingBlock: BELTOD_clean_linker_0, # of connection points: 3
#     Node 8, Type 1, BuildingBlock: NUHQIS_clean_sbu_0, # of connection points: 6
#     Node 9, Type 1, BuildingBlock: NUHQIS_clean_sbu_0, # of connection points: 6
#     Node 10, Type 1, BuildingBlock: NUHQIS_clean_sbu_0, # of connection points: 6
#     Node 11, Type 1, BuildingBlock: NUHQIS_clean_sbu_0, # of connection points: 6
#     Edge 12, Type (0, 1), BuildingBlock: TEMPAE_clean_linker_10, # of connection points: 2
#     Edge 13, Type (0, 1), BuildingBlock: TEMPAE_clean_linker_10, # of connection points: 2
#     Edge 14, Type (0, 1), BuildingBlock: TEMPAE_clean_linker_10, # of connection points: 2
#     Edge 15, Type (0, 1), BuildingBlock: TEMPAE_clean_linker_10, # of connection points: 2
#     Edge 16, Type (0, 1), BuildingBlock: TEMPAE_clean_linker_10, # of connection points: 2
#     Edge 17, Type (0, 1), BuildingBlock: TEMPAE_clean_linker_10, # of connection points: 2
#     Edge 18, Type (0, 1), BuildingBlock: TEMPAE_clean_linker_10, # of connection points: 2
#     Edge 19, Type (0, 1), BuildingBlock: TEMPAE_clean_linker_10, # of connection points: 2
#     Edge 20, Type (0, 1), BuildingBlock: TEMPAE_clean_linker_10, # of connection points: 2
#     Edge 21, Type (0, 1), BuildingBlock: TEMPAE_clean_linker_10, # of connection points: 2
#     Edge 22, Type (0, 1), BuildingBlock: TEMPAE_clean_linker_10, # of connection points: 2
#     Edge 23, Type (0, 1), BuildingBlock: TEMPAE_clean_linker_10, # of connection points: 2
#     Edge 24, Type (0, 1), BuildingBlock: TEMPAE_clean_linker_10, # of connection points: 2
#     Edge 25, Type (0, 1), BuildingBlock: TEMPAE_clean_linker_10, # of connection points: 2
#     Edge 26, Type (0, 1), BuildingBlock: TEMPAE_clean_linker_10, # of connection points: 2
#     Edge 27, Type (0, 1), BuildingBlock: TEMPAE_clean_linker_10, # of connection points: 2
#     Edge 28, Type (0, 1), BuildingBlock: TEMPAE_clean_linker_10, # of connection points: 2
#     Edge 29, Type (0, 1), BuildingBlock: TEMPAE_clean_linker_10, # of connection points: 2
#     Edge 30, Type (0, 1), BuildingBlock: TEMPAE_clean_linker_10, # of connection points: 2
#     Edge 31, Type (0, 1), BuildingBlock: TEMPAE_clean_linker_10, # of connection points: 2
#     Edge 32, Type (0, 1), BuildingBlock: TEMPAE_clean_linker_10, # of connection points: 2
#     Edge 33, Type (0, 1), BuildingBlock: TEMPAE_clean_linker_10, # of connection points: 2
#     Edge 34, Type (0, 1), BuildingBlock: TEMPAE_clean_linker_10, # of connection points: 2
#     Edge 35, Type (0, 1), BuildingBlock: TEMPAE_clean_linker_10, # of connection points: 2
# Relax obj value: 0.407
# Max RMSD: 0.241
# Mean RMSD: 0.223
data_MOF--net-zzz--node1-NUHQIS_clean_sbu_0--node2-BELTOD_clean_linker_0--edge1-TEMPAE_clean_linker_10
_symmetry_space_group_name_H-M    P1
_symmetry_Int_Tables_number       1
_symmetry_cell_setting            triclinic
loop_
_symmetry_equiv_pos_as_xyz
'x, y, z'
_cell_length_a     56.45688
_cell_length_b     56.489783
_cell_length_c     17.940157
_cell_angle_alpha  89.687151
_cell_angle_beta   89.842599
_cell_angle_gamma 90.026772
loop_
_atom_site_label
_atom_site_type_symbol
_atom_site_fract_x
_atom_site_fract_y
_atom_site_fract_z
_atom_type_partial_charge
P0 P 0.72314 0.4834 0.38998 0.0
H1 H 0.73835 0.49516 0.54158 0.0
H2 H 0.77684 0.50716 0.5887 0.0
H3 H 0.79971 0.52341 0.36419 0.0
H4 H 0.76123 0.51062 0.31718 0.0
H5 H 0.67157 0.48441 0.40507 0.0
H6 H 0.64003 0.49544 0.31973 0.0
H7 H 0.69197 0.52285 0.16436 0.0
H8 H 0.72356 0.51245 0.25188 0.0
H9 H 0.7641 0.45445 0.42353 0.0
H10 H 0.71612 0.46307 0.23856 0.0
O11 O 0.71043 0.46935 0.46175 0.0
H12 H 0.79153 0.43318 0.34401 0.0
H13 H 0.74332 0.44121 0.15871 0.0
C14 C 0.74666 0.50206 0.42563 0.0
C15 C 0.75125 0.50214 0.5025 0.0
C16 C 0.77347 0.50898 0.52956 0.0
C17 C 0.7917 0.5159 0.4803 0.0
C18 C 0.78633 0.51775 0.40379 0.0
C19 C 0.76406 0.5109 0.3768 0.0
C20 C 0.70008 0.49752 0.33516 0.0
C21 C 0.67626 0.49336 0.35362 0.0
C22 C 0.65814 0.49944 0.30407 0.0
C23 C 0.66336 0.50959 0.23409 0.0
C24 C 0.68718 0.51516 0.21772 0.0
C25 C 0.70534 0.50927 0.26795 0.0
C26 C 0.7386 0.46135 0.33629 0.0
C27 C 0.75916 0.45123 0.36618 0.0
C28 C 0.77479 0.43882 0.32058 0.0
C29 C 0.7699 0.43596 0.24433 0.0
C30 C 0.74791 0.44373 0.21671 0.0
C31 C 0.73234 0.45634 0.26242 0.0
P32 P 0.03628 0.72336 0.36798 0.0
H33 H 0.02412 0.73589 0.52212 0.0
H34 H 0.01142 0.77351 0.5757 0.0
H35 H 0.99687 0.80047 0.35496 0.0
H36 H 0.0094 0.76269 0.30163 0.0
H37 H 0.05344 0.67611 0.34179 0.0
H38 H 0.04002 0.64395 0.26394 0.0
H39 H 0.9756 0.68251 0.21632 0.0
H40 H 0.98992 0.7154 0.29339 0.0
H41 H 0.07452 0.75742 0.38149 0.0
H42 H 0.03653 0.72329 0.20346 0.0
O43 O 0.0543 0.71332 0.43466 0.0
H44 H 0.09263 0.78455 0.29144 0.0
H45 H 0.05497 0.74987 0.11332 0.0
C46 C 0.01795 0.74644 0.40767 0.0
C47 C 0.01737 0.74953 0.48526 0.0
C48 C 0.01018 0.77116 0.51596 0.0
C49 C 0.00361 0.79019 0.46953 0.0
C50 C 1.00225 0.78631 0.39219 0.0
C51 C 0.00916 0.76458 0.36166 0.0
C52 C 0.02247 0.69797 0.325 0.0
C53 C 0.03609 0.67744 0.31647 0.0
C54 C 0.0283 0.6589 0.27165 0.0
C55 C 0.00655 0.66033 0.2337 0.0
C56 C 0.99251 0.68075 0.2441 0.0
C57 C 1.00049 0.69948 0.28902 0.0
C58 C 0.0543 0.73823 0.29938 0.0
C59 C 0.07077 0.75517 0.32276 0.0
C60 C 0.08116 0.77063 0.27116 0.0
C61 C 0.07511 0.76943 0.1953 0.0
C62 C 0.05979 0.75137 0.17151 0.0
C63 C 0.04934 0.73602 0.22318 0.0
P64 P 0.77753 0.0319 0.37563 0.0
H65 H 0.76245 0.02182 0.52903 0.0
H66 H 0.72459 0.00819 0.57785 0.0
H67 H 0.70397 0.98642 0.35686 0.0
H68 H 0.74189 1.00071 0.30797 0.0
H69 H 0.82498 0.05002 0.35575 0.0
H70 H 0.85716 0.0399 0.27144 0.0
H71 H 0.81834 0.97839 0.19879 0.0
H72 H 0.7859 0.98859 0.28501 0.0
H73 H 0.74134 0.06757 0.39876 0.0
H74 H 0.7765 0.0352 0.21127 0.0
O75 O 0.78741 0.04936 0.44361 0.0
H76 H 0.71183 0.08456 0.31467 0.0
H77 H 0.74742 0.05242 0.12738 0.0
C78 C 0.75518 0.01234 0.41462 0.0
C79 C 0.75023 0.01332 0.49126 0.0
C80 C 0.72836 0.00553 0.51929 0.0
C81 C 0.71087 0.99658 0.47124 0.0
C82 C 0.71676 0.99367 0.3954 0.0
C83 C 0.73868 1.00145 0.36745 0.0
C84 C 0.80312 0.01988 0.32786 0.0
C85 C 0.82357 0.03392 0.32355 0.0
C86 C 0.84191 0.02829 0.27443 0.0
C87 C 0.84022 0.00853 0.22756 0.0
C88 C 0.82023 0.99369 0.23442 0.0
C89 C 0.80172 0.99942 0.28392 0.0
C90 C 0.76116 0.05015 0.31155 0.0
C91 C 0.74327 0.06489 0.33931 0.0
C92 C 0.72643 0.07462 0.29119 0.0
C93 C 0.72722 0.0696 0.21459 0.0
C94 C 0.74624 0.05633 0.18634 0.0
C95 C 0.763 0.04656 0.23447 0.0
P96 P 0.47688 0.7873 0.39325 0.0
H97 H 0.48953 0.77212 0.54422 0.0
H98 H 0.50244 0.73371 0.58995 0.0
H99 H 0.51985 0.7129 0.36506 0.0
H100 H 0.50642 0.75151 0.31938 0.0
H101 H 0.4542 0.83009 0.3442 0.0
H102 H 0.46453 0.86112 0.25598 0.0
H103 H 0.53261 0.82806 0.21946 0.0
H104 H 0.52156 0.79629 0.30746 0.0
H105 H 0.43972 0.75549 0.44351 0.0
H106 H 0.46942 0.77877 0.23378 0.0
O107 O 0.46295 0.79972 0.46531 0.0
H108 H 0.42029 0.7225 0.38048 0.0
H109 H 0.45005 0.74603 0.17081 0.0
C110 C 0.49705 0.76493 0.42817 0.0
C111 C 0.49706 0.75977 0.50481 0.0
C112 C 0.50438 0.73757 0.53107 0.0
C113 C 0.51179 0.71989 0.48119 0.0
C114 C 0.5138 0.72587 0.40503 0.0
C115 C 0.50656 0.74818 0.37888 0.0
C116 C 0.48724 0.81109 0.33356 0.0
C117 C 0.47154 0.82967 0.31822 0.0
C118 C 0.47757 0.84756 0.26773 0.0
C119 C 0.4996 0.84747 0.23086 0.0
C120 C 0.51546 0.82876 0.24651 0.0
C121 C 0.50928 0.81065 0.29729 0.0
C122 C 0.45576 0.76976 0.34327 0.0
C123 C 0.44116 0.75416 0.38345 0.0
C124 C 0.43024 0.73521 0.34757 0.0
C125 C 0.43378 0.73166 0.27091 0.0
C126 C 0.44675 0.74851 0.22976 0.0
C127 C 0.45783 0.76731 0.26582 0.0
P128 P 0.28117 0.45022 0.07568 0.0
H129 H 0.27087 0.44953 0.91553 0.0
H130 H 0.23595 0.4634 0.8492 0.0
H131 H 0.21639 0.5058 0.03923 0.0
H132 H 0.25208 0.49268 0.1039 0.0
H133 H 0.31518 0.42367 0.15992 0.0
H134 H 0.34812 0.43398 0.23979 0.0
H135 H 0.33717 0.50806 0.1888 0.0
H136 H 0.30315 0.49732 0.10983 0.0
H137 H 0.2414 0.41794 0.06312 0.0
H138 H 0.27049 0.46477 0.22846 0.0
O139 O 0.28921 0.42648 0.02672 0.0
H140 H 0.20302 0.41935 0.1259 0.0
H141 H 0.23233 0.46652 0.29048 0.0
C142 C 0.26425 0.46985 0.01532 0.0
C143 C 0.25975 0.46267 0.9419 0.0
C144 C 0.23935 0.47028 0.90437 0.0
C145 C 0.22273 0.48512 0.93954 0.0
C146 C 0.2286 0.49432 0.01004 0.0
C147 C 0.24924 0.48693 0.04715 0.0
C148 C 0.30699 0.45965 0.12751 0.0
C149 C 0.32003 0.44216 0.16487 0.0
C150 C 0.33905 0.44812 0.21058 0.0
C151 C 0.34579 0.47188 0.22033 0.0
C152 C 0.33256 0.48956 0.1829 0.0
C153 C 0.31324 0.48348 0.13708 0.0
C154 C 0.2588 0.44122 0.14109 0.0
C155 C 0.23991 0.42746 0.11518 0.0
C156 C 0.2179 0.42851 0.15056 0.0
C157 C 0.21457 0.44345 0.21208 0.0
C158 C 0.23433 0.45476 0.2434 0.0
C159 C 0.2563 0.45371 0.20793 0.0
P160 P 0.05568 0.27476 0.11054 0.0
H161 H 0.07308 0.25525 0.96951 0.0
H162 H 0.05959 0.2214 0.8982 0.0
H163 H 0.99362 0.22151 0.02064 0.0
H164 H 0.00756 0.25531 0.09324 0.0
H165 H 0.07684 0.32208 0.10264 0.0
H166 H 0.06741 0.35843 0.16814 0.0
H167 H 1.00104 0.32782 0.24113 0.0
H168 H 0.01012 0.29192 0.17146 0.0
H169 H 0.05856 0.22359 0.13112 0.0
H170 H 0.04915 0.28452 0.27236 0.0
O171 O 0.08448 0.27714 0.09049 0.0
H172 H 0.04411 0.19805 0.23029 0.0
H173 H 0.0345 0.25888 0.37223 0.0
C174 C 0.04136 0.25808 0.03688 0.0
C175 C 0.05531 0.24871 0.97924 0.0
C176 C 0.04756 0.2291 0.9384 0.0
C177 C 0.02563 0.21828 0.95428 0.0
C178 C 0.0108 0.22903 0.00768 0.0
C179 C 0.01856 0.24875 0.04834 0.0
C180 C 0.04435 0.30401 0.13269 0.0
C181 C 0.05985 0.32341 0.13042 0.0
C182 C 0.05458 0.34418 0.16931 0.0
C183 C 0.03383 0.34595 0.21274 0.0
C184 C 0.01724 0.32729 0.20881 0.0
C185 C 0.02235 0.30665 0.1684 0.0
C186 C 0.05322 0.25614 0.19221 0.0
C187 C 0.05372 0.2315 0.18383 0.0
C188 C 0.04566 0.21683 0.2411 0.0
C189 C 0.03745 0.22658 0.3083 0.0
C190 C 0.03999 0.25101 0.32005 0.0
C191 C 0.04817 0.26569 0.26258 0.0
P192 P 0.22156 0.05281 0.06031 0.0
H193 H 0.2314 0.05821 0.90047 0.0
H194 H 0.26533 0.04447 0.82905 0.0
H195 H 0.28166 0.99422 0.00385 0.0
H196 H 0.24675 0.00714 0.07279 0.0
H197 H 0.19996 0.0747 0.1867 0.0
H198 H 0.16685 0.06529 0.26705 0.0
H199 H 0.15155 0.00362 0.13356 0.0
H200 H 0.18637 0.01271 0.05481 0.0
H201 H 0.26378 0.08251 0.05449 0.0
H202 H 0.23252 0.03121 0.20419 0.0
O203 O 0.21518 0.07869 0.01977 0.0
H204 H 0.30179 0.07787 0.11794 0.0
H205 H 0.27006 0.0262 0.26625 0.0
C206 C 0.23641 0.03397 0.99284 0.0
C207 C 0.2415 0.04342 0.92202 0.0
C208 C 0.26142 0.03586 0.88173 0.0
C209 C 0.27703 0.01883 0.91161 0.0
C210 C 0.27032 0.00746 0.97864 0.0
C211 C 0.25008 0.01476 0.01825 0.0
C212 C 0.19581 0.04434 0.11502 0.0
C213 C 0.18956 0.05906 0.17453 0.0
C214 C 0.17027 0.05376 0.22024 0.0
C215 C 0.15598 0.03383 0.2068 0.0
C216 C 0.16214 0.01904 0.1463 0.0
C217 C 0.18196 0.02425 0.10077 0.0
C218 C 0.24523 0.05748 0.12518 0.0
C219 C 0.26478 0.07115 0.10319 0.0
C220 C 0.28656 0.06822 0.13882 0.0
C221 C 0.28902 0.05141 0.1964 0.0
C222 C 0.26878 0.03952 0.2228 0.0
C223 C 0.24712 0.04246 0.18729 0.0
P224 P 0.4543 0.23129 0.08663 0.0
H225 H 0.44216 0.24313 0.93162 0.0
H226 H 0.45507 0.27598 0.85265 0.0
H227 H 0.51242 0.28999 0.00537 0.0
H228 H 0.5002 0.25626 0.08119 0.0
H229 H 0.42459 0.19291 0.1381 0.0
H230 H 0.4332 0.15667 0.20452 0.0
H231 H 0.50778 0.16574 0.15708 0.0
H232 H 0.4988 0.20301 0.09132 0.0
H233 H 0.44323 0.27987 0.12388 0.0
H234 H 0.47747 0.22057 0.23177 0.0
O235 O 0.42541 0.23315 0.06787 0.0
H236 H 0.46001 0.30637 0.21667 0.0
H237 H 0.49402 0.24688 0.32428 0.0
C238 C 0.46994 0.24729 0.01323 0.0
C239 C 0.45812 0.25262 0.94653 0.0
C240 C 0.46529 0.27185 0.90199 0.0
C241 C 0.48434 0.28645 0.92353 0.0
C242 C 0.49764 0.27944 0.98639 0.0
C243 C 0.49067 0.25993 0.03013 0.0
C244 C 0.46095 0.2006 0.10809 0.0
C245 C 0.44275 0.18676 0.13905 0.0
C246 C 0.44777 0.16586 0.17769 0.0
C247 C 0.47126 0.15805 0.18685 0.0
C248 C 0.48949 0.17125 0.15201 0.0
C249 C 0.48437 0.19235 0.11298 0.0
C250 C 0.45943 0.24831 0.16953 0.0
C251 C 0.45359 0.27241 0.16898 0.0
C252 C 0.46318 0.28753 0.22217 0.0
C253 C 0.47867 0.27867 0.27684 0.0
C254 C 0.4825 0.25418 0.28179 0.0
C255 C 0.47297 0.2391 0.22848 0.0
Tb256 Tb 0.01955 0.99785 0.77444 0.0
Eu257 Eu 0.97592 0.01076 0.66138 0.0
C258 C 0.02994 0.00942 0.60507 0.0
C259 C 1.00324 0.05112 0.75669 0.0
C260 C 0.06589 0.9662 0.88334 0.0
C261 C 0.0909 0.94498 0.97049 0.0
C262 C 0.08069 0.96611 0.94579 0.0
C263 C 0.06266 0.94534 0.84269 0.0
C264 C 0.07275 0.92415 0.86751 0.0
C265 C 0.08623 0.9236 0.93336 0.0
C266 C 0.05153 0.98718 0.86718 0.0
O267 O 0.98771 0.0056 0.84012 0.0
O268 O 0.96085 0.9909 0.75917 0.0
O269 O 0.98394 0.97277 0.63529 0.0
O270 O 0.00771 0.96302 0.73547 0.0
C271 C 0.96668 0.99659 0.82719 0.0
O272 O 0.93937 0.0226 0.65004 0.0
O273 O 0.95998 0.01489 0.55137 0.0
O274 O 0.00954 0.02052 0.60001 0.0
O275 O 0.03524 0.9962 0.66326 0.0
O276 O 0.02099 0.0364 0.76689 0.0
O277 O 0.98316 0.04404 0.72732 0.0
C278 C 0.99556 0.95712 0.67554 0.0
O279 O 0.05561 0.99806 0.80428 0.0
O280 O 0.02893 0.9845 0.87926 0.0
C281 C 0.93611 0.04918 0.54839 0.0
C282 C 0.93941 0.097 0.50445 0.0
C283 C 0.92968 0.09092 0.57411 0.0
C284 C 0.92805 0.06723 0.59596 0.0
C285 C 0.9432 0.05514 0.47565 0.0
C286 C 0.94498 0.07881 0.45401 0.0
C287 C 0.94107 0.02521 0.57792 0.0
H288 H 0.10148 0.94515 0.02075 0.0
H289 H 0.08337 0.98213 0.97766 0.0
H290 H 0.05126 0.94521 0.79429 0.0
H291 H 0.06861 0.908 0.83801 0.0
H292 H 0.92469 0.10451 0.61352 0.0
H293 H 0.92203 0.06324 0.65201 0.0
H294 H 0.94922 0.0416 0.43745 0.0
H295 H 0.95261 0.08278 0.39993 0.0
Tb296 Tb 0.50014 0.01904 0.7498 0.0
Eu297 Eu 0.48858 0.97568 0.63733 0.0
C298 C 0.48777 0.02961 0.58288 0.0
C299 C 0.44735 1.00186 0.72802 0.0
C300 C 0.53231 0.0611 0.8704 0.0
C301 C 0.552 0.08183 0.97083 0.0
C302 C 0.53118 0.07477 0.93524 0.0
C303 C 0.55443 0.05478 0.84087 0.0
C304 C 0.57522 0.06198 0.87595 0.0
C305 C 0.5742 0.07541 0.9416 0.0
C306 C 0.51042 0.05311 0.83463 0.0
O307 O 0.51258 0.98712 0.80815 0.0
O308 O 0.4881 0.96015 0.75279 0.0
O309 O 0.52791 0.97399 0.65832 0.0
O310 O 0.53291 0.01305 0.68727 0.0
C311 C 0.50168 0.96649 0.80842 0.0
O312 O 0.46657 0.94591 0.60304 0.0
O313 O 0.49812 0.95458 0.54031 0.0
O314 O 0.49441 0.00809 0.56575 0.0
O315 O 0.483 0.03511 0.65245 0.0
O316 O 0.46367 0.0089 0.77516 0.0
O317 O 0.45331 0.99328 0.66251 0.0
C318 C 0.54157 0.9927 0.66448 0.0
O319 O 0.51013 0.05453 0.7622 0.0
O320 O 0.50197 0.03296 0.85822 0.0
C321 C 0.46367 0.9448 0.47236 0.0
C322 C 0.431 0.96101 0.36609 0.0
C323 C 0.42402 0.94442 0.42049 0.0
C324 C 0.44029 0.9363 0.47315 0.0
C325 C 0.47129 0.9589 0.412 0.0
C326 C 0.45505 0.96694 0.35926 0.0
C327 C 0.47811 0.94302 0.54063 0.0
H328 H 0.55076 0.09218 0.02134 0.0
H329 H 0.51421 0.07976 0.95873 0.0
H330 H 0.55564 0.04404 0.79121 0.0
H331 H 0.59207 0.05641 0.85298 0.0
H332 H 0.40558 0.9395 0.42693 0.0
H333 H 0.43404 0.92516 0.51848 0.0
H334 H 0.48931 0.96542 0.40877 0.0
H335 H 0.46094 0.97933 0.31675 0.0
Tb336 Tb 0.489 0.50899 0.76622 0.0
Eu337 Eu 0.53135 0.49738 0.64849 0.0
C338 C 0.47668 0.4962 0.60129 0.0
C339 C 0.5057 0.45599 0.73985 0.0
C340 C 0.45113 0.53931 0.90515 0.0
C341 C 0.42345 0.56906 0.9491 0.0
C342 C 0.42825 0.54891 0.9068 0.0
C343 C 0.46912 0.54986 0.94744 0.0
C344 C 0.4643 0.56984 0.99021 0.0
C345 C 0.44149 0.57989 0.99073 0.0
C346 C 0.45618 0.51905 0.85651 0.0
O347 O 0.52102 0.52164 0.8218 0.0
O348 O 0.54718 0.49709 0.76338 0.0
O349 O 0.53302 0.53677 0.66404 0.0
O350 O 0.49471 0.54191 0.7032 0.0
C351 C 0.54171 0.51099 0.81909 0.0
O352 O 0.56589 0.48165 0.62709 0.0
O353 O 0.54778 0.50016 0.53842 0.0
O354 O 0.49802 0.5029 0.58102 0.0
O355 O 0.47179 0.49187 0.67172 0.0
O356 O 0.49917 0.47221 0.78816 0.0
O357 O 0.51421 0.46203 0.67416 0.0
C358 C 0.51454 0.55042 0.67484 0.0
O359 O 0.45521 0.52339 0.78523 0.0
O360 O 0.47452 0.50613 0.87369 0.0
C361 C 0.56819 0.46477 0.50827 0.0
C362 C 0.56592 0.41965 0.44374 0.0
C363 C 0.58293 0.42451 0.4985 0.0
C364 C 0.58415 0.44698 0.53021 0.0
C365 C 0.55284 0.46054 0.44832 0.0
C366 C 0.55173 0.43816 0.41636 0.0
C367 C 0.56503 0.48578 0.55564 0.0
H368 H 0.40578 0.57649 0.94759 0.0
H369 H 0.41418 0.54108 0.87416 0.0
H370 H 0.48698 0.54286 0.94688 0.0
H371 H 0.4785 0.57748 0.02265 0.0
H372 H 0.5943 0.4106 0.51972 0.0
H373 H 0.59639 0.44992 0.57565 0.0
H374 H 0.54046 0.47392 0.42951 0.0
H375 H 0.53837 0.43491 0.37439 0.0
Tb376 Tb 0.99979 0.48683 0.76852 0.0
Eu377 Eu 0.01425 0.52893 0.65199 0.0
C378 C 0.01462 0.47438 0.60444 0.0
C379 C 0.05353 0.50187 0.74841 0.0
C380 C 0.96546 0.44883 0.89867 0.0
C381 C 0.9386 0.41993 0.95315 0.0
C382 C 0.95975 0.42528 0.91597 0.0
C383 C 0.94984 0.46702 0.91879 0.0
C384 C 0.92883 0.46171 0.95647 0.0
C385 C 0.92299 0.43811 0.97389 0.0
C386 C 0.98717 0.45412 0.85672 0.0
O387 O 0.98833 0.51964 0.82258 0.0
O388 O 0.01433 0.54523 0.76594 0.0
O389 O 0.97482 0.53236 0.66869 0.0
O390 O 0.96787 0.49393 0.70327 0.0
C391 C 1.00013 0.53976 0.82146 0.0
O392 O 0.0376 0.55766 0.61621 0.0
O393 O 0.00685 0.54894 0.55039 0.0
O394 O 0.00923 0.496 0.58384 0.0
O395 O 0.01715 0.46892 0.67533 0.0
O396 O 0.03657 0.49542 0.79467 0.0
O397 O 0.04853 0.51046 0.68202 0.0
C398 C 0.96031 0.51436 0.67707 0.0
O399 O 0.98522 0.45296 0.78459 0.0
O400 O 0.99893 0.47284 0.87715 0.0
C401 C 0.04283 0.55581 0.48597 0.0
C402 C 0.07533 0.53634 0.38405 0.0
C403 C 0.0509 0.53286 0.37445 0.0
C404 C 0.03477 0.54251 0.42491 0.0
C405 C 0.06699 0.56152 0.49041 0.0
C406 C 0.08312 0.55177 0.44017 0.0
C407 C 0.02733 0.55966 0.55136 0.0
H408 H 0.93453 0.40162 0.96619 0.0
H409 H 0.97156 0.41104 0.90023 0.0
H410 H 0.95379 0.48529 0.90484 0.0
H411 H 0.91693 0.47603 0.97086 0.0
H412 H 0.04434 0.52152 0.33058 0.0
H413 H 0.01621 0.53809 0.41895 0.0
H414 H 0.07368 0.57192 0.53635 0.0
H415 H 0.10183 0.55483 0.44919 0.0
C416 C 0.12867 0.00561 0.27695 0.0
C417 C 0.13514 0.02885 0.25709 0.0
C418 C 0.1105 1.00116 0.3295 0.0
C419 C 0.09879 0.02035 0.36457 0.0
C420 C 0.10476 0.04377 0.34324 0.0
C421 C 0.12241 0.04768 0.28913 0.0
C422 C 0.10423 0.97588 0.34879 0.0
C423 C 0.09305 0.06484 0.37948 0.0
C424 C 0.03995 0.01386 0.46904 0.0
C425 C 0.04746 0.01163 0.54326 0.0
C426 C 0.05643 0.01568 0.41007 0.0
C427 C 0.08104 0.01619 0.42575 0.0
C428 C 0.08866 0.01404 0.50078 0.0
C429 C 0.07182 0.01137 0.55832 0.0
C430 C 0.0475 0.0171 0.33096 0.0
C431 C 0.1146 0.01524 0.5206 0.0
H432 H 0.13825 0.99084 0.25321 0.0
H433 H 0.12647 0.06572 0.27281 0.0
H434 H 0.1097 0.9719 0.40685 0.0
H435 H 0.08477 0.97327 0.34574 0.0
H436 H 0.113 0.96303 0.31107 0.0
H437 H 0.09971 0.08194 0.35689 0.0
H438 H 0.07361 0.06412 0.37123 0.0
H439 H 0.09628 0.0644 0.44047 0.0
H440 H 0.02115 0.01377 0.45693 0.0
H441 H 0.07773 0.00976 0.61558 0.0
H442 H 0.05635 0.00349 0.29626 0.0
H443 H 0.05191 0.03462 0.30645 0.0
H444 H 0.02803 0.01449 0.32757 0.0
H445 H 0.12452 1.00114 0.49123 0.0
H446 H 0.11765 0.01328 0.58147 0.0
H447 H 0.12207 0.03247 0.50196 0.0
C448 C 0.49577 0.13761 0.28633 0.0
C449 C 0.47633 0.13739 0.23747 0.0
C450 C 0.4989 0.11967 0.3405 0.0
C451 C 0.48202 0.10117 0.3471 0.0
C452 C 0.46287 0.10044 0.29635 0.0
C453 C 0.46043 0.11828 0.24196 0.0
C454 C 0.51991 0.12089 0.39213 0.0
C455 C 0.44429 0.08134 0.30146 0.0
C456 C 0.49634 0.04389 0.45241 0.0
C457 C 0.48606 0.04792 0.52268 0.0
C458 C 0.49557 0.06116 0.39548 0.0
C459 C 0.48386 0.08296 0.40821 0.0
C460 C 0.47328 0.08706 0.47881 0.0
C461 C 0.47468 0.06963 0.53524 0.0
C462 C 0.50735 0.05607 0.32164 0.0
C463 C 0.46023 0.10981 0.49455 0.0
H464 H 0.50813 0.15228 0.28429 0.0
H465 H 0.44563 0.1175 0.20372 0.0
H466 H 0.51373 0.12413 0.44993 0.0
H467 H 0.52953 0.10376 0.39236 0.0
H468 H 0.53247 0.13519 0.37603 0.0
H469 H 0.43126 0.08246 0.25532 0.0
H470 H 0.45264 0.06358 0.30061 0.0
H471 H 0.43466 0.083 0.35517 0.0
H472 H 0.50533 0.02728 0.442 0.0
H473 H 0.46664 0.07295 0.5891 0.0
H474 H 0.52043 0.07015 0.30826 0.0
H475 H 0.49395 0.05616 0.27652 0.0
H476 H 0.51654 0.03869 0.32146 0.0
H477 H 0.47229 0.12513 0.48678 0.0
H478 H 0.45291 0.11031 0.55206 0.0
H479 H 0.44544 0.112 0.45448 0.0
C480 C 0.3859 0.4626 0.27507 0.0
C481 C 0.36613 0.47771 0.27095 0.0
C482 C 0.40408 0.46623 0.32727 0.0
C483 C 0.40293 0.48579 0.37616 0.0
C484 C 0.38359 0.50172 0.37039 0.0
C485 C 0.36541 0.49744 0.31831 0.0
C486 C 0.42426 0.44873 0.3313 0.0
C487 C 0.38183 0.52302 0.42051 0.0
C488 C 0.43677 0.48129 0.56009 0.0
C489 C 0.45781 0.49356 0.54377 0.0
C490 C 0.4188 0.47876 0.50635 0.0
C491 C 0.42163 0.48906 0.4346 0.0
C492 C 0.44269 0.50175 0.41813 0.0
C493 C 0.46055 0.50367 0.47252 0.0
C494 C 0.39687 0.46474 0.5261 0.0
C495 C 0.44637 0.51333 0.34294 0.0
H496 H 0.38711 0.44763 0.23776 0.0
H497 H 0.35026 0.50919 0.31639 0.0
H498 H 0.44141 0.45798 0.32329 0.0
H499 H 0.42465 0.44031 0.38732 0.0
H500 H 0.42275 0.4346 0.28874 0.0
H501 H 0.36664 0.53461 0.40572 0.0
H502 H 0.3797 0.51714 0.47924 0.0
H503 H 0.39838 0.53359 0.41726 0.0
H504 H 0.43444 0.47337 0.61477 0.0
H505 H 0.47661 0.51337 0.45937 0.0
H506 H 0.39507 0.44949 0.48777 0.0
H507 H 0.38088 0.47593 0.519 0.0
H508 H 0.39725 0.45795 0.58431 0.0
H509 H 0.44641 0.49969 0.29868 0.0
H510 H 0.46328 0.52335 0.33976 0.0
H511 H 0.43154 0.52562 0.33078 0.0
C512 C 0.00812 0.37513 0.28354 0.0
C513 C 0.03067 0.36605 0.26653 0.0
C514 C 0.00509 0.39296 0.33751 0.0
C515 C 0.02507 0.40226 0.37509 0.0
C516 C 0.04789 0.39358 0.3571 0.0
C517 C 0.05037 0.3755 0.30406 0.0
C518 C 0.98043 0.40162 0.35511 0.0
C519 C 0.06978 0.40292 0.39523 0.0
C520 C 0.02009 0.46236 0.4707 0.0
C521 C 0.01776 0.45591 0.54615 0.0
C522 C 0.0225 0.44517 0.41465 0.0
C523 C 0.02219 0.42081 0.43398 0.0
C524 C 0.0198 0.41418 0.51 0.0
C525 C 0.01779 0.43176 0.56508 0.0
C526 C 0.02523 0.45317 0.33465 0.0
C527 C 0.01923 0.38846 0.53317 0.0
H528 H 0.99275 0.3683 0.25473 0.0
H529 H 0.06786 0.36837 0.29352 0.0
H530 H 0.97652 0.39881 0.41517 0.0
H531 H 0.97919 0.42091 0.34401 0.0
H532 H 0.96668 0.39243 0.3218 0.0
H533 H 0.08624 0.39804 0.3649 0.0
H534 H 0.0691 0.42246 0.40034 0.0
H535 H 0.07079 0.39542 0.45241 0.0
H536 H 0.02016 0.48094 0.45524 0.0
H537 H 0.01585 0.42655 0.62301 0.0
H538 H 0.00865 0.44939 0.3039 0.0
H539 H 0.03971 0.44332 0.30672 0.0
H540 H 0.02897 0.47244 0.3301 0.0
H541 H 0.00487 0.37911 0.50317 0.0
H542 H 0.0164 0.38618 0.59409 0.0
H543 H 0.03616 0.3798 0.51773 0.0
C544 C 0.86852 0.98231 0.15619 0.0
C545 C 0.85857 0.00471 0.16866 0.0
C546 C 0.88641 0.97909 0.10211 0.0
C547 C 0.89432 0.99866 0.05876 0.0
C548 C 0.884 0.02118 0.07037 0.0
C549 C 0.86638 0.02392 0.12509 0.0
C550 C 0.89706 0.95483 0.09191 0.0
C551 C 0.89154 0.04248 0.02487 0.0
C552 C 0.95463 0.99991 0.962 0.0
C553 C 0.94856 0.99522 0.88769 0.0
C554 C 0.93732 1.00013 0.01873 0.0
C555 C 0.91326 0.99581 1.00084 0.0
C556 C 0.90713 0.99048 0.92627 0.0
C557 C 0.92481 0.99014 0.87084 0.0
C558 C 0.94471 0.00567 0.09754 0.0
C559 C 0.88172 0.98598 0.90442 0.0
H560 H 0.86265 0.96741 0.18979 0.0
H561 H 0.8585 0.04121 0.13339 0.0
H562 H 0.8947 0.94896 0.03349 0.0
H563 H 0.9164 0.95551 0.10264 0.0
H564 H 0.88898 0.94143 0.12973 0.0
H565 H 0.88157 0.0587 0.04007 0.0
H566 H 0.91071 0.04589 0.03301 0.0
H567 H 0.88883 0.03899 0.96469 0.0
H568 H 0.97291 0.00372 0.97583 0.0
H569 H 0.91985 0.9865 0.81372 0.0
H570 H 0.93784 0.99195 0.13647 0.0
H571 H 0.93696 0.02285 0.1147 0.0
H572 H 0.96426 0.00671 0.10352 0.0
H573 H 0.87392 0.97188 0.94011 0.0
H574 H 0.88002 0.98065 0.84515 0.0
H575 H 0.8711 1.00225 0.91326 0.0
C576 C 0.497 0.88965 0.18467 0.0
C577 C 0.50508 0.86635 0.17421 0.0
C578 C 0.49882 0.90682 0.12788 0.0
C579 C 0.50945 0.90083 0.05892 0.0
C580 C 0.51912 0.87786 0.0497 0.0
C581 C 0.51668 0.86088 0.10709 0.0
C582 C 0.48811 0.93098 0.14035 0.0
C583 C 0.531 0.87082 0.97769 0.0
C584 C 0.48692 0.9324 0.88495 0.0
C585 C 0.50422 0.94986 0.87266 0.0
C586 C 0.48847 0.91651 0.94522 0.0
C587 C 0.50807 0.91766 0.99418 0.0
C588 C 0.52579 0.93508 0.98175 0.0
C589 C 0.52352 0.95115 0.92164 0.0
C590 C 0.4689 0.89861 0.95693 0.0
C591 C 0.54719 0.93662 0.03168 0.0
H592 H 0.48859 0.89437 0.23688 0.0
H593 H 0.52294 0.843 0.09783 0.0
H594 H 0.50102 0.94506 0.12578 0.0
H595 H 0.47255 0.9333 0.10336 0.0
H596 H 0.48226 0.93352 0.19896 0.0
H597 H 0.54041 0.85362 0.98278 0.0
H598 H 0.5175 0.86926 0.93316 0.0
H599 H 0.54386 0.88459 0.95974 0.0
H600 H 0.47182 0.93135 0.84795 0.0
H601 H 0.53703 0.9645 0.91237 0.0
H602 H 0.46088 0.90093 0.01298 0.0
H603 H 0.47622 0.88041 0.95468 0.0
H604 H 0.45469 0.90022 0.91448 0.0
H605 H 0.54156 0.94025 0.08978 0.0
H606 H 0.5597 0.95071 0.01353 0.0
H607 H 0.55668 0.91943 0.03222 0.0
C608 C 0.62671 0.49504 0.16896 0.0
C609 C 0.64427 0.51251 0.17678 0.0
C610 C 0.60931 0.49663 0.11325 0.0
C611 C 0.60938 0.5161 0.06319 0.0
C612 C 0.62672 0.53407 0.07148 0.0
C613 C 0.64393 0.53206 0.128 0.0
C614 C 0.5913 0.47699 0.10647 0.0
C615 C 0.62743 0.55513 0.01944 0.0
C616 C 0.58206 0.50418 0.8732 0.0
C617 C 0.55928 0.51392 0.8804 0.0
C618 C 0.59864 0.50539 0.93134 0.0
C619 C 0.59242 0.51659 0.99903 0.0
C620 C 0.56966 0.52699 0.00625 0.0
C621 C 0.55338 0.52557 0.94688 0.0
C622 C 0.62266 0.49409 0.92085 0.0
C623 C 0.5623 0.53908 0.07743 0.0
H624 H 0.62696 0.47961 0.20505 0.0
H625 H 0.65719 0.5458 0.13382 0.0
H626 H 0.57311 0.48441 0.10579 0.0
H627 H 0.59397 0.46754 0.05303 0.0
H628 H 0.59257 0.46393 0.15281 0.0
H629 H 0.64097 0.56834 0.03612 0.0
H630 H 0.63148 0.54915 0.962 0.0
H631 H 0.60987 0.56392 0.01783 0.0
H632 H 0.58697 0.49526 0.82211 0.0
H633 H 0.53587 0.53317 0.9532 0.0
H634 H 0.62485 0.4793 0.96118 0.0
H635 H 0.63687 0.50715 0.93216 0.0
H636 H 0.62518 0.48708 0.86364 0.0
H637 H 0.56172 0.52595 0.12363 0.0
H638 H 0.54462 0.54757 0.07272 0.0
H639 H 0.5755 0.55275 0.09276 0.0
C640 C 0.00625 0.6176 0.1929 0.0
C641 C 0.99986 0.64132 0.17951 0.0
C642 C 0.00378 0.60021 0.13765 0.0
C643 C 0.99411 0.6064 0.06745 0.0
C644 C 0.98595 0.62984 0.05545 0.0
C645 C 0.98911 0.64703 0.11117 0.0
C646 C 0.01293 0.57554 0.15298 0.0
C647 C 0.97506 0.63713 0.98209 0.0
C648 C 0.01621 0.57314 0.89691 0.0
C649 C 0.99804 0.55668 0.88448 0.0
C650 C 0.01514 0.58917 0.95636 0.0
C651 C 0.99513 0.58923 0.00417 0.0
C652 C 0.97655 0.57282 0.99161 0.0
C653 C 0.97835 0.55653 0.93245 0.0
C654 C 0.03562 0.60594 0.96839 0.0
C655 C 0.95471 0.5726 0.04025 0.0
H656 H 0.01395 0.61271 0.24604 0.0
H657 H 0.98418 0.6652 0.09947 0.0
H658 H 0.99942 0.56213 0.13816 0.0
H659 H 0.02875 0.57218 0.11776 0.0
H660 H 0.01794 0.57296 0.21232 0.0
H661 H 0.9665 0.6548 0.98522 0.0
H662 H 0.989 0.63781 0.93843 0.0
H663 H 0.96166 0.62395 0.96429 0.0
H664 H 0.03163 0.57325 0.86074 0.0
H665 H 0.96419 0.54394 0.92309 0.0
H666 H 0.04291 0.60344 0.02527 0.0
H667 H 0.02941 0.62452 0.96404 0.0
H668 H 0.05013 0.60328 0.92732 0.0
H669 H 0.95966 0.56907 0.09904 0.0
H670 H 0.94166 0.55903 0.02255 0.0
H671 H 0.94607 0.59024 0.03856 0.0
C672 C 0.0299 0.18825 0.37417 0.0
C673 C 0.02327 0.21173 0.35999 0.0
C674 C 0.01406 0.17236 0.4077 0.0
C675 C 0.99115 0.18026 0.42824 0.0
C676 C 0.9851 0.20441 0.42007 0.0
C677 C 1.00122 0.21988 0.38557 0.0
C678 C 0.02129 0.14674 0.4164 0.0
C679 C 0.96105 0.21359 0.44276 0.0
C680 C 0.94672 0.13061 0.4158 0.0
C681 C 0.94739 0.12155 0.48866 0.0
C682 C 0.95962 0.15091 0.39627 0.0
C683 C 0.9731 0.16262 0.45135 0.0
C684 C 0.97176 0.15511 0.52643 0.0
C685 C 0.9591 0.13449 0.54421 0.0
C686 C 0.96042 0.15859 0.31553 0.0
C687 C 0.98532 0.16766 0.58684 0.0
H688 H 0.04708 0.18203 0.35556 0.0
H689 H 0.99588 0.23797 0.37427 0.0
H690 H 0.01827 0.14066 0.47454 0.0
H691 H 0.01024 0.13554 0.3796 0.0
H692 H 0.04021 0.14382 0.40196 0.0
H693 H 0.96093 0.23319 0.4475 0.0
H694 H 0.9478 0.20847 0.40023 0.0
H695 H 0.95533 0.20579 0.49677 0.0
H696 H 0.93723 0.12103 0.37304 0.0
H697 H 0.9599 0.12764 0.60068 0.0
H698 H 0.97826 0.15488 0.29223 0.0
H699 H 0.95734 0.17792 0.31055 0.0
H700 H 0.94706 0.14921 0.28122 0.0
H701 H 0.0044 0.16329 0.58181 0.0
H702 H 0.97913 0.16236 0.64325 0.0
H703 H 0.98358 0.18714 0.58096 0.0
C704 C 0.31664 0.03624 0.29439 0.0
C705 C 0.31273 0.04315 0.22028 0.0
C706 C 0.33712 0.02378 0.31438 0.0
C707 C 0.35425 0.01855 0.25911 0.0
C708 C 0.35122 0.02693 0.1854 0.0
C709 C 0.33036 0.03894 0.16663 0.0
C710 C 0.34007 0.01554 0.39407 0.0
C711 C 0.36945 0.02227 0.12559 0.0
C712 C 0.41447 1.00015 0.33029 0.0
C713 C 0.41285 0.97539 0.32764 0.0
C714 C 0.39567 0.01445 0.30685 0.0
C715 C 0.375 0.00375 0.27845 0.0
C716 C 0.37362 0.97879 0.27252 0.0
C717 C 0.39257 0.96485 0.29767 0.0
C718 C 0.39782 0.04096 0.31439 0.0
C719 C 0.35171 0.9668 0.2428 0.0
H720 H 0.30325 0.0398 0.33626 0.0
H721 H 0.32736 0.04389 0.10896 0.0
H722 H 0.34082 0.99591 0.39606 0.0
H723 H 0.35702 0.02225 0.41695 0.0
H724 H 0.32536 0.02155 0.43061 0.0
H725 H 0.36581 0.03253 0.07392 0.0
H726 H 0.38744 0.02686 0.14564 0.0
H727 H 0.36949 0.00315 0.11173 0.0
H728 H 0.42997 0.00839 0.35458 0.0
H729 H 0.3913 0.94571 0.29576 0.0
H730 H 0.38116 0.04897 0.33527 0.0
H731 H 0.40159 0.04879 0.25877 0.0
H732 H 0.4123 0.04584 0.35306 0.0
H733 H 0.33645 0.97053 0.28006 0.0
H734 H 0.3539 0.94731 0.23857 0.0
H735 H 0.34727 0.97398 0.18688 0.0
C736 C 0.51812 0.29184 0.32226 0.0
C737 C 0.4935 0.2952 0.31996 0.0
C738 C 0.53313 0.30948 0.34968 0.0
C739 C 0.5232 0.33094 0.37498 0.0
C740 C 0.49828 0.33375 0.3778 0.0
C741 C 0.48369 0.31581 0.35004 0.0
C742 C 0.55959 0.30579 0.34622 0.0
C743 C 0.48706 0.35632 0.40563 0.0
C744 C 0.55667 0.37802 0.47988 0.0
C745 C 0.56017 0.39499 0.42348 0.0
C746 C 0.54602 0.35622 0.46413 0.0
C747 C 0.53861 0.3515 0.39052 0.0
C748 C 0.54377 0.3678 0.33246 0.0
C749 C 0.55457 0.38938 0.34969 0.0
C750 C 0.54128 0.33893 0.52691 0.0
C751 C 0.53635 0.36323 0.25299 0.0
H752 H 0.52583 0.27604 0.29821 0.0
H753 H 0.46465 0.31828 0.34902 0.0
H754 H 0.56696 0.31588 0.29824 0.0
H755 H 0.56829 0.31246 0.39735 0.0
H756 H 0.56424 0.28683 0.33905 0.0
H757 H 0.46748 0.35487 0.41018 0.0
H758 H 0.49428 0.36103 0.46106 0.0
H759 H 0.49136 0.37108 0.36679 0.0
H760 H 0.56078 0.38236 0.5372 0.0
H761 H 0.55756 0.40239 0.306 0.0
H762 H 0.54739 0.32095 0.51144 0.0
H763 H 0.52193 0.33779 0.5374 0.0
H764 H 0.55018 0.34422 0.57939 0.0
H765 H 0.54232 0.34544 0.23503 0.0
H766 H 0.54359 0.37665 0.21358 0.0
H767 H 0.51673 0.36354 0.24925 0.0
C768 C 0.18471 0.45522 0.30846 0.0
C769 C 0.19048 0.45124 0.23357 0.0
C770 C 0.16395 0.46737 0.32784 0.0
C771 C 0.14871 0.47569 0.27086 0.0
C772 C 0.15367 0.47037 0.19556 0.0
C773 C 0.17454 0.45826 0.17777 0.0
C774 C 0.15903 0.47248 0.40894 0.0
C775 C 0.13769 0.47865 0.1334 0.0
C776 C 0.08861 0.49714 0.33561 0.0
C777 C 0.0927 0.52153 0.3434 0.0
C778 C 0.10632 0.48208 0.30845 0.0
C779 C 0.12873 0.49159 0.28986 0.0
C780 C 0.1326 0.51632 0.29391 0.0
C781 C 0.11447 0.53102 0.32035 0.0
C782 C 0.10138 0.45586 0.30395 0.0
C783 C 0.15625 0.52714 0.27373 0.0
H784 H 0.19694 0.44969 0.35167 0.0
H785 H 0.17907 0.45564 0.11963 0.0
H786 H 0.16016 0.49183 0.41871 0.0
H787 H 0.14081 0.46679 0.42396 0.0
H788 H 0.17175 0.46341 0.44663 0.0
H789 H 0.14271 0.47072 0.07912 0.0
H790 H 0.11897 0.47406 0.14586 0.0
H791 H 0.13876 0.4982 0.12805 0.0
H792 H 0.07198 0.48955 0.35441 0.0
H793 H 0.1176 0.54988 0.32528 0.0
H794 H 0.10898 0.44689 0.35359 0.0
H795 H 0.10967 0.44798 0.25375 0.0
H796 H 0.08209 0.45216 0.30265 0.0
H797 H 0.16999 0.52065 0.31293 0.0
H798 H 0.15591 0.54679 0.27582 0.0
H799 H 0.16165 0.52166 0.21689 0.0
C800 C 0.0646 0.79924 0.09811 0.0
C801 C 0.08192 0.7889 0.14374 0.0
C802 C 0.06927 0.82002 0.05792 0.0
C803 C 0.09186 0.83075 0.06326 0.0
C804 C 0.10992 0.81961 0.10529 0.0
C805 C 0.10469 0.79884 0.14554 0.0
C806 C 0.04944 0.83139 0.01408 0.0
C807 C 0.13433 0.83032 0.11119 0.0
C808 C 0.09991 0.88133 0.92583 0.0
C809 C 0.09225 0.90057 0.96873 0.0
C810 C 0.10162 0.85855 0.9572 0.0
C811 C 0.09525 0.85501 0.03282 0.0
C812 C 0.08898 0.87464 0.07742 0.0
C813 C 0.08759 0.89716 0.04485 0.0
C814 C 0.10878 0.83811 0.9083 0.0
C815 C 0.08191 0.87164 0.15824 0.0
H816 H 0.04687 0.79188 0.09726 0.0
H817 H 0.11819 0.79076 0.18015 0.0
H818 H 0.04409 0.84817 0.0413 0.0
H819 H 0.05547 0.83585 0.95682 0.0
H820 H 0.03363 0.81976 0.01024 0.0
H821 H 0.14731 0.81767 0.13533 0.0
H822 H 0.14078 0.83621 0.05563 0.0
H823 H 0.13358 0.84616 0.14742 0.0
H824 H 0.1038 0.88393 0.86715 0.0
H825 H 0.08134 0.91184 0.0782 0.0
H826 H 0.09289 0.82747 0.89437 0.0
H827 H 0.12134 0.82627 0.93795 0.0
H828 H 0.11711 0.84423 0.85543 0.0
H829 H 0.06488 0.86186 0.16173 0.0
H830 H 0.07972 0.88889 0.1869 0.0
H831 H 0.09535 0.86107 0.18869 0.0
C832 C 0.69513 0.09704 0.17043 0.0
C833 C 0.70659 0.07506 0.16672 0.0
C834 C 0.67394 0.10108 0.13147 0.0
C835 C 0.66394 0.08255 0.08904 0.0
C836 C 0.67587 0.06061 0.0833 0.0
C837 C 0.69706 0.05717 0.12203 0.0
C838 C 0.66187 0.12481 0.13778 0.0
C839 C 0.66569 0.04032 0.0391 0.0
C840 C 0.59808 0.07619 0.05827 0.0
C841 C 0.59631 0.08111 0.98188 0.0
C842 C 0.61984 0.07805 0.09514 0.0
C843 C 0.64021 0.08517 0.05461 0.0
C844 C 0.63818 0.09173 0.97867 0.0
C845 C 0.61623 0.08947 0.94299 0.0
C846 C 0.62133 0.07071 0.1761 0.0
C847 C 0.65943 0.09975 0.93397 0.0
H848 H 0.70255 0.11092 0.20473 0.0
H849 H 0.7056 0.04 0.12009 0.0
H850 H 0.65705 0.13162 0.08172 0.0
H851 H 0.6452 0.12284 0.17012 0.0
H852 H 0.67321 0.13811 0.16591 0.0
H853 H 0.67773 0.02478 0.03761 0.0
H854 H 0.64857 0.03467 0.06408 0.0
H855 H 0.66207 0.04603 0.98099 0.0
H856 H 0.58274 0.06957 0.08831 0.0
H857 H 0.61478 0.09359 0.88408 0.0
H858 H 0.63096 0.08424 0.20878 0.0
H859 H 0.6314 0.05391 0.1808 0.0
H860 H 0.60355 0.06801 0.20147 0.0
H861 H 0.66988 0.11296 0.96554 0.0
H862 H 0.65427 0.10762 0.8795 0.0
H863 H 0.67117 0.08439 0.92325 0.0
C864 C 0.43504 0.68765 0.27119 0.0
C865 C 0.42776 0.7087 0.2364 0.0
C866 C 0.43407 0.66602 0.23361 0.0
C867 C 0.42545 0.66544 0.15964 0.0
C868 C 0.41645 0.68634 0.12624 0.0
C869 C 0.41788 0.70782 0.16491 0.0
C870 C 0.44409 0.6442 0.27099 0.0
C871 C 0.40677 0.68632 0.0479 0.0
C872 C 0.45379 0.62014 0.03296 0.0
C873 C 0.43685 0.60199 0.03281 0.0
C874 C 0.45014 0.64091 0.07357 0.0
C875 C 0.42883 0.6438 0.11427 0.0
C876 C 0.41138 0.62583 0.11317 0.0
C877 C 0.41565 0.60504 0.0727 0.0
C878 C 0.46925 0.65966 0.07357 0.0
C879 C 0.3884 0.62843 0.15552 0.0
H880 H 0.44304 0.68831 0.32604 0.0
H881 H 0.41213 0.72408 0.13816 0.0
H882 H 0.4321 0.62884 0.26359 0.0
H883 H 0.46131 0.63965 0.24478 0.0
H884 H 0.44702 0.64688 0.33158 0.0
H885 H 0.39734 0.70305 0.03429 0.0
H886 H 0.42155 0.68411 0.00765 0.0
H887 H 0.39442 0.67126 0.04005 0.0
H888 H 0.46997 0.61818 1.00092 0.0
H889 H 0.40255 0.59101 0.07335 0.0
H890 H 0.47541 0.66277 0.13139 0.0
H891 H 0.46205 0.67665 0.05219 0.0
H892 H 0.48476 0.65466 0.03886 0.0
H893 H 0.39204 0.62942 0.21616 0.0
H894 H 0.3761 0.61343 0.1455 0.0
H895 H 0.37946 0.64516 0.13924 0.0
C896 C 0.80592 0.41158 0.21478 0.0
C897 C 0.78919 0.42861 0.19286 0.0
C898 C 0.82725 0.40884 0.17539 0.0
C899 C 0.83181 0.42337 0.11247 0.0
C900 C 0.81405 0.43893 0.086 0.0
C901 C 0.793 0.44143 0.12665 0.0
C902 C 0.84565 0.39185 0.20483 0.0
C903 C 0.81811 0.45456 0.01857 0.0
C904 C 0.89384 0.44589 0.0754 0.0
C905 C 0.9005 0.43267 0.01299 0.0
C906 C 0.87187 0.44229 0.11002 0.0
C907 C 0.85612 0.42512 0.08116 0.0
C908 C 0.86307 0.41111 0.01973 0.0
C909 C 0.88528 0.41502 0.98637 0.0
C910 C 0.86523 0.45743 0.17603 0.0
C911 C 0.84672 0.3927 0.98741 0.0
H912 H 0.8029 0.40127 0.26504 0.0
H913 H 0.78035 0.45479 0.10939 0.0
H914 H 0.85398 0.38184 0.15866 0.0
H915 H 0.85987 0.40198 0.23297 0.0
H916 H 0.838 0.37909 0.24563 0.0
H917 H 0.80148 0.46306 0.99909 0.0
H918 H 0.83096 0.46869 0.0328 0.0
H919 H 0.82579 0.44422 0.97202 0.0
H920 H 0.90577 0.45928 0.0967 0.0
H921 H 0.89038 0.40486 0.93782 0.0
H922 H 0.85974 0.44609 0.22372 0.0
H923 H 0.84992 0.46884 0.16138 0.0
H924 H 0.88005 0.46896 0.19426 0.0
H925 H 0.83942 0.38118 0.03216 0.0
H926 H 0.8558 0.38144 0.94558 0.0
H927 H 0.83152 0.40161 0.96002 0.0
C928 C 0.02551 0.18952 0.84643 0.0
C929 C 0.01948 0.19476 0.92062 0.0
C930 C 0.02196 0.16674 0.81668 0.0
C931 C 0.01224 0.14851 0.86206 0.0
C932 C 0.00551 0.15384 0.93628 0.0
C933 C 0.00919 0.17678 0.96453 0.0
C934 C 0.02954 0.1621 0.73737 0.0
C935 C 0.99513 0.13504 0.98682 0.0
C936 C 0.98701 0.09247 0.77267 0.0
C937 C 0.00575 0.0763 0.78114 0.0
C938 C 0.98891 0.116 0.79793 0.0
C939 C 0.01001 0.12369 0.83309 0.0
C940 C 0.02906 0.10754 0.84098 0.0
C941 C 0.02673 0.08416 0.81501 0.0
C942 C 0.96803 0.1324 0.7884 0.0
C943 C 0.05193 0.11491 0.87765 0.0
H944 H 0.03327 0.20319 0.81151 0.0
H945 H 0.00482 0.18035 0.02223 0.0
H946 H 0.04755 0.15425 0.73756 0.0
H947 H 0.0175 0.14939 0.70966 0.0
H948 H 0.03017 0.1787 0.7039 0.0
H949 H 0.99008 0.14214 0.04227 0.0
H950 H 0.97923 0.12714 0.96069 0.0
H951 H 0.0082 0.12059 0.99502 0.0
H952 H 0.97067 0.08674 0.74677 0.0
H953 H 0.04137 0.07196 0.82197 0.0
H954 H 0.97387 0.15045 0.77215 0.0
H955 H 0.95847 0.13384 0.84229 0.0
H956 H 0.95539 0.12578 0.74596 0.0
H957 H 0.05992 0.12994 0.84646 0.0
H958 H 0.06502 0.10025 0.88022 0.0
H959 H 0.04834 0.1211 0.93519 0.0
C960 C 0.31218 0.99255 0.87949 0.0
C961 C 0.30109 0.01484 0.87718 0.0
C962 C 0.33545 0.9893 0.85215 0.0
C963 C 0.3481 0.00873 0.8212 0.0
C964 C 0.33686 0.03111 0.81724 0.0
C965 C 0.31372 0.0339 0.84544 0.0
C966 C 0.34671 0.96515 0.85801 0.0
C967 C 0.34955 0.05239 0.78506 0.0
C968 C 0.41582 0.00908 0.82476 0.0
C969 C 0.42185 0.00325 0.751 0.0
C970 C 0.39205 0.01046 0.84832 0.0
C971 C 0.37353 0.00612 0.79702 0.0
C972 C 0.37942 1.00012 0.72249 0.0
C973 C 0.40344 0.99866 0.7005 0.0
C974 C 0.38677 0.01678 0.92833 0.0
C975 C 0.36033 0.99551 0.66569 0.0
H976 H 0.30273 0.97758 0.90305 0.0
H977 H 0.30583 0.05138 0.84467 0.0
H978 H 0.3532 0.95941 0.80255 0.0
H979 H 0.36229 0.96597 0.8955 0.0
H980 H 0.33423 0.95158 0.87999 0.0
H981 H 0.33788 0.06817 0.7812 0.0
H982 H 0.36498 0.05686 0.82045 0.0
H983 H 0.35644 0.04832 0.72859 0.0
H984 H 0.42976 0.01253 0.86469 0.0
H985 H 0.40777 0.99412 0.64345 0.0
H986 H 0.37548 1.00294 0.95442 0.0
H987 H 0.37674 0.03365 0.93036 0.0
H988 H 0.4031 0.01876 0.96215 0.0
H989 H 0.34853 0.98108 0.68553 0.0
H990 H 0.36773 0.99055 0.61049 0.0
H991 H 0.34922 0.01156 0.65864 0.0
C992 C 0.51169 0.31965 0.88037 0.0
C993 C 0.48878 0.30994 0.88554 0.0
C994 C 0.51554 0.3427 0.85196 0.0
C995 C 0.4961 0.3565 0.82709 0.0
C996 C 0.47309 0.3465 0.82927 0.0
C997 C 0.46971 0.32358 0.85881 0.0
C998 C 0.54038 0.35259 0.85091 0.0
C999 C 0.45182 0.36037 0.80289 0.0
C1000 C 0.49924 0.42401 0.83592 0.0
C1001 C 0.50377 0.43043 0.76145 0.0
C1002 C 0.49721 0.40012 0.8579 0.0
C1003 C 0.49945 0.38195 0.80418 0.0
C1004 C 0.50415 0.38826 0.72888 0.0
C1005 C 0.50639 0.41235 0.70854 0.0
C1006 C 0.4925 0.39436 0.93891 0.0
C1007 C 0.50639 0.36959 0.66947 0.0
H1008 H 0.5267 0.30935 0.89942 0.0
H1009 H 0.45183 0.31676 0.86345 0.0
H1010 H 0.54493 0.35914 0.79425 0.0
H1011 H 0.54148 0.36791 0.8892 0.0
H1012 H 0.55378 0.33926 0.86814 0.0
H1013 H 0.43548 0.34941 0.80173 0.0
H1014 H 0.44876 0.3756 0.84045 0.0
H1015 H 0.45506 0.36762 0.74617 0.0
H1016 H 0.49735 0.4377 0.87759 0.0
H1017 H 0.50986 0.41702 0.65086 0.0
H1018 H 0.50637 0.38223 0.96047 0.0
H1019 H 0.47526 0.38507 0.94458 0.0
H1020 H 0.49209 0.41043 0.97431 0.0
H1021 H 0.51977 0.3562 0.68595 0.0
H1022 H 0.51149 0.37722 0.61451 0.0
H1023 H 0.48925 0.36019 0.66328 0.0
C1024 C 0.1869 0.47028 0.86997 0.0
C1025 C 0.1986 0.48897 0.90611 0.0
C1026 C 0.16381 0.47289 0.84161 0.0
C1027 C 0.15174 0.49472 0.84956 0.0
C1028 C 0.16345 0.51376 0.88529 0.0
C1029 C 0.18663 0.51067 0.91311 0.0
C1030 C 0.15208 0.45201 0.80461 0.0
C1031 C 0.15132 0.53734 0.89518 0.0
C1032 C 0.09762 0.50603 0.72555 0.0
C1033 C 0.07876 0.50004 0.77337 0.0
C1034 C 0.12138 0.50463 0.7496 0.0
C1035 C 0.12655 0.49715 0.82342 0.0
C1036 C 0.10757 0.49123 0.87191 0.0
C1037 C 0.08405 0.4927 0.84642 0.0
C1038 C 0.14099 0.51104 0.69582 0.0
C1039 C 0.11209 0.48327 0.95101 0.0
H1040 H 0.19554 0.45322 0.8656 0.0
H1041 H 0.1954 0.52532 0.94035 0.0
H1042 H 0.13631 0.44648 0.83739 0.0
H1043 H 0.14583 0.45706 0.74815 0.0
H1044 H 0.16418 0.4366 0.7995 0.0
H1045 H 0.1631 0.55071 0.92105 0.0
H1046 H 0.14522 0.54422 0.84046 0.0
H1047 H 0.13539 0.53511 0.93092 0.0
H1048 H 0.09385 0.51179 0.66909 0.0
H1049 H 0.06975 0.48814 0.88428 0.0
H1050 H 0.15267 0.49551 0.68699 0.0
H1051 H 0.1521 0.52534 0.71954 0.0
H1052 H 0.13411 0.51702 0.64091 0.0
H1053 H 0.12326 0.46712 0.95111 0.0
H1054 H 0.09546 0.47939 0.98201 0.0
H1055 H 0.12194 0.49722 0.98121 0.0
C1056 C 0.01195 0.83385 0.46677 0.0
C1057 C 1.00058 0.81449 0.5008 0.0
C1058 C 0.01074 0.85666 0.4976 0.0
C1059 C 0.99756 0.86043 0.56382 0.0
C1060 C 0.98575 0.84102 0.59797 0.0
C1061 C 0.98757 0.81828 0.56646 0.0
C1062 C 0.02389 0.8767 0.45977 0.0
C1063 C 0.97119 0.84429 0.66782 0.0
C1064 C 0.01214 0.91567 0.67708 0.0
C1065 C 0.99518 0.9319 0.65112 0.0
C1066 C 0.01291 0.8923 0.65013 0.0
C1067 C 0.99609 0.88474 0.59669 0.0
C1068 C 0.97848 0.90082 0.57212 0.0
C1069 C 0.97835 0.92417 0.59909 0.0
C1070 C 0.03219 0.87589 0.67728 0.0
C1071 C 0.95997 0.89348 0.51621 0.0
H1072 H 0.02242 0.83104 0.41685 0.0
H1073 H 0.97868 0.80344 0.593 0.0
H1074 H 0.01131 0.89088 0.44355 0.0
H1075 H 0.0368 0.88458 0.49903 0.0
H1076 H 0.03356 0.87082 0.40914 0.0
H1077 H 0.96269 0.82756 0.68675 0.0
H1078 H 0.98256 0.85103 0.71336 0.0
H1079 H 0.95717 0.8577 0.65789 0.0
H1080 H 0.02527 0.9214 0.71699 0.0
H1081 H 0.96503 0.93643 0.57897 0.0
H1082 H 0.04368 0.87073 0.62979 0.0
H1083 H 0.02432 0.85942 0.70044 0.0
H1084 H 0.04341 0.88416 0.72077 0.0
H1085 H 0.96859 0.88921 0.4623 0.0
H1086 H 0.94657 0.90754 0.50636 0.0
H1087 H 0.95074 0.87724 0.53578 0.0
C1088 C 0.68166 0.98351 0.57059 0.0
C1089 C 0.68605 0.99267 0.49885 0.0
C1090 C 0.65848 0.98206 0.59965 0.0
C1091 C 0.63906 0.9899 0.55611 0.0
C1092 C 0.64329 0.99854 0.48296 0.0
C1093 C 0.66663 0.99986 0.4554 0.0
C1094 C 0.65482 0.97266 0.67777 0.0
C1095 C 0.62319 0.00708 0.43441 0.0
C1096 C 0.57584 0.97103 0.60559 0.0
C1097 C 0.56695 0.99131 0.64103 0.0
C1098 C 0.59932 0.97016 0.57875 0.0
C1099 C 0.61444 0.98998 0.5878 0.0
C1100 C 0.60574 0.01026 0.62512 0.0
C1101 C 0.58216 0.01072 0.65092 0.0
C1102 C 0.60778 0.94821 0.53916 0.0
C1103 C 0.62121 0.03174 0.63662 0.0
H1104 H 0.69641 0.97766 0.60449 0.0
H1105 H 0.6697 0.00737 0.40052 0.0
H1106 H 0.64732 0.98679 0.71349 0.0
H1107 H 0.64188 0.95788 0.67746 0.0
H1108 H 0.67157 0.96629 0.70328 0.0
H1109 H 0.62923 0.0121 0.3775 0.0
H1110 H 0.60947 0.9931 0.42965 0.0
H1111 H 0.61465 0.02269 0.46037 0.0
H1112 H 0.56431 0.95594 0.59732 0.0
H1113 H 0.5756 0.02648 0.67816 0.0
H1114 H 0.62411 0.94137 0.56591 0.0
H1115 H 0.61232 0.95264 0.4805 0.0
H1116 H 0.59423 0.93394 0.5393 0.0
H1117 H 0.63781 0.02658 0.66543 0.0
H1118 H 0.61222 0.04563 0.66991 0.0
H1119 H 0.62628 0.03942 0.58181 0.0
C1120 C 0.50605 0.67592 0.46574 0.0
C1121 C 0.51497 0.69487 0.50772 0.0
C1122 C 0.50684 0.65249 0.49276 0.0
C1123 C 0.51665 0.64771 0.56391 0.0
C1124 C 0.52612 0.66665 0.60595 0.0
C1125 C 0.5252 0.68991 0.5774 0.0
C1126 C 0.49655 0.63292 0.44585 0.0
C1127 C 0.53681 0.66239 0.68188 0.0
C1128 C 0.49665 0.59116 0.66378 0.0
C1129 C 0.5156 0.57568 0.64993 0.0
C1130 C 0.49691 0.61466 0.63704 0.0
C1131 C 0.51653 0.62299 0.59492 0.0
C1132 C 0.53583 0.60756 0.5815 0.0
C1133 C 0.53517 0.58419 0.60926 0.0
C1134 C 0.47602 0.63051 0.65317 0.0
C1135 C 0.55704 0.6156 0.53659 0.0
H1136 H 0.49767 0.67947 0.41256 0.0
H1137 H 0.53236 0.7043 0.61009 0.0
H1138 H 0.50966 0.61846 0.43895 0.0
H1139 H 0.48084 0.62524 0.47438 0.0
H1140 H 0.49108 0.63926 0.38975 0.0
H1141 H 0.54398 0.67886 0.70676 0.0
H1142 H 0.5232 0.65495 0.72012 0.0
H1143 H 0.5513 0.6492 0.67798 0.0
H1144 H 0.48144 0.58488 0.69515 0.0
H1145 H 0.54991 0.57246 0.59781 0.0
H1146 H 0.46759 0.6361 0.60012 0.0
H1147 H 0.48205 0.64679 0.68179 0.0
H1148 H 0.46245 0.62163 0.68854 0.0
H1149 H 0.55139 0.6206 0.47944 0.0
H1150 H 0.57086 0.60167 0.53248 0.0
H1151 H 0.565 0.63157 0.56216 0.0
C1152 C 0.83573 0.50977 0.46656 0.0
C1153 C 0.8166 0.5188 0.50786 0.0
C1154 C 0.85902 0.51034 0.49433 0.0
C1155 C 0.86349 0.52007 0.56556 0.0
C1156 C 0.84439 0.52971 0.6069 0.0
C1157 C 0.82126 0.529 0.57762 0.0
C1158 C 0.87878 0.49986 0.44818 0.0
C1159 C 0.84832 0.5403 0.68293 0.0
C1160 C 0.91891 0.49821 0.66624 0.0
C1161 C 0.93514 0.51659 0.6525 0.0
C1162 C 0.8955 0.49935 0.63963 0.0
C1163 C 0.88799 0.51931 0.59772 0.0
C1164 C 0.90413 0.53813 0.58478 0.0
C1165 C 0.92743 0.53658 0.61242 0.0
C1166 C 0.8789 0.47894 0.65529 0.0
C1167 C 0.89694 0.55969 0.54028 0.0
H1168 H 0.83243 0.50143 0.41332 0.0
H1169 H 0.80675 0.53627 0.6098 0.0
H1170 H 0.89322 0.51299 0.44064 0.0
H1171 H 0.88642 0.48435 0.47767 0.0
H1172 H 0.87264 0.4941 0.39235 0.0
H1173 H 0.83184 0.54793 0.70676 0.0
H1174 H 0.85503 0.5265 0.72172 0.0
H1175 H 0.86197 0.55441 0.67969 0.0
H1176 H 0.92455 0.48271 0.69736 0.0
H1177 H 0.93976 0.55088 0.60118 0.0
H1178 H 0.87345 0.47066 0.60208 0.0
H1179 H 0.86259 0.48544 0.68309 0.0
H1180 H 0.88712 0.46515 0.69121 0.0
H1181 H 0.89233 0.55442 0.48262 0.0
H1182 H 0.91121 0.57321 0.53756 0.0
H1183 H 0.88092 0.56786 0.56514 0.0
loop_
_geom_bond_atom_site_label_1
_geom_bond_atom_site_label_2
_geom_bond_distance
_geom_bond_site_symmetry_2
_ccdc_geom_bond_type
P0 O11 1.490 . S
P0 C14 1.812 . S
P0 C20 1.803 . S
P0 C26 1.819 . S
H1 C15 0.941 . S
H2 C16 0.939 . S
H3 C18 0.940 . S
H4 C19 0.940 . S
H5 C21 0.939 . S
H6 C22 0.942 . S
H7 C24 0.940 . S
H8 C25 0.939 . S
H9 C27 0.941 . S
H10 C31 0.939 . S
O11 P0 1.490 . S
H12 C28 0.939 . S
H13 C30 0.940 . S
C14 P0 1.812 . S
C14 C15 1.389 . S
C14 C19 1.391 . S
C15 H1 0.941 . S
C15 C14 1.389 . S
C15 C16 1.397 . S
C16 H2 0.939 . S
C16 C15 1.397 . S
C16 C17 1.378 . S
C17 C16 1.378 . S
C17 C18 1.378 . S
C18 H3 0.940 . S
C18 C17 1.378 . S
C18 C19 1.396 . S
C19 H4 0.940 . S
C19 C14 1.391 . S
C19 C18 1.396 . S
C20 P0 1.803 . S
C20 C21 1.378 . S
C20 C25 1.400 . S
C21 H5 0.939 . S
C21 C20 1.378 . S
C21 C22 1.361 . S
C22 H6 0.942 . S
C22 C21 1.361 . S
C22 C23 1.369 . S
C23 C22 1.369 . S
C23 C24 1.404 . S
C24 H7 0.940 . S
C24 C23 1.404 . S
C24 C25 1.389 . S
C25 H8 0.939 . S
C25 C20 1.400 . S
C25 C24 1.389 . S
C26 P0 1.819 . S
C26 C27 1.391 . S
C26 C31 1.391 . S
C27 H9 0.941 . S
C27 C26 1.391 . S
C27 C28 1.396 . S
C28 H12 0.939 . S
C28 C27 1.396 . S
C28 C29 1.397 . S
C29 C28 1.397 . S
C29 C30 1.385 . S
C30 H13 0.940 . S
C30 C29 1.385 . S
C30 C31 1.388 . S
C31 H10 0.939 . S
C31 C26 1.391 . S
C31 C30 1.388 . S
P32 O43 1.490 . S
P32 C46 1.812 . S
P32 C52 1.803 . S
P32 C58 1.819 . S
H33 C47 0.941 . S
H34 C48 0.939 . S
H35 C50 0.940 . S
H36 C51 0.950 . S
H37 C53 0.939 . S
H38 C54 0.942 . S
H39 C56 0.940 . S
H40 C57 0.959 . S
H41 C59 0.941 . S
H42 C63 0.929 1_655 S
O43 P32 1.490 . S
H44 C60 0.939 . S
H45 C62 0.940 . S
C46 P32 1.812 . S
C46 C47 1.389 . S
C46 C51 1.375 1_455 S
C47 H33 0.941 . S
C47 C46 1.389 . S
C47 C48 1.397 . S
C48 H34 0.939 . S
C48 C47 1.397 . S
C48 C49 1.378 . S
C49 C48 1.378 . S
C49 C50 1.378 1_455 S
C50 H35 0.940 . S
C50 C49 1.378 1_655 S
C50 C51 1.403 . S
C51 H36 0.950 . S
C51 C46 1.375 1_655 S
C51 C50 1.403 . S
C52 P32 1.803 . S
C52 C53 1.378 . S
C52 C57 1.368 1_455 S
C53 H37 0.939 . S
C53 C52 1.378 . S
C53 C54 1.361 . S
C54 H38 0.942 . S
C54 C53 1.361 . S
C54 C55 1.369 . S
C55 C54 1.369 . S
C55 C56 1.404 1_455 S
C56 H39 0.940 . S
C56 C55 1.404 1_655 S
C56 C57 1.402 . S
C57 H40 0.959 . S
C57 C52 1.368 1_655 S
C57 C56 1.402 . S
C58 P32 1.819 . S
C58 C59 1.391 . S
C58 C63 1.391 . S
C59 H41 0.941 . S
C59 C58 1.391 . S
C59 C60 1.396 . S
C60 H44 0.939 . S
C60 C59 1.396 . S
C60 C61 1.397 . S
C61 C60 1.397 . S
C61 C62 1.385 1_455 S
C62 H45 0.940 . S
C62 C61 1.385 1_655 S
C62 C63 1.388 1_655 S
C63 H42 0.929 1_455 S
C63 C58 1.391 . S
C63 C62 1.388 1_455 S
P64 O75 1.490 . S
P64 C78 1.812 . S
P64 C84 1.803 . S
P64 C90 1.819 . S
H65 C79 0.941 . S
H66 C80 0.939 . S
H67 C82 0.940 . S
H68 C83 0.950 . S
H69 C85 0.939 . S
H70 C86 0.942 . S
H71 C88 0.940 . S
H72 C89 0.959 . S
H73 C91 0.941 . S
H74 C95 0.929 1_565 S
O75 P64 1.490 . S
H76 C92 0.939 . S
H77 C94 0.940 . S
C78 P64 1.812 . S
C78 C79 1.389 . S
C78 C83 1.375 1_545 S
C79 H65 0.941 . S
C79 C78 1.389 . S
C79 C80 1.397 . S
C80 H66 0.939 . S
C80 C79 1.397 . S
C80 C81 1.378 . S
C81 C80 1.378 . S
C81 C82 1.378 1_545 S
C82 H67 0.940 . S
C82 C81 1.378 1_565 S
C82 C83 1.403 . S
C83 H68 0.950 . S
C83 C78 1.375 1_565 S
C83 C82 1.403 . S
C84 P64 1.803 . S
C84 C85 1.378 . S
C84 C89 1.368 1_545 S
C85 H69 0.939 . S
C85 C84 1.378 . S
C85 C86 1.361 . S
C86 H70 0.942 . S
C86 C85 1.361 . S
C86 C87 1.369 . S
C87 C86 1.369 . S
C87 C88 1.404 1_545 S
C88 H71 0.940 . S
C88 C87 1.404 1_565 S
C88 C89 1.402 . S
C89 H72 0.959 . S
C89 C84 1.368 1_565 S
C89 C88 1.402 . S
C90 P64 1.819 . S
C90 C91 1.391 . S
C90 C95 1.391 . S
C91 H73 0.941 . S
C91 C90 1.391 . S
C91 C92 1.396 . S
C92 H76 0.939 . S
C92 C91 1.396 . S
C92 C93 1.397 . S
C93 C92 1.397 . S
C93 C94 1.385 1_545 S
C94 H77 0.940 . S
C94 C93 1.385 1_565 S
C94 C95 1.388 1_565 S
C95 H74 0.929 1_545 S
C95 C90 1.391 . S
C95 C94 1.388 1_545 S
P96 O107 1.490 . S
P96 C110 1.812 . S
P96 C116 1.803 . S
P96 C122 1.819 . S
H97 C111 0.941 . S
H98 C112 0.939 . S
H99 C114 0.940 . S
H100 C115 0.940 . S
H101 C117 0.939 . S
H102 C118 0.942 . S
H103 C120 0.940 . S
H104 C121 0.939 . S
H105 C123 0.941 . S
H106 C127 0.939 . S
O107 P96 1.490 . S
H108 C124 0.939 . S
H109 C126 0.940 . S
C110 P96 1.812 . S
C110 C111 1.389 . S
C110 C115 1.391 . S
C111 H97 0.941 . S
C111 C110 1.389 . S
C111 C112 1.397 . S
C112 H98 0.939 . S
C112 C111 1.397 . S
C112 C113 1.378 . S
C113 C112 1.378 . S
C113 C114 1.378 . S
C114 H99 0.940 . S
C114 C113 1.378 . S
C114 C115 1.396 . S
C115 H100 0.940 . S
C115 C110 1.391 . S
C115 C114 1.396 . S
C116 P96 1.803 . S
C116 C117 1.378 . S
C116 C121 1.400 . S
C117 H101 0.939 . S
C117 C116 1.378 . S
C117 C118 1.361 . S
C118 H102 0.942 . S
C118 C117 1.361 . S
C118 C119 1.369 . S
C119 C118 1.369 . S
C119 C120 1.404 . S
C120 H103 0.940 . S
C120 C119 1.404 . S
C120 C121 1.389 . S
C121 H104 0.939 . S
C121 C116 1.400 . S
C121 C120 1.389 . S
C122 P96 1.819 . S
C122 C123 1.391 . S
C122 C127 1.391 . S
C123 H105 0.941 . S
C123 C122 1.391 . S
C123 C124 1.396 . S
C124 H108 0.939 . S
C124 C123 1.396 . S
C124 C125 1.397 . S
C125 C124 1.397 . S
C125 C126 1.385 . S
C126 H109 0.940 . S
C126 C125 1.385 . S
C126 C127 1.388 . S
C127 H106 0.939 . S
C127 C122 1.391 . S
C127 C126 1.388 . S
P128 O139 1.490 . S
P128 C142 1.812 1_554 S
P128 C148 1.803 . S
P128 C154 1.819 . S
H129 C143 0.941 . S
H130 C144 0.939 . S
H131 C146 0.940 . S
H132 C147 0.940 1_554 S
H133 C149 0.939 . S
H134 C150 0.942 . S
H135 C152 0.940 . S
H136 C153 0.939 . S
H137 C155 0.941 . S
H138 C159 0.939 . S
O139 P128 1.490 . S
H140 C156 0.939 . S
H141 C158 0.940 . S
C142 P128 1.812 1_556 S
C142 C143 1.389 . S
C142 C147 1.391 . S
C143 H129 0.941 . S
C143 C142 1.389 . S
C143 C144 1.397 . S
C144 H130 0.939 . S
C144 C143 1.397 . S
C144 C145 1.378 . S
C145 C144 1.378 . S
C145 C146 1.378 . S
C146 H131 0.940 . S
C146 C145 1.378 . S
C146 C147 1.396 . S
C147 H132 0.940 1_556 S
C147 C142 1.391 . S
C147 C146 1.396 . S
C148 P128 1.803 . S
C148 C149 1.378 . S
C148 C153 1.400 . S
C149 H133 0.939 . S
C149 C148 1.378 . S
C149 C150 1.361 . S
C150 H134 0.942 . S
C150 C149 1.361 . S
C150 C151 1.369 . S
C151 C150 1.369 . S
C151 C152 1.404 . S
C152 H135 0.940 . S
C152 C151 1.404 . S
C152 C153 1.389 . S
C153 H136 0.939 . S
C153 C148 1.400 . S
C153 C152 1.389 . S
C154 P128 1.819 . S
C154 C155 1.391 . S
C154 C159 1.391 . S
C155 H137 0.941 . S
C155 C154 1.391 . S
C155 C156 1.396 . S
C156 H140 0.939 . S
C156 C155 1.396 . S
C156 C157 1.397 . S
C157 C156 1.397 . S
C157 C158 1.385 . S
C158 H141 0.940 . S
C158 C157 1.385 . S
C158 C159 1.388 . S
C159 H138 0.939 . S
C159 C154 1.391 . S
C159 C158 1.388 . S
P160 O171 1.490 . S
P160 C174 1.812 1_554 S
P160 C180 1.803 . S
P160 C186 1.819 . S
H161 C175 0.941 . S
H162 C176 0.939 . S
H163 C178 0.940 . S
H164 C179 0.944 1_554 S
H165 C181 0.939 . S
H166 C182 0.942 . S
H167 C184 0.940 . S
H168 C185 0.953 . S
H169 C187 0.941 . S
H170 C191 0.933 1_655 S
O171 P160 1.490 . S
H172 C188 0.939 . S
H173 C190 0.940 . S
C174 P160 1.812 1_556 S
C174 C175 1.389 . S
C174 C179 1.385 1_455 S
C175 H161 0.941 . S
C175 C174 1.389 . S
C175 C176 1.397 . S
C176 H162 0.939 . S
C176 C175 1.397 . S
C176 C177 1.378 . S
C177 C176 1.378 . S
C177 C178 1.378 1_455 S
C178 H163 0.940 . S
C178 C177 1.378 1_655 S
C178 C179 1.399 . S
C179 H164 0.944 1_556 S
C179 C174 1.385 1_655 S
C179 C178 1.399 . S
C180 P160 1.803 . S
C180 C181 1.378 . S
C180 C185 1.379 1_455 S
C181 H165 0.939 . S
C181 C180 1.378 . S
C181 C182 1.361 . S
C182 H166 0.942 . S
C182 C181 1.361 . S
C182 C183 1.369 . S
C183 C182 1.369 . S
C183 C184 1.404 1_455 S
C184 H167 0.940 . S
C184 C183 1.404 1_655 S
C184 C185 1.398 . S
C185 H168 0.953 . S
C185 C180 1.379 1_655 S
C185 C184 1.398 . S
C186 P160 1.819 . S
C186 C187 1.391 . S
C186 C191 1.391 . S
C187 H169 0.941 . S
C187 C186 1.391 . S
C187 C188 1.396 . S
C188 H172 0.939 . S
C188 C187 1.396 . S
C188 C189 1.397 . S
C189 C188 1.397 . S
C189 C190 1.385 1_455 S
C190 H173 0.940 . S
C190 C189 1.385 1_655 S
C190 C191 1.388 1_655 S
C191 H170 0.933 1_455 S
C191 C186 1.391 . S
C191 C190 1.388 1_455 S
P192 O203 1.490 . S
P192 C206 1.812 1_554 S
P192 C212 1.803 . S
P192 C218 1.819 . S
H193 C207 0.941 . S
H194 C208 0.939 . S
H195 C210 0.940 . S
H196 C211 0.944 1_554 S
H197 C213 0.939 . S
H198 C214 0.942 . S
H199 C216 0.940 . S
H200 C217 0.953 . S
H201 C219 0.941 . S
H202 C223 0.933 1_565 S
O203 P192 1.490 . S
H204 C220 0.939 . S
H205 C222 0.940 . S
C206 P192 1.812 1_556 S
C206 C207 1.389 . S
C206 C211 1.385 1_545 S
C207 H193 0.941 . S
C207 C206 1.389 . S
C207 C208 1.397 . S
C208 H194 0.939 . S
C208 C207 1.397 . S
C208 C209 1.378 . S
C209 C208 1.378 . S
C209 C210 1.378 1_545 S
C210 H195 0.940 . S
C210 C209 1.378 1_565 S
C210 C211 1.399 . S
C211 H196 0.944 1_556 S
C211 C206 1.385 1_565 S
C211 C210 1.399 . S
C212 P192 1.803 . S
C212 C213 1.378 . S
C212 C217 1.379 1_545 S
C213 H197 0.939 . S
C213 C212 1.378 . S
C213 C214 1.361 . S
C214 H198 0.942 . S
C214 C213 1.361 . S
C214 C215 1.369 . S
C215 C214 1.369 . S
C215 C216 1.404 1_545 S
C216 H199 0.940 . S
C216 C215 1.404 1_565 S
C216 C217 1.398 . S
C217 H200 0.953 . S
C217 C212 1.379 1_565 S
C217 C216 1.398 . S
C218 P192 1.819 . S
C218 C219 1.391 . S
C218 C223 1.391 . S
C219 H201 0.941 . S
C219 C218 1.391 . S
C219 C220 1.396 . S
C220 H204 0.939 . S
C220 C219 1.396 . S
C220 C221 1.397 . S
C221 C220 1.397 . S
C221 C222 1.385 1_545 S
C222 H205 0.940 . S
C222 C221 1.385 1_565 S
C222 C223 1.388 1_565 S
C223 H202 0.933 1_545 S
C223 C218 1.391 . S
C223 C222 1.388 1_545 S
P224 O235 1.490 . S
P224 C238 1.812 1_554 S
P224 C244 1.803 . S
P224 C250 1.819 . S
H225 C239 0.941 . S
H226 C240 0.939 . S
H227 C242 0.940 . S
H228 C243 0.940 1_554 S
H229 C245 0.939 . S
H230 C246 0.942 . S
H231 C248 0.940 . S
H232 C249 0.939 . S
H233 C251 0.941 . S
H234 C255 0.939 . S
O235 P224 1.490 . S
H236 C252 0.939 . S
H237 C254 0.940 . S
C238 P224 1.812 1_556 S
C238 C239 1.389 . S
C238 C243 1.391 . S
C239 H225 0.941 . S
C239 C238 1.389 . S
C239 C240 1.397 . S
C240 H226 0.939 . S
C240 C239 1.397 . S
C240 C241 1.378 . S
C241 C240 1.378 . S
C241 C242 1.378 . S
C242 H227 0.940 . S
C242 C241 1.378 . S
C242 C243 1.396 . S
C243 H228 0.940 1_556 S
C243 C238 1.391 . S
C243 C242 1.396 . S
C244 P224 1.803 . S
C244 C245 1.378 . S
C244 C249 1.400 . S
C245 H229 0.939 . S
C245 C244 1.378 . S
C245 C246 1.361 . S
C246 H230 0.942 . S
C246 C245 1.361 . S
C246 C247 1.369 . S
C247 C246 1.369 . S
C247 C248 1.404 . S
C248 H231 0.940 . S
C248 C247 1.404 . S
C248 C249 1.389 . S
C249 H232 0.939 . S
C249 C244 1.400 . S
C249 C248 1.389 . S
C250 P224 1.819 . S
C250 C251 1.391 . S
C250 C255 1.391 . S
C251 H233 0.941 . S
C251 C250 1.391 . S
C251 C252 1.396 . S
C252 H236 0.939 . S
C252 C251 1.396 . S
C252 C253 1.397 . S
C253 C252 1.397 . S
C253 C254 1.385 . S
C254 H237 0.940 . S
C254 C253 1.385 . S
C254 C255 1.388 . S
C255 H234 0.939 . S
C255 C250 1.391 . S
C255 C254 1.388 . S
Tb256 C266 2.825 . S
Tb256 O267 2.347 1_455 S
Tb256 O270 2.366 . S
Tb256 O275 2.418 . S
Tb256 O276 2.384 1_565 S
Tb256 O279 2.479 . S
Tb256 O280 2.471 . S
Eu257 O268 2.418 . S
Eu257 O269 2.384 1_545 S
Eu257 O272 2.479 . S
Eu257 O273 2.471 . S
Eu257 O274 2.347 1_655 S
Eu257 O277 2.366 . S
Eu257 C287 2.825 . S
C258 O274 1.259 1_565 S
C258 O275 1.265 . S
C259 O276 1.255 . S
C259 O277 1.265 1_455 S
C260 C262 1.380 . S
C260 C263 1.374 . S
C260 C266 1.507 . S
C261 C262 1.384 . S
C261 C265 1.387 . S
C261 H288 0.930 . S
C262 C260 1.380 . S
C262 C261 1.384 . S
C262 H289 0.931 . S
C263 C260 1.374 . S
C263 C264 1.390 . S
C263 H290 0.930 1_455 S
C264 C263 1.390 . S
C264 C265 1.391 . S
C264 H291 0.930 1_455 S
C265 C261 1.387 . S
C265 C264 1.391 . S
C266 Tb256 2.825 . S
C266 C260 1.507 . S
C266 O279 1.238 . S
C266 O280 1.247 . S
O267 Tb256 2.347 1_655 S
O267 C271 1.259 1_565 S
O268 Eu257 2.418 . S
O268 C271 1.265 . S
O269 Eu257 2.384 1_565 S
O269 C278 1.255 . S
O270 Tb256 2.366 . S
O270 C278 1.265 1_455 S
C271 O267 1.259 1_545 S
C271 O268 1.265 . S
O272 Eu257 2.479 . S
O272 C287 1.238 . S
O273 Eu257 2.471 . S
O273 C287 1.247 . S
O274 Eu257 2.347 1_455 S
O274 C258 1.259 1_545 S
O275 Tb256 2.418 . S
O275 C258 1.265 . S
O276 Tb256 2.384 1_545 S
O276 C259 1.255 . S
O277 Eu257 2.366 . S
O277 C259 1.265 1_655 S
C278 O269 1.255 . S
C278 O270 1.265 1_655 S
O279 Tb256 2.479 . S
O279 C266 1.238 . S
O280 Tb256 2.471 . S
O280 C266 1.247 . S
C281 C284 1.380 . S
C281 C285 1.374 . S
C281 C287 1.507 . S
C282 C283 1.387 . S
C282 C286 1.391 . S
C283 C282 1.387 . S
C283 C284 1.384 . S
C283 H292 0.930 . S
C284 C281 1.380 . S
C284 C283 1.384 . S
C284 H293 0.931 . S
C285 C281 1.374 . S
C285 C286 1.390 . S
C285 H294 0.930 1_655 S
C286 C282 1.391 . S
C286 C285 1.390 . S
C286 H295 0.930 1_655 S
C287 Eu257 2.825 . S
C287 O272 1.238 . S
C287 O273 1.247 . S
C287 C281 1.507 . S
H288 C261 0.930 . S
H289 C262 0.931 . S
H290 C263 0.930 1_655 S
H291 C264 0.930 1_655 S
H292 C283 0.930 . S
H293 C284 0.931 . S
H294 C285 0.930 1_455 S
H295 C286 0.930 1_455 S
Tb296 C306 2.825 . S
Tb296 O307 2.347 1_545 S
Tb296 O310 2.366 . S
Tb296 O315 2.418 . S
Tb296 O316 2.384 . S
Tb296 O319 2.479 . S
Tb296 O320 2.471 . S
Eu297 O308 2.418 . S
Eu297 O309 2.384 . S
Eu297 O312 2.479 . S
Eu297 O313 2.471 . S
Eu297 O314 2.347 1_565 S
Eu297 O317 2.366 . S
Eu297 C327 2.825 . S
C298 O314 1.259 . S
C298 O315 1.265 . S
C299 O316 1.255 . S
C299 O317 1.265 1_545 S
C300 C302 1.380 . S
C300 C303 1.374 . S
C300 C306 1.507 . S
C301 C302 1.384 . S
C301 C305 1.387 . S
C301 H328 0.930 . S
C302 C300 1.380 . S
C302 C301 1.384 . S
C302 H329 0.931 . S
C303 C300 1.374 . S
C303 C304 1.390 . S
C303 H330 0.930 1_545 S
C304 C303 1.390 . S
C304 C305 1.391 . S
C304 H331 0.930 1_545 S
C305 C301 1.387 . S
C305 C304 1.391 . S
C306 Tb296 2.825 . S
C306 C300 1.507 . S
C306 O319 1.238 . S
C306 O320 1.247 . S
O307 Tb296 2.347 1_565 S
O307 C311 1.259 . S
O308 Eu297 2.418 . S
O308 C311 1.265 . S
O309 Eu297 2.384 . S
O309 C318 1.255 . S
O310 Tb296 2.366 . S
O310 C318 1.265 1_545 S
C311 O307 1.259 . S
C311 O308 1.265 . S
O312 Eu297 2.479 . S
O312 C327 1.238 . S
O313 Eu297 2.471 . S
O313 C327 1.247 . S
O314 Eu297 2.347 1_545 S
O314 C298 1.259 . S
O315 Tb296 2.418 . S
O315 C298 1.265 . S
O316 Tb296 2.384 . S
O316 C299 1.255 . S
O317 Eu297 2.366 . S
O317 C299 1.265 1_565 S
C318 O309 1.255 . S
C318 O310 1.265 1_565 S
O319 Tb296 2.479 . S
O319 C306 1.238 . S
O320 Tb296 2.471 . S
O320 C306 1.247 . S
C321 C324 1.380 . S
C321 C325 1.374 . S
C321 C327 1.507 . S
C322 C323 1.387 . S
C322 C326 1.391 . S
C323 C322 1.387 . S
C323 C324 1.384 . S
C323 H332 0.930 . S
C324 C321 1.380 . S
C324 C323 1.384 . S
C324 H333 0.931 . S
C325 C321 1.374 . S
C325 C326 1.390 . S
C325 H334 0.930 1_565 S
C326 C322 1.391 . S
C326 C325 1.390 . S
C326 H335 0.930 1_565 S
C327 Eu297 2.825 . S
C327 O312 1.238 . S
C327 O313 1.247 . S
C327 C321 1.507 . S
H328 C301 0.930 . S
H329 C302 0.931 . S
H330 C303 0.930 1_565 S
H331 C304 0.930 1_565 S
H332 C323 0.930 . S
H333 C324 0.931 . S
H334 C325 0.930 1_545 S
H335 C326 0.930 1_545 S
Tb336 C346 2.825 . S
Tb336 O347 2.347 . S
Tb336 O350 2.366 . S
Tb336 O355 2.418 . S
Tb336 O356 2.384 . S
Tb336 O359 2.479 . S
Tb336 O360 2.471 . S
Eu337 O348 2.418 . S
Eu337 O349 2.384 . S
Eu337 O352 2.479 . S
Eu337 O353 2.471 . S
Eu337 O354 2.347 . S
Eu337 O357 2.366 . S
Eu337 C367 2.825 . S
C338 O354 1.259 . S
C338 O355 1.265 . S
C339 O356 1.255 . S
C339 O357 1.265 . S
C340 C342 1.380 . S
C340 C343 1.374 . S
C340 C346 1.507 . S
C341 C342 1.384 . S
C341 C345 1.387 . S
C341 H368 0.930 . S
C342 C340 1.380 . S
C342 C341 1.384 . S
C342 H369 0.931 . S
C343 C340 1.374 . S
C343 C344 1.390 . S
C343 H370 0.930 . S
C344 C343 1.390 . S
C344 C345 1.391 . S
C344 H371 0.930 . S
C345 C341 1.387 . S
C345 C344 1.391 . S
C346 Tb336 2.825 . S
C346 C340 1.507 . S
C346 O359 1.238 . S
C346 O360 1.247 . S
O347 Tb336 2.347 . S
O347 C351 1.259 . S
O348 Eu337 2.418 . S
O348 C351 1.265 . S
O349 Eu337 2.384 . S
O349 C358 1.255 . S
O350 Tb336 2.366 . S
O350 C358 1.265 . S
C351 O347 1.259 . S
C351 O348 1.265 . S
O352 Eu337 2.479 . S
O352 C367 1.238 . S
O353 Eu337 2.471 . S
O353 C367 1.247 . S
O354 Eu337 2.347 . S
O354 C338 1.259 . S
O355 Tb336 2.418 . S
O355 C338 1.265 . S
O356 Tb336 2.384 . S
O356 C339 1.255 . S
O357 Eu337 2.366 . S
O357 C339 1.265 . S
C358 O349 1.255 . S
C358 O350 1.265 . S
O359 Tb336 2.479 . S
O359 C346 1.238 . S
O360 Tb336 2.471 . S
O360 C346 1.247 . S
C361 C364 1.380 . S
C361 C365 1.374 . S
C361 C367 1.507 . S
C362 C363 1.387 . S
C362 C366 1.391 . S
C363 C362 1.387 . S
C363 C364 1.384 . S
C363 H372 0.930 . S
C364 C361 1.380 . S
C364 C363 1.384 . S
C364 H373 0.931 . S
C365 C361 1.374 . S
C365 C366 1.390 . S
C365 H374 0.930 . S
C366 C362 1.391 . S
C366 C365 1.390 . S
C366 H375 0.930 . S
C367 Eu337 2.825 . S
C367 O352 1.238 . S
C367 O353 1.247 . S
C367 C361 1.507 . S
H368 C341 0.930 . S
H369 C342 0.931 . S
H370 C343 0.930 . S
H371 C344 0.930 . S
H372 C363 0.930 . S
H373 C364 0.931 . S
H374 C365 0.930 . S
H375 C366 0.930 . S
Tb376 C386 2.825 . S
Tb376 O387 2.347 . S
Tb376 O390 2.366 . S
Tb376 O395 2.418 . S
Tb376 O396 2.384 1_655 S
Tb376 O399 2.479 . S
Tb376 O400 2.471 . S
Eu377 O388 2.418 . S
Eu377 O389 2.384 1_455 S
Eu377 O392 2.479 . S
Eu377 O393 2.471 . S
Eu377 O394 2.347 . S
Eu377 O397 2.366 . S
Eu377 C407 2.825 . S
C378 O394 1.259 1_655 S
C378 O395 1.265 . S
C379 O396 1.255 . S
C379 O397 1.265 . S
C380 C382 1.380 . S
C380 C383 1.374 . S
C380 C386 1.507 . S
C381 C382 1.384 . S
C381 C385 1.387 . S
C381 H408 0.930 . S
C382 C380 1.380 . S
C382 C381 1.384 . S
C382 H409 0.931 . S
C383 C380 1.374 . S
C383 C384 1.390 . S
C383 H410 0.930 . S
C384 C383 1.390 . S
C384 C385 1.391 . S
C384 H411 0.930 . S
C385 C381 1.387 . S
C385 C384 1.391 . S
C386 Tb376 2.825 . S
C386 C380 1.507 . S
C386 O399 1.238 . S
C386 O400 1.247 . S
O387 Tb376 2.347 . S
O387 C391 1.259 1_655 S
O388 Eu377 2.418 . S
O388 C391 1.265 . S
O389 Eu377 2.384 1_655 S
O389 C398 1.255 . S
O390 Tb376 2.366 . S
O390 C398 1.265 . S
C391 O387 1.259 1_455 S
C391 O388 1.265 . S
O392 Eu377 2.479 . S
O392 C407 1.238 . S
O393 Eu377 2.471 . S
O393 C407 1.247 . S
O394 Eu377 2.347 . S
O394 C378 1.259 1_455 S
O395 Tb376 2.418 . S
O395 C378 1.265 . S
O396 Tb376 2.384 1_455 S
O396 C379 1.255 . S
O397 Eu377 2.366 . S
O397 C379 1.265 . S
C398 O389 1.255 . S
C398 O390 1.265 . S
O399 Tb376 2.479 . S
O399 C386 1.238 . S
O400 Tb376 2.471 . S
O400 C386 1.247 . S
C401 C404 1.380 . S
C401 C405 1.374 . S
C401 C407 1.507 . S
C402 C403 1.387 . S
C402 C406 1.391 . S
C403 C402 1.387 . S
C403 C404 1.384 . S
C403 H412 0.930 . S
C404 C401 1.380 . S
C404 C403 1.384 . S
C404 H413 0.931 . S
C405 C401 1.374 . S
C405 C406 1.390 . S
C405 H414 0.930 . S
C406 C402 1.391 . S
C406 C405 1.390 . S
C406 H415 0.930 . S
C407 Eu377 2.825 . S
C407 O392 1.238 . S
C407 O393 1.247 . S
C407 C401 1.507 . S
H408 C381 0.930 . S
H409 C382 0.931 . S
H410 C383 0.930 . S
H411 C384 0.930 . S
H412 C403 0.930 . S
H413 C404 0.931 . S
H414 C405 0.930 . S
H415 C406 0.930 . S
C416 C417 1.386 . S
C416 C418 1.394 . S
C416 H432 0.931 . S
C417 C416 1.386 . S
C417 C421 1.380 1_565 S
C418 C416 1.394 . S
C418 C419 1.392 . S
C418 C422 1.531 . S
C419 C418 1.392 . S
C419 C420 1.387 1_565 S
C419 C427 1.503 . S
C420 C419 1.387 1_545 S
C420 C421 1.392 . S
C420 C423 1.511 . S
C421 C417 1.380 1_545 S
C421 C420 1.392 . S
C421 H433 0.929 . S
C422 C418 1.531 . S
C422 H434 0.960 . S
C422 H435 0.962 . S
C422 H436 0.960 . S
C423 C420 1.511 . S
C423 H437 0.961 . S
C423 H438 0.961 . S
C423 H439 0.961 . S
C424 C425 1.371 . S
C424 C426 1.363 . S
C424 H440 0.931 . S
C425 C424 1.371 . S
C425 C429 1.406 1_545 S
C426 C424 1.363 . S
C426 C427 1.370 1_545 S
C426 C430 1.524 . S
C427 C419 1.503 . S
C427 C426 1.370 1_565 S
C427 C428 1.403 . S
C428 C427 1.403 . S
C428 C429 1.404 . S
C428 C431 1.539 . S
C429 C425 1.406 1_565 S
C429 C428 1.404 . S
C429 H441 0.930 . S
C430 C426 1.524 . S
C430 H442 0.956 1_545 S
C430 H443 0.961 . S
C430 H444 0.961 . S
C431 C428 1.539 . S
C431 H445 0.958 . S
C431 H446 0.961 1_565 S
C431 H447 0.960 1_565 S
H432 C416 0.931 . S
H433 C421 0.929 . S
H434 C422 0.960 . S
H435 C422 0.962 . S
H436 C422 0.960 . S
H437 C423 0.961 . S
H438 C423 0.961 . S
H439 C423 0.961 . S
H440 C424 0.931 . S
H441 C429 0.930 . S
H442 C430 0.956 1_565 S
H443 C430 0.961 . S
H444 C430 0.961 . S
H445 C431 0.958 . S
H446 C431 0.961 1_545 S
H447 C431 0.960 1_545 S
C448 C449 1.391 . S
C448 C450 1.394 . S
C448 H464 0.931 . S
C449 C448 1.391 . S
C449 C453 1.376 . S
C450 C448 1.394 . S
C450 C451 1.369 . S
C450 C454 1.531 . S
C451 C450 1.369 . S
C451 C452 1.410 . S
C451 C459 1.503 . S
C452 C451 1.410 . S
C452 C453 1.392 . S
C452 C455 1.511 . S
C453 C449 1.376 . S
C453 C452 1.392 . S
C453 H465 0.929 . S
C454 C450 1.531 . S
C454 H466 0.960 . S
C454 H467 0.962 . S
C454 H468 0.960 . S
C455 C452 1.511 . S
C455 H469 0.961 . S
C455 H470 0.961 . S
C455 H471 0.961 . S
C456 C457 1.370 . S
C456 C458 1.363 . S
C456 H472 0.931 . S
C457 C456 1.370 . S
C457 C461 1.408 . S
C458 C456 1.363 . S
C458 C459 1.370 . S
C458 C462 1.524 . S
C459 C451 1.503 . S
C459 C458 1.370 . S
C459 C460 1.403 . S
C460 C459 1.403 . S
C460 C461 1.404 . S
C460 C463 1.539 . S
C461 C457 1.408 . S
C461 C460 1.404 . S
C461 H473 0.930 . S
C462 C458 1.524 . S
C462 H474 0.956 . S
C462 H475 0.961 . S
C462 H476 0.961 . S
C463 C460 1.539 . S
C463 H477 0.958 . S
C463 H478 0.961 . S
C463 H479 0.960 . S
H464 C448 0.931 . S
H465 C453 0.929 . S
H466 C454 0.960 . S
H467 C454 0.962 . S
H468 C454 0.960 . S
H469 C455 0.961 . S
H470 C455 0.961 . S
H471 C455 0.961 . S
H472 C456 0.931 . S
H473 C461 0.930 . S
H474 C462 0.956 . S
H475 C462 0.961 . S
H476 C462 0.961 . S
H477 C463 0.958 . S
H478 C463 0.961 . S
H479 C463 0.960 . S
C480 C481 1.391 . S
C480 C482 1.394 . S
C480 H496 0.931 . S
C481 C480 1.391 . S
C481 C485 1.376 . S
C482 C480 1.394 . S
C482 C483 1.369 . S
C482 C486 1.531 . S
C483 C482 1.369 . S
C483 C484 1.410 . S
C483 C491 1.503 . S
C484 C483 1.410 . S
C484 C485 1.392 . S
C484 C487 1.511 . S
C485 C481 1.376 . S
C485 C484 1.392 . S
C485 H497 0.929 . S
C486 C482 1.531 . S
C486 H498 0.960 . S
C486 H499 0.962 . S
C486 H500 0.960 . S
C487 C484 1.511 . S
C487 H501 0.961 . S
C487 H502 0.961 . S
C487 H503 0.961 . S
C488 C489 1.370 . S
C488 C490 1.363 . S
C488 H504 0.931 . S
C489 C488 1.370 . S
C489 C493 1.408 . S
C490 C488 1.363 . S
C490 C491 1.370 . S
C490 C494 1.524 . S
C491 C483 1.503 . S
C491 C490 1.370 . S
C491 C492 1.403 . S
C492 C491 1.403 . S
C492 C493 1.404 . S
C492 C495 1.539 . S
C493 C489 1.408 . S
C493 C492 1.404 . S
C493 H505 0.930 . S
C494 C490 1.524 . S
C494 H506 0.956 . S
C494 H507 0.961 . S
C494 H508 0.961 . S
C495 C492 1.539 . S
C495 H509 0.958 . S
C495 H510 0.961 . S
C495 H511 0.960 . S
H496 C480 0.931 . S
H497 C485 0.929 . S
H498 C486 0.960 . S
H499 C486 0.962 . S
H500 C486 0.960 . S
H501 C487 0.961 . S
H502 C487 0.961 . S
H503 C487 0.961 . S
H504 C488 0.931 . S
H505 C493 0.930 . S
H506 C494 0.956 . S
H507 C494 0.961 . S
H508 C494 0.961 . S
H509 C495 0.958 . S
H510 C495 0.961 . S
H511 C495 0.960 . S
C512 C513 1.391 . S
C512 C514 1.394 . S
C512 H528 0.931 . S
C513 C512 1.391 . S
C513 C517 1.376 1_655 S
C514 C512 1.394 . S
C514 C515 1.369 . S
C514 C518 1.531 . S
C515 C514 1.369 . S
C515 C516 1.415 . S
C515 C523 1.503 . S
C516 C515 1.415 . S
C516 C517 1.391 1_655 S
C516 C519 1.508 1_655 S
C517 C513 1.376 1_455 S
C517 C516 1.391 1_455 S
C517 H529 0.929 . S
C518 C514 1.531 . S
C518 H530 0.960 . S
C518 H531 0.929 1_655 S
C518 H532 0.960 . S
C519 C516 1.508 1_455 S
C519 H533 0.961 . S
C519 H534 0.961 . S
C519 H535 0.961 1_455 S
C520 C521 1.378 . S
C520 C522 1.363 . S
C520 H536 0.931 . S
C521 C520 1.378 . S
C521 C525 1.400 1_455 S
C522 C520 1.363 . S
C522 C523 1.370 1_455 S
C522 C526 1.524 . S
C523 C515 1.503 . S
C523 C522 1.370 1_655 S
C523 C524 1.403 . S
C524 C523 1.403 . S
C524 C525 1.404 . S
C524 C527 1.539 . S
C525 C521 1.400 1_655 S
C525 C524 1.404 . S
C525 H537 0.930 . S
C526 C522 1.524 . S
C526 H538 0.956 . S
C526 H539 0.961 . S
C526 H540 0.961 . S
C527 C524 1.539 . S
C527 H541 0.958 . S
C527 H542 0.961 . S
C527 H543 0.960 . S
H528 C512 0.931 . S
H529 C517 0.929 . S
H530 C518 0.960 . S
H531 C518 0.929 1_455 S
H532 C518 0.960 . S
H533 C519 0.961 . S
H534 C519 0.961 . S
H535 C519 0.961 1_655 S
H536 C520 0.931 . S
H537 C525 0.930 . S
H538 C526 0.956 . S
H539 C526 0.961 . S
H540 C526 0.961 . S
H541 C527 0.958 . S
H542 C527 0.961 . S
H543 C527 0.960 . S
C544 C545 1.391 . S
C544 C546 1.394 . S
C544 H560 0.931 . S
C545 C544 1.391 . S
C545 C549 1.373 1_565 S
C546 C544 1.394 . S
C546 C547 1.369 . S
C546 C550 1.531 . S
C547 C546 1.369 . S
C547 C548 1.410 . S
C547 C555 1.503 . S
C548 C547 1.410 . S
C548 C549 1.390 1_565 S
C548 C551 1.511 1_565 S
C549 C545 1.373 1_545 S
C549 C548 1.390 1_545 S
C549 H561 0.935 . S
C550 C546 1.531 . S
C550 H562 0.960 . S
C550 H563 0.958 1_565 S
C550 H564 0.960 . S
C551 C548 1.511 1_545 S
C551 H565 0.961 . S
C551 H566 0.961 1_554 S
C551 H567 0.961 1_545 S
C552 C553 1.370 1_545 S
C552 C554 1.363 . S
C552 H568 0.931 . S
C553 C552 1.370 1_565 S
C553 C557 1.408 . S
C554 C552 1.363 . S
C554 C555 1.370 1_546 S
C554 C558 1.524 1_556 S
C555 C547 1.503 . S
C555 C554 1.370 1_564 S
C555 C556 1.403 1_554 S
C556 C555 1.403 1_556 S
C556 C557 1.404 . S
C556 C559 1.539 . S
C557 C553 1.408 . S
C557 C556 1.404 . S
C557 H569 0.930 . S
C558 C554 1.524 1_554 S
C558 H570 0.956 . S
C558 H571 0.961 . S
C558 H572 0.961 . S
C559 C556 1.539 . S
C559 H573 0.958 1_556 S
C559 H574 0.961 . S
C559 H575 0.960 1_556 S
H560 C544 0.931 . S
H561 C549 0.935 . S
H562 C550 0.960 . S
H563 C550 0.958 1_545 S
H564 C550 0.960 . S
H565 C551 0.961 . S
H566 C551 0.961 1_556 S
H567 C551 0.961 1_565 S
H568 C552 0.931 . S
H569 C557 0.930 . S
H570 C558 0.956 . S
H571 C558 0.961 . S
H572 C558 0.961 . S
H573 C559 0.958 1_554 S
H574 C559 0.961 . S
H575 C559 0.960 1_554 S
C576 C577 1.391 . S
C576 C578 1.394 . S
C576 H592 0.931 . S
C577 C576 1.391 . S
C577 C581 1.376 . S
C578 C576 1.394 . S
C578 C579 1.369 . S
C578 C582 1.531 . S
C579 C578 1.369 . S
C579 C580 1.410 . S
C579 C587 1.503 . S
C580 C579 1.410 . S
C580 C581 1.392 . S
C580 C583 1.511 . S
C581 C577 1.376 . S
C581 C580 1.392 . S
C581 H593 0.929 . S
C582 C578 1.531 . S
C582 H594 0.960 . S
C582 H595 0.962 . S
C582 H596 0.960 . S
C583 C580 1.511 . S
C583 H597 0.961 . S
C583 H598 0.961 . S
C583 H599 0.961 . S
C584 C585 1.370 . S
C584 C586 1.363 . S
C584 H600 0.931 . S
C585 C584 1.370 . S
C585 C589 1.408 . S
C586 C584 1.363 . S
C586 C587 1.370 1_556 S
C586 C590 1.524 . S
C587 C579 1.503 . S
C587 C586 1.370 1_554 S
C587 C588 1.403 . S
C588 C587 1.403 . S
C588 C589 1.404 1_554 S
C588 C591 1.539 . S
C589 C585 1.408 . S
C589 C588 1.404 1_556 S
C589 H601 0.930 . S
C590 C586 1.524 . S
C590 H602 0.956 . S
C590 H603 0.961 1_556 S
C590 H604 0.961 . S
C591 C588 1.539 . S
C591 H605 0.958 . S
C591 H606 0.961 . S
C591 H607 0.960 . S
H592 C576 0.931 . S
H593 C581 0.929 . S
H594 C582 0.960 . S
H595 C582 0.962 . S
H596 C582 0.960 . S
H597 C583 0.961 . S
H598 C583 0.961 . S
H599 C583 0.961 . S
H600 C584 0.931 . S
H601 C589 0.930 . S
H602 C590 0.956 . S
H603 C590 0.961 1_554 S
H604 C590 0.961 . S
H605 C591 0.958 . S
H606 C591 0.961 . S
H607 C591 0.960 . S
C608 C609 1.391 . S
C608 C610 1.394 . S
C608 H624 0.931 . S
C609 C608 1.391 . S
C609 C613 1.376 . S
C610 C608 1.394 . S
C610 C611 1.369 . S
C610 C614 1.531 . S
C611 C610 1.369 . S
C611 C612 1.410 . S
C611 C619 1.503 . S
C612 C611 1.410 . S
C612 C613 1.392 . S
C612 C615 1.511 . S
C613 C609 1.376 . S
C613 C612 1.392 . S
C613 H625 0.929 . S
C614 C610 1.531 . S
C614 H626 0.960 . S
C614 H627 0.962 . S
C614 H628 0.960 . S
C615 C612 1.511 . S
C615 H629 0.961 . S
C615 H630 0.961 . S
C615 H631 0.961 . S
C616 C617 1.370 . S
C616 C618 1.363 . S
C616 H632 0.931 . S
C617 C616 1.370 . S
C617 C621 1.408 . S
C618 C616 1.363 . S
C618 C619 1.370 1_556 S
C618 C622 1.524 1_556 S
C619 C611 1.503 . S
C619 C618 1.370 1_554 S
C619 C620 1.403 1_554 S
C620 C619 1.403 1_556 S
C620 C621 1.404 . S
C620 C623 1.539 1_556 S
C621 C617 1.408 . S
C621 C620 1.404 . S
C621 H633 0.930 . S
C622 C618 1.524 1_554 S
C622 H634 0.956 . S
C622 H635 0.961 . S
C622 H636 0.961 1_554 S
C623 C620 1.539 1_554 S
C623 H637 0.958 . S
C623 H638 0.961 . S
C623 H639 0.960 . S
H624 C608 0.931 . S
H625 C613 0.929 . S
H626 C614 0.960 . S
H627 C614 0.962 . S
H628 C614 0.960 . S
H629 C615 0.961 . S
H630 C615 0.961 . S
H631 C615 0.961 . S
H632 C616 0.931 . S
H633 C621 0.930 . S
H634 C622 0.956 . S
H635 C622 0.961 . S
H636 C622 0.961 1_556 S
H637 C623 0.958 . S
H638 C623 0.961 . S
H639 C623 0.960 . S
C640 C641 1.357 1_455 S
C640 C642 1.394 . S
C640 H656 0.931 . S
C641 C640 1.357 1_655 S
C641 C645 1.411 . S
C642 C640 1.394 . S
C642 C643 1.369 1_455 S
C642 C646 1.531 . S
C643 C642 1.369 1_655 S
C643 C644 1.410 . S
C643 C651 1.503 . S
C644 C643 1.410 . S
C644 C645 1.392 . S
C644 C647 1.511 . S
C645 C641 1.411 . S
C645 C644 1.392 . S
C645 H657 0.929 . S
C646 C642 1.531 . S
C646 H658 0.960 . S
C646 H659 0.962 . S
C646 H660 0.960 . S
C647 C644 1.511 . S
C647 H661 0.961 . S
C647 H662 0.961 . S
C647 H663 0.961 . S
C648 C649 1.370 1_455 S
C648 C650 1.363 . S
C648 H664 0.931 . S
C649 C648 1.370 1_655 S
C649 C653 1.408 . S
C650 C648 1.363 . S
C650 C651 1.370 1_456 S
C650 C654 1.524 . S
C651 C643 1.503 . S
C651 C650 1.370 1_654 S
C651 C652 1.403 . S
C652 C651 1.403 . S
C652 C653 1.404 1_554 S
C652 C655 1.539 . S
C653 C649 1.408 . S
C653 C652 1.404 1_556 S
C653 H665 0.930 . S
C654 C650 1.524 . S
C654 H666 0.956 . S
C654 H667 0.961 1_455 S
C654 H668 0.961 . S
C655 C652 1.539 . S
C655 H669 0.958 . S
C655 H670 0.961 . S
C655 H671 0.960 . S
H656 C640 0.931 . S
H657 C645 0.929 . S
H658 C646 0.960 . S
H659 C646 0.962 . S
H660 C646 0.960 . S
H661 C647 0.961 . S
H662 C647 0.961 . S
H663 C647 0.961 . S
H664 C648 0.931 . S
H665 C653 0.930 . S
H666 C654 0.956 . S
H667 C654 0.961 1_655 S
H668 C654 0.961 . S
H669 C655 0.958 . S
H670 C655 0.961 . S
H671 C655 0.960 . S
C672 C673 1.391 . S
C672 C674 1.394 . S
C672 H688 0.931 . S
C673 C672 1.391 . S
C673 C677 1.376 1_455 S
C674 C672 1.394 . S
C674 C675 1.369 1_455 S
C674 C678 1.531 . S
C675 C674 1.369 1_655 S
C675 C676 1.410 . S
C675 C683 1.503 . S
C676 C675 1.410 . S
C676 C677 1.392 . S
C676 C679 1.511 . S
C677 C673 1.376 1_655 S
C677 C676 1.392 . S
C677 H689 0.929 . S
C678 C674 1.531 . S
C678 H690 0.960 . S
C678 H691 0.962 . S
C678 H692 0.960 . S
C679 C676 1.511 . S
C679 H693 0.961 . S
C679 H694 0.961 . S
C679 H695 0.961 . S
C680 C681 1.370 . S
C680 C682 1.363 . S
C680 H696 0.931 . S
C681 C680 1.370 . S
C681 C685 1.408 . S
C682 C680 1.363 . S
C682 C683 1.370 . S
C682 C686 1.524 . S
C683 C675 1.503 . S
C683 C682 1.370 . S
C683 C684 1.403 . S
C684 C683 1.403 . S
C684 C685 1.404 . S
C684 C687 1.539 . S
C685 C681 1.408 . S
C685 C684 1.404 . S
C685 H697 0.930 . S
C686 C682 1.524 . S
C686 H698 0.956 1_655 S
C686 H699 0.961 . S
C686 H700 0.961 . S
C687 C684 1.539 . S
C687 H701 0.958 . S
C687 H702 0.961 . S
C687 H703 0.960 . S
H688 C672 0.931 . S
H689 C677 0.929 . S
H690 C678 0.960 . S
H691 C678 0.962 . S
H692 C678 0.960 . S
H693 C679 0.961 . S
H694 C679 0.961 . S
H695 C679 0.961 . S
H696 C680 0.931 . S
H697 C685 0.930 . S
H698 C686 0.956 1_455 S
H699 C686 0.961 . S
H700 C686 0.961 . S
H701 C687 0.958 . S
H702 C687 0.961 . S
H703 C687 0.960 . S
C704 C705 1.391 1_565 S
C704 C706 1.394 . S
C704 H720 0.931 . S
C705 C704 1.391 1_545 S
C705 C709 1.376 1_545 S
C706 C704 1.394 . S
C706 C707 1.369 . S
C706 C710 1.531 . S
C707 C706 1.369 . S
C707 C708 1.410 . S
C707 C715 1.503 . S
C708 C707 1.410 . S
C708 C709 1.392 . S
C708 C711 1.511 . S
C709 C705 1.376 1_565 S
C709 C708 1.392 . S
C709 H721 0.929 . S
C710 C706 1.531 . S
C710 H722 0.960 . S
C710 H723 0.962 . S
C710 H724 0.960 . S
C711 C708 1.511 . S
C711 H725 0.961 . S
C711 H726 0.961 . S
C711 H727 0.961 . S
C712 C713 1.370 . S
C712 C714 1.363 . S
C712 H728 0.931 1_565 S
C713 C712 1.370 . S
C713 C717 1.408 . S
C714 C712 1.363 . S
C714 C715 1.370 . S
C714 C718 1.524 1_565 S
C715 C707 1.503 . S
C715 C714 1.370 . S
C715 C716 1.403 . S
C716 C715 1.403 . S
C716 C717 1.404 . S
C716 C719 1.539 . S
C717 C713 1.408 . S
C717 C716 1.404 . S
C717 H729 0.930 . S
C718 C714 1.524 1_545 S
C718 H730 0.956 . S
C718 H731 0.961 . S
C718 H732 0.961 . S
C719 C716 1.539 . S
C719 H733 0.958 . S
C719 H734 0.961 . S
C719 H735 0.960 . S
H720 C704 0.931 . S
H721 C709 0.929 . S
H722 C710 0.960 . S
H723 C710 0.962 . S
H724 C710 0.960 . S
H725 C711 0.961 . S
H726 C711 0.961 . S
H727 C711 0.961 . S
H728 C712 0.931 1_545 S
H729 C717 0.930 . S
H730 C718 0.956 . S
H731 C718 0.961 . S
H732 C718 0.961 . S
H733 C719 0.958 . S
H734 C719 0.961 . S
H735 C719 0.960 . S
C736 C737 1.391 . S
C736 C738 1.394 . S
C736 H752 0.931 . S
C737 C736 1.391 . S
C737 C741 1.376 . S
C738 C736 1.394 . S
C738 C739 1.369 . S
C738 C742 1.531 . S
C739 C738 1.369 . S
C739 C740 1.410 . S
C739 C747 1.503 . S
C740 C739 1.410 . S
C740 C741 1.392 . S
C740 C743 1.511 . S
C741 C737 1.376 . S
C741 C740 1.392 . S
C741 H753 0.929 . S
C742 C738 1.531 . S
C742 H754 0.960 . S
C742 H755 0.962 . S
C742 H756 0.960 . S
C743 C740 1.511 . S
C743 H757 0.961 . S
C743 H758 0.961 . S
C743 H759 0.961 . S
C744 C745 1.370 . S
C744 C746 1.363 . S
C744 H760 0.931 . S
C745 C744 1.370 . S
C745 C749 1.408 . S
C746 C744 1.363 . S
C746 C747 1.370 . S
C746 C750 1.524 . S
C747 C739 1.503 . S
C747 C746 1.370 . S
C747 C748 1.403 . S
C748 C747 1.403 . S
C748 C749 1.404 . S
C748 C751 1.539 . S
C749 C745 1.408 . S
C749 C748 1.404 . S
C749 H761 0.930 . S
C750 C746 1.524 . S
C750 H762 0.956 . S
C750 H763 0.961 . S
C750 H764 0.961 . S
C751 C748 1.539 . S
C751 H765 0.958 . S
C751 H766 0.961 . S
C751 H767 0.960 . S
H752 C736 0.931 . S
H753 C741 0.929 . S
H754 C742 0.960 . S
H755 C742 0.962 . S
H756 C742 0.960 . S
H757 C743 0.961 . S
H758 C743 0.961 . S
H759 C743 0.961 . S
H760 C744 0.931 . S
H761 C749 0.930 . S
H762 C750 0.956 . S
H763 C750 0.961 . S
H764 C750 0.961 . S
H765 C751 0.958 . S
H766 C751 0.961 . S
H767 C751 0.960 . S
C768 C769 1.391 . S
C768 C770 1.394 . S
C768 H784 0.931 . S
C769 C768 1.391 . S
C769 C773 1.376 . S
C770 C768 1.394 . S
C770 C771 1.369 . S
C770 C774 1.531 . S
C771 C770 1.369 . S
C771 C772 1.410 . S
C771 C779 1.503 . S
C772 C771 1.410 . S
C772 C773 1.392 . S
C772 C775 1.511 . S
C773 C769 1.376 . S
C773 C772 1.392 . S
C773 H785 0.929 . S
C774 C770 1.531 . S
C774 H786 0.960 . S
C774 H787 0.962 . S
C774 H788 0.960 . S
C775 C772 1.511 . S
C775 H789 0.961 . S
C775 H790 0.961 . S
C775 H791 0.961 . S
C776 C777 1.370 . S
C776 C778 1.363 . S
C776 H792 0.931 . S
C777 C776 1.370 . S
C777 C781 1.408 . S
C778 C776 1.363 . S
C778 C779 1.370 . S
C778 C782 1.524 . S
C779 C771 1.503 . S
C779 C778 1.370 . S
C779 C780 1.403 . S
C780 C779 1.403 . S
C780 C781 1.404 . S
C780 C783 1.539 . S
C781 C777 1.408 . S
C781 C780 1.404 . S
C781 H793 0.930 . S
C782 C778 1.524 . S
C782 H794 0.956 . S
C782 H795 0.961 . S
C782 H796 0.961 . S
C783 C780 1.539 . S
C783 H797 0.958 . S
C783 H798 0.961 . S
C783 H799 0.960 . S
H784 C768 0.931 . S
H785 C773 0.929 . S
H786 C774 0.960 . S
H787 C774 0.962 . S
H788 C774 0.960 . S
H789 C775 0.961 . S
H790 C775 0.961 . S
H791 C775 0.961 . S
H792 C776 0.931 . S
H793 C781 0.930 . S
H794 C782 0.956 . S
H795 C782 0.961 . S
H796 C782 0.961 . S
H797 C783 0.958 . S
H798 C783 0.961 . S
H799 C783 0.960 . S
C800 C801 1.391 . S
C800 C802 1.394 . S
C800 H816 0.931 . S
C801 C800 1.391 . S
C801 C805 1.376 1_655 S
C802 C800 1.394 . S
C802 C803 1.369 1_655 S
C802 C806 1.531 . S
C803 C802 1.369 1_455 S
C803 C804 1.410 . S
C803 C811 1.503 . S
C804 C803 1.410 . S
C804 C805 1.392 . S
C804 C807 1.511 . S
C805 C801 1.376 1_455 S
C805 C804 1.392 . S
C805 H817 0.929 . S
C806 C802 1.531 . S
C806 H818 0.960 . S
C806 H819 0.962 . S
C806 H820 0.960 . S
C807 C804 1.511 . S
C807 H821 0.961 . S
C807 H822 0.961 . S
C807 H823 0.961 . S
C808 C809 1.370 . S
C808 C810 1.363 . S
C808 H824 0.931 . S
C809 C808 1.370 . S
C809 C813 1.408 1_556 S
C810 C808 1.363 . S
C810 C811 1.370 1_556 S
C810 C814 1.524 . S
C811 C803 1.503 . S
C811 C810 1.370 1_554 S
C811 C812 1.403 . S
C812 C811 1.403 . S
C812 C813 1.404 . S
C812 C815 1.539 . S
C813 C809 1.408 1_554 S
C813 C812 1.404 . S
C813 H825 0.930 . S
C814 C810 1.524 . S
C814 H826 0.956 1_455 S
C814 H827 0.961 . S
C814 H828 0.961 . S
C815 C812 1.539 . S
C815 H829 0.958 . S
C815 H830 0.961 . S
C815 H831 0.960 . S
H816 C800 0.931 . S
H817 C805 0.929 . S
H818 C806 0.960 . S
H819 C806 0.962 . S
H820 C806 0.960 . S
H821 C807 0.961 . S
H822 C807 0.961 . S
H823 C807 0.961 . S
H824 C808 0.931 . S
H825 C813 0.930 . S
H826 C814 0.956 1_655 S
H827 C814 0.961 . S
H828 C814 0.961 . S
H829 C815 0.958 . S
H830 C815 0.961 . S
H831 C815 0.960 . S
C832 C833 1.391 1_545 S
C832 C834 1.394 . S
C832 H848 0.931 . S
C833 C832 1.391 1_565 S
C833 C837 1.376 . S
C834 C832 1.394 . S
C834 C835 1.369 . S
C834 C838 1.531 . S
C835 C834 1.369 . S
C835 C836 1.410 1_545 S
C835 C843 1.503 . S
C836 C835 1.410 1_565 S
C836 C837 1.392 . S
C836 C839 1.511 . S
C837 C833 1.376 . S
C837 C836 1.392 . S
C837 H849 0.929 . S
C838 C834 1.531 . S
C838 H850 0.960 1_554 S
C838 H851 0.962 . S
C838 H852 0.960 . S
C839 C836 1.511 . S
C839 H853 0.961 . S
C839 H854 0.961 . S
C839 H855 0.961 . S
C840 C841 1.370 1_554 S
C840 C842 1.363 . S
C840 H856 0.931 . S
C841 C840 1.370 1_556 S
C841 C845 1.408 . S
C842 C840 1.363 . S
C842 C843 1.370 . S
C842 C846 1.524 . S
C843 C835 1.503 . S
C843 C842 1.370 . S
C843 C844 1.403 1_554 S
C844 C843 1.403 1_556 S
C844 C845 1.404 . S
C844 C847 1.539 1_545 S
C845 C841 1.408 . S
C845 C844 1.404 . S
C845 H857 0.930 . S
C846 C842 1.524 . S
C846 H858 0.956 . S
C846 H859 0.961 . S
C846 H860 0.961 . S
C847 C844 1.539 1_565 S
C847 H861 0.953 1_565 S
C847 H862 0.961 . S
C847 H863 0.960 . S
H848 C832 0.931 . S
H849 C837 0.929 . S
H850 C838 0.960 1_556 S
H851 C838 0.962 . S
H852 C838 0.960 . S
H853 C839 0.961 . S
H854 C839 0.961 . S
H855 C839 0.961 . S
H856 C840 0.931 . S
H857 C845 0.930 . S
H858 C846 0.956 . S
H859 C846 0.961 . S
H860 C846 0.961 . S
H861 C847 0.953 1_545 S
H862 C847 0.961 . S
H863 C847 0.960 . S
C864 C865 1.391 . S
C864 C866 1.394 . S
C864 H880 0.931 . S
C865 C864 1.391 . S
C865 C869 1.376 . S
C866 C864 1.394 . S
C866 C867 1.369 . S
C866 C870 1.531 . S
C867 C866 1.369 . S
C867 C868 1.410 . S
C867 C875 1.503 . S
C868 C867 1.410 . S
C868 C869 1.392 . S
C868 C871 1.511 1_554 S
C869 C865 1.376 . S
C869 C868 1.392 . S
C869 H881 0.929 . S
C870 C866 1.531 . S
C870 H882 0.960 . S
C870 H883 0.962 . S
C870 H884 0.960 . S
C871 C868 1.511 1_556 S
C871 H885 0.961 . S
C871 H886 0.961 . S
C871 H887 0.961 . S
C872 C873 1.370 . S
C872 C874 1.363 1_556 S
C872 H888 0.931 . S
C873 C872 1.370 . S
C873 C877 1.408 1_556 S
C874 C872 1.363 1_554 S
C874 C875 1.370 . S
C874 C878 1.524 . S
C875 C867 1.503 . S
C875 C874 1.370 . S
C875 C876 1.403 . S
C876 C875 1.403 . S
C876 C877 1.404 . S
C876 C879 1.539 . S
C877 C873 1.408 1_554 S
C877 C876 1.404 . S
C877 H889 0.930 . S
C878 C874 1.524 . S
C878 H890 0.956 . S
C878 H891 0.961 . S
C878 H892 0.961 . S
C879 C876 1.539 . S
C879 H893 0.958 . S
C879 H894 0.961 . S
C879 H895 0.960 . S
H880 C864 0.931 . S
H881 C869 0.929 . S
H882 C870 0.960 . S
H883 C870 0.962 . S
H884 C870 0.960 . S
H885 C871 0.961 . S
H886 C871 0.961 . S
H887 C871 0.961 . S
H888 C872 0.931 . S
H889 C877 0.930 . S
H890 C878 0.956 . S
H891 C878 0.961 . S
H892 C878 0.961 . S
H893 C879 0.958 . S
H894 C879 0.961 . S
H895 C879 0.960 . S
C896 C897 1.391 . S
C896 C898 1.394 . S
C896 H912 0.931 . S
C897 C896 1.391 . S
C897 C901 1.376 . S
C898 C896 1.394 . S
C898 C899 1.369 . S
C898 C902 1.531 . S
C899 C898 1.369 . S
C899 C900 1.410 . S
C899 C907 1.503 . S
C900 C899 1.410 . S
C900 C901 1.392 . S
C900 C903 1.511 . S
C901 C897 1.376 . S
C901 C900 1.392 . S
C901 H913 0.929 . S
C902 C898 1.531 . S
C902 H914 0.960 . S
C902 H915 0.962 . S
C902 H916 0.960 . S
C903 C900 1.511 . S
C903 H917 0.961 . S
C903 H918 0.961 . S
C903 H919 0.961 1_554 S
C904 C905 1.370 1_554 S
C904 C906 1.363 . S
C904 H920 0.931 . S
C905 C904 1.370 1_556 S
C905 C909 1.408 . S
C906 C904 1.363 . S
C906 C907 1.370 . S
C906 C910 1.524 . S
C907 C899 1.503 . S
C907 C906 1.370 . S
C907 C908 1.403 1_554 S
C908 C907 1.403 1_556 S
C908 C909 1.404 . S
C908 C911 1.539 . S
C909 C905 1.408 . S
C909 C908 1.404 . S
C909 H921 0.930 . S
C910 C906 1.524 . S
C910 H922 0.956 . S
C910 H923 0.961 . S
C910 H924 0.961 . S
C911 C908 1.539 . S
C911 H925 0.958 . S
C911 H926 0.961 . S
C911 H927 0.960 . S
H912 C896 0.931 . S
H913 C901 0.929 . S
H914 C902 0.960 . S
H915 C902 0.962 . S
H916 C902 0.960 . S
H917 C903 0.961 . S
H918 C903 0.961 . S
H919 C903 0.961 1_556 S
H920 C904 0.931 . S
H921 C909 0.930 . S
H922 C910 0.956 . S
H923 C910 0.961 . S
H924 C910 0.961 . S
H925 C911 0.958 . S
H926 C911 0.961 . S
H927 C911 0.960 . S
C928 C929 1.391 . S
C928 C930 1.394 . S
C928 H944 0.931 . S
C929 C928 1.391 . S
C929 C933 1.376 1_455 S
C930 C928 1.394 . S
C930 C931 1.369 . S
C930 C934 1.531 . S
C931 C930 1.369 . S
C931 C932 1.410 1_455 S
C931 C939 1.503 . S
C932 C931 1.410 1_655 S
C932 C933 1.392 . S
C932 C935 1.511 . S
C933 C929 1.376 1_655 S
C933 C932 1.392 . S
C933 H945 0.929 . S
C934 C930 1.531 . S
C934 H946 0.960 . S
C934 H947 0.962 . S
C934 H948 0.960 . S
C935 C932 1.511 . S
C935 H949 0.961 . S
C935 H950 0.961 . S
C935 H951 0.961 . S
C936 C937 1.370 1_655 S
C936 C938 1.363 . S
C936 H952 0.931 . S
C937 C936 1.370 1_455 S
C937 C941 1.408 . S
C938 C936 1.363 . S
C938 C939 1.370 1_655 S
C938 C942 1.524 . S
C939 C931 1.503 . S
C939 C938 1.370 1_455 S
C939 C940 1.403 . S
C940 C939 1.403 . S
C940 C941 1.404 . S
C940 C943 1.539 . S
C941 C937 1.408 . S
C941 C940 1.404 . S
C941 H953 0.930 . S
C942 C938 1.524 . S
C942 H954 0.956 . S
C942 H955 0.961 . S
C942 H956 0.961 . S
C943 C940 1.539 . S
C943 H957 0.958 . S
C943 H958 0.961 . S
C943 H959 0.960 . S
H944 C928 0.931 . S
H945 C933 0.929 . S
H946 C934 0.960 . S
H947 C934 0.962 . S
H948 C934 0.960 . S
H949 C935 0.961 . S
H950 C935 0.961 . S
H951 C935 0.961 . S
H952 C936 0.931 . S
H953 C941 0.930 . S
H954 C942 0.956 . S
H955 C942 0.961 . S
H956 C942 0.961 . S
H957 C943 0.958 . S
H958 C943 0.961 . S
H959 C943 0.960 . S
C960 C961 1.391 1_565 S
C960 C962 1.394 . S
C960 H976 0.931 . S
C961 C960 1.391 1_545 S
C961 C965 1.376 . S
C962 C960 1.394 . S
C962 C963 1.369 1_565 S
C962 C966 1.531 . S
C963 C962 1.369 1_545 S
C963 C964 1.410 . S
C963 C971 1.503 . S
C964 C963 1.410 . S
C964 C965 1.392 . S
C964 C967 1.511 . S
C965 C961 1.376 . S
C965 C964 1.392 . S
C965 H977 0.929 . S
C966 C962 1.531 . S
C966 H978 0.960 . S
C966 H979 0.962 . S
C966 H980 0.960 . S
C967 C964 1.511 . S
C967 H981 0.961 . S
C967 H982 0.961 . S
C967 H983 0.961 . S
C968 C969 1.370 . S
C968 C970 1.363 . S
C968 H984 0.931 . S
C969 C968 1.370 . S
C969 C973 1.408 . S
C970 C968 1.363 . S
C970 C971 1.370 . S
C970 C974 1.524 . S
C971 C963 1.503 . S
C971 C970 1.370 . S
C971 C972 1.403 . S
C972 C971 1.403 . S
C972 C973 1.404 . S
C972 C975 1.539 . S
C973 C969 1.408 . S
C973 C972 1.404 . S
C973 H985 0.930 . S
C974 C970 1.524 . S
C974 H986 0.956 1_545 S
C974 H987 0.961 . S
C974 H988 0.961 . S
C975 C972 1.539 . S
C975 H989 0.958 1_545 S
C975 H990 0.961 . S
C975 H991 0.960 . S
H976 C960 0.931 . S
H977 C965 0.929 . S
H978 C966 0.960 . S
H979 C966 0.962 . S
H980 C966 0.960 . S
H981 C967 0.961 . S
H982 C967 0.961 . S
H983 C967 0.961 . S
H984 C968 0.931 . S
H985 C973 0.930 . S
H986 C974 0.956 1_565 S
H987 C974 0.961 . S
H988 C974 0.961 . S
H989 C975 0.958 1_565 S
H990 C975 0.961 . S
H991 C975 0.960 . S
C992 C993 1.391 . S
C992 C994 1.394 . S
C992 H1008 0.931 . S
C993 C992 1.391 . S
C993 C997 1.376 . S
C994 C992 1.394 . S
C994 C995 1.369 . S
C994 C998 1.531 . S
C995 C994 1.369 . S
C995 C996 1.410 . S
C995 C1003 1.503 . S
C996 C995 1.410 . S
C996 C997 1.392 . S
C996 C999 1.511 . S
C997 C993 1.376 . S
C997 C996 1.392 . S
C997 H1009 0.929 . S
C998 C994 1.531 . S
C998 H1010 0.960 . S
C998 H1011 0.962 . S
C998 H1012 0.960 . S
C999 C996 1.511 . S
C999 H1013 0.961 . S
C999 H1014 0.961 . S
C999 H1015 0.961 . S
C1000 C1001 1.370 . S
C1000 C1002 1.363 . S
C1000 H1016 0.931 . S
C1001 C1000 1.370 . S
C1001 C1005 1.408 . S
C1002 C1000 1.363 . S
C1002 C1003 1.370 . S
C1002 C1006 1.524 . S
C1003 C995 1.503 . S
C1003 C1002 1.370 . S
C1003 C1004 1.403 . S
C1004 C1003 1.403 . S
C1004 C1005 1.404 . S
C1004 C1007 1.539 . S
C1005 C1001 1.408 . S
C1005 C1004 1.404 . S
C1005 H1017 0.930 . S
C1006 C1002 1.524 . S
C1006 H1018 0.956 . S
C1006 H1019 0.961 . S
C1006 H1020 0.961 . S
C1007 C1004 1.539 . S
C1007 H1021 0.958 . S
C1007 H1022 0.961 . S
C1007 H1023 0.960 . S
H1008 C992 0.931 . S
H1009 C997 0.929 . S
H1010 C998 0.960 . S
H1011 C998 0.962 . S
H1012 C998 0.960 . S
H1013 C999 0.961 . S
H1014 C999 0.961 . S
H1015 C999 0.961 . S
H1016 C1000 0.931 . S
H1017 C1005 0.930 . S
H1018 C1006 0.956 . S
H1019 C1006 0.961 . S
H1020 C1006 0.961 . S
H1021 C1007 0.958 . S
H1022 C1007 0.961 . S
H1023 C1007 0.960 . S
C1024 C1025 1.391 . S
C1024 C1026 1.394 . S
C1024 H1040 0.931 . S
C1025 C1024 1.391 . S
C1025 C1029 1.376 . S
C1026 C1024 1.394 . S
C1026 C1027 1.369 . S
C1026 C1030 1.531 . S
C1027 C1026 1.369 . S
C1027 C1028 1.410 . S
C1027 C1035 1.503 . S
C1028 C1027 1.410 . S
C1028 C1029 1.392 . S
C1028 C1031 1.511 . S
C1029 C1025 1.376 . S
C1029 C1028 1.392 . S
C1029 H1041 0.929 . S
C1030 C1026 1.531 . S
C1030 H1042 0.960 . S
C1030 H1043 0.962 . S
C1030 H1044 0.960 . S
C1031 C1028 1.511 . S
C1031 H1045 0.961 . S
C1031 H1046 0.961 . S
C1031 H1047 0.961 . S
C1032 C1033 1.370 . S
C1032 C1034 1.363 . S
C1032 H1048 0.931 . S
C1033 C1032 1.370 . S
C1033 C1037 1.408 . S
C1034 C1032 1.363 . S
C1034 C1035 1.370 . S
C1034 C1038 1.524 . S
C1035 C1027 1.503 . S
C1035 C1034 1.370 . S
C1035 C1036 1.403 . S
C1036 C1035 1.403 . S
C1036 C1037 1.404 . S
C1036 C1039 1.539 . S
C1037 C1033 1.408 . S
C1037 C1036 1.404 . S
C1037 H1049 0.930 . S
C1038 C1034 1.524 . S
C1038 H1050 0.956 . S
C1038 H1051 0.961 . S
C1038 H1052 0.961 . S
C1039 C1036 1.539 . S
C1039 H1053 0.958 . S
C1039 H1054 0.961 . S
C1039 H1055 0.960 . S
H1040 C1024 0.931 . S
H1041 C1029 0.929 . S
H1042 C1030 0.960 . S
H1043 C1030 0.962 . S
H1044 C1030 0.960 . S
H1045 C1031 0.961 . S
H1046 C1031 0.961 . S
H1047 C1031 0.961 . S
H1048 C1032 0.931 . S
H1049 C1037 0.930 . S
H1050 C1038 0.956 . S
H1051 C1038 0.961 . S
H1052 C1038 0.961 . S
H1053 C1039 0.958 . S
H1054 C1039 0.961 . S
H1055 C1039 0.960 . S
C1056 C1057 1.391 1_455 S
C1056 C1058 1.394 . S
C1056 H1072 0.931 . S
C1057 C1056 1.391 1_655 S
C1057 C1061 1.376 . S
C1058 C1056 1.394 . S
C1058 C1059 1.369 1_455 S
C1058 C1062 1.531 . S
C1059 C1058 1.369 1_655 S
C1059 C1060 1.410 . S
C1059 C1067 1.503 . S
C1060 C1059 1.410 . S
C1060 C1061 1.392 . S
C1060 C1063 1.511 . S
C1061 C1057 1.376 . S
C1061 C1060 1.392 . S
C1061 H1073 0.929 . S
C1062 C1058 1.531 . S
C1062 H1074 0.960 . S
C1062 H1075 0.962 . S
C1062 H1076 0.960 . S
C1063 C1060 1.511 . S
C1063 H1077 0.961 . S
C1063 H1078 0.961 . S
C1063 H1079 0.961 . S
C1064 C1065 1.370 1_455 S
C1064 C1066 1.363 . S
C1064 H1080 0.931 . S
C1065 C1064 1.370 1_655 S
C1065 C1069 1.408 . S
C1066 C1064 1.363 . S
C1066 C1067 1.370 1_455 S
C1066 C1070 1.524 . S
C1067 C1059 1.503 . S
C1067 C1066 1.370 1_655 S
C1067 C1068 1.403 . S
C1068 C1067 1.403 . S
C1068 C1069 1.404 . S
C1068 C1071 1.539 . S
C1069 C1065 1.408 . S
C1069 C1068 1.404 . S
C1069 H1081 0.930 . S
C1070 C1066 1.524 . S
C1070 H1082 0.956 . S
C1070 H1083 0.961 . S
C1070 H1084 0.961 . S
C1071 C1068 1.539 . S
C1071 H1085 0.958 . S
C1071 H1086 0.961 . S
C1071 H1087 0.960 . S
H1072 C1056 0.931 . S
H1073 C1061 0.929 . S
H1074 C1062 0.960 . S
H1075 C1062 0.962 . S
H1076 C1062 0.960 . S
H1077 C1063 0.961 . S
H1078 C1063 0.961 . S
H1079 C1063 0.961 . S
H1080 C1064 0.931 . S
H1081 C1069 0.930 . S
H1082 C1070 0.956 . S
H1083 C1070 0.961 . S
H1084 C1070 0.961 . S
H1085 C1071 0.958 . S
H1086 C1071 0.961 . S
H1087 C1071 0.960 . S
C1088 C1089 1.426 . S
C1088 C1090 1.394 . S
C1088 H1104 0.931 . S
C1089 C1088 1.426 . S
C1089 C1093 1.342 1_565 S
C1090 C1088 1.394 . S
C1090 C1091 1.369 . S
C1090 C1094 1.531 . S
C1091 C1090 1.369 . S
C1091 C1092 1.410 1_565 S
C1091 C1099 1.503 . S
C1092 C1091 1.410 1_545 S
C1092 C1093 1.392 . S
C1092 C1095 1.511 . S
C1093 C1089 1.342 1_545 S
C1093 C1092 1.392 . S
C1093 H1105 0.929 . S
C1094 C1090 1.531 . S
C1094 H1106 0.960 . S
C1094 H1107 0.962 . S
C1094 H1108 0.960 . S
C1095 C1092 1.511 . S
C1095 H1109 0.961 . S
C1095 H1110 0.961 . S
C1095 H1111 0.961 . S
C1096 C1097 1.370 . S
C1096 C1098 1.363 . S
C1096 H1112 0.931 . S
C1097 C1096 1.370 . S
C1097 C1101 1.408 1_565 S
C1098 C1096 1.363 . S
C1098 C1099 1.370 . S
C1098 C1102 1.524 . S
C1099 C1091 1.503 . S
C1099 C1098 1.370 . S
C1099 C1100 1.403 1_565 S
C1100 C1099 1.403 1_545 S
C1100 C1101 1.404 . S
C1100 C1103 1.539 . S
C1101 C1097 1.408 1_545 S
C1101 C1100 1.404 . S
C1101 H1113 0.930 . S
C1102 C1098 1.524 . S
C1102 H1114 0.956 . S
C1102 H1115 0.961 . S
C1102 H1116 0.961 . S
C1103 C1100 1.539 . S
C1103 H1117 0.958 . S
C1103 H1118 0.961 . S
C1103 H1119 0.960 . S
H1104 C1088 0.931 . S
H1105 C1093 0.929 . S
H1106 C1094 0.960 . S
H1107 C1094 0.962 . S
H1108 C1094 0.960 . S
H1109 C1095 0.961 . S
H1110 C1095 0.961 . S
H1111 C1095 0.961 . S
H1112 C1096 0.931 . S
H1113 C1101 0.930 . S
H1114 C1102 0.956 . S
H1115 C1102 0.961 . S
H1116 C1102 0.961 . S
H1117 C1103 0.958 . S
H1118 C1103 0.961 . S
H1119 C1103 0.960 . S
C1120 C1121 1.391 . S
C1120 C1122 1.394 . S
C1120 H1136 0.931 . S
C1121 C1120 1.391 . S
C1121 C1125 1.376 . S
C1122 C1120 1.394 . S
C1122 C1123 1.369 . S
C1122 C1126 1.531 . S
C1123 C1122 1.369 . S
C1123 C1124 1.410 . S
C1123 C1131 1.503 . S
C1124 C1123 1.410 . S
C1124 C1125 1.392 . S
C1124 C1127 1.511 . S
C1125 C1121 1.376 . S
C1125 C1124 1.392 . S
C1125 H1137 0.929 . S
C1126 C1122 1.531 . S
C1126 H1138 0.960 . S
C1126 H1139 0.962 . S
C1126 H1140 0.960 . S
C1127 C1124 1.511 . S
C1127 H1141 0.961 . S
C1127 H1142 0.961 . S
C1127 H1143 0.961 . S
C1128 C1129 1.370 . S
C1128 C1130 1.363 . S
C1128 H1144 0.931 . S
C1129 C1128 1.370 . S
C1129 C1133 1.408 . S
C1130 C1128 1.363 . S
C1130 C1131 1.370 . S
C1130 C1134 1.524 . S
C1131 C1123 1.503 . S
C1131 C1130 1.370 . S
C1131 C1132 1.403 . S
C1132 C1131 1.403 . S
C1132 C1133 1.404 . S
C1132 C1135 1.539 . S
C1133 C1129 1.408 . S
C1133 C1132 1.404 . S
C1133 H1145 0.930 . S
C1134 C1130 1.524 . S
C1134 H1146 0.956 . S
C1134 H1147 0.961 . S
C1134 H1148 0.961 . S
C1135 C1132 1.539 . S
C1135 H1149 0.958 . S
C1135 H1150 0.961 . S
C1135 H1151 0.960 . S
H1136 C1120 0.931 . S
H1137 C1125 0.929 . S
H1138 C1126 0.960 . S
H1139 C1126 0.962 . S
H1140 C1126 0.960 . S
H1141 C1127 0.961 . S
H1142 C1127 0.961 . S
H1143 C1127 0.961 . S
H1144 C1128 0.931 . S
H1145 C1133 0.930 . S
H1146 C1134 0.956 . S
H1147 C1134 0.961 . S
H1148 C1134 0.961 . S
H1149 C1135 0.958 . S
H1150 C1135 0.961 . S
H1151 C1135 0.960 . S
C1152 C1153 1.391 . S
C1152 C1154 1.394 . S
C1152 H1168 0.931 . S
C1153 C1152 1.391 . S
C1153 C1157 1.376 . S
C1154 C1152 1.394 . S
C1154 C1155 1.369 . S
C1154 C1158 1.531 . S
C1155 C1154 1.369 . S
C1155 C1156 1.410 . S
C1155 C1163 1.503 . S
C1156 C1155 1.410 . S
C1156 C1157 1.392 . S
C1156 C1159 1.511 . S
C1157 C1153 1.376 . S
C1157 C1156 1.392 . S
C1157 H1169 0.929 . S
C1158 C1154 1.531 . S
C1158 H1170 0.960 . S
C1158 H1171 0.962 . S
C1158 H1172 0.960 . S
C1159 C1156 1.511 . S
C1159 H1173 0.961 . S
C1159 H1174 0.961 . S
C1159 H1175 0.961 . S
C1160 C1161 1.370 . S
C1160 C1162 1.363 . S
C1160 H1176 0.931 . S
C1161 C1160 1.370 . S
C1161 C1165 1.408 . S
C1162 C1160 1.363 . S
C1162 C1163 1.370 . S
C1162 C1166 1.524 . S
C1163 C1155 1.503 . S
C1163 C1162 1.370 . S
C1163 C1164 1.403 . S
C1164 C1163 1.403 . S
C1164 C1165 1.404 . S
C1164 C1167 1.539 . S
C1165 C1161 1.408 . S
C1165 C1164 1.404 . S
C1165 H1177 0.930 . S
C1166 C1162 1.524 . S
C1166 H1178 0.956 . S
C1166 H1179 0.961 . S
C1166 H1180 0.961 . S
C1167 C1164 1.539 . S
C1167 H1181 0.958 . S
C1167 H1182 0.961 . S
C1167 H1183 0.960 . S
H1168 C1152 0.931 . S
H1169 C1157 0.929 . S
H1170 C1158 0.960 . S
H1171 C1158 0.962 . S
H1172 C1158 0.960 . S
H1173 C1159 0.961 . S
H1174 C1159 0.961 . S
H1175 C1159 0.961 . S
H1176 C1160 0.931 . S
H1177 C1165 0.930 . S
H1178 C1166 0.956 . S
H1179 C1166 0.961 . S
H1180 C1166 0.961 . S
H1181 C1167 0.958 . S
H1182 C1167 0.961 . S
H1183 C1167 0.960 . S
C417 C215 1.988 1_565 S
C425 C258 2.185 1_545 S
C457 C298 2.203 . S
C449 C247 1.988 . S
C489 C338 2.201 . S
C481 C151 2.056 . S
C521 C378 2.189 1_455 S
C513 C183 2.030 1_655 S
C553 C271 2.190 1_565 S
C545 C87 2.027 1_565 S
C577 C119 2.067 . S
C585 C311 2.201 . S
C609 C23 2.047 . S
C617 C351 2.200 . S
C641 C55 2.049 1_655 S
C649 C391 2.192 1_655 S
C681 C282 0.425 . S
C673 C189 0.410 . S
C713 C322 0.439 . S
C705 C221 0.415 . S
C745 C362 0.379 . S
C737 C253 0.341 . S
C769 C157 0.425 . S
C777 C402 0.427 . S
C801 C61 0.468 1_655 S
C809 C265 0.411 . S
C841 C305 0.398 . S
C833 C93 0.599 1_565 S
C873 C345 0.436 . S
C865 C125 0.399 . S
C897 C29 0.483 . S
C905 C385 0.427 . S
C929 C177 2.465 . S
C937 C259 2.817 . S
C961 C209 2.496 . S
C969 C299 2.787 . S
C1001 C339 2.776 . S
C993 C241 2.466 . S
C1033 C379 2.807 . S
C1025 C145 2.448 . S
C1057 C49 2.513 1_655 S
C1065 C278 2.828 . S
C1097 C318 2.785 . S
C1089 C81 2.502 1_565 S
C1129 C358 2.781 . S
C1121 C113 2.461 . S
C1153 C17 2.491 . S
C1161 C398 2.816 . S
