# Generated by pormake.
# Topology ctn, (3,4)-cn, num edge types: 1
# Building blocks:
#     Node 0, Type 0, BuildingBlock: MIDCAF_clean_linker_0, # of connection points: 3
#     Node 1, Type 0, BuildingBlock: MIDCAF_clean_linker_0, # of connection points: 3
#     Node 2, Type 0, BuildingBlock: MIDCAF_clean_linker_0, # of connection points: 3
#     Node 3, Type 0, BuildingBlock: MIDCAF_clean_linker_0, # of connection points: 3
#     Node 4, Type 0, BuildingBlock: MIDCAF_clean_linker_0, # of connection points: 3
#     Node 5, Type 0, BuildingBlock: MIDCAF_clean_linker_0, # of connection points: 3
#     Node 6, Type 0, BuildingBlock: MIDCAF_clean_linker_0, # of connection points: 3
#     Node 7, Type 0, BuildingBlock: MIDCAF_clean_linker_0, # of connection points: 3
#     Node 8, Type 0, BuildingBlock: MIDCAF_clean_linker_0, # of connection points: 3
#     Node 9, Type 0, BuildingBlock: MIDCAF_clean_linker_0, # of connection points: 3
#     Node 10, Type 0, BuildingBlock: MIDCAF_clean_linker_0, # of connection points: 3
#     Node 11, Type 0, BuildingBlock: MIDCAF_clean_linker_0, # of connection points: 3
#     Node 12, Type 0, BuildingBlock: MIDCAF_clean_linker_0, # of connection points: 3
#     Node 13, Type 0, BuildingBlock: MIDCAF_clean_linker_0, # of connection points: 3
#     Node 14, Type 0, BuildingBlock: MIDCAF_clean_linker_0, # of connection points: 3
#     Node 15, Type 0, BuildingBlock: MIDCAF_clean_linker_0, # of connection points: 3
#     Node 16, Type 1, BuildingBlock: TATPOV_clean_sbu_0, # of connection points: 4
#     Node 17, Type 1, BuildingBlock: TATPOV_clean_sbu_0, # of connection points: 4
#     Node 18, Type 1, BuildingBlock: TATPOV_clean_sbu_0, # of connection points: 4
#     Node 19, Type 1, BuildingBlock: TATPOV_clean_sbu_0, # of connection points: 4
#     Node 20, Type 1, BuildingBlock: TATPOV_clean_sbu_0, # of connection points: 4
#     Node 21, Type 1, BuildingBlock: TATPOV_clean_sbu_0, # of connection points: 4
#     Node 22, Type 1, BuildingBlock: TATPOV_clean_sbu_0, # of connection points: 4
#     Node 23, Type 1, BuildingBlock: TATPOV_clean_sbu_0, # of connection points: 4
#     Node 24, Type 1, BuildingBlock: TATPOV_clean_sbu_0, # of connection points: 4
#     Node 25, Type 1, BuildingBlock: TATPOV_clean_sbu_0, # of connection points: 4
#     Node 26, Type 1, BuildingBlock: TATPOV_clean_sbu_0, # of connection points: 4
#     Node 27, Type 1, BuildingBlock: TATPOV_clean_sbu_0, # of connection points: 4
#     Edge 28, Type (0, 1), BuildingBlock: UVAHIK_clean_linker_0, # of connection points: 2
#     Edge 29, Type (0, 1), BuildingBlock: UVAHIK_clean_linker_0, # of connection points: 2
#     Edge 30, Type (0, 1), BuildingBlock: UVAHIK_clean_linker_0, # of connection points: 2
#     Edge 31, Type (0, 1), BuildingBlock: UVAHIK_clean_linker_0, # of connection points: 2
#     Edge 32, Type (0, 1), BuildingBlock: UVAHIK_clean_linker_0, # of connection points: 2
#     Edge 33, Type (0, 1), BuildingBlock: UVAHIK_clean_linker_0, # of connection points: 2
#     Edge 34, Type (0, 1), BuildingBlock: UVAHIK_clean_linker_0, # of connection points: 2
#     Edge 35, Type (0, 1), BuildingBlock: UVAHIK_clean_linker_0, # of connection points: 2
#     Edge 36, Type (0, 1), BuildingBlock: UVAHIK_clean_linker_0, # of connection points: 2
#     Edge 37, Type (0, 1), BuildingBlock: UVAHIK_clean_linker_0, # of connection points: 2
#     Edge 38, Type (0, 1), BuildingBlock: UVAHIK_clean_linker_0, # of connection points: 2
#     Edge 39, Type (0, 1), BuildingBlock: UVAHIK_clean_linker_0, # of connection points: 2
#     Edge 40, Type (0, 1), BuildingBlock: UVAHIK_clean_linker_0, # of connection points: 2
#     Edge 41, Type (0, 1), BuildingBlock: UVAHIK_clean_linker_0, # of connection points: 2
#     Edge 42, Type (0, 1), BuildingBlock: UVAHIK_clean_linker_0, # of connection points: 2
#     Edge 43, Type (0, 1), BuildingBlock: UVAHIK_clean_linker_0, # of connection points: 2
#     Edge 44, Type (0, 1), BuildingBlock: UVAHIK_clean_linker_0, # of connection points: 2
#     Edge 45, Type (0, 1), BuildingBlock: UVAHIK_clean_linker_0, # of connection points: 2
#     Edge 46, Type (0, 1), BuildingBlock: UVAHIK_clean_linker_0, # of connection points: 2
#     Edge 47, Type (0, 1), BuildingBlock: UVAHIK_clean_linker_0, # of connection points: 2
#     Edge 48, Type (0, 1), BuildingBlock: UVAHIK_clean_linker_0, # of connection points: 2
#     Edge 49, Type (0, 1), BuildingBlock: UVAHIK_clean_linker_0, # of connection points: 2
#     Edge 50, Type (0, 1), BuildingBlock: UVAHIK_clean_linker_0, # of connection points: 2
#     Edge 51, Type (0, 1), BuildingBlock: UVAHIK_clean_linker_0, # of connection points: 2
#     Edge 52, Type (0, 1), BuildingBlock: UVAHIK_clean_linker_0, # of connection points: 2
#     Edge 53, Type (0, 1), BuildingBlock: UVAHIK_clean_linker_0, # of connection points: 2
#     Edge 54, Type (0, 1), BuildingBlock: UVAHIK_clean_linker_0, # of connection points: 2
#     Edge 55, Type (0, 1), BuildingBlock: UVAHIK_clean_linker_0, # of connection points: 2
#     Edge 56, Type (0, 1), BuildingBlock: UVAHIK_clean_linker_0, # of connection points: 2
#     Edge 57, Type (0, 1), BuildingBlock: UVAHIK_clean_linker_0, # of connection points: 2
#     Edge 58, Type (0, 1), BuildingBlock: UVAHIK_clean_linker_0, # of connection points: 2
#     Edge 59, Type (0, 1), BuildingBlock: UVAHIK_clean_linker_0, # of connection points: 2
#     Edge 60, Type (0, 1), BuildingBlock: UVAHIK_clean_linker_0, # of connection points: 2
#     Edge 61, Type (0, 1), BuildingBlock: UVAHIK_clean_linker_0, # of connection points: 2
#     Edge 62, Type (0, 1), BuildingBlock: UVAHIK_clean_linker_0, # of connection points: 2
#     Edge 63, Type (0, 1), BuildingBlock: UVAHIK_clean_linker_0, # of connection points: 2
#     Edge 64, Type (0, 1), BuildingBlock: UVAHIK_clean_linker_0, # of connection points: 2
#     Edge 65, Type (0, 1), BuildingBlock: UVAHIK_clean_linker_0, # of connection points: 2
#     Edge 66, Type (0, 1), BuildingBlock: UVAHIK_clean_linker_0, # of connection points: 2
#     Edge 67, Type (0, 1), BuildingBlock: UVAHIK_clean_linker_0, # of connection points: 2
#     Edge 68, Type (0, 1), BuildingBlock: UVAHIK_clean_linker_0, # of connection points: 2
#     Edge 69, Type (0, 1), BuildingBlock: UVAHIK_clean_linker_0, # of connection points: 2
#     Edge 70, Type (0, 1), BuildingBlock: UVAHIK_clean_linker_0, # of connection points: 2
#     Edge 71, Type (0, 1), BuildingBlock: UVAHIK_clean_linker_0, # of connection points: 2
#     Edge 72, Type (0, 1), BuildingBlock: UVAHIK_clean_linker_0, # of connection points: 2
#     Edge 73, Type (0, 1), BuildingBlock: UVAHIK_clean_linker_0, # of connection points: 2
#     Edge 74, Type (0, 1), BuildingBlock: UVAHIK_clean_linker_0, # of connection points: 2
#     Edge 75, Type (0, 1), BuildingBlock: UVAHIK_clean_linker_0, # of connection points: 2
# Relax obj value: 0.003
# Max RMSD: 0.049
# Mean RMSD: 0.022
data_MOF--net-ctn--node1-TATPOV_clean_sbu_0--node2-MIDCAF_clean_linker_0--edge1-UVAHIK_clean_linker_0
_symmetry_space_group_name_H-M    P1
_symmetry_Int_Tables_number       1
_symmetry_cell_setting            triclinic
loop_
_symmetry_equiv_pos_as_xyz
'x, y, z'
_cell_length_a     83.289989
_cell_length_b     83.268293
_cell_length_c     83.203237
_cell_angle_alpha  90.924003
_cell_angle_beta   90.933673
_cell_angle_gamma 90.936265
loop_
_atom_site_label
_atom_site_type_symbol
_atom_site_fract_x
_atom_site_fract_y
_atom_site_fract_z
_atom_type_partial_charge
C0 C 0.99525 0.04386 0.08084 0.0
C1 C 0.9963 0.03057 0.09098 0.0
C2 C 0.00734 0.0185 0.08736 0.0
C3 C 0.01714 0.01971 0.07394 0.0
H4 H 0.05636 -0.00057 0.0531 0.0
H5 H 0.07791 0.98047 0.04906 0.0
H6 H 0.09041 0.00398 0.00497 0.0
H7 H 0.06909 0.02316 0.00912 0.0
H8 H 0.0517 0.05451 -0.00075 0.0
H9 H 0.04802 0.0763 0.98049 0.0
H10 H 0.007 0.09232 0.00712 0.0
H11 H 0.01085 0.07076 0.02613 0.0
H12 H 0.0038 0.05545 0.05982 0.0
H13 H 0.98674 0.05328 0.08322 0.0
H14 H 0.00856 0.00819 0.09504 0.0
H15 H 0.02553 0.0102 0.07157 0.0
N16 N 0.03832 0.02351 0.047 0.0
N17 N 0.04571 0.03676 0.02353 0.0
N18 N 0.02442 0.04633 0.03887 0.0
C19 C 0.04798 0.02465 0.03404 0.0
C20 C 0.03395 0.04765 0.02583 0.0
C21 C 0.02651 0.0343 0.04951 0.0
C22 C 0.06095 0.01289 0.03146 0.0
C23 C 0.06367 0.00059 0.04253 0.0
C24 C 0.07599 0.98963 0.04017 0.0
C25 C 0.0859 0.9907 0.0267 0.0
C26 C 0.08314 0.00295 0.0156 0.0
C27 C 0.07083 0.0139 0.01795 0.0
C28 C 0.0316 0.06084 0.01427 0.0
C29 C 0.04188 0.06265 0.00115 0.0
C30 C 0.03971 0.07511 0.9903 0.0
C31 C 0.02721 0.08606 0.99228 0.0
C32 C 0.01689 0.08423 0.00536 0.0
C33 C 0.01906 0.07179 0.01622 0.0
C34 C 0.01608 0.033 0.06375 0.0
C35 C 0.00498 0.04504 0.06736 0.0
C36 C 0.24845 0.66611 0.24373 0.0
C37 C 0.23324 0.66533 0.23619 0.0
C38 C 0.22939 0.67679 0.22457 0.0
C39 C 0.24059 0.68867 0.22047 0.0
H40 H 0.24607 0.73245 0.19634 0.0
H41 H 0.2399 0.75387 0.17764 0.0
H42 H 0.29059 0.76473 0.17369 0.0
H43 H 0.29671 0.7438 0.1926 0.0
H44 H 0.32199 0.72643 0.21455 0.0
H45 H 0.34849 0.72697 0.22728 0.0
H46 H 0.33048 0.69762 0.26563 0.0
H47 H 0.30415 0.69655 0.25256 0.0
H48 H 0.27129 0.678 0.24559 0.0
H49 H 0.25187 0.65733 0.25256 0.0
H50 H 0.2177 0.67659 0.21866 0.0
H51 H 0.23728 0.69723 0.21139 0.0
N52 N 0.26447 0.71288 0.21226 0.0
N53 N 0.29084 0.72312 0.21428 0.0
N54 N 0.28317 0.70107 0.22963 0.0
C55 C 0.2758 0.72378 0.20777 0.0
C56 C 0.29461 0.71184 0.22523 0.0
C57 C 0.2681 0.70144 0.22317 0.0
C58 C 0.27189 0.73643 0.19606 0.0
C59 C 0.25589 0.73942 0.19148 0.0
C60 C 0.25235 0.75168 0.18072 0.0
C61 C 0.26473 0.76115 0.17427 0.0
C62 C 0.28071 0.75797 0.17871 0.0
C63 C 0.28423 0.74584 0.1895 0.0
C64 C 0.31091 0.71154 0.23259 0.0
C65 C 0.3237 0.72001 0.22565 0.0
C66 C 0.33889 0.72038 0.233 0.0
C67 C 0.34163 0.71246 0.24758 0.0
C68 C 0.3289 0.70368 0.25432 0.0
C69 C 0.31374 0.70316 0.24686 0.0
C70 C 0.25591 0.68929 0.22786 0.0
C71 C 0.25964 0.67793 0.23962 0.0
C72 C 0.95781 0.38162 0.04303 0.0
C73 C 0.94751 0.37882 0.0297 0.0
C74 C 0.93548 0.39002 0.02638 0.0
C75 C 0.93438 0.40412 0.03563 0.0
H76 H 0.90381 0.44178 0.05107 0.0
H77 H 0.88192 0.46045 0.04751 0.0
H78 H 0.91274 0.49948 0.06482 0.0
H79 H 0.93449 0.48077 0.06886 0.0
H80 H 0.97102 0.47387 0.07829 0.0
H81 H 0.99611 0.48233 0.09163 0.0
H82 H 0.00898 0.43257 0.09691 0.0
H83 H 0.98435 0.4242 0.08307 0.0
H84 H 0.9653 0.39774 0.06203 0.0
H85 H 0.96697 0.37307 0.04615 0.0
H86 H 0.92741 0.38832 0.01612 0.0
H87 H 0.92542 0.4128 0.03232 0.0
N88 N 0.93343 0.43351 0.05518 0.0
N89 N 0.94816 0.45326 0.0698 0.0
N90 N 0.95939 0.42813 0.06468 0.0
C91 C 0.93445 0.44851 0.06188 0.0
C92 C 0.96065 0.44311 0.07129 0.0
C93 C 0.94587 0.42324 0.05657 0.0
C94 C 0.92096 0.45977 0.06017 0.0
C95 C 0.90592 0.45433 0.05418 0.0
C96 C 0.89337 0.46505 0.05208 0.0
C97 C 0.89559 0.48149 0.05578 0.0
C98 C 0.91054 0.48687 0.06204 0.0
C99 C 0.92306 0.47613 0.06426 0.0
C100 C 0.97569 0.44836 0.07962 0.0
C101 C 0.97925 0.46476 0.08228 0.0
C102 C 0.99362 0.46961 0.08995 0.0
C103 C 0.00466 0.45815 0.09528 0.0
C104 C 0.00101 0.44176 0.09263 0.0
C105 C 0.98677 0.43693 0.08481 0.0
C106 C 0.94537 0.40736 0.0483 0.0
C107 C 0.95681 0.39575 0.05217 0.0
C108 C 0.73565 0.7526 0.16222 0.0
C109 C 0.7253 0.73924 0.15991 0.0
C110 C 0.71297 0.73664 0.17096 0.0
C111 C 0.71101 0.7472 0.184 0.0
H112 H 0.68234 0.75626 0.22368 0.0
H113 H 0.66065 0.75323 0.24286 0.0
H114 H 0.67898 0.79455 0.26977 0.0
H115 H 0.7004 0.7978 0.25064 0.0
H116 H 0.72543 0.82035 0.23585 0.0
H117 H 0.74342 0.84337 0.23947 0.0
H118 H 0.77294 0.8257 0.20102 0.0
H119 H 0.75467 0.80273 0.19708 0.0
H120 H 0.74198 0.77326 0.17658 0.0
H121 H 0.74543 0.7548 0.15408 0.0
H122 H 0.7047 0.72653 0.16943 0.0
H123 H 0.70135 0.74487 0.19224 0.0
N124 N 0.70766 0.76942 0.21098 0.0
N125 N 0.71597 0.79277 0.22508 0.0
N126 N 0.72938 0.7849 0.20184 0.0
C127 C 0.7059 0.77983 0.22357 0.0
C128 C 0.72773 0.79541 0.2143 0.0
C129 C 0.7194 0.77188 0.20005 0.0
C130 C 0.69308 0.77736 0.23549 0.0
C131 C 0.68179 0.76467 0.23372 0.0
C132 C 0.6694 0.76287 0.24475 0.0
C133 C 0.66804 0.77372 0.25776 0.0
C134 C 0.67953 0.78615 0.25972 0.0
C135 C 0.69187 0.78796 0.24874 0.0
C136 C 0.73862 0.80959 0.21623 0.0
C137 C 0.73573 0.82132 0.22813 0.0
C138 C 0.74611 0.83451 0.23027 0.0
C139 C 0.75971 0.8363 0.22064 0.0
C140 C 0.7625 0.82473 0.20856 0.0
C141 C 0.75206 0.81152 0.20636 0.0
C142 C 0.72137 0.76059 0.18628 0.0
C143 C 0.73371 0.76313 0.17522 0.0
C144 C 0.08061 0.90386 0.48054 0.0
C145 C 0.06721 0.89341 0.47912 0.0
C146 C 0.05487 0.89707 0.46805 0.0
C147 C 0.05554 0.91125 0.45928 0.0
H148 H 0.03749 0.9377 0.41825 0.0
H149 H 0.02296 0.94427 0.39368 0.0
H150 H 0.05292 0.98679 0.38881 0.0
H151 H 0.06684 0.98059 0.41382 0.0
H152 H 0.07635 0.99772 0.44933 0.0
H153 H 0.08688 0.01999 0.46593 0.0
H154 H 0.0925 0.98807 0.50598 0.0
H155 H 0.08235 0.96576 0.48939 0.0
H156 H 0.09128 0.92629 0.47391 0.0
H157 H 0.09057 0.90124 0.48855 0.0
H158 H 0.04426 0.88945 0.46672 0.0
H159 H 0.04556 0.91411 0.45137 0.0
N160 N 0.06114 0.94075 0.43998 0.0
N161 N 0.06658 0.96844 0.44292 0.0
N162 N 0.0738 0.95099 0.46345 0.0
C163 C 0.06066 0.95583 0.43395 0.0
C164 C 0.07303 0.96612 0.45776 0.0
C165 C 0.06797 0.93828 0.45467 0.0
C166 C 0.05313 0.95875 0.41808 0.0
C167 C 0.04107 0.94835 0.41182 0.0
C168 C 0.03281 0.95209 0.39764 0.0
C169 C 0.03663 0.96618 0.38927 0.0
C170 C 0.04935 0.97607 0.39512 0.0
C171 C 0.05739 0.97248 0.40943 0.0
C172 C 0.07872 0.97988 0.46793 0.0
C173 C 0.07974 0.99545 0.4617 0.0
C174 C 0.08562 0.00826 0.47126 0.0
C175 C 0.09056 0.00577 0.48726 0.0
C176 C 0.08899 0.99032 0.49363 0.0
C177 C 0.08319 0.97753 0.48408 0.0
C178 C 0.0684 0.92215 0.46165 0.0
C179 C 0.0811 0.91816 0.47206 0.0
C180 C 0.23958 0.74757 0.83041 0.0
C181 C 0.22662 0.75623 0.83658 0.0
C182 C 0.21199 0.75599 0.82791 0.0
C183 C 0.21029 0.74714 0.81354 0.0
H184 H 0.18293 0.74335 0.77153 0.0
H185 H 0.15992 0.74692 0.75359 0.0
H186 H 0.17343 0.70513 0.72588 0.0
H187 H 0.19637 0.70137 0.74387 0.0
H188 H 0.22523 0.67931 0.75876 0.0
H189 H 0.24425 0.65763 0.75463 0.0
H190 H 0.28088 0.68514 0.78058 0.0
H191 H 0.26184 0.70676 0.78502 0.0
H192 H 0.24807 0.73202 0.81183 0.0
H193 H 0.25113 0.74774 0.83658 0.0
H194 H 0.2017 0.76236 0.83238 0.0
H195 H 0.19877 0.74704 0.80731 0.0
N196 N 0.20799 0.72969 0.7831 0.0
N197 N 0.21693 0.70887 0.76635 0.0
N198 N 0.23225 0.717 0.78902 0.0
C199 C 0.20583 0.72014 0.76981 0.0
C200 C 0.2302 0.70728 0.77586 0.0
C201 C 0.22116 0.72818 0.79278 0.0
C202 C 0.19157 0.72209 0.75915 0.0
C203 C 0.181 0.73486 0.76166 0.0
C204 C 0.16785 0.73698 0.75133 0.0
C205 C 0.1649 0.72634 0.7383 0.0
C206 C 0.17531 0.71344 0.73591 0.0
C207 C 0.18852 0.71136 0.74618 0.0
C208 C 0.24201 0.6947 0.7723 0.0
C209 C 0.23738 0.68082 0.76345 0.0
C210 C 0.24822 0.6684 0.76112 0.0
C211 C 0.26398 0.66978 0.76729 0.0
C212 C 0.26881 0.68387 0.77562 0.0
C213 C 0.25788 0.69617 0.77824 0.0
C214 C 0.22315 0.73821 0.80757 0.0
C215 C 0.23785 0.73862 0.81614 0.0
C216 C 0.97627 0.59427 0.484 0.0
C217 C 0.96757 0.59618 0.49822 0.0
C218 C 0.9522 0.5891 0.49913 0.0
C219 C 0.94565 0.58029 0.48615 0.0
H220 H 0.91062 0.54765 0.47572 0.0
H221 H 0.88735 0.53036 0.48027 0.0
H222 H 0.88536 0.51727 0.42988 0.0
H223 H 0.90883 0.53451 0.42518 0.0
H224 H 0.94802 0.53068 0.41226 0.0
H225 H 0.96638 0.52361 0.39079 0.0
H226 H 0.99295 0.56793 0.39932 0.0
H227 H 0.97476 0.575 0.42102 0.0
H228 H 0.97679 0.58414 0.46024 0.0
H229 H 0.98819 0.59951 0.48297 0.0
H230 H 0.94506 0.59061 0.5098 0.0
H231 H 0.93376 0.57504 0.48732 0.0
N232 N 0.93304 0.56103 0.45978 0.0
N233 N 0.93558 0.5492 0.43423 0.0
N234 N 0.95592 0.56641 0.44466 0.0
C235 C 0.92695 0.55139 0.44778 0.0
C236 C 0.95004 0.55675 0.43256 0.0
C237 C 0.94748 0.56861 0.45832 0.0
C238 C 0.91174 0.54233 0.4501 0.0
C239 C 0.90515 0.54129 0.46552 0.0
C240 C 0.89183 0.53138 0.46817 0.0
C241 C 0.88467 0.52247 0.45544 0.0
C242 C 0.89065 0.52411 0.43987 0.0
C243 C 0.90414 0.53389 0.43723 0.0
C244 C 0.96 0.55336 0.4184 0.0
C245 C 0.95763 0.53904 0.40944 0.0
C246 C 0.96817 0.53494 0.39722 0.0
C247 C 0.98107 0.54521 0.39353 0.0
C248 C 0.98304 0.55986 0.40195 0.0
C249 C 0.97267 0.56384 0.41438 0.0
C250 C 0.95432 0.57835 0.47191 0.0
C251 C 0.96972 0.58544 0.47098 0.0
C252 C 0.84032 0.77419 0.75306 0.0
C253 C 0.84049 0.78116 0.73777 0.0
C254 C 0.82615 0.78738 0.73146 0.0
C255 C 0.81215 0.78717 0.74043 0.0
H256 H 0.77904 0.82219 0.75716 0.0
H257 H 0.76186 0.84541 0.75616 0.0
H258 H 0.72454 0.81864 0.78011 0.0
H259 H 0.74214 0.79564 0.78183 0.0
H260 H 0.7575 0.77102 0.80876 0.0
H261 H 0.75501 0.75415 0.83226 0.0
H262 H 0.80038 0.73236 0.82145 0.0
H263 H 0.80279 0.74893 0.79782 0.0
H264 H 0.82656 0.76859 0.77381 0.0
H265 H 0.85116 0.76944 0.75838 0.0
H266 H 0.82569 0.79244 0.71956 0.0
H267 H 0.80138 0.79226 0.73529 0.0
N268 N 0.7864 0.79258 0.76275 0.0
N269 N 0.7712 0.78347 0.78433 0.0
N270 N 0.7954 0.77101 0.77803 0.0
C271 C 0.77323 0.7938 0.77204 0.0
C272 C 0.78222 0.77203 0.7874 0.0
C273 C 0.79748 0.78117 0.76561 0.0
C274 C 0.762 0.80714 0.76972 0.0
C275 C 0.7671 0.82119 0.76206 0.0
C276 C 0.75718 0.83452 0.76141 0.0
C277 C 0.74182 0.83401 0.76819 0.0
C278 C 0.73645 0.81963 0.77514 0.0
C279 C 0.74648 0.80639 0.77603 0.0
C280 C 0.78036 0.76137 0.80136 0.0
C281 C 0.76693 0.76259 0.81132 0.0
C282 C 0.76554 0.753 0.82487 0.0
C283 C 0.77752 0.74197 0.82874 0.0
C284 C 0.79085 0.74062 0.81869 0.0
C285 C 0.79225 0.75019 0.80516 0.0
C286 C 0.81208 0.78048 0.75581 0.0
C287 C 0.82622 0.77375 0.76194 0.0
C288 C 0.34273 0.26549 0.27794 0.0
C289 C 0.34831 0.27526 0.26551 0.0
C290 C 0.33749 0.28561 0.25791 0.0
C291 C 0.32166 0.2866 0.26297 0.0
H292 H 0.28959 0.32324 0.27399 0.0
H293 H 0.27658 0.34911 0.27236 0.0
H294 H 0.23189 0.32715 0.28705 0.0
H295 H 0.24504 0.30141 0.28926 0.0
H296 H 0.25073 0.2723 0.31472 0.0
H297 H 0.2407 0.25363 0.3346 0.0
H298 H 0.27915 0.22124 0.3237 0.0
H299 H 0.28918 0.23978 0.30373 0.0
H300 H 0.32294 0.25891 0.29271 0.0
H301 H 0.35075 0.25746 0.28412 0.0
H302 H 0.34122 0.29297 0.24799 0.0
H303 H 0.31373 0.29485 0.25695 0.0
N304 N 0.29154 0.29263 0.27843 0.0
N305 N 0.26992 0.28335 0.29356 0.0
N306 N 0.29281 0.26757 0.2908 0.0
C307 C 0.27666 0.29489 0.28438 0.0
C308 C 0.27788 0.26963 0.29679 0.0
C309 C 0.29966 0.27899 0.28153 0.0
C310 C 0.26839 0.31027 0.28191 0.0
C311 C 0.27695 0.32389 0.27676 0.0
C312 C 0.26948 0.33874 0.27576 0.0
C313 C 0.25323 0.34028 0.27973 0.0
C314 C 0.24453 0.3265 0.28428 0.0
C315 C 0.25204 0.3117 0.28545 0.0
C316 C 0.27088 0.25763 0.30772 0.0
C317 C 0.25697 0.26112 0.31639 0.0
C318 C 0.25124 0.25047 0.32784 0.0
C319 C 0.2592 0.23605 0.33075 0.0
C320 C 0.27269 0.23223 0.32162 0.0
C321 C 0.2785 0.24292 0.31025 0.0
C322 C 0.31617 0.2771 0.2756 0.0
C323 C 0.32679 0.26635 0.28288 0.0
C324 C 0.46524 0.89469 0.53067 0.0
C325 C 0.45223 0.88989 0.52064 0.0
C326 C 0.43851 0.8995 0.52017 0.0
C327 C 0.438 0.91382 0.52911 0.0
H328 H 0.42001 0.96134 0.52608 0.0
H329 H 0.40048 0.982 0.51978 0.0
H330 H 0.40906 0.0042 0.56642 0.0
H331 H 0.42881 0.98371 0.57272 0.0
H332 H 0.46302 0.97598 0.5899 0.0
H333 H 0.48473 0.98351 0.60846 0.0
H334 H 0.51499 0.94797 0.5864 0.0
H335 H 0.49298 0.93997 0.5682 0.0
H336 H 0.47509 0.91243 0.54702 0.0
H337 H 0.47607 0.88769 0.53117 0.0
H338 H 0.42817 0.89602 0.51277 0.0
H339 H 0.4273 0.921 0.52828 0.0
N340 N 0.43887 0.94488 0.54517 0.0
N341 N 0.45069 0.963 0.56387 0.0
N342 N 0.46301 0.93847 0.55828 0.0
C343 C 0.43866 0.95919 0.55323 0.0
C344 C 0.46294 0.95275 0.56641 0.0
C345 C 0.45094 0.93438 0.54774 0.0
C346 C 0.42598 0.97094 0.54987 0.0
C347 C 0.41765 0.97054 0.53505 0.0
C348 C 0.40657 0.9824 0.53139 0.0
C349 C 0.4034 0.99468 0.5426 0.0
C350 C 0.41132 0.99482 0.55761 0.0
C351 C 0.42263 0.98314 0.56116 0.0
C352 C 0.47624 0.95733 0.57761 0.0
C353 C 0.47431 0.96978 0.58898 0.0
C354 C 0.48684 0.9742 0.59954 0.0
C355 C 0.50169 0.96643 0.59888 0.0
C356 C 0.50366 0.95407 0.58739 0.0
C357 C 0.49105 0.94951 0.57694 0.0
C358 C 0.45118 0.91883 0.53882 0.0
C359 C 0.46471 0.90897 0.53967 0.0
C360 C 0.23089 0.2551 0.66235 0.0
C361 C 0.22226 0.24049 0.66103 0.0
C362 C 0.21124 0.23657 0.67304 0.0
C363 C 0.20893 0.24702 0.68609 0.0
H364 H 0.17981 0.25517 0.72592 0.0
H365 H 0.15935 0.25059 0.74614 0.0
H366 H 0.17771 0.29151 0.77367 0.0
H367 H 0.19782 0.29629 0.75351 0.0
H368 H 0.21985 0.32132 0.73711 0.0
H369 H 0.23693 0.34506 0.74052 0.0
H370 H 0.26677 0.32855 0.70181 0.0
H371 H 0.2494 0.30489 0.69805 0.0
H372 H 0.23558 0.27661 0.676 0.0
H373 H 0.23962 0.25838 0.65342 0.0
H374 H 0.2043 0.22547 0.67227 0.0
H375 H 0.20035 0.24361 0.69513 0.0
N376 N 0.20437 0.2694 0.71274 0.0
N377 N 0.2119 0.29302 0.72681 0.0
N378 N 0.22478 0.28619 0.70295 0.0
C379 C 0.20252 0.27956 0.72552 0.0
C380 C 0.22304 0.29645 0.71561 0.0
C381 C 0.2155 0.27267 0.70139 0.0
C382 C 0.19041 0.27619 0.73797 0.0
C383 C 0.17951 0.26317 0.73631 0.0
C384 C 0.16783 0.26048 0.74793 0.0
C385 C 0.16682 0.27076 0.76144 0.0
C386 C 0.17795 0.28354 0.76325 0.0
C387 C 0.18956 0.28625 0.75167 0.0
C388 C 0.23328 0.31111 0.71736 0.0
C389 C 0.23003 0.32271 0.72927 0.0
C390 C 0.23988 0.33632 0.7313 0.0
C391 C 0.25331 0.33864 0.72154 0.0
C392 C 0.25644 0.3272 0.70943 0.0
C393 C 0.24651 0.31359 0.70734 0.0
C394 C 0.21765 0.2616 0.68746 0.0
C395 C 0.22863 0.26552 0.67539 0.0
C396 C 0.74971 0.16153 0.73688 0.0
C397 C 0.73501 0.16058 0.72835 0.0
C398 C 0.73151 0.17244 0.71704 0.0
C399 C 0.74255 0.18485 0.71418 0.0
H400 H 0.74734 0.23085 0.69397 0.0
H401 H 0.7413 0.25282 0.67591 0.0
H402 H 0.79202 0.26399 0.67283 0.0
H403 H 0.79797 0.24254 0.69122 0.0
H404 H 0.82268 0.22554 0.71427 0.0
H405 H 0.84854 0.22662 0.72823 0.0
H406 H 0.82972 0.19572 0.76496 0.0
H407 H 0.80401 0.19413 0.75062 0.0
H408 H 0.77196 0.17418 0.74079 0.0
H409 H 0.75267 0.15275 0.74587 0.0
H410 H 0.72036 0.17196 0.71016 0.0
H411 H 0.73952 0.19368 0.70525 0.0
N412 N 0.76583 0.21037 0.70874 0.0
N413 N 0.79165 0.22151 0.71266 0.0
N414 N 0.78407 0.19841 0.7265 0.0
C415 C 0.77694 0.22193 0.70541 0.0
C416 C 0.7953 0.20984 0.72324 0.0
C417 C 0.76933 0.19852 0.71923 0.0
C418 C 0.77314 0.23496 0.69411 0.0
C419 C 0.75719 0.23802 0.68944 0.0
C420 C 0.75373 0.25059 0.67904 0.0
C421 C 0.76615 0.2603 0.67299 0.0
C422 C 0.78209 0.25707 0.67755 0.0
C423 C 0.78553 0.24464 0.68803 0.0
C424 C 0.81123 0.20985 0.73139 0.0
C425 C 0.82407 0.21891 0.72528 0.0
C426 C 0.8389 0.21958 0.73335 0.0
C427 C 0.84121 0.2114 0.74784 0.0
C428 C 0.82846 0.20203 0.75375 0.0
C429 C 0.81367 0.20119 0.74556 0.0
C430 C 0.75735 0.18568 0.72257 0.0
C431 C 0.76075 0.17391 0.73401 0.0
C432 C 0.49323 0.5456 0.57816 0.0
C433 C 0.4934 0.53174 0.58757 0.0
C434 C 0.50423 0.51953 0.5838 0.0
C435 C 0.51481 0.52123 0.57104 0.0
H436 H 0.55068 0.49799 0.54613 0.0
H437 H 0.57176 0.47853 0.54217 0.0
H438 H 0.59778 0.51266 0.5134 0.0
H439 H 0.57639 0.53189 0.51685 0.0
H440 H 0.55765 0.56261 0.5044 0.0
H441 H 0.55537 0.58554 0.48669 0.0
H442 H 0.50953 0.59682 0.50717 0.0
H443 H 0.51167 0.57387 0.52482 0.0
H444 H 0.5033 0.55816 0.55842 0.0
H445 H 0.48489 0.55514 0.58065 0.0
H446 H 0.50475 0.50877 0.59092 0.0
H447 H 0.52309 0.51163 0.56859 0.0
N448 N 0.53806 0.52635 0.54605 0.0
N449 N 0.54787 0.54139 0.52461 0.0
N450 N 0.52536 0.5501 0.53867 0.0
C451 C 0.54892 0.52836 0.53419 0.0
C452 C 0.53608 0.55228 0.52672 0.0
C453 C 0.52628 0.5372 0.54841 0.0
C454 C 0.56181 0.51652 0.53181 0.0
C455 C 0.56089 0.50135 0.53894 0.0
C456 C 0.57306 0.4902 0.53674 0.0
C457 C 0.58656 0.49399 0.52749 0.0
C458 C 0.58747 0.50918 0.52037 0.0
C459 C 0.57521 0.52027 0.52243 0.0
C460 C 0.53484 0.56634 0.51606 0.0
C461 C 0.54707 0.56996 0.50515 0.0
C462 C 0.54582 0.58316 0.49505 0.0
C463 C 0.53226 0.59297 0.49552 0.0
C464 C 0.52004 0.58937 0.50641 0.0
C465 C 0.52133 0.57626 0.51659 0.0
C466 C 0.51475 0.53516 0.56169 0.0
C467 C 0.50374 0.54727 0.56534 0.0
C468 C 0.56891 0.39646 0.98022 0.0
C469 C 0.55451 0.38763 0.97816 0.0
C470 C 0.54538 0.38946 0.96396 0.0
C471 C 0.55026 0.40037 0.95233 0.0
H472 H 0.54033 0.41715 0.90561 0.0
H473 H 0.52297 0.42341 0.88257 0.0
H474 H 0.54963 0.46759 0.87594 0.0
H475 H 0.56699 0.46148 0.89864 0.0
H476 H 0.59838 0.46868 0.91996 0.0
H477 H 0.61535 0.49122 0.92908 0.0
H478 H 0.61057 0.4762 0.97822 0.0
H479 H 0.59354 0.45352 0.96915 0.0
H480 H 0.58471 0.41431 0.97088 0.0
H481 H 0.57614 0.39542 0.99108 0.0
H482 H 0.53431 0.38266 0.96197 0.0
H483 H 0.54274 0.40181 0.94173 0.0
N484 N 0.56079 0.42399 0.92908 0.0
N485 N 0.57556 0.44752 0.924 0.0
N486 N 0.5798 0.43395 0.94803 0.0
C487 C 0.56428 0.43642 0.91923 0.0
C488 C 0.58335 0.44639 0.93835 0.0
C489 C 0.56865 0.42262 0.94347 0.0
C490 C 0.55494 0.4389 0.90417 0.0
C491 C 0.54265 0.42808 0.8991 0.0
C492 C 0.53275 0.4316 0.88589 0.0
C493 C 0.5349 0.44605 0.87765 0.0
C494 C 0.54762 0.45646 0.88223 0.0
C495 C 0.55758 0.4529 0.89526 0.0
C496 C 0.5946 0.45932 0.94383 0.0
C497 C 0.60101 0.47009 0.9327 0.0
C498 C 0.61078 0.48296 0.93791 0.0
C499 C 0.61421 0.48543 0.95434 0.0
C500 C 0.60798 0.4746 0.96549 0.0
C501 C 0.59836 0.46157 0.96026 0.0
C502 C 0.56431 0.40973 0.95474 0.0
C503 C 0.57375 0.4074 0.96866 0.0
C504 C 0.73854 0.24354 0.33131 0.0
C505 C 0.72568 0.25231 0.33754 0.0
C506 C 0.71112 0.25248 0.32876 0.0
C507 C 0.70945 0.2441 0.31413 0.0
H508 H 0.6812 0.24127 0.27403 0.0
H509 H 0.65848 0.24689 0.25652 0.0
H510 H 0.67454 0.21139 0.22222 0.0
H511 H 0.69729 0.20548 0.2399 0.0
H512 H 0.72419 0.17967 0.2551 0.0
H513 H 0.7427 0.1577 0.25017 0.0
H514 H 0.77901 0.18218 0.27942 0.0
H515 H 0.76051 0.20406 0.28459 0.0
H516 H 0.74698 0.22842 0.31233 0.0
H517 H 0.75002 0.24337 0.33759 0.0
H518 H 0.70089 0.25889 0.33329 0.0
H519 H 0.69801 0.24442 0.30778 0.0
N520 N 0.70739 0.22844 0.28291 0.0
N521 N 0.71619 0.20865 0.2649 0.0
N522 N 0.73126 0.21492 0.28832 0.0
C523 C 0.70525 0.21988 0.26899 0.0
C524 C 0.72925 0.20615 0.27449 0.0
C525 C 0.72033 0.22605 0.29264 0.0
C526 C 0.69118 0.22295 0.25838 0.0
C527 C 0.67995 0.23459 0.26279 0.0
C528 C 0.66694 0.23791 0.25269 0.0
C529 C 0.66479 0.22969 0.23792 0.0
C530 C 0.67583 0.21786 0.23358 0.0
C531 C 0.6889 0.21453 0.2437 0.0
C532 C 0.74085 0.19355 0.27033 0.0
C533 C 0.73618 0.18047 0.26033 0.0
C534 C 0.74673 0.16788 0.25753 0.0
C535 C 0.76224 0.16829 0.26442 0.0
C536 C 0.76715 0.18165 0.27388 0.0
C537 C 0.75651 0.1941 0.27692 0.0
C538 C 0.72226 0.23522 0.30799 0.0
C539 C 0.73683 0.23504 0.31675 0.0
C540 C 0.45146 0.12327 0.98049 0.0
C541 C 0.4472 0.12026 0.99643 0.0
C542 C 0.4397 0.10561 0.00011 0.0
C543 C 0.43621 0.09425 0.988 0.0
H544 H 0.40862 0.05405 0.97838 0.0
H545 H 0.38889 0.03281 0.98318 0.0
H546 H 0.38505 0.02285 0.9322 0.0
H547 H 0.40504 0.04405 0.92727 0.0
H548 H 0.43741 0.05427 0.90719 0.0
H549 H 0.4564 0.04915 0.88588 0.0
H550 H 0.48965 0.0838 0.90759 0.0
H551 H 0.47053 0.08925 0.92871 0.0
H552 H 0.45161 0.11442 0.95618 0.0
H553 H 0.4573 0.1345 0.97741 0.0
H554 H 0.43622 0.10309 0.01232 0.0
H555 H 0.43028 0.0831 0.99118 0.0
N556 N 0.42463 0.07423 0.96127 0.0
N557 N 0.42981 0.06267 0.93607 0.0
N558 N 0.44525 0.08477 0.94555 0.0
C559 C 0.42108 0.063 0.94971 0.0
C560 C 0.44197 0.07349 0.93392 0.0
C561 C 0.43659 0.08523 0.95923 0.0
C562 C 0.40845 0.0507 0.95243 0.0
C563 C 0.40352 0.04745 0.96815 0.0
C564 C 0.39228 0.03525 0.97093 0.0
C565 C 0.38554 0.02623 0.95806 0.0
C566 C 0.39006 0.02973 0.9423 0.0
C567 C 0.40154 0.04178 0.93951 0.0
C568 C 0.45252 0.072 0.91982 0.0
C569 C 0.44867 0.06097 0.90733 0.0
C570 C 0.45959 0.05798 0.89514 0.0
C571 C 0.47464 0.06587 0.8952 0.0
C572 C 0.47813 0.07757 0.90716 0.0
C573 C 0.46717 0.08063 0.91932 0.0
C574 C 0.44043 0.09723 0.97201 0.0
C575 C 0.44824 0.11178 0.96839 0.0
Zn576 Zn 0.27977 0.85917 0.00708 0.0
Zn577 Zn 0.25218 0.87543 0.00566 0.0
O578 O 0.25234 0.86578 0.02845 0.0
O579 O 0.27604 0.85447 0.0303 0.0
O580 O 0.2321 0.8886 0.0054 0.0
O581 O 0.29233 0.87908 0.00158 0.0
O582 O 0.26973 0.89242 0.00091 0.0
C583 C 0.26285 0.85826 0.03653 0.0
C584 C 0.25722 0.84716 0.98262 0.0
O585 O 0.24875 0.85889 0.98734 0.0
O586 O 0.27063 0.84448 0.98941 0.0
C587 C 0.21856 0.88292 0.00956 0.0
O588 O 0.21746 0.86782 0.01383 0.0
C589 C 0.28495 0.89208 -0.00041 0.0
Zn590 Zn 0.10986 0.46432 0.25905 0.0
Zn591 Zn 0.12404 0.49304 0.25647 0.0
O592 O 0.107 0.49713 0.27354 0.0
O593 O 0.09306 0.47442 0.27306 0.0
O594 O 0.13485 0.51455 0.25417 0.0
O595 O 0.13014 0.45577 0.26897 0.0
O596 O 0.1426 0.47839 0.26303 0.0
C597 C 0.0951 0.48872 0.2782 0.0
C598 C 0.10898 0.47607 0.22698 0.0
O599 O 0.11474 0.4887 0.23387 0.0
O600 O 0.10669 0.4634 0.23489 0.0
C601 C 0.14084 0.52223 0.26621 0.0
O602 O 0.13992 0.51593 0.28055 0.0
C603 C 0.14294 0.46412 0.26831 0.0
Zn604 Zn 0.76211 0.60263 0.96908 0.0
Zn605 Zn 0.76058 0.62225 0.99412 0.0
O606 O 0.77764 0.60605 0.00139 0.0
O607 O 0.7771 0.58853 0.98131 0.0
O608 O 0.75901 0.63742 0.01303 0.0
O609 O 0.77072 0.62005 0.9554 0.0
O610 O 0.76648 0.63714 0.97526 0.0
C611 C 0.78239 0.59296 0.99505 0.0
C612 C 0.73068 0.60395 0.98189 0.0
O613 O 0.73779 0.61243 0.99277 0.0
O614 O 0.73824 0.59884 0.96983 0.0
C615 C 0.75503 0.63184 0.02655 0.0
O616 O 0.75255 0.61629 0.02784 0.0
C617 C 0.77062 0.63432 0.9608 0.0
Zn618 Zn 0.86783 0.99821 0.28587 0.0
Zn619 Zn 0.88191 0.00209 0.25758 0.0
O620 O 0.86862 0.02273 0.25994 0.0
O621 O 0.85612 0.01887 0.28272 0.0
O622 O 0.89316 0.00471 0.23649 0.0
O623 O 0.88932 0.99801 0.29712 0.0
O624 O 0.9009 4e-05 0.27365 0.0
C625 C 0.85873 0.02736 0.27053 0.0
C626 C 0.85949 0.97307 0.26326 0.0
O627 O 0.86819 0.9814 0.25394 0.0
O628 O 0.85776 0.97753 0.27773 0.0
C629 C 0.90095 0.01755 0.23354 0.0
O630 O 0.90132 0.02928 0.24431 0.0
C631 C 0.90194 -0.00134 0.28887 0.0
Zn632 Zn 0.24382 0.09564 0.47487 0.0
Zn633 Zn 0.24809 0.1195 0.49689 0.0
O634 O 0.26811 0.10551 0.50013 0.0
O635 O 0.26494 0.08647 0.48162 0.0
O636 O 0.25033 0.13652 0.51422 0.0
O637 O 0.24286 0.11258 0.45774 0.0
O638 O 0.24717 0.13187 0.47581 0.0
C639 C 0.27307 0.09286 0.49308 0.0
C640 C 0.21881 0.09666 0.49787 0.0
O641 O 0.22659 0.10908 0.50286 0.0
O642 O 0.22387 0.08834 0.4862 0.0
C643 C 0.25051 0.13168 0.52863 0.0
O644 O 0.25019 0.11615 0.5312 0.0
C645 C 0.2448 0.12736 0.46124 0.0
Zn646 Zn 0.36809 0.49853 0.78387 0.0
Zn647 Zn 0.3796 0.50182 0.75416 0.0
O648 O 0.36822 0.52336 0.75839 0.0
O649 O 0.35763 0.52 0.78221 0.0
O650 O 0.38935 0.50449 0.73232 0.0
O651 O 0.39053 0.49685 0.79301 0.0
O652 O 0.39948 0.49709 0.76825 0.0
C653 C 0.35974 0.52853 0.76994 0.0
C654 C 0.35589 0.47452 0.76116 0.0
O655 O 0.36413 0.4825 0.75117 0.0
O656 O 0.35599 0.47866 0.77588 0.0
C657 C 0.39773 0.51699 0.72948 0.0
O658 O 0.39946 0.52814 0.74076 0.0
C659 C 0.40203 0.49585 0.78331 0.0
Zn660 Zn 0.77792 0.35848 0.50595 0.0
Zn661 Zn 0.74972 0.3739 0.50483 0.0
O662 O 0.75132 0.36486 0.52788 0.0
O663 O 0.77538 0.35429 0.52941 0.0
O664 O 0.72897 0.3863 0.50467 0.0
O665 O 0.78944 0.3786 0.4994 0.0
O666 O 0.76649 0.39137 0.4991 0.0
C667 C 0.76227 0.35789 0.5359 0.0
C668 C 0.75517 0.34506 0.48251 0.0
O669 O 0.7465 0.35671 0.48704 0.0
O670 O 0.76879 0.34293 0.48908 0.0
C671 C 0.71773 0.38383 0.51455 0.0
O672 O 0.71921 0.37239 0.52513 0.0
C673 C 0.78166 0.39135 0.49731 0.0
Zn674 Zn 0.59939 0.97024 0.77384 0.0
Zn675 Zn 0.61787 0.99602 0.76726 0.0
O676 O 0.60387 0.00388 0.78601 0.0
O677 O 0.58954 0.98241 0.79199 0.0
O678 O 0.6322 0.01502 0.7629 0.0
O679 O 0.61906 0.95714 0.77782 0.0
O680 O 0.63402 0.97816 0.77168 0.0
C681 C 0.59328 0.99702 0.79456 0.0
C682 C 0.59436 0.98261 0.74186 0.0
O683 O 0.60534 0.99266 0.74615 0.0
O684 O 0.58963 0.97194 0.75148 0.0
C685 C 0.62645 0.02871 0.75991 0.0
O686 O 0.6108 0.03046 0.75977 0.0
C687 C 0.63275 0.96352 0.77578 0.0
Zn688 Zn 0.99702 0.27959 0.86165 0.0
Zn689 Zn -0.00016 0.2514 0.8766 0.0
O690 O 0.02227 0.25502 0.86704 0.0
O691 O 0.02048 0.27884 0.85608 0.0
O692 O 0.00224 0.23129 0.88947 0.0
O693 O 0.98997 0.29055 0.88201 0.0
O694 O 0.99278 0.26747 0.89413 0.0
C695 C 0.02863 0.26659 0.85941 0.0
C696 C 0.97614 0.25422 0.8485 0.0
O697 O 0.98241 0.24582 0.85956 0.0
O698 O 0.98047 0.26876 0.84692 0.0
C699 C 0.00634 0.21778 0.88368 0.0
O700 O 0.0091 0.21639 0.86822 0.0
C701 C 0.98918 0.28228 0.89461 0.0
Zn702 Zn 0.49661 0.78209 0.35994 0.0
Zn703 Zn 0.50108 0.75411 0.37434 0.0
O704 O 0.52307 0.7589 0.36415 0.0
O705 O 0.51994 0.78297 0.35413 0.0
O706 O 0.50437 0.73339 0.3861 0.0
O707 O 0.48903 0.79211 0.38044 0.0
O708 O 0.49403 0.76944 0.39264 0.0
C709 C 0.52872 0.77101 0.35681 0.0
C710 C 0.47674 0.75651 0.3465 0.0
O711 O 0.48336 0.74834 0.35754 0.0
O712 O 0.48058 0.77117 0.34488 0.0
C713 C 0.51669 0.73159 0.39507 0.0
O714 O 0.52746 0.74327 0.39629 0.0
C715 C 0.48931 0.78393 0.39312 0.0
Zn716 Zn 0.97656 0.7623 0.59669 0.0
Zn717 Zn 0.00158 0.758 0.61662 0.0
O718 O 0.01052 0.77392 0.60019 0.0
O719 O 0.99077 0.77534 0.58236 0.0
O720 O 0.02007 0.75492 0.632 0.0
O721 O 0.9644 0.77291 0.6146 0.0
O722 O 0.98379 0.76612 0.63134 0.0
C723 C 0.00494 0.77905 0.58691 0.0
C724 C 0.98607 0.72935 0.59868 0.0
O725 O 0.99745 0.73537 0.60735 0.0
O726 O 0.97509 0.73824 0.59329 0.0
C727 C 0.03388 0.75139 0.62688 0.0
O728 O 0.03601 0.74992 0.61131 0.0
C729 C 0.97003 0.77211 0.62878 0.0
Zn730 Zn 0.46491 0.28153 0.12238 0.0
Zn731 Zn 0.49336 0.26949 0.13181 0.0
O732 O 0.49935 0.28866 0.11758 0.0
O733 O 0.47621 0.29906 0.11049 0.0
O734 O 0.51473 0.26199 0.14004 0.0
O735 O 0.45877 0.28498 0.14547 0.0
O736 O 0.48142 0.27373 0.15282 0.0
C737 C 0.49139 0.29917 0.11 0.0
C738 C 0.47078 0.24884 0.11103 0.0
O739 O 0.48404 0.25057 0.11874 0.0
O740 O 0.46071 0.2601 0.11088 0.0
C741 C 0.52383 0.27238 0.14707 0.0
O742 O 0.51904 0.28731 0.14817 0.0
C743 C 0.4681 0.28004 0.15641 0.0
C744 C 0.2374 0.75895 0.86487 0.0
C745 C 0.22838 0.76528 0.85209 0.0
C746 C 0.23947 0.76758 0.87929 0.0
C747 C 0.22255 0.7996 0.9043 0.0
H748 H 0.26581 0.80322 0.92203 0.0
C749 C 0.24 0.84217 0.95794 0.0
C750 C 0.25191 0.83698 0.96874 0.0
C751 C 0.23615 0.83313 0.94404 0.0
C752 C 0.25361 0.80213 0.91743 0.0
H753 H 0.21432 0.78565 0.8446 0.0
H754 H 0.21774 0.80059 0.86996 0.0
H755 H 0.26089 0.78798 0.89723 0.0
H756 H 0.26848 0.81783 0.97389 0.0
H757 H 0.26145 0.80189 0.95003 0.0
H758 H 0.21522 0.81361 0.92463 0.0
C759 C 0.22316 0.7889 0.86875 0.0
C760 C 0.25081 0.79343 0.90316 0.0
C761 C 0.22119 0.78033 0.85424 0.0
C762 C 0.2594 0.82228 0.9657 0.0
C763 C 0.25544 0.81318 0.95194 0.0
C764 C 0.22532 0.80821 0.91869 0.0
C765 C 0.23246 0.78268 0.88135 0.0
C766 C 0.23527 0.79204 0.89647 0.0
C767 C 0.24403 0.81865 0.94075 0.0
C768 C 0.24089 0.80953 0.92546 0.0
H769 H 0.2428 0.74725 0.86379 0.0
H770 H 0.2465 0.76238 0.8889 0.0
H771 H 0.21042 0.79861 0.89945 0.0
H772 H 0.23405 0.85348 0.95994 0.0
H773 H 0.22739 0.83777 0.93563 0.0
C774 C 0.00036 0.52523 0.38301 0.0
C775 C 0.99298 0.54016 0.38158 0.0
C776 C 0.01174 0.52036 0.37191 0.0
C777 C 0.03817 0.53544 0.33955 0.0
H778 H 0.03932 0.49012 0.32838 0.0
C779 C 0.08776 0.50863 0.29966 0.0
C780 C 0.08348 0.49557 0.28951 0.0
C781 C 0.0768 0.5146 0.31075 0.0
C782 C 0.03906 0.50286 0.33114 0.0
H783 H 0.99158 0.56177 0.36755 0.0
H784 H 0.01099 0.553 0.34763 0.0
H785 H 0.0198 0.49956 0.34738 0.0
H786 H 0.06422 0.47896 0.28246 0.0
H787 H 0.04495 0.48975 0.30117 0.0
H788 H 0.05693 0.5388 0.32262 0.0
C789 C 0.00837 0.5452 0.35757 0.0
C790 C 0.02801 0.50826 0.34233 0.0
C791 C 0.99718 0.5502 0.36888 0.0
C792 C 0.06794 0.48889 0.29031 0.0
C793 C 0.05692 0.49503 0.30114 0.0
C794 C 0.04908 0.53006 0.32814 0.0
C795 C 0.01577 0.53018 0.35892 0.0
C796 C 0.02746 0.5246 0.34677 0.0
C797 C 0.06126 0.5078 0.31169 0.0
C798 C 0.04968 0.51369 0.3238 0.0
H799 H 0.9975 0.51742 0.39289 0.0
H800 H 0.01745 0.50892 0.37364 0.0
H801 H 0.03825 0.54808 0.34281 0.0
H802 H 0.09969 0.51397 0.29932 0.0
H803 H 0.08066 0.52431 0.3188 0.0
C804 C 0.78044 0.71565 0.84252 0.0
C805 C 0.7762 0.73189 0.84321 0.0
C806 C 0.77955 0.7062 0.85616 0.0
C807 C 0.77891 0.70836 0.90041 0.0
H808 H 0.76376 0.66426 0.89538 0.0
C809 C 0.76866 0.66322 0.95275 0.0
C810 C 0.77387 0.64752 0.94959 0.0
C811 C 0.76935 0.67483 0.94075 0.0
C812 C 0.76812 0.67653 0.89695 0.0
H813 H 0.76775 0.75099 0.8588 0.0
H814 H 0.7659 0.73433 0.88264 0.0
H815 H 0.76322 0.68189 0.87237 0.0
H816 H 0.78509 0.63207 0.93191 0.0
H817 H 0.78636 0.65224 0.91122 0.0
H818 H 0.78375 0.70282 0.92513 0.0
C819 C 0.77006 0.72899 0.87154 0.0
C820 C 0.76783 0.68661 0.88377 0.0
C821 C 0.77095 0.73846 0.85785 0.0
C822 C 0.78074 0.64397 0.93466 0.0
C823 C 0.78141 0.6555 0.92276 0.0
C824 C 0.77913 0.69823 0.91368 0.0
C825 C 0.77435 0.71274 0.87083 0.0
C826 C 0.77352 0.70254 0.88525 0.0
C827 C 0.77522 0.67085 0.92548 0.0
C828 C 0.77405 0.68213 0.91195 0.0
H829 H 0.78437 0.71019 0.83139 0.0
H830 H 0.78315 0.69378 0.85526 0.0
H831 H 0.78345 0.72056 0.9019 0.0
H832 H 0.76332 0.6663 0.96415 0.0
H833 H 0.76455 0.68663 0.94315 0.0
C834 C 0.01954 0.95973 0.36462 0.0
C835 C 0.02656 0.97118 0.37532 0.0
C836 C 0.00846 0.96436 0.35284 0.0
C837 C 0.9797 0.99666 0.34585 0.0
H838 H 0.9725 0.97451 0.30495 0.0
C839 C 0.91859 0.99631 0.31389 0.0
C840 C 0.91777 0.99743 0.29707 0.0
C841 C 0.93331 0.99464 0.32182 0.0
C842 C 0.97449 0.98098 0.31622 0.0
H843 H 0.02793 0.99667 0.38134 0.0
H844 H 0.00932 0.00474 0.36042 0.0
H845 H 0.99659 0.96896 0.32097 0.0
H846 H 0.93186 0.99778 0.27536 0.0
H847 H 0.95775 0.99494 0.28935 0.0
H848 H 0.9577 0.00868 0.34117 0.0
C849 C 0.01203 0.99211 0.36141 0.0
C850 C 0.98819 0.97767 0.32549 0.0
C851 C 0.02293 0.98748 0.3733 0.0
C852 C 0.93209 0.99696 0.28834 0.0
C853 C 0.94689 0.99525 0.29633 0.0
C854 C 0.9661 0.0 0.33659 0.0
C855 C 0.00426 0.98057 0.35138 0.0
C856 C 0.99078 0.98524 0.34057 0.0
C857 C 0.94763 0.99408 0.31317 0.0
C858 C 0.96312 0.99192 0.32188 0.0
H859 H 0.02228 0.94712 0.3656 0.0
H860 H 0.00267 0.95513 0.34538 0.0
H861 H 0.98114 0.0026 0.35747 0.0
H862 H 0.90783 0.99656 0.32101 0.0
H863 H 0.93341 0.99346 0.33477 0.0
C864 C 0.2263 0.21275 0.64975 0.0
C865 C 0.22499 0.22933 0.64729 0.0
C866 C 0.2294 0.20231 0.6369 0.0
C867 C 0.24583 0.20155 0.59589 0.0
H868 H 0.22397 0.16012 0.59277 0.0
C869 C 0.24835 0.15979 0.53963 0.0
C870 C 0.24949 0.14321 0.54228 0.0
C871 C 0.24607 0.17047 0.5525 0.0
C872 C 0.23032 0.17157 0.59358 0.0
H873 H 0.22548 0.24792 0.62934 0.0
H874 H 0.2308 0.2297 0.60688 0.0
H875 H 0.21816 0.17838 0.61501 0.0
H876 H 0.24969 0.12492 0.56057 0.0
H877 H 0.24587 0.14356 0.58298 0.0
H878 H 0.25792 0.19472 0.57437 0.0
C879 C 0.22974 0.22479 0.6188 0.0
C880 C 0.22698 0.18204 0.60632 0.0
C881 C 0.22667 0.23523 0.63166 0.0
C882 C 0.24877 0.13761 0.5581 0.0
C883 C 0.24647 0.14827 0.57094 0.0
C884 C 0.24915 0.19108 0.58312 0.0
C885 C 0.23122 0.20822 0.62128 0.0
C886 C 0.23471 0.19714 0.60765 0.0
C887 C 0.24486 0.16479 0.56827 0.0
C888 C 0.24145 0.17595 0.58184 0.0
H889 H 0.2253 0.20786 0.66169 0.0
H890 H 0.2307 0.18964 0.63926 0.0
H891 H 0.25217 0.213 0.59669 0.0
H892 H 0.24885 0.16449 0.52759 0.0
H893 H 0.24477 0.18312 0.55004 0.0
C894 C 0.48027 0.54323 0.61204 0.0
C895 C 0.48252 0.53016 0.60146 0.0
C896 C 0.47028 0.54171 0.62528 0.0
C897 C 0.45177 0.51124 0.65144 0.0
H898 H 0.4252 0.54674 0.66468 0.0
C899 C 0.40607 0.50587 0.70272 0.0
C900 C 0.40609 0.51864 0.714 0.0
C901 C 0.4146 0.50721 0.68845 0.0
C902 C 0.43264 0.53676 0.66119 0.0
H903 H 0.47576 0.50534 0.59629 0.0
H904 H 0.45817 0.50271 0.6193 0.0
H905 H 0.4415 0.54913 0.64072 0.0
H906 H 0.41484 0.54293 0.71895 0.0
H907 H 0.42967 0.54524 0.69406 0.0
H908 H 0.44286 0.49888 0.67191 0.0
C909 C 0.46438 0.51406 0.61755 0.0
C910 C 0.44201 0.53813 0.64748 0.0
C911 C 0.47444 0.51557 0.60435 0.0
C912 C 0.41457 0.53286 0.71054 0.0
C913 C 0.42301 0.53423 0.69623 0.0
C914 C 0.44234 0.50984 0.6651 0.0
C915 C 0.46222 0.5271 0.62822 0.0
C916 C 0.4518 0.52543 0.64249 0.0
C917 C 0.42323 0.52137 0.68508 0.0
C918 C 0.43275 0.52263 0.6702 0.0
H919 H 0.48652 0.55456 0.61028 0.0
H920 H 0.46914 0.55191 0.63339 0.0
H921 H 0.45935 0.50131 0.64811 0.0
H922 H 0.39964 0.49475 0.705 0.0
H923 H 0.41439 0.49715 0.68002 0.0
C924 C 0.75077 0.27169 0.64958 0.0
C925 C 0.7627 0.27353 0.66168 0.0
C926 C 0.74867 0.28354 0.63804 0.0
C927 C 0.77232 0.31246 0.61681 0.0
H928 H 0.73204 0.33037 0.60229 0.0
C929 C 0.77223 0.35498 0.56393 0.0
C930 C 0.75968 0.35313 0.55261 0.0
C931 C 0.77103 0.34811 0.57905 0.0
C932 C 0.74337 0.32538 0.60608 0.0
H933 H 0.78094 0.28987 0.67177 0.0
H934 H 0.77763 0.31019 0.65127 0.0
H935 H 0.73247 0.31249 0.62537 0.0
H936 H 0.73576 0.34334 0.54824 0.0
H937 H 0.73393 0.33048 0.57433 0.0
H938 H 0.78323 0.32427 0.59722 0.0
C939 C 0.76998 0.29954 0.65074 0.0
C940 C 0.7436 0.31522 0.61934 0.0
C941 C 0.77194 0.28783 0.66238 0.0
C942 C 0.74555 0.34498 0.55687 0.0
C943 C 0.74452 0.33767 0.57187 0.0
C944 C 0.77208 0.32231 0.60344 0.0
C945 C 0.75856 0.29735 0.63829 0.0
C946 C 0.7581 0.30869 0.62479 0.0
C947 C 0.75749 0.33871 0.58297 0.0
C948 C 0.75761 0.32894 0.59784 0.0
H949 H 0.74351 0.2608 0.64858 0.0
H950 H 0.73986 0.28153 0.62845 0.0
H951 H 0.78362 0.30733 0.6206 0.0
H952 H 0.78317 0.36139 0.56093 0.0
H953 H 0.78102 0.34974 0.58744 0.0
C954 C 0.51708 0.98686 0.61584 0.0
C955 C 0.51475 0.97082 0.6106 0.0
C956 C 0.52811 0.99071 0.62817 0.0
C957 C 0.56282 0.97636 0.65133 0.0
H958 H 0.54302 0.99745 0.68772 0.0
C959 C 0.59481 0.99086 0.71303 0.0
C960 C 0.58678 0.98351 0.72578 0.0
C961 C 0.58754 0.99143 0.69777 0.0
C962 C 0.54874 0.99175 0.67756 0.0
H963 H 0.52282 0.94639 0.61377 0.0
H964 H 0.54234 0.95323 0.63499 0.0
H965 H 0.52824 0.99479 0.66217 0.0
H966 H 0.56481 0.9713 0.73269 0.0
H967 H 0.552 0.9727 0.70619 0.0
H968 H 0.58319 0.97298 0.66698 0.0
C969 C 0.53559 0.96278 0.62952 0.0
C970 C 0.54036 0.9903 0.66296 0.0
C971 C 0.5244 0.95888 0.61735 0.0
C972 C 0.57131 0.97697 0.72308 0.0
C973 C 0.56394 0.97785 0.70797 0.0
C974 C 0.57133 0.97806 0.66589 0.0
C975 C 0.53723 0.97865 0.63531 0.0
C976 C 0.54716 0.98223 0.64985 0.0
C977 C 0.57201 0.98501 0.69521 0.0
C978 C 0.56415 0.98537 0.67922 0.0
H979 H 0.51014 0.99643 0.61065 0.0
H980 H 0.52929 0.00307 0.63236 0.0
H981 H 0.5683 0.97012 0.64135 0.0
H982 H 0.60677 0.99596 0.71479 0.0
H983 H 0.59395 0.99699 0.68804 0.0
C984 C 0.86312 0.2003 0.76555 0.0
C985 C 0.8566 0.21323 0.75707 0.0
C986 C 0.87732 0.20235 0.77464 0.0
C987 C 0.91323 0.22848 0.77912 0.0
H988 H 0.91383 0.21541 0.82366 0.0
C989 C 0.95692 0.25676 0.82539 0.0
C990 C 0.96372 0.24722 0.83741 0.0
C991 C 0.94508 0.25049 0.81495 0.0
C992 C 0.914 0.21886 0.81116 0.0
H993 H 0.8599 0.23852 0.75176 0.0
H994 H 0.88472 0.24192 0.76725 0.0
H995 H 0.89083 0.20808 0.80627 0.0
H996 H 0.96346 0.22349 0.84781 0.0
H997 H 0.94271 0.21245 0.8294 0.0
H998 H 0.93621 0.23945 0.78397 0.0
C999 C 0.87894 0.23016 0.76672 0.0
C1000 C 0.90082 0.21468 0.80123 0.0
C1001 C 0.86472 0.22818 0.75779 0.0
C1002 C 0.95844 0.23117 0.83869 0.0
C1003 C 0.94652 0.22486 0.82819 0.0
C1004 C 0.92641 0.23256 0.789 0.0
C1005 C 0.88536 0.2173 0.77529 0.0
C1006 C 0.90013 0.21984 0.78524 0.0
C1007 C 0.93973 0.23447 0.8162 0.0
C1008 C 0.92674 0.22821 0.80525 0.0
H1009 H 0.85731 0.18857 0.76511 0.0
H1010 H 0.88207 0.19221 0.78107 0.0
H1011 H 0.91314 0.23235 0.76675 0.0
H1012 H 0.96063 0.26919 0.82407 0.0
H1013 H 0.93988 0.25833 0.80608 0.0
C1014 C 0.44757 0.87592 0.49407 0.0
C1015 C 0.45335 0.87546 0.51001 0.0
C1016 C 0.44954 0.86287 0.48363 0.0
C1017 C 0.47579 0.82874 0.47667 0.0
H1018 H 0.44384 0.81814 0.44359 0.0
C1019 C 0.48728 0.78451 0.42329 0.0
C1020 C 0.48374 0.79129 0.40829 0.0
C1021 C 0.4822 0.79197 0.43751 0.0
C1022 C 0.45284 0.82091 0.45282 0.0
H1023 H 0.46523 0.86064 0.52764 0.0
H1024 H 0.46878 0.83778 0.50927 0.0
H1025 H 0.43704 0.83629 0.46566 0.0
H1026 H 0.47178 0.81093 0.39643 0.0
H1027 H 0.4629 0.82375 0.42106 0.0
H1028 H 0.49173 0.81369 0.46347 0.0
C1029 C 0.46285 0.84836 0.50487 0.0
C1030 C 0.44897 0.83132 0.46542 0.0
C1031 C 0.46084 0.86145 0.51536 0.0
C1032 C 0.47478 0.80543 0.40778 0.0
C1033 C 0.46955 0.81271 0.42189 0.0
C1034 C 0.47964 0.81824 0.46407 0.0
C1035 C 0.45735 0.849 0.48884 0.0
C1036 C 0.46058 0.83582 0.47716 0.0
C1037 C 0.47326 0.80613 0.4369 0.0
C1038 C 0.46837 0.8147 0.45173 0.0
H1039 H 0.44203 0.88662 0.48944 0.0
H1040 H 0.44546 0.8639 0.47126 0.0
H1041 H 0.48503 0.83204 0.48547 0.0
H1042 H 0.49417 0.77363 0.42405 0.0
H1043 H 0.48522 0.78668 0.44895 0.0
C1044 C 0.14608 0.28199 0.77974 0.0
C1045 C 0.15399 0.26856 0.77346 0.0
C1046 C 0.13419 0.28015 0.7912 0.0
C1047 C 0.10504 0.25101 0.80684 0.0
H1048 H 0.10208 0.28275 0.84126 0.0
C1049 C 0.05283 0.2506 0.85202 0.0
C1050 C 0.04522 0.26549 0.85344 0.0
C1051 C 0.06775 0.24951 0.84458 0.0
C1052 C 0.10277 0.27378 0.83173 0.0
H1053 H 0.15557 0.24262 0.77429 0.0
H1054 H 0.13463 0.23938 0.79434 0.0
H1055 H 0.12506 0.28341 0.82348 0.0
H1056 H 0.04764 0.291 0.84892 0.0
H1057 H 0.07357 0.28911 0.83613 0.0
H1058 H 0.08252 0.24163 0.81492 0.0
C1059 C 0.13764 0.25134 0.7903 0.0
C1060 C 0.11589 0.27418 0.82152 0.0
C1061 C 0.1496 0.25319 0.7788 0.0
C1062 C 0.05314 0.27934 0.84796 0.0
C1063 C 0.06807 0.27827 0.84072 0.0
C1064 C 0.09191 0.25058 0.81711 0.0
C1065 C 0.12986 0.26482 0.79668 0.0
C1066 C 0.11695 0.26309 0.80868 0.0
C1067 C 0.07541 0.26332 0.83866 0.0
C1068 C 0.09043 0.26224 0.82939 0.0
H1069 H 0.14892 0.29396 0.77563 0.0
H1070 H 0.12816 0.29075 0.79555 0.0
H1071 H 0.10545 0.24235 0.79701 0.0
H1072 H 0.04701 0.23971 0.85611 0.0
H1073 H 0.07319 0.23784 0.84325 0.0
C1074 C 0.54397 0.61734 0.48238 0.0
C1075 C 0.53082 0.60689 0.48468 0.0
C1076 C 0.54254 0.63055 0.47233 0.0
C1077 C 0.5121 0.65657 0.45336 0.0
H1078 H 0.54756 0.66931 0.42648 0.0
C1079 C 0.50609 0.70526 0.40504 0.0
C1080 C 0.51858 0.7168 0.40452 0.0
C1081 C 0.50767 0.69159 0.41444 0.0
C1082 C 0.5376 0.66597 0.43401 0.0
H1083 H 0.50597 0.60188 0.47796 0.0
H1084 H 0.50351 0.62477 0.46024 0.0
H1085 H 0.55012 0.6459 0.44354 0.0
H1086 H 0.54264 0.72287 0.41328 0.0
H1087 H 0.54539 0.69898 0.42963 0.0
H1088 H 0.49956 0.67658 0.44369 0.0
C1089 C 0.51484 0.62301 0.46648 0.0
C1090 C 0.53907 0.65257 0.44382 0.0
C1091 C 0.51625 0.60986 0.47661 0.0
C1092 C 0.53278 0.71423 0.41342 0.0
C1093 C 0.5344 0.7005 0.42272 0.0
C1094 C 0.51061 0.66989 0.44347 0.0
C1095 C 0.52794 0.63357 0.46426 0.0
C1096 C 0.52635 0.64773 0.45366 0.0
C1097 C 0.52182 0.68909 0.42343 0.0
C1098 C 0.52335 0.67476 0.43372 0.0
H1099 H 0.5553 0.61547 0.4886 0.0
H1100 H 0.5528 0.63857 0.47112 0.0
H1101 H 0.50217 0.65339 0.46098 0.0
H1102 H 0.495 0.70686 0.39832 0.0
H1103 H 0.49784 0.68293 0.41461 0.0
C1104 C 0.86672 0.76966 0.72879 0.0
C1105 C 0.85556 0.78216 0.72845 0.0
C1106 C 0.8806 0.77049 0.7196 0.0
C1107 C 0.89487 0.78659 0.68249 0.0
H1108 H 0.93781 0.77935 0.69927 0.0
C1109 C 0.94815 0.78854 0.64025 0.0
C1110 C 0.95986 0.77681 0.64232 0.0
C1111 C 0.93694 0.7914 0.65218 0.0
C1112 C 0.92589 0.78123 0.69434 0.0
H1113 H 0.8507 0.80569 0.71871 0.0
H1114 H 0.87457 0.80673 0.7022 0.0
H1115 H 0.91508 0.77941 0.71751 0.0
H1116 H 0.96953 0.75931 0.65868 0.0
H1117 H 0.94951 0.76369 0.67923 0.0
H1118 H 0.90521 0.78756 0.65929 0.0
C1119 C 0.87251 0.79633 0.7096 0.0
C1120 C 0.91292 0.78133 0.70482 0.0
C1121 C 0.85878 0.79564 0.71895 0.0
C1122 C 0.96065 0.7685 0.65684 0.0
C1123 C 0.94918 0.77108 0.66864 0.0
C1124 C 0.90773 0.7862 0.672 0.0
C1125 C 0.88346 0.78373 0.70976 0.0
C1126 C 0.89733 0.784 0.69894 0.0
C1127 C 0.9369 0.78227 0.66627 0.0
C1128 C 0.92343 0.78351 0.67775 0.0
H1129 H 0.86456 0.75902 0.7358 0.0
H1130 H 0.88883 0.76055 0.71976 0.0
H1131 H 0.88289 0.78845 0.67766 0.0
H1132 H 0.94743 0.79526 0.62922 0.0
H1133 H 0.92802 0.80049 0.65013 0.0
C1134 C 0.07099 0.88088 0.50616 0.0
C1135 C 0.06549 0.87955 0.4901 0.0
C1136 C 0.06809 0.86857 0.51697 0.0
C1137 C 0.05327 0.82613 0.51978 0.0
H1138 H 0.03999 0.8404 0.56207 0.0
C1139 C 0.01103 0.79019 0.56004 0.0
C1140 C 0.015 0.78907 0.57645 0.0
C1141 C 0.02017 0.79985 0.55003 0.0
C1142 C 0.04394 0.83622 0.55041 0.0
H1143 H 0.0533 0.86373 0.4727 0.0
H1144 H 0.04746 0.84268 0.49171 0.0
H1145 H 0.05051 0.8599 0.54333 0.0
H1146 H 0.03178 0.79701 0.59525 0.0
H1147 H 0.04757 0.8144 0.57771 0.0
H1148 H 0.04568 0.80255 0.5267 0.0
C1149 C 0.05434 0.8531 0.49591 0.0
C1150 C 0.05003 0.84737 0.53964 0.0
C1151 C 0.05747 0.86532 0.48502 0.0
C1152 C 0.02845 0.79767 0.58264 0.0
C1153 C 0.03745 0.8076 0.57265 0.0
C1154 C 0.04696 0.81503 0.53048 0.0
C1155 C 0.05935 0.8547 0.5121 0.0
C1156 C 0.0545 0.84253 0.52407 0.0
C1157 C 0.03333 0.80878 0.55627 0.0
C1158 C 0.04198 0.82003 0.54577 0.0
H1159 H 0.07703 0.89169 0.51065 0.0
H1160 H 0.0724 0.87011 0.52925 0.0
H1161 H 0.05691 0.8219 0.50803 0.0
H1162 H 0.00081 0.78362 0.55488 0.0
H1163 H 0.01664 0.8007 0.53749 0.0
C1164 C 0.1478 0.7443 0.72153 0.0
C1165 C 0.15117 0.72885 0.72708 0.0
C1166 C 0.13508 0.74666 0.71072 0.0
C1167 C 0.09697 0.72858 0.69586 0.0
H1168 H 0.10338 0.75644 0.65952 0.0
C1169 C 0.04474 0.74908 0.65499 0.0
C1170 C 0.04733 0.74881 0.63833 0.0
C1171 C 0.0574 0.74651 0.66581 0.0
C1172 C 0.10143 0.74855 0.66956 0.0
H1173 H 0.1437 0.70379 0.72587 0.0
H1174 H 0.1215 0.7079 0.7069 0.0
H1175 H 0.12553 0.75204 0.67842 0.0
H1176 H 0.06528 0.74568 0.61999 0.0
H1177 H 0.08739 0.74121 0.63891 0.0
H1178 H 0.0729 0.72499 0.68692 0.0
C1179 C 0.12868 0.71819 0.71096 0.0
C1180 C 0.11406 0.74616 0.68046 0.0
C1181 C 0.14147 0.71582 0.72169 0.0
C1182 C 0.06288 0.74598 0.63274 0.0
C1183 C 0.07556 0.7435 0.64358 0.0
C1184 C 0.08431 0.73105 0.68501 0.0
C1185 C 0.1254 0.73363 0.70531 0.0
C1186 C 0.11197 0.73615 0.69373 0.0
C1187 C 0.07295 0.74371 0.66022 0.0
C1188 C 0.08641 0.74105 0.67173 0.0
H1189 H 0.15516 0.75456 0.72534 0.0
H1190 H 0.13275 0.75872 0.7067 0.0
H1191 H 0.09496 0.7209 0.70604 0.0
H1192 H 0.03291 0.75123 0.6597 0.0
H1193 H 0.05506 0.74692 0.67858 0.0
C1194 C 0.97186 0.60134 0.52779 0.0
C1195 C 0.97412 0.6061 0.51184 0.0
C1196 C 0.97642 0.61153 0.54061 0.0
C1197 C 0.97382 0.64087 0.56243 0.0
H1198 H 0.01025 0.67041 0.56133 0.0
C1199 C 0.9722 0.70502 0.58697 0.0
C1200 C 0.98605 0.71218 0.59398 0.0
C1201 C 0.97255 0.68938 0.5808 0.0
C1202 C 0.00019 0.66206 0.56205 0.0
H1203 H 0.98353 0.62501 0.49685 0.0
H1204 H 0.99142 0.6428 0.51916 0.0
H1205 H 0.00891 0.64739 0.54281 0.0
H1206 H 0.01095 0.7083 0.60074 0.0
H1207 H 0.01157 0.68088 0.58973 0.0
H1208 H 0.96483 0.65584 0.58128 0.0
C1209 C 0.98634 0.6311 0.52181 0.0
C1210 C -0.00065 0.64898 0.55132 0.0
C1211 C 0.98177 0.62091 0.509 0.0
C1212 C 9e-05 0.7031 0.59537 0.0
C1213 C 0.00047 0.68746 0.58903 0.0
C1214 C 0.97466 0.65395 0.57312 0.0
C1215 C 0.98336 0.62669 0.53774 0.0
C1216 C 0.98587 0.6386 0.55102 0.0
C1217 C 0.98678 0.68057 0.58141 0.0
C1218 C 0.98755 0.665 0.57262 0.0
H1219 H 0.96627 0.58984 0.53036 0.0
H1220 H 0.97417 0.60773 0.55277 0.0
H1221 H 0.96324 0.63314 0.56246 0.0
H1222 H 0.96118 0.71166 0.58581 0.0
H1223 H 0.96185 0.68449 0.57482 0.0
C1224 C 0.7749 0.85517 0.23927 0.0
C1225 C 0.771 0.85008 0.22348 0.0
C1226 C 0.7849 0.86852 0.24211 0.0
C1227 C 0.8159 0.89428 0.2246 0.0
H1228 H 0.80221 0.92456 0.25731 0.0
C1229 C 0.84969 0.9546 0.24078 0.0
C1230 C 0.85082 0.95845 0.25729 0.0
C1231 C 0.84034 0.94138 0.23535 0.0
C1232 C 0.80628 0.91616 0.24824 0.0
H1233 H 0.77491 0.85485 0.19827 0.0
H1234 H 0.79263 0.87821 0.2033 0.0
H1235 H 0.78516 0.90146 0.2502 0.0
H1236 H 0.84367 0.951 0.28106 0.0
H1237 H 0.82771 0.92803 0.27165 0.0
H1238 H 0.8372 0.90898 0.22287 0.0
C1239 C 0.78788 0.87177 0.21344 0.0
C1240 C 0.7965 0.90294 0.24416 0.0
C1241 C 0.77776 0.85841 0.21057 0.0
C1242 C 0.84291 0.94852 0.26824 0.0
C1243 C 0.83366 0.93538 0.26284 0.0
C1244 C 0.82577 0.90755 0.22874 0.0
C1245 C 0.79134 0.87709 0.22925 0.0
C1246 C 0.80133 0.8917 0.23253 0.0
C1247 C 0.83199 0.93184 0.24634 0.0
C1248 C 0.82118 0.91844 0.24085 0.0
H1249 H 0.77023 0.8488 0.24948 0.0
H1250 H 0.78765 0.87213 0.25443 0.0
H1251 H 0.81992 0.88577 0.21561 0.0
H1252 H 0.85566 0.96201 0.23204 0.0
H1253 H 0.83927 0.93894 0.22255 0.0
C1254 C 0.76713 0.13896 0.26681 0.0
C1255 C 0.77285 0.15431 0.2628 0.0
C1256 C 0.7774 0.1259 0.2667 0.0
C1257 C 0.81284 0.1088 0.24981 0.0
H1258 H 0.81698 0.08678 0.29033 0.0
C1259 C 0.85535 0.05471 0.25859 0.0
C1260 C 0.84984 0.04246 0.26863 0.0
C1261 C 0.84693 0.0691 0.2574 0.0
C1262 C 0.81582 0.09261 0.27884 0.0
H1263 H 0.79356 0.16801 0.255 0.0
H1264 H 0.81153 0.14487 0.25437 0.0
H1265 H 0.80002 0.11021 0.28849 0.0
H1266 H 0.8309 0.03539 0.28477 0.0
H1267 H 0.81599 0.05993 0.28223 0.0
H1268 H 0.82806 0.0908 0.23991 0.0
C1269 C 0.79912 0.1431 0.25774 0.0
C1270 C 0.80619 0.10609 0.27785 0.0
C1271 C 0.78891 0.15627 0.25816 0.0
C1272 C 0.83561 0.0447 0.27713 0.0
C1273 C 0.82711 0.05888 0.27576 0.0
C1274 C 0.82229 0.09507 0.2507 0.0
C1275 C 0.7935 0.12789 0.2623 0.0
C1276 C 0.80447 0.11418 0.26331 0.0
C1277 C 0.83274 0.07139 0.26608 0.0
C1278 C 0.8237 0.08665 0.26519 0.0
H1279 H 0.75484 0.13718 0.27056 0.0
H1280 H 0.77282 0.11424 0.27021 0.0
H1281 H 0.81164 0.1149 0.23846 0.0
H1282 H 0.86631 0.05331 0.25191 0.0
H1283 H 0.85171 0.0785 0.24993 0.0
C1284 C 0.3593 0.01155 0.95337 0.0
C1285 C 0.37435 0.01274 0.96122 0.0
C1286 C 0.34873 -0.00116 0.95668 0.0
C1287 C 0.34796 0.95759 0.97015 0.0
H1288 H 0.30483 0.96555 0.98491 0.0
C1289 C 0.31077 0.90753 0.99848 0.0
C1290 C 0.29416 0.90668 0.99538 0.0
C1291 C 0.31981 0.92083 0.9938 0.0
C1292 C 0.31673 0.96308 0.98054 0.0
H1293 H 0.39032 0.00158 0.97838 0.0
H1294 H 0.37201 0.97917 0.98388 0.0
H1295 H 0.32198 0.98807 0.9769 0.0
H1296 H 0.27392 0.9192 0.98511 0.0
H1297 H 0.28982 0.94231 0.97642 0.0
H1298 H 0.34283 0.93269 0.9734 0.0
C1299 C 0.36833 0.98812 0.97533 0.0
C1300 C 0.32653 0.97599 0.97601 0.0
C1301 C 0.37874 0.00095 0.97225 0.0
C1302 C 0.2867 0.91957 0.98771 0.0
C1303 C 0.29582 0.93282 0.98279 0.0
C1304 C 0.33812 0.9447 0.97443 0.0
C1305 C 0.35323 0.98698 0.96762 0.0
C1306 C 0.34232 0.97335 0.97108 0.0
C1307 C 0.31254 0.93353 0.98562 0.0
C1308 C 0.3225 0.94728 0.98001 0.0
H1309 H 0.35567 0.02056 0.94486 0.0
H1310 H 0.33716 0.99814 0.95056 0.0
H1311 H 0.36003 0.95526 0.96616 0.0
H1312 H 0.31683 0.89788 0.00456 0.0
H1313 H 0.33255 0.92113 0.99663 0.0
C1314 C 0.24898 0.36748 0.26771 0.0
C1315 C 0.24547 0.35622 0.27963 0.0
C1316 C 0.24145 0.38237 0.26762 0.0
C1317 C 0.21664 0.40951 0.29296 0.0
H1318 H 0.20054 0.42408 0.25181 0.0
C1319 C 0.15859 0.44408 0.28359 0.0
C1320 C 0.15831 0.45665 0.27257 0.0
C1321 C 0.1725 0.43529 0.28596 0.0
C1322 C 0.20524 0.42037 0.26336 0.0
H1323 H 0.23171 0.35209 0.30115 0.0
H1324 H 0.21807 0.37755 0.30054 0.0
H1325 H 0.21877 0.40154 0.25269 0.0
H1326 H 0.17249 0.47041 0.25586 0.0
H1327 H 0.19684 0.45461 0.25967 0.0
H1328 H 0.20211 0.4277 0.3036 0.0
C1329 C 0.22687 0.3751 0.29143 0.0
C1330 C 0.21571 0.40745 0.26389 0.0
C1331 C 0.23447 0.36032 0.2916 0.0
C1332 C 0.17243 0.4608 0.26449 0.0
C1333 C 0.1863 0.45176 0.2666 0.0
C1334 C 0.206 0.42227 0.29243 0.0
C1335 C 0.23019 0.3863 0.2794 0.0
C1336 C 0.22114 0.40153 0.27872 0.0
C1337 C 0.18632 0.43873 0.27712 0.0
C1338 C 0.19987 0.42751 0.27765 0.0
H1339 H 0.25731 0.36469 0.25825 0.0
H1340 H 0.24441 0.39076 0.25826 0.0
H1341 H 0.22092 0.40555 0.30458 0.0
H1342 H 0.14787 0.44069 0.29001 0.0
H1343 H 0.17216 0.42521 0.29403 0.0
C1344 C 0.09342 0.03474 0.49611 0.0
C1345 C 0.09874 0.01883 0.49673 0.0
C1346 C 0.10253 0.04723 0.50335 0.0
C1347 C 0.13946 0.05536 0.52891 0.0
H1348 H 0.14738 0.08849 0.49768 0.0
C1349 C 0.20017 0.07556 0.5075 0.0
C1350 C 0.20372 0.0919 0.50547 0.0
C1351 C 0.1852 0.0707 0.51302 0.0
C1352 C 0.14504 0.07965 0.50681 0.0
H1353 H 0.11739 0.00346 0.50599 0.0
H1354 H 0.13328 0.02498 0.51825 0.0
H1355 H 0.12321 0.07186 0.49518 0.0
H1356 H 0.1948 0.11608 0.50808 0.0
H1357 H 0.16801 0.10743 0.51696 0.0
H1358 H 0.16235 0.06208 0.53932 0.0
C1359 C 0.12193 0.02797 0.51261 0.0
C1360 C 0.13115 0.07009 0.50541 0.0
C1361 C 0.11283 0.01555 0.50547 0.0
C1362 C 0.19228 0.1034 0.50963 0.0
C1363 C 0.17706 0.0985 0.51472 0.0
C1364 C 0.15349 0.06473 0.53011 0.0
C1365 C 0.11717 0.04403 0.51125 0.0
C1366 C 0.12872 0.05717 0.51585 0.0
C1367 C 0.17337 0.08208 0.51622 0.0
C1368 C 0.15676 0.07634 0.51853 0.0
H1369 H 0.08246 0.03759 0.48965 0.0
H1370 H 0.09841 0.05944 0.50225 0.0
H1371 H 0.13771 0.04583 0.53744 0.0
H1372 H 0.20886 0.0665 0.50443 0.0
H1373 H 0.18253 0.05796 0.51384 0.0
C1374 C 0.7069 0.14992 0.73194 0.0
C1375 C 0.72348 0.14716 0.7312 0.0
C1376 C 0.69614 0.13729 0.73489 0.0
C1377 C 0.69426 0.09699 0.75247 0.0
H1378 H 0.65413 0.09262 0.7284 0.0
C1379 C 0.65399 0.04036 0.75604 0.0
C1380 C 0.6373 0.04247 0.75656 0.0
C1381 C 0.66427 0.05331 0.75291 0.0
C1382 C 0.6652 0.09378 0.73536 0.0
H1383 H 0.7417 0.12888 0.73252 0.0
H1384 H 0.72295 0.1069 0.73775 0.0
H1385 H 0.67248 0.11495 0.72293 0.0
H1386 H 0.61831 0.05984 0.7542 0.0
H1387 H 0.6363 0.0825 0.74893 0.0
H1388 H 0.68701 0.07589 0.76494 0.0
C1389 C 0.71829 0.11887 0.73631 0.0
C1390 C 0.67571 0.10657 0.73221 0.0
C1391 C 0.72904 0.13147 0.73333 0.0
C1392 C 0.63111 0.05781 0.75385 0.0
C1393 C 0.64141 0.07078 0.75074 0.0
C1394 C 0.68375 0.08425 0.75564 0.0
C1395 C 0.70173 0.12165 0.73721 0.0
C1396 C 0.6904 0.10826 0.74068 0.0
C1397 C 0.65812 0.06868 0.75026 0.0
C1398 C 0.66913 0.08244 0.74707 0.0
H1399 H 0.70225 0.1619 0.73054 0.0
H1400 H 0.68346 0.13984 0.73569 0.0
H1401 H 0.70536 0.09812 0.7594 0.0
H1402 H 0.65915 0.02869 0.75799 0.0
H1403 H 0.67705 0.05122 0.75238 0.0
C1404 C 0.37926 0.01109 0.54859 0.0
C1405 C 0.39204 0.00747 0.53846 0.0
C1406 C 0.36803 0.02258 0.54416 0.0
C1407 C 0.35237 0.0425 0.50782 0.0
H1408 H 0.32926 0.06788 0.53904 0.0
C1409 C 0.29204 0.07004 0.49197 0.0
C1410 C 0.28808 0.08514 0.49841 0.0
C1411 C 0.3059 0.06236 0.49701 0.0
C1412 C 0.33576 0.06107 0.53013 0.0
H1413 H 0.40375 0.01351 0.51627 0.0
H1414 H 0.38456 0.03398 0.50875 0.0
H1415 H 0.3519 0.05185 0.54787 0.0
H1416 H 0.29568 0.10407 0.5152 0.0
H1417 H 0.32026 0.09071 0.52383 0.0
H1418 H 0.33655 0.05194 0.49005 0.0
C1419 C 0.38277 0.0276 0.51984 0.0
C1420 C 0.3486 0.05169 0.53523 0.0
C1421 C 0.3938 0.01593 0.52414 0.0
C1422 C 0.2984 0.09243 0.51001 0.0
C1423 C 0.31243 0.08475 0.51501 0.0
C1424 C 0.3397 0.05199 0.50273 0.0
C1425 C 0.36954 0.03085 0.52961 0.0
C1426 C 0.35686 0.04202 0.52417 0.0
C1427 C 0.31633 0.06961 0.50853 0.0
C1428 C 0.33096 0.06107 0.51385 0.0
H1429 H 0.37765 0.00465 0.55968 0.0
H1430 H 0.3579 0.02455 0.55189 0.0
H1431 H 0.35826 0.03511 0.49894 0.0
H1432 H 0.2843 0.06398 0.48312 0.0
H1433 H 0.30828 0.05055 0.49205 0.0
C1434 C 0.60425 0.47217 0.53808 0.0
C1435 C 0.59967 0.48219 0.52539 0.0
C1436 C 0.61653 0.46111 0.53613 0.0
C1437 C 0.65246 0.45314 0.51276 0.0
H1438 H 0.64675 0.40943 0.52726 0.0
C1439 C 0.70072 0.40518 0.50229 0.0
C1440 C 0.70352 0.39429 0.51472 0.0
C1441 C 0.6876 0.41544 0.50281 0.0
C1442 C 0.64865 0.42163 0.52332 0.0
H1443 H 0.60441 0.48816 0.50058 0.0
H1444 H 0.62613 0.46913 0.49737 0.0
H1445 H 0.62488 0.42835 0.52989 0.0
H1446 H 0.6947 0.38562 0.53744 0.0
H1447 H 0.67215 0.40375 0.53859 0.0
H1448 H 0.67635 0.44666 0.5066 0.0
C1449 C 0.62018 0.46992 0.50884 0.0
C1450 C 0.63608 0.43245 0.52479 0.0
C1451 C 0.60777 0.48087 0.51072 0.0
C1452 C 0.69284 0.39379 0.52761 0.0
C1453 C 0.67982 0.40415 0.52821 0.0
C1454 C 0.66511 0.44238 0.51145 0.0
C1455 C 0.62466 0.45991 0.52151 0.0
C1456 C 0.63788 0.44833 0.51958 0.0
C1457 C 0.67704 0.41516 0.51586 0.0
C1458 C 0.6634 0.42649 0.51677 0.0
H1459 H 0.59854 0.47303 0.54965 0.0
H1460 H 0.61989 0.4537 0.54618 0.0
H1461 H 0.65424 0.46536 0.5088 0.0
H1462 H 0.70867 0.40579 0.49214 0.0
H1463 H 0.6857 0.42354 0.49294 0.0
C1464 C 0.72038 0.27633 0.35531 0.0
C1465 C 0.72746 0.26124 0.35312 0.0
C1466 C 0.72222 0.28478 0.36989 0.0
C1467 C 0.74937 0.28906 0.40466 0.0
H1468 H 0.71351 0.30953 0.42541 0.0
C1469 C 0.75746 0.3196 0.46651 0.0
C1470 C 0.74987 0.33435 0.46904 0.0
C1471 C 0.75358 0.31003 0.45305 0.0
C1472 C 0.72368 0.30404 0.41968 0.0
H1473 H 0.74167 0.24303 0.36481 0.0
H1474 H 0.74518 0.25797 0.3901 0.0
H1475 H 0.70902 0.29423 0.40037 0.0
H1476 H 0.73192 0.35043 0.45966 0.0
H1477 H 0.72543 0.33392 0.43585 0.0
H1478 H 0.76415 0.29911 0.42357 0.0
C1479 C 0.73829 0.26327 0.38045 0.0
C1480 C 0.72109 0.29525 0.40537 0.0
C1481 C 0.73633 0.25476 0.36593 0.0
C1482 C 0.73793 0.33909 0.45806 0.0
C1483 C 0.73418 0.32959 0.44444 0.0
C1484 C 0.75199 0.29794 0.41884 0.0
C1485 C 0.73131 0.27839 0.38255 0.0
C1486 C 0.73391 0.28764 0.39776 0.0
C1487 C 0.74217 0.31506 0.44164 0.0
C1488 C 0.73918 0.3055 0.42659 0.0
H1489 H 0.71367 0.2818 0.34564 0.0
H1490 H 0.71688 0.2965 0.37112 0.0
H1491 H 0.75952 0.28354 0.39891 0.0
H1492 H 0.76656 0.3155 0.47487 0.0
H1493 H 0.75967 0.29873 0.45152 0.0
C1494 C 0.49742 0.07227 0.87662 0.0
C1495 C 0.4871 0.06093 0.88365 0.0
C1496 C 0.50954 0.06728 0.86629 0.0
C1497 C 0.52107 0.03265 0.84095 0.0
H1498 H 0.56459 0.04955 0.84589 0.0
C1499 C 0.57357 0.99806 0.8167 0.0
C1500 C 0.58406 0.00626 0.80649 0.0
C1501 C 0.56279 0.00646 0.8261 0.0
C1502 C 0.55245 0.04489 0.84429 0.0
H1503 H 0.48175 0.03546 0.88568 0.0
H1504 H 0.50267 0.02683 0.86773 0.0
H1505 H 0.54298 0.06129 0.86175 0.0
H1506 H 0.59223 0.02983 0.79901 0.0
H1507 H 0.57325 0.04461 0.81572 0.0
H1508 H 0.53049 0.01599 0.8239 0.0
C1509 C 0.50122 0.03959 0.86987 0.0
C1510 C 0.54009 0.0516 0.8533 0.0
C1511 C 0.48918 0.04454 0.88015 0.0
C1512 C 0.58427 0.02317 0.80673 0.0
C1513 C 0.57342 0.03163 0.81626 0.0
C1514 C 0.53336 0.02592 0.83208 0.0
C1515 C 0.51152 0.05087 0.86279 0.0
C1516 C 0.52435 0.04525 0.85199 0.0
C1517 C 0.56224 0.02327 0.82558 0.0
C1518 C 0.54922 0.03169 0.83395 0.0
H1519 H 0.49607 0.08499 0.87903 0.0
H1520 H 0.51725 0.07625 0.86093 0.0
H1521 H 0.509 0.02776 0.83938 0.0
H1522 H 0.57325 0.98505 0.81699 0.0
H1523 H 0.55452 -0.00024 0.83347 0.0
C1524 C 0.25353 0.20875 0.34184 0.0
C1525 C 0.25416 0.22552 0.34399 0.0
C1526 C 0.25015 0.19882 0.35476 0.0
C1527 C 0.25418 0.1981 0.39843 0.0
H1528 H 0.22659 0.16023 0.3947 0.0
C1529 C 0.24436 0.15584 0.45185 0.0
C1530 C 0.24428 0.13929 0.44828 0.0
C1531 C 0.24388 0.167 0.43949 0.0
C1532 C 0.23444 0.17069 0.39589 0.0
H1533 H 0.25147 0.24505 0.36125 0.0
H1534 H 0.24553 0.22767 0.38382 0.0
H1535 H 0.22848 0.17854 0.37217 0.0
H1536 H 0.24367 0.12148 0.42891 0.0
H1537 H 0.24324 0.14089 0.40745 0.0
H1538 H 0.26058 0.19007 0.42191 0.0
C1539 C 0.24767 0.22224 0.37215 0.0
C1540 C 0.23547 0.18118 0.38301 0.0
C1541 C 0.25092 0.23217 0.3592 0.0
C1542 C 0.24367 0.13415 0.4321 0.0
C1543 C 0.24329 0.14529 0.41977 0.0
C1544 C 0.25325 0.18756 0.41127 0.0
C1545 C 0.24749 0.20546 0.37011 0.0
C1546 C 0.24548 0.1949 0.3841 0.0
C1547 C 0.2434 0.16185 0.4233 0.0
C1548 C 0.24352 0.17362 0.41008 0.0
H1549 H 0.25587 0.20332 0.33021 0.0
H1550 H 0.2502 0.18592 0.35287 0.0
H1551 H 0.26216 0.20848 0.39952 0.0
H1552 H 0.24472 0.16018 0.4642 0.0
H1553 H 0.24378 0.17967 0.44263 0.0
C1554 C 0.5188 0.4409 0.85224 0.0
C1555 C 0.5232 0.45106 0.86524 0.0
C1556 C 0.5077 0.44595 0.84062 0.0
C1557 C 0.48698 0.48285 0.82635 0.0
H1558 H 0.45524 0.45223 0.80933 0.0
C1559 C 0.42283 0.49762 0.80515 0.0
C1560 C 0.41823 0.49238 0.78959 0.0
C1561 C 0.43756 0.49319 0.81177 0.0
C1562 C 0.4642 0.46083 0.81382 0.0
H1563 H 0.51921 0.47418 0.87665 0.0
H1564 H 0.49949 0.48274 0.85696 0.0
H1565 H 0.47732 0.44284 0.8262 0.0
H1566 H 0.42543 0.4786 0.76867 0.0
H1567 H 0.45111 0.47031 0.78062 0.0
H1568 H 0.47305 0.50094 0.81485 0.0
C1569 C 0.50499 0.47117 0.85517 0.0
C1570 C 0.47689 0.45548 0.82344 0.0
C1571 C 0.51622 0.46623 0.86657 0.0
C1572 C 0.42877 0.48288 0.78064 0.0
C1573 C 0.44336 0.47809 0.78746 0.0
C1574 C 0.47412 0.4882 0.81703 0.0
C1575 C 0.50062 0.46116 0.84197 0.0
C1576 C 0.48824 0.46648 0.83016 0.0
C1577 C 0.44778 0.48315 0.8031 0.0
C1578 C 0.4625 0.47727 0.81095 0.0
H1579 H 0.52409 0.42916 0.85095 0.0
H1580 H 0.50477 0.43798 0.83056 0.0
H1581 H 0.49572 0.49163 0.8309 0.0
H1582 H 0.41493 0.50497 0.81227 0.0
H1583 H 0.44073 0.49713 0.8239 0.0
C1584 C 0.73143 0.734 0.13089 0.0
C1585 C 0.72753 0.72805 0.14608 0.0
C1586 C 0.73421 0.72351 0.11802 0.0
C1587 C 0.72694 0.68191 0.10346 0.0
H1588 H 0.76317 0.69092 0.07614 0.0
C1589 C 0.74814 0.63656 0.05541 0.0
C1590 C 0.75252 0.64276 0.04047 0.0
C1591 C 0.74523 0.64687 0.06842 0.0
C1592 C 0.75291 0.68833 0.08354 0.0
H1593 H 0.72339 0.70636 0.15961 0.0
H1594 H 0.72819 0.68802 0.13708 0.0
H1595 H 0.75745 0.70911 0.09848 0.0
H1596 H 0.75737 0.66465 0.02748 0.0
H1597 H 0.75213 0.68263 0.05011 0.0
H1598 H 0.72236 0.66116 0.08848 0.0
C1599 C 0.72894 0.70083 0.13512 0.0
C1600 C 0.74962 0.69875 0.09634 0.0
C1601 C 0.72618 0.71134 0.14801 0.0
C1602 C 0.75407 0.65948 0.03885 0.0
C1603 C 0.75114 0.66979 0.05185 0.0
C1604 C 0.73021 0.6715 0.09063 0.0
C1605 C 0.73313 0.7068 0.12002 0.0
C1606 C 0.73659 0.69568 0.10643 0.0
C1607 C 0.74661 0.66361 0.06677 0.0
C1608 C 0.74322 0.6746 0.08051 0.0
H1609 H 0.73227 0.74681 0.12892 0.0
H1610 H 0.73712 0.72849 0.10646 0.0
H1611 H 0.71669 0.67933 0.11089 0.0
H1612 H 0.74689 0.62373 0.05708 0.0
H1613 H 0.74199 0.64172 0.07981 0.0
C1614 C 0.97853 0.01463 0.10913 0.0
C1615 C 0.98598 0.02931 0.10533 0.0
C1616 C 0.96891 0.01341 0.12269 0.0
C1617 C 0.94629 0.03798 0.15194 0.0
H1618 H 0.94876 -0.00022 0.17786 0.0
C1619 C 0.9179 0.03355 0.21475 0.0
C1620 C 0.90994 0.01908 0.2184 0.0
C1621 C 0.92674 0.03486 0.20067 0.0
C1622 C 0.9478 0.01045 0.17065 0.0
H1623 H 0.98933 0.0542 0.11287 0.0
H1624 H 0.9727 0.05206 0.13662 0.0
H1625 H 0.96509 0.00197 0.15394 0.0
H1626 H 0.90492 0.99467 0.21002 0.0
H1627 H 0.92033 0.99699 0.18546 0.0
H1628 H 0.92912 0.04652 0.16882 0.0
C1629 C 0.97402 0.04154 0.12896 0.0
C1630 C 0.95715 0.0117 0.15692 0.0
C1631 C 0.98357 0.04277 0.11536 0.0
C1632 C 0.91092 0.00599 0.2076 0.0
C1633 C 0.91983 0.00728 0.19356 0.0
C1634 C 0.93699 0.03676 0.16572 0.0
C1635 C 0.96658 0.02684 0.13281 0.0
C1636 C 0.95653 0.02548 0.14738 0.0
C1637 C 0.92789 0.02171 0.18997 0.0
C1638 C 0.93764 0.02298 0.17523 0.0
H1639 H 0.97996 0.0041 0.10151 0.0
H1640 H 0.96315 0.00198 0.12512 0.0
H1641 H 0.94531 0.04865 0.14475 0.0
H1642 H 0.91741 0.04386 0.22282 0.0
H1643 H 0.93294 0.0461 0.19833 0.0
C1644 C 0.27038 0.78848 0.16318 0.0
C1645 C 0.26121 0.77414 0.16271 0.0
C1646 C 0.26844 0.79994 0.15129 0.0
C1647 C 0.24232 0.8148 0.11921 0.0
H1648 H 0.28236 0.82413 0.09789 0.0
C1649 C 0.24563 0.84483 0.05679 0.0
C1650 C 0.25976 0.85326 0.05307 0.0
C1651 C 0.24425 0.83733 0.07167 0.0
C1652 C 0.27108 0.82208 0.10387 0.0
H1653 H 0.24213 0.76107 0.1498 0.0
H1654 H 0.23855 0.78136 0.12916 0.0
H1655 H 0.28241 0.80732 0.12136 0.0
H1656 H 0.28286 0.86182 0.0622 0.0
H1657 H 0.28007 0.84983 0.08849 0.0
H1658 H 0.23099 0.82975 0.10179 0.0
C1659 C 0.24727 0.7836 0.13877 0.0
C1660 C 0.27114 0.8123 0.11729 0.0
C1661 C 0.24934 0.772 0.15059 0.0
C1662 C 0.27192 0.85519 0.0648 0.0
C1663 C 0.27037 0.84814 0.07978 0.0
C1664 C 0.24229 0.82487 0.10587 0.0
C1665 C 0.25713 0.79744 0.13878 0.0
C1666 C 0.25678 0.80848 0.12503 0.0
C1667 C 0.25686 0.83847 0.08317 0.0
C1668 C 0.25669 0.82857 0.09796 0.0
H1669 H 0.27932 0.79073 0.17257 0.0
H1670 H 0.27604 0.81063 0.15167 0.0
H1671 H 0.2311 0.81203 0.12502 0.0
H1672 H 0.23615 0.84312 0.04783 0.0
H1673 H 0.23369 0.82995 0.07375 0.0
C1674 C 0.01946 0.47586 0.11551 0.0
C1675 C 0.01958 0.46309 0.10423 0.0
C1676 C 0.03287 0.47912 0.12541 0.0
C1677 C 0.06302 0.45732 0.14585 0.0
H1678 H 0.08279 0.49862 0.15677 0.0
C1679 C 0.10541 0.46261 0.20022 0.0
C1680 C 0.10392 0.47636 0.20998 0.0
C1681 C 0.09883 0.46214 0.18469 0.0
C1682 C 0.07731 0.48701 0.15398 0.0
H1683 H 0.03442 0.44466 0.09359 0.0
H1684 H 0.05752 0.44995 0.11142 0.0
H1685 H 0.06387 0.4963 0.13402 0.0
H1686 H 0.09502 0.50062 0.21114 0.0
H1687 H 0.08257 0.49952 0.18448 0.0
H1688 H 0.07514 0.44811 0.16631 0.0
C1689 C 0.04703 0.45739 0.11251 0.0
C1690 C 0.0666 0.4857 0.14088 0.0
C1691 C 0.03374 0.45429 0.10245 0.0
C1692 C 0.09636 0.48989 0.20377 0.0
C1693 C 0.08932 0.48926 0.18841 0.0
C1694 C 0.07339 0.45868 0.15912 0.0
C1695 C 0.04653 0.46956 0.12433 0.0
C1696 C 0.05925 0.47087 0.13686 0.0
C1697 C 0.09009 0.47521 0.17881 0.0
C1698 C 0.08052 0.47358 0.16355 0.0
H1699 H 0.00875 0.4828 0.11734 0.0
H1700 H 0.03218 0.48846 0.13458 0.0
H1701 H 0.05728 0.44581 0.14313 0.0
H1702 H 0.11143 0.45211 0.20471 0.0
H1703 H 0.1002 0.45131 0.17752 0.0
C1704 C 0.36594 0.72876 0.25623 0.0
C1705 C 0.35743 0.71403 0.25612 0.0
C1706 C 0.38039 0.7306 0.2648 0.0
C1707 C 0.40211 0.71551 0.29956 0.0
H1708 H 0.43768 0.73967 0.28185 0.0
C1709 C 0.45945 0.73302 0.33701 0.0
C1710 C 0.46452 0.7491 0.33544 0.0
C1711 C 0.44772 0.72634 0.32652 0.0
C1712 C 0.42784 0.73293 0.28699 0.0
H1713 H 0.35775 0.68955 0.2647 0.0
H1714 H 0.38291 0.69294 0.28003 0.0
H1715 H 0.41464 0.73229 0.2647 0.0
H1716 H 0.4613 0.77072 0.32156 0.0
H1717 H 0.4409 0.75921 0.30358 0.0
H1718 H 0.41505 0.7167 0.32202 0.0
C1719 C 0.37828 0.70303 0.27343 0.0
C1720 C 0.41467 0.72869 0.27716 0.0
C1721 C 0.36385 0.70113 0.26471 0.0
C1722 C 0.45773 0.75829 0.32313 0.0
C1723 C 0.4461 0.75164 0.31269 0.0
C1724 C 0.41528 0.71983 0.30944 0.0
C1725 C 0.38665 0.71781 0.2736 0.0
C1726 C 0.40149 0.72031 0.28344 0.0
C1727 C 0.44094 0.7356 0.31424 0.0
C1728 C 0.42807 0.72899 0.30336 0.0
H1729 H 0.36122 0.73907 0.25008 0.0
H1730 H 0.38643 0.74222 0.26495 0.0
H1731 H 0.39207 0.70912 0.30474 0.0
H1732 H 0.46446 0.72562 0.34636 0.0
H1733 H 0.44402 0.71393 0.32797 0.0
C1734 C 0.96598 0.36101 0.01436 0.0
C1735 C 0.95024 0.36509 0.01849 0.0
C1736 C 0.96872 0.34923 0.00266 0.0
C1737 C 0.97174 0.31951 0.98151 0.0
H1738 H 0.94684 0.32382 0.94208 0.0
C1739 C 0.9832 0.28115 0.9241 0.0
C1740 C 0.98367 0.28983 0.90975 0.0
C1741 C 0.97779 0.28837 0.93827 0.0
C1742 C 0.95387 0.32245 0.95303 0.0
H1743 H 0.92503 0.3594 0.01405 0.0
H1744 H 0.92985 0.33885 0.99344 0.0
H1745 H 0.93983 0.33952 0.96584 0.0
H1746 H 0.97881 0.31291 0.89906 0.0
H1747 H 0.96953 0.32545 0.92371 0.0
H1748 H 0.98621 0.30295 0.96844 0.0
C1749 C 0.94005 0.34493 -0.00079 0.0
C1750 C 0.94974 0.33129 0.9667 0.0
C1751 C 0.9373 0.3567 0.01098 0.0
C1752 C 0.9786 0.30585 0.90988 0.0
C1753 C 0.97314 0.31301 0.92399 0.0
C1754 C 0.97585 0.31062 0.96784 0.0
C1755 C 0.9558 0.34127 0.99473 0.0
C1756 C 0.95886 0.33021 0.98099 0.0
C1757 C 0.97265 0.30437 0.93834 0.0
C1758 C 0.9672 0.31231 0.95334 0.0
H1759 H 0.97624 0.36741 0.01964 0.0
H1760 H 0.98099 0.34692 -0.0007 0.0
H1761 H 0.97888 0.31829 0.99241 0.0
H1762 H 0.987 0.26878 0.9244 0.0
H1763 H 0.97748 0.28139 0.94914 0.0
C1764 C 0.64912 0.75764 0.27477 0.0
C1765 C 0.65438 0.77256 0.26896 0.0
C1766 C 0.63618 0.75674 0.28528 0.0
C1767 C 0.60061 0.77926 0.29745 0.0
H1768 H 0.60154 0.75285 0.33543 0.0
C1769 C 0.55199 0.78507 0.34444 0.0
C1770 C 0.54504 0.77078 0.35005 0.0
C1771 C 0.56622 0.78477 0.33587 0.0
C1772 C 0.60107 0.76016 0.32479 0.0
H1773 H 0.65009 0.79819 0.26949 0.0
H1774 H 0.62777 0.79664 0.2879 0.0
H1775 H 0.62448 0.753 0.31735 0.0
H1776 H 0.54806 0.74506 0.35188 0.0
H1777 H 0.57295 0.7445 0.33665 0.0
H1778 H 0.57729 0.78639 0.30469 0.0
C1779 C 0.63355 0.78562 0.2843 0.0
C1780 C 0.61417 0.76024 0.31445 0.0
C1781 C 0.64646 0.78652 0.27388 0.0
C1782 C 0.55313 0.75627 0.3477 0.0
C1783 C 0.56739 0.75595 0.339 0.0
C1784 C 0.58757 0.77917 0.30773 0.0
C1785 C 0.6282 0.77073 0.29006 0.0
C1786 C 0.61414 0.76994 0.30076 0.0
C1787 C 0.5738 0.77016 0.33257 0.0
C1788 C 0.58771 0.76979 0.32163 0.0
H1789 H 0.65507 0.74668 0.27128 0.0
H1790 H 0.63226 0.74508 0.28944 0.0
H1791 H 0.60006 0.78658 0.28682 0.0
H1792 H 0.54618 0.79649 0.34625 0.0
H1793 H 0.57108 0.79598 0.33146 0.0
C1794 C 0.02099 0.11484 0.98639 0.0
C1795 C 0.025 0.09941 0.98081 0.0
C1796 C 0.01904 0.12741 0.97565 0.0
C1797 C 0.01125 0.13586 0.93271 0.0
H1798 H 0.02783 0.17826 0.94459 0.0
C1799 C 0.0127 0.1888 0.8883 0.0
C1800 C 0.00831 0.20391 0.89444 0.0
C1801 C 0.01479 0.17584 0.89859 0.0
C1802 C 0.02299 0.16653 0.94115 0.0
H1803 H 0.02987 0.08509 0.95948 0.0
H1804 H 0.0268 0.10712 0.94078 0.0
H1805 H 0.0314 0.15609 0.96299 0.0
H1806 H 0.00254 0.21718 0.9162 0.0
H1807 H 0.00608 0.1946 0.93405 0.0
H1808 H 0.00288 0.14634 0.91084 0.0
C1809 C 0.02501 0.10945 0.95346 0.0
C1810 C 0.02502 0.15382 0.95171 0.0
C1811 C 0.02696 0.09686 0.96421 0.0
C1812 C 0.00597 0.20573 0.91106 0.0
C1813 C 0.0081 0.19281 0.92133 0.0
C1814 C 0.00925 0.14858 0.92213 0.0
C1815 C 0.02106 0.12489 0.95906 0.0
C1816 C 0.01911 0.13834 0.94767 0.0
C1817 C 0.01259 0.17773 0.91523 0.0
C1818 C 0.01502 0.16408 0.92627 0.0
H1819 H 0.01956 0.11727 -0.00089 0.0
H1820 H 0.01581 0.1391 0.98036 0.0
H1821 H 0.00636 0.12414 0.92931 0.0
H1822 H 0.01461 0.187 0.87556 0.0
H1823 H 0.01839 0.16441 0.89354 0.0
C1824 C 0.37321 0.28906 0.25585 0.0
C1825 C 0.36532 0.27485 0.26042 0.0
C1826 C 0.38859 0.28864 0.24955 0.0
C1827 C 0.4149 0.26067 0.22818 0.0
H1828 H 0.44289 0.29837 0.22856 0.0
C1829 C 0.46644 0.26771 0.1835 0.0
C1830 C 0.46271 0.28035 0.17317 0.0
C1831 C 0.45884 0.26644 0.19831 0.0
C1832 C 0.43534 0.28766 0.22857 0.0
H1833 H 0.36791 0.24911 0.26287 0.0
H1834 H 0.39509 0.24845 0.25248 0.0
H1835 H 0.42135 0.29645 0.24802 0.0
H1836 H 0.44923 0.30222 0.17061 0.0
H1837 H 0.43638 0.3003 0.19669 0.0
H1838 H 0.42882 0.25208 0.20851 0.0
C1839 C 0.38915 0.2599 0.25333 0.0
C1840 C 0.4229 0.28659 0.23957 0.0
C1841 C 0.37362 0.2603 0.25946 0.0
C1842 C 0.45225 0.29234 0.17836 0.0
C1843 C 0.445 0.29129 0.19329 0.0
C1844 C 0.42755 0.2616 0.21741 0.0
C1845 C 0.39667 0.27402 0.24789 0.0
C1846 C 0.41201 0.27345 0.23897 0.0
C1847 C 0.4478 0.27806 0.20313 0.0
C1848 C 0.4374 0.27541 0.21706 0.0
H1849 H 0.36736 0.30055 0.2568 0.0
H1850 H 0.3938 0.29976 0.24532 0.0
H1851 H 0.40675 0.25043 0.22719 0.0
H1852 H 0.4744 0.25827 0.17971 0.0
H1853 H 0.46109 0.25611 0.2057 0.0
C1854 C 0.55907 0.3677 5e-05 0.0
C1855 C 0.54854 0.37745 0.99131 0.0
C1856 C 0.55362 0.35909 0.01323 0.0
C1857 C 0.51644 0.34408 0.03202 0.0
H1858 H 0.54287 0.34306 0.07082 0.0
C1859 C 0.49064 0.32197 0.09091 0.0
C1860 C 0.49958 0.31039 0.09908 0.0
C1861 C 0.49751 0.3308 0.07863 0.0
C1862 C 0.53543 0.34316 0.06003 0.0
H1863 H 0.52408 0.38583 0.98957 0.0
H1864 H 0.51458 0.3709 0.01252 0.0
H1865 H 0.55302 0.35647 0.04701 0.0
H1866 H 0.5231 0.29976 0.10148 0.0
H1867 H 0.53513 0.31528 0.07994 0.0
H1868 H 0.4988 0.33094 0.04503 0.0
C1869 C 0.52697 0.36965 0.00905 0.0
C1870 C 0.54124 0.35077 0.04638 0.0
C1871 C 0.53241 0.3782 0.99587 0.0
C1872 C 0.51588 0.30857 0.09539 0.0
C1873 C 0.52278 0.31746 0.08307 0.0
C1874 C 0.51061 0.33657 0.04565 0.0
C1875 C 0.53753 0.36008 0.01796 0.0
C1876 C 0.53175 0.35142 0.03226 0.0
C1877 C 0.51348 0.32828 0.07424 0.0
C1878 C 0.51997 0.33616 0.05983 0.0
H1879 H 0.57154 0.36678 0.99672 0.0
H1880 H 0.56199 0.35163 0.01968 0.0
H1881 H 0.50895 0.34406 0.02126 0.0
H1882 H 0.47811 0.32383 0.09357 0.0
H1883 H 0.49017 0.33933 0.07227 0.0
C1884 C 0.64683 0.24973 0.22497 0.0
C1885 C 0.65111 0.23364 0.22711 0.0
C1886 C 0.63354 0.25354 0.21544 0.0
C1887 C 0.60597 0.23787 0.18354 0.0
H1888 H 0.57769 0.27041 0.20036 0.0
C1889 C 0.54363 0.25146 0.15516 0.0
C1890 C 0.53916 0.26766 0.15473 0.0
C1891 C 0.55769 0.24702 0.16325 0.0
C1892 C 0.58556 0.26145 0.19538 0.0
H1893 H 0.64495 0.20894 0.22067 0.0
H1894 H 0.62166 0.21563 0.20396 0.0
H1895 H 0.60147 0.26314 0.21577 0.0
H1896 H 0.54622 0.29194 0.16198 0.0
H1897 H 0.57076 0.28423 0.17587 0.0
H1898 H 0.58997 0.23621 0.16312 0.0
C1899 C 0.6287 0.22528 0.20959 0.0
C1900 C 0.59919 0.25727 0.20423 0.0
C1901 C 0.64203 0.22146 0.21915 0.0
C1902 C 0.54924 0.27934 0.16219 0.0
C1903 C 0.56327 0.27491 0.17024 0.0
C1904 C 0.59231 0.24208 0.17466 0.0
C1905 C 0.6242 0.24137 0.2078 0.0
C1906 C 0.60961 0.24551 0.19838 0.0
C1907 C 0.56755 0.25868 0.17106 0.0
C1908 C 0.58201 0.25399 0.18045 0.0
H1909 H 0.65378 0.25942 0.23065 0.0
H1910 H 0.63059 0.26607 0.21403 0.0
H1911 H 0.61385 0.22886 0.17866 0.0
H1912 H 0.53612 0.24216 0.14953 0.0
H1913 H 0.56059 0.2344 0.16377 0.0
C1914 C 0.45805 0.12868 0.02353 0.0
C1915 C 0.45009 0.13258 0.00914 0.0
C1916 C 0.46032 0.14027 0.03572 0.0
C1917 C 0.44294 0.17635 0.05227 0.0
H1918 H 0.48551 0.18711 0.06913 0.0
C1919 C 0.45538 0.2339 0.08943 0.0
C1920 C 0.46745 0.23406 0.10141 0.0
C1921 C 0.45292 0.22044 0.07946 0.0
C1922 C 0.47349 0.18405 0.06484 0.0
H1923 H 0.43817 0.15143 0.99614 0.0
H1924 H 0.44186 0.17165 0.01763 0.0
H1925 H 0.48205 0.16545 0.04919 0.0
H1926 H 0.48604 0.22002 0.11275 0.0
H1927 H 0.48136 0.19623 0.09572 0.0
H1928 H 0.43421 0.19461 0.068 0.0
C1929 C 0.44644 0.15969 0.01939 0.0
C1930 C 0.47156 0.17171 0.05335 0.0
C1931 C 0.44443 0.14821 0.0071 0.0
C1932 C 0.47671 0.22028 0.10354 0.0
C1933 C 0.47409 0.20669 0.0937 0.0
C1934 C 0.44481 0.18848 0.06394 0.0
C1935 C 0.45437 0.15581 0.0338 0.0
C1936 C 0.45631 0.168 0.04677 0.0
C1937 C 0.4623 0.20668 0.08139 0.0
C1938 C 0.46015 0.19273 0.07013 0.0
H1939 H 0.46254 0.11669 0.02531 0.0
H1940 H 0.46645 0.13703 0.04676 0.0
H1941 H 0.43103 0.1735 0.0475 0.0
H1942 H 0.44812 0.24437 0.08738 0.0
H1943 H 0.44396 0.22105 0.06993 0.0
C1944 C 0.27066 0.3612 0.71129 0.0
C1945 C 0.26414 0.35281 0.72427 0.0
C1946 C 0.28061 0.3747 0.71403 0.0
C1947 C 0.28985 0.40598 0.7446 0.0
H1948 H 0.33013 0.41145 0.72244 0.0
C1949 C 0.33764 0.45134 0.76704 0.0
C1950 C 0.34586 0.46057 0.75571 0.0
C1951 C 0.32768 0.43853 0.7621 0.0
C1952 C 0.31881 0.41021 0.72856 0.0
H1953 H 0.26348 0.35171 0.7503 0.0
H1954 H 0.28061 0.37529 0.75503 0.0
H1955 H 0.31255 0.38841 0.71568 0.0
H1956 H 0.35025 0.46339 0.73027 0.0
H1957 H 0.33264 0.44098 0.72161 0.0
H1958 H 0.29601 0.42764 0.7575 0.0
C1959 C 0.27782 0.3716 0.74274 0.0
C1960 C 0.30877 0.39702 0.7247 0.0
C1961 C 0.26797 0.3581 0.74002 0.0
C1962 C 0.34408 0.45651 0.7393 0.0
C1963 C 0.33405 0.44365 0.73434 0.0
C1964 C 0.29982 0.41914 0.7484 0.0
C1965 C 0.28415 0.38011 0.7298 0.0
C1966 C 0.29432 0.39463 0.73291 0.0
C1967 C 0.32561 0.43463 0.7457 0.0
C1968 C 0.31456 0.42125 0.74066 0.0
H1969 H 0.26783 0.35753 0.69901 0.0
H1970 H 0.28526 0.3811 0.70383 0.0
H1971 H 0.27863 0.40463 0.75088 0.0
H1972 H 0.33883 0.45403 0.77979 0.0
H1973 H 0.32164 0.43161 0.77118 0.0
C1974 C 0.29054 0.65823 0.75989 0.0
C1975 C 0.27503 0.65613 0.76599 0.0
C1976 C 0.30113 0.64534 0.75939 0.0
C1977 C 0.31151 0.60989 0.78063 0.0
H1978 H 0.32788 0.59171 0.74107 0.0
C1979 C 0.3391 0.54763 0.77946 0.0
C1980 C 0.35171 0.54422 0.76901 0.0
C1981 C 0.33116 0.56219 0.7787 0.0
C1982 C 0.32371 0.59682 0.75226 0.0
H1983 H 0.25838 0.63912 0.7764 0.0
H1984 H 0.27706 0.61673 0.77595 0.0
H1985 H 0.31144 0.61581 0.74021 0.0
H1986 H 0.36597 0.5535 0.74957 0.0
H1987 H 0.35239 0.57933 0.74855 0.0
H1988 H 0.32387 0.59135 0.79285 0.0
C1989 C 0.28091 0.62824 0.77134 0.0
C1990 C 0.31424 0.61055 0.75172 0.0
C1991 C 0.27024 0.64098 0.77153 0.0
C1992 C 0.35627 0.55579 0.75776 0.0
C1993 C 0.34842 0.57054 0.75714 0.0
C1994 C 0.32119 0.59641 0.78122 0.0
C1995 C 0.29644 0.63034 0.76534 0.0
C1996 C 0.30777 0.61692 0.76588 0.0
C1997 C 0.33576 0.57392 0.76763 0.0
C1998 C 0.32704 0.58939 0.76701 0.0
H1999 H 0.29446 0.66982 0.75555 0.0
H2000 H 0.31308 0.64719 0.75475 0.0
H2001 H 0.3068 0.61478 0.79171 0.0
H2002 H 0.33513 0.53891 0.78813 0.0
H2003 H 0.32119 0.56409 0.78666 0.0
C2004 C 0.8576 0.50964 0.44977 0.0
C2005 C 0.87205 0.51034 0.45874 0.0
C2006 C 0.84608 0.49763 0.45272 0.0
C2007 C 0.84291 0.4568 0.46508 0.0
H2008 H 0.8006 0.46506 0.48184 0.0
C2009 C 0.80715 0.40707 0.4949 0.0
C2010 C 0.79044 0.40604 0.49254 0.0
C2011 C 0.81583 0.42038 0.48969 0.0
C2012 C 0.81225 0.46254 0.47688 0.0
H2013 H 0.88592 0.49912 0.47761 0.0
H2014 H 0.86601 0.47797 0.48244 0.0
H2015 H 0.81798 0.4876 0.47407 0.0
H2016 H 0.76963 0.41832 0.48316 0.0
H2017 H 0.78493 0.44157 0.47363 0.0
H2018 H 0.83741 0.43189 0.46763 0.0
C2019 C 0.86349 0.48681 0.47337 0.0
C2020 C 0.82216 0.47544 0.47248 0.0
C2021 C 0.8748 0.49893 0.47066 0.0
C2022 C 0.78251 0.41881 0.48515 0.0
C2023 C 0.79127 0.43213 0.47974 0.0
C2024 C 0.83298 0.44396 0.46921 0.0
C2025 C 0.8491 0.48602 0.46438 0.0
C2026 C 0.83771 0.47262 0.46697 0.0
C2027 C 0.80808 0.43294 0.48176 0.0
C2028 C 0.81772 0.44666 0.47565 0.0
H2029 H 0.85524 0.51834 0.44053 0.0
H2030 H 0.83505 0.49716 0.44564 0.0
H2031 H 0.85482 0.4544 0.46067 0.0
H2032 H 0.8136 0.39755 0.50077 0.0
H2033 H 0.82867 0.4208 0.49193 0.0
C2034 C 0.7225 0.852 0.78231 0.0
C2035 C 0.73186 0.84867 0.76878 0.0
C2036 C 0.71365 0.86604 0.78326 0.0
C2037 C 0.69712 0.8986 0.75832 0.0
H2038 H 0.69074 0.91862 0.80011 0.0
C2039 C 0.66041 0.95635 0.76729 0.0
C2040 C 0.64709 0.95348 0.77705 0.0
C2041 C 0.67295 0.9454 0.76682 0.0
C2042 C 0.69255 0.91319 0.78837 0.0
H2043 H 0.73899 0.85753 0.74551 0.0
H2044 H 0.72418 0.88237 0.74754 0.0
H2045 H 0.70855 0.89576 0.79775 0.0
H2046 H 0.63682 0.93758 0.79467 0.0
H2047 H 0.65899 0.91875 0.79423 0.0
H2048 H 0.68116 0.91625 0.74902 0.0
C2049 C 0.72342 0.87395 0.75728 0.0
C2050 C 0.7026 0.90001 0.787 0.0
C2051 C 0.7321 0.85977 0.75621 0.0
C2052 C 0.64694 0.94002 0.78701 0.0
C2053 C 0.65962 0.92931 0.78681 0.0
C2054 C 0.68731 0.91197 0.75966 0.0
C2055 C 0.71411 0.87729 0.77085 0.0
C2056 C 0.70468 0.89227 0.77202 0.0
C2057 C 0.67251 0.93169 0.77642 0.0
C2058 C 0.68467 0.91913 0.77474 0.0
H2059 H 0.7222 0.84391 0.79236 0.0
H2060 H 0.70636 0.86798 0.79375 0.0
H2061 H 0.69825 0.89287 0.74662 0.0
H2062 H 0.66075 0.96659 0.75944 0.0
H2063 H 0.68281 0.94744 0.75874 0.0
C2064 C 0.63846 0.50309 0.95189 0.0
C2065 C 0.62411 0.49945 0.95972 0.0
C2066 C 0.64732 0.51688 0.9561 0.0
C2067 C 0.65369 0.54797 0.98779 0.0
H2068 H 0.67435 0.56975 0.95269 0.0
C2069 C 0.71009 0.58788 0.99587 0.0
C2070 C 0.71399 0.59863 0.98372 0.0
C2071 C 0.69564 0.57912 0.99499 0.0
C2072 C 0.66841 0.56418 0.96269 0.0
H2073 H 0.60786 0.50715 0.9783 0.0
H2074 H 0.62331 0.53154 0.98557 0.0
H2075 H 0.65612 0.54754 0.94691 0.0
H2076 H 0.70553 0.61013 0.96215 0.0
H2077 H 0.67976 0.59578 0.96116 0.0
H2078 H 0.6659 0.56485 0.00358 0.0
C2079 C 0.62779 0.5236 0.9763 0.0
C2080 C 0.65816 0.55116 0.95935 0.0
C2081 C 0.61897 0.50967 0.97215 0.0
C2082 C 0.70269 0.6018 0.9716 0.0
C2083 C 0.68805 0.59342 0.97096 0.0
C2084 C 0.66385 0.5612 0.99116 0.0
C2085 C 0.64194 0.52748 0.96813 0.0
C2086 C 0.65114 0.54253 0.97185 0.0
C2087 C 0.68479 0.58123 0.98204 0.0
C2088 C 0.67173 0.56917 0.97866 0.0
H2089 H 0.64281 0.49526 0.94244 0.0
H2090 H 0.65842 0.51925 0.94989 0.0
H2091 H 0.6484 0.54161 0.9977 0.0
H2092 H 0.7188 0.58521 0.00524 0.0
H2093 H 0.69367 0.56982 0.00371 0.0
C2094 C 0.21987 0.64743 0.25612 0.0
C2095 C 0.2217 0.65227 0.24013 0.0
C2096 C 0.20988 0.63438 0.25971 0.0
C2097 C 0.17684 0.60844 0.24332 0.0
H2098 H 0.19374 0.57734 0.27311 0.0
C2099 C 0.14998 0.54456 0.24859 0.0
C2100 C 0.14897 0.53795 0.26399 0.0
C2101 C 0.15792 0.55923 0.24638 0.0
C2102 C 0.18874 0.58601 0.26495 0.0
H2103 H 0.21429 0.64734 0.21541 0.0
H2104 H 0.19686 0.62456 0.22168 0.0
H2105 H 0.20908 0.60183 0.268 0.0
H2106 H 0.15532 0.54168 0.28918 0.0
H2107 H 0.16911 0.56737 0.28531 0.0
H2108 H 0.15658 0.59249 0.24013 0.0
C2109 C 0.20299 0.63098 0.23146 0.0
C2110 C 0.19752 0.60006 0.26202 0.0
C2111 C 0.21298 0.64404 0.22786 0.0
C2112 C 0.15594 0.54641 0.27715 0.0
C2113 C 0.1639 0.5611 0.27493 0.0
C2114 C 0.16804 0.59438 0.24625 0.0
C2115 C 0.2015 0.62588 0.2474 0.0
C2116 C 0.19174 0.61137 0.25108 0.0
C2117 C 0.16504 0.56764 0.25951 0.0
C2118 C 0.17396 0.58295 0.25699 0.0
H2119 H 0.22622 0.6537 0.26586 0.0
H2120 H 0.20877 0.63092 0.27214 0.0
H2121 H 0.17195 0.61703 0.235 0.0
H2122 H 0.14476 0.53834 0.23818 0.0
H2123 H 0.15877 0.56382 0.23431 0.0
C2124 C 0.87986 0.5061 0.06298 0.0
C2125 C 0.8826 0.49306 0.05246 0.0
C2126 C 0.868 0.51726 0.0594 0.0
C2127 C 0.83136 0.52237 0.03463 0.0
H2128 H 0.84232 0.56784 0.03647 0.0
C2129 C 0.79785 0.56765 0.99682 0.0
C2130 C 0.79362 0.58245 0.00377 0.0
C2131 C 0.80784 0.55724 0.00504 0.0
C2132 C 0.83899 0.55521 0.03617 0.0
H2133 H 0.87512 0.48169 0.02984 0.0
H2134 H 0.85439 0.50095 0.02376 0.0
H2135 H 0.86132 0.54834 0.04701 0.0
H2136 H 0.79681 0.59804 0.02477 0.0
H2137 H 0.81454 0.57971 0.03918 0.0
H2138 H 0.80927 0.52912 0.02342 0.0
C2139 C 0.86124 0.50243 0.03489 0.0
C2140 C 0.84985 0.54405 0.04219 0.0
C2141 C 0.87311 0.49136 0.0384 0.0
C2142 C 0.79985 0.58672 0.01909 0.0
C2143 C 0.81 0.57626 0.02732 0.0
C2144 C 0.82055 0.53348 0.02864 0.0
C2145 C 0.85858 0.51552 0.04531 0.0
C2146 C 0.84632 0.5275 0.04104 0.0
C2147 C 0.81391 0.56134 0.02042 0.0
C2148 C 0.82445 0.54996 0.0289 0.0
H2149 H 0.88682 0.50765 0.07401 0.0
H2150 H 0.86612 0.52719 0.0677 0.0
H2151 H 0.82817 0.50971 0.0339 0.0
H2152 H 0.79334 0.56398 0.98501 0.0
H2153 H 0.81092 0.54598 -0.00074 0.0
C2154 C 0.11414 0.98449 0.01875 0.0
C2155 C 0.09914 0.97917 0.02429 0.0
C2156 C 0.12663 0.9737 0.01658 0.0
C2157 C 0.14074 0.93399 0.02923 0.0
H2158 H 0.16809 0.93746 0.99213 0.0
C2159 C 0.18945 0.88736 0.01522 0.0
C2160 C 0.20437 0.89341 0.01021 0.0
C2161 C 0.17622 0.89743 0.01635 0.0
C2162 C 0.16065 0.93642 0.00263 0.0
H2163 H 0.08545 0.95823 0.03164 0.0
H2164 H 0.10726 0.9394 0.0279 0.0
H2165 H 0.14578 0.95579 0.99528 0.0
H2166 H 0.21705 0.91478 0.0023 0.0
H2167 H 0.19406 0.93233 0.00444 0.0
H2168 H 0.15568 0.91471 0.03665 0.0
C2169 C 0.10942 0.95198 0.02543 0.0
C2170 C 0.14786 0.94693 0.00444 0.0
C2171 C 0.09693 0.96278 0.02759 0.0
C2172 C 0.20572 0.9097 0.00617 0.0
C2173 C 0.1925 0.91976 0.00731 0.0
C2174 C 0.15353 0.92349 0.02743 0.0
C2175 C 0.12443 0.95732 0.01992 0.0
C2176 C 0.1378 0.94589 0.0178 0.0
C2177 C 0.17761 0.91377 0.01249 0.0
C2178 C 0.1637 0.92463 0.01415 0.0
H2179 H 0.11635 0.99707 0.01634 0.0
H2180 H 0.13812 0.97825 0.01257 0.0
H2181 H 0.13336 0.93301 0.03977 0.0
H2182 H 0.18798 0.87486 0.01836 0.0
H2183 H 0.16487 0.89238 0.02018 0.0
loop_
_geom_bond_atom_site_label_1
_geom_bond_atom_site_label_2
_geom_bond_distance
_geom_bond_site_symmetry_2
_ccdc_geom_bond_type
C0 C1 1.384 1_655 S
C0 H13 0.947 . S
C0 C35 1.382 1_655 S
C1 C0 1.384 1_455 S
C1 C2 1.378 . S
C2 C1 1.378 . S
C2 C3 1.378 . S
C2 H14 0.952 . S
C3 C2 1.378 . S
C3 H15 0.950 . S
C3 C34 1.383 . S
H4 C23 0.947 . S
H5 C24 0.946 . S
H6 C26 0.953 . S
H7 C27 0.945 . S
H8 C29 0.952 . S
H9 C30 0.949 . S
H10 C32 0.950 . S
H11 C33 0.948 . S
H12 C35 0.951 . S
H13 C0 0.947 . S
H14 C2 0.952 . S
H15 C3 0.950 . S
N16 C19 1.382 . S
N16 C21 1.363 . S
N17 C19 1.371 . S
N17 C20 1.372 . S
N18 C20 1.361 . S
N18 C21 1.377 . S
C19 N16 1.382 . S
C19 N17 1.371 . S
C19 C22 1.480 . S
C20 N17 1.372 . S
C20 N18 1.361 . S
C20 C28 1.457 . S
C21 N16 1.363 . S
C21 N18 1.377 . S
C21 C34 1.479 . S
C22 C19 1.480 . S
C22 C23 1.383 . S
C22 C27 1.385 . S
C23 H4 0.947 . S
C23 C22 1.383 . S
C23 C24 1.388 1_545 S
C24 H5 0.946 . S
C24 C23 1.388 1_565 S
C24 C25 1.384 1_565 S
C25 C24 1.384 1_545 S
C25 C26 1.377 . S
C26 H6 0.953 . S
C26 C25 1.377 . S
C26 C27 1.369 . S
C27 H7 0.945 . S
C27 C22 1.385 . S
C27 C26 1.369 . S
C28 C20 1.457 . S
C28 C29 1.372 . S
C28 C33 1.364 . S
C29 H8 0.952 . S
C29 C28 1.372 . S
C29 C30 1.389 1_554 S
C30 H9 0.949 . S
C30 C29 1.389 1_556 S
C30 C31 1.387 1_556 S
C31 C30 1.387 1_554 S
C31 C32 1.372 . S
C32 H10 0.950 . S
C32 C31 1.372 . S
C32 C33 1.379 . S
C33 H11 0.948 . S
C33 C28 1.364 . S
C33 C32 1.379 . S
C34 C3 1.383 . S
C34 C21 1.479 . S
C34 C35 1.398 . S
C35 C0 1.382 1_455 S
C35 H12 0.951 . S
C35 C34 1.398 . S
C36 C37 1.384 . S
C36 H49 0.947 . S
C36 C71 1.382 . S
C37 C36 1.384 . S
C37 C38 1.378 . S
C38 C37 1.378 . S
C38 C39 1.378 . S
C38 H50 0.952 . S
C39 C38 1.378 . S
C39 H51 0.950 . S
C39 C70 1.383 . S
H40 C59 0.947 . S
H41 C60 0.946 . S
H42 C62 0.953 . S
H43 C63 0.945 . S
H44 C65 0.952 . S
H45 C66 0.949 . S
H46 C68 0.950 . S
H47 C69 0.948 . S
H48 C71 0.951 . S
H49 C36 0.947 . S
H50 C38 0.952 . S
H51 C39 0.950 . S
N52 C55 1.382 . S
N52 C57 1.363 . S
N53 C55 1.371 . S
N53 C56 1.372 . S
N54 C56 1.361 . S
N54 C57 1.377 . S
C55 N52 1.382 . S
C55 N53 1.371 . S
C55 C58 1.480 . S
C56 N53 1.372 . S
C56 N54 1.361 . S
C56 C64 1.457 . S
C57 N52 1.363 . S
C57 N54 1.377 . S
C57 C70 1.479 . S
C58 C55 1.480 . S
C58 C59 1.383 . S
C58 C63 1.385 . S
C59 H40 0.947 . S
C59 C58 1.383 . S
C59 C60 1.388 . S
C60 H41 0.946 . S
C60 C59 1.388 . S
C60 C61 1.384 . S
C61 C60 1.384 . S
C61 C62 1.377 . S
C62 H42 0.953 . S
C62 C61 1.377 . S
C62 C63 1.369 . S
C63 H43 0.945 . S
C63 C58 1.385 . S
C63 C62 1.369 . S
C64 C56 1.457 . S
C64 C65 1.372 . S
C64 C69 1.364 . S
C65 H44 0.952 . S
C65 C64 1.372 . S
C65 C66 1.389 . S
C66 H45 0.949 . S
C66 C65 1.389 . S
C66 C67 1.387 . S
C67 C66 1.387 . S
C67 C68 1.372 . S
C68 H46 0.950 . S
C68 C67 1.372 . S
C68 C69 1.379 . S
C69 H47 0.948 . S
C69 C64 1.364 . S
C69 C68 1.379 . S
C70 C39 1.383 . S
C70 C57 1.479 . S
C70 C71 1.398 . S
C71 C36 1.382 . S
C71 H48 0.951 . S
C71 C70 1.398 . S
C72 C73 1.384 . S
C72 H85 0.947 . S
C72 C107 1.382 . S
C73 C72 1.384 . S
C73 C74 1.378 . S
C74 C73 1.378 . S
C74 C75 1.378 . S
C74 H86 0.952 1_554 S
C75 C74 1.378 . S
C75 H87 0.950 . S
C75 C106 1.383 . S
H76 C95 0.947 . S
H77 C96 0.946 . S
H78 C98 0.953 . S
H79 C99 0.945 . S
H80 C101 0.952 . S
H81 C102 0.949 . S
H82 C104 0.950 1_455 S
H83 C105 0.948 . S
H84 C107 0.951 . S
H85 C72 0.947 . S
H86 C74 0.952 1_556 S
H87 C75 0.950 . S
N88 C91 1.382 . S
N88 C93 1.363 . S
N89 C91 1.371 . S
N89 C92 1.372 . S
N90 C92 1.361 . S
N90 C93 1.377 . S
C91 N88 1.382 . S
C91 N89 1.371 . S
C91 C94 1.480 . S
C92 N89 1.372 . S
C92 N90 1.361 . S
C92 C100 1.457 . S
C93 N88 1.363 . S
C93 N90 1.377 . S
C93 C106 1.479 . S
C94 C91 1.480 . S
C94 C95 1.383 . S
C94 C99 1.385 . S
C95 H76 0.947 . S
C95 C94 1.383 . S
C95 C96 1.388 . S
C96 H77 0.946 . S
C96 C95 1.388 . S
C96 C97 1.384 . S
C97 C96 1.384 . S
C97 C98 1.377 . S
C98 H78 0.953 . S
C98 C97 1.377 . S
C98 C99 1.369 . S
C99 H79 0.945 . S
C99 C94 1.385 . S
C99 C98 1.369 . S
C100 C92 1.457 . S
C100 C101 1.372 . S
C100 C105 1.364 . S
C101 H80 0.952 . S
C101 C100 1.372 . S
C101 C102 1.389 . S
C102 H81 0.949 . S
C102 C101 1.389 . S
C102 C103 1.387 . S
C103 C102 1.387 . S
C103 C104 1.372 . S
C104 H82 0.950 1_655 S
C104 C103 1.372 . S
C104 C105 1.379 . S
C105 H83 0.948 . S
C105 C100 1.364 . S
C105 C104 1.379 . S
C106 C75 1.383 . S
C106 C93 1.479 . S
C106 C107 1.398 . S
C107 C72 1.382 . S
C107 H84 0.951 . S
C107 C106 1.398 . S
C108 C109 1.384 . S
C108 H121 0.947 . S
C108 C143 1.382 . S
C109 C108 1.384 . S
C109 C110 1.378 . S
C110 C109 1.378 . S
C110 C111 1.378 . S
C110 H122 0.952 . S
C111 C110 1.378 . S
C111 H123 0.950 . S
C111 C142 1.383 . S
H112 C131 0.947 . S
H113 C132 0.946 . S
H114 C134 0.953 . S
H115 C135 0.945 . S
H116 C137 0.952 . S
H117 C138 0.949 . S
H118 C140 0.950 . S
H119 C141 0.948 . S
H120 C143 0.951 . S
H121 C108 0.947 . S
H122 C110 0.952 . S
H123 C111 0.950 . S
N124 C127 1.382 . S
N124 C129 1.363 . S
N125 C127 1.371 . S
N125 C128 1.372 . S
N126 C128 1.361 . S
N126 C129 1.377 . S
C127 N124 1.382 . S
C127 N125 1.371 . S
C127 C130 1.480 . S
C128 N125 1.372 . S
C128 N126 1.361 . S
C128 C136 1.457 . S
C129 N124 1.363 . S
C129 N126 1.377 . S
C129 C142 1.479 . S
C130 C127 1.480 . S
C130 C131 1.383 . S
C130 C135 1.385 . S
C131 H112 0.947 . S
C131 C130 1.383 . S
C131 C132 1.388 . S
C132 H113 0.946 . S
C132 C131 1.388 . S
C132 C133 1.384 . S
C133 C132 1.384 . S
C133 C134 1.377 . S
C134 H114 0.953 . S
C134 C133 1.377 . S
C134 C135 1.369 . S
C135 H115 0.945 . S
C135 C130 1.385 . S
C135 C134 1.369 . S
C136 C128 1.457 . S
C136 C137 1.372 . S
C136 C141 1.364 . S
C137 H116 0.952 . S
C137 C136 1.372 . S
C137 C138 1.389 . S
C138 H117 0.949 . S
C138 C137 1.389 . S
C138 C139 1.387 . S
C139 C138 1.387 . S
C139 C140 1.372 . S
C140 H118 0.950 . S
C140 C139 1.372 . S
C140 C141 1.379 . S
C141 H119 0.948 . S
C141 C136 1.364 . S
C141 C140 1.379 . S
C142 C111 1.383 . S
C142 C129 1.479 . S
C142 C143 1.398 . S
C143 C108 1.382 . S
C143 H120 0.951 . S
C143 C142 1.398 . S
C144 C145 1.384 . S
C144 H157 0.947 . S
C144 C179 1.382 . S
C145 C144 1.384 . S
C145 C146 1.378 . S
C146 C145 1.378 . S
C146 C147 1.378 . S
C146 H158 0.952 . S
C147 C146 1.378 . S
C147 H159 0.950 . S
C147 C178 1.383 . S
H148 C167 0.947 . S
H149 C168 0.890 1_655 S
H150 C170 0.953 . S
H151 C171 0.945 . S
H152 C173 0.952 . S
H153 C174 0.949 1_545 S
H154 C176 0.950 . S
H155 C177 0.948 . S
H156 C179 0.951 . S
H157 C144 0.947 . S
H158 C146 0.952 . S
H159 C147 0.950 . S
N160 C163 1.382 . S
N160 C165 1.363 . S
N161 C163 1.371 . S
N161 C164 1.372 . S
N162 C164 1.361 . S
N162 C165 1.377 . S
C163 N160 1.382 . S
C163 N161 1.371 . S
C163 C166 1.480 . S
C164 N161 1.372 . S
C164 N162 1.361 . S
C164 C172 1.457 . S
C165 N160 1.363 . S
C165 N162 1.377 . S
C165 C178 1.479 . S
C166 C163 1.480 . S
C166 C167 1.383 . S
C166 C171 1.385 . S
C167 H148 0.947 . S
C167 C166 1.383 . S
C167 C168 1.388 . S
C168 H149 0.890 1_455 S
C168 C167 1.388 . S
C168 C169 1.384 . S
C169 C168 1.384 . S
C169 C170 1.377 . S
C170 H150 0.953 . S
C170 C169 1.377 . S
C170 C171 1.369 . S
C171 H151 0.945 . S
C171 C166 1.385 . S
C171 C170 1.369 . S
C172 C164 1.457 . S
C172 C173 1.372 . S
C172 C177 1.364 . S
C173 H152 0.952 . S
C173 C172 1.372 . S
C173 C174 1.389 . S
C174 H153 0.949 1_565 S
C174 C173 1.389 . S
C174 C175 1.387 . S
C175 C174 1.387 . S
C175 C176 1.372 . S
C176 H154 0.950 . S
C176 C175 1.372 . S
C176 C177 1.379 . S
C177 H155 0.948 . S
C177 C172 1.364 . S
C177 C176 1.379 . S
C178 C147 1.383 . S
C178 C165 1.479 . S
C178 C179 1.398 . S
C179 C144 1.382 . S
C179 H156 0.951 . S
C179 C178 1.398 . S
C180 C181 1.384 . S
C180 H193 0.947 . S
C180 C215 1.382 . S
C181 C180 1.384 . S
C181 C182 1.378 . S
C182 C181 1.378 . S
C182 C183 1.378 . S
C182 H194 0.952 . S
C183 C182 1.378 . S
C183 H195 0.950 . S
C183 C214 1.383 . S
H184 C203 0.947 . S
H185 C204 0.946 . S
H186 C206 0.953 . S
H187 C207 0.945 . S
H188 C209 0.952 . S
H189 C210 0.949 . S
H190 C212 0.950 . S
H191 C213 0.948 . S
H192 C215 0.951 . S
H193 C180 0.947 . S
H194 C182 0.952 . S
H195 C183 0.950 . S
N196 C199 1.382 . S
N196 C201 1.363 . S
N197 C199 1.371 . S
N197 C200 1.372 . S
N198 C200 1.361 . S
N198 C201 1.377 . S
C199 N196 1.382 . S
C199 N197 1.371 . S
C199 C202 1.480 . S
C200 N197 1.372 . S
C200 N198 1.361 . S
C200 C208 1.457 . S
C201 N196 1.363 . S
C201 N198 1.377 . S
C201 C214 1.479 . S
C202 C199 1.480 . S
C202 C203 1.383 . S
C202 C207 1.385 . S
C203 H184 0.947 . S
C203 C202 1.383 . S
C203 C204 1.388 . S
C204 H185 0.946 . S
C204 C203 1.388 . S
C204 C205 1.384 . S
C205 C204 1.384 . S
C205 C206 1.377 . S
C206 H186 0.953 . S
C206 C205 1.377 . S
C206 C207 1.369 . S
C207 H187 0.945 . S
C207 C202 1.385 . S
C207 C206 1.369 . S
C208 C200 1.457 . S
C208 C209 1.372 . S
C208 C213 1.364 . S
C209 H188 0.952 . S
C209 C208 1.372 . S
C209 C210 1.389 . S
C210 H189 0.949 . S
C210 C209 1.389 . S
C210 C211 1.387 . S
C211 C210 1.387 . S
C211 C212 1.372 . S
C212 H190 0.950 . S
C212 C211 1.372 . S
C212 C213 1.379 . S
C213 H191 0.948 . S
C213 C208 1.364 . S
C213 C212 1.379 . S
C214 C183 1.383 . S
C214 C201 1.479 . S
C214 C215 1.398 . S
C215 C180 1.382 . S
C215 H192 0.951 . S
C215 C214 1.398 . S
C216 C217 1.384 . S
C216 H229 0.947 . S
C216 C251 1.382 . S
C217 C216 1.384 . S
C217 C218 1.378 . S
C218 C217 1.378 . S
C218 C219 1.378 . S
C218 H230 0.952 . S
C219 C218 1.378 . S
C219 H231 0.950 . S
C219 C250 1.383 . S
H220 C239 0.947 . S
H221 C240 0.946 . S
H222 C242 0.953 . S
H223 C243 0.945 . S
H224 C245 0.952 . S
H225 C246 0.949 . S
H226 C248 0.950 . S
H227 C249 0.948 . S
H228 C251 0.951 . S
H229 C216 0.947 . S
H230 C218 0.952 . S
H231 C219 0.950 . S
N232 C235 1.382 . S
N232 C237 1.363 . S
N233 C235 1.371 . S
N233 C236 1.372 . S
N234 C236 1.361 . S
N234 C237 1.377 . S
C235 N232 1.382 . S
C235 N233 1.371 . S
C235 C238 1.480 . S
C236 N233 1.372 . S
C236 N234 1.361 . S
C236 C244 1.457 . S
C237 N232 1.363 . S
C237 N234 1.377 . S
C237 C250 1.479 . S
C238 C235 1.480 . S
C238 C239 1.383 . S
C238 C243 1.385 . S
C239 H220 0.947 . S
C239 C238 1.383 . S
C239 C240 1.388 . S
C240 H221 0.946 . S
C240 C239 1.388 . S
C240 C241 1.384 . S
C241 C240 1.384 . S
C241 C242 1.377 . S
C242 H222 0.953 . S
C242 C241 1.377 . S
C242 C243 1.369 . S
C243 H223 0.945 . S
C243 C238 1.385 . S
C243 C242 1.369 . S
C244 C236 1.457 . S
C244 C245 1.372 . S
C244 C249 1.364 . S
C245 H224 0.952 . S
C245 C244 1.372 . S
C245 C246 1.389 . S
C246 H225 0.949 . S
C246 C245 1.389 . S
C246 C247 1.387 . S
C247 C246 1.387 . S
C247 C248 1.372 1_655 S
C248 H226 0.950 . S
C248 C247 1.372 1_455 S
C248 C249 1.379 1_455 S
C249 H227 0.948 . S
C249 C244 1.364 . S
C249 C248 1.379 1_655 S
C250 C219 1.383 . S
C250 C237 1.479 . S
C250 C251 1.398 . S
C251 C216 1.382 . S
C251 H228 0.951 . S
C251 C250 1.398 . S
C252 C253 1.384 . S
C252 H265 0.947 . S
C252 C287 1.382 . S
C253 C252 1.384 . S
C253 C254 1.378 . S
C254 C253 1.378 . S
C254 C255 1.378 . S
C254 H266 0.952 . S
C255 C254 1.378 . S
C255 H267 0.950 . S
C255 C286 1.383 . S
H256 C275 0.947 . S
H257 C276 0.946 . S
H258 C278 0.953 . S
H259 C279 0.945 . S
H260 C281 0.952 . S
H261 C282 0.949 . S
H262 C284 0.950 . S
H263 C285 0.948 . S
H264 C287 0.951 . S
H265 C252 0.947 . S
H266 C254 0.952 . S
H267 C255 0.950 . S
N268 C271 1.382 . S
N268 C273 1.363 . S
N269 C271 1.371 . S
N269 C272 1.372 . S
N270 C272 1.361 . S
N270 C273 1.377 . S
C271 N268 1.382 . S
C271 N269 1.371 . S
C271 C274 1.480 . S
C272 N269 1.372 . S
C272 N270 1.361 . S
C272 C280 1.457 . S
C273 N268 1.363 . S
C273 N270 1.377 . S
C273 C286 1.479 . S
C274 C271 1.480 . S
C274 C275 1.383 . S
C274 C279 1.385 . S
C275 H256 0.947 . S
C275 C274 1.383 . S
C275 C276 1.388 . S
C276 H257 0.946 . S
C276 C275 1.388 . S
C276 C277 1.384 . S
C277 C276 1.384 . S
C277 C278 1.377 . S
C278 H258 0.953 . S
C278 C277 1.377 . S
C278 C279 1.369 . S
C279 H259 0.945 . S
C279 C274 1.385 . S
C279 C278 1.369 . S
C280 C272 1.457 . S
C280 C281 1.372 . S
C280 C285 1.364 . S
C281 H260 0.952 . S
C281 C280 1.372 . S
C281 C282 1.389 . S
C282 H261 0.949 . S
C282 C281 1.389 . S
C282 C283 1.387 . S
C283 C282 1.387 . S
C283 C284 1.372 . S
C284 H262 0.950 . S
C284 C283 1.372 . S
C284 C285 1.379 . S
C285 H263 0.948 . S
C285 C280 1.364 . S
C285 C284 1.379 . S
C286 C255 1.383 . S
C286 C273 1.479 . S
C286 C287 1.398 . S
C287 C252 1.382 . S
C287 H264 0.951 . S
C287 C286 1.398 . S
C288 C289 1.384 . S
C288 H301 0.947 . S
C288 C323 1.382 . S
C289 C288 1.384 . S
C289 C290 1.378 . S
C290 C289 1.378 . S
C290 C291 1.378 . S
C290 H302 0.952 . S
C291 C290 1.378 . S
C291 H303 0.950 . S
C291 C322 1.383 . S
H292 C311 0.947 . S
H293 C312 0.946 . S
H294 C314 0.953 . S
H295 C315 0.945 . S
H296 C317 0.952 . S
H297 C318 0.949 . S
H298 C320 0.950 . S
H299 C321 0.948 . S
H300 C323 0.951 . S
H301 C288 0.947 . S
H302 C290 0.952 . S
H303 C291 0.950 . S
N304 C307 1.382 . S
N304 C309 1.363 . S
N305 C307 1.371 . S
N305 C308 1.372 . S
N306 C308 1.361 . S
N306 C309 1.377 . S
C307 N304 1.382 . S
C307 N305 1.371 . S
C307 C310 1.480 . S
C308 N305 1.372 . S
C308 N306 1.361 . S
C308 C316 1.457 . S
C309 N304 1.363 . S
C309 N306 1.377 . S
C309 C322 1.479 . S
C310 C307 1.480 . S
C310 C311 1.383 . S
C310 C315 1.385 . S
C311 H292 0.947 . S
C311 C310 1.383 . S
C311 C312 1.388 . S
C312 H293 0.946 . S
C312 C311 1.388 . S
C312 C313 1.384 . S
C313 C312 1.384 . S
C313 C314 1.377 . S
C314 H294 0.953 . S
C314 C313 1.377 . S
C314 C315 1.369 . S
C315 H295 0.945 . S
C315 C310 1.385 . S
C315 C314 1.369 . S
C316 C308 1.457 . S
C316 C317 1.372 . S
C316 C321 1.364 . S
C317 H296 0.952 . S
C317 C316 1.372 . S
C317 C318 1.389 . S
C318 H297 0.949 . S
C318 C317 1.389 . S
C318 C319 1.387 . S
C319 C318 1.387 . S
C319 C320 1.372 . S
C320 H298 0.950 . S
C320 C319 1.372 . S
C320 C321 1.379 . S
C321 H299 0.948 . S
C321 C316 1.364 . S
C321 C320 1.379 . S
C322 C291 1.383 . S
C322 C309 1.479 . S
C322 C323 1.398 . S
C323 C288 1.382 . S
C323 H300 0.951 . S
C323 C322 1.398 . S
C324 C325 1.384 . S
C324 H337 0.947 . S
C324 C359 1.382 . S
C325 C324 1.384 . S
C325 C326 1.378 . S
C326 C325 1.378 . S
C326 C327 1.378 . S
C326 H338 0.952 . S
C327 C326 1.378 . S
C327 H339 0.950 . S
C327 C358 1.383 . S
H328 C347 0.947 . S
H329 C348 0.946 . S
H330 C350 0.953 . S
H331 C351 0.945 . S
H332 C353 0.952 . S
H333 C354 0.949 . S
H334 C356 0.950 . S
H335 C357 0.948 . S
H336 C359 0.951 . S
H337 C324 0.947 . S
H338 C326 0.952 . S
H339 C327 0.950 . S
N340 C343 1.382 . S
N340 C345 1.363 . S
N341 C343 1.371 . S
N341 C344 1.372 . S
N342 C344 1.361 . S
N342 C345 1.377 . S
C343 N340 1.382 . S
C343 N341 1.371 . S
C343 C346 1.480 . S
C344 N341 1.372 . S
C344 N342 1.361 . S
C344 C352 1.457 . S
C345 N340 1.363 . S
C345 N342 1.377 . S
C345 C358 1.479 . S
C346 C343 1.480 . S
C346 C347 1.383 . S
C346 C351 1.385 . S
C347 H328 0.947 . S
C347 C346 1.383 . S
C347 C348 1.388 . S
C348 H329 0.946 . S
C348 C347 1.388 . S
C348 C349 1.384 . S
C349 C348 1.384 . S
C349 C350 1.377 1_565 S
C350 H330 0.953 . S
C350 C349 1.377 1_545 S
C350 C351 1.369 1_545 S
C351 H331 0.945 . S
C351 C346 1.385 . S
C351 C350 1.369 1_565 S
C352 C344 1.457 . S
C352 C353 1.372 . S
C352 C357 1.364 . S
C353 H332 0.952 . S
C353 C352 1.372 . S
C353 C354 1.389 . S
C354 H333 0.949 . S
C354 C353 1.389 . S
C354 C355 1.387 . S
C355 C354 1.387 . S
C355 C356 1.372 . S
C356 H334 0.950 . S
C356 C355 1.372 . S
C356 C357 1.379 . S
C357 H335 0.948 . S
C357 C352 1.364 . S
C357 C356 1.379 . S
C358 C327 1.383 . S
C358 C345 1.479 . S
C358 C359 1.398 . S
C359 C324 1.382 . S
C359 H336 0.951 . S
C359 C358 1.398 . S
C360 C361 1.384 . S
C360 H373 0.947 . S
C360 C395 1.382 . S
C361 C360 1.384 . S
C361 C362 1.378 . S
C362 C361 1.378 . S
C362 C363 1.378 . S
C362 H374 0.952 . S
C363 C362 1.378 . S
C363 H375 0.950 . S
C363 C394 1.383 . S
H364 C383 0.947 . S
H365 C384 0.946 . S
H366 C386 0.953 . S
H367 C387 0.945 . S
H368 C389 0.952 . S
H369 C390 0.949 . S
H370 C392 0.950 . S
H371 C393 0.948 . S
H372 C395 0.951 . S
H373 C360 0.947 . S
H374 C362 0.952 . S
H375 C363 0.950 . S
N376 C379 1.382 . S
N376 C381 1.363 . S
N377 C379 1.371 . S
N377 C380 1.372 . S
N378 C380 1.361 . S
N378 C381 1.377 . S
C379 N376 1.382 . S
C379 N377 1.371 . S
C379 C382 1.480 . S
C380 N377 1.372 . S
C380 N378 1.361 . S
C380 C388 1.457 . S
C381 N376 1.363 . S
C381 N378 1.377 . S
C381 C394 1.479 . S
C382 C379 1.480 . S
C382 C383 1.383 . S
C382 C387 1.385 . S
C383 H364 0.947 . S
C383 C382 1.383 . S
C383 C384 1.388 . S
C384 H365 0.946 . S
C384 C383 1.388 . S
C384 C385 1.384 . S
C385 C384 1.384 . S
C385 C386 1.377 . S
C386 H366 0.953 . S
C386 C385 1.377 . S
C386 C387 1.369 . S
C387 H367 0.945 . S
C387 C382 1.385 . S
C387 C386 1.369 . S
C388 C380 1.457 . S
C388 C389 1.372 . S
C388 C393 1.364 . S
C389 H368 0.952 . S
C389 C388 1.372 . S
C389 C390 1.389 . S
C390 H369 0.949 . S
C390 C389 1.389 . S
C390 C391 1.387 . S
C391 C390 1.387 . S
C391 C392 1.372 . S
C392 H370 0.950 . S
C392 C391 1.372 . S
C392 C393 1.379 . S
C393 H371 0.948 . S
C393 C388 1.364 . S
C393 C392 1.379 . S
C394 C363 1.383 . S
C394 C381 1.479 . S
C394 C395 1.398 . S
C395 C360 1.382 . S
C395 H372 0.951 . S
C395 C394 1.398 . S
C396 C397 1.384 . S
C396 H409 0.947 . S
C396 C431 1.382 . S
C397 C396 1.384 . S
C397 C398 1.378 . S
C398 C397 1.378 . S
C398 C399 1.378 . S
C398 H410 0.952 . S
C399 C398 1.378 . S
C399 H411 0.950 . S
C399 C430 1.383 . S
H400 C419 0.947 . S
H401 C420 0.946 . S
H402 C422 0.953 . S
H403 C423 0.945 . S
H404 C425 0.952 . S
H405 C426 0.949 . S
H406 C428 0.950 . S
H407 C429 0.948 . S
H408 C431 0.951 . S
H409 C396 0.947 . S
H410 C398 0.952 . S
H411 C399 0.950 . S
N412 C415 1.382 . S
N412 C417 1.363 . S
N413 C415 1.371 . S
N413 C416 1.372 . S
N414 C416 1.361 . S
N414 C417 1.377 . S
C415 N412 1.382 . S
C415 N413 1.371 . S
C415 C418 1.480 . S
C416 N413 1.372 . S
C416 N414 1.361 . S
C416 C424 1.457 . S
C417 N412 1.363 . S
C417 N414 1.377 . S
C417 C430 1.479 . S
C418 C415 1.480 . S
C418 C419 1.383 . S
C418 C423 1.385 . S
C419 H400 0.947 . S
C419 C418 1.383 . S
C419 C420 1.388 . S
C420 H401 0.946 . S
C420 C419 1.388 . S
C420 C421 1.384 . S
C421 C420 1.384 . S
C421 C422 1.377 . S
C422 H402 0.953 . S
C422 C421 1.377 . S
C422 C423 1.369 . S
C423 H403 0.945 . S
C423 C418 1.385 . S
C423 C422 1.369 . S
C424 C416 1.457 . S
C424 C425 1.372 . S
C424 C429 1.364 . S
C425 H404 0.952 . S
C425 C424 1.372 . S
C425 C426 1.389 . S
C426 H405 0.949 . S
C426 C425 1.389 . S
C426 C427 1.387 . S
C427 C426 1.387 . S
C427 C428 1.372 . S
C428 H406 0.950 . S
C428 C427 1.372 . S
C428 C429 1.379 . S
C429 H407 0.948 . S
C429 C424 1.364 . S
C429 C428 1.379 . S
C430 C399 1.383 . S
C430 C417 1.479 . S
C430 C431 1.398 . S
C431 C396 1.382 . S
C431 H408 0.951 . S
C431 C430 1.398 . S
C432 C433 1.384 . S
C432 H445 0.947 . S
C432 C467 1.382 . S
C433 C432 1.384 . S
C433 C434 1.378 . S
C434 C433 1.378 . S
C434 C435 1.378 . S
C434 H446 0.952 . S
C435 C434 1.378 . S
C435 H447 0.950 . S
C435 C466 1.383 . S
H436 C455 0.947 . S
H437 C456 0.946 . S
H438 C458 0.953 . S
H439 C459 0.945 . S
H440 C461 0.952 . S
H441 C462 0.949 . S
H442 C464 0.950 . S
H443 C465 0.948 . S
H444 C467 0.951 . S
H445 C432 0.947 . S
H446 C434 0.952 . S
H447 C435 0.950 . S
N448 C451 1.382 . S
N448 C453 1.363 . S
N449 C451 1.371 . S
N449 C452 1.372 . S
N450 C452 1.361 . S
N450 C453 1.377 . S
C451 N448 1.382 . S
C451 N449 1.371 . S
C451 C454 1.480 . S
C452 N449 1.372 . S
C452 N450 1.361 . S
C452 C460 1.457 . S
C453 N448 1.363 . S
C453 N450 1.377 . S
C453 C466 1.479 . S
C454 C451 1.480 . S
C454 C455 1.383 . S
C454 C459 1.385 . S
C455 H436 0.947 . S
C455 C454 1.383 . S
C455 C456 1.388 . S
C456 H437 0.946 . S
C456 C455 1.388 . S
C456 C457 1.384 . S
C457 C456 1.384 . S
C457 C458 1.377 . S
C458 H438 0.953 . S
C458 C457 1.377 . S
C458 C459 1.369 . S
C459 H439 0.945 . S
C459 C454 1.385 . S
C459 C458 1.369 . S
C460 C452 1.457 . S
C460 C461 1.372 . S
C460 C465 1.364 . S
C461 H440 0.952 . S
C461 C460 1.372 . S
C461 C462 1.389 . S
C462 H441 0.949 . S
C462 C461 1.389 . S
C462 C463 1.387 . S
C463 C462 1.387 . S
C463 C464 1.372 . S
C464 H442 0.950 . S
C464 C463 1.372 . S
C464 C465 1.379 . S
C465 H443 0.948 . S
C465 C460 1.364 . S
C465 C464 1.379 . S
C466 C435 1.383 . S
C466 C453 1.479 . S
C466 C467 1.398 . S
C467 C432 1.382 . S
C467 H444 0.951 . S
C467 C466 1.398 . S
C468 C469 1.386 . S
C468 H481 0.935 1_556 S
C468 C503 1.392 . S
C469 C468 1.386 . S
C469 C470 1.378 . S
C470 C469 1.378 . S
C470 C471 1.378 . S
C470 H482 0.952 . S
C471 C470 1.378 . S
C471 H483 0.950 . S
C471 C502 1.383 . S
H472 C491 0.947 . S
H473 C492 0.946 . S
H474 C494 0.953 . S
H475 C495 0.945 . S
H476 C497 0.952 . S
H477 C498 0.949 . S
H478 C500 0.950 . S
H479 C501 0.948 . S
H480 C503 0.951 . S
H481 C468 0.935 1_554 S
H482 C470 0.952 . S
H483 C471 0.950 . S
N484 C487 1.382 . S
N484 C489 1.363 . S
N485 C487 1.371 . S
N485 C488 1.372 . S
N486 C488 1.361 . S
N486 C489 1.377 . S
C487 N484 1.382 . S
C487 N485 1.371 . S
C487 C490 1.480 . S
C488 N485 1.372 . S
C488 N486 1.361 . S
C488 C496 1.457 . S
C489 N484 1.363 . S
C489 N486 1.377 . S
C489 C502 1.479 . S
C490 C487 1.480 . S
C490 C491 1.383 . S
C490 C495 1.385 . S
C491 H472 0.947 . S
C491 C490 1.383 . S
C491 C492 1.388 . S
C492 H473 0.946 . S
C492 C491 1.388 . S
C492 C493 1.384 . S
C493 C492 1.384 . S
C493 C494 1.377 . S
C494 H474 0.953 . S
C494 C493 1.377 . S
C494 C495 1.369 . S
C495 H475 0.945 . S
C495 C490 1.385 . S
C495 C494 1.369 . S
C496 C488 1.457 . S
C496 C497 1.372 . S
C496 C501 1.364 . S
C497 H476 0.952 . S
C497 C496 1.372 . S
C497 C498 1.389 . S
C498 H477 0.949 . S
C498 C497 1.389 . S
C498 C499 1.387 . S
C499 C498 1.387 . S
C499 C500 1.372 . S
C500 H478 0.950 . S
C500 C499 1.372 . S
C500 C501 1.379 . S
C501 H479 0.948 . S
C501 C496 1.364 . S
C501 C500 1.379 . S
C502 C471 1.383 . S
C502 C489 1.479 . S
C502 C503 1.398 . S
C503 C468 1.392 . S
C503 H480 0.951 . S
C503 C502 1.398 . S
C504 C505 1.384 . S
C504 H517 0.947 . S
C504 C539 1.382 . S
C505 C504 1.384 . S
C505 C506 1.378 . S
C506 C505 1.378 . S
C506 C507 1.378 . S
C506 H518 0.952 . S
C507 C506 1.378 . S
C507 H519 0.950 . S
C507 C538 1.383 . S
H508 C527 0.947 . S
H509 C528 0.946 . S
H510 C530 0.953 . S
H511 C531 0.945 . S
H512 C533 0.952 . S
H513 C534 0.949 . S
H514 C536 0.950 . S
H515 C537 0.948 . S
H516 C539 0.951 . S
H517 C504 0.947 . S
H518 C506 0.952 . S
H519 C507 0.950 . S
N520 C523 1.382 . S
N520 C525 1.363 . S
N521 C523 1.371 . S
N521 C524 1.372 . S
N522 C524 1.361 . S
N522 C525 1.377 . S
C523 N520 1.382 . S
C523 N521 1.371 . S
C523 C526 1.480 . S
C524 N521 1.372 . S
C524 N522 1.361 . S
C524 C532 1.457 . S
C525 N520 1.363 . S
C525 N522 1.377 . S
C525 C538 1.479 . S
C526 C523 1.480 . S
C526 C527 1.383 . S
C526 C531 1.385 . S
C527 H508 0.947 . S
C527 C526 1.383 . S
C527 C528 1.388 . S
C528 H509 0.946 . S
C528 C527 1.388 . S
C528 C529 1.384 . S
C529 C528 1.384 . S
C529 C530 1.377 . S
C530 H510 0.953 . S
C530 C529 1.377 . S
C530 C531 1.369 . S
C531 H511 0.945 . S
C531 C526 1.385 . S
C531 C530 1.369 . S
C532 C524 1.457 . S
C532 C533 1.372 . S
C532 C537 1.364 . S
C533 H512 0.952 . S
C533 C532 1.372 . S
C533 C534 1.389 . S
C534 H513 0.949 . S
C534 C533 1.389 . S
C534 C535 1.387 . S
C535 C534 1.387 . S
C535 C536 1.372 . S
C536 H514 0.950 . S
C536 C535 1.372 . S
C536 C537 1.379 . S
C537 H515 0.948 . S
C537 C532 1.364 . S
C537 C536 1.379 . S
C538 C507 1.383 . S
C538 C525 1.479 . S
C538 C539 1.398 . S
C539 C504 1.382 . S
C539 H516 0.951 . S
C539 C538 1.398 . S
C540 C541 1.384 . S
C540 H553 0.947 . S
C540 C575 1.382 . S
C541 C540 1.384 . S
C541 C542 1.378 . S
C542 C541 1.378 . S
C542 C543 1.378 . S
C542 H554 0.952 1_556 S
C543 C542 1.378 . S
C543 H555 0.950 . S
C543 C574 1.383 . S
H544 C563 0.947 . S
H545 C564 0.946 . S
H546 C566 0.953 1_565 S
H547 C567 0.945 . S
H548 C569 0.952 . S
H549 C570 0.949 . S
H550 C572 0.950 . S
H551 C573 0.948 . S
H552 C575 0.951 . S
H553 C540 0.947 . S
H554 C542 0.952 1_554 S
H555 C543 0.950 . S
N556 C559 1.382 . S
N556 C561 1.363 . S
N557 C559 1.371 . S
N557 C560 1.372 . S
N558 C560 1.361 . S
N558 C561 1.377 . S
C559 N556 1.382 . S
C559 N557 1.371 . S
C559 C562 1.480 . S
C560 N557 1.372 . S
C560 N558 1.361 . S
C560 C568 1.457 . S
C561 N556 1.363 . S
C561 N558 1.377 . S
C561 C574 1.479 . S
C562 C559 1.480 . S
C562 C563 1.383 . S
C562 C567 1.385 . S
C563 H544 0.947 . S
C563 C562 1.383 . S
C563 C564 1.388 . S
C564 H545 0.946 . S
C564 C563 1.388 . S
C564 C565 1.384 . S
C565 C564 1.384 . S
C565 C566 1.377 . S
C566 H546 0.953 1_545 S
C566 C565 1.377 . S
C566 C567 1.369 . S
C567 H547 0.945 . S
C567 C562 1.385 . S
C567 C566 1.369 . S
C568 C560 1.457 . S
C568 C569 1.372 . S
C568 C573 1.364 . S
C569 H548 0.952 . S
C569 C568 1.372 . S
C569 C570 1.389 . S
C570 H549 0.949 . S
C570 C569 1.389 . S
C570 C571 1.387 . S
C571 C570 1.387 . S
C571 C572 1.372 . S
C572 H550 0.950 . S
C572 C571 1.372 . S
C572 C573 1.379 . S
C573 H551 0.948 . S
C573 C568 1.364 . S
C573 C572 1.379 . S
C574 C543 1.383 . S
C574 C561 1.479 . S
C574 C575 1.398 . S
C575 C540 1.382 . S
C575 H552 0.951 . S
C575 C574 1.398 . S
Zn576 O579 2.062 . S
Zn576 O581 2.028 1_554 S
Zn576 O586 2.025 1_554 S
Zn577 O578 1.962 . S
Zn577 O580 1.986 . S
Zn577 O582 1.996 . S
Zn577 O585 1.943 1_554 S
O578 Zn577 1.962 . S
O578 C583 1.254 . S
O579 Zn576 2.062 . S
O579 C583 1.269 . S
O580 Zn577 1.986 . S
O580 C587 1.262 . S
O581 Zn576 2.028 1_556 S
O581 C589 1.260 . S
O582 Zn577 1.996 . S
O582 C589 1.257 1_554 S
C583 O578 1.254 . S
C583 O579 1.269 . S
C584 O585 1.249 . S
C584 O586 1.270 . S
O585 Zn577 1.943 1_556 S
O585 C584 1.249 . S
O586 Zn576 2.025 1_556 S
O586 C584 1.270 . S
C587 O580 1.262 . S
C587 O588 1.232 . S
O588 C587 1.232 . S
C589 O581 1.260 . S
C589 O582 1.257 1_556 S
Zn590 O593 2.031 . S
Zn590 O595 2.049 . S
Zn590 O600 2.067 . S
Zn591 O592 1.962 . S
Zn591 O594 1.986 . S
Zn591 O596 1.996 . S
Zn591 O599 1.943 . S
O592 Zn591 1.962 . S
O592 C597 1.254 . S
O593 Zn590 2.031 . S
O593 C597 1.269 . S
O594 Zn591 1.986 . S
O594 C601 1.262 . S
O595 Zn590 2.049 . S
O595 C603 1.260 . S
O596 Zn591 1.996 . S
O596 C603 1.257 . S
C597 O592 1.254 . S
C597 O593 1.269 . S
C598 O599 1.249 . S
C598 O600 1.270 . S
O599 Zn591 1.943 . S
O599 C598 1.249 . S
O600 Zn590 2.067 . S
O600 C598 1.270 . S
C601 O594 1.262 . S
C601 O602 1.232 . S
O602 C601 1.232 . S
C603 O595 1.260 . S
C603 O596 1.257 . S
Zn604 O607 2.031 . S
Zn604 O609 2.049 . S
Zn604 O614 2.067 . S
Zn605 O606 1.962 . S
Zn605 O608 1.986 . S
Zn605 O610 1.996 1_554 S
Zn605 O613 1.943 . S
O606 Zn605 1.962 . S
O606 C611 1.254 . S
O607 Zn604 2.031 . S
O607 C611 1.269 1_556 S
O608 Zn605 1.986 . S
O608 C615 1.262 . S
O609 Zn604 2.049 . S
O609 C617 1.260 . S
O610 Zn605 1.996 1_556 S
O610 C617 1.257 . S
C611 O606 1.254 . S
C611 O607 1.269 1_554 S
C612 O613 1.249 1_556 S
C612 O614 1.270 . S
O613 Zn605 1.943 . S
O613 C612 1.249 1_554 S
O614 Zn604 2.067 . S
O614 C612 1.270 . S
C615 O608 1.262 . S
C615 O616 1.232 . S
O616 C615 1.232 . S
C617 O609 1.260 . S
C617 O610 1.257 . S
Zn618 O621 2.058 . S
Zn618 O623 2.031 1_545 S
Zn618 O628 2.031 1_545 S
Zn619 O620 1.962 . S
Zn619 O622 1.986 . S
Zn619 O624 1.996 . S
Zn619 O627 1.943 1_545 S
O620 Zn619 1.962 . S
O620 C625 1.254 . S
O621 Zn618 2.058 . S
O621 C625 1.269 . S
O622 Zn619 1.986 . S
O622 C629 1.262 . S
O623 Zn618 2.031 1_565 S
O623 C631 1.260 . S
O624 Zn619 1.996 . S
O624 C631 1.257 1_545 S
C625 O620 1.254 . S
C625 O621 1.269 . S
C626 O627 1.249 . S
C626 O628 1.270 . S
O627 Zn619 1.943 1_565 S
O627 C626 1.249 . S
O628 Zn618 2.031 1_565 S
O628 C626 1.270 . S
C629 O622 1.262 . S
C629 O630 1.232 . S
O630 C629 1.232 . S
C631 O623 1.260 . S
C631 O624 1.257 1_565 S
Zn632 O635 2.031 . S
Zn632 O637 2.049 . S
Zn632 O642 2.067 . S
Zn633 O634 1.962 . S
Zn633 O636 1.986 . S
Zn633 O638 1.996 . S
Zn633 O641 1.943 . S
O634 Zn633 1.962 . S
O634 C639 1.254 . S
O635 Zn632 2.031 . S
O635 C639 1.269 . S
O636 Zn633 1.986 . S
O636 C643 1.262 . S
O637 Zn632 2.049 . S
O637 C645 1.260 . S
O638 Zn633 1.996 . S
O638 C645 1.257 . S
C639 O634 1.254 . S
C639 O635 1.269 . S
C640 O641 1.249 . S
C640 O642 1.270 . S
O641 Zn633 1.943 . S
O641 C640 1.249 . S
O642 Zn632 2.067 . S
O642 C640 1.270 . S
C643 O636 1.262 . S
C643 O644 1.232 . S
O644 C643 1.232 . S
C645 O637 1.260 . S
C645 O638 1.257 . S
Zn646 O649 2.031 . S
Zn646 O651 2.049 . S
Zn646 O656 2.067 . S
Zn647 O648 1.962 . S
Zn647 O650 1.986 . S
Zn647 O652 1.996 . S
Zn647 O655 1.943 . S
O648 Zn647 1.962 . S
O648 C653 1.254 . S
O649 Zn646 2.031 . S
O649 C653 1.269 . S
O650 Zn647 1.986 . S
O650 C657 1.262 . S
O651 Zn646 2.049 . S
O651 C659 1.260 . S
O652 Zn647 1.996 . S
O652 C659 1.257 . S
C653 O648 1.254 . S
C653 O649 1.269 . S
C654 O655 1.249 . S
C654 O656 1.270 . S
O655 Zn647 1.943 . S
O655 C654 1.249 . S
O656 Zn646 2.067 . S
O656 C654 1.270 . S
C657 O650 1.262 . S
C657 O658 1.232 . S
O658 C657 1.232 . S
C659 O651 1.260 . S
C659 O652 1.257 . S
Zn660 O663 2.031 . S
Zn660 O665 2.049 . S
Zn660 O670 2.067 . S
Zn661 O662 1.962 . S
Zn661 O664 1.986 . S
Zn661 O666 1.996 . S
Zn661 O669 1.943 . S
O662 Zn661 1.962 . S
O662 C667 1.254 . S
O663 Zn660 2.031 . S
O663 C667 1.269 . S
O664 Zn661 1.986 . S
O664 C671 1.262 . S
O665 Zn660 2.049 . S
O665 C673 1.260 . S
O666 Zn661 1.996 . S
O666 C673 1.257 . S
C667 O662 1.254 . S
C667 O663 1.269 . S
C668 O669 1.249 . S
C668 O670 1.270 . S
O669 Zn661 1.943 . S
O669 C668 1.249 . S
O670 Zn660 2.067 . S
O670 C668 1.270 . S
C671 O664 1.262 . S
C671 O672 1.232 . S
O672 C671 1.232 . S
C673 O665 1.260 . S
C673 O666 1.257 . S
Zn674 O677 2.031 . S
Zn674 O679 2.049 . S
Zn674 O684 2.067 . S
Zn675 O676 1.962 . S
Zn675 O678 1.986 . S
Zn675 O680 1.996 1_545 S
Zn675 O683 1.943 . S
O676 Zn675 1.962 . S
O676 C681 1.254 . S
O677 Zn674 2.031 . S
O677 C681 1.269 1_565 S
O678 Zn675 1.986 . S
O678 C685 1.262 . S
O679 Zn674 2.049 . S
O679 C687 1.260 . S
O680 Zn675 1.996 1_565 S
O680 C687 1.257 . S
C681 O676 1.254 . S
C681 O677 1.269 1_545 S
C682 O683 1.249 1_565 S
C682 O684 1.270 . S
O683 Zn675 1.943 . S
O683 C682 1.249 1_545 S
O684 Zn674 2.067 . S
O684 C682 1.270 . S
C685 O678 1.262 . S
C685 O686 1.232 . S
O686 C685 1.232 . S
C687 O679 1.260 . S
C687 O680 1.257 . S
Zn688 O691 2.040 . S
Zn688 O693 2.043 1_455 S
Zn688 O698 2.055 1_455 S
Zn689 O690 1.962 . S
Zn689 O692 1.986 . S
Zn689 O694 1.996 . S
Zn689 O697 1.943 1_455 S
O690 Zn689 1.962 . S
O690 C695 1.254 . S
O691 Zn688 2.040 . S
O691 C695 1.269 . S
O692 Zn689 1.986 . S
O692 C699 1.262 . S
O693 Zn688 2.043 1_655 S
O693 C701 1.260 . S
O694 Zn689 1.996 . S
O694 C701 1.257 1_455 S
C695 O690 1.254 . S
C695 O691 1.269 . S
C696 O697 1.249 . S
C696 O698 1.270 . S
O697 Zn689 1.943 1_655 S
O697 C696 1.249 . S
O698 Zn688 2.055 1_655 S
O698 C696 1.270 . S
C699 O692 1.262 . S
C699 O700 1.232 . S
O700 C699 1.232 . S
C701 O693 1.260 . S
C701 O694 1.257 1_655 S
Zn702 O705 2.031 . S
Zn702 O707 2.049 . S
Zn702 O712 2.067 . S
Zn703 O704 1.962 . S
Zn703 O706 1.986 . S
Zn703 O708 1.996 . S
Zn703 O711 1.943 . S
O704 Zn703 1.962 . S
O704 C709 1.254 . S
O705 Zn702 2.031 . S
O705 C709 1.269 . S
O706 Zn703 1.986 . S
O706 C713 1.262 . S
O707 Zn702 2.049 . S
O707 C715 1.260 . S
O708 Zn703 1.996 . S
O708 C715 1.257 . S
C709 O704 1.254 . S
C709 O705 1.269 . S
C710 O711 1.249 . S
C710 O712 1.270 . S
O711 Zn703 1.943 . S
O711 C710 1.249 . S
O712 Zn702 2.067 . S
O712 C710 1.270 . S
C713 O706 1.262 . S
C713 O714 1.232 . S
O714 C713 1.232 . S
C715 O707 1.260 . S
C715 O708 1.257 . S
Zn716 O719 2.031 . S
Zn716 O721 2.049 . S
Zn716 O726 2.067 . S
Zn717 O718 1.962 . S
Zn717 O720 1.986 . S
Zn717 O722 1.996 1_455 S
Zn717 O725 1.943 . S
O718 Zn717 1.962 . S
O718 C723 1.254 . S
O719 Zn716 2.031 . S
O719 C723 1.269 1_655 S
O720 Zn717 1.986 . S
O720 C727 1.262 . S
O721 Zn716 2.049 . S
O721 C729 1.260 . S
O722 Zn717 1.996 1_655 S
O722 C729 1.257 . S
C723 O718 1.254 . S
C723 O719 1.269 1_455 S
C724 O725 1.249 1_655 S
C724 O726 1.270 . S
O725 Zn717 1.943 . S
O725 C724 1.249 1_455 S
O726 Zn716 2.067 . S
O726 C724 1.270 . S
C727 O720 1.262 . S
C727 O728 1.232 . S
O728 C727 1.232 . S
C729 O721 1.260 . S
C729 O722 1.257 . S
Zn730 O733 2.031 . S
Zn730 O735 2.049 . S
Zn730 O740 2.067 . S
Zn731 O732 1.962 . S
Zn731 O734 1.986 . S
Zn731 O736 1.996 . S
Zn731 O739 1.943 . S
O732 Zn731 1.962 . S
O732 C737 1.254 . S
O733 Zn730 2.031 . S
O733 C737 1.269 . S
O734 Zn731 1.986 . S
O734 C741 1.262 . S
O735 Zn730 2.049 . S
O735 C743 1.260 . S
O736 Zn731 1.996 . S
O736 C743 1.257 . S
C737 O732 1.254 . S
C737 O733 1.269 . S
C738 O739 1.249 . S
C738 O740 1.270 . S
O739 Zn731 1.943 . S
O739 C738 1.249 . S
O740 Zn730 2.067 . S
O740 C738 1.270 . S
C741 O734 1.262 . S
C741 O742 1.232 . S
O742 C741 1.232 . S
C743 O735 1.260 . S
C743 O736 1.257 . S
C744 C745 1.349 . S
C744 C746 1.327 . S
C744 H769 0.950 . S
C745 C744 1.349 . S
C745 C761 1.349 . S
C746 C744 1.327 . S
C746 C765 1.429 . S
C746 H770 0.950 . S
C747 C764 1.574 . S
C747 C766 1.368 . S
C747 H771 0.949 . S
H748 C752 0.949 . S
C749 C750 1.349 . S
C749 C751 1.327 . S
C749 H772 0.950 . S
C750 C749 1.349 . S
C750 C762 1.349 . S
C751 C749 1.327 . S
C751 C767 1.429 . S
C751 H773 0.950 . S
C752 H748 0.949 . S
C752 C760 1.574 . S
C752 C768 1.368 . S
H753 C761 0.950 . S
H754 C759 0.950 . S
H755 C760 0.949 . S
H756 C762 0.950 . S
H757 C763 0.950 . S
H758 C764 0.949 . S
C759 H754 0.950 . S
C759 C761 1.327 . S
C759 C765 1.429 . S
C760 C752 1.574 . S
C760 H755 0.949 . S
C760 C766 1.368 . S
C761 C745 1.349 . S
C761 H753 0.950 . S
C761 C759 1.327 . S
C762 C750 1.349 . S
C762 H756 0.950 . S
C762 C763 1.327 . S
C763 H757 0.950 . S
C763 C762 1.327 . S
C763 C767 1.429 . S
C764 C747 1.574 . S
C764 H758 0.949 . S
C764 C768 1.368 . S
C765 C746 1.429 . S
C765 C759 1.429 . S
C765 C766 1.523 . S
C766 C747 1.368 . S
C766 C760 1.368 . S
C766 C765 1.523 . S
C767 C751 1.429 . S
C767 C763 1.429 . S
C767 C768 1.523 . S
C768 C752 1.368 . S
C768 C764 1.368 . S
C768 C767 1.523 . S
H769 C744 0.950 . S
H770 C746 0.950 . S
H771 C747 0.949 . S
H772 C749 0.950 . S
H773 C751 0.950 . S
C774 C775 1.349 . S
C774 C776 1.327 . S
C774 H799 0.950 1_455 S
C775 C774 1.349 . S
C775 C791 1.349 . S
C776 C774 1.327 . S
C776 C795 1.429 . S
C776 H800 0.950 . S
C777 C794 1.574 . S
C777 C796 1.368 . S
C777 H801 0.949 . S
H778 C782 0.949 . S
C779 C780 1.349 . S
C779 C781 1.327 . S
C779 H802 0.950 . S
C780 C779 1.349 . S
C780 C792 1.349 . S
C781 C779 1.327 . S
C781 C797 1.429 . S
C781 H803 0.950 . S
C782 H778 0.949 . S
C782 C790 1.574 . S
C782 C798 1.368 . S
H783 C791 0.950 . S
H784 C789 0.950 . S
H785 C790 0.949 . S
H786 C792 0.950 . S
H787 C793 0.950 . S
H788 C794 0.949 . S
C789 H784 0.950 . S
C789 C791 1.327 . S
C789 C795 1.429 . S
C790 C782 1.574 . S
C790 H785 0.949 . S
C790 C796 1.368 . S
C791 C775 1.349 . S
C791 H783 0.950 . S
C791 C789 1.327 . S
C792 C780 1.349 . S
C792 H786 0.950 . S
C792 C793 1.327 . S
C793 H787 0.950 . S
C793 C792 1.327 . S
C793 C797 1.429 . S
C794 C777 1.574 . S
C794 H788 0.949 . S
C794 C798 1.368 . S
C795 C776 1.429 . S
C795 C789 1.429 . S
C795 C796 1.523 . S
C796 C777 1.368 . S
C796 C790 1.368 . S
C796 C795 1.523 . S
C797 C781 1.429 . S
C797 C793 1.429 . S
C797 C798 1.523 . S
C798 C782 1.368 . S
C798 C794 1.368 . S
C798 C797 1.523 . S
H799 C774 0.950 1_655 S
H800 C776 0.950 . S
H801 C777 0.949 . S
H802 C779 0.950 . S
H803 C781 0.950 . S
C804 C805 1.349 . S
C804 C806 1.327 . S
C804 H829 0.950 . S
C805 C804 1.349 . S
C805 C821 1.349 . S
C806 C804 1.327 . S
C806 C825 1.429 . S
C806 H830 0.950 . S
C807 C824 1.574 . S
C807 C826 1.368 . S
C807 H831 0.949 . S
H808 C812 0.949 . S
C809 C810 1.349 . S
C809 C811 1.327 . S
C809 H832 0.950 . S
C810 C809 1.349 . S
C810 C822 1.349 . S
C811 C809 1.327 . S
C811 C827 1.429 . S
C811 H833 0.950 . S
C812 H808 0.949 . S
C812 C820 1.574 . S
C812 C828 1.368 . S
H813 C821 0.950 . S
H814 C819 0.950 . S
H815 C820 0.949 . S
H816 C822 0.950 . S
H817 C823 0.950 . S
H818 C824 0.949 . S
C819 H814 0.950 . S
C819 C821 1.327 . S
C819 C825 1.429 . S
C820 C812 1.574 . S
C820 H815 0.949 . S
C820 C826 1.368 . S
C821 C805 1.349 . S
C821 H813 0.950 . S
C821 C819 1.327 . S
C822 C810 1.349 . S
C822 H816 0.950 . S
C822 C823 1.327 . S
C823 H817 0.950 . S
C823 C822 1.327 . S
C823 C827 1.429 . S
C824 C807 1.574 . S
C824 H818 0.949 . S
C824 C828 1.368 . S
C825 C806 1.429 . S
C825 C819 1.429 . S
C825 C826 1.523 . S
C826 C807 1.368 . S
C826 C820 1.368 . S
C826 C825 1.523 . S
C827 C811 1.429 . S
C827 C823 1.429 . S
C827 C828 1.523 . S
C828 C812 1.368 . S
C828 C824 1.368 . S
C828 C827 1.523 . S
H829 C804 0.950 . S
H830 C806 0.950 . S
H831 C807 0.949 . S
H832 C809 0.950 . S
H833 C811 0.950 . S
C834 C835 1.357 . S
C834 C836 1.327 1_455 S
C834 H859 0.950 . S
C835 C834 1.357 . S
C835 C851 1.326 1_455 S
C836 C834 1.327 1_655 S
C836 C855 1.429 . S
C836 H860 0.959 . S
C837 C854 1.574 . S
C837 C856 1.368 . S
C837 H861 0.949 . S
H838 C842 0.949 . S
C839 C840 1.349 . S
C839 C841 1.327 . S
C839 H862 0.950 . S
C840 C839 1.349 . S
C840 C852 1.349 . S
C841 C839 1.327 . S
C841 C857 1.429 . S
C841 H863 0.950 . S
C842 H838 0.949 . S
C842 C850 1.574 . S
C842 C858 1.368 . S
H843 C851 0.950 . S
H844 C849 0.950 . S
H845 C850 0.949 . S
H846 C852 0.950 . S
H847 C853 0.950 . S
H848 C854 0.949 . S
C849 H844 0.950 . S
C849 C851 1.327 . S
C849 C855 1.429 . S
C850 C842 1.574 . S
C850 H845 0.949 . S
C850 C856 1.368 . S
C851 C835 1.326 1_655 S
C851 H843 0.950 . S
C851 C849 1.327 . S
C852 C840 1.349 . S
C852 H846 0.950 . S
C852 C853 1.327 . S
C853 H847 0.950 . S
C853 C852 1.327 . S
C853 C857 1.429 . S
C854 C837 1.574 . S
C854 H848 0.949 . S
C854 C858 1.368 . S
C855 C836 1.429 . S
C855 C849 1.429 . S
C855 C856 1.523 . S
C856 C837 1.368 . S
C856 C850 1.368 . S
C856 C855 1.523 . S
C857 C841 1.429 . S
C857 C853 1.429 . S
C857 C858 1.523 . S
C858 C842 1.368 . S
C858 C854 1.368 . S
C858 C857 1.523 . S
H859 C834 0.950 . S
H860 C836 0.959 . S
H861 C837 0.949 . S
H862 C839 0.950 . S
H863 C841 0.950 . S
C864 C865 1.349 . S
C864 C866 1.327 . S
C864 H889 0.950 . S
C865 C864 1.349 . S
C865 C881 1.349 . S
C866 C864 1.327 . S
C866 C885 1.429 . S
C866 H890 0.950 . S
C867 C884 1.574 . S
C867 C886 1.368 . S
C867 H891 0.949 . S
H868 C872 0.949 . S
C869 C870 1.349 . S
C869 C871 1.327 . S
C869 H892 0.950 . S
C870 C869 1.349 . S
C870 C882 1.349 . S
C871 C869 1.327 . S
C871 C887 1.429 . S
C871 H893 0.950 . S
C872 H868 0.949 . S
C872 C880 1.574 . S
C872 C888 1.368 . S
H873 C881 0.950 . S
H874 C879 0.950 . S
H875 C880 0.949 . S
H876 C882 0.950 . S
H877 C883 0.950 . S
H878 C884 0.949 . S
C879 H874 0.950 . S
C879 C881 1.327 . S
C879 C885 1.429 . S
C880 C872 1.574 . S
C880 H875 0.949 . S
C880 C886 1.368 . S
C881 C865 1.349 . S
C881 H873 0.950 . S
C881 C879 1.327 . S
C882 C870 1.349 . S
C882 H876 0.950 . S
C882 C883 1.327 . S
C883 H877 0.950 . S
C883 C882 1.327 . S
C883 C887 1.429 . S
C884 C867 1.574 . S
C884 H878 0.949 . S
C884 C888 1.368 . S
C885 C866 1.429 . S
C885 C879 1.429 . S
C885 C886 1.523 . S
C886 C867 1.368 . S
C886 C880 1.368 . S
C886 C885 1.523 . S
C887 C871 1.429 . S
C887 C883 1.429 . S
C887 C888 1.523 . S
C888 C872 1.368 . S
C888 C884 1.368 . S
C888 C887 1.523 . S
H889 C864 0.950 . S
H890 C866 0.950 . S
H891 C867 0.949 . S
H892 C869 0.950 . S
H893 C871 0.950 . S
C894 C895 1.349 . S
C894 C896 1.327 . S
C894 H919 0.950 . S
C895 C894 1.349 . S
C895 C911 1.349 . S
C896 C894 1.327 . S
C896 C915 1.429 . S
C896 H920 0.950 . S
C897 C914 1.574 . S
C897 C916 1.368 . S
C897 H921 0.949 . S
H898 C902 0.949 . S
C899 C900 1.349 . S
C899 C901 1.327 . S
C899 H922 0.950 . S
C900 C899 1.349 . S
C900 C912 1.349 . S
C901 C899 1.327 . S
C901 C917 1.429 . S
C901 H923 0.950 . S
C902 H898 0.949 . S
C902 C910 1.574 . S
C902 C918 1.368 . S
H903 C911 0.950 . S
H904 C909 0.950 . S
H905 C910 0.949 . S
H906 C912 0.950 . S
H907 C913 0.950 . S
H908 C914 0.949 . S
C909 H904 0.950 . S
C909 C911 1.327 . S
C909 C915 1.429 . S
C910 C902 1.574 . S
C910 H905 0.949 . S
C910 C916 1.368 . S
C911 C895 1.349 . S
C911 H903 0.950 . S
C911 C909 1.327 . S
C912 C900 1.349 . S
C912 H906 0.950 . S
C912 C913 1.327 . S
C913 H907 0.950 . S
C913 C912 1.327 . S
C913 C917 1.429 . S
C914 C897 1.574 . S
C914 H908 0.949 . S
C914 C918 1.368 . S
C915 C896 1.429 . S
C915 C909 1.429 . S
C915 C916 1.523 . S
C916 C897 1.368 . S
C916 C910 1.368 . S
C916 C915 1.523 . S
C917 C901 1.429 . S
C917 C913 1.429 . S
C917 C918 1.523 . S
C918 C902 1.368 . S
C918 C914 1.368 . S
C918 C917 1.523 . S
H919 C894 0.950 . S
H920 C896 0.950 . S
H921 C897 0.949 . S
H922 C899 0.950 . S
H923 C901 0.950 . S
C924 C925 1.349 . S
C924 C926 1.327 . S
C924 H949 0.950 . S
C925 C924 1.349 . S
C925 C941 1.349 . S
C926 C924 1.327 . S
C926 C945 1.429 . S
C926 H950 0.950 . S
C927 C944 1.574 . S
C927 C946 1.368 . S
C927 H951 0.949 . S
H928 C932 0.949 . S
C929 C930 1.349 . S
C929 C931 1.327 . S
C929 H952 0.950 . S
C930 C929 1.349 . S
C930 C942 1.349 . S
C931 C929 1.327 . S
C931 C947 1.429 . S
C931 H953 0.950 . S
C932 H928 0.949 . S
C932 C940 1.574 . S
C932 C948 1.368 . S
H933 C941 0.950 . S
H934 C939 0.950 . S
H935 C940 0.949 . S
H936 C942 0.950 . S
H937 C943 0.950 . S
H938 C944 0.949 . S
C939 H934 0.950 . S
C939 C941 1.327 . S
C939 C945 1.429 . S
C940 C932 1.574 . S
C940 H935 0.949 . S
C940 C946 1.368 . S
C941 C925 1.349 . S
C941 H933 0.950 . S
C941 C939 1.327 . S
C942 C930 1.349 . S
C942 H936 0.950 . S
C942 C943 1.327 . S
C943 H937 0.950 . S
C943 C942 1.327 . S
C943 C947 1.429 . S
C944 C927 1.574 . S
C944 H938 0.949 . S
C944 C948 1.368 . S
C945 C926 1.429 . S
C945 C939 1.429 . S
C945 C946 1.523 . S
C946 C927 1.368 . S
C946 C940 1.368 . S
C946 C945 1.523 . S
C947 C931 1.429 . S
C947 C943 1.429 . S
C947 C948 1.523 . S
C948 C932 1.368 . S
C948 C944 1.368 . S
C948 C947 1.523 . S
H949 C924 0.950 . S
H950 C926 0.950 . S
H951 C927 0.949 . S
H952 C929 0.950 . S
H953 C931 0.950 . S
C954 C955 1.349 . S
C954 C956 1.327 . S
C954 H979 0.950 . S
C955 C954 1.349 . S
C955 C971 1.349 . S
C956 C954 1.327 . S
C956 C975 1.429 . S
C956 H980 0.950 . S
C957 C974 1.574 . S
C957 C976 1.368 . S
C957 H981 0.949 . S
H958 C962 0.949 1_545 S
C959 C960 1.349 . S
C959 C961 1.327 . S
C959 H982 0.950 . S
C960 C959 1.349 . S
C960 C972 1.349 1_565 S
C961 C959 1.327 . S
C961 C977 1.429 . S
C961 H983 0.950 . S
C962 H958 0.949 1_565 S
C962 C970 1.574 . S
C962 C978 1.368 . S
H963 C971 0.950 . S
H964 C969 0.950 . S
H965 C970 0.949 1_545 S
H966 C972 0.950 . S
H967 C973 0.950 . S
H968 C974 0.949 . S
C969 H964 0.950 . S
C969 C971 1.327 . S
C969 C975 1.429 . S
C970 C962 1.574 . S
C970 H965 0.949 1_565 S
C970 C976 1.368 . S
C971 C955 1.349 . S
C971 H963 0.950 . S
C971 C969 1.327 . S
C972 C960 1.349 1_545 S
C972 H966 0.950 . S
C972 C973 1.327 . S
C973 H967 0.950 . S
C973 C972 1.327 . S
C973 C977 1.429 1_545 S
C974 C957 1.574 . S
C974 H968 0.949 . S
C974 C978 1.368 . S
C975 C956 1.429 . S
C975 C969 1.429 . S
C975 C976 1.523 . S
C976 C957 1.368 . S
C976 C970 1.368 . S
C976 C975 1.523 . S
C977 C961 1.429 . S
C977 C973 1.429 1_565 S
C977 C978 1.523 . S
C978 C962 1.368 . S
C978 C974 1.368 . S
C978 C977 1.523 . S
H979 C954 0.950 . S
H980 C956 0.950 . S
H981 C957 0.949 . S
H982 C959 0.950 . S
H983 C961 0.950 . S
C984 C985 1.349 . S
C984 C986 1.327 . S
C984 H1009 0.950 . S
C985 C984 1.349 . S
C985 C1001 1.349 . S
C986 C984 1.327 . S
C986 C1005 1.429 . S
C986 H1010 0.950 . S
C987 C1004 1.574 . S
C987 C1006 1.368 . S
C987 H1011 0.949 . S
H988 C992 0.949 . S
C989 C990 1.349 . S
C989 C991 1.327 . S
C989 H1012 0.950 . S
C990 C989 1.349 . S
C990 C1002 1.349 . S
C991 C989 1.327 . S
C991 C1007 1.429 . S
C991 H1013 0.950 . S
C992 H988 0.949 . S
C992 C1000 1.574 . S
C992 C1008 1.368 . S
H993 C1001 0.950 . S
H994 C999 0.950 . S
H995 C1000 0.949 . S
H996 C1002 0.950 . S
H997 C1003 0.950 . S
H998 C1004 0.949 . S
C999 H994 0.950 . S
C999 C1001 1.327 . S
C999 C1005 1.429 . S
C1000 C992 1.574 . S
C1000 H995 0.949 . S
C1000 C1006 1.368 . S
C1001 C985 1.349 . S
C1001 H993 0.950 . S
C1001 C999 1.327 . S
C1002 C990 1.349 . S
C1002 H996 0.950 . S
C1002 C1003 1.327 . S
C1003 H997 0.950 . S
C1003 C1002 1.327 . S
C1003 C1007 1.429 . S
C1004 C987 1.574 . S
C1004 H998 0.949 . S
C1004 C1008 1.368 . S
C1005 C986 1.429 . S
C1005 C999 1.429 . S
C1005 C1006 1.523 . S
C1006 C987 1.368 . S
C1006 C1000 1.368 . S
C1006 C1005 1.523 . S
C1007 C991 1.429 . S
C1007 C1003 1.429 . S
C1007 C1008 1.523 . S
C1008 C992 1.368 . S
C1008 C1004 1.368 . S
C1008 C1007 1.523 . S
H1009 C984 0.950 . S
H1010 C986 0.950 . S
H1011 C987 0.949 . S
H1012 C989 0.950 . S
H1013 C991 0.950 . S
C1014 C1015 1.349 . S
C1014 C1016 1.327 . S
C1014 H1039 0.950 . S
C1015 C1014 1.349 . S
C1015 C1031 1.349 . S
C1016 C1014 1.327 . S
C1016 C1035 1.429 . S
C1016 H1040 0.950 . S
C1017 C1034 1.574 . S
C1017 C1036 1.368 . S
C1017 H1041 0.949 . S
H1018 C1022 0.949 . S
C1019 C1020 1.349 . S
C1019 C1021 1.327 . S
C1019 H1042 0.950 . S
C1020 C1019 1.349 . S
C1020 C1032 1.349 . S
C1021 C1019 1.327 . S
C1021 C1037 1.429 . S
C1021 H1043 0.950 . S
C1022 H1018 0.949 . S
C1022 C1030 1.574 . S
C1022 C1038 1.368 . S
H1023 C1031 0.950 . S
H1024 C1029 0.950 . S
H1025 C1030 0.949 . S
H1026 C1032 0.950 . S
H1027 C1033 0.950 . S
H1028 C1034 0.949 . S
C1029 H1024 0.950 . S
C1029 C1031 1.327 . S
C1029 C1035 1.429 . S
C1030 C1022 1.574 . S
C1030 H1025 0.949 . S
C1030 C1036 1.368 . S
C1031 C1015 1.349 . S
C1031 H1023 0.950 . S
C1031 C1029 1.327 . S
C1032 C1020 1.349 . S
C1032 H1026 0.950 . S
C1032 C1033 1.327 . S
C1033 H1027 0.950 . S
C1033 C1032 1.327 . S
C1033 C1037 1.429 . S
C1034 C1017 1.574 . S
C1034 H1028 0.949 . S
C1034 C1038 1.368 . S
C1035 C1016 1.429 . S
C1035 C1029 1.429 . S
C1035 C1036 1.523 . S
C1036 C1017 1.368 . S
C1036 C1030 1.368 . S
C1036 C1035 1.523 . S
C1037 C1021 1.429 . S
C1037 C1033 1.429 . S
C1037 C1038 1.523 . S
C1038 C1022 1.368 . S
C1038 C1034 1.368 . S
C1038 C1037 1.523 . S
H1039 C1014 0.950 . S
H1040 C1016 0.950 . S
H1041 C1017 0.949 . S
H1042 C1019 0.950 . S
H1043 C1021 0.950 . S
C1044 C1045 1.349 . S
C1044 C1046 1.327 . S
C1044 H1069 0.950 . S
C1045 C1044 1.349 . S
C1045 C1061 1.349 . S
C1046 C1044 1.327 . S
C1046 C1065 1.429 . S
C1046 H1070 0.950 . S
C1047 C1064 1.574 . S
C1047 C1066 1.368 . S
C1047 H1071 0.949 . S
H1048 C1052 0.949 . S
C1049 C1050 1.349 . S
C1049 C1051 1.327 . S
C1049 H1072 0.950 . S
C1050 C1049 1.349 . S
C1050 C1062 1.349 . S
C1051 C1049 1.327 . S
C1051 C1067 1.429 . S
C1051 H1073 0.950 . S
C1052 H1048 0.949 . S
C1052 C1060 1.574 . S
C1052 C1068 1.368 . S
H1053 C1061 0.950 . S
H1054 C1059 0.950 . S
H1055 C1060 0.949 . S
H1056 C1062 0.950 . S
H1057 C1063 0.950 . S
H1058 C1064 0.949 . S
C1059 H1054 0.950 . S
C1059 C1061 1.327 . S
C1059 C1065 1.429 . S
C1060 C1052 1.574 . S
C1060 H1055 0.949 . S
C1060 C1066 1.368 . S
C1061 C1045 1.349 . S
C1061 H1053 0.950 . S
C1061 C1059 1.327 . S
C1062 C1050 1.349 . S
C1062 H1056 0.950 . S
C1062 C1063 1.327 . S
C1063 H1057 0.950 . S
C1063 C1062 1.327 . S
C1063 C1067 1.429 . S
C1064 C1047 1.574 . S
C1064 H1058 0.949 . S
C1064 C1068 1.368 . S
C1065 C1046 1.429 . S
C1065 C1059 1.429 . S
C1065 C1066 1.523 . S
C1066 C1047 1.368 . S
C1066 C1060 1.368 . S
C1066 C1065 1.523 . S
C1067 C1051 1.429 . S
C1067 C1063 1.429 . S
C1067 C1068 1.523 . S
C1068 C1052 1.368 . S
C1068 C1064 1.368 . S
C1068 C1067 1.523 . S
H1069 C1044 0.950 . S
H1070 C1046 0.950 . S
H1071 C1047 0.949 . S
H1072 C1049 0.950 . S
H1073 C1051 0.950 . S
C1074 C1075 1.349 . S
C1074 C1076 1.327 . S
C1074 H1099 0.950 . S
C1075 C1074 1.349 . S
C1075 C1091 1.349 . S
C1076 C1074 1.327 . S
C1076 C1095 1.429 . S
C1076 H1100 0.950 . S
C1077 C1094 1.574 . S
C1077 C1096 1.368 . S
C1077 H1101 0.949 . S
H1078 C1082 0.949 . S
C1079 C1080 1.349 . S
C1079 C1081 1.327 . S
C1079 H1102 0.950 . S
C1080 C1079 1.349 . S
C1080 C1092 1.349 . S
C1081 C1079 1.327 . S
C1081 C1097 1.429 . S
C1081 H1103 0.950 . S
C1082 H1078 0.949 . S
C1082 C1090 1.574 . S
C1082 C1098 1.368 . S
H1083 C1091 0.950 . S
H1084 C1089 0.950 . S
H1085 C1090 0.949 . S
H1086 C1092 0.950 . S
H1087 C1093 0.950 . S
H1088 C1094 0.949 . S
C1089 H1084 0.950 . S
C1089 C1091 1.327 . S
C1089 C1095 1.429 . S
C1090 C1082 1.574 . S
C1090 H1085 0.949 . S
C1090 C1096 1.368 . S
C1091 C1075 1.349 . S
C1091 H1083 0.950 . S
C1091 C1089 1.327 . S
C1092 C1080 1.349 . S
C1092 H1086 0.950 . S
C1092 C1093 1.327 . S
C1093 H1087 0.950 . S
C1093 C1092 1.327 . S
C1093 C1097 1.429 . S
C1094 C1077 1.574 . S
C1094 H1088 0.949 . S
C1094 C1098 1.368 . S
C1095 C1076 1.429 . S
C1095 C1089 1.429 . S
C1095 C1096 1.523 . S
C1096 C1077 1.368 . S
C1096 C1090 1.368 . S
C1096 C1095 1.523 . S
C1097 C1081 1.429 . S
C1097 C1093 1.429 . S
C1097 C1098 1.523 . S
C1098 C1082 1.368 . S
C1098 C1094 1.368 . S
C1098 C1097 1.523 . S
H1099 C1074 0.950 . S
H1100 C1076 0.950 . S
H1101 C1077 0.949 . S
H1102 C1079 0.950 . S
H1103 C1081 0.950 . S
C1104 C1105 1.349 . S
C1104 C1106 1.327 . S
C1104 H1129 0.950 . S
C1105 C1104 1.349 . S
C1105 C1121 1.349 . S
C1106 C1104 1.327 . S
C1106 C1125 1.429 . S
C1106 H1130 0.950 . S
C1107 C1124 1.574 . S
C1107 C1126 1.368 . S
C1107 H1131 0.949 . S
H1108 C1112 0.949 . S
C1109 C1110 1.349 . S
C1109 C1111 1.327 . S
C1109 H1132 0.950 . S
C1110 C1109 1.349 . S
C1110 C1122 1.349 . S
C1111 C1109 1.327 . S
C1111 C1127 1.429 . S
C1111 H1133 0.950 . S
C1112 H1108 0.949 . S
C1112 C1120 1.574 . S
C1112 C1128 1.368 . S
H1113 C1121 0.950 . S
H1114 C1119 0.950 . S
H1115 C1120 0.949 . S
H1116 C1122 0.950 . S
H1117 C1123 0.950 . S
H1118 C1124 0.949 . S
C1119 H1114 0.950 . S
C1119 C1121 1.327 . S
C1119 C1125 1.429 . S
C1120 C1112 1.574 . S
C1120 H1115 0.949 . S
C1120 C1126 1.368 . S
C1121 C1105 1.349 . S
C1121 H1113 0.950 . S
C1121 C1119 1.327 . S
C1122 C1110 1.349 . S
C1122 H1116 0.950 . S
C1122 C1123 1.327 . S
C1123 H1117 0.950 . S
C1123 C1122 1.327 . S
C1123 C1127 1.429 . S
C1124 C1107 1.574 . S
C1124 H1118 0.949 . S
C1124 C1128 1.368 . S
C1125 C1106 1.429 . S
C1125 C1119 1.429 . S
C1125 C1126 1.523 . S
C1126 C1107 1.368 . S
C1126 C1120 1.368 . S
C1126 C1125 1.523 . S
C1127 C1111 1.429 . S
C1127 C1123 1.429 . S
C1127 C1128 1.523 . S
C1128 C1112 1.368 . S
C1128 C1124 1.368 . S
C1128 C1127 1.523 . S
H1129 C1104 0.950 . S
H1130 C1106 0.950 . S
H1131 C1107 0.949 . S
H1132 C1109 0.950 . S
H1133 C1111 0.950 . S
C1134 C1135 1.349 . S
C1134 C1136 1.327 . S
C1134 H1159 0.950 . S
C1135 C1134 1.349 . S
C1135 C1151 1.349 . S
C1136 C1134 1.327 . S
C1136 C1155 1.429 . S
C1136 H1160 0.950 . S
C1137 C1154 1.574 . S
C1137 C1156 1.368 . S
C1137 H1161 0.949 . S
H1138 C1142 0.949 . S
C1139 C1140 1.349 . S
C1139 C1141 1.327 . S
C1139 H1162 0.950 . S
C1140 C1139 1.349 . S
C1140 C1152 1.349 . S
C1141 C1139 1.327 . S
C1141 C1157 1.429 . S
C1141 H1163 0.950 . S
C1142 H1138 0.949 . S
C1142 C1150 1.574 . S
C1142 C1158 1.368 . S
H1143 C1151 0.950 . S
H1144 C1149 0.950 . S
H1145 C1150 0.949 . S
H1146 C1152 0.950 . S
H1147 C1153 0.950 . S
H1148 C1154 0.949 . S
C1149 H1144 0.950 . S
C1149 C1151 1.327 . S
C1149 C1155 1.429 . S
C1150 C1142 1.574 . S
C1150 H1145 0.949 . S
C1150 C1156 1.368 . S
C1151 C1135 1.349 . S
C1151 H1143 0.950 . S
C1151 C1149 1.327 . S
C1152 C1140 1.349 . S
C1152 H1146 0.950 . S
C1152 C1153 1.327 . S
C1153 H1147 0.950 . S
C1153 C1152 1.327 . S
C1153 C1157 1.429 . S
C1154 C1137 1.574 . S
C1154 H1148 0.949 . S
C1154 C1158 1.368 . S
C1155 C1136 1.429 . S
C1155 C1149 1.429 . S
C1155 C1156 1.523 . S
C1156 C1137 1.368 . S
C1156 C1150 1.368 . S
C1156 C1155 1.523 . S
C1157 C1141 1.429 . S
C1157 C1153 1.429 . S
C1157 C1158 1.523 . S
C1158 C1142 1.368 . S
C1158 C1154 1.368 . S
C1158 C1157 1.523 . S
H1159 C1134 0.950 . S
H1160 C1136 0.950 . S
H1161 C1137 0.949 . S
H1162 C1139 0.950 . S
H1163 C1141 0.950 . S
C1164 C1165 1.349 . S
C1164 C1166 1.327 . S
C1164 H1189 0.950 . S
C1165 C1164 1.349 . S
C1165 C1181 1.349 . S
C1166 C1164 1.327 . S
C1166 C1185 1.429 . S
C1166 H1190 0.950 . S
C1167 C1184 1.574 . S
C1167 C1186 1.368 . S
C1167 H1191 0.949 . S
H1168 C1172 0.949 . S
C1169 C1170 1.349 . S
C1169 C1171 1.327 . S
C1169 H1192 0.950 . S
C1170 C1169 1.349 . S
C1170 C1182 1.349 . S
C1171 C1169 1.327 . S
C1171 C1187 1.429 . S
C1171 H1193 0.950 . S
C1172 H1168 0.949 . S
C1172 C1180 1.574 . S
C1172 C1188 1.368 . S
H1173 C1181 0.950 . S
H1174 C1179 0.950 . S
H1175 C1180 0.949 . S
H1176 C1182 0.950 . S
H1177 C1183 0.950 . S
H1178 C1184 0.949 . S
C1179 H1174 0.950 . S
C1179 C1181 1.327 . S
C1179 C1185 1.429 . S
C1180 C1172 1.574 . S
C1180 H1175 0.949 . S
C1180 C1186 1.368 . S
C1181 C1165 1.349 . S
C1181 H1173 0.950 . S
C1181 C1179 1.327 . S
C1182 C1170 1.349 . S
C1182 H1176 0.950 . S
C1182 C1183 1.327 . S
C1183 H1177 0.950 . S
C1183 C1182 1.327 . S
C1183 C1187 1.429 . S
C1184 C1167 1.574 . S
C1184 H1178 0.949 . S
C1184 C1188 1.368 . S
C1185 C1166 1.429 . S
C1185 C1179 1.429 . S
C1185 C1186 1.523 . S
C1186 C1167 1.368 . S
C1186 C1180 1.368 . S
C1186 C1185 1.523 . S
C1187 C1171 1.429 . S
C1187 C1183 1.429 . S
C1187 C1188 1.523 . S
C1188 C1172 1.368 . S
C1188 C1184 1.368 . S
C1188 C1187 1.523 . S
H1189 C1164 0.950 . S
H1190 C1166 0.950 . S
H1191 C1167 0.949 . S
H1192 C1169 0.950 . S
H1193 C1171 0.950 . S
C1194 C1195 1.349 . S
C1194 C1196 1.327 . S
C1194 H1219 0.950 . S
C1195 C1194 1.349 . S
C1195 C1211 1.349 . S
C1196 C1194 1.327 . S
C1196 C1215 1.429 . S
C1196 H1220 0.950 . S
C1197 C1214 1.574 . S
C1197 C1216 1.368 . S
C1197 H1221 0.949 . S
H1198 C1202 0.949 1_455 S
C1199 C1200 1.349 . S
C1199 C1201 1.327 . S
C1199 H1222 0.950 . S
C1200 C1199 1.349 . S
C1200 C1212 1.349 1_655 S
C1201 C1199 1.327 . S
C1201 C1217 1.429 . S
C1201 H1223 0.950 . S
C1202 H1198 0.949 1_655 S
C1202 C1210 1.574 . S
C1202 C1218 1.368 . S
H1203 C1211 0.950 . S
H1204 C1209 0.950 . S
H1205 C1210 0.968 . S
H1206 C1212 0.950 . S
H1207 C1213 0.950 . S
H1208 C1214 0.949 . S
C1209 H1204 0.950 . S
C1209 C1211 1.327 . S
C1209 C1215 1.429 . S
C1210 C1202 1.574 . S
C1210 H1205 0.968 . S
C1210 C1216 1.368 . S
C1211 C1195 1.349 . S
C1211 H1203 0.950 . S
C1211 C1209 1.327 . S
C1212 C1200 1.349 1_455 S
C1212 H1206 0.950 . S
C1212 C1213 1.327 . S
C1213 H1207 0.950 . S
C1213 C1212 1.327 . S
C1213 C1217 1.429 1_455 S
C1214 C1197 1.574 . S
C1214 H1208 0.949 . S
C1214 C1218 1.368 . S
C1215 C1196 1.429 . S
C1215 C1209 1.429 . S
C1215 C1216 1.523 . S
C1216 C1197 1.368 . S
C1216 C1210 1.368 . S
C1216 C1215 1.523 . S
C1217 C1201 1.429 . S
C1217 C1213 1.429 1_655 S
C1217 C1218 1.523 . S
C1218 C1202 1.368 . S
C1218 C1214 1.368 . S
C1218 C1217 1.523 . S
H1219 C1194 0.950 . S
H1220 C1196 0.950 . S
H1221 C1197 0.949 . S
H1222 C1199 0.950 . S
H1223 C1201 0.950 . S
C1224 C1225 1.349 . S
C1224 C1226 1.327 . S
C1224 H1249 0.950 . S
C1225 C1224 1.349 . S
C1225 C1241 1.349 . S
C1226 C1224 1.327 . S
C1226 C1245 1.429 . S
C1226 H1250 0.950 . S
C1227 C1244 1.574 . S
C1227 C1246 1.368 . S
C1227 H1251 0.949 . S
H1228 C1232 0.949 . S
C1229 C1230 1.349 . S
C1229 C1231 1.327 . S
C1229 H1252 0.950 . S
C1230 C1229 1.349 . S
C1230 C1242 1.349 . S
C1231 C1229 1.327 . S
C1231 C1247 1.429 . S
C1231 H1253 0.950 . S
C1232 H1228 0.949 . S
C1232 C1240 1.574 . S
C1232 C1248 1.368 . S
H1233 C1241 0.950 . S
H1234 C1239 0.950 . S
H1235 C1240 0.949 . S
H1236 C1242 0.950 . S
H1237 C1243 0.950 . S
H1238 C1244 0.949 . S
C1239 H1234 0.950 . S
C1239 C1241 1.327 . S
C1239 C1245 1.429 . S
C1240 C1232 1.574 . S
C1240 H1235 0.949 . S
C1240 C1246 1.368 . S
C1241 C1225 1.349 . S
C1241 H1233 0.950 . S
C1241 C1239 1.327 . S
C1242 C1230 1.349 . S
C1242 H1236 0.950 . S
C1242 C1243 1.327 . S
C1243 H1237 0.950 . S
C1243 C1242 1.327 . S
C1243 C1247 1.429 . S
C1244 C1227 1.574 . S
C1244 H1238 0.949 . S
C1244 C1248 1.368 . S
C1245 C1226 1.429 . S
C1245 C1239 1.429 . S
C1245 C1246 1.523 . S
C1246 C1227 1.368 . S
C1246 C1240 1.368 . S
C1246 C1245 1.523 . S
C1247 C1231 1.429 . S
C1247 C1243 1.429 . S
C1247 C1248 1.523 . S
C1248 C1232 1.368 . S
C1248 C1244 1.368 . S
C1248 C1247 1.523 . S
H1249 C1224 0.950 . S
H1250 C1226 0.950 . S
H1251 C1227 0.949 . S
H1252 C1229 0.950 . S
H1253 C1231 0.950 . S
C1254 C1255 1.349 . S
C1254 C1256 1.327 . S
C1254 H1279 0.950 . S
C1255 C1254 1.349 . S
C1255 C1271 1.349 . S
C1256 C1254 1.327 . S
C1256 C1275 1.429 . S
C1256 H1280 0.950 . S
C1257 C1274 1.574 . S
C1257 C1276 1.368 . S
C1257 H1281 0.949 . S
H1258 C1262 0.949 . S
C1259 C1260 1.349 . S
C1259 C1261 1.327 . S
C1259 H1282 0.950 . S
C1260 C1259 1.349 . S
C1260 C1272 1.349 . S
C1261 C1259 1.327 . S
C1261 C1277 1.429 . S
C1261 H1283 0.950 . S
C1262 H1258 0.949 . S
C1262 C1270 1.574 . S
C1262 C1278 1.368 . S
H1263 C1271 0.950 . S
H1264 C1269 0.950 . S
H1265 C1270 0.949 . S
H1266 C1272 0.950 . S
H1267 C1273 0.950 . S
H1268 C1274 0.949 . S
C1269 H1264 0.950 . S
C1269 C1271 1.327 . S
C1269 C1275 1.429 . S
C1270 C1262 1.574 . S
C1270 H1265 0.949 . S
C1270 C1276 1.368 . S
C1271 C1255 1.349 . S
C1271 H1263 0.950 . S
C1271 C1269 1.327 . S
C1272 C1260 1.349 . S
C1272 H1266 0.950 . S
C1272 C1273 1.327 . S
C1273 H1267 0.950 . S
C1273 C1272 1.327 . S
C1273 C1277 1.429 . S
C1274 C1257 1.574 . S
C1274 H1268 0.949 . S
C1274 C1278 1.368 . S
C1275 C1256 1.429 . S
C1275 C1269 1.429 . S
C1275 C1276 1.523 . S
C1276 C1257 1.368 . S
C1276 C1270 1.368 . S
C1276 C1275 1.523 . S
C1277 C1261 1.429 . S
C1277 C1273 1.429 . S
C1277 C1278 1.523 . S
C1278 C1262 1.368 . S
C1278 C1274 1.368 . S
C1278 C1277 1.523 . S
H1279 C1254 0.950 . S
H1280 C1256 0.950 . S
H1281 C1257 0.949 . S
H1282 C1259 0.950 . S
H1283 C1261 0.950 . S
C1284 C1285 1.349 1_565 S
C1284 C1286 1.327 . S
C1284 H1309 0.950 1_565 S
C1285 C1284 1.349 1_545 S
C1285 C1301 1.348 1_545 S
C1286 C1284 1.327 . S
C1286 C1305 1.429 . S
C1286 H1310 0.950 . S
C1287 C1304 1.574 . S
C1287 C1306 1.368 . S
C1287 H1311 0.949 . S
H1288 C1292 0.949 . S
C1289 C1290 1.349 1_554 S
C1289 C1291 1.318 1_554 S
C1289 H1312 0.950 . S
C1290 C1289 1.349 1_556 S
C1290 C1302 1.349 . S
C1291 C1289 1.318 1_556 S
C1291 C1307 1.466 . S
C1291 H1313 0.921 1_556 S
C1292 H1288 0.949 . S
C1292 C1300 1.574 . S
C1292 C1308 1.368 . S
H1293 C1301 0.950 . S
H1294 C1299 0.950 . S
H1295 C1300 0.949 . S
H1296 C1302 0.950 . S
H1297 C1303 0.950 . S
H1298 C1304 0.949 1_554 S
C1299 H1294 0.950 . S
C1299 C1301 1.327 . S
C1299 C1305 1.429 . S
C1300 C1292 1.574 . S
C1300 H1295 0.949 . S
C1300 C1306 1.368 . S
C1301 C1285 1.348 1_565 S
C1301 H1293 0.950 . S
C1301 C1299 1.327 . S
C1302 C1290 1.349 . S
C1302 H1296 0.950 . S
C1302 C1303 1.327 . S
C1303 H1297 0.950 . S
C1303 C1302 1.327 . S
C1303 C1307 1.429 . S
C1304 C1287 1.574 . S
C1304 H1298 0.949 1_556 S
C1304 C1308 1.368 . S
C1305 C1286 1.429 . S
C1305 C1299 1.429 . S
C1305 C1306 1.523 . S
C1306 C1287 1.368 . S
C1306 C1300 1.368 . S
C1306 C1305 1.523 . S
C1307 C1291 1.466 . S
C1307 C1303 1.429 . S
C1307 C1308 1.523 . S
C1308 C1292 1.368 . S
C1308 C1304 1.368 . S
C1308 C1307 1.523 . S
H1309 C1284 0.950 1_545 S
H1310 C1286 0.950 . S
H1311 C1287 0.949 . S
H1312 C1289 0.950 . S
H1313 C1291 0.921 1_554 S
C1314 C1315 1.349 . S
C1314 C1316 1.327 . S
C1314 H1339 0.950 . S
C1315 C1314 1.349 . S
C1315 C1331 1.349 . S
C1316 C1314 1.327 . S
C1316 C1335 1.429 . S
C1316 H1340 0.950 . S
C1317 C1334 1.574 . S
C1317 C1336 1.368 . S
C1317 H1341 0.949 . S
H1318 C1322 0.949 . S
C1319 C1320 1.349 . S
C1319 C1321 1.327 . S
C1319 H1342 0.950 . S
C1320 C1319 1.349 . S
C1320 C1332 1.349 . S
C1321 C1319 1.327 . S
C1321 C1337 1.429 . S
C1321 H1343 0.950 . S
C1322 H1318 0.949 . S
C1322 C1330 1.574 . S
C1322 C1338 1.368 . S
H1323 C1331 0.950 . S
H1324 C1329 0.950 . S
H1325 C1330 0.949 . S
H1326 C1332 0.950 . S
H1327 C1333 0.950 . S
H1328 C1334 0.949 . S
C1329 H1324 0.950 . S
C1329 C1331 1.327 . S
C1329 C1335 1.429 . S
C1330 C1322 1.574 . S
C1330 H1325 0.949 . S
C1330 C1336 1.368 . S
C1331 C1315 1.349 . S
C1331 H1323 0.950 . S
C1331 C1329 1.327 . S
C1332 C1320 1.349 . S
C1332 H1326 0.950 . S
C1332 C1333 1.327 . S
C1333 H1327 0.950 . S
C1333 C1332 1.327 . S
C1333 C1337 1.429 . S
C1334 C1317 1.574 . S
C1334 H1328 0.949 . S
C1334 C1338 1.368 . S
C1335 C1316 1.429 . S
C1335 C1329 1.429 . S
C1335 C1336 1.523 . S
C1336 C1317 1.368 . S
C1336 C1330 1.368 . S
C1336 C1335 1.523 . S
C1337 C1321 1.429 . S
C1337 C1333 1.429 . S
C1337 C1338 1.523 . S
C1338 C1322 1.368 . S
C1338 C1334 1.368 . S
C1338 C1337 1.523 . S
H1339 C1314 0.950 . S
H1340 C1316 0.950 . S
H1341 C1317 0.949 . S
H1342 C1319 0.950 . S
H1343 C1321 0.950 . S
C1344 C1345 1.349 . S
C1344 C1346 1.327 . S
C1344 H1369 0.950 . S
C1345 C1344 1.349 . S
C1345 C1361 1.337 1_545 S
C1346 C1344 1.327 . S
C1346 C1365 1.429 . S
C1346 H1370 0.950 . S
C1347 C1364 1.574 . S
C1347 C1366 1.368 . S
C1347 H1371 0.949 . S
H1348 C1352 0.949 . S
C1349 C1350 1.349 . S
C1349 C1351 1.327 . S
C1349 H1372 0.950 . S
C1350 C1349 1.349 . S
C1350 C1362 1.349 . S
C1351 C1349 1.327 . S
C1351 C1367 1.429 . S
C1351 H1373 0.950 . S
C1352 H1348 0.949 . S
C1352 C1360 1.574 . S
C1352 C1368 1.368 . S
H1353 C1361 0.994 . S
H1354 C1359 0.950 . S
H1355 C1360 0.949 . S
H1356 C1362 0.950 . S
H1357 C1363 0.950 . S
H1358 C1364 0.949 . S
C1359 H1354 0.950 . S
C1359 C1361 1.297 1_545 S
C1359 C1365 1.429 . S
C1360 C1352 1.574 . S
C1360 H1355 0.949 . S
C1360 C1366 1.368 . S
C1361 C1345 1.337 1_565 S
C1361 H1353 0.994 . S
C1361 C1359 1.297 1_565 S
C1362 C1350 1.349 . S
C1362 H1356 0.950 . S
C1362 C1363 1.327 . S
C1363 H1357 0.950 . S
C1363 C1362 1.327 . S
C1363 C1367 1.429 . S
C1364 C1347 1.574 . S
C1364 H1358 0.949 . S
C1364 C1368 1.368 . S
C1365 C1346 1.429 . S
C1365 C1359 1.429 . S
C1365 C1366 1.523 . S
C1366 C1347 1.368 . S
C1366 C1360 1.368 . S
C1366 C1365 1.523 . S
C1367 C1351 1.429 . S
C1367 C1363 1.429 . S
C1367 C1368 1.523 . S
C1368 C1352 1.368 . S
C1368 C1364 1.368 . S
C1368 C1367 1.523 . S
H1369 C1344 0.950 . S
H1370 C1346 0.950 . S
H1371 C1347 0.949 . S
H1372 C1349 0.950 . S
H1373 C1351 0.950 . S
C1374 C1375 1.349 . S
C1374 C1376 1.327 . S
C1374 H1399 0.950 . S
C1375 C1374 1.349 . S
C1375 C1391 1.349 . S
C1376 C1374 1.327 . S
C1376 C1395 1.429 . S
C1376 H1400 0.950 . S
C1377 C1394 1.574 . S
C1377 C1396 1.368 . S
C1377 H1401 0.949 . S
H1378 C1382 0.949 . S
C1379 C1380 1.349 . S
C1379 C1381 1.327 . S
C1379 H1402 0.950 . S
C1380 C1379 1.349 . S
C1380 C1392 1.349 . S
C1381 C1379 1.327 . S
C1381 C1397 1.429 . S
C1381 H1403 0.950 . S
C1382 H1378 0.949 . S
C1382 C1390 1.574 . S
C1382 C1398 1.368 . S
H1383 C1391 0.950 . S
H1384 C1389 0.950 . S
H1385 C1390 0.949 . S
H1386 C1392 0.950 . S
H1387 C1393 0.950 . S
H1388 C1394 0.949 . S
C1389 H1384 0.950 . S
C1389 C1391 1.327 . S
C1389 C1395 1.429 . S
C1390 C1382 1.574 . S
C1390 H1385 0.949 . S
C1390 C1396 1.368 . S
C1391 C1375 1.349 . S
C1391 H1383 0.950 . S
C1391 C1389 1.327 . S
C1392 C1380 1.349 . S
C1392 H1386 0.950 . S
C1392 C1393 1.327 . S
C1393 H1387 0.950 . S
C1393 C1392 1.327 . S
C1393 C1397 1.429 . S
C1394 C1377 1.574 . S
C1394 H1388 0.949 . S
C1394 C1398 1.368 . S
C1395 C1376 1.429 . S
C1395 C1389 1.429 . S
C1395 C1396 1.523 . S
C1396 C1377 1.368 . S
C1396 C1390 1.368 . S
C1396 C1395 1.523 . S
C1397 C1381 1.429 . S
C1397 C1393 1.429 . S
C1397 C1398 1.523 . S
C1398 C1382 1.368 . S
C1398 C1394 1.368 . S
C1398 C1397 1.523 . S
H1399 C1374 0.950 . S
H1400 C1376 0.950 . S
H1401 C1377 0.949 . S
H1402 C1379 0.950 . S
H1403 C1381 0.950 . S
C1404 C1405 1.349 . S
C1404 C1406 1.327 . S
C1404 H1429 0.950 . S
C1405 C1404 1.349 . S
C1405 C1421 1.349 . S
C1406 C1404 1.327 . S
C1406 C1425 1.429 . S
C1406 H1430 0.950 . S
C1407 C1424 1.574 . S
C1407 C1426 1.368 . S
C1407 H1431 0.949 . S
H1408 C1412 0.949 . S
C1409 C1410 1.349 . S
C1409 C1411 1.327 . S
C1409 H1432 0.950 . S
C1410 C1409 1.349 . S
C1410 C1422 1.349 . S
C1411 C1409 1.327 . S
C1411 C1427 1.429 . S
C1411 H1433 0.950 . S
C1412 H1408 0.949 . S
C1412 C1420 1.574 . S
C1412 C1428 1.368 . S
H1413 C1421 0.950 1_565 S
H1414 C1419 0.950 . S
H1415 C1420 0.949 . S
H1416 C1422 0.950 . S
H1417 C1423 0.950 . S
H1418 C1424 0.949 . S
C1419 H1414 0.950 . S
C1419 C1421 1.327 . S
C1419 C1425 1.429 . S
C1420 C1412 1.574 . S
C1420 H1415 0.949 . S
C1420 C1426 1.368 . S
C1421 C1405 1.349 . S
C1421 H1413 0.950 1_545 S
C1421 C1419 1.327 . S
C1422 C1410 1.349 . S
C1422 H1416 0.950 . S
C1422 C1423 1.327 . S
C1423 H1417 0.950 . S
C1423 C1422 1.327 . S
C1423 C1427 1.429 . S
C1424 C1407 1.574 . S
C1424 H1418 0.949 . S
C1424 C1428 1.368 . S
C1425 C1406 1.429 . S
C1425 C1419 1.429 . S
C1425 C1426 1.523 . S
C1426 C1407 1.368 . S
C1426 C1420 1.368 . S
C1426 C1425 1.523 . S
C1427 C1411 1.429 . S
C1427 C1423 1.429 . S
C1427 C1428 1.523 . S
C1428 C1412 1.368 . S
C1428 C1424 1.368 . S
C1428 C1427 1.523 . S
H1429 C1404 0.950 . S
H1430 C1406 0.950 . S
H1431 C1407 0.949 . S
H1432 C1409 0.950 . S
H1433 C1411 0.950 . S
C1434 C1435 1.349 . S
C1434 C1436 1.327 . S
C1434 H1459 0.950 . S
C1435 C1434 1.349 . S
C1435 C1451 1.349 . S
C1436 C1434 1.327 . S
C1436 C1455 1.429 . S
C1436 H1460 0.950 . S
C1437 C1454 1.574 . S
C1437 C1456 1.368 . S
C1437 H1461 0.949 . S
H1438 C1442 0.949 . S
C1439 C1440 1.349 . S
C1439 C1441 1.327 . S
C1439 H1462 0.950 . S
C1440 C1439 1.349 . S
C1440 C1452 1.349 . S
C1441 C1439 1.327 . S
C1441 C1457 1.429 . S
C1441 H1463 0.950 . S
C1442 H1438 0.949 . S
C1442 C1450 1.574 . S
C1442 C1458 1.368 . S
H1443 C1451 0.950 . S
H1444 C1449 0.950 . S
H1445 C1450 0.949 . S
H1446 C1452 0.950 . S
H1447 C1453 0.950 . S
H1448 C1454 0.949 . S
C1449 H1444 0.950 . S
C1449 C1451 1.327 . S
C1449 C1455 1.429 . S
C1450 C1442 1.574 . S
C1450 H1445 0.949 . S
C1450 C1456 1.368 . S
C1451 C1435 1.349 . S
C1451 H1443 0.950 . S
C1451 C1449 1.327 . S
C1452 C1440 1.349 . S
C1452 H1446 0.950 . S
C1452 C1453 1.327 . S
C1453 H1447 0.950 . S
C1453 C1452 1.327 . S
C1453 C1457 1.429 . S
C1454 C1437 1.574 . S
C1454 H1448 0.949 . S
C1454 C1458 1.368 . S
C1455 C1436 1.429 . S
C1455 C1449 1.429 . S
C1455 C1456 1.523 . S
C1456 C1437 1.368 . S
C1456 C1450 1.368 . S
C1456 C1455 1.523 . S
C1457 C1441 1.429 . S
C1457 C1453 1.429 . S
C1457 C1458 1.523 . S
C1458 C1442 1.368 . S
C1458 C1454 1.368 . S
C1458 C1457 1.523 . S
H1459 C1434 0.950 . S
H1460 C1436 0.950 . S
H1461 C1437 0.949 . S
H1462 C1439 0.950 . S
H1463 C1441 0.950 . S
C1464 C1465 1.349 . S
C1464 C1466 1.327 . S
C1464 H1489 0.950 . S
C1465 C1464 1.349 . S
C1465 C1481 1.349 . S
C1466 C1464 1.327 . S
C1466 C1485 1.429 . S
C1466 H1490 0.950 . S
C1467 C1484 1.574 . S
C1467 C1486 1.368 . S
C1467 H1491 0.949 . S
H1468 C1472 0.949 . S
C1469 C1470 1.349 . S
C1469 C1471 1.327 . S
C1469 H1492 0.950 . S
C1470 C1469 1.349 . S
C1470 C1482 1.349 . S
C1471 C1469 1.327 . S
C1471 C1487 1.429 . S
C1471 H1493 0.950 . S
C1472 H1468 0.949 . S
C1472 C1480 1.574 . S
C1472 C1488 1.368 . S
H1473 C1481 0.950 . S
H1474 C1479 0.950 . S
H1475 C1480 0.949 . S
H1476 C1482 0.950 . S
H1477 C1483 0.950 . S
H1478 C1484 0.949 . S
C1479 H1474 0.950 . S
C1479 C1481 1.327 . S
C1479 C1485 1.429 . S
C1480 C1472 1.574 . S
C1480 H1475 0.949 . S
C1480 C1486 1.368 . S
C1481 C1465 1.349 . S
C1481 H1473 0.950 . S
C1481 C1479 1.327 . S
C1482 C1470 1.349 . S
C1482 H1476 0.950 . S
C1482 C1483 1.327 . S
C1483 H1477 0.950 . S
C1483 C1482 1.327 . S
C1483 C1487 1.429 . S
C1484 C1467 1.574 . S
C1484 H1478 0.949 . S
C1484 C1488 1.368 . S
C1485 C1466 1.429 . S
C1485 C1479 1.429 . S
C1485 C1486 1.523 . S
C1486 C1467 1.368 . S
C1486 C1480 1.368 . S
C1486 C1485 1.523 . S
C1487 C1471 1.429 . S
C1487 C1483 1.429 . S
C1487 C1488 1.523 . S
C1488 C1472 1.368 . S
C1488 C1484 1.368 . S
C1488 C1487 1.523 . S
H1489 C1464 0.950 . S
H1490 C1466 0.950 . S
H1491 C1467 0.949 . S
H1492 C1469 0.950 . S
H1493 C1471 0.950 . S
C1494 C1495 1.349 . S
C1494 C1496 1.327 . S
C1494 H1519 0.950 . S
C1495 C1494 1.349 . S
C1495 C1511 1.349 . S
C1496 C1494 1.327 . S
C1496 C1515 1.429 . S
C1496 H1520 0.950 . S
C1497 C1514 1.574 . S
C1497 C1516 1.368 . S
C1497 H1521 0.949 . S
H1498 C1502 0.949 . S
C1499 C1500 1.349 . S
C1499 C1501 1.327 . S
C1499 H1522 0.950 1_545 S
C1500 C1499 1.349 . S
C1500 C1512 1.349 . S
C1501 C1499 1.327 . S
C1501 C1517 1.429 . S
C1501 H1523 0.950 1_545 S
C1502 H1498 0.949 . S
C1502 C1510 1.574 . S
C1502 C1518 1.368 . S
H1503 C1511 0.950 . S
H1504 C1509 0.950 . S
H1505 C1510 0.949 . S
H1506 C1512 0.950 . S
H1507 C1513 0.950 . S
H1508 C1514 0.925 1_565 S
C1509 H1504 0.950 . S
C1509 C1511 1.327 . S
C1509 C1515 1.429 . S
C1510 C1502 1.574 . S
C1510 H1505 0.949 . S
C1510 C1516 1.368 . S
C1511 C1495 1.349 . S
C1511 H1503 0.950 . S
C1511 C1509 1.327 . S
C1512 C1500 1.349 . S
C1512 H1506 0.950 . S
C1512 C1513 1.327 . S
C1513 H1507 0.950 . S
C1513 C1512 1.327 . S
C1513 C1517 1.429 . S
C1514 C1497 1.574 . S
C1514 H1508 0.925 1_545 S
C1514 C1518 1.368 . S
C1515 C1496 1.429 . S
C1515 C1509 1.429 . S
C1515 C1516 1.523 . S
C1516 C1497 1.368 . S
C1516 C1510 1.368 . S
C1516 C1515 1.523 . S
C1517 C1501 1.429 . S
C1517 C1513 1.429 . S
C1517 C1518 1.523 . S
C1518 C1502 1.368 . S
C1518 C1514 1.368 . S
C1518 C1517 1.523 . S
H1519 C1494 0.950 . S
H1520 C1496 0.950 . S
H1521 C1497 0.949 . S
H1522 C1499 0.950 1_565 S
H1523 C1501 0.950 1_565 S
C1524 C1525 1.349 . S
C1524 C1526 1.327 . S
C1524 H1549 0.950 . S
C1525 C1524 1.349 . S
C1525 C1541 1.349 . S
C1526 C1524 1.327 . S
C1526 C1545 1.429 . S
C1526 H1550 0.950 . S
C1527 C1544 1.574 . S
C1527 C1546 1.368 . S
C1527 H1551 0.949 . S
H1528 C1532 0.949 . S
C1529 C1530 1.349 . S
C1529 C1531 1.327 . S
C1529 H1552 0.950 . S
C1530 C1529 1.349 . S
C1530 C1542 1.349 . S
C1531 C1529 1.327 . S
C1531 C1547 1.429 . S
C1531 H1553 0.950 . S
C1532 H1528 0.949 . S
C1532 C1540 1.574 . S
C1532 C1548 1.368 . S
H1533 C1541 0.950 . S
H1534 C1539 0.950 . S
H1535 C1540 0.949 . S
H1536 C1542 0.950 . S
H1537 C1543 0.950 . S
H1538 C1544 0.949 . S
C1539 H1534 0.950 . S
C1539 C1541 1.327 . S
C1539 C1545 1.429 . S
C1540 C1532 1.574 . S
C1540 H1535 0.949 . S
C1540 C1546 1.368 . S
C1541 C1525 1.349 . S
C1541 H1533 0.950 . S
C1541 C1539 1.327 . S
C1542 C1530 1.349 . S
C1542 H1536 0.950 . S
C1542 C1543 1.327 . S
C1543 H1537 0.950 . S
C1543 C1542 1.327 . S
C1543 C1547 1.429 . S
C1544 C1527 1.574 . S
C1544 H1538 0.949 . S
C1544 C1548 1.368 . S
C1545 C1526 1.429 . S
C1545 C1539 1.429 . S
C1545 C1546 1.523 . S
C1546 C1527 1.368 . S
C1546 C1540 1.368 . S
C1546 C1545 1.523 . S
C1547 C1531 1.429 . S
C1547 C1543 1.429 . S
C1547 C1548 1.523 . S
C1548 C1532 1.368 . S
C1548 C1544 1.368 . S
C1548 C1547 1.523 . S
H1549 C1524 0.950 . S
H1550 C1526 0.950 . S
H1551 C1527 0.949 . S
H1552 C1529 0.950 . S
H1553 C1531 0.950 . S
C1554 C1555 1.349 . S
C1554 C1556 1.327 . S
C1554 H1579 0.950 . S
C1555 C1554 1.349 . S
C1555 C1571 1.349 . S
C1556 C1554 1.327 . S
C1556 C1575 1.429 . S
C1556 H1580 0.950 . S
C1557 C1574 1.574 . S
C1557 C1576 1.368 . S
C1557 H1581 0.949 . S
H1558 C1562 0.949 . S
C1559 C1560 1.349 . S
C1559 C1561 1.327 . S
C1559 H1582 0.950 . S
C1560 C1559 1.349 . S
C1560 C1572 1.349 . S
C1561 C1559 1.327 . S
C1561 C1577 1.429 . S
C1561 H1583 0.950 . S
C1562 H1558 0.949 . S
C1562 C1570 1.574 . S
C1562 C1578 1.368 . S
H1563 C1571 0.950 . S
H1564 C1569 0.950 . S
H1565 C1570 0.949 . S
H1566 C1572 0.950 . S
H1567 C1573 0.950 . S
H1568 C1574 0.949 . S
C1569 H1564 0.950 . S
C1569 C1571 1.327 . S
C1569 C1575 1.429 . S
C1570 C1562 1.574 . S
C1570 H1565 0.949 . S
C1570 C1576 1.368 . S
C1571 C1555 1.349 . S
C1571 H1563 0.950 . S
C1571 C1569 1.327 . S
C1572 C1560 1.349 . S
C1572 H1566 0.950 . S
C1572 C1573 1.327 . S
C1573 H1567 0.950 . S
C1573 C1572 1.327 . S
C1573 C1577 1.429 . S
C1574 C1557 1.574 . S
C1574 H1568 0.949 . S
C1574 C1578 1.368 . S
C1575 C1556 1.429 . S
C1575 C1569 1.429 . S
C1575 C1576 1.523 . S
C1576 C1557 1.368 . S
C1576 C1570 1.368 . S
C1576 C1575 1.523 . S
C1577 C1561 1.429 . S
C1577 C1573 1.429 . S
C1577 C1578 1.523 . S
C1578 C1562 1.368 . S
C1578 C1574 1.368 . S
C1578 C1577 1.523 . S
H1579 C1554 0.950 . S
H1580 C1556 0.950 . S
H1581 C1557 0.949 . S
H1582 C1559 0.950 . S
H1583 C1561 0.950 . S
C1584 C1585 1.349 . S
C1584 C1586 1.327 . S
C1584 H1609 0.950 . S
C1585 C1584 1.349 . S
C1585 C1601 1.349 . S
C1586 C1584 1.327 . S
C1586 C1605 1.429 . S
C1586 H1610 0.950 . S
C1587 C1604 1.574 . S
C1587 C1606 1.368 . S
C1587 H1611 0.949 . S
H1588 C1592 0.949 . S
C1589 C1590 1.349 . S
C1589 C1591 1.327 . S
C1589 H1612 0.950 . S
C1590 C1589 1.349 . S
C1590 C1602 1.349 . S
C1591 C1589 1.327 . S
C1591 C1607 1.429 . S
C1591 H1613 0.950 . S
C1592 H1588 0.949 . S
C1592 C1600 1.574 . S
C1592 C1608 1.368 . S
H1593 C1601 0.950 . S
H1594 C1599 0.950 . S
H1595 C1600 0.949 . S
H1596 C1602 0.950 . S
H1597 C1603 0.950 . S
H1598 C1604 0.949 . S
C1599 H1594 0.950 . S
C1599 C1601 1.327 . S
C1599 C1605 1.429 . S
C1600 C1592 1.574 . S
C1600 H1595 0.949 . S
C1600 C1606 1.368 . S
C1601 C1585 1.349 . S
C1601 H1593 0.950 . S
C1601 C1599 1.327 . S
C1602 C1590 1.349 . S
C1602 H1596 0.950 . S
C1602 C1603 1.327 . S
C1603 H1597 0.950 . S
C1603 C1602 1.327 . S
C1603 C1607 1.429 . S
C1604 C1587 1.574 . S
C1604 H1598 0.949 . S
C1604 C1608 1.368 . S
C1605 C1586 1.429 . S
C1605 C1599 1.429 . S
C1605 C1606 1.523 . S
C1606 C1587 1.368 . S
C1606 C1600 1.368 . S
C1606 C1605 1.523 . S
C1607 C1591 1.429 . S
C1607 C1603 1.429 . S
C1607 C1608 1.523 . S
C1608 C1592 1.368 . S
C1608 C1604 1.368 . S
C1608 C1607 1.523 . S
H1609 C1584 0.950 . S
H1610 C1586 0.950 . S
H1611 C1587 0.949 . S
H1612 C1589 0.950 . S
H1613 C1591 0.950 . S
C1614 C1615 1.349 . S
C1614 C1616 1.327 . S
C1614 H1639 0.950 . S
C1615 C1614 1.349 . S
C1615 C1631 1.349 . S
C1616 C1614 1.327 . S
C1616 C1635 1.429 . S
C1616 H1640 0.950 . S
C1617 C1634 1.574 . S
C1617 C1636 1.368 . S
C1617 H1641 0.949 . S
H1618 C1622 0.949 1_565 S
C1619 C1620 1.349 . S
C1619 C1621 1.327 . S
C1619 H1642 0.950 . S
C1620 C1619 1.349 . S
C1620 C1632 1.314 1_545 S
C1621 C1619 1.327 . S
C1621 C1637 1.429 . S
C1621 H1643 0.950 . S
C1622 H1618 0.949 1_545 S
C1622 C1630 1.574 . S
C1622 C1638 1.368 . S
H1623 C1631 0.950 . S
H1624 C1629 0.950 . S
H1625 C1630 0.949 1_565 S
H1626 C1632 0.991 . S
H1627 C1633 0.894 1_565 S
H1628 C1634 0.949 . S
C1629 H1624 0.950 . S
C1629 C1631 1.327 . S
C1629 C1635 1.429 . S
C1630 C1622 1.574 . S
C1630 H1625 0.949 1_545 S
C1630 C1636 1.368 . S
C1631 C1615 1.349 . S
C1631 H1623 0.950 . S
C1631 C1629 1.327 . S
C1632 C1620 1.314 1_565 S
C1632 H1626 0.991 . S
C1632 C1633 1.320 1_565 S
C1633 H1627 0.894 1_545 S
C1633 C1632 1.320 1_545 S
C1633 C1637 1.492 . S
C1634 C1617 1.574 . S
C1634 H1628 0.949 . S
C1634 C1638 1.368 . S
C1635 C1616 1.429 . S
C1635 C1629 1.429 . S
C1635 C1636 1.523 . S
C1636 C1617 1.368 . S
C1636 C1630 1.368 . S
C1636 C1635 1.523 . S
C1637 C1621 1.429 . S
C1637 C1633 1.492 . S
C1637 C1638 1.523 . S
C1638 C1622 1.368 . S
C1638 C1634 1.368 . S
C1638 C1637 1.523 . S
H1639 C1614 0.950 . S
H1640 C1616 0.950 . S
H1641 C1617 0.949 . S
H1642 C1619 0.950 . S
H1643 C1621 0.950 . S
C1644 C1645 1.349 . S
C1644 C1646 1.327 . S
C1644 H1669 0.950 . S
C1645 C1644 1.349 . S
C1645 C1661 1.349 . S
C1646 C1644 1.327 . S
C1646 C1665 1.429 . S
C1646 H1670 0.950 . S
C1647 C1664 1.574 . S
C1647 C1666 1.368 . S
C1647 H1671 0.949 . S
H1648 C1652 0.949 . S
C1649 C1650 1.349 . S
C1649 C1651 1.327 . S
C1649 H1672 0.950 . S
C1650 C1649 1.349 . S
C1650 C1662 1.349 . S
C1651 C1649 1.327 . S
C1651 C1667 1.429 . S
C1651 H1673 0.950 . S
C1652 H1648 0.949 . S
C1652 C1660 1.574 . S
C1652 C1668 1.368 . S
H1653 C1661 0.950 . S
H1654 C1659 0.950 . S
H1655 C1660 0.949 . S
H1656 C1662 0.950 . S
H1657 C1663 0.950 . S
H1658 C1664 0.949 . S
C1659 H1654 0.950 . S
C1659 C1661 1.327 . S
C1659 C1665 1.429 . S
C1660 C1652 1.574 . S
C1660 H1655 0.949 . S
C1660 C1666 1.368 . S
C1661 C1645 1.349 . S
C1661 H1653 0.950 . S
C1661 C1659 1.327 . S
C1662 C1650 1.349 . S
C1662 H1656 0.950 . S
C1662 C1663 1.327 . S
C1663 H1657 0.950 . S
C1663 C1662 1.327 . S
C1663 C1667 1.429 . S
C1664 C1647 1.574 . S
C1664 H1658 0.949 . S
C1664 C1668 1.368 . S
C1665 C1646 1.429 . S
C1665 C1659 1.429 . S
C1665 C1666 1.523 . S
C1666 C1647 1.368 . S
C1666 C1660 1.368 . S
C1666 C1665 1.523 . S
C1667 C1651 1.429 . S
C1667 C1663 1.429 . S
C1667 C1668 1.523 . S
C1668 C1652 1.368 . S
C1668 C1664 1.368 . S
C1668 C1667 1.523 . S
H1669 C1644 0.950 . S
H1670 C1646 0.950 . S
H1671 C1647 0.949 . S
H1672 C1649 0.950 . S
H1673 C1651 0.950 . S
C1674 C1675 1.343 1_655 S
C1674 C1676 1.311 1_655 S
C1674 H1699 0.972 . S
C1675 C1674 1.343 1_455 S
C1675 C1691 1.349 . S
C1676 C1674 1.311 1_455 S
C1676 C1695 1.429 . S
C1676 H1700 0.950 . S
C1677 C1694 1.574 . S
C1677 C1696 1.368 . S
C1677 H1701 0.949 . S
H1678 C1682 0.949 . S
C1679 C1680 1.349 . S
C1679 C1681 1.327 . S
C1679 H1702 0.950 . S
C1680 C1679 1.349 . S
C1680 C1692 1.349 . S
C1681 C1679 1.327 . S
C1681 C1697 1.429 . S
C1681 H1703 0.950 . S
C1682 H1678 0.949 . S
C1682 C1690 1.574 . S
C1682 C1698 1.368 . S
H1683 C1691 0.950 . S
H1684 C1689 0.950 . S
H1685 C1690 0.949 . S
H1686 C1692 0.950 . S
H1687 C1693 0.950 . S
H1688 C1694 0.949 . S
C1689 H1684 0.950 . S
C1689 C1691 1.327 . S
C1689 C1695 1.429 . S
C1690 C1682 1.574 . S
C1690 H1685 0.949 . S
C1690 C1696 1.368 . S
C1691 C1675 1.349 . S
C1691 H1683 0.950 . S
C1691 C1689 1.327 . S
C1692 C1680 1.349 . S
C1692 H1686 0.950 . S
C1692 C1693 1.327 . S
C1693 H1687 0.950 . S
C1693 C1692 1.327 . S
C1693 C1697 1.429 . S
C1694 C1677 1.574 . S
C1694 H1688 0.949 . S
C1694 C1698 1.368 . S
C1695 C1676 1.429 . S
C1695 C1689 1.429 . S
C1695 C1696 1.523 . S
C1696 C1677 1.368 . S
C1696 C1690 1.368 . S
C1696 C1695 1.523 . S
C1697 C1681 1.429 . S
C1697 C1693 1.429 . S
C1697 C1698 1.523 . S
C1698 C1682 1.368 . S
C1698 C1694 1.368 . S
C1698 C1697 1.523 . S
H1699 C1674 0.972 . S
H1700 C1676 0.950 . S
H1701 C1677 0.949 . S
H1702 C1679 0.950 . S
H1703 C1681 0.950 . S
C1704 C1705 1.349 . S
C1704 C1706 1.327 . S
C1704 H1729 0.950 . S
C1705 C1704 1.349 . S
C1705 C1721 1.349 . S
C1706 C1704 1.327 . S
C1706 C1725 1.429 . S
C1706 H1730 0.950 . S
C1707 C1724 1.574 . S
C1707 C1726 1.368 . S
C1707 H1731 0.949 . S
H1708 C1712 0.949 . S
C1709 C1710 1.349 . S
C1709 C1711 1.327 . S
C1709 H1732 0.950 . S
C1710 C1709 1.349 . S
C1710 C1722 1.349 . S
C1711 C1709 1.327 . S
C1711 C1727 1.429 . S
C1711 H1733 0.950 . S
C1712 H1708 0.949 . S
C1712 C1720 1.574 . S
C1712 C1728 1.368 . S
H1713 C1721 0.950 . S
H1714 C1719 0.950 . S
H1715 C1720 0.949 . S
H1716 C1722 0.950 . S
H1717 C1723 0.950 . S
H1718 C1724 0.949 . S
C1719 H1714 0.950 . S
C1719 C1721 1.327 . S
C1719 C1725 1.429 . S
C1720 C1712 1.574 . S
C1720 H1715 0.949 . S
C1720 C1726 1.368 . S
C1721 C1705 1.349 . S
C1721 H1713 0.950 . S
C1721 C1719 1.327 . S
C1722 C1710 1.349 . S
C1722 H1716 0.950 . S
C1722 C1723 1.327 . S
C1723 H1717 0.950 . S
C1723 C1722 1.327 . S
C1723 C1727 1.429 . S
C1724 C1707 1.574 . S
C1724 H1718 0.949 . S
C1724 C1728 1.368 . S
C1725 C1706 1.429 . S
C1725 C1719 1.429 . S
C1725 C1726 1.523 . S
C1726 C1707 1.368 . S
C1726 C1720 1.368 . S
C1726 C1725 1.523 . S
C1727 C1711 1.429 . S
C1727 C1723 1.429 . S
C1727 C1728 1.523 . S
C1728 C1712 1.368 . S
C1728 C1724 1.368 . S
C1728 C1727 1.523 . S
H1729 C1704 0.950 . S
H1730 C1706 0.950 . S
H1731 C1707 0.949 . S
H1732 C1709 0.950 . S
H1733 C1711 0.950 . S
C1734 C1735 1.349 1_556 S
C1734 C1736 1.327 . S
C1734 H1759 0.950 . S
C1735 C1734 1.349 1_554 S
C1735 C1751 1.349 . S
C1736 C1734 1.327 . S
C1736 C1755 1.429 . S
C1736 H1760 0.950 . S
C1737 C1754 1.574 . S
C1737 C1756 1.368 . S
C1737 H1761 0.949 . S
H1738 C1742 0.949 . S
C1739 C1740 1.349 . S
C1739 C1741 1.327 . S
C1739 H1762 0.950 . S
C1740 C1739 1.349 . S
C1740 C1752 1.383 . S
C1741 C1739 1.327 . S
C1741 C1757 1.429 . S
C1741 H1763 0.950 . S
C1742 H1738 0.949 . S
C1742 C1750 1.574 . S
C1742 C1758 1.368 . S
H1743 C1751 0.950 . S
H1744 C1749 0.950 . S
H1745 C1750 0.949 . S
H1746 C1752 0.901 1_455 S
H1747 C1753 0.950 1_455 S
H1748 C1754 0.949 . S
C1749 H1744 0.950 . S
C1749 C1751 1.327 1_556 S
C1749 C1755 1.429 . S
C1750 C1742 1.574 . S
C1750 H1745 0.949 . S
C1750 C1756 1.368 . S
C1751 C1735 1.349 . S
C1751 H1743 0.950 . S
C1751 C1749 1.327 1_554 S
C1752 C1740 1.383 . S
C1752 H1746 0.901 1_655 S
C1752 C1753 1.345 . S
C1753 H1747 0.950 1_655 S
C1753 C1752 1.345 . S
C1753 C1757 1.429 . S
C1754 C1737 1.574 . S
C1754 H1748 0.949 . S
C1754 C1758 1.368 . S
C1755 C1736 1.429 . S
C1755 C1749 1.429 . S
C1755 C1756 1.523 . S
C1756 C1737 1.368 . S
C1756 C1750 1.368 . S
C1756 C1755 1.523 . S
C1757 C1741 1.429 . S
C1757 C1753 1.429 . S
C1757 C1758 1.523 . S
C1758 C1742 1.368 . S
C1758 C1754 1.368 . S
C1758 C1757 1.523 . S
H1759 C1734 0.950 . S
H1760 C1736 0.950 . S
H1761 C1737 0.949 . S
H1762 C1739 0.950 . S
H1763 C1741 0.950 . S
C1764 C1765 1.349 . S
C1764 C1766 1.327 . S
C1764 H1789 0.950 . S
C1765 C1764 1.349 . S
C1765 C1781 1.349 . S
C1766 C1764 1.327 . S
C1766 C1785 1.429 . S
C1766 H1790 0.950 . S
C1767 C1784 1.574 . S
C1767 C1786 1.368 . S
C1767 H1791 0.949 . S
H1768 C1772 0.949 . S
C1769 C1770 1.349 . S
C1769 C1771 1.327 . S
C1769 H1792 0.950 . S
C1770 C1769 1.349 . S
C1770 C1782 1.349 . S
C1771 C1769 1.327 . S
C1771 C1787 1.429 . S
C1771 H1793 0.950 . S
C1772 H1768 0.949 . S
C1772 C1780 1.574 . S
C1772 C1788 1.368 . S
H1773 C1781 0.950 . S
H1774 C1779 0.950 . S
H1775 C1780 0.949 . S
H1776 C1782 0.950 . S
H1777 C1783 0.950 . S
H1778 C1784 0.949 . S
C1779 H1774 0.950 . S
C1779 C1781 1.327 . S
C1779 C1785 1.429 . S
C1780 C1772 1.574 . S
C1780 H1775 0.949 . S
C1780 C1786 1.368 . S
C1781 C1765 1.349 . S
C1781 H1773 0.950 . S
C1781 C1779 1.327 . S
C1782 C1770 1.349 . S
C1782 H1776 0.950 . S
C1782 C1783 1.327 . S
C1783 H1777 0.950 . S
C1783 C1782 1.327 . S
C1783 C1787 1.429 . S
C1784 C1767 1.574 . S
C1784 H1778 0.949 . S
C1784 C1788 1.368 . S
C1785 C1766 1.429 . S
C1785 C1779 1.429 . S
C1785 C1786 1.523 . S
C1786 C1767 1.368 . S
C1786 C1780 1.368 . S
C1786 C1785 1.523 . S
C1787 C1771 1.429 . S
C1787 C1783 1.429 . S
C1787 C1788 1.523 . S
C1788 C1772 1.368 . S
C1788 C1784 1.368 . S
C1788 C1787 1.523 . S
H1789 C1764 0.950 . S
H1790 C1766 0.950 . S
H1791 C1767 0.949 . S
H1792 C1769 0.950 . S
H1793 C1771 0.950 . S
C1794 C1795 1.349 . S
C1794 C1796 1.327 . S
C1794 H1819 0.950 1_556 S
C1795 C1794 1.349 . S
C1795 C1811 1.349 . S
C1796 C1794 1.327 . S
C1796 C1815 1.429 . S
C1796 H1820 0.950 . S
C1797 C1814 1.574 . S
C1797 C1816 1.368 . S
C1797 H1821 0.949 . S
H1798 C1802 0.949 . S
C1799 C1800 1.349 . S
C1799 C1801 1.327 . S
C1799 H1822 0.950 1_455 S
C1800 C1799 1.349 . S
C1800 C1812 1.349 . S
C1801 C1799 1.327 . S
C1801 C1817 1.429 . S
C1801 H1823 0.970 . S
C1802 H1798 0.949 . S
C1802 C1810 1.574 . S
C1802 C1818 1.368 . S
H1803 C1811 0.950 . S
H1804 C1809 0.950 . S
H1805 C1810 0.949 . S
H1806 C1812 0.950 . S
H1807 C1813 0.950 . S
H1808 C1814 0.949 . S
C1809 H1804 0.950 . S
C1809 C1811 1.327 . S
C1809 C1815 1.429 . S
C1810 C1802 1.574 . S
C1810 H1805 0.949 . S
C1810 C1816 1.368 . S
C1811 C1795 1.349 . S
C1811 H1803 0.950 . S
C1811 C1809 1.327 . S
C1812 C1800 1.349 . S
C1812 H1806 0.950 . S
C1812 C1813 1.327 . S
C1813 H1807 0.950 . S
C1813 C1812 1.327 . S
C1813 C1817 1.429 . S
C1814 C1797 1.574 . S
C1814 H1808 0.949 . S
C1814 C1818 1.368 . S
C1815 C1796 1.429 . S
C1815 C1809 1.429 . S
C1815 C1816 1.523 . S
C1816 C1797 1.368 . S
C1816 C1810 1.368 . S
C1816 C1815 1.523 . S
C1817 C1801 1.429 . S
C1817 C1813 1.429 . S
C1817 C1818 1.523 . S
C1818 C1802 1.368 . S
C1818 C1814 1.368 . S
C1818 C1817 1.523 . S
H1819 C1794 0.950 1_554 S
H1820 C1796 0.950 . S
H1821 C1797 0.949 . S
H1822 C1799 0.950 1_655 S
H1823 C1801 0.970 . S
C1824 C1825 1.349 . S
C1824 C1826 1.327 . S
C1824 H1849 0.950 . S
C1825 C1824 1.349 . S
C1825 C1841 1.349 . S
C1826 C1824 1.327 . S
C1826 C1845 1.429 . S
C1826 H1850 0.950 . S
C1827 C1844 1.574 . S
C1827 C1846 1.368 . S
C1827 H1851 0.949 . S
H1828 C1832 0.949 . S
C1829 C1830 1.349 . S
C1829 C1831 1.327 . S
C1829 H1852 0.950 . S
C1830 C1829 1.349 . S
C1830 C1842 1.349 . S
C1831 C1829 1.327 . S
C1831 C1847 1.429 . S
C1831 H1853 0.950 . S
C1832 H1828 0.949 . S
C1832 C1840 1.574 . S
C1832 C1848 1.368 . S
H1833 C1841 0.950 . S
H1834 C1839 0.950 . S
H1835 C1840 0.949 . S
H1836 C1842 0.950 . S
H1837 C1843 0.950 . S
H1838 C1844 0.949 . S
C1839 H1834 0.950 . S
C1839 C1841 1.327 . S
C1839 C1845 1.429 . S
C1840 C1832 1.574 . S
C1840 H1835 0.949 . S
C1840 C1846 1.368 . S
C1841 C1825 1.349 . S
C1841 H1833 0.950 . S
C1841 C1839 1.327 . S
C1842 C1830 1.349 . S
C1842 H1836 0.950 . S
C1842 C1843 1.327 . S
C1843 H1837 0.950 . S
C1843 C1842 1.327 . S
C1843 C1847 1.429 . S
C1844 C1827 1.574 . S
C1844 H1838 0.949 . S
C1844 C1848 1.368 . S
C1845 C1826 1.429 . S
C1845 C1839 1.429 . S
C1845 C1846 1.523 . S
C1846 C1827 1.368 . S
C1846 C1840 1.368 . S
C1846 C1845 1.523 . S
C1847 C1831 1.429 . S
C1847 C1843 1.429 . S
C1847 C1848 1.523 . S
C1848 C1832 1.368 . S
C1848 C1844 1.368 . S
C1848 C1847 1.523 . S
H1849 C1824 0.950 . S
H1850 C1826 0.950 . S
H1851 C1827 0.949 . S
H1852 C1829 0.950 . S
H1853 C1831 0.950 . S
C1854 C1855 1.349 . S
C1854 C1856 1.327 . S
C1854 H1879 0.950 . S
C1855 C1854 1.349 . S
C1855 C1871 1.349 . S
C1856 C1854 1.327 . S
C1856 C1875 1.429 . S
C1856 H1880 0.950 . S
C1857 C1874 1.574 . S
C1857 C1876 1.368 . S
C1857 H1881 0.949 . S
H1858 C1862 0.949 . S
C1859 C1860 1.349 . S
C1859 C1861 1.327 . S
C1859 H1882 0.950 . S
C1860 C1859 1.349 . S
C1860 C1872 1.349 . S
C1861 C1859 1.327 . S
C1861 C1877 1.429 . S
C1861 H1883 0.950 . S
C1862 H1858 0.949 . S
C1862 C1870 1.574 . S
C1862 C1878 1.368 . S
H1863 C1871 0.950 . S
H1864 C1869 0.950 . S
H1865 C1870 0.949 . S
H1866 C1872 0.950 . S
H1867 C1873 0.950 . S
H1868 C1874 0.949 . S
C1869 H1864 0.950 . S
C1869 C1871 1.327 . S
C1869 C1875 1.429 . S
C1870 C1862 1.574 . S
C1870 H1865 0.949 . S
C1870 C1876 1.368 . S
C1871 C1855 1.349 . S
C1871 H1863 0.950 . S
C1871 C1869 1.327 . S
C1872 C1860 1.349 . S
C1872 H1866 0.950 . S
C1872 C1873 1.327 . S
C1873 H1867 0.950 . S
C1873 C1872 1.327 . S
C1873 C1877 1.429 . S
C1874 C1857 1.574 . S
C1874 H1868 0.949 . S
C1874 C1878 1.368 . S
C1875 C1856 1.429 . S
C1875 C1869 1.429 . S
C1875 C1876 1.523 . S
C1876 C1857 1.368 . S
C1876 C1870 1.368 . S
C1876 C1875 1.523 . S
C1877 C1861 1.429 . S
C1877 C1873 1.429 . S
C1877 C1878 1.523 . S
C1878 C1862 1.368 . S
C1878 C1874 1.368 . S
C1878 C1877 1.523 . S
H1879 C1854 0.950 . S
H1880 C1856 0.950 . S
H1881 C1857 0.949 . S
H1882 C1859 0.950 . S
H1883 C1861 0.950 . S
C1884 C1885 1.349 . S
C1884 C1886 1.327 . S
C1884 H1909 0.950 . S
C1885 C1884 1.349 . S
C1885 C1901 1.349 . S
C1886 C1884 1.327 . S
C1886 C1905 1.429 . S
C1886 H1910 0.950 . S
C1887 C1904 1.574 . S
C1887 C1906 1.368 . S
C1887 H1911 0.949 . S
H1888 C1892 0.949 . S
C1889 C1890 1.349 . S
C1889 C1891 1.327 . S
C1889 H1912 0.950 . S
C1890 C1889 1.349 . S
C1890 C1902 1.349 . S
C1891 C1889 1.327 . S
C1891 C1907 1.429 . S
C1891 H1913 0.950 . S
C1892 H1888 0.949 . S
C1892 C1900 1.574 . S
C1892 C1908 1.368 . S
H1893 C1901 0.950 . S
H1894 C1899 0.950 . S
H1895 C1900 0.949 . S
H1896 C1902 0.950 . S
H1897 C1903 0.950 . S
H1898 C1904 0.949 . S
C1899 H1894 0.950 . S
C1899 C1901 1.327 . S
C1899 C1905 1.429 . S
C1900 C1892 1.574 . S
C1900 H1895 0.949 . S
C1900 C1906 1.368 . S
C1901 C1885 1.349 . S
C1901 H1893 0.950 . S
C1901 C1899 1.327 . S
C1902 C1890 1.349 . S
C1902 H1896 0.950 . S
C1902 C1903 1.327 . S
C1903 H1897 0.950 . S
C1903 C1902 1.327 . S
C1903 C1907 1.429 . S
C1904 C1887 1.574 . S
C1904 H1898 0.949 . S
C1904 C1908 1.368 . S
C1905 C1886 1.429 . S
C1905 C1899 1.429 . S
C1905 C1906 1.523 . S
C1906 C1887 1.368 . S
C1906 C1900 1.368 . S
C1906 C1905 1.523 . S
C1907 C1891 1.429 . S
C1907 C1903 1.429 . S
C1907 C1908 1.523 . S
C1908 C1892 1.368 . S
C1908 C1904 1.368 . S
C1908 C1907 1.523 . S
H1909 C1884 0.950 . S
H1910 C1886 0.950 . S
H1911 C1887 0.949 . S
H1912 C1889 0.950 . S
H1913 C1891 0.950 . S
C1914 C1915 1.349 . S
C1914 C1916 1.327 . S
C1914 H1939 0.950 . S
C1915 C1914 1.349 . S
C1915 C1931 1.349 . S
C1916 C1914 1.327 . S
C1916 C1935 1.429 . S
C1916 H1940 0.950 . S
C1917 C1934 1.574 . S
C1917 C1936 1.368 . S
C1917 H1941 0.949 . S
H1918 C1922 0.949 . S
C1919 C1920 1.349 . S
C1919 C1921 1.327 . S
C1919 H1942 0.950 . S
C1920 C1919 1.349 . S
C1920 C1932 1.349 . S
C1921 C1919 1.327 . S
C1921 C1937 1.429 . S
C1921 H1943 0.950 . S
C1922 H1918 0.949 . S
C1922 C1930 1.574 . S
C1922 C1938 1.368 . S
H1923 C1931 0.950 1_556 S
H1924 C1929 0.950 . S
H1925 C1930 0.949 . S
H1926 C1932 0.950 . S
H1927 C1933 0.950 . S
H1928 C1934 0.949 . S
C1929 H1924 0.950 . S
C1929 C1931 1.327 . S
C1929 C1935 1.429 . S
C1930 C1922 1.574 . S
C1930 H1925 0.949 . S
C1930 C1936 1.368 . S
C1931 C1915 1.349 . S
C1931 H1923 0.950 1_554 S
C1931 C1929 1.327 . S
C1932 C1920 1.349 . S
C1932 H1926 0.950 . S
C1932 C1933 1.327 . S
C1933 H1927 0.950 . S
C1933 C1932 1.327 . S
C1933 C1937 1.429 . S
C1934 C1917 1.574 . S
C1934 H1928 0.949 . S
C1934 C1938 1.368 . S
C1935 C1916 1.429 . S
C1935 C1929 1.429 . S
C1935 C1936 1.523 . S
C1936 C1917 1.368 . S
C1936 C1930 1.368 . S
C1936 C1935 1.523 . S
C1937 C1921 1.429 . S
C1937 C1933 1.429 . S
C1937 C1938 1.523 . S
C1938 C1922 1.368 . S
C1938 C1934 1.368 . S
C1938 C1937 1.523 . S
H1939 C1914 0.950 . S
H1940 C1916 0.950 . S
H1941 C1917 0.949 . S
H1942 C1919 0.950 . S
H1943 C1921 0.950 . S
C1944 C1945 1.349 . S
C1944 C1946 1.327 . S
C1944 H1969 0.950 . S
C1945 C1944 1.349 . S
C1945 C1961 1.349 . S
C1946 C1944 1.327 . S
C1946 C1965 1.429 . S
C1946 H1970 0.950 . S
C1947 C1964 1.574 . S
C1947 C1966 1.368 . S
C1947 H1971 0.949 . S
H1948 C1952 0.949 . S
C1949 C1950 1.349 . S
C1949 C1951 1.327 . S
C1949 H1972 0.950 . S
C1950 C1949 1.349 . S
C1950 C1962 1.349 . S
C1951 C1949 1.327 . S
C1951 C1967 1.429 . S
C1951 H1973 0.950 . S
C1952 H1948 0.949 . S
C1952 C1960 1.574 . S
C1952 C1968 1.368 . S
H1953 C1961 0.950 . S
H1954 C1959 0.950 . S
H1955 C1960 0.949 . S
H1956 C1962 0.950 . S
H1957 C1963 0.950 . S
H1958 C1964 0.949 . S
C1959 H1954 0.950 . S
C1959 C1961 1.327 . S
C1959 C1965 1.429 . S
C1960 C1952 1.574 . S
C1960 H1955 0.949 . S
C1960 C1966 1.368 . S
C1961 C1945 1.349 . S
C1961 H1953 0.950 . S
C1961 C1959 1.327 . S
C1962 C1950 1.349 . S
C1962 H1956 0.950 . S
C1962 C1963 1.327 . S
C1963 H1957 0.950 . S
C1963 C1962 1.327 . S
C1963 C1967 1.429 . S
C1964 C1947 1.574 . S
C1964 H1958 0.949 . S
C1964 C1968 1.368 . S
C1965 C1946 1.429 . S
C1965 C1959 1.429 . S
C1965 C1966 1.523 . S
C1966 C1947 1.368 . S
C1966 C1960 1.368 . S
C1966 C1965 1.523 . S
C1967 C1951 1.429 . S
C1967 C1963 1.429 . S
C1967 C1968 1.523 . S
C1968 C1952 1.368 . S
C1968 C1964 1.368 . S
C1968 C1967 1.523 . S
H1969 C1944 0.950 . S
H1970 C1946 0.950 . S
H1971 C1947 0.949 . S
H1972 C1949 0.950 . S
H1973 C1951 0.950 . S
C1974 C1975 1.349 . S
C1974 C1976 1.327 . S
C1974 H1999 0.950 . S
C1975 C1974 1.349 . S
C1975 C1991 1.349 . S
C1976 C1974 1.327 . S
C1976 C1995 1.429 . S
C1976 H2000 0.950 . S
C1977 C1994 1.574 . S
C1977 C1996 1.368 . S
C1977 H2001 0.949 . S
H1978 C1982 0.949 . S
C1979 C1980 1.349 . S
C1979 C1981 1.327 . S
C1979 H2002 0.950 . S
C1980 C1979 1.349 . S
C1980 C1992 1.349 . S
C1981 C1979 1.327 . S
C1981 C1997 1.429 . S
C1981 H2003 0.950 . S
C1982 H1978 0.949 . S
C1982 C1990 1.574 . S
C1982 C1998 1.368 . S
H1983 C1991 0.950 . S
H1984 C1989 0.950 . S
H1985 C1990 0.949 . S
H1986 C1992 0.950 . S
H1987 C1993 0.950 . S
H1988 C1994 0.949 . S
C1989 H1984 0.950 . S
C1989 C1991 1.327 . S
C1989 C1995 1.429 . S
C1990 C1982 1.574 . S
C1990 H1985 0.949 . S
C1990 C1996 1.368 . S
C1991 C1975 1.349 . S
C1991 H1983 0.950 . S
C1991 C1989 1.327 . S
C1992 C1980 1.349 . S
C1992 H1986 0.950 . S
C1992 C1993 1.327 . S
C1993 H1987 0.950 . S
C1993 C1992 1.327 . S
C1993 C1997 1.429 . S
C1994 C1977 1.574 . S
C1994 H1988 0.949 . S
C1994 C1998 1.368 . S
C1995 C1976 1.429 . S
C1995 C1989 1.429 . S
C1995 C1996 1.523 . S
C1996 C1977 1.368 . S
C1996 C1990 1.368 . S
C1996 C1995 1.523 . S
C1997 C1981 1.429 . S
C1997 C1993 1.429 . S
C1997 C1998 1.523 . S
C1998 C1982 1.368 . S
C1998 C1994 1.368 . S
C1998 C1997 1.523 . S
H1999 C1974 0.950 . S
H2000 C1976 0.950 . S
H2001 C1977 0.949 . S
H2002 C1979 0.950 . S
H2003 C1981 0.950 . S
C2004 C2005 1.349 . S
C2004 C2006 1.327 . S
C2004 H2029 0.950 . S
C2005 C2004 1.349 . S
C2005 C2021 1.349 . S
C2006 C2004 1.327 . S
C2006 C2025 1.429 . S
C2006 H2030 0.950 . S
C2007 C2024 1.574 . S
C2007 C2026 1.368 . S
C2007 H2031 0.949 . S
H2008 C2012 0.949 . S
C2009 C2010 1.349 . S
C2009 C2011 1.327 . S
C2009 H2032 0.950 . S
C2010 C2009 1.349 . S
C2010 C2022 1.349 . S
C2011 C2009 1.327 . S
C2011 C2027 1.429 . S
C2011 H2033 0.950 . S
C2012 H2008 0.949 . S
C2012 C2020 1.574 . S
C2012 C2028 1.368 . S
H2013 C2021 0.950 . S
H2014 C2019 0.950 . S
H2015 C2020 0.949 . S
H2016 C2022 0.950 . S
H2017 C2023 0.950 . S
H2018 C2024 0.949 . S
C2019 H2014 0.950 . S
C2019 C2021 1.327 . S
C2019 C2025 1.429 . S
C2020 C2012 1.574 . S
C2020 H2015 0.949 . S
C2020 C2026 1.368 . S
C2021 C2005 1.349 . S
C2021 H2013 0.950 . S
C2021 C2019 1.327 . S
C2022 C2010 1.349 . S
C2022 H2016 0.950 . S
C2022 C2023 1.327 . S
C2023 H2017 0.950 . S
C2023 C2022 1.327 . S
C2023 C2027 1.429 . S
C2024 C2007 1.574 . S
C2024 H2018 0.949 . S
C2024 C2028 1.368 . S
C2025 C2006 1.429 . S
C2025 C2019 1.429 . S
C2025 C2026 1.523 . S
C2026 C2007 1.368 . S
C2026 C2020 1.368 . S
C2026 C2025 1.523 . S
C2027 C2011 1.429 . S
C2027 C2023 1.429 . S
C2027 C2028 1.523 . S
C2028 C2012 1.368 . S
C2028 C2024 1.368 . S
C2028 C2027 1.523 . S
H2029 C2004 0.950 . S
H2030 C2006 0.950 . S
H2031 C2007 0.949 . S
H2032 C2009 0.950 . S
H2033 C2011 0.950 . S
C2034 C2035 1.349 . S
C2034 C2036 1.327 . S
C2034 H2059 0.950 . S
C2035 C2034 1.349 . S
C2035 C2051 1.349 . S
C2036 C2034 1.327 . S
C2036 C2055 1.429 . S
C2036 H2060 0.950 . S
C2037 C2054 1.574 . S
C2037 C2056 1.368 . S
C2037 H2061 0.949 . S
H2038 C2042 0.949 . S
C2039 C2040 1.349 . S
C2039 C2041 1.327 . S
C2039 H2062 0.950 . S
C2040 C2039 1.349 . S
C2040 C2052 1.349 . S
C2041 C2039 1.327 . S
C2041 C2057 1.429 . S
C2041 H2063 0.950 . S
C2042 H2038 0.949 . S
C2042 C2050 1.574 . S
C2042 C2058 1.368 . S
H2043 C2051 0.950 . S
H2044 C2049 0.950 . S
H2045 C2050 0.949 . S
H2046 C2052 0.950 . S
H2047 C2053 0.950 . S
H2048 C2054 0.949 . S
C2049 H2044 0.950 . S
C2049 C2051 1.327 . S
C2049 C2055 1.429 . S
C2050 C2042 1.574 . S
C2050 H2045 0.949 . S
C2050 C2056 1.368 . S
C2051 C2035 1.349 . S
C2051 H2043 0.950 . S
C2051 C2049 1.327 . S
C2052 C2040 1.349 . S
C2052 H2046 0.950 . S
C2052 C2053 1.327 . S
C2053 H2047 0.950 . S
C2053 C2052 1.327 . S
C2053 C2057 1.429 . S
C2054 C2037 1.574 . S
C2054 H2048 0.949 . S
C2054 C2058 1.368 . S
C2055 C2036 1.429 . S
C2055 C2049 1.429 . S
C2055 C2056 1.523 . S
C2056 C2037 1.368 . S
C2056 C2050 1.368 . S
C2056 C2055 1.523 . S
C2057 C2041 1.429 . S
C2057 C2053 1.429 . S
C2057 C2058 1.523 . S
C2058 C2042 1.368 . S
C2058 C2054 1.368 . S
C2058 C2057 1.523 . S
H2059 C2034 0.950 . S
H2060 C2036 0.950 . S
H2061 C2037 0.949 . S
H2062 C2039 0.950 . S
H2063 C2041 0.950 . S
C2064 C2065 1.349 . S
C2064 C2066 1.327 . S
C2064 H2089 0.950 . S
C2065 C2064 1.349 . S
C2065 C2081 1.349 . S
C2066 C2064 1.327 . S
C2066 C2085 1.429 . S
C2066 H2090 0.950 . S
C2067 C2084 1.574 . S
C2067 C2086 1.368 . S
C2067 H2091 0.949 1_556 S
H2068 C2072 0.949 . S
C2069 C2070 1.349 1_554 S
C2069 C2071 1.327 . S
C2069 H2092 0.950 . S
C2070 C2069 1.349 1_556 S
C2070 C2082 1.349 . S
C2071 C2069 1.327 . S
C2071 C2087 1.429 1_554 S
C2071 H2093 0.950 . S
C2072 H2068 0.949 . S
C2072 C2080 1.574 . S
C2072 C2088 1.368 . S
H2073 C2081 0.950 . S
H2074 C2079 0.950 . S
H2075 C2080 0.949 . S
H2076 C2082 0.950 . S
H2077 C2083 0.950 . S
H2078 C2084 0.949 1_554 S
C2079 H2074 0.950 . S
C2079 C2081 1.327 . S
C2079 C2085 1.429 . S
C2080 C2072 1.574 . S
C2080 H2075 0.949 . S
C2080 C2086 1.368 . S
C2081 C2065 1.349 . S
C2081 H2073 0.950 . S
C2081 C2079 1.327 . S
C2082 C2070 1.349 . S
C2082 H2076 0.950 . S
C2082 C2083 1.327 . S
C2083 H2077 0.950 . S
C2083 C2082 1.327 . S
C2083 C2087 1.429 . S
C2084 C2067 1.574 . S
C2084 H2078 0.949 1_556 S
C2084 C2088 1.368 . S
C2085 C2066 1.429 . S
C2085 C2079 1.429 . S
C2085 C2086 1.523 . S
C2086 C2067 1.368 . S
C2086 C2080 1.368 . S
C2086 C2085 1.523 . S
C2087 C2071 1.429 1_556 S
C2087 C2083 1.429 . S
C2087 C2088 1.523 . S
C2088 C2072 1.368 . S
C2088 C2084 1.368 . S
C2088 C2087 1.523 . S
H2089 C2064 0.950 . S
H2090 C2066 0.950 . S
H2091 C2067 0.949 1_554 S
H2092 C2069 0.950 . S
H2093 C2071 0.950 . S
C2094 C2095 1.349 . S
C2094 C2096 1.327 . S
C2094 H2119 0.950 . S
C2095 C2094 1.349 . S
C2095 C2111 1.349 . S
C2096 C2094 1.327 . S
C2096 C2115 1.429 . S
C2096 H2120 0.950 . S
C2097 C2114 1.574 . S
C2097 C2116 1.368 . S
C2097 H2121 0.949 . S
H2098 C2102 0.949 . S
C2099 C2100 1.349 . S
C2099 C2101 1.327 . S
C2099 H2122 0.950 . S
C2100 C2099 1.349 . S
C2100 C2112 1.349 . S
C2101 C2099 1.327 . S
C2101 C2117 1.429 . S
C2101 H2123 0.950 . S
C2102 H2098 0.949 . S
C2102 C2110 1.574 . S
C2102 C2118 1.368 . S
H2103 C2111 0.950 . S
H2104 C2109 0.950 . S
H2105 C2110 0.949 . S
H2106 C2112 0.950 . S
H2107 C2113 0.950 . S
H2108 C2114 0.949 . S
C2109 H2104 0.950 . S
C2109 C2111 1.327 . S
C2109 C2115 1.429 . S
C2110 C2102 1.574 . S
C2110 H2105 0.949 . S
C2110 C2116 1.368 . S
C2111 C2095 1.349 . S
C2111 H2103 0.950 . S
C2111 C2109 1.327 . S
C2112 C2100 1.349 . S
C2112 H2106 0.950 . S
C2112 C2113 1.327 . S
C2113 H2107 0.950 . S
C2113 C2112 1.327 . S
C2113 C2117 1.429 . S
C2114 C2097 1.574 . S
C2114 H2108 0.949 . S
C2114 C2118 1.368 . S
C2115 C2096 1.429 . S
C2115 C2109 1.429 . S
C2115 C2116 1.523 . S
C2116 C2097 1.368 . S
C2116 C2110 1.368 . S
C2116 C2115 1.523 . S
C2117 C2101 1.429 . S
C2117 C2113 1.429 . S
C2117 C2118 1.523 . S
C2118 C2102 1.368 . S
C2118 C2114 1.368 . S
C2118 C2117 1.523 . S
H2119 C2094 0.950 . S
H2120 C2096 0.950 . S
H2121 C2097 0.949 . S
H2122 C2099 0.950 . S
H2123 C2101 0.950 . S
C2124 C2125 1.349 . S
C2124 C2126 1.327 . S
C2124 H2149 0.950 . S
C2125 C2124 1.349 . S
C2125 C2141 1.349 . S
C2126 C2124 1.327 . S
C2126 C2145 1.429 . S
C2126 H2150 0.950 . S
C2127 C2144 1.574 . S
C2127 C2146 1.368 . S
C2127 H2151 0.949 . S
H2128 C2132 0.949 . S
C2129 C2130 1.349 . S
C2129 C2131 1.327 . S
C2129 H2152 0.950 1_554 S
C2130 C2129 1.349 . S
C2130 C2142 1.349 . S
C2131 C2129 1.327 . S
C2131 C2147 1.429 . S
C2131 H2153 0.919 1_554 S
C2132 H2128 0.949 . S
C2132 C2140 1.574 . S
C2132 C2148 1.368 . S
H2133 C2141 0.950 . S
H2134 C2139 0.950 . S
H2135 C2140 0.949 . S
H2136 C2142 0.950 . S
H2137 C2143 0.950 . S
H2138 C2144 0.949 . S
C2139 H2134 0.950 . S
C2139 C2141 1.327 . S
C2139 C2145 1.429 . S
C2140 C2132 1.574 . S
C2140 H2135 0.949 . S
C2140 C2146 1.368 . S
C2141 C2125 1.349 . S
C2141 H2133 0.950 . S
C2141 C2139 1.327 . S
C2142 C2130 1.349 . S
C2142 H2136 0.950 . S
C2142 C2143 1.327 . S
C2143 H2137 0.950 . S
C2143 C2142 1.327 . S
C2143 C2147 1.429 . S
C2144 C2127 1.574 . S
C2144 H2138 0.949 . S
C2144 C2148 1.368 . S
C2145 C2126 1.429 . S
C2145 C2139 1.429 . S
C2145 C2146 1.523 . S
C2146 C2127 1.368 . S
C2146 C2140 1.368 . S
C2146 C2145 1.523 . S
C2147 C2131 1.429 . S
C2147 C2143 1.429 . S
C2147 C2148 1.523 . S
C2148 C2132 1.368 . S
C2148 C2144 1.368 . S
C2148 C2147 1.523 . S
H2149 C2124 0.950 . S
H2150 C2126 0.950 . S
H2151 C2127 0.949 . S
H2152 C2129 0.950 1_556 S
H2153 C2131 0.919 1_556 S
C2154 C2155 1.349 . S
C2154 C2156 1.327 . S
C2154 H2179 0.950 1_565 S
C2155 C2154 1.349 . S
C2155 C2171 1.349 . S
C2156 C2154 1.327 . S
C2156 C2175 1.429 . S
C2156 H2180 0.950 . S
C2157 C2174 1.574 . S
C2157 C2176 1.368 . S
C2157 H2181 0.949 . S
H2158 C2162 0.949 . S
C2159 C2160 1.349 . S
C2159 C2161 1.327 . S
C2159 H2182 0.950 . S
C2160 C2159 1.349 . S
C2160 C2172 1.349 . S
C2161 C2159 1.327 . S
C2161 C2177 1.429 . S
C2161 H2183 0.950 . S
C2162 H2158 0.949 . S
C2162 C2170 1.574 . S
C2162 C2178 1.368 . S
H2163 C2171 0.950 . S
H2164 C2169 0.950 . S
H2165 C2170 0.949 . S
H2166 C2172 0.950 1_556 S
H2167 C2173 0.950 . S
H2168 C2174 0.949 . S
C2169 H2164 0.950 . S
C2169 C2171 1.327 . S
C2169 C2175 1.429 . S
C2170 C2162 1.574 . S
C2170 H2165 0.949 . S
C2170 C2176 1.368 . S
C2171 C2155 1.349 . S
C2171 H2163 0.950 . S
C2171 C2169 1.327 . S
C2172 C2160 1.349 . S
C2172 H2166 0.950 1_554 S
C2172 C2173 1.327 . S
C2173 H2167 0.950 . S
C2173 C2172 1.327 . S
C2173 C2177 1.429 . S
C2174 C2157 1.574 . S
C2174 H2168 0.949 . S
C2174 C2178 1.368 . S
C2175 C2156 1.429 . S
C2175 C2169 1.429 . S
C2175 C2176 1.523 . S
C2176 C2157 1.368 . S
C2176 C2170 1.368 . S
C2176 C2175 1.523 . S
C2177 C2161 1.429 . S
C2177 C2173 1.429 . S
C2177 C2178 1.523 . S
C2178 C2162 1.368 . S
C2178 C2174 1.368 . S
C2178 C2177 1.523 . S
H2179 C2154 0.950 1_545 S
H2180 C2156 0.950 . S
H2181 C2157 0.949 . S
H2182 C2159 0.950 . S
H2183 C2161 0.950 . S
C750 C584 1.483 . S
C745 C181 1.509 . S
C780 C597 1.470 . S
C775 C247 1.469 1_455 S
C805 C283 1.668 . S
C810 C617 1.569 . S
C840 C631 1.356 . S
C835 C169 1.446 . S
C870 C643 1.525 . S
C865 C361 1.528 . S
C900 C657 1.406 . S
C895 C433 1.404 . S
C925 C421 1.487 . S
C930 C667 1.481 . S
C960 C682 1.524 . S
C955 C355 1.549 . S
C985 C427 1.533 . S
C990 C696 1.507 . S
C1020 C715 1.358 . S
C1015 C325 1.428 . S
C1045 C385 1.491 . S
C1050 C695 1.484 . S
C1080 C713 1.412 . S
C1075 C463 1.409 . S
C1105 C253 1.674 . S
C1110 C729 1.573 . S
C1135 C145 1.483 . S
C1140 C723 1.476 . S
C1165 C205 1.505 . S
C1170 C727 1.503 . S
C1195 C217 1.527 . S
C1200 C724 1.502 . S
C1225 C139 1.531 . S
C1230 C626 1.505 . S
C1255 C535 1.489 . S
C1260 C625 1.482 . S
C1290 C589 1.336 . S
C1285 C565 1.402 . S
C1320 C603 1.561 . S
C1315 C313 1.658 . S
C1345 C175 1.561 1_545 S
C1350 C640 1.526 . S
C1380 C685 1.519 . S
C1375 C397 1.522 . S
C1410 C639 1.474 . S
C1405 C349 1.472 1_545 S
C1440 C671 1.417 . S
C1435 C457 1.413 . S
C1470 C668 1.483 . S
C1465 C505 1.509 . S
C1495 C571 1.469 . S
C1500 C681 1.470 . S
C1525 C319 1.668 . S
C1530 C645 1.569 . S
C1560 C659 1.356 . S
C1555 C493 1.429 . S
C1585 C109 1.528 . S
C1590 C615 1.525 . S
C1620 C629 1.406 . S
C1615 C1 1.404 1_655 S
C1650 C583 1.481 . S
C1645 C61 1.487 . S
C1680 C598 1.524 . S
C1675 C103 1.549 1_455 S
C1705 C67 1.534 . S
C1710 C710 1.508 . S
C1735 C73 1.427 . S
C1740 C701 1.358 . S
C1765 C133 1.491 . S
C1770 C709 1.484 . S
C1795 C31 1.409 1_556 S
C1800 C699 1.412 . S
C1830 C743 1.573 . S
C1825 C289 1.674 . S
C1860 C737 1.476 . S
C1855 C469 1.483 1_554 S
C1890 C741 1.503 . S
C1885 C529 1.505 . S
C1915 C541 1.527 1_554 S
C1920 C738 1.502 . S
C1945 C391 1.531 . S
C1950 C654 1.505 . S
C1980 C653 1.482 . S
C1975 C211 1.489 . S
C2010 C673 1.336 . S
C2005 C241 1.401 . S
C2040 C687 1.561 . S
C2035 C277 1.658 . S
C2065 C499 1.561 . S
C2070 C612 1.526 . S
C2100 C601 1.519 . S
C2095 C37 1.522 . S
C2125 C97 1.472 . S
C2130 C611 1.474 . S
C2160 C587 1.416 . S
C2155 C25 1.413 1_565 S
