# Generated by pormake.
# Topology hwx, (6,3)-cn, num edge types: 1
# Building blocks:
#     Node 0, Type 0, BuildingBlock: OJICUG_clean_sbu_0, # of connection points: 6
#     Node 1, Type 0, BuildingBlock: OJICUG_clean_sbu_0, # of connection points: 6
#     Node 2, Type 0, BuildingBlock: OJICUG_clean_sbu_0, # of connection points: 6
#     Node 3, Type 0, BuildingBlock: OJICUG_clean_sbu_0, # of connection points: 6
#     Node 4, Type 1, BuildingBlock: VETTIZ_charged_linker_0, # of connection points: 3
#     Node 5, Type 1, BuildingBlock: VETTIZ_charged_linker_0, # of connection points: 3
#     Node 6, Type 1, BuildingBlock: VETTIZ_charged_linker_0, # of connection points: 3
#     Node 7, Type 1, BuildingBlock: VETTIZ_charged_linker_0, # of connection points: 3
#     Node 8, Type 1, BuildingBlock: VETTIZ_charged_linker_0, # of connection points: 3
#     Node 9, Type 1, BuildingBlock: VETTIZ_charged_linker_0, # of connection points: 3
#     Node 10, Type 1, BuildingBlock: VETTIZ_charged_linker_0, # of connection points: 3
#     Node 11, Type 1, BuildingBlock: VETTIZ_charged_linker_0, # of connection points: 3
#     Edge 12, Type (0, 1), BuildingBlock: TEMPAE_clean_linker_10, # of connection points: 2
#     Edge 13, Type (0, 1), BuildingBlock: TEMPAE_clean_linker_10, # of connection points: 2
#     Edge 14, Type (0, 1), BuildingBlock: TEMPAE_clean_linker_10, # of connection points: 2
#     Edge 15, Type (0, 1), BuildingBlock: TEMPAE_clean_linker_10, # of connection points: 2
#     Edge 16, Type (0, 1), BuildingBlock: TEMPAE_clean_linker_10, # of connection points: 2
#     Edge 17, Type (0, 1), BuildingBlock: TEMPAE_clean_linker_10, # of connection points: 2
#     Edge 18, Type (0, 1), BuildingBlock: TEMPAE_clean_linker_10, # of connection points: 2
#     Edge 19, Type (0, 1), BuildingBlock: TEMPAE_clean_linker_10, # of connection points: 2
#     Edge 20, Type (0, 1), BuildingBlock: TEMPAE_clean_linker_10, # of connection points: 2
#     Edge 21, Type (0, 1), BuildingBlock: TEMPAE_clean_linker_10, # of connection points: 2
#     Edge 22, Type (0, 1), BuildingBlock: TEMPAE_clean_linker_10, # of connection points: 2
#     Edge 23, Type (0, 1), BuildingBlock: TEMPAE_clean_linker_10, # of connection points: 2
#     Edge 24, Type (0, 1), BuildingBlock: TEMPAE_clean_linker_10, # of connection points: 2
#     Edge 25, Type (0, 1), BuildingBlock: TEMPAE_clean_linker_10, # of connection points: 2
#     Edge 26, Type (0, 1), BuildingBlock: TEMPAE_clean_linker_10, # of connection points: 2
#     Edge 27, Type (0, 1), BuildingBlock: TEMPAE_clean_linker_10, # of connection points: 2
#     Edge 28, Type (0, 1), BuildingBlock: TEMPAE_clean_linker_10, # of connection points: 2
#     Edge 29, Type (0, 1), BuildingBlock: TEMPAE_clean_linker_10, # of connection points: 2
#     Edge 30, Type (0, 1), BuildingBlock: TEMPAE_clean_linker_10, # of connection points: 2
#     Edge 31, Type (0, 1), BuildingBlock: TEMPAE_clean_linker_10, # of connection points: 2
#     Edge 32, Type (0, 1), BuildingBlock: TEMPAE_clean_linker_10, # of connection points: 2
#     Edge 33, Type (0, 1), BuildingBlock: TEMPAE_clean_linker_10, # of connection points: 2
#     Edge 34, Type (0, 1), BuildingBlock: TEMPAE_clean_linker_10, # of connection points: 2
#     Edge 35, Type (0, 1), BuildingBlock: TEMPAE_clean_linker_10, # of connection points: 2
# Relax obj value: 0.080
# Max RMSD: 0.104
# Mean RMSD: 0.097
data_MOF--net-hwx--node1-OJICUG_clean_sbu_0--node2-VETTIZ_charged_linker_0--edge1-TEMPAE_clean_linker_10
_symmetry_space_group_name_H-M    P1
_symmetry_Int_Tables_number       1
_symmetry_cell_setting            triclinic
loop_
_symmetry_equiv_pos_as_xyz
'x, y, z'
_cell_length_a     61.016143
_cell_length_b     60.975335
_cell_length_c     27.763605
_cell_angle_alpha  90.064334
_cell_angle_beta   89.950236
_cell_angle_gamma 90.005206
loop_
_atom_site_label
_atom_site_type_symbol
_atom_site_fract_x
_atom_site_fract_y
_atom_site_fract_z
_atom_type_partial_charge
Sc0 Sc 0.22119 0.22064 0.06624 0.0
Sc1 Sc 0.18088 0.1878 0.01235 0.0
Sc2 Sc 0.21981 0.21548 0.94058 0.0
O3 O 0.20724 0.20798 0.00621 0.0
C4 C 0.21994 0.26155 0.99664 0.0
C5 C 0.17036 0.22167 0.09468 0.0
C6 C 0.16856 0.21625 0.91963 0.0
C7 C 0.21279 0.17173 0.09677 0.0
C8 C 0.26353 0.21244 0.0009 0.0
C9 C 0.20904 0.16432 0.93037 0.0
O10 O 0.21813 0.2533 0.03855 0.0
O11 O 0.16382 0.20982 0.05998 0.0
O12 O 0.18809 0.22219 0.91078 0.0
O13 O 0.22503 0.18858 0.09625 0.0
O14 O 0.25307 0.20934 0.96205 0.0
O15 O 0.1953 0.16376 0.96486 0.0
O16 O 0.25419 0.218 0.03986 0.0
O17 O 0.19528 0.17 0.07206 0.0
O18 O 0.21849 0.18188 0.91685 0.0
O19 O 0.19048 0.2253 0.10311 0.0
O20 O 0.22224 0.25 0.95861 0.0
O21 O 0.1635 0.20354 0.95417 0.0
Sc22 Sc 0.28015 0.71923 0.43304 0.0
Sc23 Sc 0.31274 0.68524 0.50636 0.0
Sc24 Sc 0.27575 0.72269 0.55902 0.0
O25 O 0.28956 0.70904 0.49946 0.0
C26 C 0.28237 0.76427 0.49224 0.0
C27 C 0.33152 0.71369 0.41865 0.0
C28 C 0.32589 0.71779 0.59037 0.0
C29 C 0.28436 0.66731 0.41885 0.0
C30 C 0.23465 0.71898 0.48856 0.0
C31 C 0.2782 0.67261 0.58901 0.0
O32 O 0.28153 0.75342 0.45312 0.0
O33 O 0.33365 0.69917 0.45119 0.0
O34 O 0.30649 0.72483 0.59642 0.0
O35 O 0.27815 0.68625 0.40541 0.0
O36 O 0.24325 0.72215 0.52958 0.0
O37 O 0.29476 0.6684 0.56263 0.0
O38 O 0.24583 0.71675 0.45025 0.0
O39 O 0.29635 0.66412 0.45561 0.0
O40 O 0.26905 0.69131 0.58992 0.0
O41 O 0.31328 0.72267 0.40907 0.0
O42 O 0.28101 0.75545 0.53355 0.0
O43 O 0.3312 0.7042 0.55769 0.0
Sc44 Sc 0.77974 0.77547 0.9391 0.0
Sc45 Sc 0.81448 0.81126 0.00196 0.0
Sc46 Sc 0.77692 0.77839 0.06482 0.0
O47 O 0.7904 0.78838 0.00198 0.0
C48 C 0.73529 0.78114 0.99517 0.0
C49 C 0.78655 0.82597 0.91243 0.0
C50 C 0.78167 0.82919 0.08349 0.0
C51 C 0.83069 0.77738 0.92073 0.0
C52 C 0.77998 0.73364 0.0087 0.0
C53 C 0.82768 0.78257 0.09149 0.0
O54 O 0.74622 0.78259 0.95635 0.0
O55 O 0.79738 0.83098 0.94992 0.0
O56 O 0.77088 0.81145 0.08724 0.0
O57 O 0.81241 0.76754 0.91698 0.0
O58 O 0.78206 0.74446 0.04755 0.0
O59 O 0.83326 0.7932 0.05411 0.0
O60 O 0.77713 0.74269 0.96793 0.0
O61 O 0.83326 0.79442 0.94674 0.0
O62 O 0.80792 0.7779 0.10168 0.0
O63 O 0.78098 0.80645 0.90206 0.0
O64 O 0.74409 0.77768 0.03597 0.0
O65 O 0.79872 0.83091 0.05722 0.0
Sc66 Sc 0.71895 0.28129 0.55676 0.0
Sc67 Sc 0.68636 0.31335 0.47852 0.0
Sc68 Sc 0.72237 0.27363 0.4315 0.0
O69 O 0.70921 0.28946 0.48897 0.0
C70 C 0.76408 0.27964 0.49991 0.0
C71 C 0.71463 0.33338 0.56446 0.0
C72 C 0.72078 0.32296 0.39418 0.0
C73 C 0.66748 0.28738 0.56966 0.0
C74 C 0.71618 0.23443 0.50522 0.0
C75 C 0.67231 0.27831 0.39919 0.0
O76 O 0.75316 0.28295 0.53824 0.0
O77 O 0.70235 0.33559 0.52782 0.0
O78 O 0.72889 0.30377 0.39446 0.0
O79 O 0.68578 0.27916 0.58192 0.0
O80 O 0.71694 0.24203 0.46272 0.0
O81 O 0.66784 0.29401 0.4277 0.0
O82 O 0.7177 0.24645 0.54254 0.0
O83 O 0.66519 0.30025 0.53396 0.0
O84 O 0.6913 0.26991 0.39629 0.0
O85 O 0.72126 0.31488 0.57952 0.0
O86 O 0.75514 0.27531 0.4597 0.0
O87 O 0.70503 0.32868 0.42155 0.0
C88 C 0.22547 0.55176 0.85664 0.0
C89 C 0.22859 0.57462 0.85721 0.0
C90 C 0.22599 0.58611 0.90093 0.0
C91 C 0.22022 0.552 0.94331 0.0
C92 C 0.22132 0.5408 0.90007 0.0
C93 C 0.21883 0.51643 0.90673 0.0
H94 H 0.21926 0.42937 0.0571 0.0
C95 C 0.21843 0.53575 0.9824 0.0
C96 C 0.21746 0.51487 0.96132 0.0
H97 H 0.21061 0.42934 0.90263 0.0
H98 H 0.21102 0.46901 0.90203 0.0
H99 H 0.25469 0.46642 0.0621 0.0
H100 H 0.18451 0.46991 0.07716 0.0
H101 H 0.19647 0.48587 0.12306 0.0
H102 H 0.20195 0.45686 0.12059 0.0
H103 H 0.24106 0.45798 0.11628 0.0
H104 H 0.24924 0.48609 0.10667 0.0
C105 C 0.23965 0.5051 0.8867 0.0
C106 C 0.19723 0.50907 0.88212 0.0
C107 C 0.22674 0.56126 0.15512 0.0
C108 C 0.23053 0.55005 0.19831 0.0
C109 C 0.22986 0.52701 0.19901 0.0
C110 C 0.22564 0.51519 0.15657 0.0
C111 C 0.22257 0.52662 0.11303 0.0
C112 C 0.2231 0.54929 0.11296 0.0
C113 C 0.22159 0.55872 0.06314 0.0
C114 C 0.21973 0.53799 0.03319 0.0
C115 C 0.22012 0.51927 0.06253 0.0
C116 C 0.24308 0.57158 0.05274 0.0
C117 C 0.20043 0.57268 0.06022 0.0
C118 C 0.21753 0.43797 0.02319 0.0
C119 C 0.21515 0.42637 0.97977 0.0
C120 C 0.21248 0.43803 0.93643 0.0
C121 C 0.21279 0.461 0.93617 0.0
C122 C 0.21577 0.47239 0.9797 0.0
C123 C 0.21756 0.4609 0.02238 0.0
C124 C 0.21972 0.47579 0.06533 0.0
C125 C 0.21886 0.49812 0.04135 0.0
C126 C 0.21701 0.49598 0.99112 0.0
C127 C 0.24223 0.47137 0.08931 0.0
C128 C 0.19975 0.47193 0.0987 0.0
H129 H 0.22052 0.58459 0.97606 0.0
H130 H 0.22721 0.5425 0.82355 0.0
H131 H 0.18534 0.52284 0.87916 0.0
H132 H 0.18846 0.49638 0.90314 0.0
H133 H 0.20029 0.50282 0.84513 0.0
H134 H 0.25463 0.51382 0.89915 0.0
H135 H 0.23968 0.50519 0.84669 0.0
H136 H 0.24151 0.48801 0.89886 0.0
H137 H 0.22779 0.57899 0.15372 0.0
H138 H 0.23302 0.5182 0.23215 0.0
H139 H 0.22553 0.49763 0.15905 0.0
H140 H 0.25699 0.56532 0.07467 0.0
H141 H 0.24119 0.58929 0.06114 0.0
H142 H 0.24879 0.56979 0.01517 0.0
H143 H 0.18677 0.56457 0.07991 0.0
H144 H 0.19442 0.57473 0.02297 0.0
H145 H 0.20294 0.58912 0.07662 0.0
H146 H 0.22767 0.60379 0.90207 0.0
C147 C 0.22177 0.57495 0.94387 0.0
C148 C 0.05794 0.7069 0.52054 0.0
C149 C 0.07035 0.70652 0.47787 0.0
C150 C 0.05959 0.70544 0.43315 0.0
C151 C 0.02446 0.70618 0.47351 0.0
C152 C 0.03503 0.70685 0.5175 0.0
C153 C 0.01916 0.70873 0.5589 0.0
H154 H 0.91448 0.72359 0.63293 0.0
C155 C 0.0007 0.70716 0.48246 0.0
C156 C 0.99737 0.70843 0.53243 0.0
H157 H 0.9731 0.72414 0.72007 0.0
H158 H 0.9948 0.71366 0.65055 0.0
H159 H 0.93548 0.7497 0.54386 0.0
H160 H 0.92524 0.68113 0.57235 0.0
H161 H 0.923 0.68414 0.50962 0.0
H162 H 0.90375 0.69803 0.54871 0.0
H163 H 0.90899 0.7371 0.54955 0.0
H164 H 0.92316 0.73758 0.49309 0.0
C165 C 0.02338 0.73092 0.5846 0.0
C166 C 0.02193 0.68838 0.59156 0.0
C167 C 0.94852 0.71519 0.34159 0.0
C168 C 0.92563 0.71673 0.33894 0.0
C169 C 0.91293 0.713 0.38048 0.0
C170 C 0.92302 0.7093 0.42498 0.0
C171 C 0.94601 0.70945 0.42783 0.0
C172 C 0.95834 0.71124 0.38626 0.0
C173 C 0.98249 0.70956 0.39596 0.0
C174 C 0.98261 0.70769 0.45051 0.0
C175 C 0.96123 0.70821 0.46897 0.0
C176 C 0.99347 0.73107 0.37851 0.0
C177 C 0.99121 0.68845 0.37124 0.0
C178 C 0.93201 0.7215 0.63701 0.0
C179 C 0.94218 0.72512 0.68166 0.0
C180 C 0.96492 0.72157 0.68591 0.0
C181 C 0.97748 0.71569 0.64545 0.0
C182 C 0.96719 0.7135 0.60034 0.0
C183 C 0.94473 0.71593 0.59702 0.0
C184 C 0.93647 0.7136 0.54635 0.0
C185 C 0.95776 0.70989 0.51937 0.0
C186 C 0.97572 0.70992 0.55104 0.0
C187 C 0.92532 0.73551 0.53215 0.0
C188 C 0.9212 0.6933 0.54387 0.0
H189 H 0.02951 0.70448 0.39561 0.0
H190 H 0.06589 0.70798 0.55534 0.0
H191 H 0.02412 0.67331 0.56945 0.0
H192 H 0.00742 0.6852 0.61428 0.0
H193 H 0.03656 0.69009 0.61508 0.0
H194 H 0.02875 0.74368 0.55849 0.0
H195 H 0.0364 0.72933 0.6123 0.0
H196 H 0.00854 0.73785 0.60148 0.0
H197 H 0.95855 0.71767 0.30982 0.0
H198 H 0.89522 0.71409 0.37892 0.0
H199 H 0.91258 0.7073 0.45574 0.0
H200 H 0.98325 0.74553 0.38827 0.0
H201 H 0.99553 0.73105 0.33875 0.0
H202 H 0.00957 0.73416 0.39522 0.0
H203 H 0.97801 0.67605 0.36635 0.0
H204 H 0.00376 0.67996 0.39315 0.0
H205 H 0.9981 0.69207 0.33507 0.0
H206 H 0.06894 0.70498 0.39996 0.0
C207 C 0.03673 0.7051 0.43075 0.0
C208 C 0.77316 0.44131 0.12252 0.0
C209 C 0.77039 0.41843 0.12018 0.0
C210 C 0.77274 0.40774 0.07542 0.0
C211 C 0.77816 0.44264 0.03583 0.0
C212 C 0.77704 0.45303 0.08001 0.0
C213 C 0.77933 0.47751 0.07558 0.0
H214 H 0.78668 0.56726 0.93342 0.0
C215 C 0.7803 0.45963 0.99831 0.0
C216 C 0.7812 0.48008 0.02132 0.0
H217 H 0.78588 0.56436 0.0889 0.0
H218 H 0.7842 0.52481 0.08587 0.0
H219 H 0.81947 0.52369 0.91476 0.0
H220 H 0.74974 0.53417 0.91875 0.0
H221 H 0.75415 0.51298 0.87714 0.0
H222 H 0.76547 0.53985 0.86564 0.0
H223 H 0.80474 0.54027 0.87223 0.0
H224 H 0.80729 0.51111 0.86404 0.0
C225 C 0.80065 0.48449 0.10178 0.0
C226 C 0.75817 0.48825 0.09562 0.0
C227 C 0.774 0.43775 0.82288 0.0
C228 C 0.77123 0.44991 0.78054 0.0
C229 C 0.77297 0.47289 0.78201 0.0
C230 C 0.77718 0.4837 0.82574 0.0
C231 C 0.77909 0.47135 0.86837 0.0
C232 C 0.77758 0.44874 0.86631 0.0
C233 C 0.77796 0.43833 0.9153 0.0
C234 C 0.77998 0.45839 0.94728 0.0
C235 C 0.78086 0.47765 0.91968 0.0
C236 C 0.79854 0.42353 0.91849 0.0
C237 C 0.75587 0.42613 0.92279 0.0
C238 C 0.78648 0.558 0.96671 0.0
C239 C 0.78655 0.56876 0.01147 0.0
C240 C 0.78578 0.5563 0.05409 0.0
C241 C 0.78485 0.53338 0.0522 0.0
C242 C 0.78438 0.52282 0.00719 0.0
C243 C 0.78526 0.53509 0.9654 0.0
C244 C 0.78362 0.52109 0.92088 0.0
C245 C 0.78235 0.49835 0.9429 0.0
C246 C 0.78266 0.49951 0.99342 0.0
C247 C 0.8048 0.52418 0.891 0.0
C248 C 0.76227 0.52732 0.89379 0.0
H249 H 0.77787 0.41063 0.00032 0.0
H250 H 0.77146 0.45001 0.15634 0.0
H251 H 0.74349 0.4784 0.08572 0.0
H252 H 0.75501 0.5047 0.08069 0.0
H253 H 0.75868 0.48941 0.13554 0.0
H254 H 0.81335 0.47144 0.09938 0.0
H255 H 0.79756 0.48772 0.14058 0.0
H256 H 0.80843 0.49906 0.08542 0.0
H257 H 0.77214 0.42007 0.82258 0.0
H258 H 0.77063 0.48244 0.74954 0.0
H259 H 0.77818 0.50126 0.82492 0.0
H260 H 0.81257 0.43098 0.89875 0.0
H261 H 0.79539 0.40714 0.90242 0.0
H262 H 0.80449 0.42143 0.95579 0.0
H263 H 0.74226 0.43466 0.90383 0.0
H264 H 0.75056 0.42563 0.96076 0.0
H265 H 0.75667 0.40912 0.90858 0.0
H266 H 0.77121 0.39008 0.07286 0.0
C267 C 0.77667 0.4197 0.03333 0.0
C268 C 0.04942 0.28741 0.34892 0.0
C269 C 0.07234 0.28647 0.34526 0.0
C270 C 0.08526 0.29039 0.38634 0.0
C271 C 0.05249 0.29311 0.43518 0.0
C272 C 0.03985 0.29109 0.39412 0.0
C273 C 0.01573 0.29257 0.40493 0.0
H274 H 0.9342 0.29039 0.56966 0.0
C275 C 0.03762 0.294 0.47706 0.0
C276 C 0.01604 0.29418 0.45957 0.0
H277 H 0.92863 0.29813 0.41542 0.0
H278 H 0.9681 0.2987 0.40804 0.0
H279 H 0.97097 0.25572 0.56815 0.0
H280 H 0.97437 0.3258 0.58303 0.0
H281 H 0.99233 0.31421 0.62559 0.0
H282 H 0.96348 0.30797 0.62858 0.0
H283 H 0.96581 0.26905 0.62463 0.0
H284 H 0.99307 0.26081 0.60683 0.0
C285 C 0.00464 0.27116 0.38739 0.0
C286 C 0.0066 0.31371 0.38121 0.0
C287 C 0.06848 0.28229 0.64483 0.0
C288 C 0.05844 0.27785 0.68919 0.0
C289 C 0.03553 0.27917 0.69344 0.0
C290 C 0.02263 0.28446 0.65337 0.0
C291 C 0.03278 0.28796 0.60849 0.0
C292 C 0.05536 0.28705 0.60487 0.0
C293 C 0.06321 0.28964 0.55382 0.0
C294 C 0.04159 0.29224 0.52733 0.0
C295 C 0.02388 0.29126 0.55958 0.0
C296 C 0.07534 0.26826 0.53949 0.0
C297 C 0.07744 0.31064 0.55073 0.0
C298 C 0.94153 0.29221 0.53433 0.0
C299 C 0.9284 0.2941 0.49304 0.0
C300 C 0.93848 0.29676 0.44773 0.0
C301 C 0.96136 0.29701 0.4435 0.0
C302 C 0.97428 0.2946 0.485 0.0
C303 C 0.96434 0.29267 0.52953 0.0
C304 C 0.98068 0.29073 0.56975 0.0
C305 C 0.00208 0.29214 0.54204 0.0
C306 C 0.99821 0.29399 0.49239 0.0
C307 C 0.97752 0.26803 0.59405 0.0
C308 C 0.9776 0.31058 0.60395 0.0
H309 H 0.08609 0.296 0.46165 0.0
H310 H 0.03923 0.28482 0.31749 0.0
H311 H 0.01975 0.32598 0.37449 0.0
H312 H 0.9947 0.32232 0.40472 0.0
H313 H 0.99872 0.31007 0.34604 0.0
H314 H 0.01428 0.25662 0.39901 0.0
H315 H 0.00352 0.2708 0.34747 0.0
H316 H 0.98803 0.26882 0.40217 0.0
H317 H 0.0861 0.28094 0.64084 0.0
H318 H 0.02764 0.27561 0.72751 0.0
H319 H 0.00522 0.28496 0.65859 0.0
H320 H 0.06619 0.25363 0.55252 0.0
H321 H 0.09199 0.26775 0.5556 0.0
H322 H 0.07693 0.26592 0.50035 0.0
H323 H 0.07216 0.32306 0.57775 0.0
H324 H 0.07585 0.31904 0.5156 0.0
H325 H 0.09499 0.30694 0.55754 0.0
H326 H 0.10298 0.28978 0.38398 0.0
C327 C 0.07544 0.29376 0.43133 0.0
C328 C 0.71985 0.94845 0.66391 0.0
C329 C 0.72264 0.92565 0.66648 0.0
C330 C 0.72047 0.91287 0.62455 0.0
C331 C 0.71595 0.94581 0.57715 0.0
C332 C 0.71617 0.95815 0.61892 0.0
C333 C 0.71296 0.98219 0.60911 0.0
H334 H 0.71394 0.06564 0.44994 0.0
C335 C 0.71471 0.96099 0.53596 0.0
C336 C 0.71243 0.98229 0.55434 0.0
H337 H 0.70122 0.06843 0.603 0.0
H338 H 0.70269 0.02891 0.60753 0.0
H339 H 0.75085 0.02767 0.4541 0.0
H340 H 0.68116 0.02493 0.42926 0.0
H341 H 0.69371 0.00628 0.38957 0.0
H342 H 0.6999 0.03515 0.38473 0.0
H343 H 0.73838 0.03801 0.40016 0.0
H344 H 0.74602 0.00961 0.4059 0.0
C345 C 0.73304 0.99476 0.62915 0.0
C346 C 0.69072 0.98936 0.63131 0.0
C347 C 0.73224 0.93236 0.36905 0.0
C348 C 0.73575 0.94259 0.32442 0.0
C349 C 0.73191 0.9653 0.32019 0.0
C350 C 0.72554 0.97773 0.36048 0.0
C351 C 0.72307 0.96734 0.40542 0.0
C352 C 0.72607 0.94495 0.40882 0.0
C353 C 0.72309 0.93655 0.45922 0.0
C354 C 0.71795 0.95766 0.48586 0.0
C355 C 0.7181 0.97567 0.45431 0.0
C356 C 0.74518 0.92637 0.47537 0.0
C357 C 0.70346 0.9204 0.45978 0.0
C358 C 0.71152 0.05765 0.48438 0.0
C359 C 0.70768 0.07003 0.52629 0.0
C360 C 0.70416 0.05916 0.57032 0.0
C361 C 0.7051 0.03626 0.57289 0.0
C362 C 0.7096 0.02412 0.53101 0.0
C363 C 0.71218 0.03476 0.48749 0.0
C364 C 0.71594 0.01903 0.44651 0.0
C365 C 0.71516 0.9972 0.47273 0.0
C366 C 0.71191 0.00039 0.52234 0.0
C367 C 0.73891 0.02377 0.42506 0.0
C368 C 0.69684 0.02145 0.41022 0.0
H369 H 0.71627 0.91235 0.54887 0.0
H370 H 0.72108 0.95849 0.69601 0.0
H371 H 0.67965 0.97514 0.63759 0.0
H372 H 0.68138 0.0003 0.60698 0.0
H373 H 0.69307 0.9977 0.66651 0.0
H374 H 0.74852 0.98649 0.61817 0.0
H375 H 0.73261 0.99535 0.66913 0.0
H376 H 0.73426 0.01171 0.61573 0.0
H377 H 0.73456 0.91484 0.37316 0.0
H378 H 0.73444 0.97352 0.28608 0.0
H379 H 0.72322 0.99501 0.35529 0.0
H380 H 0.75911 0.93713 0.46484 0.0
H381 H 0.74777 0.91011 0.45819 0.0
H382 H 0.74665 0.92434 0.5146 0.0
H383 H 0.69169 0.92396 0.43021 0.0
H384 H 0.69359 0.92175 0.49315 0.0
H385 H 0.70903 0.90317 0.45532 0.0
H386 H 0.72251 0.89523 0.6261 0.0
C387 C 0.71708 0.92284 0.57983 0.0
C388 C 0.55129 0.22569 0.13027 0.0
C389 C 0.57377 0.23087 0.13056 0.0
C390 C 0.58565 0.22992 0.08704 0.0
C391 C 0.55248 0.22145 0.04332 0.0
C392 C 0.541 0.22102 0.08624 0.0
C393 C 0.51704 0.21612 0.07859 0.0
H394 H 0.43185 0.20769 0.92384 0.0
C395 C 0.5368 0.21812 0.00364 0.0
C396 C 0.51601 0.21475 0.02391 0.0
H397 H 0.43072 0.2007 0.0787 0.0
H398 H 0.47021 0.20419 0.08132 0.0
H399 H 0.46519 0.24625 0.91982 0.0
H400 H 0.47525 0.17661 0.90718 0.0
H401 H 0.4914 0.18945 0.86294 0.0
H402 H 0.46201 0.19258 0.86138 0.0
H403 H 0.45824 0.23141 0.86613 0.0
H404 H 0.48535 0.24242 0.87556 0.0
C405 C 0.50357 0.23566 0.09846 0.0
C406 C 0.51172 0.19382 0.10267 0.0
C407 C 0.56228 0.23013 0.83197 0.0
C408 C 0.55108 0.23182 0.78815 0.0
C409 C 0.52847 0.22754 0.78633 0.0
C410 C 0.51699 0.22197 0.82842 0.0
C411 C 0.52829 0.22105 0.87262 0.0
C412 C 0.55061 0.22489 0.87366 0.0
C413 C 0.55977 0.22448 0.92382 0.0
C414 C 0.53928 0.21973 0.95294 0.0
C415 C 0.52094 0.21768 0.92283 0.0
C416 C 0.5694 0.24753 0.93484 0.0
C417 C 0.57652 0.20542 0.92699 0.0
C418 C 0.44016 0.20688 0.95827 0.0
C419 C 0.42827 0.20414 0.00115 0.0
C420 C 0.43962 0.20277 0.04522 0.0
C421 C 0.46249 0.20493 0.04668 0.0
C422 C 0.47408 0.20849 0.00362 0.0
C423 C 0.46295 0.20888 0.9603 0.0
C424 C 0.47795 0.21232 0.91806 0.0
C425 C 0.49993 0.214 0.94315 0.0
C426 C 0.49754 0.21211 0.99333 0.0
C427 C 0.47139 0.23411 0.89312 0.0
C428 C 0.47659 0.19181 0.88524 0.0
H429 H 0.58506 0.22519 0.01166 0.0
H430 H 0.54178 0.22608 0.16321 0.0
H431 H 0.5264 0.183 0.10386 0.0
H432 H 0.49938 0.18429 0.08231 0.0
H433 H 0.50594 0.1961 0.14029 0.0
H434 H 0.51098 0.25149 0.08696 0.0
H435 H 0.50318 0.23544 0.13846 0.0
H436 H 0.48656 0.236 0.08521 0.0
H437 H 0.57966 0.23371 0.83401 0.0
H438 H 0.51968 0.22895 0.75259 0.0
H439 H 0.4997 0.21916 0.82513 0.0
H440 H 0.55995 0.2606 0.91612 0.0
H441 H 0.5867 0.24877 0.92265 0.0
H442 H 0.56847 0.25206 0.97325 0.0
H443 H 0.57131 0.19132 0.90423 0.0
H444 H 0.57794 0.19858 0.96372 0.0
H445 H 0.59298 0.21067 0.91435 0.0
H446 H 0.6031 0.23318 0.08651 0.0
C447 C 0.57516 0.22519 0.04357 0.0
C448 C 0.26401 0.05215 0.36806 0.0
C449 C 0.25483 0.07335 0.36843 0.0
C450 C 0.2483 0.08255 0.41284 0.0
C451 C 0.25996 0.0499 0.45488 0.0
C452 C 0.26625 0.04072 0.41155 0.0
C453 C 0.27424 0.01751 0.41751 0.0
H454 H 0.28897 0.92961 0.56235 0.0
C455 C 0.26381 0.03365 0.49316 0.0
C456 C 0.27213 0.0146 0.47172 0.0
H457 H 0.29497 0.93322 0.40756 0.0
H458 H 0.2885 0.97228 0.41012 0.0
H459 H 0.31455 0.97725 0.58596 0.0
H460 H 0.2465 0.95922 0.56949 0.0
H461 H 0.24938 0.97584 0.62101 0.0
H462 H 0.26301 0.94974 0.61881 0.0
H463 H 0.30026 0.96156 0.63076 0.0
H464 H 0.29917 0.99115 0.63002 0.0
C465 C 0.29846 0.01654 0.40103 0.0
C466 C 0.25863 0.0021 0.3891 0.0
C467 C 0.2441 0.05339 0.66444 0.0
C468 C 0.24583 0.04246 0.70864 0.0
C469 C 0.25538 0.02142 0.70999 0.0
C470 C 0.26248 0.0112 0.66724 0.0
C471 C 0.26011 0.02225 0.62299 0.0
C472 C 0.25137 0.04315 0.62252 0.0
C473 C 0.25077 0.05302 0.57318 0.0
C474 C 0.26035 0.03453 0.54357 0.0
C475 C 0.2656 0.01642 0.57258 0.0
C476 C 0.26581 0.07355 0.57318 0.0
C477 C 0.22645 0.05759 0.56011 0.0
C478 C 0.28932 0.93901 0.52927 0.0
C479 C 0.29247 0.92856 0.4847 0.0
C480 C 0.29249 0.94107 0.44217 0.0
C481 C 0.28861 0.96367 0.44376 0.0
C482 C 0.28426 0.97376 0.48827 0.0
C483 C 0.285 0.96157 0.53021 0.0
C484 C 0.27892 0.97495 0.57386 0.0
C485 C 0.27376 0.99694 0.55092 0.0
C486 C 0.27705 0.99612 0.5008 0.0
C487 C 0.29914 0.97627 0.60732 0.0
C488 C 0.25846 0.96445 0.59748 0.0
H489 H 0.24557 0.07905 0.48818 0.0
H490 H 0.26922 0.04451 0.33475 0.0
H491 H 0.24213 0.00955 0.38425 0.0
H492 H 0.25536 0.98653 0.40823 0.0
H493 H 0.26519 0.99838 0.35267 0.0
H494 H 0.30766 0.03105 0.41459 0.0
H495 H 0.29967 0.01652 0.3611 0.0
H496 H 0.30727 0.00211 0.41518 0.0
H497 H 0.23741 0.06983 0.66252 0.0
H498 H 0.2571 0.01286 0.74394 0.0
H499 H 0.26941 0.99508 0.67017 0.0
H500 H 0.28018 0.07113 0.59727 0.0
H501 H 0.25685 0.08828 0.5861 0.0
H502 H 0.27302 0.07707 0.5375 0.0
H503 H 0.21531 0.04553 0.57759 0.0
H504 H 0.22306 0.05584 0.5212 0.0
H505 H 0.22134 0.0742 0.5721 0.0
H506 H 0.24059 0.09853 0.41443 0.0
C507 C 0.25098 0.07107 0.45588 0.0
C508 C 0.55892 0.79062 0.02199 0.0
C509 C 0.57114 0.79241 0.97928 0.0
C510 C 0.5602 0.79338 0.93475 0.0
C511 C 0.52531 0.78972 0.97542 0.0
C512 C 0.53606 0.78914 0.0192 0.0
C513 C 0.52058 0.78543 0.06064 0.0
H514 H 0.41785 0.76139 0.13554 0.0
C515 C 0.50171 0.78685 0.98465 0.0
C516 C 0.49874 0.78449 0.03454 0.0
H517 H 0.47664 0.76492 0.22175 0.0
H518 H 0.49722 0.77749 0.15226 0.0
H519 H 0.42463 0.80509 0.0795 0.0
H520 H 0.44042 0.73846 0.04242 0.0
H521 H 0.42637 0.75073 0.99397 0.0
H522 H 0.41309 0.74869 0.05128 0.0
H523 H 0.40467 0.78731 0.05267 0.0
H524 H 0.423 0.80374 0.01638 0.0
C525 C 0.52196 0.80543 0.09485 0.0
C526 C 0.52657 0.76324 0.08446 0.0
C527 C 0.44916 0.77873 0.84413 0.0
C528 C 0.42636 0.7761 0.84198 0.0
C529 C 0.4138 0.77768 0.88433 0.0
C530 C 0.424 0.78057 0.92899 0.0
C531 C 0.44696 0.78179 0.93113 0.0
C532 C 0.45907 0.78193 0.88904 0.0
C533 C 0.48314 0.78497 0.89835 0.0
C534 C 0.48351 0.78559 0.95305 0.0
C535 C 0.46235 0.78312 0.97194 0.0
C536 C 0.4903 0.80715 0.87594 0.0
C537 C 0.49539 0.76468 0.87813 0.0
C538 C 0.43521 0.76474 0.13934 0.0
C539 C 0.4458 0.76172 0.1837 0.0
C540 C 0.46821 0.76697 0.18774 0.0
C541 C 0.4801 0.77411 0.14733 0.0
C542 C 0.46945 0.77593 0.10254 0.0
C543 C 0.44726 0.77172 0.09945 0.0
C544 C 0.43851 0.77439 0.04927 0.0
C545 C 0.4593 0.78023 0.02218 0.0
C546 C 0.47739 0.78101 0.05343 0.0
C547 C 0.42172 0.7935 0.04919 0.0
C548 C 0.42897 0.752 0.03309 0.0
H549 H 0.52997 0.79283 0.8976 0.0
H550 H 0.56703 0.78951 0.0566 0.0
H551 H 0.5327 0.75131 0.05723 0.0
H552 H 0.51239 0.75498 0.10117 0.0
H553 H 0.53962 0.76537 0.11195 0.0
H554 H 0.52317 0.82094 0.07393 0.0
H555 H 0.53663 0.80436 0.1184 0.0
H556 H 0.50723 0.80733 0.1176 0.0
H557 H 0.45903 0.77781 0.81173 0.0
H558 H 0.39616 0.7757 0.88301 0.0
H559 H 0.41369 0.78101 0.96026 0.0
H560 H 0.47638 0.81891 0.87401 0.0
H561 H 0.49665 0.80489 0.83876 0.0
H562 H 0.50281 0.8157 0.89787 0.0
H563 H 0.48615 0.74938 0.88621 0.0
H564 H 0.51171 0.76223 0.89429 0.0
H565 H 0.49727 0.7658 0.83841 0.0
H566 H 0.56942 0.79484 0.90153 0.0
C567 C 0.53734 0.79222 0.93261 0.0
C568 C 0.13426 0.23985 0.10956 0.0
C569 C 0.15406 0.23152 0.12735 0.0
C570 C 0.11915 0.25007 0.14052 0.0
C571 C 0.12375 0.25128 0.19045 0.0
C572 C 0.14355 0.24243 0.20856 0.0
C573 C 0.15862 0.23298 0.17665 0.0
C574 C 0.09851 0.25989 0.11981 0.0
C575 C 0.1488 0.24283 0.26174 0.0
C576 C 0.09859 0.29204 0.2774 0.0
C577 C 0.0829 0.27899 0.3004 0.0
C578 C 0.11094 0.28371 0.23884 0.0
C579 C 0.10797 0.26162 0.22433 0.0
C580 C 0.0915 0.24869 0.24637 0.0
C581 C 0.07895 0.25767 0.28385 0.0
C582 C 0.12791 0.29818 0.2153 0.0
C583 C 0.08819 0.22493 0.23285 0.0
H584 H 0.13087 0.23888 0.07128 0.0
H585 H 0.17388 0.22637 0.19039 0.0
H586 H 0.08389 0.2522 0.13647 0.0
H587 H 0.09783 0.27767 0.12832 0.0
H588 H 0.0975 0.25778 0.08012 0.0
H589 H 0.16446 0.23436 0.27011 0.0
H590 H 0.14997 0.26002 0.27455 0.0
H591 H 0.13544 0.23482 0.28239 0.0
H592 H 0.10154 0.30855 0.2904 0.0
H593 H 0.06693 0.24757 0.3022 0.0
H594 H 0.12689 0.29684 0.1755 0.0
H595 H 0.14454 0.29274 0.2261 0.0
H596 H 0.12595 0.31567 0.22572 0.0
H597 H 0.08658 0.22312 0.19327 0.0
H598 H 0.07343 0.21777 0.25026 0.0
H599 H 0.10273 0.21528 0.24408 0.0
C600 C 0.28006 0.63508 0.62615 0.0
C601 C 0.2695 0.65543 0.62159 0.0
C602 C 0.27291 0.6196 0.66016 0.0
C603 C 0.25487 0.62466 0.69028 0.0
C604 C 0.2435 0.64467 0.68419 0.0
C605 C 0.25092 0.65976 0.64992 0.0
C606 C 0.28529 0.5983 0.66538 0.0
C607 C 0.22417 0.65067 0.71561 0.0
C608 C 0.22643 0.58213 0.76834 0.0
C609 C 0.23587 0.58644 0.8134 0.0
C610 C 0.23297 0.5939 0.72728 0.0
C611 C 0.24927 0.61032 0.73165 0.0
C612 C 0.25929 0.61423 0.77678 0.0
C613 C 0.25252 0.6022 0.817 0.0
C614 C 0.22202 0.58925 0.67963 0.0
C615 C 0.27676 0.63158 0.78294 0.0
H616 H 0.29429 0.63146 0.60417 0.0
H617 H 0.24242 0.67529 0.64637 0.0
H618 H 0.2945 0.59839 0.69982 0.0
H619 H 0.27375 0.58425 0.66661 0.0
H620 H 0.29709 0.59566 0.63545 0.0
H621 H 0.21597 0.66597 0.7035 0.0
H622 H 0.21194 0.63722 0.71581 0.0
H623 H 0.22978 0.65304 0.75328 0.0
H624 H 0.21355 0.56995 0.76541 0.0
H625 H 0.26028 0.6052 0.8515 0.0
H626 H 0.23451 0.58661 0.65115 0.0
H627 H 0.21203 0.6036 0.66872 0.0
H628 H 0.21119 0.57462 0.6813 0.0
H629 H 0.29037 0.62872 0.75719 0.0
H630 H 0.28358 0.63188 0.82002 0.0
H631 H 0.26979 0.64798 0.77489 0.0
C632 C 0.84114 0.77457 0.1738 0.0
C633 C 0.84478 0.77439 0.12405 0.0
C634 C 0.85634 0.76522 0.20541 0.0
C635 C 0.87525 0.75485 0.18654 0.0
C636 C 0.87914 0.75483 0.13626 0.0
C637 C 0.86394 0.76493 0.10552 0.0
C638 C 0.85194 0.76613 0.25894 0.0
C639 C 0.89885 0.74344 0.11489 0.0
C640 C 0.92047 0.74562 0.2773 0.0
C641 C 0.91502 0.72479 0.29477 0.0
C642 C 0.90825 0.75531 0.24032 0.0
C643 C 0.89052 0.7436 0.21985 0.0
C644 C 0.88593 0.72194 0.23528 0.0
C645 C 0.89806 0.71289 0.27324 0.0
C646 C 0.91332 0.7786 0.22565 0.0
C647 C 0.8675 0.70875 0.21339 0.0
H648 H 0.82633 0.78201 0.18797 0.0
H649 H 0.86654 0.7646 0.06688 0.0
H650 H 0.84934 0.74931 0.27301 0.0
H651 H 0.8663 0.77312 0.27806 0.0
H652 H 0.83727 0.77616 0.26779 0.0
H653 H 0.89997 0.74575 0.07528 0.0
H654 H 0.91413 0.74965 0.13167 0.0
H655 H 0.89792 0.72561 0.12262 0.0
H656 H 0.93349 0.75485 0.29453 0.0
H657 H 0.89398 0.69674 0.2869 0.0
H658 H 0.89986 0.78954 0.23779 0.0
H659 H 0.91436 0.77999 0.1859 0.0
H660 H 0.92893 0.78459 0.24152 0.0
H661 H 0.85153 0.71578 0.22468 0.0
H662 H 0.86802 0.69128 0.22467 0.0
H663 H 0.86823 0.70952 0.17349 0.0
C664 C 0.72622 0.37276 0.56643 0.0
C665 C 0.72185 0.35312 0.59084 0.0
C666 C 0.73461 0.39106 0.59112 0.0
C667 C 0.73812 0.38976 0.64144 0.0
C668 C 0.73306 0.37014 0.66636 0.0
C669 C 0.72527 0.35198 0.64064 0.0
C670 C 0.74029 0.41153 0.56327 0.0
C671 C 0.73607 0.36822 0.72023 0.0
C672 C 0.77818 0.42386 0.71336 0.0
C673 C 0.76399 0.43838 0.73679 0.0
C674 C 0.77022 0.40914 0.67868 0.0
C675 C 0.74746 0.40857 0.6686 0.0
C676 C 0.73332 0.42416 0.69025 0.0
C677 C 0.74184 0.43904 0.72394 0.0
C678 C 0.7859 0.39312 0.65557 0.0
C679 C 0.70893 0.42386 0.68121 0.0
H680 H 0.72377 0.37357 0.5278 0.0
H681 H 0.72173 0.33685 0.65961 0.0
H682 H 0.7317 0.42592 0.57883 0.0
H683 H 0.75814 0.41477 0.56615 0.0
H684 H 0.73591 0.41016 0.52456 0.0
H685 H 0.73019 0.35224 0.73442 0.0
H686 H 0.75366 0.37001 0.72947 0.0
H687 H 0.72707 0.38158 0.73888 0.0
H688 H 0.79529 0.42335 0.72382 0.0
H689 H 0.7309 0.45013 0.74284 0.0
H690 H 0.78269 0.39178 0.61635 0.0
H691 H 0.78347 0.37661 0.67148 0.0
H692 H 0.80327 0.39799 0.66106 0.0
H693 H 0.70541 0.42251 0.64215 0.0
H694 H 0.70072 0.43877 0.69552 0.0
H695 H 0.70165 0.40929 0.69901 0.0
C696 C 0.65973 0.25247 0.33495 0.0
C697 C 0.65501 0.2698 0.36662 0.0
C698 C 0.64436 0.24537 0.30091 0.0
C699 C 0.62368 0.25578 0.29849 0.0
C700 C 0.61831 0.27249 0.33192 0.0
C701 C 0.63408 0.27935 0.36558 0.0
C702 C 0.65072 0.22748 0.26589 0.0
C703 C 0.59632 0.28379 0.33071 0.0
C704 C 0.59933 0.25609 0.1734 0.0
C705 C 0.5849 0.23821 0.17523 0.0
C706 C 0.61139 0.26246 0.21388 0.0
C707 C 0.60885 0.25078 0.25753 0.0
C708 C 0.59353 0.23337 0.26039 0.0
C709 C 0.58172 0.22725 0.21906 0.0
C710 C 0.62751 0.28117 0.20933 0.0
C711 C 0.59027 0.22069 0.30649 0.0
H712 H 0.67573 0.24475 0.33572 0.0
H713 H 0.63015 0.2926 0.39018 0.0
H714 H 0.63798 0.21451 0.26501 0.0
H715 H 0.65195 0.23442 0.22905 0.0
H716 H 0.66668 0.21981 0.27516 0.0
H717 H 0.59363 0.29432 0.36287 0.0
H718 H 0.59524 0.29422 0.29808 0.0
H719 H 0.58289 0.27155 0.32857 0.0
H720 H 0.60142 0.26497 0.1399 0.0
H721 H 0.57055 0.21344 0.22063 0.0
H722 H 0.64443 0.27495 0.21456 0.0
H723 H 0.62441 0.29362 0.23769 0.0
H724 H 0.62661 0.28932 0.17361 0.0
H725 H 0.60517 0.21088 0.31426 0.0
H726 H 0.57602 0.2094 0.3044 0.0
H727 H 0.58783 0.23208 0.33723 0.0
C728 C 0.2073 0.12328 0.92239 0.0
C729 C 0.21437 0.14366 0.90464 0.0
C730 C 0.21206 0.10373 0.89763 0.0
C731 C 0.22397 0.10465 0.85393 0.0
C732 C 0.23149 0.1251 0.83635 0.0
C733 C 0.22668 0.1443 0.86197 0.0
C734 C 0.20401 0.08219 0.91767 0.0
C735 C 0.24413 0.12681 0.78966 0.0
C736 C 0.2525 0.05744 0.79121 0.0
C737 C 0.23819 0.05385 0.75258 0.0
C738 C 0.24727 0.07275 0.82731 0.0
C739 C 0.22736 0.08465 0.82425 0.0
C740 C 0.21205 0.07952 0.78768 0.0
C741 C 0.21766 0.06413 0.75235 0.0
C742 C 0.26385 0.07752 0.86622 0.0
C743 C 0.19062 0.09174 0.78312 0.0
H744 H 0.19797 0.12257 0.95559 0.0
H745 H 0.23228 0.15991 0.84793 0.0
H746 H 0.19143 0.07515 0.89333 0.0
H747 H 0.21768 0.07022 0.91961 0.0
H748 H 0.19673 0.08404 0.95414 0.0
H749 H 0.24944 0.14387 0.78185 0.0
H750 H 0.25887 0.11617 0.79095 0.0
H751 H 0.2338 0.12099 0.75935 0.0
H752 H 0.2684 0.0495 0.79135 0.0
H753 H 0.20649 0.06111 0.72269 0.0
H754 H 0.25569 0.0795 0.90168 0.0
H755 H 0.27237 0.09315 0.85794 0.0
H756 H 0.27635 0.06434 0.86898 0.0
H757 H 0.18219 0.09275 0.81845 0.0
H758 H 0.17941 0.08385 0.75677 0.0
H759 H 0.1939 0.10876 0.77098 0.0
C760 C 0.349 0.73768 0.35671 0.0
C761 C 0.35095 0.72059 0.39028 0.0
C762 C 0.36673 0.744 0.32791 0.0
C763 C 0.38703 0.733 0.33267 0.0
C764 C 0.38943 0.71625 0.36753 0.0
C765 C 0.37133 0.71021 0.39596 0.0
C766 C 0.36349 0.76198 0.29116 0.0
C767 C 0.41088 0.70428 0.37374 0.0
C768 C 0.4196 0.73437 0.21711 0.0
C769 C 0.43331 0.7525 0.22471 0.0
C770 C 0.4054 0.72699 0.2532 0.0
C771 C 0.40493 0.73798 0.29809 0.0
C772 C 0.41976 0.75538 0.30713 0.0
C773 C 0.43385 0.76246 0.27019 0.0
C774 C 0.38994 0.7083 0.24213 0.0
C775 C 0.41982 0.76738 0.35469 0.0
H776 H 0.33345 0.74603 0.3523 0.0
H777 H 0.37307 0.6971 0.422 0.0
H778 H 0.37615 0.77486 0.29567 0.0
H779 H 0.36535 0.75514 0.25432 0.0
H780 H 0.34707 0.76975 0.29398 0.0
H781 H 0.41074 0.69328 0.40562 0.0
H782 H 0.41429 0.69426 0.34121 0.0
H783 H 0.42456 0.71614 0.3776 0.0
H784 H 0.41953 0.72635 0.18223 0.0
H785 H 0.44447 0.77645 0.27613 0.0
H786 H 0.3729 0.71462 0.24014 0.0
H787 H 0.39043 0.69588 0.27125 0.0
H788 H 0.39391 0.70012 0.20742 0.0
H789 H 0.40486 0.77764 0.35753 0.0
H790 H 0.43437 0.7782 0.35857 0.0
H791 H 0.41954 0.7556 0.3851 0.0
C792 C 0.77918 0.84024 0.83044 0.0
C793 C 0.77899 0.84354 0.8803 0.0
C794 C 0.77018 0.85584 0.79926 0.0
C795 C 0.76011 0.87483 0.81866 0.0
C796 C 0.76013 0.87839 0.86906 0.0
C797 C 0.7699 0.86278 0.89936 0.0
C798 C 0.77105 0.85176 0.7456 0.0
C799 C 0.74903 0.89814 0.89102 0.0
C800 C 0.75119 0.92056 0.72881 0.0
C801 C 0.73037 0.91527 0.71116 0.0
C802 C 0.76077 0.90815 0.76566 0.0
C803 C 0.74895 0.89041 0.7858 0.0
C804 C 0.72726 0.88605 0.77033 0.0
C805 C 0.71834 0.89835 0.73247 0.0
C806 C 0.7841 0.91299 0.78038 0.0
C807 C 0.71394 0.86764 0.79188 0.0
H808 H 0.78631 0.82535 0.81586 0.0
H809 H 0.76953 0.86512 0.93808 0.0
H810 H 0.75423 0.84934 0.73148 0.0
H811 H 0.77812 0.86621 0.72689 0.0
H812 H 0.78099 0.83708 0.73632 0.0
H813 H 0.75157 0.89911 0.93059 0.0
H814 H 0.75525 0.91344 0.87433 0.0
H815 H 0.73117 0.89736 0.88377 0.0
H816 H 0.76051 0.93354 0.71169 0.0
H817 H 0.70222 0.89436 0.71855 0.0
H818 H 0.79493 0.89956 0.76758 0.0
H819 H 0.78556 0.91369 0.82015 0.0
H820 H 0.79013 0.9287 0.76509 0.0
H821 H 0.72075 0.85165 0.78005 0.0
H822 H 0.69646 0.86841 0.78082 0.0
H823 H 0.71482 0.86813 0.83179 0.0
C824 C 0.86996 0.77946 0.89351 0.0
C825 C 0.84952 0.76886 0.89246 0.0
C826 C 0.88734 0.77226 0.86427 0.0
C827 C 0.88417 0.75413 0.83317 0.0
C828 C 0.86392 0.74282 0.83345 0.0
C829 C 0.84689 0.75029 0.86308 0.0
C830 C 0.90878 0.78461 0.86519 0.0
C831 C 0.85987 0.72341 0.80075 0.0
C832 C 0.91401 0.75076 0.71406 0.0
C833 C 0.92902 0.73377 0.72238 0.0
C834 C 0.89994 0.75809 0.75046 0.0
C835 C 0.90098 0.74831 0.79658 0.0
C836 C 0.91682 0.73188 0.80601 0.0
C837 C 0.93072 0.72478 0.76867 0.0
C838 C 0.88334 0.77571 0.73891 0.0
C839 C 0.91849 0.72121 0.85488 0.0
H840 H 0.87226 0.79369 0.91637 0.0
H841 H 0.83129 0.7418 0.86224 0.0
H842 H 0.92273 0.77305 0.86857 0.0
H843 H 0.91093 0.79361 0.8308 0.0
H844 H 0.90953 0.7966 0.89529 0.0
H845 H 0.84387 0.71538 0.80806 0.0
H846 H 0.86007 0.72889 0.76265 0.0
H847 H 0.87307 0.71107 0.80501 0.0
H848 H 0.91302 0.75812 0.67859 0.0
H849 H 0.94233 0.71167 0.77523 0.0
H850 H 0.88454 0.78932 0.7653 0.0
H851 H 0.86654 0.76883 0.74164 0.0
H852 H 0.88556 0.78252 0.70213 0.0
H853 H 0.91908 0.73385 0.88363 0.0
H854 H 0.93321 0.71058 0.85796 0.0
H855 H 0.90372 0.71103 0.86144 0.0
C856 C 0.71971 0.35952 0.35277 0.0
C857 C 0.72972 0.33901 0.35923 0.0
C858 C 0.72709 0.37403 0.31704 0.0
C859 C 0.74488 0.36787 0.28719 0.0
C860 C 0.75564 0.34765 0.2949 0.0
C861 C 0.74795 0.33347 0.33078 0.0
C862 C 0.71528 0.39554 0.30994 0.0
C863 C 0.77473 0.34054 0.26389 0.0
C864 C 0.74738 0.38989 0.15994 0.0
C865 C 0.76386 0.40583 0.1635 0.0
C866 C 0.74086 0.37769 0.20014 0.0
C867 C 0.75102 0.38157 0.24515 0.0
C868 C 0.76744 0.39786 0.24928 0.0
C869 C 0.77368 0.40984 0.20831 0.0
C870 C 0.72324 0.36048 0.19432 0.0
C871 C 0.77861 0.4024 0.29675 0.0
H872 H 0.70572 0.36403 0.37472 0.0
H873 H 0.75599 0.31779 0.33577 0.0
H874 H 0.72717 0.40929 0.30872 0.0
H875 H 0.70653 0.39532 0.27492 0.0
H876 H 0.70317 0.39882 0.33896 0.0
H877 H 0.78243 0.32517 0.27709 0.0
H878 H 0.76903 0.33781 0.22641 0.0
H879 H 0.78739 0.35358 0.26272 0.0
H880 H 0.7394 0.38706 0.12562 0.0
H881 H 0.78649 0.42209 0.21117 0.0
H882 H 0.70949 0.36383 0.21946 0.0
H883 H 0.72991 0.34409 0.20353 0.0
H884 H 0.71666 0.35985 0.15705 0.0
H885 H 0.76623 0.40622 0.32483 0.0
H886 H 0.79036 0.41628 0.29439 0.0
H887 H 0.78761 0.38758 0.30878 0.0
C888 C 0.15522 0.22902 0.83978 0.0
C889 C 0.15098 0.22483 0.88849 0.0
C890 C 0.13894 0.23765 0.80974 0.0
C891 C 0.11811 0.24276 0.82926 0.0
C892 C 0.11377 0.23872 0.87856 0.0
C893 C 0.13021 0.22949 0.90752 0.0
C894 C 0.14402 0.24122 0.75706 0.0
C895 C 0.09192 0.24446 0.90081 0.0
C896 C 0.08586 0.28348 0.75437 0.0
C897 C 0.07177 0.26949 0.7292 0.0
C898 C 0.10028 0.27511 0.78915 0.0
C899 C 0.10093 0.2522 0.79762 0.0
C900 C 0.0863 0.23813 0.77288 0.0
C901 C 0.07171 0.24702 0.73917 0.0
C902 C 0.11532 0.29066 0.81556 0.0
C903 C 0.08682 0.21359 0.78012 0.0
H904 H 0.17125 0.22529 0.82499 0.0
H905 H 0.12701 0.22647 0.94536 0.0
H906 H 0.13202 0.23223 0.73443 0.0
H907 H 0.14252 0.25888 0.7481 0.0
H908 H 0.16078 0.23566 0.74728 0.0
H909 H 0.09131 0.24063 0.9399 0.0
H910 H 0.08856 0.2622 0.89587 0.0
H911 H 0.0786 0.23534 0.88242 0.0
H912 H 0.08581 0.30087 0.74621 0.0
H913 H 0.06088 0.23631 0.71903 0.0
H914 H 0.13249 0.28785 0.80395 0.0
H915 H 0.11457 0.28759 0.85492 0.0
H916 H 0.11111 0.30811 0.8087 0.0
H917 H 0.10279 0.20702 0.76755 0.0
H918 H 0.0735 0.20511 0.76017 0.0
H919 H 0.08531 0.20956 0.81891 0.0
C920 C 0.27317 0.62794 0.41324 0.0
C921 C 0.27694 0.64816 0.39068 0.0
C922 C 0.26511 0.60995 0.38704 0.0
C923 C 0.26132 0.61216 0.33699 0.0
C924 C 0.26554 0.63243 0.31394 0.0
C925 C 0.27303 0.65027 0.3412 0.0
C926 C 0.26028 0.58874 0.41297 0.0
C927 C 0.26217 0.63531 0.2604 0.0
C928 C 0.25983 0.56339 0.25251 0.0
C929 C 0.23756 0.56266 0.24072 0.0
C930 C 0.26773 0.57876 0.28584 0.0
C931 C 0.25287 0.59342 0.30823 0.0
C932 C 0.23012 0.59166 0.29874 0.0
C933 C 0.22276 0.57647 0.2644 0.0
C934 C 0.29212 0.58039 0.29424 0.0
C935 C 0.21372 0.60668 0.32269 0.0
H936 H 0.27597 0.62635 0.45164 0.0
H937 H 0.27607 0.66585 0.32364 0.0
H938 H 0.2427 0.5845 0.40874 0.0
H939 H 0.26991 0.57516 0.39685 0.0
H940 H 0.26413 0.58971 0.45202 0.0
H941 H 0.2671 0.65188 0.24776 0.0
H942 H 0.2718 0.62287 0.24029 0.0
H943 H 0.24466 0.63273 0.25127 0.0
H944 H 0.27121 0.55284 0.23339 0.0
H945 H 0.20555 0.5759 0.25471 0.0
H946 H 0.29578 0.58093 0.33333 0.0
H947 H 0.29836 0.59585 0.27824 0.0
H948 H 0.30118 0.56643 0.2779 0.0
H949 H 0.21682 0.6076 0.36202 0.0
H950 H 0.19658 0.60116 0.31674 0.0
H951 H 0.21548 0.62349 0.30797 0.0
C952 C 0.33849 0.72696 0.67266 0.0
C953 C 0.34288 0.72588 0.62328 0.0
C954 C 0.35407 0.73532 0.70475 0.0
C955 C 0.37417 0.74351 0.68664 0.0
C956 C 0.37864 0.74255 0.63662 0.0
C957 C 0.36301 0.73335 0.60548 0.0
C958 C 0.34897 0.73543 0.75802 0.0
C959 C 0.3996 0.75175 0.61599 0.0
C960 C 0.40049 0.78295 0.77443 0.0
C961 C 0.41572 0.76928 0.79696 0.0
C962 C 0.38794 0.77524 0.73566 0.0
C963 C 0.39028 0.75316 0.72055 0.0
C964 C 0.40634 0.7396 0.74211 0.0
C965 C 0.41908 0.74796 0.77986 0.0
C966 C 0.37139 0.79034 0.71264 0.0
C967 C 0.40895 0.71584 0.72787 0.0
H968 H 0.32291 0.72103 0.68622 0.0
H969 H 0.36619 0.73268 0.56707 0.0
H970 H 0.36219 0.72697 0.77819 0.0
H971 H 0.34821 0.75256 0.77143 0.0
H972 H 0.33313 0.72727 0.76633 0.0
H973 H 0.40065 0.74951 0.57633 0.0
H974 H 0.4007 0.76952 0.62425 0.0
H975 H 0.41398 0.74374 0.63289 0.0
H976 H 0.39801 0.79945 0.78803 0.0
H977 H 0.43079 0.73742 0.79795 0.0
H978 H 0.35461 0.78533 0.72343 0.0
H979 H 0.37235 0.7892 0.6728 0.0
H980 H 0.37388 0.8077 0.72353 0.0
H981 H 0.39419 0.70653 0.73918 0.0
H982 H 0.42357 0.70819 0.74476 0.0
H983 H 0.41036 0.71421 0.68821 0.0
C984 C 0.75624 0.84648 0.14321 0.0
C985 C 0.77434 0.84839 0.11222 0.0
C986 C 0.74992 0.86383 0.17323 0.0
C987 C 0.7619 0.8837 0.17222 0.0
C988 C 0.77957 0.88615 0.13961 0.0
C989 C 0.78563 0.86844 0.11005 0.0
C990 C 0.73098 0.86054 0.20758 0.0
C991 C 0.79258 0.90719 0.13725 0.0
C992 C 0.73455 0.9312 0.23746 0.0
C993 C 0.74401 0.92943 0.28329 0.0
C994 C 0.74095 0.91709 0.19992 0.0
C995 C 0.75712 0.90091 0.20867 0.0
C996 C 0.76747 0.89984 0.25419 0.0
C997 C 0.76084 0.91415 0.29083 0.0
C998 C 0.72971 0.91881 0.15168 0.0
C999 C 0.78484 0.88289 0.26499 0.0
H1000 H 0.74725 0.83117 0.145 0.0
H1001 H 0.79951 0.8702 0.08595 0.0
H1002 H 0.73707 0.86092 0.24523 0.0
H1003 H 0.71893 0.87404 0.20374 0.0
H1004 H 0.72243 0.84469 0.20155 0.0
H1005 H 0.80415 0.90738 0.10633 0.0
H1006 H 0.78143 0.92149 0.13425 0.0
H1007 H 0.80211 0.90924 0.17095 0.0
H1008 H 0.72154 0.94299 0.23151 0.0
H1009 H 0.76854 0.91309 0.32593 0.0
H1010 H 0.71891 0.90437 0.1463 0.0
H1011 H 0.74195 0.91875 0.12211 0.0
H1012 H 0.71958 0.93389 0.14879 0.0
H1013 H 0.7775 0.86624 0.26348 0.0
H1014 H 0.7923 0.88523 0.30111 0.0
H1015 H 0.79802 0.88352 0.23749 0.0
C1016 C 0.65007 0.27607 0.64671 0.0
C1017 C 0.64796 0.28102 0.5977 0.0
C1018 C 0.63209 0.26869 0.67353 0.0
C1019 C 0.61162 0.2657 0.65046 0.0
C1020 C 0.6093 0.27086 0.60103 0.0
C1021 C 0.6275 0.27873 0.57527 0.0
C1022 C 0.63511 0.26381 0.72647 0.0
C1023 C 0.58782 0.26749 0.57515 0.0
C1024 C 0.5759 0.22562 0.7186 0.0
C1025 C 0.56299 0.23994 0.74584 0.0
C1026 C 0.59075 0.23377 0.68445 0.0
C1027 C 0.59291 0.25676 0.67845 0.0
C1028 C 0.57896 0.27117 0.70418 0.0
C1029 C 0.56409 0.26253 0.73765 0.0
C1030 C 0.60516 0.21788 0.65726 0.0
C1031 C 0.58091 0.29575 0.69922 0.0
H1032 H 0.66584 0.27799 0.66416 0.0
H1033 H 0.62592 0.28235 0.53721 0.0
H1034 H 0.62298 0.27315 0.74812 0.0
H1035 H 0.6322 0.24613 0.73333 0.0
H1036 H 0.65182 0.26805 0.73937 0.0
H1037 H 0.58852 0.27303 0.53707 0.0
H1038 H 0.5834 0.24984 0.57575 0.0
H1039 H 0.57451 0.27651 0.59384 0.0
H1040 H 0.57507 0.20814 0.72563 0.0
H1041 H 0.55419 0.27349 0.75947 0.0
H1042 H 0.62215 0.21886 0.67131 0.0
H1043 H 0.60573 0.22219 0.61846 0.0
H1044 H 0.59937 0.20069 0.6609 0.0
H1045 H 0.59647 0.30129 0.71594 0.0
H1046 H 0.56712 0.30449 0.71699 0.0
H1047 H 0.58143 0.30055 0.66072 0.0
C1048 C 0.24094 0.14689 0.131 0.0
C1049 C 0.21904 0.15369 0.12887 0.0
C1050 C 0.2477 0.13131 0.1649 0.0
C1051 C 0.23232 0.12309 0.19851 0.0
C1052 C 0.21001 0.12937 0.19532 0.0
C1053 C 0.20355 0.14438 0.15984 0.0
C1054 C 0.27145 0.12438 0.16605 0.0
C1055 C 0.19324 0.12138 0.2313 0.0
C1056 C 0.24441 0.07494 0.28082 0.0
C1057 C 0.25116 0.08572 0.32301 0.0
C1058 C 0.2391 0.08681 0.23914 0.0
C1059 C 0.23994 0.10999 0.24023 0.0
C1060 C 0.24729 0.12093 0.28216 0.0
C1061 C 0.25321 0.10865 0.32263 0.0
C1062 C 0.23204 0.0746 0.19443 0.0
C1063 C 0.2482 0.14567 0.28493 0.0
H1064 H 0.25282 0.15401 0.10649 0.0
H1065 H 0.18665 0.14981 0.15814 0.0
H1066 H 0.27963 0.13177 0.19781 0.0
H1067 H 0.27278 0.1063 0.16957 0.0
H1068 H 0.28043 0.12961 0.13317 0.0
H1069 H 0.17636 0.12672 0.22198 0.0
H1070 H 0.19352 0.10323 0.23356 0.0
H1071 H 0.19735 0.12783 0.26759 0.0
H1072 H 0.24261 0.05726 0.28067 0.0
H1073 H 0.25906 0.11712 0.35445 0.0
H1074 H 0.24106 0.08079 0.16249 0.0
H1075 H 0.21434 0.07743 0.18787 0.0
H1076 H 0.23484 0.05666 0.19757 0.0
H1077 H 0.25928 0.15218 0.2567 0.0
H1078 H 0.25403 0.15161 0.32053 0.0
H1079 H 0.23167 0.15261 0.27821 0.0
C1080 C 0.22809 0.29623 0.9519 0.0
C1081 C 0.21895 0.28567 0.99202 0.0
C1082 C 0.22751 0.31916 0.9478 0.0
C1083 C 0.2172 0.33172 0.98425 0.0
C1084 C 0.20755 0.32112 0.02431 0.0
C1085 C 0.20871 0.29823 0.02792 0.0
C1086 C 0.23824 0.32996 0.90492 0.0
C1087 C 0.19609 0.33395 0.06351 0.0
C1088 C 0.233 0.3912 0.00301 0.0
C1089 C 0.21586 0.40215 0.9797 0.0
C1090 C 0.23388 0.36825 0.00381 0.0
C1091 C 0.21701 0.35602 0.98138 0.0
C1092 C 0.19969 0.36701 0.95759 0.0
C1093 C 0.19942 0.39001 0.9567 0.0
C1094 C 0.25279 0.35709 0.02892 0.0
C1095 C 0.18124 0.35448 0.93398 0.0
H1096 H 0.23607 0.28659 0.92413 0.0
H1097 H 0.20138 0.29015 0.05873 0.0
H1098 H 0.22612 0.34014 0.88529 0.0
H1099 H 0.25148 0.34109 0.91731 0.0
H1100 H 0.24535 0.31783 0.87944 0.0
H1101 H 0.1886 0.32314 0.09117 0.0
H1102 H 0.20793 0.34505 0.08156 0.0
H1103 H 0.18305 0.34437 0.04767 0.0
H1104 H 0.24584 0.40065 0.02031 0.0
H1105 H 0.18609 0.39854 0.93895 0.0
H1106 H 0.2611 0.34562 0.00379 0.0
H1107 H 0.2466 0.34725 0.05963 0.0
H1108 H 0.26506 0.369 0.04272 0.0
H1109 H 0.18788 0.343 0.90661 0.0
H1110 H 0.1692 0.3655 0.91629 0.0
H1111 H 0.17253 0.34447 0.96133 0.0
C1112 C 0.20052 0.70505 0.44941 0.0
C1113 C 0.21055 0.71743 0.48582 0.0
C1114 C 0.17767 0.70269 0.44789 0.0
C1115 C 0.16461 0.71335 0.48298 0.0
C1116 C 0.17464 0.72614 0.51934 0.0
C1117 C 0.19752 0.72784 0.52061 0.0
C1118 C 0.16751 0.68861 0.40908 0.0
C1119 C 0.1612 0.73812 0.55676 0.0
C1120 C 0.10514 0.72441 0.4527 0.0
C1121 C 0.09445 0.70816 0.47951 0.0
C1122 C 0.128 0.72633 0.45365 0.0
C1123 C 0.14041 0.71137 0.48142 0.0
C1124 C 0.12967 0.6948 0.50827 0.0
C1125 C 0.10672 0.69354 0.50739 0.0
C1126 C 0.13885 0.74448 0.42537 0.0
C1127 C 0.14244 0.67836 0.53767 0.0
H1128 H 0.21058 0.69681 0.42275 0.0
H1129 H 0.20523 0.73754 0.54863 0.0
H1130 H 0.15759 0.67537 0.42573 0.0
H1131 H 0.15628 0.69861 0.38669 0.0
H1132 H 0.18002 0.68101 0.3852 0.0
H1133 H 0.17154 0.74773 0.58204 0.0
H1134 H 0.14954 0.74944 0.53887 0.0
H1135 H 0.15134 0.72624 0.57788 0.0
H1136 H 0.09553 0.73583 0.43153 0.0
H1137 H 0.09836 0.68091 0.52783 0.0
H1138 H 0.15043 0.73745 0.39868 0.0
H1139 H 0.14853 0.75507 0.44996 0.0
H1140 H 0.12679 0.75488 0.40599 0.0
H1141 H 0.1543 0.66958 0.51428 0.0
H1142 H 0.13163 0.6661 0.55533 0.0
H1143 H 0.15202 0.68695 0.56589 0.0
C1144 C 0.77095 0.69676 0.97512 0.0
C1145 C 0.78114 0.70947 0.01075 0.0
C1146 C 0.772 0.67381 0.97636 0.0
C1147 C 0.78391 0.66337 0.01357 0.0
C1148 C 0.7944 0.67611 0.04943 0.0
C1149 C 0.79269 0.69904 0.04788 0.0
C1150 C 0.76027 0.66073 0.938 0.0
C1151 C 0.80758 0.66553 0.08912 0.0
C1152 C 0.77045 0.60393 0.04048 0.0
C1153 C 0.78653 0.59295 0.01367 0.0
C1154 C 0.76951 0.6269 0.04108 0.0
C1155 C 0.78527 0.63908 0.01492 0.0
C1156 C 0.80187 0.62804 0.98874 0.0
C1157 C 0.80216 0.60505 0.98802 0.0
C1158 C 0.75134 0.6381 0.06869 0.0
C1159 C 0.81918 0.64051 0.96115 0.0
H1160 H 0.76189 0.70476 0.94653 0.0
H1161 H 0.80076 0.70882 0.07524 0.0
H1162 H 0.7722 0.65062 0.91759 0.0
H1163 H 0.74839 0.64932 0.95499 0.0
H1164 H 0.75131 0.67137 0.9122 0.0
H1165 H 0.81511 0.6778 0.11365 0.0
H1166 H 0.79695 0.65451 0.11068 0.0
H1167 H 0.82079 0.65528 0.07334 0.0
H1168 H 0.75825 0.59451 0.05991 0.0
H1169 H 0.81467 0.59648 0.9676 0.0
H1170 H 0.74113 0.6479 0.04362 0.0
H1171 H 0.75833 0.64963 0.09552 0.0
H1172 H 0.7406 0.62623 0.08777 0.0
H1173 H 0.8114 0.6502 0.932 0.0
H1174 H 0.83162 0.62947 0.94482 0.0
H1175 H 0.82762 0.65228 0.98536 0.0
C1176 C 0.79857 0.29303 0.53883 0.0
C1177 C 0.78823 0.28139 0.50163 0.0
C1178 C 0.82142 0.29562 0.53945 0.0
C1179 C 0.83419 0.28606 0.50239 0.0
C1180 C 0.82389 0.27396 0.46525 0.0
C1181 C 0.80103 0.2719 0.46513 0.0
C1182 C 0.83186 0.30886 0.57929 0.0
C1183 C 0.83702 0.26327 0.42549 0.0
C1184 C 0.89088 0.30795 0.47368 0.0
C1185 C 0.90428 0.29263 0.49699 0.0
C1186 C 0.86798 0.30633 0.47618 0.0
C1187 C 0.85835 0.2888 0.50205 0.0
C1188 C 0.87182 0.2734 0.52601 0.0
C1189 C 0.89466 0.27557 0.5234 0.0
C1190 C 0.8541 0.32321 0.45069 0.0
C1191 C 0.86213 0.25433 0.5534 0.0
H1192 H 0.78877 0.30054 0.56695 0.0
H1193 H 0.79316 0.26276 0.43645 0.0
H1194 H 0.84397 0.29868 0.59895 0.0
H1195 H 0.84089 0.32298 0.56374 0.0
H1196 H 0.81961 0.31518 0.60548 0.0
H1197 H 0.82654 0.25389 0.40006 0.0
H1198 H 0.84609 0.27594 0.40491 0.0
H1199 H 0.84935 0.25195 0.44111 0.0
H1200 H 0.89835 0.32126 0.45367 0.0
H1201 H 0.90504 0.2636 0.54103 0.0
H1202 H 0.84237 0.33076 0.47638 0.0
H1203 H 0.84433 0.3152 0.42197 0.0
H1204 H 0.86414 0.33642 0.43415 0.0
H1205 H 0.85058 0.26036 0.58128 0.0
H1206 H 0.87488 0.24416 0.57116 0.0
H1207 H 0.85264 0.24374 0.52844 0.0
C1208 C 0.70372 0.19816 0.4742 0.0
C1209 C 0.71344 0.21052 0.51107 0.0
C1210 C 0.70165 0.17536 0.47807 0.0
C1211 C 0.70987 0.16463 0.51944 0.0
C1212 C 0.7194 0.17703 0.55715 0.0
C1213 C 0.72089 0.1999 0.5527 0.0
C1214 C 0.69101 0.16271 0.43753 0.0
C1215 C 0.72859 0.16607 0.60149 0.0
C1216 C 0.691 0.10648 0.54492 0.0
C1217 C 0.70806 0.09422 0.5245 0.0
C1218 C 0.69133 0.12948 0.5436 0.0
C1219 C 0.70935 0.14034 0.52209 0.0
C1220 C 0.72675 0.12799 0.50195 0.0
C1221 C 0.7258 0.10504 0.50307 0.0
C1222 C 0.67232 0.14213 0.56463 0.0
C1223 C 0.74638 0.13902 0.4793 0.0
H1224 H 0.69767 0.20633 0.44219 0.0
H1225 H 0.72847 0.2094 0.58121 0.0
H1226 H 0.70319 0.15162 0.42056 0.0
H1227 H 0.67757 0.15231 0.45176 0.0
H1228 H 0.68422 0.17367 0.40929 0.0
H1229 H 0.73482 0.17811 0.62824 0.0
H1230 H 0.71585 0.15582 0.61894 0.0
H1231 H 0.74223 0.15499 0.59108 0.0
H1232 H 0.67723 0.09804 0.56125 0.0
H1233 H 0.73912 0.09551 0.48784 0.0
H1234 H 0.66463 0.15237 0.53629 0.0
H1235 H 0.67821 0.1534 0.5932 0.0
H1236 H 0.65961 0.13119 0.58024 0.0
H1237 H 0.7411 0.14904 0.44809 0.0
H1238 H 0.75886 0.12702 0.46677 0.0
H1239 H 0.75417 0.1503 0.50561 0.0
C1240 C 0.29815 0.19793 0.96426 0.0
C1241 C 0.28763 0.20975 0.00097 0.0
C1242 C 0.32103 0.19554 0.96392 0.0
C1243 C 0.33363 0.20549 0.00072 0.0
C1244 C 0.3231 0.21731 0.03801 0.0
C1245 C 0.30021 0.21916 0.03787 0.0
C1246 C 0.33173 0.18256 0.92397 0.0
C1247 C 0.33603 0.22842 0.07749 0.0
C1248 C 0.39223 0.1877 0.0247 0.0
C1249 C 0.40405 0.20387 0.0 0.0
C1250 C 0.36923 0.18768 0.02429 0.0
C1251 C 0.35792 0.20442 -0.00076 0.0
C1252 C 0.36982 0.22073 0.97413 0.0
C1253 C 0.39276 0.22017 0.9746 0.0
C1254 C 0.35704 0.16987 0.05091 0.0
C1255 C 0.35833 0.23905 0.94765 0.0
H1256 H 0.28851 0.19045 0.93589 0.0
H1257 H 0.29221 0.22839 0.06626 0.0
H1258 H 0.34246 0.19344 0.90234 0.0
H1259 H 0.34227 0.1695 0.93936 0.0
H1260 H 0.31953 0.17485 0.89956 0.0
H1261 H 0.3253 0.23663 0.10435 0.0
H1262 H 0.34641 0.21626 0.09646 0.0
H1263 H 0.34715 0.24087 0.06163 0.0
H1264 H 0.40101 0.175 0.04402 0.0
H1265 H 0.40192 0.23283 0.95597 0.0
H1266 H 0.34549 0.16145 0.02619 0.0
H1267 H 0.34715 0.17719 0.08037 0.0
H1268 H 0.36827 0.15746 0.06666 0.0
H1269 H 0.34696 0.23218 0.92038 0.0
H1270 H 0.37002 0.25023 0.92924 0.0
H1271 H 0.34835 0.24881 0.97332 0.0
C1272 C 0.27573 0.8017 0.52509 0.0
C1273 C 0.28514 0.78826 0.48973 0.0
C1274 C 0.27799 0.82454 0.52309 0.0
C1275 C 0.29046 0.83409 0.48554 0.0
C1276 C 0.30042 0.82055 0.45033 0.0
C1277 C 0.29737 0.79776 0.45245 0.0
C1278 C 0.26666 0.83848 0.56061 0.0
C1279 C 0.31429 0.83013 0.41049 0.0
C1280 C 0.27764 0.89318 0.45481 0.0
C1281 C 0.29333 0.90442 0.48209 0.0
C1282 C 0.27677 0.87024 0.45498 0.0
C1283 C 0.29228 0.85831 0.48229 0.0
C1284 C 0.30869 0.8696 0.50852 0.0
C1285 C 0.30882 0.89262 0.50868 0.0
C1286 C 0.25871 0.85881 0.42748 0.0
C1287 C 0.32581 0.85738 0.5371 0.0
H1288 H 0.26618 0.79435 0.5538 0.0
H1289 H 0.30488 0.78733 0.42542 0.0
H1290 H 0.27885 0.8486 0.58019 0.0
H1291 H 0.25505 0.84991 0.54286 0.0
H1292 H 0.25746 0.82847 0.58724 0.0
H1293 H 0.32191 0.81726 0.3876 0.0
H1294 H 0.3041 0.84085 0.38728 0.0
H1295 H 0.32746 0.84051 0.42602 0.0
H1296 H 0.26552 0.90242 0.43475 0.0
H1297 H 0.32096 0.90143 0.52965 0.0
H1298 H 0.24814 0.84957 0.45291 0.0
H1299 H 0.26576 0.84677 0.40183 0.0
H1300 H 0.24829 0.8705 0.40708 0.0
H1301 H 0.31791 0.84858 0.56744 0.0
H1302 H 0.33854 0.86852 0.55196 0.0
H1303 H 0.33391 0.84488 0.51411 0.0
C1304 C 0.69791 0.77338 0.02719 0.0
C1305 C 0.71129 0.78368 0.99295 0.0
C1306 C 0.67506 0.77535 0.02512 0.0
C1307 C 0.66544 0.78833 0.98858 0.0
C1308 C 0.67888 0.79916 0.95452 0.0
C1309 C 0.70168 0.79648 0.95677 0.0
C1310 C 0.66119 0.7632 0.06144 0.0
C1311 C 0.66919 0.81351 0.91569 0.0
C1312 C 0.60668 0.77625 0.95381 0.0
C1313 C 0.59527 0.79195 0.98079 0.0
C1314 C 0.62957 0.77493 0.95598 0.0
C1315 C 0.64125 0.78996 0.98513 0.0
C1316 C 0.6298 0.80614 0.01177 0.0
C1317 C 0.60684 0.80677 0.00972 0.0
C1318 C 0.6412 0.75718 0.92784 0.0
C1319 C 0.64179 0.82269 0.04247 0.0
H1320 H 0.70531 0.76338 0.05505 0.0
H1321 H 0.71202 0.80467 0.93058 0.0
H1322 H 0.65074 0.7749 0.08166 0.0
H1323 H 0.65009 0.75162 0.04256 0.0
H1324 H 0.67126 0.75381 0.08761 0.0
H1325 H 0.68199 0.82169 0.89359 0.0
H1326 H 0.6587 0.80352 0.89154 0.0
H1327 H 0.65859 0.82628 0.93211 0.0
H1328 H 0.59762 0.76467 0.93186 0.0
H1329 H 0.5979 0.81895 0.03034 0.0
H1330 H 0.65058 0.74653 0.9528 0.0
H1331 H 0.65313 0.76461 0.9025 0.0
H1332 H 0.62965 0.74678 0.90697 0.0
H1333 H 0.65088 0.81418 0.07153 0.0
H1334 H 0.6305 0.83481 0.05916 0.0
H1335 H 0.65402 0.83163 0.02034 0.0
loop_
_geom_bond_atom_site_label_1
_geom_bond_atom_site_label_2
_geom_bond_distance
_geom_bond_site_symmetry_2
_ccdc_geom_bond_type
Sc0 O3 2.025 . S
Sc0 O10 2.105 . S
Sc0 O13 2.105 . S
Sc0 O16 2.105 . S
Sc0 O19 2.105 . S
Sc1 O3 2.025 . S
Sc1 O11 2.105 . S
Sc1 O15 2.105 1_554 S
Sc1 O17 2.105 . S
Sc1 O21 2.105 1_554 S
Sc2 O3 2.025 1_556 S
Sc2 O12 2.105 . S
Sc2 O14 2.105 . S
Sc2 O18 2.105 . S
Sc2 O20 2.105 . S
O3 Sc0 2.025 . S
O3 Sc1 2.025 . S
O3 Sc2 2.025 1_554 S
C4 O10 1.268 . S
C4 O20 1.268 1_554 S
C5 O11 1.268 . S
C5 O19 1.268 . S
C6 O12 1.268 . S
C6 O21 1.268 . S
C7 O13 1.268 . S
C7 O17 1.268 . S
C8 O14 1.268 1_554 S
C8 O16 1.268 . S
C9 O15 1.268 . S
C9 O18 1.268 . S
O10 Sc0 2.105 . S
O10 C4 1.268 . S
O11 Sc1 2.105 . S
O11 C5 1.268 . S
O12 Sc2 2.105 . S
O12 C6 1.268 . S
O13 Sc0 2.105 . S
O13 C7 1.268 . S
O14 Sc2 2.105 . S
O14 C8 1.268 1_556 S
O15 Sc1 2.105 1_556 S
O15 C9 1.268 . S
O16 Sc0 2.105 . S
O16 C8 1.268 . S
O17 Sc1 2.105 . S
O17 C7 1.268 . S
O18 Sc2 2.105 . S
O18 C9 1.268 . S
O19 Sc0 2.105 . S
O19 C5 1.268 . S
O20 Sc2 2.105 . S
O20 C4 1.268 1_556 S
O21 Sc1 2.105 1_556 S
O21 C6 1.268 . S
Sc22 O25 2.025 . S
Sc22 O32 2.105 . S
Sc22 O35 2.105 . S
Sc22 O38 2.105 . S
Sc22 O41 2.105 . S
Sc23 O25 2.025 . S
Sc23 O33 2.105 . S
Sc23 O37 2.105 . S
Sc23 O39 2.105 . S
Sc23 O43 2.105 . S
Sc24 O25 2.025 . S
Sc24 O34 2.105 . S
Sc24 O36 2.105 . S
Sc24 O40 2.105 . S
Sc24 O42 2.105 . S
O25 Sc22 2.025 . S
O25 Sc23 2.025 . S
O25 Sc24 2.025 . S
C26 O32 1.268 . S
C26 O42 1.268 . S
C27 O33 1.268 . S
C27 O41 1.268 . S
C28 O34 1.268 . S
C28 O43 1.268 . S
C29 O35 1.268 . S
C29 O39 1.268 . S
C30 O36 1.268 . S
C30 O38 1.268 . S
C31 O37 1.268 . S
C31 O40 1.268 . S
O32 Sc22 2.105 . S
O32 C26 1.268 . S
O33 Sc23 2.105 . S
O33 C27 1.268 . S
O34 Sc24 2.105 . S
O34 C28 1.268 . S
O35 Sc22 2.105 . S
O35 C29 1.268 . S
O36 Sc24 2.105 . S
O36 C30 1.268 . S
O37 Sc23 2.105 . S
O37 C31 1.268 . S
O38 Sc22 2.105 . S
O38 C30 1.268 . S
O39 Sc23 2.105 . S
O39 C29 1.268 . S
O40 Sc24 2.105 . S
O40 C31 1.268 . S
O41 Sc22 2.105 . S
O41 C27 1.268 . S
O42 Sc24 2.105 . S
O42 C26 1.268 . S
O43 Sc23 2.105 . S
O43 C28 1.268 . S
Sc44 O47 2.025 1_556 S
Sc44 O54 2.105 . S
Sc44 O57 2.105 . S
Sc44 O60 2.105 . S
Sc44 O63 2.105 . S
Sc45 O47 2.025 . S
Sc45 O55 2.105 1_554 S
Sc45 O59 2.105 . S
Sc45 O61 2.105 1_554 S
Sc45 O65 2.105 . S
Sc46 O47 2.025 . S
Sc46 O56 2.105 . S
Sc46 O58 2.105 . S
Sc46 O62 2.105 . S
Sc46 O64 2.105 . S
O47 Sc44 2.025 1_554 S
O47 Sc45 2.025 . S
O47 Sc46 2.025 . S
C48 O54 1.268 1_554 S
C48 O64 1.268 . S
C49 O55 1.268 . S
C49 O63 1.268 . S
C50 O56 1.268 . S
C50 O65 1.268 . S
C51 O57 1.268 . S
C51 O61 1.268 . S
C52 O58 1.268 . S
C52 O60 1.268 1_554 S
C53 O59 1.268 . S
C53 O62 1.268 . S
O54 Sc44 2.105 . S
O54 C48 1.268 1_556 S
O55 Sc45 2.105 1_556 S
O55 C49 1.268 . S
O56 Sc46 2.105 . S
O56 C50 1.268 . S
O57 Sc44 2.105 . S
O57 C51 1.268 . S
O58 Sc46 2.105 . S
O58 C52 1.268 . S
O59 Sc45 2.105 . S
O59 C53 1.268 . S
O60 Sc44 2.105 . S
O60 C52 1.268 1_556 S
O61 Sc45 2.105 1_556 S
O61 C51 1.268 . S
O62 Sc46 2.105 . S
O62 C53 1.268 . S
O63 Sc44 2.105 . S
O63 C49 1.268 . S
O64 Sc46 2.105 . S
O64 C48 1.268 . S
O65 Sc45 2.105 . S
O65 C50 1.268 . S
Sc66 O69 2.025 . S
Sc66 O76 2.105 . S
Sc66 O79 2.105 . S
Sc66 O82 2.105 . S
Sc66 O85 2.105 . S
Sc67 O69 2.025 . S
Sc67 O77 2.105 . S
Sc67 O81 2.105 . S
Sc67 O83 2.105 . S
Sc67 O87 2.105 . S
Sc68 O69 2.025 . S
Sc68 O78 2.105 . S
Sc68 O80 2.105 . S
Sc68 O84 2.105 . S
Sc68 O86 2.105 . S
O69 Sc66 2.025 . S
O69 Sc67 2.025 . S
O69 Sc68 2.025 . S
C70 O76 1.268 . S
C70 O86 1.268 . S
C71 O77 1.268 . S
C71 O85 1.268 . S
C72 O78 1.268 . S
C72 O87 1.268 . S
C73 O79 1.268 . S
C73 O83 1.268 . S
C74 O80 1.268 . S
C74 O82 1.268 . S
C75 O81 1.268 . S
C75 O84 1.268 . S
O76 Sc66 2.105 . S
O76 C70 1.268 . S
O77 Sc67 2.105 . S
O77 C71 1.268 . S
O78 Sc68 2.105 . S
O78 C72 1.268 . S
O79 Sc66 2.105 . S
O79 C73 1.268 . S
O80 Sc68 2.105 . S
O80 C74 1.268 . S
O81 Sc67 2.105 . S
O81 C75 1.268 . S
O82 Sc66 2.105 . S
O82 C74 1.268 . S
O83 Sc67 2.105 . S
O83 C73 1.268 . S
O84 Sc68 2.105 . S
O84 C75 1.268 . S
O85 Sc66 2.105 . S
O85 C71 1.268 . S
O86 Sc68 2.105 . S
O86 C70 1.268 . S
O87 Sc67 2.105 . S
O87 C72 1.268 . S
C88 C89 1.391 . S
C88 C92 1.391 . S
C88 H130 0.948 . S
C89 C88 1.391 . S
C89 C90 1.391 . S
C90 C89 1.391 . S
C90 H146 0.947 . S
C90 C147 1.392 . S
C91 C92 1.391 . S
C91 C95 1.397 . S
C91 C147 1.419 . S
C92 C88 1.391 . S
C92 C91 1.391 . S
C92 C93 1.399 . S
C93 C92 1.399 . S
C93 C96 1.396 . S
C93 C105 1.453 . S
C93 C106 1.684 . S
H94 C118 0.948 . S
C95 C91 1.397 . S
C95 C96 1.394 . S
C95 C114 1.723 1_556 S
C96 C93 1.396 . S
C96 C95 1.394 . S
C96 C126 1.723 . S
H97 C120 0.947 . S
H98 C121 0.948 . S
H99 C127 0.982 . S
H100 C128 0.979 . S
H101 C128 0.980 . S
H102 C128 0.983 . S
H103 C127 0.979 . S
H104 C127 0.977 . S
C105 C93 1.453 . S
C105 H134 0.982 . S
C105 H135 0.979 . S
C105 H136 0.977 . S
C106 C93 1.684 . S
C106 H131 0.979 . S
C106 H132 0.980 . S
C106 H133 0.983 . S
C107 C108 1.391 . S
C107 C112 1.391 . S
C107 H137 0.948 . S
C108 C107 1.391 . S
C108 C109 1.391 . S
C109 C108 1.391 . S
C109 C110 1.392 . S
C109 H138 0.947 . S
C110 C109 1.392 . S
C110 C111 1.419 . S
C110 H139 0.948 . S
C111 C110 1.419 . S
C111 C112 1.391 . S
C111 C115 1.397 . S
C112 C107 1.391 . S
C112 C111 1.391 . S
C112 C113 1.399 . S
C113 C112 1.399 . S
C113 C114 1.396 . S
C113 C116 1.453 . S
C113 C117 1.684 . S
C114 C95 1.723 1_554 S
C114 C113 1.396 . S
C114 C115 1.394 . S
C115 C111 1.397 . S
C115 C114 1.394 . S
C115 C125 1.723 . S
C116 C113 1.453 . S
C116 H140 0.982 . S
C116 H141 0.979 . S
C116 H142 0.977 1_554 S
C117 C113 1.684 . S
C117 H143 0.979 . S
C117 H144 0.980 1_554 S
C117 H145 0.983 . S
C118 H94 0.948 . S
C118 C119 1.391 1_554 S
C118 C123 1.391 . S
C119 C118 1.391 1_556 S
C119 C120 1.391 . S
C120 H97 0.947 . S
C120 C119 1.391 . S
C120 C121 1.392 . S
C121 H98 0.948 . S
C121 C120 1.392 . S
C121 C122 1.419 . S
C122 C121 1.419 . S
C122 C123 1.391 1_556 S
C122 C126 1.397 . S
C123 C118 1.391 . S
C123 C122 1.391 1_554 S
C123 C124 1.399 . S
C124 C123 1.399 . S
C124 C125 1.396 . S
C124 C127 1.453 . S
C124 C128 1.684 . S
C125 C115 1.723 . S
C125 C124 1.396 . S
C125 C126 1.394 1_554 S
C126 C96 1.723 . S
C126 C122 1.397 . S
C126 C125 1.394 1_556 S
C127 H99 0.982 . S
C127 H103 0.979 . S
C127 H104 0.977 . S
C127 C124 1.453 . S
C128 H100 0.979 . S
C128 H101 0.980 . S
C128 H102 0.983 . S
C128 C124 1.684 . S
H129 C147 0.948 . S
H130 C88 0.948 . S
H131 C106 0.979 . S
H132 C106 0.980 . S
H133 C106 0.983 . S
H134 C105 0.982 . S
H135 C105 0.979 . S
H136 C105 0.977 . S
H137 C107 0.948 . S
H138 C109 0.947 . S
H139 C110 0.948 . S
H140 C116 0.982 . S
H141 C116 0.979 . S
H142 C116 0.977 1_556 S
H143 C117 0.979 . S
H144 C117 0.980 1_556 S
H145 C117 0.983 . S
H146 C90 0.947 . S
C147 C90 1.392 . S
C147 C91 1.419 . S
C147 H129 0.948 . S
C148 C149 1.391 . S
C148 C152 1.391 . S
C148 H190 0.948 . S
C149 C148 1.391 . S
C149 C150 1.391 . S
C150 C149 1.391 . S
C150 H206 0.947 . S
C150 C207 1.392 . S
C151 C152 1.391 . S
C151 C155 1.397 . S
C151 C207 1.419 . S
C152 C148 1.391 . S
C152 C151 1.391 . S
C152 C153 1.399 . S
C153 C152 1.399 . S
C153 C156 1.387 1_455 S
C153 C165 1.453 . S
C153 C166 1.684 . S
H154 C178 0.948 . S
C155 C151 1.397 . S
C155 C156 1.393 1_455 S
C155 C174 1.723 1_455 S
C156 C153 1.387 1_655 S
C156 C155 1.393 1_655 S
C156 C186 1.733 . S
H157 C180 0.947 . S
H158 C181 0.948 . S
H159 C187 0.982 . S
H160 C188 0.979 . S
H161 C188 0.980 . S
H162 C188 0.983 . S
H163 C187 0.979 . S
H164 C187 0.977 . S
C165 C153 1.453 . S
C165 H194 0.982 . S
C165 H195 0.979 . S
C165 H196 0.977 . S
C166 C153 1.684 . S
C166 H191 0.979 . S
C166 H192 0.980 . S
C166 H193 0.983 . S
C167 C168 1.391 . S
C167 C172 1.391 . S
C167 H197 0.948 . S
C168 C167 1.391 . S
C168 C169 1.391 . S
C169 C168 1.391 . S
C169 C170 1.392 . S
C169 H198 0.947 . S
C170 C169 1.392 . S
C170 C171 1.419 . S
C170 H199 0.948 . S
C171 C170 1.419 . S
C171 C172 1.391 . S
C171 C175 1.397 . S
C172 C167 1.391 . S
C172 C171 1.391 . S
C172 C173 1.399 . S
C173 C172 1.399 . S
C173 C174 1.396 . S
C173 C176 1.425 1_655 S
C173 C177 1.693 . S
C174 C155 1.723 1_655 S
C174 C173 1.396 . S
C174 C175 1.394 . S
C175 C171 1.397 . S
C175 C174 1.394 . S
C175 C185 1.723 . S
C176 C173 1.425 1_455 S
C176 H200 0.972 1_455 S
C176 H201 0.979 . S
C176 H202 1.015 . S
C177 C173 1.693 . S
C177 H203 0.986 . S
C177 H204 0.963 1_655 S
C177 H205 0.983 . S
C178 H154 0.948 . S
C178 C179 1.391 . S
C178 C183 1.391 . S
C179 C178 1.391 . S
C179 C180 1.391 . S
C180 H157 0.947 . S
C180 C179 1.391 . S
C180 C181 1.392 . S
C181 H158 0.948 . S
C181 C180 1.392 . S
C181 C182 1.419 . S
C182 C181 1.419 . S
C182 C183 1.391 . S
C182 C186 1.397 . S
C183 C178 1.391 . S
C183 C182 1.391 . S
C183 C184 1.399 . S
C184 C183 1.399 . S
C184 C185 1.396 . S
C184 C187 1.453 . S
C184 C188 1.684 . S
C185 C175 1.723 . S
C185 C184 1.396 . S
C185 C186 1.394 . S
C186 C156 1.733 . S
C186 C182 1.397 . S
C186 C185 1.394 . S
C187 H159 0.982 . S
C187 H163 0.979 . S
C187 H164 0.977 . S
C187 C184 1.453 . S
C188 H160 0.979 . S
C188 H161 0.980 . S
C188 H162 0.983 . S
C188 C184 1.684 . S
H189 C207 0.948 . S
H190 C148 0.948 . S
H191 C166 0.979 . S
H192 C166 0.980 . S
H193 C166 0.983 . S
H194 C165 0.982 . S
H195 C165 0.979 . S
H196 C165 0.977 . S
H197 C167 0.948 . S
H198 C169 0.947 . S
H199 C170 0.948 . S
H200 C176 0.972 1_655 S
H201 C176 0.979 . S
H202 C176 1.015 . S
H203 C177 0.986 . S
H204 C177 0.963 1_455 S
H205 C177 0.983 . S
H206 C150 0.947 . S
C207 C150 1.392 . S
C207 C151 1.419 . S
C207 H189 0.948 . S
C208 C209 1.391 . S
C208 C212 1.391 . S
C208 H250 0.948 . S
C209 C208 1.391 . S
C209 C210 1.391 . S
C210 C209 1.391 . S
C210 H266 0.947 . S
C210 C267 1.392 . S
C211 C212 1.391 . S
C211 C215 1.397 . S
C211 C267 1.419 . S
C212 C208 1.391 . S
C212 C211 1.391 . S
C212 C213 1.399 . S
C213 C212 1.399 . S
C213 C216 1.396 . S
C213 C225 1.453 . S
C213 C226 1.684 . S
H214 C238 0.948 . S
C215 C211 1.397 . S
C215 C216 1.394 . S
C215 C234 1.723 1_554 S
C216 C213 1.396 . S
C216 C215 1.394 . S
C216 C246 1.723 . S
H217 C240 0.947 . S
H218 C241 0.948 . S
H219 C247 0.982 . S
H220 C248 0.979 . S
H221 C248 0.980 . S
H222 C248 0.983 . S
H223 C247 0.979 . S
H224 C247 0.977 . S
C225 C213 1.453 . S
C225 H254 0.982 . S
C225 H255 0.979 . S
C225 H256 0.977 . S
C226 C213 1.684 . S
C226 H251 0.979 . S
C226 H252 0.980 . S
C226 H253 0.983 . S
C227 C228 1.391 . S
C227 C232 1.391 . S
C227 H257 0.948 . S
C228 C227 1.391 . S
C228 C229 1.391 . S
C229 C228 1.391 . S
C229 C230 1.392 . S
C229 H258 0.947 . S
C230 C229 1.392 . S
C230 C231 1.419 . S
C230 H259 0.948 . S
C231 C230 1.419 . S
C231 C232 1.391 . S
C231 C235 1.397 . S
C232 C227 1.391 . S
C232 C231 1.391 . S
C232 C233 1.399 . S
C233 C232 1.399 . S
C233 C234 1.396 . S
C233 C236 1.453 . S
C233 C237 1.684 . S
C234 C215 1.723 1_556 S
C234 C233 1.396 . S
C234 C235 1.394 . S
C235 C231 1.397 . S
C235 C234 1.394 . S
C235 C245 1.723 . S
C236 C233 1.453 . S
C236 H260 0.982 . S
C236 H261 0.979 . S
C236 H262 0.977 1_556 S
C237 C233 1.684 . S
C237 H263 0.979 . S
C237 H264 0.980 1_556 S
C237 H265 0.983 . S
C238 H214 0.948 . S
C238 C239 1.391 1_556 S
C238 C243 1.391 . S
C239 C238 1.391 1_554 S
C239 C240 1.391 . S
C240 H217 0.947 . S
C240 C239 1.391 . S
C240 C241 1.392 . S
C241 H218 0.948 . S
C241 C240 1.392 . S
C241 C242 1.419 . S
C242 C241 1.419 . S
C242 C243 1.391 1_554 S
C242 C246 1.397 . S
C243 C238 1.391 . S
C243 C242 1.391 1_556 S
C243 C244 1.399 . S
C244 C243 1.399 . S
C244 C245 1.396 . S
C244 C247 1.453 . S
C244 C248 1.684 . S
C245 C235 1.723 . S
C245 C244 1.396 . S
C245 C246 1.394 1_556 S
C246 C216 1.723 . S
C246 C242 1.397 . S
C246 C245 1.394 1_554 S
C247 H219 0.982 . S
C247 H223 0.979 . S
C247 H224 0.977 . S
C247 C244 1.453 . S
C248 H220 0.979 . S
C248 H221 0.980 . S
C248 H222 0.983 . S
C248 C244 1.684 . S
H249 C267 0.948 . S
H250 C208 0.948 . S
H251 C226 0.979 . S
H252 C226 0.980 . S
H253 C226 0.983 . S
H254 C225 0.982 . S
H255 C225 0.979 . S
H256 C225 0.977 . S
H257 C227 0.948 . S
H258 C229 0.947 . S
H259 C230 0.948 . S
H260 C236 0.982 . S
H261 C236 0.979 . S
H262 C236 0.977 1_554 S
H263 C237 0.979 . S
H264 C237 0.980 1_554 S
H265 C237 0.983 . S
H266 C210 0.947 . S
C267 C210 1.392 . S
C267 C211 1.419 . S
C267 H249 0.948 . S
C268 C269 1.391 . S
C268 C272 1.391 . S
C268 H310 0.948 . S
C269 C268 1.391 . S
C269 C270 1.391 . S
C270 C269 1.391 . S
C270 H326 0.947 . S
C270 C327 1.392 . S
C271 C272 1.391 . S
C271 C275 1.397 . S
C271 C327 1.419 . S
C272 C268 1.391 . S
C272 C271 1.391 . S
C272 C273 1.399 . S
C273 C272 1.399 . S
C273 C276 1.396 . S
C273 C285 1.425 1_455 S
C273 C286 1.693 . S
H274 C298 0.948 . S
C275 C271 1.397 . S
C275 C276 1.394 . S
C275 C294 1.723 . S
C276 C273 1.396 . S
C276 C275 1.394 . S
C276 C306 1.723 1_455 S
H277 C300 0.947 . S
H278 C301 0.948 . S
H279 C307 0.982 . S
H280 C308 0.979 . S
H281 C308 0.980 . S
H282 C308 0.983 . S
H283 C307 0.979 . S
H284 C307 0.977 . S
C285 C273 1.425 1_655 S
C285 H314 0.972 1_655 S
C285 H315 0.979 . S
C285 H316 1.015 . S
C286 C273 1.693 . S
C286 H311 0.986 . S
C286 H312 0.963 1_455 S
C286 H313 0.983 . S
C287 C288 1.391 . S
C287 C292 1.391 . S
C287 H317 0.948 . S
C288 C287 1.391 . S
C288 C289 1.391 . S
C289 C288 1.391 . S
C289 C290 1.392 . S
C289 H318 0.947 . S
C290 C289 1.392 . S
C290 C291 1.419 . S
C290 H319 0.948 . S
C291 C290 1.419 . S
C291 C292 1.391 . S
C291 C295 1.397 . S
C292 C287 1.391 . S
C292 C291 1.391 . S
C292 C293 1.399 . S
C293 C292 1.399 . S
C293 C294 1.396 . S
C293 C296 1.453 . S
C293 C297 1.684 . S
C294 C275 1.723 . S
C294 C293 1.396 . S
C294 C295 1.394 . S
C295 C291 1.397 . S
C295 C294 1.394 . S
C295 C305 1.734 . S
C296 C293 1.453 . S
C296 H320 0.982 . S
C296 H321 0.979 . S
C296 H322 0.977 . S
C297 C293 1.684 . S
C297 H323 0.979 . S
C297 H324 0.980 . S
C297 H325 0.983 . S
C298 H274 0.948 . S
C298 C299 1.391 . S
C298 C303 1.391 . S
C299 C298 1.391 . S
C299 C300 1.391 . S
C300 H277 0.947 . S
C300 C299 1.391 . S
C300 C301 1.392 . S
C301 H278 0.948 . S
C301 C300 1.392 . S
C301 C302 1.419 . S
C302 C301 1.419 . S
C302 C303 1.391 . S
C302 C306 1.397 . S
C303 C298 1.391 . S
C303 C302 1.391 . S
C303 C304 1.399 . S
C304 C303 1.399 . S
C304 C305 1.387 1_655 S
C304 C307 1.453 . S
C304 C308 1.684 . S
C305 C295 1.734 . S
C305 C304 1.387 1_455 S
C305 C306 1.393 1_455 S
C306 C276 1.723 1_655 S
C306 C302 1.397 . S
C306 C305 1.393 1_655 S
C307 H279 0.982 . S
C307 H283 0.979 . S
C307 H284 0.977 . S
C307 C304 1.453 . S
C308 H280 0.979 . S
C308 H281 0.980 . S
C308 H282 0.983 . S
C308 C304 1.684 . S
H309 C327 0.948 . S
H310 C268 0.948 . S
H311 C286 0.986 . S
H312 C286 0.963 1_655 S
H313 C286 0.983 . S
H314 C285 0.972 1_455 S
H315 C285 0.979 . S
H316 C285 1.015 . S
H317 C287 0.948 . S
H318 C289 0.947 . S
H319 C290 0.948 . S
H320 C296 0.982 . S
H321 C296 0.979 . S
H322 C296 0.977 . S
H323 C297 0.979 . S
H324 C297 0.980 . S
H325 C297 0.983 . S
H326 C270 0.947 . S
C327 C270 1.392 . S
C327 C271 1.419 . S
C327 H309 0.948 . S
C328 C329 1.391 . S
C328 C332 1.391 . S
C328 H370 0.948 . S
C329 C328 1.391 . S
C329 C330 1.391 . S
C330 C329 1.391 . S
C330 H386 0.947 . S
C330 C387 1.392 . S
C331 C332 1.391 . S
C331 C335 1.397 . S
C331 C387 1.419 . S
C332 C328 1.391 . S
C332 C331 1.391 . S
C332 C333 1.399 . S
C333 C332 1.399 . S
C333 C336 1.396 . S
C333 C345 1.425 1_565 S
C333 C346 1.693 . S
H334 C358 0.948 . S
C335 C331 1.397 . S
C335 C336 1.394 . S
C335 C354 1.723 . S
C336 C333 1.396 . S
C336 C335 1.394 . S
C336 C366 1.723 1_565 S
H337 C360 0.947 . S
H338 C361 0.948 . S
H339 C367 0.982 . S
H340 C368 0.979 . S
H341 C368 0.980 . S
H342 C368 0.983 . S
H343 C367 0.979 . S
H344 C367 0.977 . S
C345 C333 1.425 1_545 S
C345 H374 0.972 1_545 S
C345 H375 0.979 . S
C345 H376 1.015 . S
C346 C333 1.693 . S
C346 H371 0.986 . S
C346 H372 0.963 1_565 S
C346 H373 0.983 . S
C347 C348 1.391 . S
C347 C352 1.391 . S
C347 H377 0.948 . S
C348 C347 1.391 . S
C348 C349 1.391 . S
C349 C348 1.391 . S
C349 C350 1.392 . S
C349 H378 0.947 . S
C350 C349 1.392 . S
C350 C351 1.419 . S
C350 H379 0.948 . S
C351 C350 1.419 . S
C351 C352 1.391 . S
C351 C355 1.397 . S
C352 C347 1.391 . S
C352 C351 1.391 . S
C352 C353 1.399 . S
C353 C352 1.399 . S
C353 C354 1.396 . S
C353 C356 1.453 . S
C353 C357 1.684 . S
C354 C335 1.723 . S
C354 C353 1.396 . S
C354 C355 1.394 . S
C355 C351 1.397 . S
C355 C354 1.394 . S
C355 C365 1.734 . S
C356 C353 1.453 . S
C356 H380 0.982 . S
C356 H381 0.979 . S
C356 H382 0.977 . S
C357 C353 1.684 . S
C357 H383 0.979 . S
C357 H384 0.980 . S
C357 H385 0.983 . S
C358 H334 0.948 . S
C358 C359 1.391 . S
C358 C363 1.391 . S
C359 C358 1.391 . S
C359 C360 1.391 . S
C360 H337 0.947 . S
C360 C359 1.391 . S
C360 C361 1.392 . S
C361 H338 0.948 . S
C361 C360 1.392 . S
C361 C362 1.419 . S
C362 C361 1.419 . S
C362 C363 1.391 . S
C362 C366 1.397 . S
C363 C358 1.391 . S
C363 C362 1.391 . S
C363 C364 1.399 . S
C364 C363 1.399 . S
C364 C365 1.387 1_545 S
C364 C367 1.453 . S
C364 C368 1.684 . S
C365 C355 1.734 . S
C365 C364 1.387 1_565 S
C365 C366 1.393 1_565 S
C366 C336 1.723 1_545 S
C366 C362 1.397 . S
C366 C365 1.393 1_545 S
C367 H339 0.982 . S
C367 H343 0.979 . S
C367 H344 0.977 . S
C367 C364 1.453 . S
C368 H340 0.979 . S
C368 H341 0.980 . S
C368 H342 0.983 . S
C368 C364 1.684 . S
H369 C387 0.948 . S
H370 C328 0.948 . S
H371 C346 0.986 . S
H372 C346 0.963 1_545 S
H373 C346 0.983 . S
H374 C345 0.972 1_565 S
H375 C345 0.979 . S
H376 C345 1.015 . S
H377 C347 0.948 . S
H378 C349 0.947 . S
H379 C350 0.948 . S
H380 C356 0.982 . S
H381 C356 0.979 . S
H382 C356 0.977 . S
H383 C357 0.979 . S
H384 C357 0.980 . S
H385 C357 0.983 . S
H386 C330 0.947 . S
C387 C330 1.392 . S
C387 C331 1.419 . S
C387 H369 0.948 . S
C388 C389 1.391 . S
C388 C392 1.391 . S
C388 H430 0.948 . S
C389 C388 1.391 . S
C389 C390 1.391 . S
C390 C389 1.391 . S
C390 H446 0.947 . S
C390 C447 1.392 . S
C391 C392 1.391 . S
C391 C395 1.397 . S
C391 C447 1.419 . S
C392 C388 1.391 . S
C392 C391 1.391 . S
C392 C393 1.399 . S
C393 C392 1.399 . S
C393 C396 1.396 . S
C393 C405 1.453 . S
C393 C406 1.684 . S
H394 C418 0.948 . S
C395 C391 1.397 . S
C395 C396 1.394 . S
C395 C414 1.723 1_554 S
C396 C393 1.396 . S
C396 C395 1.394 . S
C396 C426 1.723 . S
H397 C420 0.947 . S
H398 C421 0.948 . S
H399 C427 0.982 . S
H400 C428 0.979 . S
H401 C428 0.980 . S
H402 C428 0.983 . S
H403 C427 0.979 . S
H404 C427 0.977 . S
C405 C393 1.453 . S
C405 H434 0.982 . S
C405 H435 0.979 . S
C405 H436 0.977 . S
C406 C393 1.684 . S
C406 H431 0.979 . S
C406 H432 0.980 . S
C406 H433 0.983 . S
C407 C408 1.391 . S
C407 C412 1.391 . S
C407 H437 0.948 . S
C408 C407 1.391 . S
C408 C409 1.391 . S
C409 C408 1.391 . S
C409 C410 1.392 . S
C409 H438 0.947 . S
C410 C409 1.392 . S
C410 C411 1.419 . S
C410 H439 0.948 . S
C411 C410 1.419 . S
C411 C412 1.391 . S
C411 C415 1.397 . S
C412 C407 1.391 . S
C412 C411 1.391 . S
C412 C413 1.399 . S
C413 C412 1.399 . S
C413 C414 1.396 . S
C413 C416 1.453 . S
C413 C417 1.684 . S
C414 C395 1.723 1_556 S
C414 C413 1.396 . S
C414 C415 1.394 . S
C415 C411 1.397 . S
C415 C414 1.394 . S
C415 C425 1.723 . S
C416 C413 1.453 . S
C416 H440 0.982 . S
C416 H441 0.979 . S
C416 H442 0.977 1_556 S
C417 C413 1.684 . S
C417 H443 0.979 . S
C417 H444 0.980 1_556 S
C417 H445 0.983 . S
C418 H394 0.948 . S
C418 C419 1.391 1_556 S
C418 C423 1.391 . S
C419 C418 1.391 1_554 S
C419 C420 1.391 . S
C420 H397 0.947 . S
C420 C419 1.391 . S
C420 C421 1.392 . S
C421 H398 0.948 . S
C421 C420 1.392 . S
C421 C422 1.419 . S
C422 C421 1.419 . S
C422 C423 1.391 1_554 S
C422 C426 1.397 . S
C423 C418 1.391 . S
C423 C422 1.391 1_556 S
C423 C424 1.399 . S
C424 C423 1.399 . S
C424 C425 1.396 . S
C424 C427 1.453 . S
C424 C428 1.684 . S
C425 C415 1.723 . S
C425 C424 1.396 . S
C425 C426 1.394 1_556 S
C426 C396 1.723 . S
C426 C422 1.397 . S
C426 C425 1.394 1_554 S
C427 H399 0.982 . S
C427 H403 0.979 . S
C427 H404 0.977 . S
C427 C424 1.453 . S
C428 H400 0.979 . S
C428 H401 0.980 . S
C428 H402 0.983 . S
C428 C424 1.684 . S
H429 C447 0.948 . S
H430 C388 0.948 . S
H431 C406 0.979 . S
H432 C406 0.980 . S
H433 C406 0.983 . S
H434 C405 0.982 . S
H435 C405 0.979 . S
H436 C405 0.977 . S
H437 C407 0.948 . S
H438 C409 0.947 . S
H439 C410 0.948 . S
H440 C416 0.982 . S
H441 C416 0.979 . S
H442 C416 0.977 1_554 S
H443 C417 0.979 . S
H444 C417 0.980 1_554 S
H445 C417 0.983 . S
H446 C390 0.947 . S
C447 C390 1.392 . S
C447 C391 1.419 . S
C447 H429 0.948 . S
C448 C449 1.391 . S
C448 C452 1.391 . S
C448 H490 0.948 . S
C449 C448 1.391 . S
C449 C450 1.391 . S
C450 C449 1.391 . S
C450 H506 0.947 . S
C450 C507 1.392 . S
C451 C452 1.391 . S
C451 C455 1.397 . S
C451 C507 1.419 . S
C452 C448 1.391 . S
C452 C451 1.391 . S
C452 C453 1.399 . S
C453 C452 1.399 . S
C453 C456 1.396 . S
C453 C465 1.453 . S
C453 C466 1.684 1_545 S
H454 C478 0.948 . S
C455 C451 1.397 . S
C455 C456 1.394 . S
C455 C474 1.723 . S
C456 C453 1.396 . S
C456 C455 1.394 . S
C456 C486 1.723 1_545 S
H457 C480 0.947 . S
H458 C481 0.948 . S
H459 C487 0.982 . S
H460 C488 0.979 . S
H461 C488 0.980 . S
H462 C488 0.983 . S
H463 C487 0.979 . S
H464 C487 0.977 . S
C465 C453 1.453 . S
C465 H494 0.982 . S
C465 H495 0.979 . S
C465 H496 0.977 1_545 S
C466 C453 1.684 1_565 S
C466 H491 0.979 . S
C466 H492 0.980 . S
C466 H493 0.983 . S
C467 C468 1.391 . S
C467 C472 1.391 . S
C467 H497 0.948 . S
C468 C467 1.391 . S
C468 C469 1.391 . S
C469 C468 1.391 . S
C469 C470 1.392 . S
C469 H498 0.947 . S
C470 C469 1.392 . S
C470 C471 1.419 . S
C470 H499 0.948 . S
C471 C470 1.419 . S
C471 C472 1.391 . S
C471 C475 1.397 . S
C472 C467 1.391 . S
C472 C471 1.391 . S
C472 C473 1.399 . S
C473 C472 1.399 . S
C473 C474 1.396 . S
C473 C476 1.453 . S
C473 C477 1.684 . S
C474 C455 1.723 . S
C474 C473 1.396 . S
C474 C475 1.394 . S
C475 C471 1.397 . S
C475 C474 1.394 . S
C475 C485 1.754 . S
C476 C473 1.453 . S
C476 H500 0.982 . S
C476 H501 0.979 . S
C476 H502 0.977 . S
C477 C473 1.684 . S
C477 H503 0.979 . S
C477 H504 0.980 . S
C477 H505 0.983 . S
C478 H454 0.948 . S
C478 C479 1.391 . S
C478 C483 1.391 . S
C479 C478 1.391 . S
C479 C480 1.391 . S
C480 H457 0.947 . S
C480 C479 1.391 . S
C480 C481 1.392 . S
C481 H458 0.948 . S
C481 C480 1.392 . S
C481 C482 1.419 . S
C482 C481 1.419 . S
C482 C483 1.391 . S
C482 C486 1.397 . S
C483 C478 1.391 . S
C483 C482 1.391 . S
C483 C484 1.399 . S
C484 C483 1.399 . S
C484 C485 1.369 1_565 S
C484 C487 1.453 . S
C484 C488 1.684 . S
C485 C475 1.754 . S
C485 C484 1.369 1_545 S
C485 C486 1.389 1_545 S
C486 C456 1.723 1_565 S
C486 C482 1.397 . S
C486 C485 1.389 1_565 S
C487 H459 0.982 . S
C487 H463 0.979 . S
C487 H464 0.977 . S
C487 C484 1.453 . S
C488 H460 0.979 . S
C488 H461 0.980 . S
C488 H462 0.983 . S
C488 C484 1.684 . S
H489 C507 0.948 . S
H490 C448 0.948 . S
H491 C466 0.979 . S
H492 C466 0.980 . S
H493 C466 0.983 . S
H494 C465 0.982 . S
H495 C465 0.979 . S
H496 C465 0.977 1_565 S
H497 C467 0.948 . S
H498 C469 0.947 . S
H499 C470 0.948 . S
H500 C476 0.982 . S
H501 C476 0.979 . S
H502 C476 0.977 . S
H503 C477 0.979 . S
H504 C477 0.980 . S
H505 C477 0.983 . S
H506 C450 0.947 . S
C507 C450 1.392 . S
C507 C451 1.419 . S
C507 H489 0.948 . S
C508 C509 1.391 1_554 S
C508 C512 1.391 . S
C508 H550 0.948 . S
C509 C508 1.391 1_556 S
C509 C510 1.391 . S
C510 C509 1.391 . S
C510 H566 0.947 . S
C510 C567 1.392 . S
C511 C512 1.391 1_556 S
C511 C515 1.397 . S
C511 C567 1.419 . S
C512 C508 1.391 . S
C512 C511 1.391 1_554 S
C512 C513 1.399 . S
C513 C512 1.399 . S
C513 C516 1.396 . S
C513 C525 1.453 . S
C513 C526 1.684 . S
H514 C538 0.948 . S
C515 C511 1.397 . S
C515 C516 1.394 1_556 S
C515 C534 1.723 . S
C516 C513 1.396 . S
C516 C515 1.394 1_554 S
C516 C546 1.723 . S
H517 C540 0.947 . S
H518 C541 0.948 . S
H519 C547 0.982 . S
H520 C548 0.979 . S
H521 C548 0.980 1_556 S
H522 C548 0.983 . S
H523 C547 0.979 . S
H524 C547 0.977 1_556 S
C525 C513 1.453 . S
C525 H554 0.982 . S
C525 H555 0.979 . S
C525 H556 0.977 . S
C526 C513 1.684 . S
C526 H551 0.979 . S
C526 H552 0.980 . S
C526 H553 0.983 . S
C527 C528 1.391 . S
C527 C532 1.391 . S
C527 H557 0.948 . S
C528 C527 1.391 . S
C528 C529 1.391 . S
C529 C528 1.391 . S
C529 C530 1.392 . S
C529 H558 0.947 . S
C530 C529 1.392 . S
C530 C531 1.419 . S
C530 H559 0.948 . S
C531 C530 1.419 . S
C531 C532 1.391 . S
C531 C535 1.397 . S
C532 C527 1.391 . S
C532 C531 1.391 . S
C532 C533 1.399 . S
C533 C532 1.399 . S
C533 C534 1.396 . S
C533 C536 1.453 . S
C533 C537 1.684 . S
C534 C515 1.723 . S
C534 C533 1.396 . S
C534 C535 1.394 . S
C535 C531 1.397 . S
C535 C534 1.394 . S
C535 C545 1.723 1_556 S
C536 C533 1.453 . S
C536 H560 0.982 . S
C536 H561 0.979 . S
C536 H562 0.977 . S
C537 C533 1.684 . S
C537 H563 0.979 . S
C537 H564 0.980 . S
C537 H565 0.983 . S
C538 H514 0.948 . S
C538 C539 1.391 . S
C538 C543 1.391 . S
C539 C538 1.391 . S
C539 C540 1.391 . S
C540 H517 0.947 . S
C540 C539 1.391 . S
C540 C541 1.392 . S
C541 H518 0.948 . S
C541 C540 1.392 . S
C541 C542 1.419 . S
C542 C541 1.419 . S
C542 C543 1.391 . S
C542 C546 1.397 . S
C543 C538 1.391 . S
C543 C542 1.391 . S
C543 C544 1.399 . S
C544 C543 1.399 . S
C544 C545 1.396 . S
C544 C547 1.453 . S
C544 C548 1.684 . S
C545 C535 1.723 1_554 S
C545 C544 1.396 . S
C545 C546 1.394 . S
C546 C516 1.723 . S
C546 C542 1.397 . S
C546 C545 1.394 . S
C547 H519 0.982 . S
C547 H523 0.979 . S
C547 H524 0.977 1_554 S
C547 C544 1.453 . S
C548 H520 0.979 . S
C548 H521 0.980 1_554 S
C548 H522 0.983 . S
C548 C544 1.684 . S
H549 C567 0.948 . S
H550 C508 0.948 . S
H551 C526 0.979 . S
H552 C526 0.980 . S
H553 C526 0.983 . S
H554 C525 0.982 . S
H555 C525 0.979 . S
H556 C525 0.977 . S
H557 C527 0.948 . S
H558 C529 0.947 . S
H559 C530 0.948 . S
H560 C536 0.982 . S
H561 C536 0.979 . S
H562 C536 0.977 . S
H563 C537 0.979 . S
H564 C537 0.980 . S
H565 C537 0.983 . S
H566 C510 0.947 . S
C567 C510 1.392 . S
C567 C511 1.419 . S
C567 H549 0.948 . S
C568 C569 1.391 . S
C568 C570 1.394 . S
C568 H584 0.931 . S
C569 C568 1.391 . S
C569 C573 1.376 . S
C570 C568 1.394 . S
C570 C571 1.369 . S
C570 C574 1.531 . S
C571 C570 1.369 . S
C571 C572 1.410 . S
C571 C579 1.503 . S
C572 C571 1.410 . S
C572 C573 1.392 . S
C572 C575 1.511 . S
C573 C569 1.376 . S
C573 C572 1.392 . S
C573 H585 0.929 . S
C574 C570 1.531 . S
C574 H586 0.960 . S
C574 H587 0.962 . S
C574 H588 0.960 . S
C575 C572 1.511 . S
C575 H589 0.961 . S
C575 H590 0.961 . S
C575 H591 0.961 . S
C576 C577 1.370 . S
C576 C578 1.363 . S
C576 H592 0.931 . S
C577 C576 1.370 . S
C577 C581 1.408 . S
C578 C576 1.363 . S
C578 C579 1.370 . S
C578 C582 1.524 . S
C579 C571 1.503 . S
C579 C578 1.370 . S
C579 C580 1.403 . S
C580 C579 1.403 . S
C580 C581 1.404 . S
C580 C583 1.539 . S
C581 C577 1.408 . S
C581 C580 1.404 . S
C581 H593 0.930 . S
C582 C578 1.524 . S
C582 H594 0.956 . S
C582 H595 0.961 . S
C582 H596 0.961 . S
C583 C580 1.539 . S
C583 H597 0.958 . S
C583 H598 0.961 . S
C583 H599 0.960 . S
H584 C568 0.931 . S
H585 C573 0.929 . S
H586 C574 0.960 . S
H587 C574 0.962 . S
H588 C574 0.960 . S
H589 C575 0.961 . S
H590 C575 0.961 . S
H591 C575 0.961 . S
H592 C576 0.931 . S
H593 C581 0.930 . S
H594 C582 0.956 . S
H595 C582 0.961 . S
H596 C582 0.961 . S
H597 C583 0.958 . S
H598 C583 0.961 . S
H599 C583 0.960 . S
C600 C601 1.391 . S
C600 C602 1.394 . S
C600 H616 0.931 . S
C601 C600 1.391 . S
C601 C605 1.376 . S
C602 C600 1.394 . S
C602 C603 1.369 . S
C602 C606 1.531 . S
C603 C602 1.369 . S
C603 C604 1.410 . S
C603 C611 1.503 . S
C604 C603 1.410 . S
C604 C605 1.392 . S
C604 C607 1.511 . S
C605 C601 1.376 . S
C605 C604 1.392 . S
C605 H617 0.929 . S
C606 C602 1.531 . S
C606 H618 0.960 . S
C606 H619 0.962 . S
C606 H620 0.960 . S
C607 C604 1.511 . S
C607 H621 0.961 . S
C607 H622 0.961 . S
C607 H623 0.961 . S
C608 C609 1.370 . S
C608 C610 1.363 . S
C608 H624 0.931 . S
C609 C608 1.370 . S
C609 C613 1.408 . S
C610 C608 1.363 . S
C610 C611 1.370 . S
C610 C614 1.524 . S
C611 C603 1.503 . S
C611 C610 1.370 . S
C611 C612 1.403 . S
C612 C611 1.403 . S
C612 C613 1.404 . S
C612 C615 1.539 . S
C613 C609 1.408 . S
C613 C612 1.404 . S
C613 H625 0.930 . S
C614 C610 1.524 . S
C614 H626 0.956 . S
C614 H627 0.961 . S
C614 H628 0.961 . S
C615 C612 1.539 . S
C615 H629 0.958 . S
C615 H630 0.961 . S
C615 H631 0.960 . S
H616 C600 0.931 . S
H617 C605 0.929 . S
H618 C606 0.960 . S
H619 C606 0.962 . S
H620 C606 0.960 . S
H621 C607 0.961 . S
H622 C607 0.961 . S
H623 C607 0.961 . S
H624 C608 0.931 . S
H625 C613 0.930 . S
H626 C614 0.956 . S
H627 C614 0.961 . S
H628 C614 0.961 . S
H629 C615 0.958 . S
H630 C615 0.961 . S
H631 C615 0.960 . S
C632 C633 1.391 . S
C632 C634 1.394 . S
C632 H648 0.931 . S
C633 C632 1.391 . S
C633 C637 1.376 . S
C634 C632 1.394 . S
C634 C635 1.369 . S
C634 C638 1.531 . S
C635 C634 1.369 . S
C635 C636 1.410 . S
C635 C643 1.503 . S
C636 C635 1.410 . S
C636 C637 1.392 . S
C636 C639 1.511 . S
C637 C633 1.376 . S
C637 C636 1.392 . S
C637 H649 0.929 . S
C638 C634 1.531 . S
C638 H650 0.960 . S
C638 H651 0.962 . S
C638 H652 0.960 . S
C639 C636 1.511 . S
C639 H653 0.961 . S
C639 H654 0.961 . S
C639 H655 0.961 . S
C640 C641 1.370 . S
C640 C642 1.363 . S
C640 H656 0.931 . S
C641 C640 1.370 . S
C641 C645 1.408 . S
C642 C640 1.363 . S
C642 C643 1.370 . S
C642 C646 1.524 . S
C643 C635 1.503 . S
C643 C642 1.370 . S
C643 C644 1.403 . S
C644 C643 1.403 . S
C644 C645 1.404 . S
C644 C647 1.539 . S
C645 C641 1.408 . S
C645 C644 1.404 . S
C645 H657 0.930 . S
C646 C642 1.524 . S
C646 H658 0.956 . S
C646 H659 0.961 . S
C646 H660 0.961 . S
C647 C644 1.539 . S
C647 H661 0.958 . S
C647 H662 0.961 . S
C647 H663 0.960 . S
H648 C632 0.931 . S
H649 C637 0.929 . S
H650 C638 0.960 . S
H651 C638 0.962 . S
H652 C638 0.960 . S
H653 C639 0.961 . S
H654 C639 0.961 . S
H655 C639 0.961 . S
H656 C640 0.931 . S
H657 C645 0.930 . S
H658 C646 0.956 . S
H659 C646 0.961 . S
H660 C646 0.961 . S
H661 C647 0.958 . S
H662 C647 0.961 . S
H663 C647 0.960 . S
C664 C665 1.391 . S
C664 C666 1.394 . S
C664 H680 0.931 . S
C665 C664 1.391 . S
C665 C669 1.376 . S
C666 C664 1.394 . S
C666 C667 1.369 . S
C666 C670 1.531 . S
C667 C666 1.369 . S
C667 C668 1.410 . S
C667 C675 1.503 . S
C668 C667 1.410 . S
C668 C669 1.392 . S
C668 C671 1.511 . S
C669 C665 1.376 . S
C669 C668 1.392 . S
C669 H681 0.929 . S
C670 C666 1.531 . S
C670 H682 0.960 . S
C670 H683 0.962 . S
C670 H684 0.960 . S
C671 C668 1.511 . S
C671 H685 0.961 . S
C671 H686 0.961 . S
C671 H687 0.961 . S
C672 C673 1.370 . S
C672 C674 1.363 . S
C672 H688 0.931 . S
C673 C672 1.370 . S
C673 C677 1.408 . S
C674 C672 1.363 . S
C674 C675 1.370 . S
C674 C678 1.524 . S
C675 C667 1.503 . S
C675 C674 1.370 . S
C675 C676 1.403 . S
C676 C675 1.403 . S
C676 C677 1.404 . S
C676 C679 1.539 . S
C677 C673 1.408 . S
C677 C676 1.404 . S
C677 H689 0.930 . S
C678 C674 1.524 . S
C678 H690 0.956 . S
C678 H691 0.961 . S
C678 H692 0.961 . S
C679 C676 1.539 . S
C679 H693 0.958 . S
C679 H694 0.961 . S
C679 H695 0.960 . S
H680 C664 0.931 . S
H681 C669 0.929 . S
H682 C670 0.960 . S
H683 C670 0.962 . S
H684 C670 0.960 . S
H685 C671 0.961 . S
H686 C671 0.961 . S
H687 C671 0.961 . S
H688 C672 0.931 . S
H689 C677 0.930 . S
H690 C678 0.956 . S
H691 C678 0.961 . S
H692 C678 0.961 . S
H693 C679 0.958 . S
H694 C679 0.961 . S
H695 C679 0.960 . S
C696 C697 1.391 . S
C696 C698 1.394 . S
C696 H712 0.931 . S
C697 C696 1.391 . S
C697 C701 1.376 . S
C698 C696 1.394 . S
C698 C699 1.369 . S
C698 C702 1.531 . S
C699 C698 1.369 . S
C699 C700 1.410 . S
C699 C707 1.503 . S
C700 C699 1.410 . S
C700 C701 1.392 . S
C700 C703 1.511 . S
C701 C697 1.376 . S
C701 C700 1.392 . S
C701 H713 0.929 . S
C702 C698 1.531 . S
C702 H714 0.960 . S
C702 H715 0.962 . S
C702 H716 0.960 . S
C703 C700 1.511 . S
C703 H717 0.961 . S
C703 H718 0.961 . S
C703 H719 0.961 . S
C704 C705 1.370 . S
C704 C706 1.363 . S
C704 H720 0.931 . S
C705 C704 1.370 . S
C705 C709 1.408 . S
C706 C704 1.363 . S
C706 C707 1.370 . S
C706 C710 1.524 . S
C707 C699 1.503 . S
C707 C706 1.370 . S
C707 C708 1.403 . S
C708 C707 1.403 . S
C708 C709 1.404 . S
C708 C711 1.539 . S
C709 C705 1.408 . S
C709 C708 1.404 . S
C709 H721 0.930 . S
C710 C706 1.524 . S
C710 H722 0.956 . S
C710 H723 0.961 . S
C710 H724 0.961 . S
C711 C708 1.539 . S
C711 H725 0.958 . S
C711 H726 0.961 . S
C711 H727 0.960 . S
H712 C696 0.931 . S
H713 C701 0.929 . S
H714 C702 0.960 . S
H715 C702 0.962 . S
H716 C702 0.960 . S
H717 C703 0.961 . S
H718 C703 0.961 . S
H719 C703 0.961 . S
H720 C704 0.931 . S
H721 C709 0.930 . S
H722 C710 0.956 . S
H723 C710 0.961 . S
H724 C710 0.961 . S
H725 C711 0.958 . S
H726 C711 0.961 . S
H727 C711 0.960 . S
C728 C729 1.391 . S
C728 C730 1.394 . S
C728 H744 0.931 . S
C729 C728 1.391 . S
C729 C733 1.376 . S
C730 C728 1.394 . S
C730 C731 1.369 . S
C730 C734 1.531 . S
C731 C730 1.369 . S
C731 C732 1.410 . S
C731 C739 1.503 . S
C732 C731 1.410 . S
C732 C733 1.392 . S
C732 C735 1.511 . S
C733 C729 1.376 . S
C733 C732 1.392 . S
C733 H745 0.929 . S
C734 C730 1.531 . S
C734 H746 0.960 . S
C734 H747 0.962 . S
C734 H748 0.960 . S
C735 C732 1.511 . S
C735 H749 0.961 . S
C735 H750 0.961 . S
C735 H751 0.961 . S
C736 C737 1.370 . S
C736 C738 1.363 . S
C736 H752 0.931 . S
C737 C736 1.370 . S
C737 C741 1.408 . S
C738 C736 1.363 . S
C738 C739 1.370 . S
C738 C742 1.524 . S
C739 C731 1.503 . S
C739 C738 1.370 . S
C739 C740 1.403 . S
C740 C739 1.403 . S
C740 C741 1.404 . S
C740 C743 1.539 . S
C741 C737 1.408 . S
C741 C740 1.404 . S
C741 H753 0.930 . S
C742 C738 1.524 . S
C742 H754 0.956 . S
C742 H755 0.961 . S
C742 H756 0.961 . S
C743 C740 1.539 . S
C743 H757 0.958 . S
C743 H758 0.961 . S
C743 H759 0.960 . S
H744 C728 0.931 . S
H745 C733 0.929 . S
H746 C734 0.960 . S
H747 C734 0.962 . S
H748 C734 0.960 . S
H749 C735 0.961 . S
H750 C735 0.961 . S
H751 C735 0.961 . S
H752 C736 0.931 . S
H753 C741 0.930 . S
H754 C742 0.956 . S
H755 C742 0.961 . S
H756 C742 0.961 . S
H757 C743 0.958 . S
H758 C743 0.961 . S
H759 C743 0.960 . S
C760 C761 1.391 . S
C760 C762 1.394 . S
C760 H776 0.931 . S
C761 C760 1.391 . S
C761 C765 1.376 . S
C762 C760 1.394 . S
C762 C763 1.369 . S
C762 C766 1.531 . S
C763 C762 1.369 . S
C763 C764 1.410 . S
C763 C771 1.503 . S
C764 C763 1.410 . S
C764 C765 1.392 . S
C764 C767 1.511 . S
C765 C761 1.376 . S
C765 C764 1.392 . S
C765 H777 0.929 . S
C766 C762 1.531 . S
C766 H778 0.960 . S
C766 H779 0.962 . S
C766 H780 0.960 . S
C767 C764 1.511 . S
C767 H781 0.961 . S
C767 H782 0.961 . S
C767 H783 0.961 . S
C768 C769 1.370 . S
C768 C770 1.363 . S
C768 H784 0.931 . S
C769 C768 1.370 . S
C769 C773 1.408 . S
C770 C768 1.363 . S
C770 C771 1.370 . S
C770 C774 1.524 . S
C771 C763 1.503 . S
C771 C770 1.370 . S
C771 C772 1.403 . S
C772 C771 1.403 . S
C772 C773 1.404 . S
C772 C775 1.539 . S
C773 C769 1.408 . S
C773 C772 1.404 . S
C773 H785 0.930 . S
C774 C770 1.524 . S
C774 H786 0.956 . S
C774 H787 0.961 . S
C774 H788 0.961 . S
C775 C772 1.539 . S
C775 H789 0.958 . S
C775 H790 0.961 . S
C775 H791 0.960 . S
H776 C760 0.931 . S
H777 C765 0.929 . S
H778 C766 0.960 . S
H779 C766 0.962 . S
H780 C766 0.960 . S
H781 C767 0.961 . S
H782 C767 0.961 . S
H783 C767 0.961 . S
H784 C768 0.931 . S
H785 C773 0.930 . S
H786 C774 0.956 . S
H787 C774 0.961 . S
H788 C774 0.961 . S
H789 C775 0.958 . S
H790 C775 0.961 . S
H791 C775 0.960 . S
C792 C793 1.391 . S
C792 C794 1.394 . S
C792 H808 0.931 . S
C793 C792 1.391 . S
C793 C797 1.376 . S
C794 C792 1.394 . S
C794 C795 1.369 . S
C794 C798 1.531 . S
C795 C794 1.369 . S
C795 C796 1.410 . S
C795 C803 1.503 . S
C796 C795 1.410 . S
C796 C797 1.392 . S
C796 C799 1.511 . S
C797 C793 1.376 . S
C797 C796 1.392 . S
C797 H809 0.929 . S
C798 C794 1.531 . S
C798 H810 0.960 . S
C798 H811 0.962 . S
C798 H812 0.960 . S
C799 C796 1.511 . S
C799 H813 0.961 . S
C799 H814 0.961 . S
C799 H815 0.961 . S
C800 C801 1.370 . S
C800 C802 1.363 . S
C800 H816 0.931 . S
C801 C800 1.370 . S
C801 C805 1.408 . S
C802 C800 1.363 . S
C802 C803 1.370 . S
C802 C806 1.524 . S
C803 C795 1.503 . S
C803 C802 1.370 . S
C803 C804 1.403 . S
C804 C803 1.403 . S
C804 C805 1.404 . S
C804 C807 1.539 . S
C805 C801 1.408 . S
C805 C804 1.404 . S
C805 H817 0.930 . S
C806 C802 1.524 . S
C806 H818 0.956 . S
C806 H819 0.961 . S
C806 H820 0.961 . S
C807 C804 1.539 . S
C807 H821 0.958 . S
C807 H822 0.961 . S
C807 H823 0.960 . S
H808 C792 0.931 . S
H809 C797 0.929 . S
H810 C798 0.960 . S
H811 C798 0.962 . S
H812 C798 0.960 . S
H813 C799 0.961 . S
H814 C799 0.961 . S
H815 C799 0.961 . S
H816 C800 0.931 . S
H817 C805 0.930 . S
H818 C806 0.956 . S
H819 C806 0.961 . S
H820 C806 0.961 . S
H821 C807 0.958 . S
H822 C807 0.961 . S
H823 C807 0.960 . S
C824 C825 1.391 . S
C824 C826 1.394 . S
C824 H840 0.931 . S
C825 C824 1.391 . S
C825 C829 1.376 . S
C826 C824 1.394 . S
C826 C827 1.369 . S
C826 C830 1.531 . S
C827 C826 1.369 . S
C827 C828 1.410 . S
C827 C835 1.503 . S
C828 C827 1.410 . S
C828 C829 1.392 . S
C828 C831 1.511 . S
C829 C825 1.376 . S
C829 C828 1.392 . S
C829 H841 0.929 . S
C830 C826 1.531 . S
C830 H842 0.960 . S
C830 H843 0.962 . S
C830 H844 0.960 . S
C831 C828 1.511 . S
C831 H845 0.961 . S
C831 H846 0.961 . S
C831 H847 0.961 . S
C832 C833 1.370 . S
C832 C834 1.363 . S
C832 H848 0.931 . S
C833 C832 1.370 . S
C833 C837 1.408 . S
C834 C832 1.363 . S
C834 C835 1.370 . S
C834 C838 1.524 . S
C835 C827 1.503 . S
C835 C834 1.370 . S
C835 C836 1.403 . S
C836 C835 1.403 . S
C836 C837 1.404 . S
C836 C839 1.539 . S
C837 C833 1.408 . S
C837 C836 1.404 . S
C837 H849 0.930 . S
C838 C834 1.524 . S
C838 H850 0.956 . S
C838 H851 0.961 . S
C838 H852 0.961 . S
C839 C836 1.539 . S
C839 H853 0.958 . S
C839 H854 0.961 . S
C839 H855 0.960 . S
H840 C824 0.931 . S
H841 C829 0.929 . S
H842 C830 0.960 . S
H843 C830 0.962 . S
H844 C830 0.960 . S
H845 C831 0.961 . S
H846 C831 0.961 . S
H847 C831 0.961 . S
H848 C832 0.931 . S
H849 C837 0.930 . S
H850 C838 0.956 . S
H851 C838 0.961 . S
H852 C838 0.961 . S
H853 C839 0.958 . S
H854 C839 0.961 . S
H855 C839 0.960 . S
C856 C857 1.391 . S
C856 C858 1.394 . S
C856 H872 0.931 . S
C857 C856 1.391 . S
C857 C861 1.376 . S
C858 C856 1.394 . S
C858 C859 1.369 . S
C858 C862 1.531 . S
C859 C858 1.369 . S
C859 C860 1.410 . S
C859 C867 1.503 . S
C860 C859 1.410 . S
C860 C861 1.392 . S
C860 C863 1.511 . S
C861 C857 1.376 . S
C861 C860 1.392 . S
C861 H873 0.929 . S
C862 C858 1.531 . S
C862 H874 0.960 . S
C862 H875 0.962 . S
C862 H876 0.960 . S
C863 C860 1.511 . S
C863 H877 0.961 . S
C863 H878 0.961 . S
C863 H879 0.961 . S
C864 C865 1.370 . S
C864 C866 1.363 . S
C864 H880 0.931 . S
C865 C864 1.370 . S
C865 C869 1.408 . S
C866 C864 1.363 . S
C866 C867 1.370 . S
C866 C870 1.524 . S
C867 C859 1.503 . S
C867 C866 1.370 . S
C867 C868 1.403 . S
C868 C867 1.403 . S
C868 C869 1.404 . S
C868 C871 1.539 . S
C869 C865 1.408 . S
C869 C868 1.404 . S
C869 H881 0.930 . S
C870 C866 1.524 . S
C870 H882 0.956 . S
C870 H883 0.961 . S
C870 H884 0.961 . S
C871 C868 1.539 . S
C871 H885 0.958 . S
C871 H886 0.961 . S
C871 H887 0.960 . S
H872 C856 0.931 . S
H873 C861 0.929 . S
H874 C862 0.960 . S
H875 C862 0.962 . S
H876 C862 0.960 . S
H877 C863 0.961 . S
H878 C863 0.961 . S
H879 C863 0.961 . S
H880 C864 0.931 . S
H881 C869 0.930 . S
H882 C870 0.956 . S
H883 C870 0.961 . S
H884 C870 0.961 . S
H885 C871 0.958 . S
H886 C871 0.961 . S
H887 C871 0.960 . S
C888 C889 1.391 . S
C888 C890 1.394 . S
C888 H904 0.931 . S
C889 C888 1.391 . S
C889 C893 1.376 . S
C890 C888 1.394 . S
C890 C891 1.369 . S
C890 C894 1.531 . S
C891 C890 1.369 . S
C891 C892 1.410 . S
C891 C899 1.503 . S
C892 C891 1.410 . S
C892 C893 1.392 . S
C892 C895 1.511 . S
C893 C889 1.376 . S
C893 C892 1.392 . S
C893 H905 0.929 . S
C894 C890 1.531 . S
C894 H906 0.960 . S
C894 H907 0.962 . S
C894 H908 0.960 . S
C895 C892 1.511 . S
C895 H909 0.961 . S
C895 H910 0.961 . S
C895 H911 0.961 . S
C896 C897 1.370 . S
C896 C898 1.363 . S
C896 H912 0.931 . S
C897 C896 1.370 . S
C897 C901 1.408 . S
C898 C896 1.363 . S
C898 C899 1.370 . S
C898 C902 1.524 . S
C899 C891 1.503 . S
C899 C898 1.370 . S
C899 C900 1.403 . S
C900 C899 1.403 . S
C900 C901 1.404 . S
C900 C903 1.539 . S
C901 C897 1.408 . S
C901 C900 1.404 . S
C901 H913 0.930 . S
C902 C898 1.524 . S
C902 H914 0.956 . S
C902 H915 0.961 . S
C902 H916 0.961 . S
C903 C900 1.539 . S
C903 H917 0.958 . S
C903 H918 0.961 . S
C903 H919 0.960 . S
H904 C888 0.931 . S
H905 C893 0.929 . S
H906 C894 0.960 . S
H907 C894 0.962 . S
H908 C894 0.960 . S
H909 C895 0.961 . S
H910 C895 0.961 . S
H911 C895 0.961 . S
H912 C896 0.931 . S
H913 C901 0.930 . S
H914 C902 0.956 . S
H915 C902 0.961 . S
H916 C902 0.961 . S
H917 C903 0.958 . S
H918 C903 0.961 . S
H919 C903 0.960 . S
C920 C921 1.391 . S
C920 C922 1.394 . S
C920 H936 0.931 . S
C921 C920 1.391 . S
C921 C925 1.376 . S
C922 C920 1.394 . S
C922 C923 1.369 . S
C922 C926 1.531 . S
C923 C922 1.369 . S
C923 C924 1.410 . S
C923 C931 1.503 . S
C924 C923 1.410 . S
C924 C925 1.392 . S
C924 C927 1.511 . S
C925 C921 1.376 . S
C925 C924 1.392 . S
C925 H937 0.929 . S
C926 C922 1.531 . S
C926 H938 0.960 . S
C926 H939 0.962 . S
C926 H940 0.960 . S
C927 C924 1.511 . S
C927 H941 0.961 . S
C927 H942 0.961 . S
C927 H943 0.961 . S
C928 C929 1.370 . S
C928 C930 1.363 . S
C928 H944 0.931 . S
C929 C928 1.370 . S
C929 C933 1.408 . S
C930 C928 1.363 . S
C930 C931 1.370 . S
C930 C934 1.524 . S
C931 C923 1.503 . S
C931 C930 1.370 . S
C931 C932 1.403 . S
C932 C931 1.403 . S
C932 C933 1.404 . S
C932 C935 1.539 . S
C933 C929 1.408 . S
C933 C932 1.404 . S
C933 H945 0.930 . S
C934 C930 1.524 . S
C934 H946 0.956 . S
C934 H947 0.961 . S
C934 H948 0.961 . S
C935 C932 1.539 . S
C935 H949 0.958 . S
C935 H950 0.961 . S
C935 H951 0.960 . S
H936 C920 0.931 . S
H937 C925 0.929 . S
H938 C926 0.960 . S
H939 C926 0.962 . S
H940 C926 0.960 . S
H941 C927 0.961 . S
H942 C927 0.961 . S
H943 C927 0.961 . S
H944 C928 0.931 . S
H945 C933 0.930 . S
H946 C934 0.956 . S
H947 C934 0.961 . S
H948 C934 0.961 . S
H949 C935 0.958 . S
H950 C935 0.961 . S
H951 C935 0.960 . S
C952 C953 1.391 . S
C952 C954 1.394 . S
C952 H968 0.931 . S
C953 C952 1.391 . S
C953 C957 1.376 . S
C954 C952 1.394 . S
C954 C955 1.369 . S
C954 C958 1.531 . S
C955 C954 1.369 . S
C955 C956 1.410 . S
C955 C963 1.503 . S
C956 C955 1.410 . S
C956 C957 1.392 . S
C956 C959 1.511 . S
C957 C953 1.376 . S
C957 C956 1.392 . S
C957 H969 0.929 . S
C958 C954 1.531 . S
C958 H970 0.960 . S
C958 H971 0.962 . S
C958 H972 0.960 . S
C959 C956 1.511 . S
C959 H973 0.961 . S
C959 H974 0.961 . S
C959 H975 0.961 . S
C960 C961 1.370 . S
C960 C962 1.363 . S
C960 H976 0.931 . S
C961 C960 1.370 . S
C961 C965 1.408 . S
C962 C960 1.363 . S
C962 C963 1.370 . S
C962 C966 1.524 . S
C963 C955 1.503 . S
C963 C962 1.370 . S
C963 C964 1.403 . S
C964 C963 1.403 . S
C964 C965 1.404 . S
C964 C967 1.539 . S
C965 C961 1.408 . S
C965 C964 1.404 . S
C965 H977 0.930 . S
C966 C962 1.524 . S
C966 H978 0.956 . S
C966 H979 0.961 . S
C966 H980 0.961 . S
C967 C964 1.539 . S
C967 H981 0.958 . S
C967 H982 0.961 . S
C967 H983 0.960 . S
H968 C952 0.931 . S
H969 C957 0.929 . S
H970 C958 0.960 . S
H971 C958 0.962 . S
H972 C958 0.960 . S
H973 C959 0.961 . S
H974 C959 0.961 . S
H975 C959 0.961 . S
H976 C960 0.931 . S
H977 C965 0.930 . S
H978 C966 0.956 . S
H979 C966 0.961 . S
H980 C966 0.961 . S
H981 C967 0.958 . S
H982 C967 0.961 . S
H983 C967 0.960 . S
C984 C985 1.391 . S
C984 C986 1.394 . S
C984 H1000 0.931 . S
C985 C984 1.391 . S
C985 C989 1.376 . S
C986 C984 1.394 . S
C986 C987 1.369 . S
C986 C990 1.531 . S
C987 C986 1.369 . S
C987 C988 1.410 . S
C987 C995 1.503 . S
C988 C987 1.410 . S
C988 C989 1.392 . S
C988 C991 1.511 . S
C989 C985 1.376 . S
C989 C988 1.392 . S
C989 H1001 0.929 . S
C990 C986 1.531 . S
C990 H1002 0.960 . S
C990 H1003 0.962 . S
C990 H1004 0.960 . S
C991 C988 1.511 . S
C991 H1005 0.961 . S
C991 H1006 0.961 . S
C991 H1007 0.961 . S
C992 C993 1.370 . S
C992 C994 1.363 . S
C992 H1008 0.931 . S
C993 C992 1.370 . S
C993 C997 1.408 . S
C994 C992 1.363 . S
C994 C995 1.370 . S
C994 C998 1.524 . S
C995 C987 1.503 . S
C995 C994 1.370 . S
C995 C996 1.403 . S
C996 C995 1.403 . S
C996 C997 1.404 . S
C996 C999 1.539 . S
C997 C993 1.408 . S
C997 C996 1.404 . S
C997 H1009 0.930 . S
C998 C994 1.524 . S
C998 H1010 0.956 . S
C998 H1011 0.961 . S
C998 H1012 0.961 . S
C999 C996 1.539 . S
C999 H1013 0.958 . S
C999 H1014 0.961 . S
C999 H1015 0.960 . S
H1000 C984 0.931 . S
H1001 C989 0.929 . S
H1002 C990 0.960 . S
H1003 C990 0.962 . S
H1004 C990 0.960 . S
H1005 C991 0.961 . S
H1006 C991 0.961 . S
H1007 C991 0.961 . S
H1008 C992 0.931 . S
H1009 C997 0.930 . S
H1010 C998 0.956 . S
H1011 C998 0.961 . S
H1012 C998 0.961 . S
H1013 C999 0.958 . S
H1014 C999 0.961 . S
H1015 C999 0.960 . S
C1016 C1017 1.391 . S
C1016 C1018 1.394 . S
C1016 H1032 0.931 . S
C1017 C1016 1.391 . S
C1017 C1021 1.376 . S
C1018 C1016 1.394 . S
C1018 C1019 1.369 . S
C1018 C1022 1.531 . S
C1019 C1018 1.369 . S
C1019 C1020 1.410 . S
C1019 C1027 1.503 . S
C1020 C1019 1.410 . S
C1020 C1021 1.392 . S
C1020 C1023 1.511 . S
C1021 C1017 1.376 . S
C1021 C1020 1.392 . S
C1021 H1033 0.929 . S
C1022 C1018 1.531 . S
C1022 H1034 0.960 . S
C1022 H1035 0.962 . S
C1022 H1036 0.960 . S
C1023 C1020 1.511 . S
C1023 H1037 0.961 . S
C1023 H1038 0.961 . S
C1023 H1039 0.961 . S
C1024 C1025 1.370 . S
C1024 C1026 1.363 . S
C1024 H1040 0.931 . S
C1025 C1024 1.370 . S
C1025 C1029 1.408 . S
C1026 C1024 1.363 . S
C1026 C1027 1.370 . S
C1026 C1030 1.524 . S
C1027 C1019 1.503 . S
C1027 C1026 1.370 . S
C1027 C1028 1.403 . S
C1028 C1027 1.403 . S
C1028 C1029 1.404 . S
C1028 C1031 1.539 . S
C1029 C1025 1.408 . S
C1029 C1028 1.404 . S
C1029 H1041 0.930 . S
C1030 C1026 1.524 . S
C1030 H1042 0.956 . S
C1030 H1043 0.961 . S
C1030 H1044 0.961 . S
C1031 C1028 1.539 . S
C1031 H1045 0.958 . S
C1031 H1046 0.961 . S
C1031 H1047 0.960 . S
H1032 C1016 0.931 . S
H1033 C1021 0.929 . S
H1034 C1022 0.960 . S
H1035 C1022 0.962 . S
H1036 C1022 0.960 . S
H1037 C1023 0.961 . S
H1038 C1023 0.961 . S
H1039 C1023 0.961 . S
H1040 C1024 0.931 . S
H1041 C1029 0.930 . S
H1042 C1030 0.956 . S
H1043 C1030 0.961 . S
H1044 C1030 0.961 . S
H1045 C1031 0.958 . S
H1046 C1031 0.961 . S
H1047 C1031 0.960 . S
C1048 C1049 1.391 . S
C1048 C1050 1.394 . S
C1048 H1064 0.931 . S
C1049 C1048 1.391 . S
C1049 C1053 1.376 . S
C1050 C1048 1.394 . S
C1050 C1051 1.369 . S
C1050 C1054 1.531 . S
C1051 C1050 1.369 . S
C1051 C1052 1.410 . S
C1051 C1059 1.503 . S
C1052 C1051 1.410 . S
C1052 C1053 1.392 . S
C1052 C1055 1.511 . S
C1053 C1049 1.376 . S
C1053 C1052 1.392 . S
C1053 H1065 0.929 . S
C1054 C1050 1.531 . S
C1054 H1066 0.960 . S
C1054 H1067 0.962 . S
C1054 H1068 0.960 . S
C1055 C1052 1.511 . S
C1055 H1069 0.961 . S
C1055 H1070 0.961 . S
C1055 H1071 0.961 . S
C1056 C1057 1.370 . S
C1056 C1058 1.363 . S
C1056 H1072 0.931 . S
C1057 C1056 1.370 . S
C1057 C1061 1.408 . S
C1058 C1056 1.363 . S
C1058 C1059 1.370 . S
C1058 C1062 1.524 . S
C1059 C1051 1.503 . S
C1059 C1058 1.370 . S
C1059 C1060 1.403 . S
C1060 C1059 1.403 . S
C1060 C1061 1.404 . S
C1060 C1063 1.539 . S
C1061 C1057 1.408 . S
C1061 C1060 1.404 . S
C1061 H1073 0.930 . S
C1062 C1058 1.524 . S
C1062 H1074 0.956 . S
C1062 H1075 0.961 . S
C1062 H1076 0.961 . S
C1063 C1060 1.539 . S
C1063 H1077 0.958 . S
C1063 H1078 0.961 . S
C1063 H1079 0.960 . S
H1064 C1048 0.931 . S
H1065 C1053 0.929 . S
H1066 C1054 0.960 . S
H1067 C1054 0.962 . S
H1068 C1054 0.960 . S
H1069 C1055 0.961 . S
H1070 C1055 0.961 . S
H1071 C1055 0.961 . S
H1072 C1056 0.931 . S
H1073 C1061 0.930 . S
H1074 C1062 0.956 . S
H1075 C1062 0.961 . S
H1076 C1062 0.961 . S
H1077 C1063 0.958 . S
H1078 C1063 0.961 . S
H1079 C1063 0.960 . S
C1080 C1081 1.391 . S
C1080 C1082 1.394 . S
C1080 H1096 0.931 . S
C1081 C1080 1.391 . S
C1081 C1085 1.376 1_556 S
C1082 C1080 1.394 . S
C1082 C1083 1.369 . S
C1082 C1086 1.531 . S
C1083 C1082 1.369 . S
C1083 C1084 1.410 1_556 S
C1083 C1091 1.503 . S
C1084 C1083 1.410 1_554 S
C1084 C1085 1.392 . S
C1084 C1087 1.511 . S
C1085 C1081 1.376 1_554 S
C1085 C1084 1.392 . S
C1085 H1097 0.929 . S
C1086 C1082 1.531 . S
C1086 H1098 0.960 . S
C1086 H1099 0.962 . S
C1086 H1100 0.960 . S
C1087 C1084 1.511 . S
C1087 H1101 0.961 . S
C1087 H1102 0.961 . S
C1087 H1103 0.961 . S
C1088 C1089 1.370 1_554 S
C1088 C1090 1.363 . S
C1088 H1104 0.931 . S
C1089 C1088 1.370 1_556 S
C1089 C1093 1.408 . S
C1090 C1088 1.363 . S
C1090 C1091 1.370 1_554 S
C1090 C1094 1.524 . S
C1091 C1083 1.503 . S
C1091 C1090 1.370 1_556 S
C1091 C1092 1.403 . S
C1092 C1091 1.403 . S
C1092 C1093 1.404 . S
C1092 C1095 1.539 . S
C1093 C1089 1.408 . S
C1093 C1092 1.404 . S
C1093 H1105 0.930 . S
C1094 C1090 1.524 . S
C1094 H1106 0.956 . S
C1094 H1107 0.961 . S
C1094 H1108 0.961 . S
C1095 C1092 1.539 . S
C1095 H1109 0.958 . S
C1095 H1110 0.961 . S
C1095 H1111 0.960 . S
H1096 C1080 0.931 . S
H1097 C1085 0.929 . S
H1098 C1086 0.960 . S
H1099 C1086 0.962 . S
H1100 C1086 0.960 . S
H1101 C1087 0.961 . S
H1102 C1087 0.961 . S
H1103 C1087 0.961 . S
H1104 C1088 0.931 . S
H1105 C1093 0.930 . S
H1106 C1094 0.956 . S
H1107 C1094 0.961 . S
H1108 C1094 0.961 . S
H1109 C1095 0.958 . S
H1110 C1095 0.961 . S
H1111 C1095 0.960 . S
C1112 C1113 1.391 . S
C1112 C1114 1.394 . S
C1112 H1128 0.931 . S
C1113 C1112 1.391 . S
C1113 C1117 1.376 . S
C1114 C1112 1.394 . S
C1114 C1115 1.369 . S
C1114 C1118 1.531 . S
C1115 C1114 1.369 . S
C1115 C1116 1.410 . S
C1115 C1123 1.503 . S
C1116 C1115 1.410 . S
C1116 C1117 1.392 . S
C1116 C1119 1.511 . S
C1117 C1113 1.376 . S
C1117 C1116 1.392 . S
C1117 H1129 0.929 . S
C1118 C1114 1.531 . S
C1118 H1130 0.960 . S
C1118 H1131 0.962 . S
C1118 H1132 0.960 . S
C1119 C1116 1.511 . S
C1119 H1133 0.961 . S
C1119 H1134 0.961 . S
C1119 H1135 0.961 . S
C1120 C1121 1.370 . S
C1120 C1122 1.363 . S
C1120 H1136 0.931 . S
C1121 C1120 1.370 . S
C1121 C1125 1.408 . S
C1122 C1120 1.363 . S
C1122 C1123 1.370 . S
C1122 C1126 1.524 . S
C1123 C1115 1.503 . S
C1123 C1122 1.370 . S
C1123 C1124 1.403 . S
C1124 C1123 1.403 . S
C1124 C1125 1.404 . S
C1124 C1127 1.539 . S
C1125 C1121 1.408 . S
C1125 C1124 1.404 . S
C1125 H1137 0.930 . S
C1126 C1122 1.524 . S
C1126 H1138 0.956 . S
C1126 H1139 0.961 . S
C1126 H1140 0.961 . S
C1127 C1124 1.539 . S
C1127 H1141 0.958 . S
C1127 H1142 0.961 . S
C1127 H1143 0.960 . S
H1128 C1112 0.931 . S
H1129 C1117 0.929 . S
H1130 C1118 0.960 . S
H1131 C1118 0.962 . S
H1132 C1118 0.960 . S
H1133 C1119 0.961 . S
H1134 C1119 0.961 . S
H1135 C1119 0.961 . S
H1136 C1120 0.931 . S
H1137 C1125 0.930 . S
H1138 C1126 0.956 . S
H1139 C1126 0.961 . S
H1140 C1126 0.961 . S
H1141 C1127 0.958 . S
H1142 C1127 0.961 . S
H1143 C1127 0.960 . S
C1144 C1145 1.391 . S
C1144 C1146 1.394 . S
C1144 H1160 0.931 . S
C1145 C1144 1.391 . S
C1145 C1149 1.376 1_556 S
C1146 C1144 1.394 . S
C1146 C1147 1.369 . S
C1146 C1150 1.531 . S
C1147 C1146 1.369 . S
C1147 C1148 1.410 1_556 S
C1147 C1155 1.503 . S
C1148 C1147 1.410 1_554 S
C1148 C1149 1.392 . S
C1148 C1151 1.511 . S
C1149 C1145 1.376 1_554 S
C1149 C1148 1.392 . S
C1149 H1161 0.929 . S
C1150 C1146 1.531 . S
C1150 H1162 0.960 . S
C1150 H1163 0.962 . S
C1150 H1164 0.960 . S
C1151 C1148 1.511 . S
C1151 H1165 0.961 . S
C1151 H1166 0.961 . S
C1151 H1167 0.961 . S
C1152 C1153 1.370 1_554 S
C1152 C1154 1.363 . S
C1152 H1168 0.931 . S
C1153 C1152 1.370 1_556 S
C1153 C1157 1.408 . S
C1154 C1152 1.363 . S
C1154 C1155 1.370 1_554 S
C1154 C1158 1.524 . S
C1155 C1147 1.503 . S
C1155 C1154 1.370 1_556 S
C1155 C1156 1.403 . S
C1156 C1155 1.403 . S
C1156 C1157 1.404 . S
C1156 C1159 1.539 . S
C1157 C1153 1.408 . S
C1157 C1156 1.404 . S
C1157 H1169 0.930 . S
C1158 C1154 1.524 . S
C1158 H1170 0.956 . S
C1158 H1171 0.961 . S
C1158 H1172 0.961 . S
C1159 C1156 1.539 . S
C1159 H1173 0.958 . S
C1159 H1174 0.961 . S
C1159 H1175 0.960 . S
H1160 C1144 0.931 . S
H1161 C1149 0.929 . S
H1162 C1150 0.960 . S
H1163 C1150 0.962 . S
H1164 C1150 0.960 . S
H1165 C1151 0.961 . S
H1166 C1151 0.961 . S
H1167 C1151 0.961 . S
H1168 C1152 0.931 . S
H1169 C1157 0.930 . S
H1170 C1158 0.956 . S
H1171 C1158 0.961 . S
H1172 C1158 0.961 . S
H1173 C1159 0.958 . S
H1174 C1159 0.961 . S
H1175 C1159 0.960 . S
C1176 C1177 1.391 . S
C1176 C1178 1.394 . S
C1176 H1192 0.931 . S
C1177 C1176 1.391 . S
C1177 C1181 1.376 . S
C1178 C1176 1.394 . S
C1178 C1179 1.369 . S
C1178 C1182 1.531 . S
C1179 C1178 1.369 . S
C1179 C1180 1.410 . S
C1179 C1187 1.503 . S
C1180 C1179 1.410 . S
C1180 C1181 1.392 . S
C1180 C1183 1.511 . S
C1181 C1177 1.376 . S
C1181 C1180 1.392 . S
C1181 H1193 0.929 . S
C1182 C1178 1.531 . S
C1182 H1194 0.960 . S
C1182 H1195 0.962 . S
C1182 H1196 0.960 . S
C1183 C1180 1.511 . S
C1183 H1197 0.961 . S
C1183 H1198 0.961 . S
C1183 H1199 0.961 . S
C1184 C1185 1.370 . S
C1184 C1186 1.363 . S
C1184 H1200 0.931 . S
C1185 C1184 1.370 . S
C1185 C1189 1.408 . S
C1186 C1184 1.363 . S
C1186 C1187 1.370 . S
C1186 C1190 1.524 . S
C1187 C1179 1.503 . S
C1187 C1186 1.370 . S
C1187 C1188 1.403 . S
C1188 C1187 1.403 . S
C1188 C1189 1.404 . S
C1188 C1191 1.539 . S
C1189 C1185 1.408 . S
C1189 C1188 1.404 . S
C1189 H1201 0.930 . S
C1190 C1186 1.524 . S
C1190 H1202 0.956 . S
C1190 H1203 0.961 . S
C1190 H1204 0.961 . S
C1191 C1188 1.539 . S
C1191 H1205 0.958 . S
C1191 H1206 0.961 . S
C1191 H1207 0.960 . S
H1192 C1176 0.931 . S
H1193 C1181 0.929 . S
H1194 C1182 0.960 . S
H1195 C1182 0.962 . S
H1196 C1182 0.960 . S
H1197 C1183 0.961 . S
H1198 C1183 0.961 . S
H1199 C1183 0.961 . S
H1200 C1184 0.931 . S
H1201 C1189 0.930 . S
H1202 C1190 0.956 . S
H1203 C1190 0.961 . S
H1204 C1190 0.961 . S
H1205 C1191 0.958 . S
H1206 C1191 0.961 . S
H1207 C1191 0.960 . S
C1208 C1209 1.391 . S
C1208 C1210 1.394 . S
C1208 H1224 0.931 . S
C1209 C1208 1.391 . S
C1209 C1213 1.376 . S
C1210 C1208 1.394 . S
C1210 C1211 1.369 . S
C1210 C1214 1.531 . S
C1211 C1210 1.369 . S
C1211 C1212 1.410 . S
C1211 C1219 1.503 . S
C1212 C1211 1.410 . S
C1212 C1213 1.392 . S
C1212 C1215 1.511 . S
C1213 C1209 1.376 . S
C1213 C1212 1.392 . S
C1213 H1225 0.929 . S
C1214 C1210 1.531 . S
C1214 H1226 0.960 . S
C1214 H1227 0.962 . S
C1214 H1228 0.960 . S
C1215 C1212 1.511 . S
C1215 H1229 0.961 . S
C1215 H1230 0.961 . S
C1215 H1231 0.961 . S
C1216 C1217 1.370 . S
C1216 C1218 1.363 . S
C1216 H1232 0.931 . S
C1217 C1216 1.370 . S
C1217 C1221 1.408 . S
C1218 C1216 1.363 . S
C1218 C1219 1.370 . S
C1218 C1222 1.524 . S
C1219 C1211 1.503 . S
C1219 C1218 1.370 . S
C1219 C1220 1.403 . S
C1220 C1219 1.403 . S
C1220 C1221 1.404 . S
C1220 C1223 1.539 . S
C1221 C1217 1.408 . S
C1221 C1220 1.404 . S
C1221 H1233 0.930 . S
C1222 C1218 1.524 . S
C1222 H1234 0.956 . S
C1222 H1235 0.961 . S
C1222 H1236 0.961 . S
C1223 C1220 1.539 . S
C1223 H1237 0.958 . S
C1223 H1238 0.961 . S
C1223 H1239 0.960 . S
H1224 C1208 0.931 . S
H1225 C1213 0.929 . S
H1226 C1214 0.960 . S
H1227 C1214 0.962 . S
H1228 C1214 0.960 . S
H1229 C1215 0.961 . S
H1230 C1215 0.961 . S
H1231 C1215 0.961 . S
H1232 C1216 0.931 . S
H1233 C1221 0.930 . S
H1234 C1222 0.956 . S
H1235 C1222 0.961 . S
H1236 C1222 0.961 . S
H1237 C1223 0.958 . S
H1238 C1223 0.961 . S
H1239 C1223 0.960 . S
C1240 C1241 1.391 . S
C1240 C1242 1.394 . S
C1240 H1256 0.931 . S
C1241 C1240 1.391 . S
C1241 C1245 1.376 1_556 S
C1242 C1240 1.394 . S
C1242 C1243 1.369 . S
C1242 C1246 1.531 . S
C1243 C1242 1.369 . S
C1243 C1244 1.410 1_556 S
C1243 C1251 1.503 . S
C1244 C1243 1.410 1_554 S
C1244 C1245 1.392 . S
C1244 C1247 1.511 . S
C1245 C1241 1.376 1_554 S
C1245 C1244 1.392 . S
C1245 H1257 0.929 . S
C1246 C1242 1.531 . S
C1246 H1258 0.960 . S
C1246 H1259 0.962 . S
C1246 H1260 0.960 . S
C1247 C1244 1.511 . S
C1247 H1261 0.961 . S
C1247 H1262 0.961 . S
C1247 H1263 0.961 1_554 S
C1248 C1249 1.370 1_554 S
C1248 C1250 1.363 . S
C1248 H1264 0.931 . S
C1249 C1248 1.370 1_556 S
C1249 C1253 1.408 . S
C1250 C1248 1.363 . S
C1250 C1251 1.370 1_554 S
C1250 C1254 1.524 . S
C1251 C1243 1.503 . S
C1251 C1250 1.370 1_556 S
C1251 C1252 1.403 . S
C1252 C1251 1.403 . S
C1252 C1253 1.404 . S
C1252 C1255 1.539 . S
C1253 C1249 1.408 . S
C1253 C1252 1.404 . S
C1253 H1265 0.930 . S
C1254 C1250 1.524 . S
C1254 H1266 0.956 . S
C1254 H1267 0.961 . S
C1254 H1268 0.961 . S
C1255 C1252 1.539 . S
C1255 H1269 0.958 . S
C1255 H1270 0.961 . S
C1255 H1271 0.960 . S
H1256 C1240 0.931 . S
H1257 C1245 0.929 . S
H1258 C1246 0.960 . S
H1259 C1246 0.962 . S
H1260 C1246 0.960 . S
H1261 C1247 0.961 . S
H1262 C1247 0.961 . S
H1263 C1247 0.961 1_556 S
H1264 C1248 0.931 . S
H1265 C1253 0.930 . S
H1266 C1254 0.956 . S
H1267 C1254 0.961 . S
H1268 C1254 0.961 . S
H1269 C1255 0.958 . S
H1270 C1255 0.961 . S
H1271 C1255 0.960 . S
C1272 C1273 1.391 . S
C1272 C1274 1.394 . S
C1272 H1288 0.931 . S
C1273 C1272 1.391 . S
C1273 C1277 1.376 . S
C1274 C1272 1.394 . S
C1274 C1275 1.369 . S
C1274 C1278 1.531 . S
C1275 C1274 1.369 . S
C1275 C1276 1.410 . S
C1275 C1283 1.503 . S
C1276 C1275 1.410 . S
C1276 C1277 1.392 . S
C1276 C1279 1.511 . S
C1277 C1273 1.376 . S
C1277 C1276 1.392 . S
C1277 H1289 0.929 . S
C1278 C1274 1.531 . S
C1278 H1290 0.960 . S
C1278 H1291 0.962 . S
C1278 H1292 0.960 . S
C1279 C1276 1.511 . S
C1279 H1293 0.961 . S
C1279 H1294 0.961 . S
C1279 H1295 0.961 . S
C1280 C1281 1.370 . S
C1280 C1282 1.363 . S
C1280 H1296 0.931 . S
C1281 C1280 1.370 . S
C1281 C1285 1.408 . S
C1282 C1280 1.363 . S
C1282 C1283 1.370 . S
C1282 C1286 1.524 . S
C1283 C1275 1.503 . S
C1283 C1282 1.370 . S
C1283 C1284 1.403 . S
C1284 C1283 1.403 . S
C1284 C1285 1.404 . S
C1284 C1287 1.539 . S
C1285 C1281 1.408 . S
C1285 C1284 1.404 . S
C1285 H1297 0.930 . S
C1286 C1282 1.524 . S
C1286 H1298 0.956 . S
C1286 H1299 0.961 . S
C1286 H1300 0.961 . S
C1287 C1284 1.539 . S
C1287 H1301 0.958 . S
C1287 H1302 0.961 . S
C1287 H1303 0.960 . S
H1288 C1272 0.931 . S
H1289 C1277 0.929 . S
H1290 C1278 0.960 . S
H1291 C1278 0.962 . S
H1292 C1278 0.960 . S
H1293 C1279 0.961 . S
H1294 C1279 0.961 . S
H1295 C1279 0.961 . S
H1296 C1280 0.931 . S
H1297 C1285 0.930 . S
H1298 C1286 0.956 . S
H1299 C1286 0.961 . S
H1300 C1286 0.961 . S
H1301 C1287 0.958 . S
H1302 C1287 0.961 . S
H1303 C1287 0.960 . S
C1304 C1305 1.391 . S
C1304 C1306 1.394 . S
C1304 H1320 0.931 . S
C1305 C1304 1.391 . S
C1305 C1309 1.376 1_554 S
C1306 C1304 1.394 . S
C1306 C1307 1.369 . S
C1306 C1310 1.531 . S
C1307 C1306 1.369 . S
C1307 C1308 1.410 1_554 S
C1307 C1315 1.503 . S
C1308 C1307 1.410 1_556 S
C1308 C1309 1.392 . S
C1308 C1311 1.511 . S
C1309 C1305 1.376 1_556 S
C1309 C1308 1.392 . S
C1309 H1321 0.929 . S
C1310 C1306 1.531 . S
C1310 H1322 0.960 . S
C1310 H1323 0.962 . S
C1310 H1324 0.960 . S
C1311 C1308 1.511 . S
C1311 H1325 0.961 . S
C1311 H1326 0.961 . S
C1311 H1327 0.961 1_556 S
C1312 C1313 1.370 1_556 S
C1312 C1314 1.363 . S
C1312 H1328 0.931 . S
C1313 C1312 1.370 1_554 S
C1313 C1317 1.408 . S
C1314 C1312 1.363 . S
C1314 C1315 1.370 1_556 S
C1314 C1318 1.524 . S
C1315 C1307 1.503 . S
C1315 C1314 1.370 1_554 S
C1315 C1316 1.403 . S
C1316 C1315 1.403 . S
C1316 C1317 1.404 . S
C1316 C1319 1.539 . S
C1317 C1313 1.408 . S
C1317 C1316 1.404 . S
C1317 H1329 0.930 . S
C1318 C1314 1.524 . S
C1318 H1330 0.956 . S
C1318 H1331 0.961 . S
C1318 H1332 0.961 . S
C1319 C1316 1.539 . S
C1319 H1333 0.958 . S
C1319 H1334 0.961 . S
C1319 H1335 0.960 . S
H1320 C1304 0.931 . S
H1321 C1309 0.929 . S
H1322 C1310 0.960 . S
H1323 C1310 0.962 . S
H1324 C1310 0.960 . S
H1325 C1311 0.961 . S
H1326 C1311 0.961 . S
H1327 C1311 0.961 1_554 S
H1328 C1312 0.931 . S
H1329 C1317 0.930 . S
H1330 C1318 0.956 . S
H1331 C1318 0.961 . S
H1332 C1318 0.961 . S
H1333 C1319 0.958 . S
H1334 C1319 0.961 . S
H1335 C1319 0.960 . S
C569 C5 1.476 . S
C577 C269 1.436 . S
C601 C31 1.467 . S
C609 C89 1.434 . S
C641 C168 1.431 . S
C633 C53 1.472 . S
C665 C71 1.481 . S
C673 C228 1.459 . S
C705 C389 1.440 . S
C697 C75 1.483 . S
C737 C468 1.459 . S
C729 C9 1.461 . S
C769 C539 1.470 . S
C761 C27 1.491 . S
C801 C329 1.421 . S
C793 C49 1.461 . S
C825 C51 1.484 . S
C833 C179 1.498 . S
C857 C72 1.492 . S
C865 C209 1.417 . S
C889 C6 1.476 . S
C897 C288 1.496 . S
C929 C108 1.497 . S
C921 C29 1.468 . S
C953 C28 1.485 . S
C961 C528 1.415 . S
C993 C348 1.496 . S
C985 C50 1.455 . S
C1025 C408 1.494 . S
C1017 C73 1.482 . S
C1049 C7 1.460 . S
C1057 C449 1.388 . S
C1089 C119 1.484 . S
C1081 C4 1.501 1_556 S
C1121 C149 1.496 . S
C1113 C30 1.505 . S
C1145 C52 1.502 1_556 S
C1153 C239 1.471 1_556 S
C1177 C70 1.492 . S
C1185 C299 1.496 . S
C1217 C359 1.495 . S
C1209 C74 1.491 . S
C1241 C8 1.492 1_556 S
C1249 C419 1.496 1_556 S
C1273 C26 1.506 . S
C1281 C479 1.470 . S
C1305 C48 1.500 . S
C1313 C509 1.471 1_554 S
