# Generated by pormake.
# Topology csq, (4,8)-cn, num edge types: 1
# Building blocks:
#     Node 0, Type 0, BuildingBlock: MUDLON_clean_linker_0, # of connection points: 4
#     Node 1, Type 0, BuildingBlock: MUDLON_clean_linker_0, # of connection points: 4
#     Node 2, Type 0, BuildingBlock: MUDLON_clean_linker_0, # of connection points: 4
#     Node 3, Type 0, BuildingBlock: MUDLON_clean_linker_0, # of connection points: 4
#     Node 4, Type 0, BuildingBlock: MUDLON_clean_linker_0, # of connection points: 4
#     Node 5, Type 0, BuildingBlock: MUDLON_clean_linker_0, # of connection points: 4
#     Node 6, Type 1, BuildingBlock: TAGTUT_clean_sbu_1, # of connection points: 8
#     Node 7, Type 1, BuildingBlock: TAGTUT_clean_sbu_1, # of connection points: 8
#     Node 8, Type 1, BuildingBlock: TAGTUT_clean_sbu_1, # of connection points: 8
#     Edge 9, Type (0, 1), BuildingBlock: AJUNOK_clean_linker_0, # of connection points: 2
#     Edge 10, Type (0, 1), BuildingBlock: AJUNOK_clean_linker_0, # of connection points: 2
#     Edge 11, Type (0, 1), BuildingBlock: AJUNOK_clean_linker_0, # of connection points: 2
#     Edge 12, Type (0, 1), BuildingBlock: AJUNOK_clean_linker_0, # of connection points: 2
#     Edge 13, Type (0, 1), BuildingBlock: AJUNOK_clean_linker_0, # of connection points: 2
#     Edge 14, Type (0, 1), BuildingBlock: AJUNOK_clean_linker_0, # of connection points: 2
#     Edge 15, Type (0, 1), BuildingBlock: AJUNOK_clean_linker_0, # of connection points: 2
#     Edge 16, Type (0, 1), BuildingBlock: AJUNOK_clean_linker_0, # of connection points: 2
#     Edge 17, Type (0, 1), BuildingBlock: AJUNOK_clean_linker_0, # of connection points: 2
#     Edge 18, Type (0, 1), BuildingBlock: AJUNOK_clean_linker_0, # of connection points: 2
#     Edge 19, Type (0, 1), BuildingBlock: AJUNOK_clean_linker_0, # of connection points: 2
#     Edge 20, Type (0, 1), BuildingBlock: AJUNOK_clean_linker_0, # of connection points: 2
#     Edge 21, Type (0, 1), BuildingBlock: AJUNOK_clean_linker_0, # of connection points: 2
#     Edge 22, Type (0, 1), BuildingBlock: AJUNOK_clean_linker_0, # of connection points: 2
#     Edge 23, Type (0, 1), BuildingBlock: AJUNOK_clean_linker_0, # of connection points: 2
#     Edge 24, Type (0, 1), BuildingBlock: AJUNOK_clean_linker_0, # of connection points: 2
#     Edge 25, Type (0, 1), BuildingBlock: AJUNOK_clean_linker_0, # of connection points: 2
#     Edge 26, Type (0, 1), BuildingBlock: AJUNOK_clean_linker_0, # of connection points: 2
#     Edge 27, Type (0, 1), BuildingBlock: AJUNOK_clean_linker_0, # of connection points: 2
#     Edge 28, Type (0, 1), BuildingBlock: AJUNOK_clean_linker_0, # of connection points: 2
#     Edge 29, Type (0, 1), BuildingBlock: AJUNOK_clean_linker_0, # of connection points: 2
#     Edge 30, Type (0, 1), BuildingBlock: AJUNOK_clean_linker_0, # of connection points: 2
#     Edge 31, Type (0, 1), BuildingBlock: AJUNOK_clean_linker_0, # of connection points: 2
#     Edge 32, Type (0, 1), BuildingBlock: AJUNOK_clean_linker_0, # of connection points: 2
# Relax obj value: 0.048
# Max RMSD: 0.132
# Mean RMSD: 0.092
data_MOF--net-csq--node1-TAGTUT_clean_sbu_1--node2-MUDLON_clean_linker_0--edge1-AJUNOK_clean_linker_0
_symmetry_space_group_name_H-M    P1
_symmetry_Int_Tables_number       1
_symmetry_cell_setting            triclinic
loop_
_symmetry_equiv_pos_as_xyz
'x, y, z'
_cell_length_a     57.264454
_cell_length_b     56.697587
_cell_length_c     19.333592
_cell_angle_alpha  93.004666
_cell_angle_beta   92.706603
_cell_angle_gamma 119.9097
loop_
_atom_site_label
_atom_site_type_symbol
_atom_site_fract_x
_atom_site_fract_y
_atom_site_fract_z
_atom_type_partial_charge
H0 H 0.37537 0.51038 0.20356 0.0
N1 N 0.32604 0.46551 0.1602 0.0
H2 H 0.40209 0.51765 0.31272 0.0
H3 H 0.31287 0.43335 0.26368 0.0
H4 H 0.33863 0.44139 0.37563 0.0
H5 H 0.3306 0.42871 0.08024 0.0
H6 H 0.35484 0.43565 0.97522 0.0
H7 H 0.35173 0.5133 0.09543 0.0
H8 H 0.37536 0.52016 0.99029 0.0
H9 H 0.33052 0.51545 0.18867 0.0
H10 H 0.27371 0.42933 0.15088 0.0
H11 H 0.29365 0.52442 0.2029 0.0
H12 H 0.23671 0.43743 0.17312 0.0
H13 H 0.16817 0.54071 0.30023 0.0
H14 H 0.14187 0.53219 0.40107 0.0
H15 H 0.12669 0.44934 0.39056 0.0
H16 H 0.15242 0.45792 0.28764 0.0
H17 H 0.13099 0.45802 0.16938 0.0
H18 H 0.10556 0.45046 0.05816 0.0
H19 H 0.15464 0.53634 0.02878 0.0
H20 H 0.18207 0.54279 0.1365 0.0
H21 H 0.22588 0.53307 0.2846 0.0
H22 H 0.26247 0.5232 0.27303 0.0
H23 H 0.20893 0.45184 0.13351 0.0
N24 N 0.17586 0.5055 0.22326 0.0
H25 H 0.17242 0.46014 0.15141 0.0
C26 C 0.34245 0.47078 0.22433 0.0
C27 C 0.36735 0.495 0.24012 0.0
C28 C 0.38243 0.49935 0.30335 0.0
C29 C 0.37269 0.47992 0.35279 0.0
C30 C 0.34715 0.45638 0.33808 0.0
C31 C 0.33237 0.45178 0.27427 0.0
C32 C 0.33916 0.47029 0.0961 0.0
C33 C 0.34004 0.44863 0.06031 0.0
C34 C 0.35365 0.45258 -0.0001 0.0
C35 C 0.36668 0.47839 0.97373 0.0
C36 C 0.3654 0.50001 0.00892 0.0
C37 C 0.35178 0.49604 0.06934 0.0
C38 C 0.30468 0.47175 0.16558 0.0
C39 C 0.31 0.49848 0.18216 0.0
C40 C 0.28877 0.50346 0.19239 0.0
C41 C 0.26184 0.48171 0.18918 0.0
C42 C 0.25686 0.45492 0.17402 0.0
C43 C 0.27801 0.45012 0.16155 0.0
C44 C 0.16227 0.50007 0.28647 0.0
C45 C 0.15955 0.52087 0.3205 0.0
C46 C 0.14481 0.51603 0.37885 0.0
C47 C 0.13258 0.49021 0.40512 0.0
C48 C 0.136 0.46951 0.37204 0.0
C49 C 0.15065 0.47435 0.31313 0.0
C50 C 0.1589 0.50092 0.16047 0.0
C51 C 0.13661 0.47511 0.13834 0.0
C52 C 0.12192 0.47089 0.07464 0.0
C53 C 0.12824 0.49264 0.03297 0.0
C54 C 0.14985 0.51874 0.05712 0.0
C55 C 0.16524 0.52266 0.11956 0.0
C56 C 0.1964 0.49788 0.21817 0.0
C57 C 0.22208 0.51509 0.2524 0.0
C58 C 0.2431 0.50956 0.24476 0.0
C59 C 0.23908 0.48689 0.20117 0.0
C60 C 0.21306 0.4693 0.16828 0.0
C61 C 0.19191 0.47437 0.17774 0.0
H62 H 0.68365 0.07583 0.17437 0.0
N63 N 0.7032 0.12211 0.11286 0.0
H64 H 0.65763 0.06367 0.27684 0.0
H65 H 0.68954 0.15477 0.19028 0.0
H66 H 0.66466 0.14325 0.29412 0.0
H67 H 0.65894 0.12695 0.07558 0.0
H68 H 0.63188 0.11104 0.96442 0.0
H69 H 0.71167 0.09933 0.00024 0.0
H70 H 0.68531 0.08448 0.88686 0.0
H71 H 0.75114 0.13465 0.17232 0.0
H72 H 0.70943 0.16962 0.06557 0.0
H73 H 0.79276 0.17894 0.18338 0.0
H74 H 0.75117 0.21342 0.07206 0.0
H75 H 0.92446 0.31568 0.2038 0.0
H76 H 0.94962 0.34779 0.30511 0.0
H77 H 0.87812 0.35093 0.35143 0.0
H78 H 0.85337 0.31953 0.24905 0.0
H79 H 0.85878 0.33912 0.13502 0.0
H80 H 0.88124 0.37932 0.06942 0.0
H81 H 0.93062 0.34871 0.98612 0.0
H82 H 0.90822 0.30866 0.05219 0.0
H83 H 0.86915 0.25269 0.13019 0.0
H84 H 0.82695 0.20895 0.11852 0.0
H85 H 0.7824 0.2515 0.14565 0.0
N86 N 0.8756 0.302 0.15053 0.0
H87 H 0.82458 0.295 0.15224 0.0
C88 C 0.68845 0.11604 0.17431 0.0
C89 C 0.67954 0.09059 0.20038 0.0
C90 C 0.66496 0.08383 0.25927 0.0
C91 C 0.659 0.10247 0.29344 0.0
C92 C 0.66857 0.12829 0.26837 0.0
C93 C 0.68293 0.13495 0.20908 0.0
C94 C 0.68708 0.11374 0.04691 0.0
C95 C 0.66487 0.11766 0.03498 0.0
C96 C 0.6497 0.10907 0.97056 0.0
C97 C 0.65668 0.09689 0.9161 0.0
C98 C 0.67941 0.0938 0.92759 0.0
C99 C 0.69439 0.10214 0.99231 0.0
C100 C 0.72734 0.14862 0.1173 0.0
C101 C 0.75112 0.15185 0.1505 0.0
C102 C 0.77491 0.17715 0.1562 0.0
C103 C 0.77552 0.19981 0.12784 0.0
C104 C 0.75149 0.19659 0.09513 0.0
C105 C 0.72758 0.17135 0.09053 0.0
C106 C 0.88705 0.31495 0.21911 0.0
C107 C 0.91402 0.32262 0.23721 0.0
C108 C 0.92835 0.34101 0.29484 0.0
C109 C 0.91576 0.35179 0.33601 0.0
C110 C 0.88831 0.34303 0.32009 0.0
C111 C 0.87403 0.32475 0.26202 0.0
C112 C 0.88188 0.32084 0.09816 0.0
C113 C 0.87365 0.34048 0.10063 0.0
C114 C 0.88665 0.36358 0.06368 0.0
C115 C 0.90794 0.36721 0.02412 0.0
C116 C 0.91453 0.34649 0.01736 0.0
C117 C 0.90152 0.32347 0.054 0.0
C118 C 0.85008 0.27698 0.14302 0.0
C119 C 0.85019 0.25243 0.13324 0.0
C120 C 0.82604 0.22748 0.1273 0.0
C121 C 0.80116 0.22655 0.13209 0.0
C122 C 0.8011 0.25134 0.14111 0.0
C123 C 0.82532 0.27635 0.14585 0.0
H124 H 0.61143 0.93387 -0.00088 0.0
N125 N 0.5833 0.88646 0.05249 0.0
H126 H 0.5962 0.94949 0.90016 0.0
H127 H 0.54274 0.8528 0.95289 0.0
H128 H 0.52748 0.86838 0.85377 0.0
H129 H 0.52861 0.86333 0.06164 0.0
H130 H 0.50648 0.88384 0.12618 0.0
H131 H 0.60661 0.9285 0.14817 0.0
H132 H 0.58454 0.94872 0.21445 0.0
H133 H 0.60994 0.86778 0.9795 0.0
H134 H 0.55419 0.8458 0.13983 0.0
H135 H 0.61036 0.82528 0.98811 0.0
H136 H 0.55512 0.80395 0.14895 0.0
H137 H 0.62117 0.69403 0.072 0.0
H138 H 0.61049 0.65678 0.98376 0.0
H139 H 0.54131 0.66114 0.90235 0.0
H140 H 0.55144 0.69752 0.9921 0.0
H141 H 0.53758 0.67519 0.10805 0.0
H142 H 0.52182 0.64043 0.19077 0.0
H143 H 0.60075 0.68273 0.3035 0.0
H144 H 0.61644 0.71764 0.22067 0.0
H145 H 0.63024 0.76472 0.08424 0.0
H146 H 0.62764 0.80602 0.07087 0.0
H147 H 0.54134 0.75981 0.08642 0.0
N148 N 0.59045 0.71522 0.10136 0.0
H149 H 0.54425 0.71892 0.10125 0.0
C150 C 0.57821 0.89235 0.9836 0.0
C151 C 0.59365 0.91926 0.96606 0.0
C152 C 0.58479 0.92818 0.91032 0.0
C153 C 0.56052 0.91015 0.87065 0.0
C154 C 0.54626 0.88258 0.884 0.0
C155 C 0.55503 0.87368 0.94029 0.0
C156 C 0.5694 0.89436 0.1007 0.0
C157 C 0.54095 0.88175 0.09561 0.0
C158 C 0.52831 0.8935 0.13223 0.0
C159 C 0.54385 0.918 0.17442 0.0
C160 C 0.57214 0.93004 0.18122 0.0
C161 C 0.58474 0.9183 0.14465 0.0
C162 C 0.58144 0.8601 0.05687 0.0
C163 C 0.59748 0.85374 0.01574 0.0
C164 C 0.59794 0.82955 0.02124 0.0
C165 C 0.58269 0.81121 0.06908 0.0
C166 C 0.56667 0.81742 0.11057 0.0
C167 C 0.56614 0.84162 0.10501 0.0
C168 C 0.58726 0.69863 0.03877 0.0
C169 C 0.6041 0.68736 0.03398 0.0
C170 C 0.59783 0.66597 0.9841 0.0
C171 C 0.57463 0.6556 0.93766 0.0
C172 C 0.55879 0.66815 0.93916 0.0
C173 C 0.56492 0.68938 0.98962 0.0
C174 C 0.57837 0.69915 0.15834 0.0
C175 C 0.55127 0.67763 0.15186 0.0
C176 C 0.54235 0.65749 0.19848 0.0
C177 C 0.56027 0.65867 0.25231 0.0
C178 C 0.58656 0.68136 0.26217 0.0
C179 C 0.5955 0.7014 0.21541 0.0
C180 C 0.58763 0.73882 0.09401 0.0
C181 C 0.61081 0.76361 0.08485 0.0
C182 C 0.60922 0.78707 0.07671 0.0
C183 C 0.58424 0.78615 0.0773 0.0
C184 C 0.56092 0.76124 0.08649 0.0
C185 C 0.56256 0.73776 0.09477 0.0
H186 H 0.91899 0.5777 0.13314 0.0
N187 N 0.87172 0.54995 0.05798 0.0
H188 H 0.93299 0.56554 0.24084 0.0
H189 H 0.84273 0.50237 0.11898 0.0
H190 H 0.85611 0.49042 0.22821 0.0
H191 H 0.87104 0.50291 0.01111 0.0
H192 H 0.88841 0.4958 0.90424 0.0
H193 H 0.88538 0.58095 0.95155 0.0
H194 H 0.9008 0.57298 0.84134 0.0
H195 H 0.86417 0.58468 0.13707 0.0
H196 H 0.82219 0.51333 0.99137 0.0
H197 H 0.82189 0.58349 0.15505 0.0
H198 H 0.7799 0.51324 0.00385 0.0
H199 H 0.68744 0.585 0.17464 0.0
H200 H 0.66228 0.5766 0.27818 0.0
H201 H 0.65451 0.49683 0.27879 0.0
H202 H 0.67878 0.50502 0.17392 0.0
H203 H 0.64833 0.50736 0.06504 0.0
H204 H 0.62168 0.49907 0.95523 0.0
H205 H 0.68905 0.56892 0.87853 0.0
H206 H 0.71466 0.57859 0.99115 0.0
H207 H 0.74887 0.59316 0.12166 0.0
H208 H 0.79068 0.59279 0.10754 0.0
H209 H 0.74504 0.50454 0.07222 0.0
N210 N 0.69894 0.55126 0.10364 0.0
H211 H 0.70318 0.50574 0.0801 0.0
C212 C 0.88 0.54099 0.11809 0.0
C213 C 0.90537 0.55847 0.15325 0.0
C214 C 0.91313 0.55162 0.2151 0.0
C215 C 0.89559 0.52708 0.2433 0.0
C216 C 0.8702 0.50932 0.2075 0.0
C217 C 0.8625 0.51614 0.14521 0.0
C218 C 0.87781 0.54303 0.99067 0.0
C219 C 0.87749 0.51837 0.97463 0.0
C220 C 0.88714 0.51415 0.91268 0.0
C221 C 0.89671 0.53415 0.86466 0.0
C222 C 0.89458 0.5576 0.87812 0.0
C223 C 0.88556 0.5621 0.94081 0.0
C224 C 0.84644 0.54949 0.06217 0.0
C225 C 0.84579 0.56912 0.10773 0.0
C226 C 0.82152 0.56845 0.11748 0.0
C227 C 0.79724 0.54846 0.08034 0.0
C228 C 0.79798 0.52875 0.03421 0.0
C229 C 0.82227 0.52901 0.02599 0.0
C230 C 0.68506 0.54578 0.16643 0.0
C231 C 0.68037 0.56576 0.19736 0.0
C232 C 0.66617 0.56098 0.25676 0.0
C233 C 0.65628 0.53599 0.28669 0.0
C234 C 0.66149 0.51612 0.25649 0.0
C235 C 0.67561 0.5209 0.19671 0.0
C236 C 0.6833 0.54419 0.03735 0.0
C237 C 0.65734 0.52108 0.02507 0.0
C238 C 0.64222 0.51611 0.96152 0.0
C239 C 0.65298 0.53368 0.90823 0.0
C240 C 0.6797 0.55557 0.91907 0.0
C241 C 0.69446 0.561 0.98325 0.0
C242 C 0.72314 0.54954 0.10368 0.0
C243 C 0.74807 0.57378 0.11175 0.0
C244 C 0.77197 0.57341 0.10392 0.0
C245 C 0.77153 0.54857 0.08931 0.0
C246 C 0.74634 0.52412 0.08256 0.0
C247 C 0.72233 0.52464 0.08865 0.0
H248 H 0.14828 0.64989 0.10896 0.0
N249 N 0.14179 0.69467 0.10577 0.0
H250 H 0.12248 0.61081 0.17525 0.0
H251 H 0.11543 0.69416 0.21522 0.0
H252 H 0.09042 0.65548 0.28413 0.0
H253 H 0.09205 0.67912 0.05422 0.0
H254 H 0.06763 0.64781 0.95044 0.0
H255 H 0.16494 0.6796 0.0046 0.0
H256 H 0.1407 0.64879 0.90024 0.0
H257 H 0.18766 0.69369 0.15318 0.0
H258 H 0.15912 0.74465 0.0691 0.0
H259 H 0.23369 0.73177 0.16286 0.0
H260 H 0.20553 0.7826 0.07456 0.0
H261 H 0.36495 0.84548 0.24366 0.0
H262 H 0.38549 0.87264 0.35415 0.0
H263 H 0.34165 0.91548 0.32 0.0
H264 H 0.3244 0.89077 0.20537 0.0
H265 H 0.31319 0.87411 0.06167 0.0
H266 H 0.3331 0.89578 0.95669 0.0
H267 H 0.40007 0.88244 0.00168 0.0
H268 H 0.37909 0.8593 0.10342 0.0
H269 H 0.31677 0.79839 0.11543 0.0
H270 H 0.27044 0.75973 0.10064 0.0
H271 H 0.24068 0.81458 0.15313 0.0
N272 N 0.33281 0.8505 0.14975 0.0
H273 H 0.28654 0.85285 0.16298 0.0
C274 C 0.13357 0.67497 0.15691 0.0
C275 C 0.1363 0.65161 0.14837 0.0
C276 C 0.12155 0.62924 0.18636 0.0
C277 C 0.10416 0.62999 0.23401 0.0
C278 C 0.10333 0.65421 0.24669 0.0
C279 C 0.11786 0.67644 0.20827 0.0
C280 C 0.13026 0.68185 0.03688 0.0
C281 C 0.10294 0.67319 0.01967 0.0
C282 C 0.08901 0.65517 0.96115 0.0
C283 C 0.10238 0.64593 0.91825 0.0
C284 C 0.13012 0.65584 0.93275 0.0
C285 C 0.14398 0.67358 0.99195 0.0
C286 C 0.16965 0.71639 0.11127 0.0
C287 C 0.19116 0.71298 0.13638 0.0
C288 C 0.21773 0.73485 0.1412 0.0
C289 C 0.22347 0.76042 0.11979 0.0
C290 C 0.20193 0.76348 0.09313 0.0
C291 C 0.17539 0.74177 0.08944 0.0
C292 C 0.3428 0.86569 0.21686 0.0
C293 C 0.3597 0.86064 0.26056 0.0
C294 C 0.37094 0.87584 0.32468 0.0
C295 C 0.36477 0.89595 0.34782 0.0
C296 C 0.34694 0.90023 0.30448 0.0
C297 C 0.33664 0.88578 0.23901 0.0
C298 C 0.34452 0.86468 0.08974 0.0
C299 C 0.33194 0.87552 0.04829 0.0
C300 C 0.34341 0.88797 0.98831 0.0
C301 C 0.36783 0.89017 0.96928 0.0
C302 C 0.38067 0.88005 0.01254 0.0
C303 C 0.36898 0.86723 0.07151 0.0
C304 C 0.30524 0.82841 0.14123 0.0
C305 C 0.30013 0.80192 0.12334 0.0
C306 C 0.27365 0.77988 0.11553 0.0
C307 C 0.25169 0.78391 0.12618 0.0
C308 C 0.25695 0.81063 0.14358 0.0
C309 C 0.28339 0.83266 0.15033 0.0
H310 H 0.49057 0.34214 0.14211 0.0
N311 N 0.43817 0.30491 0.16395 0.0
H312 H 0.50376 0.37698 0.06033 0.0
H313 H 0.40782 0.3035 0.05463 0.0
H314 H 0.42106 0.33881 0.97289 0.0
H315 H 0.40833 0.32609 0.20295 0.0
H316 H 0.42103 0.36345 0.29315 0.0
H317 H 0.48127 0.32489 0.26234 0.0
H318 H 0.49387 0.36199 0.35244 0.0
H319 H 0.48344 0.29972 0.15552 0.0
H320 H 0.39851 0.25623 0.18729 0.0
H321 H 0.4858 0.2586 0.17044 0.0
H322 H 0.40052 0.21464 0.20062 0.0
H323 H 0.49454 0.15155 0.20155 0.0
H324 H 0.51542 0.12958 0.13663 0.0
H325 H 0.4367 0.06879 0.04144 0.0
H326 H 0.41595 0.09053 0.10724 0.0
H327 H 0.40899 0.08211 0.25097 0.0
H328 H 0.42053 0.06267 0.34715 0.0
H329 H 0.48988 0.14189 0.41278 0.0
H330 H 0.47913 0.16074 0.31332 0.0
H331 H 0.46915 0.17077 0.11858 0.0
H332 H 0.46993 0.21355 0.11098 0.0
H333 H 0.41894 0.19576 0.28085 0.0
N334 N 0.44002 0.13083 0.2071 0.0
H335 H 0.41747 0.15233 0.28773 0.0
C336 C 0.44805 0.31995 0.10415 0.0
C337 C 0.47542 0.34027 0.10325 0.0
C338 C 0.48295 0.36047 0.05709 0.0
C339 C 0.46326 0.36075 0.01193 0.0
C340 C 0.43645 0.33912 0.00837 0.0
C341 C 0.42896 0.31881 0.05412 0.0
C342 C 0.44359 0.32249 0.22624 0.0
C343 C 0.42672 0.33346 0.23651 0.0
C344 C 0.4342 0.35503 0.28691 0.0
C345 C 0.45868 0.36585 0.32822 0.0
C346 C 0.475 0.35405 0.32052 0.0
C347 C 0.46763 0.33263 0.26958 0.0
C348 C 0.44062 0.28104 0.17018 0.0
C349 C 0.46521 0.28136 0.16522 0.0
C350 C 0.46655 0.25772 0.1736 0.0
C351 C 0.44339 0.23337 0.18705 0.0
C352 C 0.41886 0.23316 0.19158 0.0
C353 C 0.41758 0.25679 0.18338 0.0
C354 C 0.45359 0.12263 0.15869 0.0
C355 C 0.48188 0.13379 0.16572 0.0
C356 C 0.49376 0.12119 0.12908 0.0
C357 C 0.47755 0.09727 0.08528 0.0
C358 C 0.44954 0.08694 0.07607 0.0
C359 C 0.43772 0.09955 0.11241 0.0
C360 C 0.44319 0.12269 0.27469 0.0
C361 C 0.42628 0.09539 0.2872 0.0
C362 C 0.43301 0.08433 0.34198 0.0
C363 C 0.45659 0.10058 0.38631 0.0
C364 C 0.47219 0.12862 0.37779 0.0
C365 C 0.46575 0.13956 0.32187 0.0
C366 C 0.44388 0.15814 0.20581 0.0
C367 C 0.45858 0.17597 0.15579 0.0
C368 C 0.45904 0.2007 0.15112 0.0
C369 C 0.44455 0.2081 0.19534 0.0
C370 C 0.43014 0.19056 0.24554 0.0
C371 C 0.42959 0.16583 0.25012 0.0
C372 C 0.97597 0.45115 0.86114 0.0
C373 C 0.05576 0.48227 0.79922 0.0
C374 C 0.04038 0.56236 0.69452 0.0
Mg375 Mg 0.99907 0.44788 0.7226 0.0
O376 O 0.99639 0.47896 0.71415 0.0
Mg377 Mg 0.01522 0.50973 0.78887 0.0
Mg378 Mg 0.00661 0.49871 0.62934 0.0
O379 O 0.01686 0.51869 0.54487 0.0
Mg380 Mg 0.01151 0.5485 0.54042 0.0
Mg381 Mg 0.99711 0.48764 0.47088 0.0
C382 C 0.97449 0.43534 0.56376 0.0
C383 C 0.04568 0.48212 0.54617 0.0
O384 O 0.99001 0.47742 0.86607 0.0
O385 O 0.97564 0.43599 0.80928 0.0
O386 O 0.04992 0.50102 0.81117 0.0
O387 O 0.03971 0.46009 0.76218 0.0
O388 O 0.98125 0.4278 0.61916 0.0
O389 O 0.97825 0.4596 0.56042 0.0
C390 C 0.96756 0.51578 0.7108 0.0
O391 O 0.97229 0.50884 0.65095 0.0
O392 O 0.98118 0.51733 0.76666 0.0
O393 O 0.0211 0.52031 0.39345 0.0
O394 O 0.03122 0.56101 0.44778 0.0
O395 O 0.96212 0.49617 0.45226 0.0
C396 C 0.03227 0.54651 0.39636 0.0
O397 O 0.96941 0.53419 0.51191 0.0
O398 O 0.03292 0.57004 0.64049 0.0
C399 C 0.95452 0.51319 0.46962 0.0
O400 O 0.03489 0.53758 0.69891 0.0
O401 O 0.04121 0.48911 0.60643 0.0
O402 O 0.03154 0.48026 0.49092 0.0
C403 C 0.49663 0.0362 0.88259 0.0
C404 C 0.43814 0.95977 0.77487 0.0
C405 C 0.52716 0.96165 0.67089 0.0
Mg406 Mg 0.46999 0.01882 0.73319 0.0
O407 O 0.50049 0.01587 0.72282 0.0
Mg408 Mg 0.50654 0.99167 0.78382 0.0
Mg409 Mg 0.50772 0.0051 0.63081 0.0
O410 O 0.51488 0.99419 0.5391 0.0
Mg411 Mg 0.54507 0.99055 0.52993 0.0
Mg412 Mg 0.50937 0.01871 0.47815 0.0
C413 C 0.48629 0.04611 0.5889 0.0
C414 C 0.45139 0.97521 0.52968 0.0
O415 O 0.504 0.01814 0.87797 0.0
O416 O 0.48451 0.04068 0.83215 0.0
O417 O 0.46096 0.96115 0.78703 0.0
O418 O 0.43637 0.9793 0.75002 0.0
O419 O 0.47178 0.03977 0.64101 0.0
O420 O 0.50447 0.03934 0.58086 0.0
C421 C 0.5642 0.03533 0.73112 0.0
O422 O 0.55345 0.03357 0.66973 0.0
O423 O 0.55039 0.02174 0.77936 0.0
O424 O 0.51189 0.99218 0.38386 0.0
O425 O 0.5313 0.96961 0.42992 0.0
O426 O 0.55514 0.04797 0.47389 0.0
C427 C 0.51945 0.97425 0.37919 0.0
O428 O 0.57929 0.02998 0.51469 0.0
O429 O 0.54157 0.96725 0.61867 0.0
C430 C 0.57786 0.04911 0.48613 0.0
O431 O 0.51114 0.97106 0.6811 0.0
O432 O 0.46194 0.97641 0.59102 0.0
O433 O 0.46556 0.98935 0.48255 0.0
C434 C 0.54475 0.57342 0.42819 0.0
C435 C 0.5823 0.5276 0.48922 0.0
C436 C 0.48204 0.45008 0.545 0.0
Mg437 Mg 0.56349 0.56222 0.56916 0.0
O438 O 0.52709 0.53505 0.55838 0.0
Mg439 Mg 0.51573 0.50874 0.47387 0.0
Mg440 Mg 0.51331 0.50994 0.63294 0.0
O441 O 0.49975 0.4848 0.70745 0.0
Mg442 Mg 0.46427 0.45556 0.6971 0.0
Mg443 Mg 0.51063 0.51134 0.79122 0.0
C444 C 0.54664 0.56892 0.72194 0.0
C445 C 0.56498 0.5174 0.73049 0.0
O446 O 0.52906 0.54757 0.41199 0.0
O447 O 0.55933 0.58306 0.48602 0.0
O448 O 0.55771 0.51353 0.46417 0.0
O449 O 0.58952 0.54679 0.53738 0.0
O450 O 0.56337 0.57728 0.67463 0.0
O451 O 0.52439 0.54572 0.71423 0.0
C452 C 0.46143 0.50216 0.53557 0.0
O453 O 0.47068 0.50358 0.59845 0.0
O454 O 0.47504 0.50407 0.48375 0.0
O455 O 0.49768 0.47352 0.85546 0.0
O456 O 0.46943 0.43624 0.78299 0.0
O457 O 0.46761 0.50477 0.79849 0.0
C458 C 0.48309 0.4475 0.84133 0.0
O459 O 0.43684 0.4693 0.72799 0.0
O460 O 0.46574 0.44007 0.59278 0.0
C461 C 0.44303 0.48883 0.77452 0.0
O462 O 0.50249 0.47451 0.55151 0.0
O463 O 0.55564 0.51571 0.66755 0.0
O464 O 0.55168 0.51631 0.78254 0.0
C465 C 0.08709 0.46072 0.44736 0.0
C466 C 0.11299 0.48402 0.45923 0.0
C467 C 0.06566 0.45819 0.48452 0.0
C468 C 0.06925 0.47882 0.53492 0.0
H469 H 0.08258 0.44559 0.40451 0.0
H470 H 0.04551 0.44133 0.46854 0.0
S471 S 0.13433 0.54027 0.59822 0.0
N472 N 0.14216 0.52528 0.53517 0.0
N473 N 0.10149 0.5207 0.60376 0.0
C474 C 0.09562 0.50035 0.55373 0.0
C475 C 0.11758 0.50297 0.5159 0.0
C476 C 0.64488 0.0801 0.405 0.0
C477 C 0.64094 0.09391 0.35128 0.0
C478 C 0.62557 0.06795 0.45337 0.0
C479 C 0.60139 0.06889 0.44962 0.0
H480 H 0.66252 0.07771 0.40798 0.0
H481 H 0.62892 0.05627 0.4912 0.0
S482 S 0.58258 0.10459 0.32126 0.0
N483 N 0.61203 0.10936 0.29965 0.0
N484 N 0.576 0.087 0.39011 0.0
C485 C 0.59826 0.0844 0.39888 0.0
C486 C 0.6179 0.0967 0.34975 0.0
C487 C 0.55754 0.64085 0.36801 0.0
C488 C 0.5526 0.6356 0.29562 0.0
C489 C 0.55409 0.62027 0.40998 0.0
C490 C 0.54564 0.59357 0.38129 0.0
H491 H 0.56474 0.66122 0.39229 0.0
H492 H 0.55857 0.62556 0.46556 0.0
S493 S 0.52905 0.56912 0.19423 0.0
N494 N 0.53805 0.60175 0.19645 0.0
N495 N 0.53128 0.56276 0.27595 0.0
C496 C 0.53953 0.58772 0.30905 0.0
C497 C 0.5431 0.60883 0.26606 0.0
C498 C 0.91729 0.54037 0.36529 0.0
C499 C 0.90451 0.52023 0.30909 0.0
C500 C 0.93078 0.53659 0.42225 0.0
C501 C 0.93226 0.51258 0.42499 0.0
H502 H 0.91812 0.55984 0.36349 0.0
H503 H 0.942 0.5536 0.46135 0.0
S504 S 0.89749 0.45143 0.29751 0.0
N505 N 0.89087 0.47392 0.26433 0.0
N506 N 0.91568 0.46649 0.37188 0.0
C507 C 0.91695 0.4911 0.37281 0.0
C508 C 0.90328 0.49502 0.31462 0.0
C509 C 0.38979 0.94333 0.40711 0.0
C510 C 0.38032 0.91527 0.41045 0.0
C511 C 0.41038 0.96291 0.45452 0.0
C512 C 0.42288 0.95538 0.50631 0.0
H513 H 0.38328 0.95064 0.36384 0.0
H514 H 0.41865 0.98425 0.44562 0.0
S515 S 0.40025 0.88493 0.55126 0.0
N516 N 0.38036 0.88098 0.48156 0.0
N517 N 0.42058 0.91821 0.56804 0.0
C518 C 0.41126 0.92759 0.5166 0.0
C519 C 0.38974 0.90743 0.46894 0.0
C520 C 0.47218 0.38587 0.4505 0.0
C521 C 0.46677 0.38886 0.38103 0.0
C522 C 0.47794 0.40643 0.50267 0.0
C523 C 0.47897 0.43083 0.487 0.0
H524 H 0.47106 0.36714 0.46492 0.0
H525 H 0.48119 0.40302 0.55603 0.0
S526 S 0.46782 0.4493 0.31279 0.0
N527 N 0.4638 0.41844 0.29851 0.0
N528 N 0.47503 0.45738 0.39749 0.0
C529 C 0.47456 0.43458 0.41763 0.0
C530 C 0.46829 0.41344 0.36433 0.0
C531 C 0.54448 0.94215 0.84135 0.0
C532 C 0.54913 0.92089 0.81965 0.0
C533 C 0.53558 0.95423 0.79347 0.0
C534 C 0.53144 0.94567 0.72232 0.0
H535 H 0.54829 0.94985 0.89563 0.0
H536 H 0.53337 0.97123 0.81207 0.0
S537 S 0.53883 0.88936 0.64015 0.0
N538 N 0.54734 0.89055 0.72363 0.0
N539 N 0.53092 0.9135 0.63297 0.0
C540 C 0.53499 0.92367 0.70046 0.0
C541 C 0.54373 0.91117 0.74934 0.0
C542 C 0.6163 0.50415 0.81424 0.0
C543 C 0.6353 0.53045 0.84497 0.0
C544 C 0.59502 0.50007 0.76684 0.0
C545 C 0.5923 0.52217 0.74756 0.0
H546 H 0.61672 0.48638 0.83071 0.0
H547 H 0.57919 0.47934 0.75051 0.0
S548 S 0.63835 0.59523 0.80432 0.0
N549 N 0.65119 0.57918 0.84649 0.0
N550 N 0.61172 0.57123 0.75562 0.0
C551 C 0.61266 0.54865 0.77169 0.0
C552 C 0.63407 0.5529 0.82085 0.0
C553 C 0.0655 0.59919 0.87458 0.0
C554 C 0.08698 0.62476 0.86073 0.0
C555 C 0.05069 0.57864 0.82073 0.0
C556 C 0.05666 0.58334 0.75149 0.0
H557 H 0.06025 0.59503 0.92745 0.0
H558 H 0.03415 0.5593 0.83319 0.0
S559 S 0.11111 0.64675 0.68855 0.0
N560 N 0.11376 0.65353 0.77362 0.0
N561 N 0.08563 0.61516 0.67196 0.0
C562 C 0.0781 0.60883 0.73715 0.0
C563 C 0.09339 0.6295 0.79197 0.0
C564 C 0.47777 0.05453 0.04932 0.0
C565 C 0.48932 0.08297 0.04735 0.0
C566 C 0.48336 0.03924 0.00055 0.0
C567 C 0.50054 0.05205 0.94853 0.0
H568 H 0.46279 0.04381 0.08544 0.0
H569 H 0.47206 0.01716 -0.00084 0.0
S570 S 0.53917 0.12619 0.92799 0.0
N571 N 0.52143 0.1236 0.99503 0.0
N572 N 0.53178 0.09474 0.90304 0.0
C573 C 0.51435 0.08066 0.95061 0.0
C574 C 0.50879 0.09623 0.0003 0.0
C575 C 0.41071 0.50534 0.92187 0.0
C576 C 0.38398 0.48341 0.91467 0.0
C577 C 0.42898 0.50822 0.87276 0.0
C578 C 0.4214 0.48937 0.81384 0.0
H579 H 0.41817 0.51953 0.96817 0.0
H580 H 0.44967 0.52435 0.88391 0.0
S581 S 0.35216 0.43096 0.76469 0.0
N582 N 0.34965 0.44449 0.83976 0.0
N583 N 0.38394 0.44981 0.74708 0.0
C584 C 0.39404 0.46857 0.80314 0.0
C585 C 0.3754 0.46555 0.85365 0.0
C586 C 0.95299 0.40686 0.00726 0.0
C587 C 0.9247 0.3931 0.99308 0.0
C588 C 0.96991 0.42842 0.96915 0.0
C589 C 0.95901 0.43687 0.91608 0.0
H590 H 0.96211 0.39987 0.0454 0.0
H591 H 0.9916 0.43702 0.97746 0.0
S592 S 0.88647 0.40965 0.86366 0.0
N593 N 0.88655 0.39112 0.92677 0.0
N594 N 0.91855 0.43169 0.85465 0.0
C595 C 0.93083 0.42474 0.90494 0.0
C596 C 0.91356 0.40283 0.94383 0.0
C597 C 0.90281 0.50613 0.76902 0.0
C598 C 0.91168 0.53173 0.80586 0.0
C599 C 0.91992 0.50171 0.72709 0.0
C600 C 0.94636 0.52281 0.72 0.0
H601 H 0.88325 0.48886 0.77675 0.0
H602 H 0.91345 0.48106 0.70627 0.0
S603 S 0.97844 0.59427 0.79702 0.0
N604 N 0.94811 0.57909 0.82607 0.0
N605 N 0.97959 0.57069 0.74594 0.0
C606 C 0.95437 0.54906 0.75006 0.0
C607 C 0.93723 0.55358 0.79341 0.0
C608 C 0.38259 0.92968 0.89552 0.0
C609 C 0.38106 0.90468 0.90768 0.0
C610 C 0.399 0.94619 0.84618 0.0
C611 C 0.41481 0.93853 0.80771 0.0
H612 H 0.37251 0.93749 0.92754 0.0
H613 H 0.40106 0.96614 0.84262 0.0
S614 S 0.41365 0.87263 0.80866 0.0
N615 N 0.39306 0.87095 0.8677 0.0
N616 N 0.42491 0.90268 0.77758 0.0
C617 C 0.4117 0.91263 0.81495 0.0
C618 C 0.39463 0.89557 0.86428 0.0
C619 C 0.49016 0.39317 0.92635 0.0
C620 C 0.47011 0.3848 0.97341 0.0
C621 C 0.49554 0.41491 0.8862 0.0
C622 C 0.48148 0.42919 0.89344 0.0
H623 H 0.50093 0.38217 0.91864 0.0
H624 H 0.51005 0.41997 0.84757 0.0
S625 S 0.4289 0.4168 0.01358 0.0
N626 N 0.43744 0.39352 0.02825 0.0
N627 N 0.44782 0.43457 0.95271 0.0
C628 C 0.46233 0.42186 0.94239 0.0
C629 C 0.4566 0.39958 0.98259 0.0
C630 C 0.08279 0.47058 0.96584 0.0
C631 C 0.11095 0.4883 0.96762 0.0
C632 C 0.06554 0.46737 0.90806 0.0
C633 C 0.07555 0.48208 0.84998 0.0
H634 H 0.07365 0.45989 0.01062 0.0
H635 H 0.04394 0.45438 0.91052 0.0
S636 S 0.14728 0.52919 0.82372 0.0
N637 N 0.14812 0.51879 0.90161 0.0
N638 N 0.11501 0.51399 0.79501 0.0
C639 C 0.10347 0.49932 0.84942 0.0
C640 C 0.12132 0.50213 0.90773 0.0
C641 C 0.63005 0.05716 0.82768 0.0
C642 C 0.63827 0.08431 0.85126 0.0
C643 C 0.6078 0.04217 0.77881 0.0
C644 C 0.59308 0.0538 0.75137 0.0
H645 H 0.63917 0.04653 0.85175 0.0
H646 H 0.60036 0.02052 0.76789 0.0
S647 S 0.60951 0.12551 0.78483 0.0
N648 N 0.63268 0.12351 0.83431 0.0
N649 N 0.59035 0.09489 0.74346 0.0
C650 C 0.60283 0.08166 0.76839 0.0
C651 C 0.62552 0.09702 0.8183 0.0
C652 C 0.58687 0.63142 0.84814 0.0
C653 C 0.56714 0.63178 0.8877 0.0
C654 C 0.58012 0.6101 0.79745 0.0
C655 C 0.55338 0.58813 0.78434 0.0
H656 H 0.60753 0.64826 0.85451 0.0
H657 H 0.59595 0.61152 0.76645 0.0
S658 S 0.49472 0.5785 0.87843 0.0
N659 N 0.52022 0.60755 0.91476 0.0
N660 N 0.50731 0.56747 0.81805 0.0
C661 C 0.53365 0.58761 0.8258 0.0
C662 C 0.54057 0.60948 0.87761 0.0
C663 C 0.44583 0.06815 0.478 0.0
C664 C 0.4652 0.08766 0.43875 0.0
C665 C 0.45289 0.05445 0.52501 0.0
C666 C 0.47962 0.05969 0.53486 0.0
H667 H 0.42501 0.0635 0.47267 0.0
H668 H 0.43718 0.0396 0.55401 0.0
S669 S 0.53815 0.10946 0.44695 0.0
N670 N 0.51237 0.1116 0.4129 0.0
N671 N 0.52572 0.08618 0.50337 0.0
C672 C 0.49926 0.07913 0.4963 0.0
C673 C 0.49206 0.09314 0.44805 0.0
C674 C 0.40614 0.50957 0.45282 0.0
C675 C 0.39024 0.48352 0.41662 0.0
C676 C 0.42746 0.515 0.50196 0.0
C677 C 0.43323 0.49444 0.51747 0.0
H678 H 0.40335 0.52638 0.43946 0.0
H679 H 0.44108 0.53593 0.52262 0.0
S680 S 0.39625 0.42232 0.44406 0.0
N681 N 0.38072 0.43648 0.40474 0.0
N682 N 0.42005 0.4467 0.49886 0.0
C683 C 0.4158 0.46778 0.48744 0.0
C684 C 0.39447 0.46228 0.43646 0.0
C685 C 0.93043 0.39745 0.39794 0.0
C686 C 0.93158 0.3732 0.39327 0.0
C687 C 0.94522 0.41801 0.45173 0.0
C688 C 0.96152 0.41493 0.50301 0.0
H689 H 0.91801 0.40057 0.35967 0.0
H690 H 0.94325 0.43607 0.45411 0.0
S691 S 0.97227 0.35562 0.51196 0.0
N692 N 0.95069 0.34746 0.44313 0.0
N693 N 0.97896 0.38617 0.54342 0.0
C694 C 0.96336 0.39101 0.4977 0.0
C695 C 0.94827 0.37013 0.44305 0.0
C696 C 0.54087 0.95913 0.21261 0.0
C697 C 0.53098 0.93089 0.21369 0.0
C698 C 0.53376 0.97309 0.26145 0.0
C699 C 0.51668 0.95916 0.31273 0.0
H700 H 0.55565 0.97078 0.17692 0.0
H701 H 0.54383 0.99518 0.26351 0.0
S702 S 0.48224 0.88485 0.33133 0.0
N703 N 0.50065 0.8891 0.26487 0.0
N704 N 0.4874 0.91547 0.35673 0.0
C705 C 0.50454 0.93063 0.30983 0.0
C706 C 0.51168 0.9164 0.26017 0.0
C707 C 0.64725 0.55072 0.40251 0.0
C708 C 0.63935 0.53054 0.34675 0.0
C709 C 0.62959 0.54831 0.45322 0.0
C710 C 0.60316 0.52569 0.4499 0.0
H711 H 0.66685 0.56916 0.40521 0.0
H712 H 0.63609 0.56528 0.49222 0.0
S713 S 0.57394 0.46527 0.32016 0.0
N714 N 0.6043 0.48583 0.29546 0.0
N715 N 0.57134 0.481 0.39115 0.0
C716 C 0.59591 0.50425 0.39787 0.0
C717 C 0.61389 0.50675 0.34618 0.0
C718 C 0.05776 0.59797 0.26595 0.0
C719 C 0.08511 0.60512 0.2664 0.0
C720 C 0.03976 0.57675 0.30313 0.0
C721 C 0.04834 0.56161 0.34085 0.0
H722 H 0.05046 0.60961 0.23889 0.0
H723 H 0.01939 0.57318 0.30567 0.0
S724 S 0.117 0.57044 0.35486 0.0
N725 N 0.11944 0.59419 0.30475 0.0
N726 N 0.08517 0.55379 0.37384 0.0
C727 C 0.07503 0.56719 0.33816 0.0
C728 C 0.09355 0.58906 0.30087 0.0
loop_
_geom_bond_atom_site_label_1
_geom_bond_atom_site_label_2
_geom_bond_distance
_geom_bond_site_symmetry_2
_ccdc_geom_bond_type
H0 C27 0.929 . S
N1 C26 1.433 . S
N1 C32 1.435 . S
N1 C38 1.423 . S
H2 C28 0.930 . S
H3 C31 0.931 . S
H4 C30 0.929 . S
H5 C33 0.930 . S
H6 C34 0.932 . S
H7 C37 0.929 . S
H8 C36 0.931 1_556 S
H9 C39 0.929 . S
H10 C43 0.932 . S
H11 C40 0.931 . S
H12 C42 0.929 . S
H13 C45 0.929 . S
H14 C46 0.930 . S
H15 C48 0.929 . S
H16 C49 0.931 . S
H17 C51 0.930 . S
H18 C52 0.932 . S
H19 C54 0.931 1_556 S
H20 C55 0.929 . S
H21 C57 0.929 . S
H22 C58 0.931 . S
H23 C60 0.929 . S
N24 C44 1.433 . S
N24 C50 1.435 . S
N24 C56 1.423 . S
H25 C61 0.932 . S
C26 N1 1.433 . S
C26 C27 1.363 . S
C26 C31 1.370 . S
C27 H0 0.929 . S
C27 C26 1.363 . S
C27 C28 1.385 . S
C28 H2 0.930 . S
C28 C27 1.385 . S
C28 C29 1.357 . S
C29 C28 1.357 . S
C29 C30 1.406 . S
C30 H4 0.929 . S
C30 C29 1.406 . S
C30 C31 1.391 . S
C31 H3 0.931 . S
C31 C26 1.370 . S
C31 C30 1.391 . S
C32 N1 1.435 . S
C32 C33 1.358 . S
C32 C37 1.371 . S
C33 H5 0.930 . S
C33 C32 1.358 . S
C33 C34 1.405 . S
C34 H6 0.932 . S
C34 C33 1.405 . S
C34 C35 1.383 . S
C35 C34 1.383 . S
C35 C36 1.393 . S
C36 H8 0.931 1_554 S
C36 C35 1.393 . S
C36 C37 1.382 . S
C37 H7 0.929 . S
C37 C32 1.371 . S
C37 C36 1.382 . S
C38 N1 1.423 . S
C38 C39 1.362 . S
C38 C43 1.388 . S
C39 H9 0.929 . S
C39 C38 1.362 . S
C39 C40 1.376 . S
C40 H11 0.931 . S
C40 C39 1.376 . S
C40 C41 1.396 . S
C41 C40 1.396 . S
C41 C42 1.348 . S
C41 C59 1.472 . S
C42 H12 0.929 . S
C42 C41 1.348 . S
C42 C43 1.443 . S
C43 H10 0.932 . S
C43 C38 1.388 . S
C43 C42 1.443 . S
C44 N24 1.433 . S
C44 C45 1.363 . S
C44 C49 1.370 . S
C45 H13 0.929 . S
C45 C44 1.363 . S
C45 C46 1.385 . S
C46 H14 0.930 . S
C46 C45 1.385 . S
C46 C47 1.357 . S
C47 C46 1.357 . S
C47 C48 1.406 . S
C48 H15 0.929 . S
C48 C47 1.406 . S
C48 C49 1.391 . S
C49 H16 0.931 . S
C49 C44 1.370 . S
C49 C48 1.391 . S
C50 N24 1.435 . S
C50 C51 1.358 . S
C50 C55 1.371 . S
C51 H17 0.930 . S
C51 C50 1.358 . S
C51 C52 1.405 . S
C52 H18 0.932 . S
C52 C51 1.405 . S
C52 C53 1.383 . S
C53 C52 1.383 . S
C53 C54 1.393 . S
C54 H19 0.931 1_554 S
C54 C53 1.393 . S
C54 C55 1.382 . S
C55 H20 0.929 . S
C55 C50 1.371 . S
C55 C54 1.382 . S
C56 N24 1.423 . S
C56 C57 1.362 . S
C56 C61 1.388 . S
C57 H21 0.929 . S
C57 C56 1.362 . S
C57 C58 1.376 . S
C58 H22 0.931 . S
C58 C57 1.376 . S
C58 C59 1.396 . S
C59 C41 1.472 . S
C59 C58 1.396 . S
C59 C60 1.348 . S
C60 H23 0.929 . S
C60 C59 1.348 . S
C60 C61 1.443 . S
C61 H25 0.932 . S
C61 C56 1.388 . S
C61 C60 1.443 . S
H62 C89 0.929 . S
N63 C88 1.433 . S
N63 C94 1.435 . S
N63 C100 1.423 . S
H64 C90 0.930 . S
H65 C93 0.931 . S
H66 C92 0.929 . S
H67 C95 0.930 . S
H68 C96 0.932 . S
H69 C99 0.929 . S
H70 C98 0.931 . S
H71 C101 0.929 . S
H72 C105 0.932 . S
H73 C102 0.931 . S
H74 C104 0.929 . S
H75 C107 0.929 . S
H76 C108 0.930 . S
H77 C110 0.929 . S
H78 C111 0.931 . S
H79 C113 0.930 . S
H80 C114 0.932 . S
H81 C116 0.931 . S
H82 C117 0.929 . S
H83 C119 0.929 . S
H84 C120 0.931 . S
H85 C122 0.929 . S
N86 C106 1.433 . S
N86 C112 1.435 . S
N86 C118 1.423 . S
H87 C123 0.932 . S
C88 N63 1.433 . S
C88 C89 1.363 . S
C88 C93 1.370 . S
C89 H62 0.929 . S
C89 C88 1.363 . S
C89 C90 1.385 . S
C90 H64 0.930 . S
C90 C89 1.385 . S
C90 C91 1.357 . S
C91 C90 1.357 . S
C91 C92 1.406 . S
C92 H66 0.929 . S
C92 C91 1.406 . S
C92 C93 1.391 . S
C93 H65 0.931 . S
C93 C88 1.370 . S
C93 C92 1.391 . S
C94 N63 1.435 . S
C94 C95 1.358 . S
C94 C99 1.371 . S
C95 H67 0.930 . S
C95 C94 1.358 . S
C95 C96 1.405 . S
C96 H68 0.932 . S
C96 C95 1.405 . S
C96 C97 1.383 1_554 S
C97 C96 1.383 1_556 S
C97 C98 1.393 . S
C98 H70 0.931 . S
C98 C97 1.393 . S
C98 C99 1.382 1_556 S
C99 H69 0.929 . S
C99 C94 1.371 . S
C99 C98 1.382 1_554 S
C100 N63 1.423 . S
C100 C101 1.362 . S
C100 C105 1.388 . S
C101 H71 0.929 . S
C101 C100 1.362 . S
C101 C102 1.376 . S
C102 H73 0.931 . S
C102 C101 1.376 . S
C102 C103 1.396 . S
C103 C102 1.396 . S
C103 C104 1.348 . S
C103 C121 1.472 . S
C104 H74 0.929 . S
C104 C103 1.348 . S
C104 C105 1.443 . S
C105 H72 0.932 . S
C105 C100 1.388 . S
C105 C104 1.443 . S
C106 N86 1.433 . S
C106 C107 1.363 . S
C106 C111 1.370 . S
C107 H75 0.929 . S
C107 C106 1.363 . S
C107 C108 1.385 . S
C108 H76 0.930 . S
C108 C107 1.385 . S
C108 C109 1.357 . S
C109 C108 1.357 . S
C109 C110 1.406 . S
C110 H77 0.929 . S
C110 C109 1.406 . S
C110 C111 1.391 . S
C111 H78 0.931 . S
C111 C106 1.370 . S
C111 C110 1.391 . S
C112 N86 1.435 . S
C112 C113 1.358 . S
C112 C117 1.371 . S
C113 H79 0.930 . S
C113 C112 1.358 . S
C113 C114 1.405 . S
C114 H80 0.932 . S
C114 C113 1.405 . S
C114 C115 1.383 1_554 S
C115 C114 1.383 1_556 S
C115 C116 1.393 . S
C116 H81 0.931 . S
C116 C115 1.393 . S
C116 C117 1.382 1_556 S
C117 H82 0.929 . S
C117 C112 1.371 . S
C117 C116 1.382 1_554 S
C118 N86 1.423 . S
C118 C119 1.362 . S
C118 C123 1.388 . S
C119 H83 0.929 . S
C119 C118 1.362 . S
C119 C120 1.376 . S
C120 H84 0.931 . S
C120 C119 1.376 . S
C120 C121 1.396 . S
C121 C103 1.472 . S
C121 C120 1.396 . S
C121 C122 1.348 . S
C122 H85 0.929 . S
C122 C121 1.348 . S
C122 C123 1.443 . S
C123 H87 0.932 . S
C123 C118 1.388 . S
C123 C122 1.443 . S
H124 C151 0.929 . S
N125 C150 1.433 1_554 S
N125 C156 1.435 . S
N125 C162 1.423 . S
H126 C152 0.930 . S
H127 C155 0.931 . S
H128 C154 0.929 . S
H129 C157 0.930 . S
H130 C158 0.932 . S
H131 C161 0.929 . S
H132 C160 0.931 . S
H133 C163 0.929 1_556 S
H134 C167 0.932 . S
H135 C164 0.931 1_556 S
H136 C166 0.929 . S
H137 C169 0.929 . S
H138 C170 0.930 . S
H139 C172 0.929 . S
H140 C173 0.931 . S
H141 C175 0.930 . S
H142 C176 0.932 . S
H143 C178 0.931 . S
H144 C179 0.929 . S
H145 C181 0.927 1_556 S
H146 C182 0.931 1_556 S
H147 C184 0.929 . S
N148 C168 1.433 1_554 S
N148 C174 1.435 . S
N148 C180 1.423 . S
H149 C185 0.932 . S
C150 N125 1.433 1_556 S
C150 C151 1.363 . S
C150 C155 1.370 . S
C151 H124 0.929 . S
C151 C150 1.363 . S
C151 C152 1.385 . S
C152 H126 0.930 . S
C152 C151 1.385 . S
C152 C153 1.357 . S
C153 C152 1.357 . S
C153 C154 1.406 . S
C154 H128 0.929 . S
C154 C153 1.406 . S
C154 C155 1.391 . S
C155 H127 0.931 . S
C155 C150 1.370 . S
C155 C154 1.391 . S
C156 N125 1.435 . S
C156 C157 1.358 . S
C156 C161 1.371 . S
C157 H129 0.930 . S
C157 C156 1.358 . S
C157 C158 1.405 . S
C158 H130 0.932 . S
C158 C157 1.405 . S
C158 C159 1.383 . S
C159 C158 1.383 . S
C159 C160 1.393 . S
C160 H132 0.931 . S
C160 C159 1.393 . S
C160 C161 1.382 . S
C161 H131 0.929 . S
C161 C156 1.371 . S
C161 C160 1.382 . S
C162 N125 1.423 . S
C162 C163 1.362 . S
C162 C167 1.388 . S
C163 H133 0.929 1_554 S
C163 C162 1.362 . S
C163 C164 1.376 . S
C164 H135 0.931 1_554 S
C164 C163 1.376 . S
C164 C165 1.396 . S
C165 C164 1.396 . S
C165 C166 1.348 . S
C165 C183 1.472 . S
C166 H136 0.929 . S
C166 C165 1.348 . S
C166 C167 1.443 . S
C167 H134 0.932 . S
C167 C162 1.388 . S
C167 C166 1.443 . S
C168 N148 1.433 1_556 S
C168 C169 1.363 . S
C168 C173 1.370 . S
C169 H137 0.929 . S
C169 C168 1.363 . S
C169 C170 1.385 . S
C170 H138 0.930 . S
C170 C169 1.385 . S
C170 C171 1.357 . S
C171 C170 1.357 . S
C171 C172 1.406 . S
C172 H139 0.929 . S
C172 C171 1.406 . S
C172 C173 1.391 . S
C173 H140 0.931 . S
C173 C168 1.370 . S
C173 C172 1.391 . S
C174 N148 1.435 . S
C174 C175 1.358 . S
C174 C179 1.371 . S
C175 H141 0.930 . S
C175 C174 1.358 . S
C175 C176 1.405 . S
C176 H142 0.932 . S
C176 C175 1.405 . S
C176 C177 1.383 . S
C177 C176 1.383 . S
C177 C178 1.393 . S
C178 H143 0.931 . S
C178 C177 1.393 . S
C178 C179 1.382 . S
C179 H144 0.929 . S
C179 C174 1.371 . S
C179 C178 1.382 . S
C180 N148 1.423 . S
C180 C181 1.364 . S
C180 C185 1.388 . S
C181 H145 0.927 1_554 S
C181 C180 1.364 . S
C181 C182 1.377 . S
C182 H146 0.931 1_554 S
C182 C181 1.377 . S
C182 C183 1.396 . S
C183 C165 1.472 . S
C183 C182 1.396 . S
C183 C184 1.348 . S
C184 H147 0.929 . S
C184 C183 1.348 . S
C184 C185 1.443 . S
C185 H149 0.932 . S
C185 C180 1.388 . S
C185 C184 1.443 . S
H186 C213 0.929 . S
N187 C212 1.433 . S
N187 C218 1.435 . S
N187 C224 1.423 . S
H188 C214 0.930 . S
H189 C217 0.931 . S
H190 C216 0.929 . S
H191 C219 0.930 . S
H192 C220 0.932 . S
H193 C223 0.929 . S
H194 C222 0.931 . S
H195 C225 0.929 . S
H196 C229 0.932 1_556 S
H197 C226 0.931 . S
H198 C228 0.929 1_556 S
H199 C231 0.929 . S
H200 C232 0.930 . S
H201 C234 0.929 . S
H202 C235 0.931 . S
H203 C237 0.930 . S
H204 C238 0.932 . S
H205 C240 0.931 . S
H206 C241 0.929 . S
H207 C243 0.929 . S
H208 C244 0.931 . S
H209 C246 0.929 1_556 S
N210 C230 1.433 . S
N210 C236 1.435 . S
N210 C242 1.423 . S
H211 C247 0.932 1_556 S
C212 N187 1.433 . S
C212 C213 1.363 . S
C212 C217 1.370 . S
C213 H186 0.929 . S
C213 C212 1.363 . S
C213 C214 1.385 . S
C214 H188 0.930 . S
C214 C213 1.385 . S
C214 C215 1.357 . S
C215 C214 1.357 . S
C215 C216 1.406 . S
C216 H190 0.929 . S
C216 C215 1.406 . S
C216 C217 1.391 . S
C217 H189 0.931 . S
C217 C212 1.370 . S
C217 C216 1.391 . S
C218 N187 1.435 . S
C218 C219 1.358 . S
C218 C223 1.371 1_554 S
C219 H191 0.930 . S
C219 C218 1.358 . S
C219 C220 1.405 1_554 S
C220 H192 0.932 . S
C220 C219 1.405 1_556 S
C220 C221 1.383 . S
C221 C220 1.383 . S
C221 C222 1.393 . S
C222 H194 0.931 . S
C222 C221 1.393 . S
C222 C223 1.382 . S
C223 H193 0.929 . S
C223 C218 1.371 1_556 S
C223 C222 1.382 . S
C224 N187 1.423 . S
C224 C225 1.362 . S
C224 C229 1.388 . S
C225 H195 0.929 . S
C225 C224 1.362 . S
C225 C226 1.376 . S
C226 H197 0.931 . S
C226 C225 1.376 . S
C226 C227 1.396 . S
C227 C226 1.396 . S
C227 C228 1.348 . S
C227 C245 1.472 . S
C228 H198 0.929 1_554 S
C228 C227 1.348 . S
C228 C229 1.443 . S
C229 H196 0.932 1_554 S
C229 C224 1.388 . S
C229 C228 1.443 . S
C230 N210 1.433 . S
C230 C231 1.363 . S
C230 C235 1.370 . S
C231 H199 0.929 . S
C231 C230 1.363 . S
C231 C232 1.385 . S
C232 H200 0.930 . S
C232 C231 1.385 . S
C232 C233 1.357 . S
C233 C232 1.357 . S
C233 C234 1.406 . S
C234 H201 0.929 . S
C234 C233 1.406 . S
C234 C235 1.391 . S
C235 H202 0.931 . S
C235 C230 1.370 . S
C235 C234 1.391 . S
C236 N210 1.435 . S
C236 C237 1.358 . S
C236 C241 1.371 1_554 S
C237 H203 0.930 . S
C237 C236 1.358 . S
C237 C238 1.405 1_554 S
C238 H204 0.932 . S
C238 C237 1.405 1_556 S
C238 C239 1.383 . S
C239 C238 1.383 . S
C239 C240 1.393 . S
C240 H205 0.931 . S
C240 C239 1.393 . S
C240 C241 1.382 . S
C241 H206 0.929 . S
C241 C236 1.371 1_556 S
C241 C240 1.382 . S
C242 N210 1.423 . S
C242 C243 1.362 . S
C242 C247 1.388 . S
C243 H207 0.929 . S
C243 C242 1.362 . S
C243 C244 1.376 . S
C244 H208 0.931 . S
C244 C243 1.376 . S
C244 C245 1.396 . S
C245 C227 1.472 . S
C245 C244 1.396 . S
C245 C246 1.348 . S
C246 H209 0.929 1_554 S
C246 C245 1.348 . S
C246 C247 1.443 . S
C247 H211 0.932 1_554 S
C247 C242 1.388 . S
C247 C246 1.443 . S
H248 C275 0.929 . S
N249 C274 1.433 . S
N249 C280 1.435 . S
N249 C286 1.423 . S
H250 C276 0.930 . S
H251 C279 0.931 . S
H252 C278 0.929 . S
H253 C281 0.930 . S
H254 C282 0.932 . S
H255 C285 0.929 . S
H256 C284 0.931 . S
H257 C287 0.929 . S
H258 C291 0.932 . S
H259 C288 0.931 . S
H260 C290 0.929 . S
H261 C293 0.929 . S
H262 C294 0.930 . S
H263 C296 0.929 . S
H264 C297 0.931 . S
H265 C299 0.930 . S
H266 C300 0.932 . S
H267 C302 0.931 . S
H268 C303 0.929 . S
H269 C305 0.929 . S
H270 C306 0.931 . S
H271 C308 0.929 . S
N272 C292 1.433 . S
N272 C298 1.435 . S
N272 C304 1.423 . S
H273 C309 0.932 . S
C274 N249 1.433 . S
C274 C275 1.363 . S
C274 C279 1.370 . S
C275 H248 0.929 . S
C275 C274 1.363 . S
C275 C276 1.385 . S
C276 H250 0.930 . S
C276 C275 1.385 . S
C276 C277 1.357 . S
C277 C276 1.357 . S
C277 C278 1.406 . S
C278 H252 0.929 . S
C278 C277 1.406 . S
C278 C279 1.391 . S
C279 H251 0.931 . S
C279 C274 1.370 . S
C279 C278 1.391 . S
C280 N249 1.435 . S
C280 C281 1.358 . S
C280 C285 1.371 1_554 S
C281 H253 0.930 . S
C281 C280 1.358 . S
C281 C282 1.405 1_554 S
C282 H254 0.932 . S
C282 C281 1.405 1_556 S
C282 C283 1.383 . S
C283 C282 1.383 . S
C283 C284 1.393 . S
C284 H256 0.931 . S
C284 C283 1.393 . S
C284 C285 1.382 . S
C285 H255 0.929 . S
C285 C280 1.371 1_556 S
C285 C284 1.382 . S
C286 N249 1.423 . S
C286 C287 1.362 . S
C286 C291 1.388 . S
C287 H257 0.929 . S
C287 C286 1.362 . S
C287 C288 1.376 . S
C288 H259 0.931 . S
C288 C287 1.376 . S
C288 C289 1.396 . S
C289 C288 1.396 . S
C289 C290 1.348 . S
C289 C307 1.472 . S
C290 H260 0.929 . S
C290 C289 1.348 . S
C290 C291 1.443 . S
C291 H258 0.932 . S
C291 C286 1.388 . S
C291 C290 1.443 . S
C292 N272 1.433 . S
C292 C293 1.363 . S
C292 C297 1.370 . S
C293 H261 0.929 . S
C293 C292 1.363 . S
C293 C294 1.385 . S
C294 H262 0.930 . S
C294 C293 1.385 . S
C294 C295 1.357 . S
C295 C294 1.357 . S
C295 C296 1.406 . S
C296 H263 0.929 . S
C296 C295 1.406 . S
C296 C297 1.391 . S
C297 H264 0.931 . S
C297 C292 1.370 . S
C297 C296 1.391 . S
C298 N272 1.435 . S
C298 C299 1.358 . S
C298 C303 1.371 1_554 S
C299 H265 0.930 . S
C299 C298 1.358 . S
C299 C300 1.405 . S
C300 H266 0.932 . S
C300 C299 1.405 . S
C300 C301 1.383 1_554 S
C301 C300 1.383 1_556 S
C301 C302 1.393 . S
C302 H267 0.931 . S
C302 C301 1.393 . S
C302 C303 1.382 . S
C303 H268 0.929 . S
C303 C298 1.371 1_556 S
C303 C302 1.382 . S
C304 N272 1.423 . S
C304 C305 1.362 . S
C304 C309 1.388 . S
C305 H269 0.929 . S
C305 C304 1.362 . S
C305 C306 1.376 . S
C306 H270 0.931 . S
C306 C305 1.376 . S
C306 C307 1.396 . S
C307 C289 1.472 . S
C307 C306 1.396 . S
C307 C308 1.348 . S
C308 H271 0.929 . S
C308 C307 1.348 . S
C308 C309 1.443 . S
C309 H273 0.932 . S
C309 C304 1.388 . S
C309 C308 1.443 . S
H310 C337 0.929 . S
N311 C336 1.433 . S
N311 C342 1.435 . S
N311 C348 1.423 . S
H312 C338 0.930 . S
H313 C341 0.931 . S
H314 C340 0.929 . S
H315 C343 0.930 . S
H316 C344 0.932 . S
H317 C347 0.929 . S
H318 C346 0.931 . S
H319 C349 0.929 . S
H320 C353 0.932 . S
H321 C350 0.931 . S
H322 C352 0.929 . S
H323 C355 0.929 . S
H324 C356 0.930 . S
H325 C358 0.929 . S
H326 C359 0.931 . S
H327 C361 0.930 . S
H328 C362 0.932 . S
H329 C364 0.931 . S
H330 C365 0.929 . S
H331 C367 0.929 . S
H332 C368 0.931 . S
H333 C370 0.929 . S
N334 C354 1.433 . S
N334 C360 1.435 . S
N334 C366 1.423 . S
H335 C371 0.932 . S
C336 N311 1.433 . S
C336 C337 1.363 . S
C336 C341 1.370 . S
C337 H310 0.929 . S
C337 C336 1.363 . S
C337 C338 1.385 . S
C338 H312 0.930 . S
C338 C337 1.385 . S
C338 C339 1.357 . S
C339 C338 1.357 . S
C339 C340 1.406 . S
C340 H314 0.929 . S
C340 C339 1.406 . S
C340 C341 1.391 . S
C341 H313 0.931 . S
C341 C336 1.370 . S
C341 C340 1.391 . S
C342 N311 1.435 . S
C342 C343 1.358 . S
C342 C347 1.371 . S
C343 H315 0.930 . S
C343 C342 1.358 . S
C343 C344 1.405 . S
C344 H316 0.932 . S
C344 C343 1.405 . S
C344 C345 1.383 . S
C345 C344 1.383 . S
C345 C346 1.393 . S
C346 H318 0.931 . S
C346 C345 1.393 . S
C346 C347 1.382 . S
C347 H317 0.929 . S
C347 C342 1.371 . S
C347 C346 1.382 . S
C348 N311 1.423 . S
C348 C349 1.362 . S
C348 C353 1.388 . S
C349 H319 0.929 . S
C349 C348 1.362 . S
C349 C350 1.376 . S
C350 H321 0.931 . S
C350 C349 1.376 . S
C350 C351 1.396 . S
C351 C350 1.396 . S
C351 C352 1.348 . S
C351 C369 1.472 . S
C352 H322 0.929 . S
C352 C351 1.348 . S
C352 C353 1.443 . S
C353 H320 0.932 . S
C353 C348 1.388 . S
C353 C352 1.443 . S
C354 N334 1.433 . S
C354 C355 1.363 . S
C354 C359 1.370 . S
C355 H323 0.929 . S
C355 C354 1.363 . S
C355 C356 1.385 . S
C356 H324 0.930 . S
C356 C355 1.385 . S
C356 C357 1.357 . S
C357 C356 1.357 . S
C357 C358 1.406 . S
C358 H325 0.929 . S
C358 C357 1.406 . S
C358 C359 1.391 . S
C359 H326 0.931 . S
C359 C354 1.370 . S
C359 C358 1.391 . S
C360 N334 1.435 . S
C360 C361 1.358 . S
C360 C365 1.371 . S
C361 H327 0.930 . S
C361 C360 1.358 . S
C361 C362 1.405 . S
C362 H328 0.932 . S
C362 C361 1.405 . S
C362 C363 1.383 . S
C363 C362 1.383 . S
C363 C364 1.393 . S
C364 H329 0.931 . S
C364 C363 1.393 . S
C364 C365 1.382 . S
C365 H330 0.929 . S
C365 C360 1.371 . S
C365 C364 1.382 . S
C366 N334 1.423 . S
C366 C367 1.362 . S
C366 C371 1.388 . S
C367 H331 0.929 . S
C367 C366 1.362 . S
C367 C368 1.376 . S
C368 H332 0.931 . S
C368 C367 1.376 . S
C368 C369 1.396 . S
C369 C351 1.472 . S
C369 C368 1.396 . S
C369 C370 1.348 . S
C370 H333 0.929 . S
C370 C369 1.348 . S
C370 C371 1.443 . S
C371 H335 0.932 . S
C371 C366 1.388 . S
C371 C370 1.443 . S
C372 O384 1.241 . S
C372 O385 1.280 . S
C373 O386 1.277 . S
C373 O387 1.245 . S
C374 O398 1.247 . S
C374 O400 1.289 . S
Mg375 O376 1.912 . S
Mg375 O385 1.984 . S
Mg375 O387 1.988 1_655 S
Mg375 O388 2.061 . S
O376 Mg375 1.912 . S
O376 Mg377 1.988 1_655 S
O376 Mg378 1.920 1_655 S
Mg377 O376 1.988 1_455 S
Mg377 O384 2.042 1_455 S
Mg377 O386 2.041 . S
Mg377 O392 2.038 1_455 S
Mg377 O400 2.238 . S
Mg378 O376 1.920 1_455 S
Mg378 O379 1.917 . S
Mg378 O389 2.106 1_455 S
Mg378 O391 2.079 1_455 S
Mg378 O400 2.106 . S
Mg378 O401 2.079 . S
O379 Mg378 1.917 . S
O379 Mg380 1.926 . S
O379 Mg381 1.986 . S
Mg380 O379 1.926 . S
Mg380 O394 1.984 . S
Mg380 O397 1.988 1_455 S
Mg380 O398 2.061 . S
Mg381 O379 1.986 . S
Mg381 O389 2.238 1_455 S
Mg381 O393 2.042 . S
Mg381 O395 2.041 1_455 S
Mg381 O402 2.038 . S
C382 O388 1.247 . S
C382 O389 1.289 . S
C383 O401 1.245 . S
C383 O402 1.274 . S
O384 C372 1.241 . S
O384 Mg377 2.042 1_655 S
O385 C372 1.280 . S
O385 Mg375 1.984 . S
O386 C373 1.277 . S
O386 Mg377 2.041 . S
O387 C373 1.245 . S
O387 Mg375 1.988 1_455 S
O388 Mg375 2.061 . S
O388 C382 1.247 . S
O389 Mg378 2.106 1_655 S
O389 Mg381 2.238 1_655 S
O389 C382 1.289 . S
C390 O391 1.245 . S
C390 O392 1.274 . S
O391 Mg378 2.079 1_655 S
O391 C390 1.245 . S
O392 Mg377 2.038 1_655 S
O392 C390 1.274 . S
O393 Mg381 2.042 . S
O393 C396 1.241 . S
O394 Mg380 1.984 . S
O394 C396 1.280 . S
O395 Mg381 2.041 1_655 S
O395 C399 1.277 . S
C396 O393 1.241 . S
C396 O394 1.280 . S
O397 Mg380 1.988 1_655 S
O397 C399 1.245 . S
O398 C374 1.247 . S
O398 Mg380 2.061 . S
C399 O395 1.277 . S
C399 O397 1.245 . S
O400 C374 1.289 . S
O400 Mg377 2.238 . S
O400 Mg378 2.106 . S
O401 Mg378 2.079 . S
O401 C383 1.245 . S
O402 Mg381 2.038 . S
O402 C383 1.274 . S
C403 O415 1.241 . S
C403 O416 1.280 . S
C404 O417 1.277 . S
C404 O418 1.245 . S
C405 O429 1.247 . S
C405 O431 1.289 . S
Mg406 O407 1.926 . S
Mg406 O416 1.984 . S
Mg406 O418 1.988 1_545 S
Mg406 O419 2.061 . S
O407 Mg406 1.926 . S
O407 Mg408 1.986 . S
O407 Mg409 1.917 . S
Mg408 O407 1.986 . S
Mg408 O415 2.042 . S
Mg408 O417 2.041 1_545 S
Mg408 O423 2.038 . S
Mg408 O431 2.238 1_545 S
Mg409 O407 1.917 . S
Mg409 O410 1.917 1_545 S
Mg409 O420 2.106 . S
Mg409 O422 2.079 . S
Mg409 O431 2.106 1_545 S
Mg409 O432 2.079 1_545 S
O410 Mg409 1.917 1_565 S
O410 Mg411 1.926 . S
O410 Mg412 1.986 1_565 S
Mg411 O410 1.926 . S
Mg411 O425 1.984 . S
Mg411 O428 1.988 1_565 S
Mg411 O429 2.061 . S
Mg412 O410 1.986 1_545 S
Mg412 O420 2.238 . S
Mg412 O424 2.042 1_545 S
Mg412 O426 2.041 . S
Mg412 O433 2.038 1_545 S
C413 O419 1.247 . S
C413 O420 1.289 . S
C414 O432 1.245 . S
C414 O433 1.274 . S
O415 C403 1.241 . S
O415 Mg408 2.042 . S
O416 C403 1.280 . S
O416 Mg406 1.984 . S
O417 C404 1.277 . S
O417 Mg408 2.041 1_565 S
O418 C404 1.245 . S
O418 Mg406 1.988 1_565 S
O419 Mg406 2.061 . S
O419 C413 1.247 . S
O420 Mg409 2.106 . S
O420 Mg412 2.238 . S
O420 C413 1.289 . S
C421 O422 1.245 . S
C421 O423 1.274 . S
O422 Mg409 2.079 . S
O422 C421 1.245 . S
O423 Mg408 2.038 . S
O423 C421 1.274 . S
O424 Mg412 2.042 1_565 S
O424 C427 1.241 . S
O425 Mg411 1.984 . S
O425 C427 1.280 . S
O426 Mg412 2.041 . S
O426 C430 1.277 . S
C427 O424 1.241 . S
C427 O425 1.280 . S
O428 Mg411 1.988 1_545 S
O428 C430 1.245 . S
O429 C405 1.247 . S
O429 Mg411 2.061 . S
C430 O426 1.277 . S
C430 O428 1.245 . S
O431 C405 1.289 . S
O431 Mg408 2.238 1_565 S
O431 Mg409 2.106 1_565 S
O432 Mg409 2.079 1_565 S
O432 C414 1.245 . S
O433 Mg412 2.038 1_565 S
O433 C414 1.274 . S
C434 O446 1.241 . S
C434 O447 1.280 . S
C435 O448 1.277 . S
C435 O449 1.245 . S
C436 O460 1.247 . S
C436 O462 1.289 . S
Mg437 O438 1.926 . S
Mg437 O447 1.984 . S
Mg437 O449 1.988 . S
Mg437 O450 2.061 . S
O438 Mg437 1.926 . S
O438 Mg439 1.986 . S
O438 Mg440 1.917 . S
Mg439 O438 1.986 . S
Mg439 O446 2.042 . S
Mg439 O448 2.041 . S
Mg439 O454 2.038 . S
Mg439 O462 2.238 . S
Mg440 O438 1.917 . S
Mg440 O441 1.917 . S
Mg440 O451 2.106 . S
Mg440 O453 2.079 . S
Mg440 O462 2.106 . S
Mg440 O463 2.079 . S
O441 Mg440 1.917 . S
O441 Mg442 1.926 . S
O441 Mg443 1.986 . S
Mg442 O441 1.926 . S
Mg442 O456 1.984 . S
Mg442 O459 1.988 . S
Mg442 O460 2.061 . S
Mg443 O441 1.986 . S
Mg443 O451 2.238 . S
Mg443 O455 2.042 . S
Mg443 O457 2.041 . S
Mg443 O464 2.038 . S
C444 O450 1.247 . S
C444 O451 1.289 . S
C445 O463 1.245 . S
C445 O464 1.274 . S
O446 C434 1.241 . S
O446 Mg439 2.042 . S
O447 C434 1.280 . S
O447 Mg437 1.984 . S
O448 C435 1.277 . S
O448 Mg439 2.041 . S
O449 C435 1.245 . S
O449 Mg437 1.988 . S
O450 Mg437 2.061 . S
O450 C444 1.247 . S
O451 Mg440 2.106 . S
O451 Mg443 2.238 . S
O451 C444 1.289 . S
C452 O453 1.245 . S
C452 O454 1.274 . S
O453 Mg440 2.079 . S
O453 C452 1.245 . S
O454 Mg439 2.038 . S
O454 C452 1.274 . S
O455 Mg443 2.042 . S
O455 C458 1.241 . S
O456 Mg442 1.984 . S
O456 C458 1.280 . S
O457 Mg443 2.041 . S
O457 C461 1.277 . S
C458 O455 1.241 . S
C458 O456 1.280 . S
O459 Mg442 1.988 . S
O459 C461 1.245 . S
O460 C436 1.247 . S
O460 Mg442 2.061 . S
C461 O457 1.277 . S
C461 O459 1.245 . S
O462 C436 1.289 . S
O462 Mg439 2.238 . S
O462 Mg440 2.106 . S
O463 Mg440 2.079 . S
O463 C445 1.245 . S
O464 Mg443 2.038 . S
O464 C445 1.274 . S
C465 C466 1.369 . S
C465 C467 1.419 . S
C465 H469 0.930 . S
C466 C465 1.369 . S
C466 C475 1.429 . S
C467 C465 1.419 . S
C467 C468 1.363 . S
C467 H470 0.929 . S
C468 C467 1.363 . S
C468 C474 1.428 . S
H469 C465 0.930 . S
H470 C467 0.929 . S
S471 N472 1.613 . S
S471 N473 1.610 . S
N472 S471 1.613 . S
N472 C475 1.350 . S
N473 S471 1.610 . S
N473 C474 1.351 . S
C474 C468 1.428 . S
C474 N473 1.351 . S
C474 C475 1.434 . S
C475 C466 1.429 . S
C475 N472 1.350 . S
C475 C474 1.434 . S
C476 C477 1.369 . S
C476 C478 1.419 . S
C476 H480 0.930 . S
C477 C476 1.369 . S
C477 C486 1.429 . S
C478 C476 1.419 . S
C478 C479 1.363 . S
C478 H481 0.929 . S
C479 C478 1.363 . S
C479 C485 1.428 . S
H480 C476 0.930 . S
H481 C478 0.929 . S
S482 N483 1.613 . S
S482 N484 1.610 . S
N483 S482 1.613 . S
N483 C486 1.350 . S
N484 S482 1.610 . S
N484 C485 1.351 . S
C485 C479 1.428 . S
C485 N484 1.351 . S
C485 C486 1.434 . S
C486 C477 1.429 . S
C486 N483 1.350 . S
C486 C485 1.434 . S
C487 C488 1.369 . S
C487 C489 1.419 . S
C487 H491 0.930 . S
C488 C487 1.369 . S
C488 C497 1.429 . S
C489 C487 1.419 . S
C489 C490 1.363 . S
C489 H492 0.929 . S
C490 C489 1.363 . S
C490 C496 1.428 . S
H491 C487 0.930 . S
H492 C489 0.929 . S
S493 N494 1.613 . S
S493 N495 1.610 . S
N494 S493 1.613 . S
N494 C497 1.350 . S
N495 S493 1.610 . S
N495 C496 1.351 . S
C496 C490 1.428 . S
C496 N495 1.351 . S
C496 C497 1.434 . S
C497 C488 1.429 . S
C497 N494 1.350 . S
C497 C496 1.434 . S
C498 C499 1.369 . S
C498 C500 1.419 . S
C498 H502 0.930 . S
C499 C498 1.369 . S
C499 C508 1.429 . S
C500 C498 1.419 . S
C500 C501 1.363 . S
C500 H503 0.929 . S
C501 C500 1.363 . S
C501 C507 1.428 . S
H502 C498 0.930 . S
H503 C500 0.929 . S
S504 N505 1.613 . S
S504 N506 1.610 . S
N505 S504 1.613 . S
N505 C508 1.350 . S
N506 S504 1.610 . S
N506 C507 1.351 . S
C507 C501 1.428 . S
C507 N506 1.351 . S
C507 C508 1.434 . S
C508 C499 1.429 . S
C508 N505 1.350 . S
C508 C507 1.434 . S
C509 C510 1.369 . S
C509 C511 1.419 . S
C509 H513 0.930 . S
C510 C509 1.369 . S
C510 C519 1.429 . S
C511 C509 1.419 . S
C511 C512 1.363 . S
C511 H514 0.929 . S
C512 C511 1.363 . S
C512 C518 1.428 . S
H513 C509 0.930 . S
H514 C511 0.929 . S
S515 N516 1.613 . S
S515 N517 1.610 . S
N516 S515 1.613 . S
N516 C519 1.350 . S
N517 S515 1.610 . S
N517 C518 1.351 . S
C518 C512 1.428 . S
C518 N517 1.351 . S
C518 C519 1.434 . S
C519 C510 1.429 . S
C519 N516 1.350 . S
C519 C518 1.434 . S
C520 C521 1.369 . S
C520 C522 1.419 . S
C520 H524 0.930 . S
C521 C520 1.369 . S
C521 C530 1.429 . S
C522 C520 1.419 . S
C522 C523 1.363 . S
C522 H525 0.929 . S
C523 C522 1.363 . S
C523 C529 1.428 . S
H524 C520 0.930 . S
H525 C522 0.929 . S
S526 N527 1.613 . S
S526 N528 1.610 . S
N527 S526 1.613 . S
N527 C530 1.350 . S
N528 S526 1.610 . S
N528 C529 1.351 . S
C529 C523 1.428 . S
C529 N528 1.351 . S
C529 C530 1.434 . S
C530 C521 1.429 . S
C530 N527 1.350 . S
C530 C529 1.434 . S
C531 C532 1.369 . S
C531 C533 1.419 . S
C531 H535 0.930 . S
C532 C531 1.369 . S
C532 C541 1.429 . S
C533 C531 1.419 . S
C533 C534 1.363 . S
C533 H536 0.929 . S
C534 C533 1.363 . S
C534 C540 1.428 . S
H535 C531 0.930 . S
H536 C533 0.929 . S
S537 N538 1.613 . S
S537 N539 1.610 . S
N538 S537 1.613 . S
N538 C541 1.350 . S
N539 S537 1.610 . S
N539 C540 1.351 . S
C540 C534 1.428 . S
C540 N539 1.351 . S
C540 C541 1.434 . S
C541 C532 1.429 . S
C541 N538 1.350 . S
C541 C540 1.434 . S
C542 C543 1.369 . S
C542 C544 1.419 . S
C542 H546 0.930 . S
C543 C542 1.369 . S
C543 C552 1.429 . S
C544 C542 1.419 . S
C544 C545 1.363 . S
C544 H547 0.929 . S
C545 C544 1.363 . S
C545 C551 1.428 . S
H546 C542 0.930 . S
H547 C544 0.929 . S
S548 N549 1.613 . S
S548 N550 1.610 . S
N549 S548 1.613 . S
N549 C552 1.350 . S
N550 S548 1.610 . S
N550 C551 1.351 . S
C551 C545 1.428 . S
C551 N550 1.351 . S
C551 C552 1.434 . S
C552 C543 1.429 . S
C552 N549 1.350 . S
C552 C551 1.434 . S
C553 C554 1.369 . S
C553 C555 1.419 . S
C553 H557 0.930 . S
C554 C553 1.369 . S
C554 C563 1.429 . S
C555 C553 1.419 . S
C555 C556 1.363 . S
C555 H558 0.929 . S
C556 C555 1.363 . S
C556 C562 1.428 . S
H557 C553 0.930 . S
H558 C555 0.929 . S
S559 N560 1.613 . S
S559 N561 1.610 . S
N560 S559 1.613 . S
N560 C563 1.350 . S
N561 S559 1.610 . S
N561 C562 1.351 . S
C562 C556 1.428 . S
C562 N561 1.351 . S
C562 C563 1.434 . S
C563 C554 1.429 . S
C563 N560 1.350 . S
C563 C562 1.434 . S
C564 C565 1.369 . S
C564 C566 1.419 . S
C564 H568 0.930 . S
C565 C564 1.369 . S
C565 C574 1.429 . S
C566 C564 1.419 . S
C566 C567 1.363 . S
C566 H569 0.929 . S
C567 C566 1.363 . S
C567 C573 1.428 . S
H568 C564 0.930 . S
H569 C566 0.929 . S
S570 N571 1.613 . S
S570 N572 1.610 . S
N571 S570 1.613 . S
N571 C574 1.350 . S
N572 S570 1.610 . S
N572 C573 1.351 . S
C573 C567 1.428 . S
C573 N572 1.351 . S
C573 C574 1.434 . S
C574 C565 1.429 . S
C574 N571 1.350 . S
C574 C573 1.434 . S
C575 C576 1.369 . S
C575 C577 1.419 . S
C575 H579 0.930 . S
C576 C575 1.369 . S
C576 C585 1.429 . S
C577 C575 1.419 . S
C577 C578 1.363 . S
C577 H580 0.929 . S
C578 C577 1.363 . S
C578 C584 1.428 . S
H579 C575 0.930 . S
H580 C577 0.929 . S
S581 N582 1.613 . S
S581 N583 1.610 . S
N582 S581 1.613 . S
N582 C585 1.350 . S
N583 S581 1.610 . S
N583 C584 1.351 . S
C584 C578 1.428 . S
C584 N583 1.351 . S
C584 C585 1.434 . S
C585 C576 1.429 . S
C585 N582 1.350 . S
C585 C584 1.434 . S
C586 C587 1.369 . S
C586 C588 1.419 . S
C586 H590 0.930 . S
C587 C586 1.369 . S
C587 C596 1.429 . S
C588 C586 1.419 . S
C588 C589 1.363 . S
C588 H591 0.929 . S
C589 C588 1.363 . S
C589 C595 1.428 . S
H590 C586 0.930 . S
H591 C588 0.929 . S
S592 N593 1.613 . S
S592 N594 1.610 . S
N593 S592 1.613 . S
N593 C596 1.350 . S
N594 S592 1.610 . S
N594 C595 1.351 . S
C595 C589 1.428 . S
C595 N594 1.351 . S
C595 C596 1.434 . S
C596 C587 1.429 . S
C596 N593 1.350 . S
C596 C595 1.434 . S
C597 C598 1.369 . S
C597 C599 1.419 . S
C597 H601 0.930 . S
C598 C597 1.369 . S
C598 C607 1.429 . S
C599 C597 1.419 . S
C599 C600 1.363 . S
C599 H602 0.929 . S
C600 C599 1.363 . S
C600 C606 1.428 . S
H601 C597 0.930 . S
H602 C599 0.929 . S
S603 N604 1.613 1_455 S
S603 N605 1.610 1_455 S
N604 S603 1.613 1_655 S
N604 C607 1.350 . S
N605 S603 1.610 1_655 S
N605 C606 1.351 . S
C606 C600 1.428 . S
C606 N605 1.351 . S
C606 C607 1.434 . S
C607 C598 1.429 . S
C607 N604 1.350 . S
C607 C606 1.434 . S
C608 C609 1.369 . S
C608 C610 1.419 . S
C608 H612 0.930 . S
C609 C608 1.369 . S
C609 C618 1.429 . S
C610 C608 1.419 . S
C610 C611 1.363 . S
C610 H613 0.929 . S
C611 C610 1.363 . S
C611 C617 1.428 . S
H612 C608 0.930 . S
H613 C610 0.929 . S
S614 N615 1.613 . S
S614 N616 1.610 . S
N615 S614 1.613 . S
N615 C618 1.350 . S
N616 S614 1.610 . S
N616 C617 1.351 . S
C617 C611 1.428 . S
C617 N616 1.351 . S
C617 C618 1.434 . S
C618 C609 1.429 . S
C618 N615 1.350 . S
C618 C617 1.434 . S
C619 C620 1.369 . S
C619 C621 1.419 . S
C619 H623 0.930 . S
C620 C619 1.369 . S
C620 C629 1.429 . S
C621 C619 1.419 . S
C621 C622 1.363 . S
C621 H624 0.929 . S
C622 C621 1.363 . S
C622 C628 1.428 . S
H623 C619 0.930 . S
H624 C621 0.929 . S
S625 N626 1.613 . S
S625 N627 1.610 . S
N626 S625 1.613 . S
N626 C629 1.350 . S
N627 S625 1.610 . S
N627 C628 1.351 . S
C628 C622 1.428 . S
C628 N627 1.351 . S
C628 C629 1.434 . S
C629 C620 1.429 . S
C629 N626 1.350 . S
C629 C628 1.434 . S
C630 C631 1.369 . S
C630 C632 1.419 . S
C630 H634 0.930 . S
C631 C630 1.369 . S
C631 C640 1.429 . S
C632 C630 1.419 . S
C632 C633 1.363 . S
C632 H635 0.929 . S
C633 C632 1.363 . S
C633 C639 1.428 . S
H634 C630 0.930 . S
H635 C632 0.929 . S
S636 N637 1.613 . S
S636 N638 1.610 . S
N637 S636 1.613 . S
N637 C640 1.350 . S
N638 S636 1.610 . S
N638 C639 1.351 . S
C639 C633 1.428 . S
C639 N638 1.351 . S
C639 C640 1.434 . S
C640 C631 1.429 . S
C640 N637 1.350 . S
C640 C639 1.434 . S
C641 C642 1.369 . S
C641 C643 1.419 . S
C641 H645 0.930 . S
C642 C641 1.369 . S
C642 C651 1.429 . S
C643 C641 1.419 . S
C643 C644 1.363 . S
C643 H646 0.929 . S
C644 C643 1.363 . S
C644 C650 1.428 . S
H645 C641 0.930 . S
H646 C643 0.929 . S
S647 N648 1.613 . S
S647 N649 1.610 . S
N648 S647 1.613 . S
N648 C651 1.350 . S
N649 S647 1.610 . S
N649 C650 1.351 . S
C650 C644 1.428 . S
C650 N649 1.351 . S
C650 C651 1.434 . S
C651 C642 1.429 . S
C651 N648 1.350 . S
C651 C650 1.434 . S
C652 C653 1.369 . S
C652 C654 1.419 . S
C652 H656 0.930 . S
C653 C652 1.369 . S
C653 C662 1.429 . S
C654 C652 1.419 . S
C654 C655 1.363 . S
C654 H657 0.929 . S
C655 C654 1.363 . S
C655 C661 1.428 . S
H656 C652 0.930 . S
H657 C654 0.929 . S
S658 N659 1.613 . S
S658 N660 1.610 . S
N659 S658 1.613 . S
N659 C662 1.350 . S
N660 S658 1.610 . S
N660 C661 1.351 . S
C661 C655 1.428 . S
C661 N660 1.351 . S
C661 C662 1.434 . S
C662 C653 1.429 . S
C662 N659 1.350 . S
C662 C661 1.434 . S
C663 C664 1.369 . S
C663 C665 1.419 . S
C663 H667 0.930 . S
C664 C663 1.369 . S
C664 C673 1.429 . S
C665 C663 1.419 . S
C665 C666 1.363 . S
C665 H668 0.929 . S
C666 C665 1.363 . S
C666 C672 1.428 . S
H667 C663 0.930 . S
H668 C665 0.929 . S
S669 N670 1.613 . S
S669 N671 1.610 . S
N670 S669 1.613 . S
N670 C673 1.350 . S
N671 S669 1.610 . S
N671 C672 1.351 . S
C672 C666 1.428 . S
C672 N671 1.351 . S
C672 C673 1.434 . S
C673 C664 1.429 . S
C673 N670 1.350 . S
C673 C672 1.434 . S
C674 C675 1.369 . S
C674 C676 1.419 . S
C674 H678 0.930 . S
C675 C674 1.369 . S
C675 C684 1.429 . S
C676 C674 1.419 . S
C676 C677 1.363 . S
C676 H679 0.929 . S
C677 C676 1.363 . S
C677 C683 1.428 . S
H678 C674 0.930 . S
H679 C676 0.929 . S
S680 N681 1.613 . S
S680 N682 1.610 . S
N681 S680 1.613 . S
N681 C684 1.350 . S
N682 S680 1.610 . S
N682 C683 1.351 . S
C683 C677 1.428 . S
C683 N682 1.351 . S
C683 C684 1.434 . S
C684 C675 1.429 . S
C684 N681 1.350 . S
C684 C683 1.434 . S
C685 C686 1.369 . S
C685 C687 1.419 . S
C685 H689 0.930 . S
C686 C685 1.369 . S
C686 C695 1.429 . S
C687 C685 1.419 . S
C687 C688 1.363 . S
C687 H690 0.929 . S
C688 C687 1.363 . S
C688 C694 1.428 . S
H689 C685 0.930 . S
H690 C687 0.929 . S
S691 N692 1.613 . S
S691 N693 1.610 . S
N692 S691 1.613 . S
N692 C695 1.350 . S
N693 S691 1.610 . S
N693 C694 1.351 . S
C694 C688 1.428 . S
C694 N693 1.351 . S
C694 C695 1.434 . S
C695 C686 1.429 . S
C695 N692 1.350 . S
C695 C694 1.434 . S
C696 C697 1.369 . S
C696 C698 1.419 . S
C696 H700 0.930 . S
C697 C696 1.369 . S
C697 C706 1.429 . S
C698 C696 1.419 . S
C698 C699 1.363 . S
C698 H701 0.929 . S
C699 C698 1.363 . S
C699 C705 1.428 . S
H700 C696 0.930 . S
H701 C698 0.929 . S
S702 N703 1.613 . S
S702 N704 1.610 . S
N703 S702 1.613 . S
N703 C706 1.350 . S
N704 S702 1.610 . S
N704 C705 1.351 . S
C705 C699 1.428 . S
C705 N704 1.351 . S
C705 C706 1.434 . S
C706 C697 1.429 . S
C706 N703 1.350 . S
C706 C705 1.434 . S
C707 C708 1.369 . S
C707 C709 1.419 . S
C707 H711 0.930 . S
C708 C707 1.369 . S
C708 C717 1.429 . S
C709 C707 1.419 . S
C709 C710 1.363 . S
C709 H712 0.929 . S
C710 C709 1.363 . S
C710 C716 1.428 . S
H711 C707 0.930 . S
H712 C709 0.929 . S
S713 N714 1.613 . S
S713 N715 1.610 . S
N714 S713 1.613 . S
N714 C717 1.350 . S
N715 S713 1.610 . S
N715 C716 1.351 . S
C716 C710 1.428 . S
C716 N715 1.351 . S
C716 C717 1.434 . S
C717 C708 1.429 . S
C717 N714 1.350 . S
C717 C716 1.434 . S
C718 C719 1.369 . S
C718 C720 1.419 . S
C718 H722 0.930 . S
C719 C718 1.369 . S
C719 C728 1.429 . S
C720 C718 1.419 . S
C720 C721 1.363 . S
C720 H723 0.929 . S
C721 C720 1.363 . S
C721 C727 1.428 . S
H722 C718 0.930 . S
H723 C720 0.929 . S
S724 N725 1.613 . S
S724 N726 1.610 . S
N725 S724 1.613 . S
N725 C728 1.350 . S
N726 S724 1.610 . S
N726 C727 1.351 . S
C727 C721 1.428 . S
C727 N726 1.351 . S
C727 C728 1.434 . S
C728 C719 1.429 . S
C728 N725 1.350 . S
C728 C727 1.434 . S
C466 C47 2.010 . S
C468 C383 2.155 . S
C477 C91 1.768 . S
C479 C430 1.862 . S
C490 C434 1.769 . S
C488 C177 1.895 . S
C501 C399 1.721 . S
C499 C215 1.715 . S
C510 C295 1.959 . S
C512 C414 2.019 . S
C523 C436 1.014 . S
C521 C345 1.033 . S
C534 C405 1.763 . S
C532 C153 1.713 . S
C543 C239 1.460 . S
C545 C445 1.370 . S
C556 C374 1.369 . S
C554 C283 1.452 . S
C565 C357 1.608 1_556 S
C567 C403 1.649 . S
C576 C35 1.952 1_556 S
C578 C461 1.842 . S
C589 C372 1.450 . S
C587 C115 1.527 . S
C600 C390 1.743 . S
C598 C221 1.858 . S
C611 C404 1.505 . S
C609 C301 1.547 . S
C622 C458 2.000 . S
C620 C339 1.976 1_556 S
C633 C373 1.509 . S
C631 C53 1.595 1_556 S
C644 C421 1.750 . S
C642 C97 1.913 . S
C653 C171 1.327 . S
C655 C444 1.396 . S
C666 C413 1.380 . S
C664 C363 1.417 . S
C677 C452 1.774 . S
C675 C29 1.615 . S
C688 C382 1.610 . S
C686 C109 1.648 . S
C699 C427 1.435 . S
C697 C159 1.533 . S
C708 C233 2.087 . S
C710 C435 2.087 . S
C719 C277 1.659 . S
C721 C396 1.775 . S
