# Generated by pormake.
# Topology tsx, (6,3)-cn, num edge types: 1
# Building blocks:
#     Node 0, Type 0, BuildingBlock: JUFBIX_clean_sbu_0, # of connection points: 6
#     Node 1, Type 0, BuildingBlock: JUFBIX_clean_sbu_0, # of connection points: 6
#     Node 2, Type 1, BuildingBlock: ESEHIV_clean_linker_0, # of connection points: 3
#     Node 3, Type 1, BuildingBlock: ESEHIV_clean_linker_0, # of connection points: 3
#     Node 4, Type 1, BuildingBlock: ESEHIV_clean_linker_0, # of connection points: 3
#     Node 5, Type 1, BuildingBlock: ESEHIV_clean_linker_0, # of connection points: 3
#     Edge 6, Type (0, 1), BuildingBlock: MIFKUJ_clean_linker_0, # of connection points: 2
#     Edge 7, Type (0, 1), BuildingBlock: MIFKUJ_clean_linker_0, # of connection points: 2
#     Edge 8, Type (0, 1), BuildingBlock: MIFKUJ_clean_linker_0, # of connection points: 2
#     Edge 9, Type (0, 1), BuildingBlock: MIFKUJ_clean_linker_0, # of connection points: 2
#     Edge 10, Type (0, 1), BuildingBlock: MIFKUJ_clean_linker_0, # of connection points: 2
#     Edge 11, Type (0, 1), BuildingBlock: MIFKUJ_clean_linker_0, # of connection points: 2
#     Edge 12, Type (0, 1), BuildingBlock: MIFKUJ_clean_linker_0, # of connection points: 2
#     Edge 13, Type (0, 1), BuildingBlock: MIFKUJ_clean_linker_0, # of connection points: 2
#     Edge 14, Type (0, 1), BuildingBlock: MIFKUJ_clean_linker_0, # of connection points: 2
#     Edge 15, Type (0, 1), BuildingBlock: MIFKUJ_clean_linker_0, # of connection points: 2
#     Edge 16, Type (0, 1), BuildingBlock: MIFKUJ_clean_linker_0, # of connection points: 2
#     Edge 17, Type (0, 1), BuildingBlock: MIFKUJ_clean_linker_0, # of connection points: 2
# Relax obj value: 0.159
# Max RMSD: 0.167
# Mean RMSD: 0.134
data_MOF--net-tsx--node1-JUFBIX_clean_sbu_0--node2-ESEHIV_clean_linker_0--edge1-MIFKUJ_clean_linker_0
_symmetry_space_group_name_H-M    P1
_symmetry_Int_Tables_number       1
_symmetry_cell_setting            triclinic
loop_
_symmetry_equiv_pos_as_xyz
'x, y, z'
_cell_length_a     24.237744
_cell_length_b     28.800503
_cell_length_c     44.240798
_cell_angle_alpha  92.467268
_cell_angle_beta   89.712915
_cell_angle_gamma 98.000192
loop_
_atom_site_label
_atom_site_type_symbol
_atom_site_fract_x
_atom_site_fract_y
_atom_site_fract_z
_atom_type_partial_charge
Co0 Co 0.05339 0.98793 0.01556 0.0
C1 C 0.01634 0.01418 0.95981 0.0
Co2 Co 0.98221 0.02908 0.01803 0.0
C3 C 0.12507 0.91379 0.01843 0.0
C4 C 0.16613 0.97703 9e-05 0.0
N5 N 0.11683 0.95771 0.0115 0.0
N6 N 0.17771 0.90572 0.01225 0.0
C7 C 0.20356 0.94546 0.00081 0.0
H8 H 0.09337 0.88832 0.02794 0.0
H9 H 0.17442 0.01175 0.99131 0.0
C10 C 0.01977 0.0031 0.07391 0.0
N11 N 0.91888 0.05891 0.02233 0.0
C12 C 0.90872 0.10147 0.01374 0.0
C13 C 0.87235 0.04116 0.03705 0.0
N14 N 0.85766 0.11092 0.02263 0.0
C15 C 0.83483 0.07266 0.03713 0.0
C16 C 0.95391 0.93077 0.01183 0.0
O17 O 0.05543 0.98417 0.05823 0.0
O18 O 0.98418 0.02375 0.06069 0.0
O19 O 0.93619 0.97027 0.01366 0.0
O20 O 0.00605 0.92933 0.01265 0.0
O21 O 0.98157 0.03435 0.97542 0.0
H22 H 0.86622 0.00752 0.04746 0.0
H23 H 0.93877 0.12538 0.00181 0.0
O24 O 0.05043 0.99195 0.97303 0.0
O25 O 0.09963 0.0477 0.01852 0.0
O26 O 0.02859 0.08717 0.02205 0.0
C27 C 0.08086 0.08679 0.02109 0.0
H28 H 0.24613 0.95076 0.99274 0.0
H29 H 0.79369 0.06736 0.04706 0.0
Co30 Co 0.52296 0.49311 0.50997 0.0
C31 C 0.47796 0.52129 0.45684 0.0
Co32 Co 0.45186 0.53308 0.51687 0.0
C33 C 0.60032 0.4233 0.50995 0.0
C34 C 0.63188 0.48582 0.48743 0.0
N35 N 0.58672 0.46523 0.50231 0.0
N36 N 0.65245 0.41789 0.50094 0.0
C37 C 0.67241 0.45705 0.48684 0.0
H38 H 0.57291 0.39749 0.52202 0.0
H39 H 0.63523 0.51965 0.47736 0.0
C40 C 0.49709 0.50502 0.57012 0.0
N41 N 0.38919 0.5623 0.52411 0.0
C42 C 0.37627 0.60281 0.51355 0.0
C43 C 0.34621 0.54672 0.54216 0.0
N44 N 0.32677 0.61304 0.52427 0.0
C45 C 0.30788 0.57768 0.54228 0.0
C46 C 0.42473 0.43427 0.50932 0.0
O47 O 0.53147 0.48801 0.55244 0.0
O48 O 0.45885 0.52522 0.55904 0.0
O49 O 0.40542 0.47316 0.51242 0.0
O50 O 0.47715 0.43429 0.50808 0.0
O51 O 0.44603 0.54102 0.4746 0.0
H52 H 0.34314 0.51497 0.55463 0.0
H53 H 0.40251 0.62406 0.49807 0.0
O54 O 0.51362 0.49816 0.46774 0.0
O55 O 0.56802 0.55234 0.5121 0.0
O56 O 0.49865 0.5921 0.52128 0.0
C57 C 0.55045 0.59125 0.51742 0.0
H58 H 0.71291 0.4637 0.47619 0.0
H59 H 0.26954 0.57469 0.55513 0.0
H60 H 0.94887 0.06328 0.40077 0.0
H61 H 0.06913 0.96726 0.40534 0.0
H62 H 0.99802 0.01897 0.48721 0.0
C63 C 0.97369 0.04294 0.41392 0.0
C64 C 0.96969 0.04508 0.44567 0.0
C65 C 0.00933 0.01494 0.39905 0.0
C66 C 0.04118 0.98889 0.41644 0.0
C67 C 0.03694 0.98984 0.44809 0.0
C68 C 1.0013 0.01814 0.46275 0.0
H69 H 0.98563 0.93983 0.63987 0.0
H70 H 0.10457 0.06144 0.62731 0.0
H71 H 0.02157 0.98772 0.54975 0.0
C72 C 0.00796 0.96424 0.62462 0.0
C73 C 0.99716 0.95956 0.59333 0.0
C74 C 0.04567 0.00127 0.63686 0.0
C75 C 0.07572 0.03258 0.61758 0.0
C76 C 0.06884 0.02713 0.58603 0.0
C77 C 0.02859 0.99098 0.57396 0.0
H78 H 0.45188 0.54746 0.90087 0.0
H79 H 0.57868 0.45712 0.89809 0.0
H80 H 0.51923 0.50633 0.98387 0.0
C81 C 0.48018 0.52825 0.91247 0.0
C82 C 0.48132 0.53011 0.94431 0.0
C83 C 0.51533 0.50224 0.8955 0.0
C84 C 0.55162 0.47748 0.91094 0.0
C85 C 0.55329 0.47836 0.94276 0.0
C86 C 0.5181 0.50507 0.95935 0.0
H87 H 0.41286 0.48323 0.12682 0.0
H88 H 0.55239 0.59317 0.13123 0.0
H89 H 0.49059 0.53483 0.04473 0.0
C90 C 0.44405 0.50707 0.11548 0.0
C91 C 0.44683 0.50542 0.08371 0.0
C92 C 0.48171 0.53874 0.1328 0.0
C93 C 0.52267 0.56887 0.11807 0.0
C94 C 0.52596 0.56744 0.08639 0.0
C95 C 0.48791 0.53588 0.06923 0.0
H96 H 0.05838 0.17398 0.03936 0.0
H97 H 0.12235 0.24747 0.04085 0.0
H98 H 0.25366 0.17409 0.00503 0.0
H99 H 0.19048 0.1002 0.00475 0.0
H100 H 0.29374 0.23004 0.04788 0.0
H101 H 0.18296 0.24816 0.96218 0.0
H102 H 0.0974 0.24943 0.93253 0.0
H103 H 0.05398 0.36239 0.99024 0.0
H104 H 0.13834 0.36092 0.02083 0.0
H105 H 0.47295 0.44409 0.03887 0.0
H106 H 0.41166 0.37606 0.01705 0.0
H107 H 0.27328 0.41838 0.06787 0.0
H108 H 0.33419 0.48638 0.08953 0.0
H109 H 0.24321 0.37788 0.00938 0.0
H110 H 0.34823 0.34771 0.0989 0.0
H111 H 0.4361 0.34738 0.12673 0.0
H112 H 0.49286 0.25682 0.05715 0.0
H113 H 0.40549 0.25731 0.02866 0.0
C114 C 0.10088 0.17354 0.03178 0.0
C115 C 0.11944 0.13131 0.02201 0.0
C116 C 0.13733 0.21566 0.03238 0.0
C117 C 0.19267 0.21659 0.0225 0.0
C118 C 0.21118 0.17437 0.01269 0.0
C119 C 0.17502 0.13212 0.01258 0.0
C120 C 0.2319 0.26118 0.02381 0.0
C121 C 0.28298 0.26203 0.03882 0.0
C122 C 0.21798 0.30326 0.01226 0.0
C123 C 0.16688 0.30413 0.99399 0.0
C124 C 0.15487 0.27294 0.96877 0.0
C125 C 0.10652 0.27367 0.95181 0.0
C126 C 0.07007 0.30579 0.95961 0.0
C127 C 0.08199 0.33731 0.98436 0.0
C128 C 0.1301 0.33654 0.00153 0.0
C129 C 0.42911 0.43954 0.04465 0.0
C130 C 0.40832 0.46996 0.06618 0.0
C131 C 0.39423 0.40069 0.03226 0.0
C132 C 0.33817 0.39199 0.04119 0.0
C133 C 0.31643 0.42449 0.06074 0.0
C134 C 0.35129 0.46305 0.07327 0.0
C135 C 0.30394 0.34633 0.03369 0.0
C136 C 0.25396 0.34542 0.01774 0.0
C137 C 0.31895 0.30403 0.04403 0.0
C138 C 0.37075 0.30294 0.06151 0.0
C139 C 0.37961 0.32797 0.08946 0.0
C140 C 0.42929 0.32776 0.10534 0.0
C141 C 0.47013 0.30223 0.09365 0.0
C142 C 0.46127 0.2767 0.0661 0.0
C143 C 0.41171 0.27692 0.05009 0.0
H144 H 0.50856 0.3021 0.10597 0.0
H145 H 0.03271 0.30638 0.94642 0.0
H146 H 0.13369 0.81787 0.99362 0.0
H147 H 0.18219 0.74851 0.99082 0.0
H148 H 0.32501 0.82889 0.03531 0.0
H149 H 0.27745 0.89851 0.03634 0.0
H150 H 0.36115 0.78651 0.99117 0.0
H151 H 0.23379 0.73372 0.06864 0.0
H152 H 0.14292 0.71516 0.09384 0.0
H153 H 0.08831 0.61368 0.02246 0.0
H154 H 0.1786 0.63209 0.9966 0.0
H155 H 0.51026 0.59359 0.99144 0.0
H156 H 0.45463 0.65194 0.01286 0.0
H157 H 0.31593 0.59313 0.95635 0.0
H158 H 0.37078 0.53444 0.93514 0.0
H159 H 0.28069 0.62315 0.01212 0.0
H160 H 0.40885 0.68664 0.93328 0.0
H161 H 0.50324 0.70323 0.91166 0.0
H162 H 0.5596 0.78408 0.99224 0.0
H163 H 0.46554 0.76769 0.01438 0.0
C164 C 0.17496 0.82017 0.00332 0.0
C165 C 0.20196 0.86329 0.0152 0.0
C166 C 0.20273 0.78053 0.00184 0.0
C167 C 0.25744 0.78301 0.01306 0.0
C168 C 0.28313 0.82581 0.02628 0.0
C169 C 0.25592 0.86556 0.02705 0.0
C170 C 0.28972 0.74257 0.00875 0.0
C171 C 0.34363 0.75104 0.99643 0.0
C172 C 0.26724 0.69582 0.01507 0.0
C173 C 0.21284 0.6846 0.03054 0.0
C174 C 0.20226 0.7077 0.0582 0.0
C175 C 0.15087 0.69716 0.07262 0.0
C176 C 0.10982 0.66334 0.05973 0.0
C177 C 0.12013 0.63991 0.03241 0.0
C178 C 0.17144 0.65034 0.01787 0.0
C179 C 0.46743 0.5923 0.9842 0.0
C180 C 0.44514 0.55988 0.96127 0.0
C181 C 0.4358 0.62572 0.99639 0.0
C182 C 0.38145 0.62733 0.98592 0.0
C183 C 0.35781 0.59278 0.96469 0.0
C184 C 0.38937 0.55948 0.95242 0.0
C185 C 0.35131 0.66754 0.99461 0.0
C186 C 0.29798 0.65892 0.00746 0.0
C187 C 0.37454 0.71433 0.98933 0.0
C188 C 0.43034 0.7258 0.9755 0.0
C189 C 0.4414 0.70799 0.94634 0.0
C190 C 0.49482 0.71732 0.93402 0.0
C191 C 0.5374 0.74467 0.95058 0.0
C192 C 0.52656 0.76295 0.97943 0.0
C193 C 0.47319 0.75375 0.99185 0.0
H194 H 0.57877 0.75171 0.94104 0.0
H195 H 0.07006 0.65523 0.07093 0.0
H196 H 0.84583 0.9225 0.99421 0.0
H197 H 0.77442 0.85458 0.99821 0.0
H198 H 0.89734 0.7736 0.03042 0.0
H199 H 0.96983 0.84157 0.02572 0.0
H200 H 0.81588 0.71939 0.99433 0.0
H201 H 0.82578 0.82786 0.07989 0.0
H202 H 0.82962 0.90645 0.10468 0.0
H203 H 0.66667 0.91769 0.07057 0.0
H204 H 0.66263 0.83966 0.04466 0.0
H205 H 0.63739 0.56505 0.08718 0.0
H206 H 0.71058 0.62192 0.0658 0.0
H207 H 0.58495 0.69854 0.03157 0.0
H208 H 0.51198 0.64173 0.05337 0.0
H209 H 0.66686 0.75357 0.06592 0.0
H210 H 0.65576 0.63956 0.9833 0.0
H211 H 0.65502 0.56042 0.95961 0.0
H212 H 0.82146 0.5572 0.99144 0.0
H213 H 0.82289 0.63601 0.0158 0.0
C214 C 0.85796 0.89002 0.00166 0.0
C215 C 0.91323 0.88752 0.01016 0.0
C216 C 0.8171 0.85121 0.00386 0.0
C217 C 0.83041 0.80939 0.01517 0.0
C218 C 0.88623 0.80565 0.02171 0.0
C219 C 0.9275 0.8445 0.01915 0.0
C220 C 0.7851 0.77201 0.02334 0.0
C221 C 0.78352 0.72663 0.01016 0.0
C222 C 0.7426 0.78174 0.04378 0.0
C223 C 0.74415 0.8281 0.06007 0.0
C224 C 0.7909 0.8472 0.0775 0.0
C225 C 0.79312 0.89166 0.09176 0.0
C226 C 0.74838 0.91706 0.08926 0.0
C227 C 0.70131 0.89799 0.07247 0.0
C228 C 0.69907 0.85367 0.05793 0.0
C229 C 0.62571 0.59373 0.07468 0.0
C230 C 0.56948 0.59915 0.07141 0.0
C231 C 0.66729 0.62595 0.06239 0.0
C232 C 0.65309 0.66414 0.04689 0.0
C233 C 0.5967 0.6691 0.04327 0.0
C234 C 0.55516 0.63667 0.05542 0.0
C235 C 0.69723 0.70093 0.03676 0.0
C236 C 0.69882 0.7463 0.04982 0.0
C237 C 0.73987 0.69087 0.01655 0.0
C238 C 0.73929 0.64363 0.00159 0.0
C239 C 0.69207 0.62186 0.98547 0.0
C240 C 0.69153 0.57705 0.97189 0.0
C241 C 0.73816 0.55378 0.97407 0.0
C242 C 0.78539 0.57528 0.98979 0.0
C243 C 0.7861 0.62004 0.00346 0.0
H244 H 0.73785 0.51917 0.96352 0.0
H245 H 0.75019 0.95148 0.10034 0.0
H246 H 0.8853 0.17735 0.98085 0.0
H247 H 0.83872 0.24588 0.97241 0.0
H248 H 0.72519 0.20796 0.04542 0.0
H249 H 0.77201 0.1406 0.05462 0.0
H250 H 0.67127 0.22557 0.99331 0.0
H251 H 0.82344 0.29891 0.05547 0.0
H252 H 0.92219 0.31984 0.06986 0.0
H253 H 0.95534 0.38988 0.98661 0.0
H254 H 0.85691 0.36872 0.97151 0.0
H255 H 0.5304 0.42342 0.99177 0.0
H256 H 0.58709 0.36741 0.01144 0.0
H257 H 0.71601 0.41071 0.94684 0.0
H258 H 0.66086 0.46806 0.92816 0.0
H259 H 0.76253 0.39094 0.99706 0.0
H260 H 0.61351 0.31621 0.93347 0.0
H261 H 0.51613 0.29353 0.917 0.0
H262 H 0.47881 0.2225 0.99953 0.0
H263 H 0.57548 0.24623 0.01702 0.0
C264 C 0.85098 0.18385 0.99542 0.0
C265 C 0.83227 0.15279 0.01823 0.0
C266 C 0.82429 0.22307 0.99051 0.0
C267 C 0.77838 0.23198 0.00827 0.0
C268 C 0.76024 0.20159 0.0313 0.0
C269 C 0.78704 0.16275 0.03637 0.0
C270 C 0.74761 0.27182 0.00225 0.0
C271 C 0.69097 0.26182 0.99459 0.0
C272 C 0.77371 0.31895 0.00318 0.0
C273 C 0.8329 0.33183 0.01223 0.0
C274 C 0.85189 0.31841 0.04011 0.0
C275 C 0.90779 0.33038 0.04842 0.0
C276 C 0.94506 0.35607 0.02914 0.0
C277 C 0.92646 0.36991 0.00151 0.0
C278 C 0.8706 0.35798 0.99308 0.0
C279 C 0.57145 0.42191 0.98233 0.0
C280 C 0.59066 0.44968 0.95802 0.0
C281 C 0.60362 0.3895 0.99338 0.0
C282 C 0.65531 0.38391 0.98009 0.0
C283 C 0.67611 0.4139 0.95728 0.0
C284 C 0.64421 0.44641 0.9464 0.0
C285 C 0.68593 0.34474 0.98815 0.0
C286 C 0.7426 0.35476 0.99604 0.0
C287 C 0.65999 0.29743 0.9871 0.0
C288 C 0.60159 0.28362 0.97676 0.0
C289 C 0.58436 0.29633 0.94831 0.0
C290 C 0.52924 0.28334 0.93881 0.0
C291 C 0.49116 0.25695 0.95733 0.0
C292 C 0.50817 0.2434 0.98536 0.0
C293 C 0.56309 0.2567 0.99511 0.0
H294 H 0.44856 0.24676 0.94989 0.0
H295 H 0.98828 0.36537 0.03567 0.0
H296 H 0.64008 0.61417 0.48171 0.0
H297 H 0.71528 0.67941 0.48954 0.0
H298 H 0.63083 0.72701 0.56882 0.0
H299 H 0.55368 0.66341 0.55962 0.0
H300 H 0.6756 0.79818 0.54352 0.0
H301 H 0.74468 0.65801 0.56994 0.0
H302 H 0.76659 0.57724 0.56232 0.0
H303 H 0.87692 0.62065 0.48944 0.0
H304 H 0.85498 0.70159 0.49633 0.0
H305 H 0.89784 0.93005 0.62096 0.0
H306 H 0.82585 0.86733 0.60488 0.0
H307 H 0.91555 0.84561 0.52216 0.0
H308 H 0.99178 0.90575 0.53988 0.0
H309 H 0.87024 0.76299 0.54457 0.0
H310 H 0.80154 0.9113 0.52884 0.0
H311 H 0.78363 0.98885 0.54842 0.0
H312 H 0.6694 0.92427 0.61391 0.0
H313 H 0.68855 0.84619 0.59547 0.0
C314 C 0.63727 0.63919 0.50047 0.0
C315 C 0.59132 0.63402 0.52009 0.0
C316 C 0.68055 0.67612 0.50516 0.0
C317 C 0.67981 0.70748 0.53031 0.0
C318 C 0.63268 0.70325 0.5493 0.0
C319 C 0.5885 0.66705 0.54404 0.0
C320 C 0.72826 0.74422 0.53715 0.0
C321 C 0.71804 0.79022 0.54394 0.0
C322 C 0.78401 0.73427 0.53746 0.0
C323 C 0.79768 0.68574 0.53342 0.0
C324 C 0.77331 0.65026 0.55215 0.0
C325 C 0.78576 0.60446 0.54798 0.0
C326 C 0.82297 0.59379 0.52534 0.0
C327 C 0.84799 0.62895 0.50691 0.0
C328 C 0.83558 0.6748 0.51094 0.0
C329 C 0.90339 0.91146 0.59962 0.0
C330 C 0.95137 0.92297 0.58185 0.0
C331 C 0.86133 0.87594 0.59017 0.0
C332 C 0.86433 0.85239 0.56194 0.0
C333 C 0.91197 0.86358 0.54395 0.0
C334 C 0.95518 0.89845 0.55387 0.0
C335 C 0.81723 0.81657 0.55142 0.0
C336 C 0.82778 0.77084 0.54376 0.0
C337 C 0.76141 0.82621 0.55154 0.0
C338 C 0.74673 0.87296 0.56086 0.0
C339 C 0.77255 0.91365 0.54738 0.0
C340 C 0.76231 0.95776 0.55842 0.0
C341 C 0.72529 0.96157 0.58247 0.0
C342 C 0.69811 0.92126 0.59534 0.0
C343 C 0.70875 0.87708 0.58464 0.0
H344 H 0.7175 0.99565 0.59127 0.0
H345 H 0.83254 0.5583 0.52214 0.0
H346 H 0.75313 0.41644 0.52539 0.0
H347 H 0.80711 0.35042 0.52342 0.0
H348 H 0.67107 0.26468 0.47628 0.0
H349 H 0.6161 0.33002 0.48036 0.0
H350 H 0.71206 0.21352 0.51176 0.0
H351 H 0.7969 0.3246 0.44101 0.0
H352 H 0.84255 0.40147 0.42483 0.0
H353 H 0.97752 0.39571 0.48646 0.0
H354 H 0.93228 0.31911 0.50332 0.0
H355 H 0.8609 0.05013 0.43303 0.0
H356 H 0.80567 0.1107 0.45075 0.0
H357 H 0.94126 0.17298 0.50859 0.0
H358 H 0.99691 0.11226 0.49063 0.0
H359 H 0.90507 0.23661 0.47186 0.0
H360 H 0.81042 0.13508 0.54819 0.0
H361 H 0.75851 0.06409 0.56878 0.0
H362 H 0.64336 0.05254 0.49434 0.0
H363 H 0.69373 0.12517 0.47408 0.0
C364 C 0.73475 0.38303 0.51521 0.0
C365 C 0.68071 0.37775 0.50318 0.0
C366 C 0.76573 0.34559 0.51366 0.0
C367 C 0.74397 0.30283 0.49888 0.0
C368 C 0.68904 0.29728 0.4877 0.0
C369 C 0.6575 0.33435 0.49009 0.0
C370 C 0.77803 0.26381 0.49494 0.0
C371 C 0.75397 0.21874 0.50258 0.0
C372 C 0.83355 0.2704 0.4839 0.0
C373 C 0.86089 0.31636 0.47365 0.0
C374 C 0.83612 0.33988 0.45126 0.0
C375 C 0.86194 0.38339 0.44195 0.0
C376 C 0.91281 0.40353 0.45467 0.0
C377 C 0.93806 0.38013 0.47666 0.0
C378 C 0.91236 0.33666 0.48609 0.0
C379 C 0.87847 0.07621 0.44998 0.0
C380 C 0.93322 0.07667 0.46041 0.0
C381 C 0.84675 0.11063 0.46026 0.0
C382 C 0.86916 0.14629 0.48113 0.0
C383 C 0.92305 0.14569 0.49257 0.0
C384 C 0.95467 0.1109 0.48247 0.0
C385 C 0.83849 0.18661 0.48826 0.0
C386 C 0.8632 0.2318 0.48109 0.0
C387 C 0.78336 0.18032 0.49928 0.0
C388 C 0.75617 0.13477 0.50948 0.0
C389 C 0.77446 0.11696 0.53606 0.0
C390 C 0.74493 0.07669 0.5478 0.0
C391 C 0.69781 0.05331 0.53271 0.0
C392 C 0.67995 0.07051 0.50593 0.0
C393 C 0.70868 0.11145 0.49445 0.0
H394 H 0.67485 0.02211 0.54183 0.0
H395 H 0.93273 0.43721 0.44743 0.0
H396 H 0.31873 0.41693 0.48679 0.0
H397 H 0.25487 0.34316 0.48696 0.0
H398 H 0.37991 0.27788 0.532 0.0
H399 H 0.44491 0.35045 0.52969 0.0
H400 H 0.33025 0.21661 0.49646 0.0
H401 H 0.26166 0.32656 0.56857 0.0
H402 H 0.22664 0.40007 0.58491 0.0
H403 H 0.08993 0.36866 0.52258 0.0
H404 H 0.1246 0.29524 0.5056 0.0
H405 H 0.17983 0.05675 0.59145 0.0
H406 H 0.23545 0.11967 0.56561 0.0
H407 H 0.09343 0.13769 0.51121 0.0
H408 H 0.03678 0.07389 0.53738 0.0
H409 H 0.14188 0.21987 0.54008 0.0
H410 H 0.20624 0.0986 0.47753 0.0
H411 H 0.24287 0.0237 0.46739 0.0
H412 H 0.38936 0.07478 0.51936 0.0
H413 H 0.35379 0.14996 0.52996 0.0
C414 C 0.33256 0.38661 0.49648 0.0
C415 C 0.3866 0.38943 0.5084 0.0
C416 C 0.29592 0.34448 0.49677 0.0
C417 C 0.31175 0.30489 0.51019 0.0
C418 C 0.36634 0.30763 0.52148 0.0
C419 C 0.40351 0.34925 0.52029 0.0
C420 C 0.2715 0.26108 0.51354 0.0
C421 C 0.28917 0.21748 0.50612 0.0
C422 C 0.21699 0.26171 0.52531 0.0
C423 C 0.19613 0.30578 0.53555 0.0
C424 C 0.22436 0.33552 0.55822 0.0
C425 C 0.20455 0.37714 0.5676 0.0
C426 C 0.15621 0.38912 0.55471 0.0
C427 C 0.12746 0.35941 0.53248 0.0
C428 C 0.14716 0.31781 0.52297 0.0
C429 C 0.16056 0.07326 0.57352 0.0
C430 C 0.10382 0.06031 0.56652 0.0
C431 C 0.19259 0.1092 0.55862 0.0
C432 C 0.16879 0.13325 0.53629 0.0
C433 C 0.11265 0.11935 0.52828 0.0
C434 C 0.08047 0.08279 0.5431 0.0
C435 C 0.20158 0.17582 0.52404 0.0
C436 C 0.18249 0.21915 0.52977 0.0
C437 C 0.25522 0.17492 0.51145 0.0
C438 C 0.27728 0.13001 0.50455 0.0
C439 C 0.24621 0.09387 0.48687 0.0
C440 C 0.26676 0.05134 0.48105 0.0
C441 C 0.31828 0.04449 0.49274 0.0
C442 C 0.3495 0.0802 0.51024 0.0
C443 C 0.32928 0.12285 0.51608 0.0
H444 H 0.334 0.0115 0.48823 0.0
H445 H 0.14094 0.42135 0.56201 0.0
H446 H 0.21597 0.61799 0.52667 0.0
H447 H 0.16954 0.68584 0.5176 0.0
H448 H 0.32788 0.76707 0.49796 0.0
H449 H 0.3751 0.69937 0.50799 0.0
H450 H 0.26427 0.81792 0.53325 0.0
H451 H 0.24077 0.7259 0.44111 0.0
H452 H 0.21643 0.65458 0.40838 0.0
H453 H 0.04665 0.64382 0.43858 0.0
H454 H 0.07015 0.71477 0.47182 0.0
H455 H 0.14901 0.99259 0.45087 0.0
H456 H 0.20029 0.93188 0.46959 0.0
H457 H 0.0458 0.8545 0.49943 0.0
H458 H 0.99476 0.91586 0.48122 0.0
H459 H 0.10882 0.80322 0.45935 0.0
H460 H 0.13585 0.89667 0.55238 0.0
H461 H 0.16307 0.9688 0.58379 0.0
H462 H 0.32921 0.97972 0.54802 0.0
H463 H 0.30298 0.9073 0.51646 0.0
C464 C 0.24115 0.65031 0.5207 0.0
C465 C 0.29939 0.6531 0.51809 0.0
C466 C 0.21441 0.68905 0.51525 0.0
C467 C 0.24512 0.73147 0.50681 0.0
C468 C 0.30331 0.73466 0.50439 0.0
C469 C 0.33019 0.69578 0.50984 0.0
C470 C 0.21603 0.77215 0.50034 0.0
C471 C 0.23078 0.81486 0.5168 0.0
C472 C 0.17178 0.76809 0.47918 0.0
C473 C 0.15736 0.7254 0.4592 0.0
C474 C 0.19834 0.70811 0.44097 0.0
C475 C 0.18468 0.66779 0.42229 0.0
C476 C 0.13006 0.64461 0.42147 0.0
C477 C 0.08896 0.66178 0.43927 0.0
C478 C 0.10242 0.70208 0.45802 0.0
C479 C 0.12651 0.96336 0.46239 0.0
C480 C 0.0683 0.95893 0.465 0.0
C481 C 0.15564 0.92869 0.47296 0.0
C482 C 0.1268 0.88868 0.48586 0.0
C483 C 0.0688 0.88517 0.48959 0.0
C484 C 0.03978 0.92029 0.47945 0.0
C485 C 0.15652 0.84861 0.49256 0.0
C486 C 0.14212 0.8061 0.47592 0.0
C487 C 0.20149 0.85312 0.51319 0.0
C488 C 0.21736 0.89678 0.53193 0.0
C489 C 0.17808 0.91464 0.55104 0.0
C490 C 0.19337 0.95557 0.5689 0.0
C491 C 0.24776 0.9791 0.56773 0.0
C492 C 0.28707 0.96152 0.54885 0.0
C493 C 0.27208 0.92043 0.53106 0.0
H494 H 0.25961 0.01079 0.58156 0.0
H495 H 0.11957 0.6134 0.40698 0.0
H496 H 0.06469 0.94231 0.10936 0.0
H497 H 0.06483 0.94205 0.1649 0.0
H498 H 0.97784 0.06288 0.16908 0.0
H499 H 0.97601 0.06268 0.11375 0.0
H500 H 0.09025 0.05846 0.2078 0.0
H501 H 0.89621 0.98962 0.18659 0.0
H502 H 0.82607 0.93258 0.15967 0.0
H503 H 0.90498 0.81892 0.19095 0.0
H504 H 0.97556 0.8755 0.21815 0.0
H505 H 0.00976 0.08663 0.36012 0.0
H506 H 0.01389 0.08203 0.30497 0.0
H507 H 0.02376 0.93372 0.30659 0.0
H508 H 0.01654 0.93753 0.3617 0.0
H509 H 0.95517 0.94844 0.26396 0.0
H510 H 0.13963 0.01544 0.29238 0.0
H511 H 0.21254 0.07073 0.31855 0.0
H512 H 0.1598 0.18526 0.27253 0.0
H513 H 0.08601 0.13073 0.24638 0.0
C514 C 0.04555 0.96875 0.12214 0.0
C515 C 0.02024 0.00246 0.10726 0.0
C516 C 0.04566 0.96853 0.15376 0.0
C517 C 0.02143 0.0025 0.17086 0.0
C518 C 0.99675 0.03646 0.15613 0.0
C519 C 0.99557 0.03613 0.12458 0.0
C520 C 0.02154 0.00259 0.20422 0.0
C521 C 0.06053 0.0348 0.22023 0.0
C522 C 0.98379 0.97073 0.22011 0.0
C523 C 0.94136 0.93669 0.20407 0.0
C524 C 0.89878 0.95247 0.18752 0.0
C525 C 0.8589 0.92024 0.17228 0.0
C526 C 0.86127 0.87214 0.17341 0.0
C527 C 0.90328 0.85618 0.19002 0.0
C528 C 0.94312 0.8883 0.20543 0.0
C529 C 0.01221 0.05291 0.34877 0.0
C530 C 0.01294 0.01247 0.36542 0.0
C531 C 0.01531 0.05044 0.31721 0.0
C532 C 0.02007 0.00766 0.3016 0.0
C533 C 0.02043 0.96718 0.31812 0.0
C534 C 0.01686 0.96953 0.34967 0.0
C535 C 0.02357 0.00504 0.26804 0.0
C536 C 0.98532 0.97214 0.25182 0.0
C537 C 0.06255 0.03609 0.25197 0.0
C538 C 0.10694 0.06903 0.26762 0.0
C539 C 0.14328 0.05246 0.28801 0.0
C540 C 0.18483 0.08366 0.30282 0.0
C541 C 0.19071 0.13149 0.29727 0.0
C542 C 0.15515 0.1482 0.27684 0.0
C543 C 0.11349 0.11716 0.26199 0.0
H544 H 0.22291 0.15559 0.30875 0.0
H545 H 0.83046 0.84724 0.1615 0.0
H546 H 0.06029 0.95524 0.91989 0.0
H547 H 0.06743 0.96026 0.86518 0.0
H548 H 0.98595 0.08446 0.86978 0.0
H549 H 0.97657 0.07838 0.92477 0.0
H550 H 0.94886 0.03171 0.82302 0.0
H551 H 0.12972 0.09055 0.85992 0.0
H552 H 0.21534 0.09173 0.88996 0.0
H553 H 0.25015 0.96609 0.84223 0.0
H554 H 0.16427 0.96374 0.8122 0.0
H555 H 0.03276 0.08023 0.67055 0.0
H556 H 0.03143 0.08976 0.72595 0.0
H557 H 0.06825 0.94835 0.73302 0.0
H558 H 0.06878 0.93845 0.67764 0.0
H559 H 0.13112 0.02042 0.77357 0.0
H560 H 0.94242 0.96136 0.73994 0.0
H561 H 0.85799 0.96481 0.70972 0.0
H562 H 0.84125 0.09948 0.75152 0.0
H563 H 0.92619 0.09715 0.78164 0.0
C564 C 0.04377 0.9836 0.90927 0.0
C565 C 0.01826 0.01665 0.92659 0.0
C566 C 0.04819 0.98661 0.87799 0.0
C567 C 0.02857 0.02346 0.86342 0.0
C568 C 1.00177 0.05593 0.88057 0.0
C569 C 0.99644 0.05244 0.91194 0.0
C570 C 0.03591 0.02749 0.83027 0.0
C571 C 0.98896 0.03015 0.81231 0.0
C572 C 0.0882 0.02527 0.81617 0.0
C573 C 0.14031 0.02681 0.83393 0.0
C574 C 0.15545 0.06301 0.85594 0.0
C575 C 0.20405 0.0639 0.87296 0.0
C576 C 0.23811 0.02896 0.86804 0.0
C577 C 0.22372 0.99313 0.84603 0.0
C578 C 0.17511 0.99203 0.82896 0.0
C579 C 0.04141 0.05152 0.684 0.0
C580 C 0.05085 0.00861 0.67002 0.0
C581 C 0.04041 0.05692 0.71552 0.0
C582 C 0.04951 0.01967 0.73341 0.0
C583 C 0.06121 0.97746 0.71949 0.0
C584 C 0.06133 0.97178 0.68799 0.0
C585 C 0.04401 0.02365 0.76663 0.0
C586 C 0.09132 0.02258 0.78449 0.0
C587 C 0.99236 0.02819 0.78064 0.0
C588 C 0.94101 0.02933 0.76276 0.0
C589 C 0.92103 0.9919 0.74248 0.0
C590 C 0.87303 0.99361 0.72541 0.0
C591 C 0.84436 0.0324 0.72863 0.0
C592 C 0.86355 0.06949 0.749 0.0
C593 C 0.91161 0.06799 0.76609 0.0
H594 H 0.80721 0.03367 0.71539 0.0
H595 H 0.2757 0.0297 0.88126 0.0
H596 H 0.4561 0.56109 0.61324 0.0
H597 H 0.46368 0.55792 0.6682 0.0
H598 H 0.5544 0.43976 0.65727 0.0
H599 H 0.54832 0.44344 0.60197 0.0
H600 H 0.45464 0.43466 0.70163 0.0
H601 H 0.62983 0.52651 0.67587 0.0
H602 H 0.68714 0.59107 0.65061 0.0
H603 H 0.60283 0.69164 0.70022 0.0
H604 H 0.54431 0.62757 0.72541 0.0
H605 H 0.52658 0.42784 0.85589 0.0
H606 H 0.5281 0.42674 0.80083 0.0
H607 H 0.4996 0.57144 0.80306 0.0
H608 H 0.50246 0.57395 0.8582 0.0
H609 H 0.57125 0.56059 0.76183 0.0
H610 H 0.39429 0.4751 0.78597 0.0
H611 H 0.32869 0.4143 0.80988 0.0
H612 H 0.40543 0.3065 0.76286 0.0
H613 H 0.47201 0.36669 0.73896 0.0
C614 C 0.47769 0.53439 0.62249 0.0
C615 C 0.50168 0.5025 0.60331 0.0
C616 C 0.48202 0.53271 0.65386 0.0
C617 C 0.5096 0.49866 0.66667 0.0
C618 C 0.53295 0.46628 0.6477 0.0
C619 C 0.52964 0.46854 0.6162 0.0
C620 C 0.51395 0.49738 0.69997 0.0
C621 C 0.48086 0.46161 0.71488 0.0
C622 C 0.54661 0.5336 0.71708 0.0
C623 C 0.58231 0.5722 0.7023 0.0
C624 C 0.62316 0.56236 0.68119 0.0
C625 C 0.65593 0.59887 0.66693 0.0
C626 C 0.64853 0.64542 0.67375 0.0
C627 C 0.60847 0.65556 0.69493 0.0
C628 C 0.57552 0.61916 0.70923 0.0
C629 C 0.52146 0.45973 0.84477 0.0
C630 C 0.51436 0.50101 0.86171 0.0
C631 C 0.52149 0.45881 0.81315 0.0
C632 C 0.51297 0.49876 0.79762 0.0
C633 C 0.50604 0.54005 0.81443 0.0
C634 C 0.50695 0.54125 0.84606 0.0
C635 C 0.51176 0.49769 0.76391 0.0
C636 C 0.54528 0.53322 0.7488 0.0
C637 C 0.47851 0.4617 0.74663 0.0
C638 C 0.43852 0.42541 0.76093 0.0
C639 C 0.39745 0.43843 0.78091 0.0
C640 C 0.36005 0.40408 0.79443 0.0
C641 C 0.363 0.35657 0.78796 0.0
C642 C 0.40326 0.34332 0.76789 0.0
C643 C 0.44082 0.37753 0.75433 0.0
H644 H 0.33399 0.33003 0.79845 0.0
H645 H 0.67392 0.67364 0.66266 0.0
H646 H 0.44618 0.59316 0.42576 0.0
H647 H 0.44561 0.60039 0.37081 0.0
H648 H 0.49789 0.46338 0.35879 0.0
H649 H 0.50195 0.45762 0.41356 0.0
H650 H 0.55358 0.51597 0.32295 0.0
H651 H 0.35748 0.48964 0.34562 0.0
H652 H 0.27122 0.50522 0.3716 0.0
H653 H 0.28889 0.64288 0.33603 0.0
H654 H 0.37563 0.62831 0.31011 0.0
H655 H 0.47698 0.46435 0.16916 0.0
H656 H 0.47417 0.46556 0.22457 0.0
H657 H 0.47693 0.61572 0.22728 0.0
H658 H 0.48036 0.61479 0.17173 0.0
H659 H 0.3944 0.56226 0.26695 0.0
H660 H 0.59031 0.58311 0.24215 0.0
H661 H 0.67373 0.56263 0.21544 0.0
H662 H 0.65124 0.42755 0.25474 0.0
H663 H 0.56714 0.44697 0.28133 0.0
C664 C 0.45726 0.5646 0.41128 0.0
C665 C 0.47412 0.52486 0.42381 0.0
C666 C 0.45662 0.56858 0.37987 0.0
C667 C 0.47093 0.53213 0.36045 0.0
C668 C 0.4869 0.49212 0.37314 0.0
C669 C 0.48903 0.48874 0.40446 0.0
C670 C 0.47114 0.53587 0.32698 0.0
C671 C 0.51832 0.52551 0.31081 0.0
C672 C 0.42585 0.54944 0.31093 0.0
C673 C 0.37333 0.55804 0.32618 0.0
C674 C 0.34312 0.52333 0.34348 0.0
C675 C 0.29413 0.53197 0.35817 0.0
C676 C 0.27467 0.57507 0.35554 0.0
C677 C 0.30405 0.60954 0.33809 0.0
C678 C 0.35309 0.60109 0.32336 0.0
C679 C 0.47665 0.49755 0.18159 0.0
C680 C 0.479 0.5395 0.16626 0.0
C681 C 0.47518 0.49821 0.21316 0.0
C682 C 0.47542 0.54074 0.2299 0.0
C683 C 0.47663 0.58259 0.21468 0.0
C684 C 0.47896 0.58205 0.18307 0.0
C685 C 0.47611 0.54139 0.26336 0.0
C686 C 0.42939 0.55276 0.27936 0.0
C687 C 0.52128 0.52791 0.27927 0.0
C688 C 0.57213 0.51634 0.2635 0.0
C689 C 0.60288 0.54889 0.24489 0.0
C690 C 0.65034 0.5375 0.22981 0.0
C691 C 0.6677 0.49378 0.23333 0.0
C692 C 0.63771 0.46139 0.25201 0.0
C693 C 0.59017 0.47259 0.26711 0.0
H694 H 0.70446 0.48503 0.22164 0.0
H695 H 0.23678 0.58171 0.36696 0.0
loop_
_geom_bond_atom_site_label_1
_geom_bond_atom_site_label_2
_geom_bond_distance
_geom_bond_site_symmetry_2
_ccdc_geom_bond_type
Co0 N5 2.057 . S
Co0 O17 2.021 . S
Co0 O20 2.062 1_455 S
Co0 O24 2.117 1_554 S
Co0 O25 2.020 1_565 S
C1 O21 1.259 1_455 S
C1 O24 1.258 1_545 S
Co2 N11 2.057 . S
Co2 O18 2.117 . S
Co2 O19 2.020 1_545 S
Co2 O21 2.021 1_554 S
Co2 O26 2.062 1_655 S
C3 N5 1.316 . S
C3 N6 1.347 . S
C3 H8 0.931 . S
C4 N5 1.375 1_556 S
C4 C7 1.350 . S
C4 H9 0.930 . S
N5 Co0 2.057 . S
N5 C3 1.316 . S
N5 C4 1.375 1_554 S
N6 C3 1.347 . S
N6 C7 1.373 1_554 S
C7 C4 1.350 . S
C7 N6 1.373 1_556 S
C7 H28 0.931 . S
H8 C3 0.931 . S
H9 C4 0.930 . S
C10 O17 1.259 1_545 S
C10 O18 1.258 1_455 S
N11 Co2 2.057 . S
N11 C12 1.316 . S
N11 C13 1.375 . S
C12 N11 1.316 . S
C12 N14 1.347 . S
C12 H23 0.931 1_554 S
C13 N11 1.375 . S
C13 C15 1.350 . S
C13 H22 0.930 . S
N14 C12 1.347 . S
N14 C15 1.373 . S
C15 C13 1.350 . S
C15 N14 1.373 . S
C15 H29 0.931 . S
C16 O19 1.256 . S
C16 O20 1.255 . S
O17 Co0 2.021 . S
O17 C10 1.259 1_565 S
O18 Co2 2.117 . S
O18 C10 1.258 1_655 S
O19 Co2 2.020 1_565 S
O19 C16 1.256 . S
O20 Co0 2.062 1_655 S
O20 C16 1.255 . S
O21 C1 1.259 1_655 S
O21 Co2 2.021 1_556 S
H22 C13 0.930 . S
H23 C12 0.931 1_556 S
O24 Co0 2.117 1_556 S
O24 C1 1.258 1_565 S
O25 Co0 2.020 1_545 S
O25 C27 1.256 . S
O26 Co2 2.062 1_455 S
O26 C27 1.255 . S
C27 O25 1.256 . S
C27 O26 1.255 . S
H28 C7 0.931 . S
H29 C15 0.931 . S
Co30 N35 2.057 . S
Co30 O47 2.021 . S
Co30 O50 2.062 . S
Co30 O54 2.117 . S
Co30 O55 2.020 . S
C31 O51 1.259 . S
C31 O54 1.258 . S
Co32 N41 2.057 . S
Co32 O48 2.117 . S
Co32 O49 2.020 . S
Co32 O51 2.021 . S
Co32 O56 2.062 . S
C33 N35 1.316 . S
C33 N36 1.347 . S
C33 H38 0.931 . S
C34 N35 1.375 . S
C34 C37 1.350 . S
C34 H39 0.930 . S
N35 Co30 2.057 . S
N35 C33 1.316 . S
N35 C34 1.375 . S
N36 C33 1.347 . S
N36 C37 1.373 . S
C37 C34 1.350 . S
C37 N36 1.373 . S
C37 H58 0.931 . S
H38 C33 0.931 . S
H39 C34 0.930 . S
C40 O47 1.259 . S
C40 O48 1.258 . S
N41 Co32 2.057 . S
N41 C42 1.316 . S
N41 C43 1.375 . S
C42 N41 1.316 . S
C42 N44 1.347 . S
C42 H53 0.931 . S
C43 N41 1.375 . S
C43 C45 1.350 . S
C43 H52 0.930 . S
N44 C42 1.347 . S
N44 C45 1.373 . S
C45 C43 1.350 . S
C45 N44 1.373 . S
C45 H59 0.931 . S
C46 O49 1.256 . S
C46 O50 1.255 . S
O47 Co30 2.021 . S
O47 C40 1.259 . S
O48 Co32 2.117 . S
O48 C40 1.258 . S
O49 Co32 2.020 . S
O49 C46 1.256 . S
O50 Co30 2.062 . S
O50 C46 1.255 . S
O51 C31 1.259 . S
O51 Co32 2.021 . S
H52 C43 0.930 . S
H53 C42 0.931 . S
O54 Co30 2.117 . S
O54 C31 1.258 . S
O55 Co30 2.020 . S
O55 C57 1.256 . S
O56 Co32 2.062 . S
O56 C57 1.255 . S
C57 O55 1.256 . S
C57 O56 1.255 . S
H58 C37 0.931 . S
H59 C45 0.931 . S
H60 C63 0.931 . S
H61 C66 0.928 . S
H62 C68 0.931 . S
C63 H60 0.931 . S
C63 C64 1.413 . S
C63 C65 1.358 1_655 S
C64 C63 1.413 . S
C64 C68 1.417 1_655 S
C65 C63 1.358 1_455 S
C65 C66 1.374 1_545 S
C66 H61 0.928 . S
C66 C65 1.374 1_565 S
C66 C67 1.404 . S
C67 C66 1.404 . S
C67 C68 1.403 1_565 S
C68 H62 0.931 . S
C68 C64 1.417 1_455 S
C68 C67 1.403 1_545 S
H69 C72 0.931 . S
H70 C75 0.928 . S
H71 C77 0.930 . S
C72 H69 0.931 . S
C72 C73 1.413 . S
C72 C74 1.360 1_665 S
C73 C72 1.413 . S
C73 C77 1.429 1_665 S
C74 C72 1.360 1_445 S
C74 C75 1.372 . S
C75 H70 0.928 . S
C75 C74 1.372 . S
C75 C76 1.404 . S
C76 C75 1.404 . S
C76 C77 1.391 . S
C77 H71 0.930 . S
C77 C73 1.429 1_445 S
C77 C76 1.391 . S
H78 C81 0.931 . S
H79 C84 0.928 . S
H80 C86 0.930 . S
C81 H78 0.931 . S
C81 C82 1.413 . S
C81 C83 1.360 . S
C82 C81 1.413 . S
C82 C86 1.429 . S
C83 C81 1.360 . S
C83 C84 1.372 . S
C84 H79 0.928 . S
C84 C83 1.372 . S
C84 C85 1.404 . S
C85 C84 1.404 . S
C85 C86 1.391 . S
C86 H80 0.930 . S
C86 C82 1.429 . S
C86 C85 1.391 . S
H87 C90 0.931 . S
H88 C93 0.928 . S
H89 C95 0.930 . S
C90 H87 0.931 . S
C90 C91 1.413 . S
C90 C92 1.360 . S
C91 C90 1.413 . S
C91 C95 1.429 . S
C92 C90 1.360 . S
C92 C93 1.372 . S
C93 H88 0.928 . S
C93 C92 1.372 . S
C93 C94 1.404 . S
C94 C93 1.404 . S
C94 C95 1.391 . S
C95 H89 0.930 . S
C95 C91 1.429 . S
C95 C94 1.391 . S
H96 C114 0.951 . S
H97 C116 0.951 . S
H98 C118 0.950 . S
H99 C119 0.950 . S
H100 C121 0.950 . S
H101 C124 0.950 . S
H102 C125 0.950 . S
H103 C127 0.950 . S
H104 C128 0.950 . S
H105 C129 0.951 . S
H106 C131 0.951 . S
H107 C133 0.950 . S
H108 C134 0.950 . S
H109 C136 0.950 . S
H110 C139 0.950 . S
H111 C140 0.950 . S
H112 C142 0.950 . S
H113 C143 0.950 . S
C114 H96 0.951 . S
C114 C115 1.366 . S
C114 C116 1.388 . S
C115 C114 1.366 . S
C115 C119 1.385 . S
C116 H97 0.951 . S
C116 C114 1.388 . S
C116 C117 1.366 . S
C117 C116 1.366 . S
C117 C118 1.414 . S
C117 C120 1.499 . S
C118 H98 0.950 . S
C118 C117 1.414 . S
C118 C119 1.374 . S
C119 H99 0.950 . S
C119 C115 1.385 . S
C119 C118 1.374 . S
C120 C117 1.499 . S
C120 C121 1.373 . S
C120 C122 1.389 . S
C121 H100 0.950 . S
C121 C120 1.373 . S
C121 C137 1.377 . S
C122 C120 1.389 . S
C122 C123 1.524 . S
C122 C136 1.377 . S
C123 C122 1.524 . S
C123 C124 1.397 1_554 S
C123 C128 1.363 . S
C124 H101 0.950 . S
C124 C123 1.397 1_556 S
C124 C125 1.334 . S
C125 H102 0.950 . S
C125 C124 1.334 . S
C125 C126 1.287 . S
C126 C125 1.287 . S
C126 C127 1.524 1_556 S
C126 H145 0.913 . S
C127 H103 0.950 . S
C127 C126 1.524 1_554 S
C127 C128 1.415 . S
C128 H104 0.950 . S
C128 C123 1.363 . S
C128 C127 1.415 . S
C129 H105 0.951 . S
C129 C130 1.366 . S
C129 C131 1.388 . S
C130 C129 1.366 . S
C130 C134 1.385 . S
C131 H106 0.951 . S
C131 C129 1.388 . S
C131 C132 1.366 . S
C132 C131 1.366 . S
C132 C133 1.414 . S
C132 C135 1.499 . S
C133 H107 0.950 . S
C133 C132 1.414 . S
C133 C134 1.374 . S
C134 H108 0.950 . S
C134 C130 1.385 . S
C134 C133 1.374 . S
C135 C132 1.499 . S
C135 C136 1.373 . S
C135 C137 1.389 . S
C136 H109 0.950 . S
C136 C122 1.377 . S
C136 C135 1.373 . S
C137 C121 1.377 . S
C137 C135 1.389 . S
C137 C138 1.524 . S
C138 C137 1.524 . S
C138 C139 1.397 . S
C138 C143 1.363 . S
C139 H110 0.950 . S
C139 C138 1.397 . S
C139 C140 1.334 . S
C140 H111 0.950 . S
C140 C139 1.334 . S
C140 C141 1.287 . S
C141 C140 1.287 . S
C141 C142 1.524 . S
C141 H144 0.999 . S
C142 H112 0.950 . S
C142 C141 1.524 . S
C142 C143 1.415 . S
C143 H113 0.950 . S
C143 C138 1.363 . S
C143 C142 1.415 . S
H144 C141 0.999 . S
H145 C126 0.913 . S
H146 C164 0.951 . S
H147 C166 0.951 . S
H148 C168 0.950 . S
H149 C169 0.950 . S
H150 C171 0.950 . S
H151 C174 0.950 . S
H152 C175 0.950 . S
H153 C177 0.950 . S
H154 C178 0.938 1_556 S
H155 C179 0.951 . S
H156 C181 0.951 . S
H157 C183 0.950 . S
H158 C184 0.950 . S
H159 C186 0.950 . S
H160 C189 0.950 . S
H161 C190 0.950 . S
H162 C192 0.950 . S
H163 C193 0.950 . S
C164 H146 0.951 . S
C164 C165 1.366 1_556 S
C164 C166 1.388 . S
C165 C164 1.366 1_554 S
C165 C169 1.385 . S
C166 H147 0.951 . S
C166 C164 1.388 . S
C166 C167 1.360 1_556 S
C167 C166 1.360 1_554 S
C167 C168 1.422 . S
C167 C170 1.496 1_554 S
C168 H148 0.950 . S
C168 C167 1.422 . S
C168 C169 1.374 . S
C169 H149 0.950 . S
C169 C165 1.385 . S
C169 C168 1.374 . S
C170 C167 1.496 1_556 S
C170 C171 1.373 . S
C170 C172 1.389 . S
C171 H150 0.950 . S
C171 C170 1.373 . S
C171 C187 1.377 . S
C172 C170 1.389 . S
C172 C173 1.524 1_556 S
C172 C186 1.377 . S
C173 C172 1.524 1_554 S
C173 C174 1.397 . S
C173 C178 1.368 . S
C174 H151 0.950 . S
C174 C173 1.397 . S
C174 C175 1.334 . S
C175 H152 0.950 . S
C175 C174 1.334 . S
C175 C176 1.287 . S
C176 C175 1.287 . S
C176 C177 1.524 . S
C176 H195 0.913 . S
C177 H153 0.950 . S
C177 C176 1.524 . S
C177 C178 1.422 . S
C178 H154 0.938 1_554 S
C178 C173 1.368 . S
C178 C177 1.422 . S
C179 H155 0.951 . S
C179 C180 1.366 . S
C179 C181 1.388 . S
C180 C179 1.366 . S
C180 C184 1.385 . S
C181 H156 0.951 . S
C181 C179 1.388 . S
C181 C182 1.366 . S
C182 C181 1.366 . S
C182 C183 1.414 . S
C182 C185 1.499 . S
C183 H157 0.950 . S
C183 C182 1.414 . S
C183 C184 1.374 . S
C184 H158 0.950 . S
C184 C180 1.385 . S
C184 C183 1.374 . S
C185 C182 1.499 . S
C185 C186 1.373 . S
C185 C187 1.389 . S
C186 H159 0.950 . S
C186 C172 1.377 . S
C186 C185 1.373 . S
C187 C171 1.377 . S
C187 C185 1.389 . S
C187 C188 1.524 . S
C188 C187 1.524 . S
C188 C189 1.397 . S
C188 C193 1.363 . S
C189 H160 0.950 . S
C189 C188 1.397 . S
C189 C190 1.334 . S
C190 H161 0.950 . S
C190 C189 1.334 . S
C190 C191 1.287 . S
C191 C190 1.287 . S
C191 C192 1.524 . S
C191 H194 0.999 . S
C192 H162 0.950 . S
C192 C191 1.524 . S
C192 C193 1.415 . S
C193 H163 0.950 . S
C193 C188 1.363 . S
C193 C192 1.415 . S
H194 C191 0.999 . S
H195 C176 0.913 . S
H196 C214 0.951 . S
H197 C216 0.951 . S
H198 C218 0.950 . S
H199 C219 0.950 . S
H200 C221 0.950 . S
H201 C224 0.950 . S
H202 C225 0.950 . S
H203 C227 0.950 . S
H204 C228 0.950 . S
H205 C229 0.951 . S
H206 C231 0.951 . S
H207 C233 0.950 . S
H208 C234 0.950 . S
H209 C236 0.950 . S
H210 C239 0.955 . S
H211 C240 0.950 . S
H212 C242 0.950 . S
H213 C243 0.950 . S
C214 H196 0.951 . S
C214 C215 1.366 . S
C214 C216 1.388 . S
C215 C214 1.366 . S
C215 C219 1.385 . S
C216 H197 0.951 . S
C216 C214 1.388 . S
C216 C217 1.366 . S
C217 C216 1.366 . S
C217 C218 1.414 . S
C217 C220 1.499 . S
C218 H198 0.950 . S
C218 C217 1.414 . S
C218 C219 1.374 . S
C219 H199 0.950 . S
C219 C215 1.385 . S
C219 C218 1.374 . S
C220 C217 1.499 . S
C220 C221 1.373 . S
C220 C222 1.389 . S
C221 H200 0.950 . S
C221 C220 1.373 . S
C221 C237 1.377 . S
C222 C220 1.389 . S
C222 C223 1.524 . S
C222 C236 1.377 . S
C223 C222 1.524 . S
C223 C224 1.397 . S
C223 C228 1.363 . S
C224 H201 0.950 . S
C224 C223 1.397 . S
C224 C225 1.334 . S
C225 H202 0.950 . S
C225 C224 1.334 . S
C225 C226 1.287 . S
C226 C225 1.287 . S
C226 C227 1.524 . S
C226 H245 0.913 . S
C227 H203 0.950 . S
C227 C226 1.524 . S
C227 C228 1.415 . S
C228 H204 0.950 . S
C228 C223 1.363 . S
C228 C227 1.415 . S
C229 H205 0.951 . S
C229 C230 1.366 . S
C229 C231 1.388 . S
C230 C229 1.366 . S
C230 C234 1.385 . S
C231 H206 0.951 . S
C231 C229 1.388 . S
C231 C232 1.366 . S
C232 C231 1.366 . S
C232 C233 1.414 . S
C232 C235 1.499 . S
C233 H207 0.950 . S
C233 C232 1.414 . S
C233 C234 1.374 . S
C234 H208 0.950 . S
C234 C230 1.385 . S
C234 C233 1.374 . S
C235 C232 1.499 . S
C235 C236 1.373 . S
C235 C237 1.389 . S
C236 H209 0.950 . S
C236 C222 1.377 . S
C236 C235 1.373 . S
C237 C221 1.377 . S
C237 C235 1.389 . S
C237 C238 1.524 . S
C238 C237 1.524 . S
C238 C239 1.397 . S
C238 C243 1.363 . S
C239 H210 0.955 . S
C239 C238 1.397 . S
C239 C240 1.334 1_554 S
C240 H211 0.950 . S
C240 C239 1.334 1_556 S
C240 C241 1.287 . S
C241 C240 1.287 . S
C241 C242 1.524 1_556 S
C241 H244 0.999 . S
C242 H212 0.950 . S
C242 C241 1.524 1_554 S
C242 C243 1.415 . S
C243 H213 0.950 . S
C243 C238 1.363 . S
C243 C242 1.415 . S
H244 C241 0.999 . S
H245 C226 0.913 . S
H246 C264 0.951 . S
H247 C266 0.951 . S
H248 C268 0.950 . S
H249 C269 0.950 . S
H250 C271 0.950 . S
H251 C274 0.950 . S
H252 C275 0.950 . S
H253 C277 0.950 . S
H254 C278 0.950 . S
H255 C279 0.951 . S
H256 C281 0.951 . S
H257 C283 0.950 . S
H258 C284 0.950 . S
H259 C286 0.950 . S
H260 C289 0.950 . S
H261 C290 0.950 . S
H262 C292 0.950 . S
H263 C293 0.950 1_554 S
C264 H246 0.951 . S
C264 C265 1.366 1_556 S
C264 C266 1.388 . S
C265 C264 1.366 1_554 S
C265 C269 1.385 . S
C266 H247 0.951 . S
C266 C264 1.388 . S
C266 C267 1.383 . S
C267 C266 1.383 . S
C267 C268 1.389 1_556 S
C267 C270 1.507 . S
C268 H248 0.950 . S
C268 C267 1.389 1_554 S
C268 C269 1.374 . S
C269 H249 0.950 . S
C269 C265 1.385 . S
C269 C268 1.374 . S
C270 C267 1.507 . S
C270 C271 1.373 . S
C270 C272 1.389 . S
C271 H250 0.950 . S
C271 C270 1.373 . S
C271 C287 1.377 . S
C272 C270 1.389 . S
C272 C273 1.524 . S
C272 C286 1.377 . S
C273 C272 1.524 . S
C273 C274 1.397 1_556 S
C273 C278 1.363 . S
C274 H251 0.950 . S
C274 C273 1.397 1_554 S
C274 C275 1.334 . S
C275 H252 0.950 . S
C275 C274 1.334 . S
C275 C276 1.287 . S
C276 C275 1.287 . S
C276 C277 1.524 1_554 S
C276 H295 0.913 . S
C277 H253 0.950 . S
C277 C276 1.524 1_556 S
C277 C278 1.415 . S
C278 H254 0.950 . S
C278 C273 1.363 . S
C278 C277 1.415 . S
C279 H255 0.951 . S
C279 C280 1.366 . S
C279 C281 1.388 . S
C280 C279 1.366 . S
C280 C284 1.385 . S
C281 H256 0.951 . S
C281 C279 1.388 . S
C281 C282 1.366 . S
C282 C281 1.366 . S
C282 C283 1.414 . S
C282 C285 1.499 . S
C283 H257 0.950 . S
C283 C282 1.414 . S
C283 C284 1.374 . S
C284 H258 0.950 . S
C284 C280 1.385 . S
C284 C283 1.374 . S
C285 C282 1.499 . S
C285 C286 1.373 . S
C285 C287 1.389 . S
C286 H259 0.950 . S
C286 C272 1.377 . S
C286 C285 1.373 . S
C287 C271 1.377 . S
C287 C285 1.389 . S
C287 C288 1.524 . S
C288 C287 1.524 . S
C288 C289 1.397 . S
C288 C293 1.363 . S
C289 H260 0.950 . S
C289 C288 1.397 . S
C289 C290 1.334 . S
C290 H261 0.950 . S
C290 C289 1.334 . S
C290 C291 1.287 . S
C291 C290 1.287 . S
C291 C292 1.524 . S
C291 H294 0.999 . S
C292 H262 0.950 . S
C292 C291 1.524 . S
C292 C293 1.415 . S
C293 H263 0.950 1_556 S
C293 C288 1.363 . S
C293 C292 1.415 . S
H294 C291 0.999 . S
H295 C276 0.913 . S
H296 C314 0.951 . S
H297 C316 0.951 . S
H298 C318 0.950 . S
H299 C319 0.950 . S
H300 C321 0.950 . S
H301 C324 0.950 . S
H302 C325 0.950 . S
H303 C327 0.950 . S
H304 C328 0.950 . S
H305 C329 0.951 . S
H306 C331 0.951 . S
H307 C333 0.950 . S
H308 C334 0.950 . S
H309 C336 0.950 . S
H310 C339 0.950 . S
H311 C340 0.950 . S
H312 C342 0.950 . S
H313 C343 0.950 . S
C314 H296 0.951 . S
C314 C315 1.366 . S
C314 C316 1.388 . S
C315 C314 1.366 . S
C315 C319 1.385 . S
C316 H297 0.951 . S
C316 C314 1.388 . S
C316 C317 1.366 . S
C317 C316 1.366 . S
C317 C318 1.414 . S
C317 C320 1.499 . S
C318 H298 0.950 . S
C318 C317 1.414 . S
C318 C319 1.374 . S
C319 H299 0.950 . S
C319 C315 1.385 . S
C319 C318 1.374 . S
C320 C317 1.499 . S
C320 C321 1.373 . S
C320 C322 1.389 . S
C321 H300 0.950 . S
C321 C320 1.373 . S
C321 C337 1.377 . S
C322 C320 1.389 . S
C322 C323 1.524 . S
C322 C336 1.377 . S
C323 C322 1.524 . S
C323 C324 1.397 . S
C323 C328 1.363 . S
C324 H301 0.950 . S
C324 C323 1.397 . S
C324 C325 1.334 . S
C325 H302 0.950 . S
C325 C324 1.334 . S
C325 C326 1.287 . S
C326 C325 1.287 . S
C326 C327 1.524 . S
C326 H345 0.913 . S
C327 H303 0.950 . S
C327 C326 1.524 . S
C327 C328 1.415 . S
C328 H304 0.950 . S
C328 C323 1.363 . S
C328 C327 1.415 . S
C329 H305 0.951 . S
C329 C330 1.366 . S
C329 C331 1.388 . S
C330 C329 1.366 . S
C330 C334 1.385 . S
C331 H306 0.951 . S
C331 C329 1.388 . S
C331 C332 1.366 . S
C332 C331 1.366 . S
C332 C333 1.414 . S
C332 C335 1.499 . S
C333 H307 0.950 . S
C333 C332 1.414 . S
C333 C334 1.374 . S
C334 H308 0.950 . S
C334 C330 1.385 . S
C334 C333 1.374 . S
C335 C332 1.499 . S
C335 C336 1.373 . S
C335 C337 1.389 . S
C336 H309 0.950 . S
C336 C322 1.377 . S
C336 C335 1.373 . S
C337 C321 1.377 . S
C337 C335 1.389 . S
C337 C338 1.524 . S
C338 C337 1.524 . S
C338 C339 1.397 . S
C338 C343 1.363 . S
C339 H310 0.950 . S
C339 C338 1.397 . S
C339 C340 1.334 . S
C340 H311 0.950 . S
C340 C339 1.334 . S
C340 C341 1.287 . S
C341 C340 1.287 . S
C341 C342 1.524 . S
C341 H344 0.999 . S
C342 H312 0.950 . S
C342 C341 1.524 . S
C342 C343 1.415 . S
C343 H313 0.950 . S
C343 C338 1.363 . S
C343 C342 1.415 . S
H344 C341 0.999 . S
H345 C326 0.913 . S
H346 C364 0.951 . S
H347 C366 0.951 . S
H348 C368 0.950 . S
H349 C369 0.950 . S
H350 C371 0.950 . S
H351 C374 0.950 . S
H352 C375 0.950 . S
H353 C377 0.950 . S
H354 C378 0.950 . S
H355 C379 0.951 . S
H356 C381 0.951 . S
H357 C383 0.950 . S
H358 C384 0.950 . S
H359 C386 0.950 . S
H360 C389 0.950 . S
H361 C390 0.950 . S
H362 C392 0.950 . S
H363 C393 0.950 . S
C364 H346 0.951 . S
C364 C365 1.366 . S
C364 C366 1.388 . S
C365 C364 1.366 . S
C365 C369 1.385 . S
C366 H347 0.951 . S
C366 C364 1.388 . S
C366 C367 1.366 . S
C367 C366 1.366 . S
C367 C368 1.414 . S
C367 C370 1.499 . S
C368 H348 0.950 . S
C368 C367 1.414 . S
C368 C369 1.374 . S
C369 H349 0.950 . S
C369 C365 1.385 . S
C369 C368 1.374 . S
C370 C367 1.499 . S
C370 C371 1.373 . S
C370 C372 1.389 . S
C371 H350 0.950 . S
C371 C370 1.373 . S
C371 C387 1.377 . S
C372 C370 1.389 . S
C372 C373 1.524 . S
C372 C386 1.377 . S
C373 C372 1.524 . S
C373 C374 1.397 . S
C373 C378 1.363 . S
C374 H351 0.950 . S
C374 C373 1.397 . S
C374 C375 1.334 . S
C375 H352 0.950 . S
C375 C374 1.334 . S
C375 C376 1.287 . S
C376 C375 1.287 . S
C376 C377 1.524 . S
C376 H395 0.913 . S
C377 H353 0.950 . S
C377 C376 1.524 . S
C377 C378 1.415 . S
C378 H354 0.950 . S
C378 C373 1.363 . S
C378 C377 1.415 . S
C379 H355 0.951 . S
C379 C380 1.366 . S
C379 C381 1.388 . S
C380 C379 1.366 . S
C380 C384 1.385 . S
C381 H356 0.951 . S
C381 C379 1.388 . S
C381 C382 1.366 . S
C382 C381 1.366 . S
C382 C383 1.414 . S
C382 C385 1.499 . S
C383 H357 0.950 . S
C383 C382 1.414 . S
C383 C384 1.374 . S
C384 H358 0.950 . S
C384 C380 1.385 . S
C384 C383 1.374 . S
C385 C382 1.499 . S
C385 C386 1.373 . S
C385 C387 1.389 . S
C386 H359 0.950 . S
C386 C372 1.377 . S
C386 C385 1.373 . S
C387 C371 1.377 . S
C387 C385 1.389 . S
C387 C388 1.524 . S
C388 C387 1.524 . S
C388 C389 1.397 . S
C388 C393 1.363 . S
C389 H360 0.950 . S
C389 C388 1.397 . S
C389 C390 1.334 . S
C390 H361 0.950 . S
C390 C389 1.334 . S
C390 C391 1.287 . S
C391 C390 1.287 . S
C391 C392 1.524 . S
C391 H394 0.999 1_545 S
C392 H362 0.950 . S
C392 C391 1.524 . S
C392 C393 1.415 . S
C393 H363 0.950 . S
C393 C388 1.363 . S
C393 C392 1.415 . S
H394 C391 0.999 1_565 S
H395 C376 0.913 . S
H396 C414 0.951 . S
H397 C416 0.951 . S
H398 C418 0.950 . S
H399 C419 0.950 . S
H400 C421 0.950 . S
H401 C424 0.950 . S
H402 C425 0.950 . S
H403 C427 0.950 . S
H404 C428 0.950 . S
H405 C429 0.951 . S
H406 C431 0.951 . S
H407 C433 0.950 . S
H408 C434 0.950 . S
H409 C436 0.950 . S
H410 C439 0.950 . S
H411 C440 0.950 . S
H412 C442 0.950 . S
H413 C443 0.950 . S
C414 H396 0.951 . S
C414 C415 1.366 . S
C414 C416 1.388 . S
C415 C414 1.366 . S
C415 C419 1.385 . S
C416 H397 0.951 . S
C416 C414 1.388 . S
C416 C417 1.366 . S
C417 C416 1.366 . S
C417 C418 1.414 . S
C417 C420 1.499 . S
C418 H398 0.950 . S
C418 C417 1.414 . S
C418 C419 1.374 . S
C419 H399 0.950 . S
C419 C415 1.385 . S
C419 C418 1.374 . S
C420 C417 1.499 . S
C420 C421 1.373 . S
C420 C422 1.389 . S
C421 H400 0.950 . S
C421 C420 1.373 . S
C421 C437 1.377 . S
C422 C420 1.389 . S
C422 C423 1.524 . S
C422 C436 1.377 . S
C423 C422 1.524 . S
C423 C424 1.397 . S
C423 C428 1.363 . S
C424 H401 0.950 . S
C424 C423 1.397 . S
C424 C425 1.334 . S
C425 H402 0.950 . S
C425 C424 1.334 . S
C425 C426 1.287 . S
C426 C425 1.287 . S
C426 C427 1.524 . S
C426 H445 0.913 . S
C427 H403 0.950 . S
C427 C426 1.524 . S
C427 C428 1.415 . S
C428 H404 0.950 . S
C428 C423 1.363 . S
C428 C427 1.415 . S
C429 H405 0.951 . S
C429 C430 1.366 . S
C429 C431 1.388 . S
C430 C429 1.366 . S
C430 C434 1.385 . S
C431 H406 0.951 . S
C431 C429 1.388 . S
C431 C432 1.366 . S
C432 C431 1.366 . S
C432 C433 1.414 . S
C432 C435 1.499 . S
C433 H407 0.950 . S
C433 C432 1.414 . S
C433 C434 1.374 . S
C434 H408 0.950 . S
C434 C430 1.385 . S
C434 C433 1.374 . S
C435 C432 1.499 . S
C435 C436 1.373 . S
C435 C437 1.389 . S
C436 H409 0.950 . S
C436 C422 1.377 . S
C436 C435 1.373 . S
C437 C421 1.377 . S
C437 C435 1.389 . S
C437 C438 1.524 . S
C438 C437 1.524 . S
C438 C439 1.397 . S
C438 C443 1.363 . S
C439 H410 0.950 . S
C439 C438 1.397 . S
C439 C440 1.334 . S
C440 H411 0.950 . S
C440 C439 1.334 . S
C440 C441 1.287 . S
C441 C440 1.287 . S
C441 C442 1.524 . S
C441 H444 0.999 . S
C442 H412 0.950 . S
C442 C441 1.524 . S
C442 C443 1.415 . S
C443 H413 0.950 . S
C443 C438 1.363 . S
C443 C442 1.415 . S
H444 C441 0.999 . S
H445 C426 0.913 . S
H446 C464 0.951 . S
H447 C466 0.951 . S
H448 C468 0.950 . S
H449 C469 0.950 . S
H450 C471 0.950 . S
H451 C474 0.950 . S
H452 C475 0.950 . S
H453 C477 0.950 . S
H454 C478 0.950 . S
H455 C479 0.951 . S
H456 C481 0.951 . S
H457 C483 0.950 . S
H458 C484 0.950 . S
H459 C486 0.950 . S
H460 C489 0.950 . S
H461 C490 0.950 . S
H462 C492 0.950 . S
H463 C493 0.950 . S
C464 H446 0.951 . S
C464 C465 1.366 . S
C464 C466 1.388 . S
C465 C464 1.366 . S
C465 C469 1.385 . S
C466 H447 0.951 . S
C466 C464 1.388 . S
C466 C467 1.366 . S
C467 C466 1.366 . S
C467 C468 1.414 . S
C467 C470 1.499 . S
C468 H448 0.950 . S
C468 C467 1.414 . S
C468 C469 1.374 . S
C469 H449 0.950 . S
C469 C465 1.385 . S
C469 C468 1.374 . S
C470 C467 1.499 . S
C470 C471 1.373 . S
C470 C472 1.389 . S
C471 H450 0.950 . S
C471 C470 1.373 . S
C471 C487 1.377 . S
C472 C470 1.389 . S
C472 C473 1.524 . S
C472 C486 1.377 . S
C473 C472 1.524 . S
C473 C474 1.397 . S
C473 C478 1.363 . S
C474 H451 0.950 . S
C474 C473 1.397 . S
C474 C475 1.334 . S
C475 H452 0.950 . S
C475 C474 1.334 . S
C475 C476 1.287 . S
C476 C475 1.287 . S
C476 C477 1.524 . S
C476 H495 0.913 . S
C477 H453 0.950 . S
C477 C476 1.524 . S
C477 C478 1.415 . S
C478 H454 0.950 . S
C478 C473 1.363 . S
C478 C477 1.415 . S
C479 H455 0.951 . S
C479 C480 1.366 . S
C479 C481 1.388 . S
C480 C479 1.366 . S
C480 C484 1.385 . S
C481 H456 0.951 . S
C481 C479 1.388 . S
C481 C482 1.366 . S
C482 C481 1.366 . S
C482 C483 1.414 . S
C482 C485 1.499 . S
C483 H457 0.950 . S
C483 C482 1.414 . S
C483 C484 1.374 . S
C484 H458 0.950 . S
C484 C480 1.385 . S
C484 C483 1.374 . S
C485 C482 1.499 . S
C485 C486 1.373 . S
C485 C487 1.389 . S
C486 H459 0.950 . S
C486 C472 1.377 . S
C486 C485 1.373 . S
C487 C471 1.377 . S
C487 C485 1.389 . S
C487 C488 1.524 . S
C488 C487 1.524 . S
C488 C489 1.397 . S
C488 C493 1.363 . S
C489 H460 0.950 . S
C489 C488 1.397 . S
C489 C490 1.334 . S
C490 H461 0.950 . S
C490 C489 1.334 . S
C490 C491 1.287 . S
C491 C490 1.287 . S
C491 C492 1.524 . S
C491 H494 0.999 . S
C492 H462 0.950 . S
C492 C491 1.524 . S
C492 C493 1.415 . S
C493 H463 0.950 . S
C493 C488 1.363 . S
C493 C492 1.415 . S
H494 C491 0.999 . S
H495 C476 0.913 . S
H496 C514 0.951 . S
H497 C516 0.951 . S
H498 C518 0.950 . S
H499 C519 0.950 1_655 S
H500 C521 0.950 . S
H501 C524 0.950 . S
H502 C525 0.950 . S
H503 C527 0.950 . S
H504 C528 0.950 . S
H505 C529 0.951 . S
H506 C531 0.955 . S
H507 C533 0.950 . S
H508 C534 0.950 . S
H509 C536 0.950 . S
H510 C539 0.950 . S
H511 C540 0.950 . S
H512 C542 0.950 . S
H513 C543 0.950 . S
C514 H496 0.951 . S
C514 C515 1.366 1_565 S
C514 C516 1.388 . S
C515 C514 1.366 1_545 S
C515 C519 1.385 . S
C516 H497 0.951 . S
C516 C514 1.388 . S
C516 C517 1.366 1_565 S
C517 C516 1.366 1_545 S
C517 C518 1.414 1_455 S
C517 C520 1.499 . S
C518 H498 0.950 . S
C518 C517 1.414 1_655 S
C518 C519 1.374 1_655 S
C519 H499 0.950 1_455 S
C519 C515 1.385 . S
C519 C518 1.374 1_455 S
C520 C517 1.499 . S
C520 C521 1.380 . S
C520 C522 1.383 1_445 S
C521 H500 0.950 . S
C521 C520 1.380 . S
C521 C537 1.377 . S
C522 C520 1.383 1_665 S
C522 C523 1.524 . S
C522 C536 1.377 . S
C523 C522 1.524 . S
C523 C524 1.397 . S
C523 C528 1.363 . S
C524 H501 0.950 . S
C524 C523 1.397 . S
C524 C525 1.334 . S
C525 H502 0.950 . S
C525 C524 1.334 . S
C525 C526 1.287 . S
C526 C525 1.287 . S
C526 C527 1.524 . S
C526 H545 0.913 . S
C527 H503 0.950 . S
C527 C526 1.524 . S
C527 C528 1.415 . S
C528 H504 0.950 . S
C528 C523 1.363 . S
C528 C527 1.415 . S
C529 H505 0.951 . S
C529 C530 1.366 1_655 S
C529 C531 1.388 . S
C530 C529 1.366 1_455 S
C530 C534 1.385 1_545 S
C531 H506 0.955 . S
C531 C529 1.388 . S
C531 C532 1.361 1_655 S
C532 C531 1.361 1_455 S
C532 C533 1.414 1_545 S
C532 C535 1.499 . S
C533 H507 0.950 . S
C533 C532 1.414 1_565 S
C533 C534 1.374 . S
C534 H508 0.950 . S
C534 C530 1.385 1_565 S
C534 C533 1.374 . S
C535 C532 1.499 . S
C535 C536 1.373 1_445 S
C535 C537 1.389 . S
C536 H509 0.950 . S
C536 C522 1.377 . S
C536 C535 1.373 1_665 S
C537 C521 1.377 . S
C537 C535 1.389 . S
C537 C538 1.524 . S
C538 C537 1.524 . S
C538 C539 1.397 . S
C538 C543 1.363 . S
C539 H510 0.950 . S
C539 C538 1.397 . S
C539 C540 1.334 . S
C540 H511 0.950 . S
C540 C539 1.334 . S
C540 C541 1.287 . S
C541 C540 1.287 . S
C541 C542 1.524 . S
C541 H544 0.999 . S
C542 H512 0.950 . S
C542 C541 1.524 . S
C542 C543 1.415 . S
C543 H513 0.950 . S
C543 C538 1.363 . S
C543 C542 1.415 . S
H544 C541 0.999 . S
H545 C526 0.913 . S
H546 C564 0.951 . S
H547 C566 0.951 . S
H548 C568 0.950 . S
H549 C569 0.950 . S
H550 C571 0.950 . S
H551 C574 0.950 . S
H552 C575 0.950 . S
H553 C577 0.950 . S
H554 C578 0.950 . S
H555 C579 0.951 . S
H556 C581 0.951 . S
H557 C583 0.950 . S
H558 C584 0.950 . S
H559 C586 0.950 1_565 S
H560 C589 0.950 1_565 S
H561 C590 0.950 1_565 S
H562 C592 0.950 . S
H563 C593 0.950 . S
C564 H546 0.951 . S
C564 C565 1.366 1_565 S
C564 C566 1.388 . S
C565 C564 1.366 1_545 S
C565 C569 1.385 1_455 S
C566 H547 0.951 . S
C566 C564 1.388 . S
C566 C567 1.366 1_565 S
C567 C566 1.366 1_545 S
C567 C568 1.414 1_455 S
C567 C570 1.499 . S
C568 H548 0.950 . S
C568 C567 1.414 1_655 S
C568 C569 1.374 . S
C569 H549 0.950 . S
C569 C565 1.385 1_655 S
C569 C568 1.374 . S
C570 C567 1.499 . S
C570 C571 1.373 1_455 S
C570 C572 1.389 . S
C571 H550 0.950 . S
C571 C570 1.373 1_655 S
C571 C587 1.377 . S
C572 C570 1.389 . S
C572 C573 1.524 1_545 S
C572 C586 1.377 . S
C573 C572 1.524 1_565 S
C573 C574 1.397 1_565 S
C573 C578 1.363 . S
C574 H551 0.950 . S
C574 C573 1.397 1_545 S
C574 C575 1.334 . S
C575 H552 0.950 . S
C575 C574 1.334 . S
C575 C576 1.287 1_545 S
C576 C575 1.287 1_565 S
C576 C577 1.524 . S
C576 H595 0.913 . S
C577 H553 0.950 . S
C577 C576 1.524 . S
C577 C578 1.415 . S
C578 H554 0.950 . S
C578 C573 1.363 . S
C578 C577 1.415 . S
C579 H555 0.951 . S
C579 C580 1.366 1_655 S
C579 C581 1.388 . S
C580 C579 1.366 1_455 S
C580 C584 1.385 1_545 S
C581 H556 0.951 . S
C581 C579 1.388 . S
C581 C582 1.366 1_655 S
C582 C581 1.366 1_455 S
C582 C583 1.414 1_545 S
C582 C585 1.499 . S
C583 H557 0.950 . S
C583 C582 1.414 1_565 S
C583 C584 1.374 . S
C584 H558 0.950 . S
C584 C580 1.385 1_565 S
C584 C583 1.374 . S
C585 C582 1.499 . S
C585 C586 1.373 . S
C585 C587 1.389 1_455 S
C586 H559 0.950 1_545 S
C586 C572 1.377 . S
C586 C585 1.373 . S
C587 C571 1.377 . S
C587 C585 1.389 1_655 S
C587 C588 1.524 . S
C588 C587 1.524 . S
C588 C589 1.397 . S
C588 C593 1.363 . S
C589 H560 0.950 1_545 S
C589 C588 1.397 . S
C589 C590 1.334 . S
C590 H561 0.950 1_545 S
C590 C589 1.334 . S
C590 C591 1.287 . S
C591 C590 1.287 . S
C591 C592 1.524 . S
C591 H594 0.999 . S
C592 H562 0.950 . S
C592 C591 1.524 . S
C592 C593 1.415 . S
C593 H563 0.950 . S
C593 C588 1.363 . S
C593 C592 1.415 . S
H594 C591 0.999 . S
H595 C576 0.913 . S
H596 C614 0.951 . S
H597 C616 0.951 . S
H598 C618 0.950 . S
H599 C619 0.950 . S
H600 C621 0.950 . S
H601 C624 0.950 . S
H602 C625 0.950 . S
H603 C627 0.950 . S
H604 C628 0.950 . S
H605 C629 0.951 . S
H606 C631 0.951 . S
H607 C633 0.950 . S
H608 C634 0.950 . S
H609 C636 0.950 . S
H610 C639 0.950 . S
H611 C640 0.950 . S
H612 C642 0.950 . S
H613 C643 0.950 . S
C614 H596 0.951 . S
C614 C615 1.366 . S
C614 C616 1.388 . S
C615 C614 1.366 . S
C615 C619 1.385 . S
C616 H597 0.951 . S
C616 C614 1.388 . S
C616 C617 1.366 . S
C617 C616 1.366 . S
C617 C618 1.414 . S
C617 C620 1.499 . S
C618 H598 0.950 . S
C618 C617 1.414 . S
C618 C619 1.374 . S
C619 H599 0.950 . S
C619 C615 1.385 . S
C619 C618 1.374 . S
C620 C617 1.499 . S
C620 C621 1.373 . S
C620 C622 1.389 . S
C621 H600 0.950 . S
C621 C620 1.373 . S
C621 C637 1.377 . S
C622 C620 1.389 . S
C622 C623 1.524 . S
C622 C636 1.377 . S
C623 C622 1.524 . S
C623 C624 1.397 . S
C623 C628 1.363 . S
C624 H601 0.950 . S
C624 C623 1.397 . S
C624 C625 1.334 . S
C625 H602 0.950 . S
C625 C624 1.334 . S
C625 C626 1.287 . S
C626 C625 1.287 . S
C626 C627 1.524 . S
C626 H645 0.913 . S
C627 H603 0.950 . S
C627 C626 1.524 . S
C627 C628 1.415 . S
C628 H604 0.950 . S
C628 C623 1.363 . S
C628 C627 1.415 . S
C629 H605 0.951 . S
C629 C630 1.366 . S
C629 C631 1.388 . S
C630 C629 1.366 . S
C630 C634 1.385 . S
C631 H606 0.951 . S
C631 C629 1.388 . S
C631 C632 1.366 . S
C632 C631 1.366 . S
C632 C633 1.414 . S
C632 C635 1.499 . S
C633 H607 0.950 . S
C633 C632 1.414 . S
C633 C634 1.374 . S
C634 H608 0.950 . S
C634 C630 1.385 . S
C634 C633 1.374 . S
C635 C632 1.499 . S
C635 C636 1.373 . S
C635 C637 1.389 . S
C636 H609 0.950 . S
C636 C622 1.377 . S
C636 C635 1.373 . S
C637 C621 1.377 . S
C637 C635 1.389 . S
C637 C638 1.524 . S
C638 C637 1.524 . S
C638 C639 1.397 . S
C638 C643 1.363 . S
C639 H610 0.950 . S
C639 C638 1.397 . S
C639 C640 1.334 . S
C640 H611 0.950 . S
C640 C639 1.334 . S
C640 C641 1.287 . S
C641 C640 1.287 . S
C641 C642 1.524 . S
C641 H644 0.999 . S
C642 H612 0.950 . S
C642 C641 1.524 . S
C642 C643 1.415 . S
C643 H613 0.950 . S
C643 C638 1.363 . S
C643 C642 1.415 . S
H644 C641 0.999 . S
H645 C626 0.913 . S
H646 C664 0.951 . S
H647 C666 0.951 . S
H648 C668 0.950 . S
H649 C669 0.950 . S
H650 C671 0.950 . S
H651 C674 0.950 . S
H652 C675 0.950 . S
H653 C677 0.950 . S
H654 C678 0.950 . S
H655 C679 0.951 . S
H656 C681 0.951 . S
H657 C683 0.950 . S
H658 C684 0.950 . S
H659 C686 0.950 . S
H660 C689 0.950 . S
H661 C690 0.950 . S
H662 C692 0.950 . S
H663 C693 0.950 . S
C664 H646 0.951 . S
C664 C665 1.366 . S
C664 C666 1.388 . S
C665 C664 1.366 . S
C665 C669 1.385 . S
C666 H647 0.951 . S
C666 C664 1.388 . S
C666 C667 1.366 . S
C667 C666 1.366 . S
C667 C668 1.414 . S
C667 C670 1.499 . S
C668 H648 0.950 . S
C668 C667 1.414 . S
C668 C669 1.374 . S
C669 H649 0.950 . S
C669 C665 1.385 . S
C669 C668 1.374 . S
C670 C667 1.499 . S
C670 C671 1.373 . S
C670 C672 1.389 . S
C671 H650 0.950 . S
C671 C670 1.373 . S
C671 C687 1.377 . S
C672 C670 1.389 . S
C672 C673 1.524 . S
C672 C686 1.377 . S
C673 C672 1.524 . S
C673 C674 1.397 . S
C673 C678 1.363 . S
C674 H651 0.950 . S
C674 C673 1.397 . S
C674 C675 1.334 . S
C675 H652 0.950 . S
C675 C674 1.334 . S
C675 C676 1.287 . S
C676 C675 1.287 . S
C676 C677 1.524 . S
C676 H695 0.913 . S
C677 H653 0.950 . S
C677 C676 1.524 . S
C677 C678 1.415 . S
C678 H654 0.950 . S
C678 C673 1.363 . S
C678 C677 1.415 . S
C679 H655 0.951 . S
C679 C680 1.366 . S
C679 C681 1.388 . S
C680 C679 1.366 . S
C680 C684 1.385 . S
C681 H656 0.951 . S
C681 C679 1.388 . S
C681 C682 1.366 . S
C682 C681 1.366 . S
C682 C683 1.414 . S
C682 C685 1.499 . S
C683 H657 0.950 . S
C683 C682 1.414 . S
C683 C684 1.374 . S
C684 H658 0.950 . S
C684 C680 1.385 . S
C684 C683 1.374 . S
C685 C682 1.499 . S
C685 C686 1.373 . S
C685 C687 1.389 . S
C686 H659 0.950 . S
C686 C672 1.377 . S
C686 C685 1.373 . S
C687 C671 1.377 . S
C687 C685 1.389 . S
C687 C688 1.524 . S
C688 C687 1.524 . S
C688 C689 1.397 . S
C688 C693 1.363 . S
C689 H660 0.950 . S
C689 C688 1.397 . S
C689 C690 1.334 . S
C690 H661 0.950 . S
C690 C689 1.334 . S
C690 C691 1.287 . S
C691 C690 1.287 . S
C691 C692 1.524 . S
C691 H694 0.999 . S
C692 H662 0.950 . S
C692 C691 1.524 . S
C692 C693 1.415 . S
C693 H663 0.950 . S
C693 C688 1.363 . S
C693 C692 1.415 . S
H694 C691 0.999 . S
H695 C676 0.913 . S
C130 C91 1.321 . S
C115 C27 1.329 . S
C165 N6 1.241 . S
C180 C82 1.296 . S
C215 C16 1.327 . S
C230 C94 1.319 . S
C265 N14 1.297 . S
C280 C85 1.295 . S
C315 C57 1.329 . S
C330 C73 1.320 . S
C365 N36 1.243 . S
C380 C64 1.296 . S
C430 C76 1.319 . S
C415 C46 1.326 . S
C480 C67 1.294 . S
C465 N44 1.297 . S
C515 C10 1.389 . S
C530 C65 1.393 . S
C565 C1 1.529 . S
C580 C74 1.534 . S
C630 C83 1.392 . S
C615 C40 1.389 . S
C665 C31 1.530 . S
C680 C92 1.534 . S
