# Generated by pormake.
# Topology pyr, (3,6)-cn, num edge types: 1
# Building blocks:
#     Node 0, Type 0, BuildingBlock: ESEHIV_clean_linker_0, # of connection points: 3
#     Node 1, Type 0, BuildingBlock: ESEHIV_clean_linker_0, # of connection points: 3
#     Node 2, Type 0, BuildingBlock: ESEHIV_clean_linker_0, # of connection points: 3
#     Node 3, Type 0, BuildingBlock: ESEHIV_clean_linker_0, # of connection points: 3
#     Node 4, Type 0, BuildingBlock: ESEHIV_clean_linker_0, # of connection points: 3
#     Node 5, Type 0, BuildingBlock: ESEHIV_clean_linker_0, # of connection points: 3
#     Node 6, Type 0, BuildingBlock: ESEHIV_clean_linker_0, # of connection points: 3
#     Node 7, Type 0, BuildingBlock: ESEHIV_clean_linker_0, # of connection points: 3
#     Node 8, Type 1, BuildingBlock: MIDCAF_clean_sbu_0, # of connection points: 6
#     Node 9, Type 1, BuildingBlock: MIDCAF_clean_sbu_0, # of connection points: 6
#     Node 10, Type 1, BuildingBlock: MIDCAF_clean_sbu_0, # of connection points: 6
#     Node 11, Type 1, BuildingBlock: MIDCAF_clean_sbu_0, # of connection points: 6
#     Edge 12, Type (0, 1), BuildingBlock: UVAHIK_clean_linker_0, # of connection points: 2
#     Edge 13, Type (0, 1), BuildingBlock: UVAHIK_clean_linker_0, # of connection points: 2
#     Edge 14, Type (0, 1), BuildingBlock: UVAHIK_clean_linker_0, # of connection points: 2
#     Edge 15, Type (0, 1), BuildingBlock: UVAHIK_clean_linker_0, # of connection points: 2
#     Edge 16, Type (0, 1), BuildingBlock: UVAHIK_clean_linker_0, # of connection points: 2
#     Edge 17, Type (0, 1), BuildingBlock: UVAHIK_clean_linker_0, # of connection points: 2
#     Edge 18, Type (0, 1), BuildingBlock: UVAHIK_clean_linker_0, # of connection points: 2
#     Edge 19, Type (0, 1), BuildingBlock: UVAHIK_clean_linker_0, # of connection points: 2
#     Edge 20, Type (0, 1), BuildingBlock: UVAHIK_clean_linker_0, # of connection points: 2
#     Edge 21, Type (0, 1), BuildingBlock: UVAHIK_clean_linker_0, # of connection points: 2
#     Edge 22, Type (0, 1), BuildingBlock: UVAHIK_clean_linker_0, # of connection points: 2
#     Edge 23, Type (0, 1), BuildingBlock: UVAHIK_clean_linker_0, # of connection points: 2
#     Edge 24, Type (0, 1), BuildingBlock: UVAHIK_clean_linker_0, # of connection points: 2
#     Edge 25, Type (0, 1), BuildingBlock: UVAHIK_clean_linker_0, # of connection points: 2
#     Edge 26, Type (0, 1), BuildingBlock: UVAHIK_clean_linker_0, # of connection points: 2
#     Edge 27, Type (0, 1), BuildingBlock: UVAHIK_clean_linker_0, # of connection points: 2
#     Edge 28, Type (0, 1), BuildingBlock: UVAHIK_clean_linker_0, # of connection points: 2
#     Edge 29, Type (0, 1), BuildingBlock: UVAHIK_clean_linker_0, # of connection points: 2
#     Edge 30, Type (0, 1), BuildingBlock: UVAHIK_clean_linker_0, # of connection points: 2
#     Edge 31, Type (0, 1), BuildingBlock: UVAHIK_clean_linker_0, # of connection points: 2
#     Edge 32, Type (0, 1), BuildingBlock: UVAHIK_clean_linker_0, # of connection points: 2
#     Edge 33, Type (0, 1), BuildingBlock: UVAHIK_clean_linker_0, # of connection points: 2
#     Edge 34, Type (0, 1), BuildingBlock: UVAHIK_clean_linker_0, # of connection points: 2
#     Edge 35, Type (0, 1), BuildingBlock: UVAHIK_clean_linker_0, # of connection points: 2
# Relax obj value: 0.019
# Max RMSD: 0.062
# Mean RMSD: 0.024
data_MOF--net-pyr--node1-MIDCAF_clean_sbu_0--node2-ESEHIV_clean_linker_0--edge1-UVAHIK_clean_linker_0
_symmetry_space_group_name_H-M    P1
_symmetry_Int_Tables_number       1
_symmetry_cell_setting            triclinic
loop_
_symmetry_equiv_pos_as_xyz
'x, y, z'
_cell_length_a     44.086248
_cell_length_b     44.09494
_cell_length_c     44.106678
_cell_angle_alpha  90.005778
_cell_angle_beta   90.04055
_cell_angle_gamma 90.295118
loop_
_atom_site_label
_atom_site_type_symbol
_atom_site_fract_x
_atom_site_fract_y
_atom_site_fract_z
_atom_type_partial_charge
H0 H 0.19517 0.2642 0.25389 0.0
H1 H 0.25954 0.19201 0.262 0.0
H2 H 0.27167 0.26047 0.19347 0.0
C3 C 0.21614 0.25377 0.24661 0.0
C4 C 0.23245 0.266 0.22204 0.0
C5 C 0.22574 0.22704 0.26092 0.0
C6 C 0.2521 0.2125 0.25072 0.0
C7 C 0.26901 0.22444 0.22643 0.0
C8 C 0.259 0.25128 0.2124 0.0
H9 H 0.27814 0.8471 0.76087 0.0
H10 H 0.33975 0.772 0.75693 0.0
H11 H 0.26757 0.77879 0.69179 0.0
C12 C 0.28537 0.82625 0.75014 0.0
C13 C 0.26924 0.81469 0.72511 0.0
C14 C 0.31073 0.81092 0.76176 0.0
C15 C 0.31978 0.78348 0.74845 0.0
C16 C 0.30438 0.77186 0.72303 0.0
C17 C 0.27917 0.78757 0.71162 0.0
H18 H 0.77556 0.27817 0.84347 0.0
H19 H 0.7696 0.35027 0.778 0.0
H20 H 0.70039 0.28175 0.78117 0.0
C21 C 0.76407 0.28891 0.82465 0.0
C22 C 0.73699 0.27605 0.8134 0.0
C23 C 0.77596 0.31592 0.81232 0.0
C24 C 0.76055 0.32975 0.78815 0.0
C25 C 0.7334 0.31752 0.77685 0.0
C26 C 0.7219 0.29056 0.78931 0.0
H27 H 0.76388 0.75816 0.34106 0.0
H28 H 0.84058 0.76166 0.28079 0.0
H29 H 0.77516 0.68983 0.27235 0.0
C30 C 0.77645 0.74899 0.32211 0.0
C31 C 0.7661 0.72224 0.30797 0.0
C32 C 0.80326 0.76359 0.31258 0.0
C33 C 0.81941 0.75136 0.28798 0.0
C34 C 0.80941 0.72476 0.27357 0.0
C35 C 0.78285 0.71029 0.28367 0.0
H36 H 0.89871 0.95941 0.87732 0.0
H37 H 0.95308 0.87953 0.88899 0.0
H38 H 0.87935 0.89772 0.95026 0.0
C39 C 0.90402 0.93891 0.88979 0.0
C40 C 0.88651 0.93092 0.91512 0.0
C41 C 0.92811 0.92048 0.88027 0.0
C42 C 0.93436 0.89364 0.89618 0.0
C43 C 0.91707 0.88533 0.92169 0.0
C44 C 0.89334 0.90428 0.93112 0.0
H45 H 0.5777 0.15737 0.39239 0.0
H46 H 0.63682 0.0815 0.37835 0.0
H47 H 0.6545 0.14344 0.45133 0.0
C48 C 0.59763 0.14467 0.39895 0.0
C49 C 0.61502 0.15389 0.42418 0.0
C50 C 0.60536 0.11867 0.38231 0.0
C51 C 0.6306 0.1015 0.39118 0.0
C52 C 0.64803 0.11012 0.41636 0.0
C53 C 0.64021 0.13631 0.43263 0.0
H54 H 0.39137 0.64422 0.08343 0.0
H55 H 0.40703 0.58131 0.15607 0.0
H56 H 0.46574 0.65861 0.14532 0.0
C57 C 0.40498 0.63692 0.10252 0.0
C58 C 0.42965 0.65478 0.11223 0.0
C59 C 0.39674 0.61041 0.11821 0.0
C60 C 0.41353 0.60159 0.14371 0.0
C61 C 0.43832 0.61904 0.15365 0.0
C62 C 0.44628 0.64549 0.13782 0.0
H63 H 0.0653 0.39003 0.64018 0.0
H64 H 0.14014 0.39679 0.57804 0.0
H65 H 0.13234 0.4601 0.6518 0.0
C66 C 0.08593 0.40115 0.63266 0.0
C67 C 0.09678 0.4265 0.64866 0.0
C68 C 0.10144 0.3902 0.60709 0.0
C69 C 0.12788 0.40528 0.59752 0.0
C70 C 0.13931 0.43053 0.61344 0.0
C71 C 0.12334 0.44123 0.63879 0.0
Zn72 Zn 0.97533 0.05894 0.55553 0.0
Zn73 Zn 0.04381 0.99214 0.484 0.0
Zn74 Zn 0.00879 0.0268 0.52049 0.0
C75 C 0.06117 0.05297 0.47563 0.0
C76 C 0.98308 0.98248 0.46746 0.0
O77 O 0.01789 0.01385 0.56846 0.0
O78 O 0.99415 0.04904 0.59493 0.0
C79 C 0.007 0.09994 0.5203 0.0
O80 O 0.03863 0.05722 0.49373 0.0
O81 O 0.06944 0.02642 0.46889 0.0
O82 O 0.00962 0.97677 0.4584 0.0
O83 O 0.97882 0.99995 0.49049 0.0
O84 O 0.98426 0.09904 0.53762 0.0
O85 O 0.02041 0.07523 0.51251 0.0
O86 O 0.96031 0.01874 0.50855 0.0
O87 O 0.93543 0.04069 0.54601 0.0
C88 C 0.93518 0.0252 0.52197 0.0
O89 O 0.03612 0.99626 0.54936 0.0
O90 O 0.05963 0.96578 0.51719 0.0
C91 C 0.01108 0.02608 0.5941 0.0
C92 C 0.05379 0.97366 0.54409 0.0
Zn93 Zn 0.49099 0.0491 0.98395 0.0
Zn94 Zn 0.56163 0.98207 0.0531 0.0
Zn95 Zn 0.52742 0.01475 0.01928 0.0
C96 C 0.60094 0.01684 0.01939 0.0
C97 C 0.52871 0.94143 0.01896 0.0
O98 O 0.50093 0.04518 0.04894 0.0
O99 O 0.47625 0.07558 0.01755 0.0
C100 C 0.55131 0.05859 0.9653 0.0
O101 O 0.57557 0.02338 0.00644 0.0
O102 O 0.60117 0.00068 0.04299 0.0
O103 O 0.5522 0.94199 0.03531 0.0
O104 O 0.51538 0.96636 0.01174 0.0
O105 O 0.5244 0.06419 0.95726 0.0
O106 O 0.55657 0.04142 0.98833 0.0
O107 O 0.49705 0.98436 0.99291 0.0
O108 O 0.46491 0.01486 0.96941 0.0
C109 C 0.47388 0.98838 0.97552 0.0
O110 O 0.51949 0.0274 0.06756 0.0
O111 O 0.5437 0.99174 0.09297 0.0
C112 C 0.48305 0.06772 0.04424 0.0
C113 C 0.52686 0.01478 0.09287 0.0
Zn114 Zn 0.53587 0.55524 0.55103 0.0
Zn115 Zn 0.48427 0.47074 0.48314 0.0
Zn116 Zn 0.51024 0.51101 0.51752 0.0
C117 C 0.52558 0.43903 0.51748 0.0
C118 C 0.51033 0.51107 0.44352 0.0
O119 O 0.4745 0.53397 0.545 0.0
O120 O 0.49832 0.57134 0.56904 0.0
C121 C 0.56038 0.49868 0.5692 0.0
O122 O 0.53095 0.46585 0.52803 0.0
O123 O 0.50568 0.43489 0.4974 0.0
O124 O 0.49547 0.48656 0.44295 0.0
O125 O 0.51755 0.52338 0.46907 0.0
O126 O 0.56052 0.52662 0.57561 0.0
O127 O 0.54363 0.48849 0.54741 0.0
O128 O 0.53422 0.54338 0.48721 0.0
O129 O 0.55471 0.57825 0.51716 0.0
C130 C 0.55026 0.56764 0.49094 0.0
O131 O 0.46071 0.51074 0.52825 0.0
O132 O 0.44251 0.47523 0.4977 0.0
C133 C 0.47423 0.55702 0.56305 0.0
C134 C 0.43831 0.49465 0.51824 0.0
Zn135 Zn 0.06397 0.56826 0.9819 0.0
Zn136 Zn 0.99905 0.49478 0.05157 0.0
Zn137 Zn 0.03228 0.53157 0.01545 0.0
C138 C 0.05995 0.4887 0.06857 0.0
C139 C 0.99102 0.47563 0.99135 0.0
O140 O 0.01663 0.579 0.02272 0.0
O141 O 0.05035 0.60741 0.99871 0.0
C142 C 0.10566 0.53565 0.01504 0.0
O143 O 0.06358 0.50641 0.04557 0.0
O144 O 0.03363 0.48149 0.07739 0.0
O145 O 0.9852 0.46751 0.0182 0.0
O146 O 0.00734 0.49939 0.98616 0.0
O147 O 0.10475 0.5534 0.99264 0.0
O148 O 0.08091 0.5261 0.02738 0.0
O149 O 0.02431 0.51875 0.96735 0.0
O150 O 0.04698 0.55588 0.94227 0.0
C151 C 0.03119 0.53194 0.94218 0.0
O152 O 0.00089 0.55945 0.04274 0.0
O153 O 0.97134 0.52679 0.06712 0.0
C154 C 0.02693 0.60533 0.01501 0.0
C155 C 0.97859 0.55381 0.06082 0.0
C156 C 0.19748 0.18335 0.2837 0.0
C157 C 0.20744 0.21358 0.2857 0.0
C158 C 0.17961 0.17071 0.30665 0.0
C159 C 0.12592 0.15934 0.34991 0.0
H160 H 0.1573 0.15718 0.43208 0.0
C161 C 0.06007 0.1025 0.44804 0.0
C162 C 0.07675 0.07877 0.46103 0.0
C163 C 0.07458 0.12419 0.42984 0.0
C164 C 0.14813 0.15798 0.40931 0.0
H165 H 0.20692 0.25424 0.31324 0.0
H166 H 0.17634 0.23168 0.35408 0.0
H167 H 0.1853 0.18483 0.39261 0.0
H168 H 0.12159 0.05978 0.46659 0.0
H169 H 0.14707 0.09811 0.43552 0.0
H170 H 0.089 0.13219 0.3664 0.0
C171 C 0.18209 0.21801 0.33451 0.0
C172 C 0.16406 0.1738 0.38681 0.0
C173 C 0.19945 0.23088 0.31121 0.0
C174 C 0.1083 0.07796 0.45688 0.0
C175 C 0.12286 0.09993 0.43924 0.0
C176 C 0.10969 0.14408 0.3725 0.0
C177 C 0.17184 0.18787 0.3323 0.0
C178 C 0.15344 0.17399 0.35678 0.0
C179 C 0.10603 0.12272 0.42484 0.0
C180 C 0.12099 0.14268 0.40225 0.0
H181 H 0.2032 0.16963 0.26416 0.0
H182 H 0.17217 0.14734 0.30455 0.0
H183 H 0.11722 0.15931 0.32693 0.0
H184 H 0.03566 0.10335 0.45059 0.0
H185 H 0.06113 0.14158 0.41897 0.0
C186 C 0.33946 0.85454 0.78407 0.0
C187 C 0.32883 0.82458 0.78665 0.0
C188 C 0.35714 0.86746 0.80702 0.0
C189 C 0.41005 0.87954 0.85079 0.0
H190 H 0.37793 0.88373 0.93254 0.0
C191 C 0.47532 0.93889 0.94782 0.0
C192 C 0.45846 0.96244 0.9609 0.0
C193 C 0.46094 0.91691 0.92987 0.0
C194 C 0.3873 0.8824 0.90989 0.0
H195 H 0.32804 0.78468 0.81527 0.0
H196 H 0.35837 0.80776 0.85611 0.0
H197 H 0.35021 0.85525 0.89343 0.0
H198 H 0.41341 0.98087 0.96669 0.0
H199 H 0.38817 0.9421 0.93592 0.0
H200 H 0.44686 0.90703 0.86698 0.0
C201 C 0.35324 0.821 0.83608 0.0
C202 C 0.37153 0.86608 0.8876 0.0
C203 C 0.33602 0.80782 0.81277 0.0
C204 C 0.42687 0.96284 0.95694 0.0
C205 C 0.41244 0.9406 0.93947 0.0
C206 C 0.42609 0.89535 0.87317 0.0
C207 C 0.36413 0.85087 0.83327 0.0
C208 C 0.38241 0.86514 0.85768 0.0
C209 C 0.42942 0.91792 0.92507 0.0
C210 C 0.41453 0.89751 0.90277 0.0
H211 H 0.33442 0.86785 0.76406 0.0
H212 H 0.36506 0.89062 0.80442 0.0
H213 H 0.41897 0.87901 0.82792 0.0
H214 H 0.49977 0.93836 0.9502 0.0
H215 H 0.47452 0.89962 0.91903 0.0
C216 C 0.70552 0.31962 0.72715 0.0
C217 C 0.71614 0.33422 0.75341 0.0
C218 C 0.6898 0.33595 0.70493 0.0
C219 C 0.67523 0.41546 0.67996 0.0
H220 H 0.60755 0.37938 0.63654 0.0
C221 C 0.58504 0.4858 0.6184 0.0
C222 C 0.57883 0.47809 0.5881 0.0
C223 C 0.6028 0.46695 0.63649 0.0
C224 C 0.62661 0.38957 0.64833 0.0
H225 H 0.71768 0.37686 0.77773 0.0
H226 H 0.68952 0.40507 0.7398 0.0
H227 H 0.6364 0.34871 0.67257 0.0
H228 H 0.58807 0.44591 0.55265 0.0
H229 H 0.61765 0.4115 0.5848 0.0
H230 H 0.66448 0.45663 0.65667 0.0
C231 C 0.69421 0.38138 0.73551 0.0
C232 C 0.64323 0.37204 0.66888 0.0
C233 C 0.71022 0.3652 0.7574 0.0
C234 C 0.59102 0.45129 0.57625 0.0
C235 C 0.60836 0.43202 0.59451 0.0
C236 C 0.65834 0.43302 0.65986 0.0
C237 C 0.68407 0.36712 0.70878 0.0
C238 C 0.66749 0.38491 0.68533 0.0
C239 C 0.61454 0.43986 0.62476 0.0
C240 C 0.63366 0.42037 0.64417 0.0
H241 H 0.70989 0.29574 0.72355 0.0
H242 H 0.68262 0.32425 0.68456 0.0
H243 H 0.69427 0.42598 0.69146 0.0
H244 H 0.57607 0.5064 0.62822 0.0
H245 H 0.60715 0.47342 0.6598 0.0
C246 C 0.8358 0.7285 0.22336 0.0
C247 C 0.82763 0.71125 0.24889 0.0
C248 C 0.85331 0.71567 0.20026 0.0
C249 C 0.8719 0.67104 0.14852 0.0
H250 H 0.94755 0.63191 0.17011 0.0
C251 C 0.93063 0.57639 0.07992 0.0
C252 C 0.96213 0.57862 0.07581 0.0
C253 C 0.91531 0.59782 0.09739 0.0
C254 C 0.92668 0.64308 0.1637 0.0
H255 H 0.8316 0.66745 0.27069 0.0
H256 H 0.86292 0.64524 0.23065 0.0
H257 H 0.91845 0.65865 0.209 0.0
H258 H 0.00235 0.60506 0.08613 0.0
H259 H 0.97555 0.64229 0.11753 0.0
H260 H 0.8794 0.65408 0.10352 0.0
C261 C 0.85549 0.66852 0.22837 0.0
C262 C 0.90997 0.65814 0.18594 0.0
C263 C 0.83746 0.68111 0.25111 0.0
C264 C 0.97799 0.60309 0.08877 0.0
C265 C 0.96273 0.62423 0.10677 0.0
C266 C 0.88832 0.65541 0.12637 0.0
C267 C 0.8635 0.68565 0.20273 0.0
C268 C 0.88227 0.67191 0.17863 0.0
C269 C 0.93134 0.62144 0.11164 0.0
C270 C 0.91568 0.64103 0.13388 0.0
H271 H 0.82841 0.7518 0.22119 0.0
H272 H 0.85926 0.72929 0.18068 0.0
H273 H 0.85053 0.68141 0.14241 0.0
H274 H 0.91798 0.55763 0.07021 0.0
H275 H 0.89116 0.59502 0.10104 0.0
C276 C 0.29696 0.1765 0.21296 0.0
C277 C 0.29633 0.2084 0.21471 0.0
C278 C 0.32147 0.16164 0.19945 0.0
C279 C 0.37625 0.17325 0.13985 0.0
H280 H 0.41848 0.10359 0.17253 0.0
C281 C 0.46804 0.11589 0.06912 0.0
C282 C 0.46922 0.08416 0.06974 0.0
C283 C 0.4514 0.13167 0.09086 0.0
C284 C 0.40671 0.1228 0.1629 0.0
H285 H 0.32213 0.2494 0.20524 0.0
H286 H 0.36419 0.22344 0.18067 0.0
H287 H 0.38028 0.12941 0.20328 0.0
H288 H 0.45486 0.04386 0.09383 0.0
H289 H 0.42449 0.07117 0.13112 0.0
H290 H 0.40085 0.16607 0.099 0.0
C291 C 0.34562 0.21007 0.18974 0.0
C292 C 0.38497 0.13765 0.18062 0.0
C293 C 0.32139 0.2249 0.20362 0.0
C294 C 0.45441 0.06842 0.0931 0.0
C295 C 0.43711 0.08416 0.11453 0.0
C296 C 0.39745 0.15815 0.12198 0.0
C297 C 0.34565 0.17834 0.18707 0.0
C298 C 0.36958 0.16302 0.16921 0.0
C299 C 0.43467 0.11601 0.11317 0.0
C300 C 0.41307 0.1327 0.13317 0.0
H301 H 0.27799 0.163 0.22089 0.0
H302 H 0.32083 0.13716 0.19742 0.0
H303 H 0.36432 0.19243 0.1303 0.0
H304 H 0.47955 0.12849 0.05141 0.0
H305 H 0.45105 0.15618 0.08959 0.0
C306 C 0.24242 0.86317 0.71093 0.0
C307 C 0.24269 0.83124 0.71229 0.0
C308 C 0.21838 0.87847 0.69704 0.0
C309 C 0.16392 0.8684 0.63657 0.0
H310 H 0.1212 0.93699 0.6708 0.0
C311 C 0.07022 0.92546 0.568 0.0
C312 C 0.06844 0.95715 0.56912 0.0
C313 C 0.08761 0.90968 0.58916 0.0
C314 C 0.13312 0.9181 0.66073 0.0
H315 H 0.21676 0.79064 0.70145 0.0
H316 H 0.17557 0.81736 0.67624 0.0
H317 H 0.15972 0.91085 0.70092 0.0
H318 H 0.08254 0.99734 0.59357 0.0
H319 H 0.11414 0.97004 0.62991 0.0
H320 H 0.13902 0.87616 0.59597 0.0
C321 C 0.19407 0.83042 0.68593 0.0
C322 C 0.15506 0.90307 0.67809 0.0
C323 C 0.21782 0.81515 0.70019 0.0
C324 C 0.08343 0.97282 0.59246 0.0
C325 C 0.10145 0.95708 0.61332 0.0
C326 C 0.1425 0.88366 0.61908 0.0
C327 C 0.1943 0.86219 0.68386 0.0
C328 C 0.17057 0.87802 0.66615 0.0
C329 C 0.10446 0.92531 0.61142 0.0
C330 C 0.12664 0.90869 0.63087 0.0
H331 H 0.26128 0.87638 0.71962 0.0
H332 H 0.21922 0.90298 0.6955 0.0
H333 H 0.17593 0.84947 0.62662 0.0
H334 H 0.0586 0.91289 0.55032 0.0
H335 H 0.08839 0.8852 0.58751 0.0
C336 C 0.82762 0.31316 0.8369 0.0
C337 C 0.80348 0.33062 0.82559 0.0
C338 C 0.85264 0.32714 0.85068 0.0
C339 C 0.89471 0.39896 0.85736 0.0
H340 H 0.91253 0.37231 0.93912 0.0
C341 C 0.96203 0.47248 0.94282 0.0
C342 C 0.9778 0.45799 0.96627 0.0
C343 C 0.94541 0.4554 0.92177 0.0
C344 C 0.90856 0.3797 0.91606 0.0
H345 H 0.78708 0.37671 0.82003 0.0
H346 H 0.83111 0.40087 0.84308 0.0
H347 H 0.87529 0.34485 0.9091 0.0
H348 H 0.99041 0.41462 0.98524 0.0
H349 H 0.96283 0.38467 0.94777 0.0
H350 H 0.92807 0.43375 0.86415 0.0
C351 C 0.83064 0.37638 0.8411 0.0
C352 C 0.88702 0.36395 0.89893 0.0
C353 C 0.80543 0.36245 0.82779 0.0
C354 C 0.97817 0.42624 0.96741 0.0
C355 C 0.96212 0.40915 0.94609 0.0
C356 C 0.91669 0.41447 0.87433 0.0
C357 C 0.85428 0.35887 0.85301 0.0
C358 C 0.87948 0.37375 0.86965 0.0
C359 C 0.94456 0.42348 0.92365 0.0
C360 C 0.92352 0.40538 0.90416 0.0
H361 H 0.82722 0.28867 0.83517 0.0
H362 H 0.87069 0.31314 0.8596 0.0
H363 H 0.88942 0.40681 0.8347 0.0
H364 H 0.96124 0.49701 0.94173 0.0
H365 H 0.93203 0.46736 0.90508 0.0
C366 C 0.71354 0.7227 0.3302 0.0
C367 C 0.73862 0.70621 0.3196 0.0
C368 C 0.68904 0.70787 0.34388 0.0
C369 C 0.65012 0.63455 0.35388 0.0
H370 H 0.63111 0.66579 0.43372 0.0
C371 C 0.58064 0.56678 0.44308 0.0
C372 C 0.56441 0.58313 0.46494 0.0
C373 C 0.59799 0.58209 0.42126 0.0
C374 C 0.63543 0.65705 0.41121 0.0
H375 H 0.75687 0.66088 0.31411 0.0
H376 H 0.71369 0.63503 0.33741 0.0
H377 H 0.66807 0.692 0.4025 0.0
H378 H 0.55155 0.62792 0.48002 0.0
H379 H 0.58033 0.65469 0.4412 0.0
H380 H 0.61725 0.59963 0.36252 0.0
C381 C 0.71314 0.65948 0.33507 0.0
C382 C 0.65684 0.67208 0.39336 0.0
C383 C 0.73784 0.67434 0.32168 0.0
C384 C 0.56421 0.61487 0.46355 0.0
C385 C 0.58096 0.63015 0.44145 0.0
C386 C 0.62825 0.61968 0.3716 0.0
C387 C 0.68884 0.67617 0.34693 0.0
C388 C 0.66462 0.66088 0.36466 0.0
C389 C 0.59908 0.61405 0.42075 0.0
C390 C 0.62079 0.63061 0.40066 0.0
H391 H 0.71298 0.74718 0.32834 0.0
H392 H 0.6704 0.72125 0.3525 0.0
H393 H 0.65565 0.62553 0.33173 0.0
H394 H 0.58121 0.54223 0.44387 0.0
H395 H 0.6117 0.56884 0.40588 0.0
C396 C 0.22395 0.29551 0.17384 0.0
C397 C 0.22102 0.29325 0.20554 0.0
C398 C 0.21232 0.32042 0.15818 0.0
C399 C 0.18046 0.39824 0.16921 0.0
H400 H 0.14247 0.38158 0.09161 0.0
C401 C 0.08547 0.46982 0.1152 0.0
C402 C 0.08614 0.47461 0.08374 0.0
C403 C 0.10761 0.45215 0.12923 0.0
C404 C 0.15346 0.38674 0.113 0.0
H405 H 0.20403 0.31619 0.24556 0.0
H406 H 0.18229 0.35866 0.21817 0.0
H407 H 0.16932 0.34138 0.11784 0.0
H408 H 0.11073 0.4654 0.04231 0.0
H409 H 0.14945 0.43407 0.06685 0.0
H410 H 0.1628 0.4433 0.16484 0.0
C411 C 0.19431 0.34156 0.2054 0.0
C412 C 0.16895 0.36367 0.1281 0.0
C413 C 0.20637 0.31684 0.22114 0.0
C414 C 0.10999 0.46238 0.06667 0.0
C415 C 0.13195 0.4443 0.08065 0.0
C416 C 0.16454 0.42121 0.15426 0.0
C417 C 0.1969 0.34359 0.17365 0.0
C418 C 0.18234 0.36894 0.15663 0.0
C419 C 0.13053 0.43843 0.11196 0.0
C420 C 0.15057 0.41555 0.12618 0.0
H421 H 0.23463 0.27768 0.16086 0.0
H422 H 0.21526 0.32132 0.13383 0.0
H423 H 0.19098 0.40342 0.19079 0.0
H424 H 0.06719 0.4789 0.1288 0.0
H425 H 0.10578 0.44779 0.15333 0.0
C426 C 0.70834 0.22659 0.81019 0.0
C427 C 0.72342 0.24857 0.82784 0.0
C428 C 0.69352 0.20209 0.82392 0.0
C429 C 0.68763 0.15692 0.89398 0.0
H430 H 0.60389 0.14586 0.86942 0.0
C431 C 0.60051 0.08707 0.964 0.0
C432 C 0.57638 0.07312 0.94854 0.0
C433 C 0.62174 0.10473 0.94818 0.0
C434 C 0.62741 0.14801 0.87619 0.0
H435 H 0.73515 0.26141 0.87395 0.0
H436 H 0.70988 0.21825 0.89772 0.0
H437 H 0.63526 0.1831 0.84362 0.0
H438 H 0.55631 0.06501 0.90449 0.0
H439 H 0.5939 0.09453 0.87665 0.0
H440 H 0.67982 0.12166 0.92652 0.0
C441 C 0.70967 0.22004 0.87322 0.0
C442 C 0.64536 0.16955 0.86141 0.0
C443 C 0.72423 0.24474 0.85953 0.0
C444 C 0.57464 0.07577 0.91692 0.0
C445 C 0.59606 0.09293 0.90105 0.0
C446 C 0.66974 0.13499 0.90857 0.0
C447 C 0.69369 0.19878 0.8556 0.0
C448 C 0.67555 0.17446 0.8703 0.0
C449 C 0.6193 0.10855 0.91654 0.0
C450 C 0.63927 0.13042 0.90003 0.0
H451 H 0.70773 0.22844 0.78571 0.0
H452 H 0.68166 0.18583 0.80975 0.0
H453 H 0.71093 0.16013 0.90115 0.0
H454 H 0.60207 0.08563 0.98847 0.0
H455 H 0.6391 0.11654 0.961 0.0
C456 C 0.83053 0.81401 0.31386 0.0
C457 C 0.8153 0.79053 0.32928 0.0
C458 C 0.8436 0.83819 0.32981 0.0
C459 C 0.87097 0.85814 0.407 0.0
H460 H 0.87974 0.9382 0.37159 0.0
C461 C 0.93346 0.95488 0.46938 0.0
C462 C 0.95728 0.96741 0.4523 0.0
C463 C 0.91124 0.93697 0.45533 0.0
C464 C 0.87731 0.91596 0.38177 0.0
H465 H 0.80149 0.7747 0.37385 0.0
H466 H 0.82267 0.81747 0.4013 0.0
H467 H 0.84952 0.89967 0.34541 0.0
H468 H 0.97613 0.97209 0.40722 0.0
H469 H 0.93711 0.94115 0.38256 0.0
H470 H 0.89876 0.87458 0.44334 0.0
C471 C 0.82531 0.81685 0.37691 0.0
C472 C 0.8602 0.89379 0.36671 0.0
C473 C 0.81265 0.79246 0.36102 0.0
C474 C 0.95789 0.96276 0.42083 0.0
C475 C 0.93549 0.94522 0.40673 0.0
C476 C 0.88767 0.88043 0.42222 0.0
C477 C 0.84146 0.83979 0.36161 0.0
C478 C 0.8573 0.86435 0.37882 0.0
C479 C 0.91239 0.93153 0.42394 0.0
C480 C 0.89149 0.90937 0.4095 0.0
H481 H 0.83265 0.81363 0.28941 0.0
H482 H 0.85612 0.85516 0.31716 0.0
H483 H 0.86983 0.83569 0.41686 0.0
H484 H 0.93278 0.95776 0.49376 0.0
H485 H 0.89362 0.92673 0.46909 0.0
C486 C 0.32394 0.71832 0.72367 0.0
C487 C 0.31555 0.74428 0.70727 0.0
C488 C 0.33497 0.69267 0.70862 0.0
C489 C 0.34168 0.65776 0.63155 0.0
H490 H 0.41069 0.61685 0.66713 0.0
C491 C 0.43283 0.59457 0.56359 0.0
C492 C 0.44592 0.5685 0.57605 0.0
C493 C 0.41038 0.61022 0.57941 0.0
C494 C 0.39104 0.62759 0.65713 0.0
H495 H 0.31255 0.76384 0.6623 0.0
H496 H 0.33232 0.71963 0.63618 0.0
H497 H 0.38478 0.65609 0.69579 0.0
H498 H 0.44569 0.53765 0.61413 0.0
H499 H 0.40642 0.56526 0.64222 0.0
H500 H 0.34917 0.63019 0.59222 0.0
C501 C 0.32957 0.71853 0.66054 0.0
C502 C 0.37613 0.65015 0.67358 0.0
C503 C 0.31834 0.74401 0.67554 0.0
C504 C 0.43543 0.55747 0.60396 0.0
C505 C 0.41322 0.57338 0.62005 0.0
C506 C 0.35679 0.63539 0.615 0.0
C507 C 0.33814 0.69251 0.67685 0.0
C508 C 0.3517 0.66607 0.66074 0.0
C509 C 0.40115 0.60044 0.60832 0.0
C510 C 0.38204 0.62053 0.62737 0.0
H511 H 0.32177 0.71778 0.74812 0.0
H512 H 0.34096 0.67295 0.72193 0.0
H513 H 0.32251 0.66898 0.62118 0.0
H514 H 0.44108 0.60369 0.54231 0.0
H515 H 0.40181 0.63115 0.56991 0.0
C516 C 0.95749 0.95894 0.85052 0.0
C517 C 0.94637 0.92921 0.85341 0.0
C518 C 0.97285 0.96792 0.82432 0.0
C519 C 0.00882 0.93981 0.75302 0.0
H520 H 0.98461 0.01881 0.72344 0.0
C521 C 0.01614 0.98092 0.62789 0.0
C522 C 0.01989 0.0122 0.62315 0.0
C523 C 0.01572 0.96921 0.65743 0.0
C524 C 0.9922 0.99695 0.73156 0.0
H525 H 0.94337 0.88526 0.83167 0.0
H526 H 0.96946 0.90113 0.78539 0.0
H527 H 0.96671 0.00159 0.77229 0.0
H528 H 0.02947 0.05523 0.64482 0.0
H529 H 0.0297 0.0348 0.69614 0.0
H530 H 0.03338 0.93499 0.71123 0.0
C531 C 0.96691 0.91739 0.8036 0.0
C532 C 0.98189 0.98702 0.75971 0.0
C533 C 0.95183 0.90831 0.83003 0.0
C534 C 0.02628 0.03105 0.64797 0.0
C535 C 0.02619 0.01937 0.67733 0.0
C536 C 0.01908 0.94975 0.72459 0.0
C537 C 0.97707 0.9475 0.80017 0.0
C538 C 0.98988 0.95829 0.77082 0.0
C539 C 0.01911 0.98869 0.68251 0.0
C540 C 0.01076 0.97843 0.71353 0.0
H541 H 0.95406 0.97536 0.86846 0.0
H542 H 0.981 0.99108 0.82282 0.0
H543 H 0.01563 0.91764 0.76099 0.0
H544 H 0.01094 0.96598 0.60906 0.0
H545 H 0.01024 0.94546 0.66065 0.0
C546 C 0.57817 0.07948 0.35134 0.0
C547 C 0.58757 0.10968 0.35518 0.0
C548 C 0.56355 0.07039 0.32472 0.0
C549 C 0.52688 0.09855 0.25365 0.0
H550 H 0.55502 0.02149 0.22252 0.0
C551 C 0.52162 0.05936 0.12754 0.0
C552 C 0.51851 0.02808 0.12234 0.0
C553 C 0.52196 0.07065 0.15726 0.0
C554 C 0.54639 0.0428 0.23106 0.0
H555 H 0.58828 0.15431 0.33468 0.0
H556 H 0.56354 0.13833 0.2877 0.0
H557 H 0.57172 0.03841 0.27195 0.0
H558 H 0.51022 0.98452 0.14347 0.0
H559 H 0.51004 0.00417 0.19509 0.0
H560 H 0.50249 0.10318 0.21169 0.0
C561 C 0.56682 0.12173 0.30548 0.0
C562 C 0.55598 0.05254 0.25955 0.0
C563 C 0.58112 0.13089 0.33232 0.0
C564 C 0.5129 0.00871 0.14695 0.0
C565 C 0.513 0.01995 0.17649 0.0
C566 C 0.51738 0.08882 0.22487 0.0
C567 C 0.55841 0.09121 0.30108 0.0
C568 C 0.54649 0.08056 0.27126 0.0
C569 C 0.51921 0.05074 0.18207 0.0
C570 C 0.52711 0.06082 0.21327 0.0
H571 H 0.58241 0.06279 0.36884 0.0
H572 H 0.55673 0.04687 0.32249 0.0
H573 H 0.51891 0.12016 0.26206 0.0
H574 H 0.52625 0.0747 0.1089 0.0
H575 H 0.52677 0.09449 0.16082 0.0
C576 C 0.46523 0.5801 0.1847 0.0
C577 C 0.45524 0.61003 0.18119 0.0
C578 C 0.4791 0.57095 0.21162 0.0
C579 C 0.51217 0.59885 0.28464 0.0
H580 H 0.48468 0.52021 0.31302 0.0
C581 C 0.51308 0.55675 0.40991 0.0
C582 C 0.51774 0.5256 0.41439 0.0
C583 C 0.51328 0.56883 0.38052 0.0
C584 C 0.49308 0.542 0.30526 0.0
H585 H 0.45262 0.65416 0.20256 0.0
H586 H 0.47596 0.63802 0.25008 0.0
H587 H 0.46961 0.53759 0.26327 0.0
H588 H 0.52904 0.4832 0.39249 0.0
H589 H 0.52991 0.50424 0.34143 0.0
H590 H 0.53462 0.60343 0.3277 0.0
C591 C 0.47379 0.62171 0.23184 0.0
C592 C 0.48446 0.55198 0.2766 0.0
C593 C 0.46028 0.63095 0.2047 0.0
C594 C 0.52509 0.50726 0.38952 0.0
C595 C 0.52548 0.51928 0.36032 0.0
C596 C 0.52066 0.58887 0.3136 0.0
C597 C 0.48281 0.59142 0.23587 0.0
C598 C 0.49377 0.58055 0.26588 0.0
C599 C 0.51806 0.54981 0.35535 0.0
C600 C 0.51113 0.56032 0.32417 0.0
H601 H 0.46204 0.56367 0.16669 0.0
H602 H 0.48643 0.54763 0.21361 0.0
H603 H 0.51996 0.62088 0.27699 0.0
H604 H 0.50712 0.57127 0.42878 0.0
H605 H 0.50747 0.59245 0.37737 0.0
C606 C 0.07491 0.46723 0.68149 0.0
C607 C 0.08143 0.4365 0.67678 0.0
C608 C 0.06214 0.47685 0.70882 0.0
C609 C 0.02565 0.44939 0.78047 0.0
H610 H 0.05884 0.5246 0.81199 0.0
C611 C 0.02619 0.48747 0.90716 0.0
C612 C 0.02307 0.51868 0.91258 0.0
C613 C 0.02582 0.47632 0.8774 0.0
C614 C 0.04892 0.50379 0.80334 0.0
H615 H 0.07936 0.3916 0.69664 0.0
H616 H 0.05804 0.40842 0.74475 0.0
H617 H 0.07331 0.50772 0.76184 0.0
H618 H 0.01451 0.56229 0.89177 0.0
H619 H 0.01357 0.54289 0.84005 0.0
H620 H 0.00232 0.44513 0.82306 0.0
C621 C 0.06193 0.42509 0.72714 0.0
C622 C 0.05717 0.4941 0.77446 0.0
C623 C 0.07431 0.41543 0.69963 0.0
C624 C 0.01717 0.53814 0.88813 0.0
C625 C 0.01675 0.52707 0.85855 0.0
C626 C 0.01761 0.459 0.80967 0.0
C627 C 0.05612 0.45601 0.73229 0.0
C628 C 0.04576 0.46675 0.76258 0.0
C629 C 0.02252 0.49632 0.85276 0.0
C630 C 0.02921 0.48632 0.82136 0.0
H631 H 0.07982 0.48386 0.66406 0.0
H632 H 0.05733 0.50074 0.71164 0.0
H633 H 0.01614 0.42836 0.77196 0.0
H634 H 0.03115 0.47208 0.92563 0.0
H635 H 0.03037 0.45251 0.87359 0.0
C636 C 0.83787 0.95752 0.90309 0.0
C637 C 0.86028 0.94966 0.92429 0.0
C638 C 0.81169 0.97273 0.91234 0.0
C639 C 0.76617 0.98456 0.98165 0.0
H640 H 0.7203 0.03948 0.93067 0.0
C641 C 0.65514 0.03094 0.02492 0.0
C642 C 0.63037 0.02503 0.00578 0.0
C643 C 0.68464 0.03037 0.01362 0.0
C644 C 0.73296 0.02423 0.94513 0.0
H645 H 0.87394 0.95309 0.9713 0.0
H646 H 0.82888 0.98057 0.98739 0.0
H647 H 0.77014 0.02168 0.91394 0.0
H648 H 0.61667 0.01637 0.95942 0.0
H649 H 0.66853 0.01515 0.93951 0.0
H650 H 0.72913 0.98671 0.01262 0.0
C651 C 0.83085 0.97413 0.96379 0.0
C652 C 0.76142 0.01391 0.93554 0.0
C653 C 0.85675 0.95852 0.95461 0.0
C654 C 0.63541 0.02125 0.97457 0.0
C655 C 0.6651 0.02051 0.96322 0.0
C656 C 0.73804 0.99505 0.99129 0.0
C657 C 0.80756 0.98072 0.94296 0.0
C658 C 0.77827 0.99369 0.95361 0.0
C659 C 0.69001 0.02347 0.983 0.0
C660 C 0.72098 0.01482 0.97312 0.0
H661 H 0.84002 0.95076 0.87957 0.0
H662 H 0.79418 0.97705 0.8957 0.0
H663 H 0.77791 0.9684 0.99586 0.0
H664 H 0.65179 0.03412 0.04904 0.0
H665 H 0.70337 0.03341 0.02926 0.0
C666 C 0.67872 0.08352 0.4558 0.0
C667 C 0.67492 0.09228 0.42547 0.0
C668 C 0.70501 0.06858 0.46499 0.0
C669 C 0.77492 0.02986 0.43698 0.0
H670 H 0.80678 0.05762 0.51411 0.0
C671 C 0.90066 0.02167 0.47704 0.0
C672 C 0.9055 0.0179 0.5083 0.0
C673 C 0.87106 0.0229 0.46549 0.0
C674 C 0.79801 0.04913 0.49277 0.0
H675 H 0.69515 0.09168 0.38075 0.0
H676 H 0.74168 0.06648 0.39693 0.0
H677 H 0.75799 0.07565 0.49695 0.0
H678 H 0.88369 0.00948 0.55147 0.0
H679 H 0.83224 0.01108 0.53135 0.0
H680 H 0.8161 0.00432 0.43255 0.0
C681 C 0.72408 0.07044 0.41355 0.0
C682 C 0.76989 0.05947 0.48289 0.0
C683 C 0.69751 0.08501 0.40427 0.0
C684 C 0.88053 0.01265 0.52731 0.0
C685 C 0.8511 0.01372 0.51582 0.0
C686 C 0.80336 0.01966 0.44682 0.0
C687 C 0.72841 0.06254 0.44417 0.0
C688 C 0.75791 0.05007 0.45487 0.0
C689 C 0.846 0.02047 0.48511 0.0
C690 C 0.81517 0.02924 0.47485 0.0
H691 H 0.66139 0.08845 0.47247 0.0
H692 H 0.70714 0.06217 0.48859 0.0
H693 H 0.7663 0.02192 0.41539 0.0
H694 H 0.91956 0.02605 0.46196 0.0
H695 H 0.86785 0.02813 0.44172 0.0
C696 C 0.34705 0.58513 0.12972 0.0
C697 C 0.36969 0.59281 0.10864 0.0
C698 C 0.32019 0.57109 0.12016 0.0
C699 C 0.2736 0.56383 0.05114 0.0
H700 H 0.22602 0.50792 0.09989 0.0
C701 C 0.15982 0.52325 0.00743 0.0
C702 C 0.13561 0.52787 0.02747 0.0
C703 C 0.18956 0.52292 0.01809 0.0
C704 C 0.23913 0.52349 0.08607 0.0
H705 H 0.383 0.59018 0.06149 0.0
H706 H 0.33657 0.5649 0.04482 0.0
H707 H 0.27685 0.52313 0.11679 0.0
H708 H 0.12304 0.53373 0.07453 0.0
H709 H 0.17538 0.53354 0.09335 0.0
H710 H 0.23603 0.56473 0.02073 0.0
C711 C 0.33901 0.57053 0.06859 0.0
C712 C 0.26817 0.53229 0.09575 0.0
C713 C 0.36565 0.58491 0.0781 0.0
C714 C 0.1414 0.52987 0.0587 0.0
C715 C 0.17133 0.52976 0.06943 0.0
C716 C 0.24485 0.55493 0.04143 0.0
C717 C 0.31557 0.5642 0.08935 0.0
C718 C 0.28564 0.5528 0.07847 0.0
C719 C 0.19573 0.52772 0.04898 0.0
C720 C 0.22717 0.53484 0.05882 0.0
H721 H 0.34957 0.59116 0.15341 0.0
H722 H 0.30255 0.56689 0.13673 0.0
H723 H 0.28593 0.58026 0.03762 0.0
H724 H 0.15584 0.52144 0.98325 0.0
H725 H 0.20787 0.52062 0.00189 0.0
C726 C 0.19276 0.42551 0.59508 0.0
C727 C 0.16891 0.44428 0.60455 0.0
C728 C 0.22026 0.43793 0.58566 0.0
C729 C 0.27202 0.50121 0.59246 0.0
H730 H 0.30375 0.46851 0.51731 0.0
C731 C 0.39328 0.52374 0.53792 0.0
C732 C 0.40788 0.49614 0.53191 0.0
C733 C 0.3629 0.52389 0.54755 0.0
C734 C 0.29508 0.4781 0.53818 0.0
H735 H 0.15582 0.491 0.61254 0.0
H736 H 0.20469 0.51276 0.5966 0.0
H737 H 0.25183 0.45681 0.5323 0.0
H738 H 0.40291 0.44723 0.53225 0.0
H739 H 0.35031 0.44747 0.54859 0.0
H740 H 0.31618 0.52134 0.59879 0.0
C741 C 0.2016 0.48837 0.59625 0.0
C742 C 0.26544 0.47137 0.54676 0.0
C743 C 0.17374 0.47589 0.6054 0.0
C744 C 0.39211 0.46884 0.53654 0.0
C745 C 0.36203 0.46896 0.54584 0.0
C746 C 0.30194 0.50797 0.58381 0.0
C747 C 0.22487 0.46945 0.5858 0.0
C748 C 0.25402 0.48182 0.57452 0.0
C749 C 0.34687 0.49641 0.5507 0.0
C750 C 0.31399 0.49538 0.55718 0.0
H751 H 0.1903 0.40106 0.59506 0.0
H752 H 0.23811 0.42279 0.57835 0.0
H753 H 0.26364 0.50954 0.61396 0.0
H754 H 0.40473 0.54502 0.53358 0.0
H755 H 0.35157 0.54534 0.55111 0.0
C756 C 0.92957 0.82989 0.92174 0.0
C757 C 0.92327 0.85651 0.93802 0.0
C758 C 0.93537 0.80275 0.93693 0.0
C759 C 0.93188 0.74482 0.97336 0.0
H760 H 0.98807 0.74615 0.041 0.0
C761 C 0.97813 0.63351 0.02035 0.0
C762 C 0.00995 0.63333 0.02156 0.0
C763 C 0.96247 0.66102 0.01889 0.0
C764 C 0.97217 0.7454 0.02228 0.0
H765 H 0.91814 0.87546 0.9831 0.0
H766 H 0.92802 0.82787 0.00966 0.0
H767 H 0.97062 0.79382 0.01917 0.0
H768 H 0.05022 0.6615 0.02449 0.0
H769 H 0.02318 0.70927 0.02161 0.0
H770 H 0.93477 0.69653 0.97518 0.0
C771 C 0.9286 0.8281 0.98512 0.0
C772 C 0.96198 0.77273 0.00991 0.0
C773 C 0.92272 0.85529 0.96989 0.0
C774 C 0.02566 0.66102 0.02361 0.0
C775 C 0.01008 0.68844 0.02215 0.0
C776 C 0.94207 0.71754 0.98568 0.0
C777 C 0.93501 0.80151 0.96879 0.0
C778 C 0.94248 0.77273 0.98467 0.0
C779 C 0.97841 0.68877 0.01843 0.0
C780 C 0.96309 0.71748 0.00968 0.0
H781 H 0.92981 0.82996 0.89719 0.0
H782 H 0.94069 0.78282 0.92364 0.0
H783 H 0.91639 0.74404 0.95429 0.0
H784 H 0.96547 0.6125 0.0183 0.0
H785 H 0.93802 0.66051 0.01649 0.0
C786 C 0.43552 0.68572 0.06444 0.0
C787 C 0.43758 0.68348 0.09624 0.0
C788 C 0.44356 0.71265 0.0496 0.0
C789 C 0.49294 0.77816 0.05871 0.0
H790 H 0.4413 0.81982 0.00104 0.0
C791 C 0.48434 0.90617 0.0153 0.0
C792 C 0.51551 0.91162 0.01147 0.0
C793 C 0.47333 0.87636 0.01705 0.0
C794 C 0.45599 0.80826 0.01693 0.0
H795 H 0.44847 0.70841 0.13733 0.0
H796 H 0.46339 0.75481 0.11137 0.0
H797 H 0.42462 0.77127 0.02305 0.0
H798 H 0.55905 0.89077 0.00307 0.0
H799 H 0.53984 0.83889 0.00549 0.0
H800 H 0.52397 0.815 0.05347 0.0
C801 C 0.45572 0.73564 0.09797 0.0
C802 C 0.44653 0.78053 0.02939 0.0
C803 C 0.44737 0.70896 0.1128 0.0
C804 C 0.53494 0.88708 0.0063 0.0
C805 C 0.52397 0.85743 0.00783 0.0
C806 C 0.5025 0.8055 0.04607 0.0
C807 C 0.45415 0.73767 0.06625 0.0
C808 C 0.46472 0.7656 0.05086 0.0
C809 C 0.49343 0.85175 0.01501 0.0
C810 C 0.48402 0.8211 0.02535 0.0
H811 H 0.42835 0.66647 0.05092 0.0
H812 H 0.44234 0.71364 0.02509 0.0
H813 H 0.50748 0.76697 0.07501 0.0
H814 H 0.46896 0.92477 0.01957 0.0
H815 H 0.44967 0.87269 0.02261 0.0
C816 C 0.09352 0.359 0.55972 0.0
C817 C 0.0911 0.36205 0.59143 0.0
C818 C 0.08494 0.33197 0.54536 0.0
C819 C 0.03578 0.26583 0.55525 0.0
H820 H 0.08972 0.22409 0.49985 0.0
C821 C 0.04994 0.13679 0.51548 0.0
C822 C 0.01901 0.12997 0.51188 0.0
C823 C 0.05967 0.16708 0.51657 0.0
C824 C 0.07439 0.23563 0.51511 0.0
H825 H 0.07816 0.33865 0.6328 0.0
H826 H 0.06235 0.2921 0.60767 0.0
H827 H 0.10447 0.27373 0.52063 0.0
H828 H 0.97461 0.14877 0.50311 0.0
H829 H 0.99161 0.20142 0.50416 0.0
H830 H 0.00609 0.2278 0.55074 0.0
C831 C 0.07079 0.31069 0.59396 0.0
C832 C 0.08273 0.26402 0.52685 0.0
C833 C 0.07968 0.33748 0.60833 0.0
C834 C 0.99855 0.15355 0.50618 0.0
C835 C 0.00826 0.18365 0.50697 0.0
C836 C 0.02735 0.23776 0.54337 0.0
C837 C 0.07338 0.30764 0.56237 0.0
C838 C 0.06371 0.27904 0.54752 0.0
C839 C 0.03855 0.19078 0.51401 0.0
C840 C 0.04669 0.2221 0.5235 0.0
H841 H 0.10184 0.37757 0.54592 0.0
H842 H 0.0869 0.33026 0.52094 0.0
H843 H 0.0206 0.27702 0.57093 0.0
H844 H 0.06608 0.11894 0.5201 0.0
H845 H 0.08318 0.17186 0.522 0.0
C846 C 0.61271 0.18434 0.47272 0.0
C847 C 0.60737 0.18211 0.44125 0.0
C848 C 0.60626 0.21111 0.48844 0.0
C849 C 0.55637 0.27487 0.48939 0.0
H850 H 0.62052 0.3236 0.52541 0.0
C851 C 0.5704 0.40625 0.51109 0.0
C852 C 0.54319 0.41234 0.52636 0.0
C853 C 0.58182 0.37675 0.51012 0.0
C854 C 0.60237 0.30996 0.51586 0.0
H855 H 0.59128 0.20697 0.40187 0.0
H856 H 0.57855 0.25284 0.42974 0.0
H857 H 0.63233 0.2736 0.50376 0.0
H858 H 0.50703 0.39295 0.5533 0.0
H859 H 0.5268 0.34119 0.5514 0.0
H860 H 0.52646 0.31115 0.50075 0.0
C861 C 0.58801 0.23379 0.44197 0.0
C862 C 0.6091 0.28148 0.50355 0.0
C863 C 0.59507 0.20734 0.42611 0.0
C864 C 0.52853 0.38889 0.54216 0.0
C865 C 0.53967 0.3593 0.54082 0.0
C866 C 0.54954 0.30294 0.50221 0.0
C867 C 0.59369 0.23592 0.47319 0.0
C868 C 0.58624 0.26414 0.48955 0.0
C869 C 0.56564 0.35277 0.52361 0.0
C870 C 0.57256 0.32108 0.51496 0.0
H871 H 0.62157 0.16532 0.48539 0.0
H872 H 0.6106 0.21228 0.5126 0.0
H873 H 0.53843 0.26181 0.47869 0.0
H874 H 0.58148 0.42383 0.49791 0.0
H875 H 0.60167 0.37229 0.49639 0.0
loop_
_geom_bond_atom_site_label_1
_geom_bond_atom_site_label_2
_geom_bond_distance
_geom_bond_site_symmetry_2
_ccdc_geom_bond_type
H0 C3 0.931 . S
H1 C6 0.928 . S
H2 C8 0.930 . S
C3 H0 0.931 . S
C3 C4 1.413 . S
C3 C5 1.360 . S
C4 C3 1.413 . S
C4 C8 1.429 . S
C5 C3 1.360 . S
C5 C6 1.372 . S
C6 H1 0.928 . S
C6 C5 1.372 . S
C6 C7 1.404 . S
C7 C6 1.404 . S
C7 C8 1.391 . S
C8 H2 0.930 . S
C8 C4 1.429 . S
C8 C7 1.391 . S
H9 C12 0.931 . S
H10 C15 0.928 . S
H11 C17 0.930 . S
C12 H9 0.931 . S
C12 C13 1.413 . S
C12 C14 1.360 . S
C13 C12 1.413 . S
C13 C17 1.429 . S
C14 C12 1.360 . S
C14 C15 1.372 . S
C15 H10 0.928 . S
C15 C14 1.372 . S
C15 C16 1.404 . S
C16 C15 1.404 . S
C16 C17 1.391 . S
C17 H11 0.930 . S
C17 C13 1.429 . S
C17 C16 1.391 . S
H18 C21 0.931 . S
H19 C24 0.928 . S
H20 C26 0.930 . S
C21 H18 0.931 . S
C21 C22 1.413 . S
C21 C23 1.360 . S
C22 C21 1.413 . S
C22 C26 1.429 . S
C23 C21 1.360 . S
C23 C24 1.372 . S
C24 H19 0.928 . S
C24 C23 1.372 . S
C24 C25 1.404 . S
C25 C24 1.404 . S
C25 C26 1.391 . S
C26 H20 0.930 . S
C26 C22 1.429 . S
C26 C25 1.391 . S
H27 C30 0.931 . S
H28 C33 0.928 . S
H29 C35 0.930 . S
C30 H27 0.931 . S
C30 C31 1.413 . S
C30 C32 1.360 . S
C31 C30 1.413 . S
C31 C35 1.429 . S
C32 C30 1.360 . S
C32 C33 1.372 . S
C33 H28 0.928 . S
C33 C32 1.372 . S
C33 C34 1.404 . S
C34 C33 1.404 . S
C34 C35 1.391 . S
C35 H29 0.930 . S
C35 C31 1.429 . S
C35 C34 1.391 . S
H36 C39 0.931 . S
H37 C42 0.928 . S
H38 C44 0.930 . S
C39 H36 0.931 . S
C39 C40 1.413 . S
C39 C41 1.360 . S
C40 C39 1.413 . S
C40 C44 1.429 . S
C41 C39 1.360 . S
C41 C42 1.372 . S
C42 H37 0.928 . S
C42 C41 1.372 . S
C42 C43 1.404 . S
C43 C42 1.404 . S
C43 C44 1.391 . S
C44 H38 0.930 . S
C44 C40 1.429 . S
C44 C43 1.391 . S
H45 C48 0.931 . S
H46 C51 0.928 . S
H47 C53 0.930 . S
C48 H45 0.931 . S
C48 C49 1.413 . S
C48 C50 1.360 . S
C49 C48 1.413 . S
C49 C53 1.429 . S
C50 C48 1.360 . S
C50 C51 1.372 . S
C51 H46 0.928 . S
C51 C50 1.372 . S
C51 C52 1.404 . S
C52 C51 1.404 . S
C52 C53 1.391 . S
C53 H47 0.930 . S
C53 C49 1.429 . S
C53 C52 1.391 . S
H54 C57 0.931 . S
H55 C60 0.928 . S
H56 C62 0.930 . S
C57 H54 0.931 . S
C57 C58 1.413 . S
C57 C59 1.360 . S
C58 C57 1.413 . S
C58 C62 1.429 . S
C59 C57 1.360 . S
C59 C60 1.372 . S
C60 H55 0.928 . S
C60 C59 1.372 . S
C60 C61 1.404 . S
C61 C60 1.404 . S
C61 C62 1.391 . S
C62 H56 0.930 . S
C62 C58 1.429 . S
C62 C61 1.391 . S
H63 C66 0.931 . S
H64 C69 0.928 . S
H65 C71 0.930 . S
C66 H63 0.931 . S
C66 C67 1.413 . S
C66 C68 1.360 . S
C67 C66 1.413 . S
C67 C71 1.429 . S
C68 C66 1.360 . S
C68 C69 1.372 . S
C69 H64 0.928 . S
C69 C68 1.372 . S
C69 C70 1.404 . S
C70 C69 1.404 . S
C70 C71 1.391 . S
C71 H65 0.930 . S
C71 C67 1.429 . S
C71 C70 1.391 . S
Zn72 O78 1.920 . S
Zn72 O84 1.898 . S
Zn72 O87 1.905 . S
Zn73 O81 1.905 1_565 S
Zn73 O82 1.898 . S
Zn73 O90 1.920 . S
Zn74 O77 2.080 1_455 S
Zn74 O80 2.114 . S
Zn74 O83 2.120 1_445 S
Zn74 O85 2.120 . S
Zn74 O86 2.114 1_455 S
Zn74 O89 2.080 . S
C75 O80 1.166 . S
C75 O81 1.182 . S
C76 O82 1.167 1_655 S
C76 O83 1.299 . S
O77 Zn74 2.080 1_655 S
O77 C91 1.305 . S
O78 Zn72 1.920 . S
O78 C91 1.234 . S
C79 O84 1.167 1_455 S
C79 O85 1.299 . S
O80 Zn74 2.114 . S
O80 C75 1.166 . S
O81 Zn73 1.905 1_545 S
O81 C75 1.182 . S
O82 Zn73 1.898 . S
O82 C76 1.167 1_455 S
O83 Zn74 2.120 1_665 S
O83 C76 1.299 . S
O84 Zn72 1.898 . S
O84 C79 1.167 1_655 S
O85 Zn74 2.120 . S
O85 C79 1.299 . S
O86 Zn74 2.114 1_655 S
O86 C88 1.166 . S
O87 Zn72 1.905 . S
O87 C88 1.182 . S
C88 O86 1.166 . S
C88 O87 1.182 . S
O89 Zn74 2.080 . S
O89 C92 1.305 1_545 S
O90 Zn73 1.920 . S
O90 C92 1.234 . S
C91 O77 1.305 . S
C91 O78 1.234 . S
C92 O89 1.305 1_565 S
C92 O90 1.234 . S
Zn93 O99 1.920 1_556 S
Zn93 O105 1.898 . S
Zn93 O108 1.905 . S
Zn94 O102 1.905 . S
Zn94 O103 1.898 . S
Zn94 O111 1.920 . S
Zn95 O98 2.080 . S
Zn95 O101 2.114 1_545 S
Zn95 O104 2.120 1_545 S
Zn95 O106 2.120 . S
Zn95 O107 2.114 1_544 S
Zn95 O110 2.080 . S
C96 O101 1.166 . S
C96 O102 1.182 . S
C97 O103 1.167 . S
C97 O104 1.299 . S
O98 Zn95 2.080 . S
O98 C112 1.305 . S
O99 Zn93 1.920 1_554 S
O99 C112 1.234 . S
C100 O105 1.167 . S
C100 O106 1.299 1_556 S
O101 Zn95 2.114 1_565 S
O101 C96 1.166 . S
O102 Zn94 1.905 . S
O102 C96 1.182 . S
O103 Zn94 1.898 . S
O103 C97 1.167 . S
O104 Zn95 2.120 1_565 S
O104 C97 1.299 . S
O105 Zn93 1.898 . S
O105 C100 1.167 . S
O106 Zn95 2.120 . S
O106 C100 1.299 1_554 S
O107 Zn95 2.114 1_566 S
O107 C109 1.166 . S
O108 Zn93 1.905 . S
O108 C109 1.182 1_545 S
C109 O107 1.166 . S
C109 O108 1.182 1_565 S
O110 Zn95 2.080 . S
O110 C113 1.305 . S
O111 Zn94 1.920 . S
O111 C113 1.234 1_565 S
C112 O98 1.305 . S
C112 O99 1.234 . S
C113 O110 1.305 . S
C113 O111 1.234 1_545 S
Zn114 O120 1.920 . S
Zn114 O126 1.898 . S
Zn114 O129 1.905 . S
Zn115 O123 1.905 . S
Zn115 O124 1.898 . S
Zn115 O132 1.920 . S
Zn116 O119 2.080 . S
Zn116 O122 2.114 . S
Zn116 O125 2.120 . S
Zn116 O127 2.120 . S
Zn116 O128 2.114 . S
Zn116 O131 2.080 . S
C117 O122 1.166 . S
C117 O123 1.182 . S
C118 O124 1.167 . S
C118 O125 1.299 . S
O119 Zn116 2.080 . S
O119 C133 1.305 . S
O120 Zn114 1.920 . S
O120 C133 1.234 . S
C121 O126 1.167 . S
C121 O127 1.299 . S
O122 Zn116 2.114 . S
O122 C117 1.166 . S
O123 Zn115 1.905 . S
O123 C117 1.182 . S
O124 Zn115 1.898 . S
O124 C118 1.167 . S
O125 Zn116 2.120 . S
O125 C118 1.299 . S
O126 Zn114 1.898 . S
O126 C121 1.167 . S
O127 Zn116 2.120 . S
O127 C121 1.299 . S
O128 Zn116 2.114 . S
O128 C130 1.166 . S
O129 Zn114 1.905 . S
O129 C130 1.182 . S
C130 O128 1.166 . S
C130 O129 1.182 . S
O131 Zn116 2.080 . S
O131 C134 1.305 . S
O132 Zn115 1.920 . S
O132 C134 1.234 . S
C133 O119 1.305 . S
C133 O120 1.234 . S
C134 O131 1.305 . S
C134 O132 1.234 . S
Zn135 O141 1.920 . S
Zn135 O147 1.898 . S
Zn135 O150 1.905 . S
Zn136 O144 1.905 1_655 S
Zn136 O145 1.898 . S
Zn136 O153 1.920 . S
Zn137 O140 2.080 1_554 S
Zn137 O143 2.114 . S
Zn137 O146 2.120 1_454 S
Zn137 O148 2.120 . S
Zn137 O149 2.114 1_554 S
Zn137 O152 2.080 . S
C138 O143 1.166 . S
C138 O144 1.182 . S
C139 O145 1.167 1_556 S
C139 O146 1.299 . S
O140 Zn137 2.080 1_556 S
O140 C154 1.305 . S
O141 Zn135 1.920 . S
O141 C154 1.234 . S
C142 O147 1.167 1_554 S
C142 O148 1.299 . S
O143 Zn137 2.114 . S
O143 C138 1.166 . S
O144 Zn136 1.905 1_455 S
O144 C138 1.182 . S
O145 Zn136 1.898 . S
O145 C139 1.167 1_554 S
O146 Zn137 2.120 1_656 S
O146 C139 1.299 . S
O147 Zn135 1.898 . S
O147 C142 1.167 1_556 S
O148 Zn137 2.120 . S
O148 C142 1.299 . S
O149 Zn137 2.114 1_556 S
O149 C151 1.166 . S
O150 Zn135 1.905 . S
O150 C151 1.182 . S
C151 O149 1.166 . S
C151 O150 1.182 . S
O152 Zn137 2.080 . S
O152 C155 1.305 1_455 S
O153 Zn136 1.920 . S
O153 C155 1.234 . S
C154 O140 1.305 . S
C154 O141 1.234 . S
C155 O152 1.305 1_655 S
C155 O153 1.234 . S
C156 C157 1.349 . S
C156 C158 1.327 . S
C156 H181 0.950 . S
C157 C156 1.349 . S
C157 C173 1.349 . S
C158 C156 1.327 . S
C158 C177 1.429 . S
C158 H182 0.950 . S
C159 C176 1.574 . S
C159 C178 1.368 . S
C159 H183 0.949 . S
H160 C164 0.949 . S
C161 C162 1.349 . S
C161 C163 1.327 . S
C161 H184 0.950 . S
C162 C161 1.349 . S
C162 C174 1.349 . S
C163 C161 1.327 . S
C163 C179 1.429 . S
C163 H185 0.950 . S
C164 H160 0.949 . S
C164 C172 1.574 . S
C164 C180 1.368 . S
H165 C173 0.950 . S
H166 C171 0.950 . S
H167 C172 0.949 . S
H168 C174 0.950 . S
H169 C175 0.950 . S
H170 C176 0.949 . S
C171 H166 0.950 . S
C171 C173 1.327 . S
C171 C177 1.429 . S
C172 C164 1.574 . S
C172 H167 0.949 . S
C172 C178 1.368 . S
C173 C157 1.349 . S
C173 H165 0.950 . S
C173 C171 1.327 . S
C174 C162 1.349 . S
C174 H168 0.950 . S
C174 C175 1.327 . S
C175 H169 0.950 . S
C175 C174 1.327 . S
C175 C179 1.429 . S
C176 C159 1.574 . S
C176 H170 0.949 . S
C176 C180 1.368 . S
C177 C158 1.429 . S
C177 C171 1.429 . S
C177 C178 1.523 . S
C178 C159 1.368 . S
C178 C172 1.368 . S
C178 C177 1.523 . S
C179 C163 1.429 . S
C179 C175 1.429 . S
C179 C180 1.523 . S
C180 C164 1.368 . S
C180 C176 1.368 . S
C180 C179 1.523 . S
H181 C156 0.950 . S
H182 C158 0.950 . S
H183 C159 0.949 . S
H184 C161 0.950 . S
H185 C163 0.950 . S
C186 C187 1.349 . S
C186 C188 1.327 . S
C186 H211 0.950 . S
C187 C186 1.349 . S
C187 C203 1.349 . S
C188 C186 1.327 . S
C188 C207 1.429 . S
C188 H212 0.950 . S
C189 C206 1.574 . S
C189 C208 1.368 . S
C189 H213 0.949 . S
H190 C194 0.949 . S
C191 C192 1.349 . S
C191 C193 1.327 . S
C191 H214 0.950 . S
C192 C191 1.349 . S
C192 C204 1.349 . S
C193 C191 1.327 . S
C193 C209 1.429 . S
C193 H215 0.950 . S
C194 H190 0.949 . S
C194 C202 1.574 . S
C194 C210 1.368 . S
H195 C203 0.950 . S
H196 C201 0.950 . S
H197 C202 0.949 . S
H198 C204 0.950 1_545 S
H199 C205 0.950 . S
H200 C206 0.949 . S
C201 H196 0.950 . S
C201 C203 1.327 . S
C201 C207 1.429 . S
C202 C194 1.574 . S
C202 H197 0.949 . S
C202 C208 1.368 . S
C203 C187 1.349 . S
C203 H195 0.950 . S
C203 C201 1.327 . S
C204 C192 1.349 . S
C204 H198 0.950 1_565 S
C204 C205 1.327 . S
C205 H199 0.950 . S
C205 C204 1.327 . S
C205 C209 1.429 . S
C206 C189 1.574 . S
C206 H200 0.949 . S
C206 C210 1.368 . S
C207 C188 1.429 . S
C207 C201 1.429 . S
C207 C208 1.523 . S
C208 C189 1.368 . S
C208 C202 1.368 . S
C208 C207 1.523 . S
C209 C193 1.429 . S
C209 C205 1.429 . S
C209 C210 1.523 . S
C210 C194 1.368 . S
C210 C206 1.368 . S
C210 C209 1.523 . S
H211 C186 0.950 . S
H212 C188 0.950 . S
H213 C189 0.949 . S
H214 C191 0.950 . S
H215 C193 0.950 . S
C216 C217 1.349 . S
C216 C218 1.327 . S
C216 H241 0.950 . S
C217 C216 1.349 . S
C217 C233 1.349 . S
C218 C216 1.327 . S
C218 C237 1.429 . S
C218 H242 0.950 . S
C219 C236 1.574 . S
C219 C238 1.368 . S
C219 H243 0.949 . S
H220 C224 0.949 . S
C221 C222 1.349 . S
C221 C223 1.327 . S
C221 H244 0.950 . S
C222 C221 1.349 . S
C222 C234 1.349 . S
C223 C221 1.327 . S
C223 C239 1.429 . S
C223 H245 0.950 . S
C224 H220 0.949 . S
C224 C232 1.574 . S
C224 C240 1.368 . S
H225 C233 0.950 . S
H226 C231 0.950 . S
H227 C232 0.949 . S
H228 C234 0.950 . S
H229 C235 0.950 . S
H230 C236 0.949 . S
C231 H226 0.950 . S
C231 C233 1.327 . S
C231 C237 1.429 . S
C232 C224 1.574 . S
C232 H227 0.949 . S
C232 C238 1.368 . S
C233 C217 1.349 . S
C233 H225 0.950 . S
C233 C231 1.327 . S
C234 C222 1.349 . S
C234 H228 0.950 . S
C234 C235 1.327 . S
C235 H229 0.950 . S
C235 C234 1.327 . S
C235 C239 1.429 . S
C236 C219 1.574 . S
C236 H230 0.949 . S
C236 C240 1.368 . S
C237 C218 1.429 . S
C237 C231 1.429 . S
C237 C238 1.523 . S
C238 C219 1.368 . S
C238 C232 1.368 . S
C238 C237 1.523 . S
C239 C223 1.429 . S
C239 C235 1.429 . S
C239 C240 1.523 . S
C240 C224 1.368 . S
C240 C236 1.368 . S
C240 C239 1.523 . S
H241 C216 0.950 . S
H242 C218 0.950 . S
H243 C219 0.949 . S
H244 C221 0.950 . S
H245 C223 0.950 . S
C246 C247 1.349 . S
C246 C248 1.327 . S
C246 H271 0.950 . S
C247 C246 1.349 . S
C247 C263 1.349 . S
C248 C246 1.327 . S
C248 C267 1.429 . S
C248 H272 0.950 . S
C249 C266 1.574 . S
C249 C268 1.368 . S
C249 H273 0.949 . S
H250 C254 0.949 . S
C251 C252 1.349 . S
C251 C253 1.327 . S
C251 H274 0.950 . S
C252 C251 1.349 . S
C252 C264 1.349 . S
C253 C251 1.327 . S
C253 C269 1.429 . S
C253 H275 0.950 . S
C254 H250 0.949 . S
C254 C262 1.574 . S
C254 C270 1.368 . S
H255 C263 0.950 . S
H256 C261 0.950 . S
H257 C262 0.949 . S
H258 C264 0.950 . S
H259 C265 0.950 . S
H260 C266 0.949 . S
C261 H256 0.950 . S
C261 C263 1.327 . S
C261 C267 1.429 . S
C262 C254 1.574 . S
C262 H257 0.949 . S
C262 C268 1.368 . S
C263 C247 1.349 . S
C263 H255 0.950 . S
C263 C261 1.327 . S
C264 C252 1.349 . S
C264 H258 0.950 . S
C264 C265 1.327 . S
C265 H259 0.950 . S
C265 C264 1.327 . S
C265 C269 1.429 . S
C266 C249 1.574 . S
C266 H260 0.949 . S
C266 C270 1.368 . S
C267 C248 1.429 . S
C267 C261 1.429 . S
C267 C268 1.523 . S
C268 C249 1.368 . S
C268 C262 1.368 . S
C268 C267 1.523 . S
C269 C253 1.429 . S
C269 C265 1.429 . S
C269 C270 1.523 . S
C270 C254 1.368 . S
C270 C266 1.368 . S
C270 C269 1.523 . S
H271 C246 0.950 . S
H272 C248 0.950 . S
H273 C249 0.949 . S
H274 C251 0.950 . S
H275 C253 0.950 . S
C276 C277 1.349 . S
C276 C278 1.327 . S
C276 H301 0.950 . S
C277 C276 1.349 . S
C277 C293 1.349 . S
C278 C276 1.327 . S
C278 C297 1.429 . S
C278 H302 0.950 . S
C279 C296 1.574 . S
C279 C298 1.368 . S
C279 H303 0.949 . S
H280 C284 0.949 . S
C281 C282 1.349 . S
C281 C283 1.327 . S
C281 H304 0.950 . S
C282 C281 1.349 . S
C282 C294 1.349 . S
C283 C281 1.327 . S
C283 C299 1.429 . S
C283 H305 0.950 . S
C284 H280 0.949 . S
C284 C292 1.574 . S
C284 C300 1.368 . S
H285 C293 0.950 . S
H286 C291 0.950 . S
H287 C292 0.949 . S
H288 C294 0.950 . S
H289 C295 0.950 . S
H290 C296 0.949 . S
C291 H286 0.950 . S
C291 C293 1.327 . S
C291 C297 1.429 . S
C292 C284 1.574 . S
C292 H287 0.949 . S
C292 C298 1.368 . S
C293 C277 1.349 . S
C293 H285 0.950 . S
C293 C291 1.327 . S
C294 C282 1.349 . S
C294 H288 0.950 . S
C294 C295 1.327 . S
C295 H289 0.950 . S
C295 C294 1.327 . S
C295 C299 1.429 . S
C296 C279 1.574 . S
C296 H290 0.949 . S
C296 C300 1.368 . S
C297 C278 1.429 . S
C297 C291 1.429 . S
C297 C298 1.523 . S
C298 C279 1.368 . S
C298 C292 1.368 . S
C298 C297 1.523 . S
C299 C283 1.429 . S
C299 C295 1.429 . S
C299 C300 1.523 . S
C300 C284 1.368 . S
C300 C296 1.368 . S
C300 C299 1.523 . S
H301 C276 0.950 . S
H302 C278 0.950 . S
H303 C279 0.949 . S
H304 C281 0.950 . S
H305 C283 0.950 . S
C306 C307 1.349 . S
C306 C308 1.327 . S
C306 H331 0.950 . S
C307 C306 1.349 . S
C307 C323 1.349 . S
C308 C306 1.327 . S
C308 C327 1.429 . S
C308 H332 0.950 . S
C309 C326 1.574 . S
C309 C328 1.368 . S
C309 H333 0.949 . S
H310 C314 0.949 . S
C311 C312 1.349 . S
C311 C313 1.327 . S
C311 H334 0.950 . S
C312 C311 1.349 . S
C312 C324 1.358 . S
C313 C311 1.327 . S
C313 C329 1.429 . S
C313 H335 0.950 . S
C314 H310 0.949 . S
C314 C322 1.574 . S
C314 C330 1.368 . S
H315 C323 0.950 . S
H316 C321 0.950 . S
H317 C322 0.949 . S
H318 C324 0.931 1_545 S
H319 C325 0.950 . S
H320 C326 0.949 . S
C321 H316 0.950 . S
C321 C323 1.327 . S
C321 C327 1.429 . S
C322 C314 1.574 . S
C322 H317 0.949 . S
C322 C328 1.368 . S
C323 C307 1.349 . S
C323 H315 0.950 . S
C323 C321 1.327 . S
C324 C312 1.358 . S
C324 H318 0.931 1_565 S
C324 C325 1.336 . S
C325 H319 0.950 . S
C325 C324 1.336 . S
C325 C329 1.429 . S
C326 C309 1.574 . S
C326 H320 0.949 . S
C326 C330 1.368 . S
C327 C308 1.429 . S
C327 C321 1.429 . S
C327 C328 1.523 . S
C328 C309 1.368 . S
C328 C322 1.368 . S
C328 C327 1.523 . S
C329 C313 1.429 . S
C329 C325 1.429 . S
C329 C330 1.523 . S
C330 C314 1.368 . S
C330 C326 1.368 . S
C330 C329 1.523 . S
H331 C306 0.950 . S
H332 C308 0.950 . S
H333 C309 0.949 . S
H334 C311 0.950 . S
H335 C313 0.950 . S
C336 C337 1.349 . S
C336 C338 1.327 . S
C336 H361 0.950 . S
C337 C336 1.349 . S
C337 C353 1.349 . S
C338 C336 1.327 . S
C338 C357 1.429 . S
C338 H362 0.950 . S
C339 C356 1.574 . S
C339 C358 1.368 . S
C339 H363 0.949 . S
H340 C344 0.949 . S
C341 C342 1.349 . S
C341 C343 1.327 . S
C341 H364 0.950 . S
C342 C341 1.349 . S
C342 C354 1.349 . S
C343 C341 1.327 . S
C343 C359 1.429 . S
C343 H365 0.950 . S
C344 H340 0.949 . S
C344 C352 1.574 . S
C344 C360 1.368 . S
H345 C353 0.950 . S
H346 C351 0.950 . S
H347 C352 0.949 . S
H348 C354 0.950 . S
H349 C355 0.950 . S
H350 C356 0.949 . S
C351 H346 0.950 . S
C351 C353 1.327 . S
C351 C357 1.429 . S
C352 C344 1.574 . S
C352 H347 0.949 . S
C352 C358 1.368 . S
C353 C337 1.349 . S
C353 H345 0.950 . S
C353 C351 1.327 . S
C354 C342 1.349 . S
C354 H348 0.950 . S
C354 C355 1.327 . S
C355 H349 0.950 . S
C355 C354 1.327 . S
C355 C359 1.429 . S
C356 C339 1.574 . S
C356 H350 0.949 . S
C356 C360 1.368 . S
C357 C338 1.429 . S
C357 C351 1.429 . S
C357 C358 1.523 . S
C358 C339 1.368 . S
C358 C352 1.368 . S
C358 C357 1.523 . S
C359 C343 1.429 . S
C359 C355 1.429 . S
C359 C360 1.523 . S
C360 C344 1.368 . S
C360 C356 1.368 . S
C360 C359 1.523 . S
H361 C336 0.950 . S
H362 C338 0.950 . S
H363 C339 0.949 . S
H364 C341 0.950 . S
H365 C343 0.950 . S
C366 C367 1.349 . S
C366 C368 1.327 . S
C366 H391 0.950 . S
C367 C366 1.349 . S
C367 C383 1.349 . S
C368 C366 1.327 . S
C368 C387 1.429 . S
C368 H392 0.950 . S
C369 C386 1.574 . S
C369 C388 1.368 . S
C369 H393 0.949 . S
H370 C374 0.949 . S
C371 C372 1.349 . S
C371 C373 1.327 . S
C371 H394 0.950 . S
C372 C371 1.349 . S
C372 C384 1.349 . S
C373 C371 1.327 . S
C373 C389 1.429 . S
C373 H395 0.950 . S
C374 H370 0.949 . S
C374 C382 1.574 . S
C374 C390 1.368 . S
H375 C383 0.950 . S
H376 C381 0.950 . S
H377 C382 0.949 . S
H378 C384 0.950 . S
H379 C385 0.950 . S
H380 C386 0.949 . S
C381 H376 0.950 . S
C381 C383 1.327 . S
C381 C387 1.429 . S
C382 C374 1.574 . S
C382 H377 0.949 . S
C382 C388 1.368 . S
C383 C367 1.349 . S
C383 H375 0.950 . S
C383 C381 1.327 . S
C384 C372 1.349 . S
C384 H378 0.950 . S
C384 C385 1.327 . S
C385 H379 0.950 . S
C385 C384 1.327 . S
C385 C389 1.429 . S
C386 C369 1.574 . S
C386 H380 0.949 . S
C386 C390 1.368 . S
C387 C368 1.429 . S
C387 C381 1.429 . S
C387 C388 1.523 . S
C388 C369 1.368 . S
C388 C382 1.368 . S
C388 C387 1.523 . S
C389 C373 1.429 . S
C389 C385 1.429 . S
C389 C390 1.523 . S
C390 C374 1.368 . S
C390 C386 1.368 . S
C390 C389 1.523 . S
H391 C366 0.950 . S
H392 C368 0.950 . S
H393 C369 0.949 . S
H394 C371 0.950 . S
H395 C373 0.950 . S
C396 C397 1.349 . S
C396 C398 1.327 . S
C396 H421 0.950 . S
C397 C396 1.349 . S
C397 C413 1.349 . S
C398 C396 1.327 . S
C398 C417 1.429 . S
C398 H422 0.950 . S
C399 C416 1.574 . S
C399 C418 1.368 . S
C399 H423 0.949 . S
H400 C404 0.949 . S
C401 C402 1.349 . S
C401 C403 1.327 . S
C401 H424 0.950 . S
C402 C401 1.349 . S
C402 C414 1.349 . S
C403 C401 1.327 . S
C403 C419 1.429 . S
C403 H425 0.950 . S
C404 H400 0.949 . S
C404 C412 1.574 . S
C404 C420 1.368 . S
H405 C413 0.950 . S
H406 C411 0.950 . S
H407 C412 0.949 . S
H408 C414 0.950 . S
H409 C415 0.950 . S
H410 C416 0.949 . S
C411 H406 0.950 . S
C411 C413 1.327 . S
C411 C417 1.429 . S
C412 C404 1.574 . S
C412 H407 0.949 . S
C412 C418 1.368 . S
C413 C397 1.349 . S
C413 H405 0.950 . S
C413 C411 1.327 . S
C414 C402 1.349 . S
C414 H408 0.950 . S
C414 C415 1.327 . S
C415 H409 0.950 . S
C415 C414 1.327 . S
C415 C419 1.429 . S
C416 C399 1.574 . S
C416 H410 0.949 . S
C416 C420 1.368 . S
C417 C398 1.429 . S
C417 C411 1.429 . S
C417 C418 1.523 . S
C418 C399 1.368 . S
C418 C412 1.368 . S
C418 C417 1.523 . S
C419 C403 1.429 . S
C419 C415 1.429 . S
C419 C420 1.523 . S
C420 C404 1.368 . S
C420 C416 1.368 . S
C420 C419 1.523 . S
H421 C396 0.950 . S
H422 C398 0.950 . S
H423 C399 0.949 . S
H424 C401 0.950 . S
H425 C403 0.950 . S
C426 C427 1.349 . S
C426 C428 1.327 . S
C426 H451 0.950 . S
C427 C426 1.349 . S
C427 C443 1.349 . S
C428 C426 1.327 . S
C428 C447 1.429 . S
C428 H452 0.950 . S
C429 C446 1.574 . S
C429 C448 1.368 . S
C429 H453 0.949 . S
H430 C434 0.949 . S
C431 C432 1.349 . S
C431 C433 1.327 . S
C431 H454 0.950 1_556 S
C432 C431 1.349 . S
C432 C444 1.349 . S
C433 C431 1.327 . S
C433 C449 1.429 . S
C433 H455 0.950 . S
C434 H430 0.949 . S
C434 C442 1.574 . S
C434 C450 1.368 . S
H435 C443 0.950 . S
H436 C441 0.950 . S
H437 C442 0.949 . S
H438 C444 0.950 . S
H439 C445 0.950 . S
H440 C446 0.949 . S
C441 H436 0.950 . S
C441 C443 1.327 . S
C441 C447 1.429 . S
C442 C434 1.574 . S
C442 H437 0.949 . S
C442 C448 1.368 . S
C443 C427 1.349 . S
C443 H435 0.950 . S
C443 C441 1.327 . S
C444 C432 1.349 . S
C444 H438 0.950 . S
C444 C445 1.327 . S
C445 H439 0.950 . S
C445 C444 1.327 . S
C445 C449 1.429 . S
C446 C429 1.574 . S
C446 H440 0.949 . S
C446 C450 1.368 . S
C447 C428 1.429 . S
C447 C441 1.429 . S
C447 C448 1.523 . S
C448 C429 1.368 . S
C448 C442 1.368 . S
C448 C447 1.523 . S
C449 C433 1.429 . S
C449 C445 1.429 . S
C449 C450 1.523 . S
C450 C434 1.368 . S
C450 C446 1.368 . S
C450 C449 1.523 . S
H451 C426 0.950 . S
H452 C428 0.950 . S
H453 C429 0.949 . S
H454 C431 0.950 1_554 S
H455 C433 0.950 . S
C456 C457 1.349 . S
C456 C458 1.327 . S
C456 H481 0.950 . S
C457 C456 1.349 . S
C457 C473 1.349 . S
C458 C456 1.327 . S
C458 C477 1.429 . S
C458 H482 0.950 . S
C459 C476 1.574 . S
C459 C478 1.368 . S
C459 H483 0.949 . S
H460 C464 0.949 . S
C461 C462 1.349 . S
C461 C463 1.327 . S
C461 H484 0.950 . S
C462 C461 1.349 . S
C462 C474 1.349 . S
C463 C461 1.327 . S
C463 C479 1.429 . S
C463 H485 0.950 . S
C464 H460 0.949 . S
C464 C472 1.574 . S
C464 C480 1.368 . S
H465 C473 0.950 . S
H466 C471 0.950 . S
H467 C472 0.949 . S
H468 C474 0.950 . S
H469 C475 0.950 . S
H470 C476 0.949 . S
C471 H466 0.950 . S
C471 C473 1.327 . S
C471 C477 1.429 . S
C472 C464 1.574 . S
C472 H467 0.949 . S
C472 C478 1.368 . S
C473 C457 1.349 . S
C473 H465 0.950 . S
C473 C471 1.327 . S
C474 C462 1.349 . S
C474 H468 0.950 . S
C474 C475 1.327 . S
C475 H469 0.950 . S
C475 C474 1.327 . S
C475 C479 1.429 . S
C476 C459 1.574 . S
C476 H470 0.949 . S
C476 C480 1.368 . S
C477 C458 1.429 . S
C477 C471 1.429 . S
C477 C478 1.523 . S
C478 C459 1.368 . S
C478 C472 1.368 . S
C478 C477 1.523 . S
C479 C463 1.429 . S
C479 C475 1.429 . S
C479 C480 1.523 . S
C480 C464 1.368 . S
C480 C476 1.368 . S
C480 C479 1.523 . S
H481 C456 0.950 . S
H482 C458 0.950 . S
H483 C459 0.949 . S
H484 C461 0.950 . S
H485 C463 0.950 . S
C486 C487 1.349 . S
C486 C488 1.327 . S
C486 H511 0.950 . S
C487 C486 1.349 . S
C487 C503 1.349 . S
C488 C486 1.327 . S
C488 C507 1.429 . S
C488 H512 0.950 . S
C489 C506 1.574 . S
C489 C508 1.368 . S
C489 H513 0.949 . S
H490 C494 0.949 . S
C491 C492 1.349 . S
C491 C493 1.327 . S
C491 H514 0.950 . S
C492 C491 1.349 . S
C492 C504 1.349 . S
C493 C491 1.327 . S
C493 C509 1.429 . S
C493 H515 0.950 . S
C494 H490 0.949 . S
C494 C502 1.574 . S
C494 C510 1.368 . S
H495 C503 0.950 . S
H496 C501 0.950 . S
H497 C502 0.949 . S
H498 C504 0.950 . S
H499 C505 0.950 . S
H500 C506 0.949 . S
C501 H496 0.950 . S
C501 C503 1.327 . S
C501 C507 1.429 . S
C502 C494 1.574 . S
C502 H497 0.949 . S
C502 C508 1.368 . S
C503 C487 1.349 . S
C503 H495 0.950 . S
C503 C501 1.327 . S
C504 C492 1.349 . S
C504 H498 0.950 . S
C504 C505 1.327 . S
C505 H499 0.950 . S
C505 C504 1.327 . S
C505 C509 1.429 . S
C506 C489 1.574 . S
C506 H500 0.949 . S
C506 C510 1.368 . S
C507 C488 1.429 . S
C507 C501 1.429 . S
C507 C508 1.523 . S
C508 C489 1.368 . S
C508 C502 1.368 . S
C508 C507 1.523 . S
C509 C493 1.429 . S
C509 C505 1.429 . S
C509 C510 1.523 . S
C510 C494 1.368 . S
C510 C506 1.368 . S
C510 C509 1.523 . S
H511 C486 0.950 . S
H512 C488 0.950 . S
H513 C489 0.949 . S
H514 C491 0.950 . S
H515 C493 0.950 . S
C516 C517 1.349 . S
C516 C518 1.327 . S
C516 H541 0.950 . S
C517 C516 1.349 . S
C517 C533 1.349 . S
C518 C516 1.327 . S
C518 C537 1.429 . S
C518 H542 0.950 1_565 S
C519 C536 1.574 . S
C519 C538 1.368 . S
C519 H543 0.949 . S
H520 C524 0.949 1_455 S
C521 C522 1.349 1_565 S
C521 C523 1.327 . S
C521 H544 0.950 . S
C522 C521 1.349 1_545 S
C522 C534 1.349 1_655 S
C523 C521 1.327 . S
C523 C539 1.428 . S
C523 H545 0.950 . S
C524 H520 0.949 1_655 S
C524 C532 1.574 . S
C524 C540 1.368 1_545 S
H525 C533 0.950 . S
H526 C531 0.950 . S
H527 C532 0.949 . S
H528 C534 0.950 . S
H529 C535 0.950 1_455 S
H530 C536 0.949 . S
C531 H526 0.950 . S
C531 C533 1.327 . S
C531 C537 1.429 . S
C532 C524 1.574 . S
C532 H527 0.949 . S
C532 C538 1.368 1_545 S
C533 C517 1.349 . S
C533 H525 0.950 . S
C533 C531 1.327 . S
C534 C522 1.349 1_455 S
C534 H528 0.950 . S
C534 C535 1.327 1_455 S
C535 H529 0.950 1_655 S
C535 C534 1.327 1_655 S
C535 C539 1.429 1_545 S
C536 C519 1.574 . S
C536 H530 0.949 . S
C536 C540 1.368 . S
C537 C518 1.429 . S
C537 C531 1.429 . S
C537 C538 1.523 . S
C538 C519 1.368 . S
C538 C532 1.368 1_565 S
C538 C537 1.523 . S
C539 C523 1.428 . S
C539 C535 1.429 1_565 S
C539 C540 1.523 . S
C540 C524 1.368 1_565 S
C540 C536 1.368 . S
C540 C539 1.523 . S
H541 C516 0.950 . S
H542 C518 0.950 1_545 S
H543 C519 0.949 . S
H544 C521 0.950 . S
H545 C523 0.950 . S
C546 C547 1.349 . S
C546 C548 1.327 . S
C546 H571 0.950 . S
C547 C546 1.349 . S
C547 C563 1.349 . S
C548 C546 1.327 . S
C548 C567 1.429 . S
C548 H572 0.950 . S
C549 C566 1.574 . S
C549 C568 1.368 . S
C549 H573 0.949 . S
H550 C554 0.949 . S
C551 C552 1.349 . S
C551 C553 1.327 . S
C551 H574 0.950 . S
C552 C551 1.349 . S
C552 C564 1.349 . S
C553 C551 1.327 . S
C553 C569 1.429 . S
C553 H575 0.950 . S
C554 H550 0.949 . S
C554 C562 1.574 . S
C554 C570 1.368 . S
H555 C563 0.950 . S
H556 C561 0.950 . S
H557 C562 0.949 . S
H558 C564 0.950 1_565 S
H559 C565 0.950 . S
H560 C566 0.949 . S
C561 H556 0.950 . S
C561 C563 1.327 . S
C561 C567 1.429 . S
C562 C554 1.574 . S
C562 H557 0.949 . S
C562 C568 1.368 . S
C563 C547 1.349 . S
C563 H555 0.950 . S
C563 C561 1.327 . S
C564 C552 1.349 . S
C564 H558 0.950 1_545 S
C564 C565 1.327 . S
C565 H559 0.950 . S
C565 C564 1.327 . S
C565 C569 1.429 . S
C566 C549 1.574 . S
C566 H560 0.949 . S
C566 C570 1.368 . S
C567 C548 1.429 . S
C567 C561 1.429 . S
C567 C568 1.523 . S
C568 C549 1.368 . S
C568 C562 1.368 . S
C568 C567 1.523 . S
C569 C553 1.429 . S
C569 C565 1.429 . S
C569 C570 1.523 . S
C570 C554 1.368 . S
C570 C566 1.368 . S
C570 C569 1.523 . S
H571 C546 0.950 . S
H572 C548 0.950 . S
H573 C549 0.949 . S
H574 C551 0.950 . S
H575 C553 0.950 . S
C576 C577 1.349 . S
C576 C578 1.327 . S
C576 H601 0.950 . S
C577 C576 1.349 . S
C577 C593 1.349 . S
C578 C576 1.327 . S
C578 C597 1.429 . S
C578 H602 0.950 . S
C579 C596 1.574 . S
C579 C598 1.368 . S
C579 H603 0.949 . S
H580 C584 0.949 . S
C581 C582 1.349 . S
C581 C583 1.327 . S
C581 H604 0.950 . S
C582 C581 1.349 . S
C582 C594 1.349 . S
C583 C581 1.327 . S
C583 C599 1.429 . S
C583 H605 0.950 . S
C584 H580 0.949 . S
C584 C592 1.574 . S
C584 C600 1.368 . S
H585 C593 0.950 . S
H586 C591 0.950 . S
H587 C592 0.949 . S
H588 C594 0.950 . S
H589 C595 0.950 . S
H590 C596 0.949 . S
C591 H586 0.950 . S
C591 C593 1.327 . S
C591 C597 1.429 . S
C592 C584 1.574 . S
C592 H587 0.949 . S
C592 C598 1.368 . S
C593 C577 1.349 . S
C593 H585 0.950 . S
C593 C591 1.327 . S
C594 C582 1.349 . S
C594 H588 0.950 . S
C594 C595 1.327 . S
C595 H589 0.950 . S
C595 C594 1.327 . S
C595 C599 1.429 . S
C596 C579 1.574 . S
C596 H590 0.949 . S
C596 C600 1.368 . S
C597 C578 1.429 . S
C597 C591 1.429 . S
C597 C598 1.523 . S
C598 C579 1.368 . S
C598 C592 1.368 . S
C598 C597 1.523 . S
C599 C583 1.429 . S
C599 C595 1.429 . S
C599 C600 1.523 . S
C600 C584 1.368 . S
C600 C596 1.368 . S
C600 C599 1.523 . S
H601 C576 0.950 . S
H602 C578 0.950 . S
H603 C579 0.949 . S
H604 C581 0.950 . S
H605 C583 0.950 . S
C606 C607 1.349 . S
C606 C608 1.327 . S
C606 H631 0.950 . S
C607 C606 1.349 . S
C607 C623 1.349 . S
C608 C606 1.327 . S
C608 C627 1.429 . S
C608 H632 0.950 . S
C609 C626 1.574 . S
C609 C628 1.368 . S
C609 H633 0.949 . S
H610 C614 0.949 . S
C611 C612 1.349 . S
C611 C613 1.327 . S
C611 H634 0.950 . S
C612 C611 1.349 . S
C612 C624 1.349 . S
C613 C611 1.327 . S
C613 C629 1.429 . S
C613 H635 0.950 . S
C614 H610 0.949 . S
C614 C622 1.574 . S
C614 C630 1.368 . S
H615 C623 0.950 . S
H616 C621 0.950 . S
H617 C622 0.949 . S
H618 C624 0.950 . S
H619 C625 0.950 . S
H620 C626 0.949 . S
C621 H616 0.950 . S
C621 C623 1.327 . S
C621 C627 1.429 . S
C622 C614 1.574 . S
C622 H617 0.949 . S
C622 C628 1.368 . S
C623 C607 1.349 . S
C623 H615 0.950 . S
C623 C621 1.327 . S
C624 C612 1.349 . S
C624 H618 0.950 . S
C624 C625 1.327 . S
C625 H619 0.950 . S
C625 C624 1.327 . S
C625 C629 1.429 . S
C626 C609 1.574 . S
C626 H620 0.949 . S
C626 C630 1.368 . S
C627 C608 1.429 . S
C627 C621 1.429 . S
C627 C628 1.523 . S
C628 C609 1.368 . S
C628 C622 1.368 . S
C628 C627 1.523 . S
C629 C613 1.429 . S
C629 C625 1.429 . S
C629 C630 1.523 . S
C630 C614 1.368 . S
C630 C626 1.368 . S
C630 C629 1.523 . S
H631 C606 0.950 . S
H632 C608 0.950 . S
H633 C609 0.949 . S
H634 C611 0.950 . S
H635 C613 0.950 . S
C636 C637 1.349 . S
C636 C638 1.327 . S
C636 H661 0.950 . S
C637 C636 1.349 . S
C637 C653 1.349 . S
C638 C636 1.327 . S
C638 C657 1.429 . S
C638 H662 0.950 . S
C639 C656 1.574 . S
C639 C658 1.368 1_554 S
C639 H663 0.949 . S
H640 C644 0.945 1_545 S
C641 C642 1.349 . S
C641 C643 1.327 . S
C641 H664 0.950 . S
C642 C641 1.349 . S
C642 C654 1.349 1_564 S
C643 C641 1.327 . S
C643 C659 1.429 1_554 S
C643 H665 0.950 . S
C644 H640 0.945 1_565 S
C644 C652 1.574 . S
C644 C660 1.368 . S
H645 C653 0.950 . S
H646 C651 0.950 1_554 S
H647 C652 0.949 . S
H648 C654 0.950 . S
H649 C655 0.950 1_545 S
H650 C656 0.949 . S
C651 H646 0.950 1_556 S
C651 C653 1.327 . S
C651 C657 1.429 . S
C652 C644 1.574 . S
C652 H647 0.949 . S
C652 C658 1.368 . S
C653 C637 1.349 . S
C653 H645 0.950 . S
C653 C651 1.327 . S
C654 C642 1.349 1_546 S
C654 H648 0.950 . S
C654 C655 1.327 1_545 S
C655 H649 0.950 1_565 S
C655 C654 1.327 1_565 S
C655 C659 1.429 . S
C656 C639 1.574 . S
C656 H650 0.949 . S
C656 C660 1.368 1_554 S
C657 C638 1.429 . S
C657 C651 1.429 . S
C657 C658 1.523 . S
C658 C639 1.368 1_556 S
C658 C652 1.368 . S
C658 C657 1.523 . S
C659 C643 1.429 1_556 S
C659 C655 1.429 . S
C659 C660 1.523 . S
C660 C644 1.368 . S
C660 C656 1.368 1_556 S
C660 C659 1.523 . S
H661 C636 0.950 . S
H662 C638 0.950 . S
H663 C639 0.949 . S
H664 C641 0.950 . S
H665 C643 0.950 . S
C666 C667 1.349 . S
C666 C668 1.327 . S
C666 H691 0.950 . S
C667 C666 1.349 . S
C667 C683 1.349 . S
C668 C666 1.327 . S
C668 C687 1.429 . S
C668 H692 0.950 . S
C669 C686 1.574 . S
C669 C688 1.368 . S
C669 H693 0.949 . S
H670 C674 0.949 . S
C671 C672 1.349 . S
C671 C673 1.327 . S
C671 H694 0.950 . S
C672 C671 1.349 . S
C672 C684 1.349 . S
C673 C671 1.327 . S
C673 C689 1.429 . S
C673 H695 0.950 . S
C674 H670 0.949 . S
C674 C682 1.574 . S
C674 C690 1.368 . S
H675 C683 0.950 . S
H676 C681 0.950 . S
H677 C682 0.949 . S
H678 C684 0.950 . S
H679 C685 0.950 . S
H680 C686 0.949 . S
C681 H676 0.950 . S
C681 C683 1.327 . S
C681 C687 1.429 . S
C682 C674 1.574 . S
C682 H677 0.949 . S
C682 C688 1.368 . S
C683 C667 1.349 . S
C683 H675 0.950 . S
C683 C681 1.327 . S
C684 C672 1.349 . S
C684 H678 0.950 . S
C684 C685 1.327 . S
C685 H679 0.950 . S
C685 C684 1.327 . S
C685 C689 1.429 . S
C686 C669 1.574 . S
C686 H680 0.949 . S
C686 C690 1.368 . S
C687 C668 1.429 . S
C687 C681 1.429 . S
C687 C688 1.523 . S
C688 C669 1.368 . S
C688 C682 1.368 . S
C688 C687 1.523 . S
C689 C673 1.429 . S
C689 C685 1.429 . S
C689 C690 1.523 . S
C690 C674 1.368 . S
C690 C686 1.368 . S
C690 C689 1.523 . S
H691 C666 0.950 . S
H692 C668 0.950 . S
H693 C669 0.949 . S
H694 C671 0.950 . S
H695 C673 0.950 . S
C696 C697 1.349 . S
C696 C698 1.327 . S
C696 H721 0.950 . S
C697 C696 1.349 . S
C697 C713 1.349 . S
C698 C696 1.327 . S
C698 C717 1.429 . S
C698 H722 0.950 . S
C699 C716 1.574 . S
C699 C718 1.368 . S
C699 H723 0.949 . S
H700 C704 0.949 . S
C701 C702 1.349 . S
C701 C703 1.327 . S
C701 H724 0.950 1_554 S
C702 C701 1.349 . S
C702 C714 1.349 . S
C703 C701 1.327 . S
C703 C719 1.429 . S
C703 H725 0.950 1_554 S
C704 H700 0.949 . S
C704 C712 1.574 . S
C704 C720 1.368 . S
H705 C713 0.950 . S
H706 C711 0.950 . S
H707 C712 0.949 . S
H708 C714 0.950 . S
H709 C715 0.950 . S
H710 C716 0.949 . S
C711 H706 0.950 . S
C711 C713 1.327 . S
C711 C717 1.429 . S
C712 C704 1.574 . S
C712 H707 0.949 . S
C712 C718 1.368 . S
C713 C697 1.349 . S
C713 H705 0.950 . S
C713 C711 1.327 . S
C714 C702 1.349 . S
C714 H708 0.950 . S
C714 C715 1.327 . S
C715 H709 0.950 . S
C715 C714 1.327 . S
C715 C719 1.429 . S
C716 C699 1.574 . S
C716 H710 0.949 . S
C716 C720 1.368 . S
C717 C698 1.429 . S
C717 C711 1.429 . S
C717 C718 1.523 . S
C718 C699 1.368 . S
C718 C712 1.368 . S
C718 C717 1.523 . S
C719 C703 1.429 . S
C719 C715 1.429 . S
C719 C720 1.523 . S
C720 C704 1.368 . S
C720 C716 1.368 . S
C720 C719 1.523 . S
H721 C696 0.950 . S
H722 C698 0.950 . S
H723 C699 0.949 . S
H724 C701 0.950 1_556 S
H725 C703 0.950 1_556 S
C726 C727 1.349 . S
C726 C728 1.327 . S
C726 H751 0.950 . S
C727 C726 1.349 . S
C727 C743 1.349 . S
C728 C726 1.327 . S
C728 C747 1.429 . S
C728 H752 0.950 . S
C729 C746 1.574 . S
C729 C748 1.368 . S
C729 H753 0.949 . S
H730 C734 0.949 . S
C731 C732 1.349 . S
C731 C733 1.327 . S
C731 H754 0.950 . S
C732 C731 1.349 . S
C732 C744 1.349 . S
C733 C731 1.327 . S
C733 C749 1.429 . S
C733 H755 0.950 . S
C734 H730 0.949 . S
C734 C742 1.574 . S
C734 C750 1.368 . S
H735 C743 0.950 . S
H736 C741 0.950 . S
H737 C742 0.949 . S
H738 C744 0.950 . S
H739 C745 0.950 . S
H740 C746 0.949 . S
C741 H736 0.950 . S
C741 C743 1.327 . S
C741 C747 1.429 . S
C742 C734 1.574 . S
C742 H737 0.949 . S
C742 C748 1.368 . S
C743 C727 1.349 . S
C743 H735 0.950 . S
C743 C741 1.327 . S
C744 C732 1.349 . S
C744 H738 0.950 . S
C744 C745 1.327 . S
C745 H739 0.950 . S
C745 C744 1.327 . S
C745 C749 1.429 . S
C746 C729 1.574 . S
C746 H740 0.949 . S
C746 C750 1.368 . S
C747 C728 1.429 . S
C747 C741 1.429 . S
C747 C748 1.523 . S
C748 C729 1.368 . S
C748 C742 1.368 . S
C748 C747 1.523 . S
C749 C733 1.429 . S
C749 C745 1.429 . S
C749 C750 1.523 . S
C750 C734 1.368 . S
C750 C746 1.368 . S
C750 C749 1.523 . S
H751 C726 0.950 . S
H752 C728 0.950 . S
H753 C729 0.949 . S
H754 C731 0.950 . S
H755 C733 0.950 . S
C756 C757 1.349 . S
C756 C758 1.327 . S
C756 H781 0.950 . S
C757 C756 1.349 . S
C757 C773 1.349 . S
C758 C756 1.327 . S
C758 C777 1.429 . S
C758 H782 0.950 . S
C759 C776 1.574 . S
C759 C778 1.368 . S
C759 H783 0.931 1_556 S
H760 C764 0.949 . S
C761 C762 1.349 1_654 S
C761 C763 1.327 . S
C761 H784 0.950 . S
C762 C761 1.349 1_456 S
C762 C774 1.349 . S
C763 C761 1.327 . S
C763 C779 1.429 1_554 S
C763 H785 0.950 . S
C764 H760 0.949 . S
C764 C772 1.574 1_455 S
C764 C780 1.368 1_455 S
H765 C773 0.950 . S
H766 C771 0.950 . S
H767 C772 0.949 1_455 S
H768 C774 0.950 . S
H769 C775 0.950 . S
H770 C776 0.949 1_554 S
C771 H766 0.950 . S
C771 C773 1.327 . S
C771 C777 1.429 . S
C772 C764 1.574 1_655 S
C772 H767 0.949 1_655 S
C772 C778 1.368 . S
C773 C757 1.349 . S
C773 H765 0.950 . S
C773 C771 1.327 . S
C774 C762 1.349 . S
C774 H768 0.950 . S
C774 C775 1.327 . S
C775 H769 0.950 . S
C775 C774 1.327 . S
C775 C779 1.429 1_455 S
C776 C759 1.574 . S
C776 H770 0.949 1_556 S
C776 C780 1.368 . S
C777 C758 1.429 . S
C777 C771 1.429 . S
C777 C778 1.523 . S
C778 C759 1.368 . S
C778 C772 1.368 . S
C778 C777 1.523 . S
C779 C763 1.429 1_556 S
C779 C775 1.429 1_655 S
C779 C780 1.523 . S
C780 C764 1.368 1_655 S
C780 C776 1.368 . S
C780 C779 1.523 . S
H781 C756 0.950 . S
H782 C758 0.950 . S
H783 C759 0.931 1_554 S
H784 C761 0.950 . S
H785 C763 0.950 . S
C786 C787 1.349 . S
C786 C788 1.327 . S
C786 H811 0.950 . S
C787 C786 1.349 . S
C787 C803 1.349 . S
C788 C786 1.327 . S
C788 C807 1.429 . S
C788 H812 0.950 . S
C789 C806 1.574 . S
C789 C808 1.368 . S
C789 H813 0.949 . S
H790 C794 0.949 . S
C791 C792 1.349 . S
C791 C793 1.327 . S
C791 H814 0.950 . S
C792 C791 1.349 . S
C792 C804 1.349 . S
C793 C791 1.327 . S
C793 C809 1.429 . S
C793 H815 0.950 . S
C794 H790 0.949 . S
C794 C802 1.574 . S
C794 C810 1.368 . S
H795 C803 0.950 . S
H796 C801 0.950 . S
H797 C802 0.949 . S
H798 C804 0.950 . S
H799 C805 0.950 . S
H800 C806 0.949 . S
C801 H796 0.950 . S
C801 C803 1.327 . S
C801 C807 1.429 . S
C802 C794 1.574 . S
C802 H797 0.949 . S
C802 C808 1.368 . S
C803 C787 1.349 . S
C803 H795 0.950 . S
C803 C801 1.327 . S
C804 C792 1.349 . S
C804 H798 0.950 . S
C804 C805 1.327 . S
C805 H799 0.950 . S
C805 C804 1.327 . S
C805 C809 1.429 . S
C806 C789 1.574 . S
C806 H800 0.949 . S
C806 C810 1.368 . S
C807 C788 1.429 . S
C807 C801 1.429 . S
C807 C808 1.523 . S
C808 C789 1.368 . S
C808 C802 1.368 . S
C808 C807 1.523 . S
C809 C793 1.429 . S
C809 C805 1.429 . S
C809 C810 1.523 . S
C810 C794 1.368 . S
C810 C806 1.368 . S
C810 C809 1.523 . S
H811 C786 0.950 . S
H812 C788 0.950 . S
H813 C789 0.949 . S
H814 C791 0.950 . S
H815 C793 0.950 . S
C816 C817 1.349 . S
C816 C818 1.327 . S
C816 H841 0.950 . S
C817 C816 1.349 . S
C817 C833 1.349 . S
C818 C816 1.327 . S
C818 C837 1.429 . S
C818 H842 0.950 . S
C819 C836 1.574 . S
C819 C838 1.368 . S
C819 H843 0.949 . S
H820 C824 0.949 . S
C821 C822 1.349 . S
C821 C823 1.327 . S
C821 H844 0.950 1_455 S
C822 C821 1.349 . S
C822 C834 1.349 . S
C823 C821 1.327 . S
C823 C839 1.429 . S
C823 H845 0.950 . S
C824 H820 0.949 . S
C824 C832 1.574 . S
C824 C840 1.368 . S
H825 C833 0.950 . S
H826 C831 0.950 . S
H827 C832 0.949 . S
H828 C834 0.950 . S
H829 C835 0.950 . S
H830 C836 0.949 . S
C831 H826 0.950 . S
C831 C833 1.327 . S
C831 C837 1.429 . S
C832 C824 1.574 . S
C832 H827 0.949 . S
C832 C838 1.368 . S
C833 C817 1.349 . S
C833 H825 0.950 . S
C833 C831 1.327 . S
C834 C822 1.349 . S
C834 H828 0.950 . S
C834 C835 1.327 . S
C835 H829 0.950 . S
C835 C834 1.327 . S
C835 C839 1.429 . S
C836 C819 1.574 . S
C836 H830 0.949 . S
C836 C840 1.368 . S
C837 C818 1.429 . S
C837 C831 1.429 . S
C837 C838 1.523 . S
C838 C819 1.368 . S
C838 C832 1.368 . S
C838 C837 1.523 . S
C839 C823 1.429 . S
C839 C835 1.429 . S
C839 C840 1.523 . S
C840 C824 1.368 . S
C840 C836 1.368 . S
C840 C839 1.523 . S
H841 C816 0.950 . S
H842 C818 0.950 . S
H843 C819 0.949 . S
H844 C821 0.950 1_655 S
H845 C823 0.950 . S
C846 C847 1.349 . S
C846 C848 1.327 . S
C846 H871 0.950 . S
C847 C846 1.349 . S
C847 C863 1.349 . S
C848 C846 1.327 . S
C848 C867 1.429 . S
C848 H872 0.950 . S
C849 C866 1.574 . S
C849 C868 1.368 . S
C849 H873 0.949 . S
H850 C854 0.949 . S
C851 C852 1.349 . S
C851 C853 1.327 . S
C851 H874 0.950 . S
C852 C851 1.349 . S
C852 C864 1.349 . S
C853 C851 1.327 . S
C853 C869 1.429 . S
C853 H875 0.950 . S
C854 H850 0.949 . S
C854 C862 1.574 . S
C854 C870 1.368 . S
H855 C863 0.950 . S
H856 C861 0.950 . S
H857 C862 0.949 . S
H858 C864 0.950 . S
H859 C865 0.950 . S
H860 C866 0.949 . S
C861 H856 0.950 . S
C861 C863 1.327 . S
C861 C867 1.429 . S
C862 C854 1.574 . S
C862 H857 0.949 . S
C862 C868 1.368 . S
C863 C847 1.349 . S
C863 H855 0.950 . S
C863 C861 1.327 . S
C864 C852 1.349 . S
C864 H858 0.950 . S
C864 C865 1.327 . S
C865 H859 0.950 . S
C865 C864 1.327 . S
C865 C869 1.429 . S
C866 C849 1.574 . S
C866 H860 0.949 . S
C866 C870 1.368 . S
C867 C848 1.429 . S
C867 C861 1.429 . S
C867 C868 1.523 . S
C868 C849 1.368 . S
C868 C862 1.368 . S
C868 C867 1.523 . S
C869 C853 1.429 . S
C869 C865 1.429 . S
C869 C870 1.523 . S
C870 C854 1.368 . S
C870 C866 1.368 . S
C870 C869 1.523 . S
H871 C846 0.950 . S
H872 C848 0.950 . S
H873 C849 0.949 . S
H874 C851 0.950 . S
H875 C853 0.950 . S
C157 C5 1.554 . S
C162 C75 1.443 . S
C187 C14 1.513 . S
C192 C109 1.406 . S
C222 C121 1.386 . S
C217 C25 1.496 . S
C247 C34 1.502 . S
C252 C155 1.396 . S
C282 C112 1.414 . S
C277 C7 1.524 . S
C312 C92 1.415 . S
C307 C13 1.527 . S
C342 C139 1.381 . S
C337 C23 1.490 . S
C372 C130 1.403 . S
C367 C31 1.508 . S
C397 C4 1.539 . S
C402 C138 1.430 . S
C432 C100 1.389 . S
C427 C22 1.500 . S
C457 C32 1.516 . S
C462 C76 1.399 . S
C487 C16 1.512 . S
C492 C133 1.403 . S
C522 C91 1.460 . S
C517 C41 1.554 . S
C547 C50 1.564 . S
C552 C113 1.461 . S
C577 C61 1.549 . S
C582 C118 1.450 . S
C607 C67 1.575 . S
C612 C151 1.483 . S
C637 C40 1.576 . S
C642 C96 1.482 . S
C672 C88 1.477 . S
C667 C52 1.574 . S
C702 C142 1.465 . S
C697 C59 1.565 . S
C732 C134 1.444 . S
C727 C70 1.536 . S
C757 C43 1.542 . S
C762 C154 1.450 . S
C792 C97 1.468 . S
C787 C58 1.569 . S
C822 C79 1.443 . S
C817 C68 1.542 . S
C847 C49 1.565 . S
C852 C117 1.471 . S
