# Generated by pormake.
# Topology pyr, (3,6)-cn, num edge types: 1
# Building blocks:
#     Node 0, Type 0, BuildingBlock: KAKCAD_clean_linker_0, # of connection points: 3
#     Node 1, Type 0, BuildingBlock: KAKCAD_clean_linker_0, # of connection points: 3
#     Node 2, Type 0, BuildingBlock: KAKCAD_clean_linker_0, # of connection points: 3
#     Node 3, Type 0, BuildingBlock: KAKCAD_clean_linker_0, # of connection points: 3
#     Node 4, Type 0, BuildingBlock: KAKCAD_clean_linker_0, # of connection points: 3
#     Node 5, Type 0, BuildingBlock: KAKCAD_clean_linker_0, # of connection points: 3
#     Node 6, Type 0, BuildingBlock: KAKCAD_clean_linker_0, # of connection points: 3
#     Node 7, Type 0, BuildingBlock: KAKCAD_clean_linker_0, # of connection points: 3
#     Node 8, Type 1, BuildingBlock: MIFKUJ_clean_sbu_0, # of connection points: 6
#     Node 9, Type 1, BuildingBlock: MIFKUJ_clean_sbu_0, # of connection points: 6
#     Node 10, Type 1, BuildingBlock: MIFKUJ_clean_sbu_0, # of connection points: 6
#     Node 11, Type 1, BuildingBlock: MIFKUJ_clean_sbu_0, # of connection points: 6
#     Edge 12, Type (0, 1), BuildingBlock: ZUJKAS_clean_linker_0, # of connection points: 2
#     Edge 13, Type (0, 1), BuildingBlock: ZUJKAS_clean_linker_0, # of connection points: 2
#     Edge 14, Type (0, 1), BuildingBlock: ZUJKAS_clean_linker_0, # of connection points: 2
#     Edge 15, Type (0, 1), BuildingBlock: ZUJKAS_clean_linker_0, # of connection points: 2
#     Edge 16, Type (0, 1), BuildingBlock: ZUJKAS_clean_linker_0, # of connection points: 2
#     Edge 17, Type (0, 1), BuildingBlock: ZUJKAS_clean_linker_0, # of connection points: 2
#     Edge 18, Type (0, 1), BuildingBlock: ZUJKAS_clean_linker_0, # of connection points: 2
#     Edge 19, Type (0, 1), BuildingBlock: ZUJKAS_clean_linker_0, # of connection points: 2
#     Edge 20, Type (0, 1), BuildingBlock: ZUJKAS_clean_linker_0, # of connection points: 2
#     Edge 21, Type (0, 1), BuildingBlock: ZUJKAS_clean_linker_0, # of connection points: 2
#     Edge 22, Type (0, 1), BuildingBlock: ZUJKAS_clean_linker_0, # of connection points: 2
#     Edge 23, Type (0, 1), BuildingBlock: ZUJKAS_clean_linker_0, # of connection points: 2
#     Edge 24, Type (0, 1), BuildingBlock: ZUJKAS_clean_linker_0, # of connection points: 2
#     Edge 25, Type (0, 1), BuildingBlock: ZUJKAS_clean_linker_0, # of connection points: 2
#     Edge 26, Type (0, 1), BuildingBlock: ZUJKAS_clean_linker_0, # of connection points: 2
#     Edge 27, Type (0, 1), BuildingBlock: ZUJKAS_clean_linker_0, # of connection points: 2
#     Edge 28, Type (0, 1), BuildingBlock: ZUJKAS_clean_linker_0, # of connection points: 2
#     Edge 29, Type (0, 1), BuildingBlock: ZUJKAS_clean_linker_0, # of connection points: 2
#     Edge 30, Type (0, 1), BuildingBlock: ZUJKAS_clean_linker_0, # of connection points: 2
#     Edge 31, Type (0, 1), BuildingBlock: ZUJKAS_clean_linker_0, # of connection points: 2
#     Edge 32, Type (0, 1), BuildingBlock: ZUJKAS_clean_linker_0, # of connection points: 2
#     Edge 33, Type (0, 1), BuildingBlock: ZUJKAS_clean_linker_0, # of connection points: 2
#     Edge 34, Type (0, 1), BuildingBlock: ZUJKAS_clean_linker_0, # of connection points: 2
#     Edge 35, Type (0, 1), BuildingBlock: ZUJKAS_clean_linker_0, # of connection points: 2
# Relax obj value: 0.025
# Max RMSD: 0.077
# Mean RMSD: 0.046
data_MOF--net-pyr--node1-MIFKUJ_clean_sbu_0--node2-KAKCAD_clean_linker_0--edge1-ZUJKAS_clean_linker_0
_symmetry_space_group_name_H-M    P1
_symmetry_Int_Tables_number       1
_symmetry_cell_setting            triclinic
loop_
_symmetry_equiv_pos_as_xyz
'x, y, z'
_cell_length_a     59.630642
_cell_length_b     53.431275
_cell_length_c     58.226933
_cell_angle_alpha  86.870434
_cell_angle_beta   88.718045
_cell_angle_gamma 95.414905
loop_
_atom_site_label
_atom_site_type_symbol
_atom_site_fract_x
_atom_site_fract_y
_atom_site_fract_z
_atom_type_partial_charge
C0 C 0.15286 0.14239 0.27024 0.0
C1 C 0.16631 0.13314 0.28769 0.0
C2 C 0.1627 0.15566 0.25073 0.0
C3 C 0.18625 0.16023 0.24821 0.0
C4 C 0.19975 0.15107 0.26566 0.0
C5 C 0.18988 0.13768 0.28522 0.0
C6 C 0.19649 0.17426 0.22724 0.0
C7 C 0.18654 0.19505 0.2176 0.0
C8 C 0.19482 0.20725 0.19676 0.0
C9 C 0.21382 0.19899 0.1859 0.0
C10 C 0.22416 0.17834 0.19534 0.0
C11 C 0.21539 0.16613 0.21607 0.0
C12 C 0.24326 0.16863 0.18289 0.0
C13 C 0.24306 0.16717 0.15886 0.0
C14 C 0.26153 0.16017 0.19494 0.0
C15 C 0.27907 0.15021 0.18324 0.0
C16 C 0.27874 0.14853 0.15922 0.0
C17 C 0.18276 0.22754 0.18564 0.0
C18 C 0.15909 0.22502 0.18517 0.0
C19 C 0.19468 0.24905 0.17474 0.0
C20 C 0.18318 0.26745 0.16334 0.0
C21 C 0.15953 0.26471 0.16259 0.0
C22 C 0.14762 0.2434 0.17382 0.0
C23 C 0.26062 0.15733 0.14717 0.0
H24 H 0.13465 0.13957 0.27173 0.0
H25 H 0.1518 0.1621 0.23747 0.0
H26 H 0.21794 0.15443 0.26428 0.0
H27 H 0.20071 0.13064 0.29827 0.0
H28 H 0.17219 0.20172 0.22631 0.0
H29 H 0.22264 0.14954 0.22296 0.0
H30 H 0.22024 0.20827 0.16975 0.0
H31 H 0.22911 0.17319 0.14907 0.0
H32 H 0.26229 0.16123 0.21343 0.0
H33 H 0.29266 0.14337 0.19308 0.0
H34 H 0.1494 0.20853 0.19316 0.0
H35 H 0.21291 0.25163 0.17496 0.0
H36 H 0.25997 0.15661 0.12864 0.0
H37 H 0.12938 0.24087 0.17381 0.0
H38 H 0.19286 0.28356 0.15469 0.0
C39 C 0.35016 0.87826 0.76033 0.0
C40 C 0.37354 0.88473 0.76121 0.0
C41 C 0.34068 0.86811 0.74071 0.0
C42 C 0.35436 0.86411 0.72153 0.0
C43 C 0.37767 0.87089 0.72227 0.0
C44 C 0.38714 0.88111 0.74184 0.0
C45 C 0.34442 0.85237 0.70102 0.0
C46 C 0.32412 0.8597 0.69219 0.0
C47 C 0.31443 0.84837 0.67303 0.0
C48 C 0.32529 0.8293 0.66286 0.0
C49 C 0.34569 0.82193 0.6713 0.0
C50 C 0.35515 0.83359 0.69032 0.0
C51 C 0.35712 0.80197 0.66028 0.0
C52 C 0.34489 0.77931 0.65503 0.0
C53 C 0.38034 0.80547 0.65493 0.0
C54 C 0.39109 0.78677 0.64438 0.0
C55 C 0.37889 0.76405 0.63924 0.0
C56 C 0.29319 0.85667 0.66343 0.0
C57 C 0.27563 0.86268 0.67806 0.0
C58 C 0.29037 0.85881 0.6395 0.0
C59 C 0.27053 0.86673 0.63045 0.0
C60 C 0.25301 0.87287 0.64506 0.0
C61 C 0.25582 0.87072 0.669 0.0
C62 C 0.35569 0.76048 0.64474 0.0
H63 H 0.33921 0.88046 0.77503 0.0
H64 H 0.32269 0.8628 0.74079 0.0
H65 H 0.38862 0.86842 0.70763 0.0
H66 H 0.40514 0.88633 0.74172 0.0
H67 H 0.31619 0.87474 0.69992 0.0
H68 H 0.37061 0.8275 0.69722 0.0
H69 H 0.31792 0.82021 0.64825 0.0
H70 H 0.32701 0.77603 0.65911 0.0
H71 H 0.39015 0.82281 0.65865 0.0
H72 H 0.40901 0.78996 0.64048 0.0
H73 H 0.27709 0.86099 0.69657 0.0
H74 H 0.30362 0.85467 0.62768 0.0
H75 H 0.34582 0.74325 0.64081 0.0
H76 H 0.24284 0.87557 0.68079 0.0
H77 H 0.26888 0.86784 0.61195 0.0
C78 C 0.73736 0.40385 0.84844 0.0
C79 C 0.75287 0.38747 0.85676 0.0
C80 C 0.71782 0.39449 0.83761 0.0
C81 C 0.71331 0.36853 0.83489 0.0
C82 C 0.72901 0.35223 0.84285 0.0
C83 C 0.74852 0.36157 0.85363 0.0
C84 C 0.69205 0.35826 0.82443 0.0
C85 C 0.68365 0.37028 0.80476 0.0
C86 C 0.66367 0.36029 0.79481 0.0
C87 C 0.65195 0.33823 0.80501 0.0
C88 C 0.66002 0.32605 0.82472 0.0
C89 C 0.68005 0.33621 0.83426 0.0
C90 C 0.64751 0.30279 0.83549 0.0
C91 C 0.62396 0.30104 0.83865 0.0
C92 C 0.65913 0.28229 0.84305 0.0
C93 C 0.6475 0.26064 0.85369 0.0
C94 C 0.62398 0.259 0.85713 0.0
C95 C 0.65504 0.37264 0.77366 0.0
C96 C 0.65469 0.39894 0.77135 0.0
C97 C 0.64669 0.35808 0.75577 0.0
C98 C 0.63794 0.36947 0.73618 0.0
C99 C 0.63726 0.39573 0.73398 0.0
C100 C 0.64582 0.41034 0.75177 0.0
C101 C 0.61234 0.27943 0.84942 0.0
H102 H 0.74005 0.42387 0.85077 0.0
H103 H 0.70597 0.40752 0.8319 0.0
H104 H 0.72627 0.33218 0.84065 0.0
H105 H 0.7603 0.34846 0.85936 0.0
H106 H 0.69301 0.387 0.79678 0.0
H107 H 0.68604 0.32724 0.8498 0.0
H108 H 0.6365 0.33046 0.79757 0.0
H109 H 0.61455 0.31658 0.83318 0.0
H110 H 0.67725 0.28296 0.84067 0.0
H111 H 0.657 0.24535 0.85962 0.0
H112 H 0.66086 0.41067 0.78488 0.0
H113 H 0.64696 0.33781 0.75687 0.0
H114 H 0.59419 0.27866 0.85162 0.0
H115 H 0.64574 0.43063 0.75053 0.0
H116 H 0.6313 0.35761 0.72293 0.0
C117 C 0.84112 0.61082 0.21887 0.0
C118 C 0.86448 0.60886 0.21839 0.0
C119 C 0.8309 0.62206 0.23701 0.0
C120 C 0.84383 0.6316 0.25504 0.0
C121 C 0.86711 0.62925 0.25473 0.0
C122 C 0.8773 0.61801 0.23664 0.0
C123 C 0.83324 0.6443 0.27399 0.0
C124 C 0.81254 0.63417 0.28425 0.0
C125 C 0.80285 0.64583 0.30261 0.0
C126 C 0.81398 0.66799 0.31043 0.0
C127 C 0.83461 0.67842 0.30037 0.0
C128 C 0.84408 0.66648 0.28212 0.0
C129 C 0.84648 0.7014 0.30941 0.0
C130 C 0.83437 0.72134 0.31591 0.0
C131 C 0.86989 0.70317 0.31244 0.0
C132 C 0.88084 0.7241 0.32227 0.0
C133 C 0.86863 0.74374 0.32932 0.0
C134 C 0.78135 0.63477 0.31402 0.0
C135 C 0.76327 0.62509 0.30102 0.0
C136 C 0.77864 0.63427 0.3381 0.0
C137 C 0.75823 0.62481 0.3489 0.0
C138 C 0.74004 0.61547 0.33591 0.0
C139 C 0.74283 0.61551 0.31186 0.0
C140 C 0.8453 0.74223 0.32578 0.0
H141 H 0.8308 0.60421 0.20495 0.0
H142 H 0.81295 0.6238 0.23666 0.0
H143 H 0.87747 0.63597 0.26859 0.0
H144 H 0.89525 0.61635 0.23705 0.0
H145 H 0.80437 0.61674 0.27846 0.0
H146 H 0.85977 0.67471 0.27396 0.0
H147 H 0.80664 0.67704 0.3246 0.0
H148 H 0.81637 0.72073 0.31352 0.0
H149 H 0.8797 0.68806 0.30779 0.0
H150 H 0.89887 0.72482 0.32447 0.0
H151 H 0.76474 0.62542 0.28243 0.0
H152 H 0.79238 0.64107 0.34867 0.0
H153 H 0.83532 0.75687 0.33121 0.0
H154 H 0.72905 0.60862 0.30137 0.0
H155 H 0.75677 0.62457 0.36748 0.0
C156 C 0.82884 0.83095 0.71367 0.0
C157 C 0.8295 0.85718 0.70947 0.0
C158 C 0.81835 0.81926 0.73365 0.0
C159 C 0.80834 0.83352 0.74994 0.0
C160 C 0.80846 0.85965 0.74545 0.0
C161 C 0.81887 0.87133 0.72542 0.0
C162 C 0.79878 0.8214 0.77204 0.0
C163 C 0.81018 0.80313 0.78401 0.0
C164 C 0.80201 0.79243 0.80551 0.0
C165 C 0.78215 0.80026 0.81503 0.0
C166 C 0.77066 0.81873 0.80346 0.0
C167 C 0.77895 0.82896 0.78185 0.0
C168 C 0.7508 0.82837 0.81456 0.0
C169 C 0.73436 0.81189 0.82674 0.0
C170 C 0.74868 0.85437 0.81384 0.0
C171 C 0.73073 0.86373 0.82531 0.0
C172 C 0.71448 0.84732 0.83779 0.0
C173 C 0.81486 0.77402 0.81843 0.0
C174 C 0.82521 0.7555 0.80693 0.0
C175 C 0.8174 0.77525 0.8423 0.0
C176 C 0.83005 0.75846 0.85435 0.0
C177 C 0.84063 0.74014 0.84281 0.0
C178 C 0.83799 0.73881 0.81896 0.0
C179 C 0.71639 0.82127 0.83825 0.0
H180 H 0.83704 0.81951 0.70186 0.0
H181 H 0.8183 0.79904 0.73647 0.0
H182 H 0.8011 0.87124 0.75772 0.0
H183 H 0.8188 0.89152 0.72256 0.0
H184 H 0.826 0.79802 0.77703 0.0
H185 H 0.76991 0.84285 0.77263 0.0
H186 H 0.77588 0.79236 0.83175 0.0
H187 H 0.73538 0.79173 0.82737 0.0
H188 H 0.76127 0.8676 0.80497 0.0
H189 H 0.72995 0.88392 0.82493 0.0
H190 H 0.82342 0.75388 0.78858 0.0
H191 H 0.80993 0.78948 0.85168 0.0
H192 H 0.70396 0.80813 0.84747 0.0
H193 H 0.84609 0.72511 0.80948 0.0
H194 H 0.83144 0.75979 0.87276 0.0
C195 C 0.6483 0.10443 0.25744 0.0
C196 C 0.63892 0.11996 0.24066 0.0
C197 C 0.65712 0.11439 0.27744 0.0
C198 C 0.65688 0.14016 0.28115 0.0
C199 C 0.64772 0.15573 0.26425 0.0
C200 C 0.63879 0.14576 0.24433 0.0
C201 C 0.6659 0.15077 0.30262 0.0
C202 C 0.68545 0.14245 0.31239 0.0
C203 C 0.69405 0.15249 0.33258 0.0
C204 C 0.68288 0.17106 0.34307 0.0
C205 C 0.66329 0.17958 0.33365 0.0
C206 C 0.65493 0.16931 0.31347 0.0
C207 C 0.65144 0.1991 0.34492 0.0
C208 C 0.64768 0.19771 0.3689 0.0
C209 C 0.64371 0.21923 0.33175 0.0
C210 C 0.63253 0.23759 0.34231 0.0
C211 C 0.62869 0.23614 0.36628 0.0
C212 C 0.71474 0.14358 0.34271 0.0
C213 C 0.71732 0.11771 0.34522 0.0
C214 C 0.732 0.16086 0.35004 0.0
C215 C 0.75146 0.15245 0.35958 0.0
C216 C 0.75397 0.12656 0.36223 0.0
C217 C 0.73667 0.10929 0.35498 0.0
C218 C 0.63636 0.21597 0.37945 0.0
H219 H 0.64895 0.08454 0.2551 0.0
H220 H 0.66382 0.10177 0.29016 0.0
H221 H 0.64752 0.17572 0.26633 0.0
H222 H 0.63146 0.15827 0.23198 0.0
H223 H 0.69436 0.12859 0.30396 0.0
H224 H 0.63948 0.17535 0.30654 0.0
H225 H 0.68944 0.17889 0.35862 0.0
H226 H 0.65326 0.18231 0.37949 0.0
H227 H 0.6465 0.22093 0.31326 0.0
H228 H 0.62668 0.25279 0.33168 0.0
H229 H 0.70424 0.10394 0.33988 0.0
H230 H 0.73055 0.18092 0.34816 0.0
H231 H 0.63385 0.21445 0.39797 0.0
H232 H 0.73821 0.08923 0.35662 0.0
H233 H 0.76443 0.1662 0.36515 0.0
C234 C 0.24825 0.61895 0.17953 0.0
C235 C 0.2461 0.61728 0.1556 0.0
C236 C 0.26904 0.62695 0.18879 0.0
C237 C 0.28808 0.63363 0.17432 0.0
C238 C 0.28603 0.63156 0.15049 0.0
C239 C 0.26536 0.62342 0.14126 0.0
C240 C 0.30996 0.6434 0.18378 0.0
C241 C 0.31879 0.63146 0.20324 0.0
C242 C 0.33995 0.64027 0.21145 0.0
C243 C 0.35206 0.66149 0.20018 0.0
C244 C 0.34333 0.67394 0.18095 0.0
C245 C 0.32226 0.6647 0.17294 0.0
C246 C 0.35613 0.69657 0.16921 0.0
C247 C 0.36803 0.71483 0.18199 0.0
C248 C 0.3563 0.70027 0.14509 0.0
C249 C 0.36775 0.7218 0.13407 0.0
C250 C 0.3795 0.74009 0.14687 0.0
C251 C 0.3497 0.62727 0.23162 0.0
C252 C 0.3365 0.61992 0.25158 0.0
C253 C 0.37253 0.62269 0.23121 0.0
C254 C 0.38207 0.61151 0.25043 0.0
C255 C 0.36906 0.60469 0.27066 0.0
C256 C 0.34608 0.60883 0.27091 0.0
C257 C 0.37965 0.73628 0.17094 0.0
H258 H 0.23377 0.61463 0.19109 0.0
H259 H 0.27007 0.62854 0.20721 0.0
H260 H 0.3005 0.63614 0.13892 0.0
H261 H 0.26455 0.62179 0.12284 0.0
H262 H 0.30954 0.61483 0.21151 0.0
H263 H 0.31512 0.67443 0.15843 0.0
H264 H 0.36837 0.66832 0.20641 0.0
H265 H 0.368 0.71283 0.2006 0.0
H266 H 0.34771 0.6864 0.13464 0.0
H267 H 0.36762 0.72401 0.11548 0.0
H268 H 0.3189 0.62338 0.2525 0.0
H269 H 0.38305 0.6277 0.21594 0.0
H270 H 0.38834 0.75018 0.18128 0.0
H271 H 0.33559 0.6041 0.28624 0.0
H272 H 0.39967 0.60811 0.24938 0.0
C273 C 0.15831 0.2552 0.67286 0.0
C274 C 0.13497 0.25491 0.66972 0.0
C275 C 0.17019 0.27538 0.68289 0.0
C276 C 0.15908 0.29584 0.68993 0.0
C277 C 0.1357 0.29543 0.68707 0.0
C278 C 0.12378 0.27518 0.67709 0.0
C279 C 0.17198 0.31772 0.69978 0.0
C280 C 0.19312 0.32713 0.69021 0.0
C281 C 0.2057 0.34767 0.69937 0.0
C282 C 0.19659 0.35904 0.71825 0.0
C283 C 0.1752 0.35029 0.72769 0.0
C284 C 0.16313 0.32946 0.71849 0.0
C285 C 0.16513 0.36327 0.74676 0.0
C286 C 0.1781 0.37109 0.7654 0.0
C287 C 0.14239 0.36816 0.74626 0.0
C288 C 0.13283 0.38062 0.76395 0.0
C289 C 0.14577 0.38847 0.78259 0.0
C290 C 0.22795 0.35756 0.68866 0.0
C291 C 0.24249 0.34108 0.67961 0.0
C292 C 0.23456 0.38358 0.68672 0.0
C293 C 0.25497 0.39286 0.67573 0.0
C294 C 0.26919 0.37642 0.66606 0.0
C295 C 0.26272 0.35038 0.6683 0.0
C296 C 0.1685 0.3835 0.78316 0.0
H297 H 0.16753 0.24007 0.66714 0.0
H298 H 0.18814 0.27496 0.6851 0.0
H299 H 0.12665 0.31098 0.69213 0.0
H300 H 0.10578 0.27542 0.67515 0.0
H301 H 0.19949 0.31885 0.6751 0.0
H302 H 0.14695 0.32215 0.72616 0.0
H303 H 0.20601 0.37496 0.72544 0.0
H304 H 0.19562 0.36741 0.76635 0.0
H305 H 0.13201 0.36262 0.73203 0.0
H306 H 0.11521 0.38388 0.76313 0.0
H307 H 0.23822 0.32089 0.68112 0.0
H308 H 0.22376 0.39693 0.69323 0.0
H309 H 0.17896 0.38946 0.79721 0.0
H310 H 0.27302 0.33708 0.6609 0.0
H311 H 0.25953 0.41299 0.67479 0.0
Zn312 Zn 0.02806 0.0022 0.52698 0.0
Zn313 Zn 0.97653 0.99229 0.47809 0.0
C314 C 0.0529 0.04553 0.54228 0.0
O315 O 0.06854 0.03613 0.53005 0.0
C316 C 0.94905 0.95139 0.46101 0.0
O317 O 0.93388 0.96108 0.47363 0.0
O318 O 0.05331 0.98139 0.53646 0.0
O319 O 0.99865 0.984 0.53876 0.0
O320 O 0.97337 0.98078 0.51143 0.0
C321 C 0.05313 0.97057 0.55647 0.0
O322 O 0.03577 0.97204 0.57046 0.0
O323 O 0.03315 0.0342 0.54353 0.0
C324 C 0.95299 0.02902 0.45201 0.0
O325 O 0.97079 0.02979 0.43818 0.0
O326 O 0.95223 0.01518 0.47054 0.0
O327 O 0.00664 0.00815 0.46605 0.0
O328 O 0.03217 0.01174 0.49316 0.0
O329 O 0.96922 0.96154 0.46028 0.0
C330 C 0.979 0.97697 0.53214 0.0
C331 C 0.02653 0.01455 0.47233 0.0
Zn332 Zn 0.51849 0.98507 0.99263 0.0
Zn333 Zn 0.4858 0.01564 0.01517 0.0
C334 C 0.48717 0.95776 0.96469 0.0
O335 O 0.49532 0.93894 0.97616 0.0
C336 C 0.51786 0.04304 0.04248 0.0
O337 O 0.51061 0.06188 0.03023 0.0
O338 O 0.54344 0.96639 0.98045 0.0
O339 O 0.53064 0.0217 0.99092 0.0
O340 O 0.49693 0.03353 0.98501 0.0
C341 C 0.55016 0.97239 0.95984 0.0
O342 O 0.54114 0.99066 0.94843 0.0
O343 O 0.49399 0.98017 0.96929 0.0
C344 C 0.45429 0.02872 0.04805 0.0
O345 O 0.46467 0.01215 0.06026 0.0
O346 O 0.46031 0.0337 0.0271 0.0
O347 O 0.47385 0.97897 0.01649 0.0
O348 O 0.50752 0.96739 0.02296 0.0
O349 O 0.51014 0.02067 0.03869 0.0
C350 C 0.51818 0.03743 0.98203 0.0
C351 C 0.48625 0.96336 0.02564 0.0
Zn352 Zn 0.51066 0.47776 0.48897 0.0
Zn353 Zn 0.49689 0.52313 0.5151 0.0
C354 C 0.53795 0.50491 0.45408 0.0
O355 O 0.5228 0.49268 0.44176 0.0
C356 C 0.46737 0.49895 0.54953 0.0
O357 O 0.47963 0.51505 0.56145 0.0
O358 O 0.51657 0.44477 0.47561 0.0
O359 O 0.51402 0.47257 0.52331 0.0
O360 O 0.52588 0.51212 0.52796 0.0
C361 C 0.53632 0.43804 0.47813 0.0
O362 O 0.55081 0.45218 0.48968 0.0
O363 O 0.53617 0.50228 0.47591 0.0
C364 C 0.47426 0.56709 0.52183 0.0
O365 O 0.46236 0.5577 0.50506 0.0
O366 O 0.49095 0.55595 0.52889 0.0
O367 O 0.49331 0.52841 0.48079 0.0
O368 O 0.48173 0.4888 0.47599 0.0
O369 O 0.47171 0.49812 0.52811 0.0
C370 C 0.52565 0.48892 0.53427 0.0
C371 C 0.48163 0.51203 0.46992 0.0
Zn372 Zn 0.98809 0.52193 0.97962 0.0
Zn373 Zn 0.02061 0.48742 0.01936 0.0
C374 C 0.95804 0.49183 0.95403 0.0
O375 O 0.97278 0.5019 0.93825 0.0
C376 C 0.0428 0.5155 0.05365 0.0
O377 O 0.02921 0.49941 0.06651 0.0
O378 O 0.97946 0.55325 0.96285 0.0
O379 O 0.99034 0.53034 0.01298 0.0
O380 O 0.98853 0.49188 0.02873 0.0
C381 C 0.96242 0.56269 0.971 0.0
O382 O 0.95247 0.55231 0.99001 0.0
O383 O 0.96126 0.49663 0.97495 0.0
C384 C 0.05033 0.45301 0.03378 0.0
O385 O 0.06331 0.46926 0.02047 0.0
O386 O 0.02956 0.4562 0.03613 0.0
O387 O 0.02947 0.48362 0.98633 0.0
O388 O 0.01474 0.51094 0.96245 0.0
O389 O 0.04141 0.51535 0.03188 0.0
C390 C 0.98308 0.51426 0.02892 0.0
C391 C 0.02803 0.49406 0.96637 0.0
H392 H 0.13002 0.09777 0.28937 0.0
H393 H 0.11037 0.07701 0.32343 0.0
H394 H 0.15914 0.11442 0.36677 0.0
H395 H 0.17837 0.13627 0.33275 0.0
H396 H 0.12427 0.04524 0.35765 0.0
H397 H 0.09989 0.13366 0.39323 0.0
H398 H 0.11121 0.13268 0.36434 0.0
H399 H 0.12961 0.13249 0.38837 0.0
C400 C 0.13648 0.10179 0.30615 0.0
C401 C 0.15557 0.11898 0.30835 0.0
C402 C 0.12534 0.08973 0.32559 0.0
C403 C 0.13306 0.09452 0.34763 0.0
C404 C 0.15263 0.11087 0.34992 0.0
H405 H 0.06877 0.03726 0.47954 0.0
H406 H 0.09666 0.05585 0.45044 0.0
C407 C 0.16375 0.1231 0.33045 0.0
C408 C 0.12019 0.08265 0.36806 0.0
H409 H 0.08845 0.09576 0.41467 0.0
C410 C 0.11656 0.05627 0.37021 0.0
C411 C 0.11015 0.09714 0.38441 0.0
C412 C 0.1127 0.12556 0.38246 0.0
C413 C 0.10282 0.04399 0.38803 0.0
C414 C 0.09238 0.05849 0.40398 0.0
C415 C 0.09657 0.08479 0.40235 0.0
C416 C 0.07585 0.04677 0.42155 0.0
C417 C 0.0993 0.01561 0.38956 0.0
C418 C 0.05491 0.03584 0.41482 0.0
C419 C 0.03889 0.0254 0.43132 0.0
C420 C 0.04357 0.02565 0.45488 0.0
C421 C 0.06465 0.03665 0.46154 0.0
C422 C 0.0806 0.04728 0.44499 0.0
H423 H 0.11235 0.00715 0.3794 0.0
H424 H 0.09957 0.00818 0.40773 0.0
H425 H 0.08257 0.00951 0.3827 0.0
H426 H 0.05087 0.03562 0.39677 0.0
H427 H 0.02285 0.01711 0.42558 0.0
H428 H 0.35714 0.91835 0.7899 0.0
H429 H 0.37402 0.93423 0.82489 0.0
H430 H 0.42987 0.88984 0.81537 0.0
H431 H 0.41303 0.87354 0.78068 0.0
H432 H 0.38559 0.90647 0.86519 0.0
H433 H 0.46031 0.96141 0.82299 0.0
H434 H 0.43579 0.95057 0.80731 0.0
H435 H 0.4564 0.92932 0.81502 0.0
C436 C 0.37296 0.91184 0.79531 0.0
C437 C 0.38379 0.89476 0.78236 0.0
C438 C 0.38262 0.92105 0.81524 0.0
C439 C 0.40336 0.91352 0.8225 0.0
C440 C 0.41411 0.89633 0.80977 0.0
H441 H 0.46823 0.91224 0.95207 0.0
H442 H 0.44581 0.90355 0.91835 0.0
C443 C 0.40446 0.88708 0.78991 0.0
C444 C 0.41357 0.92304 0.84372 0.0
H445 H 0.46126 0.95403 0.86373 0.0
C446 C 0.40204 0.91709 0.86488 0.0
C447 C 0.43487 0.9372 0.84324 0.0
C448 C 0.44751 0.94524 0.82091 0.0
C449 C 0.41167 0.92405 0.88568 0.0
C450 C 0.43348 0.93705 0.88527 0.0
C451 C 0.44461 0.94389 0.86403 0.0
C452 C 0.44558 0.94266 0.90666 0.0
C453 C 0.39846 0.91733 0.90791 0.0
C454 C 0.45307 0.96756 0.91122 0.0
C455 C 0.46598 0.97262 0.93051 0.0
C456 C 0.47185 0.95281 0.94543 0.0
C457 C 0.46398 0.92794 0.94098 0.0
C458 C 0.45103 0.92293 0.92177 0.0
H459 H 0.38008 0.91419 0.90497 0.0
H460 H 0.40393 0.89966 0.91589 0.0
H461 H 0.40142 0.93235 0.92025 0.0
H462 H 0.44916 0.98305 0.89968 0.0
H463 H 0.47183 0.99197 0.9334 0.0
H464 H 0.60918 0.43357 0.73251 0.0
H465 H 0.59138 0.45173 0.69882 0.0
H466 H 0.62425 0.40273 0.65533 0.0
H467 H 0.64254 0.38486 0.68882 0.0
H468 H 0.62555 0.45356 0.63726 0.0
H469 H 0.53908 0.41407 0.66531 0.0
H470 H 0.55427 0.43232 0.68597 0.0
H471 H 0.56404 0.40316 0.67792 0.0
C472 C 0.61285 0.42686 0.71575 0.0
C473 C 0.6272 0.40763 0.7134 0.0
C474 C 0.60248 0.4371 0.69654 0.0
C475 C 0.60623 0.42832 0.67463 0.0
C476 C 0.62101 0.40966 0.67211 0.0
H477 H 0.52815 0.44097 0.55225 0.0
H478 H 0.54831 0.4275 0.58611 0.0
C479 C 0.63133 0.39935 0.6913 0.0
C480 C 0.59449 0.43824 0.65434 0.0
H481 H 0.54239 0.441 0.6316 0.0
C482 C 0.60737 0.4509 0.63602 0.0
C483 C 0.57078 0.43447 0.65267 0.0
C484 C 0.55618 0.42009 0.67139 0.0
C485 C 0.59715 0.46 0.6161 0.0
C486 C 0.57342 0.45655 0.61459 0.0
C487 C 0.56057 0.44381 0.63288 0.0
C488 C 0.56161 0.46509 0.59381 0.0
C489 C 0.61186 0.47268 0.59661 0.0
C490 C 0.56226 0.49076 0.58694 0.0
C491 C 0.55071 0.49858 0.56753 0.0
C492 C 0.53822 0.48085 0.55468 0.0
C493 C 0.5376 0.45516 0.56169 0.0
C494 C 0.5491 0.4474 0.58108 0.0
H495 H 0.62977 0.46889 0.59833 0.0
H496 H 0.6059 0.46628 0.57978 0.0
H497 H 0.61103 0.49334 0.59658 0.0
H498 H 0.5715 0.50478 0.59675 0.0
H499 H 0.55147 0.51851 0.5627 0.0
H500 H 0.90468 0.62548 0.19666 0.0
H501 H 0.92324 0.607 0.16475 0.0
H502 H 0.86812 0.54877 0.1636 0.0
H503 H 0.84947 0.567 0.19576 0.0
H504 H 0.93673 0.55784 0.16295 0.0
H505 H 0.87445 0.57798 0.09636 0.0
H506 H 0.87553 0.59311 0.12335 0.0
H507 H 0.86302 0.56129 0.12228 0.0
C508 C 0.89655 0.60863 0.18976 0.0
C509 C 0.87558 0.5977 0.19879 0.0
C510 C 0.90714 0.59817 0.17145 0.0
C511 C 0.89695 0.57668 0.16169 0.0
C512 C 0.87607 0.56563 0.17065 0.0
H513 H 0.96684 0.48584 0.06745 0.0
H514 H 0.94524 0.49956 0.09996 0.0
C515 C 0.86544 0.57608 0.189 0.0
C516 C 0.90845 0.56577 0.14233 0.0
H517 H 0.90432 0.55471 0.08531 0.0
C518 C 0.92963 0.55703 0.14599 0.0
C519 C 0.89919 0.565 0.12021 0.0
C520 C 0.87688 0.57501 0.11514 0.0
C521 C 0.94187 0.54761 0.12805 0.0
C522 C 0.93253 0.54665 0.10597 0.0
C523 C 0.91132 0.5553 0.10233 0.0
C524 C 0.94504 0.53795 0.08613 0.0
C525 C 0.96498 0.53947 0.13267 0.0
C526 C 0.95165 0.55487 0.06742 0.0
C527 C 0.96393 0.54712 0.04884 0.0
C528 C 0.96971 0.5222 0.04852 0.0
C529 C 0.96275 0.50517 0.06717 0.0
C530 C 0.95049 0.51299 0.08581 0.0
H531 H 0.9716 0.54625 0.14914 0.0
H532 H 0.96405 0.51859 0.1337 0.0
H533 H 0.9771 0.54654 0.1185 0.0
H534 H 0.94757 0.57421 0.06735 0.0
H535 H 0.969 0.56074 0.03479 0.0
H536 H 0.32418 0.15425 0.16658 0.0
H537 H 0.35384 0.13449 0.14668 0.0
H538 H 0.30435 0.09803 0.10353 0.0
H539 H 0.27449 0.11677 0.12396 0.0
H540 H 0.33318 0.0658 0.12083 0.0
H541 H 0.38098 0.15279 0.08262 0.0
H542 H 0.37695 0.15277 0.11326 0.0
H543 H 0.35296 0.15254 0.09507 0.0
C544 C 0.31958 0.14192 0.15293 0.0
C545 C 0.29695 0.13718 0.14681 0.0
C546 C 0.3366 0.13092 0.14138 0.0
C547 C 0.33133 0.11517 0.12336 0.0
C548 C 0.30878 0.11032 0.11726 0.0
H549 H 0.42741 0.06154 0.02722 0.0
H550 H 0.39706 0.08218 0.04511 0.0
C551 C 0.29176 0.12121 0.12885 0.0
C552 C 0.34917 0.1029 0.11143 0.0
H553 H 0.39863 0.11477 0.08037 0.0
C554 C 0.34744 0.0765 0.11188 0.0
C555 C 0.36758 0.11692 0.09951 0.0
C556 C 0.36968 0.14532 0.09735 0.0
C557 C 0.36385 0.06369 0.10109 0.0
C558 C 0.38272 0.07769 0.08997 0.0
C559 C 0.38424 0.1041 0.08912 0.0
C560 C 0.40111 0.06525 0.0792 0.0
C561 C 0.36064 0.03531 0.10143 0.0
C562 C 0.4136 0.04918 0.09252 0.0
C563 C 0.43083 0.03727 0.08235 0.0
C564 C 0.43605 0.04143 0.0587 0.0
C565 C 0.42375 0.05789 0.04546 0.0
C566 C 0.40644 0.06971 0.05565 0.0
H567 H 0.34271 0.02806 0.10473 0.0
H568 H 0.36644 0.02835 0.0849 0.0
H569 H 0.37066 0.02739 0.11542 0.0
H570 H 0.4101 0.04594 0.11083 0.0
H571 H 0.44011 0.0249 0.09308 0.0
H572 H 0.20945 0.86169 0.66149 0.0
H573 H 0.17513 0.87682 0.64583 0.0
H574 H 0.21435 0.91855 0.5909 0.0
H575 H 0.24884 0.90414 0.60671 0.0
H576 H 0.16671 0.92978 0.63724 0.0
H577 H 0.16318 0.87545 0.55841 0.0
H578 H 0.17922 0.86676 0.58306 0.0
H579 H 0.18979 0.89267 0.56368 0.0
C580 C 0.21085 0.87425 0.64618 0.0
C581 C 0.23198 0.88164 0.63536 0.0
C582 C 0.19119 0.88272 0.63718 0.0
C583 C 0.1922 0.89852 0.61707 0.0
C584 C 0.21318 0.90598 0.60621 0.0
H585 H 0.09475 0.97175 0.53534 0.0
H586 H 0.12815 0.95382 0.55031 0.0
C587 C 0.23287 0.89765 0.61526 0.0
C588 C 0.17141 0.90792 0.60787 0.0
H589 H 0.13691 0.90567 0.56185 0.0
C590 C 0.16008 0.92443 0.62082 0.0
C591 C 0.16297 0.90101 0.58638 0.0
C592 C 0.17426 0.88286 0.57207 0.0
C593 C 0.14073 0.93467 0.61265 0.0
C594 C 0.13212 0.92761 0.59121 0.0
C595 C 0.14347 0.91102 0.57829 0.0
C596 C 0.11154 0.93751 0.58179 0.0
C597 C 0.13012 0.95352 0.62677 0.0
C598 C 0.09095 0.93376 0.59424 0.0
C599 C 0.07188 0.94415 0.58582 0.0
C600 C 0.07293 0.95817 0.56461 0.0
C601 C 0.09336 0.96107 0.55175 0.0
C602 C 0.11248 0.95085 0.56029 0.0
H603 H 0.14217 0.96217 0.63903 0.0
H604 H 0.12394 0.96877 0.61559 0.0
H605 H 0.11557 0.94383 0.63695 0.0
H606 H 0.08964 0.92295 0.61057 0.0
H607 H 0.05635 0.94133 0.59604 0.0
H608 H 0.7807 0.43061 0.84591 0.0
H609 H 0.8148 0.44608 0.86537 0.0
H610 H 0.80581 0.38204 0.91413 0.0
H611 H 0.77158 0.36655 0.89497 0.0
H612 H 0.82053 0.45826 0.91176 0.0
H613 H 0.87064 0.38024 0.88868 0.0
H614 H 0.84484 0.3863 0.87468 0.0
H615 H 0.84387 0.37062 0.90282 0.0
C616 C 0.78585 0.4199 0.86089 0.0
C617 C 0.77344 0.39722 0.86876 0.0
C618 C 0.8054 0.42873 0.87194 0.0
C619 C 0.81302 0.41503 0.891 0.0
C620 C 0.8005 0.39265 0.89917 0.0
H621 H 0.91987 0.47588 0.98026 0.0
H622 H 0.8842 0.45566 0.96688 0.0
C623 C 0.78095 0.3838 0.88815 0.0
C624 C 0.83407 0.42423 0.90227 0.0
H625 H 0.88765 0.41 0.91308 0.0
C626 C 0.83518 0.44768 0.91216 0.0
C627 C 0.85321 0.41045 0.90261 0.0
C628 C 0.85327 0.3856 0.89148 0.0
C629 C 0.85497 0.4578 0.92227 0.0
C630 C 0.87406 0.44395 0.92272 0.0
C631 C 0.8729 0.42043 0.91294 0.0
C632 C 0.89593 0.45446 0.93155 0.0
C633 C 0.85554 0.4836 0.9317 0.0
C634 C 0.91454 0.45968 0.91633 0.0
C635 C 0.93487 0.47109 0.9239 0.0
C636 C 0.9371 0.47741 0.94693 0.0
C637 C 0.9187 0.47129 0.96241 0.0
C638 C 0.89826 0.45991 0.95477 0.0
H639 H 0.84099 0.49373 0.92608 0.0
H640 H 0.85497 0.48167 0.95078 0.0
H641 H 0.87136 0.49521 0.92616 0.0
H642 H 0.91315 0.45553 0.89838 0.0
H643 H 0.94872 0.47541 0.91153 0.0
H644 H 0.7131 0.57277 0.32751 0.0
H645 H 0.6777 0.55637 0.34748 0.0
H646 H 0.68275 0.61948 0.3908 0.0
H647 H 0.7179 0.63624 0.37067 0.0
H648 H 0.67201 0.54368 0.39587 0.0
H649 H 0.61791 0.61751 0.36596 0.0
H650 H 0.6442 0.61279 0.35157 0.0
H651 H 0.64426 0.62889 0.37785 0.0
C652 C 0.70651 0.58332 0.34107 0.0
C653 C 0.71828 0.6058 0.34751 0.0
C654 C 0.68638 0.57387 0.35253 0.0
C655 C 0.67755 0.58686 0.37044 0.0
C656 C 0.68915 0.60936 0.37682 0.0
H657 H 0.57596 0.52599 0.47389 0.0
H658 H 0.60983 0.5472 0.45414 0.0
C659 C 0.70933 0.61877 0.36545 0.0
C660 C 0.65664 0.57634 0.38304 0.0
H661 H 0.60221 0.58746 0.39478 0.0
C662 C 0.65674 0.55323 0.39566 0.0
C663 C 0.63676 0.58882 0.38256 0.0
C664 C 0.63558 0.61328 0.36863 0.0
C665 C 0.63747 0.54229 0.40798 0.0
C666 C 0.61769 0.55496 0.40782 0.0
C667 C 0.61752 0.57798 0.39505 0.0
C668 C 0.59672 0.54393 0.41998 0.0
C669 C 0.63824 0.51704 0.42073 0.0
C670 C 0.57796 0.53581 0.40731 0.0
C671 C 0.55864 0.52371 0.41849 0.0
C672 C 0.55767 0.51969 0.44259 0.0
C673 C 0.5762 0.52874 0.45531 0.0
C674 C 0.59559 0.54075 0.44407 0.0
H675 H 0.65322 0.5076 0.41551 0.0
H676 H 0.63897 0.5197 0.43947 0.0
H677 H 0.62282 0.50443 0.41768 0.0
H678 H 0.57851 0.53821 0.3887 0.0
H679 H 0.54461 0.51711 0.4082 0.0
H680 H 0.12367 0.25613 0.13468 0.0
H681 H 0.10361 0.28727 0.11327 0.0
H682 H 0.14794 0.34711 0.13919 0.0
H683 H 0.16767 0.31609 0.16133 0.0
H684 H 0.10209 0.35555 0.14121 0.0
H685 H 0.12833 0.32787 0.05478 0.0
H686 H 0.11503 0.30248 0.07326 0.0
H687 H 0.14174 0.31791 0.08076 0.0
C688 C 0.12902 0.27593 0.13603 0.0
C689 C 0.1473 0.28365 0.14968 0.0
C690 C 0.11769 0.29366 0.12358 0.0
C691 C 0.12452 0.31942 0.1244 0.0
C692 C 0.14253 0.32726 0.13824 0.0
H693 H 0.09413 0.44251 0.0328 0.0
H694 H 0.11103 0.40965 0.05524 0.0
C695 C 0.15387 0.30953 0.15073 0.0
C696 C 0.11287 0.33823 0.11085 0.0
H697 H 0.10142 0.3577 0.05593 0.0
C698 C 0.10191 0.35606 0.12256 0.0
C699 C 0.11289 0.33891 0.08653 0.0
C700 C 0.12529 0.32093 0.07302 0.0
C701 C 0.09085 0.37458 0.11057 0.0
C702 C 0.09051 0.37494 0.08628 0.0
C703 C 0.10153 0.35716 0.07458 0.0
C704 C 0.07983 0.39445 0.07257 0.0
C705 C 0.08016 0.39396 0.12395 0.0
C706 C 0.05659 0.39654 0.07465 0.0
C707 C 0.04684 0.41539 0.06185 0.0
C708 C 0.06018 0.43233 0.04669 0.0
C709 C 0.08337 0.42981 0.04435 0.0
C710 C 0.09307 0.41103 0.05715 0.0
H711 H 0.08629 0.39452 0.14181 0.0
H712 H 0.08365 0.41302 0.1153 0.0
H713 H 0.06163 0.38923 0.1249 0.0
H714 H 0.04602 0.3836 0.08616 0.0
H715 H 0.02891 0.41679 0.06396 0.0
H716 H 0.63009 0.20953 0.85134 0.0
H717 H 0.61084 0.17221 0.87208 0.0
H718 H 0.57089 0.21953 0.9105 0.0
H719 H 0.59037 0.25699 0.89017 0.0
H720 H 0.59102 0.1825 0.93779 0.0
H721 H 0.54531 0.14136 0.86457 0.0
H722 H 0.57505 0.14903 0.85942 0.0
H723 H 0.55724 0.17376 0.86374 0.0
C724 C 0.61723 0.212 0.86423 0.0
C725 C 0.61174 0.23624 0.86908 0.0
C726 C 0.6061 0.19065 0.87589 0.0
C727 C 0.58925 0.19311 0.89261 0.0
C728 C 0.58373 0.21723 0.89753 0.0
H729 H 0.4965 0.074 0.95932 0.0
H730 H 0.51352 0.11207 0.93793 0.0
C731 C 0.59478 0.2386 0.8858 0.0
C732 C 0.57796 0.17056 0.90557 0.0
H733 H 0.54476 0.11579 0.89932 0.0
C734 C 0.58084 0.16794 0.92941 0.0
C735 C 0.56451 0.15175 0.89461 0.0
C736 C 0.56012 0.15411 0.86921 0.0
C737 C 0.57098 0.14675 0.94253 0.0
C738 C 0.55809 0.12758 0.93147 0.0
C739 C 0.55482 0.13043 0.90771 0.0
C740 C 0.54787 0.10442 0.9443 0.0
C741 C 0.57425 0.14512 0.96817 0.0
C742 C 0.56158 0.08737 0.95471 0.0
C743 C 0.55193 0.06558 0.9669 0.0
C744 C 0.52837 0.06041 0.96888 0.0
C745 C 0.51469 0.07744 0.95821 0.0
C746 C 0.52437 0.09919 0.94595 0.0
H747 H 0.57998 0.16375 0.97469 0.0
H748 H 0.55837 0.13762 0.9775 0.0
H749 H 0.58724 0.1321 0.97221 0.0
H750 H 0.57976 0.09087 0.95333 0.0
H751 H 0.56297 0.05282 0.9748 0.0
H752 H 0.86145 0.79366 0.32408 0.0
H753 H 0.87802 0.82831 0.3458 0.0
H754 H 0.9183 0.77738 0.38264 0.0
H755 H 0.90111 0.74241 0.36172 0.0
H756 H 0.89676 0.80614 0.41126 0.0
H757 H 0.94012 0.86656 0.34025 0.0
H758 H 0.9108 0.85857 0.33523 0.0
H759 H 0.92965 0.83418 0.33689 0.0
C760 C 0.87384 0.78981 0.3368 0.0
C761 C 0.87994 0.76523 0.34115 0.0
C762 C 0.88351 0.80972 0.34899 0.0
C763 C 0.89965 0.8055 0.36558 0.0
C764 C 0.906 0.78108 0.36977 0.0
H765 H 0.97639 0.92579 0.43422 0.0
H766 H 0.96538 0.88948 0.41169 0.0
C767 C 0.89629 0.76115 0.35765 0.0
C768 C 0.90881 0.82621 0.37961 0.0
H769 H 0.93568 0.88567 0.37609 0.0
C770 C 0.90545 0.82345 0.40359 0.0
C771 C 0.92039 0.84863 0.3696 0.0
C772 C 0.92568 0.85212 0.3441 0.0
C773 C 0.91278 0.84279 0.41779 0.0
C774 C 0.92335 0.86569 0.40767 0.0
C775 C 0.92733 0.86819 0.38377 0.0
C776 C 0.93003 0.88743 0.42157 0.0
C777 C 0.90927 0.83844 0.4435 0.0
C778 C 0.91376 0.89845 0.43438 0.0
C779 C 0.91999 0.9191 0.44733 0.0
C780 C 0.94259 0.92929 0.44753 0.0
C781 C 0.95884 0.91835 0.43449 0.0
C782 C 0.95259 0.89763 0.42158 0.0
H783 H 0.90714 0.81803 0.44877 0.0
H784 H 0.92364 0.84749 0.4528 0.0
H785 H 0.89374 0.84672 0.4489 0.0
H786 H 0.89618 0.89122 0.4342 0.0
H787 H 0.90702 0.92718 0.45703 0.0
H788 H 0.3751 0.71359 0.65102 0.0
H789 H 0.39349 0.68072 0.63231 0.0
H790 H 0.42612 0.73659 0.58313 0.0
H791 H 0.40819 0.76957 0.60214 0.0
H792 H 0.38962 0.66541 0.59014 0.0
H793 H 0.47883 0.69976 0.60223 0.0
H794 H 0.45587 0.71241 0.61698 0.0
H795 H 0.46362 0.72305 0.58775 0.0
C796 C 0.38627 0.71884 0.63627 0.0
C797 C 0.39029 0.74415 0.6281 0.0
C798 C 0.39682 0.70007 0.62562 0.0
C799 C 0.41153 0.7062 0.60654 0.0
C800 C 0.4154 0.73145 0.59823 0.0
H801 H 0.44447 0.59962 0.50672 0.0
H802 H 0.4301 0.63371 0.52725 0.0
C803 C 0.40505 0.75028 0.60903 0.0
C804 C 0.4219 0.68598 0.5947 0.0
H805 H 0.47206 0.6677 0.57545 0.0
C806 C 0.40766 0.66586 0.58707 0.0
C807 C 0.44548 0.68631 0.59099 0.0
C808 C 0.46185 0.7064 0.60013 0.0
C809 C 0.41627 0.64634 0.57547 0.0
C810 C 0.43974 0.64733 0.57072 0.0
C811 C 0.45405 0.66715 0.57878 0.0
C812 C 0.44972 0.62783 0.55758 0.0
C813 C 0.40011 0.62461 0.56884 0.0
C814 C 0.46641 0.614 0.56728 0.0
C815 C 0.47498 0.59475 0.55537 0.0
C816 C 0.46694 0.58895 0.53358 0.0
C817 C 0.45081 0.60342 0.52359 0.0
C818 C 0.44246 0.6228 0.53538 0.0
H819 H 0.38438 0.62285 0.57964 0.0
H820 H 0.39539 0.62786 0.55067 0.0
H821 H 0.40787 0.60653 0.57052 0.0
H822 H 0.4724 0.61767 0.58431 0.0
H823 H 0.48739 0.58394 0.56354 0.0
H824 H 0.85666 0.90145 0.70756 0.0
H825 H 0.87899 0.92129 0.67471 0.0
H826 H 0.85423 0.86119 0.63274 0.0
H827 H 0.83138 0.84135 0.66546 0.0
H828 H 0.90209 0.87211 0.63188 0.0
H829 H 0.85792 0.958 0.61564 0.0
H830 H 0.86517 0.9522 0.64511 0.0
H831 H 0.84515 0.93044 0.63206 0.0
C832 C 0.85554 0.89269 0.69124 0.0
C833 C 0.84214 0.86985 0.68913 0.0
C834 C 0.86836 0.90405 0.67249 0.0
C835 C 0.86802 0.89284 0.65128 0.0
C836 C 0.85461 0.87015 0.649 0.0
H837 H 0.93445 0.9625 0.52542 0.0
H838 H 0.90691 0.94084 0.55327 0.0
C839 C 0.84169 0.8588 0.66773 0.0
C840 C 0.88271 0.90414 0.63194 0.0
H841 H 0.89415 0.95775 0.59744 0.0
C842 C 0.90025 0.89073 0.62417 0.0
C843 C 0.88009 0.92832 0.62184 0.0
C844 C 0.86095 0.94304 0.6289 0.0
C845 C 0.91578 0.90127 0.60705 0.0
C846 C 0.91375 0.92589 0.59769 0.0
C847 C 0.89574 0.93895 0.60486 0.0
C848 C 0.93049 0.93865 0.58081 0.0
C849 C 0.93428 0.88604 0.59917 0.0
C850 C 0.95277 0.94478 0.58724 0.0
C851 C 0.96855 0.95723 0.57145 0.0
C852 C 0.96229 0.96379 0.54892 0.0
C853 C 0.93987 0.95766 0.54259 0.0
C854 C 0.92409 0.94531 0.55846 0.0
H855 H 0.93032 0.86564 0.60383 0.0
H856 H 0.93717 0.88868 0.58024 0.0
H857 H 0.95017 0.89249 0.60753 0.0
H858 H 0.95791 0.94012 0.60456 0.0
H859 H 0.98562 0.9617 0.57693 0.0
H860 H 0.61406 0.07448 0.23692 0.0
H861 H 0.59686 0.05768 0.20258 0.0
H862 H 0.62263 0.12507 0.16272 0.0
H863 H 0.6409 0.14142 0.19662 0.0
H864 H 0.56469 0.07624 0.17752 0.0
H865 H 0.64009 0.07216 0.1212 0.0
H866 H 0.642 0.07684 0.15158 0.0
H867 H 0.63837 0.10294 0.13154 0.0
C868 C 0.61654 0.08551 0.22075 0.0
C869 C 0.62897 0.10932 0.2196 0.0
C870 C 0.60653 0.07594 0.20115 0.0
C871 C 0.60873 0.08991 0.17995 0.0
C872 C 0.62113 0.11364 0.17872 0.0
H873 H 0.54132 0.08764 0.05141 0.0
H874 H 0.56438 0.0969 0.08469 0.0
C875 C 0.63128 0.12316 0.19826 0.0
C876 C 0.59689 0.0804 0.1595 0.0
H877 H 0.60442 0.06938 0.10267 0.0
C878 C 0.57344 0.07441 0.16126 0.0
C879 C 0.60831 0.07796 0.13825 0.0
C880 C 0.63361 0.08257 0.13556 0.0
C881 C 0.56103 0.06689 0.14219 0.0
C882 C 0.57237 0.06525 0.12084 0.0
C883 C 0.59582 0.07076 0.1191 0.0
C884 C 0.55987 0.0589 0.09994 0.0
C885 C 0.53578 0.06148 0.14474 0.0
C886 C 0.55012 0.03432 0.09732 0.0
C887 C 0.53702 0.0289 0.07824 0.0
C888 C 0.53335 0.04805 0.06157 0.0
C889 C 0.54371 0.0725 0.06399 0.0
C890 C 0.55693 0.07783 0.08295 0.0
H891 H 0.52925 0.06654 0.16173 0.0
H892 H 0.52739 0.07203 0.13097 0.0
H893 H 0.53107 0.0411 0.14291 0.0
H894 H 0.55233 0.01945 0.11024 0.0
H895 H 0.52928 0.00989 0.07688 0.0
H896 H 0.35109 0.56684 0.30152 0.0
H897 H 0.36861 0.54943 0.33574 0.0
H898 H 0.42846 0.60003 0.32097 0.0
H899 H 0.411 0.61792 0.28709 0.0
H900 H 0.43628 0.54826 0.33133 0.0
H901 H 0.38056 0.58558 0.39656 0.0
H902 H 0.36662 0.56841 0.37436 0.0
H903 H 0.38282 0.59791 0.36701 0.0
C904 C 0.36788 0.57449 0.30568 0.0
C905 C 0.3796 0.59382 0.29147 0.0
C906 C 0.37788 0.56446 0.32522 0.0
C907 C 0.39977 0.57357 0.33098 0.0
C908 C 0.41157 0.5927 0.31681 0.0
H909 H 0.47483 0.56004 0.45497 0.0
H910 H 0.45433 0.57351 0.42131 0.0
C911 C 0.40158 0.6028 0.29735 0.0
C912 C 0.41057 0.56313 0.35164 0.0
H913 H 0.4077 0.55946 0.41043 0.0
C914 C 0.42999 0.55058 0.34863 0.0
C915 C 0.40242 0.56641 0.37417 0.0
C916 C 0.38206 0.58046 0.37838 0.0
C917 C 0.44149 0.54122 0.36757 0.0
C918 C 0.43326 0.54437 0.39009 0.0
C919 C 0.41385 0.55691 0.39312 0.0
C920 C 0.44521 0.53581 0.41075 0.0
C921 C 0.46269 0.52862 0.36339 0.0
C922 C 0.44665 0.51009 0.41612 0.0
C923 C 0.45831 0.50227 0.43545 0.0
C924 C 0.46877 0.52007 0.44971 0.0
C925 C 0.46705 0.54581 0.44435 0.0
C926 C 0.4553 0.55358 0.42514 0.0
H927 H 0.46907 0.53184 0.34529 0.0
H928 H 0.47614 0.53561 0.37498 0.0
H929 H 0.45915 0.50802 0.36715 0.0
H930 H 0.43875 0.49607 0.40537 0.0
H931 H 0.45927 0.48231 0.43908 0.0
H932 H 0.1172 0.42553 0.77864 0.0
H933 H 0.09894 0.44595 0.80963 0.0
H934 H 0.13254 0.40162 0.85992 0.0
H935 H 0.15084 0.38105 0.82903 0.0
H936 H 0.07017 0.42277 0.84403 0.0
H937 H 0.14526 0.47294 0.88146 0.0
H938 H 0.14604 0.46008 0.85345 0.0
H939 H 0.14716 0.43985 0.87903 0.0
C940 C 0.12071 0.42012 0.7963 0.0
C941 C 0.13547 0.40166 0.80138 0.0
C942 C 0.11035 0.4319 0.81397 0.0
C943 C 0.11462 0.42555 0.83705 0.0
C944 C 0.12942 0.40723 0.84221 0.0
H945 H 0.05986 0.46038 0.96866 0.0
H946 H 0.08094 0.4449 0.93681 0.0
C947 C 0.13984 0.39547 0.82454 0.0
C948 C 0.10264 0.43714 0.8557 0.0
H949 H 0.11071 0.47166 0.903 0.0
C950 C 0.07901 0.43364 0.85682 0.0
C951 C 0.11425 0.45124 0.87238 0.0
C952 C 0.13957 0.45649 0.87147 0.0
C953 C 0.06666 0.44337 0.87449 0.0
C954 C 0.07826 0.45733 0.89125 0.0
C955 C 0.10189 0.46097 0.89008 0.0
C956 C 0.06615 0.46773 0.91047 0.0
C957 C 0.04133 0.43805 0.87545 0.0
C958 C 0.05117 0.48608 0.90623 0.0
C959 C 0.03904 0.495 0.9244 0.0
C960 C 0.04176 0.48577 0.94717 0.0
C961 C 0.05725 0.46784 0.95136 0.0
C962 C 0.06937 0.45899 0.93318 0.0
H963 H 0.03551 0.42243 0.86453 0.0
H964 H 0.03507 0.43315 0.89339 0.0
H965 H 0.03363 0.45516 0.86914 0.0
H966 H 0.04873 0.49336 0.88883 0.0
H967 H 0.02733 0.50886 0.92054 0.0
H968 H 0.68917 0.88512 0.82377 0.0
H969 H 0.66052 0.9038 0.8462 0.0
H970 H 0.66899 0.85096 0.90329 0.0
H971 H 0.69814 0.83261 0.88122 0.0
H972 H 0.6196 0.88084 0.86694 0.0
H973 H 0.67864 0.92025 0.93137 0.0
H974 H 0.68826 0.90938 0.90438 0.0
H975 H 0.67884 0.88711 0.92761 0.0
C976 C 0.68502 0.87756 0.84115 0.0
C977 C 0.69604 0.85752 0.85079 0.0
C978 C 0.66858 0.88815 0.85387 0.0
C979 C 0.66292 0.87898 0.87648 0.0
C980 C 0.6734 0.85854 0.88598 0.0
H981 H 0.57115 0.93256 0.97783 0.0
H982 H 0.59791 0.90842 0.95806 0.0
C983 C 0.68986 0.84792 0.87326 0.0
C984 C 0.64615 0.89104 0.8901 0.0
H985 H 0.64013 0.92575 0.93698 0.0
C986 C 0.62405 0.89061 0.88228 0.0
C987 C 0.65205 0.90368 0.91013 0.0
C988 C 0.67576 0.90539 0.91885 0.0
C989 C 0.60763 0.90259 0.89397 0.0
C990 C 0.61365 0.91568 0.91372 0.0
C991 C 0.63563 0.91568 0.92181 0.0
C992 C 0.59758 0.9303 0.92572 0.0
C993 C 0.58396 0.90101 0.88516 0.0
C994 C 0.58894 0.95086 0.91417 0.0
C995 C 0.57372 0.96467 0.92537 0.0
C996 C 0.56696 0.95827 0.94839 0.0
C997 C 0.57599 0.93794 0.96007 0.0
C998 C 0.59125 0.92412 0.94883 0.0
H999 H 0.58062 0.88487 0.87407 0.0
H1000 H 0.57132 0.89909 0.8996 0.0
H1001 H 0.58163 0.91852 0.8747 0.0
H1002 H 0.59402 0.95625 0.89647 0.0
H1003 H 0.56718 0.9803 0.91591 0.0
H1004 H 0.79789 0.14456 0.35278 0.0
H1005 H 0.83181 0.12904 0.3691 0.0
H1006 H 0.79048 0.07332 0.41163 0.0
H1007 H 0.75656 0.08844 0.39505 0.0
H1008 H 0.84652 0.12626 0.41262 0.0
H1009 H 0.83278 0.03007 0.38122 0.0
H1010 H 0.81662 0.05523 0.37132 0.0
H1011 H 0.80952 0.0382 0.39844 0.0
C1012 C 0.79605 0.12903 0.36564 0.0
C1013 C 0.77457 0.11757 0.37249 0.0
C1014 C 0.81544 0.12015 0.37493 0.0
C1015 C 0.81373 0.09968 0.39126 0.0
C1016 C 0.79227 0.08865 0.39856 0.0
H1017 H 0.91047 0.02303 0.47145 0.0
H1018 H 0.87695 0.04161 0.45753 0.0
C1019 C 0.77289 0.09735 0.38912 0.0
C1020 C 0.83439 0.09005 0.4008 0.0
H1021 H 0.8619 0.037 0.40807 0.0
C1022 C 0.84993 0.10678 0.41152 0.0
C1023 C 0.83891 0.06463 0.39927 0.0
C1024 C 0.8237 0.04605 0.38674 0.0
C1025 C 0.86962 0.09865 0.42105 0.0
C1026 C 0.87387 0.0732 0.41982 0.0
C1027 C 0.85843 0.05648 0.40912 0.0
C1028 C 0.89448 0.06355 0.42917 0.0
C1029 C 0.88568 0.11717 0.43265 0.0
C1030 C 0.91542 0.06987 0.41785 0.0
C1031 C 0.93459 0.05916 0.42564 0.0
C1032 C 0.93315 0.04202 0.44495 0.0
C1033 C 0.9122 0.03625 0.45659 0.0
C1034 C 0.89301 0.04679 0.44866 0.0
H1035 H 0.87834 0.1352 0.43524 0.0
H1036 H 0.89044 0.10899 0.44959 0.0
H1037 H 0.90131 0.12126 0.42186 0.0
H1038 H 0.91681 0.0826 0.40265 0.0
H1039 H 0.95044 0.06398 0.41628 0.0
H1040 H 0.21321 0.58101 0.17267 0.0
H1041 H 0.17736 0.56748 0.15529 0.0
H1042 H 0.19308 0.62142 0.09814 0.0
H1043 H 0.22858 0.63567 0.11561 0.0
H1044 H 0.1409 0.60099 0.13886 0.0
H1045 H 0.18063 0.54876 0.07106 0.0
H1046 H 0.19441 0.55576 0.0976 0.0
H1047 H 0.19278 0.58021 0.07551 0.0
C1048 C 0.20895 0.59028 0.15657 0.0
C1049 C 0.22395 0.60934 0.14549 0.0
C1050 C 0.1885 0.58242 0.14662 0.0
C1051 C 0.18273 0.5933 0.12536 0.0
C1052 C 0.19738 0.61259 0.11444 0.0
H1053 H 0.0747 0.5501 0.03246 0.0
H1054 H 0.10758 0.57175 0.04989 0.0
C1055 C 0.21775 0.62058 0.12441 0.0
C1056 C 0.16156 0.5842 0.11436 0.0
H1057 H 0.14136 0.55014 0.07008 0.0
C1058 C 0.14093 0.58988 0.12381 0.0
C1059 C 0.16175 0.56995 0.09463 0.0
C1060 C 0.18352 0.5631 0.08407 0.0
C1061 C 0.12039 0.58172 0.11396 0.0
C1062 C 0.12051 0.56691 0.09451 0.0
C1063 C 0.14123 0.56153 0.08494 0.0
C1064 C 0.09941 0.5558 0.08437 0.0
C1065 C 0.09883 0.58943 0.12429 0.0
C1066 C 0.08376 0.53979 0.09794 0.0
C1067 C 0.06488 0.52759 0.08808 0.0
C1068 C 0.06139 0.53082 0.06433 0.0
C1069 C 0.07684 0.54724 0.05081 0.0
C1070 C 0.09568 0.55958 0.06074 0.0
H1071 H 0.10192 0.60701 0.13355 0.0
H1072 H 0.08622 0.59238 0.1109 0.0
H1073 H 0.09157 0.57438 0.13692 0.0
H1074 H 0.08652 0.536 0.11607 0.0
H1075 H 0.05344 0.51494 0.099 0.0
H1076 H 0.27701 0.42 0.63862 0.0
H1077 H 0.31173 0.43653 0.61818 0.0
H1078 H 0.34382 0.37139 0.64236 0.0
H1079 H 0.30968 0.35562 0.66444 0.0
H1080 H 0.37128 0.41132 0.64575 0.0
H1081 H 0.33651 0.4166 0.55877 0.0
H1082 H 0.32125 0.43449 0.57783 0.0
H1083 H 0.32075 0.40086 0.58306 0.0
C1084 C 0.29149 0.40927 0.63992 0.0
C1085 C 0.29039 0.38638 0.65326 0.0
C1086 C 0.31126 0.41855 0.62778 0.0
C1087 C 0.33024 0.40489 0.62816 0.0
C1088 C 0.32931 0.38213 0.64155 0.0
H1089 H 0.44431 0.45671 0.53378 0.0
H1090 H 0.41242 0.43077 0.55291 0.0
C1091 C 0.30965 0.37302 0.65402 0.0
C1092 C 0.35137 0.41499 0.61551 0.0
H1093 H 0.3718 0.44149 0.56364 0.0
C1094 C 0.37143 0.41759 0.6277 0.0
C1095 C 0.3518 0.42262 0.59181 0.0
C1096 C 0.33146 0.41822 0.57708 0.0
C1097 C 0.39162 0.42864 0.61716 0.0
C1098 C 0.39158 0.43824 0.594 0.0
C1099 C 0.37179 0.43456 0.5815 0.0
C1100 C 0.41151 0.45316 0.58277 0.0
C1101 C 0.41277 0.42976 0.63098 0.0
C1102 C 0.42145 0.4745 0.59303 0.0
C1103 C 0.43981 0.48903 0.58235 0.0
C1104 C 0.44829 0.48294 0.56086 0.0
C1105 C 0.43814 0.46184 0.55035 0.0
C1106 C 0.41994 0.44702 0.56127 0.0
H1107 H 0.41194 0.41409 0.64443 0.0
H1108 H 0.42801 0.42881 0.61988 0.0
H1109 H 0.41453 0.44767 0.63986 0.0
H1110 H 0.4148 0.48018 0.60919 0.0
H1111 H 0.44705 0.50539 0.59074 0.0
H1112 H 0.84321 0.68992 0.83683 0.0
H1113 H 0.86581 0.6612 0.85812 0.0
H1114 H 0.89115 0.72149 0.89964 0.0
H1115 H 0.86953 0.75068 0.87767 0.0
H1116 H 0.9243 0.69338 0.88619 0.0
H1117 H 0.85079 0.63141 0.92263 0.0
H1118 H 0.85141 0.6346 0.89179 0.0
H1119 H 0.84798 0.66164 0.90818 0.0
C1120 C 0.85378 0.69717 0.8503 0.0
C1121 C 0.85442 0.7226 0.85564 0.0
C1122 C 0.86647 0.68064 0.86265 0.0
C1123 C 0.87979 0.6891 0.88076 0.0
C1124 C 0.88081 0.71453 0.88585 0.0
H1125 H 0.93065 0.59143 0.98679 0.0
H1126 H 0.91218 0.62372 0.96513 0.0
C1127 C 0.86827 0.73112 0.87342 0.0
C1128 C 0.89267 0.67148 0.89443 0.0
H1129 H 0.88683 0.61698 0.92826 0.0
C1130 C 0.91614 0.67671 0.89547 0.0
C1131 C 0.88191 0.64998 0.9068 0.0
C1132 C 0.85662 0.64416 0.90753 0.0
C1133 C 0.92919 0.66081 0.90833 0.0
C1134 C 0.91851 0.63882 0.92001 0.0
C1135 C 0.89502 0.63376 0.91916 0.0
C1136 C 0.9312 0.6208 0.93345 0.0
C1137 C 0.9542 0.66799 0.90964 0.0
C1138 C 0.94819 0.60859 0.92289 0.0
C1139 C 0.95897 0.59029 0.93531 0.0
C1140 C 0.95265 0.58362 0.9584 0.0
C1141 C 0.93586 0.59612 0.96901 0.0
C1142 C 0.92527 0.61456 0.95666 0.0
H1143 H 0.95854 0.68846 0.9056 0.0
H1144 H 0.96041 0.66305 0.92698 0.0
H1145 H 0.96322 0.65764 0.89687 0.0
H1146 H 0.95267 0.61266 0.90486 0.0
H1147 H 0.9717 0.58081 0.92661 0.0
H1148 H 0.36387 0.77023 0.11257 0.0
H1149 H 0.38336 0.80825 0.0931 0.0
H1150 H 0.44112 0.80032 0.13515 0.0
H1151 H 0.42177 0.76218 0.15471 0.0
H1152 H 0.40509 0.85417 0.11891 0.0
H1153 H 0.46248 0.80581 0.06303 0.0
H1154 H 0.4357 0.79059 0.07391 0.0
H1155 H 0.45875 0.79522 0.09292 0.0
C1156 C 0.38078 0.77648 0.11757 0.0
C1157 C 0.39132 0.76317 0.13512 0.0
C1158 C 0.39182 0.79824 0.10652 0.0
C1159 C 0.41367 0.80692 0.11264 0.0
C1160 C 0.42427 0.79378 0.13015 0.0
H1161 H 0.50752 0.92882 0.05153 0.0
H1162 H 0.49021 0.89146 0.07377 0.0
C1163 C 0.41316 0.77212 0.14137 0.0
C1164 C 0.42526 0.82991 0.1008 0.0
H1165 H 0.46577 0.85011 0.05989 0.0
C1166 C 0.41839 0.85337 0.10602 0.0
C1167 C 0.44269 0.82868 0.0842 0.0
C1168 C 0.45041 0.80378 0.07798 0.0
C1169 C 0.42857 0.87578 0.09505 0.0
C1170 C 0.44562 0.87457 0.07791 0.0
C1171 C 0.45267 0.85104 0.07295 0.0
C1172 C 0.45606 0.89741 0.06463 0.0
C1173 C 0.42121 0.90053 0.10224 0.0
C1174 C 0.44267 0.913 0.05183 0.0
C1175 C 0.45248 0.93445 0.03927 0.0
C1176 C 0.47595 0.94056 0.03895 0.0
C1177 C 0.48939 0.92468 0.05144 0.0
C1178 C 0.47952 0.90331 0.06416 0.0
H1179 H 0.41359 0.89874 0.11991 0.0
H1180 H 0.43559 0.91538 0.10165 0.0
H1181 H 0.40827 0.90669 0.09034 0.0
H1182 H 0.4246 0.90847 0.05138 0.0
H1183 H 0.44165 0.94612 0.02966 0.0
H1184 H 0.10184 0.25757 0.63806 0.0
H1185 H 0.08292 0.22311 0.61769 0.0
H1186 H 0.12204 0.17045 0.65383 0.0
H1187 H 0.14029 0.20455 0.67502 0.0
H1188 H 0.10232 0.19346 0.58872 0.0
H1189 H 0.05945 0.13424 0.66059 0.0
H1190 H 0.071 0.16628 0.66382 0.0
H1191 H 0.08899 0.14103 0.66518 0.0
C1192 C 0.10604 0.23858 0.64209 0.0
C1193 C 0.12257 0.23383 0.65822 0.0
C1194 C 0.09532 0.21893 0.63031 0.0
C1195 C 0.10084 0.19416 0.63446 0.0
C1196 C 0.11715 0.18932 0.6507 0.0
H1197 H 0.09404 0.07204 0.54506 0.0
H1198 H 0.1037 0.10909 0.56682 0.0
C1199 C 0.12781 0.20891 0.66257 0.0
C1200 C 0.09079 0.17367 0.62067 0.0
H1201 H 0.06391 0.11423 0.62501 0.0
C1202 C 0.09367 0.17626 0.59664 0.0
C1203 C 0.0792 0.15139 0.63097 0.0
C1204 C 0.07426 0.14815 0.65654 0.0
C1205 C 0.08611 0.15676 0.5827 0.0
C1206 C 0.07582 0.13388 0.59313 0.0
C1207 C 0.07206 0.13168 0.61707 0.0
C1208 C 0.06968 0.11168 0.5796 0.0
C1209 C 0.08925 0.16088 0.55693 0.0
C1210 C 0.04742 0.10042 0.58002 0.0
C1211 C 0.04185 0.07903 0.56774 0.0
C1212 C 0.0585 0.06848 0.55491 0.0
C1213 C 0.08077 0.07979 0.55461 0.0
C1214 C 0.08632 0.10108 0.56693 0.0
H1215 H 0.09067 0.18123 0.55148 0.0
H1216 H 0.10506 0.15323 0.55145 0.0
H1217 H 0.07505 0.15115 0.54786 0.0
H1218 H 0.03437 0.10822 0.58984 0.0
H1219 H 0.02455 0.07072 0.56838 0.0
H1220 H 0.59573 0.22926 0.40015 0.0
H1221 H 0.57661 0.26158 0.41892 0.0
H1222 H 0.6161 0.31942 0.37698 0.0
H1223 H 0.63507 0.28723 0.358 0.0
H1224 H 0.59378 0.29887 0.44431 0.0
H1225 H 0.55334 0.34015 0.36842 0.0
H1226 H 0.56571 0.31062 0.36799 0.0
H1227 H 0.5832 0.33998 0.36407 0.0
C1228 C 0.60031 0.24888 0.39492 0.0
C1229 C 0.61684 0.25569 0.37752 0.0
C1230 C 0.58932 0.26731 0.40559 0.0
C1231 C 0.59461 0.29292 0.39907 0.0
C1232 C 0.61125 0.29977 0.38184 0.0
H1233 H 0.5782 0.42153 0.47778 0.0
H1234 H 0.59056 0.3852 0.45926 0.0
C1235 C 0.62214 0.28135 0.37106 0.0
C1236 C 0.58353 0.31251 0.41104 0.0
H1237 H 0.55498 0.3645 0.40182 0.0
C1238 C 0.5851 0.31307 0.43503 0.0
C1239 C 0.57184 0.33079 0.39902 0.0
C1240 C 0.56819 0.33024 0.37349 0.0
C1241 C 0.57606 0.33192 0.44721 0.0
C1242 C 0.56559 0.35108 0.43501 0.0
C1243 C 0.56325 0.34999 0.41114 0.0
C1244 C 0.55774 0.3729 0.44656 0.0
C1245 C 0.57775 0.33103 0.47306 0.0
C1246 C 0.53526 0.37855 0.44508 0.0
C1247 C 0.52814 0.39957 0.45549 0.0
C1248 C 0.54342 0.41536 0.46751 0.0
C1249 C 0.56592 0.40966 0.46886 0.0
C1250 C 0.57302 0.38877 0.45839 0.0
H1251 H 0.57942 0.3116 0.48019 0.0
H1252 H 0.59295 0.3431 0.47772 0.0
H1253 H 0.56277 0.33803 0.48133 0.0
H1254 H 0.52323 0.36666 0.43588 0.0
H1255 H 0.51072 0.40349 0.45405 0.0
loop_
_geom_bond_atom_site_label_1
_geom_bond_atom_site_label_2
_geom_bond_distance
_geom_bond_site_symmetry_2
_ccdc_geom_bond_type
C0 C1 1.386 . S
C0 C2 1.397 . S
C0 H24 0.931 . S
C1 C0 1.386 . S
C1 C5 1.397 . S
C2 C0 1.397 . S
C2 C3 1.384 . S
C2 H25 0.930 . S
C3 C2 1.384 . S
C3 C4 1.377 . S
C3 C6 1.481 . S
C4 C3 1.377 . S
C4 C5 1.389 . S
C4 H26 0.929 . S
C5 C1 1.397 . S
C5 C4 1.389 . S
C5 H27 0.931 . S
C6 C3 1.481 . S
C6 C7 1.387 . S
C6 C11 1.390 . S
C7 C6 1.387 . S
C7 C8 1.401 . S
C7 H28 0.930 . S
C8 C7 1.401 . S
C8 C9 1.376 . S
C8 C17 1.511 . S
C9 C8 1.376 . S
C9 C10 1.392 . S
C9 H30 0.931 . S
C10 C9 1.392 . S
C10 C11 1.361 . S
C10 C12 1.500 . S
C11 C6 1.390 . S
C11 C10 1.361 . S
C11 H29 0.931 . S
C12 C10 1.500 . S
C12 C13 1.371 . S
C12 C14 1.365 . S
C13 C12 1.371 . S
C13 C23 1.386 . S
C13 H31 0.931 . S
C14 C12 1.365 . S
C14 C15 1.409 . S
C14 H32 0.929 . S
C15 C14 1.409 . S
C15 C16 1.380 . S
C15 H33 0.930 . S
C16 C15 1.380 . S
C16 C23 1.357 . S
C17 C8 1.511 . S
C17 C18 1.341 . S
C17 C19 1.371 . S
C18 C17 1.341 . S
C18 C22 1.394 . S
C18 H34 0.930 . S
C19 C17 1.371 . S
C19 C20 1.392 . S
C19 H35 0.931 . S
C20 C19 1.392 . S
C20 C21 1.331 . S
C20 H38 0.932 . S
C21 C20 1.331 . S
C21 C22 1.336 . S
C22 C18 1.394 . S
C22 C21 1.336 . S
C22 H37 0.929 . S
C23 C13 1.386 . S
C23 C16 1.357 . S
C23 H36 0.928 . S
H24 C0 0.931 . S
H25 C2 0.930 . S
H26 C4 0.929 . S
H27 C5 0.931 . S
H28 C7 0.930 . S
H29 C11 0.931 . S
H30 C9 0.931 . S
H31 C13 0.931 . S
H32 C14 0.929 . S
H33 C15 0.930 . S
H34 C18 0.930 . S
H35 C19 0.931 . S
H36 C23 0.928 . S
H37 C22 0.929 . S
H38 C20 0.932 . S
C39 C40 1.386 . S
C39 C41 1.397 . S
C39 H63 0.931 . S
C40 C39 1.386 . S
C40 C44 1.397 . S
C41 C39 1.397 . S
C41 C42 1.384 . S
C41 H64 0.930 . S
C42 C41 1.384 . S
C42 C43 1.377 . S
C42 C45 1.481 . S
C43 C42 1.377 . S
C43 C44 1.389 . S
C43 H65 0.929 . S
C44 C40 1.397 . S
C44 C43 1.389 . S
C44 H66 0.931 . S
C45 C42 1.481 . S
C45 C46 1.387 . S
C45 C50 1.390 . S
C46 C45 1.387 . S
C46 C47 1.401 . S
C46 H67 0.930 . S
C47 C46 1.401 . S
C47 C48 1.376 . S
C47 C56 1.511 . S
C48 C47 1.376 . S
C48 C49 1.392 . S
C48 H69 0.931 . S
C49 C48 1.392 . S
C49 C50 1.361 . S
C49 C51 1.500 . S
C50 C45 1.390 . S
C50 C49 1.361 . S
C50 H68 0.931 . S
C51 C49 1.500 . S
C51 C52 1.371 . S
C51 C53 1.365 . S
C52 C51 1.371 . S
C52 C62 1.386 . S
C52 H70 0.931 . S
C53 C51 1.365 . S
C53 C54 1.409 . S
C53 H71 0.929 . S
C54 C53 1.409 . S
C54 C55 1.380 . S
C54 H72 0.930 . S
C55 C54 1.380 . S
C55 C62 1.357 . S
C56 C47 1.511 . S
C56 C57 1.341 . S
C56 C58 1.371 . S
C57 C56 1.341 . S
C57 C61 1.394 . S
C57 H73 0.930 . S
C58 C56 1.371 . S
C58 C59 1.392 . S
C58 H74 0.931 . S
C59 C58 1.392 . S
C59 C60 1.331 . S
C59 H77 0.932 . S
C60 C59 1.331 . S
C60 C61 1.336 . S
C61 C57 1.394 . S
C61 C60 1.336 . S
C61 H76 0.929 . S
C62 C52 1.386 . S
C62 C55 1.357 . S
C62 H75 0.928 . S
H63 C39 0.931 . S
H64 C41 0.930 . S
H65 C43 0.929 . S
H66 C44 0.931 . S
H67 C46 0.930 . S
H68 C50 0.931 . S
H69 C48 0.931 . S
H70 C52 0.931 . S
H71 C53 0.929 . S
H72 C54 0.930 . S
H73 C57 0.930 . S
H74 C58 0.931 . S
H75 C62 0.928 . S
H76 C61 0.929 . S
H77 C59 0.932 . S
C78 C79 1.386 . S
C78 C80 1.397 . S
C78 H102 0.931 . S
C79 C78 1.386 . S
C79 C83 1.397 . S
C80 C78 1.397 . S
C80 C81 1.384 . S
C80 H103 0.930 . S
C81 C80 1.384 . S
C81 C82 1.377 . S
C81 C84 1.481 . S
C82 C81 1.377 . S
C82 C83 1.389 . S
C82 H104 0.929 . S
C83 C79 1.397 . S
C83 C82 1.389 . S
C83 H105 0.931 . S
C84 C81 1.481 . S
C84 C85 1.387 . S
C84 C89 1.390 . S
C85 C84 1.387 . S
C85 C86 1.401 . S
C85 H106 0.930 . S
C86 C85 1.401 . S
C86 C87 1.376 . S
C86 C95 1.511 . S
C87 C86 1.376 . S
C87 C88 1.392 . S
C87 H108 0.931 . S
C88 C87 1.392 . S
C88 C89 1.361 . S
C88 C90 1.500 . S
C89 C84 1.390 . S
C89 C88 1.361 . S
C89 H107 0.931 . S
C90 C88 1.500 . S
C90 C91 1.371 . S
C90 C92 1.365 . S
C91 C90 1.371 . S
C91 C101 1.386 . S
C91 H109 0.931 . S
C92 C90 1.365 . S
C92 C93 1.409 . S
C92 H110 0.929 . S
C93 C92 1.409 . S
C93 C94 1.380 . S
C93 H111 0.930 . S
C94 C93 1.380 . S
C94 C101 1.357 . S
C95 C86 1.511 . S
C95 C96 1.341 . S
C95 C97 1.371 . S
C96 C95 1.341 . S
C96 C100 1.394 . S
C96 H112 0.930 . S
C97 C95 1.371 . S
C97 C98 1.392 . S
C97 H113 0.931 . S
C98 C97 1.392 . S
C98 C99 1.331 . S
C98 H116 0.932 . S
C99 C98 1.331 . S
C99 C100 1.336 . S
C100 C96 1.394 . S
C100 C99 1.336 . S
C100 H115 0.929 . S
C101 C91 1.386 . S
C101 C94 1.357 . S
C101 H114 0.928 . S
H102 C78 0.931 . S
H103 C80 0.930 . S
H104 C82 0.929 . S
H105 C83 0.931 . S
H106 C85 0.930 . S
H107 C89 0.931 . S
H108 C87 0.931 . S
H109 C91 0.931 . S
H110 C92 0.929 . S
H111 C93 0.930 . S
H112 C96 0.930 . S
H113 C97 0.931 . S
H114 C101 0.928 . S
H115 C100 0.929 . S
H116 C98 0.932 . S
C117 C118 1.386 . S
C117 C119 1.397 . S
C117 H141 0.931 . S
C118 C117 1.386 . S
C118 C122 1.397 . S
C119 C117 1.397 . S
C119 C120 1.384 . S
C119 H142 0.930 . S
C120 C119 1.384 . S
C120 C121 1.377 . S
C120 C123 1.481 . S
C121 C120 1.377 . S
C121 C122 1.389 . S
C121 H143 0.929 . S
C122 C118 1.397 . S
C122 C121 1.389 . S
C122 H144 0.931 . S
C123 C120 1.481 . S
C123 C124 1.387 . S
C123 C128 1.390 . S
C124 C123 1.387 . S
C124 C125 1.401 . S
C124 H145 0.930 . S
C125 C124 1.401 . S
C125 C126 1.376 . S
C125 C134 1.511 . S
C126 C125 1.376 . S
C126 C127 1.392 . S
C126 H147 0.931 . S
C127 C126 1.392 . S
C127 C128 1.361 . S
C127 C129 1.500 . S
C128 C123 1.390 . S
C128 C127 1.361 . S
C128 H146 0.931 . S
C129 C127 1.500 . S
C129 C130 1.371 . S
C129 C131 1.365 . S
C130 C129 1.371 . S
C130 C140 1.386 . S
C130 H148 0.931 . S
C131 C129 1.365 . S
C131 C132 1.409 . S
C131 H149 0.929 . S
C132 C131 1.409 . S
C132 C133 1.380 . S
C132 H150 0.930 . S
C133 C132 1.380 . S
C133 C140 1.357 . S
C134 C125 1.511 . S
C134 C135 1.341 . S
C134 C136 1.371 . S
C135 C134 1.341 . S
C135 C139 1.394 . S
C135 H151 0.930 . S
C136 C134 1.371 . S
C136 C137 1.392 . S
C136 H152 0.931 . S
C137 C136 1.392 . S
C137 C138 1.331 . S
C137 H155 0.932 . S
C138 C137 1.331 . S
C138 C139 1.336 . S
C139 C135 1.394 . S
C139 C138 1.336 . S
C139 H154 0.929 . S
C140 C130 1.386 . S
C140 C133 1.357 . S
C140 H153 0.928 . S
H141 C117 0.931 . S
H142 C119 0.930 . S
H143 C121 0.929 . S
H144 C122 0.931 . S
H145 C124 0.930 . S
H146 C128 0.931 . S
H147 C126 0.931 . S
H148 C130 0.931 . S
H149 C131 0.929 . S
H150 C132 0.930 . S
H151 C135 0.930 . S
H152 C136 0.931 . S
H153 C140 0.928 . S
H154 C139 0.929 . S
H155 C137 0.932 . S
C156 C157 1.386 . S
C156 C158 1.397 . S
C156 H180 0.931 . S
C157 C156 1.386 . S
C157 C161 1.397 . S
C158 C156 1.397 . S
C158 C159 1.384 . S
C158 H181 0.930 . S
C159 C158 1.384 . S
C159 C160 1.377 . S
C159 C162 1.481 . S
C160 C159 1.377 . S
C160 C161 1.389 . S
C160 H182 0.929 . S
C161 C157 1.397 . S
C161 C160 1.389 . S
C161 H183 0.931 . S
C162 C159 1.481 . S
C162 C163 1.387 . S
C162 C167 1.390 . S
C163 C162 1.387 . S
C163 C164 1.401 . S
C163 H184 0.930 . S
C164 C163 1.401 . S
C164 C165 1.376 . S
C164 C173 1.511 . S
C165 C164 1.376 . S
C165 C166 1.392 . S
C165 H186 0.931 . S
C166 C165 1.392 . S
C166 C167 1.361 . S
C166 C168 1.500 . S
C167 C162 1.390 . S
C167 C166 1.361 . S
C167 H185 0.931 . S
C168 C166 1.500 . S
C168 C169 1.371 . S
C168 C170 1.365 . S
C169 C168 1.371 . S
C169 C179 1.386 . S
C169 H187 0.931 . S
C170 C168 1.365 . S
C170 C171 1.409 . S
C170 H188 0.929 . S
C171 C170 1.409 . S
C171 C172 1.380 . S
C171 H189 0.930 . S
C172 C171 1.380 . S
C172 C179 1.357 . S
C173 C164 1.511 . S
C173 C174 1.341 . S
C173 C175 1.371 . S
C174 C173 1.341 . S
C174 C178 1.394 . S
C174 H190 0.930 . S
C175 C173 1.371 . S
C175 C176 1.392 . S
C175 H191 0.931 . S
C176 C175 1.392 . S
C176 C177 1.331 . S
C176 H194 0.932 . S
C177 C176 1.331 . S
C177 C178 1.336 . S
C178 C174 1.394 . S
C178 C177 1.336 . S
C178 H193 0.929 . S
C179 C169 1.386 . S
C179 C172 1.357 . S
C179 H192 0.928 . S
H180 C156 0.931 . S
H181 C158 0.930 . S
H182 C160 0.929 . S
H183 C161 0.931 . S
H184 C163 0.930 . S
H185 C167 0.931 . S
H186 C165 0.931 . S
H187 C169 0.931 . S
H188 C170 0.929 . S
H189 C171 0.930 . S
H190 C174 0.930 . S
H191 C175 0.931 . S
H192 C179 0.928 . S
H193 C178 0.929 . S
H194 C176 0.932 . S
C195 C196 1.386 . S
C195 C197 1.397 . S
C195 H219 0.931 . S
C196 C195 1.386 . S
C196 C200 1.397 . S
C197 C195 1.397 . S
C197 C198 1.384 . S
C197 H220 0.930 . S
C198 C197 1.384 . S
C198 C199 1.377 . S
C198 C201 1.481 . S
C199 C198 1.377 . S
C199 C200 1.389 . S
C199 H221 0.929 . S
C200 C196 1.397 . S
C200 C199 1.389 . S
C200 H222 0.931 . S
C201 C198 1.481 . S
C201 C202 1.387 . S
C201 C206 1.390 . S
C202 C201 1.387 . S
C202 C203 1.401 . S
C202 H223 0.930 . S
C203 C202 1.401 . S
C203 C204 1.376 . S
C203 C212 1.511 . S
C204 C203 1.376 . S
C204 C205 1.392 . S
C204 H225 0.931 . S
C205 C204 1.392 . S
C205 C206 1.361 . S
C205 C207 1.500 . S
C206 C201 1.390 . S
C206 C205 1.361 . S
C206 H224 0.931 . S
C207 C205 1.500 . S
C207 C208 1.371 . S
C207 C209 1.365 . S
C208 C207 1.371 . S
C208 C218 1.386 . S
C208 H226 0.931 . S
C209 C207 1.365 . S
C209 C210 1.409 . S
C209 H227 0.929 . S
C210 C209 1.409 . S
C210 C211 1.380 . S
C210 H228 0.930 . S
C211 C210 1.380 . S
C211 C218 1.357 . S
C212 C203 1.511 . S
C212 C213 1.341 . S
C212 C214 1.371 . S
C213 C212 1.341 . S
C213 C217 1.394 . S
C213 H229 0.930 . S
C214 C212 1.371 . S
C214 C215 1.392 . S
C214 H230 0.931 . S
C215 C214 1.392 . S
C215 C216 1.331 . S
C215 H233 0.932 . S
C216 C215 1.331 . S
C216 C217 1.336 . S
C217 C213 1.394 . S
C217 C216 1.336 . S
C217 H232 0.929 . S
C218 C208 1.386 . S
C218 C211 1.357 . S
C218 H231 0.928 . S
H219 C195 0.931 . S
H220 C197 0.930 . S
H221 C199 0.929 . S
H222 C200 0.931 . S
H223 C202 0.930 . S
H224 C206 0.931 . S
H225 C204 0.931 . S
H226 C208 0.931 . S
H227 C209 0.929 . S
H228 C210 0.930 . S
H229 C213 0.930 . S
H230 C214 0.931 . S
H231 C218 0.928 . S
H232 C217 0.929 . S
H233 C215 0.932 . S
C234 C235 1.386 . S
C234 C236 1.397 . S
C234 H258 0.931 . S
C235 C234 1.386 . S
C235 C239 1.397 . S
C236 C234 1.397 . S
C236 C237 1.384 . S
C236 H259 0.930 . S
C237 C236 1.384 . S
C237 C238 1.377 . S
C237 C240 1.481 . S
C238 C237 1.377 . S
C238 C239 1.389 . S
C238 H260 0.929 . S
C239 C235 1.397 . S
C239 C238 1.389 . S
C239 H261 0.931 . S
C240 C237 1.481 . S
C240 C241 1.387 . S
C240 C245 1.390 . S
C241 C240 1.387 . S
C241 C242 1.401 . S
C241 H262 0.930 . S
C242 C241 1.401 . S
C242 C243 1.376 . S
C242 C251 1.511 . S
C243 C242 1.376 . S
C243 C244 1.392 . S
C243 H264 0.931 . S
C244 C243 1.392 . S
C244 C245 1.361 . S
C244 C246 1.500 . S
C245 C240 1.390 . S
C245 C244 1.361 . S
C245 H263 0.931 . S
C246 C244 1.500 . S
C246 C247 1.371 . S
C246 C248 1.365 . S
C247 C246 1.371 . S
C247 C257 1.386 . S
C247 H265 0.931 . S
C248 C246 1.365 . S
C248 C249 1.409 . S
C248 H266 0.929 . S
C249 C248 1.409 . S
C249 C250 1.380 . S
C249 H267 0.930 . S
C250 C249 1.380 . S
C250 C257 1.357 . S
C251 C242 1.511 . S
C251 C252 1.341 . S
C251 C253 1.371 . S
C252 C251 1.341 . S
C252 C256 1.394 . S
C252 H268 0.930 . S
C253 C251 1.371 . S
C253 C254 1.392 . S
C253 H269 0.931 . S
C254 C253 1.392 . S
C254 C255 1.331 . S
C254 H272 0.932 . S
C255 C254 1.331 . S
C255 C256 1.336 . S
C256 C252 1.394 . S
C256 C255 1.336 . S
C256 H271 0.929 . S
C257 C247 1.386 . S
C257 C250 1.357 . S
C257 H270 0.928 . S
H258 C234 0.931 . S
H259 C236 0.930 . S
H260 C238 0.929 . S
H261 C239 0.931 . S
H262 C241 0.930 . S
H263 C245 0.931 . S
H264 C243 0.931 . S
H265 C247 0.931 . S
H266 C248 0.929 . S
H267 C249 0.930 . S
H268 C252 0.930 . S
H269 C253 0.931 . S
H270 C257 0.928 . S
H271 C256 0.929 . S
H272 C254 0.932 . S
C273 C274 1.386 . S
C273 C275 1.397 . S
C273 H297 0.931 . S
C274 C273 1.386 . S
C274 C278 1.397 . S
C275 C273 1.397 . S
C275 C276 1.384 . S
C275 H298 0.930 . S
C276 C275 1.384 . S
C276 C277 1.377 . S
C276 C279 1.481 . S
C277 C276 1.377 . S
C277 C278 1.389 . S
C277 H299 0.929 . S
C278 C274 1.397 . S
C278 C277 1.389 . S
C278 H300 0.931 . S
C279 C276 1.481 . S
C279 C280 1.387 . S
C279 C284 1.390 . S
C280 C279 1.387 . S
C280 C281 1.401 . S
C280 H301 0.930 . S
C281 C280 1.401 . S
C281 C282 1.376 . S
C281 C290 1.511 . S
C282 C281 1.376 . S
C282 C283 1.392 . S
C282 H303 0.931 . S
C283 C282 1.392 . S
C283 C284 1.361 . S
C283 C285 1.500 . S
C284 C279 1.390 . S
C284 C283 1.361 . S
C284 H302 0.931 . S
C285 C283 1.500 . S
C285 C286 1.371 . S
C285 C287 1.365 . S
C286 C285 1.371 . S
C286 C296 1.386 . S
C286 H304 0.931 . S
C287 C285 1.365 . S
C287 C288 1.409 . S
C287 H305 0.929 . S
C288 C287 1.409 . S
C288 C289 1.380 . S
C288 H306 0.930 . S
C289 C288 1.380 . S
C289 C296 1.357 . S
C290 C281 1.511 . S
C290 C291 1.341 . S
C290 C292 1.371 . S
C291 C290 1.341 . S
C291 C295 1.394 . S
C291 H307 0.930 . S
C292 C290 1.371 . S
C292 C293 1.392 . S
C292 H308 0.931 . S
C293 C292 1.392 . S
C293 C294 1.331 . S
C293 H311 0.932 . S
C294 C293 1.331 . S
C294 C295 1.336 . S
C295 C291 1.394 . S
C295 C294 1.336 . S
C295 H310 0.929 . S
C296 C286 1.386 . S
C296 C289 1.357 . S
C296 H309 0.928 . S
H297 C273 0.931 . S
H298 C275 0.930 . S
H299 C277 0.929 . S
H300 C278 0.931 . S
H301 C280 0.930 . S
H302 C284 0.931 . S
H303 C282 0.931 . S
H304 C286 0.931 . S
H305 C287 0.929 . S
H306 C288 0.930 . S
H307 C291 0.930 . S
H308 C292 0.931 . S
H309 C296 0.928 . S
H310 C295 0.929 . S
H311 C293 0.932 . S
Zn312 O318 1.969 1_545 S
Zn312 O319 1.965 1_545 S
Zn312 O323 2.024 . S
Zn312 O328 1.969 . S
Zn313 O320 1.969 . S
Zn313 O326 1.969 1_565 S
Zn313 O327 1.992 1_565 S
Zn313 O329 2.024 . S
C314 O315 1.229 . S
C314 O323 1.058 . S
O315 C314 1.229 . S
C316 O317 1.229 . S
C316 O329 1.058 . S
O317 C316 1.229 . S
O318 Zn312 1.969 1_565 S
O318 C321 1.267 . S
O319 Zn312 1.965 1_565 S
O319 C330 1.260 1_455 S
O320 Zn313 1.969 . S
O320 C330 1.258 . S
C321 O318 1.267 . S
C321 O322 1.228 . S
O322 C321 1.228 . S
O323 Zn312 2.024 . S
O323 C314 1.058 . S
C324 O325 1.228 . S
C324 O326 1.267 . S
O325 C324 1.228 . S
O326 Zn313 1.969 1_545 S
O326 C324 1.267 . S
O327 Zn313 1.992 1_545 S
O327 C331 1.225 1_655 S
O328 Zn312 1.969 . S
O328 C331 1.258 . S
O329 Zn313 2.024 . S
O329 C316 1.058 . S
C330 O319 1.260 1_655 S
C330 O320 1.258 . S
C331 O327 1.225 1_455 S
C331 O328 1.258 . S
Zn332 O338 1.969 . S
Zn332 O339 1.965 1_565 S
Zn332 O343 2.024 . S
Zn332 O348 2.002 . S
Zn333 O340 1.969 . S
Zn333 O346 1.969 . S
Zn333 O347 1.965 1_545 S
Zn333 O349 2.024 . S
C334 O335 1.229 . S
C334 O343 1.058 . S
O335 C334 1.229 . S
C336 O337 1.229 . S
C336 O349 1.058 . S
O337 C336 1.229 . S
O338 Zn332 1.969 . S
O338 C341 1.267 . S
O339 Zn332 1.965 1_545 S
O339 C350 1.260 . S
O340 Zn333 1.969 . S
O340 C350 1.258 1_554 S
C341 O338 1.267 . S
C341 O342 1.228 . S
O342 C341 1.228 . S
O343 Zn332 2.024 . S
O343 C334 1.058 . S
C344 O345 1.228 . S
C344 O346 1.267 . S
O345 C344 1.228 . S
O346 Zn333 1.969 . S
O346 C344 1.267 . S
O347 Zn333 1.965 1_565 S
O347 C351 1.260 . S
O348 Zn332 2.002 . S
O348 C351 1.223 1_556 S
O349 Zn333 2.024 . S
O349 C336 1.058 . S
C350 O339 1.260 . S
C350 O340 1.258 1_556 S
C351 O347 1.260 . S
C351 O348 1.223 1_554 S
Zn352 O358 1.969 . S
Zn352 O359 1.965 . S
Zn352 O363 2.024 . S
Zn352 O368 1.969 . S
Zn353 O360 1.969 . S
Zn353 O366 1.969 . S
Zn353 O367 1.965 . S
Zn353 O369 2.024 . S
C354 O355 1.229 . S
C354 O363 1.058 . S
O355 C354 1.229 . S
C356 O357 1.229 . S
C356 O369 1.058 . S
O357 C356 1.229 . S
O358 Zn352 1.969 . S
O358 C361 1.267 . S
O359 Zn352 1.965 . S
O359 C370 1.260 . S
O360 Zn353 1.969 . S
O360 C370 1.258 . S
C361 O358 1.267 . S
C361 O362 1.228 . S
O362 C361 1.228 . S
O363 Zn352 2.024 . S
O363 C354 1.058 . S
C364 O365 1.228 . S
C364 O366 1.267 . S
O365 C364 1.228 . S
O366 Zn353 1.969 . S
O366 C364 1.267 . S
O367 Zn353 1.965 . S
O367 C371 1.260 . S
O368 Zn352 1.969 . S
O368 C371 1.258 . S
O369 Zn353 2.024 . S
O369 C356 1.058 . S
C370 O359 1.260 . S
C370 O360 1.258 . S
C371 O367 1.260 . S
C371 O368 1.258 . S
Zn372 O378 1.969 . S
Zn372 O379 1.965 1_556 S
Zn372 O383 2.024 . S
Zn372 O388 1.938 1_655 S
Zn373 O380 1.969 . S
Zn373 O386 1.969 . S
Zn373 O387 1.965 1_554 S
Zn373 O389 2.024 . S
C374 O375 1.229 . S
C374 O383 1.058 . S
O375 C374 1.229 . S
C376 O377 1.229 . S
C376 O389 1.058 . S
O377 C376 1.229 . S
O378 Zn372 1.969 . S
O378 C381 1.267 . S
O379 Zn372 1.965 1_554 S
O379 C390 1.260 . S
O380 Zn373 1.969 . S
O380 C390 1.258 1_455 S
C381 O378 1.267 . S
C381 O382 1.228 . S
O382 C381 1.228 . S
O383 Zn372 2.024 . S
O383 C374 1.058 . S
C384 O385 1.228 . S
C384 O386 1.267 . S
O385 C384 1.228 . S
O386 Zn373 1.969 . S
O386 C384 1.267 . S
O387 Zn373 1.965 1_556 S
O387 C391 1.260 . S
O388 Zn372 1.938 1_455 S
O388 C391 1.289 . S
O389 Zn373 2.024 . S
O389 C376 1.058 . S
C390 O379 1.260 . S
C390 O380 1.258 1_655 S
C391 O387 1.260 . S
C391 O388 1.289 . S
H392 C400 0.929 . S
H393 C402 0.930 . S
H394 C404 0.930 . S
H395 C407 0.929 . S
H396 C410 0.930 . S
H397 C412 0.960 . S
H398 C412 0.960 . S
H399 C412 0.960 . S
C400 H392 0.929 . S
C400 C401 1.377 . S
C400 C402 1.384 . S
C401 C400 1.377 . S
C401 C407 1.390 . S
C402 H393 0.930 . S
C402 C400 1.384 . S
C402 C403 1.372 . S
C403 C402 1.372 . S
C403 C404 1.400 . S
C403 C408 1.490 . S
C404 H394 0.930 . S
C404 C403 1.400 . S
C404 C407 1.386 . S
H405 C421 0.930 . S
H406 C422 0.931 . S
C407 H395 0.929 . S
C407 C401 1.390 . S
C407 C404 1.386 . S
C408 C403 1.490 . S
C408 C410 1.395 . S
C408 C411 1.403 . S
H409 C415 0.930 . S
C410 H396 0.930 . S
C410 C408 1.395 . S
C410 C413 1.403 . S
C411 C408 1.403 . S
C411 C412 1.524 . S
C411 C415 1.400 . S
C412 H397 0.960 . S
C412 H398 0.960 . S
C412 H399 0.960 . S
C412 C411 1.524 . S
C413 C410 1.403 . S
C413 C414 1.392 . S
C413 C417 1.495 . S
C414 C413 1.392 . S
C414 C415 1.385 . S
C414 C416 1.478 . S
C415 H409 0.930 . S
C415 C411 1.400 . S
C415 C414 1.385 . S
C416 C414 1.478 . S
C416 C418 1.381 . S
C416 C422 1.383 . S
C417 C413 1.495 . S
C417 H423 0.959 . S
C417 H424 0.961 . S
C417 H425 0.960 . S
C418 C416 1.381 . S
C418 C419 1.394 . S
C418 H426 0.930 . S
C419 C418 1.394 . S
C419 C420 1.383 . S
C419 H427 0.929 . S
C420 C419 1.383 . S
C420 C421 1.377 . S
C421 H405 0.930 . S
C421 C420 1.377 . S
C421 C422 1.379 . S
C422 H406 0.931 . S
C422 C416 1.383 . S
C422 C421 1.379 . S
H423 C417 0.959 . S
H424 C417 0.961 . S
H425 C417 0.960 . S
H426 C418 0.930 . S
H427 C419 0.929 . S
H428 C436 0.929 . S
H429 C438 0.930 . S
H430 C440 0.930 . S
H431 C443 0.929 . S
H432 C446 0.930 . S
H433 C448 0.960 . S
H434 C448 0.960 . S
H435 C448 0.960 . S
C436 H428 0.929 . S
C436 C437 1.377 . S
C436 C438 1.384 . S
C437 C436 1.377 . S
C437 C443 1.390 . S
C438 H429 0.930 . S
C438 C436 1.384 . S
C438 C439 1.372 . S
C439 C438 1.372 . S
C439 C440 1.400 . S
C439 C444 1.490 . S
C440 H430 0.930 . S
C440 C439 1.400 . S
C440 C443 1.386 . S
H441 C457 0.930 . S
H442 C458 0.931 . S
C443 H431 0.929 . S
C443 C437 1.390 . S
C443 C440 1.386 . S
C444 C439 1.490 . S
C444 C446 1.395 . S
C444 C447 1.403 . S
H445 C451 0.930 . S
C446 H432 0.930 . S
C446 C444 1.395 . S
C446 C449 1.403 . S
C447 C444 1.403 . S
C447 C448 1.524 . S
C447 C451 1.400 . S
C448 H433 0.960 . S
C448 H434 0.960 . S
C448 H435 0.960 . S
C448 C447 1.524 . S
C449 C446 1.403 . S
C449 C450 1.392 . S
C449 C453 1.495 . S
C450 C449 1.392 . S
C450 C451 1.385 . S
C450 C452 1.478 . S
C451 H445 0.930 . S
C451 C447 1.400 . S
C451 C450 1.385 . S
C452 C450 1.478 . S
C452 C454 1.381 . S
C452 C458 1.383 . S
C453 C449 1.495 . S
C453 H459 0.959 . S
C453 H460 0.961 . S
C453 H461 0.960 . S
C454 C452 1.381 . S
C454 C455 1.394 . S
C454 H462 0.930 . S
C455 C454 1.394 . S
C455 C456 1.383 . S
C455 H463 0.929 . S
C456 C455 1.383 . S
C456 C457 1.377 . S
C457 H441 0.930 . S
C457 C456 1.377 . S
C457 C458 1.379 . S
C458 H442 0.931 . S
C458 C452 1.383 . S
C458 C457 1.379 . S
H459 C453 0.959 . S
H460 C453 0.961 . S
H461 C453 0.960 . S
H462 C454 0.930 . S
H463 C455 0.929 . S
H464 C472 0.929 . S
H465 C474 0.930 . S
H466 C476 0.930 . S
H467 C479 0.929 . S
H468 C482 0.930 . S
H469 C484 0.960 . S
H470 C484 0.960 . S
H471 C484 0.960 . S
C472 H464 0.929 . S
C472 C473 1.377 . S
C472 C474 1.384 . S
C473 C472 1.377 . S
C473 C479 1.390 . S
C474 H465 0.930 . S
C474 C472 1.384 . S
C474 C475 1.372 . S
C475 C474 1.372 . S
C475 C476 1.400 . S
C475 C480 1.490 . S
C476 H466 0.930 . S
C476 C475 1.400 . S
C476 C479 1.386 . S
H477 C493 0.930 . S
H478 C494 0.931 . S
C479 H467 0.929 . S
C479 C473 1.390 . S
C479 C476 1.386 . S
C480 C475 1.490 . S
C480 C482 1.395 . S
C480 C483 1.403 . S
H481 C487 0.930 . S
C482 H468 0.930 . S
C482 C480 1.395 . S
C482 C485 1.403 . S
C483 C480 1.403 . S
C483 C484 1.524 . S
C483 C487 1.400 . S
C484 H469 0.960 . S
C484 H470 0.960 . S
C484 H471 0.960 . S
C484 C483 1.524 . S
C485 C482 1.403 . S
C485 C486 1.392 . S
C485 C489 1.495 . S
C486 C485 1.392 . S
C486 C487 1.385 . S
C486 C488 1.478 . S
C487 H481 0.930 . S
C487 C483 1.400 . S
C487 C486 1.385 . S
C488 C486 1.478 . S
C488 C490 1.381 . S
C488 C494 1.383 . S
C489 C485 1.495 . S
C489 H495 0.959 . S
C489 H496 0.961 . S
C489 H497 0.960 . S
C490 C488 1.381 . S
C490 C491 1.394 . S
C490 H498 0.930 . S
C491 C490 1.394 . S
C491 C492 1.383 . S
C491 H499 0.929 . S
C492 C491 1.383 . S
C492 C493 1.377 . S
C493 H477 0.930 . S
C493 C492 1.377 . S
C493 C494 1.379 . S
C494 H478 0.931 . S
C494 C488 1.383 . S
C494 C493 1.379 . S
H495 C489 0.959 . S
H496 C489 0.961 . S
H497 C489 0.960 . S
H498 C490 0.930 . S
H499 C491 0.929 . S
H500 C508 0.929 . S
H501 C510 0.930 . S
H502 C512 0.930 . S
H503 C515 0.929 . S
H504 C518 0.930 . S
H505 C520 0.960 . S
H506 C520 0.960 . S
H507 C520 0.960 . S
C508 H500 0.929 . S
C508 C509 1.377 . S
C508 C510 1.384 . S
C509 C508 1.377 . S
C509 C515 1.390 . S
C510 H501 0.930 . S
C510 C508 1.384 . S
C510 C511 1.372 . S
C511 C510 1.372 . S
C511 C512 1.400 . S
C511 C516 1.490 . S
C512 H502 0.930 . S
C512 C511 1.400 . S
C512 C515 1.386 . S
H513 C529 0.930 . S
H514 C530 0.931 . S
C515 H503 0.929 . S
C515 C509 1.390 . S
C515 C512 1.386 . S
C516 C511 1.490 . S
C516 C518 1.395 . S
C516 C519 1.403 . S
H517 C523 0.930 . S
C518 H504 0.930 . S
C518 C516 1.395 . S
C518 C521 1.403 . S
C519 C516 1.403 . S
C519 C520 1.524 . S
C519 C523 1.400 . S
C520 H505 0.960 . S
C520 H506 0.960 . S
C520 H507 0.960 . S
C520 C519 1.524 . S
C521 C518 1.403 . S
C521 C522 1.392 . S
C521 C525 1.495 . S
C522 C521 1.392 . S
C522 C523 1.385 . S
C522 C524 1.478 . S
C523 H517 0.930 . S
C523 C519 1.400 . S
C523 C522 1.385 . S
C524 C522 1.478 . S
C524 C526 1.381 . S
C524 C530 1.383 . S
C525 C521 1.495 . S
C525 H531 0.959 . S
C525 H532 0.961 . S
C525 H533 0.960 . S
C526 C524 1.381 . S
C526 C527 1.394 . S
C526 H534 0.930 . S
C527 C526 1.394 . S
C527 C528 1.383 . S
C527 H535 0.929 . S
C528 C527 1.383 . S
C528 C529 1.377 . S
C529 H513 0.930 . S
C529 C528 1.377 . S
C529 C530 1.379 . S
C530 H514 0.931 . S
C530 C524 1.383 . S
C530 C529 1.379 . S
H531 C525 0.959 . S
H532 C525 0.961 . S
H533 C525 0.960 . S
H534 C526 0.930 . S
H535 C527 0.929 . S
H536 C544 0.929 . S
H537 C546 0.930 . S
H538 C548 0.930 . S
H539 C551 0.929 . S
H540 C554 0.930 . S
H541 C556 0.960 . S
H542 C556 0.960 . S
H543 C556 0.960 . S
C544 H536 0.929 . S
C544 C545 1.377 . S
C544 C546 1.384 . S
C545 C544 1.377 . S
C545 C551 1.390 . S
C546 H537 0.930 . S
C546 C544 1.384 . S
C546 C547 1.372 . S
C547 C546 1.372 . S
C547 C548 1.400 . S
C547 C552 1.490 . S
C548 H538 0.930 . S
C548 C547 1.400 . S
C548 C551 1.386 . S
H549 C565 0.930 . S
H550 C566 0.931 . S
C551 H539 0.929 . S
C551 C545 1.390 . S
C551 C548 1.386 . S
C552 C547 1.490 . S
C552 C554 1.395 . S
C552 C555 1.403 . S
H553 C559 0.930 . S
C554 H540 0.930 . S
C554 C552 1.395 . S
C554 C557 1.403 . S
C555 C552 1.403 . S
C555 C556 1.524 . S
C555 C559 1.400 . S
C556 H541 0.960 . S
C556 H542 0.960 . S
C556 H543 0.960 . S
C556 C555 1.524 . S
C557 C554 1.403 . S
C557 C558 1.392 . S
C557 C561 1.495 . S
C558 C557 1.392 . S
C558 C559 1.385 . S
C558 C560 1.478 . S
C559 H553 0.930 . S
C559 C555 1.400 . S
C559 C558 1.385 . S
C560 C558 1.478 . S
C560 C562 1.381 . S
C560 C566 1.383 . S
C561 C557 1.495 . S
C561 H567 0.959 . S
C561 H568 0.961 . S
C561 H569 0.960 . S
C562 C560 1.381 . S
C562 C563 1.394 . S
C562 H570 0.930 . S
C563 C562 1.394 . S
C563 C564 1.383 . S
C563 H571 0.929 . S
C564 C563 1.383 . S
C564 C565 1.377 . S
C565 H549 0.930 . S
C565 C564 1.377 . S
C565 C566 1.379 . S
C566 H550 0.931 . S
C566 C560 1.383 . S
C566 C565 1.379 . S
H567 C561 0.959 . S
H568 C561 0.961 . S
H569 C561 0.960 . S
H570 C562 0.930 . S
H571 C563 0.929 . S
H572 C580 0.929 . S
H573 C582 0.930 . S
H574 C584 0.930 . S
H575 C587 0.929 . S
H576 C590 0.930 . S
H577 C592 0.960 . S
H578 C592 0.960 . S
H579 C592 0.960 . S
C580 H572 0.929 . S
C580 C581 1.377 . S
C580 C582 1.384 . S
C581 C580 1.377 . S
C581 C587 1.390 . S
C582 H573 0.930 . S
C582 C580 1.384 . S
C582 C583 1.372 . S
C583 C582 1.372 . S
C583 C584 1.400 . S
C583 C588 1.490 . S
C584 H574 0.930 . S
C584 C583 1.400 . S
C584 C587 1.386 . S
H585 C601 0.930 . S
H586 C602 0.931 . S
C587 H575 0.929 . S
C587 C581 1.390 . S
C587 C584 1.386 . S
C588 C583 1.490 . S
C588 C590 1.395 . S
C588 C591 1.403 . S
H589 C595 0.930 . S
C590 H576 0.930 . S
C590 C588 1.395 . S
C590 C593 1.403 . S
C591 C588 1.403 . S
C591 C592 1.524 . S
C591 C595 1.400 . S
C592 H577 0.960 . S
C592 H578 0.960 . S
C592 H579 0.960 . S
C592 C591 1.524 . S
C593 C590 1.403 . S
C593 C594 1.392 . S
C593 C597 1.495 . S
C594 C593 1.392 . S
C594 C595 1.385 . S
C594 C596 1.478 . S
C595 H589 0.930 . S
C595 C591 1.400 . S
C595 C594 1.385 . S
C596 C594 1.478 . S
C596 C598 1.381 . S
C596 C602 1.383 . S
C597 C593 1.495 . S
C597 H603 0.959 . S
C597 H604 0.961 . S
C597 H605 0.960 . S
C598 C596 1.381 . S
C598 C599 1.394 . S
C598 H606 0.930 . S
C599 C598 1.394 . S
C599 C600 1.383 . S
C599 H607 0.929 . S
C600 C599 1.383 . S
C600 C601 1.377 . S
C601 H585 0.930 . S
C601 C600 1.377 . S
C601 C602 1.379 . S
C602 H586 0.931 . S
C602 C596 1.383 . S
C602 C601 1.379 . S
H603 C597 0.959 . S
H604 C597 0.961 . S
H605 C597 0.960 . S
H606 C598 0.930 . S
H607 C599 0.929 . S
H608 C616 0.929 . S
H609 C618 0.930 . S
H610 C620 0.930 . S
H611 C623 0.929 . S
H612 C626 0.930 . S
H613 C628 0.960 . S
H614 C628 0.960 . S
H615 C628 0.960 . S
C616 H608 0.929 . S
C616 C617 1.377 . S
C616 C618 1.384 . S
C617 C616 1.377 . S
C617 C623 1.390 . S
C618 H609 0.930 . S
C618 C616 1.384 . S
C618 C619 1.372 . S
C619 C618 1.372 . S
C619 C620 1.400 . S
C619 C624 1.490 . S
C620 H610 0.930 . S
C620 C619 1.400 . S
C620 C623 1.386 . S
H621 C637 0.930 . S
H622 C638 0.931 . S
C623 H611 0.929 . S
C623 C617 1.390 . S
C623 C620 1.386 . S
C624 C619 1.490 . S
C624 C626 1.395 . S
C624 C627 1.403 . S
H625 C631 0.930 . S
C626 H612 0.930 . S
C626 C624 1.395 . S
C626 C629 1.403 . S
C627 C624 1.403 . S
C627 C628 1.524 . S
C627 C631 1.400 . S
C628 H613 0.960 . S
C628 H614 0.960 . S
C628 H615 0.960 . S
C628 C627 1.524 . S
C629 C626 1.403 . S
C629 C630 1.392 . S
C629 C633 1.495 . S
C630 C629 1.392 . S
C630 C631 1.385 . S
C630 C632 1.478 . S
C631 H625 0.930 . S
C631 C627 1.400 . S
C631 C630 1.385 . S
C632 C630 1.478 . S
C632 C634 1.381 . S
C632 C638 1.383 . S
C633 C629 1.495 . S
C633 H639 0.959 . S
C633 H640 0.961 . S
C633 H641 0.960 . S
C634 C632 1.381 . S
C634 C635 1.394 . S
C634 H642 0.930 . S
C635 C634 1.394 . S
C635 C636 1.383 . S
C635 H643 0.929 . S
C636 C635 1.383 . S
C636 C637 1.377 . S
C637 H621 0.930 . S
C637 C636 1.377 . S
C637 C638 1.379 . S
C638 H622 0.931 . S
C638 C632 1.383 . S
C638 C637 1.379 . S
H639 C633 0.959 . S
H640 C633 0.961 . S
H641 C633 0.960 . S
H642 C634 0.930 . S
H643 C635 0.929 . S
H644 C652 0.929 . S
H645 C654 0.930 . S
H646 C656 0.930 . S
H647 C659 0.929 . S
H648 C662 0.930 . S
H649 C664 0.960 . S
H650 C664 0.960 . S
H651 C664 0.960 . S
C652 H644 0.929 . S
C652 C653 1.377 . S
C652 C654 1.384 . S
C653 C652 1.377 . S
C653 C659 1.390 . S
C654 H645 0.930 . S
C654 C652 1.384 . S
C654 C655 1.372 . S
C655 C654 1.372 . S
C655 C656 1.400 . S
C655 C660 1.490 . S
C656 H646 0.930 . S
C656 C655 1.400 . S
C656 C659 1.386 . S
H657 C673 0.930 . S
H658 C674 0.931 . S
C659 H647 0.929 . S
C659 C653 1.390 . S
C659 C656 1.386 . S
C660 C655 1.490 . S
C660 C662 1.395 . S
C660 C663 1.403 . S
H661 C667 0.930 . S
C662 H648 0.930 . S
C662 C660 1.395 . S
C662 C665 1.403 . S
C663 C660 1.403 . S
C663 C664 1.524 . S
C663 C667 1.400 . S
C664 H649 0.960 . S
C664 H650 0.960 . S
C664 H651 0.960 . S
C664 C663 1.524 . S
C665 C662 1.403 . S
C665 C666 1.392 . S
C665 C669 1.495 . S
C666 C665 1.392 . S
C666 C667 1.385 . S
C666 C668 1.478 . S
C667 H661 0.930 . S
C667 C663 1.400 . S
C667 C666 1.385 . S
C668 C666 1.478 . S
C668 C670 1.381 . S
C668 C674 1.383 . S
C669 C665 1.495 . S
C669 H675 0.959 . S
C669 H676 0.961 . S
C669 H677 0.960 . S
C670 C668 1.381 . S
C670 C671 1.394 . S
C670 H678 0.930 . S
C671 C670 1.394 . S
C671 C672 1.383 . S
C671 H679 0.929 . S
C672 C671 1.383 . S
C672 C673 1.377 . S
C673 H657 0.930 . S
C673 C672 1.377 . S
C673 C674 1.379 . S
C674 H658 0.931 . S
C674 C668 1.383 . S
C674 C673 1.379 . S
H675 C669 0.959 . S
H676 C669 0.961 . S
H677 C669 0.960 . S
H678 C670 0.930 . S
H679 C671 0.929 . S
H680 C688 0.929 . S
H681 C690 0.930 . S
H682 C692 0.930 . S
H683 C695 0.929 . S
H684 C698 0.930 . S
H685 C700 0.960 . S
H686 C700 0.960 . S
H687 C700 0.960 . S
C688 H680 0.929 . S
C688 C689 1.377 . S
C688 C690 1.384 . S
C689 C688 1.377 . S
C689 C695 1.390 . S
C690 H681 0.930 . S
C690 C688 1.384 . S
C690 C691 1.372 . S
C691 C690 1.372 . S
C691 C692 1.400 . S
C691 C696 1.490 . S
C692 H682 0.930 . S
C692 C691 1.400 . S
C692 C695 1.386 . S
H693 C709 0.930 . S
H694 C710 0.931 . S
C695 H683 0.929 . S
C695 C689 1.390 . S
C695 C692 1.386 . S
C696 C691 1.490 . S
C696 C698 1.395 . S
C696 C699 1.403 . S
H697 C703 0.930 . S
C698 H684 0.930 . S
C698 C696 1.395 . S
C698 C701 1.403 . S
C699 C696 1.403 . S
C699 C700 1.524 . S
C699 C703 1.400 . S
C700 H685 0.960 . S
C700 H686 0.960 . S
C700 H687 0.960 . S
C700 C699 1.524 . S
C701 C698 1.403 . S
C701 C702 1.392 . S
C701 C705 1.495 . S
C702 C701 1.392 . S
C702 C703 1.385 . S
C702 C704 1.478 . S
C703 H697 0.930 . S
C703 C699 1.400 . S
C703 C702 1.385 . S
C704 C702 1.478 . S
C704 C706 1.381 . S
C704 C710 1.383 . S
C705 C701 1.495 . S
C705 H711 0.959 . S
C705 H712 0.961 . S
C705 H713 0.960 . S
C706 C704 1.381 . S
C706 C707 1.394 . S
C706 H714 0.930 . S
C707 C706 1.394 . S
C707 C708 1.383 . S
C707 H715 0.929 . S
C708 C707 1.383 . S
C708 C709 1.377 . S
C709 H693 0.930 . S
C709 C708 1.377 . S
C709 C710 1.379 . S
C710 H694 0.931 . S
C710 C704 1.383 . S
C710 C709 1.379 . S
H711 C705 0.959 . S
H712 C705 0.961 . S
H713 C705 0.960 . S
H714 C706 0.930 . S
H715 C707 0.929 . S
H716 C724 0.929 . S
H717 C726 0.930 . S
H718 C728 0.930 . S
H719 C731 0.929 . S
H720 C734 0.930 . S
H721 C736 0.960 . S
H722 C736 0.960 . S
H723 C736 0.960 . S
C724 H716 0.929 . S
C724 C725 1.377 . S
C724 C726 1.384 . S
C725 C724 1.377 . S
C725 C731 1.390 . S
C726 H717 0.930 . S
C726 C724 1.384 . S
C726 C727 1.372 . S
C727 C726 1.372 . S
C727 C728 1.400 . S
C727 C732 1.490 . S
C728 H718 0.930 . S
C728 C727 1.400 . S
C728 C731 1.386 . S
H729 C745 0.930 . S
H730 C746 0.931 . S
C731 H719 0.929 . S
C731 C725 1.390 . S
C731 C728 1.386 . S
C732 C727 1.490 . S
C732 C734 1.395 . S
C732 C735 1.403 . S
H733 C739 0.930 . S
C734 H720 0.930 . S
C734 C732 1.395 . S
C734 C737 1.403 . S
C735 C732 1.403 . S
C735 C736 1.524 . S
C735 C739 1.400 . S
C736 H721 0.960 . S
C736 H722 0.960 . S
C736 H723 0.960 . S
C736 C735 1.524 . S
C737 C734 1.403 . S
C737 C738 1.392 . S
C737 C741 1.495 . S
C738 C737 1.392 . S
C738 C739 1.385 . S
C738 C740 1.478 . S
C739 H733 0.930 . S
C739 C735 1.400 . S
C739 C738 1.385 . S
C740 C738 1.478 . S
C740 C742 1.381 . S
C740 C746 1.383 . S
C741 C737 1.495 . S
C741 H747 0.959 . S
C741 H748 0.961 . S
C741 H749 0.960 . S
C742 C740 1.381 . S
C742 C743 1.394 . S
C742 H750 0.930 . S
C743 C742 1.394 . S
C743 C744 1.383 . S
C743 H751 0.929 . S
C744 C743 1.383 . S
C744 C745 1.377 . S
C745 H729 0.930 . S
C745 C744 1.377 . S
C745 C746 1.379 . S
C746 H730 0.931 . S
C746 C740 1.383 . S
C746 C745 1.379 . S
H747 C741 0.959 . S
H748 C741 0.961 . S
H749 C741 0.960 . S
H750 C742 0.930 . S
H751 C743 0.929 . S
H752 C760 0.929 . S
H753 C762 0.930 . S
H754 C764 0.930 . S
H755 C767 0.929 . S
H756 C770 0.930 . S
H757 C772 0.960 . S
H758 C772 0.960 . S
H759 C772 0.960 . S
C760 H752 0.929 . S
C760 C761 1.377 . S
C760 C762 1.384 . S
C761 C760 1.377 . S
C761 C767 1.390 . S
C762 H753 0.930 . S
C762 C760 1.384 . S
C762 C763 1.372 . S
C763 C762 1.372 . S
C763 C764 1.400 . S
C763 C768 1.490 . S
C764 H754 0.930 . S
C764 C763 1.400 . S
C764 C767 1.386 . S
H765 C781 0.930 . S
H766 C782 0.931 . S
C767 H755 0.929 . S
C767 C761 1.390 . S
C767 C764 1.386 . S
C768 C763 1.490 . S
C768 C770 1.395 . S
C768 C771 1.403 . S
H769 C775 0.930 . S
C770 H756 0.930 . S
C770 C768 1.395 . S
C770 C773 1.403 . S
C771 C768 1.403 . S
C771 C772 1.524 . S
C771 C775 1.400 . S
C772 H757 0.960 . S
C772 H758 0.960 . S
C772 H759 0.960 . S
C772 C771 1.524 . S
C773 C770 1.403 . S
C773 C774 1.392 . S
C773 C777 1.495 . S
C774 C773 1.392 . S
C774 C775 1.385 . S
C774 C776 1.478 . S
C775 H769 0.930 . S
C775 C771 1.400 . S
C775 C774 1.385 . S
C776 C774 1.478 . S
C776 C778 1.381 . S
C776 C782 1.383 . S
C777 C773 1.495 . S
C777 H783 0.959 . S
C777 H784 0.961 . S
C777 H785 0.960 . S
C778 C776 1.381 . S
C778 C779 1.394 . S
C778 H786 0.930 . S
C779 C778 1.394 . S
C779 C780 1.383 . S
C779 H787 0.929 . S
C780 C779 1.383 . S
C780 C781 1.377 . S
C781 H765 0.930 . S
C781 C780 1.377 . S
C781 C782 1.379 . S
C782 H766 0.931 . S
C782 C776 1.383 . S
C782 C781 1.379 . S
H783 C777 0.959 . S
H784 C777 0.961 . S
H785 C777 0.960 . S
H786 C778 0.930 . S
H787 C779 0.929 . S
H788 C796 0.929 . S
H789 C798 0.930 . S
H790 C800 0.930 . S
H791 C803 0.929 . S
H792 C806 0.930 . S
H793 C808 0.960 . S
H794 C808 0.960 . S
H795 C808 0.960 . S
C796 H788 0.929 . S
C796 C797 1.377 . S
C796 C798 1.384 . S
C797 C796 1.377 . S
C797 C803 1.390 . S
C798 H789 0.930 . S
C798 C796 1.384 . S
C798 C799 1.372 . S
C799 C798 1.372 . S
C799 C800 1.400 . S
C799 C804 1.490 . S
C800 H790 0.930 . S
C800 C799 1.400 . S
C800 C803 1.386 . S
H801 C817 0.930 . S
H802 C818 0.931 . S
C803 H791 0.929 . S
C803 C797 1.390 . S
C803 C800 1.386 . S
C804 C799 1.490 . S
C804 C806 1.395 . S
C804 C807 1.403 . S
H805 C811 0.930 . S
C806 H792 0.930 . S
C806 C804 1.395 . S
C806 C809 1.403 . S
C807 C804 1.403 . S
C807 C808 1.524 . S
C807 C811 1.400 . S
C808 H793 0.960 . S
C808 H794 0.960 . S
C808 H795 0.960 . S
C808 C807 1.524 . S
C809 C806 1.403 . S
C809 C810 1.392 . S
C809 C813 1.495 . S
C810 C809 1.392 . S
C810 C811 1.385 . S
C810 C812 1.478 . S
C811 H805 0.930 . S
C811 C807 1.400 . S
C811 C810 1.385 . S
C812 C810 1.478 . S
C812 C814 1.381 . S
C812 C818 1.383 . S
C813 C809 1.495 . S
C813 H819 0.959 . S
C813 H820 0.961 . S
C813 H821 0.960 . S
C814 C812 1.381 . S
C814 C815 1.394 . S
C814 H822 0.930 . S
C815 C814 1.394 . S
C815 C816 1.383 . S
C815 H823 0.929 . S
C816 C815 1.383 . S
C816 C817 1.377 . S
C817 H801 0.930 . S
C817 C816 1.377 . S
C817 C818 1.379 . S
C818 H802 0.931 . S
C818 C812 1.383 . S
C818 C817 1.379 . S
H819 C813 0.959 . S
H820 C813 0.961 . S
H821 C813 0.960 . S
H822 C814 0.930 . S
H823 C815 0.929 . S
H824 C832 0.929 . S
H825 C834 0.930 . S
H826 C836 0.930 . S
H827 C839 0.929 . S
H828 C842 0.930 . S
H829 C844 0.960 . S
H830 C844 0.960 . S
H831 C844 0.960 . S
C832 H824 0.929 . S
C832 C833 1.377 . S
C832 C834 1.384 . S
C833 C832 1.377 . S
C833 C839 1.390 . S
C834 H825 0.930 . S
C834 C832 1.384 . S
C834 C835 1.372 . S
C835 C834 1.372 . S
C835 C836 1.400 . S
C835 C840 1.490 . S
C836 H826 0.930 . S
C836 C835 1.400 . S
C836 C839 1.386 . S
H837 C853 0.930 . S
H838 C854 0.931 . S
C839 H827 0.929 . S
C839 C833 1.390 . S
C839 C836 1.386 . S
C840 C835 1.490 . S
C840 C842 1.395 . S
C840 C843 1.403 . S
H841 C847 0.930 . S
C842 H828 0.930 . S
C842 C840 1.395 . S
C842 C845 1.403 . S
C843 C840 1.403 . S
C843 C844 1.524 . S
C843 C847 1.400 . S
C844 H829 0.960 . S
C844 H830 0.960 . S
C844 H831 0.960 . S
C844 C843 1.524 . S
C845 C842 1.403 . S
C845 C846 1.392 . S
C845 C849 1.495 . S
C846 C845 1.392 . S
C846 C847 1.385 . S
C846 C848 1.478 . S
C847 H841 0.930 . S
C847 C843 1.400 . S
C847 C846 1.385 . S
C848 C846 1.478 . S
C848 C850 1.381 . S
C848 C854 1.383 . S
C849 C845 1.495 . S
C849 H855 0.959 . S
C849 H856 0.961 . S
C849 H857 0.960 . S
C850 C848 1.381 . S
C850 C851 1.394 . S
C850 H858 0.930 . S
C851 C850 1.394 . S
C851 C852 1.383 . S
C851 H859 0.929 . S
C852 C851 1.383 . S
C852 C853 1.377 . S
C853 H837 0.930 . S
C853 C852 1.377 . S
C853 C854 1.379 . S
C854 H838 0.931 . S
C854 C848 1.383 . S
C854 C853 1.379 . S
H855 C849 0.959 . S
H856 C849 0.961 . S
H857 C849 0.960 . S
H858 C850 0.930 . S
H859 C851 0.929 . S
H860 C868 0.929 . S
H861 C870 0.930 . S
H862 C872 0.930 . S
H863 C875 0.929 . S
H864 C878 0.930 . S
H865 C880 0.960 . S
H866 C880 0.960 . S
H867 C880 0.960 . S
C868 H860 0.929 . S
C868 C869 1.377 . S
C868 C870 1.384 . S
C869 C868 1.377 . S
C869 C875 1.390 . S
C870 H861 0.930 . S
C870 C868 1.384 . S
C870 C871 1.372 . S
C871 C870 1.372 . S
C871 C872 1.400 . S
C871 C876 1.490 . S
C872 H862 0.930 . S
C872 C871 1.400 . S
C872 C875 1.386 . S
H873 C889 0.930 . S
H874 C890 0.931 . S
C875 H863 0.929 . S
C875 C869 1.390 . S
C875 C872 1.386 . S
C876 C871 1.490 . S
C876 C878 1.395 . S
C876 C879 1.403 . S
H877 C883 0.930 . S
C878 H864 0.930 . S
C878 C876 1.395 . S
C878 C881 1.403 . S
C879 C876 1.403 . S
C879 C880 1.524 . S
C879 C883 1.400 . S
C880 H865 0.960 . S
C880 H866 0.960 . S
C880 H867 0.960 . S
C880 C879 1.524 . S
C881 C878 1.403 . S
C881 C882 1.392 . S
C881 C885 1.495 . S
C882 C881 1.392 . S
C882 C883 1.385 . S
C882 C884 1.478 . S
C883 H877 0.930 . S
C883 C879 1.400 . S
C883 C882 1.385 . S
C884 C882 1.478 . S
C884 C886 1.381 . S
C884 C890 1.383 . S
C885 C881 1.495 . S
C885 H891 0.959 . S
C885 H892 0.961 . S
C885 H893 0.960 . S
C886 C884 1.381 . S
C886 C887 1.394 . S
C886 H894 0.930 . S
C887 C886 1.394 . S
C887 C888 1.383 . S
C887 H895 0.929 . S
C888 C887 1.383 . S
C888 C889 1.377 . S
C889 H873 0.930 . S
C889 C888 1.377 . S
C889 C890 1.379 . S
C890 H874 0.931 . S
C890 C884 1.383 . S
C890 C889 1.379 . S
H891 C885 0.959 . S
H892 C885 0.961 . S
H893 C885 0.960 . S
H894 C886 0.930 . S
H895 C887 0.929 . S
H896 C904 0.929 . S
H897 C906 0.930 . S
H898 C908 0.930 . S
H899 C911 0.929 . S
H900 C914 0.930 . S
H901 C916 0.960 . S
H902 C916 0.960 . S
H903 C916 0.960 . S
C904 H896 0.929 . S
C904 C905 1.377 . S
C904 C906 1.384 . S
C905 C904 1.377 . S
C905 C911 1.390 . S
C906 H897 0.930 . S
C906 C904 1.384 . S
C906 C907 1.372 . S
C907 C906 1.372 . S
C907 C908 1.400 . S
C907 C912 1.490 . S
C908 H898 0.930 . S
C908 C907 1.400 . S
C908 C911 1.386 . S
H909 C925 0.930 . S
H910 C926 0.931 . S
C911 H899 0.929 . S
C911 C905 1.390 . S
C911 C908 1.386 . S
C912 C907 1.490 . S
C912 C914 1.395 . S
C912 C915 1.403 . S
H913 C919 0.930 . S
C914 H900 0.930 . S
C914 C912 1.395 . S
C914 C917 1.403 . S
C915 C912 1.403 . S
C915 C916 1.524 . S
C915 C919 1.400 . S
C916 H901 0.960 . S
C916 H902 0.960 . S
C916 H903 0.960 . S
C916 C915 1.524 . S
C917 C914 1.403 . S
C917 C918 1.392 . S
C917 C921 1.495 . S
C918 C917 1.392 . S
C918 C919 1.385 . S
C918 C920 1.478 . S
C919 H913 0.930 . S
C919 C915 1.400 . S
C919 C918 1.385 . S
C920 C918 1.478 . S
C920 C922 1.381 . S
C920 C926 1.383 . S
C921 C917 1.495 . S
C921 H927 0.959 . S
C921 H928 0.961 . S
C921 H929 0.960 . S
C922 C920 1.381 . S
C922 C923 1.394 . S
C922 H930 0.930 . S
C923 C922 1.394 . S
C923 C924 1.383 . S
C923 H931 0.929 . S
C924 C923 1.383 . S
C924 C925 1.377 . S
C925 H909 0.930 . S
C925 C924 1.377 . S
C925 C926 1.379 . S
C926 H910 0.931 . S
C926 C920 1.383 . S
C926 C925 1.379 . S
H927 C921 0.959 . S
H928 C921 0.961 . S
H929 C921 0.960 . S
H930 C922 0.930 . S
H931 C923 0.929 . S
H932 C940 0.929 . S
H933 C942 0.930 . S
H934 C944 0.930 . S
H935 C947 0.929 . S
H936 C950 0.930 . S
H937 C952 0.960 . S
H938 C952 0.960 . S
H939 C952 0.960 . S
C940 H932 0.929 . S
C940 C941 1.377 . S
C940 C942 1.384 . S
C941 C940 1.377 . S
C941 C947 1.390 . S
C942 H933 0.930 . S
C942 C940 1.384 . S
C942 C943 1.372 . S
C943 C942 1.372 . S
C943 C944 1.400 . S
C943 C948 1.490 . S
C944 H934 0.930 . S
C944 C943 1.400 . S
C944 C947 1.386 . S
H945 C961 0.930 . S
H946 C962 0.931 . S
C947 H935 0.929 . S
C947 C941 1.390 . S
C947 C944 1.386 . S
C948 C943 1.490 . S
C948 C950 1.395 . S
C948 C951 1.403 . S
H949 C955 0.930 . S
C950 H936 0.930 . S
C950 C948 1.395 . S
C950 C953 1.403 . S
C951 C948 1.403 . S
C951 C952 1.524 . S
C951 C955 1.400 . S
C952 H937 0.960 . S
C952 H938 0.960 . S
C952 H939 0.960 . S
C952 C951 1.524 . S
C953 C950 1.403 . S
C953 C954 1.392 . S
C953 C957 1.495 . S
C954 C953 1.392 . S
C954 C955 1.385 . S
C954 C956 1.478 . S
C955 H949 0.930 . S
C955 C951 1.400 . S
C955 C954 1.385 . S
C956 C954 1.478 . S
C956 C958 1.381 . S
C956 C962 1.383 . S
C957 C953 1.495 . S
C957 H963 0.959 . S
C957 H964 0.961 . S
C957 H965 0.960 . S
C958 C956 1.381 . S
C958 C959 1.394 . S
C958 H966 0.930 . S
C959 C958 1.394 . S
C959 C960 1.383 . S
C959 H967 0.929 . S
C960 C959 1.383 . S
C960 C961 1.377 . S
C961 H945 0.930 . S
C961 C960 1.377 . S
C961 C962 1.379 . S
C962 H946 0.931 . S
C962 C956 1.383 . S
C962 C961 1.379 . S
H963 C957 0.959 . S
H964 C957 0.961 . S
H965 C957 0.960 . S
H966 C958 0.930 . S
H967 C959 0.929 . S
H968 C976 0.929 . S
H969 C978 0.930 . S
H970 C980 0.930 . S
H971 C983 0.929 . S
H972 C986 0.930 . S
H973 C988 0.960 . S
H974 C988 0.960 . S
H975 C988 0.960 . S
C976 H968 0.929 . S
C976 C977 1.377 . S
C976 C978 1.384 . S
C977 C976 1.377 . S
C977 C983 1.390 . S
C978 H969 0.930 . S
C978 C976 1.384 . S
C978 C979 1.372 . S
C979 C978 1.372 . S
C979 C980 1.400 . S
C979 C984 1.490 . S
C980 H970 0.930 . S
C980 C979 1.400 . S
C980 C983 1.386 . S
H981 C997 0.930 . S
H982 C998 0.931 . S
C983 H971 0.929 . S
C983 C977 1.390 . S
C983 C980 1.386 . S
C984 C979 1.490 . S
C984 C986 1.395 . S
C984 C987 1.403 . S
H985 C991 0.930 . S
C986 H972 0.930 . S
C986 C984 1.395 . S
C986 C989 1.403 . S
C987 C984 1.403 . S
C987 C988 1.524 . S
C987 C991 1.400 . S
C988 H973 0.960 . S
C988 H974 0.960 . S
C988 H975 0.960 . S
C988 C987 1.524 . S
C989 C986 1.403 . S
C989 C990 1.392 . S
C989 C993 1.495 . S
C990 C989 1.392 . S
C990 C991 1.385 . S
C990 C992 1.478 . S
C991 H985 0.930 . S
C991 C987 1.400 . S
C991 C990 1.385 . S
C992 C990 1.478 . S
C992 C994 1.381 . S
C992 C998 1.383 . S
C993 C989 1.495 . S
C993 H999 0.959 . S
C993 H1000 0.961 . S
C993 H1001 0.960 . S
C994 C992 1.381 . S
C994 C995 1.394 . S
C994 H1002 0.930 . S
C995 C994 1.394 . S
C995 C996 1.383 . S
C995 H1003 0.929 . S
C996 C995 1.383 . S
C996 C997 1.377 . S
C997 H981 0.930 . S
C997 C996 1.377 . S
C997 C998 1.379 . S
C998 H982 0.931 . S
C998 C992 1.383 . S
C998 C997 1.379 . S
H999 C993 0.959 . S
H1000 C993 0.961 . S
H1001 C993 0.960 . S
H1002 C994 0.930 . S
H1003 C995 0.929 . S
H1004 C1012 0.929 . S
H1005 C1014 0.930 . S
H1006 C1016 0.930 . S
H1007 C1019 0.929 . S
H1008 C1022 0.930 . S
H1009 C1024 0.960 . S
H1010 C1024 0.960 . S
H1011 C1024 0.960 . S
C1012 H1004 0.929 . S
C1012 C1013 1.377 . S
C1012 C1014 1.384 . S
C1013 C1012 1.377 . S
C1013 C1019 1.390 . S
C1014 H1005 0.930 . S
C1014 C1012 1.384 . S
C1014 C1015 1.372 . S
C1015 C1014 1.372 . S
C1015 C1016 1.400 . S
C1015 C1020 1.490 . S
C1016 H1006 0.930 . S
C1016 C1015 1.400 . S
C1016 C1019 1.386 . S
H1017 C1033 0.930 . S
H1018 C1034 0.931 . S
C1019 H1007 0.929 . S
C1019 C1013 1.390 . S
C1019 C1016 1.386 . S
C1020 C1015 1.490 . S
C1020 C1022 1.395 . S
C1020 C1023 1.403 . S
H1021 C1027 0.930 . S
C1022 H1008 0.930 . S
C1022 C1020 1.395 . S
C1022 C1025 1.403 . S
C1023 C1020 1.403 . S
C1023 C1024 1.524 . S
C1023 C1027 1.400 . S
C1024 H1009 0.960 . S
C1024 H1010 0.960 . S
C1024 H1011 0.960 . S
C1024 C1023 1.524 . S
C1025 C1022 1.403 . S
C1025 C1026 1.392 . S
C1025 C1029 1.495 . S
C1026 C1025 1.392 . S
C1026 C1027 1.385 . S
C1026 C1028 1.478 . S
C1027 H1021 0.930 . S
C1027 C1023 1.400 . S
C1027 C1026 1.385 . S
C1028 C1026 1.478 . S
C1028 C1030 1.381 . S
C1028 C1034 1.383 . S
C1029 C1025 1.495 . S
C1029 H1035 0.959 . S
C1029 H1036 0.961 . S
C1029 H1037 0.960 . S
C1030 C1028 1.381 . S
C1030 C1031 1.394 . S
C1030 H1038 0.930 . S
C1031 C1030 1.394 . S
C1031 C1032 1.383 . S
C1031 H1039 0.929 . S
C1032 C1031 1.383 . S
C1032 C1033 1.377 . S
C1033 H1017 0.930 . S
C1033 C1032 1.377 . S
C1033 C1034 1.379 . S
C1034 H1018 0.931 . S
C1034 C1028 1.383 . S
C1034 C1033 1.379 . S
H1035 C1029 0.959 . S
H1036 C1029 0.961 . S
H1037 C1029 0.960 . S
H1038 C1030 0.930 . S
H1039 C1031 0.929 . S
H1040 C1048 0.929 . S
H1041 C1050 0.930 . S
H1042 C1052 0.930 . S
H1043 C1055 0.929 . S
H1044 C1058 0.930 . S
H1045 C1060 0.960 . S
H1046 C1060 0.960 . S
H1047 C1060 0.960 . S
C1048 H1040 0.929 . S
C1048 C1049 1.377 . S
C1048 C1050 1.384 . S
C1049 C1048 1.377 . S
C1049 C1055 1.390 . S
C1050 H1041 0.930 . S
C1050 C1048 1.384 . S
C1050 C1051 1.372 . S
C1051 C1050 1.372 . S
C1051 C1052 1.400 . S
C1051 C1056 1.490 . S
C1052 H1042 0.930 . S
C1052 C1051 1.400 . S
C1052 C1055 1.386 . S
H1053 C1069 0.930 . S
H1054 C1070 0.931 . S
C1055 H1043 0.929 . S
C1055 C1049 1.390 . S
C1055 C1052 1.386 . S
C1056 C1051 1.490 . S
C1056 C1058 1.395 . S
C1056 C1059 1.403 . S
H1057 C1063 0.930 . S
C1058 H1044 0.930 . S
C1058 C1056 1.395 . S
C1058 C1061 1.403 . S
C1059 C1056 1.403 . S
C1059 C1060 1.524 . S
C1059 C1063 1.400 . S
C1060 H1045 0.960 . S
C1060 H1046 0.960 . S
C1060 H1047 0.960 . S
C1060 C1059 1.524 . S
C1061 C1058 1.403 . S
C1061 C1062 1.392 . S
C1061 C1065 1.495 . S
C1062 C1061 1.392 . S
C1062 C1063 1.385 . S
C1062 C1064 1.478 . S
C1063 H1057 0.930 . S
C1063 C1059 1.400 . S
C1063 C1062 1.385 . S
C1064 C1062 1.478 . S
C1064 C1066 1.381 . S
C1064 C1070 1.383 . S
C1065 C1061 1.495 . S
C1065 H1071 0.959 . S
C1065 H1072 0.961 . S
C1065 H1073 0.960 . S
C1066 C1064 1.381 . S
C1066 C1067 1.394 . S
C1066 H1074 0.930 . S
C1067 C1066 1.394 . S
C1067 C1068 1.383 . S
C1067 H1075 0.929 . S
C1068 C1067 1.383 . S
C1068 C1069 1.377 . S
C1069 H1053 0.930 . S
C1069 C1068 1.377 . S
C1069 C1070 1.379 . S
C1070 H1054 0.931 . S
C1070 C1064 1.383 . S
C1070 C1069 1.379 . S
H1071 C1065 0.959 . S
H1072 C1065 0.961 . S
H1073 C1065 0.960 . S
H1074 C1066 0.930 . S
H1075 C1067 0.929 . S
H1076 C1084 0.929 . S
H1077 C1086 0.930 . S
H1078 C1088 0.930 . S
H1079 C1091 0.929 . S
H1080 C1094 0.930 . S
H1081 C1096 0.960 . S
H1082 C1096 0.960 . S
H1083 C1096 0.960 . S
C1084 H1076 0.929 . S
C1084 C1085 1.377 . S
C1084 C1086 1.384 . S
C1085 C1084 1.377 . S
C1085 C1091 1.390 . S
C1086 H1077 0.930 . S
C1086 C1084 1.384 . S
C1086 C1087 1.372 . S
C1087 C1086 1.372 . S
C1087 C1088 1.400 . S
C1087 C1092 1.490 . S
C1088 H1078 0.930 . S
C1088 C1087 1.400 . S
C1088 C1091 1.386 . S
H1089 C1105 0.930 . S
H1090 C1106 0.931 . S
C1091 H1079 0.929 . S
C1091 C1085 1.390 . S
C1091 C1088 1.386 . S
C1092 C1087 1.490 . S
C1092 C1094 1.395 . S
C1092 C1095 1.403 . S
H1093 C1099 0.930 . S
C1094 H1080 0.930 . S
C1094 C1092 1.395 . S
C1094 C1097 1.403 . S
C1095 C1092 1.403 . S
C1095 C1096 1.524 . S
C1095 C1099 1.400 . S
C1096 H1081 0.960 . S
C1096 H1082 0.960 . S
C1096 H1083 0.960 . S
C1096 C1095 1.524 . S
C1097 C1094 1.403 . S
C1097 C1098 1.392 . S
C1097 C1101 1.495 . S
C1098 C1097 1.392 . S
C1098 C1099 1.385 . S
C1098 C1100 1.478 . S
C1099 H1093 0.930 . S
C1099 C1095 1.400 . S
C1099 C1098 1.385 . S
C1100 C1098 1.478 . S
C1100 C1102 1.381 . S
C1100 C1106 1.383 . S
C1101 C1097 1.495 . S
C1101 H1107 0.959 . S
C1101 H1108 0.961 . S
C1101 H1109 0.960 . S
C1102 C1100 1.381 . S
C1102 C1103 1.394 . S
C1102 H1110 0.930 . S
C1103 C1102 1.394 . S
C1103 C1104 1.383 . S
C1103 H1111 0.929 . S
C1104 C1103 1.383 . S
C1104 C1105 1.377 . S
C1105 H1089 0.930 . S
C1105 C1104 1.377 . S
C1105 C1106 1.379 . S
C1106 H1090 0.931 . S
C1106 C1100 1.383 . S
C1106 C1105 1.379 . S
H1107 C1101 0.959 . S
H1108 C1101 0.961 . S
H1109 C1101 0.960 . S
H1110 C1102 0.930 . S
H1111 C1103 0.929 . S
H1112 C1120 0.929 . S
H1113 C1122 0.930 . S
H1114 C1124 0.930 . S
H1115 C1127 0.929 . S
H1116 C1130 0.930 . S
H1117 C1132 0.960 . S
H1118 C1132 0.960 . S
H1119 C1132 0.960 . S
C1120 H1112 0.929 . S
C1120 C1121 1.377 . S
C1120 C1122 1.384 . S
C1121 C1120 1.377 . S
C1121 C1127 1.390 . S
C1122 H1113 0.930 . S
C1122 C1120 1.384 . S
C1122 C1123 1.372 . S
C1123 C1122 1.372 . S
C1123 C1124 1.400 . S
C1123 C1128 1.490 . S
C1124 H1114 0.930 . S
C1124 C1123 1.400 . S
C1124 C1127 1.386 . S
H1125 C1141 0.930 . S
H1126 C1142 0.931 . S
C1127 H1115 0.929 . S
C1127 C1121 1.390 . S
C1127 C1124 1.386 . S
C1128 C1123 1.490 . S
C1128 C1130 1.395 . S
C1128 C1131 1.403 . S
H1129 C1135 0.930 . S
C1130 H1116 0.930 . S
C1130 C1128 1.395 . S
C1130 C1133 1.403 . S
C1131 C1128 1.403 . S
C1131 C1132 1.524 . S
C1131 C1135 1.400 . S
C1132 H1117 0.960 . S
C1132 H1118 0.960 . S
C1132 H1119 0.960 . S
C1132 C1131 1.524 . S
C1133 C1130 1.403 . S
C1133 C1134 1.392 . S
C1133 C1137 1.495 . S
C1134 C1133 1.392 . S
C1134 C1135 1.385 . S
C1134 C1136 1.478 . S
C1135 H1129 0.930 . S
C1135 C1131 1.400 . S
C1135 C1134 1.385 . S
C1136 C1134 1.478 . S
C1136 C1138 1.381 . S
C1136 C1142 1.383 . S
C1137 C1133 1.495 . S
C1137 H1143 0.959 . S
C1137 H1144 0.961 . S
C1137 H1145 0.960 . S
C1138 C1136 1.381 . S
C1138 C1139 1.394 . S
C1138 H1146 0.930 . S
C1139 C1138 1.394 . S
C1139 C1140 1.383 . S
C1139 H1147 0.929 . S
C1140 C1139 1.383 . S
C1140 C1141 1.377 . S
C1141 H1125 0.930 . S
C1141 C1140 1.377 . S
C1141 C1142 1.379 . S
C1142 H1126 0.931 . S
C1142 C1136 1.383 . S
C1142 C1141 1.379 . S
H1143 C1137 0.959 . S
H1144 C1137 0.961 . S
H1145 C1137 0.960 . S
H1146 C1138 0.930 . S
H1147 C1139 0.929 . S
H1148 C1156 0.929 . S
H1149 C1158 0.930 . S
H1150 C1160 0.930 . S
H1151 C1163 0.929 . S
H1152 C1166 0.930 . S
H1153 C1168 0.960 . S
H1154 C1168 0.960 . S
H1155 C1168 0.960 . S
C1156 H1148 0.929 . S
C1156 C1157 1.377 . S
C1156 C1158 1.384 . S
C1157 C1156 1.377 . S
C1157 C1163 1.390 . S
C1158 H1149 0.930 . S
C1158 C1156 1.384 . S
C1158 C1159 1.372 . S
C1159 C1158 1.372 . S
C1159 C1160 1.400 . S
C1159 C1164 1.490 . S
C1160 H1150 0.930 . S
C1160 C1159 1.400 . S
C1160 C1163 1.386 . S
H1161 C1177 0.930 . S
H1162 C1178 0.931 . S
C1163 H1151 0.929 . S
C1163 C1157 1.390 . S
C1163 C1160 1.386 . S
C1164 C1159 1.490 . S
C1164 C1166 1.395 . S
C1164 C1167 1.403 . S
H1165 C1171 0.930 . S
C1166 H1152 0.930 . S
C1166 C1164 1.395 . S
C1166 C1169 1.403 . S
C1167 C1164 1.403 . S
C1167 C1168 1.524 . S
C1167 C1171 1.400 . S
C1168 H1153 0.960 . S
C1168 H1154 0.960 . S
C1168 H1155 0.960 . S
C1168 C1167 1.524 . S
C1169 C1166 1.403 . S
C1169 C1170 1.392 . S
C1169 C1173 1.495 . S
C1170 C1169 1.392 . S
C1170 C1171 1.385 . S
C1170 C1172 1.478 . S
C1171 H1165 0.930 . S
C1171 C1167 1.400 . S
C1171 C1170 1.385 . S
C1172 C1170 1.478 . S
C1172 C1174 1.381 . S
C1172 C1178 1.383 . S
C1173 C1169 1.495 . S
C1173 H1179 0.959 . S
C1173 H1180 0.961 . S
C1173 H1181 0.960 . S
C1174 C1172 1.381 . S
C1174 C1175 1.394 . S
C1174 H1182 0.930 . S
C1175 C1174 1.394 . S
C1175 C1176 1.383 . S
C1175 H1183 0.929 . S
C1176 C1175 1.383 . S
C1176 C1177 1.377 . S
C1177 H1161 0.930 . S
C1177 C1176 1.377 . S
C1177 C1178 1.379 . S
C1178 H1162 0.931 . S
C1178 C1172 1.383 . S
C1178 C1177 1.379 . S
H1179 C1173 0.959 . S
H1180 C1173 0.961 . S
H1181 C1173 0.960 . S
H1182 C1174 0.930 . S
H1183 C1175 0.929 . S
H1184 C1192 0.929 . S
H1185 C1194 0.930 . S
H1186 C1196 0.930 . S
H1187 C1199 0.929 . S
H1188 C1202 0.930 . S
H1189 C1204 0.960 . S
H1190 C1204 0.960 . S
H1191 C1204 0.960 . S
C1192 H1184 0.929 . S
C1192 C1193 1.377 . S
C1192 C1194 1.384 . S
C1193 C1192 1.377 . S
C1193 C1199 1.390 . S
C1194 H1185 0.930 . S
C1194 C1192 1.384 . S
C1194 C1195 1.372 . S
C1195 C1194 1.372 . S
C1195 C1196 1.400 . S
C1195 C1200 1.490 . S
C1196 H1186 0.930 . S
C1196 C1195 1.400 . S
C1196 C1199 1.386 . S
H1197 C1213 0.930 . S
H1198 C1214 0.931 . S
C1199 H1187 0.929 . S
C1199 C1193 1.390 . S
C1199 C1196 1.386 . S
C1200 C1195 1.490 . S
C1200 C1202 1.395 . S
C1200 C1203 1.403 . S
H1201 C1207 0.930 . S
C1202 H1188 0.930 . S
C1202 C1200 1.395 . S
C1202 C1205 1.403 . S
C1203 C1200 1.403 . S
C1203 C1204 1.524 . S
C1203 C1207 1.400 . S
C1204 H1189 0.960 . S
C1204 H1190 0.960 . S
C1204 H1191 0.960 . S
C1204 C1203 1.524 . S
C1205 C1202 1.403 . S
C1205 C1206 1.392 . S
C1205 C1209 1.495 . S
C1206 C1205 1.392 . S
C1206 C1207 1.385 . S
C1206 C1208 1.478 . S
C1207 H1201 0.930 . S
C1207 C1203 1.400 . S
C1207 C1206 1.385 . S
C1208 C1206 1.478 . S
C1208 C1210 1.381 . S
C1208 C1214 1.383 . S
C1209 C1205 1.495 . S
C1209 H1215 0.959 . S
C1209 H1216 0.961 . S
C1209 H1217 0.960 . S
C1210 C1208 1.381 . S
C1210 C1211 1.394 . S
C1210 H1218 0.930 . S
C1211 C1210 1.394 . S
C1211 C1212 1.383 . S
C1211 H1219 0.929 . S
C1212 C1211 1.383 . S
C1212 C1213 1.377 . S
C1213 H1197 0.930 . S
C1213 C1212 1.377 . S
C1213 C1214 1.379 . S
C1214 H1198 0.931 . S
C1214 C1208 1.383 . S
C1214 C1213 1.379 . S
H1215 C1209 0.959 . S
H1216 C1209 0.961 . S
H1217 C1209 0.960 . S
H1218 C1210 0.930 . S
H1219 C1211 0.929 . S
H1220 C1228 0.929 . S
H1221 C1230 0.930 . S
H1222 C1232 0.930 . S
H1223 C1235 0.929 . S
H1224 C1238 0.930 . S
H1225 C1240 0.960 . S
H1226 C1240 0.960 . S
H1227 C1240 0.960 . S
C1228 H1220 0.929 . S
C1228 C1229 1.377 . S
C1228 C1230 1.384 . S
C1229 C1228 1.377 . S
C1229 C1235 1.390 . S
C1230 H1221 0.930 . S
C1230 C1228 1.384 . S
C1230 C1231 1.372 . S
C1231 C1230 1.372 . S
C1231 C1232 1.400 . S
C1231 C1236 1.490 . S
C1232 H1222 0.930 . S
C1232 C1231 1.400 . S
C1232 C1235 1.386 . S
H1233 C1249 0.930 . S
H1234 C1250 0.931 . S
C1235 H1223 0.929 . S
C1235 C1229 1.390 . S
C1235 C1232 1.386 . S
C1236 C1231 1.490 . S
C1236 C1238 1.395 . S
C1236 C1239 1.403 . S
H1237 C1243 0.930 . S
C1238 H1224 0.930 . S
C1238 C1236 1.395 . S
C1238 C1241 1.403 . S
C1239 C1236 1.403 . S
C1239 C1240 1.524 . S
C1239 C1243 1.400 . S
C1240 H1225 0.960 . S
C1240 H1226 0.960 . S
C1240 H1227 0.960 . S
C1240 C1239 1.524 . S
C1241 C1238 1.403 . S
C1241 C1242 1.392 . S
C1241 C1245 1.495 . S
C1242 C1241 1.392 . S
C1242 C1243 1.385 . S
C1242 C1244 1.478 . S
C1243 H1237 0.930 . S
C1243 C1239 1.400 . S
C1243 C1242 1.385 . S
C1244 C1242 1.478 . S
C1244 C1246 1.381 . S
C1244 C1250 1.383 . S
C1245 C1241 1.495 . S
C1245 H1251 0.959 . S
C1245 H1252 0.961 . S
C1245 H1253 0.960 . S
C1246 C1244 1.381 . S
C1246 C1247 1.394 . S
C1246 H1254 0.930 . S
C1247 C1246 1.394 . S
C1247 C1248 1.383 . S
C1247 H1255 0.929 . S
C1248 C1247 1.383 . S
C1248 C1249 1.377 . S
C1249 H1233 0.930 . S
C1249 C1248 1.377 . S
C1249 C1250 1.379 . S
C1250 H1234 0.931 . S
C1250 C1244 1.383 . S
C1250 C1249 1.379 . S
H1251 C1245 0.959 . S
H1252 C1245 0.961 . S
H1253 C1245 0.960 . S
H1254 C1246 0.930 . S
H1255 C1247 0.929 . S
C401 C1 1.526 . S
C420 C331 1.515 . S
C437 C40 1.319 . S
C456 C334 1.258 . S
C492 C370 1.732 . S
C473 C99 1.744 . S
C509 C118 1.636 . S
C528 C390 1.600 . S
C564 C344 1.733 . S
C545 C16 1.789 . S
C600 C321 1.540 . S
C581 C60 1.583 . S
C636 C374 1.526 . S
C617 C79 1.653 . S
C672 C354 1.321 . S
C653 C138 1.428 . S
C689 C21 1.348 . S
C708 C384 1.328 . S
C744 C350 1.569 . S
C725 C94 1.612 . S
C761 C133 1.641 . S
C780 C316 1.558 . S
C797 C55 1.348 . S
C816 C364 1.290 . S
C852 C330 1.500 . S
C833 C157 1.534 . S
C869 C196 1.319 . S
C888 C336 1.245 . S
C905 C255 1.746 . S
C924 C371 1.701 . S
C941 C289 1.628 . S
C960 C391 1.586 . S
C977 C172 1.785 . S
C996 C341 1.742 . S
C1032 C324 1.570 . S
C1013 C216 1.584 . S
C1068 C376 1.516 . S
C1049 C235 1.652 . S
C1104 C356 1.315 . S
C1085 C294 1.426 . S
C1121 C177 1.358 . S
C1140 C381 1.327 . S
C1176 C351 1.587 . S
C1157 C250 1.612 . S
C1212 C314 1.572 . S
C1193 C274 1.645 . S
C1229 C211 1.343 . S
C1248 C361 1.304 . S
