# Generated by pormake.
# Topology zzz, (3,6)-cn, num edge types: 1
# Building blocks:
#     Node 0, Type 0, BuildingBlock: BETDIP_clean_linker_0, # of connection points: 3
#     Node 1, Type 0, BuildingBlock: BETDIP_clean_linker_0, # of connection points: 3
#     Node 2, Type 0, BuildingBlock: BETDIP_clean_linker_0, # of connection points: 3
#     Node 3, Type 0, BuildingBlock: BETDIP_clean_linker_0, # of connection points: 3
#     Node 4, Type 0, BuildingBlock: BETDIP_clean_linker_0, # of connection points: 3
#     Node 5, Type 0, BuildingBlock: BETDIP_clean_linker_0, # of connection points: 3
#     Node 6, Type 0, BuildingBlock: BETDIP_clean_linker_0, # of connection points: 3
#     Node 7, Type 0, BuildingBlock: BETDIP_clean_linker_0, # of connection points: 3
#     Node 8, Type 1, BuildingBlock: LEVNOQ01_clean_sbu_1, # of connection points: 6
#     Node 9, Type 1, BuildingBlock: LEVNOQ01_clean_sbu_1, # of connection points: 6
#     Node 10, Type 1, BuildingBlock: LEVNOQ01_clean_sbu_1, # of connection points: 6
#     Node 11, Type 1, BuildingBlock: LEVNOQ01_clean_sbu_1, # of connection points: 6
#     Edge 12, Type (0, 1), BuildingBlock: MIFKUJ_clean_linker_0, # of connection points: 2
#     Edge 13, Type (0, 1), BuildingBlock: MIFKUJ_clean_linker_0, # of connection points: 2
#     Edge 14, Type (0, 1), BuildingBlock: MIFKUJ_clean_linker_0, # of connection points: 2
#     Edge 15, Type (0, 1), BuildingBlock: MIFKUJ_clean_linker_0, # of connection points: 2
#     Edge 16, Type (0, 1), BuildingBlock: MIFKUJ_clean_linker_0, # of connection points: 2
#     Edge 17, Type (0, 1), BuildingBlock: MIFKUJ_clean_linker_0, # of connection points: 2
#     Edge 18, Type (0, 1), BuildingBlock: MIFKUJ_clean_linker_0, # of connection points: 2
#     Edge 19, Type (0, 1), BuildingBlock: MIFKUJ_clean_linker_0, # of connection points: 2
#     Edge 20, Type (0, 1), BuildingBlock: MIFKUJ_clean_linker_0, # of connection points: 2
#     Edge 21, Type (0, 1), BuildingBlock: MIFKUJ_clean_linker_0, # of connection points: 2
#     Edge 22, Type (0, 1), BuildingBlock: MIFKUJ_clean_linker_0, # of connection points: 2
#     Edge 23, Type (0, 1), BuildingBlock: MIFKUJ_clean_linker_0, # of connection points: 2
#     Edge 24, Type (0, 1), BuildingBlock: MIFKUJ_clean_linker_0, # of connection points: 2
#     Edge 25, Type (0, 1), BuildingBlock: MIFKUJ_clean_linker_0, # of connection points: 2
#     Edge 26, Type (0, 1), BuildingBlock: MIFKUJ_clean_linker_0, # of connection points: 2
#     Edge 27, Type (0, 1), BuildingBlock: MIFKUJ_clean_linker_0, # of connection points: 2
#     Edge 28, Type (0, 1), BuildingBlock: MIFKUJ_clean_linker_0, # of connection points: 2
#     Edge 29, Type (0, 1), BuildingBlock: MIFKUJ_clean_linker_0, # of connection points: 2
#     Edge 30, Type (0, 1), BuildingBlock: MIFKUJ_clean_linker_0, # of connection points: 2
#     Edge 31, Type (0, 1), BuildingBlock: MIFKUJ_clean_linker_0, # of connection points: 2
#     Edge 32, Type (0, 1), BuildingBlock: MIFKUJ_clean_linker_0, # of connection points: 2
#     Edge 33, Type (0, 1), BuildingBlock: MIFKUJ_clean_linker_0, # of connection points: 2
#     Edge 34, Type (0, 1), BuildingBlock: MIFKUJ_clean_linker_0, # of connection points: 2
#     Edge 35, Type (0, 1), BuildingBlock: MIFKUJ_clean_linker_0, # of connection points: 2
# Relax obj value: 0.140
# Max RMSD: 0.184
# Mean RMSD: 0.106
data_MOF--net-zzz--node1-LEVNOQ01_clean_sbu_1--node2-BETDIP_clean_linker_0--edge1-MIFKUJ_clean_linker_0
_symmetry_space_group_name_H-M    P1
_symmetry_Int_Tables_number       1
_symmetry_cell_setting            triclinic
loop_
_symmetry_equiv_pos_as_xyz
'x, y, z'
_cell_length_a     65.153422
_cell_length_b     65.230505
_cell_length_c     20.386644
_cell_angle_alpha  90.074023
_cell_angle_beta   89.9428
_cell_angle_gamma 89.998764
loop_
_atom_site_label
_atom_site_type_symbol
_atom_site_fract_x
_atom_site_fract_y
_atom_site_fract_z
_atom_type_partial_charge
H0 H 0.77164 0.54319 0.26438 0.0
H1 H 0.76702 0.5589 0.05969 0.0
H2 H 0.82555 0.56045 0.15667 0.0
H3 H 0.73456 0.57888 0.15894 0.0
C4 C 0.73143 0.56311 0.1449 0.0
C5 C 0.77882 0.54824 0.21927 0.0
C6 C 0.79999 0.55244 0.21762 0.0
C7 C 0.76684 0.55128 0.16268 0.0
C8 C 0.77619 0.5574 0.10375 0.0
C9 C 0.79739 0.56078 0.10115 0.0
C10 C 0.80902 0.55855 0.15854 0.0
N11 N 0.74544 0.54755 0.16387 0.0
H12 H 0.95338 0.77152 0.28233 0.0
H13 H 0.96163 0.76551 0.07276 0.0
H14 H 0.96721 0.8243 0.16351 0.0
H15 H 0.93068 0.74343 0.10294 0.0
C16 C 0.94171 0.73442 0.13071 0.0
C17 C 0.95665 0.77827 0.23495 0.0
C18 C 0.9599 0.79958 0.22951 0.0
C19 C 0.95669 0.76589 0.17806 0.0
C20 C 0.96102 0.77481 0.11672 0.0
C21 C 0.96507 0.7957 0.11203 0.0
C22 C 0.9643 0.80797 0.168 0.0
N23 N 0.95245 0.74454 0.18209 0.0
H24 H 0.74815 0.97063 0.26346 0.0
H25 H 0.75663 0.95717 0.05756 0.0
H26 H 0.69609 0.96075 0.13707 0.0
H27 H 0.78249 0.93463 0.11846 0.0
C28 C 0.7893 0.94907 0.13401 0.0
C29 C 0.74179 0.9669 0.21585 0.0
C30 C 0.72029 0.96655 0.2067 0.0
C31 C 0.75506 0.96264 0.16257 0.0
C32 C 0.7467 0.95904 0.09983 0.0
C33 C 0.72552 0.95831 0.09123 0.0
C34 C 0.71256 0.96138 0.1448 0.0
N35 N 0.77675 0.96272 0.17097 0.0
H36 H 0.55432 0.75101 0.27801 0.0
H37 H 0.56353 0.75011 0.06824 0.0
H38 H 0.56222 0.69382 0.17588 0.0
H39 H 0.58723 0.77735 0.10987 0.0
C40 C 0.5738 0.78548 0.12809 0.0
C41 C 0.5571 0.74263 0.23297 0.0
C42 C 0.55815 0.72107 0.23372 0.0
C43 C 0.56018 0.75328 0.17364 0.0
C44 C 0.56261 0.74217 0.11483 0.0
C45 C 0.56352 0.72081 0.11571 0.0
C46 C 0.56189 0.71045 0.17537 0.0
N47 N 0.56057 0.77508 0.17246 0.0
H48 H 0.25075 0.46503 0.16399 0.0
H49 H 0.25487 0.46186 0.37441 0.0
H50 H 0.19894 0.44515 0.27812 0.0
H51 H 0.27378 0.49837 0.32011 0.0
C52 C 0.28343 0.48518 0.30938 0.0
C53 C 0.24399 0.46086 0.21069 0.0
C54 C 0.22335 0.45459 0.2139 0.0
C55 C 0.25552 0.46306 0.26848 0.0
C56 C 0.24635 0.4592 0.32957 0.0
C57 C 0.22601 0.4525 0.33309 0.0
C58 C 0.21495 0.44942 0.27502 0.0
N59 N 0.2761 0.46996 0.26547 0.0
H60 H 0.05631 0.25391 0.14199 0.0
H61 H 0.04904 0.25466 0.3522 0.0
H62 H 0.06528 0.19902 0.25506 0.0
H63 H 0.01941 0.27347 0.30405 0.0
C64 C 0.03044 0.28475 0.28674 0.0
C65 C 0.05782 0.24637 0.18904 0.0
C66 C 0.0626 0.22529 0.19186 0.0
C67 C 0.0533 0.25721 0.24715 0.0
C68 C 0.05359 0.24687 0.30759 0.0
C69 C 0.05759 0.22595 0.30994 0.0
C70 C 0.06319 0.21553 0.25286 0.0
N71 N 0.04642 0.27788 0.24451 0.0
H72 H 0.26614 0.0516 0.15185 0.0
H73 H 0.26737 0.06032 0.36137 0.0
H74 H 0.32042 0.07468 0.24586 0.0
H75 H 0.25273 0.02561 0.33974 0.0
C76 C 0.23991 0.03323 0.31581 0.0
C77 C 0.27382 0.0572 0.19546 0.0
C78 C 0.29411 0.06455 0.19145 0.0
C79 C 0.26402 0.05578 0.25685 0.0
C80 C 0.2746 0.06188 0.31373 0.0
C81 C 0.29496 0.06856 0.31028 0.0
C82 C 0.3043 0.07058 0.24876 0.0
N83 N 0.24429 0.0466 0.26249 0.0
H84 H 0.46796 0.26773 0.15978 0.0
H85 H 0.46096 0.26442 0.36976 0.0
H86 H 0.44477 0.31937 0.26803 0.0
H87 H 0.49488 0.24858 0.3408 0.0
C88 C 0.48607 0.23679 0.31561 0.0
C89 C 0.46257 0.27438 0.20537 0.0
C90 C 0.4553 0.29475 0.20661 0.0
C91 C 0.46423 0.26316 0.26409 0.0
C92 C 0.45878 0.27249 0.32386 0.0
C93 C 0.45178 0.29272 0.32537 0.0
C94 C 0.44916 0.30335 0.26643 0.0
N95 N 0.47286 0.24311 0.26398 0.0
O96 O 0.03296 0.9791 0.85204 0.0
Mg97 Mg 0.04434 0.98087 0.75541 0.0
O98 O 0.00449 0.98812 0.80335 0.0
Mg99 Mg 0.00991 0.01087 0.71946 0.0
O100 O 0.0455 0.00941 0.71541 0.0
O101 O 0.07358 0.99159 0.74131 0.0
O102 O 0.01534 0.03375 0.63602 0.0
O103 O 0.01296 0.03808 0.79249 0.0
Mg104 Mg 0.97544 0.04121 0.68492 0.0
O105 O 0.97421 0.01256 0.72421 0.0
O106 O 0.98675 0.0427 0.58801 0.0
O107 O 0.98956 0.06041 0.7578 0.0
O108 O 0.94616 0.03056 0.69917 0.0
C109 C 0.01596 0.96602 0.64359 0.0
C110 C 0.01359 0.97886 0.84976 0.0
C111 C 0.06536 0.00761 0.71522 0.0
C112 C 0.00611 0.04311 0.59008 0.0
C113 C 0.00419 0.0556 0.79628 0.0
C114 C 0.95434 0.01445 0.72485 0.0
O115 O 0.03042 0.96147 0.68307 0.0
O116 O 0.00708 0.98353 0.64618 0.0
O117 O 0.46135 0.98822 0.80684 0.0
Mg118 Mg 0.47574 0.97128 0.73062 0.0
O119 O 0.48201 0.01526 0.799 0.0
Mg120 Mg 0.50758 0.00762 0.7219 0.0
O121 O 0.50651 0.97273 0.74374 0.0
O122 O 0.48866 0.94351 0.74999 0.0
O123 O 0.53323 0.00038 0.6445 0.0
O124 O 0.53229 0.00699 0.80344 0.0
Mg125 Mg 0.53908 0.04297 0.72538 0.0
O126 O 0.50865 0.0427 0.70082 0.0
O127 O 0.55563 0.02604 0.65334 0.0
O128 O 0.54637 0.03688 0.82399 0.0
O129 O 0.52777 0.07121 0.70244 0.0
C130 C 0.46972 0.9956 0.61266 0.0
C131 C 0.46647 0.00622 0.8242 0.0
C132 C 0.50583 0.95319 0.7559 0.0
C133 C 0.55 0.00917 0.62788 0.0
C134 C 0.54425 0.01811 0.83772 0.0
C135 C 0.51049 0.06229 0.69064 0.0
O136 O 0.46666 0.97774 0.63463 0.0
O137 O 0.48269 0.0075 0.6401 0.0
O138 O 0.53236 0.45896 0.78309 0.0
Mg139 Mg 0.54448 0.47822 0.70941 0.0
O140 O 0.50641 0.48027 0.7955 0.0
Mg141 Mg 0.51207 0.50657 0.71843 0.0
O142 O 0.54855 0.50852 0.73425 0.0
O143 O 0.57382 0.48512 0.72451 0.0
O144 O 0.51596 0.5334 0.64351 0.0
O145 O 0.51247 0.53041 0.80417 0.0
Mg146 Mg 0.47454 0.53381 0.73557 0.0
O147 O 0.47683 0.5051 0.69931 0.0
O148 O 0.48909 0.55334 0.66561 0.0
O149 O 0.48094 0.5369 0.83546 0.0
O150 O 0.44686 0.52132 0.7124 0.0
C151 C 0.52198 0.47186 0.59672 0.0
C152 C 0.51571 0.46377 0.81125 0.0
C153 C 0.56802 0.50361 0.7372 0.0
C154 C 0.50544 0.54967 0.63337 0.0
C155 C 0.5 0.53869 0.84454 0.0
C156 C 0.45704 0.50564 0.69164 0.0
O157 O 0.54057 0.46963 0.61182 0.0
O158 O 0.51064 0.48327 0.63213 0.0
O159 O 0.98417 0.48259 0.8442 0.0
Mg160 Mg 0.98732 0.47728 0.7432 0.0
O161 O 0.98762 0.51304 0.80254 0.0
Mg162 Mg 0.01246 0.5118 0.72031 0.0
O163 O 0.0155 0.47598 0.70032 0.0
O164 O 0.99611 0.44832 0.72311 0.0
O165 O 0.03689 0.51088 0.63653 0.0
O166 O 0.03825 0.50704 0.79845 0.0
Mg167 Mg 0.03938 0.54524 0.70677 0.0
O168 O 0.00982 0.54781 0.73976 0.0
O169 O 0.04589 0.54176 0.60727 0.0
O170 O 0.0598 0.53217 0.77585 0.0
O171 O 0.03168 0.57427 0.72607 0.0
C172 C 0.96916 0.50541 0.63954 0.0
C173 C 0.98016 0.50145 0.84656 0.0
C174 C 0.01251 0.45621 0.69822 0.0
C175 C 0.04659 0.52271 0.59773 0.0
C176 C 0.05522 0.51628 0.80855 0.0
C177 C 0.01395 0.56739 0.74359 0.0
O178 O 0.96569 0.49022 0.67695 0.0
O179 O 0.98606 0.51536 0.64352 0.0
H180 H 0.2005 0.03708 0.26922 0.0
H181 H 0.16878 0.03719 0.33445 0.0
H182 H 0.20477 0.03422 0.51217 0.0
H183 H 0.23607 0.03246 0.44683 0.0
H184 H 0.1764 0.01016 0.52738 0.0
H185 H 0.1772 0.07933 0.451 0.0
H186 H 0.17861 0.10744 0.37042 0.0
H187 H 0.12291 0.0858 0.28173 0.0
H188 H 0.12134 0.05735 0.36119 0.0
H189 H 0.10052 0.02572 0.75548 0.0
H190 H 0.12852 0.03671 0.68384 0.0
H191 H 0.08949 0.02847 0.51502 0.0
H192 H 0.06104 0.01861 0.58736 0.0
H193 H 0.11779 0.057 0.49029 0.0
H194 H 0.11891 0.98836 0.57674 0.0
H195 H 0.11809 0.96277 0.6657 0.0
H196 H 0.17276 0.98879 0.74876 0.0
H197 H 0.17374 0.01471 0.66075 0.0
C198 C 0.20148 0.03652 0.32223 0.0
C199 C 0.22059 0.0347 0.35326 0.0
C200 C 0.18339 0.03675 0.35962 0.0
C201 C 0.18423 0.03598 0.4287 0.0
C202 C 0.20352 0.03468 0.4592 0.0
C203 C 0.22144 0.03375 0.42189 0.0
C204 C 0.16521 0.03552 0.46967 0.0
C205 C 0.16389 0.02089 0.52008 0.0
C206 C 0.14841 0.04899 0.45951 0.0
C207 C 0.1493 0.06605 0.41153 0.0
C208 C 0.16535 0.08045 0.41395 0.0
C209 C 0.16617 0.09647 0.36853 0.0
C210 C 0.1509 0.09836 0.32083 0.0
C211 C 0.13476 0.08428 0.3186 0.0
C212 C 0.1339 0.06821 0.36381 0.0
C213 C 0.09766 0.02724 0.70337 0.0
C214 C 0.07873 0.02125 0.67678 0.0
C215 C 0.11373 0.03324 0.66232 0.0
C216 C 0.11138 0.03251 0.59384 0.0
C217 C 0.09177 0.02883 0.56764 0.0
C218 C 0.07547 0.02334 0.60901 0.0
C219 C 0.12979 0.03293 0.55041 0.0
C220 C 0.13071 0.04699 0.4986 0.0
C221 C 0.14657 0.0195 0.56065 0.0
C222 C 0.14632 0.00353 0.61241 0.0
C223 C 0.13072 0.98864 0.61406 0.0
C224 C 0.13023 0.97409 0.66434 0.0
C225 C 0.14535 0.97417 0.7129 0.0
C226 C 0.16106 0.98875 0.71113 0.0
C227 C 0.1616 0.00335 0.66103 0.0
H228 H 0.14492 0.96292 0.75184 0.0
H229 H 0.15156 0.11078 0.28571 0.0
H230 H 0.48241 0.19748 0.26915 0.0
H231 H 0.47875 0.16613 0.3348 0.0
H232 H 0.47554 0.20286 0.5111 0.0
H233 H 0.48087 0.23376 0.44594 0.0
H234 H 0.4992 0.17466 0.53451 0.0
H235 H 0.43288 0.17488 0.43365 0.0
H236 H 0.40799 0.17565 0.34267 0.0
H237 H 0.43262 0.11929 0.26715 0.0
H238 H 0.45795 0.1184 0.3569 0.0
H239 H 0.48801 0.09306 0.74354 0.0
H240 H 0.47348 0.12164 0.68124 0.0
H241 H 0.48561 0.08915 0.50082 0.0
H242 H 0.49916 0.06019 0.56351 0.0
H243 H 0.45416 0.11543 0.484 0.0
H244 H 0.52305 0.11895 0.57841 0.0
H245 H 0.54764 0.11853 0.6704 0.0
H246 H 0.51619 0.16916 0.76026 0.0
H247 H 0.49126 0.16969 0.66917 0.0
C248 C 0.48076 0.1987 0.32188 0.0
C249 C 0.48197 0.21786 0.35282 0.0
C250 C 0.47847 0.18083 0.35945 0.0
C251 C 0.47656 0.18199 0.42826 0.0
C252 C 0.47707 0.20138 0.45839 0.0
C253 C 0.48007 0.21906 0.42119 0.0
C254 C 0.47568 0.16314 0.46977 0.0
C255 C 0.48894 0.16198 0.52394 0.0
C256 C 0.46273 0.1462 0.45571 0.0
C257 C 0.44745 0.14668 0.40175 0.0
C258 C 0.43311 0.16274 0.39736 0.0
C259 C 0.41891 0.16319 0.34599 0.0
C260 C 0.41876 0.14756 0.29906 0.0
C261 C 0.43279 0.13142 0.30345 0.0
C262 C 0.44707 0.13093 0.35457 0.0
C263 C 0.48642 0.09158 0.69084 0.0
C264 C 0.49452 0.07446 0.65816 0.0
C265 C 0.47838 0.10801 0.65515 0.0
C266 C 0.47915 0.10785 0.58621 0.0
C267 C 0.485 0.08973 0.5539 0.0
C268 C 0.49263 0.0731 0.58975 0.0
C269 C 0.47744 0.1273 0.54844 0.0
C270 C 0.46397 0.12844 0.49483 0.0
C271 C 0.49004 0.14441 0.56313 0.0
C272 C 0.5052 0.14422 0.61738 0.0
C273 C 0.52135 0.12993 0.61794 0.0
C274 C 0.53533 0.12967 0.66992 0.0
C275 C 0.53345 0.14378 0.72122 0.0
C276 C 0.51761 0.15822 0.72056 0.0
C277 C 0.50355 0.15851 0.66879 0.0
H278 H 0.54429 0.14355 0.76141 0.0
H279 H 0.40775 0.14793 0.25937 0.0
H280 H 0.30399 0.44925 0.3333 0.0
H281 H 0.33474 0.44471 0.4013 0.0
H282 H 0.33638 0.50976 0.43851 0.0
H283 H 0.30522 0.5143 0.37283 0.0
H284 H 0.37428 0.47056 0.37505 0.0
H285 H 0.33374 0.50916 0.55575 0.0
H286 H 0.30231 0.51106 0.62313 0.0
H287 H 0.30798 0.44714 0.66998 0.0
H288 H 0.33916 0.44481 0.6013 0.0
H289 H 0.45353 0.51208 0.56355 0.0
H290 H 0.42556 0.50008 0.49542 0.0
H291 H 0.40775 0.45726 0.64672 0.0
H292 H 0.43496 0.47095 0.71765 0.0
H293 H 0.37664 0.47651 0.61741 0.0
H294 H 0.4259 0.44436 0.47631 0.0
H295 H 0.45727 0.44174 0.40904 0.0
H296 H 0.43576 0.48982 0.2837 0.0
H297 H 0.40456 0.49333 0.35105 0.0
C298 C 0.31091 0.46256 0.35611 0.0
C299 C 0.30239 0.48218 0.34764 0.0
C300 C 0.32832 0.45991 0.39532 0.0
C301 C 0.33744 0.47682 0.42619 0.0
C302 C 0.32912 0.49643 0.41692 0.0
C303 C 0.31153 0.49905 0.37875 0.0
C304 C 0.35673 0.47438 0.46334 0.0
C305 C 0.37498 0.47182 0.42808 0.0
C306 C 0.35734 0.47533 0.53237 0.0
C307 C 0.33843 0.4767 0.57225 0.0
C308 C 0.32805 0.49544 0.5794 0.0
C309 C 0.31033 0.49662 0.61801 0.0
C310 C 0.30307 0.4792 0.65047 0.0
C311 C 0.31353 0.46058 0.64443 0.0
C312 C 0.33117 0.45931 0.60549 0.0
C313 C 0.44423 0.49941 0.58094 0.0
C314 C 0.44653 0.49214 0.64513 0.0
C315 C 0.42817 0.49245 0.54175 0.0
C316 C 0.41447 0.47748 0.56506 0.0
C317 C 0.41803 0.46882 0.62735 0.0
C318 C 0.43376 0.47635 0.66757 0.0
C319 C 0.3949 0.47352 0.52914 0.0
C320 C 0.37635 0.47479 0.5645 0.0
C321 C 0.3941 0.47137 0.45982 0.0
C322 C 0.41284 0.4691 0.41891 0.0
C323 C 0.42788 0.45445 0.43461 0.0
C324 C 0.44563 0.45279 0.39643 0.0
C325 C 0.44846 0.46547 0.34204 0.0
C326 C 0.43354 0.47995 0.32573 0.0
C327 C 0.41581 0.48179 0.3639 0.0
H328 H 0.46223 0.4641 0.31263 0.0
H329 H 0.2894 0.48016 0.68058 0.0
H330 H 0.03813 0.28412 0.41684 0.0
H331 H 0.04215 0.31337 0.49067 0.0
H332 H 0.03162 0.35453 0.32811 0.0
H333 H 0.02953 0.3251 0.25347 0.0
H334 H 0.05817 0.37052 0.39675 0.0
H335 H 0.99361 0.3393 0.45621 0.0
H336 H 0.97076 0.31144 0.49316 0.0
H337 H 0.00508 0.3061 0.67203 0.0
H338 H 0.02827 0.33378 0.6358 0.0
H339 H 0.01994 0.45797 0.56796 0.0
H340 H 0.03001 0.42898 0.4995 0.0
H341 H 0.04422 0.3939 0.67319 0.0
H342 H 0.03272 0.42258 0.74143 0.0
H343 H 0.01933 0.37344 0.60553 0.0
H344 H 0.08258 0.40878 0.53883 0.0
H345 H 0.10343 0.43667 0.49149 0.0
H346 H 0.06636 0.43599 0.31741 0.0
H347 H 0.04544 0.40802 0.36341 0.0
C348 C 0.037 0.29947 0.39701 0.0
C349 C 0.03365 0.30254 0.32978 0.0
C350 C 0.03899 0.3162 0.43935 0.0
C351 C 0.03664 0.33629 0.41567 0.0
C352 C 0.03349 0.33924 0.34793 0.0
C353 C 0.03225 0.32249 0.30521 0.0
C354 C 0.03757 0.35427 0.46083 0.0
C355 C 0.04947 0.37119 0.44213 0.0
C356 C 0.02675 0.35509 0.52116 0.0
C357 C 0.0128 0.33845 0.54295 0.0
C358 C 0.99636 0.33208 0.50322 0.0
C359 C 0.98334 0.31634 0.52407 0.0
C360 C 0.98651 0.30696 0.58481 0.0
C361 C 0.00267 0.31335 0.62494 0.0
C362 C 0.01575 0.32907 0.60429 0.0
C363 C 0.02615 0.44441 0.59127 0.0
C364 C 0.02583 0.44253 0.65977 0.0
C365 C 0.03193 0.42773 0.55206 0.0
C366 C 0.03801 0.40908 0.58082 0.0
C367 C 0.03952 0.40801 0.64956 0.0
C368 C 0.0332 0.42447 0.68865 0.0
C369 C 0.0396 0.38997 0.54063 0.0
C370 C 0.02821 0.37273 0.56054 0.0
C371 C 0.05036 0.38905 0.48039 0.0
C372 C 0.06243 0.40644 0.45467 0.0
C373 C 0.0788 0.41473 0.49074 0.0
C374 C 0.09065 0.43049 0.46398 0.0
C375 C 0.08611 0.43813 0.40157 0.0
C376 C 0.06979 0.43006 0.36574 0.0
C377 C 0.05801 0.41422 0.39197 0.0
H378 H 0.09527 0.45015 0.38021 0.0
H379 H 0.97641 0.29478 0.60086 0.0
H380 H 0.82287 0.97136 0.17378 0.0
H381 H 0.85296 0.98041 0.10702 0.0
H382 H 0.82379 0.9537 0.93685 0.0
H383 H 0.79476 0.94333 0.00471 0.0
H384 H 0.8592 0.9423 0.93134 0.0
H385 H 0.831 0.0086 0.9673 0.0
H386 H 0.81762 0.03852 0.02779 0.0
H387 H 0.87557 0.04557 0.12537 0.0
H388 H 0.88922 0.01551 0.06607 0.0
H389 H 0.91687 0.0001 0.6902 0.0
H390 H 0.89088 0.98564 0.76374 0.0
H391 H 0.93472 0.98557 0.92199 0.0
H392 H 0.96096 -0.00034 0.84793 0.0
H393 H 0.89448 0.00959 0.93742 0.0
H394 H 0.92114 0.94171 0.88124 0.0
H395 H 0.93112 0.91471 0.80245 0.0
H396 H 0.87057 0.91544 0.71969 0.0
H397 H 0.86022 0.94245 0.79779 0.0
C398 C 0.82298 0.96759 0.12202 0.0
C399 C 0.80666 0.95662 0.09417 0.0
C400 C 0.8401 0.97286 0.08364 0.0
C401 C 0.84077 0.96789 0.01629 0.0
C402 C 0.82396 0.95753 0.98856 0.0
C403 C 0.80727 0.95171 0.02724 0.0
C404 C 0.85918 0.97253 0.9749 0.0
C405 C 0.86669 0.95715 0.93261 0.0
C406 C 0.86932 0.99179 0.97614 0.0
C407 C 0.86104 0.00962 0.0129 0.0
C408 C 0.84082 0.01639 0.00219 0.0
C409 C 0.8332 0.03341 0.03614 0.0
C410 C 0.84571 0.04389 0.08058 0.0
C411 C 0.86588 0.0374 0.09107 0.0
C412 C 0.87357 0.02037 0.05729 0.0
C413 C 0.92116 0.99625 0.74002 0.0
C414 C 0.94097 0.0007 0.76323 0.0
C415 C 0.90629 0.98812 0.78203 0.0
C416 C 0.91087 0.98466 0.8483 0.0
C417 C 0.93093 0.98812 0.87093 0.0
C418 C 0.94596 0.99591 0.82846 0.0
C419 C 0.89412 0.97944 0.89469 0.0
C420 C 0.88696 0.99475 0.93738 0.0
C421 C 0.88371 0.96051 0.89169 0.0
C422 C 0.88995 0.94418 0.84512 0.0
C423 C 0.91 0.93619 0.84599 0.0
C424 C 0.91571 0.92087 0.80154 0.0
C425 C 0.90152 0.91343 0.75599 0.0
C426 C 0.88155 0.92122 0.75498 0.0
C427 C 0.87573 0.93649 0.79944 0.0
H428 H 0.90599 0.90159 0.72158 0.0
H429 H 0.83979 0.05708 0.10673 0.0
H430 H 0.55072 0.81832 0.17003 0.0
H431 H 0.5422 0.84913 0.1065 0.0
H432 H 0.57195 0.82285 0.9365 0.0
H433 H 0.58166 0.79301 0.00126 0.0
H434 H 0.5831 0.85851 0.93935 0.0
H435 H 0.51706 0.82866 0.95669 0.0
H436 H 0.48588 0.81369 0.00572 0.0
H437 H 0.47499 0.86944 0.11241 0.0
H438 H 0.50628 0.88466 0.06471 0.0
H439 H 0.52636 0.92073 0.70603 0.0
H440 H 0.54321 0.89431 0.77217 0.0
H441 H 0.53761 0.93273 0.94352 0.0
H442 H 0.52105 0.95931 0.87706 0.0
H443 H 0.51522 0.89277 0.94132 0.0
H444 H 0.58371 0.92134 0.90477 0.0
H445 H 0.61133 0.93374 0.83195 0.0
H446 H 0.61256 0.87556 0.73319 0.0
H447 H 0.58494 0.86283 0.80533 0.0
C448 C 0.55532 0.81923 0.11904 0.0
C449 C 0.56696 0.8035 0.09042 0.0
C450 C 0.55034 0.83674 0.08251 0.0
C451 C 0.55633 0.83841 0.01625 0.0
C452 C 0.56735 0.82221 0.98754 0.0
C453 C 0.57284 0.8051 0.02446 0.0
C454 C 0.55211 0.85731 0.97737 0.0
C455 C 0.56813 0.8658 0.93966 0.0
C456 C 0.53266 0.86705 0.97718 0.0
C457 C 0.51422 0.8577 0.00787 0.0
C458 C 0.50819 0.83764 0.99129 0.0
C459 C 0.49044 0.82913 0.01868 0.0
C460 C 0.47851 0.84057 0.06237 0.0
C461 C 0.48429 0.86056 0.07874 0.0
C462 C 0.50203 0.86914 0.05155 0.0
C463 C 0.52984 0.92396 0.75697 0.0
C464 C 0.52286 0.94213 0.7864 0.0
C465 C 0.53927 0.90882 0.79481 0.0
C466 C 0.54148 0.91157 0.86269 0.0
C467 C 0.53606 0.93041 0.89113 0.0
C468 C 0.52687 0.94566 0.85305 0.0
C469 C 0.54618 0.89375 0.90479 0.0
C470 C 0.53017 0.88545 0.94239 0.0
C471 C 0.56527 0.88365 0.90242 0.0
C472 C 0.58223 0.89116 0.8603 0.0
C473 C 0.58984 0.91122 0.86741 0.0
C474 C 0.60551 0.9183 0.8263 0.0
C475 C 0.61365 0.90546 0.77789 0.0
C476 C 0.60625 0.88548 0.77074 0.0
C477 C 0.59065 0.8783 0.81188 0.0
H478 H 0.62572 0.91099 0.74596 0.0
H479 H 0.46475 0.83398 0.08336 0.0
H480 H 0.69706 0.58585 0.13135 0.0
H481 H 0.66857 0.58039 0.05454 0.0
H482 H 0.69854 0.52626 0.97974 0.0
H483 H 0.72674 0.53122 0.05822 0.0
H484 H 0.68196 0.56023 0.88231 0.0
H485 H 0.66458 0.5122 0.05244 0.0
H486 H 0.6591 0.50126 0.16682 0.0
H487 H 0.61229 0.54706 0.1901 0.0
H488 H 0.61773 0.55846 0.07586 0.0
H489 H 0.6089 0.50094 0.71572 0.0
H490 H 0.63589 0.51807 0.77627 0.0
H491 H 0.59084 0.55625 0.8724 0.0
H492 H 0.56341 0.53876 0.81084 0.0
H493 H 0.61425 0.535 0.9594 0.0
H494 H 0.62849 0.57745 0.77407 0.0
H495 H 0.63443 0.58487 0.65701 0.0
H496 H 0.68791 0.54641 0.65828 0.0
H497 H 0.68214 0.53853 0.77511 0.0
C498 C 0.69742 0.57267 0.09898 0.0
C499 C 0.71389 0.55883 0.10113 0.0
C500 C 0.68125 0.56964 0.05505 0.0
C501 C 0.68158 0.55301 0.01147 0.0
C502 C 0.69811 0.53922 0.01302 0.0
C503 C 0.71406 0.54196 0.05818 0.0
C504 C 0.66437 0.5499 0.96526 0.0
C505 C 0.66715 0.55462 0.89878 0.0
C506 C 0.64503 0.54302 0.98738 0.0
C507 C 0.64179 0.53639 0.05609 0.0
C508 C 0.65331 0.52011 0.08224 0.0
C509 C 0.65016 0.51378 0.14693 0.0
C510 C 0.63541 0.52352 0.18581 0.0
C511 C 0.62375 0.53958 0.15996 0.0
C512 C 0.62685 0.54598 0.09524 0.0
C513 C 0.60468 0.51333 0.7485 0.0
C514 C 0.58394 0.51811 0.76024 0.0
C515 C 0.62022 0.52326 0.78283 0.0
C516 C 0.61545 0.53837 0.82933 0.0
C517 C 0.59486 0.5445 0.83706 0.0
C518 C 0.57921 0.53456 0.80203 0.0
C519 C 0.63167 0.54523 0.87559 0.0
C520 C 0.62883 0.54111 0.94259 0.0
C521 C 0.65104 0.55234 0.85346 0.0
C522 C 0.65482 0.55735 0.78341 0.0
C523 C 0.64146 0.5705 0.74932 0.0
C524 C 0.64481 0.57479 0.68299 0.0
C525 C 0.66153 0.5661 0.65021 0.0
C526 C 0.67498 0.55315 0.68375 0.0
C527 C 0.6717 0.5488 0.75009 0.0
H528 H 0.66407 0.56942 0.59884 0.0
H529 H 0.63298 0.51859 0.23588 0.0
H530 H 0.9564 0.73496 0.0071 0.0
H531 H 0.96903 0.70611 0.94238 0.0
H532 H 0.9589 0.66573 0.10694 0.0
H533 H 0.94789 0.69521 0.17373 0.0
H534 H 0.99146 0.65366 0.04258 0.0
H535 H 0.92241 0.67388 0.97138 0.0
H536 H 0.89753 0.69924 0.92962 0.0
H537 H 0.93512 0.70906 0.75938 0.0
H538 H 0.9603 0.68393 0.80047 0.0
H539 H 0.99142 0.56223 0.85535 0.0
H540 H 0.97705 0.59001 0.92299 0.0
H541 H 0.99183 0.63359 0.77105 0.0
H542 H 0.00613 0.60602 0.70408 0.0
H543 H 0.9562 0.64326 0.8294 0.0
H544 H 0.02447 0.62677 0.8902 0.0
H545 H 0.05309 0.60453 0.92444 0.0
H546 H 0.02179 0.59106 0.10475 0.0
H547 H 0.99276 0.61294 0.07095 0.0
C548 C 0.95729 0.71998 0.02977 0.0
C549 C 0.95115 0.71717 0.09508 0.0
C550 C 0.96426 0.70343 0.99254 0.0
C551 C 0.96415 0.68353 0.01878 0.0
C552 C 0.95889 0.68088 0.08524 0.0
C553 C 0.95258 0.69765 0.12336 0.0
C554 C 0.96862 0.66547 0.97622 0.0
C555 C 0.98342 0.65118 0.99667 0.0
C556 C 0.95879 0.66258 0.91476 0.0
C557 C 0.94324 0.6771 0.88914 0.0
C558 C 0.92534 0.68145 0.92505 0.0
C559 C 0.91121 0.69581 0.90154 0.0
C560 C 0.91475 0.70577 0.84193 0.0
C561 C 0.93239 0.70133 0.80553 0.0
C562 C 0.94656 0.68701 0.82883 0.0
C563 C 0.99082 0.57762 0.83563 0.0
C564 C -0.00019 0.58206 0.7747 0.0
C565 C 0.98294 0.59351 0.87457 0.0
C566 C 0.9838 0.61393 0.85253 0.0
C567 C 0.99112 0.618 0.78919 0.0
C568 C 0.99918 0.60224 0.75084 0.0
C569 C 0.97861 0.63128 0.89661 0.0
C570 C 0.96388 0.64553 0.87606 0.0
C571 C 0.98888 0.6344 0.95698 0.0
C572 C 0.00629 0.62124 0.97761 0.0
C573 C 0.02358 0.61889 0.93684 0.0
C574 C 0.03989 0.60638 0.9562 0.0
C575 C 0.03922 0.59632 0.01662 0.0
C576 C 0.02225 0.59881 0.05786 0.0
C577 C 0.00585 0.61125 0.03861 0.0
H578 H 0.05188 0.58665 0.03157 0.0
H579 H 0.90383 0.71692 0.82392 0.0
H580 H 0.02486 0.20168 0.3072 0.0
H581 H 0.0152 0.17596 0.38639 0.0
H582 H 0.06262 0.19748 0.51788 0.0
H583 H 0.07311 0.22295 0.43509 0.0
H584 H 0.0676 0.15987 0.49961 0.0
H585 H 0.00846 0.1953 0.56548 0.0
H586 H 0.97773 0.21708 0.55458 0.0
H587 H 0.94925 0.17157 0.43256 0.0
H588 H 0.97986 0.1496 0.44206 0.0
H589 H 0.0393 0.0631 0.63842 0.0
H590 H 0.04793 0.0985 0.61723 0.0
H591 H 0.00545 0.0995 0.45475 0.0
H592 H 0.99535 0.06422 0.47961 0.0
H593 H 0.99815 0.1304 0.53064 0.0
H594 H 0.06295 0.10152 0.44291 0.0
H595 H 0.09506 0.08182 0.45121 0.0
H596 H 0.1127 0.11691 0.6206 0.0
H597 H 0.08063 0.13688 0.6129 0.0
C598 C 0.0329 0.2012 0.35373 0.0
C599 C 0.04992 0.2138 0.3651 0.0
C600 C 0.02713 0.18674 0.39972 0.0
C601 C 0.03795 0.18488 0.45887 0.0
C602 C 0.054 0.19871 0.47266 0.0
C603 C 0.06001 0.21316 0.42569 0.0
C604 C 0.03506 0.166 0.49786 0.0
C605 C 0.05238 0.1537 0.50849 0.0
C606 C 0.01526 0.15783 0.50951 0.0
C607 C 0.99649 0.17073 0.50485 0.0
C608 C 0.99566 0.18993 0.5363 0.0
C609 C 0.97825 0.20231 0.53032 0.0
C610 C 0.96154 0.19569 0.493 0.0
C611 C 0.96218 0.17664 0.4617 0.0
C612 C 0.97953 0.16417 0.46761 0.0
C613 C 0.03223 0.07055 0.59667 0.0
C614 C 0.01649 0.06091 0.5608 0.0
C615 C 0.03721 0.09093 0.58472 0.0
C616 C 0.02732 0.10176 0.53456 0.0
C617 C 0.01308 0.09151 0.4944 0.0
C618 C 0.00755 0.07127 0.50779 0.0
C619 C 0.03061 0.12407 0.52659 0.0
C620 C 0.01331 0.13688 0.52327 0.0
C621 C 0.05041 0.13282 0.52245 0.0
C622 C 0.0694 0.12053 0.5276 0.0
C623 C 0.07363 0.1049 0.48215 0.0
C624 C 0.09184 0.0937 0.48679 0.0
C625 C 0.10591 0.09802 0.53675 0.0
C626 C 0.10178 0.11355 0.5821 0.0
C627 C 0.08363 0.12485 0.57747 0.0
H628 H 0.12011 0.08952 0.54023 0.0
H629 H 0.9481 0.20534 0.48828 0.0
H630 H 0.29639 0.03942 0.40495 0.0
H631 H 0.32565 0.03226 0.47459 0.0
H632 H 0.35333 0.08966 0.41753 0.0
H633 H 0.32402 0.09675 0.34625 0.0
H634 H 0.37561 0.05875 0.37956 0.0
H635 H 0.34453 0.07651 0.58533 0.0
H636 H 0.31808 0.07678 0.67196 0.0
H637 H 0.32234 0.01131 0.6887 0.0
H638 H 0.34862 0.01061 0.60158 0.0
H639 H 0.46681 0.03506 0.56797 0.0
H640 H 0.43582 0.05111 0.52396 0.0
H641 H 0.40592 0.9922 0.51684 0.0
H642 H 0.43687 0.97587 0.55882 0.0
H643 H 0.3858 0.02628 0.59603 0.0
H644 H 0.40772 0.00693 0.37919 0.0
H645 H 0.43361 0.00297 0.29166 0.0
H646 H 0.44531 0.06776 0.29607 0.0
H647 H 0.41944 0.07206 0.38376 0.0
C648 C 0.30816 0.05106 0.40979 0.0
C649 C 0.30811 0.06851 0.36939 0.0
C650 C 0.32495 0.04693 0.44989 0.0
C651 C 0.34179 0.06034 0.45091 0.0
C652 C 0.34052 0.07906 0.41715 0.0
C653 C 0.32379 0.08311 0.37653 0.0
C654 C 0.36195 0.05276 0.47376 0.0
C655 C 0.37799 0.05228 0.42765 0.0
C656 C 0.36467 0.04324 0.53542 0.0
C657 C 0.34848 0.04352 0.58664 0.0
C658 C 0.33968 0.06215 0.60702 0.0
C659 C 0.32475 0.06238 0.65634 0.0
C660 C 0.31851 0.04408 0.68575 0.0
C661 C 0.32716 0.02548 0.66582 0.0
C662 C 0.34208 0.02516 0.61648 0.0
C663 C 0.45393 0.02541 0.55491 0.0
C664 C 0.45422 0.00424 0.56785 0.0
C665 C 0.43619 0.03463 0.53048 0.0
C666 C 0.4186 0.02279 0.51904 0.0
C667 C 0.41934 0.00152 0.52667 0.0
C668 C 0.43713 0.99224 0.55004 0.0
C669 C 0.39913 0.03279 0.50207 0.0
C670 C 0.38336 0.0334 0.5488 0.0
C671 C 0.39638 0.0421 0.44073 0.0
C672 C 0.41182 0.03979 0.38805 0.0
C673 C 0.41591 0.0203 0.36159 0.0
C674 C 0.43052 0.018 0.31191 0.0
C675 C 0.44113 0.0351 0.28839 0.0
C676 C 0.43708 0.05454 0.31437 0.0
C677 C 0.42242 0.05693 0.36395 0.0
H678 H 0.45247 0.03329 0.24999 0.0
H679 H 0.307 0.0443 0.72404 0.0
H680 H 0.42203 0.31708 0.37926 0.0
H681 H 0.42918 0.34711 0.44766 0.0
H682 H 0.49188 0.32695 0.47031 0.0
H683 H 0.48447 0.29658 0.40534 0.0
H684 H 0.48342 0.35127 0.56667 0.0
H685 H 0.47776 0.35584 0.33 0.0
H686 H 0.46158 0.35316 0.22116 0.0
H687 H 0.41125 0.39042 0.2872 0.0
H688 H 0.42747 0.39369 0.39622 0.0
H689 H 0.54093 0.44113 0.52881 0.0
H690 H 0.52451 0.4094 0.49354 0.0
H691 H 0.46499 0.43555 0.53332 0.0
H692 H 0.48119 0.46744 0.56874 0.0
H693 H 0.46928 0.40913 0.41563 0.0
H694 H 0.48467 0.41024 0.65015 0.0
H695 H 0.50866 0.41505 0.74243 0.0
H696 H 0.54709 0.36697 0.66714 0.0
H697 H 0.52348 0.36207 0.57389 0.0
C698 C 0.43696 0.31853 0.40215 0.0
C699 C 0.4528 0.3048 0.38639 0.0
C700 C 0.44112 0.33576 0.44056 0.0
C701 C 0.46129 0.33967 0.46151 0.0
C702 C 0.47626 0.32439 0.45399 0.0
C703 C 0.47198 0.30695 0.41695 0.0
C704 C 0.4678 0.36075 0.47852 0.0
C705 C 0.48008 0.36399 0.53417 0.0
C706 C 0.46384 0.37734 0.43549 0.0
C707 C 0.45361 0.3747 0.3713 0.0
C708 C 0.46316 0.3633 0.32136 0.0
C709 C 0.45404 0.36179 0.25955 0.0
C710 C 0.43528 0.37144 0.24734 0.0
C711 C 0.42572 0.38284 0.2968 0.0
C712 C 0.43491 0.38462 0.3585 0.0
C713 C 0.52432 0.44045 0.52796 0.0
C714 C 0.51236 0.4566 0.55318 0.0
C715 C 0.51501 0.42223 0.5084 0.0
C716 C 0.49368 0.42008 0.51309 0.0
C717 C 0.48154 0.43696 0.53047 0.0
C718 C 0.49083 0.45519 0.55025 0.0
C719 C 0.48421 0.39982 0.50446 0.0
C720 C 0.47172 0.3967 0.44987 0.0
C721 C 0.48851 0.38335 0.54745 0.0
C722 C 0.50233 0.38585 0.60484 0.0
C723 C 0.49827 0.40074 0.65312 0.0
C724 C 0.51181 0.40349 0.70561 0.0
C725 C 0.5294 0.39134 0.7106 0.0
C726 C 0.53345 0.37637 0.66324 0.0
C727 C 0.51998 0.37357 0.61062 0.0
H728 H 0.53987 0.39352 0.75119 0.0
H729 H 0.42822 0.37018 0.19948 0.0
H730 H 0.20192 0.42273 0.38755 0.0
H731 H 0.17281 0.4296 0.46029 0.0
H732 H 0.19385 0.49177 0.48618 0.0
H733 H 0.22331 0.48473 0.4161 0.0
H734 H 0.1682 0.4797 0.58816 0.0
H735 H 0.16489 0.48237 0.34102 0.0
H736 H 0.1683 0.46681 0.23131 0.0
H737 H 0.13401 0.41426 0.29533 0.0
H738 H 0.13066 0.42953 0.40558 0.0
H739 H 0.08038 0.54292 0.55228 0.0
H740 H 0.11296 0.52701 0.52214 0.0
H741 H 0.08446 0.46744 0.52835 0.0
H742 H 0.05183 0.48307 0.55896 0.0
H743 H 0.11354 0.4762 0.41942 0.0
H744 H 0.10574 0.48127 0.65322 0.0
H745 H 0.09986 0.49965 0.75648 0.0
H746 H 0.15439 0.53527 0.72508 0.0
H747 H 0.16036 0.51739 0.62014 0.0
C748 C 0.20093 0.43747 0.41194 0.0
C749 C 0.21454 0.45333 0.39545 0.0
C750 C 0.18428 0.44142 0.45321 0.0
C751 C 0.18084 0.4614 0.47645 0.0
C752 C 0.19614 0.47629 0.46826 0.0
C753 C 0.213 0.47224 0.42811 0.0
C754 C 0.15982 0.46822 0.49281 0.0
C755 C 0.15604 0.47853 0.55202 0.0
C756 C 0.14405 0.46688 0.44538 0.0
C757 C 0.14719 0.4572 0.38072 0.0
C758 C 0.1581 0.4675 0.33149 0.0
C759 C 0.16 0.45873 0.26925 0.0
C760 C 0.15121 0.43961 0.25611 0.0
C761 C 0.14068 0.42913 0.30539 0.0
C762 C 0.1387 0.43786 0.36762 0.0
C763 C 0.08081 0.52647 0.54495 0.0
C764 C 0.06357 0.51417 0.55866 0.0
C765 C 0.09952 0.51744 0.52852 0.0
C766 C 0.10109 0.49608 0.52451 0.0
C767 C 0.08348 0.48394 0.53151 0.0
C768 C 0.06483 0.49291 0.54874 0.0
C769 C 0.12128 0.48628 0.51622 0.0
C770 C 0.12513 0.47612 0.45738 0.0
C771 C 0.13679 0.48745 0.56473 0.0
C772 C 0.13335 0.49814 0.62816 0.0
C773 C 0.11631 0.49326 0.66758 0.0
C774 C 0.11296 0.5036 0.7266 0.0
C775 C 0.12666 0.51876 0.74729 0.0
C776 C 0.14376 0.52356 0.70893 0.0
C777 C 0.14713 0.51331 0.64961 0.0
H778 H 0.12411 0.52673 0.79311 0.0
H779 H 0.15256 0.43284 0.20794 0.0
H780 H 0.00146 0.81123 0.07453 0.0
H781 H 0.0057 0.83914 0.9963 0.0
H782 H 0.94313 0.83111 0.93204 0.0
H783 H 0.93876 0.80331 0.01187 0.0
H784 H 0.99932 0.85239 0.86625 0.0
H785 H 0.92242 0.86696 0.95176 0.0
H786 H 0.89731 0.85941 0.03953 0.0
H787 H 0.94505 0.86431 0.18392 0.0
H788 H 0.97041 0.87112 0.09683 0.0
H789 H 0.97608 0.96342 0.81769 0.0
H790 H 0.96429 0.92883 0.84086 0.0
H791 H 0.01444 0.92033 0.97563 0.0
H792 H 0.02699 0.95489 0.95123 0.0
H793 H 0.95919 0.90654 0.98037 0.0
H794 H 0.03392 0.89714 0.90668 0.0
H795 H 0.06163 0.90458 0.82764 0.0
H796 H 0.0216 0.88883 0.66824 0.0
H797 H 0.99337 0.88241 0.74616 0.0
C798 C 0.98899 0.81477 0.04129 0.0
C799 C 0.96976 0.8055 0.04919 0.0
C800 C 0.99139 0.83067 0.99659 0.0
C801 C 0.97453 0.83747 0.95989 0.0
C802 C 0.95617 0.82622 0.96095 0.0
C803 C 0.95373 0.8103 0.00601 0.0
C804 C 0.97498 0.85866 0.93503 0.0
C805 C 0.99022 0.86421 0.88993 0.0
C806 C 0.96328 0.87411 0.9664 0.0
C807 C 0.9482 0.86935 0.01815 0.0
C808 C 0.92749 0.86622 0.0023 0.0
C809 C 0.91326 0.86197 0.05184 0.0
C810 C 0.91959 0.86117 0.11731 0.0
C811 C 0.94017 0.86459 0.13328 0.0
C812 C 0.95449 0.86855 0.08388 0.0
C813 C 0.98431 0.95455 0.85398 0.0
C814 C 0.00273 0.9618 0.88185 0.0
C815 C 0.97765 0.93467 0.86631 0.0
C816 C 0.9891 0.92194 0.90738 0.0
C817 C 0.00597 0.92986 0.94164 0.0
C818 C 0.01289 0.94967 0.92856 0.0
C819 C 0.98379 0.90018 0.91295 0.0
C820 C 0.96767 0.89471 0.95448 0.0
C821 C 0.99483 0.88487 0.87877 0.0
C822 C 0.01142 0.88989 0.83201 0.0
C823 C 0.03088 0.89587 0.85465 0.0
C824 C 0.04668 0.89988 0.81003 0.0
C825 C 0.0433 0.89751 0.74277 0.0
C826 C 0.0241 0.89111 0.72011 0.0
C827 C 0.00816 0.8874 0.76444 0.0
H828 H 0.05559 0.90043 0.70828 0.0
H829 H 0.90855 0.85802 0.15568 0.0
H830 H 0.70419 0.92668 0.03892 0.0
H831 H 0.67384 0.93221 0.97105 0.0
H832 H 0.69301 0.99451 0.936 0.0
H833 H 0.72351 0.98883 0.00276 0.0
H834 H 0.65163 0.96364 0.03896 0.0
H835 H 0.67087 0.01221 0.83156 0.0
H836 H 0.69373 0.01517 0.73521 0.0
H837 H 0.68762 0.95058 0.69889 0.0
H838 H 0.66497 0.94727 0.79571 0.0
H839 H 0.57127 0.03592 0.92372 0.0
H840 H 0.60396 0.02099 0.95935 0.0
H841 H 0.58703 0.96323 0.87203 0.0
H842 H 0.55455 0.9778 0.8366 0.0
H843 H 0.62683 0.99034 0.82564 0.0
H844 H 0.58988 0.95533 0.00514 0.0
H845 H 0.568 0.95552 0.10396 0.0
H846 H 0.61045 0.99584 0.20064 0.0
H847 H 0.63241 0.99614 0.10193 0.0
C848 C 0.70269 0.94101 0.01253 0.0
C849 C 0.71594 0.9574 0.02615 0.0
C850 C 0.68527 0.94423 0.97423 0.0
C851 C 0.68107 0.96384 0.94948 0.0
C852 C 0.69606 0.97921 0.95414 0.0
C853 C 0.71357 0.97593 0.99212 0.0
C854 C 0.65954 0.96977 0.93798 0.0
C855 C 0.64611 0.96917 0.99197 0.0
C856 C 0.65263 0.97773 0.87777 0.0
C857 C 0.66639 0.9795 0.82058 0.0
C858 C 0.67447 0.99867 0.80293 0.0
C859 C 0.68741 0.0004 0.74845 0.0
C860 C 0.69214 0.98307 0.71097 0.0
C861 C 0.68401 0.96396 0.72811 0.0
C862 C 0.67122 0.96214 0.78294 0.0
C863 C 0.57417 0.01982 0.9144 0.0
C864 C 0.56028 0.00804 0.87737 0.0
C865 C 0.59286 0.01139 0.9344 0.0
C866 C 0.59781 0.99116 0.91743 0.0
C867 C 0.58337 0.9789 0.88532 0.0
C868 C 0.56466 0.98721 0.86598 0.0
C869 C 0.61884 0.98352 0.92603 0.0
C870 C 0.63225 0.98431 0.8721 0.0
C871 C 0.62586 0.9761 0.98681 0.0
C872 C 0.61262 0.97597 0.0459 0.0
C873 C 0.5944 0.96444 0.04717 0.0
C874 C 0.58203 0.96441 0.10324 0.0
C875 C 0.58779 0.97575 0.15845 0.0
C876 C 0.60597 0.98711 0.15779 0.0
C877 C 0.61839 0.9872 0.10182 0.0
H878 H 0.57819 0.97569 0.20182 0.0
H879 H 0.70208 0.98444 0.66863 0.0
H880 H 0.53445 0.72171 0.02121 0.0
H881 H 0.52578 0.69255 0.95101 0.0
H882 H 0.58211 0.6626 0.00669 0.0
H883 H 0.59077 0.69168 0.07719 0.0
H884 H 0.56313 0.65125 0.872 0.0
H885 H 0.54899 0.65143 0.11619 0.0
H886 H 0.53547 0.66825 0.21573 0.0
H887 H 0.47928 0.68213 0.11509 0.0
H888 H 0.49238 0.66491 0.0154 0.0
H889 H 0.53905 0.5464 0.88709 0.0
H890 H 0.55217 0.58 0.9209 0.0
H891 H 0.49023 0.60343 0.92663 0.0
H892 H 0.47718 0.57013 0.89374 0.0
H893 H 0.51129 0.61976 0.01981 0.0
H894 H 0.52073 0.61101 0.78884 0.0
H895 H 0.5322 0.59281 0.68947 0.0
H896 H 0.59473 0.59638 0.75492 0.0
H897 H 0.58357 0.61459 0.85509 0.0
C898 C 0.54554 0.70947 0.01527 0.0
C899 C 0.56312 0.70866 0.0549 0.0
C900 C 0.54057 0.69282 0.9753 0.0
C901 C 0.55321 0.6754 0.97472 0.0
C902 C 0.57224 0.67597 0.00655 0.0
C903 C 0.57715 0.69253 0.04684 0.0
C904 C 0.54439 0.6553 0.95807 0.0
C905 C 0.5518 0.64429 0.904 0.0
C906 C 0.52944 0.64644 -0.00048 0.0
C907 C 0.52168 0.65706 0.05861 0.0
C908 C 0.53378 0.65813 0.11542 0.0
C909 C 0.52617 0.66767 0.17184 0.0
C910 C 0.50658 0.6764 0.17165 0.0
C911 C 0.49448 0.67542 0.11514 0.0
C912 C 0.50193 0.66568 0.05881 0.0
C913 C 0.52831 0.55866 0.89666 0.0
C914 C 0.50724 0.55582 0.88564 0.0
C915 C 0.53577 0.57784 0.91556 0.0
C916 C 0.52219 0.59437 0.92359 0.0
C917 C 0.501 0.59095 0.91959 0.0
C918 C 0.49356 0.5718 0.90121 0.0
C919 C 0.52993 0.61543 0.93345 0.0
C920 C 0.52239 0.62666 0.98681 0.0
C921 C 0.5444 0.62451 0.89035 0.0
C922 C 0.55131 0.61403 0.82962 0.0
C923 C 0.53693 0.60786 0.78212 0.0
C924 C 0.54337 0.59754 0.72563 0.0
C925 C 0.56419 0.59336 0.71591 0.0
C926 C 0.57861 0.59961 0.76255 0.0
C927 C 0.57224 0.60999 0.81912 0.0
H928 H 0.56915 0.58532 0.6722 0.0
H929 H 0.50073 0.68382 0.21533 0.0
H930 H 0.79198 0.53991 0.98571 0.0
H931 H 0.81923 0.53417 0.90539 0.0
H932 H 0.85585 0.58092 -0.00091 0.0
H933 H 0.82801 0.58799 0.07486 0.0
H934 H 0.87053 0.57526 0.88506 0.0
H935 H 0.84833 0.5266 0.0623 0.0
H936 H 0.82322 0.50231 0.1092 0.0
H937 H 0.82265 0.46836 0.9285 0.0
H938 H 0.84759 0.49259 0.88049 0.0
H939 H 0.97103 0.53612 0.91688 0.0
H940 H 0.93643 0.54928 0.93966 0.0
H941 H 0.91039 0.4952 0.84946 0.0
H942 H 0.94456 0.48146 0.83269 0.0
H943 H 0.8881 0.50335 0.94 0.0
H944 H 0.91641 0.54658 0.77145 0.0
H945 H 0.94074 0.57074 0.72018 0.0
H946 H 0.92981 0.61424 0.87458 0.0
H947 H 0.90568 0.59026 0.92727 0.0
C948 C 0.80531 0.54984 0.98652 0.0
C949 C 0.80838 0.56375 0.03832 0.0
C950 C 0.82104 0.54633 0.94113 0.0
C951 C 0.8401 0.55614 0.94913 0.0
C952 C 0.84155 0.57267 0.993 0.0
C953 C 0.82563 0.57664 0.03674 0.0
C954 C 0.8594 0.54677 0.92458 0.0
C955 C 0.8744 0.55949 0.89654 0.0
C956 C 0.86438 0.52606 0.93828 0.0
C957 C 0.84961 0.51147 0.96772 0.0
C958 C 0.84282 0.51395 0.0327 0.0
C959 C 0.8286 0.50022 0.05939 0.0
C960 C 0.82131 0.48382 0.02181 0.0
C961 C 0.82826 0.48109 0.9575 0.0
C962 C 0.84241 0.49481 0.93053 0.0
C963 C 0.95781 0.52688 0.90418 0.0
C964 C 0.96036 0.50767 0.87439 0.0
C965 C 0.93806 0.53454 0.91574 0.0
C966 C 0.92068 0.52354 0.89444 0.0
C967 C 0.92341 0.50404 0.86656 0.0
C968 C 0.943 0.49608 0.85752 0.0
C969 C 0.89958 0.53194 0.90147 0.0
C970 C 0.88429 0.51899 0.9266 0.0
C971 C 0.89438 0.55236 0.88434 0.0
C972 C 0.90926 0.5666 0.85335 0.0
C973 C 0.9193 0.56125 0.79468 0.0
C974 C 0.93304 0.57492 0.76533 0.0
C975 C 0.93672 0.59405 0.79388 0.0
C976 C 0.92688 0.59947 0.8523 0.0
C977 C 0.91316 0.58584 0.88192 0.0
H978 H 0.94718 0.60469 0.77067 0.0
H979 H 0.81031 0.47321 0.04253 0.0
H980 H 0.03065 0.22032 0.10887 0.0
H981 H 0.0239 0.18969 0.04294 0.0
H982 H 0.08496 0.16754 0.08328 0.0
H983 H 0.0917 0.19819 0.14976 0.0
H984 H 0.07241 0.15761 0.95786 0.0
H985 H 0.04911 0.15014 0.17421 0.0
H986 H 0.03173 0.15817 0.27842 0.0
H987 H 0.97334 0.15735 0.18103 0.0
H988 H 0.99041 0.14958 0.0758 0.0
H989 H 0.04059 0.05595 0.86446 0.0
H990 H 0.05389 0.08344 0.93488 0.0
H991 H 0.99817 0.11787 0.90532 0.0
H992 H 0.98482 0.09065 0.83519 0.0
H993 H 0.01197 0.11827 0.0363 0.0
H994 H 0.04022 0.12829 0.81432 0.0
H995 H 0.06042 0.11669 0.7188 0.0
H996 H 0.11319 0.10826 0.84186 0.0
H997 H 0.09324 0.1197 0.93819 0.0
C998 C 0.04296 0.20942 0.10101 0.0
C999 C 0.06178 0.21173 0.13367 0.0
C1000 C 0.03898 0.19173 0.06437 0.0
C1001 C 0.05378 0.17615 0.05943 0.0
C1002 C 0.07329 0.17933 0.08675 0.0
C1003 C 0.07721 0.19693 0.124 0.0
C1004 C 0.04828 0.15605 0.02995 0.0
C1005 C 0.05935 0.14889 0.97551 0.0
C1006 C 0.03151 0.1444 0.0539 0.0
C1007 C 0.0211 0.14954 0.11677 0.0
C1008 C 0.03259 0.15194 0.17473 0.0
C1009 C 0.02278 0.15639 0.23409 0.0
C1010 C 0.00144 0.15837 0.23633 0.0
C1011 C 0.98988 0.15587 0.17919 0.0
C1012 C 0.99962 0.15143 0.11964 0.0
C1013 C 0.03108 0.06926 0.87362 0.0
C1014 C 0.01168 0.07114 0.84382 0.0
C1015 C 0.03873 0.08499 0.91365 0.0
C1016 C 0.02708 0.10278 0.92483 0.0
C1017 C 0.00743 0.10429 0.89731 0.0
C1018 C -0.00014 0.08872 0.85696 0.0
C1019 C 0.0355 0.12039 0.96245 0.0
C1020 C 0.02506 0.12699 0.0189 0.0
C1021 C 0.0532 0.13117 0.94157 0.0
C1022 C 0.06521 0.12465 0.88344 0.0
C1023 C 0.0561 0.12386 0.821 0.0
C1024 C 0.06751 0.11733 0.76673 0.0
C1025 C 0.08805 0.11165 0.7743 0.0
C1026 C 0.09727 0.11262 0.83609 0.0
C1027 C 0.08594 0.11916 0.89049 0.0
H1028 H 0.09683 0.10651 0.73232 0.0
H1029 H 0.99387 0.16177 0.28237 0.0
H1030 H 0.30585 0.02914 0.13343 0.0
H1031 H 0.33577 0.02474 0.06172 0.0
H1032 H 0.34208 0.09035 0.04707 0.0
H1033 H 0.31253 0.09478 0.12064 0.0
H1034 H 0.348 0.04344 0.92804 0.0
H1035 H 0.37629 0.09668 0.09562 0.0
H1036 H 0.37724 0.10882 0.21045 0.0
H1037 H 0.38607 0.04689 0.27648 0.0
H1038 H 0.38494 0.03457 0.16267 0.0
H1039 H 0.45328 0.04567 0.81264 0.0
H1040 H 0.42393 0.06121 0.87007 0.0
H1041 H 0.41849 0.00739 0.99131 0.0
H1042 H 0.44723 0.99149 0.93251 0.0
H1043 H 0.41294 0.05326 0.05178 0.0
H1044 H 0.38696 2e-05 0.89787 0.0
H1045 H 0.38743 0.9839 0.78823 0.0
H1046 H 0.3754 0.0424 0.69952 0.0
H1047 H 0.37468 0.05868 0.80851 0.0
C1048 C 0.31309 0.04259 0.11258 0.0
C1049 C 0.30677 0.06229 0.13168 0.0
C1050 C 0.3303 0.04008 0.07227 0.0
C1051 C 0.34133 0.05723 0.05027 0.0
C1052 C 0.33398 0.07694 0.06458 0.0
C1053 C 0.31693 0.07946 0.10561 0.0
C1054 C 0.36151 0.05428 0.01803 0.0
C1055 C 0.36219 0.04608 0.95451 0.0
C1056 C 0.38006 0.05726 0.05283 0.0
C1057 C 0.38021 0.06471 0.12113 0.0
C1058 C 0.3782 0.0857 0.13495 0.0
C1059 C 0.37883 0.09263 0.19983 0.0
C1060 C 0.3817 0.07869 0.25099 0.0
C1061 C 0.38383 0.05778 0.2373 0.0
C1062 C 0.38315 0.05079 0.17262 0.0
C1063 C 0.4462 0.03745 0.8529 0.0
C1064 C 0.45247 0.01742 0.86839 0.0
C1065 C 0.42943 0.04629 0.88538 0.0
C1066 C 0.41912 0.03539 0.93474 0.0
C1067 C 0.42635 0.01603 0.9535 0.0
C1068 C 0.44273 0.00699 0.91997 0.0
C1069 C 0.3994 0.04293 0.96138 0.0
C1070 C 0.3988 0.05151 0.02426 0.0
C1071 C 0.38094 0.04032 0.92609 0.0
C1072 C 0.38083 0.03052 0.86087 0.0
C1073 C 0.3844 0.00937 0.85478 0.0
C1074 C 0.38466 0.0002 0.79282 0.0
C1075 C 0.38136 0.01206 0.73682 0.0
C1076 C 0.3778 0.03313 0.74272 0.0
C1077 C 0.3774 0.04234 0.80457 0.0
H1078 H 0.38155 0.00486 0.689 0.0
H1079 H 0.38238 0.08418 0.30102 0.0
H1080 H 0.4264 0.31871 0.14716 0.0
H1081 H 0.43305 0.349 0.07894 0.0
H1082 H 0.49768 0.33477 0.0789 0.0
H1083 H 0.49101 0.30434 0.14596 0.0
H1084 H 0.48777 0.37515 0.12362 0.0
H1085 H 0.47237 0.32955 0.94149 0.0
H1086 H 0.45039 0.30518 0.8813 0.0
H1087 H 0.40273 0.35049 0.86944 0.0
H1088 H 0.42436 0.37506 0.9303 0.0
H1089 H 0.53593 0.43493 0.88246 0.0
H1090 H 0.5213 0.40858 0.95319 0.0
H1091 H 0.46066 0.43278 0.91904 0.0
H1092 H 0.47533 0.45957 0.84828 0.0
H1093 H 0.4632 0.39052 0.89871 0.0
H1094 H 0.47882 0.43756 0.06665 0.0
H1095 H 0.49889 0.4626 0.13051 0.0
H1096 H 0.54356 0.41628 0.17498 0.0
H1097 H 0.5239 0.39099 0.11059 0.0
C1098 C 0.44188 0.32162 0.13015 0.0
C1099 C 0.45815 0.30898 0.15068 0.0
C1100 C 0.4457 0.33901 0.09179 0.0
C1101 C 0.46588 0.34421 0.07428 0.0
C1102 C 0.482 0.33105 0.09205 0.0
C1103 C 0.47815 0.3135 0.12944 0.0
C1104 C 0.47046 0.36397 0.04111 0.0
C1105 C 0.48261 0.37845 0.07416 0.0
C1106 C 0.46279 0.36871 0.97808 0.0
C1107 C 0.44988 0.35405 0.94097 0.0
C1108 C 0.45714 0.33426 0.92646 0.0
C1109 C 0.44476 0.32042 0.89214 0.0
C1110 C 0.42515 0.32626 0.87172 0.0
C1111 C 0.41791 0.34598 0.88537 0.0
C1112 C 0.43023 0.35987 0.9197 0.0
C1113 C 0.5195 0.43488 0.89067 0.0
C1114 C 0.50679 0.44936 0.85978 0.0
C1115 C 0.51116 0.41982 0.93136 0.0
C1116 C 0.48989 0.41874 0.94168 0.0
C1117 C 0.47712 0.43338 0.91189 0.0
C1118 C 0.48553 0.44873 0.87181 0.0
C1119 C 0.48125 0.4014 0.98013 0.0
C1120 C 0.46823 0.38738 0.9484 0.0
C1121 C 0.48789 0.39722 0.04485 0.0
C1122 C 0.49995 0.41239 0.08319 0.0
C1123 C 0.49303 0.43274 0.08946 0.0
C1124 C 0.50431 0.44698 0.12592 0.0
C1125 C 0.52252 0.44105 0.15665 0.0
C1126 C 0.52946 0.42085 0.15108 0.0
C1127 C 0.51823 0.40655 0.11467 0.0
H1128 H 0.53122 0.45209 0.18487 0.0
H1129 H 0.41558 0.31553 0.84519 0.0
H1130 H 0.21862 0.48846 0.1377 0.0
H1131 H 0.1896 0.49623 0.06608 0.0
H1132 H 0.16587 0.43525 0.09507 0.0
H1133 H 0.19522 0.42719 0.16576 0.0
H1134 H 0.15867 0.4479 0.97339 0.0
H1135 H 0.12751 0.48069 0.18362 0.0
H1136 H 0.13098 0.50127 0.28483 0.0
H1137 H 0.16947 0.54417 0.18297 0.0
H1138 H 0.16551 0.52422 0.0807 0.0
H1139 H 0.05776 0.47734 0.86015 0.0
H1140 H 0.08557 0.46337 0.92795 0.0
H1141 H 0.11539 0.52245 0.92694 0.0
H1142 H 0.08759 0.5365 0.86174 0.0
H1143 H 0.11678 0.50754 0.04334 0.0
H1144 H 0.13368 0.47764 0.82383 0.0
H1145 H 0.12604 0.45594 0.72719 0.0
H1146 H 0.11151 0.40543 0.85353 0.0
H1147 H 0.11941 0.42668 0.95063 0.0
C1148 C 0.20752 0.47652 0.12739 0.0
C1149 C 0.20911 0.45726 0.15771 0.0
C1150 C 0.19062 0.48116 0.08786 0.0
C1151 C 0.17488 0.46674 0.07848 0.0
C1152 C 0.17748 0.44685 0.10333 0.0
C1153 C 0.19435 0.44219 0.14314 0.0
C1154 C 0.15568 0.47248 0.04352 0.0
C1155 C 0.14948 0.46091 0.98886 0.0
C1156 C 0.14334 0.48917 0.06396 0.0
C1157 C 0.147 0.50051 0.12559 0.0
C1158 C 0.13695 0.49437 0.18323 0.0
C1159 C 0.13881 0.50602 0.24053 0.0
C1160 C 0.15075 0.52382 0.24065 0.0
C1161 C 0.1605 0.53021 0.1831 0.0
C1162 C 0.1584 0.51877 0.12544 0.0
C1163 C 0.07012 0.48737 0.87531 0.0
C1164 C 0.0705 0.50802 0.85537 0.0
C1165 C 0.08618 0.47929 0.91319 0.0
C1166 C 0.10287 0.49173 0.93145 0.0
C1167 C 0.10279 0.51248 0.91332 0.0
C1168 C 0.08683 0.52053 0.87597 0.0
C1169 C 0.12036 0.48374 0.97084 0.0
C1170 C 0.12603 0.49463 0.02733 0.0
C1171 C 0.13199 0.46632 0.95234 0.0
C1172 C 0.12681 0.4538 0.89419 0.0
C1173 C 0.12864 0.46198 0.83079 0.0
C1174 C 0.12433 0.44976 0.77605 0.0
C1175 C 0.11806 0.42944 0.78425 0.0
C1176 C 0.11627 0.42121 0.84723 0.0
C1177 C 0.12075 0.43328 0.90207 0.0
H1178 H 0.11471 0.42005 0.74179 0.0
H1179 H 0.15225 0.53277 0.28513 0.0
H1180 H 0.98373 0.7995 0.33999 0.0
H1181 H 0.98892 0.82873 0.41459 0.0
H1182 H 0.94085 0.862 0.31591 0.0
H1183 H 0.93514 0.83258 0.24325 0.0
H1184 H 0.98026 0.8826 0.32049 0.0
H1185 H 0.93089 0.85133 0.45933 0.0
H1186 H 0.91468 0.82326 0.52139 0.0
H1187 H 0.96851 0.8178 0.64147 0.0
H1188 H 0.98519 0.84566 0.57937 0.0
H1189 H 0.98448 0.96834 0.55332 0.0
H1190 H 0.9716 0.94066 0.48246 0.0
H1191 H 0.01832 0.90019 0.55664 0.0
H1192 H 0.03138 0.9275 0.6269 0.0
H1193 H 0.9758 0.88492 0.56333 0.0
H1194 H 0.02571 0.91508 0.41755 0.0
H1195 H 0.04158 0.94295 0.35369 0.0
H1196 H 0.98568 0.95082 0.24523 0.0
H1197 H 0.96933 0.92319 0.30936 0.0
C1198 C 0.97374 0.81271 0.33621 0.0
C1199 C 0.95909 0.81388 0.28595 0.0
C1200 C 0.97685 0.82948 0.37818 0.0
C1201 C 0.96547 0.84763 0.36995 0.0
C1202 C 0.94993 0.84824 0.3226 0.0
C1203 C 0.9466 0.83142 0.28154 0.0
C1204 C 0.97082 0.86639 0.4075 0.0
C1205 C 0.97894 0.88328 0.37351 0.0
C1206 C 0.96929 0.86715 0.47655 0.0
C1207 C 0.95938 0.85042 0.51419 0.0
C1208 C 0.93936 0.844 0.49853 0.0
C1209 C 0.93006 0.82816 0.5338 0.0
C1210 C 0.94058 0.8187 0.58521 0.0
C1211 C 0.9604 0.82512 0.60155 0.0
C1212 C 0.96978 0.84095 0.56636 0.0
C1213 C 0.9921 0.95359 0.55425 0.0
C1214 C 0.00884 0.95012 0.5965 0.0
C1215 C 0.98471 0.93781 0.51378 0.0
C1216 C 0.99386 0.91832 0.51531 0.0
C1217 C 0.01086 0.91503 0.55586 0.0
C1218 C 0.01833 0.93073 0.59576 0.0
C1219 C 0.98553 0.90099 0.47647 0.0
C1220 C 0.97686 0.88435 0.51025 0.0
C1221 C 0.98647 0.90054 0.40719 0.0
C1222 C 0.99618 0.9173 0.36906 0.0
C1223 C 0.01669 0.92294 0.38076 0.0
C1224 C 0.0258 0.93865 0.34434 0.0
C1225 C 0.01461 0.94872 0.29564 0.0
C1226 C 0.9943 0.94305 0.28314 0.0
C1227 C 0.98511 0.92737 0.31952 0.0
H1228 H 0.0217 0.96085 0.26742 0.0
H1229 H 0.93336 0.80644 0.61248 0.0
H1230 H 0.68754 0.9918 0.19273 0.0
H1231 H 0.6587 0.99612 0.26618 0.0
H1232 H 0.68972 0.9602 0.41355 0.0
H1233 H 0.71831 0.95422 0.33651 0.0
H1234 H 0.65101 0.94903 0.40793 0.0
H1235 H 0.68336 0.01542 0.4229 0.0
H1236 H 0.69889 0.04703 0.37876 0.0
H1237 H 0.64272 0.06129 0.27872 0.0
H1238 H 0.62693 0.02967 0.32169 0.0
H1239 H 0.5797 0.98172 0.65655 0.0
H1240 H 0.60861 0.97187 0.58625 0.0
H1241 H 0.58178 0.00565 0.42577 0.0
H1242 H 0.5532 0.01595 0.49705 0.0
H1243 H 0.61942 0.01731 0.44367 0.0
H1244 H 0.58701 0.95166 0.42388 0.0
H1245 H 0.57057 0.92002 0.46407 0.0
H1246 H 0.62534 0.90436 0.56971 0.0
H1247 H 0.64207 0.93602 0.53056 0.0
C1248 C 0.68837 0.98483 0.24087 0.0
C1249 C 0.70519 0.97244 0.25842 0.0
C1250 C 0.67186 0.98754 0.28335 0.0
C1251 C 0.67203 0.97883 0.34621 0.0
C1252 C 0.68921 0.96714 0.36535 0.0
C1253 C 0.70568 0.96396 0.32176 0.0
C1254 C 0.65384 0.98147 0.39006 0.0
C1255 C 0.64434 0.96401 0.41684 0.0
C1256 C 0.64463 0.00092 0.40017 0.0
C1257 C 0.654 0.02015 0.37539 0.0
C1258 C 0.67435 0.02528 0.39137 0.0
C1259 C 0.68319 0.04319 0.36653 0.0
C1260 C 0.67181 0.05615 0.32593 0.0
C1261 C 0.65152 0.05125 0.31023 0.0
C1262 C 0.6426 0.03337 0.33493 0.0
C1263 C 0.57971 0.98641 0.60558 0.0
C1264 C 0.56419 -0.00072 0.58157 0.0
C1265 C 0.59622 0.9808 0.56539 0.0
C1266 C 0.59741 0.98792 0.50042 0.0
C1267 C 0.58125 -5e-05 0.47564 0.0
C1268 C 0.56484 0.00569 0.51603 0.0
C1269 C 0.61644 0.98488 0.46091 0.0
C1270 C 0.62613 0.00231 0.43512 0.0
C1271 C 0.62567 0.96543 0.45156 0.0
C1272 C 0.61573 0.94631 0.47475 0.0
C1273 C 0.59551 0.94154 0.45602 0.0
C1274 C 0.58615 0.92358 0.47851 0.0
C1275 C 0.59689 0.91021 0.51953 0.0
C1276 C 0.61704 0.91474 0.53794 0.0
C1277 C 0.62648 0.93266 0.51551 0.0
H1278 H 0.58961 0.89633 0.53696 0.0
H1279 H 0.67869 0.06999 0.30667 0.0
H1280 H 0.52105 0.71238 0.28641 0.0
H1281 H 0.51313 0.68306 0.35671 0.0
H1282 H 0.5779 0.67102 0.37939 0.0
H1283 H 0.58565 0.69982 0.30639 0.0
H1284 H 0.55964 0.63737 0.34687 0.0
H1285 H 0.54487 0.68938 0.5097 0.0
H1286 H 0.52812 0.72062 0.55219 0.0
H1287 H 0.46886 0.69365 0.5198 0.0
H1288 H 0.48525 0.66235 0.47644 0.0
H1289 H 0.54471 0.55886 0.593 0.0
H1290 H 0.55526 0.58806 0.52484 0.0
H1291 H 0.49164 0.60375 0.49394 0.0
H1292 H 0.48119 0.57532 0.56361 0.0
H1293 H 0.51083 0.63568 0.5333 0.0
H1294 H 0.52419 0.5843 0.36996 0.0
H1295 H 0.53962 0.55321 0.3218 0.0
H1296 H 0.59988 0.57838 0.34962 0.0
H1297 H 0.58483 0.60952 0.39883 0.0
C1298 C 0.53355 0.70401 0.30894 0.0
C1299 C 0.55395 0.70862 0.29262 0.0
C1300 C 0.52905 0.68713 0.34879 0.0
C1301 C 0.54492 0.6748 0.37404 0.0
C1302 C 0.56537 0.68022 0.36062 0.0
C1303 C 0.56984 0.69688 0.31994 0.0
C1304 C 0.54021 0.65547 0.41008 0.0
C1305 C 0.54925 0.63705 0.38846 0.0
C1306 C 0.52612 0.65484 0.46287 0.0
C1307 C 0.51629 0.67359 0.48945 0.0
C1308 C 0.52827 0.69017 0.51133 0.0
C1309 C 0.51884 0.70787 0.53561 0.0
C1310 C 0.49744 0.70913 0.53859 0.0
C1311 C 0.48543 0.69266 0.51746 0.0
C1312 C 0.49478 0.67493 0.49313 0.0
C1313 C 0.53303 0.56835 0.57056 0.0
C1314 C 0.51214 0.565 0.58434 0.0
C1315 C 0.53905 0.58502 0.53149 0.0
C1316 C 0.52424 0.59824 0.50434 0.0
C1317 C 0.50338 0.594 0.51492 0.0
C1318 C 0.49741 0.5777 0.55474 0.0
C1319 C 0.53016 0.61751 0.47001 0.0
C1320 C 0.52135 0.63596 0.492 0.0
C1321 C 0.54429 0.61807 0.41724 0.0
C1322 C 0.55338 0.59915 0.3889 0.0
C1323 C 0.54074 0.58312 0.36655 0.0
C1324 C 0.54942 0.5655 0.33887 0.0
C1325 C 0.57072 0.56379 0.33285 0.0
C1326 C 0.58339 0.5797 0.35445 0.0
C1327 C 0.57479 0.59734 0.38223 0.0
H1328 H 0.57741 0.55017 0.31128 0.0
H1329 H 0.49017 0.72286 0.55736 0.0
H1330 H 0.80628 0.51784 0.2906 0.0
H1331 H 0.8346 0.51181 0.36762 0.0
H1332 H 0.8534 0.57494 0.34804 0.0
H1333 H 0.82533 0.58086 0.27075 0.0
H1334 H 0.88516 0.5501 0.3291 0.0
H1335 H 0.83229 0.55687 0.49111 0.0
H1336 H 0.79895 0.54952 0.54337 0.0
H1337 H 0.81649 0.48659 0.56918 0.0
H1338 H 0.84983 0.4935 0.51621 0.0
H1339 H 0.96337 0.54275 0.57908 0.0
H1340 H 0.93418 0.55293 0.51014 0.0
H1341 H 0.90942 0.49175 0.52472 0.0
H1342 H 0.938 0.48173 0.59424 0.0
H1343 H 0.88057 0.51825 0.54923 0.0
H1344 H 0.93268 0.51095 0.38244 0.0
H1345 H 0.9657 0.51795 0.32759 0.0
H1346 H 0.94956 0.5815 0.30917 0.0
H1347 H 0.91655 0.57494 0.36475 0.0
C1348 C 0.81607 0.53054 0.30457 0.0
C1349 C 0.81357 0.54983 0.27526 0.0
C1350 C 0.83232 0.52708 0.34819 0.0
C1351 C 0.84619 0.54293 0.36357 0.0
C1352 C 0.84301 0.56246 0.33671 0.0
C1353 C 0.82687 0.56587 0.29309 0.0
C1354 C 0.86473 0.53891 0.40418 0.0
C1355 C 0.88415 0.54343 0.37772 0.0
C1356 C 0.86348 0.52985 0.467 0.0
C1357 C 0.84348 0.52567 0.49918 0.0
C1358 C 0.82898 0.54143 0.50749 0.0
C1359 C 0.81009 0.53735 0.53731 0.0
C1360 C 0.80558 0.51759 0.55944 0.0
C1361 C 0.81999 0.50188 0.55195 0.0
C1362 C 0.83889 0.50588 0.5221 0.0
C1363 C 0.9518 0.53145 0.56682 0.0
C1364 C 0.95294 0.51148 0.59243 0.0
C1365 C 0.93514 0.53727 0.52738 0.0
C1366 C 0.91954 0.5231 0.51217 0.0
C1367 C 0.9211 0.50302 0.53615 0.0
C1368 C 0.93753 0.4973 0.57586 0.0
C1369 C 0.90106 0.52911 0.4738 0.0
C1370 C 0.88161 0.52502 0.50077 0.0
C1371 C 0.90232 0.53851 0.41137 0.0
C1372 C 0.92226 0.5425 0.37853 0.0
C1373 C 0.93626 0.52646 0.36731 0.0
C1374 C 0.95496 0.53034 0.33594 0.0
C1375 C 0.95976 0.55017 0.31511 0.0
C1376 C 0.94585 0.56616 0.32547 0.0
C1377 C 0.92714 0.56236 0.35688 0.0
H1378 H 0.97422 0.55314 0.29078 0.0
H1379 H 0.79095 0.51445 0.58251 0.0
loop_
_geom_bond_atom_site_label_1
_geom_bond_atom_site_label_2
_geom_bond_distance
_geom_bond_site_symmetry_2
_ccdc_geom_bond_type
H0 C5 0.930 . S
H1 C8 0.930 . S
H2 C10 0.930 . S
H3 C4 1.016 . S
C4 H3 1.016 . S
C4 N11 1.286 . S
C5 H0 0.930 . S
C5 C6 1.397 . S
C5 C7 1.361 . S
C6 C5 1.397 . S
C6 C10 1.390 . S
C7 C5 1.361 . S
C7 C8 1.393 . S
C7 N11 1.413 . S
C8 H1 0.930 . S
C8 C7 1.393 . S
C8 C9 1.399 . S
C9 C8 1.399 . S
C9 C10 1.381 . S
C10 H2 0.930 . S
C10 C6 1.390 . S
C10 C9 1.381 . S
N11 C4 1.286 . S
N11 C7 1.413 . S
H12 C17 0.930 . S
H13 C20 0.930 . S
H14 C22 0.930 . S
H15 C16 1.016 . S
C16 H15 1.016 . S
C16 N23 1.286 . S
C17 H12 0.930 . S
C17 C18 1.397 . S
C17 C19 1.361 . S
C18 C17 1.397 . S
C18 C22 1.390 . S
C19 C17 1.361 . S
C19 C20 1.393 . S
C19 N23 1.413 . S
C20 H13 0.930 . S
C20 C19 1.393 . S
C20 C21 1.399 . S
C21 C20 1.399 . S
C21 C22 1.381 . S
C22 H14 0.930 . S
C22 C18 1.390 . S
C22 C21 1.381 . S
N23 C16 1.286 . S
N23 C19 1.413 . S
H24 C29 0.930 . S
H25 C32 0.930 . S
H26 C34 0.930 . S
H27 C28 1.016 . S
C28 H27 1.016 . S
C28 N35 1.286 . S
C29 H24 0.930 . S
C29 C30 1.397 . S
C29 C31 1.361 . S
C30 C29 1.397 . S
C30 C34 1.390 . S
C31 C29 1.361 . S
C31 C32 1.393 . S
C31 N35 1.413 . S
C32 H25 0.930 . S
C32 C31 1.393 . S
C32 C33 1.399 . S
C33 C32 1.399 . S
C33 C34 1.381 . S
C34 H26 0.930 . S
C34 C30 1.390 . S
C34 C33 1.381 . S
N35 C28 1.286 . S
N35 C31 1.413 . S
H36 C41 0.930 . S
H37 C44 0.930 . S
H38 C46 0.930 . S
H39 C40 1.016 . S
C40 H39 1.016 . S
C40 N47 1.286 . S
C41 H36 0.930 . S
C41 C42 1.397 . S
C41 C43 1.361 . S
C42 C41 1.397 . S
C42 C46 1.390 . S
C43 C41 1.361 . S
C43 C44 1.393 . S
C43 N47 1.413 . S
C44 H37 0.930 . S
C44 C43 1.393 . S
C44 C45 1.399 . S
C45 C44 1.399 . S
C45 C46 1.381 . S
C46 H38 0.930 . S
C46 C42 1.390 . S
C46 C45 1.381 . S
N47 C40 1.286 . S
N47 C43 1.413 . S
H48 C53 0.930 . S
H49 C56 0.930 . S
H50 C58 0.930 . S
H51 C52 1.016 . S
C52 H51 1.016 . S
C52 N59 1.286 . S
C53 H48 0.930 . S
C53 C54 1.397 . S
C53 C55 1.361 . S
C54 C53 1.397 . S
C54 C58 1.390 . S
C55 C53 1.361 . S
C55 C56 1.393 . S
C55 N59 1.413 . S
C56 H49 0.930 . S
C56 C55 1.393 . S
C56 C57 1.399 . S
C57 C56 1.399 . S
C57 C58 1.381 . S
C58 H50 0.930 . S
C58 C54 1.390 . S
C58 C57 1.381 . S
N59 C52 1.286 . S
N59 C55 1.413 . S
H60 C65 0.930 . S
H61 C68 0.930 . S
H62 C70 0.930 . S
H63 C64 1.016 . S
C64 H63 1.016 . S
C64 N71 1.286 . S
C65 H60 0.930 . S
C65 C66 1.397 . S
C65 C67 1.361 . S
C66 C65 1.397 . S
C66 C70 1.390 . S
C67 C65 1.361 . S
C67 C68 1.393 . S
C67 N71 1.413 . S
C68 H61 0.930 . S
C68 C67 1.393 . S
C68 C69 1.399 . S
C69 C68 1.399 . S
C69 C70 1.381 . S
C70 H62 0.930 . S
C70 C66 1.390 . S
C70 C69 1.381 . S
N71 C64 1.286 . S
N71 C67 1.413 . S
H72 C77 0.930 . S
H73 C80 0.930 . S
H74 C82 0.930 . S
H75 C76 1.016 . S
C76 H75 1.016 . S
C76 N83 1.286 . S
C77 H72 0.930 . S
C77 C78 1.397 . S
C77 C79 1.361 . S
C78 C77 1.397 . S
C78 C82 1.390 . S
C79 C77 1.361 . S
C79 C80 1.393 . S
C79 N83 1.413 . S
C80 H73 0.930 . S
C80 C79 1.393 . S
C80 C81 1.399 . S
C81 C80 1.399 . S
C81 C82 1.381 . S
C82 H74 0.930 . S
C82 C78 1.390 . S
C82 C81 1.381 . S
N83 C76 1.286 . S
N83 C79 1.413 . S
H84 C89 0.930 . S
H85 C92 0.930 . S
H86 C94 0.930 . S
H87 C88 1.016 . S
C88 H87 1.016 . S
C88 N95 1.286 . S
C89 H84 0.930 . S
C89 C90 1.397 . S
C89 C91 1.361 . S
C90 C89 1.397 . S
C90 C94 1.390 . S
C91 C89 1.361 . S
C91 C92 1.393 . S
C91 N95 1.413 . S
C92 H85 0.930 . S
C92 C91 1.393 . S
C92 C93 1.399 . S
C93 C92 1.399 . S
C93 C94 1.381 . S
C94 H86 0.930 . S
C94 C90 1.390 . S
C94 C93 1.381 . S
N95 C88 1.286 . S
N95 C91 1.413 . S
O96 Mg97 1.990 . S
O96 C110 1.253 . S
Mg97 O96 1.990 . S
Mg97 O100 2.180 1_565 S
Mg97 O101 2.117 . S
Mg97 O115 2.030 . S
O98 Mg99 2.072 1_565 S
O98 C110 1.260 . S
Mg99 O98 2.072 1_545 S
Mg99 O100 2.099 . S
Mg99 O102 2.079 . S
Mg99 O103 2.072 . S
Mg99 O105 2.099 1_455 S
Mg99 O116 2.079 1_445 S
O100 Mg97 2.180 1_545 S
O100 Mg99 2.099 . S
O100 C111 1.279 . S
O101 Mg97 2.117 . S
O101 C111 1.250 1_565 S
O102 Mg99 2.079 . S
O102 C112 1.264 . S
O103 Mg99 2.072 . S
O103 C113 1.260 . S
Mg104 O105 2.180 . S
Mg104 O106 2.030 . S
Mg104 O107 1.990 . S
Mg104 O108 2.117 . S
O105 Mg99 2.099 1_655 S
O105 Mg104 2.180 . S
O105 C114 1.279 . S
O106 Mg104 2.030 . S
O106 C112 1.248 1_655 S
O107 Mg104 1.990 . S
O107 C113 1.253 1_655 S
O108 Mg104 2.117 . S
O108 C114 1.250 . S
C109 O115 1.248 . S
C109 O116 1.264 1_455 S
C110 O96 1.253 . S
C110 O98 1.260 . S
C111 O100 1.279 . S
C111 O101 1.250 1_545 S
C112 O102 1.264 . S
C112 O106 1.248 1_455 S
C113 O103 1.260 . S
C113 O107 1.253 1_455 S
C114 O105 1.279 . S
C114 O108 1.250 . S
O115 Mg97 2.030 . S
O115 C109 1.248 . S
O116 Mg99 2.079 1_665 S
O116 C109 1.264 1_655 S
O117 Mg118 2.026 . S
O117 C131 1.210 1_565 S
Mg118 O117 2.026 . S
Mg118 O121 2.180 . S
Mg118 O122 2.117 . S
Mg118 O136 2.030 . S
O119 Mg120 2.072 . S
O119 C131 1.260 . S
Mg120 O119 2.072 . S
Mg120 O121 2.099 1_545 S
Mg120 O123 2.068 1_545 S
Mg120 O124 2.072 . S
Mg120 O126 2.099 . S
Mg120 O137 2.079 . S
O121 Mg118 2.180 . S
O121 Mg120 2.099 1_565 S
O121 C132 1.279 . S
O122 Mg118 2.117 . S
O122 C132 1.250 . S
O123 Mg120 2.068 1_565 S
O123 C133 1.259 1_565 S
O124 Mg120 2.072 . S
O124 C134 1.260 . S
Mg125 O126 2.180 . S
Mg125 O127 2.030 . S
Mg125 O128 1.990 . S
Mg125 O129 2.117 . S
O126 Mg120 2.099 . S
O126 Mg125 2.180 . S
O126 C135 1.279 . S
O127 Mg125 2.030 . S
O127 C133 1.248 . S
O128 Mg125 1.990 . S
O128 C134 1.253 . S
O129 Mg125 2.117 . S
O129 C135 1.250 . S
C130 O136 1.248 1_545 S
C130 O137 1.264 . S
C131 O117 1.210 1_545 S
C131 O119 1.260 . S
C132 O121 1.279 . S
C132 O122 1.250 . S
C133 O123 1.259 1_545 S
C133 O127 1.248 . S
C134 O124 1.260 . S
C134 O128 1.253 . S
C135 O126 1.279 . S
C135 O129 1.250 . S
O136 Mg118 2.030 . S
O136 C130 1.248 1_565 S
O137 Mg120 2.079 . S
O137 C130 1.264 . S
O138 Mg139 1.990 . S
O138 C152 1.253 . S
Mg139 O138 1.990 . S
Mg139 O142 2.180 . S
Mg139 O143 2.117 . S
Mg139 O157 2.030 . S
O140 Mg141 2.072 . S
O140 C152 1.260 . S
Mg141 O140 2.072 . S
Mg141 O142 2.099 . S
Mg141 O144 2.079 . S
Mg141 O145 2.072 . S
Mg141 O147 2.099 . S
Mg141 O158 2.079 . S
O142 Mg139 2.180 . S
O142 Mg141 2.099 . S
O142 C153 1.279 . S
O143 Mg139 2.117 . S
O143 C153 1.250 . S
O144 Mg141 2.079 . S
O144 C154 1.264 . S
O145 Mg141 2.072 . S
O145 C155 1.260 . S
Mg146 O147 2.180 . S
Mg146 O148 2.030 . S
Mg146 O149 1.990 . S
Mg146 O150 2.117 . S
O147 Mg141 2.099 . S
O147 Mg146 2.180 . S
O147 C156 1.279 . S
O148 Mg146 2.030 . S
O148 C154 1.248 . S
O149 Mg146 1.990 . S
O149 C155 1.253 . S
O150 Mg146 2.117 . S
O150 C156 1.250 . S
C151 O157 1.248 . S
C151 O158 1.264 . S
C152 O138 1.253 . S
C152 O140 1.260 . S
C153 O142 1.279 . S
C153 O143 1.250 . S
C154 O144 1.264 . S
C154 O148 1.248 . S
C155 O145 1.260 . S
C155 O149 1.253 . S
C156 O147 1.279 . S
C156 O150 1.250 . S
O157 Mg139 2.030 . S
O157 C151 1.248 . S
O158 Mg141 2.079 . S
O158 C151 1.264 . S
O159 Mg160 1.990 . S
O159 C173 1.253 . S
Mg160 O159 1.990 . S
Mg160 O163 2.180 1_655 S
Mg160 O164 2.117 . S
Mg160 O178 2.030 . S
O161 Mg162 2.072 1_655 S
O161 C173 1.260 . S
Mg162 O161 2.072 1_455 S
Mg162 O163 2.099 . S
Mg162 O165 2.079 . S
Mg162 O166 2.072 . S
Mg162 O168 2.099 . S
Mg162 O179 2.079 1_455 S
O163 Mg160 2.180 1_455 S
O163 Mg162 2.099 . S
O163 C174 1.279 . S
O164 Mg160 2.117 . S
O164 C174 1.250 1_655 S
O165 Mg162 2.079 . S
O165 C175 1.264 . S
O166 Mg162 2.072 . S
O166 C176 1.260 . S
Mg167 O168 2.180 . S
Mg167 O169 2.030 . S
Mg167 O170 1.990 . S
Mg167 O171 2.117 . S
O168 Mg162 2.099 . S
O168 Mg167 2.180 . S
O168 C177 1.279 . S
O169 Mg167 2.030 . S
O169 C175 1.248 . S
O170 Mg167 1.990 . S
O170 C176 1.253 . S
O171 Mg167 2.117 . S
O171 C177 1.250 . S
C172 O178 1.248 . S
C172 O179 1.264 . S
C173 O159 1.253 . S
C173 O161 1.260 . S
C174 O163 1.279 . S
C174 O164 1.250 1_455 S
C175 O165 1.264 . S
C175 O169 1.248 . S
C176 O166 1.260 . S
C176 O170 1.253 . S
C177 O168 1.279 . S
C177 O171 1.250 . S
O178 Mg160 2.030 . S
O178 C172 1.248 . S
O179 Mg162 2.079 1_655 S
O179 C172 1.264 . S
H180 C198 0.951 . S
H181 C200 0.951 . S
H182 C202 0.950 . S
H183 C203 0.950 . S
H184 C205 0.950 . S
H185 C208 0.950 . S
H186 C209 0.950 . S
H187 C211 0.950 . S
H188 C212 0.950 . S
H189 C213 0.951 . S
H190 C215 0.951 . S
H191 C217 0.950 . S
H192 C218 0.950 . S
H193 C220 0.950 . S
H194 C223 0.950 . S
H195 C224 0.950 . S
H196 C226 0.950 . S
H197 C227 0.950 . S
C198 H180 0.951 . S
C198 C199 1.366 . S
C198 C200 1.388 . S
C199 C198 1.366 . S
C199 C203 1.385 . S
C200 H181 0.951 . S
C200 C198 1.388 . S
C200 C201 1.366 . S
C201 C200 1.366 . S
C201 C202 1.414 . S
C201 C204 1.499 . S
C202 H182 0.950 . S
C202 C201 1.414 . S
C202 C203 1.374 . S
C203 H183 0.950 . S
C203 C199 1.385 . S
C203 C202 1.374 . S
C204 C201 1.499 . S
C204 C205 1.373 . S
C204 C206 1.389 . S
C205 H184 0.950 . S
C205 C204 1.373 . S
C205 C221 1.377 . S
C206 C204 1.389 . S
C206 C207 1.524 . S
C206 C220 1.377 . S
C207 C206 1.524 . S
C207 C208 1.397 . S
C207 C212 1.363 . S
C208 H185 0.950 . S
C208 C207 1.397 . S
C208 C209 1.334 . S
C209 H186 0.950 . S
C209 C208 1.334 . S
C209 C210 1.287 . S
C210 C209 1.287 . S
C210 C211 1.524 . S
C210 H229 0.913 . S
C211 H187 0.950 . S
C211 C210 1.524 . S
C211 C212 1.415 . S
C212 H188 0.950 . S
C212 C207 1.363 . S
C212 C211 1.415 . S
C213 H189 0.951 . S
C213 C214 1.366 . S
C213 C215 1.388 . S
C214 C213 1.366 . S
C214 C218 1.385 . S
C215 H190 0.951 . S
C215 C213 1.388 . S
C215 C216 1.366 . S
C216 C215 1.366 . S
C216 C217 1.414 . S
C216 C219 1.499 . S
C217 H191 0.950 . S
C217 C216 1.414 . S
C217 C218 1.374 . S
C218 H192 0.950 . S
C218 C214 1.385 . S
C218 C217 1.374 . S
C219 C216 1.499 . S
C219 C220 1.373 . S
C219 C221 1.389 . S
C220 H193 0.950 . S
C220 C206 1.377 . S
C220 C219 1.373 . S
C221 C205 1.377 . S
C221 C219 1.389 . S
C221 C222 1.524 . S
C222 C221 1.524 . S
C222 C223 1.397 1_545 S
C222 C227 1.363 . S
C223 H194 0.950 . S
C223 C222 1.397 1_565 S
C223 C224 1.334 . S
C224 H195 0.950 . S
C224 C223 1.334 . S
C224 C225 1.287 . S
C225 C224 1.287 . S
C225 C226 1.524 . S
C225 H228 0.999 . S
C226 H196 0.950 . S
C226 C225 1.524 . S
C226 C227 1.415 1_565 S
C227 H197 0.950 . S
C227 C222 1.363 . S
C227 C226 1.415 1_545 S
H228 C225 0.999 . S
H229 C210 0.913 . S
H230 C248 0.951 . S
H231 C250 0.951 . S
H232 C252 0.950 . S
H233 C253 0.950 . S
H234 C255 0.950 . S
H235 C258 0.950 . S
H236 C259 0.950 . S
H237 C261 0.950 . S
H238 C262 0.950 . S
H239 C263 0.951 . S
H240 C265 0.951 . S
H241 C267 0.950 . S
H242 C268 0.950 . S
H243 C270 0.950 . S
H244 C273 0.950 . S
H245 C274 0.950 . S
H246 C276 0.950 . S
H247 C277 0.950 . S
C248 H230 0.951 . S
C248 C249 1.366 . S
C248 C250 1.388 . S
C249 C248 1.366 . S
C249 C253 1.385 . S
C250 H231 0.951 . S
C250 C248 1.388 . S
C250 C251 1.366 . S
C251 C250 1.366 . S
C251 C252 1.414 . S
C251 C254 1.499 . S
C252 H232 0.950 . S
C252 C251 1.414 . S
C252 C253 1.374 . S
C253 H233 0.950 . S
C253 C249 1.385 . S
C253 C252 1.374 . S
C254 C251 1.499 . S
C254 C255 1.373 . S
C254 C256 1.389 . S
C255 H234 0.950 . S
C255 C254 1.373 . S
C255 C271 1.377 . S
C256 C254 1.389 . S
C256 C257 1.524 . S
C256 C270 1.377 . S
C257 C256 1.524 . S
C257 C258 1.397 . S
C257 C262 1.363 . S
C258 H235 0.950 . S
C258 C257 1.397 . S
C258 C259 1.334 . S
C259 H236 0.950 . S
C259 C258 1.334 . S
C259 C260 1.287 . S
C260 C259 1.287 . S
C260 C261 1.524 . S
C260 H279 0.913 . S
C261 H237 0.950 . S
C261 C260 1.524 . S
C261 C262 1.415 . S
C262 H238 0.950 . S
C262 C257 1.363 . S
C262 C261 1.415 . S
C263 H239 0.951 . S
C263 C264 1.366 . S
C263 C265 1.388 . S
C264 C263 1.366 . S
C264 C268 1.385 . S
C265 H240 0.951 . S
C265 C263 1.388 . S
C265 C266 1.366 . S
C266 C265 1.366 . S
C266 C267 1.414 . S
C266 C269 1.499 . S
C267 H241 0.950 . S
C267 C266 1.414 . S
C267 C268 1.374 . S
C268 H242 0.950 . S
C268 C264 1.385 . S
C268 C267 1.374 . S
C269 C266 1.499 . S
C269 C270 1.373 . S
C269 C271 1.389 . S
C270 H243 0.950 . S
C270 C256 1.377 . S
C270 C269 1.373 . S
C271 C255 1.377 . S
C271 C269 1.389 . S
C271 C272 1.524 . S
C272 C271 1.524 . S
C272 C273 1.397 . S
C272 C277 1.363 . S
C273 H244 0.950 . S
C273 C272 1.397 . S
C273 C274 1.334 . S
C274 H245 0.950 . S
C274 C273 1.334 . S
C274 C275 1.287 . S
C275 C274 1.287 . S
C275 C276 1.524 . S
C275 H278 0.999 . S
C276 H246 0.950 . S
C276 C275 1.524 . S
C276 C277 1.415 . S
C277 H247 0.950 . S
C277 C272 1.363 . S
C277 C276 1.415 . S
H278 C275 0.999 . S
H279 C260 0.913 . S
H280 C298 0.951 . S
H281 C300 0.951 . S
H282 C302 0.950 . S
H283 C303 0.950 . S
H284 C305 0.950 . S
H285 C308 0.950 . S
H286 C309 0.950 . S
H287 C311 0.950 . S
H288 C312 0.950 . S
H289 C313 0.951 . S
H290 C315 0.951 . S
H291 C317 0.950 . S
H292 C318 0.950 . S
H293 C320 0.950 . S
H294 C323 0.950 . S
H295 C324 0.950 . S
H296 C326 0.950 . S
H297 C327 0.950 . S
C298 H280 0.951 . S
C298 C299 1.366 . S
C298 C300 1.388 . S
C299 C298 1.366 . S
C299 C303 1.385 . S
C300 H281 0.951 . S
C300 C298 1.388 . S
C300 C301 1.366 . S
C301 C300 1.366 . S
C301 C302 1.414 . S
C301 C304 1.499 . S
C302 H282 0.950 . S
C302 C301 1.414 . S
C302 C303 1.374 . S
C303 H283 0.950 . S
C303 C299 1.385 . S
C303 C302 1.374 . S
C304 C301 1.499 . S
C304 C305 1.373 . S
C304 C306 1.389 . S
C305 H284 0.950 . S
C305 C304 1.373 . S
C305 C321 1.377 . S
C306 C304 1.389 . S
C306 C307 1.524 . S
C306 C320 1.377 . S
C307 C306 1.524 . S
C307 C308 1.397 . S
C307 C312 1.363 . S
C308 H285 0.950 . S
C308 C307 1.397 . S
C308 C309 1.334 . S
C309 H286 0.950 . S
C309 C308 1.334 . S
C309 C310 1.287 . S
C310 C309 1.287 . S
C310 C311 1.524 . S
C310 H329 0.913 . S
C311 H287 0.950 . S
C311 C310 1.524 . S
C311 C312 1.415 . S
C312 H288 0.950 . S
C312 C307 1.363 . S
C312 C311 1.415 . S
C313 H289 0.951 . S
C313 C314 1.366 . S
C313 C315 1.388 . S
C314 C313 1.366 . S
C314 C318 1.385 . S
C315 H290 0.951 . S
C315 C313 1.388 . S
C315 C316 1.366 . S
C316 C315 1.366 . S
C316 C317 1.414 . S
C316 C319 1.499 . S
C317 H291 0.950 . S
C317 C316 1.414 . S
C317 C318 1.374 . S
C318 H292 0.950 . S
C318 C314 1.385 . S
C318 C317 1.374 . S
C319 C316 1.499 . S
C319 C320 1.373 . S
C319 C321 1.389 . S
C320 H293 0.950 . S
C320 C306 1.377 . S
C320 C319 1.373 . S
C321 C305 1.377 . S
C321 C319 1.389 . S
C321 C322 1.524 . S
C322 C321 1.524 . S
C322 C323 1.397 . S
C322 C327 1.363 . S
C323 H294 0.950 . S
C323 C322 1.397 . S
C323 C324 1.334 . S
C324 H295 0.950 . S
C324 C323 1.334 . S
C324 C325 1.287 . S
C325 C324 1.287 . S
C325 C326 1.524 . S
C325 H328 0.999 . S
C326 H296 0.950 . S
C326 C325 1.524 . S
C326 C327 1.415 . S
C327 H297 0.950 . S
C327 C322 1.363 . S
C327 C326 1.415 . S
H328 C325 0.999 . S
H329 C310 0.913 . S
H330 C348 0.951 . S
H331 C350 0.951 . S
H332 C352 0.950 . S
H333 C353 0.950 . S
H334 C355 0.950 . S
H335 C358 0.950 . S
H336 C359 0.950 . S
H337 C361 0.950 . S
H338 C362 0.950 . S
H339 C363 0.951 . S
H340 C365 0.951 . S
H341 C367 0.950 . S
H342 C368 0.950 . S
H343 C370 0.950 . S
H344 C373 0.950 . S
H345 C374 0.950 . S
H346 C376 0.950 . S
H347 C377 0.950 . S
C348 H330 0.951 . S
C348 C349 1.366 . S
C348 C350 1.388 . S
C349 C348 1.366 . S
C349 C353 1.385 . S
C350 H331 0.951 . S
C350 C348 1.388 . S
C350 C351 1.366 . S
C351 C350 1.366 . S
C351 C352 1.414 . S
C351 C354 1.499 . S
C352 H332 0.950 . S
C352 C351 1.414 . S
C352 C353 1.374 . S
C353 H333 0.950 . S
C353 C349 1.385 . S
C353 C352 1.374 . S
C354 C351 1.499 . S
C354 C355 1.373 . S
C354 C356 1.389 . S
C355 H334 0.950 . S
C355 C354 1.373 . S
C355 C371 1.377 . S
C356 C354 1.389 . S
C356 C357 1.524 . S
C356 C370 1.377 . S
C357 C356 1.524 . S
C357 C358 1.397 1_455 S
C357 C362 1.363 . S
C358 H335 0.950 . S
C358 C357 1.397 1_655 S
C358 C359 1.334 . S
C359 H336 0.950 . S
C359 C358 1.334 . S
C359 C360 1.287 . S
C360 C359 1.287 . S
C360 C361 1.524 . S
C360 H379 0.913 . S
C361 H337 0.950 . S
C361 C360 1.524 . S
C361 C362 1.415 1_655 S
C362 H338 0.950 . S
C362 C357 1.363 . S
C362 C361 1.415 1_455 S
C363 H339 0.951 . S
C363 C364 1.366 . S
C363 C365 1.388 . S
C364 C363 1.366 . S
C364 C368 1.385 . S
C365 H340 0.951 . S
C365 C363 1.388 . S
C365 C366 1.366 . S
C366 C365 1.366 . S
C366 C367 1.414 . S
C366 C369 1.499 . S
C367 H341 0.950 . S
C367 C366 1.414 . S
C367 C368 1.374 . S
C368 H342 0.950 . S
C368 C364 1.385 . S
C368 C367 1.374 . S
C369 C366 1.499 . S
C369 C370 1.373 . S
C369 C371 1.389 . S
C370 H343 0.950 . S
C370 C356 1.377 . S
C370 C369 1.373 . S
C371 C355 1.377 . S
C371 C369 1.389 . S
C371 C372 1.524 . S
C372 C371 1.524 . S
C372 C373 1.397 . S
C372 C377 1.363 . S
C373 H344 0.950 . S
C373 C372 1.397 . S
C373 C374 1.334 . S
C374 H345 0.950 . S
C374 C373 1.334 . S
C374 C375 1.287 . S
C375 C374 1.287 . S
C375 C376 1.524 . S
C375 H378 0.999 . S
C376 H346 0.950 . S
C376 C375 1.524 . S
C376 C377 1.415 . S
C377 H347 0.950 . S
C377 C372 1.363 . S
C377 C376 1.415 . S
H378 C375 0.999 . S
H379 C360 0.913 . S
H380 C398 0.951 . S
H381 C400 0.951 . S
H382 C402 0.950 . S
H383 C403 0.950 . S
H384 C405 0.950 . S
H385 C408 0.950 . S
H386 C409 0.950 . S
H387 C411 0.950 . S
H388 C412 0.950 . S
H389 C413 0.951 . S
H390 C415 0.951 . S
H391 C417 0.950 1_545 S
H392 C418 0.950 . S
H393 C420 0.950 . S
H394 C423 0.950 . S
H395 C424 0.950 . S
H396 C426 0.950 . S
H397 C427 0.950 . S
C398 H380 0.951 . S
C398 C399 1.366 . S
C398 C400 1.388 . S
C399 C398 1.366 . S
C399 C403 1.385 1_554 S
C400 H381 0.951 . S
C400 C398 1.388 . S
C400 C401 1.366 1_554 S
C401 C400 1.366 1_556 S
C401 C402 1.414 . S
C401 C404 1.499 . S
C402 H382 0.950 . S
C402 C401 1.414 . S
C402 C403 1.374 . S
C403 H383 0.950 . S
C403 C399 1.385 1_556 S
C403 C402 1.374 . S
C404 C401 1.499 . S
C404 C405 1.373 . S
C404 C406 1.389 1_565 S
C405 H384 0.950 . S
C405 C404 1.373 . S
C405 C421 1.377 . S
C406 C404 1.389 1_545 S
C406 C407 1.524 1_556 S
C406 C420 1.377 . S
C407 C406 1.524 1_554 S
C407 C408 1.397 1_554 S
C407 C412 1.363 . S
C408 H385 0.950 . S
C408 C407 1.397 1_556 S
C408 C409 1.334 1_556 S
C409 H386 0.950 . S
C409 C408 1.334 1_554 S
C409 C410 1.287 . S
C410 C409 1.287 . S
C410 C411 1.524 . S
C410 H429 0.913 . S
C411 H387 0.950 . S
C411 C410 1.524 . S
C411 C412 1.415 . S
C412 H388 0.950 . S
C412 C407 1.363 . S
C412 C411 1.415 . S
C413 H389 0.951 . S
C413 C414 1.358 1_565 S
C413 C415 1.397 . S
C414 C413 1.358 1_545 S
C414 C418 1.385 . S
C415 H390 0.951 . S
C415 C413 1.397 . S
C415 C416 1.366 . S
C416 C415 1.366 . S
C416 C417 1.413 . S
C416 C419 1.499 . S
C417 H391 0.950 1_565 S
C417 C416 1.413 . S
C417 C418 1.375 1_565 S
C418 H392 0.950 . S
C418 C414 1.385 . S
C418 C417 1.375 1_545 S
C419 C416 1.499 . S
C419 C420 1.373 1_565 S
C419 C421 1.389 . S
C420 H393 0.950 . S
C420 C406 1.377 . S
C420 C419 1.373 1_545 S
C421 C405 1.377 . S
C421 C419 1.389 . S
C421 C422 1.524 . S
C422 C421 1.524 . S
C422 C423 1.397 . S
C422 C427 1.363 . S
C423 H394 0.950 . S
C423 C422 1.397 . S
C423 C424 1.334 . S
C424 H395 0.950 . S
C424 C423 1.334 . S
C424 C425 1.287 . S
C425 C424 1.287 . S
C425 C426 1.524 . S
C425 H428 0.999 . S
C426 H396 0.950 . S
C426 C425 1.524 . S
C426 C427 1.415 . S
C427 H397 0.950 . S
C427 C422 1.363 . S
C427 C426 1.415 . S
H428 C425 0.999 . S
H429 C410 0.913 . S
H430 C448 0.951 . S
H431 C450 0.951 . S
H432 C452 0.950 . S
H433 C453 0.950 . S
H434 C455 0.950 . S
H435 C458 0.950 . S
H436 C459 0.950 1_556 S
H437 C461 0.950 . S
H438 C462 0.950 . S
H439 C463 0.951 . S
H440 C465 0.951 . S
H441 C467 0.950 . S
H442 C468 0.950 . S
H443 C470 0.950 . S
H444 C473 0.950 . S
H445 C474 0.950 . S
H446 C476 0.950 . S
H447 C477 0.950 . S
C448 H430 0.951 . S
C448 C449 1.366 . S
C448 C450 1.388 . S
C449 C448 1.366 . S
C449 C453 1.385 1_554 S
C450 H431 0.951 . S
C450 C448 1.388 . S
C450 C451 1.366 1_554 S
C451 C450 1.366 1_556 S
C451 C452 1.414 . S
C451 C454 1.499 . S
C452 H432 0.950 . S
C452 C451 1.414 . S
C452 C453 1.374 . S
C453 H433 0.950 . S
C453 C449 1.385 1_556 S
C453 C452 1.374 . S
C454 C451 1.499 . S
C454 C455 1.373 . S
C454 C456 1.389 . S
C455 H434 0.950 . S
C455 C454 1.373 . S
C455 C471 1.377 . S
C456 C454 1.389 . S
C456 C457 1.524 . S
C456 C470 1.377 . S
C457 C456 1.524 . S
C457 C458 1.397 . S
C457 C462 1.363 1_556 S
C458 H435 0.950 . S
C458 C457 1.397 . S
C458 C459 1.334 1_556 S
C459 H436 0.950 1_554 S
C459 C458 1.334 1_554 S
C459 C460 1.287 . S
C460 C459 1.287 . S
C460 C461 1.524 . S
C460 H479 0.913 . S
C461 H437 0.950 . S
C461 C460 1.524 . S
C461 C462 1.415 . S
C462 H438 0.950 . S
C462 C457 1.363 1_554 S
C462 C461 1.415 . S
C463 H439 0.951 . S
C463 C464 1.366 . S
C463 C465 1.388 . S
C464 C463 1.366 . S
C464 C468 1.385 . S
C465 H440 0.951 . S
C465 C463 1.388 . S
C465 C466 1.366 . S
C466 C465 1.366 . S
C466 C467 1.414 . S
C466 C469 1.499 . S
C467 H441 0.950 . S
C467 C466 1.414 . S
C467 C468 1.374 . S
C468 H442 0.950 . S
C468 C464 1.385 . S
C468 C467 1.374 . S
C469 C466 1.499 . S
C469 C470 1.373 . S
C469 C471 1.389 . S
C470 H443 0.950 . S
C470 C456 1.377 . S
C470 C469 1.373 . S
C471 C455 1.377 . S
C471 C469 1.389 . S
C471 C472 1.524 . S
C472 C471 1.524 . S
C472 C473 1.397 . S
C472 C477 1.363 . S
C473 H444 0.950 . S
C473 C472 1.397 . S
C473 C474 1.334 . S
C474 H445 0.950 . S
C474 C473 1.334 . S
C474 C475 1.287 . S
C475 C474 1.287 . S
C475 C476 1.524 . S
C475 H478 0.999 . S
C476 H446 0.950 . S
C476 C475 1.524 . S
C476 C477 1.415 . S
C477 H447 0.950 . S
C477 C472 1.363 . S
C477 C476 1.415 . S
H478 C475 0.999 . S
H479 C460 0.913 . S
H480 C498 0.951 . S
H481 C500 0.951 . S
H482 C502 0.950 . S
H483 C503 0.950 . S
H484 C505 0.950 . S
H485 C508 0.950 . S
H486 C509 0.950 . S
H487 C511 0.950 . S
H488 C512 0.950 . S
H489 C513 0.951 . S
H490 C515 0.951 . S
H491 C517 0.950 . S
H492 C518 0.950 . S
H493 C520 0.950 . S
H494 C523 0.950 . S
H495 C524 0.950 . S
H496 C526 0.950 . S
H497 C527 0.950 . S
C498 H480 0.951 . S
C498 C499 1.366 . S
C498 C500 1.388 . S
C499 C498 1.366 . S
C499 C503 1.385 1_554 S
C500 H481 0.951 . S
C500 C498 1.388 . S
C500 C501 1.366 1_554 S
C501 C500 1.366 1_556 S
C501 C502 1.414 . S
C501 C504 1.499 . S
C502 H482 0.950 . S
C502 C501 1.414 . S
C502 C503 1.374 . S
C503 H483 0.950 . S
C503 C499 1.385 1_556 S
C503 C502 1.374 . S
C504 C501 1.499 . S
C504 C505 1.373 . S
C504 C506 1.389 . S
C505 H484 0.950 . S
C505 C504 1.373 . S
C505 C521 1.377 . S
C506 C504 1.389 . S
C506 C507 1.524 1_556 S
C506 C520 1.377 . S
C507 C506 1.524 1_554 S
C507 C508 1.397 . S
C507 C512 1.363 . S
C508 H485 0.950 . S
C508 C507 1.397 . S
C508 C509 1.334 . S
C509 H486 0.950 . S
C509 C508 1.334 . S
C509 C510 1.287 . S
C510 C509 1.287 . S
C510 C511 1.524 . S
C510 H529 0.913 . S
C511 H487 0.950 . S
C511 C510 1.524 . S
C511 C512 1.415 . S
C512 H488 0.950 . S
C512 C507 1.363 . S
C512 C511 1.415 . S
C513 H489 0.951 . S
C513 C514 1.366 . S
C513 C515 1.388 . S
C514 C513 1.366 . S
C514 C518 1.385 . S
C515 H490 0.951 . S
C515 C513 1.388 . S
C515 C516 1.366 . S
C516 C515 1.366 . S
C516 C517 1.414 . S
C516 C519 1.499 . S
C517 H491 0.950 . S
C517 C516 1.414 . S
C517 C518 1.374 . S
C518 H492 0.950 . S
C518 C514 1.385 . S
C518 C517 1.374 . S
C519 C516 1.499 . S
C519 C520 1.373 . S
C519 C521 1.389 . S
C520 H493 0.950 . S
C520 C506 1.377 . S
C520 C519 1.373 . S
C521 C505 1.377 . S
C521 C519 1.389 . S
C521 C522 1.524 . S
C522 C521 1.524 . S
C522 C523 1.397 . S
C522 C527 1.363 . S
C523 H494 0.950 . S
C523 C522 1.397 . S
C523 C524 1.334 . S
C524 H495 0.950 . S
C524 C523 1.334 . S
C524 C525 1.287 . S
C525 C524 1.287 . S
C525 C526 1.524 . S
C525 H528 0.999 . S
C526 H496 0.950 . S
C526 C525 1.524 . S
C526 C527 1.415 . S
C527 H497 0.950 . S
C527 C522 1.363 . S
C527 C526 1.415 . S
H528 C525 0.999 . S
H529 C510 0.913 . S
H530 C548 0.951 . S
H531 C550 0.951 . S
H532 C552 0.950 . S
H533 C553 0.950 . S
H534 C555 0.950 1_454 S
H535 C558 0.950 . S
H536 C559 0.950 . S
H537 C561 0.950 . S
H538 C562 0.950 . S
H539 C563 0.951 . S
H540 C565 0.951 . S
H541 C567 0.950 . S
H542 C568 0.950 . S
H543 C570 0.950 . S
H544 C573 0.950 . S
H545 C574 0.950 . S
H546 C576 0.950 . S
H547 C577 0.950 . S
C548 H530 0.951 . S
C548 C549 1.366 1_556 S
C548 C550 1.388 . S
C549 C548 1.366 1_554 S
C549 C553 1.385 . S
C550 H531 0.951 . S
C550 C548 1.388 . S
C550 C551 1.366 . S
C551 C550 1.366 . S
C551 C552 1.414 1_556 S
C551 C554 1.499 . S
C552 H532 0.950 . S
C552 C551 1.414 1_554 S
C552 C553 1.374 . S
C553 H533 0.950 . S
C553 C549 1.385 . S
C553 C552 1.374 . S
C554 C551 1.499 . S
C554 C555 1.373 . S
C554 C556 1.389 . S
C555 H534 0.950 1_656 S
C555 C554 1.373 . S
C555 C571 1.377 1_655 S
C556 C554 1.389 . S
C556 C557 1.524 . S
C556 C570 1.377 . S
C557 C556 1.524 . S
C557 C558 1.397 . S
C557 C562 1.363 . S
C558 H535 0.950 . S
C558 C557 1.397 . S
C558 C559 1.334 . S
C559 H536 0.950 . S
C559 C558 1.334 . S
C559 C560 1.287 . S
C560 C559 1.287 . S
C560 C561 1.524 . S
C560 H579 0.913 . S
C561 H537 0.950 . S
C561 C560 1.524 . S
C561 C562 1.415 . S
C562 H538 0.950 . S
C562 C557 1.363 . S
C562 C561 1.415 . S
C563 H539 0.951 . S
C563 C564 1.366 1_655 S
C563 C565 1.388 . S
C564 C563 1.366 1_455 S
C564 C568 1.385 . S
C565 H540 0.951 . S
C565 C563 1.388 . S
C565 C566 1.366 . S
C566 C565 1.366 . S
C566 C567 1.414 1_655 S
C566 C569 1.499 . S
C567 H541 0.950 . S
C567 C566 1.414 1_455 S
C567 C568 1.374 . S
C568 H542 0.950 . S
C568 C564 1.385 . S
C568 C567 1.374 . S
C569 C566 1.499 . S
C569 C570 1.373 . S
C569 C571 1.389 1_655 S
C570 H543 0.950 . S
C570 C556 1.377 . S
C570 C569 1.373 . S
C571 C555 1.377 1_455 S
C571 C569 1.389 1_455 S
C571 C572 1.524 . S
C572 C571 1.524 . S
C572 C573 1.397 . S
C572 C577 1.363 1_556 S
C573 H544 0.950 . S
C573 C572 1.397 . S
C573 C574 1.334 . S
C574 H545 0.950 . S
C574 C573 1.334 . S
C574 C575 1.287 1_556 S
C575 C574 1.287 1_554 S
C575 C576 1.524 . S
C575 H578 0.999 . S
C576 H546 0.950 . S
C576 C575 1.524 . S
C576 C577 1.415 . S
C577 H547 0.950 . S
C577 C572 1.363 1_554 S
C577 C576 1.415 . S
H578 C575 0.999 . S
H579 C560 0.913 . S
H580 C598 0.951 . S
H581 C600 0.951 . S
H582 C602 0.950 . S
H583 C603 0.950 . S
H584 C605 0.950 . S
H585 C608 0.950 1_455 S
H586 C609 0.950 . S
H587 C611 0.950 . S
H588 C612 0.950 . S
H589 C613 0.951 . S
H590 C615 0.951 . S
H591 C617 0.950 1_655 S
H592 C618 0.950 . S
H593 C620 0.950 1_655 S
H594 C623 0.950 . S
H595 C624 0.950 . S
H596 C626 0.950 . S
H597 C627 0.950 . S
C598 H580 0.951 . S
C598 C599 1.366 . S
C598 C600 1.388 . S
C599 C598 1.366 . S
C599 C603 1.385 . S
C600 H581 0.951 . S
C600 C598 1.388 . S
C600 C601 1.366 . S
C601 C600 1.366 . S
C601 C602 1.414 . S
C601 C604 1.499 . S
C602 H582 0.950 . S
C602 C601 1.414 . S
C602 C603 1.374 . S
C603 H583 0.950 . S
C603 C599 1.385 . S
C603 C602 1.374 . S
C604 C601 1.499 . S
C604 C605 1.373 . S
C604 C606 1.389 . S
C605 H584 0.950 . S
C605 C604 1.373 . S
C605 C621 1.377 . S
C606 C604 1.389 . S
C606 C607 1.524 1_455 S
C606 C620 1.377 . S
C607 C606 1.524 1_655 S
C607 C608 1.397 . S
C607 C612 1.363 . S
C608 H585 0.950 1_655 S
C608 C607 1.397 . S
C608 C609 1.334 . S
C609 H586 0.950 . S
C609 C608 1.334 . S
C609 C610 1.287 . S
C610 C609 1.287 . S
C610 C611 1.524 . S
C610 H629 0.913 . S
C611 H587 0.950 . S
C611 C610 1.524 . S
C611 C612 1.415 . S
C612 H588 0.950 . S
C612 C607 1.363 . S
C612 C611 1.415 . S
C613 H589 0.951 . S
C613 C614 1.366 . S
C613 C615 1.388 . S
C614 C613 1.366 . S
C614 C618 1.385 1_455 S
C615 H590 0.951 . S
C615 C613 1.388 . S
C615 C616 1.366 . S
C616 C615 1.366 . S
C616 C617 1.414 . S
C616 C619 1.499 . S
C617 H591 0.950 1_455 S
C617 C616 1.414 . S
C617 C618 1.374 1_455 S
C618 H592 0.950 . S
C618 C614 1.385 1_655 S
C618 C617 1.374 1_655 S
C619 C616 1.499 . S
C619 C620 1.373 . S
C619 C621 1.389 . S
C620 H593 0.950 1_455 S
C620 C606 1.377 . S
C620 C619 1.373 . S
C621 C605 1.377 . S
C621 C619 1.389 . S
C621 C622 1.524 . S
C622 C621 1.524 . S
C622 C623 1.397 . S
C622 C627 1.363 . S
C623 H594 0.950 . S
C623 C622 1.397 . S
C623 C624 1.334 . S
C624 H595 0.950 . S
C624 C623 1.334 . S
C624 C625 1.287 . S
C625 C624 1.287 . S
C625 C626 1.524 . S
C625 H628 0.999 . S
C626 H596 0.950 . S
C626 C625 1.524 . S
C626 C627 1.415 . S
C627 H597 0.950 . S
C627 C622 1.363 . S
C627 C626 1.415 . S
H628 C625 0.999 . S
H629 C610 0.913 . S
H630 C648 0.951 . S
H631 C650 0.951 . S
H632 C652 0.950 . S
H633 C653 0.950 . S
H634 C655 0.950 . S
H635 C658 0.950 . S
H636 C659 0.950 . S
H637 C661 0.950 . S
H638 C662 0.950 . S
H639 C663 0.951 . S
H640 C665 0.951 . S
H641 C667 0.950 . S
H642 C668 0.950 . S
H643 C670 0.950 . S
H644 C673 0.950 1_565 S
H645 C674 0.971 . S
H646 C676 0.950 . S
H647 C677 0.950 . S
C648 H630 0.951 . S
C648 C649 1.366 . S
C648 C650 1.388 . S
C649 C648 1.366 . S
C649 C653 1.385 . S
C650 H631 0.951 . S
C650 C648 1.388 . S
C650 C651 1.366 . S
C651 C650 1.366 . S
C651 C652 1.414 . S
C651 C654 1.499 . S
C652 H632 0.950 . S
C652 C651 1.414 . S
C652 C653 1.374 . S
C653 H633 0.950 . S
C653 C649 1.385 . S
C653 C652 1.374 . S
C654 C651 1.499 . S
C654 C655 1.373 . S
C654 C656 1.389 . S
C655 H634 0.950 . S
C655 C654 1.373 . S
C655 C671 1.377 . S
C656 C654 1.389 . S
C656 C657 1.524 . S
C656 C670 1.377 . S
C657 C656 1.524 . S
C657 C658 1.397 . S
C657 C662 1.363 . S
C658 H635 0.950 . S
C658 C657 1.397 . S
C658 C659 1.334 . S
C659 H636 0.950 . S
C659 C658 1.334 . S
C659 C660 1.287 . S
C660 C659 1.287 . S
C660 C661 1.524 . S
C660 H679 0.913 . S
C661 H637 0.950 . S
C661 C660 1.524 . S
C661 C662 1.415 . S
C662 H638 0.950 . S
C662 C657 1.363 . S
C662 C661 1.415 . S
C663 H639 0.951 . S
C663 C664 1.366 . S
C663 C665 1.388 . S
C664 C663 1.366 . S
C664 C668 1.385 1_545 S
C665 H640 0.951 . S
C665 C663 1.388 . S
C665 C666 1.366 . S
C666 C665 1.366 . S
C666 C667 1.414 1_545 S
C666 C669 1.499 . S
C667 H641 0.950 . S
C667 C666 1.414 1_565 S
C667 C668 1.374 . S
C668 H642 0.950 . S
C668 C664 1.385 1_565 S
C668 C667 1.374 . S
C669 C666 1.499 . S
C669 C670 1.373 . S
C669 C671 1.389 . S
C670 H643 0.950 . S
C670 C656 1.377 . S
C670 C669 1.373 . S
C671 C655 1.377 . S
C671 C669 1.389 . S
C671 C672 1.524 . S
C672 C671 1.524 . S
C672 C673 1.397 . S
C672 C677 1.363 . S
C673 H644 0.950 1_545 S
C673 C672 1.397 . S
C673 C674 1.329 1_545 S
C674 H645 0.971 . S
C674 C673 1.329 1_565 S
C674 C675 1.270 1_565 S
C675 C674 1.270 1_545 S
C675 C676 1.524 . S
C675 H678 0.999 . S
C676 H646 0.950 . S
C676 C675 1.524 . S
C676 C677 1.415 . S
C677 H647 0.950 . S
C677 C672 1.363 . S
C677 C676 1.415 . S
H678 C675 0.999 . S
H679 C660 0.913 . S
H680 C698 0.951 . S
H681 C700 0.951 . S
H682 C702 0.950 . S
H683 C703 0.950 . S
H684 C705 0.950 . S
H685 C708 0.950 . S
H686 C709 0.950 . S
H687 C711 0.950 . S
H688 C712 0.950 . S
H689 C713 0.951 . S
H690 C715 0.951 . S
H691 C717 0.950 . S
H692 C718 0.950 . S
H693 C720 0.950 . S
H694 C723 0.950 . S
H695 C724 0.950 . S
H696 C726 0.950 . S
H697 C727 0.950 . S
C698 H680 0.951 . S
C698 C699 1.366 . S
C698 C700 1.388 . S
C699 C698 1.366 . S
C699 C703 1.385 . S
C700 H681 0.951 . S
C700 C698 1.388 . S
C700 C701 1.366 . S
C701 C700 1.366 . S
C701 C702 1.414 . S
C701 C704 1.499 . S
C702 H682 0.950 . S
C702 C701 1.414 . S
C702 C703 1.374 . S
C703 H683 0.950 . S
C703 C699 1.385 . S
C703 C702 1.374 . S
C704 C701 1.499 . S
C704 C705 1.373 . S
C704 C706 1.389 . S
C705 H684 0.950 . S
C705 C704 1.373 . S
C705 C721 1.377 . S
C706 C704 1.389 . S
C706 C707 1.524 . S
C706 C720 1.377 . S
C707 C706 1.524 . S
C707 C708 1.397 . S
C707 C712 1.363 . S
C708 H685 0.950 . S
C708 C707 1.397 . S
C708 C709 1.334 . S
C709 H686 0.950 . S
C709 C708 1.334 . S
C709 C710 1.287 . S
C710 C709 1.287 . S
C710 C711 1.524 . S
C710 H729 0.913 . S
C711 H687 0.950 . S
C711 C710 1.524 . S
C711 C712 1.415 . S
C712 H688 0.950 . S
C712 C707 1.363 . S
C712 C711 1.415 . S
C713 H689 0.951 . S
C713 C714 1.366 . S
C713 C715 1.388 . S
C714 C713 1.366 . S
C714 C718 1.385 . S
C715 H690 0.951 . S
C715 C713 1.388 . S
C715 C716 1.366 . S
C716 C715 1.366 . S
C716 C717 1.414 . S
C716 C719 1.499 . S
C717 H691 0.950 . S
C717 C716 1.414 . S
C717 C718 1.374 . S
C718 H692 0.950 . S
C718 C714 1.385 . S
C718 C717 1.374 . S
C719 C716 1.499 . S
C719 C720 1.373 . S
C719 C721 1.389 . S
C720 H693 0.950 . S
C720 C706 1.377 . S
C720 C719 1.373 . S
C721 C705 1.377 . S
C721 C719 1.389 . S
C721 C722 1.524 . S
C722 C721 1.524 . S
C722 C723 1.397 . S
C722 C727 1.363 . S
C723 H694 0.950 . S
C723 C722 1.397 . S
C723 C724 1.334 . S
C724 H695 0.950 . S
C724 C723 1.334 . S
C724 C725 1.287 . S
C725 C724 1.287 . S
C725 C726 1.524 . S
C725 H728 0.999 . S
C726 H696 0.950 . S
C726 C725 1.524 . S
C726 C727 1.415 . S
C727 H697 0.950 . S
C727 C722 1.363 . S
C727 C726 1.415 . S
H728 C725 0.999 . S
H729 C710 0.913 . S
H730 C748 0.951 . S
H731 C750 0.951 . S
H732 C752 0.950 . S
H733 C753 0.950 . S
H734 C755 0.950 . S
H735 C758 0.950 . S
H736 C759 0.950 . S
H737 C761 0.950 . S
H738 C762 0.950 . S
H739 C763 0.951 . S
H740 C765 0.951 . S
H741 C767 0.950 . S
H742 C768 0.950 . S
H743 C770 0.950 . S
H744 C773 0.950 . S
H745 C774 0.950 . S
H746 C776 0.950 . S
H747 C777 0.950 . S
C748 H730 0.951 . S
C748 C749 1.366 . S
C748 C750 1.388 . S
C749 C748 1.366 . S
C749 C753 1.385 . S
C750 H731 0.951 . S
C750 C748 1.388 . S
C750 C751 1.366 . S
C751 C750 1.366 . S
C751 C752 1.414 . S
C751 C754 1.499 . S
C752 H732 0.950 . S
C752 C751 1.414 . S
C752 C753 1.374 . S
C753 H733 0.950 . S
C753 C749 1.385 . S
C753 C752 1.374 . S
C754 C751 1.499 . S
C754 C755 1.373 . S
C754 C756 1.389 . S
C755 H734 0.950 . S
C755 C754 1.373 . S
C755 C771 1.377 . S
C756 C754 1.389 . S
C756 C757 1.524 . S
C756 C770 1.377 . S
C757 C756 1.524 . S
C757 C758 1.397 . S
C757 C762 1.363 . S
C758 H735 0.950 . S
C758 C757 1.397 . S
C758 C759 1.334 . S
C759 H736 0.950 . S
C759 C758 1.334 . S
C759 C760 1.287 . S
C760 C759 1.287 . S
C760 C761 1.524 . S
C760 H779 0.913 . S
C761 H737 0.950 . S
C761 C760 1.524 . S
C761 C762 1.415 . S
C762 H738 0.950 . S
C762 C757 1.363 . S
C762 C761 1.415 . S
C763 H739 0.951 . S
C763 C764 1.366 . S
C763 C765 1.388 . S
C764 C763 1.366 . S
C764 C768 1.385 . S
C765 H740 0.951 . S
C765 C763 1.388 . S
C765 C766 1.366 . S
C766 C765 1.366 . S
C766 C767 1.414 . S
C766 C769 1.499 . S
C767 H741 0.950 . S
C767 C766 1.414 . S
C767 C768 1.374 . S
C768 H742 0.950 . S
C768 C764 1.385 . S
C768 C767 1.374 . S
C769 C766 1.499 . S
C769 C770 1.373 . S
C769 C771 1.389 . S
C770 H743 0.950 . S
C770 C756 1.377 . S
C770 C769 1.373 . S
C771 C755 1.377 . S
C771 C769 1.389 . S
C771 C772 1.524 . S
C772 C771 1.524 . S
C772 C773 1.397 . S
C772 C777 1.363 . S
C773 H744 0.950 . S
C773 C772 1.397 . S
C773 C774 1.334 . S
C774 H745 0.950 . S
C774 C773 1.334 . S
C774 C775 1.287 . S
C775 C774 1.287 . S
C775 C776 1.524 . S
C775 H778 0.999 . S
C776 H746 0.950 . S
C776 C775 1.524 . S
C776 C777 1.415 . S
C777 H747 0.950 . S
C777 C772 1.363 . S
C777 C776 1.415 . S
H778 C775 0.999 . S
H779 C760 0.913 . S
H780 C798 0.951 . S
H781 C800 0.951 . S
H782 C802 0.950 . S
H783 C803 0.950 . S
H784 C805 0.952 1_455 S
H785 C808 0.950 . S
H786 C809 0.950 . S
H787 C811 0.950 . S
H788 C812 0.950 . S
H789 C813 0.951 . S
H790 C815 0.953 . S
H791 C817 0.950 . S
H792 C818 0.950 . S
H793 C820 0.950 . S
H794 C823 0.950 . S
H795 C824 0.950 . S
H796 C826 0.950 . S
H797 C827 0.950 . S
C798 H780 0.951 . S
C798 C799 1.366 . S
C798 C800 1.388 . S
C799 C798 1.366 . S
C799 C803 1.385 1_554 S
C800 H781 0.951 . S
C800 C798 1.388 . S
C800 C801 1.366 1_554 S
C801 C800 1.366 1_556 S
C801 C802 1.414 . S
C801 C804 1.499 . S
C802 H782 0.950 . S
C802 C801 1.414 . S
C802 C803 1.374 . S
C803 H783 0.950 . S
C803 C799 1.385 1_556 S
C803 C802 1.374 . S
C804 C801 1.499 . S
C804 C805 1.371 . S
C804 C806 1.389 . S
C805 H784 0.952 1_655 S
C805 C804 1.371 . S
C805 C821 1.378 1_655 S
C806 C804 1.389 . S
C806 C807 1.524 1_556 S
C806 C820 1.377 . S
C807 C806 1.524 1_554 S
C807 C808 1.397 1_554 S
C807 C812 1.363 . S
C808 H785 0.950 . S
C808 C807 1.397 1_556 S
C808 C809 1.334 1_556 S
C809 H786 0.950 . S
C809 C808 1.334 1_554 S
C809 C810 1.287 . S
C810 C809 1.287 . S
C810 C811 1.524 . S
C810 H829 0.913 . S
C811 H787 0.950 . S
C811 C810 1.524 . S
C811 C812 1.415 . S
C812 H788 0.950 . S
C812 C807 1.363 . S
C812 C811 1.415 . S
C813 H789 0.951 . S
C813 C814 1.366 . S
C813 C815 1.388 . S
C814 C813 1.366 . S
C814 C818 1.385 . S
C815 H790 0.953 . S
C815 C813 1.388 . S
C815 C816 1.366 . S
C816 C815 1.366 . S
C816 C817 1.414 . S
C816 C819 1.499 1_455 S
C817 H791 0.950 . S
C817 C816 1.414 . S
C817 C818 1.374 . S
C818 H792 0.950 . S
C818 C814 1.385 . S
C818 C817 1.374 . S
C819 C816 1.499 1_655 S
C819 C820 1.373 . S
C819 C821 1.389 1_655 S
C820 H793 0.950 . S
C820 C806 1.377 . S
C820 C819 1.373 . S
C821 C805 1.378 1_455 S
C821 C819 1.389 1_455 S
C821 C822 1.524 . S
C822 C821 1.524 . S
C822 C823 1.397 . S
C822 C827 1.363 . S
C823 H794 0.950 . S
C823 C822 1.397 . S
C823 C824 1.334 . S
C824 H795 0.950 . S
C824 C823 1.334 . S
C824 C825 1.287 . S
C825 C824 1.287 . S
C825 C826 1.524 . S
C825 H828 0.999 . S
C826 H796 0.950 . S
C826 C825 1.524 . S
C826 C827 1.415 . S
C827 H797 0.950 . S
C827 C822 1.363 . S
C827 C826 1.415 . S
H828 C825 0.999 . S
H829 C810 0.913 . S
H830 C848 0.951 . S
H831 C850 0.951 . S
H832 C852 0.950 1_545 S
H833 C853 0.950 . S
H834 C855 0.950 1_554 S
H835 C858 0.950 . S
H836 C859 0.950 . S
H837 C861 0.950 . S
H838 C862 0.950 . S
H839 C863 0.951 . S
H840 C865 0.951 . S
H841 C867 0.950 . S
H842 C868 0.950 . S
H843 C870 0.950 . S
H844 C873 0.950 . S
H845 C874 0.950 . S
H846 C876 0.950 . S
H847 C877 0.950 . S
C848 H830 0.951 . S
C848 C849 1.366 1_556 S
C848 C850 1.388 . S
C849 C848 1.366 1_554 S
C849 C853 1.385 . S
C850 H831 0.951 . S
C850 C848 1.388 . S
C850 C851 1.366 . S
C851 C850 1.366 . S
C851 C852 1.414 1_556 S
C851 C854 1.499 . S
C852 H832 0.950 1_565 S
C852 C851 1.414 1_554 S
C852 C853 1.374 . S
C853 H833 0.950 . S
C853 C849 1.385 . S
C853 C852 1.374 . S
C854 C851 1.499 . S
C854 C855 1.373 . S
C854 C856 1.389 . S
C855 H834 0.950 1_556 S
C855 C854 1.373 . S
C855 C871 1.377 . S
C856 C854 1.389 . S
C856 C857 1.524 . S
C856 C870 1.377 . S
C857 C856 1.524 . S
C857 C858 1.397 1_565 S
C857 C862 1.363 . S
C858 H835 0.950 . S
C858 C857 1.397 1_545 S
C858 C859 1.334 . S
C859 H836 0.950 . S
C859 C858 1.334 . S
C859 C860 1.287 1_545 S
C860 C859 1.287 1_565 S
C860 C861 1.524 . S
C860 H879 0.913 . S
C861 H837 0.950 . S
C861 C860 1.524 . S
C861 C862 1.415 . S
C862 H838 0.950 . S
C862 C857 1.363 . S
C862 C861 1.415 . S
C863 H839 0.951 . S
C863 C864 1.366 . S
C863 C865 1.388 . S
C864 C863 1.366 . S
C864 C868 1.385 1_545 S
C865 H840 0.951 . S
C865 C863 1.388 . S
C865 C866 1.366 . S
C866 C865 1.366 . S
C866 C867 1.414 1_545 S
C866 C869 1.499 1_545 S
C867 H841 0.950 . S
C867 C866 1.414 1_565 S
C867 C868 1.374 . S
C868 H842 0.950 . S
C868 C864 1.385 1_565 S
C868 C867 1.374 . S
C869 C866 1.499 1_565 S
C869 C870 1.373 . S
C869 C871 1.389 . S
C870 H843 0.950 . S
C870 C856 1.377 . S
C870 C869 1.373 . S
C871 C855 1.377 . S
C871 C869 1.389 . S
C871 C872 1.524 1_556 S
C872 C871 1.524 1_554 S
C872 C873 1.397 1_554 S
C872 C877 1.363 1_565 S
C873 H844 0.950 . S
C873 C872 1.397 1_556 S
C873 C874 1.334 1_556 S
C874 H845 0.950 . S
C874 C873 1.334 1_554 S
C874 C875 1.287 . S
C875 C874 1.287 . S
C875 C876 1.524 1_565 S
C875 H878 0.999 . S
C876 H846 0.950 . S
C876 C875 1.524 1_545 S
C876 C877 1.415 . S
C877 H847 0.950 . S
C877 C872 1.363 1_545 S
C877 C876 1.415 . S
H878 C875 0.999 . S
H879 C860 0.913 . S
H880 C898 0.951 . S
H881 C900 0.951 . S
H882 C902 0.950 1_556 S
H883 C903 0.950 . S
H884 C905 0.950 . S
H885 C908 0.950 . S
H886 C909 0.950 . S
H887 C911 0.950 . S
H888 C912 0.950 1_556 S
H889 C913 0.951 . S
H890 C915 0.951 . S
H891 C917 0.950 . S
H892 C918 0.950 . S
H893 C920 0.950 . S
H894 C923 0.950 . S
H895 C924 0.950 . S
H896 C926 0.950 . S
H897 C927 0.950 . S
C898 H880 0.951 . S
C898 C899 1.366 . S
C898 C900 1.388 1_554 S
C899 C898 1.366 . S
C899 C903 1.385 . S
C900 H881 0.951 . S
C900 C898 1.388 1_556 S
C900 C901 1.366 . S
C901 C900 1.366 . S
C901 C902 1.414 1_556 S
C901 C904 1.499 . S
C902 H882 0.950 1_554 S
C902 C901 1.414 1_554 S
C902 C903 1.374 . S
C903 H883 0.950 . S
C903 C899 1.385 . S
C903 C902 1.374 . S
C904 C901 1.499 . S
C904 C905 1.373 . S
C904 C906 1.389 . S
C905 H884 0.950 . S
C905 C904 1.373 . S
C905 C921 1.377 . S
C906 C904 1.389 . S
C906 C907 1.524 1_556 S
C906 C920 1.377 . S
C907 C906 1.524 1_554 S
C907 C908 1.397 . S
C907 C912 1.363 . S
C908 H885 0.950 . S
C908 C907 1.397 . S
C908 C909 1.334 . S
C909 H886 0.950 . S
C909 C908 1.334 . S
C909 C910 1.287 . S
C910 C909 1.287 . S
C910 C911 1.524 . S
C910 H929 0.913 . S
C911 H887 0.950 . S
C911 C910 1.524 . S
C911 C912 1.415 . S
C912 H888 0.950 1_554 S
C912 C907 1.363 . S
C912 C911 1.415 . S
C913 H889 0.951 . S
C913 C914 1.366 . S
C913 C915 1.388 . S
C914 C913 1.366 . S
C914 C918 1.385 . S
C915 H890 0.951 . S
C915 C913 1.388 . S
C915 C916 1.366 . S
C916 C915 1.366 . S
C916 C917 1.414 . S
C916 C919 1.499 . S
C917 H891 0.950 . S
C917 C916 1.414 . S
C917 C918 1.374 . S
C918 H892 0.950 . S
C918 C914 1.385 . S
C918 C917 1.374 . S
C919 C916 1.499 . S
C919 C920 1.373 . S
C919 C921 1.389 . S
C920 H893 0.950 . S
C920 C906 1.377 . S
C920 C919 1.373 . S
C921 C905 1.377 . S
C921 C919 1.389 . S
C921 C922 1.524 . S
C922 C921 1.524 . S
C922 C923 1.397 . S
C922 C927 1.363 . S
C923 H894 0.950 . S
C923 C922 1.397 . S
C923 C924 1.334 . S
C924 H895 0.950 . S
C924 C923 1.334 . S
C924 C925 1.287 . S
C925 C924 1.287 . S
C925 C926 1.524 . S
C925 H928 0.999 . S
C926 H896 0.950 . S
C926 C925 1.524 . S
C926 C927 1.415 . S
C927 H897 0.950 . S
C927 C922 1.363 . S
C927 C926 1.415 . S
H928 C925 0.999 . S
H929 C910 0.913 . S
H930 C948 0.951 . S
H931 C950 0.951 . S
H932 C952 0.950 . S
H933 C953 0.950 . S
H934 C955 0.950 . S
H935 C958 0.950 1_554 S
H936 C959 0.950 . S
H937 C961 0.950 . S
H938 C962 0.950 . S
H939 C963 0.951 . S
H940 C965 0.951 . S
H941 C967 0.950 . S
H942 C968 0.950 . S
H943 C970 0.950 . S
H944 C973 0.950 . S
H945 C974 0.950 . S
H946 C976 0.950 . S
H947 C977 0.950 1_554 S
C948 H930 0.951 . S
C948 C949 1.366 1_556 S
C948 C950 1.388 . S
C949 C948 1.366 1_554 S
C949 C953 1.385 . S
C950 H931 0.951 . S
C950 C948 1.388 . S
C950 C951 1.366 . S
C951 C950 1.366 . S
C951 C952 1.414 1_556 S
C951 C954 1.499 . S
C952 H932 0.950 . S
C952 C951 1.414 1_554 S
C952 C953 1.374 . S
C953 H933 0.950 . S
C953 C949 1.385 . S
C953 C952 1.374 . S
C954 C951 1.499 . S
C954 C955 1.373 . S
C954 C956 1.389 . S
C955 H934 0.950 . S
C955 C954 1.373 . S
C955 C971 1.377 . S
C956 C954 1.389 . S
C956 C957 1.524 . S
C956 C970 1.377 . S
C957 C956 1.524 . S
C957 C958 1.397 . S
C957 C962 1.363 . S
C958 H935 0.950 1_556 S
C958 C957 1.397 . S
C958 C959 1.334 1_556 S
C959 H936 0.950 . S
C959 C958 1.334 1_554 S
C959 C960 1.287 1_554 S
C960 C959 1.287 1_556 S
C960 C961 1.524 . S
C960 H979 0.913 . S
C961 H937 0.950 . S
C961 C960 1.524 . S
C961 C962 1.415 . S
C962 H938 0.950 . S
C962 C957 1.363 . S
C962 C961 1.415 . S
C963 H939 0.951 . S
C963 C964 1.366 . S
C963 C965 1.388 . S
C964 C963 1.366 . S
C964 C968 1.385 . S
C965 H940 0.951 . S
C965 C963 1.388 . S
C965 C966 1.366 . S
C966 C965 1.366 . S
C966 C967 1.414 . S
C966 C969 1.499 . S
C967 H941 0.950 . S
C967 C966 1.414 . S
C967 C968 1.374 . S
C968 H942 0.950 . S
C968 C964 1.385 . S
C968 C967 1.374 . S
C969 C966 1.499 . S
C969 C970 1.373 . S
C969 C971 1.389 . S
C970 H943 0.950 . S
C970 C956 1.377 . S
C970 C969 1.373 . S
C971 C955 1.377 . S
C971 C969 1.389 . S
C971 C972 1.524 . S
C972 C971 1.524 . S
C972 C973 1.397 . S
C972 C977 1.363 . S
C973 H944 0.950 . S
C973 C972 1.397 . S
C973 C974 1.334 . S
C974 H945 0.950 . S
C974 C973 1.334 . S
C974 C975 1.287 . S
C975 C974 1.287 . S
C975 C976 1.524 . S
C975 H978 0.999 . S
C976 H946 0.950 . S
C976 C975 1.524 . S
C976 C977 1.415 . S
C977 H947 0.950 1_556 S
C977 C972 1.363 . S
C977 C976 1.415 . S
H978 C975 0.999 . S
H979 C960 0.913 . S
H980 C998 0.951 . S
H981 C1000 0.951 . S
H982 C1002 0.950 . S
H983 C1003 0.950 . S
H984 C1005 0.950 . S
H985 C1008 0.950 . S
H986 C1009 0.950 . S
H987 C1011 0.950 . S
H988 C1012 0.950 . S
H989 C1013 0.951 . S
H990 C1015 0.951 . S
H991 C1017 0.950 . S
H992 C1018 0.950 1_655 S
H993 C1020 0.950 . S
H994 C1023 0.950 . S
H995 C1024 0.950 . S
H996 C1026 0.950 . S
H997 C1027 0.950 . S
C998 H980 0.951 . S
C998 C999 1.366 . S
C998 C1000 1.388 . S
C999 C998 1.366 . S
C999 C1003 1.385 . S
C1000 H981 0.951 . S
C1000 C998 1.388 . S
C1000 C1001 1.366 . S
C1001 C1000 1.366 . S
C1001 C1002 1.414 . S
C1001 C1004 1.499 . S
C1002 H982 0.950 . S
C1002 C1001 1.414 . S
C1002 C1003 1.374 . S
C1003 H983 0.950 . S
C1003 C999 1.385 . S
C1003 C1002 1.374 . S
C1004 C1001 1.499 . S
C1004 C1005 1.373 . S
C1004 C1006 1.389 . S
C1005 H984 0.950 . S
C1005 C1004 1.373 . S
C1005 C1021 1.377 1_554 S
C1006 C1004 1.389 . S
C1006 C1007 1.524 . S
C1006 C1020 1.377 . S
C1007 C1006 1.524 . S
C1007 C1008 1.397 . S
C1007 C1012 1.363 1_455 S
C1008 H985 0.950 . S
C1008 C1007 1.397 . S
C1008 C1009 1.334 . S
C1009 H986 0.950 . S
C1009 C1008 1.334 . S
C1009 C1010 1.287 1_455 S
C1010 C1009 1.287 1_655 S
C1010 C1011 1.524 . S
C1010 H1029 0.913 . S
C1011 H987 0.950 . S
C1011 C1010 1.524 . S
C1011 C1012 1.415 . S
C1012 H988 0.950 . S
C1012 C1007 1.363 1_655 S
C1012 C1011 1.415 . S
C1013 H989 0.951 . S
C1013 C1014 1.366 . S
C1013 C1015 1.388 . S
C1014 C1013 1.366 . S
C1014 C1018 1.385 . S
C1015 H990 0.951 . S
C1015 C1013 1.388 . S
C1015 C1016 1.366 . S
C1016 C1015 1.366 . S
C1016 C1017 1.414 . S
C1016 C1019 1.499 . S
C1017 H991 0.950 . S
C1017 C1016 1.414 . S
C1017 C1018 1.374 . S
C1018 H992 0.950 1_455 S
C1018 C1014 1.385 . S
C1018 C1017 1.374 . S
C1019 C1016 1.499 . S
C1019 C1020 1.373 1_556 S
C1019 C1021 1.389 . S
C1020 H993 0.950 . S
C1020 C1006 1.377 . S
C1020 C1019 1.373 1_554 S
C1021 C1005 1.377 1_556 S
C1021 C1019 1.389 . S
C1021 C1022 1.524 . S
C1022 C1021 1.524 . S
C1022 C1023 1.397 . S
C1022 C1027 1.363 . S
C1023 H994 0.950 . S
C1023 C1022 1.397 . S
C1023 C1024 1.334 . S
C1024 H995 0.950 . S
C1024 C1023 1.334 . S
C1024 C1025 1.287 . S
C1025 C1024 1.287 . S
C1025 C1026 1.524 . S
C1025 H1028 0.999 . S
C1026 H996 0.950 . S
C1026 C1025 1.524 . S
C1026 C1027 1.415 . S
C1027 H997 0.950 . S
C1027 C1022 1.363 . S
C1027 C1026 1.415 . S
H1028 C1025 0.999 . S
H1029 C1010 0.913 . S
H1030 C1048 0.951 . S
H1031 C1050 0.951 . S
H1032 C1052 0.950 . S
H1033 C1053 0.950 . S
H1034 C1055 0.950 1_556 S
H1035 C1058 0.950 . S
H1036 C1059 0.950 . S
H1037 C1061 0.950 . S
H1038 C1062 0.950 . S
H1039 C1063 0.951 . S
H1040 C1065 0.951 . S
H1041 C1067 0.950 . S
H1042 C1068 0.950 . S
H1043 C1070 0.950 . S
H1044 C1073 0.950 . S
H1045 C1074 0.942 1_565 S
H1046 C1076 0.950 . S
H1047 C1077 0.950 . S
C1048 H1030 0.951 . S
C1048 C1049 1.366 . S
C1048 C1050 1.388 . S
C1049 C1048 1.366 . S
C1049 C1053 1.385 . S
C1050 H1031 0.951 . S
C1050 C1048 1.388 . S
C1050 C1051 1.366 . S
C1051 C1050 1.366 . S
C1051 C1052 1.414 . S
C1051 C1054 1.499 . S
C1052 H1032 0.950 . S
C1052 C1051 1.414 . S
C1052 C1053 1.374 . S
C1053 H1033 0.950 . S
C1053 C1049 1.385 . S
C1053 C1052 1.374 . S
C1054 C1051 1.499 . S
C1054 C1055 1.373 . S
C1054 C1056 1.389 . S
C1055 H1034 0.950 1_554 S
C1055 C1054 1.373 . S
C1055 C1071 1.377 1_554 S
C1056 C1054 1.389 . S
C1056 C1057 1.524 . S
C1056 C1070 1.377 . S
C1057 C1056 1.524 . S
C1057 C1058 1.397 . S
C1057 C1062 1.363 . S
C1058 H1035 0.950 . S
C1058 C1057 1.397 . S
C1058 C1059 1.334 . S
C1059 H1036 0.950 . S
C1059 C1058 1.334 . S
C1059 C1060 1.287 . S
C1060 C1059 1.287 . S
C1060 C1061 1.524 . S
C1060 H1079 0.913 . S
C1061 H1037 0.950 . S
C1061 C1060 1.524 . S
C1061 C1062 1.415 . S
C1062 H1038 0.950 . S
C1062 C1057 1.363 . S
C1062 C1061 1.415 . S
C1063 H1039 0.951 . S
C1063 C1064 1.366 . S
C1063 C1065 1.388 . S
C1064 C1063 1.366 . S
C1064 C1068 1.385 . S
C1065 H1040 0.951 . S
C1065 C1063 1.388 . S
C1065 C1066 1.366 . S
C1066 C1065 1.366 . S
C1066 C1067 1.414 . S
C1066 C1069 1.499 . S
C1067 H1041 0.950 . S
C1067 C1066 1.414 . S
C1067 C1068 1.374 . S
C1068 H1042 0.950 . S
C1068 C1064 1.385 . S
C1068 C1067 1.374 . S
C1069 C1066 1.499 . S
C1069 C1070 1.373 1_556 S
C1069 C1071 1.389 . S
C1070 H1043 0.950 . S
C1070 C1056 1.377 . S
C1070 C1069 1.373 1_554 S
C1071 C1055 1.377 1_556 S
C1071 C1069 1.389 . S
C1071 C1072 1.524 . S
C1072 C1071 1.524 . S
C1072 C1073 1.397 . S
C1072 C1077 1.363 . S
C1073 H1044 0.950 . S
C1073 C1072 1.397 . S
C1073 C1074 1.334 . S
C1074 H1045 0.942 1_545 S
C1074 C1073 1.334 . S
C1074 C1075 1.287 . S
C1075 C1074 1.287 . S
C1075 C1076 1.524 . S
C1075 H1078 0.999 . S
C1076 H1046 0.950 . S
C1076 C1075 1.524 . S
C1076 C1077 1.415 . S
C1077 H1047 0.950 . S
C1077 C1072 1.363 . S
C1077 C1076 1.415 . S
H1078 C1075 0.999 . S
H1079 C1060 0.913 . S
H1080 C1098 0.951 . S
H1081 C1100 0.951 . S
H1082 C1102 0.950 . S
H1083 C1103 0.950 . S
H1084 C1105 0.950 . S
H1085 C1108 0.950 . S
H1086 C1109 0.950 . S
H1087 C1111 0.950 . S
H1088 C1112 0.950 . S
H1089 C1113 0.951 . S
H1090 C1115 0.951 . S
H1091 C1117 0.950 . S
H1092 C1118 0.950 . S
H1093 C1120 0.950 . S
H1094 C1123 0.950 . S
H1095 C1124 0.950 . S
H1096 C1126 0.950 . S
H1097 C1127 0.950 . S
C1098 H1080 0.951 . S
C1098 C1099 1.366 . S
C1098 C1100 1.388 . S
C1099 C1098 1.366 . S
C1099 C1103 1.385 . S
C1100 H1081 0.951 . S
C1100 C1098 1.388 . S
C1100 C1101 1.366 . S
C1101 C1100 1.366 . S
C1101 C1102 1.414 . S
C1101 C1104 1.499 . S
C1102 H1082 0.950 . S
C1102 C1101 1.414 . S
C1102 C1103 1.374 . S
C1103 H1083 0.950 . S
C1103 C1099 1.385 . S
C1103 C1102 1.374 . S
C1104 C1101 1.499 . S
C1104 C1105 1.373 . S
C1104 C1106 1.389 . S
C1105 H1084 0.950 . S
C1105 C1104 1.373 . S
C1105 C1121 1.377 . S
C1106 C1104 1.389 . S
C1106 C1107 1.524 1_554 S
C1106 C1120 1.377 1_554 S
C1107 C1106 1.524 1_556 S
C1107 C1108 1.397 . S
C1107 C1112 1.363 . S
C1108 H1085 0.950 . S
C1108 C1107 1.397 . S
C1108 C1109 1.334 . S
C1109 H1086 0.950 . S
C1109 C1108 1.334 . S
C1109 C1110 1.287 . S
C1110 C1109 1.287 . S
C1110 C1111 1.524 . S
C1110 H1129 0.913 . S
C1111 H1087 0.950 . S
C1111 C1110 1.524 . S
C1111 C1112 1.415 . S
C1112 H1088 0.950 . S
C1112 C1107 1.363 . S
C1112 C1111 1.415 . S
C1113 H1089 0.951 . S
C1113 C1114 1.366 . S
C1113 C1115 1.388 . S
C1114 C1113 1.366 . S
C1114 C1118 1.385 . S
C1115 H1090 0.951 . S
C1115 C1113 1.388 . S
C1115 C1116 1.366 . S
C1116 C1115 1.366 . S
C1116 C1117 1.414 . S
C1116 C1119 1.499 . S
C1117 H1091 0.950 . S
C1117 C1116 1.414 . S
C1117 C1118 1.374 . S
C1118 H1092 0.950 . S
C1118 C1114 1.385 . S
C1118 C1117 1.374 . S
C1119 C1116 1.499 . S
C1119 C1120 1.373 . S
C1119 C1121 1.389 1_556 S
C1120 H1093 0.950 . S
C1120 C1106 1.377 1_556 S
C1120 C1119 1.373 . S
C1121 C1105 1.377 . S
C1121 C1119 1.389 1_554 S
C1121 C1122 1.524 . S
C1122 C1121 1.524 . S
C1122 C1123 1.397 . S
C1122 C1127 1.363 . S
C1123 H1094 0.950 . S
C1123 C1122 1.397 . S
C1123 C1124 1.334 . S
C1124 H1095 0.950 . S
C1124 C1123 1.334 . S
C1124 C1125 1.287 . S
C1125 C1124 1.287 . S
C1125 C1126 1.524 . S
C1125 H1128 0.999 . S
C1126 H1096 0.950 . S
C1126 C1125 1.524 . S
C1126 C1127 1.415 . S
C1127 H1097 0.950 . S
C1127 C1122 1.363 . S
C1127 C1126 1.415 . S
H1128 C1125 0.999 . S
H1129 C1110 0.913 . S
H1130 C1148 0.951 . S
H1131 C1150 0.951 . S
H1132 C1152 0.950 . S
H1133 C1153 0.950 . S
H1134 C1155 0.950 . S
H1135 C1158 0.950 . S
H1136 C1159 0.950 . S
H1137 C1161 0.950 . S
H1138 C1162 0.950 . S
H1139 C1163 0.951 . S
H1140 C1165 0.951 . S
H1141 C1167 0.950 . S
H1142 C1168 0.950 . S
H1143 C1170 0.950 . S
H1144 C1173 0.950 . S
H1145 C1174 0.950 . S
H1146 C1176 0.950 . S
H1147 C1177 0.950 . S
C1148 H1130 0.951 . S
C1148 C1149 1.366 . S
C1148 C1150 1.388 . S
C1149 C1148 1.366 . S
C1149 C1153 1.385 . S
C1150 H1131 0.951 . S
C1150 C1148 1.388 . S
C1150 C1151 1.366 . S
C1151 C1150 1.366 . S
C1151 C1152 1.414 . S
C1151 C1154 1.499 . S
C1152 H1132 0.950 . S
C1152 C1151 1.414 . S
C1152 C1153 1.374 . S
C1153 H1133 0.950 . S
C1153 C1149 1.385 . S
C1153 C1152 1.374 . S
C1154 C1151 1.499 . S
C1154 C1155 1.373 . S
C1154 C1156 1.389 . S
C1155 H1134 0.950 . S
C1155 C1154 1.373 . S
C1155 C1171 1.377 1_554 S
C1156 C1154 1.389 . S
C1156 C1157 1.524 . S
C1156 C1170 1.377 . S
C1157 C1156 1.524 . S
C1157 C1158 1.397 . S
C1157 C1162 1.363 . S
C1158 H1135 0.950 . S
C1158 C1157 1.397 . S
C1158 C1159 1.334 . S
C1159 H1136 0.950 . S
C1159 C1158 1.334 . S
C1159 C1160 1.287 . S
C1160 C1159 1.287 . S
C1160 C1161 1.524 . S
C1160 H1179 0.913 . S
C1161 H1137 0.950 . S
C1161 C1160 1.524 . S
C1161 C1162 1.415 . S
C1162 H1138 0.950 . S
C1162 C1157 1.363 . S
C1162 C1161 1.415 . S
C1163 H1139 0.951 . S
C1163 C1164 1.366 . S
C1163 C1165 1.388 . S
C1164 C1163 1.366 . S
C1164 C1168 1.385 . S
C1165 H1140 0.951 . S
C1165 C1163 1.388 . S
C1165 C1166 1.366 . S
C1166 C1165 1.366 . S
C1166 C1167 1.414 . S
C1166 C1169 1.499 . S
C1167 H1141 0.950 . S
C1167 C1166 1.414 . S
C1167 C1168 1.374 . S
C1168 H1142 0.950 . S
C1168 C1164 1.385 . S
C1168 C1167 1.374 . S
C1169 C1166 1.499 . S
C1169 C1170 1.373 1_556 S
C1169 C1171 1.389 . S
C1170 H1143 0.950 . S
C1170 C1156 1.377 . S
C1170 C1169 1.373 1_554 S
C1171 C1155 1.377 1_556 S
C1171 C1169 1.389 . S
C1171 C1172 1.524 . S
C1172 C1171 1.524 . S
C1172 C1173 1.397 . S
C1172 C1177 1.363 . S
C1173 H1144 0.950 . S
C1173 C1172 1.397 . S
C1173 C1174 1.334 . S
C1174 H1145 0.950 . S
C1174 C1173 1.334 . S
C1174 C1175 1.287 . S
C1175 C1174 1.287 . S
C1175 C1176 1.524 . S
C1175 H1178 0.999 . S
C1176 H1146 0.950 . S
C1176 C1175 1.524 . S
C1176 C1177 1.415 . S
C1177 H1147 0.950 . S
C1177 C1172 1.363 . S
C1177 C1176 1.415 . S
H1178 C1175 0.999 . S
H1179 C1160 0.913 . S
H1180 C1198 0.951 . S
H1181 C1200 0.951 . S
H1182 C1202 0.950 . S
H1183 C1203 0.950 . S
H1184 C1205 0.950 . S
H1185 C1208 0.950 . S
H1186 C1209 0.950 . S
H1187 C1211 0.950 . S
H1188 C1212 0.950 . S
H1189 C1213 0.951 . S
H1190 C1215 0.951 . S
H1191 C1217 0.950 1_455 S
H1192 C1218 0.950 . S
H1193 C1220 0.950 . S
H1194 C1223 0.950 . S
H1195 C1224 0.950 . S
H1196 C1226 0.936 1_655 S
H1197 C1227 0.950 . S
C1198 H1180 0.951 . S
C1198 C1199 1.366 . S
C1198 C1200 1.388 . S
C1199 C1198 1.366 . S
C1199 C1203 1.385 . S
C1200 H1181 0.951 . S
C1200 C1198 1.388 . S
C1200 C1201 1.366 . S
C1201 C1200 1.366 . S
C1201 C1202 1.414 . S
C1201 C1204 1.499 . S
C1202 H1182 0.950 . S
C1202 C1201 1.414 . S
C1202 C1203 1.374 . S
C1203 H1183 0.950 . S
C1203 C1199 1.385 . S
C1203 C1202 1.374 . S
C1204 C1201 1.499 . S
C1204 C1205 1.373 . S
C1204 C1206 1.389 . S
C1205 H1184 0.950 . S
C1205 C1204 1.373 . S
C1205 C1221 1.377 . S
C1206 C1204 1.389 . S
C1206 C1207 1.524 . S
C1206 C1220 1.377 . S
C1207 C1206 1.524 . S
C1207 C1208 1.397 . S
C1207 C1212 1.363 . S
C1208 H1185 0.950 . S
C1208 C1207 1.397 . S
C1208 C1209 1.334 . S
C1209 H1186 0.950 . S
C1209 C1208 1.334 . S
C1209 C1210 1.287 . S
C1210 C1209 1.287 . S
C1210 C1211 1.524 . S
C1210 H1229 0.913 . S
C1211 H1187 0.950 . S
C1211 C1210 1.524 . S
C1211 C1212 1.415 . S
C1212 H1188 0.950 . S
C1212 C1207 1.363 . S
C1212 C1211 1.415 . S
C1213 H1189 0.951 . S
C1213 C1214 1.366 . S
C1213 C1215 1.388 . S
C1214 C1213 1.366 . S
C1214 C1218 1.385 1_655 S
C1215 H1190 0.951 . S
C1215 C1213 1.388 . S
C1215 C1216 1.366 . S
C1216 C1215 1.366 . S
C1216 C1217 1.414 . S
C1216 C1219 1.499 . S
C1217 H1191 0.950 1_655 S
C1217 C1216 1.414 . S
C1217 C1218 1.374 1_655 S
C1218 H1192 0.950 . S
C1218 C1214 1.385 1_455 S
C1218 C1217 1.374 1_455 S
C1219 C1216 1.499 . S
C1219 C1220 1.373 . S
C1219 C1221 1.389 . S
C1220 H1193 0.950 . S
C1220 C1206 1.377 . S
C1220 C1219 1.373 . S
C1221 C1205 1.377 . S
C1221 C1219 1.389 . S
C1221 C1222 1.524 1_655 S
C1222 C1221 1.524 1_455 S
C1222 C1223 1.397 . S
C1222 C1227 1.363 1_455 S
C1223 H1194 0.950 . S
C1223 C1222 1.397 . S
C1223 C1224 1.334 . S
C1224 H1195 0.950 . S
C1224 C1223 1.334 . S
C1224 C1225 1.287 . S
C1225 C1224 1.287 . S
C1225 C1226 1.524 . S
C1225 H1228 0.999 . S
C1226 H1196 0.936 1_455 S
C1226 C1225 1.524 . S
C1226 C1227 1.415 1_455 S
C1227 H1197 0.950 . S
C1227 C1222 1.363 1_655 S
C1227 C1226 1.415 1_655 S
H1228 C1225 0.999 . S
H1229 C1210 0.913 . S
H1230 C1248 0.951 . S
H1231 C1250 0.951 . S
H1232 C1252 0.950 . S
H1233 C1253 0.950 . S
H1234 C1255 0.950 . S
H1235 C1258 0.950 . S
H1236 C1259 0.950 . S
H1237 C1261 0.950 . S
H1238 C1262 0.950 . S
H1239 C1263 0.951 . S
H1240 C1265 0.951 . S
H1241 C1267 0.950 1_545 S
H1242 C1268 0.950 . S
H1243 C1270 0.950 . S
H1244 C1273 0.950 . S
H1245 C1274 0.950 . S
H1246 C1276 0.950 . S
H1247 C1277 0.950 . S
C1248 H1230 0.951 . S
C1248 C1249 1.366 . S
C1248 C1250 1.388 . S
C1249 C1248 1.366 . S
C1249 C1253 1.385 . S
C1250 H1231 0.951 . S
C1250 C1248 1.388 . S
C1250 C1251 1.366 . S
C1251 C1250 1.366 . S
C1251 C1252 1.414 . S
C1251 C1254 1.499 . S
C1252 H1232 0.950 . S
C1252 C1251 1.414 . S
C1252 C1253 1.374 . S
C1253 H1233 0.950 . S
C1253 C1249 1.385 . S
C1253 C1252 1.374 . S
C1254 C1251 1.499 . S
C1254 C1255 1.373 . S
C1254 C1256 1.370 1_565 S
C1255 H1234 0.950 . S
C1255 C1254 1.373 . S
C1255 C1271 1.377 . S
C1256 C1254 1.370 1_545 S
C1256 C1257 1.543 . S
C1256 C1270 1.378 . S
C1257 C1256 1.543 . S
C1257 C1258 1.397 . S
C1257 C1262 1.363 . S
C1258 H1235 0.950 . S
C1258 C1257 1.397 . S
C1258 C1259 1.334 . S
C1259 H1236 0.950 . S
C1259 C1258 1.334 . S
C1259 C1260 1.287 . S
C1260 C1259 1.287 . S
C1260 C1261 1.524 . S
C1260 H1279 0.913 . S
C1261 H1237 0.950 . S
C1261 C1260 1.524 . S
C1261 C1262 1.415 . S
C1262 H1238 0.950 . S
C1262 C1257 1.363 . S
C1262 C1261 1.415 . S
C1263 H1239 0.951 . S
C1263 C1264 1.366 . S
C1263 C1265 1.388 . S
C1264 C1263 1.366 . S
C1264 C1268 1.385 1_565 S
C1265 H1240 0.951 . S
C1265 C1263 1.388 . S
C1265 C1266 1.366 . S
C1266 C1265 1.366 . S
C1266 C1267 1.414 . S
C1266 C1269 1.499 . S
C1267 H1241 0.950 1_565 S
C1267 C1266 1.414 . S
C1267 C1268 1.374 1_565 S
C1268 H1242 0.950 . S
C1268 C1264 1.385 1_545 S
C1268 C1267 1.374 1_545 S
C1269 C1266 1.499 . S
C1269 C1270 1.373 1_565 S
C1269 C1271 1.389 . S
C1270 H1243 0.950 . S
C1270 C1256 1.378 . S
C1270 C1269 1.373 1_545 S
C1271 C1255 1.377 . S
C1271 C1269 1.389 . S
C1271 C1272 1.524 . S
C1272 C1271 1.524 . S
C1272 C1273 1.397 . S
C1272 C1277 1.363 . S
C1273 H1244 0.950 . S
C1273 C1272 1.397 . S
C1273 C1274 1.334 . S
C1274 H1245 0.950 . S
C1274 C1273 1.334 . S
C1274 C1275 1.287 . S
C1275 C1274 1.287 . S
C1275 C1276 1.524 . S
C1275 H1278 0.999 . S
C1276 H1246 0.950 . S
C1276 C1275 1.524 . S
C1276 C1277 1.415 . S
C1277 H1247 0.950 . S
C1277 C1272 1.363 . S
C1277 C1276 1.415 . S
H1278 C1275 0.999 . S
H1279 C1260 0.913 . S
H1280 C1298 0.951 . S
H1281 C1300 0.951 . S
H1282 C1302 0.950 . S
H1283 C1303 0.950 . S
H1284 C1305 0.950 . S
H1285 C1308 0.950 . S
H1286 C1309 0.950 . S
H1287 C1311 0.950 . S
H1288 C1312 0.950 . S
H1289 C1313 0.951 . S
H1290 C1315 0.951 . S
H1291 C1317 0.950 . S
H1292 C1318 0.950 . S
H1293 C1320 0.950 . S
H1294 C1323 0.950 . S
H1295 C1324 0.950 . S
H1296 C1326 0.950 . S
H1297 C1327 0.950 . S
C1298 H1280 0.951 . S
C1298 C1299 1.366 . S
C1298 C1300 1.388 . S
C1299 C1298 1.366 . S
C1299 C1303 1.385 . S
C1300 H1281 0.951 . S
C1300 C1298 1.388 . S
C1300 C1301 1.366 . S
C1301 C1300 1.366 . S
C1301 C1302 1.414 . S
C1301 C1304 1.499 . S
C1302 H1282 0.950 . S
C1302 C1301 1.414 . S
C1302 C1303 1.374 . S
C1303 H1283 0.950 . S
C1303 C1299 1.385 . S
C1303 C1302 1.374 . S
C1304 C1301 1.499 . S
C1304 C1305 1.373 . S
C1304 C1306 1.389 . S
C1305 H1284 0.950 . S
C1305 C1304 1.373 . S
C1305 C1321 1.377 . S
C1306 C1304 1.389 . S
C1306 C1307 1.524 . S
C1306 C1320 1.377 . S
C1307 C1306 1.524 . S
C1307 C1308 1.397 . S
C1307 C1312 1.363 . S
C1308 H1285 0.950 . S
C1308 C1307 1.397 . S
C1308 C1309 1.334 . S
C1309 H1286 0.950 . S
C1309 C1308 1.334 . S
C1309 C1310 1.287 . S
C1310 C1309 1.287 . S
C1310 C1311 1.524 . S
C1310 H1329 0.913 . S
C1311 H1287 0.950 . S
C1311 C1310 1.524 . S
C1311 C1312 1.415 . S
C1312 H1288 0.950 . S
C1312 C1307 1.363 . S
C1312 C1311 1.415 . S
C1313 H1289 0.951 . S
C1313 C1314 1.366 . S
C1313 C1315 1.388 . S
C1314 C1313 1.366 . S
C1314 C1318 1.385 . S
C1315 H1290 0.951 . S
C1315 C1313 1.388 . S
C1315 C1316 1.366 . S
C1316 C1315 1.366 . S
C1316 C1317 1.414 . S
C1316 C1319 1.499 . S
C1317 H1291 0.950 . S
C1317 C1316 1.414 . S
C1317 C1318 1.374 . S
C1318 H1292 0.950 . S
C1318 C1314 1.385 . S
C1318 C1317 1.374 . S
C1319 C1316 1.499 . S
C1319 C1320 1.373 . S
C1319 C1321 1.389 . S
C1320 H1293 0.950 . S
C1320 C1306 1.377 . S
C1320 C1319 1.373 . S
C1321 C1305 1.377 . S
C1321 C1319 1.389 . S
C1321 C1322 1.524 . S
C1322 C1321 1.524 . S
C1322 C1323 1.397 . S
C1322 C1327 1.363 . S
C1323 H1294 0.950 . S
C1323 C1322 1.397 . S
C1323 C1324 1.334 . S
C1324 H1295 0.950 . S
C1324 C1323 1.334 . S
C1324 C1325 1.287 . S
C1325 C1324 1.287 . S
C1325 C1326 1.524 . S
C1325 H1328 0.999 . S
C1326 H1296 0.950 . S
C1326 C1325 1.524 . S
C1326 C1327 1.415 . S
C1327 H1297 0.950 . S
C1327 C1322 1.363 . S
C1327 C1326 1.415 . S
H1328 C1325 0.999 . S
H1329 C1310 0.913 . S
H1330 C1348 0.951 . S
H1331 C1350 0.951 . S
H1332 C1352 0.950 . S
H1333 C1353 0.950 . S
H1334 C1355 0.950 . S
H1335 C1358 0.950 . S
H1336 C1359 0.950 . S
H1337 C1361 0.950 . S
H1338 C1362 0.950 . S
H1339 C1363 0.951 . S
H1340 C1365 0.951 . S
H1341 C1367 0.950 . S
H1342 C1368 0.950 . S
H1343 C1370 0.950 . S
H1344 C1373 0.950 . S
H1345 C1374 0.950 . S
H1346 C1376 0.950 . S
H1347 C1377 0.950 . S
C1348 H1330 0.951 . S
C1348 C1349 1.366 . S
C1348 C1350 1.388 . S
C1349 C1348 1.366 . S
C1349 C1353 1.385 . S
C1350 H1331 0.951 . S
C1350 C1348 1.388 . S
C1350 C1351 1.366 . S
C1351 C1350 1.366 . S
C1351 C1352 1.414 . S
C1351 C1354 1.499 . S
C1352 H1332 0.950 . S
C1352 C1351 1.414 . S
C1352 C1353 1.374 . S
C1353 H1333 0.950 . S
C1353 C1349 1.385 . S
C1353 C1352 1.374 . S
C1354 C1351 1.499 . S
C1354 C1355 1.373 . S
C1354 C1356 1.389 . S
C1355 H1334 0.950 . S
C1355 C1354 1.373 . S
C1355 C1371 1.377 . S
C1356 C1354 1.389 . S
C1356 C1357 1.524 . S
C1356 C1370 1.377 . S
C1357 C1356 1.524 . S
C1357 C1358 1.397 . S
C1357 C1362 1.363 . S
C1358 H1335 0.950 . S
C1358 C1357 1.397 . S
C1358 C1359 1.334 . S
C1359 H1336 0.950 . S
C1359 C1358 1.334 . S
C1359 C1360 1.287 . S
C1360 C1359 1.287 . S
C1360 C1361 1.524 . S
C1360 H1379 0.913 . S
C1361 H1337 0.950 . S
C1361 C1360 1.524 . S
C1361 C1362 1.415 . S
C1362 H1338 0.950 . S
C1362 C1357 1.363 . S
C1362 C1361 1.415 . S
C1363 H1339 0.951 . S
C1363 C1364 1.366 . S
C1363 C1365 1.388 . S
C1364 C1363 1.366 . S
C1364 C1368 1.385 . S
C1365 H1340 0.951 . S
C1365 C1363 1.388 . S
C1365 C1366 1.366 . S
C1366 C1365 1.366 . S
C1366 C1367 1.414 . S
C1366 C1369 1.499 . S
C1367 H1341 0.950 . S
C1367 C1366 1.414 . S
C1367 C1368 1.374 . S
C1368 H1342 0.950 . S
C1368 C1364 1.385 . S
C1368 C1367 1.374 . S
C1369 C1366 1.499 . S
C1369 C1370 1.373 . S
C1369 C1371 1.389 . S
C1370 H1343 0.950 . S
C1370 C1356 1.377 . S
C1370 C1369 1.373 . S
C1371 C1355 1.377 . S
C1371 C1369 1.389 . S
C1371 C1372 1.524 . S
C1372 C1371 1.524 . S
C1372 C1373 1.397 . S
C1372 C1377 1.363 . S
C1373 H1344 0.950 . S
C1373 C1372 1.397 . S
C1373 C1374 1.334 . S
C1374 H1345 0.950 . S
C1374 C1373 1.334 . S
C1374 C1375 1.287 . S
C1375 C1374 1.287 . S
C1375 C1376 1.524 . S
C1375 H1378 0.999 . S
C1376 H1346 0.950 . S
C1376 C1375 1.524 . S
C1376 C1377 1.415 . S
C1377 H1347 0.950 . S
C1377 C1372 1.363 . S
C1377 C1376 1.415 . S
H1378 C1375 0.999 . S
H1379 C1360 0.913 . S
C199 C76 1.539 . S
C214 C111 1.399 . S
C264 C135 1.398 . S
C249 C88 1.539 . S
C314 C156 1.398 . S
C299 C52 1.540 . S
C364 C174 1.397 . S
C349 C64 1.540 . S
C414 C114 1.337 . S
C399 C28 1.485 . S
C449 C40 1.485 . S
C464 C132 1.336 . S
C499 C4 1.485 . S
C514 C153 1.337 . S
C549 C16 1.485 . S
C564 C177 1.339 . S
C614 C112 0.423 . S
C599 C69 0.429 . S
C664 C130 0.422 . S
C649 C81 0.427 . S
C714 C151 0.426 . S
C699 C93 0.430 . S
C749 C57 0.431 . S
C764 C175 0.426 . S
C799 C21 0.516 . S
C814 C110 0.491 . S
C864 C134 0.489 . S
C849 C33 0.516 . S
C914 C155 0.490 . S
C899 C45 0.518 . S
C949 C9 0.518 . S
C964 C173 0.490 . S
C999 C66 1.609 . S
C1014 C113 1.561 . S
C1049 C78 1.609 . S
C1064 C131 1.562 . S
C1114 C152 1.561 . S
C1099 C90 1.608 . S
C1164 C176 1.561 . S
C1149 C54 1.610 . S
C1199 C18 1.441 . S
C1214 C109 1.408 1_655 S
C1264 C133 1.407 1_565 S
C1249 C30 1.442 . S
C1314 C154 1.407 . S
C1299 C42 1.441 . S
C1349 C6 1.441 . S
C1364 C172 1.407 . S
