# Generated by pormake.
# Topology zzz, (3,6)-cn, num edge types: 1
# Building blocks:
#     Node 0, Type 0, BuildingBlock: MIDCAF_clean_linker_0, # of connection points: 3
#     Node 1, Type 0, BuildingBlock: MIDCAF_clean_linker_0, # of connection points: 3
#     Node 2, Type 0, BuildingBlock: MIDCAF_clean_linker_0, # of connection points: 3
#     Node 3, Type 0, BuildingBlock: MIDCAF_clean_linker_0, # of connection points: 3
#     Node 4, Type 0, BuildingBlock: MIDCAF_clean_linker_0, # of connection points: 3
#     Node 5, Type 0, BuildingBlock: MIDCAF_clean_linker_0, # of connection points: 3
#     Node 6, Type 0, BuildingBlock: MIDCAF_clean_linker_0, # of connection points: 3
#     Node 7, Type 0, BuildingBlock: MIDCAF_clean_linker_0, # of connection points: 3
#     Node 8, Type 1, BuildingBlock: BETFEN_clean_sbu_0, # of connection points: 6
#     Node 9, Type 1, BuildingBlock: BETFEN_clean_sbu_0, # of connection points: 6
#     Node 10, Type 1, BuildingBlock: BETFEN_clean_sbu_0, # of connection points: 6
#     Node 11, Type 1, BuildingBlock: BETFEN_clean_sbu_0, # of connection points: 6
#     Edge 12, Type (0, 1), BuildingBlock: ZUJKAS_clean_linker_0, # of connection points: 2
#     Edge 13, Type (0, 1), BuildingBlock: ZUJKAS_clean_linker_0, # of connection points: 2
#     Edge 14, Type (0, 1), BuildingBlock: ZUJKAS_clean_linker_0, # of connection points: 2
#     Edge 15, Type (0, 1), BuildingBlock: ZUJKAS_clean_linker_0, # of connection points: 2
#     Edge 16, Type (0, 1), BuildingBlock: ZUJKAS_clean_linker_0, # of connection points: 2
#     Edge 17, Type (0, 1), BuildingBlock: ZUJKAS_clean_linker_0, # of connection points: 2
#     Edge 18, Type (0, 1), BuildingBlock: ZUJKAS_clean_linker_0, # of connection points: 2
#     Edge 19, Type (0, 1), BuildingBlock: ZUJKAS_clean_linker_0, # of connection points: 2
#     Edge 20, Type (0, 1), BuildingBlock: ZUJKAS_clean_linker_0, # of connection points: 2
#     Edge 21, Type (0, 1), BuildingBlock: ZUJKAS_clean_linker_0, # of connection points: 2
#     Edge 22, Type (0, 1), BuildingBlock: ZUJKAS_clean_linker_0, # of connection points: 2
#     Edge 23, Type (0, 1), BuildingBlock: ZUJKAS_clean_linker_0, # of connection points: 2
#     Edge 24, Type (0, 1), BuildingBlock: ZUJKAS_clean_linker_0, # of connection points: 2
#     Edge 25, Type (0, 1), BuildingBlock: ZUJKAS_clean_linker_0, # of connection points: 2
#     Edge 26, Type (0, 1), BuildingBlock: ZUJKAS_clean_linker_0, # of connection points: 2
#     Edge 27, Type (0, 1), BuildingBlock: ZUJKAS_clean_linker_0, # of connection points: 2
#     Edge 28, Type (0, 1), BuildingBlock: ZUJKAS_clean_linker_0, # of connection points: 2
#     Edge 29, Type (0, 1), BuildingBlock: ZUJKAS_clean_linker_0, # of connection points: 2
#     Edge 30, Type (0, 1), BuildingBlock: ZUJKAS_clean_linker_0, # of connection points: 2
#     Edge 31, Type (0, 1), BuildingBlock: ZUJKAS_clean_linker_0, # of connection points: 2
#     Edge 32, Type (0, 1), BuildingBlock: ZUJKAS_clean_linker_0, # of connection points: 2
#     Edge 33, Type (0, 1), BuildingBlock: ZUJKAS_clean_linker_0, # of connection points: 2
#     Edge 34, Type (0, 1), BuildingBlock: ZUJKAS_clean_linker_0, # of connection points: 2
#     Edge 35, Type (0, 1), BuildingBlock: ZUJKAS_clean_linker_0, # of connection points: 2
# Relax obj value: 0.420
# Max RMSD: 0.274
# Mean RMSD: 0.253
data_MOF--net-zzz--node1-BETFEN_clean_sbu_0--node2-MIDCAF_clean_linker_0--edge1-ZUJKAS_clean_linker_0
_symmetry_space_group_name_H-M    P1
_symmetry_Int_Tables_number       1
_symmetry_cell_setting            triclinic
loop_
_symmetry_equiv_pos_as_xyz
'x, y, z'
_cell_length_a     74.836202
_cell_length_b     74.802782
_cell_length_c     22.784815
_cell_angle_alpha  89.866085
_cell_angle_beta   89.937756
_cell_angle_gamma 89.931695
loop_
_atom_site_label
_atom_site_type_symbol
_atom_site_fract_x
_atom_site_fract_y
_atom_site_fract_z
_atom_type_partial_charge
C0 C 0.78045 0.50884 0.36622 0.0
C1 C 0.7902 0.49458 0.39113 0.0
C2 C 0.78406 0.47705 0.38232 0.0
C3 C 0.7696 0.4737 0.34543 0.0
H4 H 0.71862 0.51741 0.13921 0.0
H5 H 0.69086 0.5257 0.08937 0.0
H6 H 0.66228 0.4865 0.19243 0.0
H7 H 0.69016 0.47818 0.24152 0.0
H8 H 0.72886 0.45528 0.07832 0.0
H9 H 0.7431 0.43846 0.99952 0.0
H10 H 0.7906 0.43281 0.10601 0.0
H11 H 0.77624 0.44874 0.18476 0.0
H12 H 0.75922 0.51655 0.3076 0.0
H13 H 0.78481 0.52251 0.37213 0.0
H14 H 0.7909 0.46578 0.4021 0.0
H15 H 0.7659 0.45995 0.33691 0.0
N16 N 0.73333 0.49271 0.25644 0.0
N17 N 0.72893 0.47539 0.17132 0.0
N18 N 0.75406 0.47053 0.22963 0.0
C19 C 0.72329 0.48837 0.20856 0.0
C20 C 0.74434 0.46641 0.18146 0.0
C21 C 0.74876 0.48353 0.26727 0.0
C22 C 0.70637 0.49741 0.19476 0.0
C23 C 0.70622 0.5112 0.15295 0.0
C24 C 0.69033 0.51586 0.12427 0.0
C25 C 0.67439 0.50659 0.13639 0.0
C26 C 0.67437 0.49373 0.18158 0.0
C27 C 0.69025 0.48913 0.21031 0.0
C28 C 0.75152 0.4537 0.13755 0.0
C29 C 0.7422 0.45007 0.08532 0.0
C30 C 0.75039 0.44048 0.03997 0.0
C31 C 0.76811 0.43442 0.0458 0.0
C32 C 0.77687 0.43698 0.09975 0.0
C33 C 0.76866 0.44638 0.14506 0.0
C34 C 0.76069 0.48779 0.31699 0.0
C35 C 0.76575 0.50546 0.32948 0.0
C36 C 0.98869 0.79101 0.32611 0.0
C37 C 0.99444 0.7925 0.3847 0.0
C38 C 0.00434 0.7783 0.40923 0.0
C39 C 0.00975 0.76382 0.37451 0.0
H40 H 0.99099 0.7084 0.22196 0.0
H41 H 0.9843 0.67995 0.17277 0.0
H42 H 0.03949 0.67559 0.1195 0.0
H43 H 0.04615 0.70361 0.16772 0.0
H44 H 0.06401 0.74067 0.12448 0.0
H45 H 0.08453 0.75875 0.06601 0.0
H46 H 0.07185 0.80474 0.17301 0.0
H47 H 0.0521 0.78673 0.23212 0.0
H48 H 0.9909 0.77659 0.24515 0.0
H49 H 0.98124 0.80172 0.30544 0.0
H50 H 0.00879 0.77887 0.4544 0.0
H51 H 0.01868 0.75391 0.39308 0.0
N52 N 0.0123 0.73557 0.25834 0.0
N53 N 0.03752 0.73541 0.1964 0.0
N54 N 0.0308 0.76089 0.25088 0.0
C55 C 0.02309 0.72681 0.21932 0.0
C56 C 0.04148 0.75241 0.21191 0.0
C57 C 0.01637 0.75265 0.27445 0.0
C58 C 0.01904 0.70848 0.19799 0.0
C59 C 1.00172 0.70119 0.20055 0.0
C60 C 0.99789 0.68492 0.17239 0.0
C61 C 0.0113 0.67574 0.14121 0.0
C62 C 0.02876 0.68256 0.14183 0.0
C63 C 0.03257 0.69865 0.16974 0.0
C64 C 0.05611 0.76231 0.18237 0.0
C65 C 0.06594 0.75455 0.13628 0.0
C66 C 0.07767 0.76493 0.10259 0.0
C67 C 0.07977 0.78327 0.11423 0.0
C68 C 0.07086 0.79064 0.16293 0.0
C69 C 0.05927 0.78029 0.19665 0.0
C70 C 0.00521 0.76318 0.31486 0.0
C71 C 0.99412 0.77654 0.29152 0.0
C72 C 0.71394 0.96188 0.34455 0.0
C73 C 0.71489 0.97637 0.3835 0.0
C74 C 0.73037 0.98714 0.38239 0.0
C75 C 0.74432 0.98363 0.34241 0.0
H76 H 0.81467 0.94929 0.20815 0.0
H77 H 0.84346 0.95845 0.16867 0.0
H78 H 0.82541 0.01334 0.16484 0.0
H79 H 0.79637 0.00389 0.20421 0.0
H80 H 0.77956 0.95079 0.05521 0.0
H81 H 0.76599 0.94475 0.96014 0.0
H82 H 0.71538 0.93487 0.04581 0.0
H83 H 0.72891 0.9404 0.14022 0.0
H84 H 0.72613 0.94728 0.27515 0.0
H85 H 0.7022 0.95344 0.34305 0.0
H86 H 0.73164 0.99836 0.41205 0.0
H87 H 0.75585 0.99237 0.34161 0.0
N88 N 0.7734 0.97278 0.25705 0.0
N89 N 0.77908 0.96023 0.16402 0.0
N90 N 0.75089 0.95728 0.20632 0.0
C91 C 0.78489 0.96936 0.21166 0.0
C92 C 0.7621 0.95421 0.16076 0.0
C93 C 0.75629 0.96636 0.25472 0.0
C94 C 0.80344 0.97592 0.21004 0.0
C95 C 0.81719 0.96341 0.20149 0.0
C96 C 0.83368 0.9687 0.17853 0.0
C97 C 0.83674 0.98663 0.16277 0.0
C98 C 0.82343 0.99939 0.17579 0.0
C99 C 0.80691 0.99406 0.19931 0.0
C100 C 0.75519 0.94657 0.10531 0.0
C101 C 0.76565 0.94683 0.05391 0.0
C102 C 0.75788 0.9434 0.99929 0.0
C103 C 0.73954 0.93962 0.99507 0.0
C104 C 0.72958 0.93761 0.0471 0.0
C105 C 0.73732 0.94101 0.10154 0.0
C106 C 0.74296 0.96941 0.30236 0.0
C107 C 0.7277 0.95845 0.30489 0.0
C108 C 0.4365 0.72389 0.14551 0.0
C109 C 0.4309 0.7308 0.09105 0.0
C110 C 0.43514 0.74862 0.07702 0.0
C111 C 0.44596 0.75876 0.11435 0.0
H112 H 0.52096 0.79789 0.19442 0.0
H113 H 0.52854 0.82589 0.14319 0.0
H114 H 0.4725 0.8396 0.13573 0.0
H115 H 0.46505 0.81176 0.18482 0.0
H116 H 0.47453 0.74834 0.37244 0.0
H117 H 0.48298 0.72243 0.43137 0.0
H118 H 0.5315 0.71697 0.33031 0.0
H119 H 0.52299 0.74324 0.27153 0.0
H120 H 0.45193 0.72783 0.22291 0.0
H121 H 0.43375 0.71018 0.15783 0.0
H122 H 0.43079 0.75448 0.03592 0.0
H123 H 0.44975 0.77211 0.10073 0.0
N124 N 0.47271 0.77685 0.18499 0.0
N125 N 0.49589 0.77517 0.25487 0.0
N126 N 0.47548 0.7515 0.2439 0.0
C127 C 0.48701 0.78443 0.21199 0.0
C128 C 0.48982 0.75869 0.27134 0.0
C129 C 0.46693 0.76036 0.2004 0.0
C130 C 0.49241 0.80257 0.19286 0.0
C131 C 0.51037 0.80713 0.18284 0.0
C132 C 0.51469 0.82313 0.15343 0.0
C133 C 0.50108 0.83478 0.134 0.0
C134 C 0.48328 0.83071 0.14834 0.0
C135 C 0.47901 0.81479 0.17693 0.0
C136 C 0.49821 0.74788 0.31799 0.0
C137 C 0.48739 0.74208 0.36459 0.0
C138 C 0.49211 0.7271 0.39774 0.0
C139 C 0.50772 0.71741 0.38468 0.0
C140 C 0.5194 0.72416 0.34149 0.0
C141 C 0.51464 0.73928 0.30817 0.0
C142 C 0.45272 0.75125 0.16647 0.0
C143 C 0.44719 0.734 0.18278 0.0
C144 C 0.23156 0.49615 0.95813 0.0
C145 C 0.2173 0.48399 0.96493 0.0
C146 C 0.21898 0.47035 0.00719 0.0
C147 C 0.2336 0.46987 0.04519 0.0
H148 H 0.31195 0.46392 0.09918 0.0
H149 H 0.34351 0.46293 0.12835 0.0
H150 H 0.33915 0.51687 0.19433 0.0
H151 H 0.30792 0.51771 0.16506 0.0
H152 H 0.27932 0.49615 0.29804 0.0
H153 H 0.26542 0.50061 0.39384 0.0
H154 H 0.21367 0.48978 0.31803 0.0
H155 H 0.22743 0.48497 0.22311 0.0
H156 H 0.25657 0.50574 0.99245 0.0
H157 H 0.23075 0.50688 0.92626 0.0
H158 H 0.2086 0.46041 0.0127 0.0
H159 H 0.23387 0.45991 0.0798 0.0
N160 N 0.27757 0.48678 0.08423 0.0
N161 N 0.28047 0.49055 0.18644 0.0
N162 N 0.25229 0.48578 0.14581 0.0
C163 C 0.28805 0.48951 0.13246 0.0
C164 C 0.26263 0.48865 0.19362 0.0
C165 C 0.25953 0.48492 0.09122 0.0
C166 C 0.30765 0.49098 0.12926 0.0
C167 C 0.31807 0.47581 0.1173 0.0
C168 C 0.33604 0.47518 0.13486 0.0
C169 C 0.34385 0.48975 0.16434 0.0
C170 C 0.33372 0.50546 0.17127 0.0
C171 C 0.31581 0.506 0.15433 0.0
C172 C 0.25448 0.49029 0.25264 0.0
C173 C 0.26499 0.49453 0.30193 0.0
C174 C 0.25705 0.49714 0.35685 0.0
C175 C 0.23847 0.49548 0.36366 0.0
C176 C 0.22807 0.49082 0.31466 0.0
C177 C 0.23596 0.48823 0.25992 0.0
C178 C 0.24717 0.48274 0.04115 0.0
C179 C 0.24641 0.49548 0.99584 0.0
C180 C 0.01987 0.2329 0.94728 0.0
C181 C 0.0332 0.22053 0.93102 0.0
C182 C 0.05088 0.22375 0.94862 0.0
C183 C 0.05492 0.238 0.98563 0.0
H184 H 0.0073 0.29835 0.12728 0.0
H185 H 0.99744 0.32694 0.16951 0.0
H186 H 0.05173 0.34638 0.16186 0.0
H187 H 0.06137 0.31799 0.1203 0.0
H188 H 0.05464 0.27038 0.2645 0.0
H189 H 0.06317 0.25049 0.3441 0.0
H190 H 0.09493 0.21925 0.22321 0.0
H191 H 0.08551 0.23866 0.14295 0.0
H192 H 0.01329 0.25596 0.99959 0.0
H193 H 0.00611 0.2308 0.93438 0.0
H194 H 0.06155 0.21477 0.93574 0.0
H195 H 0.06855 0.23946 1.00088 0.0
N196 N 0.03795 0.27797 0.06254 0.0
N197 N 0.05266 0.28098 0.1535 0.0
N198 N 0.05626 0.25489 0.09886 0.0
C199 C 0.04198 0.28792 0.11102 0.0
C200 C 0.05981 0.26446 0.14776 0.0
C201 C 0.04543 0.26141 0.05612 0.0
C202 C 0.03503 0.30615 0.11991 0.0
C203 C 0.01691 0.30905 0.13263 0.0
C204 C 0.01135 0.3253 0.15746 0.0
C205 C 0.02381 0.33893 0.16937 0.0
C206 C 0.04172 0.33632 0.1527 0.0
C207 C 0.04727 0.32007 0.12878 0.0
C208 C 0.06906 0.25578 0.19737 0.0
C209 C 0.06386 0.25957 0.25526 0.0
C210 C 0.06886 0.24818 0.30108 0.0
C211 C 0.07938 0.23295 0.28988 0.0
C212 C 0.08634 0.23052 0.23304 0.0
C213 C 0.08104 0.24168 0.18708 0.0
C214 C 0.04144 0.24956 0.00576 0.0
C215 C 0.02397 0.24735 0.98439 0.0
C216 C 0.2759 0.02184 0.96023 0.0
C217 C 0.28913 0.03513 0.95364 0.0
C218 C 0.28593 0.05207 0.97797 0.0
C219 C 0.27071 0.05528 0.01175 0.0
H220 H 0.18623 0.05928 0.09541 0.0
H221 H 0.15677 0.05204 0.13505 0.0
H222 H 0.17541 0.99909 0.17963 0.0
H223 H 0.2049 0.00643 0.13928 0.0
H224 H 0.22501 0.05246 0.27341 0.0
H225 H 0.24026 0.0601 0.36463 0.0
H226 H 0.28141 0.08712 0.26559 0.0
H227 H 0.26635 0.07941 0.17452 0.0
H228 H 0.25107 0.01436 1.00161 0.0
H229 H 0.27793 0.00864 0.94198 0.0
H230 H 0.29554 0.06276 0.97253 0.0
H231 H 0.26918 0.06829 0.03197 0.0
N232 N 0.22775 0.03715 0.06682 0.0
N233 N 0.22157 0.04959 0.15971 0.0
N234 N 0.24945 0.05411 0.1165 0.0
C235 C 0.21617 0.04007 0.11238 0.0
C236 C 0.23816 0.05664 0.16219 0.0
C237 C 0.2445 0.04447 0.06877 0.0
C238 C 0.1977 0.0333 0.1133 0.0
C239 C 0.18373 0.0458 0.11095 0.0
C240 C 0.16696 0.04174 0.13453 0.0
C241 C 0.16383 0.0251 0.16148 0.0
C242 C 0.17734 0.012 0.15894 0.0
C243 C 0.19419 0.01611 0.13535 0.0
C244 C 0.24472 0.065 0.21674 0.0
C245 C 0.237 0.06054 0.27115 0.0
C246 C 0.24568 0.06492 0.32343 0.0
C247 C 0.26204 0.07408 0.32209 0.0
C248 C 0.26873 0.08018 0.26799 0.0
C249 C 0.26021 0.07558 0.21575 0.0
C250 C 0.25809 0.04171 0.02201 0.0
C251 C 0.26048 0.02512 0.99416 0.0
C252 C 0.4088 0.29241 0.15383 0.0
C253 C 0.40602 0.2905 0.21455 0.0
C254 C 0.4102 0.27402 0.24121 0.0
C255 C 0.41901 0.26066 0.20945 0.0
H256 H 0.49072 0.21242 0.13609 0.0
H257 H 0.49831 0.18546 0.19241 0.0
H258 H 0.44221 0.17666 0.22719 0.0
H259 H 0.43485 0.20366 0.17344 0.0
H260 H 0.44825 0.26446 0.95508 0.0
H261 H 0.46128 0.28779 0.89462 0.0
H262 H 0.51069 0.28339 0.99167 0.0
H263 H 0.49726 0.25994 0.05317 0.0
H264 H 0.42067 0.28162 0.07646 0.0
H265 H 0.40581 0.30487 0.13158 0.0
H266 H 0.40786 0.27197 0.28766 0.0
H267 H 0.42338 0.24875 0.23245 0.0
N268 N 0.44278 0.23658 0.14516 0.0
N269 N 0.46713 0.2352 0.07948 0.0
N270 N 0.44707 0.25938 0.07666 0.0
C271 C 0.45731 0.22772 0.12388 0.0
C272 C 0.46172 0.251 0.05516 0.0
C273 C 0.43761 0.25244 0.12184 0.0
C274 C 0.46222 0.21033 0.15104 0.0
C275 C 0.48006 0.20458 0.15537 0.0
C276 C 0.48438 0.18911 0.1876 0.0
C277 C 0.4709 0.17901 0.21553 0.0
C278 C 0.45303 0.18434 0.20812 0.0
C279 C 0.44878 0.19981 0.17683 0.0
C280 C 0.47178 0.26033 0.00848 0.0
C281 C 0.46213 0.268 0.962 0.0
C282 C 0.46964 0.28142 0.92731 0.0
C283 C 0.48702 0.28769 0.93848 0.0
C284 C 0.49719 0.27905 0.98232 0.0
C285 C 0.48964 0.26543 0.01695 0.0
C286 C 0.42378 0.26358 0.15051 0.0
C287 C 0.41755 0.27909 0.12217 0.0
Pr288 Pr 0.00962 1.00093 0.71495 0.0
Pr289 Pr 0.98671 0.01477 0.60572 0.0
C290 C 0.02003 0.98636 0.81684 0.0
C291 C 0.03168 0.97121 0.83126 0.0
C292 C 0.03987 0.97013 0.88635 0.0
C293 C 0.05092 0.95562 0.90001 0.0
C294 C 0.05391 0.94196 0.85869 0.0
C295 C 0.04594 0.94337 0.803 0.0
C296 C 0.03498 0.95789 0.78935 0.0
C297 C 0.03211 0.00437 0.61641 0.0
C298 C 0.99349 0.97169 0.61562 0.0
C299 C 0.97625 0.0347 0.51504 0.0
C300 C 0.98489 0.05163 0.4973 0.0
C301 C 0.97572 0.06789 0.50426 0.0
C302 C 0.98506 0.08409 0.50389 0.0
C303 C 0.00372 0.08424 0.49675 0.0
C304 C 0.01266 0.0681 0.48572 0.0
C305 C 0.00337 0.05198 0.48588 0.0
C306 C 0.96716 0.00485 0.70497 0.0
C307 C 0.00614 0.04426 0.69612 0.0
O308 O 0.00487 0.98229 0.79123 0.0
O309 O 0.02805 1.00022 0.79344 0.0
O310 O 0.01565 0.00752 0.61941 0.0
O311 O 0.03783 0.99925 0.66749 0.0
O312 O 0.98976 0.98492 0.57899 0.0
O313 O 0.99889 0.97455 0.67027 0.0
O314 O 0.98571 0.02008 0.50793 0.0
O315 O 0.96808 0.0353 0.56588 0.0
O316 O 0.9817 0.01339 0.70518 0.0
O317 O 0.96172 1.00186 0.65157 0.0
O318 O 0.00864 0.0315 0.73546 0.0
O319 O 1.00051 0.0407 0.64246 0.0
H320 H 0.03763 0.98044 0.91887 0.0
H321 H 0.05705 0.95506 0.94301 0.0
H322 H 0.04771 0.93298 0.77046 0.0
H323 H 0.0289 0.95862 0.74626 0.0
H324 H 0.96153 0.06799 0.51377 0.0
H325 H 0.97783 0.09638 0.51229 0.0
H326 H 0.02698 0.06787 0.4786 0.0
H327 H 0.01092 0.03975 0.48045 0.0
Pr328 Pr 0.51126 0.01861 0.73793 0.0
Pr329 Pr 0.49615 0.99735 0.61652 0.0
C330 C 0.53058 0.02377 0.83442 0.0
C331 C 0.54806 0.01551 0.84604 0.0
C332 C 0.56258 0.02626 0.86203 0.0
C333 C 0.58003 0.01966 0.85762 0.0
C334 C 0.58315 1.00219 0.83736 0.0
C335 C 0.56854 0.99116 0.82434 0.0
C336 C 0.55118 0.99779 0.8283 0.0
C337 C 0.50241 0.04244 0.64688 0.0
C338 C 0.53958 1.0028 0.6314 0.0
C339 C 0.47728 0.99224 0.51896 0.0
C340 C 0.46071 1.00162 0.50346 0.0
C341 C 0.44655 0.99238 0.4773 0.0
C342 C 0.42962 1.00026 0.47383 0.0
C343 C 0.42663 0.01752 0.49654 0.0
C344 C 0.44106 0.02692 0.52087 0.0
C345 C 0.45784 0.01898 0.52484 0.0
C346 C 0.50569 0.97361 0.70703 0.0
C347 C 0.46781 0.01316 0.72297 0.0
O348 O 0.5167 0.01304 0.83401 0.0
O349 O 0.53074 0.03508 0.79043 0.0
O350 O 0.50162 0.02564 0.64698 0.0
O351 O 0.50743 0.04783 0.6986 0.0
O352 O 0.52649 0.99929 0.59387 0.0
O353 O 0.53673 0.00825 0.68616 0.0
O354 O 0.4919 1.00194 0.51934 0.0
O355 O 0.47571 0.9818 0.56492 0.0
O356 O 0.50599 0.9904 0.70688 0.0
O357 O 0.50064 0.9681 0.65547 0.0
O358 O 0.48087 0.01669 0.76064 0.0
O359 O 0.47073 0.00779 0.66816 0.0
H360 H 0.56051 0.04007 0.87462 0.0
H361 H 0.59108 0.02836 0.86861 0.0
H362 H 0.57055 0.97772 0.80804 0.0
H363 H 0.54031 0.98936 0.81387 0.0
H364 H 0.44839 0.97879 0.46207 0.0
H365 H 0.41875 0.99257 0.45542 0.0
H366 H 0.43935 0.04032 0.53785 0.0
H367 H 0.46838 0.02615 0.5471 0.0
Pr368 Pr 0.49831 0.50814 0.70702 0.0
Pr369 Pr 0.51813 0.49293 0.59147 0.0
C370 C 0.48435 0.51945 0.80888 0.0
C371 C 0.47368 0.53531 0.823 0.0
C372 C 0.46529 0.53694 0.87765 0.0
C373 C 0.4555 0.55235 0.89097 0.0
C374 C 0.454 0.56634 0.84973 0.0
C375 C 0.46216 0.56438 0.79449 0.0
C376 C 0.47186 0.54898 0.78123 0.0
C377 C 0.47749 0.50386 0.6065 0.0
C378 C 0.51383 0.53716 0.61064 0.0
C379 C 0.52061 0.47897 0.48394 0.0
C380 C 0.50974 0.4647 0.45751 0.0
C381 C 0.50474 0.44982 0.49143 0.0
C382 C 0.49222 0.43767 0.47042 0.0
C383 C 0.48441 0.44007 0.41492 0.0
C384 C 0.48977 0.45469 0.38021 0.0
C385 C 0.50229 0.46697 0.40149 0.0
C386 C 0.54352 0.50172 0.67736 0.0
C387 C 0.50706 0.46441 0.69735 0.0
O388 O 0.50091 0.52265 0.79331 0.0
O389 O 0.47642 0.50766 0.77548 0.0
O390 O 0.48923 0.49307 0.62457 0.0
O391 O 0.47574 0.51732 0.64194 0.0
O392 O 0.51554 0.52385 0.57264 0.0
O393 O 0.50979 0.53445 0.66652 0.0
O394 O 0.51198 0.4939 0.49433 0.0
O395 O 0.53122 0.47411 0.52703 0.0
O396 O 0.52685 0.50328 0.68016 0.0
O397 O 0.54801 0.49542 0.62614 0.0
O398 O 0.50378 0.47813 0.73247 0.0
O399 O 0.51071 0.46651 0.64095 0.0
H400 H 0.46645 0.5264 0.91012 0.0
H401 H 0.44921 0.55338 0.93366 0.0
H402 H 0.46156 0.57498 0.76208 0.0
H403 H 0.47822 0.54787 0.73862 0.0
H404 H 0.50996 0.4479 0.5353 0.0
H405 H 0.48819 0.42672 0.49865 0.0
H406 H 0.48415 0.45672 0.33693 0.0
H407 H 0.50576 0.4785 0.37498 0.0
Pr408 Pr 0.99886 0.48999 0.7193 0.0
Pr409 Pr 0.00926 0.5147 0.6277 0.0
C410 C 0.9816 0.47152 0.80328 0.0
C411 C 0.9634 0.464 0.80575 0.0
C412 C 0.96097 0.44558 0.81436 0.0
C413 C 0.94387 0.4381 0.81147 0.0
C414 C 0.9289 0.44893 0.79981 0.0
C415 C 0.93138 0.46741 0.79201 0.0
C416 C 0.94842 0.47485 0.79491 0.0
C417 C 0.00879 0.47252 0.61582 0.0
C418 C 0.96737 0.50652 0.62982 0.0
C419 C 0.02774 0.53227 0.54519 0.0
C420 C 0.04666 0.53752 0.54811 0.0
C421 C 0.05372 0.54463 0.60036 0.0
C422 C 0.07217 0.54522 0.60922 0.0
C423 C 0.0838 0.53845 0.56643 0.0
C424 C 0.0768 0.53245 0.51274 0.0
C425 C 0.05836 0.53204 0.50359 0.0
C426 C 0.99898 0.53227 0.7303 0.0
C427 C 0.04081 0.49861 0.71738 0.0
O428 O 0.98291 0.48896 0.80352 0.0
O429 O 0.99246 0.46397 0.7659 0.0
O430 O 0.99876 0.48608 0.6183 0.0
O431 O 0.01434 0.46783 0.66753 0.0
O432 O 0.9803 0.51097 0.59347 0.0
O433 O 0.97114 0.50051 0.68295 0.0
O434 O 0.02513 0.515 0.54321 0.0
O435 O 0.01681 0.5404 0.58113 0.0
O436 O 0.00911 0.51873 0.72867 0.0
O437 O 0.99372 0.53692 0.67818 0.0
O438 O 0.02786 0.49409 0.75356 0.0
O439 O 0.03702 0.50441 0.66413 0.0
H440 H 0.97234 0.43693 0.82229 0.0
H441 H 0.9424 0.42381 0.81748 0.0
H442 H 0.92012 0.47621 0.78429 0.0
H443 H 0.94984 0.48911 0.78806 0.0
H444 H 0.04502 0.54866 0.63598 0.0
H445 H 0.07726 0.54981 0.65104 0.0
H446 H 0.08557 0.52738 0.47875 0.0
H447 H 0.05322 0.52634 0.46333 0.0
H448 H 0.14972 0.04832 0.24094 0.0
H449 H 0.12497 0.04349 0.30869 0.0
H450 H 0.11631 0.99115 0.23494 0.0
H451 H 0.1416 0.99576 0.16781 0.0
H452 H 0.09044 0.03778 0.29779 0.0
H453 H 0.12104 0.97841 0.4044 0.0
H454 H 0.13306 0.99208 0.35256 0.0
H455 H 0.11727 0.9757 0.32722 0.0
C456 C 0.14243 0.03584 0.23851 0.0
C457 C 0.14765 0.02242 0.19883 0.0
C458 C 0.12827 0.03307 0.27754 0.0
C459 C 0.11887 0.01683 0.27791 0.0
C460 C 0.12361 0.00362 0.2368 0.0
H461 H 0.02196 0.00802 0.50114 0.0
H462 H 0.04158 0.01041 0.41489 0.0
C463 C 0.138 0.00629 0.19815 0.0
C464 C 0.10454 0.01382 0.32259 0.0
H465 H 0.09244 0.98689 0.43733 0.0
C466 C 0.09084 0.0266 0.32816 0.0
C467 C 0.10512 0.99935 0.3628 0.0
C468 C 0.11999 0.98569 0.36198 0.0
C469 C 0.07801 0.02556 0.37333 0.0
C470 C 0.07852 0.01101 0.41321 0.0
C471 C 0.09195 0.998 0.40669 0.0
C472 C 0.06622 0.00964 0.46471 0.0
C473 C 0.06457 0.04051 0.37937 0.0
C474 C 0.07342 0.00794 0.52138 0.0
C475 C 0.06225 0.00629 0.57029 0.0
C476 C 0.0436 0.00644 0.56389 0.0
C477 C 0.0363 0.00816 0.50735 0.0
C478 C 0.04752 0.00959 0.45811 0.0
H479 H 0.06888 0.05274 0.3555 0.0
H480 H 0.05162 0.03618 0.36054 0.0
H481 H 0.06239 0.044 0.42617 0.0
H482 H 0.08776 0.00794 0.52789 0.0
H483 H 0.06827 0.00497 0.6133 0.0
H484 H 0.49716 0.15331 0.20136 0.0
H485 H 0.5036 0.12771 0.26568 0.0
H486 H 0.46089 0.14374 0.38117 0.0
H487 H 0.45471 0.16948 0.31878 0.0
H488 H 0.51211 0.12833 0.39081 0.0
H489 H 0.45027 0.0902 0.34348 0.0
H490 H 0.45853 0.10766 0.29573 0.0
H491 H 0.44656 0.11328 0.36157 0.0
C492 C 0.48921 0.15147 0.24063 0.0
C493 C 0.47524 0.16341 0.25424 0.0
C494 C 0.49284 0.13675 0.27713 0.0
C495 C 0.48247 0.13362 0.32755 0.0
C496 C 0.46877 0.14564 0.34172 0.0
H497 H 0.49679 0.07818 0.65152 0.0
H498 H 0.49282 0.09903 0.56968 0.0
C499 C 0.46522 0.16035 0.30571 0.0
C500 C 0.48621 0.11821 0.36699 0.0
H501 H 0.46678 0.08128 0.42849 0.0
C502 C 0.50231 0.11791 0.39847 0.0
C503 C 0.47348 0.10452 0.37661 0.0
C504 C 0.45629 0.10376 0.34222 0.0
C505 C 0.50564 0.10476 0.44133 0.0
C506 C 0.49249 0.09166 0.45318 0.0
C507 C 0.47677 0.09143 0.41971 0.0
C508 C 0.49444 0.07875 0.5024 0.0
C509 C 0.5231 0.10514 0.47432 0.0
C510 C 0.4963 0.06034 0.49184 0.0
C511 C 0.49865 0.04838 0.53874 0.0
C512 C 0.4988 0.05459 0.59686 0.0
C513 C 0.49664 0.07298 0.6072 0.0
C514 C 0.49445 0.08492 0.56049 0.0
H515 H 0.53339 0.1131 0.45073 0.0
H516 H 0.52091 0.11134 0.51796 0.0
H517 H 0.52828 0.09139 0.4814 0.0
H518 H 0.49634 0.0553 0.44731 0.0
H519 H 0.5008 0.0344 0.52947 0.0
H520 H 0.3562 0.46111 0.22748 0.0
H521 H 0.3819 0.46028 0.29361 0.0
H522 H 0.39629 0.51371 0.24068 0.0
H523 H 0.37085 0.51451 0.17315 0.0
H524 H 0.42641 0.48944 0.26004 0.0
H525 H 0.37783 0.49103 0.44506 0.0
H526 H 0.37497 0.47322 0.39309 0.0
H527 H 0.37143 0.49596 0.37042 0.0
C528 C 0.36513 0.47249 0.22838 0.0
C529 C 0.36134 0.48795 0.19525 0.0
C530 C 0.37972 0.47205 0.26673 0.0
C531 C 0.3908 0.48705 0.27284 0.0
C532 C 0.38784 0.50202 0.23689 0.0
H533 H 0.45201 0.52612 0.56279 0.0
H534 H 0.43215 0.52095 0.47928 0.0
C535 C 0.37324 0.50249 0.19854 0.0
C536 C 0.40434 0.48786 0.32044 0.0
H537 H 0.40833 0.49039 0.4696 0.0
C538 C 0.42251 0.48949 0.30588 0.0
C539 C 0.39917 0.48815 0.38023 0.0
C540 C 0.3798 0.48714 0.39847 0.0
C541 C 0.43563 0.49149 0.34966 0.0
C542 C 0.43041 0.49181 0.40932 0.0
C543 C 0.41228 0.49002 0.42379 0.0
C544 C 0.44333 0.49512 0.45749 0.0
C545 C 0.4549 0.49388 0.33198 0.0
C546 C 0.45623 0.4823 0.47295 0.0
C547 C 0.46757 0.4852 0.52093 0.0
C548 C 0.46617 0.50097 0.55415 0.0
C549 C 0.4534 0.51385 0.53804 0.0
C550 C 0.44206 0.51092 0.49034 0.0
H551 H 0.45649 0.49547 0.28377 0.0
H552 H 0.46065 0.50576 0.35415 0.0
H553 H 0.46269 0.48205 0.3462 0.0
H554 H 0.45723 0.46989 0.44882 0.0
H555 H 0.47717 0.47499 0.53274 0.0
H556 H 0.00322 0.3401 0.26851 0.0
H557 H 0.99899 0.3653 0.33508 0.0
H558 H 0.0294 0.3991 0.2185 0.0
H559 H 0.03383 0.37384 0.15187 0.0
H560 H 0.04155 0.40131 0.32846 0.0
H561 H 0.9681 0.4094 0.33262 0.0
H562 H 0.97478 0.3869 0.349 0.0
H563 H 0.97938 0.3962 0.27761 0.0
C564 C 0.00858 0.35301 0.25613 0.0
C565 C 0.01884 0.35494 0.20473 0.0
C566 C 0.00614 0.36745 0.29434 0.0
C567 C 0.0137 0.38421 0.28166 0.0
C568 C 0.02341 0.38633 0.22929 0.0
H569 H 0.9946 0.47782 0.50635 0.0
H570 H 0.99628 0.45765 0.42164 0.0
C571 C 0.02594 0.37187 0.19123 0.0
C572 C 0.01288 0.39898 0.32539 0.0
H573 H 0.98428 0.42306 0.41169 0.0
C574 C 0.029 0.4062 0.34612 0.0
C575 C 0.99653 0.40558 0.34808 0.0
C576 C 0.97872 0.39925 0.32523 0.0
C577 C 0.02926 0.41931 0.39017 0.0
C578 C 0.01296 0.42515 0.41524 0.0
C579 C 0.9968 0.41844 0.39304 0.0
C580 C 0.01244 0.43773 0.46577 0.0
C581 C 0.04703 0.42681 0.40931 0.0
C582 C 0.02089 0.43324 0.51882 0.0
C583 C 0.02 0.44475 0.56705 0.0
C584 C 0.01049 0.46092 0.56348 0.0
C585 C 1.00207 0.46547 0.51034 0.0
C586 C 1.00298 0.45394 0.462 0.0
H587 H 0.05733 0.42528 0.37452 0.0
H588 H 0.0459 0.44119 0.42071 0.0
H589 H 0.05173 0.41943 0.44868 0.0
H590 H 0.02793 0.42065 0.52332 0.0
H591 H 0.02654 0.44082 0.60747 0.0
H592 H 0.87134 0.97451 0.17385 0.0
H593 H 0.89603 0.97866 0.10452 0.0
H594 H 0.86278 0.01296 0.99845 0.0
H595 H 0.83807 0.00883 0.06711 0.0
H596 H 0.89586 0.96865 0.98934 0.0
H597 H 0.90895 0.04131 0.0045 0.0
H598 H 0.896 0.02938 0.05878 0.0
H599 H 0.88588 0.03632 0.99083 0.0
C600 C 0.86935 0.98314 0.13619 0.0
C601 C 0.85267 0.99136 0.12629 0.0
C602 C 0.88349 0.98552 0.09661 0.0
C603 C 0.88136 0.99626 0.04644 0.0
C604 C 0.86493 0.00494 0.03744 0.0
H605 H 0.93408 0.98966 0.71032 0.0
H606 H 0.91446 0.98701 0.79588 0.0
C607 C 0.85079 1.00259 0.07698 0.0
C608 C 0.89571 0.99721 1.00111 0.0
H609 H 0.92104 0.02632 0.92048 0.0
C610 C 0.90149 0.98125 0.97475 0.0
C611 C 0.90324 0.01362 0.98235 0.0
C612 C 0.89834 0.03112 0.01098 0.0
C613 C 0.9141 0.98131 0.92894 0.0
C614 C 0.92095 0.99778 0.90818 0.0
C615 C 0.91566 0.01369 0.93591 0.0
C616 C 0.93321 0.99883 0.85673 0.0
C617 C 0.92001 0.96368 0.90328 0.0
C618 C 0.95023 0.00657 0.86211 0.0
C619 C 0.96147 0.00815 0.8131 0.0
C620 C 0.95582 1.00217 0.75766 0.0
C621 C 0.93885 0.99431 0.75247 0.0
C622 C 0.92764 0.99272 0.80144 0.0
H623 H 0.9177 0.95245 0.93437 0.0
H624 H 0.91218 0.96097 0.86294 0.0
H625 H 0.9344 0.96397 0.89133 0.0
H626 H 0.95479 0.01144 0.90423 0.0
H627 H 0.97447 0.01429 0.81845 0.0
H628 H 0.52843 0.8595 0.14232 0.0
H629 H 0.53335 0.88589 0.07951 0.0
H630 H 0.48754 0.87148 0.97538 0.0
H631 H 0.48267 0.84529 0.03684 0.0
H632 H 0.53877 0.88892 0.9556 0.0
H633 H 0.4767 0.92322 0.02449 0.0
H634 H 0.48619 0.90478 0.06523 0.0
H635 H 0.47273 0.90066 1.00128 0.0
C636 C 0.51949 0.86194 0.10585 0.0
C637 C 0.50494 0.85046 0.0954 0.0
C638 C 0.52227 0.87704 0.07015 0.0
C639 C 0.51054 0.88089 0.02363 0.0
C640 C 0.49646 0.86909 0.012 0.0
H641 H 0.51424 0.9384 0.70232 0.0
H642 H 0.51814 0.91763 0.78426 0.0
C643 C 0.49368 0.8541 0.04737 0.0
C644 C 0.5128 0.89707 0.98631 0.0
H645 H 0.48963 0.93299 0.93339 0.0
C646 C 0.52817 0.89874 0.95138 0.0
C647 C 0.49914 0.9101 0.98157 0.0
C648 C 0.48284 0.90974 0.0206 0.0
C649 C 0.52973 0.91247 0.9093 0.0
C650 C 0.5154 0.92463 0.90128 0.0
C651 C 0.50054 0.92358 0.93882 0.0
C652 C 0.51486 0.93769 0.85181 0.0
C653 C 0.54665 0.91368 0.87349 0.0
C654 C 0.51136 0.95589 0.86212 0.0
C655 C 0.50889 0.96775 0.81509 0.0
C656 C 0.50993 0.96167 0.75697 0.0
C657 C 0.51362 0.94353 0.74671 0.0
C658 C 0.51603 0.93166 0.79358 0.0
H659 H 0.55821 0.90799 0.89777 0.0
H660 H 0.545 0.90584 0.83259 0.0
H661 H 0.54975 0.92774 0.8614 0.0
H662 H 0.5101 0.96084 0.90658 0.0
H663 H 0.50545 0.98149 0.82421 0.0
H664 H 0.65388 0.48004 0.09034 0.0
H665 H 0.63021 0.48259 0.01742 0.0
H666 H 0.63551 0.54 0.0191 0.0
H667 H 0.65958 0.53749 0.09176 0.0
H668 H 0.59813 0.49826 0.01528 0.0
H669 H 0.64186 0.52956 0.847 0.0
H670 H 0.65054 0.52024 0.91422 0.0
H671 H 0.64018 0.54195 0.91414 0.0
C672 C 0.64984 0.49325 0.07603 0.0
C673 C 0.65864 0.50857 0.09694 0.0
C674 C 0.63634 0.49469 0.03401 0.0
C675 C 0.63126 0.51146 0.01183 0.0
C676 C 0.6395 0.52687 0.03435 0.0
H677 H 0.53659 0.51804 0.78221 0.0
H678 H 0.55722 0.52231 0.86453 0.0
C679 C 0.65318 0.52544 0.07612 0.0
C680 C 0.6177 0.51251 0.96415 0.0
H681 H 0.61163 0.52542 0.82154 0.0
C682 C 0.60104 0.50429 0.973 0.0
C683 C 0.62158 0.52017 0.90867 0.0
C684 C 0.63955 0.52834 0.89503 0.0
C685 C 0.58831 0.50321 0.92781 0.0
C686 C 0.59212 0.51103 0.87251 0.0
C687 C 0.60865 0.51955 0.864 0.0
C688 C 0.57969 0.50951 0.82176 0.0
C689 C 0.57126 0.493 0.9391 0.0
C690 C 0.5856 0.5016 0.76932 0.0
C691 C 0.57392 0.49944 0.72199 0.0
C692 C 0.55606 0.50508 0.72621 0.0
C693 C 0.55023 0.51339 0.77806 0.0
C694 C 0.56199 0.51573 0.82524 0.0
H695 H 0.57247 0.48398 0.9777 0.0
H696 H 0.56029 0.5026 0.94817 0.0
H697 H 0.56746 0.48487 0.90038 0.0
H698 H 0.59919 0.49675 0.76538 0.0
H699 H 0.57878 0.49302 0.68252 0.0
H700 H 0.02196 0.66934 0.02921 0.0
H701 H 0.01735 0.64254 0.97056 0.0
H702 H 0.98716 0.61881 0.11199 0.0
H703 H 0.99161 0.64593 0.17113 0.0
H704 H 0.02864 0.60881 0.99567 0.0
H705 H 0.95475 0.61026 0.97098 0.0
H706 H 0.96727 0.62925 0.997 0.0
H707 H 0.96289 0.61072 0.04514 0.0
C708 C 0.0143 0.65844 0.04792 0.0
C709 C 0.00727 0.6597 0.10503 0.0
C710 C 0.01165 0.64313 0.01425 0.0
C711 C 1.00187 0.62864 0.03665 0.0
C712 C 0.99452 0.62991 0.09336 0.0
H713 H 0.01166 0.52699 0.84193 0.0
H714 H 0.01118 0.54837 0.92356 0.0
C715 C 0.99709 0.64538 0.12715 0.0
C716 C 1.00012 0.61216 1.00062 0.0
H717 H 0.97006 0.58619 0.92699 0.0
C718 C 0.01582 0.60376 0.98105 0.0
C719 C 0.98339 0.60565 0.98131 0.0
C720 C 0.96609 0.61447 0.99918 0.0
C721 C 0.01533 0.58945 0.94128 0.0
C722 C 0.9986 0.58299 0.92156 0.0
C723 C 0.98286 0.59105 0.94246 0.0
C724 C 0.99727 0.56907 0.87512 0.0
C725 C 0.03277 0.58202 0.91852 0.0
C726 C 0.98887 0.57323 0.82173 0.0
C727 C 0.98893 0.56098 0.77549 0.0
C728 C 0.99743 0.54432 0.78155 0.0
C729 C 0.00516 0.53981 0.83582 0.0
C730 C 0.00499 0.55206 0.88234 0.0
H731 H 0.04417 0.59111 0.92759 0.0
H732 H 0.03557 0.56905 0.9404 0.0
H733 H 0.0321 0.57969 0.87046 0.0
H734 H 0.98277 0.58622 0.81509 0.0
H735 H 0.98275 0.56481 0.73436 0.0
H736 H 0.0823 0.23513 0.4107 0.0
H737 H 0.077 0.2109 0.48135 0.0
H738 H 0.07232 0.1735 0.33841 0.0
H739 H 0.07729 0.19725 0.26852 0.0
H740 H 0.04645 0.19298 0.48773 0.0
H741 H 0.09953 0.14356 0.45268 0.0
H742 H 0.1018 0.16648 0.42858 0.0
H743 H 0.09116 0.15009 0.38226 0.0
C744 C 0.08055 0.22165 0.39451 0.0
C745 C 0.08025 0.2182 0.33375 0.0
C746 C 0.07762 0.20782 0.43496 0.0
C747 C 0.07456 0.19031 0.4153 0.0
C748 C 0.07525 0.18674 0.35495 0.0
H749 H 0.99619 0.11674 0.44801 0.0
H750 H 0.01472 0.14355 0.44973 0.0
C751 C 0.07811 0.20046 0.31475 0.0
C752 C 0.06776 0.17622 0.45529 0.0
H753 H 0.06925 0.13095 0.47039 0.0
C754 C 0.05175 0.1795 0.48569 0.0
C755 C 0.07487 0.1587 0.45453 0.0
C756 C 0.09291 0.1546 0.42826 0.0
C757 C 0.04161 0.16537 0.50877 0.0
C758 C 0.04741 0.1476 0.49956 0.0
C759 C 0.06448 0.14454 0.47593 0.0
C760 C 0.03516 0.13216 0.50589 0.0
C761 C 0.02439 0.16959 0.54033 0.0
C762 C 0.04056 0.11672 0.53616 0.0
C763 C 0.03004 0.10132 0.53468 0.0
C764 C 0.01403 0.10103 0.50235 0.0
C765 C 0.00836 0.11664 0.47366 0.0
C766 C 0.0189 0.13202 0.47506 0.0
H767 H 0.02549 0.18243 0.56447 0.0
H768 H 0.01349 0.17109 0.50773 0.0
H769 H 0.02071 0.15886 0.57186 0.0
H770 H 0.05308 0.11649 0.55998 0.0
H771 H 0.03455 0.08954 0.55815 0.0
H772 H 0.28139 0.10178 0.36891 0.0
H773 H 0.30792 0.09849 0.43125 0.0
H774 H 0.29716 0.04206 0.44854 0.0
H775 H 0.27042 0.04543 0.3892 0.0
H776 H 0.3152 0.05401 0.54238 0.0
H777 H 0.34771 0.07746 0.33584 0.0
H778 H 0.33375 0.09349 0.37214 0.0
H779 H 0.32402 0.07373 0.34059 0.0
C780 C 0.28435 0.08885 0.38817 0.0
C781 C 0.27406 0.07381 0.37354 0.0
C782 C 0.29954 0.08695 0.42337 0.0
C783 C 0.30488 0.0699 0.44253 0.0
C784 C 0.29341 0.05533 0.43384 0.0
H785 H 0.40158 0.01551 0.40963 0.0
H786 H 0.37225 0.02963 0.4069 0.0
C787 C 0.27806 0.05728 0.39986 0.0
C788 C 0.3235 0.06631 0.46131 0.0
H789 H 0.36596 0.06479 0.40682 0.0
C790 C 0.3264 0.0566 0.51334 0.0
C791 C 0.33804 0.06955 0.42282 0.0
C792 C 0.3358 0.07899 0.36454 0.0
C793 C 0.34319 0.04913 0.52617 0.0
C794 C 0.3575 0.05189 0.48653 0.0
C795 C 0.35488 0.06262 0.43678 0.0
C796 C 0.37478 0.04237 0.49176 0.0
C797 C 0.34516 0.03748 0.57996 0.0
C798 C 0.38584 0.04463 0.54078 0.0
C799 C 0.40251 0.03622 0.54302 0.0
C800 C 0.40854 0.02568 0.49572 0.0
C801 C 0.39731 0.02334 0.44704 0.0
C802 C 0.38059 0.03154 0.44522 0.0
H803 H 0.332 0.03356 0.59856 0.0
H804 H 0.35284 0.02517 0.5697 0.0
H805 H 0.35255 0.04496 0.6142 0.0
H806 H 0.38175 0.05314 0.57678 0.0
H807 H 0.41069 0.03804 0.58172 0.0
H808 H 0.42151 0.29936 0.3185 0.0
H809 H 0.42326 0.32887 0.36111 0.0
H810 H 0.38543 0.34868 0.23388 0.0
H811 H 0.38344 0.31879 0.19073 0.0
H812 H 0.41654 0.36576 0.22668 0.0
H813 H 0.39708 0.36457 0.45936 0.0
H814 H 0.41147 0.34596 0.44472 0.0
H815 H 0.39006 0.34742 0.40864 0.0
C816 C 0.41282 0.30967 0.30117 0.0
C817 C 0.40249 0.30669 0.25061 0.0
C818 C 0.41383 0.32667 0.32583 0.0
C819 C 0.40443 0.34104 0.30091 0.0
C820 C 0.39279 0.33778 0.25387 0.0
H821 H 0.45272 0.44791 0.35967 0.0
H822 H 0.42913 0.42685 0.33105 0.0
C823 C 0.39173 0.3207 0.22913 0.0
C824 C 0.40974 0.35953 0.3164 0.0
H825 H 0.42235 0.3845 0.43435 0.0
C826 C 0.41722 0.37021 0.27189 0.0
C827 C 0.41061 0.36538 0.37529 0.0
C828 C 0.40167 0.35526 0.42451 0.0
C829 C 0.42715 0.38556 0.28536 0.0
C830 C 0.4295 0.39035 0.34474 0.0
C831 C 0.42067 0.38063 0.38882 0.0
C832 C 0.44324 0.40344 0.36233 0.0
C833 C 0.43634 0.39567 0.23655 0.0
C834 C 0.45891 0.39718 0.38905 0.0
C835 C 0.47238 0.40906 0.40487 0.0
C836 C 0.47042 0.42749 0.39461 0.0
C837 C 0.45472 0.43376 0.36743 0.0
C838 C 0.44119 0.4218 0.35146 0.0
H839 H 0.43398 0.38954 0.19287 0.0
H840 H 0.43135 0.40964 0.23546 0.0
H841 H 0.45096 0.39615 0.24469 0.0
H842 H 0.46078 0.38302 0.3972 0.0
H843 H 0.48439 0.40378 0.42501 0.0
H844 H 0.21079 0.47782 0.41591 0.0
H845 H 0.19158 0.48906 0.49385 0.0
H846 H 0.22715 0.53369 0.5197 0.0
H847 H 0.24597 0.52303 0.43909 0.0
H848 H 0.19284 0.49969 0.61022 0.0
H849 H 0.18242 0.55807 0.4606 0.0
H850 H 0.19487 0.53874 0.43728 0.0
H851 H 0.20452 0.55421 0.48846 0.0
C852 C 0.21465 0.48993 0.43856 0.0
C853 C 0.22957 0.49983 0.42008 0.0
C854 C 0.20378 0.49623 0.48367 0.0
C855 C 0.20769 0.51247 0.51151 0.0
C856 C 0.22368 0.52134 0.49779 0.0
H857 H 0.1072 0.56308 0.61107 0.0
H858 H 0.13962 0.55941 0.62407 0.0
C859 C 0.2345 0.51514 0.45202 0.0
C860 C 0.19349 0.5211 0.54678 0.0
H861 H 0.16063 0.55231 0.53015 0.0
C862 C 0.18606 0.51153 0.59398 0.0
C863 C 0.18476 0.53672 0.52611 0.0
C864 C 0.19193 0.54755 0.47524 0.0
C865 C 0.16923 0.51605 0.61671 0.0
C866 C 0.15963 0.53036 0.59116 0.0
C867 C 0.16801 0.54125 0.54928 0.0
C868 C 0.13998 0.53176 0.59629 0.0
C869 C 0.16135 0.50473 0.66502 0.0
C870 C 0.12949 0.51743 0.5767 0.0
C871 C 0.1112 0.51959 0.56832 0.0
C872 C 0.103 0.53612 0.57941 0.0
C873 C 0.11328 0.55023 0.60197 0.0
C874 C 0.13171 0.54812 0.60978 0.0
H875 H 0.17199 0.49971 0.69477 0.0
H876 H 0.15136 0.5123 0.69117 0.0
H877 H 0.1547 0.49292 0.64544 0.0
H878 H 0.1356 0.50483 0.56458 0.0
H879 H 0.10349 0.50841 0.55202 0.0
H880 H 0.07978 0.78128 0.99406 0.0
H881 H 0.08674 0.80541 0.92612 0.0
H882 H 0.10554 0.83758 0.07032 0.0
H883 H 0.10005 0.813 0.13768 0.0
H884 H 0.06722 0.83294 0.93468 0.0
H885 H 0.13616 0.85772 0.94593 0.0
H886 H 0.13018 0.83578 0.97275 0.0
H887 H 0.12803 0.85517 0.01935 0.0
C888 C 0.08632 0.79308 0.01105 0.0
C889 C 0.0889 0.79536 0.07176 0.0
C890 C 0.0902 0.80697 0.97198 0.0
C891 C 0.09651 0.82345 0.9929 0.0
C892 C 0.10093 0.825 0.05256 0.0
H893 H 0.05308 0.92378 0.96257 0.0
H894 H 0.06695 0.89508 0.98519 0.0
C895 C 0.09742 0.81099 0.09144 0.0
C896 C 0.09441 0.83986 0.95674 0.0
H897 H 0.11276 0.88104 0.93244 0.0
C898 C 0.07746 0.84317 0.9325 0.0
C899 C 0.10766 0.85333 0.95342 0.0
C900 C 0.12657 0.85018 0.97378 0.0
C901 C 0.07295 0.85996 0.90984 0.0
C902 C 0.0856 0.87389 0.91227 0.0
C903 C 0.10301 0.87034 0.9318 0.0
C904 C 0.08004 0.89249 0.901 0.0
C905 C 0.0543 0.86305 0.88675 0.0
C906 C 0.08328 0.90066 0.84668 0.0
C907 C 0.07543 0.91718 0.83362 0.0
C908 C 0.06421 0.92569 0.87474 0.0
C909 C 0.06178 0.91776 0.93016 0.0
C910 C 0.06964 0.90132 0.94312 0.0
H911 H 0.04739 0.85028 0.87674 0.0
H912 H 0.04635 0.8703 0.92028 0.0
H913 H 0.05465 0.8714 0.84641 0.0
H914 H 0.09124 0.89394 0.81368 0.0
H915 H 0.07777 0.92307 0.79084 0.0
H916 H 0.71137 0.91953 0.95521 0.0
H917 H 0.6894 0.92958 0.88384 0.0
H918 H 0.72407 0.97298 0.83308 0.0
H919 H 0.74565 0.96363 0.90669 0.0
H920 H 0.69488 0.98491 0.88181 0.0
H921 H 0.6744 0.93561 0.71656 0.0
H922 H 0.67565 0.92494 0.78689 0.0
H923 H 0.69561 0.93411 0.75418 0.0
C924 C 0.7146 0.93086 0.9275 0.0
C925 C 0.73 0.9411 0.93806 0.0
C926 C 0.7021 0.93645 0.88585 0.0
C927 C 0.705 0.95215 0.85327 0.0
C928 C 0.72154 0.96085 0.85781 0.0
H929 H 0.61062 0.01956 0.78263 0.0
H930 H 0.64131 0.00886 0.76868 0.0
C931 C 0.73394 0.95541 0.89997 0.0
C932 C 0.68941 0.96179 0.82848 0.0
H933 H 0.65023 0.95478 0.75574 0.0
C934 C 0.68538 0.97859 0.85256 0.0
C935 C 0.67699 0.95356 0.7905 0.0
C936 C 0.68102 0.93613 0.76016 0.0
C937 C 0.66861 0.98653 0.84461 0.0
C938 C 0.65565 0.97758 0.81056 0.0
C939 C 0.66016 0.96152 0.7823 0.0
C940 C 0.63676 0.98336 0.8112 0.0
C941 C 0.66445 0.00366 0.87694 0.0
C942 C 0.62397 0.97234 0.83803 0.0
C943 C 0.60652 0.97841 0.84611 0.0
C944 C 0.60157 0.99563 0.82755 0.0
C945 C 0.61423 0.00642 0.79876 0.0
C946 C 0.6317 1.00029 0.79045 0.0
H947 H 0.67506 0.00726 0.90885 0.0
H948 H 0.66319 0.01478 0.84491 0.0
H949 H 0.65159 1.00249 0.90101 0.0
H950 H 0.62766 0.95927 0.85466 0.0
H951 H 0.59703 0.96982 0.86838 0.0
H952 H 0.43777 0.73018 0.97295 0.0
H953 H 0.4329 0.70517 0.90701 0.0
H954 H 0.40373 0.67752 0.04303 0.0
H955 H 0.40736 0.70305 0.10775 0.0
H956 H 0.44926 0.67622 0.93463 0.0
H957 H 0.37868 0.65795 0.90383 0.0
H958 H 0.38525 0.67977 0.92987 0.0
H959 H 0.38291 0.6613 0.98036 0.0
C960 C 0.42947 0.71924 0.98798 0.0
C961 C 0.42333 0.71847 0.04635 0.0
C962 C 0.42679 0.70484 0.95014 0.0
C963 C 0.4181 0.68934 0.97005 0.0
C964 C 0.41029 0.68935 0.0261 0.0
H965 H 0.45599 0.58425 0.95374 0.0
H966 H 0.44482 0.61415 0.97554 0.0
C967 C 0.41267 0.70389 0.0636 0.0
C968 C 0.42073 0.67216 0.9387 0.0
H969 H 0.40008 0.63289 0.90354 0.0
C970 C 0.43839 0.66699 0.9264 0.0
C971 C 0.40663 0.66002 0.92759 0.0
C972 C 0.38731 0.66517 0.93557 0.0
C973 C 0.44244 0.64972 0.90718 0.0
C974 C 0.42853 0.63713 0.90128 0.0
C975 C 0.41074 0.64253 0.90944 0.0
C976 C 0.43262 0.61811 0.89048 0.0
C977 C 0.4617 0.64488 0.89533 0.0
C978 C 0.42878 0.61024 0.83623 0.0
C979 C 0.43503 0.59303 0.82373 0.0
C980 C 0.44518 0.58348 0.8654 0.0
C981 C 0.4481 0.59112 0.92085 0.0
C982 C 0.44184 0.60826 0.93326 0.0
H983 H 0.46999 0.65693 0.88688 0.0
H984 H 0.46728 0.63789 0.93424 0.0
H985 H 0.46282 0.63578 0.85705 0.0
H986 H 0.42162 0.61767 0.80282 0.0
H987 H 0.43231 0.58739 0.78094 0.0
H988 H 0.79435 0.40865 0.04312 0.0
H989 H 0.81742 0.40578 0.96828 0.0
H990 H 0.78787 0.44115 0.85441 0.0
H991 H 0.76553 0.4454 0.93088 0.0
H992 H 0.8235 0.3978 0.85401 0.0
H993 H 0.83089 0.47106 0.89087 0.0
H994 H 0.81595 0.45757 0.93412 0.0
H995 H 0.80984 0.46426 0.86089 0.0
C996 C 0.79263 0.41572 1.00199 0.0
C997 C 0.77846 0.42788 0.99425 0.0
C998 C 0.80575 0.41386 0.95884 0.0
C999 C 0.80471 0.42383 0.90674 0.0
C1000 C 0.78922 0.43382 0.89522 0.0
H1001 H 0.90172 0.45718 0.72389 0.0
H1002 H 0.87034 0.44839 0.73233 0.0
C1003 C 0.7763 0.43605 0.93894 0.0
C1004 C 0.82099 0.42606 0.87038 0.0
H1005 H 0.8528 0.45699 0.83566 0.0
C1006 C 0.82977 0.41078 0.84899 0.0
C1007 C 0.82924 0.44302 0.86418 0.0
C1008 C 0.82112 0.45991 0.88906 0.0
C1009 C 0.8469 0.41193 0.82394 0.0
C1010 C 0.85538 0.42876 0.82036 0.0
C1011 C 0.84616 0.44412 0.83822 0.0
C1012 C 0.87457 0.43074 0.80637 0.0
C1013 C 0.85601 0.39511 0.8032 0.0
C1014 C 0.88737 0.42346 0.84455 0.0
C1015 C 0.90524 0.42865 0.84045 0.0
C1016 C 0.91061 0.44128 0.79821 0.0
C1017 C 0.89794 0.44767 0.75763 0.0
C1018 C 0.88005 0.44252 0.76191 0.0
H1019 H 0.84612 0.38465 0.79141 0.0
H1020 H 0.86469 0.39781 0.76464 0.0
H1021 H 0.8645 0.38975 0.8391 0.0
H1022 H 0.88335 0.4147 0.88011 0.0
H1023 H 0.91461 0.42361 0.87272 0.0
H1024 H 0.01096 0.21498 0.83599 0.0
H1025 H 0.00415 0.1863 0.78785 0.0
H1026 H 0.03852 0.15895 0.91038 0.0
H1027 H 0.04521 0.18721 0.95858 0.0
H1028 H 0.03075 0.15969 0.73851 0.0
H1029 H 0.98887 0.13282 0.91927 0.0
H1030 H 0.99308 0.15643 0.90981 0.0
H1031 H 0.00979 0.14227 0.94231 0.0
C1032 C 0.01698 0.20283 0.85268 0.0
C1033 C 0.02873 0.20342 0.90086 0.0
C1034 C 0.01315 0.18649 0.82502 0.0
C1035 C 0.02076 0.17049 0.84579 0.0
C1036 C 0.03242 0.1711 0.89384 0.0
H1037 H 0.02132 0.05715 0.79687 0.0
H1038 H 0.02453 0.08829 0.82686 0.0
C1039 C 0.03634 0.18732 0.92105 0.0
C1040 C 0.01674 0.15299 0.81801 0.0
H1041 H 0.99923 0.1119 0.84861 0.0
C1042 C 0.02367 0.14926 0.76207 0.0
C1043 C 0.0075 0.13945 0.84889 0.0
C1044 C 0.99923 0.14292 0.90821 0.0
C1045 C 0.02238 0.13204 0.73747 0.0
C1046 C 0.01364 0.11827 0.76935 0.0
C1047 C 0.00612 0.12231 0.82433 0.0
C1048 C 0.01264 0.09941 0.74822 0.0
C1049 C 0.03107 0.12864 0.67876 0.0
C1050 C 0.005 0.09515 0.69369 0.0
C1051 C 0.00335 0.07728 0.67607 0.0
C1052 C 0.00901 0.06324 0.71304 0.0
C1053 C 0.01677 0.06756 0.76733 0.0
C1054 C 0.01859 0.08541 0.7846 0.0
H1055 H 0.04123 0.13895 0.66795 0.0
H1056 H 0.03756 0.11529 0.6776 0.0
H1057 H 0.02069 0.12908 0.64406 0.0
H1058 H 0.99989 0.10558 0.66527 0.0
H1059 H 0.9972 0.07448 0.63407 0.0
H1060 H 0.29638 0.01653 0.85151 0.0
H1061 H 0.32584 0.01101 0.8066 0.0
H1062 H 0.35113 0.03961 0.94785 0.0
H1063 H 0.32208 0.04491 0.99303 0.0
H1064 H 0.35269 0.03739 0.77097 0.0
H1065 H 0.37796 0.99126 0.94264 0.0
H1066 H 0.35449 0.99621 0.93366 0.0
H1067 H 0.36884 0.01171 0.97103 0.0
C1068 C 0.30825 0.02151 0.87314 0.0
C1069 C 0.30681 0.03126 0.92573 0.0
C1070 C 0.32505 0.01843 0.84729 0.0
C1071 C 0.34073 0.02477 0.87412 0.0
C1072 C 0.33929 0.03442 0.92662 0.0
H1073 H 0.45518 0.02584 0.82844 0.0
H1074 H 0.42409 0.02857 0.86033 0.0
C1075 C 0.3226 0.03758 0.95213 0.0
C1076 C 0.35869 0.02165 0.84761 0.0
H1077 H 0.39959 0.0034 0.87719 0.0
C1078 C 0.36292 0.02979 0.79375 0.0
C1079 C 0.37203 0.01177 0.87739 0.0
C1080 C 0.36811 1.00209 0.93412 0.0
C1081 C 0.38034 0.02898 0.7702 0.0
C1082 C 0.39384 0.01943 0.80083 0.0
C1083 C 0.38939 0.01088 0.85386 0.0
C1084 C 0.41274 0.01837 0.77972 0.0
C1085 C 0.38421 0.03896 0.71396 0.0
C1086 C 0.41688 0.01166 0.72377 0.0
C1087 C 0.43468 0.01023 0.70517 0.0
C1088 C 0.44886 0.01521 0.74242 0.0
C1089 C 0.44469 0.02186 0.7985 0.0
C1090 C 0.42686 0.02341 0.81686 0.0
H1091 H 0.37427 0.04974 0.70594 0.0
H1092 H 0.39775 0.045 0.71458 0.0
H1093 H 0.3835 0.02952 0.67654 0.0
H1094 H 0.40635 0.00723 0.69468 0.0
H1095 H 0.4373 0.00497 0.66174 0.0
H1096 H 0.48222 0.29807 0.82364 0.0
H1097 H 0.488 0.32752 0.78081 0.0
H1098 H 0.51182 0.34479 0.94313 0.0
H1099 H 0.50574 0.31554 0.9869 0.0
H1100 H 0.47344 0.35994 0.82943 0.0
H1101 H 0.54754 0.36185 0.81396 0.0
H1102 H 0.53517 0.34119 0.81985 0.0
H1103 H 0.53856 0.35484 0.88355 0.0
C1104 C 0.48885 0.30805 0.85018 0.0
C1105 C 0.49342 0.30438 0.90896 0.0
C1106 C 0.49219 0.32488 0.8255 0.0
C1107 C 0.50038 0.33835 0.85867 0.0
C1108 C 0.50571 0.33453 0.91641 0.0
H1109 H 0.49584 0.45368 0.80675 0.0
H1110 H 0.49446 0.42318 0.84579 0.0
C1111 C 0.50229 0.31772 0.9413 0.0
C1112 C 0.50199 0.35677 0.83446 0.0
H1113 H 0.53209 0.38897 0.79462 0.0
C1114 C 0.48626 0.36627 0.8217 0.0
C1115 C 0.51873 0.36498 0.8242 0.0
C1116 C 0.53601 0.3552 0.8356 0.0
C1117 C 0.48682 0.38383 0.79968 0.0
C1118 C 0.50354 0.39216 0.79033 0.0
C1119 C 0.51929 0.38259 0.80226 0.0
C1120 C 0.50484 0.41072 0.76728 0.0
C1121 C 0.46952 0.39334 0.78594 0.0
C1122 C 0.51134 0.41386 0.71042 0.0
C1123 C 0.51206 0.43127 0.68777 0.0
C1124 C 0.50647 0.44595 0.72181 0.0
C1125 C 0.50023 0.44275 0.77921 0.0
C1126 C 0.49939 0.4253 0.80162 0.0
H1127 H 0.45796 0.38404 0.78564 0.0
H1128 H 0.46703 0.40372 0.81967 0.0
H1129 H 0.47036 0.40012 0.74261 0.0
H1130 H 0.51563 0.40279 0.68323 0.0
H1131 H 0.51701 0.43318 0.64353 0.0
H1132 H 0.21188 0.49451 0.84965 0.0
H1133 H 0.1832 0.4993 0.79955 0.0
H1134 H 0.15514 0.48323 0.95627 0.0
H1135 H 0.1834 0.47919 0.00706 0.0
H1136 H 0.15508 0.47563 0.77707 0.0
H1137 H 0.13178 0.53085 0.91872 0.0
H1138 H 0.15472 0.52337 0.91797 0.0
H1139 H 0.13823 0.5116 0.96076 0.0
C1140 C 0.1996 0.49214 0.87357 0.0
C1141 C 0.20006 0.48638 0.93248 0.0
C1142 C 0.18321 0.49479 0.84473 0.0
C1143 C 0.16697 0.49189 0.87438 0.0
C1144 C 0.16744 0.4859 0.93272 0.0
H1145 H 0.05382 0.48799 0.82436 0.0
H1146 H 0.08497 0.48713 0.85666 0.0
C1147 C 0.18371 0.48331 0.96149 0.0
C1148 C 0.14943 0.4948 0.8449 0.0
H1149 H 0.10922 0.51585 0.86255 0.0
C1150 C 0.14512 0.48461 0.79518 0.0
C1151 C 0.13647 0.50665 0.86818 0.0
C1152 C 0.14058 0.51888 0.91896 0.0
C1153 C 0.12792 0.48524 0.77014 0.0
C1154 C 0.11471 0.49642 0.7954 0.0
C1155 C 0.11925 0.50711 0.84365 0.0
C1156 C 0.09586 0.49667 0.77437 0.0
C1157 C 0.12379 0.4734 0.71841 0.0
C1158 C 0.09156 0.50242 0.7174 0.0
C1159 C 0.07373 0.50284 0.69865 0.0
C1160 C 0.05979 0.49768 0.7367 0.0
C1161 C 0.06416 0.492 0.7938 0.0
C1162 C 0.08199 0.49154 0.8124 0.0
H1163 H 0.13435 0.46319 0.71114 0.0
H1164 H 0.11079 0.46652 0.72475 0.0
H1165 H 0.12279 0.48173 0.67818 0.0
H1166 H 0.10198 0.5068 0.68769 0.0
H1167 H 0.07089 0.50734 0.65443 0.0
H1168 H 0.96512 0.81487 0.38727 0.0
H1169 H 0.96331 0.84494 0.42969 0.0
H1170 H 0.01679 0.83929 0.49717 0.0
H1171 H 0.0189 0.80953 0.45404 0.0
H1172 H 0.9686 0.85796 0.54929 0.0
H1173 H 0.01847 0.88462 0.3911 0.0
H1174 H 0.00722 0.86354 0.38036 0.0
H1175 H 0.02553 0.8651 0.43099 0.0
C1176 C 0.97646 0.81998 0.41143 0.0
C1177 C 0.99217 0.80973 0.417 0.0
C1178 C 0.97537 0.83714 0.43585 0.0
C1179 C 0.99001 0.84445 0.46585 0.0
C1180 C 0.00541 0.834 0.47359 0.0
H1181 H 0.99901 0.94065 0.67776 0.0
H1182 H 0.99708 0.90991 0.64199 0.0
C1183 C 0.0065 0.81686 0.44942 0.0
C1184 C 0.98957 0.86325 0.48694 0.0
H1185 H 0.00958 0.90391 0.46811 0.0
C1186 C 0.97752 0.86803 0.53151 0.0
C1187 C 1.00104 0.87644 0.46311 0.0
C1188 C 0.01371 0.87228 0.41339 0.0
C1189 C 0.97694 0.88557 0.55379 0.0
C1190 C 0.98882 0.89861 0.53121 0.0
C1191 C 1.00058 0.89389 0.48576 0.0
C1192 C 0.98928 0.91727 0.55377 0.0
C1193 C 0.96347 0.89006 0.60079 0.0
C1194 C 0.98582 0.93169 0.51591 0.0
C1195 C 0.98695 0.94932 0.53614 0.0
C1196 C 0.99174 0.95293 0.59467 0.0
C1197 C 0.99519 0.93842 0.63252 0.0
C1198 C 0.994 0.92079 0.61225 0.0
H1199 H 0.95252 0.88005 0.60281 0.0
H1200 H 0.97024 0.89021 0.64409 0.0
H1201 H 0.95755 0.90349 0.59316 0.0
H1202 H 0.98226 0.92931 0.47052 0.0
H1203 H 0.98425 0.9601 0.5056 0.0
H1204 H 0.69328 0.95272 0.44247 0.0
H1205 H 0.66497 0.95888 0.49147 0.0
H1206 H 0.6729 0.01541 0.46508 0.0
H1207 H 0.70084 0.00928 0.41274 0.0
H1208 H 0.65415 0.9767 0.58551 0.0
H1209 H 0.6253 0.00892 0.38751 0.0
H1210 H 0.64645 0.9974 0.3861 0.0
H1211 H 0.645 0.01982 0.41424 0.0
C1212 C 0.68902 0.9665 0.44674 0.0
C1213 C 0.69924 0.98047 0.42226 0.0
C1214 C 0.67284 0.97001 0.47534 0.0
C1215 C 0.66646 0.98759 0.48068 0.0
C1216 C 0.67722 1.00168 0.46003 0.0
H1217 H 0.57033 0.01201 0.68991 0.0
H1218 H 0.60117 0.00887 0.65639 0.0
C1219 C 0.69338 0.99817 0.43082 0.0
C1220 C 0.64825 0.99088 0.5055 0.0
H1221 H 0.60736 0.00872 0.47263 0.0
C1222 C 0.64393 0.98375 0.56089 0.0
C1223 C 0.63476 0.99981 0.47306 0.0
C1224 C 0.638 0.00678 0.41173 0.0
C1225 C 0.62657 0.98518 0.58445 0.0
C1226 C 0.6132 0.99445 0.5525 0.0
C1227 C 0.61758 1.00171 0.49739 0.0
C1228 C 0.59439 0.99623 0.57395 0.0
C1229 C 0.6226 0.97615 0.6423 0.0
C1230 C 0.58011 0.99067 0.53834 0.0
C1231 C 0.56238 0.99276 0.55692 0.0
C1232 C 0.55845 1.00043 0.61175 0.0
C1233 C 0.57278 0.00595 0.64751 0.0
C1234 C 0.59051 0.00402 0.6286 0.0
H1235 H 0.63273 0.96579 0.65323 0.0
H1236 H 0.62279 0.98627 0.67768 0.0
H1237 H 0.6092 0.96981 0.64186 0.0
H1238 H 0.58268 0.98466 0.49594 0.0
H1239 H 0.55177 0.98831 0.52819 0.0
H1240 H 0.5384 0.70278 0.43203 0.0
H1241 H 0.54207 0.67275 0.47451 0.0
H1242 H 0.48688 0.66106 0.43599 0.0
H1243 H 0.48308 0.69095 0.39531 0.0
H1244 H 0.49462 0.65032 0.54265 0.0
H1245 H 0.5474 0.62576 0.39173 0.0
H1246 H 0.55348 0.64556 0.43123 0.0
H1247 H 0.53548 0.64637 0.37898 0.0
C1248 C 0.5271 0.69375 0.43264 0.0
C1249 C 0.51041 0.69932 0.41083 0.0
C1250 C 0.52922 0.67654 0.45656 0.0
C1251 C 0.51481 0.66447 0.45789 0.0
C1252 C 0.49821 0.67007 0.4358 0.0
H1253 H 0.51378 0.54935 0.49702 0.0
H1254 H 0.51496 0.58036 0.46296 0.0
C1255 C 0.49603 0.68723 0.41271 0.0
C1256 C 0.51659 0.64611 0.48313 0.0
H1257 H 0.5391 0.60649 0.46964 0.0
C1258 C 0.50439 0.64076 0.52672 0.0
C1259 C 0.52918 0.6335 0.46198 0.0
C1260 C 0.54202 0.63798 0.41303 0.0
C1261 C 0.50422 0.62323 0.54902 0.0
C1262 C 0.51703 0.61071 0.52874 0.0
C1263 C 0.52937 0.61609 0.48562 0.0
C1264 C 0.51731 0.5918 0.5498 0.0
C1265 C 0.4898 0.61815 0.59235 0.0
C1266 C 0.51863 0.58776 0.60991 0.0
C1267 C 0.5177 0.57004 0.62959 0.0
C1268 C 0.51581 0.55588 0.5895 0.0
C1269 C 0.51523 0.55989 0.52916 0.0
C1270 C 0.51592 0.57765 0.50958 0.0
H1271 H 0.47825 0.62748 0.59023 0.0
H1272 H 0.48487 0.60438 0.58432 0.0
H1273 H 0.49531 0.61874 0.63749 0.0
H1274 H 0.52024 0.59835 0.64179 0.0
H1275 H 0.51842 0.56745 0.67632 0.0
H1276 H 0.82091 0.47531 0.37924 0.0
H1277 H 0.84936 0.47952 0.42889 0.0
H1278 H 0.82793 0.52513 0.52053 0.0
H1279 H 0.79909 0.52093 0.47074 0.0
H1280 H 0.86193 0.53117 0.47493 0.0
H1281 H 0.86087 0.46757 0.59914 0.0
H1282 H 0.85738 0.4642 0.52207 0.0
H1283 H 0.84123 0.47665 0.56404 0.0
C1284 C 0.82207 0.48608 0.41067 0.0
C1285 C 0.80755 0.49758 0.4218 0.0
C1286 C 0.83841 0.48848 0.43902 0.0
C1287 C 0.84069 0.50237 0.47952 0.0
C1288 C 0.82641 0.51419 0.48986 0.0
H1289 H 0.93726 0.50198 0.69662 0.0
H1290 H 0.90614 0.50281 0.6645 0.0
C1291 C 0.80997 0.51182 0.46128 0.0
C1292 C 0.8582 0.50462 0.50942 0.0
H1293 H 0.88943 0.48179 0.58922 0.0
C1294 C 0.86787 0.52048 0.50055 0.0
C1295 C 0.86585 0.49079 0.54375 0.0
C1296 C 0.85572 0.47393 0.55838 0.0
C1297 C 0.88527 0.52254 0.5228 0.0
C1298 C 0.89338 0.50821 0.55369 0.0
C1299 C 0.88338 0.49269 0.56482 0.0
C1300 C 0.91232 0.50878 0.57372 0.0
C1301 C 0.89475 0.54009 0.5131 0.0
C1302 C 0.92626 0.51174 0.53346 0.0
C1303 C 0.94411 0.51135 0.55181 0.0
C1304 C 0.94843 0.50773 0.61072 0.0
C1305 C 0.93445 0.50477 0.65094 0.0
C1306 C 0.91661 0.50527 0.63263 0.0
H1307 H 0.88509 0.55121 0.50669 0.0
H1308 H 0.90359 0.54341 0.55062 0.0
H1309 H 0.90307 0.53916 0.47286 0.0
H1310 H 0.92337 0.51397 0.48746 0.0
H1311 H 0.95452 0.51352 0.51952 0.0
loop_
_geom_bond_atom_site_label_1
_geom_bond_atom_site_label_2
_geom_bond_distance
_geom_bond_site_symmetry_2
_ccdc_geom_bond_type
C0 C1 1.384 . S
C0 H13 0.947 . S
C0 C35 1.382 . S
C1 C0 1.384 . S
C1 C2 1.378 . S
C2 C1 1.378 . S
C2 C3 1.378 . S
C2 H14 0.952 . S
C3 C2 1.378 . S
C3 H15 0.950 . S
C3 C34 1.383 . S
H4 C23 0.947 . S
H5 C24 0.946 . S
H6 C26 0.953 . S
H7 C27 0.945 . S
H8 C29 0.952 . S
H9 C30 0.949 . S
H10 C32 0.950 . S
H11 C33 0.948 . S
H12 C35 0.951 . S
H13 C0 0.947 . S
H14 C2 0.952 . S
H15 C3 0.950 . S
N16 C19 1.382 . S
N16 C21 1.363 . S
N17 C19 1.371 . S
N17 C20 1.372 . S
N18 C20 1.361 . S
N18 C21 1.377 . S
C19 N16 1.382 . S
C19 N17 1.371 . S
C19 C22 1.480 . S
C20 N17 1.372 . S
C20 N18 1.361 . S
C20 C28 1.457 . S
C21 N16 1.363 . S
C21 N18 1.377 . S
C21 C34 1.479 . S
C22 C19 1.480 . S
C22 C23 1.383 . S
C22 C27 1.385 . S
C23 H4 0.947 . S
C23 C22 1.383 . S
C23 C24 1.388 . S
C24 H5 0.946 . S
C24 C23 1.388 . S
C24 C25 1.384 . S
C25 C24 1.384 . S
C25 C26 1.377 . S
C26 H6 0.953 . S
C26 C25 1.377 . S
C26 C27 1.369 . S
C27 H7 0.945 . S
C27 C22 1.385 . S
C27 C26 1.369 . S
C28 C20 1.457 . S
C28 C29 1.372 . S
C28 C33 1.364 . S
C29 H8 0.952 . S
C29 C28 1.372 . S
C29 C30 1.389 . S
C30 H9 0.949 . S
C30 C29 1.389 . S
C30 C31 1.387 . S
C31 C30 1.387 . S
C31 C32 1.372 . S
C32 H10 0.950 . S
C32 C31 1.372 . S
C32 C33 1.379 . S
C33 H11 0.948 . S
C33 C28 1.364 . S
C33 C32 1.379 . S
C34 C3 1.383 . S
C34 C21 1.479 . S
C34 C35 1.398 . S
C35 C0 1.382 . S
C35 H12 0.951 . S
C35 C34 1.398 . S
C36 C37 1.384 . S
C36 H49 0.947 . S
C36 C71 1.382 . S
C37 C36 1.384 . S
C37 C38 1.378 1_655 S
C38 C37 1.378 1_455 S
C38 C39 1.378 . S
C38 H50 0.952 . S
C39 C38 1.378 . S
C39 H51 0.950 . S
C39 C70 1.379 1_455 S
H40 C59 0.947 . S
H41 C60 0.946 . S
H42 C62 0.952 . S
H43 C63 0.945 . S
H44 C65 0.952 . S
H45 C66 0.949 . S
H46 C68 0.950 . S
H47 C69 0.948 . S
H48 C71 0.951 . S
H49 C36 0.947 . S
H50 C38 0.952 . S
H51 C39 0.950 . S
N52 C55 1.382 . S
N52 C57 1.364 . S
N53 C55 1.368 1_655 S
N53 C56 1.368 1_655 S
N54 C56 1.363 . S
N54 C57 1.378 . S
C55 N52 1.382 . S
C55 N53 1.368 1_455 S
C55 C58 1.479 . S
C56 N53 1.368 1_455 S
C56 N54 1.363 . S
C56 C64 1.457 . S
C57 N52 1.364 . S
C57 N54 1.378 . S
C57 C70 1.476 1_455 S
C58 C55 1.479 . S
C58 C59 1.382 1_455 S
C58 C63 1.386 . S
C59 H40 0.947 . S
C59 C58 1.382 1_655 S
C59 C60 1.388 . S
C60 H41 0.946 . S
C60 C59 1.388 . S
C60 C61 1.384 . S
C61 C60 1.384 . S
C61 C62 1.375 1_655 S
C62 H42 0.952 . S
C62 C61 1.375 1_455 S
C62 C63 1.371 . S
C63 H43 0.945 . S
C63 C58 1.386 . S
C63 C62 1.371 . S
C64 C56 1.457 . S
C64 C65 1.372 1_455 S
C64 C69 1.364 . S
C65 H44 0.952 . S
C65 C64 1.372 1_655 S
C65 C66 1.389 . S
C66 H45 0.949 . S
C66 C65 1.389 . S
C66 C67 1.387 . S
C67 C66 1.387 . S
C67 C68 1.372 1_655 S
C68 H46 0.950 . S
C68 C67 1.372 1_455 S
C68 C69 1.379 . S
C69 H47 0.948 . S
C69 C64 1.364 . S
C69 C68 1.379 . S
C70 C39 1.379 1_655 S
C70 C57 1.476 1_655 S
C70 C71 1.403 . S
C71 C36 1.382 . S
C71 H48 0.951 . S
C71 C70 1.403 . S
C72 C73 1.381 1_565 S
C72 H85 0.948 . S
C72 C107 1.382 1_565 S
C73 C72 1.381 1_545 S
C73 C74 1.387 . S
C74 C73 1.387 . S
C74 C75 1.378 . S
C74 H86 0.952 . S
C75 C74 1.378 . S
C75 H87 0.950 . S
C75 C106 1.383 . S
H76 C95 0.947 . S
H77 C96 0.952 . S
H78 C98 0.953 . S
H79 C99 0.945 . S
H80 C101 0.949 1_565 S
H81 C102 0.956 . S
H82 C104 0.950 . S
H83 C105 0.948 . S
H84 C107 0.952 1_565 S
H85 C72 0.948 . S
H86 C74 0.952 . S
H87 C75 0.950 . S
N88 C91 1.382 . S
N88 C93 1.363 . S
N89 C91 1.371 . S
N89 C92 1.372 . S
N90 C92 1.361 . S
N90 C93 1.377 . S
C91 N88 1.382 . S
C91 N89 1.371 . S
C91 C94 1.480 . S
C92 N89 1.372 . S
C92 N90 1.361 . S
C92 C100 1.457 . S
C93 N88 1.363 . S
C93 N90 1.377 . S
C93 C106 1.479 . S
C94 C91 1.480 . S
C94 C95 1.383 . S
C94 C99 1.385 . S
C95 H76 0.947 . S
C95 C94 1.383 . S
C95 C96 1.386 1_545 S
C96 H77 0.952 . S
C96 C95 1.386 1_565 S
C96 C97 1.381 1_565 S
C97 C96 1.381 1_545 S
C97 C98 1.377 . S
C98 H78 0.953 . S
C98 C97 1.377 . S
C98 C99 1.369 . S
C99 H79 0.945 . S
C99 C94 1.385 . S
C99 C98 1.369 . S
C100 C92 1.457 . S
C100 C101 1.375 . S
C100 C105 1.364 . S
C101 H80 0.949 1_545 S
C101 C100 1.375 . S
C101 C102 1.386 1_545 S
C102 H81 0.956 . S
C102 C101 1.386 1_565 S
C102 C103 1.383 1_565 S
C103 C102 1.383 1_545 S
C103 C104 1.372 . S
C104 H82 0.950 . S
C104 C103 1.372 . S
C104 C105 1.379 . S
C105 H83 0.948 . S
C105 C100 1.364 . S
C105 C104 1.379 . S
C106 C75 1.383 . S
C106 C93 1.479 . S
C106 C107 1.397 . S
C107 C72 1.382 1_545 S
C107 H84 0.952 1_545 S
C107 C106 1.397 . S
C108 C109 1.384 . S
C108 H121 0.947 . S
C108 C143 1.382 . S
C109 C108 1.384 . S
C109 C110 1.378 . S
C110 C109 1.378 . S
C110 C111 1.378 . S
C110 H122 0.952 . S
C111 C110 1.378 . S
C111 H123 0.950 . S
C111 C142 1.383 . S
H112 C131 0.947 . S
H113 C132 0.946 . S
H114 C134 0.953 . S
H115 C135 0.945 . S
H116 C137 0.952 . S
H117 C138 0.949 . S
H118 C140 0.950 . S
H119 C141 0.948 . S
H120 C143 0.951 . S
H121 C108 0.947 . S
H122 C110 0.952 . S
H123 C111 0.950 . S
N124 C127 1.382 . S
N124 C129 1.363 . S
N125 C127 1.371 . S
N125 C128 1.372 . S
N126 C128 1.361 . S
N126 C129 1.377 . S
C127 N124 1.382 . S
C127 N125 1.371 . S
C127 C130 1.480 . S
C128 N125 1.372 . S
C128 N126 1.361 . S
C128 C136 1.457 . S
C129 N124 1.363 . S
C129 N126 1.377 . S
C129 C142 1.479 . S
C130 C127 1.480 . S
C130 C131 1.383 . S
C130 C135 1.385 . S
C131 H112 0.947 . S
C131 C130 1.383 . S
C131 C132 1.388 . S
C132 H113 0.946 . S
C132 C131 1.388 . S
C132 C133 1.384 . S
C133 C132 1.384 . S
C133 C134 1.377 . S
C134 H114 0.953 . S
C134 C133 1.377 . S
C134 C135 1.369 . S
C135 H115 0.945 . S
C135 C130 1.385 . S
C135 C134 1.369 . S
C136 C128 1.457 . S
C136 C137 1.372 . S
C136 C141 1.364 . S
C137 H116 0.952 . S
C137 C136 1.372 . S
C137 C138 1.389 . S
C138 H117 0.949 . S
C138 C137 1.389 . S
C138 C139 1.387 . S
C139 C138 1.387 . S
C139 C140 1.372 . S
C140 H118 0.950 . S
C140 C139 1.372 . S
C140 C141 1.379 . S
C141 H119 0.948 . S
C141 C136 1.364 . S
C141 C140 1.379 . S
C142 C111 1.383 . S
C142 C129 1.479 . S
C142 C143 1.398 . S
C143 C108 1.382 . S
C143 H120 0.951 . S
C143 C142 1.398 . S
C144 C145 1.384 . S
C144 H157 0.947 . S
C144 C179 1.382 . S
C145 C144 1.384 . S
C145 C146 1.378 . S
C146 C145 1.378 . S
C146 C147 1.378 . S
C146 H158 0.952 . S
C147 C146 1.378 . S
C147 H159 0.950 . S
C147 C178 1.383 . S
H148 C167 0.947 1_556 S
H149 C168 0.946 . S
H150 C170 0.953 . S
H151 C171 0.945 . S
H152 C173 0.952 . S
H153 C174 0.949 . S
H154 C176 0.950 . S
H155 C177 0.948 . S
H156 C179 0.951 . S
H157 C144 0.947 . S
H158 C146 0.952 . S
H159 C147 0.950 . S
N160 C163 1.382 1_556 S
N160 C165 1.363 . S
N161 C163 1.371 . S
N161 C164 1.372 . S
N162 C164 1.361 . S
N162 C165 1.377 1_554 S
C163 N160 1.382 1_554 S
C163 N161 1.371 . S
C163 C166 1.480 . S
C164 N161 1.372 . S
C164 N162 1.361 . S
C164 C172 1.457 . S
C165 N160 1.363 . S
C165 N162 1.377 1_556 S
C165 C178 1.479 . S
C166 C163 1.480 . S
C166 C167 1.383 . S
C166 C171 1.385 . S
C167 H148 0.947 1_554 S
C167 C166 1.383 . S
C167 C168 1.388 . S
C168 H149 0.946 . S
C168 C167 1.388 . S
C168 C169 1.384 . S
C169 C168 1.384 . S
C169 C170 1.377 . S
C170 H150 0.953 . S
C170 C169 1.377 . S
C170 C171 1.369 . S
C171 H151 0.945 . S
C171 C166 1.385 . S
C171 C170 1.369 . S
C172 C164 1.457 . S
C172 C173 1.372 . S
C172 C177 1.364 . S
C173 H152 0.952 . S
C173 C172 1.372 . S
C173 C174 1.389 . S
C174 H153 0.949 . S
C174 C173 1.389 . S
C174 C175 1.387 . S
C175 C174 1.387 . S
C175 C176 1.372 . S
C176 H154 0.950 . S
C176 C175 1.372 . S
C176 C177 1.379 . S
C177 H155 0.948 . S
C177 C172 1.364 . S
C177 C176 1.379 . S
C178 C147 1.383 . S
C178 C165 1.479 . S
C178 C179 1.398 . S
C179 C144 1.382 . S
C179 H156 0.951 . S
C179 C178 1.398 . S
C180 C181 1.384 . S
C180 H193 0.947 . S
C180 C215 1.382 . S
C181 C180 1.384 . S
C181 C182 1.378 . S
C182 C181 1.378 . S
C182 C183 1.378 . S
C182 H194 0.952 . S
C183 C182 1.378 . S
C183 H195 0.950 . S
C183 C214 1.383 . S
H184 C203 0.947 1_556 S
H185 C204 0.946 . S
H186 C206 0.953 . S
H187 C207 0.945 . S
H188 C209 0.952 . S
H189 C210 0.956 . S
H190 C212 0.950 . S
H191 C213 0.948 . S
H192 C215 0.951 . S
H193 C180 0.947 . S
H194 C182 0.952 . S
H195 C183 0.950 . S
N196 C199 1.382 1_556 S
N196 C201 1.363 . S
N197 C199 1.371 . S
N197 C200 1.372 . S
N198 C200 1.361 . S
N198 C201 1.377 1_554 S
C199 N196 1.382 1_554 S
C199 N197 1.371 . S
C199 C202 1.480 . S
C200 N197 1.372 . S
C200 N198 1.361 . S
C200 C208 1.457 . S
C201 N196 1.363 . S
C201 N198 1.377 1_556 S
C201 C214 1.479 . S
C202 C199 1.480 . S
C202 C203 1.383 . S
C202 C207 1.385 . S
C203 H184 0.947 1_554 S
C203 C202 1.383 . S
C203 C204 1.388 . S
C204 H185 0.946 . S
C204 C203 1.388 . S
C204 C205 1.384 . S
C205 C204 1.384 . S
C205 C206 1.377 . S
C206 H186 0.953 . S
C206 C205 1.377 . S
C206 C207 1.369 . S
C207 H187 0.945 . S
C207 C202 1.385 . S
C207 C206 1.369 . S
C208 C200 1.457 . S
C208 C209 1.372 . S
C208 C213 1.364 . S
C209 H188 0.952 . S
C209 C208 1.372 . S
C209 C210 1.389 . S
C210 H189 0.956 . S
C210 C209 1.389 . S
C210 C211 1.387 . S
C211 C210 1.387 . S
C211 C212 1.372 . S
C212 H190 0.950 . S
C212 C211 1.372 . S
C212 C213 1.379 . S
C213 H191 0.948 . S
C213 C208 1.364 . S
C213 C212 1.379 . S
C214 C183 1.383 . S
C214 C201 1.479 . S
C214 C215 1.398 . S
C215 C180 1.382 . S
C215 H192 0.951 . S
C215 C214 1.398 . S
C216 C217 1.384 . S
C216 H229 0.948 1_545 S
C216 C251 1.382 . S
C217 C216 1.384 . S
C217 C218 1.378 . S
C218 C217 1.378 . S
C218 C219 1.378 . S
C218 H230 0.952 . S
C219 C218 1.378 . S
C219 H231 0.950 . S
C219 C250 1.383 . S
H220 C239 0.947 1_556 S
H221 C240 0.948 . S
H222 C242 0.953 . S
H223 C243 0.945 . S
H224 C245 0.947 1_565 S
H225 C246 0.953 . S
H226 C248 0.950 . S
H227 C249 0.948 . S
H228 C251 0.950 1_565 S
H229 C216 0.948 1_565 S
H230 C218 0.952 . S
H231 C219 0.950 . S
N232 C235 1.382 1_556 S
N232 C237 1.363 . S
N233 C235 1.371 . S
N233 C236 1.372 . S
N234 C236 1.361 . S
N234 C237 1.377 1_554 S
C235 N232 1.382 1_554 S
C235 N233 1.371 . S
C235 C238 1.480 . S
C236 N233 1.372 . S
C236 N234 1.361 . S
C236 C244 1.457 . S
C237 N232 1.363 . S
C237 N234 1.377 1_556 S
C237 C250 1.479 . S
C238 C235 1.480 . S
C238 C239 1.383 . S
C238 C243 1.385 . S
C239 H220 0.947 1_554 S
C239 C238 1.383 . S
C239 C240 1.387 1_545 S
C240 H221 0.948 . S
C240 C239 1.387 1_565 S
C240 C241 1.383 1_565 S
C241 C240 1.383 1_545 S
C241 C242 1.377 . S
C242 H222 0.953 . S
C242 C241 1.377 . S
C242 C243 1.369 . S
C243 H223 0.945 . S
C243 C238 1.385 . S
C243 C242 1.369 . S
C244 C236 1.457 . S
C244 C245 1.379 . S
C244 C249 1.364 . S
C245 H224 0.947 1_545 S
C245 C244 1.379 . S
C245 C246 1.387 1_545 S
C246 H225 0.953 . S
C246 C245 1.387 1_565 S
C246 C247 1.384 1_565 S
C247 C246 1.384 1_545 S
C247 C248 1.372 . S
C248 H226 0.950 . S
C248 C247 1.372 . S
C248 C249 1.379 . S
C249 H227 0.948 . S
C249 C244 1.364 . S
C249 C248 1.379 . S
C250 C219 1.383 . S
C250 C237 1.479 . S
C250 C251 1.399 . S
C251 C216 1.382 . S
C251 H228 0.950 1_545 S
C251 C250 1.399 . S
C252 C253 1.384 . S
C252 H265 0.947 . S
C252 C287 1.382 . S
C253 C252 1.384 . S
C253 C254 1.378 . S
C254 C253 1.378 . S
C254 C255 1.378 . S
C254 H266 0.952 . S
C255 C254 1.378 . S
C255 H267 0.950 . S
C255 C286 1.383 . S
H256 C275 0.947 . S
H257 C276 0.946 . S
H258 C278 0.940 1_556 S
H259 C279 0.945 1_556 S
H260 C281 0.952 . S
H261 C282 0.949 . S
H262 C284 0.950 . S
H263 C285 0.948 . S
H264 C287 0.951 . S
H265 C252 0.947 . S
H266 C254 0.952 . S
H267 C255 0.950 . S
N268 C271 1.382 . S
N268 C273 1.363 . S
N269 C271 1.371 1_556 S
N269 C272 1.372 . S
N270 C272 1.361 1_554 S
N270 C273 1.377 . S
C271 N268 1.382 . S
C271 N269 1.371 1_554 S
C271 C274 1.480 . S
C272 N269 1.372 . S
C272 N270 1.361 1_556 S
C272 C280 1.457 . S
C273 N268 1.363 . S
C273 N270 1.377 . S
C273 C286 1.479 . S
C274 C271 1.480 . S
C274 C275 1.383 . S
C274 C279 1.385 . S
C275 H256 0.947 . S
C275 C274 1.383 . S
C275 C276 1.388 . S
C276 H257 0.946 . S
C276 C275 1.388 . S
C276 C277 1.384 . S
C277 C276 1.384 . S
C277 C278 1.377 . S
C278 H258 0.940 1_554 S
C278 C277 1.377 . S
C278 C279 1.369 . S
C279 H259 0.945 1_554 S
C279 C274 1.385 . S
C279 C278 1.369 . S
C280 C272 1.457 . S
C280 C281 1.372 . S
C280 C285 1.364 . S
C281 H260 0.952 . S
C281 C280 1.372 . S
C281 C282 1.389 . S
C282 H261 0.949 . S
C282 C281 1.389 . S
C282 C283 1.387 . S
C283 C282 1.387 . S
C283 C284 1.372 . S
C284 H262 0.950 . S
C284 C283 1.372 . S
C284 C285 1.379 . S
C285 H263 0.948 . S
C285 C280 1.364 . S
C285 C284 1.379 . S
C286 C255 1.383 . S
C286 C273 1.479 . S
C286 C287 1.398 . S
C287 C252 1.382 . S
C287 H264 0.951 . S
C287 C286 1.398 . S
Pr288 C290 2.880 . S
Pr288 O308 2.562 . S
Pr288 O309 2.490 . S
Pr288 O310 2.695 1_565 S
Pr288 O311 2.512 . S
Pr288 O313 2.437 . S
Pr288 O316 2.436 1_455 S
Pr288 O318 2.438 1_565 S
Pr289 C299 2.880 . S
Pr289 O310 2.436 1_655 S
Pr289 O312 2.438 1_545 S
Pr289 O314 2.562 . S
Pr289 O315 2.490 . S
Pr289 O316 2.695 1_545 S
Pr289 O317 2.512 . S
Pr289 O319 2.437 . S
C290 Pr288 2.880 . S
C290 C291 1.491 . S
C290 O308 1.254 . S
C290 O309 1.225 . S
C291 C290 1.491 . S
C291 C292 1.392 . S
C291 C296 1.356 . S
C292 C291 1.392 . S
C292 C293 1.368 . S
C292 H320 0.929 . S
C293 C292 1.368 . S
C293 C294 1.386 . S
C293 H321 0.929 . S
C294 C293 1.386 . S
C294 C295 1.373 . S
C295 C294 1.373 . S
C295 C296 1.409 . S
C295 H322 0.931 1_455 S
C296 C291 1.356 . S
C296 C295 1.409 . S
C296 H323 0.930 1_455 S
C297 O310 1.270 1_565 S
C297 O311 1.248 . S
C298 O312 1.267 . S
C298 O313 1.278 1_655 S
C299 Pr289 2.880 . S
C299 C300 1.491 . S
C299 O314 1.254 . S
C299 O315 1.225 . S
C300 C299 1.491 . S
C300 C301 1.392 . S
C300 C305 1.356 . S
C301 C300 1.392 . S
C301 C302 1.368 . S
C301 H324 0.929 . S
C302 C301 1.368 . S
C302 C303 1.386 . S
C302 H325 0.929 . S
C303 C302 1.386 . S
C303 C304 1.373 . S
C304 C303 1.373 . S
C304 C305 1.409 . S
C304 H326 0.931 1_655 S
C305 C300 1.356 . S
C305 C304 1.409 . S
C305 H327 0.930 1_655 S
C306 O316 1.270 1_545 S
C306 O317 1.248 . S
C307 O318 1.267 . S
C307 O319 1.278 1_455 S
O308 Pr288 2.562 . S
O308 C290 1.254 . S
O309 Pr288 2.490 . S
O309 C290 1.225 . S
O310 Pr288 2.695 1_545 S
O310 Pr289 2.436 1_455 S
O310 C297 1.270 1_545 S
O311 Pr288 2.512 . S
O311 C297 1.248 . S
O312 Pr289 2.438 1_565 S
O312 C298 1.267 . S
O313 Pr288 2.437 . S
O313 C298 1.278 1_455 S
O314 Pr289 2.562 . S
O314 C299 1.254 . S
O315 Pr289 2.490 . S
O315 C299 1.225 . S
O316 Pr288 2.436 1_655 S
O316 Pr289 2.695 1_565 S
O316 C306 1.270 1_565 S
O317 Pr289 2.512 . S
O317 C306 1.248 . S
O318 Pr288 2.438 1_545 S
O318 C307 1.267 . S
O319 Pr289 2.437 . S
O319 C307 1.278 1_655 S
H320 C292 0.929 . S
H321 C293 0.929 . S
H322 C295 0.931 1_655 S
H323 C296 0.930 1_655 S
H324 C301 0.929 . S
H325 C302 0.929 . S
H326 C304 0.931 1_455 S
H327 C305 0.930 1_455 S
Pr328 C330 2.880 . S
Pr328 O348 2.562 . S
Pr328 O349 2.490 . S
Pr328 O350 2.695 . S
Pr328 O351 2.512 . S
Pr328 O353 2.437 . S
Pr328 O356 2.436 1_545 S
Pr328 O358 2.438 . S
Pr329 C339 2.880 . S
Pr329 O350 2.436 1_565 S
Pr329 O352 2.438 . S
Pr329 O354 2.562 . S
Pr329 O355 2.490 . S
Pr329 O356 2.695 . S
Pr329 O357 2.512 . S
Pr329 O359 2.437 . S
C330 Pr328 2.880 . S
C330 C331 1.491 . S
C330 O348 1.254 . S
C330 O349 1.225 . S
C331 C330 1.491 . S
C331 C332 1.392 . S
C331 C336 1.356 . S
C332 C331 1.392 . S
C332 C333 1.368 . S
C332 H360 0.929 . S
C333 C332 1.368 . S
C333 C334 1.386 . S
C333 H361 0.929 . S
C334 C333 1.386 . S
C334 C335 1.373 . S
C335 C334 1.373 . S
C335 C336 1.409 . S
C335 H362 0.931 1_545 S
C336 C331 1.356 . S
C336 C335 1.409 . S
C336 H363 0.930 1_545 S
C337 O350 1.270 . S
C337 O351 1.248 . S
C338 O352 1.267 . S
C338 O353 1.278 1_565 S
C339 Pr329 2.880 . S
C339 C340 1.491 . S
C339 O354 1.254 . S
C339 O355 1.225 . S
C340 C339 1.491 . S
C340 C341 1.392 . S
C340 C345 1.356 . S
C341 C340 1.392 . S
C341 C342 1.368 . S
C341 H364 0.929 . S
C342 C341 1.368 . S
C342 C343 1.386 . S
C342 H365 0.929 . S
C343 C342 1.386 . S
C343 C344 1.373 . S
C344 C343 1.373 . S
C344 C345 1.409 . S
C344 H366 0.931 1_565 S
C345 C340 1.356 . S
C345 C344 1.409 . S
C345 H367 0.930 1_565 S
C346 O356 1.270 . S
C346 O357 1.248 . S
C347 O358 1.267 . S
C347 O359 1.278 1_545 S
O348 Pr328 2.562 . S
O348 C330 1.254 . S
O349 Pr328 2.490 . S
O349 C330 1.225 . S
O350 Pr328 2.695 . S
O350 Pr329 2.436 1_545 S
O350 C337 1.270 . S
O351 Pr328 2.512 . S
O351 C337 1.248 . S
O352 Pr329 2.438 . S
O352 C338 1.267 . S
O353 Pr328 2.437 . S
O353 C338 1.278 1_545 S
O354 Pr329 2.562 . S
O354 C339 1.254 . S
O355 Pr329 2.490 . S
O355 C339 1.225 . S
O356 Pr328 2.436 1_565 S
O356 Pr329 2.695 . S
O356 C346 1.270 . S
O357 Pr329 2.512 . S
O357 C346 1.248 . S
O358 Pr328 2.438 . S
O358 C347 1.267 . S
O359 Pr329 2.437 . S
O359 C347 1.278 1_565 S
H360 C332 0.929 . S
H361 C333 0.929 . S
H362 C335 0.931 1_565 S
H363 C336 0.930 1_565 S
H364 C341 0.929 . S
H365 C342 0.929 . S
H366 C344 0.931 1_545 S
H367 C345 0.930 1_545 S
Pr368 C370 2.880 . S
Pr368 O388 2.562 . S
Pr368 O389 2.490 . S
Pr368 O390 2.695 . S
Pr368 O391 2.512 . S
Pr368 O393 2.437 . S
Pr368 O396 2.436 . S
Pr368 O398 2.438 . S
Pr369 C379 2.880 . S
Pr369 O390 2.436 . S
Pr369 O392 2.438 . S
Pr369 O394 2.562 . S
Pr369 O395 2.490 . S
Pr369 O396 2.695 . S
Pr369 O397 2.512 . S
Pr369 O399 2.437 . S
C370 Pr368 2.880 . S
C370 C371 1.491 . S
C370 O388 1.254 . S
C370 O389 1.225 . S
C371 C370 1.491 . S
C371 C372 1.392 . S
C371 C376 1.356 . S
C372 C371 1.392 . S
C372 C373 1.368 . S
C372 H400 0.929 . S
C373 C372 1.368 . S
C373 C374 1.386 . S
C373 H401 0.929 . S
C374 C373 1.386 . S
C374 C375 1.373 . S
C375 C374 1.373 . S
C375 C376 1.409 . S
C375 H402 0.931 . S
C376 C371 1.356 . S
C376 C375 1.409 . S
C376 H403 0.930 . S
C377 O390 1.270 . S
C377 O391 1.248 . S
C378 O392 1.267 . S
C378 O393 1.278 . S
C379 Pr369 2.880 . S
C379 C380 1.491 . S
C379 O394 1.254 . S
C379 O395 1.225 . S
C380 C379 1.491 . S
C380 C381 1.392 . S
C380 C385 1.356 . S
C381 C380 1.392 . S
C381 C382 1.368 . S
C381 H404 0.929 . S
C382 C381 1.368 . S
C382 C383 1.386 . S
C382 H405 0.929 . S
C383 C382 1.386 . S
C383 C384 1.373 . S
C384 C383 1.373 . S
C384 C385 1.409 . S
C384 H406 0.931 . S
C385 C380 1.356 . S
C385 C384 1.409 . S
C385 H407 0.930 . S
C386 O396 1.270 . S
C386 O397 1.248 . S
C387 O398 1.267 . S
C387 O399 1.278 . S
O388 Pr368 2.562 . S
O388 C370 1.254 . S
O389 Pr368 2.490 . S
O389 C370 1.225 . S
O390 Pr368 2.695 . S
O390 Pr369 2.436 . S
O390 C377 1.270 . S
O391 Pr368 2.512 . S
O391 C377 1.248 . S
O392 Pr369 2.438 . S
O392 C378 1.267 . S
O393 Pr368 2.437 . S
O393 C378 1.278 . S
O394 Pr369 2.562 . S
O394 C379 1.254 . S
O395 Pr369 2.490 . S
O395 C379 1.225 . S
O396 Pr368 2.436 . S
O396 Pr369 2.695 . S
O396 C386 1.270 . S
O397 Pr369 2.512 . S
O397 C386 1.248 . S
O398 Pr368 2.438 . S
O398 C387 1.267 . S
O399 Pr369 2.437 . S
O399 C387 1.278 . S
H400 C372 0.929 . S
H401 C373 0.929 . S
H402 C375 0.931 . S
H403 C376 0.930 . S
H404 C381 0.929 . S
H405 C382 0.929 . S
H406 C384 0.931 . S
H407 C385 0.930 . S
Pr408 C410 2.880 . S
Pr408 O428 2.562 . S
Pr408 O429 2.490 . S
Pr408 O430 2.695 1_655 S
Pr408 O431 2.512 . S
Pr408 O433 2.437 . S
Pr408 O436 2.436 . S
Pr408 O438 2.438 1_655 S
Pr409 C419 2.880 . S
Pr409 O430 2.436 . S
Pr409 O432 2.438 1_455 S
Pr409 O434 2.562 . S
Pr409 O435 2.490 . S
Pr409 O436 2.695 1_455 S
Pr409 O437 2.512 . S
Pr409 O439 2.437 . S
C410 Pr408 2.880 . S
C410 C411 1.491 . S
C410 O428 1.254 . S
C410 O429 1.225 . S
C411 C410 1.491 . S
C411 C412 1.392 . S
C411 C416 1.356 . S
C412 C411 1.392 . S
C412 C413 1.368 . S
C412 H440 0.929 . S
C413 C412 1.368 . S
C413 C414 1.386 . S
C413 H441 0.929 . S
C414 C413 1.386 . S
C414 C415 1.373 . S
C415 C414 1.373 . S
C415 C416 1.409 . S
C415 H442 0.931 . S
C416 C411 1.356 . S
C416 C415 1.409 . S
C416 H443 0.930 . S
C417 O430 1.261 1_655 S
C417 O431 1.264 . S
C418 O432 1.267 . S
C418 O433 1.278 . S
C419 Pr409 2.880 . S
C419 C420 1.491 . S
C419 O434 1.254 . S
C419 O435 1.225 . S
C420 C419 1.491 . S
C420 C421 1.392 . S
C420 C425 1.356 . S
C421 C420 1.392 . S
C421 C422 1.368 . S
C421 H444 0.929 . S
C422 C421 1.368 . S
C422 C423 1.386 . S
C422 H445 0.929 . S
C423 C422 1.386 . S
C423 C424 1.373 . S
C424 C423 1.373 . S
C424 C425 1.409 . S
C424 H446 0.931 . S
C425 C420 1.356 . S
C425 C424 1.409 . S
C425 H447 0.930 . S
C426 O436 1.257 1_455 S
C426 O437 1.272 . S
C427 O438 1.267 . S
C427 O439 1.278 . S
O428 Pr408 2.562 . S
O428 C410 1.254 . S
O429 Pr408 2.490 . S
O429 C410 1.225 . S
O430 Pr408 2.695 1_455 S
O430 Pr409 2.436 . S
O430 C417 1.261 1_455 S
O431 Pr408 2.512 . S
O431 C417 1.264 . S
O432 Pr409 2.438 1_655 S
O432 C418 1.267 . S
O433 Pr408 2.437 . S
O433 C418 1.278 . S
O434 Pr409 2.562 . S
O434 C419 1.254 . S
O435 Pr409 2.490 . S
O435 C419 1.225 . S
O436 Pr408 2.436 . S
O436 Pr409 2.695 1_655 S
O436 C426 1.257 1_655 S
O437 Pr409 2.512 . S
O437 C426 1.272 . S
O438 Pr408 2.438 1_455 S
O438 C427 1.267 . S
O439 Pr409 2.437 . S
O439 C427 1.278 . S
H440 C412 0.929 . S
H441 C413 0.929 . S
H442 C415 0.931 . S
H443 C416 0.930 . S
H444 C421 0.929 . S
H445 C422 0.929 . S
H446 C424 0.931 . S
H447 C425 0.930 . S
H448 C456 0.929 . S
H449 C458 0.930 . S
H450 C460 0.930 . S
H451 C463 0.929 . S
H452 C466 0.930 . S
H453 C468 0.960 . S
H454 C468 0.960 . S
H455 C468 0.960 . S
C456 H448 0.929 . S
C456 C457 1.389 . S
C456 C458 1.384 . S
C457 C456 1.389 . S
C457 C463 1.378 1_545 S
C458 H449 0.930 . S
C458 C456 1.384 . S
C458 C459 1.372 . S
C459 C458 1.372 . S
C459 C460 1.400 1_545 S
C459 C464 1.490 . S
C460 H450 0.930 . S
C460 C459 1.400 1_565 S
C460 C463 1.386 . S
H461 C477 0.930 . S
H462 C478 0.931 . S
C463 H451 0.929 . S
C463 C457 1.378 1_565 S
C463 C460 1.386 . S
C464 C459 1.490 . S
C464 C466 1.395 . S
C464 C467 1.403 1_545 S
H465 C471 0.930 . S
C466 H452 0.930 . S
C466 C464 1.395 . S
C466 C469 1.403 . S
C467 C464 1.403 1_565 S
C467 C468 1.524 . S
C467 C471 1.400 . S
C468 H453 0.960 . S
C468 H454 0.960 . S
C468 H455 0.960 . S
C468 C467 1.524 . S
C469 C466 1.403 . S
C469 C470 1.392 . S
C469 C473 1.495 . S
C470 C469 1.392 . S
C470 C471 1.385 1_545 S
C470 C472 1.478 . S
C471 H465 0.930 . S
C471 C467 1.400 . S
C471 C470 1.385 1_565 S
C472 C470 1.478 . S
C472 C474 1.381 . S
C472 C478 1.383 1_545 S
C473 C469 1.495 . S
C473 H479 0.959 . S
C473 H480 0.961 . S
C473 H481 0.960 . S
C474 C472 1.381 . S
C474 C475 1.394 . S
C474 H482 0.930 . S
C475 C474 1.394 . S
C475 C476 1.383 . S
C475 H483 0.929 . S
C476 C475 1.383 . S
C476 C477 1.377 1_545 S
C477 H461 0.930 . S
C477 C476 1.377 1_565 S
C477 C478 1.379 . S
C478 H462 0.931 . S
C478 C472 1.383 1_565 S
C478 C477 1.379 . S
H479 C473 0.959 . S
H480 C473 0.961 . S
H481 C473 0.960 . S
H482 C474 0.930 . S
H483 C475 0.929 . S
H484 C492 0.929 . S
H485 C494 0.930 . S
H486 C496 0.930 . S
H487 C499 0.929 . S
H488 C502 0.930 . S
H489 C504 0.960 . S
H490 C504 0.960 . S
H491 C504 0.960 . S
C492 H484 0.929 . S
C492 C493 1.377 . S
C492 C494 1.384 . S
C493 C492 1.377 . S
C493 C499 1.390 . S
C494 H485 0.930 . S
C494 C492 1.384 . S
C494 C495 1.372 . S
C495 C494 1.372 . S
C495 C496 1.400 . S
C495 C500 1.490 . S
C496 H486 0.930 . S
C496 C495 1.400 . S
C496 C499 1.386 . S
H497 C513 0.930 . S
H498 C514 0.931 . S
C499 H487 0.929 . S
C499 C493 1.390 . S
C499 C496 1.386 . S
C500 C495 1.490 . S
C500 C502 1.395 . S
C500 C503 1.403 . S
H501 C507 0.930 . S
C502 H488 0.930 . S
C502 C500 1.395 . S
C502 C505 1.403 . S
C503 C500 1.403 . S
C503 C504 1.524 . S
C503 C507 1.400 . S
C504 H489 0.960 . S
C504 H490 0.960 . S
C504 H491 0.960 . S
C504 C503 1.524 . S
C505 C502 1.403 . S
C505 C506 1.392 . S
C505 C509 1.495 . S
C506 C505 1.392 . S
C506 C507 1.385 . S
C506 C508 1.478 . S
C507 H501 0.930 . S
C507 C503 1.400 . S
C507 C506 1.385 . S
C508 C506 1.478 . S
C508 C510 1.381 . S
C508 C514 1.383 . S
C509 C505 1.495 . S
C509 H515 0.959 . S
C509 H516 0.961 . S
C509 H517 0.960 . S
C510 C508 1.381 . S
C510 C511 1.394 . S
C510 H518 0.930 . S
C511 C510 1.394 . S
C511 C512 1.383 . S
C511 H519 0.929 . S
C512 C511 1.383 . S
C512 C513 1.377 . S
C513 H497 0.930 . S
C513 C512 1.377 . S
C513 C514 1.379 . S
C514 H498 0.931 . S
C514 C508 1.383 . S
C514 C513 1.379 . S
H515 C509 0.959 . S
H516 C509 0.961 . S
H517 C509 0.960 . S
H518 C510 0.930 . S
H519 C511 0.929 . S
H520 C528 0.929 . S
H521 C530 0.930 . S
H522 C532 0.930 . S
H523 C535 0.929 . S
H524 C538 0.930 . S
H525 C540 0.960 . S
H526 C540 0.960 . S
H527 C540 0.960 . S
C528 H520 0.929 . S
C528 C529 1.377 . S
C528 C530 1.384 . S
C529 C528 1.377 . S
C529 C535 1.390 . S
C530 H521 0.930 . S
C530 C528 1.384 . S
C530 C531 1.372 . S
C531 C530 1.372 . S
C531 C532 1.400 . S
C531 C536 1.490 . S
C532 H522 0.930 . S
C532 C531 1.400 . S
C532 C535 1.386 . S
H533 C549 0.930 . S
H534 C550 0.931 . S
C535 H523 0.929 . S
C535 C529 1.390 . S
C535 C532 1.386 . S
C536 C531 1.490 . S
C536 C538 1.395 . S
C536 C539 1.403 . S
H537 C543 0.930 . S
C538 H524 0.930 . S
C538 C536 1.395 . S
C538 C541 1.403 . S
C539 C536 1.403 . S
C539 C540 1.524 . S
C539 C543 1.400 . S
C540 H525 0.960 . S
C540 H526 0.960 . S
C540 H527 0.960 . S
C540 C539 1.524 . S
C541 C538 1.403 . S
C541 C542 1.392 . S
C541 C545 1.495 . S
C542 C541 1.392 . S
C542 C543 1.385 . S
C542 C544 1.478 . S
C543 H537 0.930 . S
C543 C539 1.400 . S
C543 C542 1.385 . S
C544 C542 1.478 . S
C544 C546 1.381 . S
C544 C550 1.383 . S
C545 C541 1.495 . S
C545 H551 0.959 . S
C545 H552 0.961 . S
C545 H553 0.960 . S
C546 C544 1.381 . S
C546 C547 1.394 . S
C546 H554 0.930 . S
C547 C546 1.394 . S
C547 C548 1.383 . S
C547 H555 0.929 . S
C548 C547 1.383 . S
C548 C549 1.377 . S
C549 H533 0.930 . S
C549 C548 1.377 . S
C549 C550 1.379 . S
C550 H534 0.931 . S
C550 C544 1.383 . S
C550 C549 1.379 . S
H551 C545 0.959 . S
H552 C545 0.961 . S
H553 C545 0.960 . S
H554 C546 0.930 . S
H555 C547 0.929 . S
H556 C564 0.929 . S
H557 C566 0.930 . S
H558 C568 0.930 . S
H559 C571 0.929 . S
H560 C574 0.930 . S
H561 C576 0.960 . S
H562 C576 0.960 . S
H563 C576 0.960 . S
C564 H556 0.929 . S
C564 C565 1.377 1_655 S
C564 C566 1.384 . S
C565 C564 1.377 1_455 S
C565 C571 1.390 . S
C566 H557 0.930 . S
C566 C564 1.384 . S
C566 C567 1.372 1_655 S
C567 C566 1.372 1_455 S
C567 C568 1.400 . S
C567 C572 1.490 . S
C568 H558 0.930 . S
C568 C567 1.400 . S
C568 C571 1.386 . S
H569 C585 0.930 . S
H570 C586 0.931 . S
C571 H559 0.929 . S
C571 C565 1.390 . S
C571 C568 1.386 . S
C572 C567 1.490 . S
C572 C574 1.395 1_455 S
C572 C575 1.403 . S
H573 C579 0.930 . S
C574 H560 0.930 . S
C574 C572 1.395 1_655 S
C574 C577 1.403 . S
C575 C572 1.403 . S
C575 C576 1.524 . S
C575 C579 1.400 . S
C576 H561 0.960 . S
C576 H562 0.960 . S
C576 H563 0.960 . S
C576 C575 1.524 . S
C577 C574 1.403 . S
C577 C578 1.383 1_655 S
C577 C581 1.495 . S
C578 C577 1.383 1_455 S
C578 C579 1.396 . S
C578 C580 1.477 . S
C579 H573 0.930 . S
C579 C575 1.400 . S
C579 C578 1.396 . S
C580 C578 1.477 . S
C580 C582 1.335 1_455 S
C580 C586 1.430 . S
C581 C577 1.495 . S
C581 H587 0.959 . S
C581 H588 1.007 . S
C581 H589 0.960 . S
C582 C580 1.335 1_655 S
C582 C583 1.394 . S
C582 H590 0.930 . S
C583 C582 1.394 . S
C583 C584 1.383 1_655 S
C583 H591 0.929 . S
C584 C583 1.383 1_455 S
C584 C585 1.377 . S
C585 H569 0.930 . S
C585 C584 1.377 . S
C585 C586 1.379 . S
C586 H570 0.931 . S
C586 C580 1.430 . S
C586 C585 1.379 . S
H587 C581 0.959 . S
H588 C581 1.007 . S
H589 C581 0.960 . S
H590 C582 0.930 . S
H591 C583 0.929 . S
H592 C600 0.932 . S
H593 C602 0.930 . S
H594 C604 0.930 . S
H595 C607 0.929 . S
H596 C610 0.930 . S
H597 C612 0.960 . S
H598 C612 0.960 1_554 S
H599 C612 0.960 . S
C600 H592 0.932 . S
C600 C601 1.377 . S
C600 C602 1.384 . S
C601 C600 1.377 . S
C601 C607 1.390 1_545 S
C602 H593 0.930 . S
C602 C600 1.384 . S
C602 C603 1.372 . S
C603 C602 1.372 . S
C603 C604 1.400 . S
C603 C608 1.489 1_545 S
C604 H594 0.930 . S
C604 C603 1.400 . S
C604 C607 1.386 1_545 S
H605 C621 0.930 . S
H606 C622 0.931 . S
C607 H595 0.929 . S
C607 C601 1.390 1_565 S
C607 C604 1.386 1_565 S
C608 C603 1.489 1_565 S
C608 C610 1.426 . S
C608 C611 1.374 1_564 S
H609 C615 0.930 . S
C610 H596 0.930 . S
C610 C608 1.426 . S
C610 C613 1.403 1_554 S
C611 C608 1.374 1_546 S
C611 C612 1.524 . S
C611 C615 1.400 . S
C612 H597 0.960 . S
C612 H598 0.960 1_556 S
C612 H599 0.960 . S
C612 C611 1.524 . S
C613 C610 1.403 1_556 S
C613 C614 1.392 . S
C613 C617 1.495 . S
C614 C613 1.392 . S
C614 C615 1.385 1_565 S
C614 C616 1.478 . S
C615 H609 0.930 . S
C615 C611 1.400 . S
C615 C614 1.385 1_545 S
C616 C614 1.478 . S
C616 C618 1.381 . S
C616 C622 1.383 . S
C617 C613 1.495 . S
C617 H623 0.959 1_556 S
C617 H624 0.961 . S
C617 H625 0.960 . S
C618 C616 1.381 . S
C618 C619 1.395 . S
C618 H626 0.932 . S
C619 C618 1.395 . S
C619 C620 1.385 . S
C619 H627 0.927 1_565 S
C620 C619 1.385 . S
C620 C621 1.377 . S
C621 H605 0.930 . S
C621 C620 1.377 . S
C621 C622 1.379 . S
C622 H606 0.931 . S
C622 C616 1.383 . S
C622 C621 1.379 . S
H623 C617 0.959 1_554 S
H624 C617 0.961 . S
H625 C617 0.960 . S
H626 C618 0.932 . S
H627 C619 0.927 1_545 S
H628 C636 0.929 . S
H629 C638 0.930 . S
H630 C640 0.930 . S
H631 C643 0.929 . S
H632 C646 0.930 . S
H633 C648 0.960 . S
H634 C648 0.960 . S
H635 C648 0.960 . S
C636 H628 0.929 . S
C636 C637 1.377 . S
C636 C638 1.384 . S
C637 C636 1.377 . S
C637 C643 1.390 . S
C638 H629 0.930 . S
C638 C636 1.384 . S
C638 C639 1.372 . S
C639 C638 1.372 . S
C639 C640 1.400 . S
C639 C644 1.490 . S
C640 H630 0.930 . S
C640 C639 1.400 . S
C640 C643 1.386 . S
H641 C657 0.930 . S
H642 C658 0.931 . S
C643 H631 0.929 . S
C643 C637 1.390 . S
C643 C640 1.386 . S
C644 C639 1.490 . S
C644 C646 1.395 . S
C644 C647 1.403 . S
H645 C651 0.930 . S
C646 H632 0.930 . S
C646 C644 1.395 . S
C646 C649 1.403 1_554 S
C647 C644 1.403 . S
C647 C648 1.524 . S
C647 C651 1.400 1_554 S
C648 H633 0.960 . S
C648 H634 0.960 . S
C648 H635 0.960 . S
C648 C647 1.524 . S
C649 C646 1.403 1_556 S
C649 C650 1.392 . S
C649 C653 1.495 . S
C650 C649 1.392 . S
C650 C651 1.385 . S
C650 C652 1.478 . S
C651 H645 0.930 . S
C651 C647 1.400 1_556 S
C651 C650 1.385 . S
C652 C650 1.478 . S
C652 C654 1.381 . S
C652 C658 1.383 . S
C653 C649 1.495 . S
C653 H659 0.959 . S
C653 H660 0.961 . S
C653 H661 0.960 . S
C654 C652 1.381 . S
C654 C655 1.394 . S
C654 H662 0.930 . S
C655 C654 1.394 . S
C655 C656 1.383 . S
C655 H663 0.929 . S
C656 C655 1.383 . S
C656 C657 1.377 . S
C657 H641 0.930 . S
C657 C656 1.377 . S
C657 C658 1.379 . S
C658 H642 0.931 . S
C658 C652 1.383 . S
C658 C657 1.379 . S
H659 C653 0.959 . S
H660 C653 0.961 . S
H661 C653 0.960 . S
H662 C654 0.930 . S
H663 C655 0.929 . S
H664 C672 0.929 . S
H665 C674 0.930 . S
H666 C676 0.930 . S
H667 C679 0.929 . S
H668 C682 0.930 . S
H669 C684 0.960 . S
H670 C684 0.960 . S
H671 C684 0.960 . S
C672 H664 0.929 . S
C672 C673 1.377 . S
C672 C674 1.384 . S
C673 C672 1.377 . S
C673 C679 1.390 . S
C674 H665 0.930 . S
C674 C672 1.384 . S
C674 C675 1.372 . S
C675 C674 1.372 . S
C675 C676 1.400 . S
C675 C680 1.490 . S
C676 H666 0.930 . S
C676 C675 1.400 . S
C676 C679 1.386 . S
H677 C693 0.930 . S
H678 C694 0.931 . S
C679 H667 0.929 . S
C679 C673 1.390 . S
C679 C676 1.386 . S
C680 C675 1.490 . S
C680 C682 1.395 1_554 S
C680 C683 1.403 . S
H681 C687 0.930 . S
C682 H668 0.930 . S
C682 C680 1.395 1_556 S
C682 C685 1.403 . S
C683 C680 1.403 . S
C683 C684 1.524 . S
C683 C687 1.400 1_554 S
C684 H669 0.960 . S
C684 H670 0.960 . S
C684 H671 0.960 . S
C684 C683 1.524 . S
C685 C682 1.403 . S
C685 C686 1.392 . S
C685 C689 1.495 . S
C686 C685 1.392 . S
C686 C687 1.385 . S
C686 C688 1.478 . S
C687 H681 0.930 . S
C687 C683 1.400 1_556 S
C687 C686 1.385 . S
C688 C686 1.478 . S
C688 C690 1.381 . S
C688 C694 1.383 . S
C689 C685 1.495 . S
C689 H695 0.959 . S
C689 H696 0.961 . S
C689 H697 0.960 . S
C690 C688 1.381 . S
C690 C691 1.394 . S
C690 H698 0.930 . S
C691 C690 1.394 . S
C691 C692 1.383 . S
C691 H699 0.929 . S
C692 C691 1.383 . S
C692 C693 1.377 . S
C693 H677 0.930 . S
C693 C692 1.377 . S
C693 C694 1.379 . S
C694 H678 0.931 . S
C694 C688 1.383 . S
C694 C693 1.379 . S
H695 C689 0.959 . S
H696 C689 0.961 . S
H697 C689 0.960 . S
H698 C690 0.930 . S
H699 C691 0.929 . S
H700 C708 0.929 . S
H701 C710 0.930 . S
H702 C712 0.930 . S
H703 C715 0.929 . S
H704 C718 0.930 . S
H705 C720 0.960 . S
H706 C720 0.960 . S
H707 C720 0.960 . S
C708 H700 0.929 . S
C708 C709 1.377 . S
C708 C710 1.384 . S
C709 C708 1.377 . S
C709 C715 1.390 1_655 S
C710 H701 0.930 . S
C710 C708 1.384 . S
C710 C711 1.372 . S
C711 C710 1.372 . S
C711 C712 1.400 1_655 S
C711 C716 1.490 . S
C712 H702 0.930 . S
C712 C711 1.400 1_455 S
C712 C715 1.386 . S
H713 C729 0.930 . S
H714 C730 0.931 . S
C715 H703 0.929 . S
C715 C709 1.390 1_455 S
C715 C712 1.386 . S
C716 C711 1.490 . S
C716 C718 1.395 1_654 S
C716 C719 1.403 . S
H717 C723 0.930 . S
C718 H704 0.930 . S
C718 C716 1.395 1_456 S
C718 C721 1.403 . S
C719 C716 1.403 . S
C719 C720 1.524 . S
C719 C723 1.400 1_554 S
C720 H705 0.960 . S
C720 H706 0.960 . S
C720 H707 0.960 . S
C720 C719 1.524 . S
C721 C718 1.403 . S
C721 C722 1.396 1_455 S
C721 C725 1.495 . S
C722 C721 1.396 1_655 S
C722 C723 1.381 . S
C722 C724 1.477 1_655 S
C723 H717 0.930 . S
C723 C719 1.400 1_556 S
C723 C722 1.381 . S
C724 C722 1.477 1_455 S
C724 C726 1.369 1_455 S
C724 C730 1.394 . S
C725 C721 1.495 . S
C725 H731 0.959 . S
C725 H732 0.961 . S
C725 H733 0.960 . S
C726 C724 1.369 1_655 S
C726 C727 1.394 . S
C726 H734 0.930 . S
C727 C726 1.394 . S
C727 C728 1.396 . S
C727 H735 0.929 . S
C728 C727 1.396 . S
C728 C729 1.364 1_655 S
C729 H713 0.930 . S
C729 C728 1.364 1_455 S
C729 C730 1.379 . S
C730 H714 0.931 . S
C730 C724 1.394 . S
C730 C729 1.379 . S
H731 C725 0.959 . S
H732 C725 0.961 . S
H733 C725 0.960 . S
H734 C726 0.930 . S
H735 C727 0.929 . S
H736 C744 0.929 . S
H737 C746 0.934 . S
H738 C748 0.933 . S
H739 C751 0.929 . S
H740 C754 0.930 . S
H741 C756 0.960 . S
H742 C756 0.960 . S
H743 C756 0.960 . S
C744 H736 0.929 . S
C744 C745 1.377 . S
C744 C746 1.378 1_455 S
C745 C744 1.377 . S
C745 C751 1.390 . S
C746 H737 0.934 . S
C746 C744 1.378 1_655 S
C746 C747 1.376 . S
C747 C746 1.376 . S
C747 C748 1.403 . S
C747 C752 1.490 . S
C748 H738 0.933 . S
C748 C747 1.403 . S
C748 C751 1.380 1_655 S
H749 C765 0.930 . S
H750 C766 0.931 . S
C751 H739 0.929 . S
C751 C745 1.390 . S
C751 C748 1.380 1_455 S
C752 C747 1.490 . S
C752 C754 1.395 . S
C752 C755 1.403 1_655 S
H753 C759 0.930 1_455 S
C754 H740 0.930 . S
C754 C752 1.395 . S
C754 C757 1.403 . S
C755 C752 1.403 1_455 S
C755 C756 1.524 . S
C755 C759 1.400 1_455 S
C756 H741 0.960 . S
C756 H742 0.960 . S
C756 H743 0.960 . S
C756 C755 1.524 . S
C757 C754 1.403 . S
C757 C758 1.392 . S
C757 C761 1.495 . S
C758 C757 1.392 . S
C758 C759 1.385 . S
C758 C760 1.478 . S
C759 H753 0.930 1_655 S
C759 C755 1.400 1_655 S
C759 C758 1.385 . S
C760 C758 1.478 . S
C760 C762 1.381 . S
C760 C766 1.383 . S
C761 C757 1.495 . S
C761 H767 0.959 . S
C761 H768 0.961 . S
C761 H769 0.960 . S
C762 C760 1.381 . S
C762 C763 1.394 . S
C762 H770 0.930 . S
C763 C762 1.394 . S
C763 C764 1.383 . S
C763 H771 0.929 . S
C764 C763 1.383 . S
C764 C765 1.377 . S
C765 H749 0.930 . S
C765 C764 1.377 . S
C765 C766 1.379 . S
C766 H750 0.931 . S
C766 C760 1.383 . S
C766 C765 1.379 . S
H767 C761 0.959 . S
H768 C761 0.961 . S
H769 C761 0.960 . S
H770 C762 0.930 . S
H771 C763 0.929 . S
H772 C780 0.929 . S
H773 C782 0.930 . S
H774 C784 0.930 . S
H775 C787 0.929 . S
H776 C790 0.930 . S
H777 C792 0.960 . S
H778 C792 0.979 . S
H779 C792 0.948 1_565 S
C780 H772 0.929 . S
C780 C781 1.377 . S
C780 C782 1.384 . S
C781 C780 1.377 . S
C781 C787 1.390 1_545 S
C782 H773 0.930 . S
C782 C780 1.384 . S
C782 C783 1.372 1_545 S
C783 C782 1.372 1_565 S
C783 C784 1.400 . S
C783 C788 1.490 . S
C784 H774 0.930 . S
C784 C783 1.400 . S
C784 C787 1.386 . S
H785 C801 0.930 . S
H786 C802 0.931 . S
C787 H775 0.929 . S
C787 C781 1.390 1_565 S
C787 C784 1.386 . S
C788 C783 1.490 . S
C788 C790 1.395 . S
C788 C791 1.403 . S
H789 C795 0.930 . S
C790 H776 0.930 . S
C790 C788 1.395 . S
C790 C793 1.403 . S
C791 C788 1.403 . S
C791 C792 1.517 1_565 S
C791 C795 1.400 . S
C792 H777 0.960 . S
C792 H778 0.979 . S
C792 H779 0.948 1_545 S
C792 C791 1.517 1_545 S
C793 C790 1.403 . S
C793 C794 1.392 . S
C793 C797 1.495 . S
C794 C793 1.392 . S
C794 C795 1.385 . S
C794 C796 1.478 . S
C795 H789 0.930 . S
C795 C791 1.400 . S
C795 C794 1.385 . S
C796 C794 1.478 . S
C796 C798 1.381 . S
C796 C802 1.383 . S
C797 C793 1.495 . S
C797 H803 0.959 . S
C797 H804 0.961 . S
C797 H805 0.960 . S
C798 C796 1.381 . S
C798 C799 1.394 . S
C798 H806 0.930 . S
C799 C798 1.394 . S
C799 C800 1.383 . S
C799 H807 0.929 . S
C800 C799 1.383 . S
C800 C801 1.377 . S
C801 H785 0.930 . S
C801 C800 1.377 . S
C801 C802 1.379 . S
C802 H786 0.931 . S
C802 C796 1.383 . S
C802 C801 1.379 . S
H803 C797 0.959 . S
H804 C797 0.961 . S
H805 C797 0.960 . S
H806 C798 0.930 . S
H807 C799 0.929 . S
H808 C816 0.929 . S
H809 C818 0.930 . S
H810 C820 0.930 . S
H811 C823 0.929 . S
H812 C826 0.930 . S
H813 C828 0.960 . S
H814 C828 0.960 . S
H815 C828 0.960 . S
C816 H808 0.929 . S
C816 C817 1.377 . S
C816 C818 1.384 . S
C817 C816 1.377 . S
C817 C823 1.390 . S
C818 H809 0.930 . S
C818 C816 1.384 . S
C818 C819 1.372 . S
C819 C818 1.372 . S
C819 C820 1.400 . S
C819 C824 1.490 . S
C820 H810 0.930 . S
C820 C819 1.400 . S
C820 C823 1.386 . S
H821 C837 0.930 . S
H822 C838 0.931 . S
C823 H811 0.929 . S
C823 C817 1.390 . S
C823 C820 1.386 . S
C824 C819 1.490 . S
C824 C826 1.395 . S
C824 C827 1.403 . S
H825 C831 0.930 . S
C826 H812 0.930 . S
C826 C824 1.395 . S
C826 C829 1.403 . S
C827 C824 1.403 . S
C827 C828 1.524 . S
C827 C831 1.400 . S
C828 H813 0.960 . S
C828 H814 0.960 . S
C828 H815 0.960 . S
C828 C827 1.524 . S
C829 C826 1.403 . S
C829 C830 1.392 . S
C829 C833 1.495 . S
C830 C829 1.392 . S
C830 C831 1.385 . S
C830 C832 1.478 . S
C831 H825 0.930 . S
C831 C827 1.400 . S
C831 C830 1.385 . S
C832 C830 1.478 . S
C832 C834 1.381 . S
C832 C838 1.383 . S
C833 C829 1.495 . S
C833 H839 0.959 . S
C833 H840 0.961 . S
C833 H841 0.960 . S
C834 C832 1.381 . S
C834 C835 1.394 . S
C834 H842 0.930 . S
C835 C834 1.394 . S
C835 C836 1.383 . S
C835 H843 0.929 . S
C836 C835 1.383 . S
C836 C837 1.377 . S
C837 H821 0.930 . S
C837 C836 1.377 . S
C837 C838 1.379 . S
C838 H822 0.931 . S
C838 C832 1.383 . S
C838 C837 1.379 . S
H839 C833 0.959 . S
H840 C833 0.961 . S
H841 C833 0.960 . S
H842 C834 0.930 . S
H843 C835 0.929 . S
H844 C852 0.929 . S
H845 C854 0.930 . S
H846 C856 0.930 . S
H847 C859 0.929 . S
H848 C862 0.930 . S
H849 C864 0.960 . S
H850 C864 0.960 . S
H851 C864 0.960 . S
C852 H844 0.929 . S
C852 C853 1.377 . S
C852 C854 1.384 . S
C853 C852 1.377 . S
C853 C859 1.390 . S
C854 H845 0.930 . S
C854 C852 1.384 . S
C854 C855 1.372 . S
C855 C854 1.372 . S
C855 C856 1.400 . S
C855 C860 1.490 . S
C856 H846 0.930 . S
C856 C855 1.400 . S
C856 C859 1.386 . S
H857 C873 0.930 . S
H858 C874 0.931 . S
C859 H847 0.929 . S
C859 C853 1.390 . S
C859 C856 1.386 . S
C860 C855 1.490 . S
C860 C862 1.395 . S
C860 C863 1.403 . S
H861 C867 0.930 . S
C862 H848 0.930 . S
C862 C860 1.395 . S
C862 C865 1.403 . S
C863 C860 1.403 . S
C863 C864 1.524 . S
C863 C867 1.400 . S
C864 H849 0.960 . S
C864 H850 0.960 . S
C864 H851 0.960 . S
C864 C863 1.524 . S
C865 C862 1.403 . S
C865 C866 1.392 . S
C865 C869 1.495 . S
C866 C865 1.392 . S
C866 C867 1.385 . S
C866 C868 1.478 . S
C867 H861 0.930 . S
C867 C863 1.400 . S
C867 C866 1.385 . S
C868 C866 1.478 . S
C868 C870 1.381 . S
C868 C874 1.383 . S
C869 C865 1.495 . S
C869 H875 0.959 . S
C869 H876 0.961 . S
C869 H877 0.960 . S
C870 C868 1.381 . S
C870 C871 1.394 . S
C870 H878 0.930 . S
C871 C870 1.394 . S
C871 C872 1.383 . S
C871 H879 0.929 . S
C872 C871 1.383 . S
C872 C873 1.377 . S
C873 H857 0.930 . S
C873 C872 1.377 . S
C873 C874 1.379 . S
C874 H858 0.931 . S
C874 C868 1.383 . S
C874 C873 1.379 . S
H875 C869 0.959 . S
H876 C869 0.961 . S
H877 C869 0.960 . S
H878 C870 0.930 . S
H879 C871 0.929 . S
H880 C888 0.929 . S
H881 C890 0.930 1_556 S
H882 C892 0.930 . S
H883 C895 0.929 . S
H884 C898 0.930 1_554 S
H885 C900 0.960 1_556 S
H886 C900 0.960 1_556 S
H887 C900 0.960 . S
C888 H880 0.929 . S
C888 C889 1.377 . S
C888 C890 1.384 . S
C889 C888 1.377 . S
C889 C895 1.390 1_655 S
C890 H881 0.930 1_554 S
C890 C888 1.384 . S
C890 C891 1.372 1_655 S
C891 C890 1.372 1_455 S
C891 C892 1.400 . S
C891 C896 1.490 . S
C892 H882 0.930 . S
C892 C891 1.400 . S
C892 C895 1.386 . S
H893 C909 0.930 . S
H894 C910 0.931 . S
C895 H883 0.929 . S
C895 C889 1.390 1_455 S
C895 C892 1.386 . S
C896 C891 1.490 . S
C896 C898 1.395 1_454 S
C896 C899 1.403 1_554 S
H897 C903 0.930 . S
C898 H884 0.930 1_556 S
C898 C896 1.395 1_656 S
C898 C901 1.403 . S
C899 C896 1.403 1_556 S
C899 C900 1.524 1_556 S
C899 C903 1.400 . S
C900 H885 0.960 1_554 S
C900 H886 0.960 1_554 S
C900 H887 0.960 . S
C900 C899 1.524 1_554 S
C901 C898 1.403 . S
C901 C902 1.392 1_655 S
C901 C905 1.495 . S
C902 C901 1.392 1_455 S
C902 C903 1.385 . S
C902 C904 1.478 . S
C903 H897 0.930 . S
C903 C899 1.400 . S
C903 C902 1.385 . S
C904 C902 1.478 . S
C904 C906 1.381 . S
C904 C910 1.383 . S
C905 C901 1.495 . S
C905 H911 0.959 . S
C905 H912 0.961 . S
C905 H913 0.960 . S
C906 C904 1.381 . S
C906 C907 1.394 . S
C906 H914 0.930 . S
C907 C906 1.394 . S
C907 C908 1.383 . S
C907 H915 0.929 . S
C908 C907 1.383 . S
C908 C909 1.377 . S
C909 H893 0.930 . S
C909 C908 1.377 . S
C909 C910 1.379 . S
C910 H894 0.931 . S
C910 C904 1.383 . S
C910 C909 1.379 . S
H911 C905 0.959 . S
H912 C905 0.961 . S
H913 C905 0.960 . S
H914 C906 0.930 . S
H915 C907 0.929 . S
H916 C924 0.929 . S
H917 C926 0.930 . S
H918 C928 0.930 . S
H919 C931 0.929 . S
H920 C934 0.929 1_565 S
H921 C936 0.960 . S
H922 C936 0.960 . S
H923 C936 0.960 . S
C924 H916 0.929 . S
C924 C925 1.377 . S
C924 C926 1.384 . S
C925 C924 1.377 . S
C925 C931 1.390 1_565 S
C926 H917 0.930 . S
C926 C924 1.384 . S
C926 C927 1.372 1_565 S
C927 C926 1.372 1_545 S
C927 C928 1.400 . S
C927 C932 1.490 . S
C928 H918 0.930 . S
C928 C927 1.400 . S
C928 C931 1.386 . S
H929 C945 0.930 . S
H930 C946 0.931 . S
C931 H919 0.929 . S
C931 C925 1.390 1_545 S
C931 C928 1.386 . S
C932 C927 1.490 . S
C932 C934 1.395 . S
C932 C935 1.403 1_554 S
H933 C939 0.930 . S
C934 H920 0.929 1_545 S
C934 C932 1.395 . S
C934 C937 1.403 . S
C935 C932 1.403 1_556 S
C935 C936 1.524 . S
C935 C939 1.400 . S
C936 H921 0.960 . S
C936 H922 0.960 . S
C936 H923 0.960 . S
C936 C935 1.524 . S
C937 C934 1.403 . S
C937 C938 1.392 1_554 S
C937 C941 1.495 . S
C938 C937 1.392 1_556 S
C938 C939 1.385 . S
C938 C940 1.478 . S
C939 H933 0.930 . S
C939 C935 1.400 . S
C939 C938 1.385 . S
C940 C938 1.478 . S
C940 C942 1.381 . S
C940 C946 1.383 . S
C941 C937 1.495 . S
C941 H947 0.944 1_545 S
C941 H948 0.961 . S
C941 H949 0.960 1_545 S
C942 C940 1.381 . S
C942 C943 1.394 . S
C942 H950 0.930 1_545 S
C943 C942 1.394 . S
C943 C944 1.383 . S
C943 H951 0.967 . S
C944 C943 1.383 . S
C944 C945 1.377 . S
C945 H929 0.930 . S
C945 C944 1.377 . S
C945 C946 1.379 . S
C946 H930 0.931 . S
C946 C940 1.383 . S
C946 C945 1.379 . S
H947 C941 0.944 1_565 S
H948 C941 0.961 . S
H949 C941 0.960 1_565 S
H950 C942 0.930 1_565 S
H951 C943 0.967 . S
H952 C960 0.929 . S
H953 C962 0.930 . S
H954 C964 0.930 . S
H955 C967 0.929 . S
H956 C970 0.930 . S
H957 C972 0.960 . S
H958 C972 0.960 . S
H959 C972 0.960 . S
C960 H952 0.929 . S
C960 C961 1.377 . S
C960 C962 1.384 . S
C961 C960 1.377 . S
C961 C967 1.390 . S
C962 H953 0.930 . S
C962 C960 1.384 . S
C962 C963 1.372 . S
C963 C962 1.372 . S
C963 C964 1.400 . S
C963 C968 1.490 . S
C964 H954 0.930 . S
C964 C963 1.400 . S
C964 C967 1.386 . S
H965 C981 0.930 . S
H966 C982 0.931 . S
C967 H955 0.929 . S
C967 C961 1.390 . S
C967 C964 1.386 . S
C968 C963 1.490 . S
C968 C970 1.395 . S
C968 C971 1.403 1_554 S
H969 C975 0.930 . S
C970 H956 0.930 . S
C970 C968 1.395 . S
C970 C973 1.403 1_554 S
C971 C968 1.403 1_556 S
C971 C972 1.524 . S
C971 C975 1.400 . S
C972 H957 0.960 . S
C972 H958 0.960 . S
C972 H959 0.960 . S
C972 C971 1.524 . S
C973 C970 1.403 1_556 S
C973 C974 1.392 . S
C973 C977 1.495 1_556 S
C974 C973 1.392 . S
C974 C975 1.385 . S
C974 C976 1.478 . S
C975 H969 0.930 . S
C975 C971 1.400 . S
C975 C974 1.385 . S
C976 C974 1.478 . S
C976 C978 1.381 . S
C976 C982 1.383 . S
C977 C973 1.495 1_554 S
C977 H983 0.959 . S
C977 H984 0.961 . S
C977 H985 0.960 1_554 S
C978 C976 1.381 . S
C978 C979 1.394 . S
C978 H986 0.930 . S
C979 C978 1.394 . S
C979 C980 1.383 . S
C979 H987 0.929 . S
C980 C979 1.383 . S
C980 C981 1.377 . S
C981 H965 0.930 . S
C981 C980 1.377 . S
C981 C982 1.379 . S
C982 H966 0.931 . S
C982 C976 1.383 . S
C982 C981 1.379 . S
H983 C977 0.959 . S
H984 C977 0.961 . S
H985 C977 0.960 1_556 S
H986 C978 0.930 . S
H987 C979 0.929 . S
H988 C996 0.929 . S
H989 C998 0.930 . S
H990 C1000 0.930 1_556 S
H991 C1003 0.929 . S
H992 C1006 0.930 . S
H993 C1008 0.960 . S
H994 C1008 0.960 . S
H995 C1008 0.960 . S
C996 H988 0.929 . S
C996 C997 1.377 . S
C996 C998 1.384 . S
C997 C996 1.377 . S
C997 C1003 1.390 . S
C998 H989 0.930 . S
C998 C996 1.384 . S
C998 C999 1.372 . S
C999 C998 1.372 . S
C999 C1000 1.400 . S
C999 C1004 1.490 . S
C1000 H990 0.930 1_554 S
C1000 C999 1.400 . S
C1000 C1003 1.386 . S
H1001 C1017 0.930 . S
H1002 C1018 0.931 . S
C1003 H991 0.929 . S
C1003 C997 1.390 . S
C1003 C1000 1.386 . S
C1004 C999 1.490 . S
C1004 C1006 1.395 1_554 S
C1004 C1007 1.403 . S
H1005 C1011 0.930 . S
C1006 H992 0.930 . S
C1006 C1004 1.395 1_556 S
C1006 C1009 1.403 . S
C1007 C1004 1.403 . S
C1007 C1008 1.524 . S
C1007 C1011 1.400 1_554 S
C1008 H993 0.960 . S
C1008 H994 0.960 . S
C1008 H995 0.960 . S
C1008 C1007 1.524 . S
C1009 C1006 1.403 . S
C1009 C1010 1.392 . S
C1009 C1013 1.495 . S
C1010 C1009 1.392 . S
C1010 C1011 1.385 . S
C1010 C1012 1.478 . S
C1011 H1005 0.930 . S
C1011 C1007 1.400 1_556 S
C1011 C1010 1.385 . S
C1012 C1010 1.478 . S
C1012 C1014 1.381 . S
C1012 C1018 1.383 . S
C1013 C1009 1.495 . S
C1013 H1019 0.959 . S
C1013 H1020 0.961 . S
C1013 H1021 0.960 . S
C1014 C1012 1.381 . S
C1014 C1015 1.394 . S
C1014 H1022 0.930 . S
C1015 C1014 1.394 . S
C1015 C1016 1.383 . S
C1015 H1023 0.929 . S
C1016 C1015 1.383 . S
C1016 C1017 1.377 . S
C1017 H1001 0.930 . S
C1017 C1016 1.377 . S
C1017 C1018 1.379 . S
C1018 H1002 0.931 . S
C1018 C1012 1.383 . S
C1018 C1017 1.379 . S
H1019 C1013 0.959 . S
H1020 C1013 0.961 . S
H1021 C1013 0.960 . S
H1022 C1014 0.930 . S
H1023 C1015 0.929 . S
H1024 C1032 0.929 . S
H1025 C1034 0.930 . S
H1026 C1036 0.930 . S
H1027 C1039 0.929 . S
H1028 C1042 0.930 . S
H1029 C1044 0.960 . S
H1030 C1044 0.960 . S
H1031 C1044 0.960 . S
C1032 H1024 0.929 . S
C1032 C1033 1.377 1_655 S
C1032 C1034 1.384 . S
C1033 C1032 1.377 1_455 S
C1033 C1039 1.390 . S
C1034 H1025 0.930 . S
C1034 C1032 1.384 . S
C1034 C1035 1.372 1_655 S
C1035 C1034 1.372 1_455 S
C1035 C1036 1.400 . S
C1035 C1040 1.490 . S
C1036 H1026 0.930 . S
C1036 C1035 1.400 . S
C1036 C1039 1.386 . S
H1037 C1053 0.930 . S
H1038 C1054 0.931 . S
C1039 H1027 0.929 . S
C1039 C1033 1.390 . S
C1039 C1036 1.386 . S
C1040 C1035 1.490 . S
C1040 C1042 1.395 1_455 S
C1040 C1043 1.403 . S
H1041 C1047 0.930 . S
C1042 H1028 0.930 . S
C1042 C1040 1.395 1_655 S
C1042 C1045 1.403 . S
C1043 C1040 1.403 . S
C1043 C1044 1.524 . S
C1043 C1047 1.400 . S
C1044 H1029 0.960 . S
C1044 H1030 0.960 . S
C1044 H1031 0.960 . S
C1044 C1043 1.524 . S
C1045 C1042 1.403 . S
C1045 C1046 1.392 1_655 S
C1045 C1049 1.495 . S
C1046 C1045 1.392 1_455 S
C1046 C1047 1.385 . S
C1046 C1048 1.478 . S
C1047 H1041 0.930 . S
C1047 C1043 1.400 . S
C1047 C1046 1.385 . S
C1048 C1046 1.478 . S
C1048 C1050 1.381 1_455 S
C1048 C1054 1.383 . S
C1049 C1045 1.495 . S
C1049 H1055 0.959 . S
C1049 H1056 0.961 . S
C1049 H1057 0.960 . S
C1050 C1048 1.381 1_655 S
C1050 C1051 1.394 . S
C1050 H1058 0.930 . S
C1051 C1050 1.394 . S
C1051 C1052 1.383 1_655 S
C1051 H1059 0.929 . S
C1052 C1051 1.383 1_455 S
C1052 C1053 1.377 . S
C1053 H1037 0.930 . S
C1053 C1052 1.377 . S
C1053 C1054 1.379 . S
C1054 H1038 0.931 . S
C1054 C1048 1.383 . S
C1054 C1053 1.379 . S
H1055 C1049 0.959 . S
H1056 C1049 0.961 . S
H1057 C1049 0.960 . S
H1058 C1050 0.930 . S
H1059 C1051 0.929 . S
H1060 C1068 0.929 . S
H1061 C1070 0.930 . S
H1062 C1072 0.930 . S
H1063 C1075 0.929 . S
H1064 C1078 0.930 . S
H1065 C1080 0.960 . S
H1066 C1080 0.960 . S
H1067 C1080 0.960 . S
C1068 H1060 0.929 . S
C1068 C1069 1.377 1_565 S
C1068 C1070 1.384 . S
C1069 C1068 1.377 1_545 S
C1069 C1075 1.390 . S
C1070 H1061 0.930 . S
C1070 C1068 1.384 . S
C1070 C1071 1.372 1_565 S
C1071 C1070 1.372 1_545 S
C1071 C1072 1.400 . S
C1071 C1076 1.490 . S
C1072 H1062 0.930 . S
C1072 C1071 1.400 . S
C1072 C1075 1.386 . S
H1073 C1089 0.930 . S
H1074 C1090 0.931 . S
C1075 H1063 0.929 . S
C1075 C1069 1.390 . S
C1075 C1072 1.386 . S
C1076 C1071 1.490 . S
C1076 C1078 1.395 1_545 S
C1076 C1079 1.403 . S
H1077 C1083 0.930 . S
C1078 H1064 0.930 . S
C1078 C1076 1.395 1_565 S
C1078 C1081 1.403 . S
C1079 C1076 1.403 . S
C1079 C1080 1.524 . S
C1079 C1083 1.400 . S
C1080 H1065 0.960 . S
C1080 H1066 0.960 . S
C1080 H1067 0.960 . S
C1080 C1079 1.524 . S
C1081 C1078 1.403 . S
C1081 C1082 1.392 1_565 S
C1081 C1085 1.495 . S
C1082 C1081 1.392 1_545 S
C1082 C1083 1.385 . S
C1082 C1084 1.478 . S
C1083 H1077 0.930 . S
C1083 C1079 1.400 . S
C1083 C1082 1.385 . S
C1084 C1082 1.478 . S
C1084 C1086 1.381 1_545 S
C1084 C1090 1.383 . S
C1085 C1081 1.495 . S
C1085 H1091 0.959 . S
C1085 H1092 0.961 . S
C1085 H1093 0.960 . S
C1086 C1084 1.381 1_565 S
C1086 C1087 1.394 . S
C1086 H1094 0.930 . S
C1087 C1086 1.394 . S
C1087 C1088 1.383 1_565 S
C1087 H1095 0.929 . S
C1088 C1087 1.383 1_545 S
C1088 C1089 1.377 . S
C1089 H1073 0.930 . S
C1089 C1088 1.377 . S
C1089 C1090 1.379 . S
C1090 H1074 0.931 . S
C1090 C1084 1.383 . S
C1090 C1089 1.379 . S
H1091 C1085 0.959 . S
H1092 C1085 0.961 . S
H1093 C1085 0.960 . S
H1094 C1086 0.930 . S
H1095 C1087 0.929 . S
H1096 C1104 0.929 . S
H1097 C1106 0.930 . S
H1098 C1108 0.930 . S
H1099 C1111 0.929 . S
H1100 C1114 0.930 . S
H1101 C1116 0.960 . S
H1102 C1116 0.960 . S
H1103 C1116 0.960 . S
C1104 H1096 0.929 . S
C1104 C1105 1.377 . S
C1104 C1106 1.384 . S
C1105 C1104 1.377 . S
C1105 C1111 1.390 . S
C1106 H1097 0.930 . S
C1106 C1104 1.384 . S
C1106 C1107 1.372 . S
C1107 C1106 1.372 . S
C1107 C1108 1.400 . S
C1107 C1112 1.490 . S
C1108 H1098 0.930 . S
C1108 C1107 1.400 . S
C1108 C1111 1.386 . S
H1109 C1125 0.930 . S
H1110 C1126 0.931 . S
C1111 H1099 0.929 . S
C1111 C1105 1.390 . S
C1111 C1108 1.386 . S
C1112 C1107 1.490 . S
C1112 C1114 1.395 . S
C1112 C1115 1.403 . S
H1113 C1119 0.930 . S
C1114 H1100 0.930 . S
C1114 C1112 1.395 . S
C1114 C1117 1.403 . S
C1115 C1112 1.403 . S
C1115 C1116 1.524 . S
C1115 C1119 1.400 . S
C1116 H1101 0.960 . S
C1116 H1102 0.960 . S
C1116 H1103 0.960 . S
C1116 C1115 1.524 . S
C1117 C1114 1.403 . S
C1117 C1118 1.392 . S
C1117 C1121 1.495 . S
C1118 C1117 1.392 . S
C1118 C1119 1.385 . S
C1118 C1120 1.478 . S
C1119 H1113 0.930 . S
C1119 C1115 1.400 . S
C1119 C1118 1.385 . S
C1120 C1118 1.478 . S
C1120 C1122 1.381 . S
C1120 C1126 1.383 . S
C1121 C1117 1.495 . S
C1121 H1127 0.959 . S
C1121 H1128 0.961 . S
C1121 H1129 0.960 . S
C1122 C1120 1.381 . S
C1122 C1123 1.394 . S
C1122 H1130 0.930 . S
C1123 C1122 1.394 . S
C1123 C1124 1.383 . S
C1123 H1131 0.929 . S
C1124 C1123 1.383 . S
C1124 C1125 1.377 . S
C1125 H1109 0.930 . S
C1125 C1124 1.377 . S
C1125 C1126 1.379 . S
C1126 H1110 0.931 . S
C1126 C1120 1.383 . S
C1126 C1125 1.379 . S
H1127 C1121 0.959 . S
H1128 C1121 0.961 . S
H1129 C1121 0.960 . S
H1130 C1122 0.930 . S
H1131 C1123 0.929 . S
H1132 C1140 0.929 . S
H1133 C1142 0.930 . S
H1134 C1144 0.930 . S
H1135 C1147 0.929 . S
H1136 C1150 0.930 . S
H1137 C1152 0.960 . S
H1138 C1152 0.960 . S
H1139 C1152 0.960 . S
C1140 H1132 0.929 . S
C1140 C1141 1.377 . S
C1140 C1142 1.384 . S
C1141 C1140 1.377 . S
C1141 C1147 1.390 . S
C1142 H1133 0.930 . S
C1142 C1140 1.384 . S
C1142 C1143 1.372 . S
C1143 C1142 1.372 . S
C1143 C1144 1.400 . S
C1143 C1148 1.490 . S
C1144 H1134 0.930 . S
C1144 C1143 1.400 . S
C1144 C1147 1.386 . S
H1145 C1161 0.930 . S
H1146 C1162 0.931 . S
C1147 H1135 0.929 . S
C1147 C1141 1.390 . S
C1147 C1144 1.386 . S
C1148 C1143 1.490 . S
C1148 C1150 1.395 . S
C1148 C1151 1.403 . S
H1149 C1155 0.930 . S
C1150 H1136 0.930 . S
C1150 C1148 1.395 . S
C1150 C1153 1.403 . S
C1151 C1148 1.403 . S
C1151 C1152 1.524 . S
C1151 C1155 1.400 . S
C1152 H1137 0.960 . S
C1152 H1138 0.960 . S
C1152 H1139 0.960 . S
C1152 C1151 1.524 . S
C1153 C1150 1.403 . S
C1153 C1154 1.392 . S
C1153 C1157 1.495 . S
C1154 C1153 1.392 . S
C1154 C1155 1.385 . S
C1154 C1156 1.478 . S
C1155 H1149 0.930 . S
C1155 C1151 1.400 . S
C1155 C1154 1.385 . S
C1156 C1154 1.478 . S
C1156 C1158 1.381 . S
C1156 C1162 1.383 . S
C1157 C1153 1.495 . S
C1157 H1163 0.959 . S
C1157 H1164 0.961 . S
C1157 H1165 0.960 . S
C1158 C1156 1.381 . S
C1158 C1159 1.394 . S
C1158 H1166 0.930 . S
C1159 C1158 1.394 . S
C1159 C1160 1.383 . S
C1159 H1167 0.929 . S
C1160 C1159 1.383 . S
C1160 C1161 1.377 . S
C1161 H1145 0.930 . S
C1161 C1160 1.377 . S
C1161 C1162 1.379 . S
C1162 H1146 0.931 . S
C1162 C1156 1.383 . S
C1162 C1161 1.379 . S
H1163 C1157 0.959 . S
H1164 C1157 0.961 . S
H1165 C1157 0.960 . S
H1166 C1158 0.930 . S
H1167 C1159 0.929 . S
H1168 C1176 0.929 . S
H1169 C1178 0.930 . S
H1170 C1180 0.930 . S
H1171 C1183 0.929 . S
H1172 C1186 0.930 . S
H1173 C1188 0.960 . S
H1174 C1188 0.960 . S
H1175 C1188 0.960 . S
C1176 H1168 0.929 . S
C1176 C1177 1.377 . S
C1176 C1178 1.384 . S
C1177 C1176 1.377 . S
C1177 C1183 1.390 1_655 S
C1178 H1169 0.930 . S
C1178 C1176 1.384 . S
C1178 C1179 1.372 . S
C1179 C1178 1.372 . S
C1179 C1180 1.400 1_655 S
C1179 C1184 1.490 . S
C1180 H1170 0.930 . S
C1180 C1179 1.400 1_455 S
C1180 C1183 1.386 . S
H1181 C1197 0.930 . S
H1182 C1198 0.931 . S
C1183 H1171 0.929 . S
C1183 C1177 1.390 1_455 S
C1183 C1180 1.386 . S
C1184 C1179 1.490 . S
C1184 C1186 1.395 . S
C1184 C1187 1.403 1_655 S
H1185 C1191 0.960 . S
C1186 H1172 0.930 . S
C1186 C1184 1.395 . S
C1186 C1189 1.403 . S
C1187 C1184 1.403 1_455 S
C1187 C1188 1.524 . S
C1187 C1191 1.405 . S
C1188 H1173 0.960 . S
C1188 H1174 0.960 . S
C1188 H1175 0.960 . S
C1188 C1187 1.524 . S
C1189 C1186 1.403 . S
C1189 C1190 1.392 . S
C1189 C1193 1.495 . S
C1190 C1189 1.392 . S
C1190 C1191 1.354 1_655 S
C1190 C1192 1.478 . S
C1191 H1185 0.960 . S
C1191 C1187 1.405 . S
C1191 C1190 1.354 1_455 S
C1192 C1190 1.478 . S
C1192 C1194 1.381 . S
C1192 C1198 1.383 1_655 S
C1193 C1189 1.495 . S
C1193 H1199 0.959 . S
C1193 H1200 0.961 . S
C1193 H1201 0.960 . S
C1194 C1192 1.381 . S
C1194 C1195 1.394 . S
C1194 H1202 0.930 . S
C1195 C1194 1.394 . S
C1195 C1196 1.383 . S
C1195 H1203 0.929 . S
C1196 C1195 1.383 . S
C1196 C1197 1.377 1_655 S
C1197 H1181 0.930 . S
C1197 C1196 1.377 1_455 S
C1197 C1198 1.379 . S
C1198 H1182 0.931 . S
C1198 C1192 1.383 1_455 S
C1198 C1197 1.379 . S
H1199 C1193 0.959 . S
H1200 C1193 0.961 . S
H1201 C1193 0.960 . S
H1202 C1194 0.930 . S
H1203 C1195 0.929 . S
H1204 C1212 0.929 . S
H1205 C1214 0.930 . S
H1206 C1216 0.930 . S
H1207 C1219 0.929 . S
H1208 C1222 0.930 . S
H1209 C1224 0.960 . S
H1210 C1224 0.960 . S
H1211 C1224 0.960 . S
C1212 H1204 0.929 . S
C1212 C1213 1.377 . S
C1212 C1214 1.384 . S
C1213 C1212 1.377 . S
C1213 C1219 1.390 1_565 S
C1214 H1205 0.930 . S
C1214 C1212 1.384 . S
C1214 C1215 1.372 . S
C1215 C1214 1.372 . S
C1215 C1216 1.400 1_565 S
C1215 C1220 1.490 . S
C1216 H1206 0.930 . S
C1216 C1215 1.400 1_545 S
C1216 C1219 1.386 . S
H1217 C1233 0.930 . S
H1218 C1234 0.931 . S
C1219 H1207 0.929 . S
C1219 C1213 1.390 1_545 S
C1219 C1216 1.386 . S
C1220 C1215 1.490 . S
C1220 C1222 1.395 . S
C1220 C1223 1.403 1_565 S
H1221 C1227 0.949 . S
C1222 H1208 0.930 . S
C1222 C1220 1.395 . S
C1222 C1225 1.403 . S
C1223 C1220 1.403 1_545 S
C1223 C1224 1.524 . S
C1223 C1227 1.404 . S
C1224 H1209 0.960 . S
C1224 H1210 0.960 . S
C1224 H1211 0.960 . S
C1224 C1223 1.524 . S
C1225 C1222 1.403 . S
C1225 C1226 1.392 . S
C1225 C1229 1.495 . S
C1226 C1225 1.392 . S
C1226 C1227 1.366 1_565 S
C1226 C1228 1.478 . S
C1227 H1221 0.949 . S
C1227 C1223 1.404 . S
C1227 C1226 1.366 1_545 S
C1228 C1226 1.478 . S
C1228 C1230 1.381 . S
C1228 C1234 1.383 1_565 S
C1229 C1225 1.495 . S
C1229 H1235 0.959 . S
C1229 H1236 0.961 . S
C1229 H1237 0.960 . S
C1230 C1228 1.381 . S
C1230 C1231 1.394 . S
C1230 H1238 0.930 . S
C1231 C1230 1.394 . S
C1231 C1232 1.383 . S
C1231 H1239 0.929 . S
C1232 C1231 1.383 . S
C1232 C1233 1.377 1_565 S
C1233 H1217 0.930 . S
C1233 C1232 1.377 1_545 S
C1233 C1234 1.379 . S
C1234 H1218 0.931 . S
C1234 C1228 1.383 1_545 S
C1234 C1233 1.379 . S
H1235 C1229 0.959 . S
H1236 C1229 0.961 . S
H1237 C1229 0.960 . S
H1238 C1230 0.930 . S
H1239 C1231 0.929 . S
H1240 C1248 0.929 . S
H1241 C1250 0.930 . S
H1242 C1252 0.930 . S
H1243 C1255 0.929 . S
H1244 C1258 0.930 . S
H1245 C1260 0.960 . S
H1246 C1260 0.960 . S
H1247 C1260 0.960 . S
C1248 H1240 0.929 . S
C1248 C1249 1.377 . S
C1248 C1250 1.384 . S
C1249 C1248 1.377 . S
C1249 C1255 1.390 . S
C1250 H1241 0.930 . S
C1250 C1248 1.384 . S
C1250 C1251 1.372 . S
C1251 C1250 1.372 . S
C1251 C1252 1.400 . S
C1251 C1256 1.490 . S
C1252 H1242 0.930 . S
C1252 C1251 1.400 . S
C1252 C1255 1.386 . S
H1253 C1269 0.930 . S
H1254 C1270 0.931 . S
C1255 H1243 0.929 . S
C1255 C1249 1.390 . S
C1255 C1252 1.386 . S
C1256 C1251 1.490 . S
C1256 C1258 1.395 . S
C1256 C1259 1.403 . S
H1257 C1263 0.930 . S
C1258 H1244 0.930 . S
C1258 C1256 1.395 . S
C1258 C1261 1.403 . S
C1259 C1256 1.403 . S
C1259 C1260 1.524 . S
C1259 C1263 1.400 . S
C1260 H1245 0.960 . S
C1260 H1246 0.960 . S
C1260 H1247 0.960 . S
C1260 C1259 1.524 . S
C1261 C1258 1.403 . S
C1261 C1262 1.392 . S
C1261 C1265 1.495 . S
C1262 C1261 1.392 . S
C1262 C1263 1.385 . S
C1262 C1264 1.478 . S
C1263 H1257 0.930 . S
C1263 C1259 1.400 . S
C1263 C1262 1.385 . S
C1264 C1262 1.478 . S
C1264 C1266 1.381 . S
C1264 C1270 1.383 . S
C1265 C1261 1.495 . S
C1265 H1271 0.959 . S
C1265 H1272 0.961 . S
C1265 H1273 0.960 . S
C1266 C1264 1.381 . S
C1266 C1267 1.394 . S
C1266 H1274 0.930 . S
C1267 C1266 1.394 . S
C1267 C1268 1.383 . S
C1267 H1275 0.929 . S
C1268 C1267 1.383 . S
C1268 C1269 1.377 . S
C1269 H1253 0.930 . S
C1269 C1268 1.377 . S
C1269 C1270 1.379 . S
C1270 H1254 0.931 . S
C1270 C1264 1.383 . S
C1270 C1269 1.379 . S
H1271 C1265 0.959 . S
H1272 C1265 0.961 . S
H1273 C1265 0.960 . S
H1274 C1266 0.930 . S
H1275 C1267 0.929 . S
H1276 C1284 0.929 . S
H1277 C1286 0.930 . S
H1278 C1288 0.930 . S
H1279 C1291 0.929 . S
H1280 C1294 0.930 . S
H1281 C1296 0.960 . S
H1282 C1296 0.960 . S
H1283 C1296 0.960 . S
C1284 H1276 0.929 . S
C1284 C1285 1.377 . S
C1284 C1286 1.384 . S
C1285 C1284 1.377 . S
C1285 C1291 1.390 . S
C1286 H1277 0.930 . S
C1286 C1284 1.384 . S
C1286 C1287 1.372 . S
C1287 C1286 1.372 . S
C1287 C1288 1.400 . S
C1287 C1292 1.490 . S
C1288 H1278 0.930 . S
C1288 C1287 1.400 . S
C1288 C1291 1.386 . S
H1289 C1305 0.930 . S
H1290 C1306 0.931 . S
C1291 H1279 0.929 . S
C1291 C1285 1.390 . S
C1291 C1288 1.386 . S
C1292 C1287 1.490 . S
C1292 C1294 1.395 . S
C1292 C1295 1.403 . S
H1293 C1299 0.930 . S
C1294 H1280 0.930 . S
C1294 C1292 1.395 . S
C1294 C1297 1.403 . S
C1295 C1292 1.403 . S
C1295 C1296 1.524 . S
C1295 C1299 1.400 . S
C1296 H1281 0.960 . S
C1296 H1282 0.960 . S
C1296 H1283 0.960 . S
C1296 C1295 1.524 . S
C1297 C1294 1.403 . S
C1297 C1298 1.392 . S
C1297 C1301 1.495 . S
C1298 C1297 1.392 . S
C1298 C1299 1.385 . S
C1298 C1300 1.478 . S
C1299 H1293 0.930 . S
C1299 C1295 1.400 . S
C1299 C1298 1.385 . S
C1300 C1298 1.478 . S
C1300 C1302 1.381 . S
C1300 C1306 1.383 . S
C1301 C1297 1.495 . S
C1301 H1307 0.959 . S
C1301 H1308 0.961 . S
C1301 H1309 0.960 . S
C1302 C1300 1.381 . S
C1302 C1303 1.394 . S
C1302 H1310 0.930 . S
C1303 C1302 1.394 . S
C1303 C1304 1.383 . S
C1303 H1311 0.929 . S
C1304 C1303 1.383 . S
C1304 C1305 1.377 . S
C1305 H1289 0.930 . S
C1305 C1304 1.377 . S
C1305 C1306 1.379 . S
C1306 H1290 0.931 . S
C1306 C1300 1.383 . S
C1306 C1305 1.379 . S
H1307 C1301 0.959 . S
H1308 C1301 0.961 . S
H1309 C1301 0.960 . S
H1310 C1302 0.930 . S
H1311 C1303 0.929 . S
C457 C241 1.852 . S
C476 C297 2.006 1_545 S
C512 C337 2.006 . S
C493 C277 1.915 . S
C548 C377 2.007 . S
C529 C169 1.853 . S
C584 C417 2.009 1_455 S
C565 C205 1.875 . S
C620 C306 2.009 1_565 S
C601 C97 1.862 . S
C637 C133 1.921 . S
C656 C346 2.026 . S
C673 C25 1.860 . S
C692 C386 1.997 . S
C709 C61 1.867 . S
C728 C426 2.005 1_655 S
C764 C303 0.364 . S
C745 C211 0.287 . S
C800 C343 0.317 . S
C781 C247 0.269 . S
C836 C383 0.223 . S
C817 C253 0.271 . S
C853 C175 0.256 . S
C872 C423 0.259 . S
C889 C67 0.369 . S
C908 C294 0.171 . S
C944 C334 0.256 . S
C925 C103 0.364 1_565 S
C980 C374 0.200 . S
C961 C109 0.219 . S
C997 C31 0.334 . S
C1016 C414 0.358 . S
C1033 C181 2.527 . S
C1052 C307 2.789 . S
C1069 C217 2.514 . S
C1088 C347 2.783 . S
C1124 C387 2.808 . S
C1105 C283 2.467 . S
C1160 C427 2.794 . S
C1141 C145 2.516 . S
C1177 C37 2.532 . S
C1196 C298 2.816 . S
C1232 C338 2.795 . S
C1213 C73 2.516 1_565 S
C1268 C378 2.790 . S
C1249 C139 2.459 . S
C1285 C1 2.524 . S
C1304 C418 2.798 . S
