# Generated by pormake.
# Topology eea, (3,6)-cn, num edge types: 1
# Building blocks:
#     Node 0, Type 0, BuildingBlock: VETTIZ_charged_linker_0, # of connection points: 3
#     Node 1, Type 0, BuildingBlock: VETTIZ_charged_linker_0, # of connection points: 3
#     Node 2, Type 0, BuildingBlock: VETTIZ_charged_linker_0, # of connection points: 3
#     Node 3, Type 0, BuildingBlock: VETTIZ_charged_linker_0, # of connection points: 3
#     Node 4, Type 0, BuildingBlock: VETTIZ_charged_linker_0, # of connection points: 3
#     Node 5, Type 0, BuildingBlock: VETTIZ_charged_linker_0, # of connection points: 3
#     Node 6, Type 0, BuildingBlock: VETTIZ_charged_linker_0, # of connection points: 3
#     Node 7, Type 0, BuildingBlock: VETTIZ_charged_linker_0, # of connection points: 3
#     Node 8, Type 0, BuildingBlock: VETTIZ_charged_linker_0, # of connection points: 3
#     Node 9, Type 0, BuildingBlock: VETTIZ_charged_linker_0, # of connection points: 3
#     Node 10, Type 0, BuildingBlock: VETTIZ_charged_linker_0, # of connection points: 3
#     Node 11, Type 0, BuildingBlock: VETTIZ_charged_linker_0, # of connection points: 3
#     Node 12, Type 0, BuildingBlock: VETTIZ_charged_linker_0, # of connection points: 3
#     Node 13, Type 0, BuildingBlock: VETTIZ_charged_linker_0, # of connection points: 3
#     Node 14, Type 0, BuildingBlock: VETTIZ_charged_linker_0, # of connection points: 3
#     Node 15, Type 0, BuildingBlock: VETTIZ_charged_linker_0, # of connection points: 3
#     Node 16, Type 0, BuildingBlock: VETTIZ_charged_linker_0, # of connection points: 3
#     Node 17, Type 0, BuildingBlock: VETTIZ_charged_linker_0, # of connection points: 3
#     Node 18, Type 1, BuildingBlock: CIFDUS_clean_sbu_1, # of connection points: 6
#     Node 19, Type 1, BuildingBlock: CIFDUS_clean_sbu_1, # of connection points: 6
#     Node 20, Type 1, BuildingBlock: CIFDUS_clean_sbu_1, # of connection points: 6
#     Node 21, Type 1, BuildingBlock: CIFDUS_clean_sbu_1, # of connection points: 6
#     Node 22, Type 1, BuildingBlock: CIFDUS_clean_sbu_1, # of connection points: 6
#     Node 23, Type 1, BuildingBlock: CIFDUS_clean_sbu_1, # of connection points: 6
#     Node 24, Type 1, BuildingBlock: CIFDUS_clean_sbu_1, # of connection points: 6
#     Node 25, Type 1, BuildingBlock: CIFDUS_clean_sbu_1, # of connection points: 6
#     Node 26, Type 1, BuildingBlock: CIFDUS_clean_sbu_1, # of connection points: 6
#     Edge 27, Type (0, 1), BuildingBlock: OJICUG_clean_linker_0, # of connection points: 2
#     Edge 28, Type (0, 1), BuildingBlock: OJICUG_clean_linker_0, # of connection points: 2
#     Edge 29, Type (0, 1), BuildingBlock: OJICUG_clean_linker_0, # of connection points: 2
#     Edge 30, Type (0, 1), BuildingBlock: OJICUG_clean_linker_0, # of connection points: 2
#     Edge 31, Type (0, 1), BuildingBlock: OJICUG_clean_linker_0, # of connection points: 2
#     Edge 32, Type (0, 1), BuildingBlock: OJICUG_clean_linker_0, # of connection points: 2
#     Edge 33, Type (0, 1), BuildingBlock: OJICUG_clean_linker_0, # of connection points: 2
#     Edge 34, Type (0, 1), BuildingBlock: OJICUG_clean_linker_0, # of connection points: 2
#     Edge 35, Type (0, 1), BuildingBlock: OJICUG_clean_linker_0, # of connection points: 2
#     Edge 36, Type (0, 1), BuildingBlock: OJICUG_clean_linker_0, # of connection points: 2
#     Edge 37, Type (0, 1), BuildingBlock: OJICUG_clean_linker_0, # of connection points: 2
#     Edge 38, Type (0, 1), BuildingBlock: OJICUG_clean_linker_0, # of connection points: 2
#     Edge 39, Type (0, 1), BuildingBlock: OJICUG_clean_linker_0, # of connection points: 2
#     Edge 40, Type (0, 1), BuildingBlock: OJICUG_clean_linker_0, # of connection points: 2
#     Edge 41, Type (0, 1), BuildingBlock: OJICUG_clean_linker_0, # of connection points: 2
#     Edge 42, Type (0, 1), BuildingBlock: OJICUG_clean_linker_0, # of connection points: 2
#     Edge 43, Type (0, 1), BuildingBlock: OJICUG_clean_linker_0, # of connection points: 2
#     Edge 44, Type (0, 1), BuildingBlock: OJICUG_clean_linker_0, # of connection points: 2
#     Edge 45, Type (0, 1), BuildingBlock: OJICUG_clean_linker_0, # of connection points: 2
#     Edge 46, Type (0, 1), BuildingBlock: OJICUG_clean_linker_0, # of connection points: 2
#     Edge 47, Type (0, 1), BuildingBlock: OJICUG_clean_linker_0, # of connection points: 2
#     Edge 48, Type (0, 1), BuildingBlock: OJICUG_clean_linker_0, # of connection points: 2
#     Edge 49, Type (0, 1), BuildingBlock: OJICUG_clean_linker_0, # of connection points: 2
#     Edge 50, Type (0, 1), BuildingBlock: OJICUG_clean_linker_0, # of connection points: 2
#     Edge 51, Type (0, 1), BuildingBlock: OJICUG_clean_linker_0, # of connection points: 2
#     Edge 52, Type (0, 1), BuildingBlock: OJICUG_clean_linker_0, # of connection points: 2
#     Edge 53, Type (0, 1), BuildingBlock: OJICUG_clean_linker_0, # of connection points: 2
#     Edge 54, Type (0, 1), BuildingBlock: OJICUG_clean_linker_0, # of connection points: 2
#     Edge 55, Type (0, 1), BuildingBlock: OJICUG_clean_linker_0, # of connection points: 2
#     Edge 56, Type (0, 1), BuildingBlock: OJICUG_clean_linker_0, # of connection points: 2
#     Edge 57, Type (0, 1), BuildingBlock: OJICUG_clean_linker_0, # of connection points: 2
#     Edge 58, Type (0, 1), BuildingBlock: OJICUG_clean_linker_0, # of connection points: 2
#     Edge 59, Type (0, 1), BuildingBlock: OJICUG_clean_linker_0, # of connection points: 2
#     Edge 60, Type (0, 1), BuildingBlock: OJICUG_clean_linker_0, # of connection points: 2
#     Edge 61, Type (0, 1), BuildingBlock: OJICUG_clean_linker_0, # of connection points: 2
#     Edge 62, Type (0, 1), BuildingBlock: OJICUG_clean_linker_0, # of connection points: 2
#     Edge 63, Type (0, 1), BuildingBlock: OJICUG_clean_linker_0, # of connection points: 2
#     Edge 64, Type (0, 1), BuildingBlock: OJICUG_clean_linker_0, # of connection points: 2
#     Edge 65, Type (0, 1), BuildingBlock: OJICUG_clean_linker_0, # of connection points: 2
#     Edge 66, Type (0, 1), BuildingBlock: OJICUG_clean_linker_0, # of connection points: 2
#     Edge 67, Type (0, 1), BuildingBlock: OJICUG_clean_linker_0, # of connection points: 2
#     Edge 68, Type (0, 1), BuildingBlock: OJICUG_clean_linker_0, # of connection points: 2
#     Edge 69, Type (0, 1), BuildingBlock: OJICUG_clean_linker_0, # of connection points: 2
#     Edge 70, Type (0, 1), BuildingBlock: OJICUG_clean_linker_0, # of connection points: 2
#     Edge 71, Type (0, 1), BuildingBlock: OJICUG_clean_linker_0, # of connection points: 2
#     Edge 72, Type (0, 1), BuildingBlock: OJICUG_clean_linker_0, # of connection points: 2
#     Edge 73, Type (0, 1), BuildingBlock: OJICUG_clean_linker_0, # of connection points: 2
#     Edge 74, Type (0, 1), BuildingBlock: OJICUG_clean_linker_0, # of connection points: 2
#     Edge 75, Type (0, 1), BuildingBlock: OJICUG_clean_linker_0, # of connection points: 2
#     Edge 76, Type (0, 1), BuildingBlock: OJICUG_clean_linker_0, # of connection points: 2
#     Edge 77, Type (0, 1), BuildingBlock: OJICUG_clean_linker_0, # of connection points: 2
#     Edge 78, Type (0, 1), BuildingBlock: OJICUG_clean_linker_0, # of connection points: 2
#     Edge 79, Type (0, 1), BuildingBlock: OJICUG_clean_linker_0, # of connection points: 2
#     Edge 80, Type (0, 1), BuildingBlock: OJICUG_clean_linker_0, # of connection points: 2
# Relax obj value: 0.101
# Max RMSD: 0.186
# Mean RMSD: 0.095
data_MOF--net-eea--node1-CIFDUS_clean_sbu_1--node2-VETTIZ_charged_linker_0--edge1-OJICUG_clean_linker_0
_symmetry_space_group_name_H-M    P1
_symmetry_Int_Tables_number       1
_symmetry_cell_setting            triclinic
loop_
_symmetry_equiv_pos_as_xyz
'x, y, z'
_cell_length_a     51.509844
_cell_length_b     51.217339
_cell_length_c     52.59824
_cell_angle_alpha  89.946557
_cell_angle_beta   89.707876
_cell_angle_gamma 120.10787
loop_
_atom_site_label
_atom_site_type_symbol
_atom_site_fract_x
_atom_site_fract_y
_atom_site_fract_z
_atom_type_partial_charge
C0 C 0.21545 0.1759 0.36452 0.0
C1 C 0.21882 0.20257 0.37562 0.0
C2 C 0.24044 0.21626 0.39506 0.0
C3 C 0.24945 0.17422 0.39524 0.0
C4 C 0.23137 0.1626 0.37422 0.0
C5 C 0.22895 0.13348 0.36544 0.0
H6 H 0.24374 0.01376 0.39531 0.0
C7 C 0.25822 0.15224 0.40362 0.0
C8 C 0.2464 0.12833 0.38611 0.0
H9 H 0.19209 0.02211 0.33413 0.0
H10 H 0.21426 0.07502 0.34306 0.0
H11 H 0.30405 0.08065 0.39285 0.0
H12 H 0.21947 0.03831 0.43189 0.0
H13 H 0.24377 0.06546 0.45323 0.0
H14 H 0.25074 0.03574 0.4435 0.0
H15 H 0.29455 0.05398 0.41833 0.0
H16 H 0.31148 0.09393 0.42434 0.0
C17 C 0.24523 0.13925 0.33949 0.0
C18 C 0.19529 0.10858 0.36476 0.0
C19 C 0.29822 0.15894 0.493 0.0
C20 C 0.30385 0.13909 0.50738 0.0
C21 C 0.30211 0.11368 0.49554 0.0
C22 C 0.29419 0.10769 0.46993 0.0
C23 C 0.28719 0.12688 0.45615 0.0
C24 C 0.28989 0.15239 0.46749 0.0
C25 C 0.28132 0.17 0.44984 0.0
C26 C 0.27182 0.15002 0.42635 0.0
C27 C 0.27523 0.12482 0.43036 0.0
C28 C 0.30949 0.20119 0.44467 0.0
C29 C 0.25485 0.17168 0.46226 0.0
C30 C 0.23611 0.02621 0.38402 0.0
C31 C 0.21471 0.01244 0.36466 0.0
C32 C 0.20788 0.03117 0.34959 0.0
C33 C 0.22046 0.06205 0.35499 0.0
C34 C 0.23882 0.07415 0.37641 0.0
C35 C 0.24675 0.05634 0.39017 0.0
C36 C 0.26318 0.07122 0.41408 0.0
C37 C 0.26433 0.10127 0.41226 0.0
C38 C 0.25013 0.103 0.39016 0.0
C39 C 0.29496 0.07505 0.41258 0.0
C40 C 0.24365 0.05182 0.43695 0.0
H41 H 0.27084 0.2132 0.42028 0.0
H42 H 0.19986 0.16442 0.34932 0.0
H43 H 0.18092 0.11489 0.37598 0.0
H44 H 0.19108 0.08715 0.37351 0.0
H45 H 0.18663 0.10415 0.345 0.0
H46 H 0.26768 0.16007 0.34017 0.0
H47 H 0.23214 0.14228 0.32422 0.0
H48 H 0.24931 0.12076 0.33404 0.0
H49 H 0.29933 0.17866 0.50165 0.0
H50 H 0.30688 0.09842 0.50611 0.0
H51 H 0.29304 0.08785 0.46205 0.0
H52 H 0.33044 0.20007 0.44625 0.0
H53 H 0.31105 0.21833 0.45848 0.0
H54 H 0.31001 0.2094 0.4251 0.0
H55 H 0.2376 0.1491 0.46952 0.0
H56 H 0.24301 0.17877 0.44912 0.0
H57 H 0.2627 0.18757 0.47854 0.0
H58 H 0.2458 0.23785 0.40298 0.0
C59 C 0.25555 0.20218 0.40495 0.0
C60 C 0.95635 0.18182 0.35389 0.0
C61 C 0.97979 0.2072 0.36552 0.0
C62 C 0.9739 0.21917 0.38748 0.0
C63 C 0.9229 0.17743 0.38861 0.0
C64 C 0.92814 0.16717 0.36587 0.0
C65 C 0.90199 0.13742 0.35817 0.0
H66 H 0.77353 0.01201 0.38969 0.0
C67 C 0.89304 0.15445 0.39831 0.0
C68 C 0.88068 0.13109 0.38037 0.0
H69 H 0.83122 0.02973 0.32383 0.0
H70 H 0.86029 0.08128 0.33568 0.0
H71 H 0.82383 0.04065 0.42667 0.0
H72 H 0.77636 0.07911 0.39015 0.0
H73 H 0.78205 0.09145 0.42192 0.0
H74 H 0.76042 0.05157 0.41518 0.0
H75 H 0.78782 0.03339 0.43775 0.0
H76 H 0.82223 0.06501 0.44904 0.0
C77 C 0.91278 0.114 0.35633 0.0
C78 C 0.88911 0.14227 0.33319 0.0
C79 C 0.85979 0.16118 0.48851 0.0
C80 C 0.83448 0.1412 0.50319 0.0
C81 C 0.81185 0.11466 0.49192 0.0
C82 C 0.8144 0.10781 0.46661 0.0
C83 C 0.84017 0.12735 0.45245 0.0
C84 C 0.86219 0.15378 0.46324 0.0
C85 C 0.88808 0.17158 0.44516 0.0
C86 C 0.87787 0.15128 0.42184 0.0
C87 C 0.84994 0.12527 0.42646 0.0
C88 C 0.91663 0.17408 0.45719 0.0
C89 C 0.8903 0.20238 0.43982 0.0
C90 C 0.79268 0.02673 0.37793 0.0
C91 C 0.79987 0.01601 0.35578 0.0
C92 C 0.8245 0.03676 0.3408 0.0
C93 C 0.84188 0.06694 0.34792 0.0
C94 C 0.8357 0.07658 0.37091 0.0
C95 C 0.81111 0.05686 0.38528 0.0
C96 C 0.80923 0.07085 0.40992 0.0
C97 C 0.83734 0.10181 0.40815 0.0
C98 C 0.85254 0.10495 0.38518 0.0
C99 C 0.81062 0.05157 0.43212 0.0
C100 C 0.78045 0.07327 0.40953 0.0
H101 H 0.94253 0.2143 0.41601 0.0
H102 H 0.96044 0.17225 0.33703 0.0
H103 H 0.88981 0.16434 0.33337 0.0
H104 H 0.86521 0.12522 0.33042 0.0
H105 H 0.90228 0.14219 0.31643 0.0
H106 H 0.9334 0.12094 0.36766 0.0
H107 H 0.91796 0.11107 0.33637 0.0
H108 H 0.89642 0.09172 0.36436 0.0
H109 H 0.87759 0.1818 0.49667 0.0
H110 H 0.79195 0.0993 0.50266 0.0
H111 H 0.79638 0.08724 0.45914 0.0
H112 H 0.91151 0.15224 0.466 0.0
H113 H 0.92561 0.19154 0.47229 0.0
H114 H 0.93469 0.17926 0.44334 0.0
H115 H 0.86765 0.2001 0.43968 0.0
H116 H 0.89998 0.21164 0.42089 0.0
H117 H 0.90375 0.21919 0.4546 0.0
H118 H 0.99177 0.23915 0.39639 0.0
C119 C 0.94546 0.2046 0.39893 0.0
C120 C 0.95425 0.76949 0.35485 0.0
C121 C 0.9787 0.76938 0.36629 0.0
C122 C 0.97435 0.75394 0.38956 0.0
C123 C 0.92258 0.74226 0.39111 0.0
C124 C 0.92659 0.75613 0.36767 0.0
C125 C 0.89952 0.75778 0.35967 0.0
H126 H 0.77149 0.75315 0.39346 0.0
C127 C 0.89236 0.73409 0.40076 0.0
C128 C 0.87883 0.74321 0.38231 0.0
H129 H 0.82233 0.78804 0.32385 0.0
H130 H 0.85405 0.76756 0.33562 0.0
H131 H 0.77483 0.6876 0.39393 0.0
H132 H 0.82071 0.77546 0.42791 0.0
H133 H 0.82183 0.75124 0.45073 0.0
H134 H 0.78602 0.74576 0.44064 0.0
H135 H 0.75874 0.6996 0.41839 0.0
H136 H 0.78117 0.68262 0.42595 0.0
C137 C 0.88667 0.73859 0.33536 0.0
C138 C 0.90904 0.7916 0.3565 0.0
C139 C 0.86077 0.69505 0.49142 0.0
C140 C 0.83612 0.69037 0.50654 0.0
C141 C 0.81287 0.69316 0.4954 0.0
C142 C 0.81438 0.70115 0.46974 0.0
C143 C 0.83977 0.70717 0.45515 0.0
C144 C 0.86223 0.70361 0.46587 0.0
C145 C 0.88819 0.71254 0.44776 0.0
C146 C 0.87751 0.72202 0.42442 0.0
C147 C 0.84917 0.71884 0.429 0.0
C148 C 0.89103 0.68438 0.44244 0.0
C149 C 0.91652 0.73924 0.45973 0.0
C150 C 0.78931 0.7561 0.38063 0.0
C151 C 0.79512 0.77298 0.35809 0.0
C152 C 0.81781 0.77555 0.3415 0.0
C153 C 0.83626 0.76381 0.34848 0.0
C154 C 0.83203 0.74965 0.37235 0.0
C155 C 0.80802 0.74483 0.38744 0.0
C156 C 0.80731 0.73019 0.41243 0.0
C157 C 0.83573 0.72834 0.41041 0.0
C158 C 0.85016 0.73984 0.38697 0.0
C159 C 0.77898 0.69838 0.41298 0.0
C160 C 0.80883 0.75144 0.43418 0.0
H161 H 0.94442 0.72881 0.41959 0.0
H162 H 0.95701 0.7811 0.33695 0.0
H163 H 0.92803 0.80618 0.36925 0.0
H164 H 0.89127 0.79656 0.36196 0.0
H165 H 0.91637 0.79947 0.33669 0.0
H166 H 0.88806 0.71762 0.33651 0.0
H167 H 0.89941 0.75129 0.3182 0.0
H168 H 0.86261 0.73077 0.33265 0.0
H169 H 0.87913 0.69335 0.4996 0.0
H170 H 0.79357 0.68931 0.50663 0.0
H171 H 0.79609 0.70322 0.46246 0.0
H172 H 0.8685 0.66412 0.4397 0.0
H173 H 0.90191 0.67965 0.45858 0.0
H174 H 0.90372 0.68652 0.42482 0.0
H175 H 0.9106 0.75404 0.47082 0.0
H176 H 0.933 0.75443 0.44553 0.0
H177 H 0.9277 0.73101 0.47288 0.0
H178 H 0.9928 0.7529 0.39833 0.0
C179 C 0.94632 0.74003 0.40186 0.0
C180 C 0.18309 0.22621 0.65442 0.0
C181 C 0.20857 0.2275 0.64339 0.0
C182 C 0.22025 0.24354 0.62049 0.0
C183 C 0.17904 0.25335 0.61812 0.0
C184 C 0.16857 0.23913 0.64135 0.0
C185 C 0.1393 0.23698 0.64876 0.0
H186 H 0.01675 0.24162 0.61225 0.0
C187 C 0.15691 0.26086 0.60793 0.0
C188 C 0.13365 0.25154 0.62586 0.0
H189 H 0.03078 0.20666 0.68241 0.0
H190 H 0.08321 0.22724 0.67146 0.0
H191 H 0.08671 0.3076 0.61248 0.0
H192 H 0.04673 0.21973 0.57767 0.0
H193 H 0.07036 0.24612 0.55493 0.0
H194 H 0.03869 0.24821 0.56697 0.0
H195 H 0.05833 0.29547 0.5885 0.0
H196 H 0.09754 0.31214 0.58024 0.0
C197 C 0.14451 0.25585 0.67314 0.0
C198 C 0.11539 0.20304 0.65155 0.0
C199 C 0.1689 0.29916 0.51717 0.0
C200 C 0.15144 0.30653 0.50172 0.0
C201 C 0.12517 0.30473 0.51185 0.0
C202 C 0.11609 0.29504 0.53696 0.0
C203 C 0.13353 0.28718 0.55215 0.0
C204 C 0.15976 0.28995 0.54232 0.0
C205 C 0.17591 0.28145 0.5613 0.0
C206 C 0.15479 0.27245 0.58399 0.0
C207 C 0.12987 0.27562 0.57852 0.0
C208 C 0.20654 0.30991 0.567 0.0
C209 C 0.178 0.25447 0.55027 0.0
C210 C 0.03126 0.23866 0.62533 0.0
C211 C 0.0196 0.22172 0.64781 0.0
C212 C 0.03923 0.21919 0.6648 0.0
C213 C 0.06955 0.23096 0.65829 0.0
C214 C 0.08013 0.2451 0.6345 0.0
C215 C 0.06142 0.24997 0.61897 0.0
C216 C 0.07621 0.26478 0.59415 0.0
C217 C 0.10631 0.26633 0.59671 0.0
C218 C 0.10846 0.25483 0.62041 0.0
C219 C 0.07981 0.29664 0.59354 0.0
C220 C 0.05712 0.24392 0.57214 0.0
H221 H 0.21555 0.26821 0.59036 0.0
H222 H 0.17384 0.21412 0.67209 0.0
H223 H 0.11988 0.18903 0.63805 0.0
H224 H 0.0925 0.19797 0.64685 0.0
H225 H 0.11533 0.19469 0.67106 0.0
H226 H 0.16689 0.27678 0.67256 0.0
H227 H 0.14368 0.24289 0.69036 0.0
H228 H 0.12824 0.26378 0.67532 0.0
H229 H 0.18944 0.3009 0.50994 0.0
H230 H 0.1115 0.31053 0.50019 0.0
H231 H 0.09568 0.2937 0.5435 0.0
H232 H 0.20466 0.33063 0.56652 0.0
H233 H 0.2238 0.31286 0.55274 0.0
H234 H 0.21484 0.30958 0.58627 0.0
H235 H 0.15789 0.2396 0.53871 0.0
H236 H 0.17844 0.23935 0.56499 0.0
H237 H 0.19803 0.26241 0.53778 0.0
H238 H 0.24034 0.24534 0.61206 0.0
C239 C 0.20583 0.25676 0.60794 0.0
C240 C 0.77109 0.81013 0.64387 0.0
C241 C 0.76679 0.78348 0.6321 0.0
C242 C 0.74477 0.77038 0.61297 0.0
C243 C 0.73721 0.81319 0.61378 0.0
C244 C 0.75558 0.82418 0.63472 0.0
C245 C 0.75817 0.85313 0.64416 0.0
H246 H 0.7535 0.97881 0.61626 0.0
C247 C 0.72923 0.83578 0.60571 0.0
C248 C 0.74125 0.85924 0.62353 0.0
H249 H 0.79126 0.95894 0.68202 0.0
H250 H 0.76919 0.90766 0.66909 0.0
H251 H 0.77439 0.94939 0.57835 0.0
H252 H 0.68869 0.91222 0.61559 0.0
H253 H 0.68195 0.89991 0.5838 0.0
H254 H 0.7006 0.9398 0.59057 0.0
H255 H 0.74614 0.95756 0.56787 0.0
H256 H 0.74808 0.92555 0.55609 0.0
C257 C 0.79197 0.87759 0.64533 0.0
C258 C 0.74136 0.84644 0.67001 0.0
C259 C 0.68949 0.8299 0.5164 0.0
C260 C 0.68441 0.85 0.50187 0.0
C261 C 0.68827 0.87656 0.51325 0.0
C262 C 0.6974 0.88323 0.5386 0.0
C263 C 0.70333 0.86345 0.55263 0.0
C264 C 0.69893 0.83706 0.54164 0.0
C265 C 0.70668 0.81891 0.55937 0.0
C266 C 0.71672 0.83905 0.58275 0.0
C267 C 0.71499 0.86523 0.57853 0.0
C268 C 0.73268 0.81636 0.54697 0.0
C269 C 0.67799 0.78808 0.56465 0.0
C270 C 0.75737 0.9636 0.62781 0.0
C271 C 0.77467 0.97361 0.65019 0.0
C272 C 0.77797 0.95237 0.66489 0.0
C273 C 0.76535 0.92239 0.65723 0.0
C274 C 0.7502 0.91344 0.63404 0.0
C275 C 0.74554 0.93352 0.62005 0.0
C276 C 0.72958 0.91983 0.59546 0.0
C277 C 0.72629 0.88863 0.59693 0.0
C278 C 0.7387 0.88526 0.61951 0.0
C279 C 0.75031 0.93899 0.57317 0.0
C280 C 0.69862 0.91794 0.59614 0.0
H281 H 0.71436 0.77445 0.58867 0.0
H282 H 0.78693 0.82065 0.65916 0.0
H283 H 0.72069 0.82381 0.6699 0.0
H284 H 0.73341 0.86241 0.67432 0.0
H285 H 0.75565 0.84665 0.68584 0.0
H286 H 0.80563 0.8726 0.63188 0.0
H287 H 0.80115 0.87906 0.66467 0.0
H288 H 0.79652 0.90019 0.63946 0.0
H289 H 0.68675 0.8093 0.50814 0.0
H290 H 0.68395 0.89206 0.50256 0.0
H291 H 0.7 0.90382 0.54621 0.0
H292 H 0.75042 0.83875 0.53977 0.0
H293 H 0.72447 0.80054 0.53065 0.0
H294 H 0.74408 0.80871 0.56008 0.0
H295 H 0.65724 0.78915 0.56127 0.0
H296 H 0.67629 0.78095 0.58478 0.0
H297 H 0.67705 0.77011 0.55221 0.0
H298 H 0.73889 0.74874 0.6048 0.0
C299 C 0.73008 0.78509 0.60377 0.0
C300 C 0.04282 0.81091 0.65016 0.0
C301 C 0.01859 0.78554 0.63915 0.0
C302 C 0.02312 0.77387 0.61635 0.0
C303 C 0.07451 0.81504 0.61415 0.0
C304 C 0.07041 0.82548 0.63724 0.0
C305 C 0.09702 0.85525 0.64441 0.0
H306 H 0.22955 0.97497 0.6104 0.0
C307 C 0.1045 0.83733 0.60416 0.0
C308 C 0.11778 0.86088 0.62193 0.0
H309 H 0.17067 0.96745 0.67286 0.0
H310 H 0.13993 0.91468 0.6645 0.0
H311 H 0.22165 0.90672 0.61265 0.0
H312 H 0.18031 0.95049 0.57466 0.0
H313 H 0.17758 0.92345 0.55309 0.0
H314 H 0.21418 0.95298 0.56284 0.0
H315 H 0.23923 0.93365 0.58736 0.0
H316 H 0.21558 0.89388 0.581 0.0
C317 C 0.11034 0.85093 0.66926 0.0
C318 C 0.08675 0.87903 0.64624 0.0
C319 C 0.13568 0.82877 0.51385 0.0
C320 C 0.16117 0.84784 0.49898 0.0
C321 C 0.18525 0.8732 0.5104 0.0
C322 C 0.18374 0.87989 0.53598 0.0
C323 C 0.1576 0.86144 0.55023 0.0
C324 C 0.1344 0.83595 0.53935 0.0
C325 C 0.10838 0.8191 0.55749 0.0
C326 C 0.11947 0.83936 0.58077 0.0
C327 C 0.1482 0.86415 0.5762 0.0
C328 C 0.10491 0.78776 0.56275 0.0
C329 C 0.08034 0.81789 0.54559 0.0
C330 C 0.20971 0.96276 0.6221 0.0
C331 C 0.20255 0.97682 0.64175 0.0
C332 C 0.17722 0.9583 0.65723 0.0
C333 C 0.15879 0.92741 0.65211 0.0
C334 C 0.16461 0.915 0.63054 0.0
C335 C 0.19001 0.93259 0.61621 0.0
C336 C 0.19088 0.91739 0.59212 0.0
C337 C 0.16168 0.88769 0.59426 0.0
C338 C 0.14656 0.88616 0.61696 0.0
C339 C 0.21835 0.91276 0.59307 0.0
C340 C 0.19096 0.93695 0.5694 0.0
H341 H 0.05301 0.77861 0.58647 0.0
H342 H 0.03985 0.82031 0.66764 0.0
H343 H 0.06521 0.87164 0.63621 0.0
H344 H 0.10266 0.90064 0.63688 0.0
H345 H 0.08342 0.88341 0.66634 0.0
H346 H 0.11259 0.83045 0.66808 0.0
H347 H 0.0956 0.84805 0.68578 0.0
H348 H 0.13307 0.86999 0.67311 0.0
H349 H 0.1167 0.80916 0.50561 0.0
H350 H 0.2053 0.88788 0.49952 0.0
H351 H 0.20273 0.89963 0.54352 0.0
H352 H 0.12725 0.78941 0.56394 0.0
H353 H 0.0922 0.77163 0.54732 0.0
H354 H 0.09386 0.77804 0.58117 0.0
H355 H 0.08649 0.8396 0.53593 0.0
H356 H 0.06309 0.81469 0.55968 0.0
H357 H 0.06997 0.79967 0.5312 0.0
H358 H 0.00482 0.75383 0.6079 0.0
C359 C 0.05106 0.78827 0.60395 0.0
C360 C 0.88213 0.50971 0.69412 0.0
C361 C 0.88471 0.53622 0.70465 0.0
C362 C 0.90396 0.54922 0.72573 0.0
C363 C 0.91331 0.50733 0.72743 0.0
C364 C 0.89689 0.49607 0.70546 0.0
C365 C 0.89474 0.46696 0.69725 0.0
H366 H 0.9093 0.34756 0.72811 0.0
C367 C 0.9219 0.48535 0.73651 0.0
C368 C 0.91108 0.46169 0.71877 0.0
H369 H 0.85952 0.35646 0.66563 0.0
H370 H 0.88063 0.409 0.6752 0.0
H371 H 0.96927 0.41495 0.72635 0.0
H372 H 0.88413 0.37191 0.76465 0.0
H373 H 0.9085 0.39849 0.78638 0.0
H374 H 0.91516 0.36876 0.77605 0.0
H375 H 0.95978 0.38822 0.75178 0.0
H376 H 0.97617 0.4281 0.75789 0.0
C377 C 0.91212 0.47265 0.67186 0.0
C378 C 0.86104 0.44224 0.69577 0.0
C379 C 0.96286 0.49317 0.82592 0.0
C380 C 0.96933 0.47388 0.8403 0.0
C381 C 0.96731 0.44824 0.82864 0.0
C382 C 0.95856 0.44162 0.80322 0.0
C383 C 0.95109 0.46046 0.78941 0.0
C384 C 0.9538 0.48605 0.80059 0.0
C385 C 0.94483 0.50332 0.78286 0.0
C386 C 0.93526 0.48318 0.75948 0.0
C387 C 0.93895 0.45814 0.76364 0.0
C388 C 0.9728 0.53452 0.77745 0.0
C389 C 0.91835 0.50491 0.7953 0.0
C390 C 0.90192 0.36012 0.71667 0.0
C391 C 0.88147 0.34665 0.69661 0.0
C392 C 0.87473 0.36537 0.68149 0.0
C393 C 0.88667 0.39604 0.68729 0.0
C394 C 0.9043 0.4079 0.70913 0.0
C395 C 0.91203 0.39007 0.72309 0.0
C396 C 0.92797 0.40487 0.74721 0.0
C397 C 0.92868 0.43473 0.74544 0.0
C398 C 0.91495 0.43651 0.72307 0.0
C399 C 0.95995 0.40917 0.74601 0.0
C400 C 0.90828 0.38512 0.76985 0.0
H401 H 0.93175 0.54549 0.75351 0.0
H402 H 0.86788 0.49868 0.67801 0.0
H403 H 0.84637 0.44866 0.7064 0.0
H404 H 0.85633 0.42072 0.70468 0.0
H405 H 0.85313 0.43795 0.67578 0.0
H406 H 0.93434 0.49372 0.67289 0.0
H407 H 0.8995 0.47521 0.65591 0.0
H408 H 0.91686 0.45442 0.66719 0.0
H409 H 0.9641 0.51302 0.8344 0.0
H410 H 0.97266 0.43337 0.83916 0.0
H411 H 0.95735 0.4217 0.79548 0.0
H412 H 0.99351 0.53285 0.77679 0.0
H413 H 0.97582 0.551 0.7925 0.0
H414 H 0.9719 0.5438 0.75872 0.0
H415 H 0.90173 0.48261 0.8035 0.0
H416 H 0.90567 0.51062 0.78183 0.0
H417 H 0.92635 0.52171 0.81092 0.0
H418 H 0.90811 0.57047 0.73361 0.0
C419 C 0.9181 0.53489 0.73718 0.0
C420 C 0.62251 0.51272 0.68698 0.0
C421 C 0.6462 0.53834 0.69829 0.0
C422 C 0.64041 0.55109 0.71977 0.0
C423 C 0.58924 0.50975 0.72133 0.0
C424 C 0.59417 0.49871 0.69888 0.0
C425 C 0.56752 0.4689 0.69167 0.0
H426 H 0.43796 0.34598 0.72846 0.0
C427 C 0.55943 0.48731 0.73148 0.0
C428 C 0.54655 0.46331 0.71403 0.0
H429 H 0.48894 0.35726 0.65988 0.0
H430 H 0.52239 0.41015 0.67003 0.0
H431 H 0.48821 0.37336 0.76249 0.0
H432 H 0.44171 0.4123 0.72592 0.0
H433 H 0.44976 0.42783 0.7566 0.0
H434 H 0.42713 0.38741 0.75283 0.0
H435 H 0.45483 0.37043 0.77595 0.0
H436 H 0.49171 0.4009 0.78392 0.0
C437 C 0.57771 0.4451 0.69 0.0
C438 C 0.55441 0.4733 0.66671 0.0
C439 C 0.5278 0.49601 0.8221 0.0
C440 C 0.50271 0.47598 0.837 0.0
C441 C 0.47989 0.44947 0.82599 0.0
C442 C 0.48197 0.4426 0.80069 0.0
C443 C 0.50752 0.46203 0.78626 0.0
C444 C 0.52981 0.48847 0.79675 0.0
C445 C 0.55546 0.50585 0.77828 0.0
C446 C 0.54479 0.48511 0.75515 0.0
C447 C 0.51686 0.4595 0.76029 0.0
C448 C 0.58411 0.50841 0.79014 0.0
C449 C 0.55773 0.53661 0.77269 0.0
C450 C 0.45632 0.3599 0.71561 0.0
C451 C 0.46146 0.34757 0.69377 0.0
C452 C 0.48528 0.3663 0.67728 0.0
C453 C 0.50451 0.39687 0.68317 0.0
C454 C 0.50029 0.40838 0.70614 0.0
C455 C 0.47604 0.39005 0.72154 0.0
C456 C 0.47547 0.4052 0.74566 0.0
C457 C 0.50373 0.43558 0.7426 0.0
C458 C 0.51826 0.43748 0.71948 0.0
C459 C 0.47744 0.38663 0.76827 0.0
C460 C 0.44699 0.40825 0.74552 0.0
H461 H 0.60918 0.54742 0.74792 0.0
H462 H 0.62648 0.50261 0.67042 0.0
H463 H 0.55391 0.49476 0.66718 0.0
H464 H 0.53095 0.45534 0.6636 0.0
H465 H 0.56824 0.47431 0.65006 0.0
H466 H 0.59672 0.4507 0.70305 0.0
H467 H 0.58524 0.44385 0.67044 0.0
H468 H 0.56021 0.42234 0.69608 0.0
H469 H 0.54565 0.51667 0.83016 0.0
H470 H 0.46018 0.43412 0.83697 0.0
H471 H 0.46375 0.42201 0.79357 0.0
H472 H 0.57907 0.48657 0.79891 0.0
H473 H 0.59313 0.52586 0.80525 0.0
H474 H 0.60212 0.51368 0.77623 0.0
H475 H 0.5351 0.53437 0.77259 0.0
H476 H 0.56728 0.54562 0.75368 0.0
H477 H 0.57129 0.55357 0.78734 0.0
H478 H 0.65837 0.57127 0.72838 0.0
C479 C 0.61197 0.53712 0.73119 0.0
C480 C 0.62131 0.1009 0.68725 0.0
C481 C 0.64519 0.09955 0.6986 0.0
C482 C 0.64037 0.08418 0.72194 0.0
C483 C 0.58922 0.07448 0.72352 0.0
C484 C 0.5937 0.08855 0.70012 0.0
C485 C 0.56711 0.09117 0.69213 0.0
H486 H 0.43882 0.08707 0.72543 0.0
C487 C 0.55915 0.06702 0.73304 0.0
C488 C 0.54614 0.0768 0.71468 0.0
H489 H 0.49065 0.12311 0.65644 0.0
H490 H 0.52226 0.1025 0.66824 0.0
H491 H 0.4427 0.02127 0.72619 0.0
H492 H 0.48759 0.1093 0.76014 0.0
H493 H 0.48926 0.08521 0.7828 0.0
H494 H 0.45318 0.07933 0.77304 0.0
H495 H 0.42579 0.03386 0.74943 0.0
H496 H 0.44771 0.01692 0.75872 0.0
C497 C 0.55404 0.0724 0.66767 0.0
C498 C 0.57756 0.12521 0.68924 0.0
C499 C 0.52705 0.02704 0.82303 0.0
C500 C 0.50348 0.02395 0.8389 0.0
C501 C 0.48022 0.02705 0.82797 0.0
C502 C 0.48133 0.03474 0.8022 0.0
C503 C 0.50624 0.04002 0.78722 0.0
C504 C 0.5283 0.0356 0.79758 0.0
C505 C 0.55421 0.0444 0.77953 0.0
C506 C 0.54398 0.05471 0.7565 0.0
C507 C 0.51587 0.05205 0.76115 0.0
C508 C 0.5564 0.01597 0.77368 0.0
C509 C 0.58277 0.07058 0.79179 0.0
C510 C 0.4568 0.0902 0.71273 0.0
C511 C 0.46293 0.10744 0.69038 0.0
C512 C 0.48589 0.11032 0.67396 0.0
C513 C 0.50428 0.09853 0.68097 0.0
C514 C 0.49972 0.08398 0.70469 0.0
C515 C 0.47548 0.07892 0.7196 0.0
C516 C 0.47455 0.06413 0.74457 0.0
C517 C 0.50289 0.06216 0.74265 0.0
C518 C 0.51761 0.07389 0.71932 0.0
C519 C 0.44614 0.03241 0.74501 0.0
C520 C 0.47601 0.08528 0.76638 0.0
H521 H 0.61015 0.06003 0.75207 0.0
H522 H 0.62448 0.11257 0.66931 0.0
H523 H 0.59593 0.13909 0.70275 0.0
H524 H 0.55987 0.13059 0.69388 0.0
H525 H 0.58611 0.13342 0.66973 0.0
H526 H 0.55465 0.05101 0.66869 0.0
H527 H 0.56716 0.08507 0.65063 0.0
H528 H 0.53018 0.06535 0.66482 0.0
H529 H 0.54499 0.0241 0.83044 0.0
H530 H 0.4618 0.02491 0.83954 0.0
H531 H 0.46334 0.03753 0.79522 0.0
H532 H 0.53366 -0.00405 0.77114 0.0
H533 H 0.56742 0.01087 0.78948 0.0
H534 H 0.56861 0.018 0.75579 0.0
H535 H 0.57712 0.085 0.80372 0.0
H536 H 0.59907 0.08634 0.77773 0.0
H537 H 0.59409 0.06181 0.8042 0.0
H538 H 0.65838 0.08236 0.73071 0.0
C539 C 0.6124 0.0713 0.7343 0.0
C540 C 0.84831 0.55855 0.9874 0.0
C541 C 0.87361 0.55948 0.97635 0.0
C542 C 0.88568 0.57589 0.95365 0.0
C543 C 0.84499 0.5865 0.95136 0.0
C544 C 0.83424 0.57206 0.97448 0.0
C545 C 0.80515 0.5703 0.98187 0.0
H546 H 0.68275 0.5747 0.94483 0.0
C547 C 0.82311 0.59433 0.94112 0.0
C548 C 0.79975 0.58505 0.95896 0.0
H549 H 0.69706 0.54099 0.01558 0.0
H550 H 0.74946 0.56149 0.00463 0.0
H551 H 0.75261 0.64091 0.94503 0.0
H552 H 0.71311 0.55292 0.9105 0.0
H553 H 0.73682 0.57926 0.88776 0.0
H554 H 0.705 0.58125 0.89955 0.0
H555 H 0.7243 0.62855 0.92098 0.0
H556 H 0.76354 0.64537 0.91282 0.0
C557 C 0.81058 0.58927 0.00622 0.0
C558 C 0.78093 0.53646 0.98469 0.0
C559 C 0.83587 0.63334 0.85045 0.0
C560 C 0.81847 0.64074 0.83492 0.0
C561 C 0.7919 0.63844 0.84488 0.0
C562 C 0.78257 0.62844 0.86988 0.0
C563 C 0.80004 0.62073 0.88517 0.0
C564 C 0.82645 0.62378 0.8755 0.0
C565 C 0.84244 0.61512 0.89455 0.0
C566 C 0.82114 0.60596 0.91714 0.0
C567 C 0.7962 0.60907 0.91152 0.0
C568 C 0.87305 0.6435 0.90045 0.0
C569 C 0.84458 0.5882 0.88343 0.0
C570 C 0.69731 0.57197 0.95803 0.0
C571 C 0.68572 0.55539 0.9807 0.0
C572 C 0.70543 0.55323 0.99784 0.0
C573 C 0.73575 0.56497 0.99134 0.0
C574 C 0.74626 0.57873 0.9674 0.0
C575 C 0.72751 0.58333 0.95171 0.0
C576 C 0.74238 0.59807 0.92689 0.0
C577 C 0.77255 0.59979 0.92962 0.0
C578 C 0.77463 0.58841 0.9534 0.0
C579 C 0.74581 0.62986 0.92612 0.0
C580 C 0.72345 0.57708 0.90489 0.0
H581 H 0.88172 0.60142 0.92383 0.0
H582 H 0.83882 0.54629 0.00497 0.0
H583 H 0.78522 0.52227 0.97123 0.0
H584 H 0.75814 0.53164 0.97995 0.0
H585 H 0.78073 0.5281 0.00422 0.0
H586 H 0.83318 0.60992 0.00573 0.0
H587 H 0.80936 0.57619 0.02349 0.0
H588 H 0.79467 0.59768 0.00828 0.0
H589 H 0.85657 0.63532 0.84334 0.0
H590 H 0.77818 0.64411 0.83315 0.0
H591 H 0.76197 0.62677 0.87624 0.0
H592 H 0.87114 0.66421 0.9002 0.0
H593 H 0.89035 0.64663 0.88618 0.0
H594 H 0.88128 0.64291 0.91969 0.0
H595 H 0.82453 0.57341 0.87179 0.0
H596 H 0.84494 0.573 0.89809 0.0
H597 H 0.86467 0.59622 0.871 0.0
H598 H 0.90572 0.57757 0.94526 0.0
C599 C 0.87172 0.58969 0.94126 0.0
C600 C 0.4368 0.14367 0.97772 0.0
C601 C 0.43294 0.11708 0.96628 0.0
C602 C 0.41241 0.10446 0.94606 0.0
C603 C 0.40406 0.14691 0.94669 0.0
C604 C 0.42167 0.15769 0.96803 0.0
C605 C 0.42405 0.18642 0.97761 0.0
H606 H 0.41994 0.31197 0.94999 0.0
C607 C 0.39587 0.16944 0.93881 0.0
C608 C 0.40731 0.19256 0.95695 0.0
H609 H 0.46013 0.29279 0.01444 0.0
H610 H 0.43612 0.24107 0.00251 0.0
H611 H 0.44002 0.28102 0.91176 0.0
H612 H 0.35468 0.24546 0.94993 0.0
H613 H 0.34772 0.23335 0.9181 0.0
H614 H 0.36648 0.27321 0.92506 0.0
H615 H 0.41332 0.29231 0.90342 0.0
H616 H 0.41229 0.25975 0.88947 0.0
C617 C 0.45785 0.21102 0.97908 0.0
C618 C 0.40698 0.17942 0.00334 0.0
C619 C 0.35661 0.16405 0.8496 0.0
C620 C 0.35052 0.18359 0.83529 0.0
C621 C 0.35345 0.20967 0.84694 0.0
C622 C 0.36258 0.21634 0.87233 0.0
C623 C 0.36947 0.19708 0.8861 0.0
C624 C 0.36588 0.17112 0.87485 0.0
C625 C 0.37399 0.15313 0.89237 0.0
C626 C 0.38343 0.17287 0.91592 0.0
C627 C 0.38114 0.19879 0.91203 0.0
C628 C 0.40047 0.15139 0.87999 0.0
C629 C 0.34561 0.12196 0.89734 0.0
C630 C 0.42416 0.29695 0.96143 0.0
C631 C 0.44286 0.30742 0.98302 0.0
C632 C 0.44607 0.28613 0.99779 0.0
C633 C 0.43234 0.25584 0.99065 0.0
C634 C 0.41631 0.24663 0.96785 0.0
C635 C 0.41158 0.26672 0.95401 0.0
C636 C 0.39538 0.25313 0.92948 0.0
C637 C 0.3921 0.22194 0.93069 0.0
C638 C 0.40454 0.21846 0.95322 0.0
C639 C 0.416 0.27246 0.90724 0.0
C640 C 0.36448 0.2513 0.93044 0.0
H641 H 0.38321 0.10893 0.92047 0.0
H642 H 0.45204 0.15424 0.99339 0.0
H643 H 0.38589 0.15716 0.00274 0.0
H644 H 0.39982 0.19591 0.00809 0.0
H645 H 0.42082 0.17858 0.0191 0.0
H646 H 0.47225 0.2051 0.96747 0.0
H647 H 0.46617 0.21431 0.99892 0.0
H648 H 0.46257 0.233 0.97121 0.0
H649 H 0.3547 0.14385 0.8412 0.0
H650 H 0.34834 0.22475 0.83648 0.0
H651 H 0.36437 0.2365 0.88019 0.0
H652 H 0.41744 0.17378 0.87217 0.0
H653 H 0.39252 0.13496 0.8641 0.0
H654 H 0.41284 0.14514 0.89331 0.0
H655 H 0.32468 0.12292 0.8947 0.0
H656 H 0.34432 0.11415 0.91719 0.0
H657 H 0.34464 0.10455 0.88417 0.0
H658 H 0.40738 0.08314 0.93772 0.0
C659 C 0.39798 0.11923 0.93624 0.0
C660 C 0.7087 0.14397 0.98245 0.0
C661 C 0.68475 0.11824 0.97147 0.0
C662 C 0.68991 0.10635 0.94907 0.0
C663 C 0.74114 0.14791 0.94708 0.0
C664 C 0.73657 0.15856 0.96986 0.0
C665 C 0.76316 0.18838 0.97711 0.0
H666 H 0.89595 0.30843 0.94321 0.0
C667 C 0.77126 0.17017 0.93727 0.0
C668 C 0.7843 0.1939 0.95491 0.0
H669 H 0.83739 0.30068 0.00597 0.0
H670 H 0.80627 0.24794 0.99731 0.0
H671 H 0.88917 0.24145 0.94639 0.0
H672 H 0.84585 0.28229 0.90703 0.0
H673 H 0.84517 0.25597 0.88567 0.0
H674 H 0.88078 0.28641 0.89625 0.0
H675 H 0.9059 0.26678 0.91997 0.0
H676 H 0.88233 0.22659 0.91543 0.0
C677 C 0.77611 0.18415 0.00221 0.0
C678 C 0.75298 0.21224 0.97853 0.0
C679 C 0.80258 0.16239 0.84689 0.0
C680 C 0.82812 0.18159 0.83209 0.0
C681 C 0.85267 0.2061 0.844 0.0
C682 C 0.85124 0.21229 0.86972 0.0
C683 C 0.82486 0.19405 0.88373 0.0
C684 C 0.80152 0.16892 0.87261 0.0
C685 C 0.77547 0.15193 0.89069 0.0
C686 C 0.78648 0.17209 0.91405 0.0
C687 C 0.81531 0.1968 0.90962 0.0
C688 C 0.77214 0.12062 0.89586 0.0
C689 C 0.74738 0.15063 0.8788 0.0
C690 C 0.87613 0.29609 0.95493 0.0
C691 C 0.86922 0.31001 0.97486 0.0
C692 C 0.84379 0.29151 0.99025 0.0
C693 C 0.82518 0.26067 0.98498 0.0
C694 C 0.831 0.24827 0.9634 0.0
C695 C 0.85641 0.26589 0.94906 0.0
C696 C 0.85756 0.25045 0.92522 0.0
C697 C 0.8285 0.22059 0.9275 0.0
C698 C 0.81312 0.21922 0.95 0.0
C699 C 0.88526 0.24619 0.92656 0.0
C700 C 0.85756 0.26962 0.90225 0.0
H701 H 0.72042 0.11096 0.9198 0.0
H702 H 0.70536 0.15354 0.99967 0.0
H703 H 0.73179 0.205 0.96796 0.0
H704 H 0.76924 0.23392 0.96946 0.0
H705 H 0.74902 0.21645 0.9985 0.0
H706 H 0.77824 0.16359 0.00132 0.0
H707 H 0.76121 0.18148 0.01855 0.0
H708 H 0.79885 0.20315 0.00614 0.0
H709 H 0.78321 0.14337 0.83845 0.0
H710 H 0.87291 0.22077 0.83335 0.0
H711 H 0.8704 0.23167 0.8775 0.0
H712 H 0.7945 0.12226 0.89663 0.0
H713 H 0.75906 0.10437 0.88061 0.0
H714 H 0.76156 0.11105 0.91446 0.0
H715 H 0.75341 0.17249 0.8695 0.0
H716 H 0.72989 0.14686 0.89282 0.0
H717 H 0.73733 0.13272 0.86413 0.0
H718 H 0.67193 0.08603 0.94067 0.0
C719 C 0.71804 0.12083 0.937 0.0
C720 C 0.54824 0.84203 0.0305 0.0
C721 C 0.55106 0.86851 0.04134 0.0
C722 C 0.57225 0.88254 0.06104 0.0
C723 C 0.58214 0.84107 0.06172 0.0
C724 C 0.56433 0.82917 0.04058 0.0
C725 C 0.56229 0.80021 0.03204 0.0
H726 H 0.57668 0.6808 0.06259 0.0
C727 C 0.5912 0.81938 0.07035 0.0
C728 C 0.57972 0.79543 0.0529 0.0
H729 H 0.52696 0.69015 1.00024 0.0
H730 H 0.54863 0.74271 0.00967 0.0
H731 H 0.63705 0.7473 0.06029 0.0
H732 H 0.55238 0.70694 0.09938 0.0
H733 H 0.57789 0.73281 0.12092 0.0
H734 H 0.58267 0.70209 0.11008 0.0
H735 H 0.62752 0.72114 0.08618 0.0
H736 H 0.64462 0.76124 0.09157 0.0
C737 C 0.57881 0.80611 0.00617 0.0
C738 C 0.52866 0.77511 0.0313 0.0
C739 C 0.63086 0.82694 0.15987 0.0
C740 C 0.63682 0.8075 0.17453 0.0
C741 C 0.63575 0.7823 0.16278 0.0
C742 C 0.62786 0.77598 0.13716 0.0
C743 C 0.62046 0.79474 0.1232 0.0
C744 C 0.62284 0.82021 0.13434 0.0
C745 C 0.6141 0.83752 0.11652 0.0
C746 C 0.60477 0.81737 0.09318 0.0
C747 C 0.6084 0.79232 0.09739 0.0
C748 C 0.64217 0.86872 0.11122 0.0
C749 C 0.58753 0.83912 0.12881 0.0
C750 C 0.5694 0.69345 0.05115 0.0
C751 C 0.54888 0.68008 0.03111 0.0
C752 C 0.54228 0.69895 0.01603 0.0
C753 C 0.55457 0.72965 0.02173 0.0
C754 C 0.57236 0.74146 0.04348 0.0
C755 C 0.57991 0.72351 0.05746 0.0
C756 C 0.5963 0.73848 0.0814 0.0
C757 C 0.5976 0.76861 0.07941 0.0
C758 C 0.58357 0.77026 0.05718 0.0
C759 C 0.62801 0.74214 0.08005 0.0
C760 C 0.57666 0.71922 0.10424 0.0
H761 H 0.6026 0.88013 0.08679 0.0
H762 H 0.53286 0.83033 0.01521 0.0
H763 H 0.5141 0.78134 0.04231 0.0
H764 H 0.52452 0.75381 0.04024 0.0
H765 H 0.52012 0.77048 0.0115 0.0
H766 H 0.60085 0.82744 0.00675 0.0
H767 H 0.56542 0.80828 0.99068 0.0
H768 H 0.58388 0.78819 0.00112 0.0
H769 H 0.63132 0.84644 0.16831 0.0
H770 H 0.64084 0.76733 0.17344 0.0
H771 H 0.62697 0.75618 0.12942 0.0
H772 H 0.66308 0.86742 0.11201 0.0
H773 H 0.64424 0.88565 0.12547 0.0
H774 H 0.64217 0.87727 0.09191 0.0
H775 H 0.57063 0.8167 0.13661 0.0
H776 H 0.57523 0.84539 0.11544 0.0
H777 H 0.59537 0.85557 0.14469 0.0
H778 H 0.57699 0.90401 0.06882 0.0
C779 C 0.58763 0.86891 0.0713 0.0
C780 C 0.28798 0.84576 0.0195 0.0
C781 C 0.31146 0.87165 0.03075 0.0
C782 C 0.30539 0.88448 0.05199 0.0
C783 C 0.25447 0.84277 0.05358 0.0
C784 C 0.25953 0.83163 0.03128 0.0
C785 C 0.23276 0.8018 0.02404 0.0
H786 H 0.10919 0.6773 0.06658 0.0
C787 C 0.22474 0.82036 0.06375 0.0
C788 C 0.21168 0.79622 0.04641 0.0
H789 H 0.15277 0.68932 0.99336 0.0
H790 H 0.18445 0.74254 0.002 0.0
H791 H 0.1567 0.70815 0.0981 0.0
H792 H 0.107 0.7421 0.05935 0.0
H793 H 0.11536 0.75977 0.08915 0.0
H794 H 0.0937 0.71904 0.0874 0.0
H795 H 0.12278 0.70437 0.11116 0.0
H796 H 0.15912 0.73606 0.11848 0.0
C797 C 0.24297 0.7781 0.02233 0.0
C798 C 0.21981 0.80624 0.99902 0.0
C799 C 0.19521 0.82965 0.15486 0.0
C800 C 0.16994 0.81036 0.16992 0.0
C801 C 0.14643 0.78423 0.15896 0.0
C802 C 0.14812 0.77699 0.13367 0.0
C803 C 0.17386 0.7957 0.11914 0.0
C804 C 0.19664 0.82188 0.12949 0.0
C805 C 0.22196 0.83904 0.11073 0.0
C806 C 0.21055 0.81835 0.08758 0.0
C807 C 0.18272 0.79286 0.09306 0.0
C808 C 0.25063 0.84105 0.12204 0.0
C809 C 0.22458 0.87007 0.10551 0.0
C810 C 0.12496 0.69095 0.05192 0.0
C811 C 0.12902 0.67809 0.02974 0.0
C812 C 0.15007 0.6978 0.01142 0.0
C813 C 0.16835 0.72887 0.01629 0.0
C814 C 0.16562 0.74052 0.0397 0.0
C815 C 0.14298 0.72185 0.05626 0.0
C816 C 0.14214 0.7378 0.07978 0.0
C817 C 0.16955 0.76857 0.07571 0.0
C818 C 0.18347 0.77028 0.05225 0.0
C819 C 0.14512 0.72086 0.10318 0.0
C820 C 0.11299 0.73968 0.07918 0.0
H821 H 0.27405 0.88067 0.07997 0.0
H822 H 0.29219 0.8357 0.00304 0.0
H823 H 0.21958 0.82785 0.99936 0.0
H824 H 0.19627 0.78847 0.99599 0.0
H825 H 0.23356 0.80695 0.98241 0.0
H826 H 0.25913 0.78158 0.03772 0.0
H827 H 0.25425 0.77981 0.00384 0.0
H828 H 0.22459 0.75473 0.02484 0.0
H829 H 0.21363 0.85003 0.16275 0.0
H830 H 0.12649 0.76945 0.16992 0.0
H831 H 0.12952 0.7566 0.12662 0.0
H832 H 0.24551 0.81889 0.13014 0.0
H833 H 0.25979 0.85796 0.13756 0.0
H834 H 0.26858 0.8468 0.10796 0.0
H835 H 0.20247 0.86879 0.10767 0.0
H836 H 0.23169 0.878 0.08577 0.0
H837 H 0.24037 0.88747 0.11893 0.0
H838 H 0.32317 0.90483 0.06056 0.0
C839 C 0.27697 0.87034 0.06332 0.0
C840 C 0.28806 0.43555 0.02051 0.0
C841 C 0.31196 0.43431 0.03198 0.0
C842 C 0.3069 0.41855 0.05516 0.0
C843 C 0.25565 0.40856 0.05648 0.0
C844 C 0.26029 0.42283 0.03315 0.0
C845 C 0.23366 0.42526 0.02499 0.0
H846 H 0.10538 0.42136 0.05782 0.0
C847 C 0.22549 0.40098 0.06589 0.0
C848 C 0.21256 0.41078 0.04743 0.0
H849 H 0.15707 0.4568 0.9887 0.0
H850 H 0.18862 0.43614 0.00066 0.0
H851 H 0.10891 0.35553 0.05877 0.0
H852 H 0.15344 0.4436 0.09233 0.0
H853 H 0.15646 0.42028 0.11496 0.0
H854 H 0.11977 0.41335 0.10595 0.0
H855 H 0.09222 0.36818 0.08216 0.0
H856 H 0.11411 0.35112 0.09122 0.0
C857 C 0.22084 0.40648 0.00049 0.0
C858 C 0.24392 0.45926 0.02206 0.0
C859 C 0.19238 0.36094 0.15596 0.0
C860 C 0.16856 0.35787 0.17156 0.0
C861 C 0.14581 0.36159 0.16035 0.0
C862 C 0.14739 0.36941 0.13462 0.0
C863 C 0.17234 0.37438 0.11989 0.0
C864 C 0.19413 0.36972 0.13049 0.0
C865 C 0.22019 0.37838 0.11256 0.0
C866 C 0.21023 0.38875 0.08935 0.0
C867 C 0.18216 0.38626 0.09385 0.0
C868 C 0.22234 0.3499 0.10688 0.0
C869 C 0.24869 0.40447 0.12494 0.0
C870 C 0.1233 0.42433 0.04511 0.0
C871 C 0.12943 0.44143 0.02268 0.0
C872 C 0.15231 0.44412 0.00627 0.0
C873 C 0.17067 0.43231 0.01337 0.0
C874 C 0.16615 0.41794 0.03718 0.0
C875 C 0.14193 0.41303 0.05207 0.0
C876 C 0.14097 0.39838 0.07709 0.0
C877 C 0.16926 0.3963 0.07524 0.0
C878 C 0.18402 0.40789 0.05192 0.0
C879 C 0.11251 0.36667 0.0776 0.0
C880 C 0.14253 0.4197 0.09881 0.0
H881 H 0.27634 0.39376 0.08494 0.0
H882 H 0.29134 0.44744 0.00268 0.0
H883 H 0.26206 0.47319 0.03574 0.0
H884 H 0.22607 0.46448 0.02644 0.0
H885 H 0.25273 0.46754 0.00262 0.0
H886 H 0.22164 0.38519 0.00155 0.0
H887 H 0.23399 0.41923 0.98349 0.0
H888 H 0.19694 0.39924 0.99755 0.0
H889 H 0.21 0.35758 0.16353 0.0
H890 H 0.12732 0.35971 0.17163 0.0
H891 H 0.12966 0.37249 0.12748 0.0
H892 H 0.1996 0.32993 0.10419 0.0
H893 H 0.23315 0.34475 0.12283 0.0
H894 H 0.23476 0.35193 0.08912 0.0
H895 H 0.24309 0.41936 0.13625 0.0
H896 H 0.26548 0.41976 0.11096 0.0
H897 H 0.25941 0.39562 0.13796 0.0
H898 H 0.32486 0.41666 0.06398 0.0
C899 C 0.27878 0.40534 0.06729 0.0
C900 C 0.51541 0.8917 0.3211 0.0
C901 C 0.54079 0.89258 0.31015 0.0
C902 C 0.55258 0.90863 0.28724 0.0
C903 C 0.51172 0.9191 0.28476 0.0
C904 C 0.50112 0.9049 0.30799 0.0
C905 C 0.47196 0.90308 0.31532 0.0
H906 H 0.3493 0.9075 0.27844 0.0
C907 C 0.48976 0.92693 0.2745 0.0
C908 C 0.46644 0.91774 0.29237 0.0
H909 H 0.36376 0.87374 0.34908 0.0
H910 H 0.41607 0.89406 0.33799 0.0
H911 H 0.41955 0.97384 0.27893 0.0
H912 H 0.38067 0.88626 0.24344 0.0
H913 H 0.40337 0.91361 0.22087 0.0
H914 H 0.3712 0.91406 0.23373 0.0
H915 H 0.39113 0.96174 0.25498 0.0
H916 H 0.43032 0.97849 0.24666 0.0
C917 C 0.47729 0.92207 0.33965 0.0
C918 C 0.44783 0.86923 0.31818 0.0
C919 C 0.50229 0.96518 0.18363 0.0
C920 C 0.48499 0.97254 0.16794 0.0
C921 C 0.45903 0.97143 0.17801 0.0
C922 C 0.44985 0.96204 0.20322 0.0
C923 C 0.46695 0.95384 0.21857 0.0
C924 C 0.4931 0.95631 0.20884 0.0
C925 C 0.50901 0.94762 0.22794 0.0
C926 C 0.4878 0.93869 0.25056 0.0
C927 C 0.46301 0.94212 0.24499 0.0
C928 C 0.53967 0.97596 0.23377 0.0
C929 C 0.51103 0.92056 0.21699 0.0
C930 C 0.36388 0.90471 0.29156 0.0
C931 C 0.35232 0.88818 0.31428 0.0
C932 C 0.37208 0.88594 0.33132 0.0
C933 C 0.40236 0.89758 0.32473 0.0
C934 C 0.41288 0.9114 0.30082 0.0
C935 C 0.39412 0.91609 0.28519 0.0
C936 C 0.40913 0.93112 0.26047 0.0
C937 C 0.4393 0.93275 0.2631 0.0
C938 C 0.44132 0.92117 0.28683 0.0
C939 C 0.41264 0.96294 0.25997 0.0
C940 C 0.39021 0.91047 0.23833 0.0
H941 H 0.54826 0.93361 0.25709 0.0
H942 H 0.50602 0.87968 0.33878 0.0
H943 H 0.45211 0.8551 0.30464 0.0
H944 H 0.42498 0.86434 0.31356 0.0
H945 H 0.44778 0.86087 0.33768 0.0
H946 H 0.49979 0.94284 0.33908 0.0
H947 H 0.47626 0.90908 0.35692 0.0
H948 H 0.46122 0.93026 0.34174 0.0
H949 H 0.52263 0.96643 0.17644 0.0
H950 H 0.4456 0.9774 0.1662 0.0
H951 H 0.42963 0.96113 0.2097 0.0
H952 H 0.53776 -0.00333 0.23372 0.0
H953 H 0.55683 0.97915 0.21932 0.0
H954 H 0.54808 0.97526 0.2529 0.0
H955 H 0.49119 0.90601 0.20503 0.0
H956 H 0.51081 0.90516 0.23175 0.0
H957 H 0.53137 0.92843 0.20491 0.0
H958 H 0.5726 0.91027 0.27883 0.0
C959 C 0.53841 0.92216 0.27466 0.0
C960 C 0.10371 0.47643 0.31113 0.0
C961 C 0.10004 0.45009 0.29923 0.0
C962 C 0.07859 0.43707 0.27969 0.0
C963 C 0.07005 0.47929 0.2807 0.0
C964 C 0.08811 0.49032 0.30182 0.0
C965 C 0.09074 0.51939 0.31103 0.0
H966 H 0.08501 0.64365 0.28008 0.0
C967 C 0.06181 0.50169 0.27257 0.0
C968 C 0.0737 0.52527 0.29035 0.0
H969 H 0.12981 0.629 0.3437 0.0
H970 H 0.10432 0.57643 0.33456 0.0
H971 H 0.1049 0.61595 0.24408 0.0
H972 H 0.02004 0.57656 0.28276 0.0
H973 H 0.01282 0.56458 0.25088 0.0
H974 H 0.03132 0.60438 0.25799 0.0
H975 H 0.0747 0.62035 0.23239 0.0
H976 H 0.07977 0.58939 0.22277 0.0
C977 C 0.12452 0.54396 0.31215 0.0
C978 C 0.07412 0.51313 0.33688 0.0
C979 C 0.02223 0.49565 0.18301 0.0
C980 C 0.01715 0.51581 0.16853 0.0
C981 C 0.0204 0.54201 0.18009 0.0
C982 C 0.02886 0.54828 0.2056 0.0
C983 C 0.035 0.5286 0.21957 0.0
C984 C 0.03124 0.50255 0.2084 0.0
C985 C 0.03934 0.48463 0.22611 0.0
C986 C 0.04898 0.50459 0.24963 0.0
C987 C 0.04662 0.53039 0.2455 0.0
C988 C 0.0657 0.48269 0.21373 0.0
C989 C 0.01091 0.45356 0.2312 0.0
C990 C 0.09041 0.62984 0.29194 0.0
C991 C 0.11135 0.64212 0.31193 0.0
C992 C 0.11488 0.62158 0.32766 0.0
C993 C 0.10021 0.59063 0.32221 0.0
C994 C 0.0829 0.57994 0.30015 0.0
C995 C 0.07735 0.59921 0.28594 0.0
C996 C 0.06069 0.58476 0.26189 0.0
C997 C 0.05776 0.55384 0.2638 0.0
C998 C 0.0708 0.55111 0.28629 0.0
C999 C 0.0807 0.60346 0.23901 0.0
C1000 C 0.02961 0.58255 0.2632 0.0
H1001 H 0.04838 0.44094 0.25501 0.0
H1002 H 0.11928 0.48695 0.32661 0.0
H1003 H 0.05211 0.49178 0.33615 0.0
H1004 H 0.06894 0.53093 0.34211 0.0
H1005 H 0.08746 0.5108 0.35233 0.0
H1006 H 0.13878 0.53777 0.30064 0.0
H1007 H 0.13301 0.54764 0.33196 0.0
H1008 H 0.12916 0.56577 0.30396 0.0
H1009 H 0.01989 0.47529 0.17457 0.0
H1010 H 0.0161 0.55753 0.16942 0.0
H1011 H 0.03094 0.5686 0.21332 0.0
H1012 H 0.08293 0.50512 0.20618 0.0
H1013 H 0.0577 0.46651 0.19765 0.0
H1014 H 0.07774 0.47592 0.22696 0.0
H1015 H 0.99003 0.45457 0.22847 0.0
H1016 H 0.00958 0.4459 0.25111 0.0
H1017 H 0.00988 0.43602 0.21816 0.0
H1018 H 0.07336 0.41572 0.27128 0.0
C1019 C 0.06365 0.4515 0.27042 0.0
C1020 C 0.37627 0.47707 0.3167 0.0
C1021 C 0.35212 0.45174 0.30563 0.0
C1022 C 0.35675 0.4398 0.28305 0.0
C1023 C 0.40815 0.48081 0.28096 0.0
C1024 C 0.40396 0.49145 0.30392 0.0
C1025 C 0.43052 0.52129 0.31097 0.0
H1026 H 0.5625 0.64121 0.27652 0.0
C1027 C 0.43812 0.50304 0.27094 0.0
C1028 C 0.45134 0.52673 0.28857 0.0
H1029 H 0.5035 0.63325 0.33908 0.0
H1030 H 0.47316 0.58058 0.33081 0.0
H1031 H 0.55574 0.57393 0.2793 0.0
H1032 H 0.51266 0.61549 0.24066 0.0
H1033 H 0.51115 0.58888 0.21922 0.0
H1034 H 0.54718 0.61909 0.22932 0.0
H1035 H 0.57257 0.59986 0.25326 0.0
H1036 H 0.54909 0.55978 0.24807 0.0
C1037 C 0.44379 0.51718 0.33595 0.0
C1038 C 0.4202 0.54507 0.31249 0.0
C1039 C 0.46851 0.49511 0.18029 0.0
C1040 C 0.49382 0.51437 0.16531 0.0
C1041 C 0.51837 0.53911 0.17697 0.0
C1042 C 0.51724 0.54533 0.20273 0.0
C1043 C 0.49109 0.52698 0.21696 0.0
C1044 C 0.46769 0.50174 0.20601 0.0
C1045 C 0.4418 0.48479 0.22424 0.0
C1046 C 0.45305 0.50497 0.24755 0.0
C1047 C 0.48181 0.52971 0.24295 0.0
C1048 C 0.43849 0.45349 0.22934 0.0
C1049 C 0.41362 0.48352 0.21256 0.0
C1050 C 0.54272 0.62891 0.28826 0.0
C1051 C 0.53552 0.64285 0.30801 0.0
C1052 C 0.5102 0.62423 0.32346 0.0
C1053 C 0.49196 0.59335 0.31839 0.0
C1054 C 0.49789 0.58099 0.29687 0.0
C1055 C 0.52319 0.59867 0.28246 0.0
C1056 C 0.52421 0.58333 0.2585 0.0
C1057 C 0.4952 0.55345 0.26085 0.0
C1058 C 0.48005 0.55202 0.28349 0.0
C1059 C 0.55192 0.57909 0.25958 0.0
C1060 C 0.52401 0.60255 0.23564 0.0
H1061 H 0.38678 0.44418 0.25345 0.0
H1062 H 0.37313 0.48665 0.334 0.0
H1063 H 0.39858 0.53749 0.30253 0.0
H1064 H 0.43602 0.56653 0.30288 0.0
H1065 H 0.417 0.54978 0.33253 0.0
H1066 H 0.44584 0.49658 0.33504 0.0
H1067 H 0.42912 0.51467 0.35242 0.0
H1068 H 0.46661 0.53615 0.33966 0.0
H1069 H 0.44917 0.47593 0.17198 0.0
H1070 H 0.53839 0.55386 0.16609 0.0
H1071 H 0.53642 0.56481 0.21037 0.0
H1072 H 0.46088 0.45524 0.23042 0.0
H1073 H 0.42579 0.43741 0.21387 0.0
H1074 H 0.42752 0.44365 0.24775 0.0
H1075 H 0.41965 0.50516 0.20285 0.0
H1076 H 0.39652 0.48041 0.22678 0.0
H1077 H 0.40307 0.4652 0.19827 0.0
H1078 H 0.3384 0.41983 0.27455 0.0
C1079 C 0.38477 0.45397 0.27083 0.0
O1080 O 0.45483 0.95722 0.00172 0.0
Mn1081 Mn 0.49784 0.99502 0.00317 0.0
O1082 O 0.43563 0.9663 0.0359 0.0
Mn1083 Mn 0.46346 0.00701 0.03513 0.0
O1084 O 0.54149 0.03417 0.00342 0.0
O1085 O 0.51265 0.96463 0.99812 0.0
Mn1086 Mn 0.5444 0.98694 0.97871 0.0
O1087 O 0.49525 -0.00015 0.96367 0.0
O1088 O 0.57286 0.01692 0.99814 0.0
O1089 O 0.50189 0.98953 0.04355 0.0
O1090 O 0.49082 0.02171 0.06018 0.0
O1091 O 0.54437 0.95237 0.97928 0.0
O1092 O 0.53506 -0.00172 0.94851 0.0
C1093 C 0.46488 0.03768 0.01157 0.0
C1094 C 0.43392 0.9489 0.0182 0.0
C1095 C 0.56819 0.03806 0.00392 0.0
C1096 C 0.52215 0.94537 0.99484 0.0
C1097 C 0.51281 0.00211 0.94532 0.0
C1098 C 0.50238 0.00551 0.06269 0.0
O1099 O 0.48051 0.02443 0.00551 0.0
O1100 O 0.4466 0.0287 0.0309 0.0
O1101 O 0.03661 0.49322 0.00186 0.0
Mn1102 Mn -0.00204 0.49697 0.0039 0.0
O1103 O 0.02954 0.46406 0.03506 0.0
Mn1104 Mn 0.98838 0.44536 0.03395 0.0
O1105 O 0.95961 0.50245 0.00427 0.0
O1106 O 0.02481 0.54268 0.00108 0.0
Mn1107 Mn 0.00803 0.55439 0.97777 0.0
O1108 O 0.99457 0.49042 0.96431 0.0
O1109 O 0.97701 0.55186 0.99677 0.0
O1110 O 0.00049 0.50252 0.04457 0.0
O1111 O 0.97343 0.45594 0.06055 0.0
O1112 O 0.04794 0.58185 0.97684 0.0
O1113 O -0.00344 0.53187 0.94865 0.0
C1114 C 0.9637 0.42446 0.00083 0.0
C1115 C 0.04627 0.48136 0.01777 0.0
C1116 C 0.9562 0.52585 0.0038 0.0
C1117 C 0.05053 0.56515 0.99391 0.0
C1118 C 0.99377 0.50611 0.94566 0.0
C1119 C 0.98656 0.48431 0.06345 0.0
O1120 O 0.96937 0.45123 0.00802 0.0
O1121 O 0.97359 0.41135 0.01575 0.0
O1122 O 0.54102 0.50241 0.00245 0.0
Mn1123 Mn 0.49787 0.49674 0.00107 0.0
O1124 O 0.56193 0.53089 0.96853 0.0
Mn1125 Mn 0.53849 0.54863 0.96937 0.0
O1126 O 0.4544 0.49278 0.0009 0.0
O1127 O 0.48401 0.45052 0.00621 0.0
Mn1128 Mn 0.45159 0.44621 0.02259 0.0
O1129 O 0.50174 0.50466 0.04029 0.0
O1130 O 0.42404 0.44429 1.00015 0.0
O1131 O 0.49449 0.48972 0.96052 0.0
O1132 O 0.51183 0.53574 0.94374 0.0
O1133 O 0.44743 0.41108 0.02919 0.0
O1134 O 0.45745 0.46718 0.05246 0.0
C1135 C 0.53312 0.56849 0.0029 0.0
C1136 C 0.5622 0.51437 0.98611 0.0
C1137 C 0.42813 0.47021 0.99676 0.0
C1138 C 0.47089 0.42219 0.01447 0.0
C1139 C 0.48209 0.49052 0.05761 0.0
C1140 C 0.49789 0.50726 0.94134 0.0
O1141 O 0.51324 0.54162 0.99536 0.0
O1142 O 0.55603 0.58266 0.98791 0.0
O1143 O 0.12182 0.29308 0.33423 0.0
Mn1144 Mn 0.16504 0.33019 0.33704 0.0
O1145 O 0.1031 0.29937 0.36973 0.0
Mn1146 Mn 0.12708 0.34081 0.36875 0.0
O1147 O 0.20892 0.36786 0.33825 0.0
O1148 O 0.17958 0.29922 0.33231 0.0
Mn1149 Mn 0.2066 0.31773 0.30791 0.0
O1150 O 0.1627 0.33678 0.29743 0.0
O1151 O 0.23819 0.35284 0.31934 0.0
O1152 O 0.16796 0.32528 0.37783 0.0
O1153 O 0.15297 0.35535 0.39464 0.0
O1154 O 0.20907 0.28489 0.31209 0.0
O1155 O 0.19023 0.32016 0.27811 0.0
C1156 C 0.12885 0.36676 0.33781 0.0
C1157 C 0.10152 0.28308 0.35127 0.0
C1158 C 0.23478 0.37237 0.33121 0.0
C1159 C 0.18881 0.27962 0.32929 0.0
C1160 C 0.17299 0.33096 0.27722 0.0
C1161 C 0.16632 0.34047 0.397 0.0
O1162 O 0.15041 0.3608 0.34201 0.0
O1163 O 0.10728 0.35696 0.35441 0.0
O1164 O 0.70095 0.82266 0.33583 0.0
Mn1165 Mn 0.6632 0.82795 0.3376 0.0
O1166 O 0.69384 0.79473 0.36992 0.0
Mn1167 Mn 0.65263 0.77616 0.36889 0.0
O1168 O 0.62359 0.83204 0.33836 0.0
O1169 O 0.69542 0.87414 0.33242 0.0
Mn1170 Mn 0.66694 0.87793 0.31636 0.0
O1171 O 0.65916 0.81988 0.29856 0.0
O1172 O 0.64202 0.88062 0.33931 0.0
O1173 O 0.66646 0.83478 0.37814 0.0
O1174 O 0.63817 0.7885 0.39462 0.0
O1175 O 0.69772 0.91262 0.30843 0.0
O1176 O 0.65068 0.85634 0.287 0.0
C1177 C 0.62837 0.75652 0.335 0.0
C1178 C 0.71054 0.81128 0.35226 0.0
C1179 C 0.62012 0.85479 0.3429 0.0
C1180 C 0.71035 0.90211 0.32332 0.0
C1181 C 0.65242 0.83327 0.28162 0.0
C1182 C 0.65217 0.81697 0.39718 0.0
O1183 O 0.63417 0.78292 0.34305 0.0
O1184 O 0.63735 0.74255 0.34984 0.0
O1185 O 0.20674 0.83415 0.33588 0.0
Mn1186 Mn 0.16378 0.8292 0.33414 0.0
O1187 O 0.23046 0.86659 0.30453 0.0
Mn1188 Mn 0.20633 0.88345 0.3046 0.0
O1189 O 0.12062 0.82524 0.33352 0.0
O1190 O 0.1481 0.78312 0.33764 0.0
Mn1191 Mn 0.11684 0.77372 0.35774 0.0
O1192 O 0.16595 0.83505 0.374 0.0
O1193 O 0.08783 0.7771 0.34115 0.0
O1194 O 0.16195 0.82416 0.29347 0.0
O1195 O 0.18107 0.87101 0.27783 0.0
O1196 O 0.11416 0.7382 0.35472 0.0
O1197 O 0.12854 0.79139 0.38902 0.0
C1198 C 0.19834 0.90096 0.3386 0.0
C1199 C 0.22924 0.84808 0.32092 0.0
C1200 C 0.09353 0.80298 0.33431 0.0
C1201 C 0.13752 0.75389 0.34034 0.0
C1202 C 0.15059 0.81767 0.39257 0.0
C1203 C 0.16689 0.84261 0.27465 0.0
O1204 O 0.17966 0.87438 0.32971 0.0
O1205 O 0.22183 0.9165 0.32449 0.0
O1206 O 0.78936 0.62466 0.66892 0.0
Mn1207 Mn 0.83205 0.66322 0.67051 0.0
O1208 O 0.76808 0.63232 0.70223 0.0
Mn1209 Mn 0.79279 0.67358 0.70121 0.0
O1210 O 0.87603 0.70228 0.67058 0.0
O1211 O 0.84918 0.63418 0.66777 0.0
Mn1212 Mn 0.87833 0.65702 0.64551 0.0
O1213 O 0.82776 0.66656 0.63118 0.0
O1214 O 0.9075 0.68481 0.66565 0.0
O1215 O 0.83579 0.66028 0.71129 0.0
O1216 O 0.81799 0.68821 0.72767 0.0
O1217 O 0.87078 0.6199 0.63876 0.0
O1218 O 0.87051 0.67207 0.6166 0.0
C1219 C 0.79475 0.69941 0.67026 0.0
C1220 C 0.76788 0.61536 0.68489 0.0
C1221 C 0.90272 0.70592 0.67175 0.0
C1222 C 0.85048 0.61207 0.65632 0.0
C1223 C 0.8462 0.67169 0.61298 0.0
C1224 C 0.83266 0.6747 0.73029 0.0
O1225 O 0.81611 0.69305 0.67431 0.0
O1226 O 0.77334 0.69008 0.68698 0.0
O1227 O 0.36944 0.15844 0.6697 0.0
Mn1228 Mn 0.33087 0.16236 0.67096 0.0
O1229 O 0.36175 0.12794 0.70217 0.0
Mn1230 Mn 0.32062 0.10966 0.70139 0.0
O1231 O 0.29274 0.16845 0.67096 0.0
O1232 O 0.35805 0.20814 0.66761 0.0
Mn1233 Mn 0.33924 0.21671 0.6434 0.0
O1234 O 0.32807 0.15455 0.63167 0.0
O1235 O 0.31176 0.21814 0.66439 0.0
O1236 O 0.33303 0.16823 0.71155 0.0
O1237 O 0.3062 0.12149 0.7276 0.0
O1238 O 0.37916 0.24024 0.63692 0.0
O1239 O 0.32129 0.19103 0.61675 0.0
C1240 C 0.29616 0.0905 0.66742 0.0
C1241 C 0.37872 0.1459 0.68529 0.0
C1242 C 0.29039 0.19253 0.6715 0.0
C1243 C 0.38293 0.22957 0.65788 0.0
C1244 C 0.32219 0.16721 0.61346 0.0
C1245 C 0.31931 0.14991 0.73044 0.0
O1246 O 0.30243 0.11696 0.67574 0.0
O1247 O 0.30503 0.07624 0.68202 0.0
O1248 O 0.87494 0.16899 0.66893 0.0
Mn1249 Mn 0.83173 0.16316 0.6678 0.0
O1250 O 0.89607 0.19794 0.63534 0.0
Mn1251 Mn 0.8722 0.21518 0.63622 0.0
O1252 O 0.78767 0.15835 0.6676 0.0
O1253 O 0.81817 0.11686 0.67287 0.0
Mn1254 Mn 0.78702 0.11497 0.69004 0.0
O1255 O 0.83696 0.17192 0.70689 0.0
O1256 O 0.75811 0.10966 0.66784 0.0
O1257 O 0.82801 0.15607 0.62713 0.0
O1258 O 0.84583 0.20222 0.61038 0.0
O1259 O 0.78445 0.08178 0.7008 0.0
O1260 O 0.79154 0.13768 0.71857 0.0
C1261 C 0.86636 0.23497 0.66957 0.0
C1262 C 0.89623 0.18118 0.65274 0.0
C1263 C 0.76155 0.13522 0.66373 0.0
C1264 C 0.80608 0.09015 0.68442 0.0
C1265 C 0.81678 0.15972 0.72402 0.0
C1266 C 0.83176 0.17374 0.60791 0.0
O1267 O 0.84667 0.20799 0.66203 0.0
O1268 O 0.88945 0.24917 0.65477 0.0
C1269 C 0.36312 0.88376 0.04087 0.0
C1270 C 0.34303 0.88375 0.02296 0.0
H1271 H 0.40884 0.9042 0.05266 0.0
C1272 C 0.3542 0.8996 1.0 0.0
H1273 H 0.3549 0.87154 0.05865 0.0
C1274 C 0.38528 0.91806 0.99641 0.0
C1275 C 0.40516 0.92073 0.0158 0.0
H1276 H 0.339 0.8999 0.986 0.0
H1277 H 0.39346 0.93272 0.97989 0.0
C1278 C 0.39395 0.90214 0.03733 0.0
C1279 C 0.09876 0.45623 0.99531 0.0
C1280 C 0.11373 0.45858 0.0182 0.0
H1281 H 0.06559 0.46318 0.97677 0.0
C1282 C 0.11167 0.47568 0.03814 0.0
H1283 H 0.10013 0.44327 0.97963 0.0
C1284 C 0.09253 0.48741 0.03635 0.0
C1285 C 0.07506 0.48234 0.01456 0.0
H1286 H 0.12347 0.47835 0.05582 0.0
H1287 H 0.08917 0.49791 0.05296 0.0
C1288 C 0.07942 0.46804 0.99352 0.0
C1289 C 0.53507 0.62718 0.04486 0.0
C1290 C 0.53532 0.64701 0.02596 0.0
H1291 H 0.53502 0.58598 0.05218 0.0
C1292 C 0.52491 0.6352 0.00158 0.0
H1293 H 0.54064 0.63419 0.0644 0.0
C1294 C 0.51812 0.60596 0.99565 0.0
C1295 C 0.52343 0.58865 0.01336 0.0
H1296 H 0.52431 0.64894 0.98626 0.0
H1297 H 0.51299 0.59861 0.97606 0.0
C1298 C 0.53041 0.59872 0.03834 0.0
C1299 C 0.9082 0.36279 0.96018 0.0
C1300 C 0.88875 0.34331 0.97943 0.0
H1301 H 0.94841 0.40465 0.95189 0.0
C1302 C 0.88993 0.35582 0.00351 0.0
H1303 H 0.907 0.35521 0.94084 0.0
C1304 C 0.91179 0.3855 0.00881 0.0
C1305 C 0.9341 0.40285 0.99075 0.0
H1306 H 0.87577 0.34239 0.01909 0.0
H1307 H 0.91376 0.39344 0.0282 0.0
C1308 C 0.93134 0.39188 0.96605 0.0
C1309 C 0.63396 0.52148 0.96503 0.0
C1310 C 0.65284 0.53844 0.98502 0.0
H1311 H 0.58936 0.49897 0.95038 0.0
C1312 C 0.63997 0.54039 0.00806 0.0
H1313 H 0.64325 0.51895 0.94729 0.0
C1314 C 0.60882 0.52833 0.00999 0.0
C1315 C 0.59042 0.51417 0.98892 0.0
H1316 H 0.65409 0.55315 0.02382 0.0
H1317 H 0.59962 0.5328 0.02691 0.0
C1318 C 0.60307 0.50949 0.96696 0.0
C1319 C 0.45486 0.0828 0.96076 0.0
C1320 C 0.44875 0.10163 0.97632 0.0
H1321 H 0.46541 0.04709 0.95983 0.0
C1322 C 0.45583 0.10378 0.00225 0.0
H1323 H 0.45102 0.08155 0.94048 0.0
C1324 C 0.46579 0.0856 0.01275 0.0
C1325 C 0.46768 0.06387 0.99794 0.0
H1326 H 0.4515 0.11757 0.01517 0.0
H1327 H 0.4689 0.08631 0.03317 0.0
C1328 C 0.46392 0.06364 0.9716 0.0
C1329 C 0.62961 0.09787 0.96694 0.0
C1330 C 0.65411 0.10424 0.98257 0.0
H1331 H 0.58192 0.07316 0.96273 0.0
C1332 C 0.64876 0.09501 0.00815 0.0
H1333 H 0.63316 0.10501 0.94721 0.0
C1334 C 0.6193 0.07664 0.01704 0.0
C1335 C 0.59484 0.06802 0.00067 0.0
H1336 H 0.6673 0.09979 0.02061 0.0
H1337 H 0.61576 0.06672 0.03584 0.0
C1338 C 0.60025 0.0803 0.97603 0.0
C1339 C 0.90039 0.55042 0.0118 0.0
C1340 C 0.88735 0.54287 0.98762 0.0
H1341 H 0.93279 0.54958 0.03676 0.0
C1342 C 0.89108 0.52227 0.97267 0.0
H1343 H 0.89773 0.56624 0.02363 0.0
C1344 C 0.91007 0.51181 0.98062 0.0
C1345 C 0.92621 0.52245 0.00331 0.0
H1346 H 0.88107 0.51607 0.95398 0.0
H1347 H 0.9151 0.49862 0.96749 0.0
C1348 C 0.92004 0.54052 0.01948 0.0
C1349 C 0.46596 0.34883 0.01574 0.0
C1350 C 0.4587 0.3401 0.9902 0.0
H1351 H 0.47899 0.38379 0.04315 0.0
C1352 C 0.4655 0.36292 0.9719 0.0
H1353 H 0.46121 0.33252 0.0307 0.0
C1354 C 0.47517 0.39264 0.97942 0.0
C1355 C 0.47874 0.40006 0.00526 0.0
H1356 H 0.46174 0.35766 0.95188 0.0
H1357 H 0.47648 0.40876 0.96537 0.0
C1358 C 0.47658 0.37859 0.02302 0.0
C1359 C 0.12217 0.62988 0.01 0.0
C1360 C 0.11138 0.64454 0.02591 0.0
H1361 H 0.1109 0.59029 0.98819 0.0
C1362 C 0.08306 0.62673 0.03762 0.0
H1363 H 0.14433 0.64208 0.00154 0.0
C1364 C 0.06505 0.59625 0.03158 0.0
C1365 C 0.0739 0.58341 0.0123 0.0
H1366 H 0.07332 0.6365 0.04989 0.0
H1367 H 0.04219 0.58442 0.03877 0.0
C1368 C 0.10351 0.59965 0.00314 0.0
C1369 C 0.34661 0.44349 0.99507 0.0
C1370 C 0.34229 0.44982 0.0202 0.0
H1371 H 0.37846 0.44631 0.96719 0.0
C1372 C 0.3674 0.46962 0.03464 0.0
H1373 H 0.3276 0.42831 0.98356 0.0
C1374 C 0.39643 0.481 0.02486 0.0
C1375 C 0.40086 0.47213 0.00071 0.0
H1376 H 0.3646 0.47505 0.054 0.0
H1377 H 0.41533 0.49384 0.03732 0.0
C1378 C 0.37569 0.45427 0.98552 0.0
C1379 C 0.52859 0.90242 0.04663 0.0
C1380 C 0.53297 0.88198 0.03171 0.0
H1381 H 0.51954 0.93898 0.04629 0.0
C1382 C 0.52149 0.8762 0.0068 0.0
H1383 H 0.53511 0.9063 0.06638 0.0
C1384 C 0.51008 0.89323 0.99618 0.0
C1385 C 0.51173 0.91765 0.00956 0.0
H1386 H 0.52371 0.86071 0.99431 0.0
H1387 H 0.50486 0.89063 0.97607 0.0
C1388 C 0.5183 0.92038 0.03552 0.0
C1389 C 0.02172 0.23493 0.33407 0.0
C1390 C 0.0111 0.21923 0.35716 0.0
H1391 H 0.06063 0.26758 0.31333 0.0
C1392 C 0.03142 0.21828 0.37423 0.0
H1393 H 0.00626 0.23564 0.32059 0.0
C1394 C 0.06216 0.23586 0.3699 0.0
C1395 C 0.073 0.2548 0.34852 0.0
H1396 H 0.02354 0.20587 0.39196 0.0
H1397 H 0.0774 0.23735 0.38471 0.0
C1398 C 0.05273 0.25275 0.32976 0.0
C1399 C 0.7642 0.78715 0.33043 0.0
C1400 C 0.77902 0.7897 0.35346 0.0
H1401 H 0.73078 0.79342 0.31157 0.0
C1402 C 0.77637 0.80649 0.37336 0.0
H1403 H 0.76608 0.77446 0.31477 0.0
C1404 C 0.75671 0.8176 0.3714 0.0
C1405 C 0.73939 0.81225 0.34948 0.0
H1406 H 0.78811 0.8094 0.3911 0.0
H1407 H 0.75298 0.82793 0.38794 0.0
C1408 C 0.74439 0.79837 0.32846 0.0
C1409 C 0.18821 0.96607 0.33675 0.0
C1410 C 0.20031 0.97904 0.36048 0.0
H1411 H 0.17463 0.92827 0.31226 0.0
C1412 C 0.20072 0.95989 0.37972 0.0
H1413 H 0.1868 0.97919 0.32129 0.0
C1414 C 0.19543 0.93104 0.37386 0.0
C1415 C 0.18724 0.91991 0.34925 0.0
H1416 H 0.20736 0.96771 0.39896 0.0
H1417 H 0.20074 0.91888 0.38777 0.0
C1418 C 0.18077 0.93642 0.33156 0.0
C1419 C 0.57489 0.69549 0.29341 0.0
C1420 C 0.55458 0.67624 0.31232 0.0
H1421 H 0.61576 0.73692 0.28597 0.0
C1422 C 0.55443 0.68918 0.33591 0.0
H1423 H 0.57473 0.68778 0.27428 0.0
C1424 C 0.57588 0.71897 0.34123 0.0
C1425 C 0.59921 0.73587 0.32388 0.0
H1426 H 0.53956 0.6761 0.35125 0.0
H1427 H 0.57688 0.72719 0.36041 0.0
C1428 C 0.59777 0.72456 0.2995 0.0
C1429 C 0.30018 0.85426 0.29918 0.0
C1430 C 0.31945 0.87145 0.3189 0.0
H1431 H 0.25528 0.83148 0.28516 0.0
C1432 C 0.30695 0.87361 0.34209 0.0
H1433 H 0.30917 0.85163 0.28131 0.0
C1434 C 0.27582 0.86149 0.34444 0.0
C1435 C 0.25698 0.84695 0.3237 0.0
H1436 H 0.32134 0.88657 0.35765 0.0
H1437 H 0.26693 0.86625 0.36142 0.0
C1438 C 0.26928 0.8421 0.30158 0.0
C1439 C 0.12567 0.43651 0.33305 0.0
C1440 C 0.11714 0.43517 0.30755 0.0
H1441 H 0.13881 0.41663 0.3622 0.0
C1442 C 0.12244 0.41688 0.29062 0.0
H1443 H 0.1224 0.45028 0.34683 0.0
C1444 C 0.13078 0.39649 0.29983 0.0
C1445 C 0.13517 0.39522 0.32586 0.0
H1446 H 0.11797 0.41657 0.27052 0.0
H1447 H 0.13092 0.37997 0.28707 0.0
C1448 C 0.13527 0.41718 0.34194 0.0
C1449 C 0.29839 0.43666 0.30124 0.0
C1450 C 0.32161 0.43868 0.31643 0.0
H1451 H 0.251 0.41502 0.29569 0.0
C1452 C 0.31488 0.42545 0.34071 0.0
H1453 H 0.3032 0.44702 0.28254 0.0
C1454 C 0.2849 0.40704 0.34823 0.0
C1455 C 0.26159 0.4023 0.33174 0.0
H1456 H 0.33257 0.42699 0.35278 0.0
H1457 H 0.28002 0.39383 0.36553 0.0
C1458 C 0.26857 0.41895 0.30903 0.0
C1459 C 0.56621 0.88281 0.34654 0.0
C1460 C 0.55471 0.87617 0.32178 0.0
H1461 H 0.59592 0.87993 0.37338 0.0
C1462 C 0.55916 0.8558 0.30711 0.0
H1463 H 0.56316 0.89852 0.35818 0.0
C1464 C 0.57683 0.84418 0.3162 0.0
C1465 C 0.59099 0.85331 0.3399 0.0
H1466 H 0.55039 0.85026 0.28797 0.0
H1467 H 0.58225 0.83096 0.30345 0.0
C1468 C 0.5845 0.87173 0.35541 0.0
C1469 C 0.13034 0.69634 0.29741 0.0
C1470 C 0.12904 0.67578 0.31614 0.0
H1471 H 0.1365 0.74032 0.29015 0.0
C1472 C 0.14379 0.68807 0.33932 0.0
H1473 H 0.12189 0.68912 0.27844 0.0
C1474 C 0.15507 0.71852 0.34482 0.0
C1475 C 0.14992 0.73684 0.32821 0.0
H1476 H 0.14466 0.67426 0.3544 0.0
H1477 H 0.16279 0.72616 0.36399 0.0
C1478 C 0.14029 0.7265 0.30354 0.0
C1479 C 0.77888 0.9759 0.32209 0.0
C1480 C 0.78167 0.98371 0.34798 0.0
H1481 H 0.75547 0.9421 0.29415 0.0
C1482 C 0.76578 0.96048 0.366 0.0
H1483 H 0.79015 0.99268 0.30737 0.0
C1484 C 0.745 0.93117 0.3581 0.0
C1485 C 0.74024 0.92466 0.33212 0.0
H1486 H 0.7681 0.96516 0.38617 0.0
H1487 H 0.73058 0.91468 0.37213 0.0
C1488 C 0.75897 0.94659 0.31436 0.0
C1489 C 0.03367 0.80643 0.36861 0.0
C1490 C 0.00887 0.78565 0.35439 0.0
H1491 H 0.08152 0.83093 0.37174 0.0
C1492 C 0.0135 0.77866 0.32958 0.0
H1493 H 0.03056 0.81248 0.38766 0.0
C1494 C 0.0427 0.78927 0.32047 0.0
C1495 C 0.06756 0.8074 0.33585 0.0
H1496 H 0.99467 0.76284 0.3182 0.0
H1497 H 0.04576 0.78047 0.30267 0.0
C1498 C 0.06281 0.81763 0.35922 0.0
C1499 C 0.18791 0.21023 0.34222 0.0
C1500 C 0.20095 0.21665 0.36656 0.0
H1501 H 0.16978 0.22399 0.31221 0.0
C1502 C 0.19825 0.23823 0.38141 0.0
H1503 H 0.18872 0.19391 0.32978 0.0
C1504 C 0.18815 0.25653 0.37054 0.0
C1505 C 0.17964 0.25275 0.34501 0.0
H1506 H 0.20584 0.24268 0.40087 0.0
H1507 H 0.19064 0.27581 0.38106 0.0
C1508 C 0.17645 0.22742 0.33201 0.0
C1509 C 0.6885 0.56558 0.66696 0.0
C1510 C 0.67765 0.55016 0.69014 0.0
H1511 H 0.7275 0.59836 0.64637 0.0
C1512 C 0.69796 0.55 0.7077 0.0
H1513 H 0.67313 0.56586 0.65313 0.0
C1514 C 0.72876 0.56799 0.70368 0.0
C1515 C 0.73975 0.58656 0.6821 0.0
H1516 H 0.68998 0.53798 0.7256 0.0
H1517 H 0.74385 0.57009 0.71885 0.0
C1518 C 0.71956 0.58378 0.66294 0.0
C1519 C 0.43231 0.12219 0.66291 0.0
C1520 C 0.44703 0.12439 0.68592 0.0
H1521 H 0.39903 0.12885 0.64426 0.0
C1522 C 0.44445 0.14103 0.70598 0.0
H1523 H 0.4341 0.10959 0.64713 0.0
C1524 C 0.42497 0.15236 0.70419 0.0
C1525 C 0.40775 0.14737 0.68227 0.0
H1526 H 0.45608 0.14361 0.72373 0.0
H1527 H 0.42119 0.16245 0.72087 0.0
C1528 C 0.41266 0.13362 0.66112 0.0
C1529 C 0.858 0.30161 0.66722 0.0
C1530 C 0.86802 0.31357 0.69162 0.0
H1531 H 0.84651 0.26487 0.64198 0.0
C1532 C 0.86749 0.29386 0.71078 0.0
H1533 H 0.85764 0.3153 0.65174 0.0
C1534 C 0.86298 0.26538 0.70455 0.0
C1535 C 0.85639 0.25513 0.67958 0.0
H1536 H 0.87277 0.30102 0.73032 0.0
H1537 H 0.86748 0.25281 0.7186 0.0
C1538 C 0.85132 0.27233 0.66156 0.0
C1539 C 0.22188 0.02352 0.66932 0.0
C1540 C 0.22164 0.01028 0.64579 0.0
H1541 H 0.24488 0.06183 0.69347 0.0
C1542 C 0.2416 0.02931 0.62661 0.0
H1543 H 0.20719 0.01059 0.68482 0.0
C1544 C 0.26467 0.05842 0.63236 0.0
C1545 C 0.26663 0.07005 0.65669 0.0
H1546 H 0.24106 0.02136 0.6075 0.0
H1547 H 0.28244 0.07052 0.61859 0.0
C1548 C 0.24352 0.05339 0.67432 0.0
C1549 C 0.96796 0.18816 0.63179 0.0
C1550 C 0.98671 0.20472 0.65199 0.0
H1551 H 0.92352 0.16619 0.61684 0.0
C1552 C 0.97371 0.20639 0.67505 0.0
H1553 H 0.97737 0.18585 0.61403 0.0
C1554 C 0.94257 0.1945 0.6768 0.0
C1555 C 0.92435 0.18082 0.65554 0.0
H1556 H 0.98772 0.21884 0.69095 0.0
H1557 H 0.93327 0.19875 0.69377 0.0
C1558 C 0.9371 0.17636 0.63355 0.0
C1559 C 0.78782 0.74921 0.62316 0.0
C1560 C 0.78377 0.76832 0.64011 0.0
H1561 H 0.79422 0.71106 0.61972 0.0
C1562 C 0.79335 0.77012 0.66535 0.0
H1563 H 0.78256 0.74846 0.6032 0.0
C1564 C 0.80271 0.7505 0.67406 0.0
C1565 C 0.80132 0.72782 0.65809 0.0
H1566 H 0.79109 0.78453 0.67913 0.0
H1567 H 0.80707 0.75036 0.69419 0.0
C1568 C 0.79567 0.72846 0.63227 0.0
C1569 C 0.98331 0.76158 0.67598 0.0
C1570 C 0.98829 0.77182 0.65068 0.0
H1571 H 0.95056 0.73257 0.70348 0.0
C1572 C 0.96375 0.76684 0.63572 0.0
H1573 H 0.00196 0.7654 0.68792 0.0
C1574 C 0.93451 0.74941 0.64506 0.0
C1575 C 0.92938 0.73587 0.66917 0.0
H1576 H 0.96711 0.77489 0.61625 0.0
H1577 H 0.91599 0.74327 0.63216 0.0
C1578 C 0.95397 0.74337 0.68507 0.0
C1579 C 0.22559 0.18993 0.64036 0.0
C1580 C 0.22267 0.21136 0.65482 0.0
H1581 H 0.24858 0.16517 0.63573 0.0
C1582 C 0.23656 0.21987 0.67862 0.0
H1583 H 0.21502 0.18311 0.62192 0.0
C1584 C 0.25593 0.20972 0.68647 0.0
C1585 C 0.26096 0.19039 0.67087 0.0
H1586 H 0.23461 0.23643 0.69 0.0
H1587 H 0.26923 0.21931 0.70341 0.0
C1588 C 0.24429 0.17921 0.6485 0.0
C1589 C 0.79306 0.01278 0.68454 0.0
C1590 C 0.78912 0.00576 0.6585 0.0
H1591 H 0.80486 0.04632 0.713 0.0
C1592 C 0.7986 0.02969 0.64084 0.0
H1593 H 0.78568 -0.00463 0.69896 0.0
C1594 C 0.80891 0.0593 0.64918 0.0
C1595 C 0.81024 0.0654 0.67526 0.0
H1596 H 0.79687 0.02544 0.6206 0.0
H1597 H 0.81307 0.07667 0.63533 0.0
C1598 C 0.80429 0.04227 0.69272 0.0
C1599 C 0.41035 0.30461 0.68647 0.0
C1600 C 0.44117 0.3154 0.68812 0.0
H1601 H 0.36748 0.26769 0.67704 0.0
C1602 C 0.45209 0.29538 0.68455 0.0
H1603 H 0.40148 0.31969 0.68893 0.0
C1604 C 0.43251 0.26534 0.67744 0.0
C1605 C 0.40187 0.2551 0.67446 0.0
H1606 H 0.47581 0.30325 0.68646 0.0
H1607 H 0.44147 0.25077 0.67285 0.0
C1608 C 0.39087 0.27469 0.68013 0.0
C1609 C 0.67951 0.10623 0.66215 0.0
C1610 C 0.67532 0.11459 0.68656 0.0
H1611 H 0.71132 0.10745 0.63502 0.0
C1612 C 0.70041 0.13591 0.70019 0.0
H1613 H 0.66047 0.08976 0.65133 0.0
C1614 C 0.72941 0.14705 0.69039 0.0
C1615 C 0.7338 0.13644 0.66707 0.0
H1616 H 0.69765 0.14279 0.71902 0.0
H1617 H 0.74838 0.16127 0.70235 0.0
C1618 C 0.70855 0.1168 0.65261 0.0
C1619 C 0.85969 0.5464 0.66772 0.0
C1620 C 0.86794 0.55044 0.69354 0.0
H1621 H 0.84429 0.56097 0.63618 0.0
C1622 C 0.86098 0.56922 0.70825 0.0
H1623 H 0.86442 0.53244 0.65535 0.0
C1624 C 0.85014 0.58656 0.69676 0.0
C1625 C 0.84552 0.585 0.67041 0.0
H1626 H 0.86538 0.57191 0.72844 0.0
H1627 H 0.84842 0.60333 0.70804 0.0
C1628 C 0.84778 0.56276 0.65656 0.0
C1629 C 0.50295 0.01145 0.13376 0.0
C1630 C 0.49431 0.98199 0.14128 0.0
H1631 H 0.51443 0.04251 0.10299 0.0
C1632 C 0.49356 0.96152 0.12305 0.0
H1633 H 0.50397 0.02768 0.14752 0.0
C1634 C 0.49918 0.96981 0.09724 0.0
C1635 C 0.50609 -0.00114 0.08947 0.0
H1636 H 0.48701 0.93865 0.12858 0.0
H1637 H 0.49599 0.95293 0.08331 0.0
C1638 C 0.50922 0.01992 0.10826 0.0
C1639 C 0.98445 0.48059 0.135 0.0
C1640 C 0.00785 0.50922 0.14162 0.0
H1641 H 0.95837 0.45094 0.1054 0.0
C1642 C 0.02223 0.53116 0.12244 0.0
H1643 H 0.97269 0.46343 0.14942 0.0
C1644 C 0.01424 0.52399 0.09685 0.0
C1645 C 0.9915 0.49485 0.09017 0.0
H1646 H 0.04042 0.55347 0.12714 0.0
H1647 H 0.02669 0.54075 0.08232 0.0
C1648 C 0.97614 0.47361 0.1097 0.0
C1649 C 0.4811 0.47953 0.12833 0.0
C1650 C 0.49405 0.50911 0.13755 0.0
H1651 H 0.46752 0.45086 0.09589 0.0
C1652 C 0.50565 0.53326 0.11997 0.0
H1653 H 0.47269 0.46048 0.14124 0.0
C1654 C 0.50309 0.5277 0.09372 0.0
C1655 C 0.48859 0.49796 0.08476 0.0
H1656 H 0.51561 0.55636 0.12646 0.0
H1657 H 0.51111 0.54642 0.08058 0.0
C1658 C 0.47826 0.47405 0.10232 0.0
C1659 C -0.00159 0.51042 0.87444 0.0
C1660 C 0.9782 0.48066 0.86733 0.0
H1661 H 0.01965 0.54132 0.90473 0.0
C1662 C 0.96574 0.45808 0.88628 0.0
H1663 H 0.00896 0.52815 0.86028 0.0
C1664 C 0.972 0.46564 0.91207 0.0
C1665 C 0.99077 0.49583 0.91907 0.0
H1666 H 0.95008 0.43487 0.88129 0.0
H1667 H 0.96092 0.44834 0.92644 0.0
C1668 C 0.00463 0.51788 0.89993 0.0
C1669 C 0.50248 0.5107 0.86985 0.0
C1670 C 0.4995 0.48279 0.86375 0.0
H1671 H 0.50226 0.53942 0.89883 0.0
C1672 C 0.49229 0.46114 0.88313 0.0
H1673 H 0.50741 0.52749 0.85522 0.0
C1674 C 0.48961 0.468 0.90849 0.0
C1675 C 0.49368 0.49646 0.91471 0.0
H1676 H 0.48966 0.43929 0.87875 0.0
H1677 H 0.48568 0.4516 0.92322 0.0
C1678 C 0.49916 0.51728 0.8949 0.0
C1679 C 0.53259 0.03366 0.87913 0.0
C1680 C 0.50465 0.01985 0.8669 0.0
H1681 H 0.55671 0.03899 0.91335 0.0
C1682 C 0.4785 0.00257 0.8817 0.0
H1683 H 0.55316 0.04819 0.86884 0.0
C1684 C 0.48057 -0.00197 0.90782 0.0
C1685 C 0.50881 0.0104 0.91934 0.0
H1686 H 0.45656 0.99171 0.873 0.0
H1687 H 0.46034 0.98372 0.91862 0.0
C1688 C 0.53463 0.02876 0.90484 0.0
C1689 C 0.16417 0.29877 0.45711 0.0
C1690 C 0.16092 0.31708 0.47532 0.0
H1691 H 0.16882 0.29186 0.41736 0.0
C1692 C 0.16527 0.34523 0.46797 0.0
H1693 H 0.16113 0.277 0.46254 0.0
C1694 C 0.17087 0.3542 0.44261 0.0
C1695 C 0.17114 0.33475 0.42373 0.0
H1696 H 0.16333 0.3599 0.48174 0.0
H1697 H 0.17271 0.37558 0.43753 0.0
C1698 C 0.16898 0.30742 0.43136 0.0
C1699 C 0.6879 0.8649 0.45571 0.0
C1700 C 0.67458 0.84298 0.47508 0.0
H1701 H 0.69119 0.87412 0.41555 0.0
C1702 C 0.65188 0.81388 0.46874 0.0
H1703 H 0.70555 0.88756 0.46016 0.0
C1704 C 0.64325 0.80647 0.44358 0.0
C1705 C 0.65755 0.82775 0.42384 0.0
H1706 H 0.6409 0.79666 0.48325 0.0
H1707 H 0.62606 0.78344 0.43958 0.0
C1708 C 0.67958 0.8573 0.43023 0.0
C1709 C 0.15162 0.81152 0.46383 0.0
C1710 C 0.16228 0.84132 0.47162 0.0
H1711 H 0.14036 0.78105 0.43287 0.0
C1712 C 0.17251 0.8643 0.45303 0.0
H1713 H 0.14432 0.79344 0.47765 0.0
C1714 C 0.17037 0.85719 0.42706 0.0
C1715 C 0.15791 0.82704 0.4194 0.0
H1716 H 0.18087 0.88754 0.4585 0.0
H1717 H 0.17696 0.87493 0.41308 0.0
C1718 C 0.14948 0.80449 0.43812 0.0
C1719 C 0.63079 0.78938 0.21996 0.0
C1720 C 0.64323 0.81319 0.20208 0.0
H1721 H 0.62393 0.77703 0.25956 0.0
C1722 C 0.66054 0.8429 0.21081 0.0
H1723 H 0.6171 0.76621 0.21384 0.0
C1724 C 0.66399 0.84889 0.23671 0.0
C1725 C 0.65063 0.82534 0.25458 0.0
H1726 H 0.67107 0.86169 0.19761 0.0
H1727 H 0.67689 0.87217 0.24283 0.0
C1728 C 0.63462 0.79544 0.24609 0.0
C1729 C 0.15675 0.79536 0.21592 0.0
C1730 C 0.16739 0.8177 0.19675 0.0
H1731 H 0.14779 0.78542 0.2558 0.0
C1732 C 0.17494 0.84714 0.20321 0.0
H1733 H 0.15074 0.77238 0.21142 0.0
C1734 C 0.1726 0.85437 0.22827 0.0
C1735 C 0.16325 0.8325 0.24781 0.0
H1736 H 0.18264 0.86469 0.18884 0.0
H1737 H 0.17924 0.87762 0.23237 0.0
C1738 C 0.15484 0.80272 0.24129 0.0
C1739 C 0.14175 0.33648 0.21378 0.0
C1740 C 0.16861 0.35285 0.19955 0.0
H1741 H 0.12178 0.31717 0.25019 0.0
C1742 C 0.19607 0.36485 0.21242 0.0
H1743 H 0.12012 0.32685 0.20464 0.0
C1744 C 0.19682 0.3591 0.23813 0.0
C1745 C 0.17022 0.34166 0.25199 0.0
H1746 H 0.21725 0.37855 0.20266 0.0
H1747 H 0.21847 0.36754 0.24711 0.0
C1748 C 0.14256 0.33102 0.23989 0.0
C1749 C 0.83109 0.67932 0.80123 0.0
C1750 C 0.82816 0.65174 0.80862 0.0
H1751 H 0.837 0.70915 0.77074 0.0
C1752 C 0.83275 0.63424 0.79045 0.0
H1753 H 0.82814 0.69341 0.81495 0.0
C1754 C 0.83739 0.64299 0.76472 0.0
C1755 C 0.83792 0.66955 0.75705 0.0
H1756 H 0.83081 0.61293 0.79588 0.0
H1757 H 0.83829 0.62795 0.75074 0.0
C1758 C 0.8364 0.68836 0.77588 0.0
C1759 C 0.31965 0.14653 0.802 0.0
C1760 C 0.34056 0.1763 0.8085 0.0
H1761 H 0.29575 0.11527 0.77275 0.0
C1762 C 0.35223 0.19849 0.78923 0.0
H1763 H 0.30984 0.129 0.81639 0.0
C1764 C 0.34421 0.19061 0.76371 0.0
C1765 C 0.32416 0.16046 0.75719 0.0
H1766 H 0.36847 0.22169 0.79373 0.0
H1767 H 0.35456 0.2078 0.74912 0.0
C1768 C 0.31139 0.13877 0.77682 0.0
C1769 C 0.81445 0.14719 0.79459 0.0
C1770 C 0.82856 0.17665 0.80423 0.0
H1771 H 0.79996 0.11915 0.76175 0.0
C1772 C 0.84151 0.20111 0.78695 0.0
H1773 H 0.80504 0.12782 0.8072 0.0
C1774 C 0.83913 0.19604 0.76062 0.0
C1775 C 0.82334 0.16653 0.75126 0.0
H1776 H 0.85241 0.22416 0.79368 0.0
H1777 H 0.84831 0.21505 0.74774 0.0
C1778 C 0.81168 0.14223 0.7685 0.0
C1779 C 0.33125 0.17417 0.54281 0.0
C1780 C 0.31115 0.14481 0.5347 0.0
H1781 H 0.35089 0.20374 0.57425 0.0
C1782 C 0.29706 0.12156 0.55295 0.0
H1783 H 0.34282 0.1924 0.52922 0.0
C1784 C 0.3018 0.12808 0.57898 0.0
C1785 C 0.32075 0.15782 0.58689 0.0
H1786 H 0.28127 0.0987 0.54715 0.0
H1787 H 0.28937 0.11042 0.59277 0.0
C1788 C 0.33599 0.18058 0.56857 0.0
C1789 C 0.82239 0.12629 0.54938 0.0
C1790 C 0.83123 0.14823 0.52999 0.0
H1791 H 0.81527 0.11683 0.5895 0.0
C1792 C 0.83682 0.17711 0.53628 0.0
H1793 H 0.81789 0.10375 0.54498 0.0
C1794 C 0.83448 0.18426 0.56138 0.0
C1795 C 0.82726 0.16298 0.58117 0.0
H1796 H 0.84316 0.19431 0.52175 0.0
H1797 H 0.83964 0.20713 0.56531 0.0
C1798 C 0.82062 0.13365 0.57481 0.0
C1799 C 0.83001 0.70059 0.55231 0.0
C1800 C 0.83518 0.68358 0.53404 0.0
H1801 H 0.82977 0.71041 0.59204 0.0
C1802 C 0.8409 0.66091 0.54222 0.0
H1803 H 0.8259 0.71847 0.54643 0.0
C1804 C 0.8426 0.6561 0.56809 0.0
C1805 C 0.83868 0.67386 0.58637 0.0
H1806 H 0.84462 0.64728 0.52856 0.0
H1807 H 0.84794 0.63902 0.57387 0.0
C1808 C 0.83188 0.69584 0.57836 0.0
loop_
_geom_bond_atom_site_label_1
_geom_bond_atom_site_label_2
_geom_bond_distance
_geom_bond_site_symmetry_2
_ccdc_geom_bond_type
C0 C1 1.391 . S
C0 C4 1.391 . S
C0 H42 0.948 . S
C1 C0 1.391 . S
C1 C2 1.391 . S
C2 C1 1.391 . S
C2 H58 0.947 . S
C2 C59 1.392 . S
C3 C4 1.391 . S
C3 C7 1.397 . S
C3 C59 1.419 . S
C4 C0 1.391 . S
C4 C3 1.391 . S
C4 C5 1.399 . S
C5 C4 1.399 . S
C5 C8 1.396 . S
C5 C17 1.453 . S
C5 C18 1.684 . S
H6 C30 0.948 . S
C7 C3 1.397 . S
C7 C8 1.394 . S
C7 C26 1.723 . S
C8 C5 1.396 . S
C8 C7 1.394 . S
C8 C38 1.723 . S
H9 C32 0.947 . S
H10 C33 0.948 . S
H11 C39 0.982 . S
H12 C40 0.979 . S
H13 C40 0.980 . S
H14 C40 0.983 . S
H15 C39 0.979 . S
H16 C39 0.977 . S
C17 C5 1.453 . S
C17 H46 0.982 . S
C17 H47 0.979 . S
C17 H48 0.977 . S
C18 C5 1.684 . S
C18 H43 0.979 . S
C18 H44 0.980 . S
C18 H45 0.983 . S
C19 C20 1.391 . S
C19 C24 1.391 . S
C19 H49 0.948 . S
C20 C19 1.391 . S
C20 C21 1.391 . S
C21 C20 1.391 . S
C21 C22 1.392 . S
C21 H50 0.947 . S
C22 C21 1.392 . S
C22 C23 1.419 . S
C22 H51 0.948 . S
C23 C22 1.419 . S
C23 C24 1.391 . S
C23 C27 1.397 . S
C24 C19 1.391 . S
C24 C23 1.391 . S
C24 C25 1.399 . S
C25 C24 1.399 . S
C25 C26 1.396 . S
C25 C28 1.453 . S
C25 C29 1.684 . S
C26 C7 1.723 . S
C26 C25 1.396 . S
C26 C27 1.394 . S
C27 C23 1.397 . S
C27 C26 1.394 . S
C27 C37 1.723 . S
C28 C25 1.453 . S
C28 H52 0.982 . S
C28 H53 0.979 . S
C28 H54 0.977 . S
C29 C25 1.684 . S
C29 H55 0.979 . S
C29 H56 0.980 . S
C29 H57 0.983 . S
C30 H6 0.948 . S
C30 C31 1.391 . S
C30 C35 1.391 . S
C31 C30 1.391 . S
C31 C32 1.391 . S
C32 H9 0.947 . S
C32 C31 1.391 . S
C32 C33 1.392 . S
C33 H10 0.948 . S
C33 C32 1.392 . S
C33 C34 1.419 . S
C34 C33 1.419 . S
C34 C35 1.391 . S
C34 C38 1.397 . S
C35 C30 1.391 . S
C35 C34 1.391 . S
C35 C36 1.399 . S
C36 C35 1.399 . S
C36 C37 1.396 . S
C36 C39 1.453 . S
C36 C40 1.684 . S
C37 C27 1.723 . S
C37 C36 1.396 . S
C37 C38 1.394 . S
C38 C8 1.723 . S
C38 C34 1.397 . S
C38 C37 1.394 . S
C39 H11 0.982 . S
C39 H15 0.979 . S
C39 H16 0.977 . S
C39 C36 1.453 . S
C40 H12 0.979 . S
C40 H13 0.980 . S
C40 H14 0.983 . S
C40 C36 1.684 . S
H41 C59 0.948 . S
H42 C0 0.948 . S
H43 C18 0.979 . S
H44 C18 0.980 . S
H45 C18 0.983 . S
H46 C17 0.982 . S
H47 C17 0.979 . S
H48 C17 0.977 . S
H49 C19 0.948 . S
H50 C21 0.947 . S
H51 C22 0.948 . S
H52 C28 0.982 . S
H53 C28 0.979 . S
H54 C28 0.977 . S
H55 C29 0.979 . S
H56 C29 0.980 . S
H57 C29 0.983 . S
H58 C2 0.947 . S
C59 C2 1.392 . S
C59 C3 1.419 . S
C59 H41 0.948 . S
C60 C61 1.391 . S
C60 C64 1.391 . S
C60 H102 0.948 . S
C61 C60 1.391 . S
C61 C62 1.391 . S
C62 C61 1.391 . S
C62 H118 0.947 . S
C62 C119 1.392 . S
C63 C64 1.391 . S
C63 C67 1.397 . S
C63 C119 1.419 . S
C64 C60 1.391 . S
C64 C63 1.391 . S
C64 C65 1.399 . S
C65 C64 1.399 . S
C65 C68 1.396 . S
C65 C77 1.453 . S
C65 C78 1.684 . S
H66 C90 0.948 . S
C67 C63 1.397 . S
C67 C68 1.394 . S
C67 C86 1.723 . S
C68 C65 1.396 . S
C68 C67 1.394 . S
C68 C98 1.723 . S
H69 C92 0.947 . S
H70 C93 0.948 . S
H71 C99 0.982 . S
H72 C100 0.979 . S
H73 C100 0.980 . S
H74 C100 0.983 . S
H75 C99 0.979 . S
H76 C99 0.977 . S
C77 C65 1.453 . S
C77 H106 0.982 . S
C77 H107 0.979 . S
C77 H108 0.977 . S
C78 C65 1.684 . S
C78 H103 0.979 . S
C78 H104 0.980 . S
C78 H105 0.983 . S
C79 C80 1.391 . S
C79 C84 1.391 . S
C79 H109 0.948 . S
C80 C79 1.391 . S
C80 C81 1.391 . S
C81 C80 1.391 . S
C81 C82 1.392 . S
C81 H110 0.947 . S
C82 C81 1.392 . S
C82 C83 1.419 . S
C82 H111 0.948 . S
C83 C82 1.419 . S
C83 C84 1.391 . S
C83 C87 1.397 . S
C84 C79 1.391 . S
C84 C83 1.391 . S
C84 C85 1.399 . S
C85 C84 1.399 . S
C85 C86 1.396 . S
C85 C88 1.453 . S
C85 C89 1.684 . S
C86 C67 1.723 . S
C86 C85 1.396 . S
C86 C87 1.394 . S
C87 C83 1.397 . S
C87 C86 1.394 . S
C87 C97 1.723 . S
C88 C85 1.453 . S
C88 H112 0.982 . S
C88 H113 0.979 . S
C88 H114 0.977 . S
C89 C85 1.684 . S
C89 H115 0.979 . S
C89 H116 0.980 . S
C89 H117 0.983 . S
C90 H66 0.948 . S
C90 C91 1.391 . S
C90 C95 1.391 . S
C91 C90 1.391 . S
C91 C92 1.391 . S
C92 H69 0.947 . S
C92 C91 1.391 . S
C92 C93 1.392 . S
C93 H70 0.948 . S
C93 C92 1.392 . S
C93 C94 1.419 . S
C94 C93 1.419 . S
C94 C95 1.391 . S
C94 C98 1.397 . S
C95 C90 1.391 . S
C95 C94 1.391 . S
C95 C96 1.399 . S
C96 C95 1.399 . S
C96 C97 1.396 . S
C96 C99 1.453 . S
C96 C100 1.684 . S
C97 C87 1.723 . S
C97 C96 1.396 . S
C97 C98 1.394 . S
C98 C68 1.723 . S
C98 C94 1.397 . S
C98 C97 1.394 . S
C99 H71 0.982 . S
C99 H75 0.979 . S
C99 H76 0.977 . S
C99 C96 1.453 . S
C100 H72 0.979 . S
C100 H73 0.980 . S
C100 H74 0.983 . S
C100 C96 1.684 . S
H101 C119 0.948 . S
H102 C60 0.948 . S
H103 C78 0.979 . S
H104 C78 0.980 . S
H105 C78 0.983 . S
H106 C77 0.982 . S
H107 C77 0.979 . S
H108 C77 0.977 . S
H109 C79 0.948 . S
H110 C81 0.947 . S
H111 C82 0.948 . S
H112 C88 0.982 . S
H113 C88 0.979 . S
H114 C88 0.977 . S
H115 C89 0.979 . S
H116 C89 0.980 . S
H117 C89 0.983 . S
H118 C62 0.947 . S
C119 C62 1.392 . S
C119 C63 1.419 . S
C119 H101 0.948 . S
C120 C121 1.391 . S
C120 C124 1.391 . S
C120 H162 0.948 . S
C121 C120 1.391 . S
C121 C122 1.391 . S
C122 C121 1.391 . S
C122 H178 0.947 . S
C122 C179 1.392 . S
C123 C124 1.391 . S
C123 C127 1.397 . S
C123 C179 1.419 . S
C124 C120 1.391 . S
C124 C123 1.391 . S
C124 C125 1.399 . S
C125 C124 1.399 . S
C125 C128 1.396 . S
C125 C137 1.453 . S
C125 C138 1.684 . S
H126 C150 0.948 . S
C127 C123 1.397 . S
C127 C128 1.394 . S
C127 C146 1.723 . S
C128 C125 1.396 . S
C128 C127 1.394 . S
C128 C158 1.723 . S
H129 C152 0.947 . S
H130 C153 0.948 . S
H131 C159 0.982 . S
H132 C160 0.979 . S
H133 C160 0.980 . S
H134 C160 0.983 . S
H135 C159 0.979 . S
H136 C159 0.977 . S
C137 C125 1.453 . S
C137 H166 0.982 . S
C137 H167 0.979 . S
C137 H168 0.977 . S
C138 C125 1.684 . S
C138 H163 0.979 . S
C138 H164 0.980 . S
C138 H165 0.983 . S
C139 C140 1.391 . S
C139 C144 1.391 . S
C139 H169 0.948 . S
C140 C139 1.391 . S
C140 C141 1.391 . S
C141 C140 1.391 . S
C141 C142 1.392 . S
C141 H170 0.947 . S
C142 C141 1.392 . S
C142 C143 1.419 . S
C142 H171 0.948 . S
C143 C142 1.419 . S
C143 C144 1.391 . S
C143 C147 1.397 . S
C144 C139 1.391 . S
C144 C143 1.391 . S
C144 C145 1.399 . S
C145 C144 1.399 . S
C145 C146 1.396 . S
C145 C148 1.453 . S
C145 C149 1.684 . S
C146 C127 1.723 . S
C146 C145 1.396 . S
C146 C147 1.394 . S
C147 C143 1.397 . S
C147 C146 1.394 . S
C147 C157 1.723 . S
C148 C145 1.453 . S
C148 H172 0.982 . S
C148 H173 0.979 . S
C148 H174 0.977 . S
C149 C145 1.684 . S
C149 H175 0.979 . S
C149 H176 0.980 . S
C149 H177 0.983 . S
C150 H126 0.948 . S
C150 C151 1.391 . S
C150 C155 1.391 . S
C151 C150 1.391 . S
C151 C152 1.391 . S
C152 H129 0.947 . S
C152 C151 1.391 . S
C152 C153 1.392 . S
C153 H130 0.948 . S
C153 C152 1.392 . S
C153 C154 1.419 . S
C154 C153 1.419 . S
C154 C155 1.391 . S
C154 C158 1.397 . S
C155 C150 1.391 . S
C155 C154 1.391 . S
C155 C156 1.399 . S
C156 C155 1.399 . S
C156 C157 1.396 . S
C156 C159 1.453 . S
C156 C160 1.684 . S
C157 C147 1.723 . S
C157 C156 1.396 . S
C157 C158 1.394 . S
C158 C128 1.723 . S
C158 C154 1.397 . S
C158 C157 1.394 . S
C159 H131 0.982 . S
C159 H135 0.979 . S
C159 H136 0.977 . S
C159 C156 1.453 . S
C160 H132 0.979 . S
C160 H133 0.980 . S
C160 H134 0.983 . S
C160 C156 1.684 . S
H161 C179 0.948 . S
H162 C120 0.948 . S
H163 C138 0.979 . S
H164 C138 0.980 . S
H165 C138 0.983 . S
H166 C137 0.982 . S
H167 C137 0.979 . S
H168 C137 0.977 . S
H169 C139 0.948 . S
H170 C141 0.947 . S
H171 C142 0.948 . S
H172 C148 0.982 . S
H173 C148 0.979 . S
H174 C148 0.977 . S
H175 C149 0.979 . S
H176 C149 0.980 . S
H177 C149 0.983 . S
H178 C122 0.947 . S
C179 C122 1.392 . S
C179 C123 1.419 . S
C179 H161 0.948 . S
C180 C181 1.391 . S
C180 C184 1.391 . S
C180 H222 0.948 . S
C181 C180 1.391 . S
C181 C182 1.391 . S
C182 C181 1.391 . S
C182 H238 0.947 . S
C182 C239 1.392 . S
C183 C184 1.391 . S
C183 C187 1.397 . S
C183 C239 1.419 . S
C184 C180 1.391 . S
C184 C183 1.391 . S
C184 C185 1.399 . S
C185 C184 1.399 . S
C185 C188 1.396 . S
C185 C197 1.453 . S
C185 C198 1.684 . S
H186 C210 0.948 . S
C187 C183 1.397 . S
C187 C188 1.394 . S
C187 C206 1.723 . S
C188 C185 1.396 . S
C188 C187 1.394 . S
C188 C218 1.723 . S
H189 C212 0.947 . S
H190 C213 0.948 . S
H191 C219 0.982 . S
H192 C220 0.979 . S
H193 C220 0.980 . S
H194 C220 0.983 . S
H195 C219 0.979 . S
H196 C219 0.977 . S
C197 C185 1.453 . S
C197 H226 0.982 . S
C197 H227 0.979 . S
C197 H228 0.977 . S
C198 C185 1.684 . S
C198 H223 0.979 . S
C198 H224 0.980 . S
C198 H225 0.983 . S
C199 C200 1.391 . S
C199 C204 1.391 . S
C199 H229 0.948 . S
C200 C199 1.391 . S
C200 C201 1.391 . S
C201 C200 1.391 . S
C201 C202 1.392 . S
C201 H230 0.947 . S
C202 C201 1.392 . S
C202 C203 1.419 . S
C202 H231 0.948 . S
C203 C202 1.419 . S
C203 C204 1.391 . S
C203 C207 1.397 . S
C204 C199 1.391 . S
C204 C203 1.391 . S
C204 C205 1.399 . S
C205 C204 1.399 . S
C205 C206 1.396 . S
C205 C208 1.453 . S
C205 C209 1.684 . S
C206 C187 1.723 . S
C206 C205 1.396 . S
C206 C207 1.394 . S
C207 C203 1.397 . S
C207 C206 1.394 . S
C207 C217 1.723 . S
C208 C205 1.453 . S
C208 H232 0.982 . S
C208 H233 0.979 . S
C208 H234 0.977 . S
C209 C205 1.684 . S
C209 H235 0.979 . S
C209 H236 0.980 . S
C209 H237 0.983 . S
C210 H186 0.948 . S
C210 C211 1.391 . S
C210 C215 1.391 . S
C211 C210 1.391 . S
C211 C212 1.391 . S
C212 H189 0.947 . S
C212 C211 1.391 . S
C212 C213 1.392 . S
C213 H190 0.948 . S
C213 C212 1.392 . S
C213 C214 1.419 . S
C214 C213 1.419 . S
C214 C215 1.391 . S
C214 C218 1.397 . S
C215 C210 1.391 . S
C215 C214 1.391 . S
C215 C216 1.399 . S
C216 C215 1.399 . S
C216 C217 1.396 . S
C216 C219 1.453 . S
C216 C220 1.684 . S
C217 C207 1.723 . S
C217 C216 1.396 . S
C217 C218 1.394 . S
C218 C188 1.723 . S
C218 C214 1.397 . S
C218 C217 1.394 . S
C219 H191 0.982 . S
C219 H195 0.979 . S
C219 H196 0.977 . S
C219 C216 1.453 . S
C220 H192 0.979 . S
C220 H193 0.980 . S
C220 H194 0.983 . S
C220 C216 1.684 . S
H221 C239 0.948 . S
H222 C180 0.948 . S
H223 C198 0.979 . S
H224 C198 0.980 . S
H225 C198 0.983 . S
H226 C197 0.982 . S
H227 C197 0.979 . S
H228 C197 0.977 . S
H229 C199 0.948 . S
H230 C201 0.947 . S
H231 C202 0.948 . S
H232 C208 0.982 . S
H233 C208 0.979 . S
H234 C208 0.977 . S
H235 C209 0.979 . S
H236 C209 0.980 . S
H237 C209 0.983 . S
H238 C182 0.947 . S
C239 C182 1.392 . S
C239 C183 1.419 . S
C239 H221 0.948 . S
C240 C241 1.391 . S
C240 C244 1.391 . S
C240 H282 0.948 . S
C241 C240 1.391 . S
C241 C242 1.391 . S
C242 C241 1.391 . S
C242 H298 0.947 . S
C242 C299 1.392 . S
C243 C244 1.391 . S
C243 C247 1.397 . S
C243 C299 1.419 . S
C244 C240 1.391 . S
C244 C243 1.391 . S
C244 C245 1.399 . S
C245 C244 1.399 . S
C245 C248 1.396 . S
C245 C257 1.453 . S
C245 C258 1.684 . S
H246 C270 0.948 . S
C247 C243 1.397 . S
C247 C248 1.394 . S
C247 C266 1.723 . S
C248 C245 1.396 . S
C248 C247 1.394 . S
C248 C278 1.723 . S
H249 C272 0.947 . S
H250 C273 0.948 . S
H251 C279 0.982 . S
H252 C280 0.979 . S
H253 C280 0.980 . S
H254 C280 0.983 . S
H255 C279 0.979 . S
H256 C279 0.977 . S
C257 C245 1.453 . S
C257 H286 0.982 . S
C257 H287 0.979 . S
C257 H288 0.977 . S
C258 C245 1.684 . S
C258 H283 0.979 . S
C258 H284 0.980 . S
C258 H285 0.983 . S
C259 C260 1.391 . S
C259 C264 1.391 . S
C259 H289 0.948 . S
C260 C259 1.391 . S
C260 C261 1.391 . S
C261 C260 1.391 . S
C261 C262 1.392 . S
C261 H290 0.947 . S
C262 C261 1.392 . S
C262 C263 1.419 . S
C262 H291 0.948 . S
C263 C262 1.419 . S
C263 C264 1.391 . S
C263 C267 1.397 . S
C264 C259 1.391 . S
C264 C263 1.391 . S
C264 C265 1.399 . S
C265 C264 1.399 . S
C265 C266 1.396 . S
C265 C268 1.453 . S
C265 C269 1.684 . S
C266 C247 1.723 . S
C266 C265 1.396 . S
C266 C267 1.394 . S
C267 C263 1.397 . S
C267 C266 1.394 . S
C267 C277 1.723 . S
C268 C265 1.453 . S
C268 H292 0.982 . S
C268 H293 0.979 . S
C268 H294 0.977 . S
C269 C265 1.684 . S
C269 H295 0.979 . S
C269 H296 0.980 . S
C269 H297 0.983 . S
C270 H246 0.948 . S
C270 C271 1.391 . S
C270 C275 1.391 . S
C271 C270 1.391 . S
C271 C272 1.391 . S
C272 H249 0.947 . S
C272 C271 1.391 . S
C272 C273 1.392 . S
C273 H250 0.948 . S
C273 C272 1.392 . S
C273 C274 1.419 . S
C274 C273 1.419 . S
C274 C275 1.391 . S
C274 C278 1.397 . S
C275 C270 1.391 . S
C275 C274 1.391 . S
C275 C276 1.399 . S
C276 C275 1.399 . S
C276 C277 1.396 . S
C276 C279 1.453 . S
C276 C280 1.684 . S
C277 C267 1.723 . S
C277 C276 1.396 . S
C277 C278 1.394 . S
C278 C248 1.723 . S
C278 C274 1.397 . S
C278 C277 1.394 . S
C279 H251 0.982 . S
C279 H255 0.979 . S
C279 H256 0.977 . S
C279 C276 1.453 . S
C280 H252 0.979 . S
C280 H253 0.980 . S
C280 H254 0.983 . S
C280 C276 1.684 . S
H281 C299 0.948 . S
H282 C240 0.948 . S
H283 C258 0.979 . S
H284 C258 0.980 . S
H285 C258 0.983 . S
H286 C257 0.982 . S
H287 C257 0.979 . S
H288 C257 0.977 . S
H289 C259 0.948 . S
H290 C261 0.947 . S
H291 C262 0.948 . S
H292 C268 0.982 . S
H293 C268 0.979 . S
H294 C268 0.977 . S
H295 C269 0.979 . S
H296 C269 0.980 . S
H297 C269 0.983 . S
H298 C242 0.947 . S
C299 C242 1.392 . S
C299 C243 1.419 . S
C299 H281 0.948 . S
C300 C301 1.391 . S
C300 C304 1.391 . S
C300 H342 0.948 . S
C301 C300 1.391 . S
C301 C302 1.391 . S
C302 C301 1.391 . S
C302 H358 0.947 . S
C302 C359 1.392 . S
C303 C304 1.391 . S
C303 C307 1.397 . S
C303 C359 1.419 . S
C304 C300 1.391 . S
C304 C303 1.391 . S
C304 C305 1.399 . S
C305 C304 1.399 . S
C305 C308 1.396 . S
C305 C317 1.453 . S
C305 C318 1.684 . S
H306 C330 0.948 . S
C307 C303 1.397 . S
C307 C308 1.394 . S
C307 C326 1.723 . S
C308 C305 1.396 . S
C308 C307 1.394 . S
C308 C338 1.723 . S
H309 C332 0.947 . S
H310 C333 0.948 . S
H311 C339 0.982 . S
H312 C340 0.979 . S
H313 C340 0.980 . S
H314 C340 0.983 . S
H315 C339 0.979 . S
H316 C339 0.977 . S
C317 C305 1.453 . S
C317 H346 0.982 . S
C317 H347 0.979 . S
C317 H348 0.977 . S
C318 C305 1.684 . S
C318 H343 0.979 . S
C318 H344 0.980 . S
C318 H345 0.983 . S
C319 C320 1.391 . S
C319 C324 1.391 . S
C319 H349 0.948 . S
C320 C319 1.391 . S
C320 C321 1.391 . S
C321 C320 1.391 . S
C321 C322 1.392 . S
C321 H350 0.947 . S
C322 C321 1.392 . S
C322 C323 1.419 . S
C322 H351 0.948 . S
C323 C322 1.419 . S
C323 C324 1.391 . S
C323 C327 1.397 . S
C324 C319 1.391 . S
C324 C323 1.391 . S
C324 C325 1.399 . S
C325 C324 1.399 . S
C325 C326 1.396 . S
C325 C328 1.453 . S
C325 C329 1.684 . S
C326 C307 1.723 . S
C326 C325 1.396 . S
C326 C327 1.394 . S
C327 C323 1.397 . S
C327 C326 1.394 . S
C327 C337 1.723 . S
C328 C325 1.453 . S
C328 H352 0.982 . S
C328 H353 0.979 . S
C328 H354 0.977 . S
C329 C325 1.684 . S
C329 H355 0.979 . S
C329 H356 0.980 . S
C329 H357 0.983 . S
C330 H306 0.948 . S
C330 C331 1.391 . S
C330 C335 1.391 . S
C331 C330 1.391 . S
C331 C332 1.391 . S
C332 H309 0.947 . S
C332 C331 1.391 . S
C332 C333 1.392 . S
C333 H310 0.948 . S
C333 C332 1.392 . S
C333 C334 1.419 . S
C334 C333 1.419 . S
C334 C335 1.391 . S
C334 C338 1.397 . S
C335 C330 1.391 . S
C335 C334 1.391 . S
C335 C336 1.399 . S
C336 C335 1.399 . S
C336 C337 1.396 . S
C336 C339 1.453 . S
C336 C340 1.684 . S
C337 C327 1.723 . S
C337 C336 1.396 . S
C337 C338 1.394 . S
C338 C308 1.723 . S
C338 C334 1.397 . S
C338 C337 1.394 . S
C339 H311 0.982 . S
C339 H315 0.979 . S
C339 H316 0.977 . S
C339 C336 1.453 . S
C340 H312 0.979 . S
C340 H313 0.980 . S
C340 H314 0.983 . S
C340 C336 1.684 . S
H341 C359 0.948 . S
H342 C300 0.948 . S
H343 C318 0.979 . S
H344 C318 0.980 . S
H345 C318 0.983 . S
H346 C317 0.982 . S
H347 C317 0.979 . S
H348 C317 0.977 . S
H349 C319 0.948 . S
H350 C321 0.947 . S
H351 C322 0.948 . S
H352 C328 0.982 . S
H353 C328 0.979 . S
H354 C328 0.977 . S
H355 C329 0.979 . S
H356 C329 0.980 . S
H357 C329 0.983 . S
H358 C302 0.947 . S
C359 C302 1.392 . S
C359 C303 1.419 . S
C359 H341 0.948 . S
C360 C361 1.391 . S
C360 C364 1.391 . S
C360 H402 0.948 . S
C361 C360 1.391 . S
C361 C362 1.391 . S
C362 C361 1.391 . S
C362 H418 0.947 . S
C362 C419 1.392 . S
C363 C364 1.391 . S
C363 C367 1.397 . S
C363 C419 1.419 . S
C364 C360 1.391 . S
C364 C363 1.391 . S
C364 C365 1.399 . S
C365 C364 1.399 . S
C365 C368 1.396 . S
C365 C377 1.453 . S
C365 C378 1.684 . S
H366 C390 0.948 . S
C367 C363 1.397 . S
C367 C368 1.394 . S
C367 C386 1.723 . S
C368 C365 1.396 . S
C368 C367 1.394 . S
C368 C398 1.723 . S
H369 C392 0.947 . S
H370 C393 0.948 . S
H371 C399 0.982 . S
H372 C400 0.979 . S
H373 C400 0.980 . S
H374 C400 0.983 . S
H375 C399 0.979 . S
H376 C399 0.977 . S
C377 C365 1.453 . S
C377 H406 0.982 . S
C377 H407 0.979 . S
C377 H408 0.977 . S
C378 C365 1.684 . S
C378 H403 0.979 . S
C378 H404 0.980 . S
C378 H405 0.983 . S
C379 C380 1.391 . S
C379 C384 1.391 . S
C379 H409 0.948 . S
C380 C379 1.391 . S
C380 C381 1.391 . S
C381 C380 1.391 . S
C381 C382 1.392 . S
C381 H410 0.947 . S
C382 C381 1.392 . S
C382 C383 1.419 . S
C382 H411 0.948 . S
C383 C382 1.419 . S
C383 C384 1.391 . S
C383 C387 1.397 . S
C384 C379 1.391 . S
C384 C383 1.391 . S
C384 C385 1.399 . S
C385 C384 1.399 . S
C385 C386 1.396 . S
C385 C388 1.453 . S
C385 C389 1.684 . S
C386 C367 1.723 . S
C386 C385 1.396 . S
C386 C387 1.394 . S
C387 C383 1.397 . S
C387 C386 1.394 . S
C387 C397 1.723 . S
C388 C385 1.453 . S
C388 H412 0.982 . S
C388 H413 0.979 . S
C388 H414 0.977 . S
C389 C385 1.684 . S
C389 H415 0.979 . S
C389 H416 0.980 . S
C389 H417 0.983 . S
C390 H366 0.948 . S
C390 C391 1.391 . S
C390 C395 1.391 . S
C391 C390 1.391 . S
C391 C392 1.391 . S
C392 H369 0.947 . S
C392 C391 1.391 . S
C392 C393 1.392 . S
C393 H370 0.948 . S
C393 C392 1.392 . S
C393 C394 1.419 . S
C394 C393 1.419 . S
C394 C395 1.391 . S
C394 C398 1.397 . S
C395 C390 1.391 . S
C395 C394 1.391 . S
C395 C396 1.399 . S
C396 C395 1.399 . S
C396 C397 1.396 . S
C396 C399 1.453 . S
C396 C400 1.684 . S
C397 C387 1.723 . S
C397 C396 1.396 . S
C397 C398 1.394 . S
C398 C368 1.723 . S
C398 C394 1.397 . S
C398 C397 1.394 . S
C399 H371 0.982 . S
C399 H375 0.979 . S
C399 H376 0.977 . S
C399 C396 1.453 . S
C400 H372 0.979 . S
C400 H373 0.980 . S
C400 H374 0.983 . S
C400 C396 1.684 . S
H401 C419 0.948 . S
H402 C360 0.948 . S
H403 C378 0.979 . S
H404 C378 0.980 . S
H405 C378 0.983 . S
H406 C377 0.982 . S
H407 C377 0.979 . S
H408 C377 0.977 . S
H409 C379 0.948 . S
H410 C381 0.947 . S
H411 C382 0.948 . S
H412 C388 0.982 . S
H413 C388 0.979 . S
H414 C388 0.977 . S
H415 C389 0.979 . S
H416 C389 0.980 . S
H417 C389 0.983 . S
H418 C362 0.947 . S
C419 C362 1.392 . S
C419 C363 1.419 . S
C419 H401 0.948 . S
C420 C421 1.391 . S
C420 C424 1.391 . S
C420 H462 0.948 . S
C421 C420 1.391 . S
C421 C422 1.391 . S
C422 C421 1.391 . S
C422 H478 0.947 . S
C422 C479 1.392 . S
C423 C424 1.391 . S
C423 C427 1.397 . S
C423 C479 1.419 . S
C424 C420 1.391 . S
C424 C423 1.391 . S
C424 C425 1.399 . S
C425 C424 1.399 . S
C425 C428 1.396 . S
C425 C437 1.453 . S
C425 C438 1.684 . S
H426 C450 0.948 . S
C427 C423 1.397 . S
C427 C428 1.394 . S
C427 C446 1.723 . S
C428 C425 1.396 . S
C428 C427 1.394 . S
C428 C458 1.723 . S
H429 C452 0.947 . S
H430 C453 0.948 . S
H431 C459 0.982 . S
H432 C460 0.979 . S
H433 C460 0.980 . S
H434 C460 0.983 . S
H435 C459 0.979 . S
H436 C459 0.977 . S
C437 C425 1.453 . S
C437 H466 0.982 . S
C437 H467 0.979 . S
C437 H468 0.977 . S
C438 C425 1.684 . S
C438 H463 0.979 . S
C438 H464 0.980 . S
C438 H465 0.983 . S
C439 C440 1.391 . S
C439 C444 1.391 . S
C439 H469 0.948 . S
C440 C439 1.391 . S
C440 C441 1.391 . S
C441 C440 1.391 . S
C441 C442 1.392 . S
C441 H470 0.947 . S
C442 C441 1.392 . S
C442 C443 1.419 . S
C442 H471 0.948 . S
C443 C442 1.419 . S
C443 C444 1.391 . S
C443 C447 1.397 . S
C444 C439 1.391 . S
C444 C443 1.391 . S
C444 C445 1.399 . S
C445 C444 1.399 . S
C445 C446 1.396 . S
C445 C448 1.453 . S
C445 C449 1.684 . S
C446 C427 1.723 . S
C446 C445 1.396 . S
C446 C447 1.394 . S
C447 C443 1.397 . S
C447 C446 1.394 . S
C447 C457 1.723 . S
C448 C445 1.453 . S
C448 H472 0.982 . S
C448 H473 0.979 . S
C448 H474 0.977 . S
C449 C445 1.684 . S
C449 H475 0.979 . S
C449 H476 0.980 . S
C449 H477 0.983 . S
C450 H426 0.948 . S
C450 C451 1.391 . S
C450 C455 1.391 . S
C451 C450 1.391 . S
C451 C452 1.391 . S
C452 H429 0.947 . S
C452 C451 1.391 . S
C452 C453 1.392 . S
C453 H430 0.948 . S
C453 C452 1.392 . S
C453 C454 1.419 . S
C454 C453 1.419 . S
C454 C455 1.391 . S
C454 C458 1.397 . S
C455 C450 1.391 . S
C455 C454 1.391 . S
C455 C456 1.399 . S
C456 C455 1.399 . S
C456 C457 1.396 . S
C456 C459 1.453 . S
C456 C460 1.684 . S
C457 C447 1.723 . S
C457 C456 1.396 . S
C457 C458 1.394 . S
C458 C428 1.723 . S
C458 C454 1.397 . S
C458 C457 1.394 . S
C459 H431 0.982 . S
C459 H435 0.979 . S
C459 H436 0.977 . S
C459 C456 1.453 . S
C460 H432 0.979 . S
C460 H433 0.980 . S
C460 H434 0.983 . S
C460 C456 1.684 . S
H461 C479 0.948 . S
H462 C420 0.948 . S
H463 C438 0.979 . S
H464 C438 0.980 . S
H465 C438 0.983 . S
H466 C437 0.982 . S
H467 C437 0.979 . S
H468 C437 0.977 . S
H469 C439 0.948 . S
H470 C441 0.947 . S
H471 C442 0.948 . S
H472 C448 0.982 . S
H473 C448 0.979 . S
H474 C448 0.977 . S
H475 C449 0.979 . S
H476 C449 0.980 . S
H477 C449 0.983 . S
H478 C422 0.947 . S
C479 C422 1.392 . S
C479 C423 1.419 . S
C479 H461 0.948 . S
C480 C481 1.391 . S
C480 C484 1.391 . S
C480 H522 0.948 . S
C481 C480 1.391 . S
C481 C482 1.391 . S
C482 C481 1.391 . S
C482 H538 0.947 . S
C482 C539 1.392 . S
C483 C484 1.391 . S
C483 C487 1.397 . S
C483 C539 1.419 . S
C484 C480 1.391 . S
C484 C483 1.391 . S
C484 C485 1.399 . S
C485 C484 1.399 . S
C485 C488 1.396 . S
C485 C497 1.453 . S
C485 C498 1.684 . S
H486 C510 0.948 . S
C487 C483 1.397 . S
C487 C488 1.394 . S
C487 C506 1.723 . S
C488 C485 1.396 . S
C488 C487 1.394 . S
C488 C518 1.723 . S
H489 C512 0.947 . S
H490 C513 0.948 . S
H491 C519 0.982 . S
H492 C520 0.979 . S
H493 C520 0.980 . S
H494 C520 0.983 . S
H495 C519 0.979 . S
H496 C519 0.977 . S
C497 C485 1.453 . S
C497 H526 0.982 . S
C497 H527 0.979 . S
C497 H528 0.977 . S
C498 C485 1.684 . S
C498 H523 0.979 . S
C498 H524 0.980 . S
C498 H525 0.983 . S
C499 C500 1.391 . S
C499 C504 1.391 . S
C499 H529 0.948 . S
C500 C499 1.391 . S
C500 C501 1.391 . S
C501 C500 1.391 . S
C501 C502 1.392 . S
C501 H530 0.947 . S
C502 C501 1.392 . S
C502 C503 1.419 . S
C502 H531 0.948 . S
C503 C502 1.419 . S
C503 C504 1.391 . S
C503 C507 1.397 . S
C504 C499 1.391 . S
C504 C503 1.391 . S
C504 C505 1.399 . S
C505 C504 1.399 . S
C505 C506 1.396 . S
C505 C508 1.453 . S
C505 C509 1.684 . S
C506 C487 1.723 . S
C506 C505 1.396 . S
C506 C507 1.394 . S
C507 C503 1.397 . S
C507 C506 1.394 . S
C507 C517 1.723 . S
C508 C505 1.453 . S
C508 H532 0.982 . S
C508 H533 0.979 . S
C508 H534 0.977 . S
C509 C505 1.684 . S
C509 H535 0.979 . S
C509 H536 0.980 . S
C509 H537 0.983 . S
C510 H486 0.948 . S
C510 C511 1.391 . S
C510 C515 1.391 . S
C511 C510 1.391 . S
C511 C512 1.391 . S
C512 H489 0.947 . S
C512 C511 1.391 . S
C512 C513 1.392 . S
C513 H490 0.948 . S
C513 C512 1.392 . S
C513 C514 1.419 . S
C514 C513 1.419 . S
C514 C515 1.391 . S
C514 C518 1.397 . S
C515 C510 1.391 . S
C515 C514 1.391 . S
C515 C516 1.399 . S
C516 C515 1.399 . S
C516 C517 1.396 . S
C516 C519 1.453 . S
C516 C520 1.684 . S
C517 C507 1.723 . S
C517 C516 1.396 . S
C517 C518 1.394 . S
C518 C488 1.723 . S
C518 C514 1.397 . S
C518 C517 1.394 . S
C519 H491 0.982 . S
C519 H495 0.979 . S
C519 H496 0.977 . S
C519 C516 1.453 . S
C520 H492 0.979 . S
C520 H493 0.980 . S
C520 H494 0.983 . S
C520 C516 1.684 . S
H521 C539 0.948 . S
H522 C480 0.948 . S
H523 C498 0.979 . S
H524 C498 0.980 . S
H525 C498 0.983 . S
H526 C497 0.982 . S
H527 C497 0.979 . S
H528 C497 0.977 . S
H529 C499 0.948 . S
H530 C501 0.947 . S
H531 C502 0.948 . S
H532 C508 0.982 . S
H533 C508 0.979 . S
H534 C508 0.977 . S
H535 C509 0.979 . S
H536 C509 0.980 . S
H537 C509 0.983 . S
H538 C482 0.947 . S
C539 C482 1.392 . S
C539 C483 1.419 . S
C539 H521 0.948 . S
C540 C541 1.391 . S
C540 C544 1.391 . S
C540 H582 0.948 1_556 S
C541 C540 1.391 . S
C541 C542 1.391 . S
C542 C541 1.391 . S
C542 H598 0.947 . S
C542 C599 1.392 . S
C543 C544 1.391 . S
C543 C547 1.397 . S
C543 C599 1.419 . S
C544 C540 1.391 . S
C544 C543 1.391 . S
C544 C545 1.399 . S
C545 C544 1.399 . S
C545 C548 1.396 . S
C545 C557 1.453 1_556 S
C545 C558 1.684 . S
H546 C570 0.948 . S
C547 C543 1.397 . S
C547 C548 1.394 . S
C547 C566 1.723 . S
C548 C545 1.396 . S
C548 C547 1.394 . S
C548 C578 1.723 . S
H549 C572 0.947 1_554 S
H550 C573 0.948 . S
H551 C579 0.982 . S
H552 C580 0.979 . S
H553 C580 0.980 . S
H554 C580 0.983 . S
H555 C579 0.979 . S
H556 C579 0.977 . S
C557 C545 1.453 1_554 S
C557 H586 0.982 . S
C557 H587 0.979 . S
C557 H588 0.977 . S
C558 C545 1.684 . S
C558 H583 0.979 . S
C558 H584 0.989 . S
C558 H585 0.983 1_556 S
C559 C560 1.391 . S
C559 C564 1.391 . S
C559 H589 0.948 . S
C560 C559 1.391 . S
C560 C561 1.391 . S
C561 C560 1.391 . S
C561 C562 1.392 . S
C561 H590 0.947 . S
C562 C561 1.392 . S
C562 C563 1.419 . S
C562 H591 0.948 . S
C563 C562 1.419 . S
C563 C564 1.391 . S
C563 C567 1.397 . S
C564 C559 1.391 . S
C564 C563 1.391 . S
C564 C565 1.399 . S
C565 C564 1.399 . S
C565 C566 1.396 . S
C565 C568 1.453 . S
C565 C569 1.684 . S
C566 C547 1.723 . S
C566 C565 1.396 . S
C566 C567 1.394 . S
C567 C563 1.397 . S
C567 C566 1.394 . S
C567 C577 1.723 . S
C568 C565 1.453 . S
C568 H592 0.982 . S
C568 H593 0.979 . S
C568 H594 0.977 . S
C569 C565 1.684 . S
C569 H595 0.979 . S
C569 H596 0.980 . S
C569 H597 0.983 . S
C570 H546 0.948 . S
C570 C571 1.391 . S
C570 C575 1.391 . S
C571 C570 1.391 . S
C571 C572 1.391 . S
C572 H549 0.947 1_556 S
C572 C571 1.391 . S
C572 C573 1.392 . S
C573 H550 0.948 . S
C573 C572 1.392 . S
C573 C574 1.419 . S
C574 C573 1.419 . S
C574 C575 1.391 . S
C574 C578 1.397 . S
C575 C570 1.391 . S
C575 C574 1.391 . S
C575 C576 1.399 . S
C576 C575 1.399 . S
C576 C577 1.396 . S
C576 C579 1.453 . S
C576 C580 1.684 . S
C577 C567 1.723 . S
C577 C576 1.396 . S
C577 C578 1.394 . S
C578 C548 1.723 . S
C578 C574 1.397 . S
C578 C577 1.394 . S
C579 H551 0.982 . S
C579 H555 0.979 . S
C579 H556 0.977 . S
C579 C576 1.453 . S
C580 H552 0.979 . S
C580 H553 0.980 . S
C580 H554 0.983 . S
C580 C576 1.684 . S
H581 C599 0.948 . S
H582 C540 0.948 1_554 S
H583 C558 0.979 . S
H584 C558 0.989 . S
H585 C558 0.983 1_554 S
H586 C557 0.982 . S
H587 C557 0.979 . S
H588 C557 0.977 . S
H589 C559 0.948 . S
H590 C561 0.947 . S
H591 C562 0.948 . S
H592 C568 0.982 . S
H593 C568 0.979 . S
H594 C568 0.977 . S
H595 C569 0.979 . S
H596 C569 0.980 . S
H597 C569 0.983 . S
H598 C542 0.947 . S
C599 C542 1.392 . S
C599 C543 1.419 . S
C599 H581 0.948 . S
C600 C601 1.391 . S
C600 C604 1.391 . S
C600 H642 0.948 1_556 S
C601 C600 1.391 . S
C601 C602 1.391 . S
C602 C601 1.391 . S
C602 H658 0.947 . S
C602 C659 1.392 . S
C603 C604 1.391 . S
C603 C607 1.397 . S
C603 C659 1.419 . S
C604 C600 1.391 . S
C604 C603 1.391 . S
C604 C605 1.399 . S
C605 C604 1.399 . S
C605 C608 1.396 . S
C605 C617 1.453 . S
C605 C618 1.684 1_556 S
H606 C630 0.948 . S
C607 C603 1.397 . S
C607 C608 1.394 . S
C607 C626 1.723 . S
C608 C605 1.396 . S
C608 C607 1.394 . S
C608 C638 1.723 . S
H609 C632 0.947 . S
H610 C633 0.948 1_554 S
H611 C639 0.982 . S
H612 C640 0.979 . S
H613 C640 0.980 . S
H614 C640 0.983 . S
H615 C639 0.979 . S
H616 C639 0.977 . S
C617 C605 1.453 . S
C617 H646 0.982 . S
C617 H647 0.979 1_556 S
C617 H648 0.977 . S
C618 C605 1.684 1_554 S
C618 H643 0.979 . S
C618 H644 0.980 . S
C618 H645 0.983 . S
C619 C620 1.391 . S
C619 C624 1.391 . S
C619 H649 0.948 . S
C620 C619 1.391 . S
C620 C621 1.391 . S
C621 C620 1.391 . S
C621 C622 1.392 . S
C621 H650 0.947 . S
C622 C621 1.392 . S
C622 C623 1.419 . S
C622 H651 0.948 . S
C623 C622 1.419 . S
C623 C624 1.391 . S
C623 C627 1.397 . S
C624 C619 1.391 . S
C624 C623 1.391 . S
C624 C625 1.399 . S
C625 C624 1.399 . S
C625 C626 1.396 . S
C625 C628 1.453 . S
C625 C629 1.684 . S
C626 C607 1.723 . S
C626 C625 1.396 . S
C626 C627 1.394 . S
C627 C623 1.397 . S
C627 C626 1.394 . S
C627 C637 1.723 . S
C628 C625 1.453 . S
C628 H652 0.982 . S
C628 H653 0.979 . S
C628 H654 0.977 . S
C629 C625 1.684 . S
C629 H655 0.979 . S
C629 H656 0.980 . S
C629 H657 0.983 . S
C630 H606 0.948 . S
C630 C631 1.391 . S
C630 C635 1.391 . S
C631 C630 1.391 . S
C631 C632 1.391 1_556 S
C632 H609 0.947 . S
C632 C631 1.391 1_554 S
C632 C633 1.392 1_554 S
C633 H610 0.948 1_556 S
C633 C632 1.392 1_556 S
C633 C634 1.419 . S
C634 C633 1.419 . S
C634 C635 1.391 . S
C634 C638 1.397 . S
C635 C630 1.391 . S
C635 C634 1.391 . S
C635 C636 1.399 . S
C636 C635 1.399 . S
C636 C637 1.396 . S
C636 C639 1.453 . S
C636 C640 1.684 . S
C637 C627 1.723 . S
C637 C636 1.396 . S
C637 C638 1.394 . S
C638 C608 1.723 . S
C638 C634 1.397 . S
C638 C637 1.394 . S
C639 H611 0.982 . S
C639 H615 0.979 . S
C639 H616 0.977 . S
C639 C636 1.453 . S
C640 H612 0.979 . S
C640 H613 0.980 . S
C640 H614 0.983 . S
C640 C636 1.684 . S
H641 C659 0.948 . S
H642 C600 0.948 1_554 S
H643 C618 0.979 . S
H644 C618 0.980 . S
H645 C618 0.983 . S
H646 C617 0.982 . S
H647 C617 0.979 1_554 S
H648 C617 0.977 . S
H649 C619 0.948 . S
H650 C621 0.947 . S
H651 C622 0.948 . S
H652 C628 0.982 . S
H653 C628 0.979 . S
H654 C628 0.977 . S
H655 C629 0.979 . S
H656 C629 0.980 . S
H657 C629 0.983 . S
H658 C602 0.947 . S
C659 C602 1.392 . S
C659 C603 1.419 . S
C659 H641 0.948 . S
C660 C661 1.391 . S
C660 C664 1.391 . S
C660 H702 0.948 1_556 S
C661 C660 1.391 . S
C661 C662 1.391 . S
C662 C661 1.391 . S
C662 H718 0.947 . S
C662 C719 1.392 . S
C663 C664 1.391 . S
C663 C667 1.397 . S
C663 C719 1.419 . S
C664 C660 1.391 . S
C664 C663 1.391 . S
C664 C665 1.399 . S
C665 C664 1.399 . S
C665 C668 1.396 . S
C665 C677 1.453 1_556 S
C665 C678 1.684 . S
H666 C690 0.948 . S
C667 C663 1.397 . S
C667 C668 1.394 . S
C667 C686 1.723 . S
C668 C665 1.396 . S
C668 C667 1.394 . S
C668 C698 1.723 . S
H669 C692 0.947 1_554 S
H670 C693 0.948 . S
H671 C699 0.982 . S
H672 C700 0.979 . S
H673 C700 0.980 . S
H674 C700 0.983 . S
H675 C699 0.979 . S
H676 C699 0.977 . S
C677 C665 1.453 1_554 S
C677 H706 0.982 . S
C677 H707 0.979 . S
C677 H708 0.977 . S
C678 C665 1.684 . S
C678 H703 0.979 . S
C678 H704 0.980 . S
C678 H705 0.983 1_556 S
C679 C680 1.391 . S
C679 C684 1.391 . S
C679 H709 0.948 . S
C680 C679 1.391 . S
C680 C681 1.391 . S
C681 C680 1.391 . S
C681 C682 1.392 . S
C681 H710 0.947 . S
C682 C681 1.392 . S
C682 C683 1.419 . S
C682 H711 0.948 . S
C683 C682 1.419 . S
C683 C684 1.391 . S
C683 C687 1.397 . S
C684 C679 1.391 . S
C684 C683 1.391 . S
C684 C685 1.399 . S
C685 C684 1.399 . S
C685 C686 1.396 . S
C685 C688 1.453 . S
C685 C689 1.684 . S
C686 C667 1.723 . S
C686 C685 1.396 . S
C686 C687 1.394 . S
C687 C683 1.397 . S
C687 C686 1.394 . S
C687 C697 1.723 . S
C688 C685 1.453 . S
C688 H712 0.982 . S
C688 H713 0.979 . S
C688 H714 0.977 . S
C689 C685 1.684 . S
C689 H715 0.979 . S
C689 H716 0.980 . S
C689 H717 0.983 . S
C690 H666 0.948 . S
C690 C691 1.391 . S
C690 C695 1.391 . S
C691 C690 1.391 . S
C691 C692 1.391 . S
C692 H669 0.947 1_556 S
C692 C691 1.391 . S
C692 C693 1.392 . S
C693 H670 0.948 . S
C693 C692 1.392 . S
C693 C694 1.419 . S
C694 C693 1.419 . S
C694 C695 1.391 . S
C694 C698 1.397 . S
C695 C690 1.391 . S
C695 C694 1.391 . S
C695 C696 1.399 . S
C696 C695 1.399 . S
C696 C697 1.396 . S
C696 C699 1.453 . S
C696 C700 1.684 . S
C697 C687 1.723 . S
C697 C696 1.396 . S
C697 C698 1.394 . S
C698 C668 1.723 . S
C698 C694 1.397 . S
C698 C697 1.394 . S
C699 H671 0.982 . S
C699 H675 0.979 . S
C699 H676 0.977 . S
C699 C696 1.453 . S
C700 H672 0.979 . S
C700 H673 0.980 . S
C700 H674 0.983 . S
C700 C696 1.684 . S
H701 C719 0.948 . S
H702 C660 0.948 1_554 S
H703 C678 0.979 . S
H704 C678 0.980 . S
H705 C678 0.983 1_554 S
H706 C677 0.982 . S
H707 C677 0.979 . S
H708 C677 0.977 . S
H709 C679 0.948 . S
H710 C681 0.947 . S
H711 C682 0.948 . S
H712 C688 0.982 . S
H713 C688 0.979 . S
H714 C688 0.977 . S
H715 C689 0.979 . S
H716 C689 0.980 . S
H717 C689 0.983 . S
H718 C662 0.947 . S
C719 C662 1.392 . S
C719 C663 1.419 . S
C719 H701 0.948 . S
C720 C721 1.391 . S
C720 C724 1.391 . S
C720 H762 0.981 . S
C721 C720 1.391 . S
C721 C722 1.391 . S
C722 C721 1.391 . S
C722 H778 0.947 . S
C722 C779 1.392 . S
C723 C724 1.391 . S
C723 C727 1.397 . S
C723 C779 1.419 . S
C724 C720 1.391 . S
C724 C723 1.391 . S
C724 C725 1.399 . S
C725 C724 1.399 . S
C725 C728 1.396 . S
C725 C737 1.453 . S
C725 C738 1.684 . S
H726 C750 0.948 . S
C727 C723 1.397 . S
C727 C728 1.394 . S
C727 C746 1.723 . S
C728 C725 1.396 . S
C728 C727 1.394 . S
C728 C758 1.723 . S
H729 C752 0.947 1_556 S
H730 C753 0.948 . S
H731 C759 0.982 . S
H732 C760 0.979 . S
H733 C760 0.980 . S
H734 C760 0.983 . S
H735 C759 0.979 . S
H736 C759 0.977 . S
C737 C725 1.453 . S
C737 H766 0.982 . S
C737 H767 0.979 1_554 S
C737 H768 0.976 . S
C738 C725 1.684 . S
C738 H763 0.979 . S
C738 H764 0.980 . S
C738 H765 0.983 1_554 S
C739 C740 1.391 . S
C739 C744 1.391 . S
C739 H769 0.948 . S
C740 C739 1.391 . S
C740 C741 1.391 . S
C741 C740 1.391 . S
C741 C742 1.392 . S
C741 H770 0.947 . S
C742 C741 1.392 . S
C742 C743 1.419 . S
C742 H771 0.948 . S
C743 C742 1.419 . S
C743 C744 1.391 . S
C743 C747 1.397 . S
C744 C739 1.391 . S
C744 C743 1.391 . S
C744 C745 1.399 . S
C745 C744 1.399 . S
C745 C746 1.396 . S
C745 C748 1.453 . S
C745 C749 1.684 . S
C746 C727 1.723 . S
C746 C745 1.396 . S
C746 C747 1.394 . S
C747 C743 1.397 . S
C747 C746 1.394 . S
C747 C757 1.723 . S
C748 C745 1.453 . S
C748 H772 0.982 . S
C748 H773 0.979 . S
C748 H774 0.977 . S
C749 C745 1.684 . S
C749 H775 0.979 . S
C749 H776 0.980 . S
C749 H777 0.983 . S
C750 H726 0.948 . S
C750 C751 1.391 . S
C750 C755 1.391 . S
C751 C750 1.391 . S
C751 C752 1.391 . S
C752 H729 0.947 1_554 S
C752 C751 1.391 . S
C752 C753 1.392 . S
C753 H730 0.948 . S
C753 C752 1.392 . S
C753 C754 1.419 . S
C754 C753 1.419 . S
C754 C755 1.391 . S
C754 C758 1.397 . S
C755 C750 1.391 . S
C755 C754 1.391 . S
C755 C756 1.399 . S
C756 C755 1.399 . S
C756 C757 1.396 . S
C756 C759 1.453 . S
C756 C760 1.684 . S
C757 C747 1.723 . S
C757 C756 1.396 . S
C757 C758 1.394 . S
C758 C728 1.723 . S
C758 C754 1.397 . S
C758 C757 1.394 . S
C759 H731 0.982 . S
C759 H735 0.979 . S
C759 H736 0.977 . S
C759 C756 1.453 . S
C760 H732 0.979 . S
C760 H733 0.980 . S
C760 H734 0.983 . S
C760 C756 1.684 . S
H761 C779 0.948 . S
H762 C720 0.981 . S
H763 C738 0.979 . S
H764 C738 0.980 . S
H765 C738 0.983 1_556 S
H766 C737 0.982 . S
H767 C737 0.979 1_556 S
H768 C737 0.976 . S
H769 C739 0.948 . S
H770 C741 0.947 . S
H771 C742 0.948 . S
H772 C748 0.982 . S
H773 C748 0.979 . S
H774 C748 0.977 . S
H775 C749 0.979 . S
H776 C749 0.980 . S
H777 C749 0.983 . S
H778 C722 0.947 . S
C779 C722 1.392 . S
C779 C723 1.419 . S
C779 H761 0.948 . S
C780 C781 1.391 . S
C780 C784 1.391 . S
C780 H822 0.948 1_554 S
C781 C780 1.391 . S
C781 C782 1.391 . S
C782 C781 1.391 . S
C782 H838 0.947 . S
C782 C839 1.392 . S
C783 C784 1.391 . S
C783 C787 1.397 . S
C783 C839 1.419 . S
C784 C780 1.391 . S
C784 C783 1.391 . S
C784 C785 1.399 . S
C785 C784 1.399 . S
C785 C788 1.396 . S
C785 C797 1.453 . S
C785 C798 1.684 1_554 S
H786 C810 0.948 . S
C787 C783 1.397 . S
C787 C788 1.394 . S
C787 C806 1.723 . S
C788 C785 1.396 . S
C788 C787 1.394 . S
C788 C818 1.723 . S
H789 C812 0.947 1_556 S
H790 C813 0.948 . S
H791 C819 0.982 . S
H792 C820 0.979 . S
H793 C820 0.980 . S
H794 C820 0.983 . S
H795 C819 0.979 . S
H796 C819 0.977 . S
C797 C785 1.453 . S
C797 H826 0.982 . S
C797 H827 0.979 1_554 S
C797 H828 0.977 . S
C798 C785 1.684 1_556 S
C798 H823 0.979 . S
C798 H824 0.980 . S
C798 H825 0.983 . S
C799 C800 1.391 . S
C799 C804 1.391 . S
C799 H829 0.948 . S
C800 C799 1.391 . S
C800 C801 1.391 . S
C801 C800 1.391 . S
C801 C802 1.392 . S
C801 H830 0.947 . S
C802 C801 1.392 . S
C802 C803 1.419 . S
C802 H831 0.948 . S
C803 C802 1.419 . S
C803 C804 1.391 . S
C803 C807 1.397 . S
C804 C799 1.391 . S
C804 C803 1.391 . S
C804 C805 1.399 . S
C805 C804 1.399 . S
C805 C806 1.396 . S
C805 C808 1.453 . S
C805 C809 1.684 . S
C806 C787 1.723 . S
C806 C805 1.396 . S
C806 C807 1.394 . S
C807 C803 1.397 . S
C807 C806 1.394 . S
C807 C817 1.723 . S
C808 C805 1.453 . S
C808 H832 0.982 . S
C808 H833 0.979 . S
C808 H834 0.977 . S
C809 C805 1.684 . S
C809 H835 0.979 . S
C809 H836 0.980 . S
C809 H837 0.983 . S
C810 H786 0.948 . S
C810 C811 1.391 . S
C810 C815 1.391 . S
C811 C810 1.391 . S
C811 C812 1.391 . S
C812 H789 0.947 1_554 S
C812 C811 1.391 . S
C812 C813 1.392 . S
C813 H790 0.948 . S
C813 C812 1.392 . S
C813 C814 1.419 . S
C814 C813 1.419 . S
C814 C815 1.391 . S
C814 C818 1.397 . S
C815 C810 1.391 . S
C815 C814 1.391 . S
C815 C816 1.399 . S
C816 C815 1.399 . S
C816 C817 1.396 . S
C816 C819 1.453 . S
C816 C820 1.684 . S
C817 C807 1.723 . S
C817 C816 1.396 . S
C817 C818 1.394 . S
C818 C788 1.723 . S
C818 C814 1.397 . S
C818 C817 1.394 . S
C819 H791 0.982 . S
C819 H795 0.979 . S
C819 H796 0.977 . S
C819 C816 1.453 . S
C820 H792 0.979 . S
C820 H793 0.980 . S
C820 H794 0.983 . S
C820 C816 1.684 . S
H821 C839 0.948 . S
H822 C780 0.948 1_556 S
H823 C798 0.979 . S
H824 C798 0.980 . S
H825 C798 0.983 . S
H826 C797 0.982 . S
H827 C797 0.979 1_556 S
H828 C797 0.977 . S
H829 C799 0.948 . S
H830 C801 0.947 . S
H831 C802 0.948 . S
H832 C808 0.982 . S
H833 C808 0.979 . S
H834 C808 0.977 . S
H835 C809 0.979 . S
H836 C809 0.980 . S
H837 C809 0.983 . S
H838 C782 0.947 . S
C839 C782 1.392 . S
C839 C783 1.419 . S
C839 H821 0.948 . S
C840 C841 1.391 . S
C840 C844 1.391 . S
C840 H882 0.948 . S
C841 C840 1.391 . S
C841 C842 1.391 . S
C842 C841 1.391 . S
C842 H898 0.947 . S
C842 C899 1.392 . S
C843 C844 1.391 . S
C843 C847 1.397 . S
C843 C899 1.419 . S
C844 C840 1.391 . S
C844 C843 1.391 . S
C844 C845 1.399 . S
C845 C844 1.399 . S
C845 C848 1.396 . S
C845 C857 1.453 . S
C845 C858 1.684 . S
H846 C870 0.948 . S
C847 C843 1.397 . S
C847 C848 1.394 . S
C847 C866 1.723 . S
C848 C845 1.396 . S
C848 C847 1.394 . S
C848 C878 1.723 . S
H849 C872 0.947 1_556 S
H850 C873 0.948 . S
H851 C879 0.982 . S
H852 C880 0.979 . S
H853 C880 0.980 . S
H854 C880 0.983 . S
H855 C879 0.979 . S
H856 C879 0.977 . S
C857 C845 1.453 . S
C857 H886 0.982 . S
C857 H887 0.979 1_554 S
C857 H888 0.977 . S
C858 C845 1.684 . S
C858 H883 0.979 . S
C858 H884 0.980 . S
C858 H885 0.983 1_554 S
C859 C860 1.391 . S
C859 C864 1.391 . S
C859 H889 0.948 . S
C860 C859 1.391 . S
C860 C861 1.391 . S
C861 C860 1.391 . S
C861 C862 1.392 . S
C861 H890 0.947 . S
C862 C861 1.392 . S
C862 C863 1.419 . S
C862 H891 0.948 . S
C863 C862 1.419 . S
C863 C864 1.391 . S
C863 C867 1.397 . S
C864 C859 1.391 . S
C864 C863 1.391 . S
C864 C865 1.399 . S
C865 C864 1.399 . S
C865 C866 1.396 . S
C865 C868 1.453 . S
C865 C869 1.684 . S
C866 C847 1.723 . S
C866 C865 1.396 . S
C866 C867 1.394 . S
C867 C863 1.397 . S
C867 C866 1.394 . S
C867 C877 1.723 . S
C868 C865 1.453 . S
C868 H892 0.982 . S
C868 H893 0.979 . S
C868 H894 0.977 . S
C869 C865 1.684 . S
C869 H895 0.979 . S
C869 H896 0.980 . S
C869 H897 0.983 . S
C870 H846 0.948 . S
C870 C871 1.391 . S
C870 C875 1.391 . S
C871 C870 1.391 . S
C871 C872 1.391 . S
C872 H849 0.947 1_554 S
C872 C871 1.391 . S
C872 C873 1.392 . S
C873 H850 0.948 . S
C873 C872 1.392 . S
C873 C874 1.419 . S
C874 C873 1.419 . S
C874 C875 1.391 . S
C874 C878 1.397 . S
C875 C870 1.391 . S
C875 C874 1.391 . S
C875 C876 1.399 . S
C876 C875 1.399 . S
C876 C877 1.396 . S
C876 C879 1.453 . S
C876 C880 1.684 . S
C877 C867 1.723 . S
C877 C876 1.396 . S
C877 C878 1.394 . S
C878 C848 1.723 . S
C878 C874 1.397 . S
C878 C877 1.394 . S
C879 H851 0.982 . S
C879 H855 0.979 . S
C879 H856 0.977 . S
C879 C876 1.453 . S
C880 H852 0.979 . S
C880 H853 0.980 . S
C880 H854 0.983 . S
C880 C876 1.684 . S
H881 C899 0.948 . S
H882 C840 0.948 . S
H883 C858 0.979 . S
H884 C858 0.980 . S
H885 C858 0.983 1_556 S
H886 C857 0.982 . S
H887 C857 0.979 1_556 S
H888 C857 0.977 . S
H889 C859 0.948 . S
H890 C861 0.947 . S
H891 C862 0.948 . S
H892 C868 0.982 . S
H893 C868 0.979 . S
H894 C868 0.977 . S
H895 C869 0.979 . S
H896 C869 0.980 . S
H897 C869 0.983 . S
H898 C842 0.947 . S
C899 C842 1.392 . S
C899 C843 1.419 . S
C899 H881 0.948 . S
C900 C901 1.391 . S
C900 C904 1.391 . S
C900 H942 0.948 . S
C901 C900 1.391 . S
C901 C902 1.391 . S
C902 C901 1.391 . S
C902 H958 0.947 . S
C902 C959 1.392 . S
C903 C904 1.391 . S
C903 C907 1.397 . S
C903 C959 1.419 . S
C904 C900 1.391 . S
C904 C903 1.391 . S
C904 C905 1.399 . S
C905 C904 1.399 . S
C905 C908 1.396 . S
C905 C917 1.453 . S
C905 C918 1.684 . S
H906 C930 0.948 . S
C907 C903 1.397 . S
C907 C908 1.394 . S
C907 C926 1.723 . S
C908 C905 1.396 . S
C908 C907 1.394 . S
C908 C938 1.723 . S
H909 C932 0.947 . S
H910 C933 0.948 . S
H911 C939 0.982 . S
H912 C940 0.979 . S
H913 C940 0.980 . S
H914 C940 0.983 . S
H915 C939 0.979 . S
H916 C939 0.977 . S
C917 C905 1.453 . S
C917 H946 0.982 . S
C917 H947 0.979 . S
C917 H948 0.977 . S
C918 C905 1.684 . S
C918 H943 0.979 . S
C918 H944 0.980 . S
C918 H945 0.983 . S
C919 C920 1.391 . S
C919 C924 1.391 . S
C919 H949 0.948 . S
C920 C919 1.391 . S
C920 C921 1.391 . S
C921 C920 1.391 . S
C921 C922 1.392 . S
C921 H950 0.947 . S
C922 C921 1.392 . S
C922 C923 1.419 . S
C922 H951 0.948 . S
C923 C922 1.419 . S
C923 C924 1.391 . S
C923 C927 1.397 . S
C924 C919 1.391 . S
C924 C923 1.391 . S
C924 C925 1.399 . S
C925 C924 1.399 . S
C925 C926 1.396 . S
C925 C928 1.453 . S
C925 C929 1.684 . S
C926 C907 1.723 . S
C926 C925 1.396 . S
C926 C927 1.394 . S
C927 C923 1.397 . S
C927 C926 1.394 . S
C927 C937 1.723 . S
C928 C925 1.453 . S
C928 H952 0.982 . S
C928 H953 0.979 . S
C928 H954 0.977 . S
C929 C925 1.684 . S
C929 H955 0.979 . S
C929 H956 0.980 . S
C929 H957 0.983 . S
C930 H906 0.948 . S
C930 C931 1.391 . S
C930 C935 1.391 . S
C931 C930 1.391 . S
C931 C932 1.391 . S
C932 H909 0.947 . S
C932 C931 1.391 . S
C932 C933 1.392 . S
C933 H910 0.948 . S
C933 C932 1.392 . S
C933 C934 1.419 . S
C934 C933 1.419 . S
C934 C935 1.391 . S
C934 C938 1.397 . S
C935 C930 1.391 . S
C935 C934 1.391 . S
C935 C936 1.399 . S
C936 C935 1.399 . S
C936 C937 1.396 . S
C936 C939 1.453 . S
C936 C940 1.684 . S
C937 C927 1.723 . S
C937 C936 1.396 . S
C937 C938 1.394 . S
C938 C908 1.723 . S
C938 C934 1.397 . S
C938 C937 1.394 . S
C939 H911 0.982 . S
C939 H915 0.979 . S
C939 H916 0.977 . S
C939 C936 1.453 . S
C940 H912 0.979 . S
C940 H913 0.980 . S
C940 H914 0.983 . S
C940 C936 1.684 . S
H941 C959 0.948 . S
H942 C900 0.948 . S
H943 C918 0.979 . S
H944 C918 0.980 . S
H945 C918 0.983 . S
H946 C917 0.982 . S
H947 C917 0.979 . S
H948 C917 0.977 . S
H949 C919 0.948 . S
H950 C921 0.947 . S
H951 C922 0.948 . S
H952 C928 0.982 . S
H953 C928 0.979 . S
H954 C928 0.977 . S
H955 C929 0.979 . S
H956 C929 0.980 . S
H957 C929 0.983 . S
H958 C902 0.947 . S
C959 C902 1.392 . S
C959 C903 1.419 . S
C959 H941 0.948 . S
C960 C961 1.391 . S
C960 C964 1.391 . S
C960 H1002 0.948 . S
C961 C960 1.391 . S
C961 C962 1.391 . S
C962 C961 1.391 . S
C962 H1018 0.947 . S
C962 C1019 1.392 . S
C963 C964 1.391 . S
C963 C967 1.397 . S
C963 C1019 1.419 . S
C964 C960 1.391 . S
C964 C963 1.391 . S
C964 C965 1.399 . S
C965 C964 1.399 . S
C965 C968 1.396 . S
C965 C977 1.453 . S
C965 C978 1.684 . S
H966 C990 0.948 . S
C967 C963 1.397 . S
C967 C968 1.394 . S
C967 C986 1.723 . S
C968 C965 1.396 . S
C968 C967 1.394 . S
C968 C998 1.723 . S
H969 C992 0.947 . S
H970 C993 0.948 . S
H971 C999 0.982 . S
H972 C1000 0.979 . S
H973 C1000 0.980 . S
H974 C1000 0.983 . S
H975 C999 0.979 . S
H976 C999 0.977 . S
C977 C965 1.453 . S
C977 H1006 0.982 . S
C977 H1007 0.979 . S
C977 H1008 0.977 . S
C978 C965 1.684 . S
C978 H1003 0.979 . S
C978 H1004 0.980 . S
C978 H1005 0.983 . S
C979 C980 1.391 . S
C979 C984 1.391 . S
C979 H1009 0.948 . S
C980 C979 1.391 . S
C980 C981 1.391 . S
C981 C980 1.391 . S
C981 C982 1.392 . S
C981 H1010 0.947 . S
C982 C981 1.392 . S
C982 C983 1.419 . S
C982 H1011 0.948 . S
C983 C982 1.419 . S
C983 C984 1.391 . S
C983 C987 1.397 . S
C984 C979 1.391 . S
C984 C983 1.391 . S
C984 C985 1.399 . S
C985 C984 1.399 . S
C985 C986 1.396 . S
C985 C988 1.453 . S
C985 C989 1.684 . S
C986 C967 1.723 . S
C986 C985 1.396 . S
C986 C987 1.394 . S
C987 C983 1.397 . S
C987 C986 1.394 . S
C987 C997 1.723 . S
C988 C985 1.453 . S
C988 H1012 0.982 . S
C988 H1013 0.979 . S
C988 H1014 0.977 . S
C989 C985 1.684 . S
C989 H1015 0.979 . S
C989 H1016 0.980 . S
C989 H1017 0.983 . S
C990 H966 0.948 . S
C990 C991 1.391 . S
C990 C995 1.391 . S
C991 C990 1.391 . S
C991 C992 1.391 . S
C992 H969 0.947 . S
C992 C991 1.391 . S
C992 C993 1.392 . S
C993 H970 0.948 . S
C993 C992 1.392 . S
C993 C994 1.419 . S
C994 C993 1.419 . S
C994 C995 1.391 . S
C994 C998 1.397 . S
C995 C990 1.391 . S
C995 C994 1.391 . S
C995 C996 1.399 . S
C996 C995 1.399 . S
C996 C997 1.396 . S
C996 C999 1.453 . S
C996 C1000 1.684 . S
C997 C987 1.723 . S
C997 C996 1.396 . S
C997 C998 1.394 . S
C998 C968 1.723 . S
C998 C994 1.397 . S
C998 C997 1.394 . S
C999 H971 0.982 . S
C999 H975 0.979 . S
C999 H976 0.977 . S
C999 C996 1.453 . S
C1000 H972 0.979 . S
C1000 H973 0.980 . S
C1000 H974 0.983 . S
C1000 C996 1.684 . S
H1001 C1019 0.948 . S
H1002 C960 0.948 . S
H1003 C978 0.979 . S
H1004 C978 0.980 . S
H1005 C978 0.983 . S
H1006 C977 0.982 . S
H1007 C977 0.979 . S
H1008 C977 0.977 . S
H1009 C979 0.948 . S
H1010 C981 0.947 . S
H1011 C982 0.948 . S
H1012 C988 0.982 . S
H1013 C988 0.979 . S
H1014 C988 0.977 . S
H1015 C989 0.979 . S
H1016 C989 0.980 . S
H1017 C989 0.983 . S
H1018 C962 0.947 . S
C1019 C962 1.392 . S
C1019 C963 1.419 . S
C1019 H1001 0.948 . S
C1020 C1021 1.391 . S
C1020 C1024 1.391 . S
C1020 H1062 0.948 . S
C1021 C1020 1.391 . S
C1021 C1022 1.391 . S
C1022 C1021 1.391 . S
C1022 H1078 0.947 . S
C1022 C1079 1.392 . S
C1023 C1024 1.391 . S
C1023 C1027 1.397 . S
C1023 C1079 1.419 . S
C1024 C1020 1.391 . S
C1024 C1023 1.391 . S
C1024 C1025 1.399 . S
C1025 C1024 1.399 . S
C1025 C1028 1.396 . S
C1025 C1037 1.453 . S
C1025 C1038 1.684 . S
H1026 C1050 0.948 . S
C1027 C1023 1.397 . S
C1027 C1028 1.394 . S
C1027 C1046 1.723 . S
C1028 C1025 1.396 . S
C1028 C1027 1.394 . S
C1028 C1058 1.723 . S
H1029 C1052 0.947 . S
H1030 C1053 0.948 . S
H1031 C1059 0.982 . S
H1032 C1060 0.979 . S
H1033 C1060 0.980 . S
H1034 C1060 0.983 . S
H1035 C1059 0.979 . S
H1036 C1059 0.977 . S
C1037 C1025 1.453 . S
C1037 H1066 0.982 . S
C1037 H1067 0.979 . S
C1037 H1068 0.977 . S
C1038 C1025 1.684 . S
C1038 H1063 0.979 . S
C1038 H1064 0.980 . S
C1038 H1065 0.983 . S
C1039 C1040 1.391 . S
C1039 C1044 1.391 . S
C1039 H1069 0.948 . S
C1040 C1039 1.391 . S
C1040 C1041 1.391 . S
C1041 C1040 1.391 . S
C1041 C1042 1.392 . S
C1041 H1070 0.947 . S
C1042 C1041 1.392 . S
C1042 C1043 1.419 . S
C1042 H1071 0.948 . S
C1043 C1042 1.419 . S
C1043 C1044 1.391 . S
C1043 C1047 1.397 . S
C1044 C1039 1.391 . S
C1044 C1043 1.391 . S
C1044 C1045 1.399 . S
C1045 C1044 1.399 . S
C1045 C1046 1.396 . S
C1045 C1048 1.453 . S
C1045 C1049 1.684 . S
C1046 C1027 1.723 . S
C1046 C1045 1.396 . S
C1046 C1047 1.394 . S
C1047 C1043 1.397 . S
C1047 C1046 1.394 . S
C1047 C1057 1.723 . S
C1048 C1045 1.453 . S
C1048 H1072 0.982 . S
C1048 H1073 0.979 . S
C1048 H1074 0.977 . S
C1049 C1045 1.684 . S
C1049 H1075 0.979 . S
C1049 H1076 0.980 . S
C1049 H1077 0.983 . S
C1050 H1026 0.948 . S
C1050 C1051 1.391 . S
C1050 C1055 1.391 . S
C1051 C1050 1.391 . S
C1051 C1052 1.391 . S
C1052 H1029 0.947 . S
C1052 C1051 1.391 . S
C1052 C1053 1.392 . S
C1053 H1030 0.948 . S
C1053 C1052 1.392 . S
C1053 C1054 1.419 . S
C1054 C1053 1.419 . S
C1054 C1055 1.391 . S
C1054 C1058 1.397 . S
C1055 C1050 1.391 . S
C1055 C1054 1.391 . S
C1055 C1056 1.399 . S
C1056 C1055 1.399 . S
C1056 C1057 1.396 . S
C1056 C1059 1.453 . S
C1056 C1060 1.684 . S
C1057 C1047 1.723 . S
C1057 C1056 1.396 . S
C1057 C1058 1.394 . S
C1058 C1028 1.723 . S
C1058 C1054 1.397 . S
C1058 C1057 1.394 . S
C1059 H1031 0.982 . S
C1059 H1035 0.979 . S
C1059 H1036 0.977 . S
C1059 C1056 1.453 . S
C1060 H1032 0.979 . S
C1060 H1033 0.980 . S
C1060 H1034 0.983 . S
C1060 C1056 1.684 . S
H1061 C1079 0.948 . S
H1062 C1020 0.948 . S
H1063 C1038 0.979 . S
H1064 C1038 0.980 . S
H1065 C1038 0.983 . S
H1066 C1037 0.982 . S
H1067 C1037 0.979 . S
H1068 C1037 0.977 . S
H1069 C1039 0.948 . S
H1070 C1041 0.947 . S
H1071 C1042 0.948 . S
H1072 C1048 0.982 . S
H1073 C1048 0.979 . S
H1074 C1048 0.977 . S
H1075 C1049 0.979 . S
H1076 C1049 0.980 . S
H1077 C1049 0.983 . S
H1078 C1022 0.947 . S
C1079 C1022 1.392 . S
C1079 C1023 1.419 . S
C1079 H1061 0.948 . S
O1080 Mn1081 2.163 1_565 S
O1080 C1094 1.244 . S
Mn1081 O1080 2.163 1_545 S
Mn1081 O1084 2.160 . S
Mn1081 O1085 2.221 1_545 S
Mn1081 O1087 2.163 1_554 S
Mn1081 O1089 2.160 . S
Mn1081 O1099 2.221 . S
O1082 Mn1083 2.087 1_565 S
O1082 C1094 1.256 . S
Mn1083 O1082 2.087 1_545 S
Mn1083 O1090 2.089 . S
Mn1083 O1099 2.290 . S
Mn1083 O1100 2.251 . S
O1084 Mn1081 2.160 . S
O1084 C1095 1.239 1_554 S
O1085 Mn1081 2.221 1_565 S
O1085 Mn1086 2.290 1_554 S
O1085 C1096 1.272 1_554 S
Mn1086 O1085 2.290 1_556 S
Mn1086 O1088 2.089 1_565 S
Mn1086 O1091 2.251 . S
Mn1086 O1092 2.087 . S
O1087 Mn1081 2.163 1_556 S
O1087 C1097 1.256 . S
O1088 Mn1086 2.089 1_545 S
O1088 C1095 1.256 . S
O1089 Mn1081 2.160 . S
O1089 C1098 1.239 . S
O1090 Mn1083 2.089 . S
O1090 C1098 1.256 . S
O1091 Mn1086 2.251 . S
O1091 C1096 1.270 . S
O1092 Mn1086 2.087 . S
O1092 C1097 1.234 1_565 S
C1093 O1099 1.278 1_556 S
C1093 O1100 1.241 1_556 S
C1094 O1080 1.244 . S
C1094 O1082 1.256 . S
C1095 O1084 1.239 1_556 S
C1095 O1088 1.256 . S
C1096 O1085 1.272 1_556 S
C1096 O1091 1.270 . S
C1097 O1087 1.256 . S
C1097 O1092 1.234 1_545 S
C1098 O1089 1.239 . S
C1098 O1090 1.256 . S
O1099 Mn1081 2.221 . S
O1099 Mn1083 2.290 . S
O1099 C1093 1.278 1_554 S
O1100 Mn1083 2.251 . S
O1100 C1093 1.241 1_554 S
O1101 Mn1102 2.118 1_455 S
O1101 C1115 1.244 . S
Mn1102 O1101 2.118 1_655 S
Mn1102 O1105 2.204 . S
Mn1102 O1106 2.217 1_655 S
Mn1102 O1108 2.162 1_554 S
Mn1102 O1110 2.164 . S
Mn1102 O1120 2.229 . S
O1103 Mn1104 2.087 1_455 S
O1103 C1115 1.256 . S
Mn1104 O1103 2.087 1_655 S
Mn1104 O1111 2.089 1_655 S
Mn1104 O1120 2.290 . S
Mn1104 O1121 2.251 . S
O1105 Mn1102 2.204 . S
O1105 C1116 1.239 1_554 S
O1106 Mn1102 2.217 1_455 S
O1106 Mn1107 2.290 1_554 S
O1106 C1117 1.274 1_554 S
Mn1107 O1106 2.290 1_556 S
Mn1107 O1109 2.089 1_455 S
Mn1107 O1112 2.251 . S
Mn1107 O1113 2.087 . S
O1108 Mn1102 2.162 1_556 S
O1108 C1118 1.244 1_655 S
O1109 Mn1107 2.089 1_655 S
O1109 C1116 1.256 . S
O1110 Mn1102 2.164 . S
O1110 C1119 1.239 1_655 S
O1111 Mn1104 2.089 1_455 S
O1111 C1119 1.256 . S
O1112 Mn1107 2.251 . S
O1112 C1117 1.256 . S
O1113 Mn1107 2.087 . S
O1113 C1118 1.256 . S
C1114 O1120 1.278 1_556 S
C1114 O1121 1.241 1_556 S
C1115 O1101 1.244 . S
C1115 O1103 1.256 . S
C1116 O1105 1.239 1_556 S
C1116 O1109 1.256 . S
C1117 O1106 1.274 1_556 S
C1117 O1112 1.256 . S
C1118 O1108 1.244 1_455 S
C1118 O1113 1.256 . S
C1119 O1110 1.239 1_455 S
C1119 O1111 1.256 . S
O1120 Mn1102 2.229 . S
O1120 Mn1104 2.290 . S
O1120 C1114 1.278 1_554 S
O1121 Mn1104 2.251 . S
O1121 C1114 1.241 1_554 S
O1122 Mn1123 2.163 . S
O1122 C1136 1.244 . S
Mn1123 O1122 2.163 . S
Mn1123 O1126 2.159 1_556 S
Mn1123 O1127 2.221 1_556 S
Mn1123 O1129 2.163 1_556 S
Mn1123 O1131 2.160 . S
Mn1123 O1141 2.221 . S
O1124 Mn1125 2.087 . S
O1124 C1136 1.256 . S
Mn1125 O1124 2.087 . S
Mn1125 O1132 2.089 . S
Mn1125 O1141 2.290 . S
Mn1125 O1142 2.240 1_556 S
O1126 Mn1123 2.159 1_554 S
O1126 C1137 1.244 . S
O1127 Mn1123 2.221 1_554 S
O1127 Mn1128 2.290 . S
O1127 C1138 1.278 . S
Mn1128 O1127 2.290 . S
Mn1128 O1130 2.089 . S
Mn1128 O1133 2.251 . S
Mn1128 O1134 2.087 . S
O1129 Mn1123 2.163 1_554 S
O1129 C1139 1.244 . S
O1130 Mn1128 2.089 . S
O1130 C1137 1.256 . S
O1131 Mn1123 2.160 . S
O1131 C1140 1.239 . S
O1132 Mn1125 2.089 . S
O1132 C1140 1.256 . S
O1133 Mn1128 2.251 . S
O1133 C1138 1.241 . S
O1134 Mn1128 2.087 . S
O1134 C1139 1.256 . S
C1135 O1141 1.278 1_554 S
C1135 O1142 1.244 . S
C1136 O1122 1.244 . S
C1136 O1124 1.256 . S
C1137 O1126 1.244 . S
C1137 O1130 1.256 . S
C1138 O1127 1.278 . S
C1138 O1133 1.241 . S
C1139 O1129 1.244 . S
C1139 O1134 1.256 . S
C1140 O1131 1.239 . S
C1140 O1132 1.256 . S
O1141 Mn1123 2.221 . S
O1141 Mn1125 2.290 . S
O1141 C1135 1.278 1_556 S
O1142 Mn1125 2.240 1_554 S
O1142 C1135 1.244 . S
O1143 Mn1144 2.163 . S
O1143 C1157 1.244 . S
Mn1144 O1143 2.163 . S
Mn1144 O1147 2.160 . S
Mn1144 O1148 2.221 . S
Mn1144 O1150 2.163 . S
Mn1144 O1152 2.160 . S
Mn1144 O1162 2.221 . S
O1145 Mn1146 2.087 . S
O1145 C1157 1.256 . S
Mn1146 O1145 2.087 . S
Mn1146 O1153 2.089 . S
Mn1146 O1162 2.290 . S
Mn1146 O1163 2.251 . S
O1147 Mn1144 2.160 . S
O1147 C1158 1.239 . S
O1148 Mn1144 2.221 . S
O1148 Mn1149 2.290 . S
O1148 C1159 1.278 . S
Mn1149 O1148 2.290 . S
Mn1149 O1151 2.089 . S
Mn1149 O1154 2.251 . S
Mn1149 O1155 2.087 . S
O1150 Mn1144 2.163 . S
O1150 C1160 1.244 . S
O1151 Mn1149 2.089 . S
O1151 C1158 1.256 . S
O1152 Mn1144 2.160 . S
O1152 C1161 1.239 . S
O1153 Mn1146 2.089 . S
O1153 C1161 1.256 . S
O1154 Mn1149 2.251 . S
O1154 C1159 1.241 . S
O1155 Mn1149 2.087 . S
O1155 C1160 1.256 . S
C1156 O1162 1.278 . S
C1156 O1163 1.241 . S
C1157 O1143 1.244 . S
C1157 O1145 1.256 . S
C1158 O1147 1.239 . S
C1158 O1151 1.256 . S
C1159 O1148 1.278 . S
C1159 O1154 1.241 . S
C1160 O1150 1.244 . S
C1160 O1155 1.256 . S
C1161 O1152 1.239 . S
C1161 O1153 1.256 . S
O1162 Mn1144 2.221 . S
O1162 Mn1146 2.290 . S
O1162 C1156 1.278 . S
O1163 Mn1146 2.251 . S
O1163 C1156 1.241 . S
O1164 Mn1165 2.163 . S
O1164 C1178 1.244 . S
Mn1165 O1164 2.163 . S
Mn1165 O1168 2.160 . S
Mn1165 O1169 2.221 . S
Mn1165 O1171 2.163 . S
Mn1165 O1173 2.160 . S
Mn1165 O1183 2.221 . S
O1166 Mn1167 2.087 . S
O1166 C1178 1.256 . S
Mn1167 O1166 2.087 . S
Mn1167 O1174 2.089 . S
Mn1167 O1183 2.290 . S
Mn1167 O1184 2.251 . S
O1168 Mn1165 2.160 . S
O1168 C1179 1.239 . S
O1169 Mn1165 2.221 . S
O1169 Mn1170 2.290 . S
O1169 C1180 1.278 . S
Mn1170 O1169 2.290 . S
Mn1170 O1172 2.089 . S
Mn1170 O1175 2.251 . S
Mn1170 O1176 2.087 . S
O1171 Mn1165 2.163 . S
O1171 C1181 1.244 . S
O1172 Mn1170 2.089 . S
O1172 C1179 1.256 . S
O1173 Mn1165 2.160 . S
O1173 C1182 1.239 . S
O1174 Mn1167 2.089 . S
O1174 C1182 1.256 . S
O1175 Mn1170 2.251 . S
O1175 C1180 1.241 . S
O1176 Mn1170 2.087 . S
O1176 C1181 1.256 . S
C1177 O1183 1.278 . S
C1177 O1184 1.241 . S
C1178 O1164 1.244 . S
C1178 O1166 1.256 . S
C1179 O1168 1.239 . S
C1179 O1172 1.256 . S
C1180 O1169 1.278 . S
C1180 O1175 1.241 . S
C1181 O1171 1.244 . S
C1181 O1176 1.256 . S
C1182 O1173 1.239 . S
C1182 O1174 1.256 . S
O1183 Mn1165 2.221 . S
O1183 Mn1167 2.290 . S
O1183 C1177 1.278 . S
O1184 Mn1167 2.251 . S
O1184 C1177 1.241 . S
O1185 Mn1186 2.163 . S
O1185 C1199 1.244 . S
Mn1186 O1185 2.163 . S
Mn1186 O1189 2.160 . S
Mn1186 O1190 2.221 . S
Mn1186 O1192 2.163 . S
Mn1186 O1194 2.160 . S
Mn1186 O1204 2.221 . S
O1187 Mn1188 2.087 . S
O1187 C1199 1.256 . S
Mn1188 O1187 2.087 . S
Mn1188 O1195 2.089 . S
Mn1188 O1204 2.290 . S
Mn1188 O1205 2.251 . S
O1189 Mn1186 2.160 . S
O1189 C1200 1.239 . S
O1190 Mn1186 2.221 . S
O1190 Mn1191 2.290 . S
O1190 C1201 1.278 . S
Mn1191 O1190 2.290 . S
Mn1191 O1193 2.089 . S
Mn1191 O1196 2.251 . S
Mn1191 O1197 2.087 . S
O1192 Mn1186 2.163 . S
O1192 C1202 1.244 . S
O1193 Mn1191 2.089 . S
O1193 C1200 1.256 . S
O1194 Mn1186 2.160 . S
O1194 C1203 1.239 . S
O1195 Mn1188 2.089 . S
O1195 C1203 1.256 . S
O1196 Mn1191 2.251 . S
O1196 C1201 1.241 . S
O1197 Mn1191 2.087 . S
O1197 C1202 1.256 . S
C1198 O1204 1.278 . S
C1198 O1205 1.241 . S
C1199 O1185 1.244 . S
C1199 O1187 1.256 . S
C1200 O1189 1.239 . S
C1200 O1193 1.256 . S
C1201 O1190 1.278 . S
C1201 O1196 1.241 . S
C1202 O1192 1.244 . S
C1202 O1197 1.256 . S
C1203 O1194 1.239 . S
C1203 O1195 1.256 . S
O1204 Mn1186 2.221 . S
O1204 Mn1188 2.290 . S
O1204 C1198 1.278 . S
O1205 Mn1188 2.251 . S
O1205 C1198 1.241 . S
O1206 Mn1207 2.163 . S
O1206 C1220 1.244 . S
Mn1207 O1206 2.163 . S
Mn1207 O1210 2.160 . S
Mn1207 O1211 2.221 . S
Mn1207 O1213 2.163 . S
Mn1207 O1215 2.160 . S
Mn1207 O1225 2.221 . S
O1208 Mn1209 2.087 . S
O1208 C1220 1.256 . S
Mn1209 O1208 2.087 . S
Mn1209 O1216 2.089 . S
Mn1209 O1225 2.290 . S
Mn1209 O1226 2.251 . S
O1210 Mn1207 2.160 . S
O1210 C1221 1.239 . S
O1211 Mn1207 2.221 . S
O1211 Mn1212 2.290 . S
O1211 C1222 1.278 . S
Mn1212 O1211 2.290 . S
Mn1212 O1214 2.089 . S
Mn1212 O1217 2.251 . S
Mn1212 O1218 2.087 . S
O1213 Mn1207 2.163 . S
O1213 C1223 1.244 . S
O1214 Mn1212 2.089 . S
O1214 C1221 1.256 . S
O1215 Mn1207 2.160 . S
O1215 C1224 1.239 . S
O1216 Mn1209 2.089 . S
O1216 C1224 1.256 . S
O1217 Mn1212 2.251 . S
O1217 C1222 1.241 . S
O1218 Mn1212 2.087 . S
O1218 C1223 1.256 . S
C1219 O1225 1.278 . S
C1219 O1226 1.241 . S
C1220 O1206 1.244 . S
C1220 O1208 1.256 . S
C1221 O1210 1.239 . S
C1221 O1214 1.256 . S
C1222 O1211 1.278 . S
C1222 O1217 1.241 . S
C1223 O1213 1.244 . S
C1223 O1218 1.256 . S
C1224 O1215 1.239 . S
C1224 O1216 1.256 . S
O1225 Mn1207 2.221 . S
O1225 Mn1209 2.290 . S
O1225 C1219 1.278 . S
O1226 Mn1209 2.251 . S
O1226 C1219 1.241 . S
O1227 Mn1228 2.163 . S
O1227 C1241 1.244 . S
Mn1228 O1227 2.163 . S
Mn1228 O1231 2.160 . S
Mn1228 O1232 2.221 . S
Mn1228 O1234 2.163 . S
Mn1228 O1236 2.160 . S
Mn1228 O1246 2.221 . S
O1229 Mn1230 2.087 . S
O1229 C1241 1.256 . S
Mn1230 O1229 2.087 . S
Mn1230 O1237 2.089 . S
Mn1230 O1246 2.290 . S
Mn1230 O1247 2.251 . S
O1231 Mn1228 2.160 . S
O1231 C1242 1.239 . S
O1232 Mn1228 2.221 . S
O1232 Mn1233 2.290 . S
O1232 C1243 1.278 . S
Mn1233 O1232 2.290 . S
Mn1233 O1235 2.089 . S
Mn1233 O1238 2.251 . S
Mn1233 O1239 2.087 . S
O1234 Mn1228 2.163 . S
O1234 C1244 1.244 . S
O1235 Mn1233 2.089 . S
O1235 C1242 1.256 . S
O1236 Mn1228 2.160 . S
O1236 C1245 1.239 . S
O1237 Mn1230 2.089 . S
O1237 C1245 1.256 . S
O1238 Mn1233 2.251 . S
O1238 C1243 1.241 . S
O1239 Mn1233 2.087 . S
O1239 C1244 1.256 . S
C1240 O1246 1.278 . S
C1240 O1247 1.241 . S
C1241 O1227 1.244 . S
C1241 O1229 1.256 . S
C1242 O1231 1.239 . S
C1242 O1235 1.256 . S
C1243 O1232 1.278 . S
C1243 O1238 1.241 . S
C1244 O1234 1.244 . S
C1244 O1239 1.256 . S
C1245 O1236 1.239 . S
C1245 O1237 1.256 . S
O1246 Mn1228 2.221 . S
O1246 Mn1230 2.290 . S
O1246 C1240 1.278 . S
O1247 Mn1230 2.251 . S
O1247 C1240 1.241 . S
O1248 Mn1249 2.163 . S
O1248 C1262 1.244 . S
Mn1249 O1248 2.163 . S
Mn1249 O1252 2.160 . S
Mn1249 O1253 2.221 . S
Mn1249 O1255 2.163 . S
Mn1249 O1257 2.160 . S
Mn1249 O1267 2.221 . S
O1250 Mn1251 2.087 . S
O1250 C1262 1.256 . S
Mn1251 O1250 2.087 . S
Mn1251 O1258 2.089 . S
Mn1251 O1267 2.290 . S
Mn1251 O1268 2.251 . S
O1252 Mn1249 2.160 . S
O1252 C1263 1.239 . S
O1253 Mn1249 2.221 . S
O1253 Mn1254 2.290 . S
O1253 C1264 1.278 . S
Mn1254 O1253 2.290 . S
Mn1254 O1256 2.089 . S
Mn1254 O1259 2.251 . S
Mn1254 O1260 2.087 . S
O1255 Mn1249 2.163 . S
O1255 C1265 1.244 . S
O1256 Mn1254 2.089 . S
O1256 C1263 1.256 . S
O1257 Mn1249 2.160 . S
O1257 C1266 1.239 . S
O1258 Mn1251 2.089 . S
O1258 C1266 1.256 . S
O1259 Mn1254 2.251 . S
O1259 C1264 1.241 . S
O1260 Mn1254 2.087 . S
O1260 C1265 1.256 . S
C1261 O1267 1.278 . S
C1261 O1268 1.241 . S
C1262 O1248 1.244 . S
C1262 O1250 1.256 . S
C1263 O1252 1.239 . S
C1263 O1256 1.256 . S
C1264 O1253 1.278 . S
C1264 O1259 1.241 . S
C1265 O1255 1.244 . S
C1265 O1260 1.256 . S
C1266 O1257 1.239 . S
C1266 O1258 1.256 . S
O1267 Mn1249 2.221 . S
O1267 Mn1251 2.290 . S
O1267 C1261 1.278 . S
O1268 Mn1251 2.251 . S
O1268 C1261 1.241 . S
C1269 C1270 1.387 . S
C1269 H1273 0.950 . S
C1269 C1278 1.390 . S
C1270 C1269 1.387 . S
C1270 C1272 1.387 1_554 S
H1271 C1278 0.950 . S
C1272 C1270 1.387 1_556 S
C1272 C1274 1.390 . S
C1272 H1276 0.950 . S
H1273 C1269 0.950 . S
C1274 C1272 1.390 . S
C1274 C1275 1.387 1_556 S
C1274 H1277 0.950 . S
C1275 C1274 1.387 1_554 S
C1275 C1278 1.387 . S
H1276 C1272 0.950 . S
H1277 C1274 0.950 . S
C1278 C1269 1.390 . S
C1278 H1271 0.950 . S
C1278 C1275 1.387 . S
C1279 C1280 1.387 1_556 S
C1279 H1283 0.950 . S
C1279 C1288 1.390 . S
C1280 C1279 1.387 1_554 S
C1280 C1282 1.387 . S
H1281 C1288 0.950 . S
C1282 C1280 1.387 . S
C1282 C1284 1.390 . S
C1282 H1286 0.950 . S
H1283 C1279 0.950 . S
C1284 C1282 1.390 . S
C1284 C1285 1.387 . S
C1284 H1287 0.950 . S
C1285 C1284 1.387 . S
C1285 C1288 1.387 1_554 S
H1286 C1282 0.950 . S
H1287 C1284 0.950 . S
C1288 C1279 1.390 . S
C1288 H1281 0.950 . S
C1288 C1285 1.387 1_556 S
C1289 C1290 1.387 . S
C1289 H1293 0.950 . S
C1289 C1298 1.390 . S
C1290 C1289 1.387 . S
C1290 C1292 1.387 1_554 S
H1291 C1298 0.950 . S
C1292 C1290 1.387 1_556 S
C1292 C1294 1.390 . S
C1292 H1296 0.950 . S
H1293 C1289 0.950 . S
C1294 C1292 1.390 . S
C1294 C1295 1.387 1_556 S
C1294 H1297 0.950 . S
C1295 C1294 1.387 1_554 S
C1295 C1298 1.387 . S
H1296 C1292 0.950 . S
H1297 C1294 0.950 . S
C1298 C1289 1.390 . S
C1298 H1291 0.950 . S
C1298 C1295 1.387 . S
C1299 C1300 1.387 . S
C1299 H1303 0.950 . S
C1299 C1308 1.390 . S
C1300 C1299 1.387 . S
C1300 C1302 1.387 1_556 S
H1301 C1308 0.950 . S
C1302 C1300 1.387 1_554 S
C1302 C1304 1.390 . S
C1302 H1306 0.950 . S
H1303 C1299 0.950 . S
C1304 C1302 1.390 . S
C1304 C1305 1.387 1_554 S
C1304 H1307 0.950 . S
C1305 C1304 1.387 1_556 S
C1305 C1308 1.387 . S
H1306 C1302 0.950 . S
H1307 C1304 0.950 . S
C1308 C1299 1.390 . S
C1308 H1301 0.950 . S
C1308 C1305 1.387 . S
C1309 C1310 1.387 . S
C1309 H1313 0.950 . S
C1309 C1318 1.390 . S
C1310 C1309 1.387 . S
C1310 C1312 1.387 1_556 S
H1311 C1318 0.950 . S
C1312 C1310 1.387 1_554 S
C1312 C1314 1.390 . S
C1312 H1316 0.950 . S
H1313 C1309 0.950 . S
C1314 C1312 1.390 . S
C1314 C1315 1.387 1_554 S
C1314 H1317 0.950 . S
C1315 C1314 1.387 1_556 S
C1315 C1318 1.387 . S
H1316 C1312 0.950 . S
H1317 C1314 0.950 . S
C1318 C1309 1.390 . S
C1318 H1311 0.950 . S
C1318 C1315 1.387 . S
C1319 C1320 1.387 . S
C1319 H1323 0.950 . S
C1319 C1328 1.390 . S
C1320 C1319 1.387 . S
C1320 C1322 1.387 1_556 S
H1321 C1328 0.950 . S
C1322 C1320 1.387 1_554 S
C1322 C1324 1.390 . S
C1322 H1326 0.950 . S
H1323 C1319 0.950 . S
C1324 C1322 1.390 . S
C1324 C1325 1.387 1_554 S
C1324 H1327 0.950 . S
C1325 C1324 1.387 1_556 S
C1325 C1328 1.387 . S
H1326 C1322 0.950 . S
H1327 C1324 0.950 . S
C1328 C1319 1.390 . S
C1328 H1321 0.950 . S
C1328 C1325 1.387 . S
C1329 C1330 1.387 . S
C1329 H1333 0.950 . S
C1329 C1338 1.390 . S
C1330 C1329 1.387 . S
C1330 C1332 1.387 1_556 S
H1331 C1338 0.950 . S
C1332 C1330 1.387 1_554 S
C1332 C1334 1.390 . S
C1332 H1336 0.950 . S
H1333 C1329 0.950 . S
C1334 C1332 1.390 . S
C1334 C1335 1.387 1_554 S
C1334 H1337 0.950 . S
C1335 C1334 1.387 1_556 S
C1335 C1338 1.387 . S
H1336 C1332 0.950 . S
H1337 C1334 0.950 . S
C1338 C1329 1.390 . S
C1338 H1331 0.950 . S
C1338 C1335 1.387 . S
C1339 C1340 1.387 1_554 S
C1339 H1343 0.950 . S
C1339 C1348 1.390 . S
C1340 C1339 1.387 1_556 S
C1340 C1342 1.387 . S
H1341 C1348 0.950 . S
C1342 C1340 1.387 . S
C1342 C1344 1.390 . S
C1342 H1346 0.950 . S
H1343 C1339 0.950 . S
C1344 C1342 1.390 . S
C1344 C1345 1.387 . S
C1344 H1347 0.950 . S
C1345 C1344 1.387 . S
C1345 C1348 1.387 1_556 S
H1346 C1342 0.950 . S
H1347 C1344 0.950 . S
C1348 C1339 1.390 . S
C1348 H1341 0.950 . S
C1348 C1345 1.387 1_554 S
C1349 C1350 1.387 1_554 S
C1349 H1353 0.950 . S
C1349 C1358 1.390 . S
C1350 C1349 1.387 1_556 S
C1350 C1352 1.387 . S
H1351 C1358 0.950 . S
C1352 C1350 1.387 . S
C1352 C1354 1.390 . S
C1352 H1356 0.950 . S
H1353 C1349 0.950 . S
C1354 C1352 1.390 . S
C1354 C1355 1.387 . S
C1354 H1357 0.950 . S
C1355 C1354 1.387 . S
C1355 C1358 1.387 1_556 S
H1356 C1352 0.950 . S
H1357 C1354 0.950 . S
C1358 C1349 1.390 . S
C1358 H1351 0.950 . S
C1358 C1355 1.387 1_554 S
C1359 C1360 1.387 1_556 S
C1359 H1363 0.950 . S
C1359 C1368 1.390 . S
C1360 C1359 1.387 1_554 S
C1360 C1362 1.387 . S
H1361 C1368 0.950 . S
C1362 C1360 1.387 . S
C1362 C1364 1.390 . S
C1362 H1366 0.950 . S
H1363 C1359 0.950 . S
C1364 C1362 1.390 . S
C1364 C1365 1.387 . S
C1364 H1367 0.950 . S
C1365 C1364 1.387 . S
C1365 C1368 1.387 1_554 S
H1366 C1362 0.950 . S
H1367 C1364 0.950 . S
C1368 C1359 1.390 . S
C1368 H1361 0.950 . S
C1368 C1365 1.387 1_556 S
C1369 C1370 1.387 1_556 S
C1369 H1373 0.950 . S
C1369 C1378 1.390 . S
C1370 C1369 1.387 1_554 S
C1370 C1372 1.387 . S
H1371 C1378 0.950 . S
C1372 C1370 1.387 . S
C1372 C1374 1.390 . S
C1372 H1376 0.950 . S
H1373 C1369 0.950 . S
C1374 C1372 1.390 . S
C1374 C1375 1.387 . S
C1374 H1377 0.950 . S
C1375 C1374 1.387 . S
C1375 C1378 1.387 1_554 S
H1376 C1372 0.950 . S
H1377 C1374 0.950 . S
C1378 C1369 1.390 . S
C1378 H1371 0.950 . S
C1378 C1375 1.387 1_556 S
C1379 C1380 1.387 . S
C1379 H1383 0.950 . S
C1379 C1388 1.390 . S
C1380 C1379 1.387 . S
C1380 C1382 1.387 1_554 S
H1381 C1388 0.950 . S
C1382 C1380 1.387 1_556 S
C1382 C1384 1.390 . S
C1382 H1386 0.950 . S
H1383 C1379 0.950 . S
C1384 C1382 1.390 . S
C1384 C1385 1.387 1_556 S
C1384 H1387 0.950 . S
C1385 C1384 1.387 1_554 S
C1385 C1388 1.387 . S
H1386 C1382 0.950 . S
H1387 C1384 0.950 . S
C1388 C1379 1.390 . S
C1388 H1381 0.950 . S
C1388 C1385 1.387 . S
C1389 C1390 1.387 . S
C1389 H1393 0.950 . S
C1389 C1398 1.390 . S
C1390 C1389 1.387 . S
C1390 C1392 1.387 . S
H1391 C1398 0.950 . S
C1392 C1390 1.387 . S
C1392 C1394 1.390 . S
C1392 H1396 0.950 . S
H1393 C1389 0.950 . S
C1394 C1392 1.390 . S
C1394 C1395 1.387 . S
C1394 H1397 0.950 . S
C1395 C1394 1.387 . S
C1395 C1398 1.387 . S
H1396 C1392 0.950 . S
H1397 C1394 0.950 . S
C1398 C1389 1.390 . S
C1398 H1391 0.950 . S
C1398 C1395 1.387 . S
C1399 C1400 1.387 . S
C1399 H1403 0.950 . S
C1399 C1408 1.390 . S
C1400 C1399 1.387 . S
C1400 C1402 1.387 . S
H1401 C1408 0.950 . S
C1402 C1400 1.387 . S
C1402 C1404 1.390 . S
C1402 H1406 0.950 . S
H1403 C1399 0.950 . S
C1404 C1402 1.390 . S
C1404 C1405 1.387 . S
C1404 H1407 0.950 . S
C1405 C1404 1.387 . S
C1405 C1408 1.387 . S
H1406 C1402 0.950 . S
H1407 C1404 0.950 . S
C1408 C1399 1.390 . S
C1408 H1401 0.950 . S
C1408 C1405 1.387 . S
C1409 C1410 1.387 . S
C1409 H1413 0.950 . S
C1409 C1418 1.390 . S
C1410 C1409 1.387 . S
C1410 C1412 1.387 . S
H1411 C1418 0.950 . S
C1412 C1410 1.387 . S
C1412 C1414 1.390 . S
C1412 H1416 0.950 . S
H1413 C1409 0.950 . S
C1414 C1412 1.390 . S
C1414 C1415 1.387 . S
C1414 H1417 0.950 . S
C1415 C1414 1.387 . S
C1415 C1418 1.387 . S
H1416 C1412 0.950 . S
H1417 C1414 0.950 . S
C1418 C1409 1.390 . S
C1418 H1411 0.950 . S
C1418 C1415 1.387 . S
C1419 C1420 1.387 . S
C1419 H1423 0.950 . S
C1419 C1428 1.390 . S
C1420 C1419 1.387 . S
C1420 C1422 1.387 . S
H1421 C1428 0.950 . S
C1422 C1420 1.387 . S
C1422 C1424 1.390 . S
C1422 H1426 0.950 . S
H1423 C1419 0.950 . S
C1424 C1422 1.390 . S
C1424 C1425 1.387 . S
C1424 H1427 0.950 . S
C1425 C1424 1.387 . S
C1425 C1428 1.387 . S
H1426 C1422 0.950 . S
H1427 C1424 0.950 . S
C1428 C1419 1.390 . S
C1428 H1421 0.950 . S
C1428 C1425 1.387 . S
C1429 C1430 1.387 . S
C1429 H1433 0.950 . S
C1429 C1438 1.390 . S
C1430 C1429 1.387 . S
C1430 C1432 1.387 . S
H1431 C1438 0.950 . S
C1432 C1430 1.387 . S
C1432 C1434 1.390 . S
C1432 H1436 0.950 . S
H1433 C1429 0.950 . S
C1434 C1432 1.390 . S
C1434 C1435 1.387 . S
C1434 H1437 0.950 . S
C1435 C1434 1.387 . S
C1435 C1438 1.387 . S
H1436 C1432 0.950 . S
H1437 C1434 0.950 . S
C1438 C1429 1.390 . S
C1438 H1431 0.950 . S
C1438 C1435 1.387 . S
C1439 C1440 1.387 . S
C1439 H1443 0.950 . S
C1439 C1448 1.390 . S
C1440 C1439 1.387 . S
C1440 C1442 1.387 . S
H1441 C1448 0.950 . S
C1442 C1440 1.387 . S
C1442 C1444 1.390 . S
C1442 H1446 0.950 . S
H1443 C1439 0.950 . S
C1444 C1442 1.390 . S
C1444 C1445 1.387 . S
C1444 H1447 0.950 . S
C1445 C1444 1.387 . S
C1445 C1448 1.387 . S
H1446 C1442 0.950 . S
H1447 C1444 0.950 . S
C1448 C1439 1.390 . S
C1448 H1441 0.950 . S
C1448 C1445 1.387 . S
C1449 C1450 1.387 . S
C1449 H1453 0.950 . S
C1449 C1458 1.390 . S
C1450 C1449 1.387 . S
C1450 C1452 1.387 . S
H1451 C1458 0.950 . S
C1452 C1450 1.387 . S
C1452 C1454 1.390 . S
C1452 H1456 0.950 . S
H1453 C1449 0.950 . S
C1454 C1452 1.390 . S
C1454 C1455 1.387 . S
C1454 H1457 0.950 . S
C1455 C1454 1.387 . S
C1455 C1458 1.387 . S
H1456 C1452 0.950 . S
H1457 C1454 0.950 . S
C1458 C1449 1.390 . S
C1458 H1451 0.950 . S
C1458 C1455 1.387 . S
C1459 C1460 1.387 . S
C1459 H1463 0.950 . S
C1459 C1468 1.390 . S
C1460 C1459 1.387 . S
C1460 C1462 1.387 . S
H1461 C1468 0.950 . S
C1462 C1460 1.387 . S
C1462 C1464 1.390 . S
C1462 H1466 0.950 . S
H1463 C1459 0.950 . S
C1464 C1462 1.390 . S
C1464 C1465 1.387 . S
C1464 H1467 0.950 . S
C1465 C1464 1.387 . S
C1465 C1468 1.387 . S
H1466 C1462 0.950 . S
H1467 C1464 0.950 . S
C1468 C1459 1.390 . S
C1468 H1461 0.950 . S
C1468 C1465 1.387 . S
C1469 C1470 1.387 . S
C1469 H1473 0.950 . S
C1469 C1478 1.390 . S
C1470 C1469 1.387 . S
C1470 C1472 1.387 . S
H1471 C1478 0.950 . S
C1472 C1470 1.387 . S
C1472 C1474 1.390 . S
C1472 H1476 0.950 . S
H1473 C1469 0.950 . S
C1474 C1472 1.390 . S
C1474 C1475 1.387 . S
C1474 H1477 0.950 . S
C1475 C1474 1.387 . S
C1475 C1478 1.387 . S
H1476 C1472 0.950 . S
H1477 C1474 0.950 . S
C1478 C1469 1.390 . S
C1478 H1471 0.950 . S
C1478 C1475 1.387 . S
C1479 C1480 1.387 . S
C1479 H1483 0.950 . S
C1479 C1488 1.390 . S
C1480 C1479 1.387 . S
C1480 C1482 1.387 . S
H1481 C1488 0.950 . S
C1482 C1480 1.387 . S
C1482 C1484 1.390 . S
C1482 H1486 0.950 . S
H1483 C1479 0.950 . S
C1484 C1482 1.390 . S
C1484 C1485 1.387 . S
C1484 H1487 0.950 . S
C1485 C1484 1.387 . S
C1485 C1488 1.387 . S
H1486 C1482 0.950 . S
H1487 C1484 0.950 . S
C1488 C1479 1.390 . S
C1488 H1481 0.950 . S
C1488 C1485 1.387 . S
C1489 C1490 1.387 . S
C1489 H1493 0.950 . S
C1489 C1498 1.390 . S
C1490 C1489 1.387 . S
C1490 C1492 1.387 . S
H1491 C1498 0.950 . S
C1492 C1490 1.387 . S
C1492 C1494 1.390 . S
C1492 H1496 0.950 . S
H1493 C1489 0.950 . S
C1494 C1492 1.390 . S
C1494 C1495 1.387 . S
C1494 H1497 0.950 . S
C1495 C1494 1.387 . S
C1495 C1498 1.387 . S
H1496 C1492 0.950 . S
H1497 C1494 0.950 . S
C1498 C1489 1.390 . S
C1498 H1491 0.950 . S
C1498 C1495 1.387 . S
C1499 C1500 1.387 . S
C1499 H1503 0.950 . S
C1499 C1508 1.390 . S
C1500 C1499 1.387 . S
C1500 C1502 1.387 . S
H1501 C1508 0.950 . S
C1502 C1500 1.387 . S
C1502 C1504 1.390 . S
C1502 H1506 0.950 . S
H1503 C1499 0.950 . S
C1504 C1502 1.390 . S
C1504 C1505 1.387 . S
C1504 H1507 0.950 . S
C1505 C1504 1.387 . S
C1505 C1508 1.387 . S
H1506 C1502 0.950 . S
H1507 C1504 0.950 . S
C1508 C1499 1.390 . S
C1508 H1501 0.950 . S
C1508 C1505 1.387 . S
C1509 C1510 1.387 . S
C1509 H1513 0.950 . S
C1509 C1518 1.390 . S
C1510 C1509 1.387 . S
C1510 C1512 1.387 . S
H1511 C1518 0.950 . S
C1512 C1510 1.387 . S
C1512 C1514 1.390 . S
C1512 H1516 0.950 . S
H1513 C1509 0.950 . S
C1514 C1512 1.390 . S
C1514 C1515 1.387 . S
C1514 H1517 0.950 . S
C1515 C1514 1.387 . S
C1515 C1518 1.387 . S
H1516 C1512 0.950 . S
H1517 C1514 0.950 . S
C1518 C1509 1.390 . S
C1518 H1511 0.950 . S
C1518 C1515 1.387 . S
C1519 C1520 1.387 . S
C1519 H1523 0.950 . S
C1519 C1528 1.390 . S
C1520 C1519 1.387 . S
C1520 C1522 1.387 . S
H1521 C1528 0.950 . S
C1522 C1520 1.387 . S
C1522 C1524 1.390 . S
C1522 H1526 0.950 . S
H1523 C1519 0.950 . S
C1524 C1522 1.390 . S
C1524 C1525 1.387 . S
C1524 H1527 0.950 . S
C1525 C1524 1.387 . S
C1525 C1528 1.387 . S
H1526 C1522 0.950 . S
H1527 C1524 0.950 . S
C1528 C1519 1.390 . S
C1528 H1521 0.950 . S
C1528 C1525 1.387 . S
C1529 C1530 1.387 . S
C1529 H1533 0.950 . S
C1529 C1538 1.390 . S
C1530 C1529 1.387 . S
C1530 C1532 1.387 . S
H1531 C1538 0.950 . S
C1532 C1530 1.387 . S
C1532 C1534 1.390 . S
C1532 H1536 0.950 . S
H1533 C1529 0.950 . S
C1534 C1532 1.390 . S
C1534 C1535 1.387 . S
C1534 H1537 0.950 . S
C1535 C1534 1.387 . S
C1535 C1538 1.387 . S
H1536 C1532 0.950 . S
H1537 C1534 0.950 . S
C1538 C1529 1.390 . S
C1538 H1531 0.950 . S
C1538 C1535 1.387 . S
C1539 C1540 1.387 . S
C1539 H1543 0.950 . S
C1539 C1548 1.390 . S
C1540 C1539 1.387 . S
C1540 C1542 1.387 . S
H1541 C1548 0.950 . S
C1542 C1540 1.387 . S
C1542 C1544 1.390 . S
C1542 H1546 0.950 . S
H1543 C1539 0.950 . S
C1544 C1542 1.390 . S
C1544 C1545 1.387 . S
C1544 H1547 0.950 . S
C1545 C1544 1.387 . S
C1545 C1548 1.387 . S
H1546 C1542 0.950 . S
H1547 C1544 0.950 . S
C1548 C1539 1.390 . S
C1548 H1541 0.950 . S
C1548 C1545 1.387 . S
C1549 C1550 1.387 . S
C1549 H1553 0.950 . S
C1549 C1558 1.390 . S
C1550 C1549 1.387 . S
C1550 C1552 1.387 . S
H1551 C1558 0.950 . S
C1552 C1550 1.387 . S
C1552 C1554 1.390 . S
C1552 H1556 0.950 . S
H1553 C1549 0.950 . S
C1554 C1552 1.390 . S
C1554 C1555 1.387 . S
C1554 H1557 0.950 . S
C1555 C1554 1.387 . S
C1555 C1558 1.387 . S
H1556 C1552 0.950 . S
H1557 C1554 0.950 . S
C1558 C1549 1.390 . S
C1558 H1551 0.950 . S
C1558 C1555 1.387 . S
C1559 C1560 1.387 . S
C1559 H1563 0.950 . S
C1559 C1568 1.390 . S
C1560 C1559 1.387 . S
C1560 C1562 1.387 . S
H1561 C1568 0.950 . S
C1562 C1560 1.387 . S
C1562 C1564 1.390 . S
C1562 H1566 0.950 . S
H1563 C1559 0.950 . S
C1564 C1562 1.390 . S
C1564 C1565 1.387 . S
C1564 H1567 0.950 . S
C1565 C1564 1.387 . S
C1565 C1568 1.387 . S
H1566 C1562 0.950 . S
H1567 C1564 0.950 . S
C1568 C1559 1.390 . S
C1568 H1561 0.950 . S
C1568 C1565 1.387 . S
C1569 C1570 1.386 . S
C1569 H1573 0.956 . S
C1569 C1578 1.390 . S
C1570 C1569 1.386 . S
C1570 C1572 1.386 . S
H1571 C1578 0.950 . S
C1572 C1570 1.386 . S
C1572 C1574 1.390 . S
C1572 H1576 0.950 . S
H1573 C1569 0.956 . S
C1574 C1572 1.390 . S
C1574 C1575 1.387 . S
C1574 H1577 0.950 . S
C1575 C1574 1.387 . S
C1575 C1578 1.387 . S
H1576 C1572 0.950 . S
H1577 C1574 0.950 . S
C1578 C1569 1.390 . S
C1578 H1571 0.950 . S
C1578 C1575 1.387 . S
C1579 C1580 1.387 . S
C1579 H1583 0.950 . S
C1579 C1588 1.390 . S
C1580 C1579 1.387 . S
C1580 C1582 1.387 . S
H1581 C1588 0.950 . S
C1582 C1580 1.387 . S
C1582 C1584 1.390 . S
C1582 H1586 0.950 . S
H1583 C1579 0.950 . S
C1584 C1582 1.390 . S
C1584 C1585 1.387 . S
C1584 H1587 0.950 . S
C1585 C1584 1.387 . S
C1585 C1588 1.387 . S
H1586 C1582 0.950 . S
H1587 C1584 0.950 . S
C1588 C1579 1.390 . S
C1588 H1581 0.950 . S
C1588 C1585 1.387 . S
C1589 C1590 1.387 . S
C1589 H1593 0.950 . S
C1589 C1598 1.390 . S
C1590 C1589 1.387 . S
C1590 C1592 1.387 . S
H1591 C1598 0.950 . S
C1592 C1590 1.387 . S
C1592 C1594 1.390 . S
C1592 H1596 0.950 . S
H1593 C1589 0.950 . S
C1594 C1592 1.390 . S
C1594 C1595 1.387 . S
C1594 H1597 0.950 . S
C1595 C1594 1.387 . S
C1595 C1598 1.387 . S
H1596 C1592 0.950 . S
H1597 C1594 0.950 . S
C1598 C1589 1.390 . S
C1598 H1591 0.950 . S
C1598 C1595 1.387 . S
C1599 C1600 1.387 . S
C1599 H1603 0.950 . S
C1599 C1608 1.390 . S
C1600 C1599 1.387 . S
C1600 C1602 1.387 . S
H1601 C1608 0.950 . S
C1602 C1600 1.387 . S
C1602 C1604 1.390 . S
C1602 H1606 0.950 . S
H1603 C1599 0.950 . S
C1604 C1602 1.390 . S
C1604 C1605 1.387 . S
C1604 H1607 0.950 . S
C1605 C1604 1.387 . S
C1605 C1608 1.387 . S
H1606 C1602 0.950 . S
H1607 C1604 0.950 . S
C1608 C1599 1.390 . S
C1608 H1601 0.950 . S
C1608 C1605 1.387 . S
C1609 C1610 1.387 . S
C1609 H1613 0.950 . S
C1609 C1618 1.390 . S
C1610 C1609 1.387 . S
C1610 C1612 1.387 . S
H1611 C1618 0.950 . S
C1612 C1610 1.387 . S
C1612 C1614 1.390 . S
C1612 H1616 0.950 . S
H1613 C1609 0.950 . S
C1614 C1612 1.390 . S
C1614 C1615 1.387 . S
C1614 H1617 0.950 . S
C1615 C1614 1.387 . S
C1615 C1618 1.387 . S
H1616 C1612 0.950 . S
H1617 C1614 0.950 . S
C1618 C1609 1.390 . S
C1618 H1611 0.950 . S
C1618 C1615 1.387 . S
C1619 C1620 1.387 . S
C1619 H1623 0.950 . S
C1619 C1628 1.390 . S
C1620 C1619 1.387 . S
C1620 C1622 1.387 . S
H1621 C1628 0.950 . S
C1622 C1620 1.387 . S
C1622 C1624 1.390 . S
C1622 H1626 0.950 . S
H1623 C1619 0.950 . S
C1624 C1622 1.390 . S
C1624 C1625 1.387 . S
C1624 H1627 0.950 . S
C1625 C1624 1.387 . S
C1625 C1628 1.387 . S
H1626 C1622 0.950 . S
H1627 C1624 0.950 . S
C1628 C1619 1.390 . S
C1628 H1621 0.950 . S
C1628 C1625 1.387 . S
C1629 C1630 1.387 1_545 S
C1629 H1633 0.950 . S
C1629 C1638 1.390 . S
C1630 C1629 1.387 1_565 S
C1630 C1632 1.387 . S
H1631 C1638 0.950 . S
C1632 C1630 1.387 . S
C1632 C1634 1.390 . S
C1632 H1636 0.950 . S
H1633 C1629 0.950 . S
C1634 C1632 1.390 . S
C1634 C1635 1.390 . S
C1634 H1637 0.950 . S
C1635 C1634 1.390 . S
C1635 C1638 1.385 1_565 S
H1636 C1632 0.950 . S
H1637 C1634 0.950 . S
C1638 C1629 1.390 . S
C1638 H1631 0.950 . S
C1638 C1635 1.385 1_545 S
C1639 C1640 1.387 1_655 S
C1639 H1643 0.950 . S
C1639 C1648 1.390 . S
C1640 C1639 1.387 1_455 S
C1640 C1642 1.387 . S
H1641 C1648 0.950 . S
C1642 C1640 1.387 . S
C1642 C1644 1.390 . S
C1642 H1646 0.950 . S
H1643 C1639 0.950 . S
C1644 C1642 1.390 . S
C1644 C1645 1.387 . S
C1644 H1647 0.950 . S
C1645 C1644 1.387 . S
C1645 C1648 1.387 1_455 S
H1646 C1642 0.950 . S
H1647 C1644 0.950 . S
C1648 C1639 1.390 . S
C1648 H1641 0.950 . S
C1648 C1645 1.387 1_655 S
C1649 C1650 1.387 . S
C1649 H1653 0.950 . S
C1649 C1658 1.390 . S
C1650 C1649 1.387 . S
C1650 C1652 1.387 . S
H1651 C1658 0.950 . S
C1652 C1650 1.387 . S
C1652 C1654 1.390 . S
C1652 H1656 0.950 . S
H1653 C1649 0.950 . S
C1654 C1652 1.390 . S
C1654 C1655 1.387 . S
C1654 H1657 0.950 . S
C1655 C1654 1.387 . S
C1655 C1658 1.387 . S
H1656 C1652 0.950 . S
H1657 C1654 0.950 . S
C1658 C1649 1.390 . S
C1658 H1651 0.950 . S
C1658 C1655 1.387 . S
C1659 C1660 1.388 1_455 S
C1659 H1663 0.949 . S
C1659 C1668 1.391 . S
C1660 C1659 1.388 1_655 S
C1660 C1662 1.387 . S
H1661 C1668 0.950 . S
C1662 C1660 1.387 . S
C1662 C1664 1.390 . S
C1662 H1666 0.950 . S
H1663 C1659 0.949 . S
C1664 C1662 1.390 . S
C1664 C1665 1.387 . S
C1664 H1667 0.950 . S
C1665 C1664 1.387 . S
C1665 C1668 1.387 1_655 S
H1666 C1662 0.950 . S
H1667 C1664 0.950 . S
C1668 C1659 1.391 . S
C1668 H1661 0.950 . S
C1668 C1665 1.387 1_455 S
C1669 C1670 1.387 . S
C1669 H1673 0.950 . S
C1669 C1678 1.390 . S
C1670 C1669 1.387 . S
C1670 C1672 1.387 . S
H1671 C1678 0.950 . S
C1672 C1670 1.387 . S
C1672 C1674 1.390 . S
C1672 H1676 0.950 . S
H1673 C1669 0.950 . S
C1674 C1672 1.390 . S
C1674 C1675 1.387 . S
C1674 H1677 0.950 . S
C1675 C1674 1.387 . S
C1675 C1678 1.387 . S
H1676 C1672 0.950 . S
H1677 C1674 0.950 . S
C1678 C1669 1.390 . S
C1678 H1671 0.950 . S
C1678 C1675 1.387 . S
C1679 C1680 1.387 . S
C1679 H1683 0.950 . S
C1679 C1688 1.390 . S
C1680 C1679 1.387 . S
C1680 C1682 1.387 . S
H1681 C1688 0.950 . S
C1682 C1680 1.387 . S
C1682 C1684 1.390 . S
C1682 H1686 0.950 . S
H1683 C1679 0.950 . S
C1684 C1682 1.390 . S
C1684 C1685 1.387 . S
C1684 H1687 0.949 . S
C1685 C1684 1.387 . S
C1685 C1688 1.387 . S
H1686 C1682 0.950 . S
H1687 C1684 0.949 . S
C1688 C1679 1.390 . S
C1688 H1681 0.950 . S
C1688 C1685 1.387 . S
C1689 C1690 1.387 . S
C1689 H1693 0.950 . S
C1689 C1698 1.390 . S
C1690 C1689 1.387 . S
C1690 C1692 1.387 . S
H1691 C1698 0.950 . S
C1692 C1690 1.387 . S
C1692 C1694 1.390 . S
C1692 H1696 0.950 . S
H1693 C1689 0.950 . S
C1694 C1692 1.390 . S
C1694 C1695 1.387 . S
C1694 H1697 0.950 . S
C1695 C1694 1.387 . S
C1695 C1698 1.387 . S
H1696 C1692 0.950 . S
H1697 C1694 0.950 . S
C1698 C1689 1.390 . S
C1698 H1691 0.950 . S
C1698 C1695 1.387 . S
C1699 C1700 1.387 . S
C1699 H1703 0.950 . S
C1699 C1708 1.390 . S
C1700 C1699 1.387 . S
C1700 C1702 1.387 . S
H1701 C1708 0.950 . S
C1702 C1700 1.387 . S
C1702 C1704 1.390 . S
C1702 H1706 0.950 . S
H1703 C1699 0.950 . S
C1704 C1702 1.390 . S
C1704 C1705 1.387 . S
C1704 H1707 0.950 . S
C1705 C1704 1.387 . S
C1705 C1708 1.387 . S
H1706 C1702 0.950 . S
H1707 C1704 0.950 . S
C1708 C1699 1.390 . S
C1708 H1701 0.950 . S
C1708 C1705 1.387 . S
C1709 C1710 1.387 . S
C1709 H1713 0.950 . S
C1709 C1718 1.390 . S
C1710 C1709 1.387 . S
C1710 C1712 1.387 . S
H1711 C1718 0.950 . S
C1712 C1710 1.387 . S
C1712 C1714 1.390 . S
C1712 H1716 0.950 . S
H1713 C1709 0.950 . S
C1714 C1712 1.390 . S
C1714 C1715 1.387 . S
C1714 H1717 0.950 . S
C1715 C1714 1.387 . S
C1715 C1718 1.387 . S
H1716 C1712 0.950 . S
H1717 C1714 0.950 . S
C1718 C1709 1.390 . S
C1718 H1711 0.950 . S
C1718 C1715 1.387 . S
C1719 C1720 1.387 . S
C1719 H1723 0.950 . S
C1719 C1728 1.390 . S
C1720 C1719 1.387 . S
C1720 C1722 1.387 . S
H1721 C1728 0.950 . S
C1722 C1720 1.387 . S
C1722 C1724 1.390 . S
C1722 H1726 0.950 . S
H1723 C1719 0.950 . S
C1724 C1722 1.390 . S
C1724 C1725 1.387 . S
C1724 H1727 0.950 . S
C1725 C1724 1.387 . S
C1725 C1728 1.387 . S
H1726 C1722 0.950 . S
H1727 C1724 0.950 . S
C1728 C1719 1.390 . S
C1728 H1721 0.950 . S
C1728 C1725 1.387 . S
C1729 C1730 1.387 . S
C1729 H1733 0.950 . S
C1729 C1738 1.390 . S
C1730 C1729 1.387 . S
C1730 C1732 1.387 . S
H1731 C1738 0.950 . S
C1732 C1730 1.387 . S
C1732 C1734 1.390 . S
C1732 H1736 0.950 . S
H1733 C1729 0.950 . S
C1734 C1732 1.390 . S
C1734 C1735 1.387 . S
C1734 H1737 0.950 . S
C1735 C1734 1.387 . S
C1735 C1738 1.387 . S
H1736 C1732 0.950 . S
H1737 C1734 0.950 . S
C1738 C1729 1.390 . S
C1738 H1731 0.950 . S
C1738 C1735 1.387 . S
C1739 C1740 1.387 . S
C1739 H1743 0.950 . S
C1739 C1748 1.390 . S
C1740 C1739 1.387 . S
C1740 C1742 1.387 . S
H1741 C1748 0.950 . S
C1742 C1740 1.387 . S
C1742 C1744 1.390 . S
C1742 H1746 0.950 . S
H1743 C1739 0.950 . S
C1744 C1742 1.390 . S
C1744 C1745 1.387 . S
C1744 H1747 0.950 . S
C1745 C1744 1.387 . S
C1745 C1748 1.387 . S
H1746 C1742 0.950 . S
H1747 C1744 0.950 . S
C1748 C1739 1.390 . S
C1748 H1741 0.950 . S
C1748 C1745 1.387 . S
C1749 C1750 1.387 . S
C1749 H1753 0.950 . S
C1749 C1758 1.390 . S
C1750 C1749 1.387 . S
C1750 C1752 1.387 . S
H1751 C1758 0.950 . S
C1752 C1750 1.387 . S
C1752 C1754 1.390 . S
C1752 H1756 0.950 . S
H1753 C1749 0.950 . S
C1754 C1752 1.390 . S
C1754 C1755 1.387 . S
C1754 H1757 0.950 . S
C1755 C1754 1.387 . S
C1755 C1758 1.387 . S
H1756 C1752 0.950 . S
H1757 C1754 0.950 . S
C1758 C1749 1.390 . S
C1758 H1751 0.950 . S
C1758 C1755 1.387 . S
C1759 C1760 1.387 . S
C1759 H1763 0.950 . S
C1759 C1768 1.390 . S
C1760 C1759 1.387 . S
C1760 C1762 1.387 . S
H1761 C1768 0.950 . S
C1762 C1760 1.387 . S
C1762 C1764 1.390 . S
C1762 H1766 0.950 . S
H1763 C1759 0.950 . S
C1764 C1762 1.390 . S
C1764 C1765 1.387 . S
C1764 H1767 0.950 . S
C1765 C1764 1.387 . S
C1765 C1768 1.387 . S
H1766 C1762 0.950 . S
H1767 C1764 0.950 . S
C1768 C1759 1.390 . S
C1768 H1761 0.950 . S
C1768 C1765 1.387 . S
C1769 C1770 1.387 . S
C1769 H1773 0.950 . S
C1769 C1778 1.390 . S
C1770 C1769 1.387 . S
C1770 C1772 1.387 . S
H1771 C1778 0.950 . S
C1772 C1770 1.387 . S
C1772 C1774 1.390 . S
C1772 H1776 0.950 . S
H1773 C1769 0.950 . S
C1774 C1772 1.390 . S
C1774 C1775 1.387 . S
C1774 H1777 0.950 . S
C1775 C1774 1.387 . S
C1775 C1778 1.387 . S
H1776 C1772 0.950 . S
H1777 C1774 0.950 . S
C1778 C1769 1.390 . S
C1778 H1771 0.950 . S
C1778 C1775 1.387 . S
C1779 C1780 1.387 . S
C1779 H1783 0.950 . S
C1779 C1788 1.390 . S
C1780 C1779 1.387 . S
C1780 C1782 1.387 . S
H1781 C1788 0.950 . S
C1782 C1780 1.387 . S
C1782 C1784 1.390 . S
C1782 H1786 0.950 . S
H1783 C1779 0.950 . S
C1784 C1782 1.390 . S
C1784 C1785 1.387 . S
C1784 H1787 0.950 . S
C1785 C1784 1.387 . S
C1785 C1788 1.387 . S
H1786 C1782 0.950 . S
H1787 C1784 0.950 . S
C1788 C1779 1.390 . S
C1788 H1781 0.950 . S
C1788 C1785 1.387 . S
C1789 C1790 1.387 . S
C1789 H1793 0.950 . S
C1789 C1798 1.390 . S
C1790 C1789 1.387 . S
C1790 C1792 1.387 . S
H1791 C1798 0.950 . S
C1792 C1790 1.387 . S
C1792 C1794 1.390 . S
C1792 H1796 0.950 . S
H1793 C1789 0.950 . S
C1794 C1792 1.390 . S
C1794 C1795 1.387 . S
C1794 H1797 0.950 . S
C1795 C1794 1.387 . S
C1795 C1798 1.387 . S
H1796 C1792 0.950 . S
H1797 C1794 0.950 . S
C1798 C1789 1.390 . S
C1798 H1791 0.950 . S
C1798 C1795 1.387 . S
C1799 C1800 1.387 . S
C1799 H1803 0.950 . S
C1799 C1808 1.390 . S
C1800 C1799 1.387 . S
C1800 C1802 1.387 . S
H1801 C1808 0.950 . S
C1802 C1800 1.387 . S
C1802 C1804 1.390 . S
C1802 H1806 0.950 . S
H1803 C1799 0.950 . S
C1804 C1802 1.390 . S
C1804 C1805 1.387 . S
C1804 H1807 0.950 . S
C1805 C1804 1.387 . S
C1805 C1808 1.387 . S
H1806 C1802 0.950 . S
H1807 C1804 0.950 . S
C1808 C1799 1.390 . S
C1808 H1801 0.950 . S
C1808 C1805 1.387 . S
C1270 C781 1.494 . S
C1275 C1094 1.441 . S
C1280 C871 1.485 . S
C1285 C1115 1.431 . S
C1290 C751 1.435 . S
C1295 C1135 1.183 . S
C1300 C691 1.455 . S
C1305 C1114 1.192 . S
C1315 C1136 1.461 . S
C1310 C571 1.515 . S
C1320 C601 1.459 . S
C1325 C1093 1.194 . S
C1335 C1095 1.398 . S
C1330 C661 1.408 . S
C1345 C1116 1.400 . S
C1340 C541 1.383 . S
C1350 C631 1.571 . S
C1355 C1138 1.226 1_556 S
C1360 C811 1.519 . S
C1365 C1117 1.192 1_554 S
C1370 C841 1.367 . S
C1375 C1137 1.369 . S
C1385 C1096 1.201 1_554 S
C1380 C721 1.432 . S
C1395 C1157 1.436 . S
C1390 C61 1.494 1_455 S
C1400 C151 1.485 . S
C1405 C1178 1.431 . S
C1410 C31 1.432 1_565 S
C1415 C1198 1.178 . S
C1420 C1051 1.455 . S
C1425 C1177 1.192 . S
C1430 C931 1.515 . S
C1435 C1199 1.461 . S
C1440 C961 1.460 . S
C1445 C1156 1.190 . S
C1450 C1021 1.409 . S
C1455 C1158 1.398 . S
C1460 C901 1.382 . S
C1465 C1179 1.399 . S
C1475 C1201 1.220 . S
C1470 C991 1.569 . S
C1480 C91 1.519 1_565 S
C1485 C1180 1.199 . S
C1495 C1200 1.365 . S
C1490 C121 1.365 1_455 S
C1500 C1 1.435 . S
C1505 C1159 1.224 . S
C1515 C1220 1.436 . S
C1510 C421 1.494 . S
C1520 C511 1.485 . S
C1525 C1241 1.431 . S
C1535 C1261 1.178 . S
C1530 C391 1.432 . S
C1545 C1240 1.187 . S
C1540 C331 1.451 1_545 S
C1555 C1262 1.461 . S
C1550 C211 1.515 1_655 S
C1560 C241 1.459 . S
C1565 C1219 1.195 . S
C1570 C301 1.413 1_655 S
C1575 C1221 1.403 . S
C1580 C181 1.381 . S
C1585 C1242 1.395 . S
C1595 C1264 1.225 . S
C1590 C271 1.571 1_545 S
C1600 C451 1.519 . S
C1605 C1243 1.197 . S
C1610 C481 1.366 . S
C1615 C1263 1.369 . S
C1620 C361 1.435 . S
C1625 C1222 1.224 . S
C1630 C920 1.412 . S
C1635 C1098 1.416 1_565 S
C1645 C1119 1.439 . S
C1640 C980 1.465 . S
C1650 C1040 1.477 . S
C1655 C1139 1.502 . S
C1660 C380 1.511 . S
C1665 C1118 1.528 1_655 S
C1670 C440 1.477 . S
C1675 C1140 1.448 . S
C1685 C1097 1.518 . S
C1680 C500 1.490 . S
C1690 C200 1.415 . S
C1695 C1161 1.414 . S
C1700 C260 1.464 . S
C1705 C1182 1.438 . S
C1710 C320 1.477 . S
C1715 C1202 1.502 . S
C1720 C740 1.509 . S
C1725 C1181 1.528 . S
C1735 C1203 1.446 . S
C1730 C800 1.476 . S
C1740 C860 1.487 . S
C1745 C1160 1.510 . S
C1750 C560 1.412 . S
C1755 C1224 1.416 . S
C1760 C620 1.464 . S
C1765 C1245 1.439 . S
C1775 C1265 1.502 . S
C1770 C680 1.477 . S
C1780 C20 1.511 . S
C1785 C1244 1.528 . S
C1790 C80 1.475 . S
C1795 C1266 1.446 . S
C1800 C140 1.489 . S
C1805 C1223 1.511 . S
