# Generated by pormake.
# Topology apo, (3,6)-cn, num edge types: 1
# Building blocks:
#     Node 0, Type 0, BuildingBlock: CUQRIR_clean_linker_1, # of connection points: 3
#     Node 1, Type 0, BuildingBlock: CUQRIR_clean_linker_1, # of connection points: 3
#     Node 2, Type 0, BuildingBlock: CUQRIR_clean_linker_1, # of connection points: 3
#     Node 3, Type 0, BuildingBlock: CUQRIR_clean_linker_1, # of connection points: 3
#     Node 4, Type 0, BuildingBlock: CUQRIR_clean_linker_1, # of connection points: 3
#     Node 5, Type 0, BuildingBlock: CUQRIR_clean_linker_1, # of connection points: 3
#     Node 6, Type 0, BuildingBlock: CUQRIR_clean_linker_1, # of connection points: 3
#     Node 7, Type 0, BuildingBlock: CUQRIR_clean_linker_1, # of connection points: 3
#     Node 8, Type 1, BuildingBlock: KUMBOL_clean_sbu_1, # of connection points: 6
#     Node 9, Type 1, BuildingBlock: KUMBOL_clean_sbu_1, # of connection points: 6
#     Node 10, Type 1, BuildingBlock: KUMBOL_clean_sbu_1, # of connection points: 6
#     Node 11, Type 1, BuildingBlock: KUMBOL_clean_sbu_1, # of connection points: 6
#     Edge 12, Type (0, 1), BuildingBlock: XIVTED_clean_linker_0, # of connection points: 2
#     Edge 13, Type (0, 1), BuildingBlock: XIVTED_clean_linker_0, # of connection points: 2
#     Edge 14, Type (0, 1), BuildingBlock: XIVTED_clean_linker_0, # of connection points: 2
#     Edge 15, Type (0, 1), BuildingBlock: XIVTED_clean_linker_0, # of connection points: 2
#     Edge 16, Type (0, 1), BuildingBlock: XIVTED_clean_linker_0, # of connection points: 2
#     Edge 17, Type (0, 1), BuildingBlock: XIVTED_clean_linker_0, # of connection points: 2
#     Edge 18, Type (0, 1), BuildingBlock: XIVTED_clean_linker_0, # of connection points: 2
#     Edge 19, Type (0, 1), BuildingBlock: XIVTED_clean_linker_0, # of connection points: 2
#     Edge 20, Type (0, 1), BuildingBlock: XIVTED_clean_linker_0, # of connection points: 2
#     Edge 21, Type (0, 1), BuildingBlock: XIVTED_clean_linker_0, # of connection points: 2
#     Edge 22, Type (0, 1), BuildingBlock: XIVTED_clean_linker_0, # of connection points: 2
#     Edge 23, Type (0, 1), BuildingBlock: XIVTED_clean_linker_0, # of connection points: 2
#     Edge 24, Type (0, 1), BuildingBlock: XIVTED_clean_linker_0, # of connection points: 2
#     Edge 25, Type (0, 1), BuildingBlock: XIVTED_clean_linker_0, # of connection points: 2
#     Edge 26, Type (0, 1), BuildingBlock: XIVTED_clean_linker_0, # of connection points: 2
#     Edge 27, Type (0, 1), BuildingBlock: XIVTED_clean_linker_0, # of connection points: 2
#     Edge 28, Type (0, 1), BuildingBlock: XIVTED_clean_linker_0, # of connection points: 2
#     Edge 29, Type (0, 1), BuildingBlock: XIVTED_clean_linker_0, # of connection points: 2
#     Edge 30, Type (0, 1), BuildingBlock: XIVTED_clean_linker_0, # of connection points: 2
#     Edge 31, Type (0, 1), BuildingBlock: XIVTED_clean_linker_0, # of connection points: 2
#     Edge 32, Type (0, 1), BuildingBlock: XIVTED_clean_linker_0, # of connection points: 2
#     Edge 33, Type (0, 1), BuildingBlock: XIVTED_clean_linker_0, # of connection points: 2
#     Edge 34, Type (0, 1), BuildingBlock: XIVTED_clean_linker_0, # of connection points: 2
#     Edge 35, Type (0, 1), BuildingBlock: XIVTED_clean_linker_0, # of connection points: 2
# Relax obj value: 0.045
# Max RMSD: 0.227
# Mean RMSD: 0.178
data_MOF--net-apo--node1-KUMBOL_clean_sbu_1--node2-CUQRIR_clean_linker_1--edge1-XIVTED_clean_linker_0
_symmetry_space_group_name_H-M    P1
_symmetry_Int_Tables_number       1
_symmetry_cell_setting            triclinic
loop_
_symmetry_equiv_pos_as_xyz
'x, y, z'
_cell_length_a     26.085509
_cell_length_b     39.60373
_cell_length_c     47.581356
_cell_angle_alpha  89.939393
_cell_angle_beta   90.085536
_cell_angle_gamma 90.225564
loop_
_atom_site_label
_atom_site_type_symbol
_atom_site_fract_x
_atom_site_fract_y
_atom_site_fract_z
_atom_type_partial_charge
C0 C 0.27682 0.32678 0.42739 0.0
N1 N 0.30263 0.35642 0.43065 0.0
N2 N 0.26221 0.32258 0.40027 0.0
C3 C 0.26118 0.30361 0.45098 0.0
C4 C 0.27967 0.35062 0.38716 0.0
N5 N 0.30368 0.37136 0.40558 0.0
C6 C 0.27545 0.35688 0.35602 0.0
H7 H 0.29305 0.28592 0.45545 0.0
H8 H 0.22676 0.28856 0.44528 0.0
H9 H 0.25301 0.31818 0.47035 0.0
H10 H 0.27214 0.33276 0.3443 0.0
H11 H 0.30926 0.37111 0.34819 0.0
H12 H 0.24064 0.37209 0.35181 0.0
C13 C 0.24166 0.17014 0.92172 0.0
N14 N 0.21443 0.14103 0.92464 0.0
N15 N 0.25867 0.17369 0.89496 0.0
C16 C 0.25557 0.19363 0.94538 0.0
C17 C 0.24113 0.14569 0.88174 0.0
N18 N 0.21478 0.12571 0.89977 0.0
C19 C 0.24674 0.13897 0.85075 0.0
H20 H 0.22455 0.21245 0.94798 0.0
H21 H 0.29178 0.20736 0.94083 0.0
H22 H 0.25991 0.17954 0.9654 0.0
H23 H 0.28111 0.12308 0.84736 0.0
H24 H 0.25157 0.16284 0.83881 0.0
H25 H 0.21288 0.12517 0.84244 0.0
C26 C 0.75361 0.17681 0.61378 0.0
N27 N 0.7849 0.14968 0.61148 0.0
N28 N 0.73861 0.18116 0.64079 0.0
C29 C 0.73452 0.19744 0.58937 0.0
C30 C 0.76197 0.15573 0.65485 0.0
N31 N 0.78969 0.13646 0.63704 0.0
C32 C 0.7583 0.14997 0.68609 0.0
H33 H 0.76196 0.21837 0.58536 0.0
H34 H 0.6964 0.20845 0.59397 0.0
H35 H 0.73175 0.18183 0.57008 0.0
H36 H 0.72549 0.13283 0.69039 0.0
H37 H 0.75191 0.17409 0.69737 0.0
H38 H 0.79337 0.13793 0.69452 0.0
C39 C 0.73853 0.32577 0.11606 0.0
N40 N 0.70591 0.35218 0.11356 0.0
N41 N 0.75559 0.32289 0.14291 0.0
C42 C 0.7537 0.30283 0.09233 0.0
C43 C 0.73194 0.34847 0.15657 0.0
N44 N 0.70175 0.36616 0.13879 0.0
C45 C 0.73609 0.35521 0.18762 0.0
H46 H 0.72568 0.28174 0.09102 0.0
H47 H 0.7924 0.29214 0.09594 0.0
H48 H 0.75339 0.31633 0.07193 0.0
H49 H 0.76837 0.37296 0.19141 0.0
H50 H 0.74346 0.33154 0.19942 0.0
H51 H 0.70052 0.36699 0.19572 0.0
C52 C 0.74716 0.66758 0.60531 0.0
N53 N 0.71901 0.63886 0.60177 0.0
N54 N 0.76208 0.67099 0.63244 0.0
C55 C 0.76464 0.69069 0.58206 0.0
C56 C 0.74261 0.6434 0.64533 0.0
N57 N 0.71697 0.6237 0.62677 0.0
C58 C 0.74603 0.63673 0.67646 0.0
H59 H 0.77012 0.67652 0.5622 0.0
H60 H 0.80117 0.70343 0.58772 0.0
H61 H 0.73525 0.71044 0.57862 0.0
H62 H 0.75105 0.66056 0.6884 0.0
H63 H 0.77957 0.62032 0.68062 0.0
H64 H 0.71115 0.62355 0.68414 0.0
C65 C 0.75507 0.83562 0.11262 0.0
N66 N 0.78262 0.8646 0.10979 0.0
N67 N 0.73737 0.83232 0.13926 0.0
C68 C 0.7417 0.81197 0.08898 0.0
C69 C 0.75486 0.8603 0.15251 0.0
N70 N 0.78179 0.88008 0.13458 0.0
C71 C 0.74893 0.86707 0.18347 0.0
H72 H 0.70533 0.79833 0.09333 0.0
H73 H 0.77272 0.79308 0.08673 0.0
H74 H 0.73794 0.82591 0.06885 0.0
H75 H 0.74389 0.84322 0.19543 0.0
H76 H 0.71457 0.88301 0.18674 0.0
H77 H 0.78274 0.88081 0.19191 0.0
C78 C 0.23754 0.82307 0.42225 0.0
N79 N 0.20767 0.85089 0.42456 0.0
N80 N 0.25063 0.81767 0.39507 0.0
C81 C 0.2573 0.80282 0.44671 0.0
C82 C 0.22754 0.84313 0.38094 0.0
N83 N 0.20186 0.86342 0.39883 0.0
C84 C 0.23 0.84818 0.34958 0.0
H85 H 0.2946 0.79093 0.44164 0.0
H86 H 0.22924 0.78255 0.45166 0.0
H87 H 0.26194 0.81892 0.46562 0.0
H88 H 0.23667 0.82391 0.33858 0.0
H89 H 0.26206 0.8657 0.34467 0.0
H90 H 0.19421 0.85956 0.34141 0.0
C91 C 0.25693 0.67598 0.92347 0.0
N92 N 0.29376 0.65194 0.92483 0.0
N93 N 0.24476 0.68291 0.89638 0.0
C94 C 0.23348 0.6929 0.94863 0.0
C95 C 0.27592 0.66254 0.88129 0.0
N96 N 0.30619 0.64403 0.89856 0.0
C97 C 0.27741 0.66097 0.84963 0.0
H98 H 0.2088 0.67446 0.95987 0.0
H99 H 0.20965 0.71488 0.94272 0.0
H100 H 0.26411 0.70111 0.96336 0.0
H101 H 0.24318 0.67225 0.8397 0.0
H102 H 0.28096 0.6344 0.84254 0.0
H103 H 0.31144 0.67514 0.84205 0.0
C104 C 0.84031 0.08944 0.27306 0.0
C105 C 0.82937 0.02858 0.27592 0.0
C106 C 0.85976 0.05773 0.27968 0.0
C107 C 0.77945 0.03169 0.26514 0.0
C108 C 0.79014 0.09265 0.26239 0.0
C109 C 0.75991 0.06361 0.25838 0.0
N110 N 0.87058 0.11707 0.27697 0.0
C111 C 0.85275 0.14869 0.27134 0.0
C112 C 0.77189 0.12499 0.25603 0.0
C113 C 0.80329 0.15312 0.26062 0.0
Gd114 Gd 0.07426 0.10352 0.24097 0.0
Gd115 Gd 0.95339 0.10681 0.2939 0.0
N116 N 0.90877 0.05546 0.28941 0.0
C117 C 0.8501 0.9972 0.28313 0.0
C118 C 0.9283 0.02515 0.29764 0.0
C119 C 0.89959 0.99553 0.29429 0.0
H120 H 0.96567 0.02368 0.30708 0.0
H121 H 0.91552 0.97146 0.30051 0.0
H122 H 0.05129 0.18522 0.22349 0.0
H123 H 0.87649 0.17054 0.27544 0.0
H124 H 0.09299 0.24043 0.22922 0.0
H125 H 0.82799 0.97419 0.28054 0.0
H126 H 0.75559 0.00955 0.26199 0.0
H127 H 0.15701 0.04652 0.26583 0.0
H128 H 0.73357 0.12851 0.24774 0.0
H129 H 0.78935 0.17823 0.25602 0.0
H130 H 0.25508 0.21472 0.27162 0.0
H131 H 0.7213 0.06558 0.25013 0.0
H132 H 0.2927 0.09894 0.29212 0.0
H133 H 0.24389 0.04566 0.28658 0.0
N134 N 0.1566 0.09976 0.26017 0.0
C135 C 0.18297 0.12931 0.26259 0.0
C136 C 0.17784 0.06994 0.26843 0.0
C137 C 0.25462 0.09948 0.283 0.0
C138 C 0.22713 0.06934 0.28 0.0
C139 C 0.23263 0.12996 0.27432 0.0
H140 H 0.29651 0.16195 0.28646 0.0
N141 N 0.11048 0.15792 0.24408 0.0
C142 C 0.15927 0.15921 0.25436 0.0
C143 C 0.16049 0.21986 0.24878 0.0
C144 C 0.18518 0.19032 0.25743 0.0
C145 C 0.08754 0.18643 0.23414 0.0
C146 C 0.11173 0.21784 0.23678 0.0
O147 O 0.94186 0.08217 0.251 0.0
O148 O 0.01975 0.05949 0.23838 0.0
O149 O 0.07838 0.1159 0.19646 0.0
O150 O 0.12739 0.07721 0.21361 0.0
O151 O 0.02314 0.07656 0.30686 0.0
O152 O 0.06147 0.05592 0.26637 0.0
O153 O 0.08539 0.12363 0.28535 0.0
O154 O 0.00955 0.15019 0.29458 0.0
O155 O 0.95836 0.0953 0.33853 0.0
O156 O 0.90513 0.13311 0.32389 0.0
O157 O 0.00167 0.13058 0.22692 0.0
O158 O 0.96929 0.15296 0.26783 0.0
C159 C 0.96959 0.0606 0.23656 0.0
C160 C 0.05234 0.0547 0.29361 0.0
C161 C 0.10074 0.07114 0.16627 0.0
C162 C 0.10335 0.06241 0.11533 0.0
C163 C 0.06712 0.01934 0.14611 0.0
C164 C 0.07765 0.03936 0.16954 0.0
C165 C 0.07994 0.03066 0.11919 0.0
C166 C 0.11333 0.08265 0.13913 0.0
C167 C 0.1118 0.0925 0.19095 0.0
C168 C 0.23473 0.19102 0.26902 0.0
C169 C 0.25838 0.16095 0.27742 0.0
H170 H 0.17908 0.24426 0.25081 0.0
C171 C 0.05906 0.14695 0.29847 0.0
C172 C 0.97189 0.152 0.24029 0.0
C173 C 0.8819 0.10194 0.3644 0.0
C174 C 0.84881 0.0936 0.41209 0.0
C175 C 0.80262 0.07098 0.37171 0.0
C176 C 0.83974 0.08408 0.35367 0.0
C177 C 0.80694 0.0757 0.40066 0.0
C178 C 0.88637 0.10665 0.39364 0.0
C179 C 0.92134 0.11571 0.34535 0.0
H180 H 0.04904 0.9949 0.14882 0.0
H181 H 0.06805 0.03003 0.19023 0.0
H182 H 0.07104 0.01469 0.10137 0.0
H183 H 0.13168 0.10708 0.13665 0.0
H184 H 0.77006 0.05737 0.36319 0.0
H185 H 0.83522 0.08045 0.33137 0.0
H186 H 0.77677 0.06593 0.41403 0.0
H187 H 0.91915 0.12029 0.40193 0.0
C188 C 0.67437 0.40767 0.77681 0.0
C189 C 0.69415 0.46758 0.77935 0.0
C190 C 0.65933 0.44057 0.78262 0.0
C191 C 0.74427 0.46106 0.77013 0.0
C192 C 0.72461 0.40103 0.76751 0.0
C193 C 0.75944 0.4279 0.7642 0.0
N194 N 0.63977 0.38222 0.78002 0.0
C195 C 0.65301 0.34952 0.77491 0.0
C196 C 0.73827 0.36758 0.76175 0.0
C197 C 0.70233 0.34172 0.76553 0.0
Gd198 Gd 0.43474 0.40462 0.7437 0.0
Gd199 Gd 0.55815 0.39812 0.79522 0.0
N200 N 0.60998 0.44623 0.79051 0.0
C201 C 0.67736 0.50036 0.78524 0.0
C202 C 0.59386 0.47792 0.79722 0.0
C203 C 0.62711 0.50551 0.79439 0.0
H204 H 0.55541 0.48201 0.80465 0.0
H205 H 0.61402 0.5307 0.79934 0.0
H206 H 0.46193 0.33398 0.7056 0.0
H207 H 0.62569 0.3294 0.77847 0.0
H208 H 0.43283 0.27512 0.70315 0.0
H209 H 0.70294 0.5218 0.78296 0.0
H210 H 0.77155 0.4815 0.76742 0.0
H211 H 0.34856 0.44531 0.78247 0.0
H212 H 0.77648 0.36145 0.75451 0.0
H213 H 0.71267 0.31576 0.76137 0.0
H214 H 0.2843 0.27185 0.76218 0.0
H215 H 0.7982 0.42329 0.75705 0.0
H216 H 0.23039 0.37501 0.80537 0.0
H217 H 0.26689 0.43275 0.80693 0.0
N218 N 0.35756 0.39521 0.76745 0.0
C219 C 0.3376 0.3635 0.76566 0.0
C220 C 0.33259 0.4201 0.78168 0.0
C221 C 0.26591 0.38044 0.79446 0.0
C222 C 0.28646 0.41306 0.79546 0.0
C223 C 0.29147 0.35517 0.77947 0.0
H224 H 0.23766 0.31495 0.78898 0.0
N225 N 0.40904 0.34789 0.73764 0.0
C226 C 0.36456 0.33906 0.75081 0.0
C227 C 0.37115 0.28233 0.73252 0.0
C228 C 0.34503 0.30585 0.74902 0.0
C229 C 0.43152 0.32591 0.71935 0.0
C230 C 0.41397 0.29262 0.71717 0.0
O231 O 0.57036 0.42676 0.75416 0.0
O232 O 0.49163 0.44713 0.73948 0.0
O233 O 0.41861 0.40262 0.69829 0.0
O234 O 0.37592 0.43647 0.72579 0.0
O235 O 0.49174 0.4306 0.80922 0.0
O236 O 0.44857 0.45124 0.77005 0.0
O237 O 0.42741 0.38512 0.78863 0.0
O238 O 0.50116 0.35529 0.79435 0.0
O239 O 0.55242 0.41119 0.83942 0.0
O240 O 0.60435 0.37185 0.82635 0.0
O241 O 0.50756 0.37989 0.72729 0.0
O242 O 0.53834 0.35439 0.76724 0.0
C243 C 0.5419 0.4465 0.73822 0.0
C244 C 0.46249 0.45306 0.79667 0.0
C245 C 0.35181 0.43785 0.67652 0.0
C246 C 0.33171 0.4405 0.62615 0.0
C247 C 0.28172 0.4728 0.65984 0.0
C248 C 0.31159 0.46046 0.6818 0.0
C249 C 0.2915 0.46292 0.6323 0.0
C250 C 0.3617 0.42781 0.64857 0.0
C251 C 0.38276 0.42525 0.70045 0.0
C252 C 0.29953 0.29732 0.76315 0.0
C253 C 0.2728 0.32191 0.77829 0.0
H254 H 0.3574 0.25658 0.7306 0.0
C255 C 0.45207 0.35917 0.79906 0.0
C256 C 0.53666 0.35724 0.73978 0.0
C257 C 0.56583 0.36642 0.87105 0.0
C258 C 0.56153 0.35484 0.92151 0.0
C259 C 0.51386 0.31994 0.88835 0.0
C260 C 0.53288 0.33904 0.86602 0.0
C261 C 0.52792 0.32777 0.91591 0.0
C262 C 0.58037 0.37416 0.8988 0.0
C263 C 0.58381 0.38757 0.84754 0.0
H264 H 0.2506 0.49001 0.66421 0.0
H265 H 0.30294 0.46859 0.70299 0.0
H266 H 0.26681 0.47249 0.61582 0.0
H267 H 0.3929 0.4106 0.64427 0.0
H268 H 0.48831 0.2989 0.88427 0.0
H269 H 0.52198 0.33243 0.84483 0.0
H270 H 0.51327 0.31217 0.93282 0.0
H271 H 0.60571 0.39541 0.90271 0.0
C272 C 0.81836 0.87355 0.77209 0.0
C273 C 0.81565 0.8125 0.77697 0.0
C274 C 0.84179 0.84351 0.78018 0.0
C275 C 0.76604 0.81207 0.76545 0.0
C276 C 0.76863 0.87316 0.76045 0.0
C277 C 0.74262 0.84229 0.75722 0.0
N278 N 0.84493 0.90301 0.77472 0.0
C279 C 0.82376 0.93298 0.76677 0.0
C280 C 0.74678 0.90379 0.75203 0.0
C281 C 0.77443 0.93382 0.75527 0.0
Gd282 Gd 0.04885 0.89681 0.74154 0.0
Gd283 Gd 0.92733 0.89872 0.7938 0.0
N284 N 0.89064 0.84454 0.79036 0.0
C285 C 0.84023 0.7828 0.78535 0.0
C286 C 0.91363 0.81586 0.7999 0.0
C287 C 0.88919 0.78456 0.79715 0.0
H288 H 0.95023 0.81688 0.81021 0.0
H289 H 0.90794 0.76182 0.8044 0.0
H290 H 0.03275 0.97952 0.72733 0.0
H291 H 0.84462 0.95634 0.76962 0.0
H292 H 0.07976 0.03291 0.7341 0.0
H293 H 0.82146 0.75848 0.7832 0.0
H294 H 0.7455 0.78846 0.76275 0.0
H295 H 0.12858 0.83511 0.76116 0.0
H296 H 0.70865 0.90453 0.74299 0.0
H297 H 0.75774 0.95763 0.74894 0.0
H298 H 0.24043 0.99895 0.77429 0.0
H299 H 0.70443 0.84149 0.74825 0.0
H300 H 0.26859 0.88073 0.78939 0.0
H301 H 0.21567 0.82967 0.78117 0.0
N302 N 0.13179 0.88865 0.75904 0.0
C303 C 0.16046 0.91702 0.76297 0.0
C304 C 0.1511 0.85754 0.76514 0.0
C305 C 0.23031 0.88327 0.78079 0.0
C306 C 0.20052 0.85438 0.77623 0.0
C307 C 0.21049 0.91509 0.77405 0.0
H308 H 0.27747 0.94387 0.78672 0.0
N309 N 0.09055 0.94924 0.74594 0.0
C310 C 0.13941 0.94821 0.75608 0.0
C311 C 0.14592 0.00889 0.75231 0.0
C312 C 0.16811 0.97807 0.7599 0.0
C313 C 0.06974 0.97899 0.73726 0.0
C314 C 0.09674 0.00929 0.74067 0.0
O315 O 0.91767 0.87695 0.74978 0.0
O316 O 0.99506 0.85218 0.74059 0.0
O317 O 0.0434 0.90738 0.69679 0.0
O318 O 0.09985 0.872 0.71198 0.0
O319 O 3e-05 0.87204 0.80814 0.0
O320 O 0.03497 0.85027 0.76755 0.0
O321 O 0.05886 0.92113 0.78468 0.0
O322 O 0.98044 0.94354 0.79631 0.0
O323 O 0.92488 0.88638 0.83835 0.0
O324 O 0.87332 0.92379 0.82143 0.0
O325 O 0.97779 0.92549 0.72805 0.0
O326 O 0.93943 0.94628 0.76835 0.0
C327 C 0.94532 0.85408 0.73687 0.0
C328 C 0.03056 0.85082 0.79505 0.0
C329 C 0.12053 0.90361 0.67124 0.0
C330 C 0.15216 0.91388 0.62356 0.0
C331 C 0.19545 0.939 0.66383 0.0
C332 C 0.16032 0.92376 0.68192 0.0
C333 C 0.19146 0.9342 0.63487 0.0
C334 C 0.11669 0.89856 0.64202 0.0
C335 C 0.08232 0.88841 0.69029 0.0
C336 C 0.21789 0.97624 0.77108 0.0
C337 C 0.239 0.94486 0.77815 0.0
H338 H 0.1667 0.03242 0.75495 0.0
C339 C 0.03053 0.94276 0.79867 0.0
C340 C 0.94803 0.94719 0.74107 0.0
C341 C 0.90093 0.93085 0.86845 0.0
C342 C 0.8979 0.94053 0.91925 0.0
C343 C 0.93371 0.98323 0.88799 0.0
C344 C 0.92356 0.96271 0.86481 0.0
C345 C 0.92092 0.97233 0.91502 0.0
C346 C 0.88835 0.91977 0.8957 0.0
C347 C 0.89033 0.90901 0.84402 0.0
H348 H 0.22608 0.95447 0.6723 0.0
H349 H 0.1644 0.92766 0.70421 0.0
H350 H 0.21979 0.94591 0.62135 0.0
H351 H 0.08585 0.8831 0.63369 0.0
H352 H 0.95144 0.00773 0.88499 0.0
H353 H 0.93306 0.97173 0.84401 0.0
H354 H 0.92949 0.98868 0.93266 0.0
H355 H 0.87031 0.89529 0.89846 0.0
C356 C 0.64254 0.67294 0.28134 0.0
C357 C 0.60754 0.72209 0.30427 0.0
C358 C 0.60605 0.68717 0.29853 0.0
C359 C 0.64347 0.7427 0.29037 0.0
C360 C 0.68107 0.693 0.26891 0.0
C361 C 0.68023 0.72816 0.27269 0.0
N362 N 0.64208 0.63901 0.2781 0.0
C363 C 0.68103 0.62297 0.26451 0.0
C364 C 0.71994 0.67696 0.25371 0.0
C365 C 0.72036 0.64172 0.2519 0.0
Gd366 Gd 0.44863 0.60397 0.24149 0.0
Gd367 Gd 0.57184 0.60929 0.29637 0.0
N368 N 0.57263 0.66628 0.31191 0.0
C369 C 0.57495 0.73485 0.32498 0.0
C370 C 0.54586 0.67799 0.33458 0.0
C371 C 0.54511 0.71252 0.34079 0.0
H372 H 0.52441 0.66088 0.34785 0.0
H373 H 0.52198 0.7218 0.35798 0.0
H374 H 0.40519 0.52514 0.23601 0.0
H375 H 0.68069 0.59575 0.26275 0.0
H376 H 0.32513 0.49308 0.24547 0.0
H377 H 0.57481 0.76152 0.33003 0.0
H378 H 0.64457 0.76968 0.2941 0.0
H379 H 0.41411 0.68474 0.2349 0.0
H380 H 0.75025 0.69146 0.24381 0.0
H381 H 0.75063 0.62903 0.24058 0.0
H382 H 0.20445 0.57864 0.27248 0.0
H383 H 0.70887 0.74414 0.26287 0.0
H384 H 0.25807 0.69409 0.26194 0.0
H385 H 0.33865 0.72043 0.24509 0.0
N386 N 0.37716 0.6392 0.24727 0.0
C387 C 0.33268 0.62417 0.25506 0.0
C388 C 0.37914 0.67316 0.24248 0.0
C389 C 0.29116 0.67844 0.25776 0.0
C390 C 0.33652 0.69338 0.24816 0.0
C391 C 0.28843 0.64329 0.26067 0.0
H392 H 0.20828 0.64084 0.27257 0.0
N393 N 0.37324 0.5723 0.2477 0.0
C394 C 0.33057 0.58941 0.25515 0.0
C395 C 0.28259 0.53724 0.25773 0.0
C396 C 0.2841 0.57243 0.26065 0.0
C397 C 0.37131 0.53829 0.24306 0.0
C398 C 0.32621 0.52016 0.24844 0.0
O399 O 0.57731 0.62242 0.25 0.0
O400 O 0.50148 0.64911 0.24294 0.0
O401 O 0.4914 0.59696 0.20265 0.0
O402 O 0.40962 0.60464 0.20112 0.0
O403 O 0.49282 0.62485 0.31145 0.0
O404 O 0.46435 0.64743 0.2705 0.0
O405 O 0.4436 0.5664 0.27756 0.0
O406 O 0.50775 0.57527 0.31158 0.0
O407 O 0.61899 0.61066 0.33433 0.0
O408 O 0.6152 0.56542 0.3094 0.0
O409 O 0.49745 0.55754 0.24754 0.0
O410 O 0.5797 0.57556 0.25819 0.0
C411 C 0.55082 0.64674 0.23834 0.0
C412 C 0.46031 0.64395 0.2977 0.0
C413 C 0.45781 0.62699 0.16377 0.0
C414 C 0.44893 0.64297 0.11427 0.0
C415 C 0.48216 0.68325 0.14843 0.0
C416 C 0.47606 0.65951 0.16981 0.0
C417 C 0.46887 0.67509 0.12084 0.0
C418 C 0.44368 0.61886 0.13599 0.0
C419 C 0.4516 0.60209 0.1866 0.0
C420 C 0.24043 0.5912 0.26782 0.0
C421 C 0.24261 0.62662 0.26787 0.0
H422 H 0.24763 0.5232 0.26177 0.0
C423 C 0.46568 0.56034 0.30215 0.0
C424 C 0.54749 0.55514 0.24508 0.0
C425 C 0.62764 0.55796 0.35862 0.0
C426 C 0.63185 0.55178 0.41018 0.0
C427 C 0.62607 0.50219 0.37991 0.0
C428 C 0.6252 0.52264 0.35613 0.0
C429 C 0.62998 0.51645 0.40657 0.0
C430 C 0.63055 0.57242 0.38579 0.0
C431 C 0.63123 0.57895 0.33272 0.0
H432 H 0.49652 0.70825 0.15333 0.0
H433 H 0.48496 0.66669 0.19112 0.0
H434 H 0.47274 0.69433 0.10478 0.0
H435 H 0.42862 0.59394 0.13133 0.0
H436 H 0.6248 0.47501 0.37763 0.0
H437 H 0.6235 0.51064 0.33571 0.0
H438 H 0.63283 0.49939 0.42426 0.0
H439 H 0.63205 0.59962 0.38777 0.0
H440 H 0.10665 0.86487 0.37752 0.0
H441 H 0.09982 0.06066 0.34414 0.0
H442 H 0.23563 0.92772 0.39888 0.0
H443 H 0.05493 0.98724 0.2819 0.0
H444 H 0.13311 0.01476 0.37381 0.0
H445 H 0.06791 0.91284 0.35226 0.0
C446 C 0.12558 0.88924 0.37781 0.0
C447 C 0.17345 0.8929 0.39084 0.0
C448 C 0.11595 0.00882 0.35365 0.0
C449 C 0.13036 0.94721 0.36201 0.0
C450 C 0.09711 0.03483 0.33678 0.0
C451 C 0.07512 0.02752 0.31057 0.0
C452 C 0.11105 0.9753 0.3446 0.0
C453 C 0.07227 0.99377 0.30187 0.0
C454 C 0.10406 0.91628 0.36314 0.0
C455 C 0.19782 0.92446 0.3899 0.0
N456 N 0.08951 0.96875 0.31904 0.0
N457 N 0.17594 0.95056 0.37575 0.0
H458 H 0.38602 0.64955 0.86273 0.0
H459 H 0.43961 0.45217 0.85258 0.0
H460 H 0.3033 0.57842 0.91409 0.0
H461 H 0.4422 0.51785 0.78022 0.0
H462 H 0.40865 0.49934 0.88129 0.0
H463 H 0.42862 0.60243 0.8389 0.0
C464 C 0.37762 0.62394 0.86926 0.0
C465 C 0.34048 0.61761 0.88988 0.0
C466 C 0.41619 0.50334 0.85916 0.0
C467 C 0.38928 0.5639 0.86322 0.0
C468 C 0.43384 0.47657 0.84278 0.0
C469 C 0.44315 0.48118 0.81396 0.0
C470 C 0.40914 0.53512 0.84677 0.0
C471 C 0.43496 0.51322 0.80229 0.0
C472 C 0.40166 0.59717 0.85565 0.0
C473 C 0.33169 0.58414 0.89821 0.0
N474 N 0.41876 0.53908 0.81879 0.0
N475 N 0.35564 0.55837 0.88467 0.0
H476 H 0.61458 0.61354 0.62675 0.0
H477 H 0.64338 0.44813 0.72275 0.0
H478 H 0.75853 0.56589 0.6452 0.0
H479 H 0.49914 0.49821 0.70779 0.0
H480 H 0.68493 0.4876 0.69053 0.0
H481 H 0.56969 0.5671 0.65097 0.0
C482 C 0.63641 0.59263 0.63516 0.0
C483 C 0.69 0.59314 0.63399 0.0
C484 C 0.64415 0.48993 0.69423 0.0
C485 C 0.63977 0.54074 0.66236 0.0
C486 C 0.62043 0.46754 0.71289 0.0
C487 C 0.56776 0.47012 0.71848 0.0
C488 C 0.61506 0.5151 0.68087 0.0
C489 C 0.5399 0.49533 0.70436 0.0
C490 C 0.61106 0.5664 0.64927 0.0
C491 C 0.71705 0.56602 0.64565 0.0
N492 N 0.5639 0.51688 0.68635 0.0
N493 N 0.69175 0.5411 0.6596 0.0
H494 H 0.74111 0.93837 0.15265 0.0
H495 H 0.00648 1.00043 0.21712 0.0
H496 H 0.88421 0.88918 0.13534 0.0
H497 H 0.8718 0.0633 0.21536 0.0
H498 H 0.96259 0.95961 0.18704 0.0
H499 H 0.78797 0.98517 0.17486 0.0
C500 C 0.78261 0.93803 0.15301 0.0
C501 C 0.80916 0.91031 0.14217 0.0
C502 C 0.94275 0.98246 0.19302 0.0
C503 C 0.86298 0.96285 0.16809 0.0
C504 C 0.9679 0.0059 0.2101 0.0
C505 C 0.94304 0.03556 0.21853 0.0
C506 C 0.89193 0.98838 0.18465 0.0
C507 C 0.8924 0.04071 0.20951 0.0
C508 C 0.80933 0.9645 0.16577 0.0
C509 C 0.86275 0.91044 0.1433 0.0
N510 N 0.86842 0.01728 0.19319 0.0
N511 N 0.888 0.93612 0.15642 0.0
H512 H 0.88365 0.13765 0.66003 0.0
H513 H 0.90427 0.94125 0.68944 0.0
H514 H 0.76124 0.07109 0.63508 0.0
H515 H 0.94033 0.01423 0.75372 0.0
H516 H 0.8692 0.98687 0.6601 0.0
H517 H 0.92498 0.09026 0.68481 0.0
C518 C 0.86676 0.11266 0.65889 0.0
C519 C 0.81994 0.10778 0.64501 0.0
C520 C 0.88488 0.99277 0.68061 0.0
C521 C 0.86601 0.05408 0.67326 0.0
C522 C 0.90476 0.96691 0.69731 0.0
C523 C 0.92474 0.97415 0.72402 0.0
C524 C 0.8867 0.02613 0.69038 0.0
C525 C 0.92464 0.00771 0.73335 0.0
C526 C 0.88973 0.08593 0.67328 0.0
C527 C 0.7982 0.07539 0.64481 0.0
N528 N 0.90642 0.03262 0.71638 0.0
N529 N 0.82148 0.04961 0.65871 0.0
H530 H 0.60004 0.37361 0.14713 0.0
H531 H 0.64722 0.5471 0.22874 0.0
H532 H 0.74408 0.42662 0.14863 0.0
H533 H 0.49661 0.50314 0.21843 0.0
H534 H 0.68204 0.504 0.19781 0.0
H535 H 0.55918 0.42212 0.17028 0.0
C536 C 0.62247 0.39605 0.15151 0.0
C537 C 0.67505 0.39668 0.1457 0.0
C538 C 0.64132 0.50378 0.20219 0.0
C539 C 0.62973 0.45141 0.17302 0.0
C540 C 0.62139 0.52832 0.22006 0.0
C541 C 0.56889 0.52865 0.22649 0.0
C542 C 0.60872 0.47906 0.19068 0.0
C543 C 0.53737 0.5038 0.21424 0.0
C544 C 0.59949 0.42351 0.165 0.0
C545 C 0.70322 0.42567 0.15251 0.0
N546 N 0.55782 0.47989 0.19708 0.0
N547 N 0.68039 0.45175 0.16606 0.0
H548 H 0.40342 0.38927 0.4106 0.0
H549 H 0.36408 0.54377 0.30513 0.0
H550 H 0.25597 0.42534 0.38377 0.0
H551 H 0.5105 0.52093 0.34264 0.0
H552 H 0.32395 0.50142 0.33523 0.0
H553 H 0.4439 0.43911 0.38875 0.0
C554 C 0.37966 0.40824 0.40071 0.0
C555 C 0.3266 0.40341 0.39868 0.0
C556 C 0.36485 0.50568 0.33701 0.0
C557 C 0.372 0.45962 0.37318 0.0
C558 C 0.38786 0.5296 0.31953 0.0
C559 C 0.44082 0.5354 0.32094 0.0
C560 C 0.39504 0.48713 0.356 0.0
C561 C 0.46953 0.5171 0.34075 0.0
C562 C 0.40259 0.43644 0.38805 0.0
C563 C 0.29712 0.42829 0.38547 0.0
N564 N 0.44636 0.49353 0.35732 0.0
N565 N 0.32022 0.45508 0.37289 0.0
H566 H 0.25639 0.06758 0.882 0.0
H567 H 0.99271 0.00319 0.81712 0.0
H568 H 0.11248 0.11593 0.89893 0.0
H569 H 0.12762 0.94066 0.82081 0.0
H570 H 0.0357 0.04473 0.84696 0.0
H571 H 0.2103 0.02025 0.86006 0.0
C572 C 0.21488 0.06763 0.88161 0.0
C573 C 0.18788 0.09525 0.8923 0.0
C574 C 0.05577 0.02179 0.84146 0.0
C575 C 0.13493 0.0421 0.86665 0.0
C576 C 0.03113 0.99795 0.82451 0.0
C577 C 0.05634 0.96818 0.81668 0.0
C578 C 0.10642 0.01617 0.85027 0.0
C579 C 0.10677 0.96331 0.82618 0.0
C580 C 0.1886 0.04085 0.86901 0.0
C581 C 0.13428 0.09475 0.8911 0.0
N582 N 0.13025 0.98714 0.84232 0.0
N583 N 0.10947 0.06878 0.87812 0.0
H584 H 0.22936 0.07892 0.94684 0.0
H585 H 0.09141 0.12549 0.09207 0.0
H586 H 0.15138 0.17293 0.96101 0.0
H587 H 0.1475 0.02582 0.07286 0.0
H588 H 0.11466 0.14374 0.04457 0.0
H589 H 0.19952 0.05868 0.9928 0.0
C590 C 0.2053 0.09505 0.95953 0.0
C591 C 0.19293 0.12763 0.9503 0.0
C592 C 0.12173 0.11784 0.05071 0.0
C593 C 0.15958 0.10515 1.00309 0.0
C594 C 0.10881 0.10747 0.07792 0.0
C595 C 0.1175 0.07406 0.08654 0.0
C596 C 0.14397 0.09474 0.03195 0.0
C597 C 0.13957 0.05172 0.06708 0.0
C598 C 0.18859 0.08367 0.98582 0.0
C599 C 0.16227 0.14782 0.96763 0.0
N600 N 0.1522 0.06248 0.04081 0.0
N601 N 0.14697 0.13639 0.99327 0.0
H602 H 0.3617 0.32706 0.47054 0.0
H603 H 0.32668 0.47988 0.57873 0.0
H604 H 0.28087 0.41865 0.4508 0.0
H605 H 0.35692 0.37763 0.60535 0.0
H606 H 0.32868 0.46128 0.52988 0.0
H607 H 0.37866 0.34884 0.51803 0.0
C608 C 0.34812 0.35194 0.47618 0.0
C609 C 0.31951 0.37101 0.45691 0.0
C610 C 0.33526 0.44296 0.5464 0.0
C611 C 0.3392 0.39625 0.51084 0.0
C612 C 0.33395 0.4535 0.57436 0.0
C613 C 0.34055 0.43017 0.59637 0.0
C614 C 0.34375 0.40884 0.54017 0.0
C615 C 0.35152 0.39654 0.58919 0.0
C616 C 0.35777 0.36433 0.50318 0.0
C617 C 0.30342 0.40331 0.46496 0.0
N618 N 0.35233 0.38683 0.56172 0.0
N619 N 0.31322 0.41484 0.49136 0.0
H620 H 0.60749 0.33816 0.10198 0.0
H621 H 0.5015 0.35655 0.96872 0.0
H622 H 0.74273 0.38526 0.0683 0.0
H623 H 0.6579 0.36976 0.94149 0.0
H624 H 0.52929 0.36297 1.01731 0.0
H625 H 0.56535 0.34401 0.05639 0.0
C626 C 0.62744 0.35086 0.08503 0.0
C627 C 0.67806 0.36166 0.08871 0.0
C628 C 0.55786 0.36407 1.00091 0.0
C629 C 0.63079 0.36849 0.03619 0.0
C630 C 0.54184 0.36062 0.97303 0.0
C631 C 0.57752 0.36202 0.95098 0.0
C632 C 0.61026 0.36849 1.00695 0.0
C633 C 0.62906 0.36839 0.95778 0.0
C634 C 0.60353 0.35425 0.05888 0.0
C635 C 0.70332 0.37701 0.0661 0.0
N636 N 0.6439 0.37106 0.98514 0.0
N637 N 0.67967 0.37962 0.04067 0.0
H638 H 0.76884 0.08885 0.58727 0.0
H639 H 0.87998 0.15088 0.44022 0.0
H640 H 0.84879 0.18316 0.57672 0.0
H641 H 0.82385 0.04969 0.45478 0.0
H642 H 0.87533 0.16168 0.49072 0.0
H643 H 0.79505 0.07206 0.53991 0.0
C644 C 0.79338 0.1055 0.57526 0.0
C645 C 0.80737 0.13715 0.58591 0.0
C646 C 0.86451 0.13699 0.4829 0.0
C647 C 0.83574 0.11899 0.53128 0.0
C648 C 0.86742 0.13073 0.45402 0.0
C649 C 0.85165 0.09944 0.44304 0.0
C650 C 0.84538 0.11188 0.50102 0.0
C651 C 0.83523 0.07448 0.4621 0.0
C652 C 0.80783 0.09618 0.54808 0.0
C653 C 0.83752 0.15848 0.56911 0.0
N654 N 0.83202 0.08135 0.49003 0.0
N655 N 0.85023 0.14921 0.54251 0.0
H656 H 0.76902 0.92658 0.08714 0.0
H657 H 0.91025 0.87795 0.94337 0.0
H658 H 0.84653 0.83213 0.07424 0.0
H659 H 0.85294 0.97773 0.96107 0.0
H660 H 0.8863 0.86043 0.99095 0.0
H661 H 0.80025 0.94626 0.0413 0.0
C662 C 0.79326 0.91023 0.07475 0.0
C663 C 0.80505 0.87768 0.08427 0.0
C664 C 0.87913 0.8862 0.98447 0.0
C665 C 0.84004 0.89952 0.03164 0.0
C666 C 0.89245 0.89614 0.95721 0.0
C667 C 0.88358 0.92937 0.94814 0.0
C668 C 0.85632 0.90954 1.00281 0.0
C669 C 0.86102 0.95196 0.9672 0.0
C670 C 0.81078 0.9213 0.04853 0.0
C671 C 0.83605 0.85722 0.06735 0.0
N672 N 0.84799 0.94161 0.99352 0.0
N673 N 0.85214 0.86834 0.04177 0.0
H674 H 0.66618 0.67404 0.56229 0.0
H675 H 0.59717 0.52544 0.46078 0.0
H676 H 0.72372 0.57473 0.58132 0.0
H677 H 0.67822 0.61191 0.42698 0.0
H678 H 0.61522 0.54591 0.50809 0.0
H679 H 0.64163 0.6542 0.51521 0.0
C680 C 0.67343 0.64805 0.55663 0.0
C681 C 0.69792 0.62618 0.57562 0.0
C682 C 0.62865 0.56033 0.49017 0.0
C683 C 0.66769 0.60309 0.52245 0.0
C684 C 0.61892 0.54859 0.463 0.0
C685 C 0.63722 0.56633 0.43927 0.0
C686 C 0.6551 0.59075 0.49392 0.0
C687 C 0.66287 0.59718 0.44418 0.0
C688 C 0.65923 0.6368 0.52989 0.0
C689 C 0.70463 0.59238 0.56752 0.0
N690 N 0.67087 0.60843 0.47091 0.0
N691 N 0.68946 0.58181 0.54155 0.0
H692 H 0.2522 0.62034 0.96974 0.0
H693 H 0.49809 0.65818 0.06493 0.0
H694 H 0.39412 0.6594 0.93702 0.0
H695 H 0.35996 0.61196 0.09687 0.0
H696 H 0.464 0.65334 1.01723 0.0
H697 H 0.29379 0.61119 1.01543 0.0
C698 C 0.29241 0.62652 0.97222 0.0
C699 C 0.31986 0.64089 0.9499 0.0
C700 C 0.44131 0.64388 0.0346 0.0
C701 C 0.36772 0.6309 1.00194 0.0
C702 C 0.46071 0.64673 0.06188 0.0
C703 C 0.43163 0.63577 0.085 0.0
C704 C 0.39214 0.63023 0.03028 0.0
C705 C 0.38379 0.62066 0.0797 0.0
C706 C 0.31618 0.62133 0.99821 0.0
C707 C 0.37192 0.64821 0.95385 0.0
N708 N 0.36528 0.61873 0.05296 0.0
N709 N 0.39406 0.64356 0.97948 0.0
H710 H 0.23258 0.91135 0.44684 0.0
H711 H 0.16374 0.96059 0.5815 0.0
H712 H 0.14361 0.82155 0.46177 0.0
H713 H 0.13453 0.85456 0.59506 0.0
H714 H 0.16855 0.95029 0.53111 0.0
H715 H 0.21172 0.9313 0.49385 0.0
C716 C 0.20682 0.89655 0.45972 0.0
C717 C 0.18869 0.86526 0.4503 0.0
C718 C 0.16172 0.9291 0.54498 0.0
C719 C 0.16496 0.88738 0.50462 0.0
C720 C 0.1586 0.93505 0.57384 0.0
C721 C 0.14965 0.9083 0.59263 0.0
C722 C 0.15649 0.896 0.53469 0.0
C723 C 0.14167 0.87593 0.58139 0.0
C724 C 0.19497 0.9078 0.48675 0.0
C725 C 0.15768 0.84605 0.46833 0.0
N726 N 0.14573 0.87065 0.55321 0.0
N727 N 0.1472 0.85723 0.49473 0.0
H728 H 0.28381 0.25596 0.39882 0.0
H729 H 0.02814 0.21058 0.31258 0.0
H730 H 0.17115 0.32937 0.37426 0.0
H731 H 0.15362 0.14099 0.323 0.0
H732 H 0.07636 0.25289 0.33918 0.0
H733 H 0.23299 0.2117 0.37527 0.0
C734 C 0.24807 0.26252 0.38863 0.0
C735 C 0.2314 0.29607 0.38825 0.0
C736 C 0.09336 0.22835 0.33569 0.0
C737 C 0.17335 0.24616 0.36138 0.0
C738 C 0.06572 0.20413 0.32062 0.0
C739 C 0.087 0.17228 0.31548 0.0
C740 C 0.14249 0.2206 0.34594 0.0
C741 C 0.136 0.16537 0.32626 0.0
C742 C 0.21926 0.23746 0.37511 0.0
C743 C 0.18514 0.30369 0.37473 0.0
N744 N 0.16211 0.18933 0.34098 0.0
N745 N 0.1577 0.27894 0.36181 0.0
H746 H 0.34831 0.1682 0.86728 0.0
H747 H 0.36485 0.3658 0.83052 0.0
H748 H 0.23686 0.24042 0.89543 0.0
H749 H 0.4752 0.29227 0.80285 0.0
H750 H 0.31786 0.32089 0.8551 0.0
H751 H 0.39651 0.21388 0.84454 0.0
C752 C 0.33424 0.19382 0.86865 0.0
C753 C 0.28871 0.20074 0.88306 0.0
C754 C 0.35244 0.31459 0.84373 0.0
C755 C 0.34328 0.25318 0.85722 0.0
C756 C 0.37907 0.34017 0.8296 0.0
C757 C 0.42373 0.33266 0.81453 0.0
C758 C 0.37079 0.28127 0.84286 0.0
C759 C 0.44098 0.29916 0.8143 0.0
C760 C 0.36163 0.21989 0.85574 0.0
C761 C 0.27203 0.23429 0.88458 0.0
N762 N 0.41446 0.27473 0.82819 0.0
N763 N 0.2992 0.2593 0.8717 0.0
H764 H 0.65496 0.17074 0.673 0.0
H765 H 0.58345 0.36565 0.68878 0.0
H766 H 0.74556 0.24896 0.63415 0.0
H767 H 0.54988 0.29091 0.75216 0.0
H768 H 0.63039 0.32253 0.66195 0.0
H769 H 0.60249 0.21408 0.69564 0.0
C770 C 0.66363 0.19712 0.66927 0.0
C771 C 0.70493 0.20644 0.65212 0.0
C772 C 0.61256 0.31568 0.6817 0.0
C773 C 0.6447 0.25604 0.67731 0.0
C774 C 0.58571 0.34012 0.69688 0.0
C775 C 0.56327 0.33173 0.72272 0.0
C776 C 0.61573 0.28259 0.69222 0.0
C777 C 0.56722 0.29842 0.73244 0.0
C778 C 0.63373 0.22178 0.68207 0.0
C779 C 0.71393 0.2409 0.64726 0.0
N780 N 0.59278 0.27502 0.71714 0.0
N781 N 0.68408 0.26457 0.65986 0.0
H782 H 0.8398 0.33557 0.17426 0.0
H783 H 0.92533 0.14355 0.18934 0.0
H784 H 0.75073 0.2547 0.13816 0.0
H785 H 0.95266 0.21738 0.25424 0.0
H786 H 0.87411 0.18544 0.1635 0.0
H787 H 0.89513 0.29376 0.19713 0.0
C788 C 0.83208 0.30897 0.17115 0.0
C789 C 0.79053 0.29847 0.15456 0.0
C790 C 0.89153 0.1924 0.18335 0.0
C791 C 0.85408 0.25066 0.17996 0.0
C792 C 0.92087 0.16868 0.19796 0.0
C793 C 0.94294 0.17715 0.22391 0.0
C794 C 0.88545 0.22494 0.19451 0.0
C795 C 0.93588 0.20988 0.23436 0.0
C796 C 0.8636 0.28519 0.18408 0.0
C797 C 0.78267 0.26373 0.15061 0.0
N798 N 0.90797 0.23269 0.21954 0.0
N799 N 0.81423 0.24097 0.16321 0.0
H800 H 0.85164 0.66539 0.66031 0.0
H801 H 0.84974 0.85705 0.71308 0.0
H802 H 0.73812 0.73723 0.63379 0.0
H803 H 0.98071 0.79166 0.72195 0.0
H804 H 0.80581 0.8128 0.68631 0.0
H805 H 0.89783 0.71069 0.68497 0.0
C806 C 0.83684 0.69088 0.65962 0.0
C807 C 0.79135 0.69786 0.64511 0.0
C808 C 0.84427 0.80821 0.69397 0.0
C809 C 0.8432 0.74964 0.67333 0.0
C810 C 0.86926 0.83338 0.70939 0.0
C811 C 0.91893 0.82801 0.71984 0.0
C812 C 0.86901 0.77733 0.68905 0.0
C813 C 0.94255 0.79697 0.71419 0.0
C814 C 0.86304 0.71669 0.67361 0.0
C815 C 0.77336 0.73113 0.64467 0.0
N816 N 0.91729 0.77276 0.69931 0.0
N817 N 0.79913 0.75582 0.65877 0.0
H818 H 0.64748 0.83748 0.16676 0.0
H819 H 0.63689 0.64057 0.20618 0.0
H820 H 0.76009 0.76578 0.13906 0.0
H821 H 0.52443 0.713 0.23326 0.0
H822 H 0.68139 0.68543 0.18026 0.0
H823 H 0.60011 0.79167 0.18989 0.0
C824 C 0.66193 0.81193 0.16553 0.0
C825 C 0.70756 0.80519 0.15117 0.0
C826 C 0.6469 0.69152 0.19178 0.0
C827 C 0.65402 0.75267 0.17745 0.0
C828 C 0.62169 0.66597 0.20666 0.0
C829 C 0.57728 0.67324 0.22199 0.0
C830 C 0.62745 0.72457 0.19226 0.0
C831 C 0.55861 0.70639 0.22165 0.0
C832 C 0.63502 0.78581 0.17866 0.0
C833 C 0.7248 0.77177 0.14985 0.0
N834 N 0.5839 0.73085 0.20712 0.0
N835 N 0.69814 0.74672 0.16296 0.0
H836 H 0.33407 0.82826 0.36294 0.0
H837 H 0.40733 0.63379 0.34655 0.0
H838 H 0.24382 0.74984 0.4017 0.0
H839 H 0.44485 0.71 0.2851 0.0
H840 H 0.35729 0.67603 0.37271 0.0
H841 H 0.38658 0.78515 0.34014 0.0
C842 C 0.3255 0.80185 0.36659 0.0
C843 C 0.28429 0.79241 0.38375 0.0
C844 C 0.37638 0.68334 0.35343 0.0
C845 C 0.3444 0.74302 0.35826 0.0
C846 C 0.40485 0.65938 0.33861 0.0
C847 C 0.42945 0.66846 0.31353 0.0
C848 C 0.37375 0.71664 0.34333 0.0
C849 C 0.42554 0.70187 0.30408 0.0
C850 C 0.35536 0.77731 0.35367 0.0
C851 C 0.27533 0.75794 0.38852 0.0
N852 N 0.39845 0.72479 0.31905 0.0
N853 N 0.30513 0.73434 0.37575 0.0
H854 H 0.25024 0.75063 0.90184 0.0
H855 H 0.05172 0.78586 0.78057 0.0
H856 H 0.1592 0.67055 0.86624 0.0
H857 H 0.07299 0.85833 0.84719 0.0
H858 H 0.10011 0.74433 0.80804 0.0
H859 H 0.19364 0.79228 0.87914 0.0
C860 C 0.21784 0.742 0.88951 0.0
C861 C 0.20909 0.70739 0.88568 0.0
C862 C 0.09389 0.76926 0.81669 0.0
C863 C 0.14563 0.75428 0.85922 0.0
C864 C 0.06663 0.79296 0.801 0.0
C865 C 0.05848 0.82544 0.81172 0.0
C866 C 0.11417 0.77841 0.84295 0.0
C867 C 0.0783 0.83341 0.83834 0.0
C868 C 0.18579 0.76558 0.87656 0.0
C869 C 0.16706 0.69713 0.8694 0.0
N870 N 0.10588 0.81015 0.85296 0.0
N871 N 0.13727 0.72048 0.85635 0.0
loop_
_geom_bond_atom_site_label_1
_geom_bond_atom_site_label_2
_geom_bond_distance
_geom_bond_site_symmetry_2
_ccdc_geom_bond_type
C0 N1 1.317 . S
C0 N2 1.348 . S
C0 C3 1.485 . S
N1 C0 1.317 . S
N1 N5 1.370 . S
N2 C0 1.348 . S
N2 C4 1.346 . S
C3 C0 1.485 . S
C3 H7 0.960 . S
C3 H8 0.961 . S
C3 H9 0.960 . S
C4 N2 1.346 . S
C4 N5 1.307 . S
C4 C6 1.486 . S
N5 N1 1.370 . S
N5 C4 1.307 . S
C6 C4 1.486 . S
C6 H10 0.960 . S
C6 H11 0.960 . S
C6 H12 0.959 . S
H7 C3 0.960 . S
H8 C3 0.961 . S
H9 C3 0.960 . S
H10 C6 0.960 . S
H11 C6 0.960 . S
H12 C6 0.959 . S
C13 N14 1.317 . S
C13 N15 1.348 . S
C13 C16 1.485 . S
N14 C13 1.317 . S
N14 N18 1.370 . S
N15 C13 1.348 . S
N15 C17 1.346 . S
C16 C13 1.485 . S
C16 H20 0.960 . S
C16 H21 0.961 . S
C16 H22 0.960 . S
C17 N15 1.346 . S
C17 N18 1.307 . S
C17 C19 1.486 . S
N18 N14 1.370 . S
N18 C17 1.307 . S
C19 C17 1.486 . S
C19 H23 0.960 . S
C19 H24 0.960 . S
C19 H25 0.959 . S
H20 C16 0.960 . S
H21 C16 0.961 . S
H22 C16 0.960 . S
H23 C19 0.960 . S
H24 C19 0.960 . S
H25 C19 0.959 . S
C26 N27 1.317 . S
C26 N28 1.348 . S
C26 C29 1.485 . S
N27 C26 1.317 . S
N27 N31 1.370 . S
N28 C26 1.348 . S
N28 C30 1.346 . S
C29 C26 1.485 . S
C29 H33 0.960 . S
C29 H34 0.961 . S
C29 H35 0.960 . S
C30 N28 1.346 . S
C30 N31 1.307 . S
C30 C32 1.486 . S
N31 N27 1.370 . S
N31 C30 1.307 . S
C32 C30 1.486 . S
C32 H36 0.960 . S
C32 H37 0.960 . S
C32 H38 0.959 . S
H33 C29 0.960 . S
H34 C29 0.961 . S
H35 C29 0.960 . S
H36 C32 0.960 . S
H37 C32 0.960 . S
H38 C32 0.959 . S
C39 N40 1.317 . S
C39 N41 1.348 . S
C39 C42 1.485 . S
N40 C39 1.317 . S
N40 N44 1.370 . S
N41 C39 1.348 . S
N41 C43 1.346 . S
C42 C39 1.485 . S
C42 H46 0.960 . S
C42 H47 0.961 . S
C42 H48 0.960 . S
C43 N41 1.346 . S
C43 N44 1.307 . S
C43 C45 1.486 . S
N44 N40 1.370 . S
N44 C43 1.307 . S
C45 C43 1.486 . S
C45 H49 0.960 . S
C45 H50 0.960 . S
C45 H51 0.959 . S
H46 C42 0.960 . S
H47 C42 0.961 . S
H48 C42 0.960 . S
H49 C45 0.960 . S
H50 C45 0.960 . S
H51 C45 0.959 . S
C52 N53 1.317 . S
C52 N54 1.348 . S
C52 C55 1.485 . S
N53 C52 1.317 . S
N53 N57 1.370 . S
N54 C52 1.348 . S
N54 C56 1.346 . S
C55 C52 1.485 . S
C55 H59 0.960 . S
C55 H60 0.961 . S
C55 H61 0.960 . S
C56 N54 1.346 . S
C56 N57 1.307 . S
C56 C58 1.486 . S
N57 N53 1.370 . S
N57 C56 1.307 . S
C58 C56 1.486 . S
C58 H62 0.960 . S
C58 H63 0.960 . S
C58 H64 0.959 . S
H59 C55 0.960 . S
H60 C55 0.961 . S
H61 C55 0.960 . S
H62 C58 0.960 . S
H63 C58 0.960 . S
H64 C58 0.959 . S
C65 N66 1.317 . S
C65 N67 1.348 . S
C65 C68 1.485 . S
N66 C65 1.317 . S
N66 N70 1.370 . S
N67 C65 1.348 . S
N67 C69 1.346 . S
C68 C65 1.485 . S
C68 H72 0.960 . S
C68 H73 0.961 . S
C68 H74 0.960 . S
C69 N67 1.346 . S
C69 N70 1.307 . S
C69 C71 1.486 . S
N70 N66 1.370 . S
N70 C69 1.307 . S
C71 C69 1.486 . S
C71 H75 0.960 . S
C71 H76 0.960 . S
C71 H77 0.959 . S
H72 C68 0.960 . S
H73 C68 0.961 . S
H74 C68 0.960 . S
H75 C71 0.960 . S
H76 C71 0.960 . S
H77 C71 0.959 . S
C78 N79 1.317 . S
C78 N80 1.348 . S
C78 C81 1.485 . S
N79 C78 1.317 . S
N79 N83 1.370 . S
N80 C78 1.348 . S
N80 C82 1.346 . S
C81 C78 1.485 . S
C81 H85 0.960 . S
C81 H86 0.961 . S
C81 H87 0.960 . S
C82 N80 1.346 . S
C82 N83 1.307 . S
C82 C84 1.486 . S
N83 N79 1.370 . S
N83 C82 1.307 . S
C84 C82 1.486 . S
C84 H88 0.960 . S
C84 H89 0.960 . S
C84 H90 0.959 . S
H85 C81 0.960 . S
H86 C81 0.961 . S
H87 C81 0.960 . S
H88 C84 0.960 . S
H89 C84 0.960 . S
H90 C84 0.959 . S
C91 N92 1.317 . S
C91 N93 1.348 . S
C91 C94 1.485 . S
N92 C91 1.317 . S
N92 N96 1.370 . S
N93 C91 1.348 . S
N93 C95 1.346 . S
C94 C91 1.485 . S
C94 H98 0.960 . S
C94 H99 0.961 . S
C94 H100 0.960 . S
C95 N93 1.346 . S
C95 N96 1.307 . S
C95 C97 1.486 . S
N96 N92 1.370 . S
N96 C95 1.307 . S
C97 C95 1.486 . S
C97 H101 0.960 . S
C97 H102 0.960 . S
C97 H103 0.959 . S
H98 C94 0.960 . S
H99 C94 0.961 . S
H100 C94 0.960 . S
H101 C97 0.960 . S
H102 C97 0.960 . S
H103 C97 0.959 . S
C104 C106 1.422 . S
C104 C108 1.415 . S
C104 N110 1.369 . S
C105 C106 1.421 . S
C105 C107 1.417 . S
C105 C117 1.422 1_545 S
C106 C104 1.422 . S
C106 C105 1.421 . S
C106 N116 1.359 . S
C107 C105 1.417 . S
C107 C109 1.329 . S
C107 H126 0.930 1_545 S
C108 C104 1.415 . S
C108 C109 1.437 . S
C108 C112 1.413 . S
C109 C107 1.329 . S
C109 C108 1.437 . S
C109 H131 0.929 . S
N110 C104 1.369 . S
N110 C111 1.338 . S
N110 Gd115 2.622 . S
C111 N110 1.338 . S
C111 C113 1.378 . S
C111 H123 0.929 . S
C112 C108 1.413 . S
C112 C113 1.348 . S
C112 H128 0.931 . S
C113 C111 1.378 . S
C113 C112 1.348 . S
C113 H129 0.930 . S
Gd114 N134 2.622 . S
Gd114 N141 2.570 . S
Gd114 O148 2.353 1_455 S
Gd114 O149 2.468 . S
Gd114 O150 2.427 . S
Gd114 O152 2.388 . S
Gd114 O153 2.386 . S
Gd114 O157 2.307 1_455 S
Gd114 C167 2.805 . S
Gd115 N110 2.622 . S
Gd115 N116 2.570 . S
Gd115 O147 2.386 . S
Gd115 O151 2.307 1_655 S
Gd115 O154 2.353 1_655 S
Gd115 O155 2.468 . S
Gd115 O156 2.427 . S
Gd115 O158 2.388 . S
Gd115 C179 2.805 . S
N116 C106 1.359 . S
N116 Gd115 2.570 . S
N116 C118 1.343 . S
C117 C105 1.422 1_565 S
C117 C119 1.321 . S
C117 H125 0.931 . S
C118 N116 1.343 . S
C118 C119 1.390 1_545 S
C118 H120 0.931 . S
C119 C117 1.321 . S
C119 C118 1.390 1_565 S
C119 H121 0.930 . S
H120 C118 0.931 . S
H121 C119 0.930 . S
H122 C145 0.931 . S
H123 C111 0.929 . S
H124 C146 0.930 . S
H125 C117 0.931 . S
H126 C107 0.930 1_565 S
H127 C136 0.929 . S
H128 C112 0.931 . S
H129 C113 0.930 . S
H130 C168 0.930 . S
H131 C109 0.929 . S
H132 C137 0.931 . S
H133 C138 0.930 . S
N134 Gd114 2.622 . S
N134 C135 1.369 . S
N134 C136 1.338 . S
C135 N134 1.369 . S
C135 C139 1.415 . S
C135 C142 1.422 . S
C136 H127 0.929 . S
C136 N134 1.338 . S
C136 C138 1.378 . S
C137 H132 0.931 . S
C137 C138 1.348 . S
C137 C139 1.413 . S
C138 H133 0.930 . S
C138 C136 1.378 . S
C138 C137 1.348 . S
C139 C135 1.415 . S
C139 C137 1.413 . S
C139 C169 1.437 . S
H140 C169 0.929 . S
N141 Gd114 2.570 . S
N141 C142 1.359 . S
N141 C145 1.343 . S
C142 C135 1.422 . S
C142 N141 1.359 . S
C142 C144 1.421 . S
C143 C144 1.422 . S
C143 C146 1.321 . S
C143 H170 0.931 . S
C144 C142 1.421 . S
C144 C143 1.422 . S
C144 C168 1.417 . S
C145 H122 0.931 . S
C145 N141 1.343 . S
C145 C146 1.390 . S
C146 H124 0.930 . S
C146 C143 1.321 . S
C146 C145 1.390 . S
O147 Gd115 2.386 . S
O147 C159 1.265 . S
O148 Gd114 2.353 1_655 S
O148 C159 1.242 . S
O149 Gd114 2.468 . S
O149 C167 1.263 . S
O150 Gd114 2.427 . S
O150 C167 1.252 . S
O151 Gd115 2.307 1_455 S
O151 C160 1.261 . S
O152 Gd114 2.388 . S
O152 C160 1.252 . S
O153 Gd114 2.386 . S
O153 C171 1.265 . S
O154 Gd115 2.353 1_455 S
O154 C171 1.242 . S
O155 Gd115 2.468 . S
O155 C179 1.263 . S
O156 Gd115 2.427 . S
O156 C179 1.252 . S
O157 Gd114 2.307 1_655 S
O157 C172 1.261 . S
O158 Gd115 2.388 . S
O158 C172 1.252 . S
C159 O147 1.265 . S
C159 O148 1.242 . S
C160 O151 1.261 . S
C160 O152 1.252 . S
C161 C164 1.394 . S
C161 C166 1.370 . S
C161 C167 1.500 . S
C162 C165 1.383 . S
C162 C166 1.395 . S
C163 C164 1.396 . S
C163 C165 1.365 . S
C163 H180 0.929 . S
C164 C161 1.394 . S
C164 C163 1.396 . S
C164 H181 0.930 . S
C165 C162 1.383 . S
C165 C163 1.365 . S
C165 H182 0.931 . S
C166 C161 1.370 . S
C166 C162 1.395 . S
C166 H183 0.930 . S
C167 Gd114 2.805 . S
C167 O149 1.263 . S
C167 O150 1.252 . S
C167 C161 1.500 . S
C168 H130 0.930 . S
C168 C144 1.417 . S
C168 C169 1.329 . S
C169 C139 1.437 . S
C169 H140 0.929 . S
C169 C168 1.329 . S
H170 C143 0.931 . S
C171 O153 1.265 . S
C171 O154 1.242 . S
C172 O157 1.261 . S
C172 O158 1.252 . S
C173 C176 1.394 . S
C173 C178 1.370 . S
C173 C179 1.500 . S
C174 C177 1.383 . S
C174 C178 1.395 . S
C175 C176 1.396 . S
C175 C177 1.365 . S
C175 H184 0.929 . S
C176 C173 1.394 . S
C176 C175 1.396 . S
C176 H185 0.930 . S
C177 C174 1.383 . S
C177 C175 1.365 . S
C177 H186 0.931 . S
C178 C173 1.370 . S
C178 C174 1.395 . S
C178 H187 0.930 . S
C179 Gd115 2.805 . S
C179 O155 1.263 . S
C179 O156 1.252 . S
C179 C173 1.500 . S
H180 C163 0.929 . S
H181 C164 0.930 . S
H182 C165 0.931 . S
H183 C166 0.930 . S
H184 C175 0.929 . S
H185 C176 0.930 . S
H186 C177 0.931 . S
H187 C178 0.930 . S
C188 C190 1.422 . S
C188 C192 1.415 . S
C188 N194 1.369 . S
C189 C190 1.421 . S
C189 C191 1.417 . S
C189 C201 1.422 . S
C190 C188 1.422 . S
C190 C189 1.421 . S
C190 N200 1.359 . S
C191 C189 1.417 . S
C191 C193 1.329 . S
C191 H210 0.930 . S
C192 C188 1.415 . S
C192 C193 1.437 . S
C192 C196 1.413 . S
C193 C191 1.329 . S
C193 C192 1.437 . S
C193 H215 0.929 . S
N194 C188 1.369 . S
N194 C195 1.338 . S
N194 Gd199 2.622 . S
C195 N194 1.338 . S
C195 C197 1.378 . S
C195 H207 0.929 . S
C196 C192 1.413 . S
C196 C197 1.348 . S
C196 H212 0.931 . S
C197 C195 1.378 . S
C197 C196 1.348 . S
C197 H213 0.930 . S
Gd198 N218 2.622 . S
Gd198 N225 2.570 . S
Gd198 O232 2.353 . S
Gd198 O233 2.468 . S
Gd198 O234 2.427 . S
Gd198 O236 2.388 . S
Gd198 O237 2.386 . S
Gd198 O241 2.307 . S
Gd198 C251 2.805 . S
Gd199 N194 2.622 . S
Gd199 N200 2.570 . S
Gd199 O231 2.386 . S
Gd199 O235 2.307 . S
Gd199 O238 2.353 . S
Gd199 O239 2.468 . S
Gd199 O240 2.427 . S
Gd199 O242 2.388 . S
Gd199 C263 2.805 . S
N200 C190 1.359 . S
N200 Gd199 2.570 . S
N200 C202 1.343 . S
C201 C189 1.422 . S
C201 C203 1.321 . S
C201 H209 0.931 . S
C202 N200 1.343 . S
C202 C203 1.390 . S
C202 H204 0.931 . S
C203 C201 1.321 . S
C203 C202 1.390 . S
C203 H205 0.930 . S
H204 C202 0.931 . S
H205 C203 0.930 . S
H206 C229 0.931 . S
H207 C195 0.929 . S
H208 C230 0.930 . S
H209 C201 0.931 . S
H210 C191 0.930 . S
H211 C220 0.929 . S
H212 C196 0.931 . S
H213 C197 0.930 . S
H214 C252 0.930 . S
H215 C193 0.929 . S
H216 C221 0.931 . S
H217 C222 0.930 . S
N218 Gd198 2.622 . S
N218 C219 1.369 . S
N218 C220 1.338 . S
C219 N218 1.369 . S
C219 C223 1.415 . S
C219 C226 1.422 . S
C220 H211 0.929 . S
C220 N218 1.338 . S
C220 C222 1.378 . S
C221 H216 0.931 . S
C221 C222 1.348 . S
C221 C223 1.413 . S
C222 H217 0.930 . S
C222 C220 1.378 . S
C222 C221 1.348 . S
C223 C219 1.415 . S
C223 C221 1.413 . S
C223 C253 1.437 . S
H224 C253 0.929 . S
N225 Gd198 2.570 . S
N225 C226 1.359 . S
N225 C229 1.343 . S
C226 C219 1.422 . S
C226 N225 1.359 . S
C226 C228 1.421 . S
C227 C228 1.422 . S
C227 C230 1.321 . S
C227 H254 0.931 . S
C228 C226 1.421 . S
C228 C227 1.422 . S
C228 C252 1.417 . S
C229 H206 0.931 . S
C229 N225 1.343 . S
C229 C230 1.390 . S
C230 H208 0.930 . S
C230 C227 1.321 . S
C230 C229 1.390 . S
O231 Gd199 2.386 . S
O231 C243 1.265 . S
O232 Gd198 2.353 . S
O232 C243 1.242 . S
O233 Gd198 2.468 . S
O233 C251 1.263 . S
O234 Gd198 2.427 . S
O234 C251 1.252 . S
O235 Gd199 2.307 . S
O235 C244 1.261 . S
O236 Gd198 2.388 . S
O236 C244 1.252 . S
O237 Gd198 2.386 . S
O237 C255 1.265 . S
O238 Gd199 2.353 . S
O238 C255 1.242 . S
O239 Gd199 2.468 . S
O239 C263 1.263 . S
O240 Gd199 2.427 . S
O240 C263 1.252 . S
O241 Gd198 2.307 . S
O241 C256 1.261 . S
O242 Gd199 2.388 . S
O242 C256 1.252 . S
C243 O231 1.265 . S
C243 O232 1.242 . S
C244 O235 1.261 . S
C244 O236 1.252 . S
C245 C248 1.394 . S
C245 C250 1.370 . S
C245 C251 1.500 . S
C246 C249 1.383 . S
C246 C250 1.395 . S
C247 C248 1.396 . S
C247 C249 1.365 . S
C247 H264 0.929 . S
C248 C245 1.394 . S
C248 C247 1.396 . S
C248 H265 0.930 . S
C249 C246 1.383 . S
C249 C247 1.365 . S
C249 H266 0.931 . S
C250 C245 1.370 . S
C250 C246 1.395 . S
C250 H267 0.930 . S
C251 Gd198 2.805 . S
C251 O233 1.263 . S
C251 O234 1.252 . S
C251 C245 1.500 . S
C252 H214 0.930 . S
C252 C228 1.417 . S
C252 C253 1.329 . S
C253 C223 1.437 . S
C253 H224 0.929 . S
C253 C252 1.329 . S
H254 C227 0.931 . S
C255 O237 1.265 . S
C255 O238 1.242 . S
C256 O241 1.261 . S
C256 O242 1.252 . S
C257 C260 1.394 . S
C257 C262 1.370 . S
C257 C263 1.500 . S
C258 C261 1.383 . S
C258 C262 1.395 . S
C259 C260 1.396 . S
C259 C261 1.365 . S
C259 H268 0.929 . S
C260 C257 1.394 . S
C260 C259 1.396 . S
C260 H269 0.930 . S
C261 C258 1.383 . S
C261 C259 1.365 . S
C261 H270 0.931 . S
C262 C257 1.370 . S
C262 C258 1.395 . S
C262 H271 0.930 . S
C263 Gd199 2.805 . S
C263 O239 1.263 . S
C263 O240 1.252 . S
C263 C257 1.500 . S
H264 C247 0.929 . S
H265 C248 0.930 . S
H266 C249 0.931 . S
H267 C250 0.930 . S
H268 C259 0.929 . S
H269 C260 0.930 . S
H270 C261 0.931 . S
H271 C262 0.930 . S
C272 C274 1.422 . S
C272 C276 1.415 . S
C272 N278 1.369 . S
C273 C274 1.421 . S
C273 C275 1.417 . S
C273 C285 1.422 . S
C274 C272 1.422 . S
C274 C273 1.421 . S
C274 N284 1.359 . S
C275 C273 1.417 . S
C275 C277 1.329 . S
C275 H294 0.930 . S
C276 C272 1.415 . S
C276 C277 1.437 . S
C276 C280 1.413 . S
C277 C275 1.329 . S
C277 C276 1.437 . S
C277 H299 0.929 . S
N278 C272 1.369 . S
N278 C279 1.338 . S
N278 Gd283 2.622 . S
C279 N278 1.338 . S
C279 C281 1.378 . S
C279 H291 0.929 . S
C280 C276 1.413 . S
C280 C281 1.348 . S
C280 H296 0.931 . S
C281 C279 1.378 . S
C281 C280 1.348 . S
C281 H297 0.930 . S
Gd282 N302 2.622 . S
Gd282 N309 2.570 . S
Gd282 O316 2.353 . S
Gd282 O317 2.468 . S
Gd282 O318 2.427 . S
Gd282 O320 2.388 . S
Gd282 O321 2.386 . S
Gd282 O325 2.314 . S
Gd282 C335 2.805 . S
Gd283 N278 2.622 . S
Gd283 N284 2.570 . S
Gd283 O315 2.386 . S
Gd283 O319 2.307 1_655 S
Gd283 O322 2.353 1_655 S
Gd283 O323 2.468 . S
Gd283 O324 2.427 . S
Gd283 O326 2.388 . S
Gd283 C347 2.805 . S
N284 C274 1.359 . S
N284 Gd283 2.570 . S
N284 C286 1.343 . S
C285 C273 1.422 . S
C285 C287 1.321 . S
C285 H293 0.931 . S
C286 N284 1.343 . S
C286 C287 1.390 . S
C286 H288 0.931 . S
C287 C285 1.321 . S
C287 C286 1.390 . S
C287 H289 0.930 . S
H288 C286 0.931 . S
H289 C287 0.930 . S
H290 C313 0.931 . S
H291 C279 0.929 . S
H292 C314 0.930 . S
H293 C285 0.931 . S
H294 C275 0.930 . S
H295 C304 0.929 . S
H296 C280 0.931 . S
H297 C281 0.930 . S
H298 C336 0.930 1_545 S
H299 C277 0.929 . S
H300 C305 0.931 . S
H301 C306 0.930 . S
N302 Gd282 2.622 . S
N302 C303 1.369 . S
N302 C304 1.338 . S
C303 N302 1.369 . S
C303 C307 1.415 . S
C303 C310 1.422 . S
C304 H295 0.929 . S
C304 N302 1.338 . S
C304 C306 1.378 . S
C305 H300 0.931 . S
C305 C306 1.348 . S
C305 C307 1.413 . S
C306 H301 0.930 . S
C306 C304 1.378 . S
C306 C305 1.348 . S
C307 C303 1.415 . S
C307 C305 1.413 . S
C307 C337 1.437 . S
H308 C337 0.929 . S
N309 Gd282 2.570 . S
N309 C310 1.359 . S
N309 C313 1.343 . S
C310 C303 1.422 . S
C310 N309 1.359 . S
C310 C312 1.421 . S
C311 C312 1.422 1_545 S
C311 C314 1.321 . S
C311 H338 0.931 . S
C312 C310 1.421 . S
C312 C311 1.422 1_565 S
C312 C336 1.417 . S
C313 H290 0.931 . S
C313 N309 1.343 . S
C313 C314 1.390 1_565 S
C314 H292 0.930 . S
C314 C311 1.321 . S
C314 C313 1.390 1_545 S
O315 Gd283 2.386 . S
O315 C327 1.265 . S
O316 Gd282 2.353 . S
O316 C327 1.242 1_455 S
O317 Gd282 2.468 . S
O317 C335 1.263 . S
O318 Gd282 2.427 . S
O318 C335 1.252 . S
O319 Gd283 2.307 1_455 S
O319 C328 1.261 . S
O320 Gd282 2.388 . S
O320 C328 1.252 . S
O321 Gd282 2.386 . S
O321 C339 1.265 . S
O322 Gd283 2.353 1_455 S
O322 C339 1.242 . S
O323 Gd283 2.468 . S
O323 C347 1.263 . S
O324 Gd283 2.427 . S
O324 C347 1.252 . S
O325 Gd282 2.314 . S
O325 C340 1.253 1_455 S
O326 Gd283 2.388 . S
O326 C340 1.252 . S
C327 O315 1.265 . S
C327 O316 1.242 1_655 S
C328 O319 1.261 . S
C328 O320 1.252 . S
C329 C332 1.394 . S
C329 C334 1.370 . S
C329 C335 1.500 . S
C330 C333 1.383 . S
C330 C334 1.395 . S
C331 C332 1.396 . S
C331 C333 1.365 . S
C331 H348 0.929 . S
C332 C329 1.394 . S
C332 C331 1.396 . S
C332 H349 0.930 . S
C333 C330 1.383 . S
C333 C331 1.365 . S
C333 H350 0.931 . S
C334 C329 1.370 . S
C334 C330 1.395 . S
C334 H351 0.930 . S
C335 Gd282 2.805 . S
C335 O317 1.263 . S
C335 O318 1.252 . S
C335 C329 1.500 . S
C336 H298 0.930 1_565 S
C336 C312 1.417 . S
C336 C337 1.329 . S
C337 C307 1.437 . S
C337 H308 0.929 . S
C337 C336 1.329 . S
H338 C311 0.931 . S
C339 O321 1.265 . S
C339 O322 1.242 . S
C340 O325 1.253 1_655 S
C340 O326 1.252 . S
C341 C344 1.394 . S
C341 C346 1.370 . S
C341 C347 1.500 . S
C342 C345 1.383 . S
C342 C346 1.395 . S
C343 C344 1.396 . S
C343 C345 1.365 . S
C343 H352 0.929 . S
C344 C341 1.394 . S
C344 C343 1.396 . S
C344 H353 0.930 . S
C345 C342 1.383 . S
C345 C343 1.365 . S
C345 H354 0.931 . S
C346 C341 1.370 . S
C346 C342 1.395 . S
C346 H355 0.930 . S
C347 Gd283 2.805 . S
C347 O323 1.263 . S
C347 O324 1.252 . S
C347 C341 1.500 . S
H348 C331 0.929 . S
H349 C332 0.930 . S
H350 C333 0.931 . S
H351 C334 0.930 . S
H352 C343 0.929 . S
H353 C344 0.930 . S
H354 C345 0.931 . S
H355 C346 0.930 . S
C356 C358 1.422 . S
C356 C360 1.415 . S
C356 N362 1.369 . S
C357 C358 1.421 . S
C357 C359 1.417 . S
C357 C369 1.422 . S
C358 C356 1.422 . S
C358 C357 1.421 . S
C358 N368 1.359 . S
C359 C357 1.417 . S
C359 C361 1.329 . S
C359 H378 0.930 . S
C360 C356 1.415 . S
C360 C361 1.437 . S
C360 C364 1.413 . S
C361 C359 1.329 . S
C361 C360 1.437 . S
C361 H383 0.929 . S
N362 C356 1.369 . S
N362 C363 1.338 . S
N362 Gd367 2.622 . S
C363 N362 1.338 . S
C363 C365 1.378 . S
C363 H375 0.929 . S
C364 C360 1.413 . S
C364 C365 1.348 . S
C364 H380 0.931 . S
C365 C363 1.378 . S
C365 C364 1.348 . S
C365 H381 0.930 . S
Gd366 N386 2.622 . S
Gd366 N393 2.570 . S
Gd366 O400 2.353 . S
Gd366 O401 2.468 . S
Gd366 O402 2.427 . S
Gd366 O404 2.388 . S
Gd366 O405 2.386 . S
Gd366 O409 2.307 . S
Gd366 C419 2.805 . S
Gd367 N362 2.622 . S
Gd367 N368 2.570 . S
Gd367 O399 2.386 . S
Gd367 O403 2.307 . S
Gd367 O406 2.353 . S
Gd367 O407 2.468 . S
Gd367 O408 2.427 . S
Gd367 O410 2.388 . S
Gd367 C431 2.805 . S
N368 C358 1.359 . S
N368 Gd367 2.570 . S
N368 C370 1.343 . S
C369 C357 1.422 . S
C369 C371 1.321 . S
C369 H377 0.931 . S
C370 N368 1.343 . S
C370 C371 1.390 . S
C370 H372 0.931 . S
C371 C369 1.321 . S
C371 C370 1.390 . S
C371 H373 0.930 . S
H372 C370 0.931 . S
H373 C371 0.930 . S
H374 C397 0.931 . S
H375 C363 0.929 . S
H376 C398 0.930 . S
H377 C369 0.931 . S
H378 C359 0.930 . S
H379 C388 0.929 . S
H380 C364 0.931 . S
H381 C365 0.930 . S
H382 C420 0.930 . S
H383 C361 0.929 . S
H384 C389 0.931 . S
H385 C390 0.930 . S
N386 Gd366 2.622 . S
N386 C387 1.369 . S
N386 C388 1.338 . S
C387 N386 1.369 . S
C387 C391 1.415 . S
C387 C394 1.422 . S
C388 H379 0.929 . S
C388 N386 1.338 . S
C388 C390 1.378 . S
C389 H384 0.931 . S
C389 C390 1.348 . S
C389 C391 1.413 . S
C390 H385 0.930 . S
C390 C388 1.378 . S
C390 C389 1.348 . S
C391 C387 1.415 . S
C391 C389 1.413 . S
C391 C421 1.437 . S
H392 C421 0.929 . S
N393 Gd366 2.570 . S
N393 C394 1.359 . S
N393 C397 1.343 . S
C394 C387 1.422 . S
C394 N393 1.359 . S
C394 C396 1.421 . S
C395 C396 1.422 . S
C395 C398 1.321 . S
C395 H422 0.931 . S
C396 C394 1.421 . S
C396 C395 1.422 . S
C396 C420 1.417 . S
C397 H374 0.931 . S
C397 N393 1.343 . S
C397 C398 1.390 . S
C398 H376 0.930 . S
C398 C395 1.321 . S
C398 C397 1.390 . S
O399 Gd367 2.386 . S
O399 C411 1.265 . S
O400 Gd366 2.353 . S
O400 C411 1.242 . S
O401 Gd366 2.468 . S
O401 C419 1.263 . S
O402 Gd366 2.427 . S
O402 C419 1.252 . S
O403 Gd367 2.307 . S
O403 C412 1.261 . S
O404 Gd366 2.388 . S
O404 C412 1.252 . S
O405 Gd366 2.386 . S
O405 C423 1.265 . S
O406 Gd367 2.353 . S
O406 C423 1.242 . S
O407 Gd367 2.468 . S
O407 C431 1.263 . S
O408 Gd367 2.427 . S
O408 C431 1.252 . S
O409 Gd366 2.307 . S
O409 C424 1.261 . S
O410 Gd367 2.388 . S
O410 C424 1.252 . S
C411 O399 1.265 . S
C411 O400 1.242 . S
C412 O403 1.261 . S
C412 O404 1.252 . S
C413 C416 1.394 . S
C413 C418 1.370 . S
C413 C419 1.500 . S
C414 C417 1.383 . S
C414 C418 1.395 . S
C415 C416 1.396 . S
C415 C417 1.365 . S
C415 H432 0.929 . S
C416 C413 1.394 . S
C416 C415 1.396 . S
C416 H433 0.930 . S
C417 C414 1.383 . S
C417 C415 1.365 . S
C417 H434 0.931 . S
C418 C413 1.370 . S
C418 C414 1.395 . S
C418 H435 0.930 . S
C419 Gd366 2.805 . S
C419 O401 1.263 . S
C419 O402 1.252 . S
C419 C413 1.500 . S
C420 H382 0.930 . S
C420 C396 1.417 . S
C420 C421 1.329 . S
C421 C391 1.437 . S
C421 H392 0.929 . S
C421 C420 1.329 . S
H422 C395 0.931 . S
C423 O405 1.265 . S
C423 O406 1.242 . S
C424 O409 1.261 . S
C424 O410 1.252 . S
C425 C428 1.394 . S
C425 C430 1.370 . S
C425 C431 1.500 . S
C426 C429 1.383 . S
C426 C430 1.395 . S
C427 C428 1.396 . S
C427 C429 1.365 . S
C427 H436 0.929 . S
C428 C425 1.394 . S
C428 C427 1.396 . S
C428 H437 0.930 . S
C429 C426 1.383 . S
C429 C427 1.365 . S
C429 H438 0.931 . S
C430 C425 1.370 . S
C430 C426 1.395 . S
C430 H439 0.930 . S
C431 Gd367 2.805 . S
C431 O407 1.263 . S
C431 O408 1.252 . S
C431 C425 1.500 . S
H432 C415 0.929 . S
H433 C416 0.930 . S
H434 C417 0.931 . S
H435 C418 0.930 . S
H436 C427 0.929 . S
H437 C428 0.930 . S
H438 C429 0.931 . S
H439 C430 0.930 . S
H440 C446 0.930 . S
H441 C450 0.930 . S
H442 C455 0.929 . S
H443 C453 0.929 . S
H444 C448 0.929 . S
H445 C454 0.929 . S
C446 H440 0.930 . S
C446 C447 1.367 . S
C446 C454 1.378 . S
C447 C446 1.367 . S
C447 C455 1.433 . S
C448 H444 0.929 . S
C448 C450 1.378 . S
C448 C452 1.350 1_545 S
C449 C452 1.463 . S
C449 C454 1.350 . S
C449 N457 1.427 . S
C450 H441 0.930 . S
C450 C448 1.378 . S
C450 C451 1.367 . S
C451 C450 1.367 . S
C451 C453 1.433 1_545 S
C452 C448 1.350 1_565 S
C452 C449 1.463 . S
C452 N456 1.427 . S
C453 H443 0.929 . S
C453 C451 1.433 1_565 S
C453 N456 1.384 . S
C454 H445 0.929 . S
C454 C446 1.378 . S
C454 C449 1.350 . S
C455 H442 0.929 . S
C455 C447 1.433 . S
C455 N457 1.384 . S
N456 C452 1.427 . S
N456 C453 1.384 . S
N457 C449 1.427 . S
N457 C455 1.384 . S
H458 C464 0.930 . S
H459 C468 0.930 . S
H460 C473 0.929 . S
H461 C471 0.929 . S
H462 C466 0.929 . S
H463 C472 0.929 . S
C464 H458 0.930 . S
C464 C465 1.367 . S
C464 C472 1.378 . S
C465 C464 1.367 . S
C465 C473 1.433 . S
C466 H462 0.929 . S
C466 C468 1.378 . S
C466 C470 1.350 . S
C467 C470 1.463 . S
C467 C472 1.350 . S
C467 N475 1.427 . S
C468 H459 0.930 . S
C468 C466 1.378 . S
C468 C469 1.367 . S
C469 C468 1.367 . S
C469 C471 1.433 . S
C470 C466 1.350 . S
C470 C467 1.463 . S
C470 N474 1.427 . S
C471 H461 0.929 . S
C471 C469 1.433 . S
C471 N474 1.384 . S
C472 H463 0.929 . S
C472 C464 1.378 . S
C472 C467 1.350 . S
C473 H460 0.929 . S
C473 C465 1.433 . S
C473 N475 1.384 . S
N474 C470 1.427 . S
N474 C471 1.384 . S
N475 C467 1.427 . S
N475 C473 1.384 . S
H476 C482 0.930 . S
H477 C486 0.930 . S
H478 C491 0.929 . S
H479 C489 0.929 . S
H480 C484 0.929 . S
H481 C490 0.929 . S
C482 H476 0.930 . S
C482 C483 1.367 . S
C482 C490 1.378 . S
C483 C482 1.367 . S
C483 C491 1.433 . S
C484 H480 0.929 . S
C484 C486 1.378 . S
C484 C488 1.350 . S
C485 C488 1.463 . S
C485 C490 1.350 . S
C485 N493 1.427 . S
C486 H477 0.930 . S
C486 C484 1.378 . S
C486 C487 1.367 . S
C487 C486 1.367 . S
C487 C489 1.433 . S
C488 C484 1.350 . S
C488 C485 1.463 . S
C488 N492 1.427 . S
C489 H479 0.929 . S
C489 C487 1.433 . S
C489 N492 1.384 . S
C490 H481 0.929 . S
C490 C482 1.378 . S
C490 C485 1.350 . S
C491 H478 0.929 . S
C491 C483 1.433 . S
C491 N493 1.384 . S
N492 C488 1.427 . S
N492 C489 1.384 . S
N493 C485 1.427 . S
N493 C491 1.384 . S
H494 C500 0.930 . S
H495 C504 0.930 . S
H496 C509 0.929 . S
H497 C507 0.929 . S
H498 C502 0.929 . S
H499 C508 0.929 . S
C500 H494 0.930 . S
C500 C501 1.367 . S
C500 C508 1.378 . S
C501 C500 1.367 . S
C501 C509 1.433 . S
C502 H498 0.929 . S
C502 C504 1.378 . S
C502 C506 1.350 . S
C503 C506 1.463 . S
C503 C508 1.350 . S
C503 N511 1.427 . S
C504 H495 0.930 . S
C504 C502 1.378 . S
C504 C505 1.367 1_565 S
C505 C504 1.367 1_545 S
C505 C507 1.433 . S
C506 C502 1.350 . S
C506 C503 1.463 . S
C506 N510 1.427 1_565 S
C507 H497 0.929 . S
C507 C505 1.433 . S
C507 N510 1.384 . S
C508 H499 0.929 . S
C508 C500 1.378 . S
C508 C503 1.350 . S
C509 H496 0.929 . S
C509 C501 1.433 . S
C509 N511 1.384 . S
N510 C506 1.427 1_545 S
N510 C507 1.384 . S
N511 C503 1.427 . S
N511 C509 1.384 . S
H512 C518 0.930 . S
H513 C522 0.930 . S
H514 C527 0.929 . S
H515 C525 0.930 . S
H516 C520 0.929 . S
H517 C526 0.929 . S
C518 H512 0.930 . S
C518 C519 1.367 . S
C518 C526 1.378 . S
C519 C518 1.367 . S
C519 C527 1.433 . S
C520 H516 0.929 . S
C520 C522 1.378 . S
C520 C524 1.350 1_565 S
C521 C524 1.463 . S
C521 C526 1.350 . S
C521 N529 1.427 . S
C522 H513 0.930 . S
C522 C520 1.378 . S
C522 C523 1.367 . S
C523 C522 1.367 . S
C523 C525 1.457 . S
C524 C520 1.350 1_545 S
C524 C521 1.463 . S
C524 N528 1.427 . S
C525 H515 0.930 . S
C525 C523 1.457 . S
C525 N528 1.360 1_565 S
C526 H517 0.929 . S
C526 C518 1.378 . S
C526 C521 1.350 . S
C527 H514 0.929 . S
C527 C519 1.433 . S
C527 N529 1.384 . S
N528 C524 1.427 . S
N528 C525 1.360 1_545 S
N529 C521 1.427 . S
N529 C527 1.384 . S
H530 C536 0.930 . S
H531 C540 0.930 . S
H532 C545 0.929 . S
H533 C543 0.929 . S
H534 C538 0.929 . S
H535 C544 0.929 . S
C536 H530 0.930 . S
C536 C537 1.367 . S
C536 C544 1.378 . S
C537 C536 1.367 . S
C537 C545 1.433 . S
C538 H534 0.929 . S
C538 C540 1.378 . S
C538 C542 1.350 . S
C539 C542 1.463 . S
C539 C544 1.350 . S
C539 N547 1.427 . S
C540 H531 0.930 . S
C540 C538 1.378 . S
C540 C541 1.367 . S
C541 C540 1.367 . S
C541 C543 1.433 . S
C542 C538 1.350 . S
C542 C539 1.463 . S
C542 N546 1.427 . S
C543 H533 0.929 . S
C543 C541 1.433 . S
C543 N546 1.384 . S
C544 H535 0.929 . S
C544 C536 1.378 . S
C544 C539 1.350 . S
C545 H532 0.929 . S
C545 C537 1.433 . S
C545 N547 1.384 . S
N546 C542 1.427 . S
N546 C543 1.384 . S
N547 C539 1.427 . S
N547 C545 1.384 . S
H548 C554 0.930 . S
H549 C558 0.930 . S
H550 C563 0.929 . S
H551 C561 0.929 . S
H552 C556 0.929 . S
H553 C562 0.929 . S
C554 H548 0.930 . S
C554 C555 1.367 . S
C554 C562 1.378 . S
C555 C554 1.367 . S
C555 C563 1.433 . S
C556 H552 0.929 . S
C556 C558 1.378 . S
C556 C560 1.350 . S
C557 C560 1.463 . S
C557 C562 1.350 . S
C557 N565 1.427 . S
C558 H549 0.930 . S
C558 C556 1.378 . S
C558 C559 1.367 . S
C559 C558 1.367 . S
C559 C561 1.433 . S
C560 C556 1.350 . S
C560 C557 1.463 . S
C560 N564 1.427 . S
C561 H551 0.929 . S
C561 C559 1.433 . S
C561 N564 1.384 . S
C562 H553 0.929 . S
C562 C554 1.378 . S
C562 C557 1.350 . S
C563 H550 0.929 . S
C563 C555 1.433 . S
C563 N565 1.384 . S
N564 C560 1.427 . S
N564 C561 1.384 . S
N565 C557 1.427 . S
N565 C563 1.384 . S
H566 C572 0.930 . S
H567 C576 0.930 . S
H568 C581 0.929 . S
H569 C579 0.929 . S
H570 C574 0.929 . S
H571 C580 0.929 . S
C572 H566 0.930 . S
C572 C573 1.367 . S
C572 C580 1.378 . S
C573 C572 1.367 . S
C573 C581 1.433 . S
C574 H570 0.929 . S
C574 C576 1.378 . S
C574 C578 1.350 . S
C575 C578 1.463 . S
C575 C580 1.350 . S
C575 N583 1.427 . S
C576 H567 0.930 . S
C576 C574 1.378 . S
C576 C577 1.367 1_545 S
C577 C576 1.367 1_565 S
C577 C579 1.433 . S
C578 C574 1.350 . S
C578 C575 1.463 . S
C578 N582 1.427 1_545 S
C579 H569 0.929 . S
C579 C577 1.433 . S
C579 N582 1.384 . S
C580 H571 0.929 . S
C580 C572 1.378 . S
C580 C575 1.350 . S
C581 H568 0.929 . S
C581 C573 1.433 . S
C581 N583 1.384 . S
N582 C578 1.427 1_565 S
N582 C579 1.384 . S
N583 C575 1.427 . S
N583 C581 1.384 . S
H584 C590 0.930 . S
H585 C594 0.930 . S
H586 C599 0.929 . S
H587 C597 0.929 . S
H588 C592 0.929 . S
H589 C598 0.929 . S
C590 H584 0.930 . S
C590 C591 1.367 . S
C590 C598 1.378 . S
C591 C590 1.367 . S
C591 C599 1.433 . S
C592 H588 0.929 . S
C592 C594 1.378 . S
C592 C596 1.350 . S
C593 C596 1.463 1_556 S
C593 C598 1.350 . S
C593 N601 1.427 . S
C594 H585 0.930 . S
C594 C592 1.378 . S
C594 C595 1.367 . S
C595 C594 1.367 . S
C595 C597 1.433 . S
C596 C592 1.350 . S
C596 C593 1.463 1_554 S
C596 N600 1.427 . S
C597 H587 0.929 . S
C597 C595 1.433 . S
C597 N600 1.384 . S
C598 H589 0.929 . S
C598 C590 1.378 . S
C598 C593 1.350 . S
C599 H586 0.929 . S
C599 C591 1.433 . S
C599 N601 1.384 . S
N600 C596 1.427 . S
N600 C597 1.384 . S
N601 C593 1.427 . S
N601 C599 1.384 . S
H602 C608 0.930 . S
H603 C612 0.930 . S
H604 C617 0.929 . S
H605 C615 0.929 . S
H606 C610 0.929 . S
H607 C616 0.929 . S
C608 H602 0.930 . S
C608 C609 1.367 . S
C608 C616 1.378 . S
C609 C608 1.367 . S
C609 C617 1.433 . S
C610 H606 0.929 . S
C610 C612 1.378 . S
C610 C614 1.350 . S
C611 C614 1.463 . S
C611 C616 1.350 . S
C611 N619 1.427 . S
C612 H603 0.930 . S
C612 C610 1.378 . S
C612 C613 1.367 . S
C613 C612 1.367 . S
C613 C615 1.433 . S
C614 C610 1.350 . S
C614 C611 1.463 . S
C614 N618 1.427 . S
C615 H605 0.929 . S
C615 C613 1.433 . S
C615 N618 1.384 . S
C616 H607 0.929 . S
C616 C608 1.378 . S
C616 C611 1.350 . S
C617 H604 0.929 . S
C617 C609 1.433 . S
C617 N619 1.384 . S
N618 C614 1.427 . S
N618 C615 1.384 . S
N619 C611 1.427 . S
N619 C617 1.384 . S
H620 C626 0.930 . S
H621 C630 0.930 . S
H622 C635 0.929 . S
H623 C633 0.929 . S
H624 C628 0.929 . S
H625 C634 0.929 1_556 S
C626 H620 0.930 . S
C626 C627 1.367 . S
C626 C634 1.378 . S
C627 C626 1.367 . S
C627 C635 1.433 . S
C628 H624 0.929 . S
C628 C630 1.378 . S
C628 C632 1.350 . S
C629 C632 1.463 1_554 S
C629 C634 1.350 . S
C629 N637 1.427 . S
C630 H621 0.930 . S
C630 C628 1.378 . S
C630 C631 1.367 . S
C631 C630 1.367 . S
C631 C633 1.433 . S
C632 C628 1.350 . S
C632 C629 1.463 1_556 S
C632 N636 1.427 . S
C633 H623 0.929 . S
C633 C631 1.433 . S
C633 N636 1.384 . S
C634 H625 0.929 1_554 S
C634 C626 1.378 . S
C634 C629 1.350 . S
C635 H622 0.929 . S
C635 C627 1.433 . S
C635 N637 1.384 . S
N636 C632 1.427 . S
N636 C633 1.384 . S
N637 C629 1.427 . S
N637 C635 1.384 . S
H638 C644 0.930 . S
H639 C648 0.930 . S
H640 C653 0.929 . S
H641 C651 0.929 . S
H642 C646 0.929 . S
H643 C652 0.929 . S
C644 H638 0.930 . S
C644 C645 1.367 . S
C644 C652 1.378 . S
C645 C644 1.367 . S
C645 C653 1.433 . S
C646 H642 0.929 . S
C646 C648 1.378 . S
C646 C650 1.350 . S
C647 C650 1.463 . S
C647 C652 1.350 . S
C647 N655 1.427 . S
C648 H639 0.930 . S
C648 C646 1.378 . S
C648 C649 1.367 . S
C649 C648 1.367 . S
C649 C651 1.433 . S
C650 C646 1.350 . S
C650 C647 1.463 . S
C650 N654 1.427 . S
C651 H641 0.929 . S
C651 C649 1.433 . S
C651 N654 1.384 . S
C652 H643 0.929 . S
C652 C644 1.378 . S
C652 C647 1.350 . S
C653 H640 0.929 . S
C653 C645 1.433 . S
C653 N655 1.384 . S
N654 C650 1.427 . S
N654 C651 1.384 . S
N655 C647 1.427 . S
N655 C653 1.384 . S
H656 C662 0.930 . S
H657 C666 0.930 . S
H658 C671 0.929 . S
H659 C669 0.929 . S
H660 C664 0.929 . S
H661 C670 0.929 . S
C662 H656 0.930 . S
C662 C663 1.367 . S
C662 C670 1.378 . S
C663 C662 1.367 . S
C663 C671 1.433 . S
C664 H660 0.929 . S
C664 C666 1.378 . S
C664 C668 1.350 . S
C665 C668 1.463 1_554 S
C665 C670 1.350 . S
C665 N673 1.427 . S
C666 H657 0.930 . S
C666 C664 1.378 . S
C666 C667 1.367 . S
C667 C666 1.367 . S
C667 C669 1.433 . S
C668 C664 1.350 . S
C668 C665 1.463 1_556 S
C668 N672 1.427 . S
C669 H659 0.929 . S
C669 C667 1.433 . S
C669 N672 1.384 . S
C670 H661 0.929 . S
C670 C662 1.378 . S
C670 C665 1.350 . S
C671 H658 0.929 . S
C671 C663 1.433 . S
C671 N673 1.384 . S
N672 C668 1.427 . S
N672 C669 1.384 . S
N673 C665 1.427 . S
N673 C671 1.384 . S
H674 C680 0.930 . S
H675 C684 0.930 . S
H676 C689 0.929 . S
H677 C687 0.929 . S
H678 C682 0.929 . S
H679 C688 0.929 . S
C680 H674 0.930 . S
C680 C681 1.367 . S
C680 C688 1.378 . S
C681 C680 1.367 . S
C681 C689 1.433 . S
C682 H678 0.929 . S
C682 C684 1.378 . S
C682 C686 1.350 . S
C683 C686 1.463 . S
C683 C688 1.350 . S
C683 N691 1.427 . S
C684 H675 0.930 . S
C684 C682 1.378 . S
C684 C685 1.367 . S
C685 C684 1.367 . S
C685 C687 1.433 . S
C686 C682 1.350 . S
C686 C683 1.463 . S
C686 N690 1.427 . S
C687 H677 0.929 . S
C687 C685 1.433 . S
C687 N690 1.384 . S
C688 H679 0.929 . S
C688 C680 1.378 . S
C688 C683 1.350 . S
C689 H676 0.929 . S
C689 C681 1.433 . S
C689 N691 1.384 . S
N690 C686 1.427 . S
N690 C687 1.384 . S
N691 C683 1.427 . S
N691 C689 1.384 . S
H692 C698 0.930 . S
H693 C702 0.930 . S
H694 C707 0.929 . S
H695 C705 0.929 . S
H696 C700 0.929 . S
H697 C706 0.929 1_554 S
C698 H692 0.930 . S
C698 C699 1.367 . S
C698 C706 1.378 . S
C699 C698 1.367 . S
C699 C707 1.433 . S
C700 H696 0.929 . S
C700 C702 1.378 . S
C700 C704 1.350 . S
C701 C704 1.463 1_556 S
C701 C706 1.350 . S
C701 N709 1.427 . S
C702 H693 0.930 . S
C702 C700 1.378 . S
C702 C703 1.367 . S
C703 C702 1.367 . S
C703 C705 1.433 . S
C704 C700 1.350 . S
C704 C701 1.463 1_554 S
C704 N708 1.427 . S
C705 H695 0.929 . S
C705 C703 1.433 . S
C705 N708 1.384 . S
C706 H697 0.929 1_556 S
C706 C698 1.378 . S
C706 C701 1.350 . S
C707 H694 0.929 . S
C707 C699 1.433 . S
C707 N709 1.384 . S
N708 C704 1.427 . S
N708 C705 1.384 . S
N709 C701 1.427 . S
N709 C707 1.384 . S
H710 C716 0.930 . S
H711 C720 0.930 . S
H712 C725 0.929 . S
H713 C723 0.929 . S
H714 C718 0.929 . S
H715 C724 0.929 . S
C716 H710 0.930 . S
C716 C717 1.367 . S
C716 C724 1.378 . S
C717 C716 1.367 . S
C717 C725 1.433 . S
C718 H714 0.929 . S
C718 C720 1.378 . S
C718 C722 1.350 . S
C719 C722 1.463 . S
C719 C724 1.350 . S
C719 N727 1.427 . S
C720 H711 0.930 . S
C720 C718 1.378 . S
C720 C721 1.367 . S
C721 C720 1.367 . S
C721 C723 1.433 . S
C722 C718 1.350 . S
C722 C719 1.463 . S
C722 N726 1.427 . S
C723 H713 0.929 . S
C723 C721 1.433 . S
C723 N726 1.384 . S
C724 H715 0.929 . S
C724 C716 1.378 . S
C724 C719 1.350 . S
C725 H712 0.929 . S
C725 C717 1.433 . S
C725 N727 1.384 . S
N726 C722 1.427 . S
N726 C723 1.384 . S
N727 C719 1.427 . S
N727 C725 1.384 . S
H728 C734 0.930 . S
H729 C738 0.930 . S
H730 C743 0.929 . S
H731 C741 0.929 . S
H732 C736 0.929 . S
H733 C742 0.929 . S
C734 H728 0.930 . S
C734 C735 1.367 . S
C734 C742 1.378 . S
C735 C734 1.367 . S
C735 C743 1.433 . S
C736 H732 0.929 . S
C736 C738 1.378 . S
C736 C740 1.350 . S
C737 C740 1.463 . S
C737 C742 1.350 . S
C737 N745 1.427 . S
C738 H729 0.930 . S
C738 C736 1.378 . S
C738 C739 1.367 . S
C739 C738 1.367 . S
C739 C741 1.433 . S
C740 C736 1.350 . S
C740 C737 1.463 . S
C740 N744 1.427 . S
C741 H731 0.929 . S
C741 C739 1.433 . S
C741 N744 1.384 . S
C742 H733 0.929 . S
C742 C734 1.378 . S
C742 C737 1.350 . S
C743 H730 0.929 . S
C743 C735 1.433 . S
C743 N745 1.384 . S
N744 C740 1.427 . S
N744 C741 1.384 . S
N745 C737 1.427 . S
N745 C743 1.384 . S
H746 C752 0.930 . S
H747 C756 0.930 . S
H748 C761 0.929 . S
H749 C759 0.929 . S
H750 C754 0.929 . S
H751 C760 0.929 . S
C752 H746 0.930 . S
C752 C753 1.367 . S
C752 C760 1.378 . S
C753 C752 1.367 . S
C753 C761 1.433 . S
C754 H750 0.929 . S
C754 C756 1.378 . S
C754 C758 1.350 . S
C755 C758 1.463 . S
C755 C760 1.350 . S
C755 N763 1.427 . S
C756 H747 0.930 . S
C756 C754 1.378 . S
C756 C757 1.367 . S
C757 C756 1.367 . S
C757 C759 1.433 . S
C758 C754 1.350 . S
C758 C755 1.463 . S
C758 N762 1.427 . S
C759 H749 0.929 . S
C759 C757 1.433 . S
C759 N762 1.384 . S
C760 H751 0.929 . S
C760 C752 1.378 . S
C760 C755 1.350 . S
C761 H748 0.929 . S
C761 C753 1.433 . S
C761 N763 1.384 . S
N762 C758 1.427 . S
N762 C759 1.384 . S
N763 C755 1.427 . S
N763 C761 1.384 . S
H764 C770 0.930 . S
H765 C774 0.930 . S
H766 C779 0.929 . S
H767 C777 0.929 . S
H768 C772 0.929 . S
H769 C778 0.929 . S
C770 H764 0.930 . S
C770 C771 1.367 . S
C770 C778 1.378 . S
C771 C770 1.367 . S
C771 C779 1.433 . S
C772 H768 0.929 . S
C772 C774 1.378 . S
C772 C776 1.350 . S
C773 C776 1.463 . S
C773 C778 1.350 . S
C773 N781 1.427 . S
C774 H765 0.930 . S
C774 C772 1.378 . S
C774 C775 1.367 . S
C775 C774 1.367 . S
C775 C777 1.433 . S
C776 C772 1.350 . S
C776 C773 1.463 . S
C776 N780 1.427 . S
C777 H767 0.929 . S
C777 C775 1.433 . S
C777 N780 1.384 . S
C778 H769 0.929 . S
C778 C770 1.378 . S
C778 C773 1.350 . S
C779 H766 0.929 . S
C779 C771 1.433 . S
C779 N781 1.384 . S
N780 C776 1.427 . S
N780 C777 1.384 . S
N781 C773 1.427 . S
N781 C779 1.384 . S
H782 C788 0.930 . S
H783 C792 0.930 . S
H784 C797 0.929 . S
H785 C795 0.929 . S
H786 C790 0.929 . S
H787 C796 0.929 . S
C788 H782 0.930 . S
C788 C789 1.367 . S
C788 C796 1.378 . S
C789 C788 1.367 . S
C789 C797 1.433 . S
C790 H786 0.929 . S
C790 C792 1.378 . S
C790 C794 1.350 . S
C791 C794 1.463 . S
C791 C796 1.350 . S
C791 N799 1.427 . S
C792 H783 0.930 . S
C792 C790 1.378 . S
C792 C793 1.367 . S
C793 C792 1.367 . S
C793 C795 1.433 . S
C794 C790 1.350 . S
C794 C791 1.463 . S
C794 N798 1.427 . S
C795 H785 0.929 . S
C795 C793 1.433 . S
C795 N798 1.384 . S
C796 H787 0.929 . S
C796 C788 1.378 . S
C796 C791 1.350 . S
C797 H784 0.929 . S
C797 C789 1.433 . S
C797 N799 1.384 . S
N798 C794 1.427 . S
N798 C795 1.384 . S
N799 C791 1.427 . S
N799 C797 1.384 . S
H800 C806 0.930 . S
H801 C810 0.930 . S
H802 C815 0.929 . S
H803 C813 0.929 . S
H804 C808 0.929 . S
H805 C814 0.929 . S
C806 H800 0.930 . S
C806 C807 1.367 . S
C806 C814 1.378 . S
C807 C806 1.367 . S
C807 C815 1.433 . S
C808 H804 0.929 . S
C808 C810 1.378 . S
C808 C812 1.350 . S
C809 C812 1.463 . S
C809 C814 1.350 . S
C809 N817 1.427 . S
C810 H801 0.930 . S
C810 C808 1.378 . S
C810 C811 1.367 . S
C811 C810 1.367 . S
C811 C813 1.433 . S
C812 C808 1.350 . S
C812 C809 1.463 . S
C812 N816 1.427 . S
C813 H803 0.929 . S
C813 C811 1.433 . S
C813 N816 1.384 . S
C814 H805 0.929 . S
C814 C806 1.378 . S
C814 C809 1.350 . S
C815 H802 0.929 . S
C815 C807 1.433 . S
C815 N817 1.384 . S
N816 C812 1.427 . S
N816 C813 1.384 . S
N817 C809 1.427 . S
N817 C815 1.384 . S
H818 C824 0.930 . S
H819 C828 0.930 . S
H820 C833 0.929 . S
H821 C831 0.929 . S
H822 C826 0.929 . S
H823 C832 0.929 . S
C824 H818 0.930 . S
C824 C825 1.367 . S
C824 C832 1.378 . S
C825 C824 1.367 . S
C825 C833 1.433 . S
C826 H822 0.929 . S
C826 C828 1.378 . S
C826 C830 1.350 . S
C827 C830 1.463 . S
C827 C832 1.350 . S
C827 N835 1.427 . S
C828 H819 0.930 . S
C828 C826 1.378 . S
C828 C829 1.367 . S
C829 C828 1.367 . S
C829 C831 1.433 . S
C830 C826 1.350 . S
C830 C827 1.463 . S
C830 N834 1.427 . S
C831 H821 0.929 . S
C831 C829 1.433 . S
C831 N834 1.384 . S
C832 H823 0.929 . S
C832 C824 1.378 . S
C832 C827 1.350 . S
C833 H820 0.929 . S
C833 C825 1.433 . S
C833 N835 1.384 . S
N834 C830 1.427 . S
N834 C831 1.384 . S
N835 C827 1.427 . S
N835 C833 1.384 . S
H836 C842 0.930 . S
H837 C846 0.930 . S
H838 C851 0.929 . S
H839 C849 0.929 . S
H840 C844 0.929 . S
H841 C850 0.929 . S
C842 H836 0.930 . S
C842 C843 1.367 . S
C842 C850 1.378 . S
C843 C842 1.367 . S
C843 C851 1.433 . S
C844 H840 0.929 . S
C844 C846 1.378 . S
C844 C848 1.350 . S
C845 C848 1.463 . S
C845 C850 1.350 . S
C845 N853 1.427 . S
C846 H837 0.930 . S
C846 C844 1.378 . S
C846 C847 1.367 . S
C847 C846 1.367 . S
C847 C849 1.433 . S
C848 C844 1.350 . S
C848 C845 1.463 . S
C848 N852 1.427 . S
C849 H839 0.929 . S
C849 C847 1.433 . S
C849 N852 1.384 . S
C850 H841 0.929 . S
C850 C842 1.378 . S
C850 C845 1.350 . S
C851 H838 0.929 . S
C851 C843 1.433 . S
C851 N853 1.384 . S
N852 C848 1.427 . S
N852 C849 1.384 . S
N853 C845 1.427 . S
N853 C851 1.384 . S
H854 C860 0.930 . S
H855 C864 0.930 . S
H856 C869 0.929 . S
H857 C867 0.929 . S
H858 C862 0.929 . S
H859 C868 0.929 . S
C860 H854 0.930 . S
C860 C861 1.367 . S
C860 C868 1.378 . S
C861 C860 1.367 . S
C861 C869 1.433 . S
C862 H858 0.929 . S
C862 C864 1.378 . S
C862 C866 1.350 . S
C863 C866 1.463 . S
C863 C868 1.350 . S
C863 N871 1.427 . S
C864 H855 0.930 . S
C864 C862 1.378 . S
C864 C865 1.367 . S
C865 C864 1.367 . S
C865 C867 1.433 . S
C866 C862 1.350 . S
C866 C863 1.463 . S
C866 N870 1.427 . S
C867 H857 0.929 . S
C867 C865 1.433 . S
C867 N870 1.384 . S
C868 H859 0.929 . S
C868 C860 1.378 . S
C868 C863 1.350 . S
C869 H856 0.929 . S
C869 C861 1.433 . S
C869 N871 1.384 . S
N870 C866 1.427 . S
N870 C867 1.384 . S
N871 C863 1.427 . S
N871 C869 1.384 . S
C447 N83 1.637 . S
C451 C160 1.642 . S
C469 C244 1.643 . S
C465 N96 1.636 . S
C487 C243 1.650 . S
C483 N57 1.628 . S
C501 N70 1.635 . S
C505 C159 1.655 . S
C523 C340 1.637 . S
C519 N31 1.643 . S
C541 C424 1.635 . S
C537 N44 1.646 . S
C555 N5 1.630 . S
C559 C423 1.650 . S
C573 N18 1.637 . S
C577 C339 1.654 . S
C595 C162 1.461 . S
C591 N14 1.617 . S
C613 C246 1.442 . S
C609 N1 1.615 . S
C631 C258 1.400 . S
C627 N40 1.615 . S
C649 C174 1.377 . S
C645 N27 1.619 . S
C667 C342 1.461 . S
C663 N66 1.611 . S
C681 N53 1.605 . S
C685 C426 1.447 . S
C703 C414 1.400 . S
C699 N92 1.608 . S
C717 N79 1.607 . S
C721 C330 1.400 . S
C739 C171 1.546 . S
C735 N2 1.543 . S
C757 C255 1.544 . S
C753 N15 1.544 . S
C771 N28 1.540 . S
C775 C256 1.520 . S
C793 C172 1.520 . S
C789 N41 1.541 . S
C811 C327 1.544 . S
C807 N54 1.541 . S
C825 N67 1.541 . S
C829 C411 1.544 . S
C843 N80 1.536 . S
C847 C412 1.519 . S
C861 N93 1.537 . S
C865 C328 1.510 . S
