# Generated by pormake.
# Topology ctn, (3,4)-cn, num edge types: 1
# Building blocks:
#     Node 0, Type 0, BuildingBlock: MIDCAF_clean_linker_0, # of connection points: 3
#     Node 1, Type 0, BuildingBlock: MIDCAF_clean_linker_0, # of connection points: 3
#     Node 2, Type 0, BuildingBlock: MIDCAF_clean_linker_0, # of connection points: 3
#     Node 3, Type 0, BuildingBlock: MIDCAF_clean_linker_0, # of connection points: 3
#     Node 4, Type 0, BuildingBlock: MIDCAF_clean_linker_0, # of connection points: 3
#     Node 5, Type 0, BuildingBlock: MIDCAF_clean_linker_0, # of connection points: 3
#     Node 6, Type 0, BuildingBlock: MIDCAF_clean_linker_0, # of connection points: 3
#     Node 7, Type 0, BuildingBlock: MIDCAF_clean_linker_0, # of connection points: 3
#     Node 8, Type 0, BuildingBlock: MIDCAF_clean_linker_0, # of connection points: 3
#     Node 9, Type 0, BuildingBlock: MIDCAF_clean_linker_0, # of connection points: 3
#     Node 10, Type 0, BuildingBlock: MIDCAF_clean_linker_0, # of connection points: 3
#     Node 11, Type 0, BuildingBlock: MIDCAF_clean_linker_0, # of connection points: 3
#     Node 12, Type 0, BuildingBlock: MIDCAF_clean_linker_0, # of connection points: 3
#     Node 13, Type 0, BuildingBlock: MIDCAF_clean_linker_0, # of connection points: 3
#     Node 14, Type 0, BuildingBlock: MIDCAF_clean_linker_0, # of connection points: 3
#     Node 15, Type 0, BuildingBlock: MIDCAF_clean_linker_0, # of connection points: 3
#     Node 16, Type 1, BuildingBlock: KUFVIS_clean_sbu_0, # of connection points: 4
#     Node 17, Type 1, BuildingBlock: KUFVIS_clean_sbu_0, # of connection points: 4
#     Node 18, Type 1, BuildingBlock: KUFVIS_clean_sbu_0, # of connection points: 4
#     Node 19, Type 1, BuildingBlock: KUFVIS_clean_sbu_0, # of connection points: 4
#     Node 20, Type 1, BuildingBlock: KUFVIS_clean_sbu_0, # of connection points: 4
#     Node 21, Type 1, BuildingBlock: KUFVIS_clean_sbu_0, # of connection points: 4
#     Node 22, Type 1, BuildingBlock: KUFVIS_clean_sbu_0, # of connection points: 4
#     Node 23, Type 1, BuildingBlock: KUFVIS_clean_sbu_0, # of connection points: 4
#     Node 24, Type 1, BuildingBlock: KUFVIS_clean_sbu_0, # of connection points: 4
#     Node 25, Type 1, BuildingBlock: KUFVIS_clean_sbu_0, # of connection points: 4
#     Node 26, Type 1, BuildingBlock: KUFVIS_clean_sbu_0, # of connection points: 4
#     Node 27, Type 1, BuildingBlock: KUFVIS_clean_sbu_0, # of connection points: 4
#     Edge 28, Type (0, 1), BuildingBlock: KIFKEQ_clean_linker_1, # of connection points: 2
#     Edge 29, Type (0, 1), BuildingBlock: KIFKEQ_clean_linker_1, # of connection points: 2
#     Edge 30, Type (0, 1), BuildingBlock: KIFKEQ_clean_linker_1, # of connection points: 2
#     Edge 31, Type (0, 1), BuildingBlock: KIFKEQ_clean_linker_1, # of connection points: 2
#     Edge 32, Type (0, 1), BuildingBlock: KIFKEQ_clean_linker_1, # of connection points: 2
#     Edge 33, Type (0, 1), BuildingBlock: KIFKEQ_clean_linker_1, # of connection points: 2
#     Edge 34, Type (0, 1), BuildingBlock: KIFKEQ_clean_linker_1, # of connection points: 2
#     Edge 35, Type (0, 1), BuildingBlock: KIFKEQ_clean_linker_1, # of connection points: 2
#     Edge 36, Type (0, 1), BuildingBlock: KIFKEQ_clean_linker_1, # of connection points: 2
#     Edge 37, Type (0, 1), BuildingBlock: KIFKEQ_clean_linker_1, # of connection points: 2
#     Edge 38, Type (0, 1), BuildingBlock: KIFKEQ_clean_linker_1, # of connection points: 2
#     Edge 39, Type (0, 1), BuildingBlock: KIFKEQ_clean_linker_1, # of connection points: 2
#     Edge 40, Type (0, 1), BuildingBlock: KIFKEQ_clean_linker_1, # of connection points: 2
#     Edge 41, Type (0, 1), BuildingBlock: KIFKEQ_clean_linker_1, # of connection points: 2
#     Edge 42, Type (0, 1), BuildingBlock: KIFKEQ_clean_linker_1, # of connection points: 2
#     Edge 43, Type (0, 1), BuildingBlock: KIFKEQ_clean_linker_1, # of connection points: 2
#     Edge 44, Type (0, 1), BuildingBlock: KIFKEQ_clean_linker_1, # of connection points: 2
#     Edge 45, Type (0, 1), BuildingBlock: KIFKEQ_clean_linker_1, # of connection points: 2
#     Edge 46, Type (0, 1), BuildingBlock: KIFKEQ_clean_linker_1, # of connection points: 2
#     Edge 47, Type (0, 1), BuildingBlock: KIFKEQ_clean_linker_1, # of connection points: 2
#     Edge 48, Type (0, 1), BuildingBlock: KIFKEQ_clean_linker_1, # of connection points: 2
#     Edge 49, Type (0, 1), BuildingBlock: KIFKEQ_clean_linker_1, # of connection points: 2
#     Edge 50, Type (0, 1), BuildingBlock: KIFKEQ_clean_linker_1, # of connection points: 2
#     Edge 51, Type (0, 1), BuildingBlock: KIFKEQ_clean_linker_1, # of connection points: 2
#     Edge 52, Type (0, 1), BuildingBlock: KIFKEQ_clean_linker_1, # of connection points: 2
#     Edge 53, Type (0, 1), BuildingBlock: KIFKEQ_clean_linker_1, # of connection points: 2
#     Edge 54, Type (0, 1), BuildingBlock: KIFKEQ_clean_linker_1, # of connection points: 2
#     Edge 55, Type (0, 1), BuildingBlock: KIFKEQ_clean_linker_1, # of connection points: 2
#     Edge 56, Type (0, 1), BuildingBlock: KIFKEQ_clean_linker_1, # of connection points: 2
#     Edge 57, Type (0, 1), BuildingBlock: KIFKEQ_clean_linker_1, # of connection points: 2
#     Edge 58, Type (0, 1), BuildingBlock: KIFKEQ_clean_linker_1, # of connection points: 2
#     Edge 59, Type (0, 1), BuildingBlock: KIFKEQ_clean_linker_1, # of connection points: 2
#     Edge 60, Type (0, 1), BuildingBlock: KIFKEQ_clean_linker_1, # of connection points: 2
#     Edge 61, Type (0, 1), BuildingBlock: KIFKEQ_clean_linker_1, # of connection points: 2
#     Edge 62, Type (0, 1), BuildingBlock: KIFKEQ_clean_linker_1, # of connection points: 2
#     Edge 63, Type (0, 1), BuildingBlock: KIFKEQ_clean_linker_1, # of connection points: 2
#     Edge 64, Type (0, 1), BuildingBlock: KIFKEQ_clean_linker_1, # of connection points: 2
#     Edge 65, Type (0, 1), BuildingBlock: KIFKEQ_clean_linker_1, # of connection points: 2
#     Edge 66, Type (0, 1), BuildingBlock: KIFKEQ_clean_linker_1, # of connection points: 2
#     Edge 67, Type (0, 1), BuildingBlock: KIFKEQ_clean_linker_1, # of connection points: 2
#     Edge 68, Type (0, 1), BuildingBlock: KIFKEQ_clean_linker_1, # of connection points: 2
#     Edge 69, Type (0, 1), BuildingBlock: KIFKEQ_clean_linker_1, # of connection points: 2
#     Edge 70, Type (0, 1), BuildingBlock: KIFKEQ_clean_linker_1, # of connection points: 2
#     Edge 71, Type (0, 1), BuildingBlock: KIFKEQ_clean_linker_1, # of connection points: 2
#     Edge 72, Type (0, 1), BuildingBlock: KIFKEQ_clean_linker_1, # of connection points: 2
#     Edge 73, Type (0, 1), BuildingBlock: KIFKEQ_clean_linker_1, # of connection points: 2
#     Edge 74, Type (0, 1), BuildingBlock: KIFKEQ_clean_linker_1, # of connection points: 2
#     Edge 75, Type (0, 1), BuildingBlock: KIFKEQ_clean_linker_1, # of connection points: 2
# Relax obj value: 0.012
# Max RMSD: 0.063
# Mean RMSD: 0.029
data_MOF--net-ctn--node1-KUFVIS_clean_sbu_0--node2-MIDCAF_clean_linker_0--edge1-KIFKEQ_clean_linker_1
_symmetry_space_group_name_H-M    P1
_symmetry_Int_Tables_number       1
_symmetry_cell_setting            triclinic
loop_
_symmetry_equiv_pos_as_xyz
'x, y, z'
_cell_length_a     67.429108
_cell_length_b     67.288371
_cell_length_c     67.585395
_cell_angle_alpha  90.969524
_cell_angle_beta   90.258192
_cell_angle_gamma 91.568577
loop_
_atom_site_label
_atom_site_type_symbol
_atom_site_fract_x
_atom_site_fract_y
_atom_site_fract_z
_atom_type_partial_charge
C0 C 0.99479 0.04765 0.10312 0.0
C1 C 0.99683 0.02986 0.1135 0.0
C2 C 0.01111 0.01639 0.10701 0.0
C3 C 0.02312 0.02065 0.0907 0.0
H4 H 0.06692 0.99715 0.05382 0.0
H5 H 0.09447 0.97594 0.04581 0.0
H6 H 0.12368 0.02475 0.01572 0.0
H7 H 0.09558 0.04558 0.02288 0.0
H8 H 0.06588 0.0797 0.00708 0.0
H9 H 0.0586 0.10744 0.98583 0.0
H10 H 1.00203 0.11383 0.01471 0.0
H11 H 0.00955 0.08651 0.03637 0.0
H12 H 0.00479 0.06579 0.07924 0.0
H13 H 0.98417 0.05853 0.10783 0.0
H14 H 0.0129 1.00238 0.11438 0.0
H15 H 0.03392 0.00987 0.08618 0.0
N16 N 0.04974 0.03149 0.05887 0.0
N17 N 0.05831 0.05195 0.0323 0.0
N18 N 0.03059 0.05908 0.05176 0.0
C19 C 0.06195 0.03584 0.04351 0.0
C20 C 0.04258 0.06359 0.03624 0.0
C21 C 0.03409 0.04309 0.0632 0.0
C22 C 0.079 0.02306 0.03895 0.0
C23 C 0.07923 0.00335 0.04549 0.0
C24 C 0.09516 0.9912 0.04099 0.0
C25 C 0.11148 0.99852 0.0301 0.0
C26 C 0.11128 0.01836 0.02377 0.0
C27 C 0.09518 0.0304 0.02798 0.0
C28 C 0.03832 0.08079 0.02349 0.0
C29 C 0.0519 0.08704 0.00897 0.0
C30 C 0.04766 0.10291 0.99666 0.0
C31 C 0.02968 0.11291 0.99845 0.0
C32 C 0.01616 0.10673 0.01306 0.0
C33 C 0.02044 0.09093 0.02545 0.0
C34 C 0.0211 0.03846 0.08036 0.0
C35 C 0.00672 0.05187 0.08674 0.0
C36 C 0.27797 0.63631 0.2159 0.0
C37 C 0.25796 0.6377 0.21021 0.0
C38 C 0.252 0.65512 0.20083 0.0
C39 C 0.26564 0.67077 0.19749 0.0
H40 H 0.28069 0.7161 0.15663 0.0
H41 H 0.27553 0.74102 0.13153 0.0
H42 H 0.32782 0.77375 0.15211 0.0
H43 H 0.33291 0.74904 0.1774 0.0
H44 H 0.36516 0.72211 0.20427 0.0
H45 H 0.39341 0.72572 0.22671 0.0
H46 H 0.36033 0.69389 0.27145 0.0
H47 H 0.33266 0.68932 0.24854 0.0
H48 H 0.30671 0.65046 0.21763 0.0
H49 H 0.28332 0.62299 0.22267 0.0
H50 H 0.2367 0.65692 0.19646 0.0
H51 H 0.26053 0.68406 0.19048 0.0
N52 N 0.297 0.70008 0.18698 0.0
N53 N 0.32652 0.7169 0.1967 0.0
N54 N 0.316 0.68814 0.21318 0.0
C55 C 0.31034 0.71541 0.18461 0.0
C56 C 0.32939 0.70338 0.21106 0.0
C57 C 0.29983 0.68632 0.20117 0.0
C58 C 0.30723 0.73049 0.16912 0.0
C59 C 0.29112 0.72858 0.15585 0.0
C60 C 0.2882 0.74283 0.14135 0.0
C61 C 0.30126 0.75939 0.13979 0.0
C62 C 0.31735 0.76131 0.15305 0.0
C63 C 0.32032 0.74703 0.16749 0.0
C64 C 0.34667 0.70544 0.22462 0.0
C65 C 0.364 0.71582 0.21888 0.0
C66 C 0.38017 0.71799 0.23185 0.0
C67 C 0.37927 0.7102 0.25107 0.0
C68 C 0.36187 0.69977 0.25671 0.0
C69 C 0.34587 0.69726 0.2436 0.0
C70 C 0.28547 0.6695 0.20374 0.0
C71 C 0.29147 0.65205 0.21289 0.0
C72 C 0.99443 0.40886 0.0074 0.0
C73 C 0.98337 0.40554 0.98991 0.0
C74 C 0.96953 0.41976 0.98444 0.0
C75 C 0.96657 0.43665 0.99631 0.0
H76 H 0.92881 0.48321 0.00364 0.0
H77 H 0.90193 0.50539 0.99613 0.0
H78 H 0.9186 0.54254 0.04655 0.0
H79 H 0.94567 0.52061 0.05393 0.0
H80 H 0.98208 0.50956 0.08053 0.0
H81 H 0.00261 0.51572 0.10986 0.0
H82 H 0.03116 0.45979 0.09996 0.0
H83 H 0.01051 0.45343 0.07074 0.0
H84 H 1.00015 0.42766 0.03274 0.0
H85 H 0.00504 0.39814 0.01222 0.0
H86 H 0.96098 0.41789 0.9709 0.0
H87 H 0.9557 0.44717 0.99161 0.0
N88 N 0.9592 0.47023 0.02244 0.0
N89 N 0.96735 0.48975 0.05055 0.0
N90 N 0.98522 0.46114 0.04328 0.0
C91 C 0.9558 0.48638 0.03421 0.0
C92 C 0.98208 0.47721 0.05521 0.0
C93 C 0.9739 0.45754 0.02684 0.0
C94 C 0.9395 0.50004 0.02943 0.0
C95 C 0.92683 0.49613 0.01313 0.0
C96 C 0.9113 0.5088 0.00886 0.0
C97 C 0.90806 0.52577 0.02072 0.0
C98 C 0.9208 0.52976 0.03693 0.0
C99 C 0.93629 0.51707 0.04124 0.0
C100 C 0.99459 0.48099 0.07316 0.0
C101 C 0.99269 0.49852 0.08457 0.0
C102 C 0.00456 0.50213 0.10135 0.0
C103 C 0.01856 0.48826 0.10725 0.0
C104 C 0.02038 0.47068 0.09595 0.0
C105 C 0.00859 0.46711 0.0791 0.0
C106 C 0.97741 0.43983 0.01396 0.0
C107 C 0.99151 0.42578 0.01926 0.0
C108 C 0.72138 0.77711 0.13587 0.0
C109 C 0.70991 0.75938 0.13434 0.0
C110 C 0.69546 0.75553 0.14884 0.0
C111 C 0.69271 0.76897 0.16457 0.0
H112 H 0.65946 0.77815 0.21552 0.0
H113 H 0.63382 0.77273 0.24036 0.0
H114 H 0.65004 0.829 0.26844 0.0
H115 H 0.67548 0.8346 0.2436 0.0
H116 H 0.72032 0.85116 0.23498 0.0
H117 H 0.74389 0.8787 0.23986 0.0
H118 H 0.76028 0.87479 0.17816 0.0
H119 H 0.73723 0.84654 0.17352 0.0
H120 H 0.72786 0.80397 0.15222 0.0
H121 H 0.7324 0.78075 0.1248 0.0
H122 H 0.68651 0.74192 0.14827 0.0
H123 H 0.68159 0.76538 0.17555 0.0
N124 N 0.68744 0.79748 0.19685 0.0
N125 N 0.69825 0.82603 0.21461 0.0
N126 N 0.7145 0.81672 0.18546 0.0
C127 C 0.68545 0.81017 0.21257 0.0
C128 C 0.71279 0.82943 0.20115 0.0
C129 C 0.70194 0.80066 0.1832 0.0
C130 C 0.66963 0.8068 0.22751 0.0
C131 C 0.65756 0.78941 0.22694 0.0
C132 C 0.64291 0.78624 0.24125 0.0
C133 C 0.63989 0.80043 0.2564 0.0
C134 C 0.65182 0.81787 0.25685 0.0
C135 C 0.66652 0.821 0.24264 0.0
C136 C 0.72686 0.84661 0.20385 0.0
C137 C 0.7289 0.85618 0.22242 0.0
C138 C 0.74237 0.87213 0.22518 0.0
C139 C 0.754 0.87916 0.20939 0.0
C140 C 0.75184 0.86965 0.19076 0.0
C141 C 0.73852 0.85349 0.18806 0.0
C142 C 0.70437 0.78659 0.16622 0.0
C143 C 0.71867 0.79052 0.15159 0.0
C144 C 0.03784 0.91943 0.53017 0.0
C145 C 0.02152 0.9065 0.52626 0.0
C146 C 0.00967 0.90986 0.50952 0.0
C147 C 0.01404 0.9258 0.49703 0.0
H148 H 0.99141 0.95893 0.45016 0.0
H149 H 0.97107 0.96578 0.4212 0.0
H150 H 0.01549 0.0083 0.40149 0.0
H151 H 0.03589 1.00147 0.43023 0.0
H152 H 0.06837 0.01731 0.46195 0.0
H153 H 0.09867 0.03699 0.46767 0.0
H154 H 0.1187 0.99354 0.50911 0.0
H155 H 0.08804 0.97416 0.5039 0.0
H156 H 0.05503 0.9448 0.52121 0.0
H157 H 0.04747 0.91712 0.54275 0.0
H158 H 0.99689 0.90028 0.50617 0.0
H159 H 0.00458 0.92794 0.48429 0.0
N160 N 0.02347 0.95976 0.47204 0.0
N161 N 0.04508 0.9861 0.4634 0.0
N162 N 0.05227 0.9667 0.49082 0.0
C163 C 0.0282 0.97507 0.45985 0.0
C164 C 0.0572 0.98204 0.47884 0.0
C165 C 0.03545 0.95549 0.4876 0.0
C166 C 0.01539 0.97956 0.44258 0.0
C167 C 0.99685 0.96979 0.43971 0.0
C168 C 0.9851 0.9738 0.42316 0.0
C169 C 0.99168 0.98756 0.40901 0.0
C170 C 0.01009 0.99747 0.41199 0.0
C171 C 0.02175 0.99359 0.42857 0.0
C172 C 0.07571 0.99409 0.48243 0.0
C173 C 0.0792 0.01192 0.4723 0.0
C174 C 0.09669 0.02318 0.4755 0.0
C175 C 0.11128 0.01685 0.48878 0.0
C176 C 0.10774 0.99905 0.49898 0.0
C177 C 0.09015 0.98786 0.4959 0.0
C178 C 0.03045 0.93869 0.50091 0.0
C179 C 0.04226 0.93527 0.51768 0.0
C180 C 0.22642 0.7407 0.8725 0.0
C181 C 0.21071 0.7526 0.87859 0.0
C182 C 0.19227 0.7503 0.86895 0.0
C183 C 0.18976 0.73669 0.85317 0.0
H184 H 0.15506 0.72541 0.80388 0.0
H185 H 0.12828 0.72997 0.7804 0.0
H186 H 0.15229 0.68475 0.742 0.0
H187 H 0.17898 0.67981 0.76574 0.0
H188 H 0.21645 0.65515 0.78145 0.0
H189 H 0.24153 0.63008 0.77656 0.0
H190 H 0.273 0.65241 0.82847 0.0
H191 H 0.24828 0.67759 0.83323 0.0
H192 H 0.23636 0.71812 0.85258 0.0
H193 H 0.24075 0.74205 0.8798 0.0
H194 H 0.17995 0.75937 0.87329 0.0
H195 H 0.17545 0.73546 0.84585 0.0
N196 N 0.18783 0.71235 0.81701 0.0
N197 N 0.19968 0.68569 0.79802 0.0
N198 N 0.2168 0.69664 0.82664 0.0
C199 C 0.18594 0.69989 0.80101 0.0
C200 C 0.21515 0.68393 0.81085 0.0
C201 C 0.20322 0.71084 0.82987 0.0
C202 C 0.1693 0.70224 0.78676 0.0
C203 C 0.15469 0.71636 0.79047 0.0
C204 C 0.13934 0.71909 0.77691 0.0
C205 C 0.13815 0.70783 0.75921 0.0
C206 C 0.15262 0.69355 0.75556 0.0
C207 C 0.16799 0.69078 0.76917 0.0
C208 C 0.23027 0.66849 0.80772 0.0
C209 C 0.22872 0.65475 0.79183 0.0
C210 C 0.24305 0.64028 0.78908 0.0
C211 C 0.25932 0.63923 0.80211 0.0
C212 C 0.26084 0.65295 0.81799 0.0
C213 C 0.24653 0.66735 0.82077 0.0
C214 C 0.20556 0.7249 0.84693 0.0
C215 C 0.22385 0.72692 0.85695 0.0
C216 C 0.0098 0.59759 0.51037 0.0
C217 C 0.99434 0.60738 0.51999 0.0
C218 C 0.97494 0.59938 0.51843 0.0
C219 C 0.97104 0.58187 0.5075 0.0
H220 H 0.93871 0.52571 0.51181 0.0
H221 H 0.90981 0.50448 0.51894 0.0
H222 H 0.91401 0.47724 0.46078 0.0
H223 H 0.94319 0.49782 0.45399 0.0
H224 H 0.98125 0.50555 0.42864 0.0
H225 H 1.0009 0.49843 0.39934 0.0
H226 H 0.04529 0.542 0.41879 0.0
H227 H 0.02573 0.54914 0.44824 0.0
H228 H 0.01801 0.57315 0.49161 0.0
H229 H 0.02488 0.60352 0.51133 0.0
H230 H 0.96279 0.60661 0.52581 0.0
H231 H 0.9559 0.57611 0.50657 0.0
N232 N 0.96573 0.54243 0.48937 0.0
N233 N 0.973 0.52153 0.46243 0.0
N234 N 0.99386 0.54912 0.46996 0.0
C235 C 0.96117 0.52609 0.47799 0.0
C236 C 0.98939 0.5329 0.4583 0.0
C237 C 0.98204 0.55402 0.48545 0.0
C238 C 0.94337 0.51344 0.48235 0.0
C239 C 0.93348 0.51515 0.50056 0.0
C240 C 0.91682 0.50301 0.50463 0.0
C241 C 0.90957 0.48898 0.49052 0.0
C242 C 0.91939 0.48748 0.47224 0.0
C243 C 0.93611 0.49943 0.46826 0.0
C244 C 1.00183 0.528 0.44085 0.0
C245 C 0.99525 0.51356 0.42681 0.0
C246 C 0.00647 0.50952 0.40992 0.0
C247 C 0.02463 0.51967 0.40671 0.0
C248 C 0.03144 0.53379 0.42093 0.0
C249 C 0.02014 0.53797 0.43775 0.0
C250 C 0.98642 0.57221 0.49755 0.0
C251 C 0.00584 0.58028 0.49905 0.0
C252 C 0.87917 0.79913 0.7768 0.0
C253 C 0.87777 0.80753 0.75797 0.0
C254 C 0.86154 0.81946 0.75376 0.0
C255 C 0.84687 0.82269 0.76798 0.0
H256 H 0.802 0.86112 0.78422 0.0
H257 H 0.77693 0.88598 0.77952 0.0
H258 H 0.74473 0.86359 0.82992 0.0
H259 H 0.76964 0.8385 0.83453 0.0
H260 H 0.79119 0.80706 0.86268 0.0
H261 H 0.78659 0.78228 0.88835 0.0
H262 H 0.83021 0.74561 0.86029 0.0
H263 H 0.83489 0.77028 0.83461 0.0
H264 H 0.86581 0.79513 0.80515 0.0
H265 H 0.89139 0.7897 0.78043 0.0
H266 H 0.86013 0.82623 0.73941 0.0
H267 H 0.83445 0.83176 0.76415 0.0
N268 N 0.8181 0.83038 0.79919 0.0
N269 N 0.80177 0.8195 0.82779 0.0
N270 N 0.83027 0.80353 0.81681 0.0
C271 C 0.80305 0.83224 0.81239 0.0
C272 C 0.81531 0.8051 0.83011 0.0
C273 C 0.83182 0.81612 0.80134 0.0
C274 C 0.78792 0.84771 0.80976 0.0
C275 C 0.78962 0.86146 0.79435 0.0
C276 C 0.77527 0.87583 0.79171 0.0
C277 C 0.7588 0.87682 0.80435 0.0
C278 C 0.7571 0.86312 0.81977 0.0
C279 C 0.77149 0.84878 0.82248 0.0
C280 C 0.81333 0.79066 0.84645 0.0
C281 C 0.79992 0.79379 0.86202 0.0
C282 C 0.79737 0.77966 0.87683 0.0
C283 C 0.808 0.76198 0.87631 0.0
C284 C 0.82169 0.75902 0.861 0.0
C285 C 0.82441 0.77323 0.84632 0.0
C286 C 0.84797 0.8138 0.78664 0.0
C287 C 0.8644 0.80213 0.79092 0.0
C288 C 0.37838 0.29797 0.27831 0.0
C289 C 0.37651 0.30548 0.25913 0.0
C290 C 0.35996 0.31686 0.25463 0.0
C291 C 0.34552 0.32053 0.26895 0.0
H292 H 0.2889 0.34572 0.27869 0.0
H293 H 0.26271 0.3696 0.27325 0.0
H294 H 0.25726 0.37863 0.33628 0.0
H295 H 0.28303 0.35427 0.34188 0.0
H296 H 0.29426 0.3129 0.36691 0.0
H297 H 0.28896 0.28974 0.39374 0.0
H298 H 0.32894 0.24883 0.36587 0.0
H299 H 0.33478 0.2723 0.33936 0.0
H300 H 0.36566 0.29523 0.30711 0.0
H301 H 0.39086 0.28898 0.28216 0.0
H302 H 0.35819 0.32293 0.24 0.0
H303 H 0.33291 0.32926 0.26491 0.0
N304 N 0.31763 0.32998 0.30027 0.0
N305 N 0.3029 0.32196 0.33061 0.0
N306 N 0.33073 0.30483 0.31965 0.0
C307 C 0.30336 0.33313 0.31404 0.0
C308 C 0.31645 0.30766 0.33347 0.0
C309 C 0.33153 0.31601 0.30307 0.0
C310 C 0.28802 0.3481 0.31072 0.0
C311 C 0.28217 0.35282 0.2914 0.0
C312 C 0.26715 0.36638 0.28826 0.0
C313 C 0.25805 0.37586 0.30436 0.0
C314 C 0.26411 0.37149 0.32366 0.0
C315 C 0.27879 0.35754 0.32683 0.0
C316 C 0.31478 0.29442 0.35081 0.0
C317 C 0.3021 0.29907 0.36658 0.0
C318 C 0.29898 0.28571 0.38195 0.0
C319 C 0.30829 0.26723 0.38188 0.0
C320 C 0.32164 0.26295 0.36655 0.0
C321 C 0.3249 0.27641 0.35124 0.0
C322 C 0.34717 0.31269 0.28804 0.0
C323 C 0.36383 0.30144 0.29255 0.0
C324 C 0.49488 0.90606 0.51115 0.0
C325 C 0.4855 0.90309 0.49269 0.0
C326 C 0.47245 0.91752 0.48602 0.0
C327 C 0.46868 0.93441 0.49767 0.0
H328 H 0.42909 0.98069 0.50467 0.0
H329 H 0.40239 0.00297 0.49667 0.0
H330 H 0.41888 0.04056 0.54683 0.0
H331 H 0.44572 0.01857 0.55469 0.0
H332 H 0.48134 0.00752 0.58231 0.0
H333 H 0.50178 0.01391 0.61169 0.0
H334 H 0.53054 0.95803 0.60219 0.0
H335 H 0.51 0.95144 0.57297 0.0
H336 H 0.49876 0.92468 0.53686 0.0
H337 H 0.50517 0.89533 0.51662 0.0
H338 H 0.46483 0.91557 0.47195 0.0
H339 H 0.45843 0.94514 0.49213 0.0
N340 N 0.45945 0.96782 0.52391 0.0
N341 N 0.46708 0.98757 0.55204 0.0
N342 N 0.48503 0.95893 0.54537 0.0
C343 C 0.45584 0.98407 0.5355 0.0
C344 C 0.48171 0.97508 0.55709 0.0
C345 C 0.47406 0.95517 0.52875 0.0
C346 C 0.43966 0.99775 0.53035 0.0
C347 C 0.4271 0.99373 0.51398 0.0
C348 C 0.41169 0.00647 0.50944 0.0
C349 C 0.40846 0.02359 0.52108 0.0
C350 C 0.42108 0.02767 0.53736 0.0
C351 C 0.43644 0.01493 0.54194 0.0
C352 C 0.49399 0.97897 0.57517 0.0
C353 C 0.49197 0.99654 0.58647 0.0
C354 C 0.50378 1.00028 0.60328 0.0
C355 C 0.51782 0.9865 0.60929 0.0
C356 C 0.51972 0.96885 0.59811 0.0
C357 C 0.508 0.96516 0.58125 0.0
C358 C 0.47801 0.93735 0.5162 0.0
C359 C 0.49125 0.92298 0.52271 0.0
C360 C 0.22264 0.27447 0.63797 0.0
C361 C 0.21083 0.25697 0.63631 0.0
C362 C 0.19586 0.25361 0.6504 0.0
C363 C 0.19281 0.2674 0.66577 0.0
H364 H 0.15797 0.27849 0.71524 0.0
H365 H 0.13224 0.2734 0.74002 0.0
H366 H 0.1464 0.33128 0.7657 0.0
H367 H 0.1719 0.33657 0.74085 0.0
H368 H 0.20407 0.36544 0.71808 0.0
H369 H 0.22698 0.3937 0.72262 0.0
H370 H 0.27292 0.3608 0.69327 0.0
H371 H 0.2496 0.33302 0.68779 0.0
H372 H 0.22902 0.30152 0.65401 0.0
H373 H 0.23408 0.27774 0.62722 0.0
H374 H 0.18664 0.24018 0.64972 0.0
H375 H 0.18119 0.26426 0.67638 0.0
N376 N 0.18633 0.2972 0.6967 0.0
N377 N 0.19584 0.32702 0.71304 0.0
N378 N 0.21395 0.31583 0.68572 0.0
C379 C 0.18338 0.31084 0.71143 0.0
C380 C 0.21118 0.32959 0.7003 0.0
C381 C 0.20154 0.29964 0.68371 0.0
C382 C 0.16713 0.30793 0.72601 0.0
C383 C 0.15556 0.29021 0.72608 0.0
C384 C 0.14087 0.28722 0.74038 0.0
C385 C 0.1373 0.3019 0.7549 0.0
C386 C 0.14861 0.31974 0.75462 0.0
C387 C 0.16335 0.32271 0.7404 0.0
C388 C 0.22502 0.34697 0.70262 0.0
C389 C 0.21904 0.3643 0.71251 0.0
C390 C 0.23227 0.38049 0.71523 0.0
C391 C 0.25197 0.37962 0.70848 0.0
C392 C 0.25784 0.36227 0.6984 0.0
C393 C 0.24448 0.34623 0.69536 0.0
C394 C 0.20468 0.28488 0.66746 0.0
C395 C 0.21963 0.28821 0.65334 0.0
C396 C 0.77926 0.13323 0.71122 0.0
C397 C 0.75925 0.136 0.70647 0.0
C398 C 0.75368 0.15408 0.6983 0.0
C399 C 0.76789 0.16918 0.69496 0.0
H400 H 0.78157 0.21574 0.65666 0.0
H401 H 0.77621 0.24103 0.63204 0.0
H402 H 0.83343 0.26816 0.6461 0.0
H403 H 0.83901 0.24269 0.67061 0.0
H404 H 0.86851 0.21824 0.70128 0.0
H405 H 0.89621 0.22226 0.72436 0.0
H406 H 0.86257 0.19 0.76837 0.0
H407 H 0.83546 0.18504 0.74486 0.0
H408 H 0.80868 0.14606 0.71239 0.0
H409 H 0.78386 0.11945 0.71764 0.0
H410 H 0.73831 0.15651 0.69451 0.0
H411 H 0.76315 0.18301 0.68874 0.0
N412 N 0.80017 0.19683 0.68348 0.0
N413 N 0.83003 0.21301 0.69309 0.0
N414 N 0.81898 0.18437 0.70954 0.0
C415 C 0.8138 0.21187 0.68105 0.0
C416 C 0.83266 0.19938 0.70743 0.0
C417 C 0.80276 0.18295 0.69757 0.0
C418 C 0.81072 0.22713 0.66573 0.0
C419 C 0.79308 0.22703 0.65452 0.0
C420 C 0.78993 0.24163 0.64045 0.0
C421 C 0.80435 0.25669 0.63716 0.0
C422 C 0.82209 0.25667 0.64815 0.0
C423 C 0.82523 0.24211 0.6623 0.0
C424 C 0.84978 0.20134 0.72123 0.0
C425 C 0.86713 0.21191 0.71585 0.0
C426 C 0.88297 0.21432 0.72919 0.0
C427 C 0.88172 0.2066 0.74842 0.0
C428 C 0.86436 0.19587 0.75366 0.0
C429 C 0.84869 0.19312 0.74018 0.0
C430 C 0.78785 0.16664 0.70019 0.0
C431 C 0.79339 0.14849 0.70832 0.0
C432 C 0.49604 0.54644 0.6018 0.0
C433 C 0.49825 0.52878 0.61231 0.0
C434 C 0.51296 0.51558 0.60633 0.0
C435 C 0.52519 0.51994 0.59022 0.0
H436 H 0.57858 0.50515 0.56519 0.0
H437 H 0.60681 0.48449 0.55815 0.0
H438 H 0.61572 0.51442 0.5027 0.0
H439 H 0.58782 0.5355 0.50997 0.0
H440 H 0.56571 0.57701 0.50421 0.0
H441 H 0.55769 0.60433 0.48256 0.0
H442 H 0.50221 0.61153 0.51315 0.0
H443 H 0.51006 0.58417 0.53473 0.0
H444 H 0.50596 0.56443 0.57778 0.0
H445 H 0.48472 0.55682 0.60593 0.0
H446 H 0.51517 0.50195 0.61425 0.0
H447 H 0.53636 0.5094 0.58607 0.0
N448 N 0.5517 0.53072 0.55826 0.0
N449 N 0.55918 0.55007 0.53059 0.0
N450 N 0.53167 0.5574 0.55028 0.0
C451 C 0.56351 0.53463 0.54246 0.0
C452 C 0.54328 0.56154 0.53439 0.0
C453 C 0.53577 0.54202 0.56231 0.0
C454 C 0.58083 0.52205 0.53816 0.0
C455 C 0.58654 0.50738 0.55148 0.0
C456 C 0.60271 0.49541 0.54739 0.0
C457 C 0.61357 0.49769 0.52982 0.0
C458 C 0.60791 0.5124 0.51652 0.0
C459 C 0.59179 0.52444 0.52065 0.0
C460 C 0.53854 0.57831 0.52126 0.0
C461 C 0.55178 0.58438 0.50635 0.0
C462 C 0.54725 0.60014 0.49399 0.0
C463 C 0.5293 0.6101 0.49612 0.0
C464 C 0.51606 0.60403 0.51098 0.0
C465 C 0.52064 0.58839 0.52344 0.0
C466 C 0.52291 0.53753 0.57958 0.0
C467 C 0.50816 0.55072 0.58558 0.0
C468 C 0.53691 0.4218 0.03171 0.0
C469 C 0.52091 0.40849 0.02764 0.0
C470 C 0.50924 0.4115 0.0107 0.0
C471 C 0.51356 0.42732 0.99807 0.0
H472 H 0.49287 0.45625 0.94902 0.0
H473 H 0.47236 0.46161 0.92001 0.0
H474 H 0.51471 0.50601 0.89977 0.0
H475 H 0.53507 0.50102 0.92904 0.0
H476 H 0.57913 0.50306 0.95141 0.0
H477 H 0.6097 0.52277 0.95725 0.0
H478 H 0.60596 0.51097 0.01969 0.0
H479 H 0.5756 0.49091 0.0139 0.0
H480 H 0.55386 0.44733 0.02264 0.0
H481 H 0.54638 0.4198 0.04446 0.0
H482 H 0.49666 0.40168 0.00724 0.0
H483 H 0.50429 0.42907 0.98512 0.0
N484 N 0.52342 0.46008 0.97203 0.0
N485 N 0.54512 0.486 0.96246 0.0
N486 N 0.5514 0.46852 0.99146 0.0
C487 C 0.52839 0.47467 0.95909 0.0
C488 C 0.55665 0.48307 0.97865 0.0
C489 C 0.53487 0.45687 0.98824 0.0
C490 C 0.51574 0.47812 0.94143 0.0
C491 C 0.49785 0.4672 0.93844 0.0
C492 C 0.48609 0.47021 0.92171 0.0
C493 C 0.49189 0.48419 0.90745 0.0
C494 C 0.50964 0.4953 0.91054 0.0
C495 C 0.52141 0.49231 0.92731 0.0
C496 C 0.57494 0.49539 0.98219 0.0
C497 C 0.58479 0.50468 0.96639 0.0
C498 C 0.60233 0.51587 0.9697 0.0
C499 C 0.61015 0.51834 0.98891 0.0
C500 C 0.60018 0.50934 0.00475 0.0
C501 C 0.58286 0.4978 1.0014 0.0
C502 C 0.52973 0.44049 1.00201 0.0
C503 C 0.54127 0.43756 0.01907 0.0
C504 C 0.71271 0.23244 0.38064 0.0
C505 C 0.70757 0.25233 0.37824 0.0
C506 C 0.69957 0.25819 0.36011 0.0
C507 C 0.6968 0.2444 0.34458 0.0
H508 H 0.66719 0.23474 0.29032 0.0
H509 H 0.64096 0.23959 0.26595 0.0
H510 H 0.64015 0.1769 0.25137 0.0
H511 H 0.6667 0.17199 0.27552 0.0
H512 H 0.71505 0.15556 0.28139 0.0
H513 H 0.74001 0.1304 0.27692 0.0
H514 H 0.76508 0.14598 0.33419 0.0
H515 H 0.74001 0.17097 0.33886 0.0
H516 H 0.71475 0.20354 0.36707 0.0
H517 H 0.71903 0.22766 0.39448 0.0
H518 H 0.69553 0.27348 0.35796 0.0
H519 H 0.69071 0.2494 0.33072 0.0
N520 N 0.68649 0.21296 0.31565 0.0
N521 N 0.6969 0.1844 0.29868 0.0
N522 N 0.71259 0.19462 0.32836 0.0
C523 C 0.68452 0.2 0.30009 0.0
C524 C 0.71109 0.18168 0.3127 0.0
C525 C 0.70035 0.21027 0.32993 0.0
C526 C 0.66902 0.20296 0.28487 0.0
C527 C 0.66149 0.22198 0.28188 0.0
C528 C 0.64655 0.2248 0.26787 0.0
C529 C 0.63854 0.20862 0.25683 0.0
C530 C 0.64603 0.1896 0.25978 0.0
C531 C 0.66128 0.18683 0.27351 0.0
C532 C 0.72549 0.16544 0.31046 0.0
C533 C 0.72576 0.15357 0.29313 0.0
C534 C 0.74018 0.1392 0.29049 0.0
C535 C 0.75464 0.13626 0.30513 0.0
C536 C 0.75407 0.14775 0.32267 0.0
C537 C 0.73972 0.16218 0.32529 0.0
C538 C 0.70244 0.22459 0.34673 0.0
C539 C 0.71038 0.21873 0.36494 0.0
C540 C 0.50872 0.09824 0.01133 0.0
C541 C 0.49304 0.10814 0.02044 0.0
C542 C 0.47369 0.10001 0.01864 0.0
C543 C 0.47008 0.08227 0.00797 0.0
H544 H 0.4317 0.03255 0.00549 0.0
H545 H 0.40146 0.01267 0.01049 0.0
H546 H 0.41985 0.97094 0.96537 0.0
H547 H 0.44985 0.99096 0.96002 0.0
H548 H 0.48514 0.00383 0.93118 0.0
H549 H 0.50561 0.99818 0.90207 0.0
H550 H 0.54698 0.04427 0.9225 0.0
H551 H 0.52641 0.05026 0.9513 0.0
H552 H 0.51744 0.07352 0.99329 0.0
H553 H 0.52376 0.10425 0.01245 0.0
H554 H 0.46136 0.10731 0.02564 0.0
H555 H 0.45499 0.07641 0.00682 0.0
N556 N 0.46527 0.04262 0.98981 0.0
N557 N 0.4741 0.02107 0.96385 0.0
N558 N 0.49439 0.04893 0.97187 0.0
C559 C 0.46138 0.02597 0.97862 0.0
C560 C 0.49064 0.03247 0.96036 0.0
C561 C 0.48178 0.05413 0.98658 0.0
C562 C 0.44324 0.01349 0.98223 0.0
C563 C 0.42936 0.01911 0.99664 0.0
C564 C 0.41204 0.00763 0.99963 0.0
C565 C 0.40815 0.99023 0.98829 0.0
C566 C 0.42219 0.98442 0.97415 0.0
C567 C 0.43949 0.9959 0.97114 0.0
C568 C 0.50394 0.02768 0.94354 0.0
C569 C 0.49868 0.01267 0.92957 0.0
C570 C 0.51049 0.00933 0.9129 0.0
C571 C 0.52785 0.0209 0.90981 0.0
C572 C 0.5335 0.03536 0.92418 0.0
C573 C 0.5217 0.03873 0.94078 0.0
C574 C 0.48571 0.07251 0.99854 0.0
C575 C 0.50507 0.08071 1.00031 0.0
Mn576 Mn 0.2535 0.8762 0.00981 0.0
Mn577 Mn 0.25082 0.89239 0.96287 0.0
C578 C 0.2378 0.85688 0.98532 0.0
C579 C 0.26888 0.85882 0.03502 0.0
C580 C 0.22477 0.90781 0.99578 0.0
O581 O 0.27532 0.8979 0.00941 0.0
O582 O 0.27216 0.90727 0.97768 0.0
C583 C 0.2897 0.87837 0.94897 0.0
N584 N 0.26959 0.87853 0.94706 0.0
C585 C 0.27043 0.85706 0.91826 0.0
C586 C 0.29116 0.85675 0.91985 0.0
C587 C 0.30082 0.86741 0.93532 0.0
C588 C 0.26013 0.8682 0.93234 0.0
H589 H 0.2972 0.88654 0.96082 0.0
C590 C 0.28052 0.90861 0.99475 0.0
O591 O 0.25641 0.8727 0.03889 0.0
O592 O 0.27306 0.85563 0.01653 0.0
N593 N 0.23099 0.87904 0.94678 0.0
C594 C 0.21088 0.88025 0.94776 0.0
C595 C 0.19897 0.87015 0.93353 0.0
C596 C 0.20787 0.85904 0.91836 0.0
C597 C 0.2286 0.85816 0.91755 0.0
C598 C 0.2397 0.8686 0.93209 0.0
H599 H 0.20396 0.88876 0.95938 0.0
O600 O 0.23331 0.85439 0.00378 0.0
O601 O 0.25103 0.8707 0.9818 0.0
O602 O 0.23206 0.89726 0.00938 0.0
O603 O 0.23062 0.9071 0.97784 0.0
C604 C 0.23867 0.84719 0.90299 0.0
C605 C 0.25957 0.84658 0.90338 0.0
H606 H 0.29979 0.8483 0.90936 0.0
H607 H 0.31681 0.86718 0.93669 0.0
H608 H 0.18298 0.87088 0.93427 0.0
H609 H 0.19863 0.85116 0.90749 0.0
H610 H 0.23048 0.83895 0.89156 0.0
H611 H 0.26713 0.83787 0.89226 0.0
Mn612 Mn 0.13877 0.50296 0.25546 0.0
Mn613 Mn 0.12174 0.54977 0.25502 0.0
C614 C 0.15756 0.52837 0.24152 0.0
C615 C 0.15637 0.47745 0.26992 0.0
C616 C 0.10664 0.51706 0.22697 0.0
O617 O 0.11713 0.50217 0.27657 0.0
O618 O 0.10773 0.53409 0.27563 0.0
C619 C 0.13646 0.56361 0.29437 0.0
N620 N 0.13568 0.56584 0.27439 0.0
C621 C 0.15651 0.59543 0.27641 0.0
C622 C 0.15743 0.59352 0.29702 0.0
C623 C 0.1474 0.57752 0.30602 0.0
C624 C 0.1453 0.58117 0.26557 0.0
H625 H 0.12882 0.5513 0.30134 0.0
C626 C 0.10661 0.51654 0.28273 0.0
O627 O 0.14266 0.47378 0.25673 0.0
O628 O 0.15931 0.4959 0.27537 0.0
N629 N 0.13419 0.56663 0.23592 0.0
C630 C 0.13273 0.56569 0.2158 0.0
C631 C 0.14243 0.58029 0.2045 0.0
C632 C 0.1534 0.59577 0.21397 0.0
C633 C 0.1545 0.59655 0.23469 0.0
C634 C 0.1444 0.58166 0.24519 0.0
H635 H 0.12434 0.55382 0.20843 0.0
O636 O 0.16033 0.51001 0.23634 0.0
O637 O 0.14385 0.53134 0.25462 0.0
O638 O 0.11789 0.5036 0.2333 0.0
O639 O 0.10673 0.5347 0.23425 0.0
C640 C 0.16558 0.61127 0.24533 0.0
C641 C 0.1666 0.61069 0.26616 0.0
H642 H 0.16594 0.60415 0.30605 0.0
H643 H 0.14812 0.57589 0.32191 0.0
H644 H 0.14153 0.57957 0.18851 0.0
H645 H 0.16104 0.60688 0.2052 0.0
H646 H 0.17363 0.6229 0.2376 0.0
H647 H 0.17541 0.62192 0.27415 0.0
Mn648 Mn 0.75922 0.62901 0.00421 0.0
Mn649 Mn 0.71644 0.64358 0.9833 0.0
C650 C 0.73074 0.60895 0.00607 0.0
C651 C 0.78963 0.61305 0.00277 0.0
C652 C 0.73301 0.66113 0.02187 0.0
O653 O 0.7685 0.65097 0.98543 0.0
O654 O 0.73939 0.6571 0.97039 0.0
C655 C 0.72124 0.62585 0.94327 0.0
N656 N 0.71039 0.62793 0.96009 0.0
C657 C 0.68414 0.60661 0.94688 0.0
C658 C 0.69492 0.60443 0.92932 0.0
C659 C 0.71359 0.61402 0.92755 0.0
C660 C 0.6925 0.61863 0.96202 0.0
H661 H 0.73563 0.63311 0.9419 0.0
C662 C 0.7582 0.65968 0.97238 0.0
O663 O 0.78628 0.62694 0.01578 0.0
O664 O 0.77553 0.60888 0.99009 0.0
N665 N 0.69298 0.63151 0.99419 0.0
C666 C 0.6851 0.63407 0.01257 0.0
C667 C 0.66675 0.62488 0.01703 0.0
C668 C 0.65661 0.61331 1.00253 0.0
C669 C 0.66493 0.61102 0.98368 0.0
C670 C 0.68321 0.62064 0.98005 0.0
H671 H 0.69278 0.64301 0.02375 0.0
O672 O 0.74513 0.607 0.01864 0.0
O673 O 0.73346 0.62246 0.99278 0.0
O674 O 0.74778 0.64979 0.02307 0.0
O675 O 0.72085 0.66046 0.00731 0.0
C676 C 0.65601 0.59924 0.96849 0.0
C677 C 0.66563 0.597 0.95012 0.0
H678 H 0.68912 0.59524 0.9172 0.0
H679 H 0.72207 0.61227 0.9141 0.0
H680 H 0.66045 0.62669 0.03162 0.0
H681 H 0.64253 0.60614 0.00607 0.0
H682 H 0.64193 0.59154 0.9709 0.0
H683 H 0.6588 0.58761 0.93868 0.0
Mn684 Mn 0.87613 0.00999 0.25874 0.0
Mn685 Mn 0.89218 0.96296 0.25498 0.0
C686 C 0.85731 0.98569 0.24207 0.0
C687 C 0.8584 0.035 0.27457 0.0
C688 C 0.90862 0.9966 0.23011 0.0
O689 O 0.89715 0.00928 0.28066 0.0
O690 O 0.90612 0.97734 0.27714 0.0
C691 C 0.87608 0.94798 0.29277 0.0
N692 N 0.87725 0.94658 0.27268 0.0
C693 C 0.85491 0.91805 0.2718 0.0
C694 C 0.85357 0.91912 0.29249 0.0
C695 C 0.86417 0.93418 0.303 0.0
C696 C 0.86705 0.9322 0.26241 0.0
H697 H 0.88414 0.95958 0.30091 0.0
C698 C 0.90737 0.99445 0.28579 0.0
O699 O 0.87272 0.03913 0.26241 0.0
O700 O 0.85504 0.01635 0.27829 0.0
N701 N 0.87973 0.9473 0.23427 0.0
C702 C 0.88214 0.94871 0.21432 0.0
C703 C 0.87239 0.93484 0.20165 0.0
C704 C 0.86036 0.91961 0.2096 0.0
C705 C 0.85825 0.91836 0.23017 0.0
C706 C 0.86851 0.93247 0.24208 0.0
H707 H 0.89139 0.96036 0.20812 0.0
O708 O 0.85503 0.00432 0.23827 0.0
O709 O 0.87059 0.98188 0.25535 0.0
O710 O 0.89762 0.00999 0.23738 0.0
O711 O 0.90799 0.97859 0.23581 0.0
C712 C 0.84617 0.9038 0.23931 0.0
C713 C 0.84445 0.90369 0.26011 0.0
H714 H 0.84434 0.90855 0.30043 0.0
H715 H 0.86314 0.93515 0.31896 0.0
H716 H 0.87409 0.93591 0.18579 0.0
H717 H 0.85278 0.90902 0.19976 0.0
H718 H 0.83796 0.89277 0.23048 0.0
H719 H 0.83493 0.89258 0.26696 0.0
Mn720 Mn 0.26051 0.12809 0.50468 0.0
Mn721 Mn 0.21783 0.14309 0.48392 0.0
C722 C 0.23178 0.10828 0.50637 0.0
C723 C 0.29076 0.11184 0.50316 0.0
C724 C 0.23425 0.16004 0.52276 0.0
O725 O 0.27007 0.15018 0.4861 0.0
O726 O 0.24087 0.15685 0.47159 0.0
C727 C 0.22327 0.12608 0.44368 0.0
N728 N 0.21222 0.12775 0.46041 0.0
C729 C 0.18615 0.10672 0.44644 0.0
C730 C 0.19717 0.10489 0.42899 0.0
C731 C 0.21586 0.11452 0.42765 0.0
C732 C 0.19437 0.11829 0.46198 0.0
H733 H 0.23761 0.13349 0.44259 0.0
C734 C 0.25971 0.15928 0.47337 0.0
O735 O 0.28752 0.12566 0.51627 0.0
O736 O 0.27665 0.10792 0.49042 0.0
N737 N 0.19419 0.13089 0.49425 0.0
C738 C 0.18567 0.13375 0.51229 0.0
C739 C 0.16705 0.12483 0.51618 0.0
C740 C 0.15723 0.11335 0.50139 0.0
C741 C 0.16614 0.11092 0.48283 0.0
C742 C 0.18473 0.12011 0.47983 0.0
H743 H 0.19302 0.14274 0.52365 0.0
O744 O 0.24614 0.10604 0.5189 0.0
O745 O 0.2347 0.12184 0.4932 0.0
O746 O 0.24915 0.14882 0.52368 0.0
O747 O 0.22198 0.15949 0.50828 0.0
C748 C 0.15732 0.09967 0.46721 0.0
C749 C 0.16738 0.09746 0.44907 0.0
H750 H 0.19148 0.09604 0.41658 0.0
H751 H 0.2245 0.1131 0.41428 0.0
H752 H 0.16024 0.12684 0.53052 0.0
H753 H 0.1429 0.10646 0.50445 0.0
H754 H 0.14292 0.09243 0.46907 0.0
H755 H 0.16058 0.0885 0.43728 0.0
Mn756 Mn 0.3769 0.50904 0.75716 0.0
Mn757 Mn 0.39175 0.46164 0.75242 0.0
C758 C 0.35697 0.48527 0.741 0.0
C759 C 0.36007 0.5344 0.77342 0.0
C760 C 0.4083 0.49522 0.72757 0.0
O761 O 0.39847 0.50762 0.7785 0.0
O762 O 0.40655 0.47548 0.77436 0.0
C763 C 0.37677 0.44617 0.79046 0.0
N764 N 0.37721 0.44514 0.77033 0.0
C765 C 0.35485 0.41663 0.76971 0.0
C766 C 0.35425 0.41733 0.79045 0.0
C767 C 0.36524 0.43218 0.80086 0.0
C768 C 0.36671 0.43089 0.76016 0.0
H769 H 0.38514 0.45761 0.79853 0.0
C770 C 0.40845 0.49246 0.78319 0.0
O771 O 0.37426 0.53825 0.76104 0.0
O772 O 0.35644 0.51581 0.77723 0.0
N773 N 0.37832 0.44656 0.73188 0.0
C774 C 0.37956 0.4487 0.7119 0.0
C775 C 0.36891 0.43539 0.69933 0.0
C776 C 0.35722 0.41998 0.70741 0.0
C777 C 0.35632 0.41798 0.728 0.0
C778 C 0.36737 0.4316 0.73979 0.0
H779 H 0.38848 0.46054 0.70561 0.0
O780 O 0.35513 0.50398 0.73726 0.0
O781 O 0.37059 0.48104 0.75378 0.0
O782 O 0.39781 0.50878 0.73523 0.0
O783 O 0.40732 0.47715 0.73303 0.0
C784 C 0.34455 0.40328 0.7373 0.0
C785 C 0.34381 0.40261 0.75814 0.0
H786 H 0.34527 0.40664 0.79852 0.0
H787 H 0.36477 0.43288 0.81686 0.0
H788 H 0.36965 0.43706 0.68345 0.0
H789 H 0.34886 0.40988 0.69767 0.0
H790 H 0.33577 0.39262 0.72857 0.0
H791 H 0.33448 0.39143 0.76511 0.0
Mn792 Mn 0.75482 0.37475 0.50902 0.0
Mn793 Mn 0.75215 0.39194 0.46248 0.0
C794 C 0.7391 0.35578 0.48421 0.0
C795 C 0.77048 0.35724 0.53398 0.0
C796 C 0.72694 0.40733 0.49624 0.0
O797 O 0.77652 0.39672 0.50882 0.0
O798 O 0.77495 0.405 0.47663 0.0
C799 C 0.78935 0.37619 0.44609 0.0
N800 N 0.76926 0.37766 0.44522 0.0
C801 C 0.76752 0.35832 0.41496 0.0
C802 C 0.78821 0.35676 0.41542 0.0
C803 C 0.79915 0.36564 0.43112 0.0
C804 C 0.75856 0.36898 0.43031 0.0
H805 H 0.79781 0.38298 0.45813 0.0
C806 C 0.78293 0.40639 0.49387 0.0
O807 O 0.75785 0.37093 0.53799 0.0
O808 O 0.77465 0.35427 0.51545 0.0
N809 N 0.73087 0.3801 0.44717 0.0
C810 C 0.71093 0.38162 0.4498 0.0
C811 C 0.6978 0.37262 0.43594 0.0
C812 C 0.70529 0.36237 0.41944 0.0
C813 C 0.72586 0.36111 0.417 0.0
C814 C 0.73822 0.37028 0.43134 0.0
H815 H 0.7051 0.38958 0.46239 0.0
O816 O 0.7348 0.35286 0.50266 0.0
O817 O 0.75221 0.36978 0.4809 0.0
O818 O 0.73311 0.39542 0.50921 0.0
O819 O 0.73357 0.40762 0.47859 0.0
C820 C 0.73458 0.35091 0.40104 0.0
C821 C 0.75539 0.34947 0.40005 0.0
H822 H 0.79582 0.34862 0.40392 0.0
H823 H 0.81511 0.36439 0.43165 0.0
H824 H 0.68195 0.37362 0.43795 0.0
H825 H 0.69512 0.35541 0.4088 0.0
H826 H 0.7254 0.34379 0.38965 0.0
H827 H 0.7619 0.34123 0.38791 0.0
Mn828 Mn 0.63948 0.00438 0.75641 0.0
Mn829 Mn 0.62147 0.05073 0.75505 0.0
C830 C 0.65758 0.02985 0.74156 0.0
C831 C 0.65785 0.97967 0.77138 0.0
C832 C 0.60673 0.01713 0.72793 0.0
O833 O 0.61814 0.00361 0.77786 0.0
O834 O 0.60802 0.0352 0.77605 0.0
C835 C 0.63606 0.06579 0.79403 0.0
N836 N 0.63504 0.06758 0.77401 0.0
C837 C 0.65385 0.09848 0.77538 0.0
C838 C 0.65502 0.09703 0.79602 0.0
C839 C 0.64616 0.08056 0.80537 0.0
C840 C 0.64365 0.08327 0.76485 0.0
H841 H 0.62919 0.0532 0.80128 0.0
C842 C 0.60731 0.01788 0.78366 0.0
O843 O 0.64396 0.97532 0.75856 0.0
O844 O 0.66055 0.99833 0.7761 0.0
N845 N 0.63328 0.06751 0.73554 0.0
C846 C 0.63188 0.06601 0.71544 0.0
C847 C 0.64064 0.08093 0.7038 0.0
C848 C 0.65046 0.09734 0.71294 0.0
C849 C 0.65151 0.09865 0.73365 0.0
C850 C 0.64261 0.08329 0.74447 0.0
H851 H 0.62422 0.0535 0.70835 0.0
O852 O 0.6606 0.01142 0.73678 0.0
O853 O 0.64401 0.03286 0.7548 0.0
O854 O 0.61819 0.00397 0.73452 0.0
O855 O 0.6067 0.03493 0.73473 0.0
C856 C 0.66123 0.11448 0.74397 0.0
C857 C 0.66255 0.11432 0.76481 0.0
H858 H 0.66279 0.1084 0.80482 0.0
H859 H 0.64706 0.0793 0.82129 0.0
H860 H 0.63977 0.0798 0.68783 0.0
H861 H 0.65723 0.1088 0.70392 0.0
H862 H 0.66803 0.1267 0.736 0.0
H863 H 0.67042 0.12638 0.77255 0.0
Mn864 Mn 0.00807 0.25362 0.87458 0.0
Mn865 Mn 0.96076 0.24821 0.89026 0.0
C866 C 0.98444 0.23715 0.85491 0.0
C867 C 0.03339 0.27036 0.85757 0.0
C868 C 0.99438 0.22389 0.90601 0.0
O869 O 0.00647 0.27504 0.89636 0.0
O870 O 0.97433 0.27059 0.90493 0.0
C871 C 0.94497 0.28604 0.87599 0.0
N872 N 0.94418 0.2658 0.87621 0.0
C873 C 0.91594 0.26453 0.85427 0.0
C874 C 0.91638 0.28536 0.8539 0.0
C875 C 0.93098 0.29616 0.86478 0.0
C876 C 0.93017 0.25526 0.86582 0.0
H877 H 0.95621 0.29441 0.88427 0.0
C878 C 0.99127 0.27967 0.90657 0.0
O879 O 0.0372 0.25792 0.87147 0.0
O880 O 0.01485 0.27391 0.8543 0.0
N881 N 0.94603 0.22723 0.87691 0.0
C882 C 0.94846 0.20723 0.8778 0.0
C883 C 0.9355 0.1943 0.86713 0.0
C884 C 0.92014 0.20205 0.85574 0.0
C885 C 0.91784 0.22268 0.85517 0.0
C886 C 0.93112 0.23483 0.86623 0.0
H887 H 0.96029 0.20119 0.88646 0.0
O888 O 0.00312 0.23358 0.85269 0.0
O889 O 0.98018 0.24988 0.86879 0.0
O890 O 0.00786 0.23165 0.89521 0.0
O891 O 0.97633 0.22912 0.90544 0.0
C892 C 0.90318 0.23167 0.84371 0.0
C893 C 0.90223 0.25258 0.84326 0.0
H894 H 0.90572 0.29322 0.84516 0.0
H895 H 0.93148 0.31224 0.86449 0.0
H896 H 0.93741 0.17839 0.8676 0.0
H897 H 0.91031 0.19204 0.84735 0.0
H898 H 0.89277 0.22266 0.83493 0.0
H899 H 0.89108 0.25933 0.83416 0.0
Mn900 Mn 0.50908 0.75315 0.37489 0.0
Mn901 Mn 0.46181 0.74877 0.39099 0.0
C902 C 0.4849 0.73752 0.35528 0.0
C903 C 0.53475 0.76937 0.35795 0.0
C904 C 0.49488 0.72333 0.40604 0.0
O905 O 0.50819 0.77439 0.39687 0.0
O906 O 0.47609 0.77058 0.40588 0.0
C907 C 0.44697 0.78726 0.3774 0.0
N908 N 0.44561 0.76703 0.37736 0.0
C909 C 0.41714 0.76684 0.35574 0.0
C910 C 0.41817 0.78768 0.35564 0.0
C911 C 0.43317 0.79792 0.36649 0.0
C912 C 0.43122 0.75702 0.36699 0.0
H913 H 0.45852 0.7952 0.38565 0.0
C914 C 0.49325 0.77923 0.40735 0.0
O915 O 0.53826 0.75666 0.37168 0.0
O916 O 0.51631 0.77348 0.35479 0.0
N917 N 0.4464 0.72837 0.3775 0.0
C918 C 0.44827 0.70828 0.3781 0.0
C919 C 0.43484 0.69585 0.36742 0.0
C920 C 0.41958 0.70419 0.35633 0.0
C921 C 0.41787 0.7249 0.35606 0.0
C922 C 0.4316 0.73654 0.36711 0.0
H923 H 0.46001 0.70179 0.38653 0.0
O924 O 0.50345 0.73347 0.35285 0.0
O925 O 0.48107 0.75022 0.36934 0.0
O926 O 0.50844 0.73095 0.39526 0.0
O927 O 0.47697 0.729 0.40572 0.0
C928 C 0.40335 0.73447 0.34491 0.0
C929 C 0.40299 0.75542 0.34475 0.0
H930 H 0.40764 0.79596 0.34714 0.0
H931 H 0.43412 0.814 0.36641 0.0
H932 H 0.43629 0.67988 0.36766 0.0
H933 H 0.40939 0.69457 0.34794 0.0
H934 H 0.3926 0.72586 0.33614 0.0
H935 H 0.39195 0.76261 0.33587 0.0
Mn936 Mn 0.00865 0.75598 0.62968 0.0
Mn937 Mn 0.9877 0.71269 0.64494 0.0
C938 C 0.01094 0.72741 0.61022 0.0
C939 C 0.00689 0.78623 0.61327 0.0
C940 C 0.02619 0.73036 0.66202 0.0
O941 O 0.98954 0.76489 0.65134 0.0
O942 O 0.97454 0.73542 0.6581 0.0
C943 C 0.94766 0.71636 0.62743 0.0
N944 N 0.96459 0.70599 0.6295 0.0
C945 C 0.95173 0.67943 0.60842 0.0
C946 C 0.93408 0.68974 0.60622 0.0
C947 C 0.93207 0.70831 0.61571 0.0
C948 C 0.96672 0.68816 0.62034 0.0
H949 H 0.9461 0.73067 0.63463 0.0
C950 C 0.9764 0.75435 0.66026 0.0
O951 O 0.01995 0.78346 0.62704 0.0
O952 O 0.99443 0.7716 0.60942 0.0
N953 N 0.99882 0.68944 0.63319 0.0
C954 C 0.01725 0.68205 0.63578 0.0
C955 C 0.02193 0.66386 0.6267 0.0
C956 C 0.00759 0.65338 0.61521 0.0
C957 C 0.98867 0.6612 0.6129 0.0
C958 C 0.98482 0.67933 0.6224 0.0
H959 H 0.02832 0.68999 0.64464 0.0
O960 O 0.02346 0.74218 0.60801 0.0
O961 O 0.99742 0.72983 0.62363 0.0
O962 O 0.02745 0.74519 0.65056 0.0
O963 O 0.01163 0.71781 0.66156 0.0
C964 C 0.97363 0.65192 0.60119 0.0
C965 C 0.95519 0.66105 0.59892 0.0
H966 H 0.92205 0.68363 0.59712 0.0
H967 H 0.91855 0.71642 0.61397 0.0
H968 H 0.03657 0.65794 0.62852 0.0
H969 H 0.01131 0.63944 0.60809 0.0
H970 H 0.97622 0.63794 0.59357 0.0
H971 H 0.94387 0.65394 0.58961 0.0
Mn972 Mn 0.50731 0.257 0.12959 0.0
Mn973 Mn 0.48692 0.21307 0.14393 0.0
C974 C 0.50982 0.22882 0.10954 0.0
C975 C 0.50553 0.28754 0.1137 0.0
C976 C 0.52533 0.23063 0.16115 0.0
O977 O 0.48805 0.26536 0.15129 0.0
O978 O 0.47408 0.23542 0.15808 0.0
C979 C 0.44656 0.21743 0.12738 0.0
N980 N 0.46345 0.2069 0.12883 0.0
C981 C 0.44991 0.18084 0.10756 0.0
C982 C 0.4323 0.19131 0.10599 0.0
C983 C 0.43065 0.20972 0.11588 0.0
C984 C 0.46525 0.18924 0.11926 0.0
H985 H 0.44526 0.23161 0.13491 0.0
C986 C 0.47545 0.25436 0.16041 0.0
O987 O 0.51849 0.28459 0.12752 0.0
O988 O 0.49316 0.27293 0.10952 0.0
N989 N 0.49765 0.19009 0.13129 0.0
C990 C 0.5161 0.18255 0.13322 0.0
C991 C 0.5204 0.16444 0.12376 0.0
C992 C 0.50568 0.1542 0.11255 0.0
C993 C 0.48679 0.16222 0.11083 0.0
C994 C 0.48331 0.18025 0.12071 0.0
H995 H 0.52749 0.19034 0.14179 0.0
O996 O 0.52232 0.24368 0.10774 0.0
O997 O 0.49627 0.23085 0.12298 0.0
O998 O 0.52606 0.24606 0.15046 0.0
O999 O 0.51122 0.21759 0.16011 0.0
C1000 C 0.4714 0.15325 0.09934 0.0
C1001 C 0.453 0.16258 0.09766 0.0
H1002 H 0.42002 0.18546 0.09707 0.0
H1003 H 0.41715 0.21796 0.11464 0.0
H1004 H 0.53505 0.1584 0.12508 0.0
H1005 H 0.50909 0.14031 0.10517 0.0
H1006 H 0.47369 0.13936 0.09144 0.0
H1007 H 0.4414 0.15572 0.08851 0.0
H1008 H 0.24093 0.77999 0.88195 0.0
H1009 H 0.18759 0.7595 0.91111 0.0
H1010 H 0.2468 0.80461 0.90802 0.0
H1011 H 0.19372 0.78378 0.93786 0.0
H1012 H 0.20122 0.84203 0.97399 0.0
H1013 H 0.19398 0.8168 0.94824 0.0
H1014 H 0.25702 0.80952 0.93991 0.0
H1015 H 0.26385 0.83559 0.96447 0.0
C1016 C 0.23054 0.78068 0.89411 0.0
C1017 C 0.21387 0.76778 0.89456 0.0
C1018 C 0.23392 0.7948 0.90919 0.0
C1019 C 0.22082 0.79629 0.92531 0.0
C1020 C 0.20401 0.78339 0.92563 0.0
C1021 C 0.20051 0.76938 0.91035 0.0
C1022 C 0.21339 0.83499 0.96647 0.0
C1023 C 0.23302 0.84109 0.97061 0.0
C1024 C 0.20932 0.8204 0.95184 0.0
C1025 C 0.22489 0.81119 0.9416 0.0
C1026 C 0.24456 0.81665 0.94681 0.0
C1027 C 0.24855 0.83151 0.96101 0.0
H1028 H 0.01033 0.51651 0.36887 0.0
H1029 H 0.0647 0.51494 0.40275 0.0
H1030 H 0.0291 0.51263 0.3383 0.0
H1031 H 0.08353 0.51127 0.37208 0.0
H1032 H 0.10919 0.48955 0.31267 0.0
H1033 H 0.08871 0.48778 0.34256 0.0
H1034 H 0.05315 0.53524 0.32089 0.0
H1035 H 0.07347 0.53708 0.29129 0.0
C1036 C 0.02627 0.51508 0.36981 0.0
C1037 C 0.03604 0.51611 0.38824 0.0
C1038 C 0.03703 0.51298 0.35229 0.0
C1039 C 0.05779 0.51168 0.35278 0.0
C1040 C 0.06752 0.51207 0.37123 0.0
C1041 C 0.05677 0.51438 0.38877 0.0
C1042 C 0.09679 0.49936 0.31418 0.0
C1043 C 0.09298 0.51348 0.29964 0.0
C1044 C 0.08518 0.49845 0.33134 0.0
C1045 C 0.06935 0.51141 0.33408 0.0
C1046 C 0.06511 0.52495 0.31916 0.0
C1047 C 0.07684 0.52605 0.30223 0.0
H1048 H 0.80197 0.72229 0.86911 0.0
H1049 H 0.80465 0.766 0.91663 0.0
H1050 H 0.79262 0.6966 0.89267 0.0
H1051 H 0.79525 0.74017 0.94026 0.0
H1052 H 0.79286 0.68187 0.97769 0.0
H1053 H 0.80748 0.70621 0.95483 0.0
H1054 H 0.76049 0.69266 0.91278 0.0
H1055 H 0.7458 0.66886 0.93544 0.0
C1056 C 0.80089 0.72634 0.88464 0.0
C1057 C 0.80397 0.74619 0.89101 0.0
C1058 C 0.79544 0.71165 0.8981 0.0
C1059 C 0.79318 0.71641 0.91827 0.0
C1060 C 0.79703 0.73607 0.92482 0.0
C1061 C 0.80223 0.75086 0.91128 0.0
C1062 C 0.7858 0.68401 0.96349 0.0
C1063 C 0.76815 0.67345 0.95841 0.0
C1064 C 0.79409 0.69798 0.95049 0.0
C1065 C 0.78513 0.70125 0.93202 0.0
C1066 C 0.76782 0.69032 0.92681 0.0
C1067 C 0.75936 0.67674 0.93988 0.0
H1068 H 0.95154 0.99277 0.406 0.0
H1069 H 0.00483 0.99023 0.37095 0.0
H1070 H 0.93192 0.99695 0.37585 0.0
H1071 H 0.98529 0.99465 0.34095 0.0
H1072 H 0.93974 0.97251 0.29328 0.0
H1073 H 0.96037 0.97298 0.32289 0.0
H1074 H 0.92645 0.02088 0.34749 0.0
H1075 H 0.90562 0.02046 0.31758 0.0
C1076 C 0.95906 0.99319 0.39188 0.0
C1077 C 0.97974 0.99109 0.39087 0.0
C1078 C 0.94786 0.9958 0.37465 0.0
C1079 C 0.95706 0.99611 0.35602 0.0
C1080 C 0.97776 0.99435 0.35507 0.0
C1081 C 0.98897 0.99195 0.37228 0.0
C1082 C 0.93675 0.98331 0.30489 0.0
C1083 C 0.92099 0.99644 0.30306 0.0
C1084 C 0.94867 0.98363 0.32183 0.0
C1085 C 0.94504 0.99694 0.33754 0.0
C1086 C 0.92952 0.01036 0.33565 0.0
C1087 C 0.91771 0.01024 0.31848 0.0
H1088 H 0.24629 0.24514 0.62102 0.0
H1089 H 0.18297 0.23566 0.61435 0.0
H1090 H 0.25181 0.22217 0.59352 0.0
H1091 H 0.18853 0.21193 0.58742 0.0
H1092 H 0.20504 0.18749 0.52623 0.0
H1093 H 0.19945 0.21066 0.55357 0.0
H1094 H 0.24961 0.18749 0.58481 0.0
H1095 H 0.25555 0.16469 0.55729 0.0
C1096 C 0.23353 0.23816 0.6137 0.0
C1097 C 0.21417 0.24236 0.6199 0.0
C1098 C 0.23671 0.22477 0.59806 0.0
C1099 C 0.22062 0.21514 0.58822 0.0
C1100 C 0.20126 0.21923 0.59449 0.0
C1101 C 0.19808 0.23266 0.61013 0.0
C1102 C 0.21493 0.18734 0.53889 0.0
C1103 C 0.23081 0.17421 0.53945 0.0
C1104 C 0.21162 0.20056 0.55467 0.0
C1105 C 0.22406 0.20098 0.57144 0.0
C1106 C 0.2399 0.18781 0.57202 0.0
C1107 C 0.24325 0.17463 0.55623 0.0
H1108 H 0.48718 0.55364 0.64256 0.0
H1109 H 0.47974 0.49326 0.62064 0.0
H1110 H 0.46601 0.54579 0.67071 0.0
H1111 H 0.45824 0.48545 0.64848 0.0
H1112 H 0.43658 0.47216 0.7104 0.0
H1113 H 0.45854 0.48051 0.68316 0.0
H1114 H 0.43255 0.53836 0.67969 0.0
H1115 H 0.41102 0.53025 0.7074 0.0
C1116 C 0.48086 0.53873 0.64367 0.0
C1117 C 0.48518 0.52406 0.62939 0.0
C1118 C 0.46867 0.53422 0.65979 0.0
C1119 C 0.46038 0.51495 0.66195 0.0
C1120 C 0.46464 0.50033 0.64756 0.0
C1121 C 0.47694 0.50481 0.63154 0.0
C1122 C 0.43557 0.4867 0.7039 0.0
C1123 C 0.42199 0.50052 0.71117 0.0
C1124 C 0.4481 0.49145 0.68814 0.0
C1125 C 0.44732 0.5101 0.67909 0.0
C1126 C 0.43381 0.52396 0.68644 0.0
C1127 C 0.42136 0.51926 0.7023 0.0
H1128 H 0.83029 0.27246 0.61004 0.0
H1129 H 0.77014 0.27665 0.63108 0.0
H1130 H 0.82403 0.29818 0.58583 0.0
H1131 H 0.76373 0.30186 0.6066 0.0
H1132 H 0.7952 0.3258 0.52992 0.0
H1133 H 0.80459 0.30237 0.55531 0.0
H1134 H 0.77264 0.33626 0.59899 0.0
H1135 H 0.76303 0.35948 0.57361 0.0
C1136 C 0.81577 0.27892 0.60956 0.0
C1137 C 0.80071 0.27246 0.62247 0.0
C1138 C 0.81213 0.29353 0.59557 0.0
C1139 C 0.79339 0.30212 0.59429 0.0
C1140 C 0.77841 0.29576 0.60733 0.0
C1141 C 0.78201 0.28111 0.62122 0.0
C1142 C 0.7904 0.32839 0.54499 0.0
C1143 C 0.77826 0.34444 0.54971 0.0
C1144 C 0.79583 0.31499 0.55956 0.0
C1145 C 0.7892 0.31732 0.57915 0.0
C1146 C 0.7777 0.33382 0.58398 0.0
C1147 C 0.77231 0.34722 0.56944 0.0
H1148 H 0.53666 0.02155 0.62012 0.0
H1149 H 0.5281 0.96075 0.63842 0.0
H1150 H 0.55784 0.02837 0.64885 0.0
H1151 H 0.54915 0.96761 0.66736 0.0
H1152 H 0.60449 0.98245 0.70574 0.0
H1153 H 0.58305 0.97482 0.67727 0.0
H1154 H 0.55629 0.03213 0.68401 0.0
H1155 H 0.57796 0.03997 0.712 0.0
C1156 C 0.53912 0.00969 0.63041 0.0
C1157 C 0.53063 0.99062 0.62698 0.0
C1158 C 0.55127 0.01359 0.64692 0.0
C1159 C 0.55518 0.99856 0.66052 0.0
C1160 C 0.5467 0.97947 0.65707 0.0
C1161 C 0.5346 0.97555 0.64049 0.0
C1162 C 0.59398 0.9934 0.7012 0.0
C1163 C 0.59306 0.01187 0.71118 0.0
C1164 C 0.58161 0.98898 0.6849 0.0
C1165 C 0.56799 0.0029 0.67822 0.0
C1166 C 0.56685 0.02119 0.68845 0.0
C1167 C 0.57923 0.02563 0.70465 0.0
H1168 H 0.90639 0.23963 0.75251 0.0
H1169 H 0.89435 0.18203 0.77797 0.0
H1170 H 0.93258 0.24594 0.77657 0.0
H1171 H 0.91941 0.18919 0.80324 0.0
H1172 H 0.97731 0.2008 0.83717 0.0
H1173 H 0.95375 0.19281 0.81026 0.0
H1174 H 0.93675 0.25435 0.80974 0.0
H1175 H 0.96087 0.26219 0.83571 0.0
C1176 C 0.90932 0.22822 0.76315 0.0
C1177 C 0.89811 0.21027 0.76313 0.0
C1178 C 0.92419 0.23202 0.77727 0.0
C1179 C 0.9281 0.21817 0.79206 0.0
C1180 C 0.91705 0.20014 0.79198 0.0
C1181 C 0.90237 0.19617 0.77762 0.0
C1182 C 0.96848 0.2125 0.83116 0.0
C1183 C 0.97028 0.23193 0.83889 0.0
C1184 C 0.95491 0.20797 0.81586 0.0
C1185 C 0.94313 0.22288 0.80785 0.0
C1186 C 0.94563 0.24246 0.81526 0.0
C1187 C 0.95921 0.24694 0.83041 0.0
H1188 H 0.49205 0.89979 0.45275 0.0
H1189 H 0.48672 0.86487 0.50558 0.0
H1190 H 0.49637 0.86937 0.43305 0.0
H1191 H 0.49133 0.83458 0.48596 0.0
H1192 H 0.4705 0.78655 0.43968 0.0
H1193 H 0.47065 0.81626 0.46068 0.0
H1194 H 0.51992 0.84093 0.42774 0.0
H1195 H 0.5198 0.81098 0.40653 0.0
C1196 C 0.49187 0.88564 0.46015 0.0
C1197 C 0.48896 0.88474 0.48072 0.0
C1198 C 0.49457 0.86825 0.44891 0.0
C1199 C 0.49419 0.84958 0.45795 0.0
C1200 C 0.49157 0.84873 0.47855 0.0
C1201 C 0.48907 0.8661 0.4898 0.0
C1202 C 0.48154 0.79819 0.437 0.0
C1203 C 0.49512 0.79639 0.42138 0.0
C1204 C 0.48168 0.81519 0.44913 0.0
C1205 C 0.49526 0.83097 0.44584 0.0
C1206 C 0.50918 0.82906 0.43052 0.0
C1207 C 0.50922 0.81185 0.4185 0.0
H1208 H 0.13012 0.26797 0.77572 0.0
H1209 H 0.11033 0.32808 0.76963 0.0
H1210 H 0.10549 0.26224 0.80143 0.0
H1211 H 0.08601 0.32251 0.79582 0.0
H1212 H 0.07305 0.26336 0.85961 0.0
H1213 H 0.09848 0.27229 0.83556 0.0
H1214 H 0.05508 0.30327 0.80146 0.0
H1215 H 0.02966 0.29455 0.82568 0.0
C1216 C 0.12047 0.27995 0.77983 0.0
C1217 C 0.12217 0.29846 0.77056 0.0
C1218 C 0.10652 0.27675 0.79477 0.0
C1219 C 0.09385 0.29196 0.80079 0.0
C1220 C 0.09547 0.31046 0.79147 0.0
C1221 C 0.10952 0.31369 0.77658 0.0
C1222 C 0.06898 0.27234 0.84715 0.0
C1223 C 0.0493 0.27817 0.84452 0.0
C1224 C 0.08353 0.27731 0.83327 0.0
C1225 C 0.07877 0.28827 0.81645 0.0
C1226 C 0.05928 0.29489 0.8143 0.0
C1227 C 0.0447 0.28987 0.82817 0.0
H1228 H 0.49385 0.61687 0.47793 0.0
H1229 H 0.55359 0.64092 0.48431 0.0
H1230 H 0.48569 0.64405 0.45621 0.0
H1231 H 0.54539 0.66836 0.4629 0.0
H1232 H 0.52988 0.70358 0.40806 0.0
H1233 H 0.5381 0.67624 0.42946 0.0
H1234 H 0.4801 0.6788 0.45618 0.0
H1235 H 0.47164 0.7057 0.43435 0.0
C1236 C 0.50519 0.62809 0.47484 0.0
C1237 C 0.52437 0.62673 0.48286 0.0
C1238 C 0.50051 0.64372 0.46241 0.0
C1239 C 0.51485 0.6585 0.45778 0.0
C1240 C 0.53404 0.65711 0.46584 0.0
C1241 C 0.53875 0.64139 0.47817 0.0
C1242 C 0.51886 0.69834 0.4185 0.0
C1243 C 0.50007 0.7069 0.41942 0.0
C1244 C 0.52363 0.6827 0.43089 0.0
C1245 C 0.50979 0.67524 0.44461 0.0
C1246 C 0.49104 0.68389 0.4456 0.0
C1247 C 0.48623 0.69946 0.43313 0.0
H1248 H 0.87078 0.79628 0.71955 0.0
H1249 H 0.91831 0.80801 0.76151 0.0
H1250 H 0.89485 0.78563 0.6949 0.0
H1251 H 0.94243 0.79729 0.73678 0.0
H1252 H 0.98019 0.79091 0.67913 0.0
H1253 H 0.95654 0.80612 0.702 0.0
H1254 H 0.91671 0.75529 0.69406 0.0
H1255 H 0.94013 0.74006 0.67162 0.0
C1256 C 0.8864 0.7969 0.72339 0.0
C1257 C 0.89264 0.8029 0.74249 0.0
C1258 C 0.90016 0.79068 0.70933 0.0
C1259 C 0.9205 0.79055 0.71396 0.0
C1260 C 0.92686 0.79734 0.73277 0.0
C1261 C 0.91305 0.80332 0.74695 0.0
C1262 C 0.96634 0.78306 0.68222 0.0
C1263 C 0.9621 0.76424 0.67358 0.0
C1264 C 0.95287 0.79173 0.69534 0.0
C1265 C 0.93476 0.78192 0.69972 0.0
C1266 C 0.93043 0.76331 0.69081 0.0
C1267 C 0.94396 0.75452 0.67803 0.0
H1268 H 0.02285 0.9061 0.56676 0.0
H1269 H 0.01046 0.86822 0.51574 0.0
H1270 H 0.01766 0.87783 0.58837 0.0
H1271 H 0.00538 0.83987 0.53734 0.0
H1272 H 0.98226 0.79573 0.58271 0.0
H1273 H 0.98404 0.82531 0.56226 0.0
H1274 H 0.03414 0.84781 0.59675 0.0
H1275 H 0.03207 0.81853 0.61739 0.0
C1276 C 0.01908 0.89172 0.56014 0.0
C1277 C 0.01719 0.88943 0.53949 0.0
C1278 C 0.01611 0.87548 0.57255 0.0
C1279 C 0.01121 0.8565 0.56463 0.0
C1280 C 0.00888 0.8543 0.544 0.0
C1281 C 0.01181 0.87057 0.53158 0.0
C1282 C 0.99353 0.8071 0.58603 0.0
C1283 C 0.00703 0.80476 0.60168 0.0
C1284 C 0.99464 0.82399 0.57421 0.0
C1285 C 0.00928 0.83895 0.57777 0.0
C1286 C 0.02251 0.83675 0.59371 0.0
C1287 C 0.02139 0.81988 0.60551 0.0
H1288 H 0.11686 0.6799 0.73721 0.0
H1289 H 0.1227 0.74325 0.74811 0.0
H1290 H 0.09031 0.68539 0.71346 0.0
H1291 H 0.09562 0.74865 0.72505 0.0
H1292 H 0.06049 0.75282 0.66736 0.0
H1293 H 0.08764 0.74719 0.69028 0.0
H1294 H 0.05624 0.69538 0.71234 0.0
H1295 H 0.02929 0.70069 0.68912 0.0
C1296 C 0.11252 0.695 0.73452 0.0
C1297 C 0.12194 0.71112 0.74463 0.0
C1298 C 0.09712 0.69814 0.72107 0.0
C1299 C 0.09074 0.71747 0.71736 0.0
C1300 C 0.10024 0.73358 0.72737 0.0
C1301 C 0.11564 0.73045 0.74081 0.0
C1302 C 0.05932 0.74022 0.67709 0.0
C1303 C 0.04261 0.72724 0.67634 0.0
C1304 C 0.07489 0.73705 0.69033 0.0
C1305 C 0.07417 0.72082 0.70319 0.0
C1306 C 0.05745 0.70787 0.70247 0.0
C1307 C 0.04189 0.71102 0.68923 0.0
H1308 H 0.02077 0.61358 0.55029 0.0
H1309 H 0.97673 0.64294 0.51576 0.0
H1310 H 0.02574 0.64358 0.57072 0.0
H1311 H 0.98237 0.67336 0.53527 0.0
H1312 H 0.97883 0.71538 0.58875 0.0
H1313 H 0.97578 0.6873 0.56572 0.0
H1314 H 0.03824 0.6762 0.5735 0.0
H1315 H 0.04077 0.70392 0.5974 0.0
C1316 C 0.01242 0.62663 0.5469 0.0
C1317 C 0.9983 0.62597 0.53157 0.0
C1318 C 0.01533 0.64391 0.5585 0.0
C1319 C 0.00445 0.66105 0.55477 0.0
C1320 C 0.99073 0.66042 0.53897 0.0
C1321 C 0.98755 0.64303 0.52766 0.0
C1322 C 0.99182 0.70676 0.58559 0.0
C1323 C 0.00979 0.71111 0.59542 0.0
C1324 C 0.99021 0.69084 0.57211 0.0
C1325 C 0.0067 0.67913 0.56783 0.0
C1326 C 0.02506 0.68443 0.57681 0.0
C1327 C 0.0266 0.70037 0.59039 0.0
H1328 H 0.74996 0.91225 0.23324 0.0
H1329 H 0.79087 0.88479 0.19267 0.0
H1330 H 0.77446 0.93873 0.24026 0.0
H1331 H 0.81493 0.91191 0.19912 0.0
H1332 H 0.84441 0.97588 0.20469 0.0
H1333 H 0.81857 0.95084 0.19539 0.0
H1334 H 0.80894 0.93857 0.25716 0.0
H1335 H 0.83483 0.96322 0.26629 0.0
C1336 C 0.76413 0.91179 0.2258 0.0
C1337 C 0.76844 0.89615 0.21253 0.0
C1338 C 0.7781 0.92707 0.22974 0.0
C1339 C 0.79658 0.92731 0.22027 0.0
C1340 C 0.80071 0.91215 0.2065 0.0
C1341 C 0.78686 0.89665 0.20277 0.0
C1342 C 0.83673 0.96773 0.21616 0.0
C1343 C 0.84187 0.97093 0.23611 0.0
C1344 C 0.82203 0.95346 0.21089 0.0
C1345 C 0.81184 0.94277 0.22557 0.0
C1346 C 0.8165 0.94666 0.24556 0.0
C1347 C 0.8314 0.96059 0.25077 0.0
H1348 H 0.77586 0.12969 0.27139 0.0
H1349 H 0.76961 0.1099 0.33155 0.0
H1350 H 0.80186 0.10581 0.26584 0.0
H1351 H 0.79608 0.08631 0.32615 0.0
H1352 H 0.82621 0.03054 0.29879 0.0
H1353 H 0.80185 0.05542 0.30731 0.0
H1354 H 0.83607 0.09965 0.27562 0.0
H1355 H 0.86028 0.07474 0.26689 0.0
C1356 C 0.78 0.1202 0.28343 0.0
C1357 C 0.77057 0.12166 0.30188 0.0
C1358 C 0.7951 0.10668 0.28033 0.0
C1359 C 0.80114 0.09421 0.29559 0.0
C1360 C 0.79171 0.09563 0.31406 0.0
C1361 C 0.77665 0.10925 0.31719 0.0
C1362 C 0.82869 0.04564 0.29388 0.0
C1363 C 0.84514 0.05062 0.28206 0.0
C1364 C 0.81474 0.05992 0.29881 0.0
C1365 C 0.81689 0.07949 0.29197 0.0
C1366 C 0.83378 0.08463 0.28083 0.0
C1367 C 0.84775 0.07038 0.27596 0.0
H1368 H 0.38846 0.98099 0.02269 0.0
H1369 H 0.38485 0.97311 0.95919 0.0
H1370 H 0.35686 0.96263 0.0261 0.0
H1371 H 0.35389 0.95423 0.96264 0.0
H1372 H 0.2897 0.94002 0.97136 0.0
H1373 H 0.31997 0.96033 0.9713 0.0
H1374 H 0.34154 0.92901 0.02198 0.0
H1375 H 0.31079 0.90875 0.02231 0.0
C1376 C 0.38095 0.97535 0.00947 0.0
C1377 C 0.38922 0.97856 0.99066 0.0
C1378 C 0.36294 0.96467 0.01145 0.0
C1379 C 0.35275 0.95707 0.99465 0.0
C1380 C 0.36115 0.96014 0.97589 0.0
C1381 C 0.37909 0.97076 0.97392 0.0
C1382 C 0.30077 0.93753 0.98265 0.0
C1383 C 0.29788 0.92257 0.99672 0.0
C1384 C 0.31822 0.94913 0.98252 0.0
C1385 C 0.33338 0.94605 0.99637 0.0
C1386 C 0.33014 0.93179 0.01111 0.0
C1387 C 0.31253 0.92017 0.0113 0.0
H1388 H 0.25856 0.41536 0.31368 0.0
H1389 H 0.22195 0.36846 0.2874 0.0
H1390 H 0.23319 0.4394 0.30642 0.0
H1391 H 0.19581 0.39197 0.28132 0.0
H1392 H 0.16269 0.44162 0.25218 0.0
H1393 H 0.18662 0.41709 0.26128 0.0
H1394 H 0.2028 0.45243 0.31327 0.0
H1395 H 0.17967 0.47765 0.30321 0.0
C1396 C 0.24486 0.41022 0.30662 0.0
C1397 C 0.24218 0.39018 0.30096 0.0
C1398 C 0.23018 0.42393 0.30258 0.0
C1399 C 0.21226 0.41781 0.29318 0.0
C1400 C 0.20949 0.3975 0.2881 0.0
C1401 C 0.22438 0.38392 0.29171 0.0
C1402 C 0.17125 0.44406 0.26565 0.0
C1403 C 0.16933 0.46159 0.27695 0.0
C1404 C 0.18497 0.42987 0.271 0.0
C1405 C 0.19688 0.4326 0.28807 0.0
C1406 C 0.19435 0.4499 0.29977 0.0
C1407 C 0.18091 0.46431 0.29415 0.0
H1408 H 0.13306 0.03689 0.46101 0.0
H1409 H 0.13245 0.02354 0.52329 0.0
H1410 H 0.16271 0.05731 0.46582 0.0
H1411 H 0.16299 0.04308 0.52802 0.0
H1412 H 0.20488 0.09762 0.53454 0.0
H1413 H 0.17658 0.07445 0.53068 0.0
H1414 H 0.19568 0.06034 0.47109 0.0
H1415 H 0.2228 0.08472 0.47472 0.0
C1416 C 0.13925 0.03833 0.47579 0.0
C1417 C 0.13011 0.02871 0.49178 0.0
C1418 C 0.15657 0.04991 0.47856 0.0
C1419 C 0.16542 0.05223 0.49741 0.0
C1420 C 0.15652 0.04217 0.51334 0.0
C1421 C 0.13908 0.03065 0.51058 0.0
C1422 C 0.20285 0.08951 0.52066 0.0
C1423 C 0.21547 0.09334 0.5047 0.0
C1424 C 0.18676 0.07602 0.51844 0.0
C1425 C 0.18344 0.06551 0.50041 0.0
C1426 C 0.19711 0.06852 0.48495 0.0
C1427 C 0.2128 0.0824 0.48703 0.0
H1428 H 0.72637 0.13959 0.72911 0.0
H1429 H 0.75829 0.0972 0.69385 0.0
H1430 H 0.70199 0.11365 0.73754 0.0
H1431 H 0.73345 0.07123 0.70179 0.0
H1432 H 0.67228 0.03713 0.70479 0.0
H1433 H 0.69706 0.06278 0.6957 0.0
H1434 H 0.70106 0.08231 0.75683 0.0
H1435 H 0.6766 0.05658 0.76578 0.0
C1436 C 0.72797 0.12474 0.72298 0.0
C1437 C 0.74411 0.12035 0.71079 0.0
C1438 C 0.71404 0.10989 0.72782 0.0
C1439 C 0.71565 0.09045 0.72017 0.0
C1440 C 0.73169 0.08613 0.70772 0.0
C1441 C 0.74592 0.10091 0.70326 0.0
C1442 C 0.67847 0.04701 0.71618 0.0
C1443 C 0.67205 0.04548 0.73583 0.0
C1444 C 0.69267 0.06158 0.71104 0.0
C1445 C 0.70084 0.07471 0.72553 0.0
C1446 C 0.69477 0.0727 0.74528 0.0
C1447 C 0.6807 0.05808 0.75039 0.0
H1448 H 0.37043 0.0133 0.50955 0.0
H1449 H 0.40883 0.06437 0.52234 0.0
H1450 H 0.3429 0.03522 0.50363 0.0
H1451 H 0.38134 0.0863 0.51633 0.0
H1452 H 0.32205 0.11644 0.52877 0.0
H1453 H 0.35078 0.09555 0.53173 0.0
H1454 H 0.32993 0.05987 0.48171 0.0
H1455 H 0.30088 0.0806 0.47902 0.0
C1456 C 0.37308 0.02922 0.51083 0.0
C1457 C 0.39186 0.03704 0.51653 0.0
C1458 C 0.35728 0.04182 0.50741 0.0
C1459 C 0.35983 0.06258 0.50956 0.0
C1460 C 0.37871 0.0704 0.51487 0.0
C1461 C 0.3945 0.0578 0.51832 0.0
C1462 C 0.32366 0.10425 0.51827 0.0
C1463 C 0.30912 0.10018 0.50368 0.0
C1464 C 0.34022 0.0923 0.51992 0.0
C1465 C 0.34271 0.07594 0.507 0.0
C1466 C 0.32838 0.07215 0.49209 0.0
C1467 C 0.31179 0.08414 0.49045 0.0
H1468 H 0.61679 0.45786 0.53695 0.0
H1469 H 0.64908 0.50799 0.51245 0.0
H1470 H 0.64454 0.43659 0.52945 0.0
H1471 H 0.6767 0.48659 0.50471 0.0
H1472 H 0.71128 0.43667 0.47377 0.0
H1473 H 0.68432 0.45858 0.48223 0.0
H1474 H 0.67925 0.43141 0.53947 0.0
H1475 H 0.70611 0.40932 0.53102 0.0
C1476 C 0.62986 0.46442 0.53014 0.0
C1477 C 0.63063 0.4847 0.52532 0.0
C1478 C 0.64578 0.45219 0.52582 0.0
C1479 C 0.66285 0.45988 0.51647 0.0
C1480 C 0.66366 0.48014 0.51167 0.0
C1481 C 0.64778 0.4924 0.51608 0.0
C1482 C 0.7045 0.43537 0.48821 0.0
C1483 C 0.71094 0.42116 0.50169 0.0
C1484 C 0.68908 0.44803 0.49309 0.0
C1485 C 0.67961 0.44675 0.51152 0.0
C1486 C 0.68609 0.43264 0.52506 0.0
C1487 C 0.70159 0.42005 0.52024 0.0
H1488 H 0.73119 0.28537 0.37628 0.0
H1489 H 0.69316 0.25261 0.416 0.0
H1490 H 0.73875 0.30976 0.40247 0.0
H1491 H 0.70017 0.27756 0.44226 0.0
H1492 H 0.70247 0.33914 0.4758 0.0
H1493 H 0.69432 0.31356 0.45043 0.0
H1494 H 0.75621 0.31177 0.43438 0.0
H1495 H 0.76415 0.33713 0.4596 0.0
C1496 C 0.72429 0.28358 0.39062 0.0
C1497 C 0.71157 0.26723 0.39418 0.0
C1498 C 0.7286 0.29755 0.40562 0.0
C1499 C 0.71986 0.29579 0.42439 0.0
C1500 C 0.70693 0.27947 0.42789 0.0
C1501 C 0.703 0.26517 0.41296 0.0
C1502 C 0.71422 0.33323 0.46675 0.0
C1503 C 0.73379 0.34053 0.46906 0.0
C1504 C 0.70962 0.31856 0.45234 0.0
C1505 C 0.7246 0.31081 0.44023 0.0
C1506 C 0.74427 0.31771 0.44315 0.0
C1507 C 0.74881 0.33227 0.45752 0.0
H1508 H 0.54436 0.05053 0.88773 0.0
H1509 H 0.53744 0.98657 0.88957 0.0
H1510 H 0.56282 0.04768 0.85713 0.0
H1511 H 0.55546 0.98374 0.85827 0.0
H1512 H 0.60871 0.98996 0.81305 0.0
H1513 H 0.58903 0.9892 0.84349 0.0
H1514 H 0.55566 0.03878 0.82298 0.0
H1515 H 0.57532 0.03978 0.79306 0.0
C1516 C 0.54688 0.03582 0.88168 0.0
C1517 C 0.53945 0.01879 0.8912 0.0
C1518 C 0.55725 0.03419 0.86394 0.0
C1519 C 0.56044 0.01548 0.8551 0.0
C1520 C 0.55329 0.99836 0.86471 0.0
C1521 C 0.54282 1.0 0.88254 0.0
C1522 C 0.59696 1.00048 0.81495 0.0
C1523 C 0.59379 0.01511 0.80074 0.0
C1524 C 0.58569 1.00004 0.83238 0.0
C1525 C 0.57104 0.0142 0.83584 0.0
C1526 C 0.56718 0.02801 0.82106 0.0
C1527 C 0.57842 0.02851 0.80381 0.0
H1528 H 0.27166 0.259 0.39727 0.0
H1529 H 0.33247 0.24052 0.40021 0.0
H1530 H 0.26198 0.23307 0.41999 0.0
H1531 H 0.32246 0.21372 0.42246 0.0
H1532 H 0.29583 0.17953 0.47747 0.0
H1533 H 0.30908 0.20594 0.45614 0.0
H1534 H 0.25857 0.19736 0.41712 0.0
H1535 H 0.24531 0.17166 0.43827 0.0
C1536 C 0.28306 0.24956 0.40291 0.0
C1537 C 0.30288 0.25194 0.39683 0.0
C1538 C 0.27743 0.23445 0.41577 0.0
C1539 C 0.29138 0.22109 0.42282 0.0
C1540 C 0.31135 0.22376 0.4173 0.0
C1541 C 0.31703 0.23899 0.40439 0.0
C1542 C 0.28771 0.18321 0.46423 0.0
C1543 C 0.26936 0.17368 0.45978 0.0
C1544 C 0.29529 0.19831 0.45201 0.0
C1545 C 0.28465 0.20406 0.43515 0.0
C1546 C 0.26686 0.19376 0.43028 0.0
C1547 C 0.2593 0.17889 0.44242 0.0
H1548 H 0.47295 0.45518 0.88507 0.0
H1549 H 0.48343 0.51879 0.88827 0.0
H1550 H 0.45337 0.45885 0.85518 0.0
H1551 H 0.4644 0.52238 0.85769 0.0
H1552 H 0.41016 0.52024 0.81372 0.0
H1553 H 0.43062 0.51932 0.84374 0.0
H1554 H 0.45874 0.46675 0.82111 0.0
H1555 H 0.43824 0.46741 0.79159 0.0
C1556 C 0.47102 0.46999 0.87945 0.0
C1557 C 0.47978 0.48668 0.88916 0.0
C1558 C 0.45999 0.47207 0.86211 0.0
C1559 C 0.45745 0.4909 0.85386 0.0
C1560 C 0.46599 0.50767 0.86366 0.0
C1561 C 0.47707 0.50558 0.88108 0.0
C1562 C 0.42089 0.50865 0.81509 0.0
C1563 C 0.42236 0.49377 0.80033 0.0
C1564 C 0.43263 0.50812 0.83228 0.0
C1565 C 0.44609 0.49274 0.83502 0.0
C1566 C 0.44817 0.4785 0.81979 0.0
C1567 C 0.43645 0.47896 0.80275 0.0
H1568 H 0.74528 0.74835 0.11828 0.0
H1569 H 0.68202 0.73755 0.11293 0.0
H1570 H 0.75073 0.72515 0.09094 0.0
H1571 H 0.68753 0.71364 0.08613 0.0
H1572 H 0.70352 0.68831 0.02511 0.0
H1573 H 0.69801 0.712 0.05203 0.0
H1574 H 0.74888 0.69014 0.08312 0.0
H1575 H 0.75472 0.66679 0.05603 0.0
C1576 C 0.73251 0.74106 0.11125 0.0
C1577 C 0.71319 0.74491 0.1178 0.0
C1578 C 0.73566 0.72754 0.09572 0.0
C1579 C 0.71958 0.71746 0.08632 0.0
C1580 C 0.70025 0.72128 0.09287 0.0
C1581 C 0.6971 0.73482 0.10841 0.0
C1582 C 0.71359 0.68856 0.03765 0.0
C1583 C 0.72962 0.67562 0.0383 0.0
C1584 C 0.71033 0.70208 0.05318 0.0
C1585 C 0.72299 0.70301 0.06978 0.0
C1586 C 0.739 0.69006 0.07045 0.0
C1587 C 0.74228 0.67656 0.05492 0.0
H1588 H 0.95741 0.03767 0.11882 0.0
H1589 H 0.00748 0.01188 0.14801 0.0
H1590 H 0.93675 0.03024 0.14741 0.0
H1591 H 0.98667 0.00416 0.17642 0.0
H1592 H 0.93675 0.97356 0.21256 0.0
H1593 H 0.95817 0.98192 0.18479 0.0
H1594 H 0.93305 0.04018 0.18265 0.0
H1595 H 0.91149 0.03186 0.21034 0.0
C1596 C 0.96409 0.03058 0.13137 0.0
C1597 C 0.98416 0.02538 0.13102 0.0
C1598 C 0.95221 0.0263 0.14777 0.0
C1599 C 0.96005 0.01659 0.16419 0.0
C1600 C 0.9801 0.0114 0.16389 0.0
C1601 C 0.99202 0.01579 0.14755 0.0
C1602 C 0.93582 0.9882 0.20626 0.0
C1603 C 0.92234 1.00201 0.21376 0.0
C1604 C 0.94819 0.99302 0.19038 0.0
C1605 C 0.9473 0.01171 0.18147 0.0
C1606 C 0.93395 0.02558 0.18903 0.0
C1607 C 0.92167 0.02083 0.20501 0.0
H1608 H 0.29058 0.75329 0.10099 0.0
H1609 H 0.30475 0.79994 0.14383 0.0
H1610 H 0.2845 0.77819 0.07604 0.0
H1611 H 0.29923 0.82487 0.11869 0.0
H1612 H 0.26216 0.86162 0.07484 0.0
H1613 H 0.27134 0.83812 0.10017 0.0
H1614 H 0.30183 0.80324 0.05618 0.0
H1615 H 0.29242 0.8266 0.03078 0.0
C1616 C 0.29241 0.76887 0.10508 0.0
C1617 C 0.29808 0.77461 0.12443 0.0
C1618 C 0.28917 0.78315 0.09071 0.0
C1619 C 0.29143 0.80355 0.09534 0.0
C1620 C 0.29721 0.8093 0.11466 0.0
C1621 C 0.30055 0.795 0.12902 0.0
C1622 C 0.27103 0.84907 0.07061 0.0
C1623 C 0.27648 0.84594 0.05077 0.0
C1624 C 0.27635 0.83563 0.08516 0.0
C1625 C 0.28718 0.8187 0.08018 0.0
C1626 C 0.29321 0.81595 0.06045 0.0
C1627 C 0.28795 0.82944 0.04592 0.0
H1628 H 0.02851 0.46228 0.13627 0.0
H1629 H 0.03752 0.52317 0.11843 0.0
H1630 H 0.04928 0.46886 0.16544 0.0
H1631 H 0.05846 0.52971 0.14739 0.0
H1632 H 0.07849 0.54063 0.21086 0.0
H1633 H 0.05699 0.53334 0.18256 0.0
H1634 H 0.08299 0.47567 0.17563 0.0
H1635 H 0.10417 0.48273 0.20435 0.0
C1636 C 0.03507 0.47703 0.13849 0.0
C1637 C 0.0313 0.49221 0.12503 0.0
C1638 C 0.04701 0.48081 0.15521 0.0
C1639 C 0.05555 0.49984 0.15886 0.0
C1640 C 0.05184 0.51498 0.14531 0.0
C1641 C 0.03984 0.51122 0.12866 0.0
C1642 C 0.07961 0.52634 0.20339 0.0
C1643 C 0.09313 0.51229 0.20997 0.0
C1644 C 0.06734 0.52221 0.18702 0.0
C1645 C 0.06829 0.50395 0.17667 0.0
C1646 C 0.08166 0.4898 0.18335 0.0
C1647 C 0.0939 0.4939 0.1998 0.0
H1648 H 0.39214 0.68515 0.28007 0.0
H1649 H 0.40477 0.74265 0.25465 0.0
H1650 H 0.41804 0.69155 0.30464 0.0
H1651 H 0.43179 0.74817 0.27795 0.0
H1652 H 0.46179 0.76333 0.3366 0.0
H1653 H 0.43708 0.75629 0.311 0.0
H1654 H 0.45254 0.69429 0.31075 0.0
H1655 H 0.47672 0.70149 0.33731 0.0
C1656 C 0.40046 0.69911 0.27958 0.0
C1657 C 0.39611 0.71341 0.26532 0.0
C1658 C 0.41562 0.70263 0.29351 0.0
C1659 C 0.42709 0.7204 0.29338 0.0
C1660 C 0.4231 0.73445 0.2788 0.0
C1661 C 0.40774 0.7311 0.26512 0.0
C1662 C 0.45968 0.74816 0.33119 0.0
C1663 C 0.47048 0.73279 0.33938 0.0
C1664 C 0.44576 0.74413 0.31625 0.0
C1665 C 0.44262 0.72465 0.30878 0.0
C1666 C 0.45419 0.70938 0.31643 0.0
C1667 C 0.46811 0.71347 0.33152 0.0
H1668 H 0.95432 0.38281 0.97147 0.0
H1669 H 0.01776 0.38623 0.98084 0.0
H1670 H 0.95781 0.35253 0.9519 0.0
H1671 H 0.02116 0.35526 0.96185 0.0
H1672 H 0.01919 0.31041 0.90797 0.0
H1673 H 0.01829 0.34082 0.92834 0.0
H1674 H 0.96529 0.31839 0.95698 0.0
H1675 H 0.96592 0.28847 0.93652 0.0
C1676 C 0.96905 0.37716 0.9693 0.0
C1677 C 0.98575 0.38705 0.97775 0.0
C1678 C 0.97104 0.35959 0.95828 0.0
C1679 C 0.98976 0.35129 0.95544 0.0
C1680 C 0.00653 0.36126 0.96367 0.0
C1681 C 0.00454 0.37891 0.97473 0.0
C1682 C 0.0075 0.3119 0.91879 0.0
C1683 C 0.99251 0.29707 0.92042 0.0
C1684 C 0.00698 0.32933 0.93048 0.0
C1685 C 0.99151 0.33222 0.94408 0.0
C1686 C 0.97712 0.31694 0.9463 0.0
C1687 C 0.97757 0.29967 0.93462 0.0
H1688 H 0.61373 0.82701 0.27181 0.0
H1689 H 0.63143 0.76601 0.276 0.0
H1690 H 0.58907 0.8214 0.29766 0.0
H1691 H 0.60648 0.76028 0.30142 0.0
H1692 H 0.57412 0.76112 0.35978 0.0
H1693 H 0.59981 0.7698 0.33593 0.0
H1694 H 0.55745 0.80279 0.30251 0.0
H1695 H 0.53174 0.79429 0.32651 0.0
C1696 C 0.61239 0.81242 0.27827 0.0
C1697 C 0.62456 0.79696 0.27184 0.0
C1698 C 0.59815 0.80917 0.29297 0.0
C1699 C 0.59586 0.79042 0.30167 0.0
C1700 C 0.60803 0.77498 0.29522 0.0
C1701 C 0.62217 0.77819 0.28047 0.0
C1702 C 0.57033 0.77047 0.34751 0.0
C1703 C 0.55085 0.77695 0.34501 0.0
C1704 C 0.58503 0.7753 0.33374 0.0
C1705 C 0.58063 0.78677 0.31717 0.0
C1706 C 0.56136 0.794 0.31515 0.0
C1707 C 0.54661 0.78911 0.3289 0.0
H1708 H 0.03794 0.11616 0.95884 0.0
H1709 H 0.0106 0.14746 0.0075 0.0
H1710 H 0.02988 0.14315 0.93685 0.0
H1711 H 1.00222 0.17423 0.98535 0.0
H1712 H 0.97125 0.20623 0.93438 0.0
H1713 H 0.98007 0.17975 0.95668 0.0
H1714 H 0.03867 0.17867 0.93128 0.0
H1715 H 0.02989 0.20509 0.90885 0.0
C1716 C 0.03039 0.12885 0.96493 0.0
C1717 C 0.02494 0.12955 0.98501 0.0
C1718 C 0.02573 0.14432 0.95228 0.0
C1719 C 0.01537 0.16083 0.95933 0.0
C1720 C 0.00995 0.16159 0.97939 0.0
C1721 C 0.01473 0.14619 0.99208 0.0
C1722 C 0.98604 0.2004 0.93352 0.0
C1723 C 0.99984 0.20787 0.91977 0.0
C1724 C 0.99112 0.18527 0.94641 0.0
C1725 C 0.01008 0.17711 0.94577 0.0
C1726 C 0.02388 0.18451 0.93202 0.0
C1727 C 0.01886 0.19976 0.91923 0.0
H1728 H 0.3694 0.29269 0.22117 0.0
H1729 H 0.41709 0.30718 0.26223 0.0
H1730 H 0.39353 0.28235 0.19646 0.0
H1731 H 0.44127 0.29673 0.23744 0.0
H1732 H 0.47824 0.29109 0.17908 0.0
H1733 H 0.45447 0.30551 0.20234 0.0
H1734 H 0.41661 0.25304 0.1957 0.0
H1735 H 0.44014 0.23862 0.17285 0.0
C1736 C 0.38505 0.29394 0.22481 0.0
C1737 C 0.39134 0.30066 0.24367 0.0
C1738 C 0.39885 0.2879 0.21071 0.0
C1739 C 0.41927 0.28866 0.21506 0.0
C1740 C 0.42564 0.29609 0.23365 0.0
C1741 C 0.4118 0.30189 0.24787 0.0
C1742 C 0.4648 0.2827 0.18255 0.0
C1743 C 0.46115 0.26368 0.17413 0.0
C1744 C 0.45127 0.29091 0.1959 0.0
C1745 C 0.43366 0.28042 0.20073 0.0
C1746 C 0.42993 0.26157 0.19209 0.0
C1747 C 0.44353 0.25326 0.17908 0.0
H1748 H 0.52198 0.40794 0.0682 0.0
H1749 H 0.51049 0.37012 0.01693 0.0
H1750 H 0.51666 0.37954 0.08967 0.0
H1751 H 0.50525 0.34171 0.03837 0.0
H1752 H 0.4813 0.29739 0.08295 0.0
H1753 H 0.48339 0.32716 0.06281 0.0
H1754 H 0.53292 0.34939 0.09826 0.0
H1755 H 0.53055 0.31989 0.1186 0.0
C1756 C 0.51839 0.39355 0.0615 0.0
C1757 C 0.51674 0.39133 0.04081 0.0
C1758 C 0.51534 0.37725 0.07381 0.0
C1759 C 0.51058 0.35828 0.06578 0.0
C1760 C 0.50859 0.35613 0.04511 0.0
C1761 C 0.51162 0.37244 0.0328 0.0
C1762 C 0.49249 0.30873 0.08656 0.0
C1763 C 0.50577 0.30624 0.10237 0.0
C1764 C 0.49379 0.32574 0.07492 0.0
C1765 C 0.50839 0.34067 0.07882 0.0
C1766 C 0.52134 0.33835 0.09495 0.0
C1767 C 0.52004 0.32136 0.10657 0.0
H1768 H 0.6372 0.23547 0.2271 0.0
H1769 H 0.60294 0.18853 0.25455 0.0
H1770 H 0.61022 0.24051 0.20372 0.0
H1771 H 0.57543 0.19416 0.23202 0.0
H1772 H 0.5361 0.19571 0.17777 0.0
H1773 H 0.5637 0.19019 0.20002 0.0
H1774 H 0.57886 0.25307 0.19978 0.0
H1775 H 0.55193 0.2583 0.17652 0.0
C1776 C 0.62376 0.22635 0.2282 0.0
C1777 C 0.62216 0.21157 0.24255 0.0
C1778 C 0.60819 0.22931 0.2149 0.0
C1779 C 0.59045 0.21781 0.21588 0.0
C1780 C 0.58891 0.20307 0.23041 0.0
C1781 C 0.60464 0.19987 0.24345 0.0
C1782 C 0.54536 0.20836 0.18242 0.0
C1783 C 0.54183 0.22744 0.17526 0.0
C1784 C 0.56116 0.20523 0.19537 0.0
C1785 C 0.57366 0.22116 0.20187 0.0
C1786 C 0.56992 0.24031 0.19486 0.0
C1787 C 0.55434 0.24337 0.1816 0.0
H1788 H 0.47464 0.14335 0.01612 0.0
H1789 H 0.51992 0.11527 0.05017 0.0
H1790 H 0.48038 0.17421 0.0349 0.0
H1791 H 0.52507 0.14571 0.06979 0.0
H1792 H 0.53981 0.20602 0.09582 0.0
H1793 H 0.5372 0.17836 0.07186 0.0
H1794 H 0.47449 0.18884 0.06511 0.0
H1795 H 0.47762 0.21686 0.08818 0.0
C1796 C 0.48573 0.1438 0.02777 0.0
C1797 C 0.4968 0.12695 0.03175 0.0
C1798 C 0.489 0.16146 0.03864 0.0
C1799 C 0.50315 0.1626 0.05406 0.0
C1800 C 0.51432 0.14566 0.05786 0.0
C1801 C 0.51129 0.12812 0.04672 0.0
C1802 C 0.52558 0.20238 0.08899 0.0
C1803 C 0.50872 0.21286 0.09438 0.0
C1804 C 0.52399 0.18647 0.07538 0.0
C1805 C 0.50552 0.18092 0.06676 0.0
C1806 C 0.489 0.19253 0.07125 0.0
C1807 C 0.49066 0.20842 0.08476 0.0
H1808 H 0.28277 0.39302 0.68504 0.0
H1809 H 0.25425 0.40447 0.74112 0.0
H1810 H 0.30747 0.41905 0.69269 0.0
H1811 H 0.27782 0.43154 0.7479 0.0
H1812 H 0.33656 0.46138 0.76567 0.0
H1813 H 0.31074 0.43668 0.75738 0.0
H1814 H 0.31374 0.45383 0.69603 0.0
H1815 H 0.34041 0.47805 0.7045 0.0
C1816 C 0.28164 0.40111 0.69895 0.0
C1817 C 0.26645 0.39644 0.71247 0.0
C1818 C 0.29566 0.41633 0.70319 0.0
C1819 C 0.29472 0.42748 0.72093 0.0
C1820 C 0.27927 0.42311 0.73422 0.0
C1821 C 0.26546 0.40772 0.73014 0.0
C1822 C 0.33179 0.45966 0.75038 0.0
C1823 C 0.34092 0.47093 0.73556 0.0
C1824 C 0.31675 0.44574 0.74564 0.0
C1825 C 0.31015 0.44307 0.72597 0.0
C1826 C 0.31874 0.45513 0.71125 0.0
C1827 C 0.33389 0.46906 0.71606 0.0
H1828 H 0.25377 0.59993 0.79162 0.0
H1829 H 0.29965 0.64389 0.80611 0.0
H1830 H 0.27895 0.57501 0.7866 0.0
H1831 H 0.32478 0.61881 0.80175 0.0
H1832 H 0.36352 0.57432 0.76695 0.0
H1833 H 0.33959 0.59967 0.77506 0.0
H1834 H 0.30305 0.55574 0.80466 0.0
H1835 H 0.32686 0.53028 0.79626 0.0
C1836 C 0.26923 0.60428 0.79373 0.0
C1837 C 0.27467 0.62394 0.79922 0.0
C1838 C 0.28366 0.58993 0.79111 0.0
C1839 C 0.30391 0.59487 0.79386 0.0
C1840 C 0.30934 0.61452 0.79939 0.0
C1841 C 0.29491 0.62886 0.80206 0.0
C1842 C 0.35053 0.57012 0.77544 0.0
C1843 C 0.34707 0.55026 0.78089 0.0
C1844 C 0.33681 0.58468 0.78014 0.0
C1845 C 0.31928 0.57972 0.79035 0.0
C1846 C 0.31622 0.56 0.79648 0.0
C1847 C 0.32997 0.54544 0.79183 0.0
H1848 H 0.90284 0.45003 0.4793 0.0
H1849 H 0.87572 0.49853 0.511 0.0
H1850 H 0.8723 0.43017 0.48236 0.0
H1851 H 0.84541 0.47808 0.51474 0.0
H1852 H 0.80163 0.42119 0.5278 0.0
H1853 H 0.83285 0.44104 0.52977 0.0
H1854 H 0.83708 0.43911 0.46612 0.0
H1855 H 0.80616 0.41999 0.46396 0.0
C1856 C 0.89045 0.45647 0.48701 0.0
C1857 C 0.8917 0.47609 0.49455 0.0
C1858 C 0.87304 0.44498 0.48892 0.0
C1859 C 0.85655 0.45266 0.49871 0.0
C1860 C 0.85802 0.4718 0.50726 0.0
C1861 C 0.8754 0.48346 0.50511 0.0
C1862 C 0.8092 0.42512 0.51426 0.0
C1863 C 0.80134 0.41895 0.49575 0.0
C1864 C 0.82699 0.43647 0.5154 0.0
C1865 C 0.83737 0.44139 0.49809 0.0
C1866 C 0.82946 0.43533 0.47969 0.0
C1867 C 0.81164 0.42443 0.47851 0.0
H1868 H 0.71835 0.87192 0.80666 0.0
H1869 H 0.76436 0.91606 0.79513 0.0
H1870 H 0.69316 0.89661 0.80098 0.0
H1871 H 0.7392 0.94056 0.78887 0.0
H1872 H 0.69018 0.98489 0.79572 0.0
H1873 H 0.71391 0.96003 0.80538 0.0
H1874 H 0.67966 0.91482 0.77323 0.0
H1875 H 0.6558 0.93961 0.76381 0.0
C1876 C 0.72311 0.88692 0.80303 0.0
C1877 C 0.7434 0.89198 0.80132 0.0
C1878 C 0.70865 0.90102 0.79959 0.0
C1879 C 0.71413 0.92058 0.79445 0.0
C1880 C 0.73444 0.92571 0.79301 0.0
C1881 C 0.74887 0.91159 0.79637 0.0
C1882 C 0.68758 0.9696 0.79092 0.0
C1883 C 0.67112 0.96426 0.77894 0.0
C1884 C 0.70127 0.95538 0.79633 0.0
C1885 C 0.6988 0.93544 0.78995 0.0
C1886 C 0.68196 0.92999 0.77854 0.0
C1887 C 0.6683 0.94423 0.77308 0.0
H1888 H 0.61635 0.54912 0.01518 0.0
H1889 H 0.64572 0.51432 0.97051 0.0
H1890 H 0.64649 0.56945 0.02017 0.0
H1891 H 0.67629 0.5338 0.97613 0.0
H1892 H 0.71951 0.58723 0.97377 0.0
H1893 H 0.69129 0.56414 0.9703 0.0
H1894 H 0.67867 0.57187 0.03266 0.0
H1895 H 0.70653 0.59584 0.0356 0.0
C1896 C 0.62941 0.54567 0.00664 0.0
C1897 C 0.62871 0.53025 0.9924 0.0
C1898 C 0.64679 0.55721 0.00959 0.0
C1899 C 0.66402 0.55336 0.9986 0.0
C1900 C 0.66331 0.53757 0.98462 0.0
C1901 C 0.64582 0.5263 0.98143 0.0
C1902 C 0.71054 0.58403 0.98665 0.0
C1903 C 0.7145 0.59391 0.00471 0.0
C1904 C 0.69453 0.57052 0.9848 0.0
C1905 C 0.6823 0.56627 1.00112 0.0
C1906 C 0.68727 0.5752 0.01958 0.0
C1907 C 0.7033 0.58881 0.02137 0.0
H1908 H 0.25691 0.61336 0.24239 0.0
H1909 H 0.22575 0.62454 0.18782 0.0
H1910 H 0.23398 0.58601 0.24905 0.0
H1911 H 0.20171 0.59814 0.19538 0.0
H1912 H 0.17206 0.53738 0.20506 0.0
H1913 H 0.19701 0.56315 0.19711 0.0
H1914 H 0.20168 0.57925 0.25925 0.0
H1915 H 0.17756 0.55299 0.26696 0.0
C1916 C 0.2452 0.61001 0.23174 0.0
C1917 C 0.24339 0.62119 0.21445 0.0
C1918 C 0.23177 0.59445 0.23576 0.0
C1919 C 0.21588 0.5898 0.22281 0.0
C1920 C 0.21393 0.60105 0.20557 0.0
C1921 C 0.22756 0.61646 0.20139 0.0
C1922 C 0.17854 0.5465 0.2169 0.0
C1923 C 0.17245 0.54384 0.2365 0.0
C1924 C 0.19271 0.56133 0.2124 0.0
C1925 C 0.20126 0.57353 0.22749 0.0
C1926 C 0.19563 0.57013 0.24721 0.0
C1927 C 0.18156 0.55531 0.25165 0.0
H1928 H 0.90809 0.56654 0.02234 0.0
H1929 H 0.87005 0.51525 0.00939 0.0
H1930 H 0.88043 0.58829 0.01639 0.0
H1931 H 0.84236 0.53698 0.00353 0.0
H1932 H 0.82081 0.618 0.02847 0.0
H1933 H 0.84972 0.59738 0.03158 0.0
H1934 H 0.82936 0.56146 0.98153 0.0
H1935 H 0.80013 0.5819 0.97871 0.0
C1936 C 0.8938 0.55989 0.01832 0.0
C1937 C 0.89131 0.53912 0.01642 0.0
C1938 C 0.87792 0.57238 0.01489 0.0
C1939 C 0.8591 0.56443 0.00951 0.0
C1940 C 0.85669 0.54367 0.00734 0.0
C1941 C 0.87259 0.53118 0.01073 0.0
C1942 C 0.82257 0.60582 0.018 0.0
C1943 C 0.80811 0.60158 0.00337 0.0
C1944 C 0.83923 0.59402 0.01973 0.0
C1945 C 0.8419 0.57766 0.00686 0.0
C1946 C 0.82766 0.57374 0.99189 0.0
C1947 C 0.81097 0.58556 0.99017 0.0
H1948 H 0.12731 0.96908 0.05265 0.0
H1949 H 0.13448 0.99829 0.99655 0.0
H1950 H 0.15404 0.94712 0.04423 0.0
H1951 H 0.16235 0.97754 0.98892 0.0
H1952 H 0.19799 0.92426 0.97078 0.0
H1953 H 0.1708 0.94571 0.97919 0.0
H1954 H 0.18817 0.94457 0.04083 0.0
H1955 H 0.21471 0.92217 0.03246 0.0
C1956 C 0.13456 0.9709 0.03852 0.0
C1957 C 0.1285 0.98551 0.02528 0.0
C1958 C 0.15022 0.95846 0.03382 0.0
C1959 C 0.16053 0.96044 0.01586 0.0
C1960 C 0.15465 0.97524 0.00275 0.0
C1961 C 0.13879 0.98747 0.00731 0.0
C1962 C 0.196 0.92855 0.98614 0.0
C1963 C 0.20852 0.92139 1.00095 0.0
C1964 C 0.18044 0.94104 0.99098 0.0
C1965 C 0.17716 0.94704 0.01073 0.0
C1966 C 0.18988 0.94003 0.02551 0.0
C1967 C 0.20524 0.92725 0.0207 0.0
loop_
_geom_bond_atom_site_label_1
_geom_bond_atom_site_label_2
_geom_bond_distance
_geom_bond_site_symmetry_2
_ccdc_geom_bond_type
C0 C1 1.384 . S
C0 H13 0.947 . S
C0 C35 1.382 . S
C1 C0 1.384 . S
C1 C2 1.378 1_655 S
C2 C1 1.378 1_455 S
C2 C3 1.378 . S
C2 H14 0.952 . S
C3 C2 1.378 . S
C3 H15 0.950 . S
C3 C34 1.383 . S
H4 C23 0.947 . S
H5 C24 0.946 . S
H6 C26 0.963 . S
H7 C27 0.945 . S
H8 C29 0.952 . S
H9 C30 0.949 . S
H10 C32 0.950 . S
H11 C33 0.948 . S
H12 C35 0.951 . S
H13 C0 0.947 . S
H14 C2 0.952 . S
H15 C3 0.950 . S
N16 C19 1.382 . S
N16 C21 1.363 . S
N17 C19 1.371 . S
N17 C20 1.372 . S
N18 C20 1.361 . S
N18 C21 1.377 . S
C19 N16 1.382 . S
C19 N17 1.371 . S
C19 C22 1.480 . S
C20 N17 1.372 . S
C20 N18 1.361 . S
C20 C28 1.457 . S
C21 N16 1.363 . S
C21 N18 1.377 . S
C21 C34 1.479 . S
C22 C19 1.480 . S
C22 C23 1.383 1_545 S
C22 C27 1.385 . S
C23 H4 0.947 . S
C23 C22 1.383 1_565 S
C23 C24 1.388 . S
C24 H5 0.946 . S
C24 C23 1.388 . S
C24 C25 1.384 . S
C25 C24 1.384 . S
C25 C26 1.328 1_565 S
C26 H6 0.963 . S
C26 C25 1.328 1_545 S
C26 C27 1.410 . S
C27 H7 0.945 . S
C27 C22 1.385 . S
C27 C26 1.410 . S
C28 C20 1.457 . S
C28 C29 1.372 1_554 S
C28 C33 1.364 . S
C29 H8 0.952 . S
C29 C28 1.372 1_556 S
C29 C30 1.389 . S
C30 H9 0.949 . S
C30 C29 1.389 . S
C30 C31 1.387 . S
C31 C30 1.387 . S
C31 C32 1.372 1_556 S
C32 H10 0.950 . S
C32 C31 1.372 1_554 S
C32 C33 1.379 . S
C33 H11 0.948 . S
C33 C28 1.364 . S
C33 C32 1.379 . S
C34 C3 1.383 . S
C34 C21 1.479 . S
C34 C35 1.398 1_455 S
C35 C0 1.382 . S
C35 H12 0.951 . S
C35 C34 1.398 1_655 S
C36 C37 1.384 . S
C36 H49 0.947 . S
C36 C71 1.382 . S
C37 C36 1.384 . S
C37 C38 1.378 . S
C38 C37 1.378 . S
C38 C39 1.378 . S
C38 H50 0.952 . S
C39 C38 1.378 . S
C39 H51 0.950 . S
C39 C70 1.383 . S
H40 C59 0.947 . S
H41 C60 0.946 . S
H42 C62 0.953 . S
H43 C63 0.945 . S
H44 C65 0.952 . S
H45 C66 0.949 . S
H46 C68 0.950 . S
H47 C69 0.948 . S
H48 C71 0.951 . S
H49 C36 0.947 . S
H50 C38 0.952 . S
H51 C39 0.950 . S
N52 C55 1.382 . S
N52 C57 1.363 . S
N53 C55 1.371 . S
N53 C56 1.372 . S
N54 C56 1.361 . S
N54 C57 1.377 . S
C55 N52 1.382 . S
C55 N53 1.371 . S
C55 C58 1.480 . S
C56 N53 1.372 . S
C56 N54 1.361 . S
C56 C64 1.457 . S
C57 N52 1.363 . S
C57 N54 1.377 . S
C57 C70 1.479 . S
C58 C55 1.480 . S
C58 C59 1.383 . S
C58 C63 1.385 . S
C59 H40 0.947 . S
C59 C58 1.383 . S
C59 C60 1.388 . S
C60 H41 0.946 . S
C60 C59 1.388 . S
C60 C61 1.384 . S
C61 C60 1.384 . S
C61 C62 1.377 . S
C62 H42 0.953 . S
C62 C61 1.377 . S
C62 C63 1.369 . S
C63 H43 0.945 . S
C63 C58 1.385 . S
C63 C62 1.369 . S
C64 C56 1.457 . S
C64 C65 1.372 . S
C64 C69 1.364 . S
C65 H44 0.952 . S
C65 C64 1.372 . S
C65 C66 1.389 . S
C66 H45 0.949 . S
C66 C65 1.389 . S
C66 C67 1.387 . S
C67 C66 1.387 . S
C67 C68 1.372 . S
C68 H46 0.950 . S
C68 C67 1.372 . S
C68 C69 1.379 . S
C69 H47 0.948 . S
C69 C64 1.364 . S
C69 C68 1.379 . S
C70 C39 1.383 . S
C70 C57 1.479 . S
C70 C71 1.398 . S
C71 C36 1.382 . S
C71 H48 0.951 . S
C71 C70 1.398 . S
C72 C73 1.384 . S
C72 H85 0.947 1_656 S
C72 C107 1.382 1_556 S
C73 C72 1.384 . S
C73 C74 1.378 . S
C74 C73 1.378 . S
C74 C75 1.378 . S
C74 H86 0.952 . S
C75 C74 1.378 . S
C75 H87 0.950 . S
C75 C106 1.383 1_556 S
H76 C95 0.947 . S
H77 C96 0.946 . S
H78 C98 0.953 . S
H79 C99 0.945 . S
H80 C101 0.952 . S
H81 C102 0.949 . S
H82 C104 0.950 . S
H83 C105 0.948 . S
H84 C107 0.951 . S
H85 C72 0.947 1_454 S
H86 C74 0.952 . S
H87 C75 0.950 . S
N88 C91 1.382 . S
N88 C93 1.363 . S
N89 C91 1.371 . S
N89 C92 1.372 . S
N90 C92 1.361 . S
N90 C93 1.377 . S
C91 N88 1.382 . S
C91 N89 1.371 . S
C91 C94 1.480 . S
C92 N89 1.372 . S
C92 N90 1.361 . S
C92 C100 1.457 . S
C93 N88 1.363 . S
C93 N90 1.377 . S
C93 C106 1.479 . S
C94 C91 1.480 . S
C94 C95 1.383 . S
C94 C99 1.385 . S
C95 H76 0.947 . S
C95 C94 1.383 . S
C95 C96 1.388 . S
C96 H77 0.946 . S
C96 C95 1.388 . S
C96 C97 1.384 . S
C97 C96 1.384 . S
C97 C98 1.377 . S
C98 H78 0.953 . S
C98 C97 1.377 . S
C98 C99 1.369 . S
C99 H79 0.945 . S
C99 C94 1.385 . S
C99 C98 1.369 . S
C100 C92 1.457 . S
C100 C101 1.372 . S
C100 C105 1.364 1_655 S
C101 H80 0.952 . S
C101 C100 1.372 . S
C101 C102 1.389 1_655 S
C102 H81 0.949 . S
C102 C101 1.389 1_455 S
C102 C103 1.387 . S
C103 C102 1.387 . S
C103 C104 1.372 . S
C104 H82 0.950 . S
C104 C103 1.372 . S
C104 C105 1.379 . S
C105 H83 0.948 . S
C105 C100 1.364 1_455 S
C105 C104 1.379 . S
C106 C75 1.383 1_554 S
C106 C93 1.479 . S
C106 C107 1.398 . S
C107 C72 1.382 1_554 S
C107 H84 0.951 . S
C107 C106 1.398 . S
C108 C109 1.384 . S
C108 H121 0.947 . S
C108 C143 1.382 . S
C109 C108 1.384 . S
C109 C110 1.378 . S
C110 C109 1.378 . S
C110 C111 1.378 . S
C110 H122 0.952 . S
C111 C110 1.378 . S
C111 H123 0.950 . S
C111 C142 1.383 . S
H112 C131 0.947 . S
H113 C132 0.946 . S
H114 C134 0.953 . S
H115 C135 0.945 . S
H116 C137 0.952 . S
H117 C138 0.949 . S
H118 C140 0.950 . S
H119 C141 0.948 . S
H120 C143 0.951 . S
H121 C108 0.947 . S
H122 C110 0.952 . S
H123 C111 0.950 . S
N124 C127 1.382 . S
N124 C129 1.363 . S
N125 C127 1.371 . S
N125 C128 1.372 . S
N126 C128 1.361 . S
N126 C129 1.377 . S
C127 N124 1.382 . S
C127 N125 1.371 . S
C127 C130 1.480 . S
C128 N125 1.372 . S
C128 N126 1.361 . S
C128 C136 1.457 . S
C129 N124 1.363 . S
C129 N126 1.377 . S
C129 C142 1.479 . S
C130 C127 1.480 . S
C130 C131 1.383 . S
C130 C135 1.385 . S
C131 H112 0.947 . S
C131 C130 1.383 . S
C131 C132 1.388 . S
C132 H113 0.946 . S
C132 C131 1.388 . S
C132 C133 1.384 . S
C133 C132 1.384 . S
C133 C134 1.377 . S
C134 H114 0.953 . S
C134 C133 1.377 . S
C134 C135 1.369 . S
C135 H115 0.945 . S
C135 C130 1.385 . S
C135 C134 1.369 . S
C136 C128 1.457 . S
C136 C137 1.372 . S
C136 C141 1.364 . S
C137 H116 0.952 . S
C137 C136 1.372 . S
C137 C138 1.389 . S
C138 H117 0.949 . S
C138 C137 1.389 . S
C138 C139 1.387 . S
C139 C138 1.387 . S
C139 C140 1.372 . S
C140 H118 0.950 . S
C140 C139 1.372 . S
C140 C141 1.379 . S
C141 H119 0.948 . S
C141 C136 1.364 . S
C141 C140 1.379 . S
C142 C111 1.383 . S
C142 C129 1.479 . S
C142 C143 1.398 . S
C143 C108 1.382 . S
C143 H120 0.951 . S
C143 C142 1.398 . S
C144 C145 1.384 . S
C144 H157 0.947 . S
C144 C179 1.382 . S
C145 C144 1.384 . S
C145 C146 1.378 . S
C146 C145 1.378 . S
C146 C147 1.378 . S
C146 H158 0.952 . S
C147 C146 1.378 . S
C147 H159 0.950 . S
C147 C178 1.383 . S
H148 C167 0.947 . S
H149 C168 0.946 . S
H150 C170 0.953 1_545 S
H151 C171 0.945 . S
H152 C173 0.952 . S
H153 C174 0.949 . S
H154 C176 0.950 . S
H155 C177 0.948 . S
H156 C179 0.951 . S
H157 C144 0.947 . S
H158 C146 0.952 . S
H159 C147 0.950 . S
N160 C163 1.382 . S
N160 C165 1.363 . S
N161 C163 1.371 . S
N161 C164 1.372 . S
N162 C164 1.361 . S
N162 C165 1.377 . S
C163 N160 1.382 . S
C163 N161 1.371 . S
C163 C166 1.480 . S
C164 N161 1.372 . S
C164 N162 1.361 . S
C164 C172 1.457 . S
C165 N160 1.363 . S
C165 N162 1.377 . S
C165 C178 1.479 . S
C166 C163 1.480 . S
C166 C167 1.383 1_455 S
C166 C171 1.385 . S
C167 H148 0.947 . S
C167 C166 1.383 1_655 S
C167 C168 1.388 . S
C168 H149 0.946 . S
C168 C167 1.388 . S
C168 C169 1.384 . S
C169 C168 1.384 . S
C169 C170 1.377 1_655 S
C170 H150 0.953 1_565 S
C170 C169 1.377 1_455 S
C170 C171 1.369 . S
C171 H151 0.945 . S
C171 C166 1.385 . S
C171 C170 1.369 . S
C172 C164 1.457 . S
C172 C173 1.372 1_565 S
C172 C177 1.364 . S
C173 H152 0.952 . S
C173 C172 1.372 1_545 S
C173 C174 1.389 . S
C174 H153 0.949 . S
C174 C173 1.389 . S
C174 C175 1.387 . S
C175 C174 1.387 . S
C175 C176 1.372 . S
C176 H154 0.950 . S
C176 C175 1.372 . S
C176 C177 1.379 1_545 S
C177 H155 0.948 . S
C177 C172 1.364 . S
C177 C176 1.379 1_565 S
C178 C147 1.383 . S
C178 C165 1.479 . S
C178 C179 1.398 . S
C179 C144 1.382 . S
C179 H156 0.951 . S
C179 C178 1.398 . S
C180 C181 1.384 . S
C180 H193 0.947 . S
C180 C215 1.382 . S
C181 C180 1.384 . S
C181 C182 1.378 . S
C182 C181 1.378 . S
C182 C183 1.378 . S
C182 H194 0.952 . S
C183 C182 1.378 . S
C183 H195 0.950 . S
C183 C214 1.383 . S
H184 C203 0.947 . S
H185 C204 0.946 . S
H186 C206 0.953 . S
H187 C207 0.945 . S
H188 C209 0.952 . S
H189 C210 0.949 . S
H190 C212 0.950 . S
H191 C213 0.948 . S
H192 C215 0.951 . S
H193 C180 0.947 . S
H194 C182 0.952 . S
H195 C183 0.950 . S
N196 C199 1.382 . S
N196 C201 1.363 . S
N197 C199 1.371 . S
N197 C200 1.372 . S
N198 C200 1.361 . S
N198 C201 1.377 . S
C199 N196 1.382 . S
C199 N197 1.371 . S
C199 C202 1.480 . S
C200 N197 1.372 . S
C200 N198 1.361 . S
C200 C208 1.457 . S
C201 N196 1.363 . S
C201 N198 1.377 . S
C201 C214 1.479 . S
C202 C199 1.480 . S
C202 C203 1.383 . S
C202 C207 1.385 . S
C203 H184 0.947 . S
C203 C202 1.383 . S
C203 C204 1.388 . S
C204 H185 0.946 . S
C204 C203 1.388 . S
C204 C205 1.384 . S
C205 C204 1.384 . S
C205 C206 1.377 . S
C206 H186 0.953 . S
C206 C205 1.377 . S
C206 C207 1.369 . S
C207 H187 0.945 . S
C207 C202 1.385 . S
C207 C206 1.369 . S
C208 C200 1.457 . S
C208 C209 1.372 . S
C208 C213 1.364 . S
C209 H188 0.952 . S
C209 C208 1.372 . S
C209 C210 1.389 . S
C210 H189 0.949 . S
C210 C209 1.389 . S
C210 C211 1.387 . S
C211 C210 1.387 . S
C211 C212 1.372 . S
C212 H190 0.950 . S
C212 C211 1.372 . S
C212 C213 1.379 . S
C213 H191 0.948 . S
C213 C208 1.364 . S
C213 C212 1.379 . S
C214 C183 1.383 . S
C214 C201 1.479 . S
C214 C215 1.398 . S
C215 C180 1.382 . S
C215 H192 0.951 . S
C215 C214 1.398 . S
C216 C217 1.384 . S
C216 H229 0.947 1_655 S
C216 C251 1.382 . S
C217 C216 1.384 . S
C217 C218 1.378 . S
C218 C217 1.378 . S
C218 C219 1.378 . S
C218 H230 0.952 . S
C219 C218 1.378 . S
C219 H231 0.950 . S
C219 C250 1.383 . S
H220 C239 0.947 . S
H221 C240 0.946 . S
H222 C242 0.953 . S
H223 C243 0.945 . S
H224 C245 0.952 . S
H225 C246 0.949 . S
H226 C248 0.950 . S
H227 C249 0.948 . S
H228 C251 0.951 1_455 S
H229 C216 0.947 1_455 S
H230 C218 0.952 . S
H231 C219 0.950 . S
N232 C235 1.382 . S
N232 C237 1.363 . S
N233 C235 1.371 . S
N233 C236 1.372 . S
N234 C236 1.361 . S
N234 C237 1.377 . S
C235 N232 1.382 . S
C235 N233 1.371 . S
C235 C238 1.480 . S
C236 N233 1.372 . S
C236 N234 1.361 . S
C236 C244 1.457 1_655 S
C237 N232 1.363 . S
C237 N234 1.377 . S
C237 C250 1.479 . S
C238 C235 1.480 . S
C238 C239 1.383 . S
C238 C243 1.385 . S
C239 H220 0.947 . S
C239 C238 1.383 . S
C239 C240 1.388 . S
C240 H221 0.946 . S
C240 C239 1.388 . S
C240 C241 1.384 . S
C241 C240 1.384 . S
C241 C242 1.377 . S
C242 H222 0.953 . S
C242 C241 1.377 . S
C242 C243 1.369 . S
C243 H223 0.945 . S
C243 C238 1.385 . S
C243 C242 1.369 . S
C244 C236 1.457 1_455 S
C244 C245 1.372 1_455 S
C244 C249 1.364 . S
C245 H224 0.952 . S
C245 C244 1.372 1_655 S
C245 C246 1.389 1_655 S
C246 H225 0.949 . S
C246 C245 1.389 1_455 S
C246 C247 1.387 . S
C247 C246 1.387 . S
C247 C248 1.372 . S
C248 H226 0.950 . S
C248 C247 1.372 . S
C248 C249 1.379 . S
C249 H227 0.948 . S
C249 C244 1.364 . S
C249 C248 1.379 . S
C250 C219 1.383 . S
C250 C237 1.479 . S
C250 C251 1.398 . S
C251 C216 1.382 . S
C251 H228 0.951 1_655 S
C251 C250 1.398 . S
C252 C253 1.384 . S
C252 H265 0.947 . S
C252 C287 1.382 . S
C253 C252 1.384 . S
C253 C254 1.378 . S
C254 C253 1.378 . S
C254 C255 1.378 . S
C254 H266 0.952 . S
C255 C254 1.378 . S
C255 H267 0.950 . S
C255 C286 1.383 . S
H256 C275 0.947 . S
H257 C276 0.946 . S
H258 C278 0.953 . S
H259 C279 0.945 . S
H260 C281 0.952 . S
H261 C282 0.949 . S
H262 C284 0.950 . S
H263 C285 0.948 . S
H264 C287 0.951 . S
H265 C252 0.947 . S
H266 C254 0.952 . S
H267 C255 0.950 . S
N268 C271 1.382 . S
N268 C273 1.363 . S
N269 C271 1.371 . S
N269 C272 1.372 . S
N270 C272 1.361 . S
N270 C273 1.377 . S
C271 N268 1.382 . S
C271 N269 1.371 . S
C271 C274 1.480 . S
C272 N269 1.372 . S
C272 N270 1.361 . S
C272 C280 1.457 . S
C273 N268 1.363 . S
C273 N270 1.377 . S
C273 C286 1.479 . S
C274 C271 1.480 . S
C274 C275 1.383 . S
C274 C279 1.385 . S
C275 H256 0.947 . S
C275 C274 1.383 . S
C275 C276 1.388 . S
C276 H257 0.946 . S
C276 C275 1.388 . S
C276 C277 1.384 . S
C277 C276 1.384 . S
C277 C278 1.377 . S
C278 H258 0.953 . S
C278 C277 1.377 . S
C278 C279 1.369 . S
C279 H259 0.945 . S
C279 C274 1.385 . S
C279 C278 1.369 . S
C280 C272 1.457 . S
C280 C281 1.372 . S
C280 C285 1.364 . S
C281 H260 0.952 . S
C281 C280 1.372 . S
C281 C282 1.389 . S
C282 H261 0.949 . S
C282 C281 1.389 . S
C282 C283 1.387 . S
C283 C282 1.387 . S
C283 C284 1.372 . S
C284 H262 0.950 . S
C284 C283 1.372 . S
C284 C285 1.379 . S
C285 H263 0.948 . S
C285 C280 1.364 . S
C285 C284 1.379 . S
C286 C255 1.383 . S
C286 C273 1.479 . S
C286 C287 1.398 . S
C287 C252 1.382 . S
C287 H264 0.951 . S
C287 C286 1.398 . S
C288 C289 1.384 . S
C288 H301 0.947 . S
C288 C323 1.382 . S
C289 C288 1.384 . S
C289 C290 1.378 . S
C290 C289 1.378 . S
C290 C291 1.378 . S
C290 H302 0.952 . S
C291 C290 1.378 . S
C291 H303 0.950 . S
C291 C322 1.383 . S
H292 C311 0.947 . S
H293 C312 0.946 . S
H294 C314 0.953 . S
H295 C315 0.945 . S
H296 C317 0.952 . S
H297 C318 0.949 . S
H298 C320 0.950 . S
H299 C321 0.948 . S
H300 C323 0.951 . S
H301 C288 0.947 . S
H302 C290 0.952 . S
H303 C291 0.950 . S
N304 C307 1.382 . S
N304 C309 1.363 . S
N305 C307 1.371 . S
N305 C308 1.372 . S
N306 C308 1.361 . S
N306 C309 1.377 . S
C307 N304 1.382 . S
C307 N305 1.371 . S
C307 C310 1.480 . S
C308 N305 1.372 . S
C308 N306 1.361 . S
C308 C316 1.457 . S
C309 N304 1.363 . S
C309 N306 1.377 . S
C309 C322 1.479 . S
C310 C307 1.480 . S
C310 C311 1.383 . S
C310 C315 1.385 . S
C311 H292 0.947 . S
C311 C310 1.383 . S
C311 C312 1.388 . S
C312 H293 0.946 . S
C312 C311 1.388 . S
C312 C313 1.384 . S
C313 C312 1.384 . S
C313 C314 1.377 . S
C314 H294 0.953 . S
C314 C313 1.377 . S
C314 C315 1.369 . S
C315 H295 0.945 . S
C315 C310 1.385 . S
C315 C314 1.369 . S
C316 C308 1.457 . S
C316 C317 1.372 . S
C316 C321 1.364 . S
C317 H296 0.952 . S
C317 C316 1.372 . S
C317 C318 1.389 . S
C318 H297 0.949 . S
C318 C317 1.389 . S
C318 C319 1.387 . S
C319 C318 1.387 . S
C319 C320 1.372 . S
C320 H298 0.950 . S
C320 C319 1.372 . S
C320 C321 1.379 . S
C321 H299 0.948 . S
C321 C316 1.364 . S
C321 C320 1.379 . S
C322 C291 1.383 . S
C322 C309 1.479 . S
C322 C323 1.398 . S
C323 C288 1.382 . S
C323 H300 0.951 . S
C323 C322 1.398 . S
C324 C325 1.384 . S
C324 H337 0.947 . S
C324 C359 1.382 . S
C325 C324 1.384 . S
C325 C326 1.378 . S
C326 C325 1.378 . S
C326 C327 1.378 . S
C326 H338 0.952 . S
C327 C326 1.378 . S
C327 H339 0.950 . S
C327 C358 1.383 . S
H328 C347 0.947 . S
H329 C348 0.946 . S
H330 C350 0.953 . S
H331 C351 0.945 . S
H332 C353 0.952 . S
H333 C354 0.949 1_545 S
H334 C356 0.950 . S
H335 C357 0.948 . S
H336 C359 0.951 . S
H337 C324 0.947 . S
H338 C326 0.952 . S
H339 C327 0.950 . S
N340 C343 1.382 . S
N340 C345 1.363 . S
N341 C343 1.371 . S
N341 C344 1.372 . S
N342 C344 1.361 . S
N342 C345 1.377 . S
C343 N340 1.382 . S
C343 N341 1.371 . S
C343 C346 1.480 . S
C344 N341 1.372 . S
C344 N342 1.361 . S
C344 C352 1.457 . S
C345 N340 1.363 . S
C345 N342 1.377 . S
C345 C358 1.479 . S
C346 C343 1.480 . S
C346 C347 1.383 . S
C346 C351 1.385 1_565 S
C347 H328 0.947 . S
C347 C346 1.383 . S
C347 C348 1.388 1_565 S
C348 H329 0.946 . S
C348 C347 1.388 1_545 S
C348 C349 1.384 . S
C349 C348 1.384 . S
C349 C350 1.377 . S
C350 H330 0.953 . S
C350 C349 1.377 . S
C350 C351 1.369 . S
C351 H331 0.945 . S
C351 C346 1.385 1_545 S
C351 C350 1.369 . S
C352 C344 1.457 . S
C352 C353 1.372 . S
C352 C357 1.364 . S
C353 H332 0.952 . S
C353 C352 1.372 . S
C353 C354 1.389 . S
C354 H333 0.949 1_565 S
C354 C353 1.389 . S
C354 C355 1.387 . S
C355 C354 1.387 . S
C355 C356 1.372 . S
C356 H334 0.950 . S
C356 C355 1.372 . S
C356 C357 1.379 . S
C357 H335 0.948 . S
C357 C352 1.364 . S
C357 C356 1.379 . S
C358 C327 1.383 . S
C358 C345 1.479 . S
C358 C359 1.398 . S
C359 C324 1.382 . S
C359 H336 0.951 . S
C359 C358 1.398 . S
C360 C361 1.384 . S
C360 H373 0.947 . S
C360 C395 1.382 . S
C361 C360 1.384 . S
C361 C362 1.378 . S
C362 C361 1.378 . S
C362 C363 1.378 . S
C362 H374 0.952 . S
C363 C362 1.378 . S
C363 H375 0.950 . S
C363 C394 1.383 . S
H364 C383 0.947 . S
H365 C384 0.946 . S
H366 C386 0.953 . S
H367 C387 0.945 . S
H368 C389 0.952 . S
H369 C390 0.949 . S
H370 C392 0.950 . S
H371 C393 0.948 . S
H372 C395 0.951 . S
H373 C360 0.947 . S
H374 C362 0.952 . S
H375 C363 0.950 . S
N376 C379 1.382 . S
N376 C381 1.363 . S
N377 C379 1.371 . S
N377 C380 1.372 . S
N378 C380 1.361 . S
N378 C381 1.377 . S
C379 N376 1.382 . S
C379 N377 1.371 . S
C379 C382 1.480 . S
C380 N377 1.372 . S
C380 N378 1.361 . S
C380 C388 1.457 . S
C381 N376 1.363 . S
C381 N378 1.377 . S
C381 C394 1.479 . S
C382 C379 1.480 . S
C382 C383 1.383 . S
C382 C387 1.385 . S
C383 H364 0.947 . S
C383 C382 1.383 . S
C383 C384 1.388 . S
C384 H365 0.946 . S
C384 C383 1.388 . S
C384 C385 1.384 . S
C385 C384 1.384 . S
C385 C386 1.377 . S
C386 H366 0.953 . S
C386 C385 1.377 . S
C386 C387 1.369 . S
C387 H367 0.945 . S
C387 C382 1.385 . S
C387 C386 1.369 . S
C388 C380 1.457 . S
C388 C389 1.372 . S
C388 C393 1.364 . S
C389 H368 0.952 . S
C389 C388 1.372 . S
C389 C390 1.389 . S
C390 H369 0.949 . S
C390 C389 1.389 . S
C390 C391 1.387 . S
C391 C390 1.387 . S
C391 C392 1.372 . S
C392 H370 0.950 . S
C392 C391 1.372 . S
C392 C393 1.379 . S
C393 H371 0.948 . S
C393 C388 1.364 . S
C393 C392 1.379 . S
C394 C363 1.383 . S
C394 C381 1.479 . S
C394 C395 1.398 . S
C395 C360 1.382 . S
C395 H372 0.951 . S
C395 C394 1.398 . S
C396 C397 1.384 . S
C396 H409 0.947 . S
C396 C431 1.382 . S
C397 C396 1.384 . S
C397 C398 1.378 . S
C398 C397 1.378 . S
C398 C399 1.378 . S
C398 H410 0.952 . S
C399 C398 1.378 . S
C399 H411 0.950 . S
C399 C430 1.383 . S
H400 C419 0.947 . S
H401 C420 0.946 . S
H402 C422 0.953 . S
H403 C423 0.945 . S
H404 C425 0.952 . S
H405 C426 0.949 . S
H406 C428 0.950 . S
H407 C429 0.948 . S
H408 C431 0.951 . S
H409 C396 0.947 . S
H410 C398 0.952 . S
H411 C399 0.950 . S
N412 C415 1.382 . S
N412 C417 1.363 . S
N413 C415 1.371 . S
N413 C416 1.372 . S
N414 C416 1.361 . S
N414 C417 1.377 . S
C415 N412 1.382 . S
C415 N413 1.371 . S
C415 C418 1.480 . S
C416 N413 1.372 . S
C416 N414 1.361 . S
C416 C424 1.457 . S
C417 N412 1.363 . S
C417 N414 1.377 . S
C417 C430 1.479 . S
C418 C415 1.480 . S
C418 C419 1.383 . S
C418 C423 1.385 . S
C419 H400 0.947 . S
C419 C418 1.383 . S
C419 C420 1.388 . S
C420 H401 0.946 . S
C420 C419 1.388 . S
C420 C421 1.384 . S
C421 C420 1.384 . S
C421 C422 1.377 . S
C422 H402 0.953 . S
C422 C421 1.377 . S
C422 C423 1.369 . S
C423 H403 0.945 . S
C423 C418 1.385 . S
C423 C422 1.369 . S
C424 C416 1.457 . S
C424 C425 1.372 . S
C424 C429 1.364 . S
C425 H404 0.952 . S
C425 C424 1.372 . S
C425 C426 1.389 . S
C426 H405 0.949 . S
C426 C425 1.389 . S
C426 C427 1.387 . S
C427 C426 1.387 . S
C427 C428 1.372 . S
C428 H406 0.950 . S
C428 C427 1.372 . S
C428 C429 1.379 . S
C429 H407 0.948 . S
C429 C424 1.364 . S
C429 C428 1.379 . S
C430 C399 1.383 . S
C430 C417 1.479 . S
C430 C431 1.398 . S
C431 C396 1.382 . S
C431 H408 0.951 . S
C431 C430 1.398 . S
C432 C433 1.384 . S
C432 H445 0.947 . S
C432 C467 1.382 . S
C433 C432 1.384 . S
C433 C434 1.378 . S
C434 C433 1.378 . S
C434 C435 1.378 . S
C434 H446 0.952 . S
C435 C434 1.378 . S
C435 H447 0.950 . S
C435 C466 1.383 . S
H436 C455 0.947 . S
H437 C456 0.946 . S
H438 C458 0.953 . S
H439 C459 0.945 . S
H440 C461 0.952 . S
H441 C462 0.949 . S
H442 C464 0.950 . S
H443 C465 0.948 . S
H444 C467 0.951 . S
H445 C432 0.947 . S
H446 C434 0.952 . S
H447 C435 0.950 . S
N448 C451 1.382 . S
N448 C453 1.363 . S
N449 C451 1.371 . S
N449 C452 1.372 . S
N450 C452 1.361 . S
N450 C453 1.377 . S
C451 N448 1.382 . S
C451 N449 1.371 . S
C451 C454 1.480 . S
C452 N449 1.372 . S
C452 N450 1.361 . S
C452 C460 1.457 . S
C453 N448 1.363 . S
C453 N450 1.377 . S
C453 C466 1.479 . S
C454 C451 1.480 . S
C454 C455 1.383 . S
C454 C459 1.385 . S
C455 H436 0.947 . S
C455 C454 1.383 . S
C455 C456 1.388 . S
C456 H437 0.946 . S
C456 C455 1.388 . S
C456 C457 1.384 . S
C457 C456 1.384 . S
C457 C458 1.377 . S
C458 H438 0.953 . S
C458 C457 1.377 . S
C458 C459 1.369 . S
C459 H439 0.945 . S
C459 C454 1.385 . S
C459 C458 1.369 . S
C460 C452 1.457 . S
C460 C461 1.372 . S
C460 C465 1.364 . S
C461 H440 0.952 . S
C461 C460 1.372 . S
C461 C462 1.389 . S
C462 H441 0.949 . S
C462 C461 1.389 . S
C462 C463 1.387 . S
C463 C462 1.387 . S
C463 C464 1.372 . S
C464 H442 0.950 . S
C464 C463 1.372 . S
C464 C465 1.379 . S
C465 H443 0.948 . S
C465 C460 1.364 . S
C465 C464 1.379 . S
C466 C435 1.383 . S
C466 C453 1.479 . S
C466 C467 1.398 . S
C467 C432 1.382 . S
C467 H444 0.951 . S
C467 C466 1.398 . S
C468 C469 1.384 . S
C468 H481 0.947 . S
C468 C503 1.382 . S
C469 C468 1.384 . S
C469 C470 1.374 1_554 S
C470 C469 1.374 1_556 S
C470 C471 1.381 . S
C470 H482 0.953 . S
C471 C470 1.381 . S
C471 H483 0.950 . S
C471 C502 1.383 . S
H472 C491 0.947 . S
H473 C492 0.946 . S
H474 C494 0.953 . S
H475 C495 0.945 . S
H476 C497 0.952 . S
H477 C498 0.949 . S
H478 C500 0.950 . S
H479 C501 0.948 . S
H480 C503 0.951 . S
H481 C468 0.947 . S
H482 C470 0.953 . S
H483 C471 0.950 . S
N484 C487 1.382 . S
N484 C489 1.363 . S
N485 C487 1.371 . S
N485 C488 1.372 . S
N486 C488 1.361 . S
N486 C489 1.377 . S
C487 N484 1.382 . S
C487 N485 1.371 . S
C487 C490 1.480 . S
C488 N485 1.372 . S
C488 N486 1.361 . S
C488 C496 1.457 . S
C489 N484 1.363 . S
C489 N486 1.377 . S
C489 C502 1.479 . S
C490 C487 1.480 . S
C490 C491 1.383 . S
C490 C495 1.385 . S
C491 H472 0.947 . S
C491 C490 1.383 . S
C491 C492 1.388 . S
C492 H473 0.946 . S
C492 C491 1.388 . S
C492 C493 1.384 . S
C493 C492 1.384 . S
C493 C494 1.377 . S
C494 H474 0.953 . S
C494 C493 1.377 . S
C494 C495 1.369 . S
C495 H475 0.945 . S
C495 C490 1.385 . S
C495 C494 1.369 . S
C496 C488 1.457 . S
C496 C497 1.372 . S
C496 C501 1.364 . S
C497 H476 0.952 . S
C497 C496 1.372 . S
C497 C498 1.389 . S
C498 H477 0.949 . S
C498 C497 1.389 . S
C498 C499 1.387 . S
C499 C498 1.387 . S
C499 C500 1.372 . S
C500 H478 0.950 . S
C500 C499 1.372 . S
C500 C501 1.379 . S
C501 H479 0.948 . S
C501 C496 1.364 . S
C501 C500 1.379 . S
C502 C471 1.383 . S
C502 C489 1.479 . S
C502 C503 1.398 1_556 S
C503 C468 1.382 . S
C503 H480 0.951 . S
C503 C502 1.398 1_554 S
C504 C505 1.384 . S
C504 H517 0.947 . S
C504 C539 1.382 . S
C505 C504 1.384 . S
C505 C506 1.378 . S
C506 C505 1.378 . S
C506 C507 1.378 . S
C506 H518 0.952 . S
C507 C506 1.378 . S
C507 H519 0.950 . S
C507 C538 1.383 . S
H508 C527 0.947 . S
H509 C528 0.946 . S
H510 C530 0.953 . S
H511 C531 0.945 . S
H512 C533 0.952 . S
H513 C534 0.949 . S
H514 C536 0.950 . S
H515 C537 0.948 . S
H516 C539 0.951 . S
H517 C504 0.947 . S
H518 C506 0.952 . S
H519 C507 0.950 . S
N520 C523 1.382 . S
N520 C525 1.363 . S
N521 C523 1.371 . S
N521 C524 1.372 . S
N522 C524 1.361 . S
N522 C525 1.377 . S
C523 N520 1.382 . S
C523 N521 1.371 . S
C523 C526 1.480 . S
C524 N521 1.372 . S
C524 N522 1.361 . S
C524 C532 1.457 . S
C525 N520 1.363 . S
C525 N522 1.377 . S
C525 C538 1.479 . S
C526 C523 1.480 . S
C526 C527 1.383 . S
C526 C531 1.385 . S
C527 H508 0.947 . S
C527 C526 1.383 . S
C527 C528 1.388 . S
C528 H509 0.946 . S
C528 C527 1.388 . S
C528 C529 1.384 . S
C529 C528 1.384 . S
C529 C530 1.377 . S
C530 H510 0.953 . S
C530 C529 1.377 . S
C530 C531 1.369 . S
C531 H511 0.945 . S
C531 C526 1.385 . S
C531 C530 1.369 . S
C532 C524 1.457 . S
C532 C533 1.372 . S
C532 C537 1.364 . S
C533 H512 0.952 . S
C533 C532 1.372 . S
C533 C534 1.389 . S
C534 H513 0.949 . S
C534 C533 1.389 . S
C534 C535 1.387 . S
C535 C534 1.387 . S
C535 C536 1.372 . S
C536 H514 0.950 . S
C536 C535 1.372 . S
C536 C537 1.379 . S
C537 H515 0.948 . S
C537 C532 1.364 . S
C537 C536 1.379 . S
C538 C507 1.383 . S
C538 C525 1.479 . S
C538 C539 1.398 . S
C539 C504 1.382 . S
C539 H516 0.951 . S
C539 C538 1.398 . S
C540 C541 1.384 . S
C540 H553 0.947 . S
C540 C575 1.382 1_554 S
C541 C540 1.384 . S
C541 C542 1.378 . S
C542 C541 1.378 . S
C542 C543 1.378 . S
C542 H554 0.952 . S
C543 C542 1.378 . S
C543 H555 0.950 . S
C543 C574 1.379 1_554 S
H544 C563 0.947 1_554 S
H545 C564 0.946 1_554 S
H546 C566 0.953 . S
H547 C567 0.945 . S
H548 C569 0.952 . S
H549 C570 0.949 . S
H550 C572 0.950 . S
H551 C573 0.948 . S
H552 C575 0.951 . S
H553 C540 0.947 . S
H554 C542 0.952 . S
H555 C543 0.950 . S
N556 C559 1.382 . S
N556 C561 1.363 . S
N557 C559 1.371 . S
N557 C560 1.372 . S
N558 C560 1.361 . S
N558 C561 1.377 . S
C559 N556 1.382 . S
C559 N557 1.371 . S
C559 C562 1.480 . S
C560 N557 1.372 . S
C560 N558 1.361 . S
C560 C568 1.457 . S
C561 N556 1.363 . S
C561 N558 1.377 . S
C561 C574 1.482 . S
C562 C559 1.480 . S
C562 C563 1.383 . S
C562 C567 1.385 1_545 S
C563 H544 0.947 1_556 S
C563 C562 1.383 . S
C563 C564 1.388 . S
C564 H545 0.946 1_556 S
C564 C563 1.388 . S
C564 C565 1.384 1_545 S
C565 C564 1.384 1_565 S
C565 C566 1.377 . S
C566 H546 0.953 . S
C566 C565 1.377 . S
C566 C567 1.369 . S
C567 H547 0.945 . S
C567 C562 1.385 1_565 S
C567 C566 1.369 . S
C568 C560 1.457 . S
C568 C569 1.372 . S
C568 C573 1.364 . S
C569 H548 0.952 . S
C569 C568 1.372 . S
C569 C570 1.389 . S
C570 H549 0.949 . S
C570 C569 1.389 . S
C570 C571 1.387 . S
C571 C570 1.387 . S
C571 C572 1.372 . S
C572 H550 0.950 . S
C572 C571 1.372 . S
C572 C573 1.379 . S
C573 H551 0.948 . S
C573 C568 1.364 . S
C573 C572 1.379 . S
C574 C543 1.379 1_556 S
C574 C561 1.482 . S
C574 C575 1.399 . S
C575 C540 1.382 1_556 S
C575 H552 0.951 . S
C575 C574 1.399 . S
Mn576 O581 2.095 . S
Mn576 O591 2.162 . S
Mn576 O592 2.297 . S
Mn576 O600 2.395 . S
Mn576 O601 2.209 1_554 S
Mn576 O602 2.094 . S
Mn577 O582 2.121 . S
Mn577 N584 2.257 . S
Mn577 N593 2.282 . S
Mn577 O601 2.215 . S
Mn577 O603 2.117 . S
C578 O600 1.215 1_556 S
C578 O601 1.283 . S
C579 O591 1.281 . S
C579 O592 1.236 . S
C580 O602 1.240 . S
C580 O603 1.264 1_554 S
O581 Mn576 2.095 . S
O581 C590 1.250 . S
O582 Mn577 2.121 . S
O582 C590 1.258 1_556 S
C583 N584 1.326 . S
C583 C587 1.460 . S
C583 H589 0.929 . S
N584 Mn577 2.257 . S
N584 C583 1.326 . S
N584 C588 1.362 . S
C585 C586 1.258 . S
C585 C588 1.431 . S
C585 C605 1.449 . S
C586 C585 1.258 . S
C586 C587 1.477 . S
C586 H606 0.931 . S
C587 C583 1.460 . S
C587 C586 1.477 . S
C587 H607 0.930 . S
C588 N584 1.362 . S
C588 C585 1.431 . S
C588 C598 1.476 . S
H589 C583 0.929 . S
C590 O581 1.250 . S
C590 O582 1.258 1_554 S
O591 Mn576 2.162 . S
O591 C579 1.281 . S
O592 Mn576 2.297 . S
O592 C579 1.236 . S
N593 Mn577 2.282 . S
N593 C594 1.328 . S
N593 C598 1.318 . S
C594 N593 1.328 . S
C594 C595 1.457 . S
C594 H599 0.929 . S
C595 C594 1.457 . S
C595 C596 1.291 . S
C595 H608 0.931 . S
C596 C595 1.291 . S
C596 C597 1.373 . S
C596 H609 0.929 . S
C597 C596 1.373 . S
C597 C598 1.396 . S
C597 C604 1.403 . S
C598 C588 1.476 . S
C598 N593 1.318 . S
C598 C597 1.396 . S
H599 C594 0.929 . S
O600 Mn576 2.395 . S
O600 C578 1.215 1_554 S
O601 Mn576 2.209 1_556 S
O601 Mn577 2.215 . S
O601 C578 1.283 . S
O602 Mn576 2.094 . S
O602 C580 1.240 . S
O603 Mn577 2.117 . S
O603 C580 1.264 1_556 S
C604 C597 1.403 . S
C604 C605 1.399 . S
C604 H610 0.929 . S
C605 C585 1.449 . S
C605 C604 1.399 . S
C605 H611 0.930 . S
H606 C586 0.931 . S
H607 C587 0.930 . S
H608 C595 0.931 . S
H609 C596 0.929 . S
H610 C604 0.929 . S
H611 C605 0.930 . S
Mn612 O617 2.095 . S
Mn612 O627 2.162 . S
Mn612 O628 2.297 . S
Mn612 O636 2.385 . S
Mn612 O637 2.209 . S
Mn612 O638 2.094 . S
Mn613 O618 2.121 . S
Mn613 N620 2.257 . S
Mn613 N629 2.282 . S
Mn613 O637 2.215 . S
Mn613 O639 2.117 . S
C614 O636 1.234 . S
C614 O637 1.283 . S
C615 O627 1.281 . S
C615 O628 1.236 . S
C616 O638 1.240 . S
C616 O639 1.264 . S
O617 Mn612 2.095 . S
O617 C626 1.250 . S
O618 Mn613 2.121 . S
O618 C626 1.258 . S
C619 N620 1.326 . S
C619 C623 1.460 . S
C619 H625 0.929 . S
N620 Mn613 2.257 . S
N620 C619 1.326 . S
N620 C624 1.362 . S
C621 C622 1.258 . S
C621 C624 1.431 . S
C621 C641 1.449 . S
C622 C621 1.258 . S
C622 C623 1.477 . S
C622 H642 0.931 . S
C623 C619 1.460 . S
C623 C622 1.477 . S
C623 H643 0.930 . S
C624 N620 1.362 . S
C624 C621 1.431 . S
C624 C634 1.476 . S
H625 C619 0.929 . S
C626 O617 1.250 . S
C626 O618 1.258 . S
O627 Mn612 2.162 . S
O627 C615 1.281 . S
O628 Mn612 2.297 . S
O628 C615 1.236 . S
N629 Mn613 2.282 . S
N629 C630 1.328 . S
N629 C634 1.318 . S
C630 N629 1.328 . S
C630 C631 1.457 . S
C630 H635 0.929 . S
C631 C630 1.457 . S
C631 C632 1.291 . S
C631 H644 0.931 . S
C632 C631 1.291 . S
C632 C633 1.373 . S
C632 H645 0.929 . S
C633 C632 1.373 . S
C633 C634 1.396 . S
C633 C640 1.403 . S
C634 C624 1.476 . S
C634 N629 1.318 . S
C634 C633 1.396 . S
H635 C630 0.929 . S
O636 Mn612 2.385 . S
O636 C614 1.234 . S
O637 Mn612 2.209 . S
O637 Mn613 2.215 . S
O637 C614 1.283 . S
O638 Mn612 2.094 . S
O638 C616 1.240 . S
O639 Mn613 2.117 . S
O639 C616 1.264 . S
C640 C633 1.403 . S
C640 C641 1.399 . S
C640 H646 0.929 . S
C641 C621 1.449 . S
C641 C640 1.399 . S
C641 H647 0.930 . S
H642 C622 0.931 . S
H643 C623 0.930 . S
H644 C631 0.931 . S
H645 C632 0.929 . S
H646 C640 0.929 . S
H647 C641 0.930 . S
Mn648 O653 2.095 1_554 S
Mn648 O663 2.162 . S
Mn648 O664 2.297 1_554 S
Mn648 O672 2.385 . S
Mn648 O673 2.209 1_554 S
Mn648 O674 2.094 . S
Mn649 O654 2.121 . S
Mn649 N656 2.257 . S
Mn649 N665 2.282 . S
Mn649 O673 2.215 . S
Mn649 O675 2.117 1_556 S
C650 O672 1.234 . S
C650 O673 1.283 1_554 S
C651 O663 1.281 . S
C651 O664 1.236 1_554 S
C652 O674 1.240 . S
C652 O675 1.264 . S
O653 Mn648 2.095 1_556 S
O653 C662 1.250 . S
O654 Mn649 2.121 . S
O654 C662 1.258 . S
C655 N656 1.326 . S
C655 C659 1.460 . S
C655 H661 0.929 . S
N656 Mn649 2.257 . S
N656 C655 1.326 . S
N656 C660 1.362 . S
C657 C658 1.258 . S
C657 C660 1.431 . S
C657 C677 1.449 . S
C658 C657 1.258 . S
C658 C659 1.477 . S
C658 H678 0.931 . S
C659 C655 1.460 . S
C659 C658 1.477 . S
C659 H679 0.930 . S
C660 N656 1.362 . S
C660 C657 1.431 . S
C660 C670 1.476 . S
H661 C655 0.929 . S
C662 O653 1.250 . S
C662 O654 1.258 . S
O663 Mn648 2.162 . S
O663 C651 1.281 . S
O664 Mn648 2.297 1_556 S
O664 C651 1.236 1_556 S
N665 Mn649 2.282 . S
N665 C666 1.328 1_556 S
N665 C670 1.318 . S
C666 N665 1.328 1_554 S
C666 C667 1.457 . S
C666 H671 0.929 . S
C667 C666 1.457 . S
C667 C668 1.291 . S
C667 H680 0.931 . S
C668 C667 1.291 . S
C668 C669 1.373 1_554 S
C668 H681 0.929 . S
C669 C668 1.373 1_556 S
C669 C670 1.396 . S
C669 C676 1.403 . S
C670 C660 1.476 . S
C670 N665 1.318 . S
C670 C669 1.396 . S
H671 C666 0.929 . S
O672 Mn648 2.385 . S
O672 C650 1.234 . S
O673 Mn648 2.209 1_556 S
O673 Mn649 2.215 . S
O673 C650 1.283 1_556 S
O674 Mn648 2.094 . S
O674 C652 1.240 . S
O675 Mn649 2.117 1_554 S
O675 C652 1.264 . S
C676 C669 1.403 . S
C676 C677 1.399 . S
C676 H682 0.929 . S
C677 C657 1.449 . S
C677 C676 1.399 . S
C677 H683 0.930 . S
H678 C658 0.931 . S
H679 C659 0.930 . S
H680 C667 0.931 . S
H681 C668 0.929 . S
H682 C676 0.929 . S
H683 C677 0.930 . S
Mn684 O689 2.095 . S
Mn684 O699 2.162 . S
Mn684 O700 2.297 . S
Mn684 O708 2.367 1_545 S
Mn684 O709 2.209 1_545 S
Mn684 O710 2.094 . S
Mn685 O690 2.121 . S
Mn685 N692 2.257 . S
Mn685 N701 2.282 . S
Mn685 O709 2.215 . S
Mn685 O711 2.117 . S
C686 O708 1.270 . S
C686 O709 1.283 . S
C687 O699 1.281 . S
C687 O700 1.236 . S
C688 O710 1.240 . S
C688 O711 1.264 1_545 S
O689 Mn684 2.095 . S
O689 C698 1.288 . S
O690 Mn685 2.121 . S
O690 C698 1.209 1_565 S
C691 N692 1.326 . S
C691 C695 1.460 . S
C691 H697 0.929 . S
N692 Mn685 2.257 . S
N692 C691 1.326 . S
N692 C696 1.362 . S
C693 C694 1.258 . S
C693 C696 1.431 . S
C693 C713 1.449 . S
C694 C693 1.258 . S
C694 C695 1.477 . S
C694 H714 0.931 . S
C695 C691 1.460 . S
C695 C694 1.477 . S
C695 H715 0.930 . S
C696 N692 1.362 . S
C696 C693 1.431 . S
C696 C706 1.476 . S
H697 C691 0.929 . S
C698 O689 1.288 . S
C698 O690 1.209 1_545 S
O699 Mn684 2.162 . S
O699 C687 1.281 . S
O700 Mn684 2.297 . S
O700 C687 1.236 . S
N701 Mn685 2.282 . S
N701 C702 1.328 . S
N701 C706 1.318 . S
C702 N701 1.328 . S
C702 C703 1.457 . S
C702 H707 0.929 . S
C703 C702 1.457 . S
C703 C704 1.291 . S
C703 H716 0.931 . S
C704 C703 1.291 . S
C704 C705 1.373 . S
C704 H717 0.929 . S
C705 C704 1.373 . S
C705 C706 1.396 . S
C705 C712 1.403 . S
C706 C696 1.476 . S
C706 N701 1.318 . S
C706 C705 1.396 . S
H707 C702 0.929 . S
O708 Mn684 2.367 1_565 S
O708 C686 1.270 . S
O709 Mn684 2.209 1_565 S
O709 Mn685 2.215 . S
O709 C686 1.283 . S
O710 Mn684 2.094 . S
O710 C688 1.240 . S
O711 Mn685 2.117 . S
O711 C688 1.264 1_565 S
C712 C705 1.403 . S
C712 C713 1.399 . S
C712 H718 0.929 . S
C713 C693 1.449 . S
C713 C712 1.399 . S
C713 H719 0.930 . S
H714 C694 0.931 . S
H715 C695 0.930 . S
H716 C703 0.931 . S
H717 C704 0.929 . S
H718 C712 0.929 . S
H719 C713 0.930 . S
Mn720 O725 2.095 . S
Mn720 O735 2.162 . S
Mn720 O736 2.297 . S
Mn720 O744 2.385 . S
Mn720 O745 2.209 . S
Mn720 O746 2.094 . S
Mn721 O726 2.121 . S
Mn721 N728 2.257 . S
Mn721 N737 2.282 . S
Mn721 O745 2.215 . S
Mn721 O747 2.117 . S
C722 O744 1.234 . S
C722 O745 1.283 . S
C723 O735 1.281 . S
C723 O736 1.236 . S
C724 O746 1.240 . S
C724 O747 1.264 . S
O725 Mn720 2.095 . S
O725 C734 1.250 . S
O726 Mn721 2.121 . S
O726 C734 1.258 . S
C727 N728 1.326 . S
C727 C731 1.460 . S
C727 H733 0.929 . S
N728 Mn721 2.257 . S
N728 C727 1.326 . S
N728 C732 1.362 . S
C729 C730 1.258 . S
C729 C732 1.431 . S
C729 C749 1.449 . S
C730 C729 1.258 . S
C730 C731 1.477 . S
C730 H750 0.931 . S
C731 C727 1.460 . S
C731 C730 1.477 . S
C731 H751 0.930 . S
C732 N728 1.362 . S
C732 C729 1.431 . S
C732 C742 1.476 . S
H733 C727 0.929 . S
C734 O725 1.250 . S
C734 O726 1.258 . S
O735 Mn720 2.162 . S
O735 C723 1.281 . S
O736 Mn720 2.297 . S
O736 C723 1.236 . S
N737 Mn721 2.282 . S
N737 C738 1.328 . S
N737 C742 1.318 . S
C738 N737 1.328 . S
C738 C739 1.457 . S
C738 H743 0.929 . S
C739 C738 1.457 . S
C739 C740 1.291 . S
C739 H752 0.931 . S
C740 C739 1.291 . S
C740 C741 1.373 . S
C740 H753 0.929 . S
C741 C740 1.373 . S
C741 C742 1.396 . S
C741 C748 1.403 . S
C742 C732 1.476 . S
C742 N737 1.318 . S
C742 C741 1.396 . S
H743 C738 0.929 . S
O744 Mn720 2.385 . S
O744 C722 1.234 . S
O745 Mn720 2.209 . S
O745 Mn721 2.215 . S
O745 C722 1.283 . S
O746 Mn720 2.094 . S
O746 C724 1.240 . S
O747 Mn721 2.117 . S
O747 C724 1.264 . S
C748 C741 1.403 . S
C748 C749 1.399 . S
C748 H754 0.929 . S
C749 C729 1.449 . S
C749 C748 1.399 . S
C749 H755 0.930 . S
H750 C730 0.931 . S
H751 C731 0.930 . S
H752 C739 0.931 . S
H753 C740 0.929 . S
H754 C748 0.929 . S
H755 C749 0.930 . S
Mn756 O761 2.095 . S
Mn756 O771 2.162 . S
Mn756 O772 2.297 . S
Mn756 O780 2.385 . S
Mn756 O781 2.209 . S
Mn756 O782 2.094 . S
Mn757 O762 2.121 . S
Mn757 N764 2.257 . S
Mn757 N773 2.282 . S
Mn757 O781 2.215 . S
Mn757 O783 2.117 . S
C758 O780 1.234 . S
C758 O781 1.283 . S
C759 O771 1.281 . S
C759 O772 1.236 . S
C760 O782 1.240 . S
C760 O783 1.264 . S
O761 Mn756 2.095 . S
O761 C770 1.250 . S
O762 Mn757 2.121 . S
O762 C770 1.258 . S
C763 N764 1.326 . S
C763 C767 1.460 . S
C763 H769 0.929 . S
N764 Mn757 2.257 . S
N764 C763 1.326 . S
N764 C768 1.362 . S
C765 C766 1.258 . S
C765 C768 1.431 . S
C765 C785 1.449 . S
C766 C765 1.258 . S
C766 C767 1.477 . S
C766 H786 0.931 . S
C767 C763 1.460 . S
C767 C766 1.477 . S
C767 H787 0.930 . S
C768 N764 1.362 . S
C768 C765 1.431 . S
C768 C778 1.476 . S
H769 C763 0.929 . S
C770 O761 1.250 . S
C770 O762 1.258 . S
O771 Mn756 2.162 . S
O771 C759 1.281 . S
O772 Mn756 2.297 . S
O772 C759 1.236 . S
N773 Mn757 2.282 . S
N773 C774 1.328 . S
N773 C778 1.318 . S
C774 N773 1.328 . S
C774 C775 1.457 . S
C774 H779 0.929 . S
C775 C774 1.457 . S
C775 C776 1.291 . S
C775 H788 0.931 . S
C776 C775 1.291 . S
C776 C777 1.373 . S
C776 H789 0.929 . S
C777 C776 1.373 . S
C777 C778 1.396 . S
C777 C784 1.403 . S
C778 C768 1.476 . S
C778 N773 1.318 . S
C778 C777 1.396 . S
H779 C774 0.929 . S
O780 Mn756 2.385 . S
O780 C758 1.234 . S
O781 Mn756 2.209 . S
O781 Mn757 2.215 . S
O781 C758 1.283 . S
O782 Mn756 2.094 . S
O782 C760 1.240 . S
O783 Mn757 2.117 . S
O783 C760 1.264 . S
C784 C777 1.403 . S
C784 C785 1.399 . S
C784 H790 0.929 . S
C785 C765 1.449 . S
C785 C784 1.399 . S
C785 H791 0.930 . S
H786 C766 0.931 . S
H787 C767 0.930 . S
H788 C775 0.931 . S
H789 C776 0.929 . S
H790 C784 0.929 . S
H791 C785 0.930 . S
Mn792 O797 2.095 . S
Mn792 O807 2.162 . S
Mn792 O808 2.297 . S
Mn792 O816 2.385 . S
Mn792 O817 2.209 . S
Mn792 O818 2.094 . S
Mn793 O798 2.121 . S
Mn793 N800 2.257 . S
Mn793 N809 2.282 . S
Mn793 O817 2.215 . S
Mn793 O819 2.117 . S
C794 O816 1.234 . S
C794 O817 1.283 . S
C795 O807 1.281 . S
C795 O808 1.236 . S
C796 O818 1.240 . S
C796 O819 1.264 . S
O797 Mn792 2.095 . S
O797 C806 1.250 . S
O798 Mn793 2.121 . S
O798 C806 1.258 . S
C799 N800 1.326 . S
C799 C803 1.460 . S
C799 H805 0.929 . S
N800 Mn793 2.257 . S
N800 C799 1.326 . S
N800 C804 1.362 . S
C801 C802 1.258 . S
C801 C804 1.431 . S
C801 C821 1.449 . S
C802 C801 1.258 . S
C802 C803 1.477 . S
C802 H822 0.931 . S
C803 C799 1.460 . S
C803 C802 1.477 . S
C803 H823 0.930 . S
C804 N800 1.362 . S
C804 C801 1.431 . S
C804 C814 1.476 . S
H805 C799 0.929 . S
C806 O797 1.250 . S
C806 O798 1.258 . S
O807 Mn792 2.162 . S
O807 C795 1.281 . S
O808 Mn792 2.297 . S
O808 C795 1.236 . S
N809 Mn793 2.282 . S
N809 C810 1.328 . S
N809 C814 1.318 . S
C810 N809 1.328 . S
C810 C811 1.457 . S
C810 H815 0.929 . S
C811 C810 1.457 . S
C811 C812 1.291 . S
C811 H824 0.931 . S
C812 C811 1.291 . S
C812 C813 1.373 . S
C812 H825 0.929 . S
C813 C812 1.373 . S
C813 C814 1.396 . S
C813 C820 1.403 . S
C814 C804 1.476 . S
C814 N809 1.318 . S
C814 C813 1.396 . S
H815 C810 0.929 . S
O816 Mn792 2.385 . S
O816 C794 1.234 . S
O817 Mn792 2.209 . S
O817 Mn793 2.215 . S
O817 C794 1.283 . S
O818 Mn792 2.094 . S
O818 C796 1.240 . S
O819 Mn793 2.117 . S
O819 C796 1.264 . S
C820 C813 1.403 . S
C820 C821 1.399 . S
C820 H826 0.929 . S
C821 C801 1.449 . S
C821 C820 1.399 . S
C821 H827 0.930 . S
H822 C802 0.931 . S
H823 C803 0.930 . S
H824 C811 0.931 . S
H825 C812 0.929 . S
H826 C820 0.929 . S
H827 C821 0.930 . S
Mn828 O833 2.095 . S
Mn828 O843 2.162 . S
Mn828 O844 2.297 . S
Mn828 O852 2.385 1_565 S
Mn828 O853 2.209 1_565 S
Mn828 O854 2.094 . S
Mn829 O834 2.121 . S
Mn829 N836 2.257 . S
Mn829 N845 2.282 . S
Mn829 O853 2.215 . S
Mn829 O855 2.117 . S
C830 O852 1.234 . S
C830 O853 1.283 . S
C831 O843 1.281 . S
C831 O844 1.236 . S
C832 O854 1.219 1_545 S
C832 O855 1.291 . S
O833 Mn828 2.095 . S
O833 C842 1.250 1_565 S
O834 Mn829 2.121 . S
O834 C842 1.258 . S
C835 N836 1.326 . S
C835 C839 1.460 . S
C835 H841 0.929 . S
N836 Mn829 2.257 . S
N836 C835 1.326 . S
N836 C840 1.362 . S
C837 C838 1.258 . S
C837 C840 1.431 . S
C837 C857 1.449 . S
C838 C837 1.258 . S
C838 C839 1.477 . S
C838 H858 0.931 . S
C839 C835 1.460 . S
C839 C838 1.477 . S
C839 H859 0.930 . S
C840 N836 1.362 . S
C840 C837 1.431 . S
C840 C850 1.476 . S
H841 C835 0.929 . S
C842 O833 1.250 1_545 S
C842 O834 1.258 . S
O843 Mn828 2.162 . S
O843 C831 1.281 . S
O844 Mn828 2.297 . S
O844 C831 1.236 . S
N845 Mn829 2.282 . S
N845 C846 1.328 . S
N845 C850 1.318 . S
C846 N845 1.328 . S
C846 C847 1.457 . S
C846 H851 0.929 . S
C847 C846 1.457 . S
C847 C848 1.291 . S
C847 H860 0.931 . S
C848 C847 1.291 . S
C848 C849 1.373 . S
C848 H861 0.929 . S
C849 C848 1.373 . S
C849 C850 1.396 . S
C849 C856 1.403 . S
C850 C840 1.476 . S
C850 N845 1.318 . S
C850 C849 1.396 . S
H851 C846 0.929 . S
O852 Mn828 2.385 1_545 S
O852 C830 1.234 . S
O853 Mn828 2.209 1_545 S
O853 Mn829 2.215 . S
O853 C830 1.283 . S
O854 Mn828 2.094 . S
O854 C832 1.219 1_565 S
O855 Mn829 2.117 . S
O855 C832 1.291 . S
C856 C849 1.403 . S
C856 C857 1.399 . S
C856 H862 0.929 . S
C857 C837 1.449 . S
C857 C856 1.399 . S
C857 H863 0.930 . S
H858 C838 0.931 . S
H859 C839 0.930 . S
H860 C847 0.931 . S
H861 C848 0.929 . S
H862 C856 0.929 . S
H863 C857 0.930 . S
Mn864 O869 2.095 . S
Mn864 O879 2.162 . S
Mn864 O880 2.297 . S
Mn864 O888 2.385 1_455 S
Mn864 O889 2.209 1_455 S
Mn864 O890 2.094 . S
Mn865 O870 2.121 . S
Mn865 N872 2.257 . S
Mn865 N881 2.282 . S
Mn865 O889 2.215 . S
Mn865 O891 2.117 . S
C866 O888 1.234 . S
C866 O889 1.283 . S
C867 O879 1.281 . S
C867 O880 1.236 . S
C868 O890 1.240 . S
C868 O891 1.264 1_455 S
O869 Mn864 2.095 . S
O869 C878 1.250 1_455 S
O870 Mn865 2.121 . S
O870 C878 1.258 . S
C871 N872 1.326 . S
C871 C875 1.460 . S
C871 H877 0.929 . S
N872 Mn865 2.257 . S
N872 C871 1.326 . S
N872 C876 1.362 . S
C873 C874 1.258 . S
C873 C876 1.431 . S
C873 C893 1.449 . S
C874 C873 1.258 . S
C874 C875 1.477 . S
C874 H894 0.931 . S
C875 C871 1.460 . S
C875 C874 1.477 . S
C875 H895 0.930 . S
C876 N872 1.362 . S
C876 C873 1.431 . S
C876 C886 1.476 . S
H877 C871 0.929 . S
C878 O869 1.250 1_655 S
C878 O870 1.258 . S
O879 Mn864 2.162 . S
O879 C867 1.281 . S
O880 Mn864 2.297 . S
O880 C867 1.236 . S
N881 Mn865 2.282 . S
N881 C882 1.328 . S
N881 C886 1.318 . S
C882 N881 1.328 . S
C882 C883 1.457 . S
C882 H887 0.929 . S
C883 C882 1.457 . S
C883 C884 1.291 . S
C883 H896 0.931 . S
C884 C883 1.291 . S
C884 C885 1.373 . S
C884 H897 0.929 . S
C885 C884 1.373 . S
C885 C886 1.396 . S
C885 C892 1.403 . S
C886 C876 1.476 . S
C886 N881 1.318 . S
C886 C885 1.396 . S
H887 C882 0.929 . S
O888 Mn864 2.385 1_655 S
O888 C866 1.234 . S
O889 Mn864 2.209 1_655 S
O889 Mn865 2.215 . S
O889 C866 1.283 . S
O890 Mn864 2.094 . S
O890 C868 1.240 . S
O891 Mn865 2.117 . S
O891 C868 1.264 1_655 S
C892 C885 1.403 . S
C892 C893 1.399 . S
C892 H898 0.929 . S
C893 C873 1.449 . S
C893 C892 1.399 . S
C893 H899 0.930 . S
H894 C874 0.931 . S
H895 C875 0.930 . S
H896 C883 0.931 . S
H897 C884 0.929 . S
H898 C892 0.929 . S
H899 C893 0.930 . S
Mn900 O905 2.095 . S
Mn900 O915 2.162 . S
Mn900 O916 2.297 . S
Mn900 O924 2.385 . S
Mn900 O925 2.209 . S
Mn900 O926 2.094 . S
Mn901 O906 2.121 . S
Mn901 N908 2.257 . S
Mn901 N917 2.282 . S
Mn901 O925 2.215 . S
Mn901 O927 2.117 . S
C902 O924 1.234 . S
C902 O925 1.283 . S
C903 O915 1.281 . S
C903 O916 1.236 . S
C904 O926 1.240 . S
C904 O927 1.264 . S
O905 Mn900 2.095 . S
O905 C914 1.250 . S
O906 Mn901 2.121 . S
O906 C914 1.258 . S
C907 N908 1.326 . S
C907 C911 1.460 . S
C907 H913 0.929 . S
N908 Mn901 2.257 . S
N908 C907 1.326 . S
N908 C912 1.362 . S
C909 C910 1.258 . S
C909 C912 1.431 . S
C909 C929 1.449 . S
C910 C909 1.258 . S
C910 C911 1.477 . S
C910 H930 0.931 . S
C911 C907 1.460 . S
C911 C910 1.477 . S
C911 H931 0.930 . S
C912 N908 1.362 . S
C912 C909 1.431 . S
C912 C922 1.476 . S
H913 C907 0.929 . S
C914 O905 1.250 . S
C914 O906 1.258 . S
O915 Mn900 2.162 . S
O915 C903 1.281 . S
O916 Mn900 2.297 . S
O916 C903 1.236 . S
N917 Mn901 2.282 . S
N917 C918 1.328 . S
N917 C922 1.318 . S
C918 N917 1.328 . S
C918 C919 1.457 . S
C918 H923 0.929 . S
C919 C918 1.457 . S
C919 C920 1.291 . S
C919 H932 0.931 . S
C920 C919 1.291 . S
C920 C921 1.373 . S
C920 H933 0.929 . S
C921 C920 1.373 . S
C921 C922 1.396 . S
C921 C928 1.403 . S
C922 C912 1.476 . S
C922 N917 1.318 . S
C922 C921 1.396 . S
H923 C918 0.929 . S
O924 Mn900 2.385 . S
O924 C902 1.234 . S
O925 Mn900 2.209 . S
O925 Mn901 2.215 . S
O925 C902 1.283 . S
O926 Mn900 2.094 . S
O926 C904 1.240 . S
O927 Mn901 2.117 . S
O927 C904 1.264 . S
C928 C921 1.403 . S
C928 C929 1.399 . S
C928 H934 0.929 . S
C929 C909 1.449 . S
C929 C928 1.399 . S
C929 H935 0.930 . S
H930 C910 0.931 . S
H931 C911 0.930 . S
H932 C919 0.931 . S
H933 C920 0.929 . S
H934 C928 0.929 . S
H935 C929 0.930 . S
Mn936 O941 2.095 1_455 S
Mn936 O951 2.162 . S
Mn936 O952 2.297 1_455 S
Mn936 O960 2.385 . S
Mn936 O961 2.209 1_455 S
Mn936 O962 2.094 . S
Mn937 O942 2.121 . S
Mn937 N944 2.257 . S
Mn937 N953 2.282 1_655 S
Mn937 O961 2.215 . S
Mn937 O963 2.117 1_655 S
C938 O960 1.234 . S
C938 O961 1.283 1_455 S
C939 O951 1.281 . S
C939 O952 1.236 1_455 S
C940 O962 1.240 . S
C940 O963 1.264 . S
O941 Mn936 2.095 1_655 S
O941 C950 1.250 . S
O942 Mn937 2.121 . S
O942 C950 1.258 . S
C943 N944 1.326 . S
C943 C947 1.460 . S
C943 H949 0.929 . S
N944 Mn937 2.257 . S
N944 C943 1.326 . S
N944 C948 1.362 . S
C945 C946 1.258 . S
C945 C948 1.431 . S
C945 C965 1.449 . S
C946 C945 1.258 . S
C946 C947 1.477 . S
C946 H966 0.931 . S
C947 C943 1.460 . S
C947 C946 1.477 . S
C947 H967 0.930 . S
C948 N944 1.362 . S
C948 C945 1.431 . S
C948 C958 1.476 . S
H949 C943 0.929 . S
C950 O941 1.250 . S
C950 O942 1.258 . S
O951 Mn936 2.162 . S
O951 C939 1.281 . S
O952 Mn936 2.297 1_655 S
O952 C939 1.236 1_655 S
N953 Mn937 2.282 1_455 S
N953 C954 1.328 . S
N953 C958 1.318 1_455 S
C954 N953 1.328 . S
C954 C955 1.457 . S
C954 H959 0.929 . S
C955 C954 1.457 . S
C955 C956 1.291 . S
C955 H968 0.931 . S
C956 C955 1.291 . S
C956 C957 1.373 1_455 S
C956 H969 0.929 . S
C957 C956 1.373 1_655 S
C957 C958 1.396 . S
C957 C964 1.403 . S
C958 C948 1.476 . S
C958 N953 1.318 1_655 S
C958 C957 1.396 . S
H959 C954 0.929 . S
O960 Mn936 2.385 . S
O960 C938 1.234 . S
O961 Mn936 2.209 1_655 S
O961 Mn937 2.215 . S
O961 C938 1.283 1_655 S
O962 Mn936 2.094 . S
O962 C940 1.240 . S
O963 Mn937 2.117 1_455 S
O963 C940 1.264 . S
C964 C957 1.403 . S
C964 C965 1.399 . S
C964 H970 0.929 . S
C965 C945 1.449 . S
C965 C964 1.399 . S
C965 H971 0.930 . S
H966 C946 0.931 . S
H967 C947 0.930 . S
H968 C955 0.931 . S
H969 C956 0.929 . S
H970 C964 0.929 . S
H971 C965 0.930 . S
Mn972 O977 2.095 . S
Mn972 O987 2.162 . S
Mn972 O988 2.297 . S
Mn972 O996 2.385 . S
Mn972 O997 2.209 . S
Mn972 O998 2.094 . S
Mn973 O978 2.121 . S
Mn973 N980 2.257 . S
Mn973 N989 2.282 . S
Mn973 O997 2.215 . S
Mn973 O999 2.117 . S
C974 O996 1.234 . S
C974 O997 1.283 . S
C975 O987 1.281 . S
C975 O988 1.236 . S
C976 O998 1.240 . S
C976 O999 1.264 . S
O977 Mn972 2.095 . S
O977 C986 1.250 . S
O978 Mn973 2.121 . S
O978 C986 1.258 . S
C979 N980 1.326 . S
C979 C983 1.460 . S
C979 H985 0.929 . S
N980 Mn973 2.257 . S
N980 C979 1.326 . S
N980 C984 1.362 . S
C981 C982 1.258 . S
C981 C984 1.431 . S
C981 C1001 1.449 . S
C982 C981 1.258 . S
C982 C983 1.477 . S
C982 H1002 0.931 . S
C983 C979 1.460 . S
C983 C982 1.477 . S
C983 H1003 0.930 . S
C984 N980 1.362 . S
C984 C981 1.431 . S
C984 C994 1.476 . S
H985 C979 0.929 . S
C986 O977 1.250 . S
C986 O978 1.258 . S
O987 Mn972 2.162 . S
O987 C975 1.281 . S
O988 Mn972 2.297 . S
O988 C975 1.236 . S
N989 Mn973 2.282 . S
N989 C990 1.328 . S
N989 C994 1.318 . S
C990 N989 1.328 . S
C990 C991 1.457 . S
C990 H995 0.929 . S
C991 C990 1.457 . S
C991 C992 1.291 . S
C991 H1004 0.931 . S
C992 C991 1.291 . S
C992 C993 1.373 . S
C992 H1005 0.929 . S
C993 C992 1.373 . S
C993 C994 1.396 . S
C993 C1000 1.403 . S
C994 C984 1.476 . S
C994 N989 1.318 . S
C994 C993 1.396 . S
H995 C990 0.929 . S
O996 Mn972 2.385 . S
O996 C974 1.234 . S
O997 Mn972 2.209 . S
O997 Mn973 2.215 . S
O997 C974 1.283 . S
O998 Mn972 2.094 . S
O998 C976 1.240 . S
O999 Mn973 2.117 . S
O999 C976 1.264 . S
C1000 C993 1.403 . S
C1000 C1001 1.399 . S
C1000 H1006 0.929 . S
C1001 C981 1.449 . S
C1001 C1000 1.399 . S
C1001 H1007 0.930 . S
H1002 C982 0.931 . S
H1003 C983 0.930 . S
H1004 C991 0.931 . S
H1005 C992 0.929 . S
H1006 C1000 0.929 . S
H1007 C1001 0.930 . S
H1008 C1016 0.950 . S
H1009 C1021 0.950 . S
H1010 C1018 0.950 . S
H1011 C1020 0.950 . S
H1012 C1022 0.950 . S
H1013 C1024 0.950 . S
H1014 C1026 0.950 . S
H1015 C1027 0.950 . S
C1016 H1008 0.950 . S
C1016 C1017 1.386 . S
C1016 C1018 1.391 . S
C1017 C1016 1.386 . S
C1017 C1021 1.393 . S
C1018 H1010 0.950 . S
C1018 C1016 1.391 . S
C1018 C1019 1.400 . S
C1019 C1018 1.400 . S
C1019 C1020 1.398 . S
C1019 C1025 1.491 . S
C1020 H1011 0.950 . S
C1020 C1019 1.398 . S
C1020 C1021 1.391 . S
C1021 H1009 0.950 . S
C1021 C1017 1.393 . S
C1021 C1020 1.391 . S
C1022 H1012 0.950 . S
C1022 C1023 1.386 . S
C1022 C1024 1.391 . S
C1023 C1022 1.386 . S
C1023 C1027 1.393 . S
C1024 H1013 0.950 . S
C1024 C1022 1.391 . S
C1024 C1025 1.400 . S
C1025 C1019 1.491 . S
C1025 C1024 1.400 . S
C1025 C1026 1.398 . S
C1026 H1014 0.950 . S
C1026 C1025 1.398 . S
C1026 C1027 1.391 . S
C1027 H1015 0.950 . S
C1027 C1023 1.393 . S
C1027 C1026 1.391 . S
H1028 C1036 0.950 . S
H1029 C1041 0.950 . S
H1030 C1038 0.950 . S
H1031 C1040 0.950 . S
H1032 C1042 0.950 . S
H1033 C1044 0.950 . S
H1034 C1046 0.950 . S
H1035 C1047 0.950 . S
C1036 H1028 0.950 . S
C1036 C1037 1.386 . S
C1036 C1038 1.391 . S
C1037 C1036 1.386 . S
C1037 C1041 1.393 . S
C1038 H1030 0.950 . S
C1038 C1036 1.391 . S
C1038 C1039 1.400 . S
C1039 C1038 1.400 . S
C1039 C1040 1.398 . S
C1039 C1045 1.491 . S
C1040 H1031 0.950 . S
C1040 C1039 1.398 . S
C1040 C1041 1.391 . S
C1041 H1029 0.950 . S
C1041 C1037 1.393 . S
C1041 C1040 1.391 . S
C1042 H1032 0.950 . S
C1042 C1043 1.386 . S
C1042 C1044 1.391 . S
C1043 C1042 1.386 . S
C1043 C1047 1.393 . S
C1044 H1033 0.950 . S
C1044 C1042 1.391 . S
C1044 C1045 1.400 . S
C1045 C1039 1.491 . S
C1045 C1044 1.400 . S
C1045 C1046 1.398 . S
C1046 H1034 0.950 . S
C1046 C1045 1.398 . S
C1046 C1047 1.391 . S
C1047 H1035 0.950 . S
C1047 C1043 1.393 . S
C1047 C1046 1.391 . S
H1048 C1056 0.950 . S
H1049 C1061 0.950 . S
H1050 C1058 0.950 . S
H1051 C1060 0.950 . S
H1052 C1062 0.950 . S
H1053 C1064 0.950 . S
H1054 C1066 0.950 . S
H1055 C1067 0.950 . S
C1056 H1048 0.950 . S
C1056 C1057 1.386 . S
C1056 C1058 1.391 . S
C1057 C1056 1.386 . S
C1057 C1061 1.393 . S
C1058 H1050 0.950 . S
C1058 C1056 1.391 . S
C1058 C1059 1.400 . S
C1059 C1058 1.400 . S
C1059 C1060 1.398 . S
C1059 C1065 1.491 . S
C1060 H1051 0.950 . S
C1060 C1059 1.398 . S
C1060 C1061 1.391 . S
C1061 H1049 0.950 . S
C1061 C1057 1.393 . S
C1061 C1060 1.391 . S
C1062 H1052 0.950 . S
C1062 C1063 1.386 . S
C1062 C1064 1.391 . S
C1063 C1062 1.386 . S
C1063 C1067 1.393 . S
C1064 H1053 0.950 . S
C1064 C1062 1.391 . S
C1064 C1065 1.400 . S
C1065 C1059 1.491 . S
C1065 C1064 1.400 . S
C1065 C1066 1.398 . S
C1066 H1054 0.950 . S
C1066 C1065 1.398 . S
C1066 C1067 1.391 . S
C1067 H1055 0.950 . S
C1067 C1063 1.393 . S
C1067 C1066 1.391 . S
H1068 C1076 0.950 . S
H1069 C1081 0.950 . S
H1070 C1078 0.950 . S
H1071 C1080 0.950 . S
H1072 C1082 0.950 . S
H1073 C1084 0.950 1_545 S
H1074 C1086 0.950 . S
H1075 C1087 0.950 . S
C1076 H1068 0.950 . S
C1076 C1077 1.386 . S
C1076 C1078 1.391 . S
C1077 C1076 1.386 . S
C1077 C1081 1.393 . S
C1078 H1070 0.950 . S
C1078 C1076 1.391 . S
C1078 C1079 1.400 . S
C1079 C1078 1.400 . S
C1079 C1080 1.398 . S
C1079 C1085 1.491 . S
C1080 H1071 0.950 . S
C1080 C1079 1.398 . S
C1080 C1081 1.391 . S
C1081 H1069 0.950 . S
C1081 C1077 1.393 . S
C1081 C1080 1.391 . S
C1082 H1072 0.950 . S
C1082 C1083 1.386 . S
C1082 C1084 1.389 1_545 S
C1083 C1082 1.386 . S
C1083 C1087 1.393 1_545 S
C1084 H1073 0.950 1_565 S
C1084 C1082 1.389 1_565 S
C1084 C1085 1.403 . S
C1085 C1079 1.491 . S
C1085 C1084 1.403 . S
C1085 C1086 1.398 . S
C1086 H1074 0.950 . S
C1086 C1085 1.398 . S
C1086 C1087 1.391 . S
C1087 H1075 0.950 . S
C1087 C1083 1.393 1_565 S
C1087 C1086 1.391 . S
H1088 C1096 0.950 . S
H1089 C1101 0.950 . S
H1090 C1098 0.950 . S
H1091 C1100 0.950 . S
H1092 C1102 0.950 . S
H1093 C1104 0.950 . S
H1094 C1106 0.950 . S
H1095 C1107 0.950 . S
C1096 H1088 0.950 . S
C1096 C1097 1.386 . S
C1096 C1098 1.391 . S
C1097 C1096 1.386 . S
C1097 C1101 1.393 . S
C1098 H1090 0.950 . S
C1098 C1096 1.391 . S
C1098 C1099 1.400 . S
C1099 C1098 1.400 . S
C1099 C1100 1.398 . S
C1099 C1105 1.491 . S
C1100 H1091 0.950 . S
C1100 C1099 1.398 . S
C1100 C1101 1.391 . S
C1101 H1089 0.950 . S
C1101 C1097 1.393 . S
C1101 C1100 1.391 . S
C1102 H1092 0.950 . S
C1102 C1103 1.386 . S
C1102 C1104 1.391 . S
C1103 C1102 1.386 . S
C1103 C1107 1.393 . S
C1104 H1093 0.950 . S
C1104 C1102 1.391 . S
C1104 C1105 1.400 . S
C1105 C1099 1.491 . S
C1105 C1104 1.400 . S
C1105 C1106 1.398 . S
C1106 H1094 0.950 . S
C1106 C1105 1.398 . S
C1106 C1107 1.391 . S
C1107 H1095 0.950 . S
C1107 C1103 1.393 . S
C1107 C1106 1.391 . S
H1108 C1116 0.950 . S
H1109 C1121 0.950 . S
H1110 C1118 0.950 . S
H1111 C1120 0.950 . S
H1112 C1122 0.950 . S
H1113 C1124 0.950 . S
H1114 C1126 0.950 . S
H1115 C1127 0.950 . S
C1116 H1108 0.950 . S
C1116 C1117 1.386 . S
C1116 C1118 1.391 . S
C1117 C1116 1.386 . S
C1117 C1121 1.393 . S
C1118 H1110 0.950 . S
C1118 C1116 1.391 . S
C1118 C1119 1.400 . S
C1119 C1118 1.400 . S
C1119 C1120 1.398 . S
C1119 C1125 1.491 . S
C1120 H1111 0.950 . S
C1120 C1119 1.398 . S
C1120 C1121 1.391 . S
C1121 H1109 0.950 . S
C1121 C1117 1.393 . S
C1121 C1120 1.391 . S
C1122 H1112 0.950 . S
C1122 C1123 1.386 . S
C1122 C1124 1.391 . S
C1123 C1122 1.386 . S
C1123 C1127 1.393 . S
C1124 H1113 0.950 . S
C1124 C1122 1.391 . S
C1124 C1125 1.400 . S
C1125 C1119 1.491 . S
C1125 C1124 1.400 . S
C1125 C1126 1.398 . S
C1126 H1114 0.950 . S
C1126 C1125 1.398 . S
C1126 C1127 1.391 . S
C1127 H1115 0.950 . S
C1127 C1123 1.393 . S
C1127 C1126 1.391 . S
H1128 C1136 0.950 . S
H1129 C1141 0.950 . S
H1130 C1138 0.950 . S
H1131 C1140 0.950 . S
H1132 C1142 0.950 . S
H1133 C1144 0.950 . S
H1134 C1146 0.950 . S
H1135 C1147 0.950 . S
C1136 H1128 0.950 . S
C1136 C1137 1.386 . S
C1136 C1138 1.391 . S
C1137 C1136 1.386 . S
C1137 C1141 1.393 . S
C1138 H1130 0.950 . S
C1138 C1136 1.391 . S
C1138 C1139 1.400 . S
C1139 C1138 1.400 . S
C1139 C1140 1.398 . S
C1139 C1145 1.491 . S
C1140 H1131 0.950 . S
C1140 C1139 1.398 . S
C1140 C1141 1.391 . S
C1141 H1129 0.950 . S
C1141 C1137 1.393 . S
C1141 C1140 1.391 . S
C1142 H1132 0.950 . S
C1142 C1143 1.386 . S
C1142 C1144 1.391 . S
C1143 C1142 1.386 . S
C1143 C1147 1.393 . S
C1144 H1133 0.950 . S
C1144 C1142 1.391 . S
C1144 C1145 1.400 . S
C1145 C1139 1.491 . S
C1145 C1144 1.400 . S
C1145 C1146 1.398 . S
C1146 H1134 0.950 . S
C1146 C1145 1.398 . S
C1146 C1147 1.391 . S
C1147 H1135 0.950 . S
C1147 C1143 1.393 . S
C1147 C1146 1.391 . S
H1148 C1156 0.973 . S
H1149 C1161 0.950 . S
H1150 C1158 0.950 . S
H1151 C1160 0.950 . S
H1152 C1162 0.950 . S
H1153 C1164 0.950 . S
H1154 C1166 0.950 . S
H1155 C1167 0.950 . S
C1156 H1148 0.973 . S
C1156 C1157 1.360 1_545 S
C1156 C1158 1.394 . S
C1157 C1156 1.360 1_565 S
C1157 C1161 1.393 . S
C1158 H1150 0.950 . S
C1158 C1156 1.394 . S
C1158 C1159 1.400 1_545 S
C1159 C1158 1.400 1_565 S
C1159 C1160 1.398 . S
C1159 C1165 1.491 . S
C1160 H1151 0.950 . S
C1160 C1159 1.398 . S
C1160 C1161 1.391 . S
C1161 H1149 0.950 . S
C1161 C1157 1.393 . S
C1161 C1160 1.391 . S
C1162 H1152 0.950 . S
C1162 C1163 1.386 . S
C1162 C1164 1.391 . S
C1163 C1162 1.386 . S
C1163 C1167 1.393 1_565 S
C1164 H1153 0.950 . S
C1164 C1162 1.391 . S
C1164 C1165 1.400 . S
C1165 C1159 1.491 . S
C1165 C1164 1.400 . S
C1165 C1166 1.398 1_565 S
C1166 H1154 0.950 . S
C1166 C1165 1.398 1_545 S
C1166 C1167 1.391 . S
C1167 H1155 0.950 . S
C1167 C1163 1.393 1_545 S
C1167 C1166 1.391 . S
H1168 C1176 0.950 . S
H1169 C1181 0.950 . S
H1170 C1178 0.950 . S
H1171 C1180 0.950 . S
H1172 C1182 0.950 . S
H1173 C1184 0.950 . S
H1174 C1186 0.950 . S
H1175 C1187 0.950 . S
C1176 H1168 0.950 . S
C1176 C1177 1.386 . S
C1176 C1178 1.391 . S
C1177 C1176 1.386 . S
C1177 C1181 1.393 . S
C1178 H1170 0.950 . S
C1178 C1176 1.391 . S
C1178 C1179 1.400 . S
C1179 C1178 1.400 . S
C1179 C1180 1.398 . S
C1179 C1185 1.491 . S
C1180 H1171 0.950 . S
C1180 C1179 1.398 . S
C1180 C1181 1.391 . S
C1181 H1169 0.950 . S
C1181 C1177 1.393 . S
C1181 C1180 1.391 . S
C1182 H1172 0.950 . S
C1182 C1183 1.386 . S
C1182 C1184 1.391 . S
C1183 C1182 1.386 . S
C1183 C1187 1.393 . S
C1184 H1173 0.950 . S
C1184 C1182 1.391 . S
C1184 C1185 1.400 . S
C1185 C1179 1.491 . S
C1185 C1184 1.400 . S
C1185 C1186 1.398 . S
C1186 H1174 0.950 . S
C1186 C1185 1.398 . S
C1186 C1187 1.391 . S
C1187 H1175 0.950 . S
C1187 C1183 1.393 . S
C1187 C1186 1.391 . S
H1188 C1196 0.950 . S
H1189 C1201 0.950 . S
H1190 C1198 0.950 . S
H1191 C1200 0.950 . S
H1192 C1202 0.950 . S
H1193 C1204 0.950 . S
H1194 C1206 0.950 . S
H1195 C1207 0.950 . S
C1196 H1188 0.950 . S
C1196 C1197 1.386 . S
C1196 C1198 1.391 . S
C1197 C1196 1.386 . S
C1197 C1201 1.393 . S
C1198 H1190 0.950 . S
C1198 C1196 1.391 . S
C1198 C1199 1.400 . S
C1199 C1198 1.400 . S
C1199 C1200 1.398 . S
C1199 C1205 1.491 . S
C1200 H1191 0.950 . S
C1200 C1199 1.398 . S
C1200 C1201 1.391 . S
C1201 H1189 0.950 . S
C1201 C1197 1.393 . S
C1201 C1200 1.391 . S
C1202 H1192 0.950 . S
C1202 C1203 1.386 . S
C1202 C1204 1.391 . S
C1203 C1202 1.386 . S
C1203 C1207 1.393 . S
C1204 H1193 0.950 . S
C1204 C1202 1.391 . S
C1204 C1205 1.400 . S
C1205 C1199 1.491 . S
C1205 C1204 1.400 . S
C1205 C1206 1.398 . S
C1206 H1194 0.950 . S
C1206 C1205 1.398 . S
C1206 C1207 1.391 . S
C1207 H1195 0.950 . S
C1207 C1203 1.393 . S
C1207 C1206 1.391 . S
H1208 C1216 0.950 . S
H1209 C1221 0.950 . S
H1210 C1218 0.950 . S
H1211 C1220 0.950 . S
H1212 C1222 0.950 . S
H1213 C1224 0.950 . S
H1214 C1226 0.950 . S
H1215 C1227 0.950 . S
C1216 H1208 0.950 . S
C1216 C1217 1.386 . S
C1216 C1218 1.391 . S
C1217 C1216 1.386 . S
C1217 C1221 1.393 . S
C1218 H1210 0.950 . S
C1218 C1216 1.391 . S
C1218 C1219 1.400 . S
C1219 C1218 1.400 . S
C1219 C1220 1.398 . S
C1219 C1225 1.491 . S
C1220 H1211 0.950 . S
C1220 C1219 1.398 . S
C1220 C1221 1.391 . S
C1221 H1209 0.950 . S
C1221 C1217 1.393 . S
C1221 C1220 1.391 . S
C1222 H1212 0.950 . S
C1222 C1223 1.386 . S
C1222 C1224 1.391 . S
C1223 C1222 1.386 . S
C1223 C1227 1.393 . S
C1224 H1213 0.950 . S
C1224 C1222 1.391 . S
C1224 C1225 1.400 . S
C1225 C1219 1.491 . S
C1225 C1224 1.400 . S
C1225 C1226 1.398 . S
C1226 H1214 0.950 . S
C1226 C1225 1.398 . S
C1226 C1227 1.391 . S
C1227 H1215 0.950 . S
C1227 C1223 1.393 . S
C1227 C1226 1.391 . S
H1228 C1236 0.950 . S
H1229 C1241 0.950 . S
H1230 C1238 0.950 . S
H1231 C1240 0.950 . S
H1232 C1242 0.950 . S
H1233 C1244 0.950 . S
H1234 C1246 0.950 . S
H1235 C1247 0.950 . S
C1236 H1228 0.950 . S
C1236 C1237 1.386 . S
C1236 C1238 1.391 . S
C1237 C1236 1.386 . S
C1237 C1241 1.393 . S
C1238 H1230 0.950 . S
C1238 C1236 1.391 . S
C1238 C1239 1.400 . S
C1239 C1238 1.400 . S
C1239 C1240 1.398 . S
C1239 C1245 1.491 . S
C1240 H1231 0.950 . S
C1240 C1239 1.398 . S
C1240 C1241 1.391 . S
C1241 H1229 0.950 . S
C1241 C1237 1.393 . S
C1241 C1240 1.391 . S
C1242 H1232 0.950 . S
C1242 C1243 1.386 . S
C1242 C1244 1.391 . S
C1243 C1242 1.386 . S
C1243 C1247 1.393 . S
C1244 H1233 0.950 . S
C1244 C1242 1.391 . S
C1244 C1245 1.400 . S
C1245 C1239 1.491 . S
C1245 C1244 1.400 . S
C1245 C1246 1.398 . S
C1246 H1234 0.950 . S
C1246 C1245 1.398 . S
C1246 C1247 1.391 . S
C1247 H1235 0.950 . S
C1247 C1243 1.393 . S
C1247 C1246 1.391 . S
H1248 C1256 0.950 . S
H1249 C1261 0.950 . S
H1250 C1258 0.950 . S
H1251 C1260 0.950 . S
H1252 C1262 0.950 . S
H1253 C1264 0.950 . S
H1254 C1266 0.950 . S
H1255 C1267 0.950 . S
C1256 H1248 0.950 . S
C1256 C1257 1.386 . S
C1256 C1258 1.391 . S
C1257 C1256 1.386 . S
C1257 C1261 1.393 . S
C1258 H1250 0.950 . S
C1258 C1256 1.391 . S
C1258 C1259 1.400 . S
C1259 C1258 1.400 . S
C1259 C1260 1.398 . S
C1259 C1265 1.491 . S
C1260 H1251 0.950 . S
C1260 C1259 1.398 . S
C1260 C1261 1.391 . S
C1261 H1249 0.950 . S
C1261 C1257 1.393 . S
C1261 C1260 1.391 . S
C1262 H1252 0.950 . S
C1262 C1263 1.386 . S
C1262 C1264 1.391 . S
C1263 C1262 1.386 . S
C1263 C1267 1.393 . S
C1264 H1253 0.950 . S
C1264 C1262 1.391 . S
C1264 C1265 1.400 . S
C1265 C1259 1.491 . S
C1265 C1264 1.400 . S
C1265 C1266 1.398 . S
C1266 H1254 0.950 . S
C1266 C1265 1.398 . S
C1266 C1267 1.391 . S
C1267 H1255 0.950 . S
C1267 C1263 1.393 . S
C1267 C1266 1.391 . S
H1268 C1276 0.950 . S
H1269 C1281 0.950 . S
H1270 C1278 0.950 . S
H1271 C1280 0.950 . S
H1272 C1282 0.950 . S
H1273 C1284 0.950 . S
H1274 C1286 0.950 . S
H1275 C1287 0.950 . S
C1276 H1268 0.950 . S
C1276 C1277 1.386 . S
C1276 C1278 1.391 . S
C1277 C1276 1.386 . S
C1277 C1281 1.393 . S
C1278 H1270 0.950 . S
C1278 C1276 1.391 . S
C1278 C1279 1.400 . S
C1279 C1278 1.400 . S
C1279 C1280 1.398 . S
C1279 C1285 1.491 . S
C1280 H1271 0.950 . S
C1280 C1279 1.398 . S
C1280 C1281 1.391 . S
C1281 H1269 0.950 . S
C1281 C1277 1.393 . S
C1281 C1280 1.391 . S
C1282 H1272 0.950 . S
C1282 C1283 1.386 . S
C1282 C1284 1.391 . S
C1283 C1282 1.386 . S
C1283 C1287 1.393 . S
C1284 H1273 0.950 . S
C1284 C1282 1.391 . S
C1284 C1285 1.400 . S
C1285 C1279 1.491 . S
C1285 C1284 1.400 . S
C1285 C1286 1.398 . S
C1286 H1274 0.950 . S
C1286 C1285 1.398 . S
C1286 C1287 1.391 . S
C1287 H1275 0.950 . S
C1287 C1283 1.393 . S
C1287 C1286 1.391 . S
H1288 C1296 0.950 . S
H1289 C1301 0.950 . S
H1290 C1298 0.950 . S
H1291 C1300 0.950 . S
H1292 C1302 0.950 . S
H1293 C1304 0.950 . S
H1294 C1306 0.950 . S
H1295 C1307 0.950 . S
C1296 H1288 0.950 . S
C1296 C1297 1.386 . S
C1296 C1298 1.391 . S
C1297 C1296 1.386 . S
C1297 C1301 1.393 . S
C1298 H1290 0.950 . S
C1298 C1296 1.391 . S
C1298 C1299 1.400 . S
C1299 C1298 1.400 . S
C1299 C1300 1.398 . S
C1299 C1305 1.491 . S
C1300 H1291 0.950 . S
C1300 C1299 1.398 . S
C1300 C1301 1.391 . S
C1301 H1289 0.950 . S
C1301 C1297 1.393 . S
C1301 C1300 1.391 . S
C1302 H1292 0.950 . S
C1302 C1303 1.386 . S
C1302 C1304 1.391 . S
C1303 C1302 1.386 . S
C1303 C1307 1.393 . S
C1304 H1293 0.950 . S
C1304 C1302 1.391 . S
C1304 C1305 1.400 . S
C1305 C1299 1.491 . S
C1305 C1304 1.400 . S
C1305 C1306 1.398 . S
C1306 H1294 0.950 . S
C1306 C1305 1.398 . S
C1306 C1307 1.391 . S
C1307 H1295 0.950 . S
C1307 C1303 1.393 . S
C1307 C1306 1.391 . S
H1308 C1316 0.950 . S
H1309 C1321 0.950 . S
H1310 C1318 0.950 . S
H1311 C1320 0.950 . S
H1312 C1322 0.950 . S
H1313 C1324 0.950 . S
H1314 C1326 0.950 . S
H1315 C1327 0.950 . S
C1316 H1308 0.950 . S
C1316 C1317 1.386 1_455 S
C1316 C1318 1.391 . S
C1317 C1316 1.386 1_655 S
C1317 C1321 1.393 . S
C1318 H1310 0.950 . S
C1318 C1316 1.391 . S
C1318 C1319 1.400 1_455 S
C1319 C1318 1.400 1_655 S
C1319 C1320 1.398 . S
C1319 C1325 1.491 . S
C1320 H1311 0.950 . S
C1320 C1319 1.398 . S
C1320 C1321 1.391 . S
C1321 H1309 0.950 . S
C1321 C1317 1.393 . S
C1321 C1320 1.391 . S
C1322 H1312 0.950 . S
C1322 C1323 1.386 1_655 S
C1322 C1324 1.391 . S
C1323 C1322 1.386 1_455 S
C1323 C1327 1.393 . S
C1324 H1313 0.950 . S
C1324 C1322 1.391 . S
C1324 C1325 1.400 . S
C1325 C1319 1.491 . S
C1325 C1324 1.400 . S
C1325 C1326 1.398 1_655 S
C1326 H1314 0.950 . S
C1326 C1325 1.398 1_455 S
C1326 C1327 1.391 . S
C1327 H1315 0.950 . S
C1327 C1323 1.393 . S
C1327 C1326 1.391 . S
H1328 C1336 0.950 . S
H1329 C1341 0.950 . S
H1330 C1338 0.950 . S
H1331 C1340 0.950 . S
H1332 C1342 0.950 . S
H1333 C1344 0.950 . S
H1334 C1346 0.950 . S
H1335 C1347 0.950 . S
C1336 H1328 0.950 . S
C1336 C1337 1.386 . S
C1336 C1338 1.391 . S
C1337 C1336 1.386 . S
C1337 C1341 1.393 . S
C1338 H1330 0.950 . S
C1338 C1336 1.391 . S
C1338 C1339 1.400 . S
C1339 C1338 1.400 . S
C1339 C1340 1.398 . S
C1339 C1345 1.491 . S
C1340 H1331 0.950 . S
C1340 C1339 1.398 . S
C1340 C1341 1.391 . S
C1341 H1329 0.950 . S
C1341 C1337 1.393 . S
C1341 C1340 1.391 . S
C1342 H1332 0.950 . S
C1342 C1343 1.386 . S
C1342 C1344 1.391 . S
C1343 C1342 1.386 . S
C1343 C1347 1.393 . S
C1344 H1333 0.950 . S
C1344 C1342 1.391 . S
C1344 C1345 1.400 . S
C1345 C1339 1.491 . S
C1345 C1344 1.400 . S
C1345 C1346 1.398 . S
C1346 H1334 0.950 . S
C1346 C1345 1.398 . S
C1346 C1347 1.391 . S
C1347 H1335 0.950 . S
C1347 C1343 1.393 . S
C1347 C1346 1.391 . S
H1348 C1356 0.950 . S
H1349 C1361 0.950 . S
H1350 C1358 0.950 . S
H1351 C1360 0.950 . S
H1352 C1362 0.950 . S
H1353 C1364 0.950 . S
H1354 C1366 0.950 . S
H1355 C1367 0.950 . S
C1356 H1348 0.950 . S
C1356 C1357 1.386 . S
C1356 C1358 1.391 . S
C1357 C1356 1.386 . S
C1357 C1361 1.393 . S
C1358 H1350 0.950 . S
C1358 C1356 1.391 . S
C1358 C1359 1.400 . S
C1359 C1358 1.400 . S
C1359 C1360 1.398 . S
C1359 C1365 1.491 . S
C1360 H1351 0.950 . S
C1360 C1359 1.398 . S
C1360 C1361 1.391 . S
C1361 H1349 0.950 . S
C1361 C1357 1.393 . S
C1361 C1360 1.391 . S
C1362 H1352 0.950 . S
C1362 C1363 1.386 . S
C1362 C1364 1.391 . S
C1363 C1362 1.386 . S
C1363 C1367 1.393 . S
C1364 H1353 0.950 . S
C1364 C1362 1.391 . S
C1364 C1365 1.400 . S
C1365 C1359 1.491 . S
C1365 C1364 1.400 . S
C1365 C1366 1.398 . S
C1366 H1354 0.950 . S
C1366 C1365 1.398 . S
C1366 C1367 1.391 . S
C1367 H1355 0.950 . S
C1367 C1363 1.393 . S
C1367 C1366 1.391 . S
H1368 C1376 0.950 . S
H1369 C1381 0.950 . S
H1370 C1378 0.950 . S
H1371 C1380 0.950 . S
H1372 C1382 0.950 . S
H1373 C1384 0.950 . S
H1374 C1386 0.950 . S
H1375 C1387 0.950 . S
C1376 H1368 0.950 . S
C1376 C1377 1.386 1_554 S
C1376 C1378 1.391 . S
C1377 C1376 1.386 1_556 S
C1377 C1381 1.393 . S
C1378 H1370 0.950 . S
C1378 C1376 1.391 . S
C1378 C1379 1.400 1_554 S
C1379 C1378 1.400 1_556 S
C1379 C1380 1.398 . S
C1379 C1385 1.491 . S
C1380 H1371 0.950 . S
C1380 C1379 1.398 . S
C1380 C1381 1.391 . S
C1381 H1369 0.950 . S
C1381 C1377 1.393 . S
C1381 C1380 1.391 . S
C1382 H1372 0.950 . S
C1382 C1383 1.386 1_556 S
C1382 C1384 1.391 . S
C1383 C1382 1.386 1_554 S
C1383 C1387 1.393 . S
C1384 H1373 0.950 . S
C1384 C1382 1.391 . S
C1384 C1385 1.400 . S
C1385 C1379 1.491 . S
C1385 C1384 1.400 . S
C1385 C1386 1.398 1_556 S
C1386 H1374 0.950 . S
C1386 C1385 1.398 1_554 S
C1386 C1387 1.391 . S
C1387 H1375 0.950 . S
C1387 C1383 1.393 . S
C1387 C1386 1.391 . S
H1388 C1396 0.950 . S
H1389 C1401 0.950 . S
H1390 C1398 0.950 . S
H1391 C1400 0.950 . S
H1392 C1402 0.950 . S
H1393 C1404 0.950 . S
H1394 C1406 0.950 . S
H1395 C1407 0.950 . S
C1396 H1388 0.950 . S
C1396 C1397 1.386 . S
C1396 C1398 1.391 . S
C1397 C1396 1.386 . S
C1397 C1401 1.393 . S
C1398 H1390 0.950 . S
C1398 C1396 1.391 . S
C1398 C1399 1.400 . S
C1399 C1398 1.400 . S
C1399 C1400 1.398 . S
C1399 C1405 1.491 . S
C1400 H1391 0.950 . S
C1400 C1399 1.398 . S
C1400 C1401 1.391 . S
C1401 H1389 0.950 . S
C1401 C1397 1.393 . S
C1401 C1400 1.391 . S
C1402 H1392 0.950 . S
C1402 C1403 1.386 . S
C1402 C1404 1.391 . S
C1403 C1402 1.386 . S
C1403 C1407 1.393 . S
C1404 H1393 0.950 . S
C1404 C1402 1.391 . S
C1404 C1405 1.400 . S
C1405 C1399 1.491 . S
C1405 C1404 1.400 . S
C1405 C1406 1.398 . S
C1406 H1394 0.950 . S
C1406 C1405 1.398 . S
C1406 C1407 1.391 . S
C1407 H1395 0.950 . S
C1407 C1403 1.393 . S
C1407 C1406 1.391 . S
H1408 C1416 0.950 . S
H1409 C1421 0.950 . S
H1410 C1418 0.950 . S
H1411 C1420 0.950 . S
H1412 C1422 0.950 . S
H1413 C1424 0.950 . S
H1414 C1426 0.950 . S
H1415 C1427 0.950 . S
C1416 H1408 0.950 . S
C1416 C1417 1.386 . S
C1416 C1418 1.391 . S
C1417 C1416 1.386 . S
C1417 C1421 1.393 . S
C1418 H1410 0.950 . S
C1418 C1416 1.391 . S
C1418 C1419 1.400 . S
C1419 C1418 1.400 . S
C1419 C1420 1.398 . S
C1419 C1425 1.491 . S
C1420 H1411 0.950 . S
C1420 C1419 1.398 . S
C1420 C1421 1.391 . S
C1421 H1409 0.950 . S
C1421 C1417 1.393 . S
C1421 C1420 1.391 . S
C1422 H1412 0.950 . S
C1422 C1423 1.386 . S
C1422 C1424 1.391 . S
C1423 C1422 1.386 . S
C1423 C1427 1.393 . S
C1424 H1413 0.950 . S
C1424 C1422 1.391 . S
C1424 C1425 1.400 . S
C1425 C1419 1.491 . S
C1425 C1424 1.400 . S
C1425 C1426 1.398 . S
C1426 H1414 0.950 . S
C1426 C1425 1.398 . S
C1426 C1427 1.391 . S
C1427 H1415 0.950 . S
C1427 C1423 1.393 . S
C1427 C1426 1.391 . S
H1428 C1436 0.950 . S
H1429 C1441 0.950 . S
H1430 C1438 0.950 . S
H1431 C1440 0.950 . S
H1432 C1442 0.950 . S
H1433 C1444 0.950 . S
H1434 C1446 0.950 . S
H1435 C1447 0.950 . S
C1436 H1428 0.950 . S
C1436 C1437 1.386 . S
C1436 C1438 1.391 . S
C1437 C1436 1.386 . S
C1437 C1441 1.393 . S
C1438 H1430 0.950 . S
C1438 C1436 1.391 . S
C1438 C1439 1.400 . S
C1439 C1438 1.400 . S
C1439 C1440 1.398 . S
C1439 C1445 1.491 . S
C1440 H1431 0.950 . S
C1440 C1439 1.398 . S
C1440 C1441 1.391 . S
C1441 H1429 0.950 . S
C1441 C1437 1.393 . S
C1441 C1440 1.391 . S
C1442 H1432 0.950 . S
C1442 C1443 1.386 . S
C1442 C1444 1.391 . S
C1443 C1442 1.386 . S
C1443 C1447 1.393 . S
C1444 H1433 0.950 . S
C1444 C1442 1.391 . S
C1444 C1445 1.400 . S
C1445 C1439 1.491 . S
C1445 C1444 1.400 . S
C1445 C1446 1.398 . S
C1446 H1434 0.950 . S
C1446 C1445 1.398 . S
C1446 C1447 1.391 . S
C1447 H1435 0.950 . S
C1447 C1443 1.393 . S
C1447 C1446 1.391 . S
H1448 C1456 0.950 . S
H1449 C1461 0.950 . S
H1450 C1458 0.950 . S
H1451 C1460 0.950 . S
H1452 C1462 0.950 . S
H1453 C1464 0.950 . S
H1454 C1466 0.950 . S
H1455 C1467 0.950 . S
C1456 H1448 0.950 . S
C1456 C1457 1.386 . S
C1456 C1458 1.391 . S
C1457 C1456 1.386 . S
C1457 C1461 1.393 . S
C1458 H1450 0.950 . S
C1458 C1456 1.391 . S
C1458 C1459 1.400 . S
C1459 C1458 1.400 . S
C1459 C1460 1.398 . S
C1459 C1465 1.491 . S
C1460 H1451 0.950 . S
C1460 C1459 1.398 . S
C1460 C1461 1.391 . S
C1461 H1449 0.950 . S
C1461 C1457 1.393 . S
C1461 C1460 1.391 . S
C1462 H1452 0.950 . S
C1462 C1463 1.386 . S
C1462 C1464 1.391 . S
C1463 C1462 1.386 . S
C1463 C1467 1.393 . S
C1464 H1453 0.950 . S
C1464 C1462 1.391 . S
C1464 C1465 1.400 . S
C1465 C1459 1.491 . S
C1465 C1464 1.400 . S
C1465 C1466 1.398 . S
C1466 H1454 0.950 . S
C1466 C1465 1.398 . S
C1466 C1467 1.391 . S
C1467 H1455 0.950 . S
C1467 C1463 1.393 . S
C1467 C1466 1.391 . S
H1468 C1476 0.950 . S
H1469 C1481 0.950 . S
H1470 C1478 0.950 . S
H1471 C1480 0.950 . S
H1472 C1482 0.950 . S
H1473 C1484 0.950 . S
H1474 C1486 0.950 . S
H1475 C1487 0.950 . S
C1476 H1468 0.950 . S
C1476 C1477 1.386 . S
C1476 C1478 1.391 . S
C1477 C1476 1.386 . S
C1477 C1481 1.393 . S
C1478 H1470 0.950 . S
C1478 C1476 1.391 . S
C1478 C1479 1.400 . S
C1479 C1478 1.400 . S
C1479 C1480 1.398 . S
C1479 C1485 1.491 . S
C1480 H1471 0.950 . S
C1480 C1479 1.398 . S
C1480 C1481 1.391 . S
C1481 H1469 0.950 . S
C1481 C1477 1.393 . S
C1481 C1480 1.391 . S
C1482 H1472 0.950 . S
C1482 C1483 1.386 . S
C1482 C1484 1.391 . S
C1483 C1482 1.386 . S
C1483 C1487 1.393 . S
C1484 H1473 0.950 . S
C1484 C1482 1.391 . S
C1484 C1485 1.400 . S
C1485 C1479 1.491 . S
C1485 C1484 1.400 . S
C1485 C1486 1.398 . S
C1486 H1474 0.950 . S
C1486 C1485 1.398 . S
C1486 C1487 1.391 . S
C1487 H1475 0.950 . S
C1487 C1483 1.393 . S
C1487 C1486 1.391 . S
H1488 C1496 0.950 . S
H1489 C1501 0.950 . S
H1490 C1498 0.950 . S
H1491 C1500 0.950 . S
H1492 C1502 0.950 . S
H1493 C1504 0.950 . S
H1494 C1506 0.950 . S
H1495 C1507 0.950 . S
C1496 H1488 0.950 . S
C1496 C1497 1.386 . S
C1496 C1498 1.391 . S
C1497 C1496 1.386 . S
C1497 C1501 1.393 . S
C1498 H1490 0.950 . S
C1498 C1496 1.391 . S
C1498 C1499 1.400 . S
C1499 C1498 1.400 . S
C1499 C1500 1.398 . S
C1499 C1505 1.491 . S
C1500 H1491 0.950 . S
C1500 C1499 1.398 . S
C1500 C1501 1.391 . S
C1501 H1489 0.950 . S
C1501 C1497 1.393 . S
C1501 C1500 1.391 . S
C1502 H1492 0.950 . S
C1502 C1503 1.386 . S
C1502 C1504 1.391 . S
C1503 C1502 1.386 . S
C1503 C1507 1.393 . S
C1504 H1493 0.950 . S
C1504 C1502 1.391 . S
C1504 C1505 1.400 . S
C1505 C1499 1.491 . S
C1505 C1504 1.400 . S
C1505 C1506 1.398 . S
C1506 H1494 0.950 . S
C1506 C1505 1.398 . S
C1506 C1507 1.391 . S
C1507 H1495 0.950 . S
C1507 C1503 1.393 . S
C1507 C1506 1.391 . S
H1508 C1516 0.950 . S
H1509 C1521 0.965 . S
H1510 C1518 0.950 . S
H1511 C1520 0.950 1_565 S
H1512 C1522 0.950 . S
H1513 C1524 0.950 . S
H1514 C1526 0.950 . S
H1515 C1527 0.950 . S
C1516 H1508 0.950 . S
C1516 C1517 1.386 . S
C1516 C1518 1.391 . S
C1517 C1516 1.386 . S
C1517 C1521 1.393 . S
C1518 H1510 0.950 . S
C1518 C1516 1.391 . S
C1518 C1519 1.400 . S
C1519 C1518 1.400 . S
C1519 C1520 1.398 . S
C1519 C1525 1.491 . S
C1520 H1511 0.950 1_545 S
C1520 C1519 1.398 . S
C1520 C1521 1.391 . S
C1521 H1509 0.965 . S
C1521 C1517 1.393 . S
C1521 C1520 1.391 . S
C1522 H1512 0.950 . S
C1522 C1523 1.386 1_565 S
C1522 C1524 1.391 . S
C1523 C1522 1.386 1_545 S
C1523 C1527 1.393 . S
C1524 H1513 0.950 . S
C1524 C1522 1.391 . S
C1524 C1525 1.400 1_565 S
C1525 C1519 1.491 . S
C1525 C1524 1.400 1_545 S
C1525 C1526 1.398 . S
C1526 H1514 0.950 . S
C1526 C1525 1.398 . S
C1526 C1527 1.391 . S
C1527 H1515 0.950 . S
C1527 C1523 1.393 . S
C1527 C1526 1.391 . S
H1528 C1536 0.950 . S
H1529 C1541 0.950 . S
H1530 C1538 0.950 . S
H1531 C1540 0.950 . S
H1532 C1542 0.950 . S
H1533 C1544 0.950 . S
H1534 C1546 0.950 . S
H1535 C1547 0.950 . S
C1536 H1528 0.950 . S
C1536 C1537 1.386 . S
C1536 C1538 1.391 . S
C1537 C1536 1.386 . S
C1537 C1541 1.393 . S
C1538 H1530 0.950 . S
C1538 C1536 1.391 . S
C1538 C1539 1.400 . S
C1539 C1538 1.400 . S
C1539 C1540 1.398 . S
C1539 C1545 1.491 . S
C1540 H1531 0.950 . S
C1540 C1539 1.398 . S
C1540 C1541 1.391 . S
C1541 H1529 0.950 . S
C1541 C1537 1.393 . S
C1541 C1540 1.391 . S
C1542 H1532 0.950 . S
C1542 C1543 1.386 . S
C1542 C1544 1.391 . S
C1543 C1542 1.386 . S
C1543 C1547 1.393 . S
C1544 H1533 0.950 . S
C1544 C1542 1.391 . S
C1544 C1545 1.400 . S
C1545 C1539 1.491 . S
C1545 C1544 1.400 . S
C1545 C1546 1.398 . S
C1546 H1534 0.950 . S
C1546 C1545 1.398 . S
C1546 C1547 1.391 . S
C1547 H1535 0.950 . S
C1547 C1543 1.393 . S
C1547 C1546 1.391 . S
H1548 C1556 0.950 . S
H1549 C1561 0.950 . S
H1550 C1558 0.950 . S
H1551 C1560 0.950 . S
H1552 C1562 0.950 . S
H1553 C1564 0.950 . S
H1554 C1566 0.950 . S
H1555 C1567 0.950 . S
C1556 H1548 0.950 . S
C1556 C1557 1.386 . S
C1556 C1558 1.391 . S
C1557 C1556 1.386 . S
C1557 C1561 1.393 . S
C1558 H1550 0.950 . S
C1558 C1556 1.391 . S
C1558 C1559 1.400 . S
C1559 C1558 1.400 . S
C1559 C1560 1.398 . S
C1559 C1565 1.491 . S
C1560 H1551 0.950 . S
C1560 C1559 1.398 . S
C1560 C1561 1.391 . S
C1561 H1549 0.950 . S
C1561 C1557 1.393 . S
C1561 C1560 1.391 . S
C1562 H1552 0.950 . S
C1562 C1563 1.386 . S
C1562 C1564 1.391 . S
C1563 C1562 1.386 . S
C1563 C1567 1.393 . S
C1564 H1553 0.950 . S
C1564 C1562 1.391 . S
C1564 C1565 1.400 . S
C1565 C1559 1.491 . S
C1565 C1564 1.400 . S
C1565 C1566 1.398 . S
C1566 H1554 0.950 . S
C1566 C1565 1.398 . S
C1566 C1567 1.391 . S
C1567 H1555 0.950 . S
C1567 C1563 1.393 . S
C1567 C1566 1.391 . S
H1568 C1576 0.950 . S
H1569 C1581 0.950 . S
H1570 C1578 0.950 . S
H1571 C1580 0.950 . S
H1572 C1582 0.950 . S
H1573 C1584 0.950 . S
H1574 C1586 0.950 . S
H1575 C1587 0.950 . S
C1576 H1568 0.950 . S
C1576 C1577 1.386 . S
C1576 C1578 1.391 . S
C1577 C1576 1.386 . S
C1577 C1581 1.393 . S
C1578 H1570 0.950 . S
C1578 C1576 1.391 . S
C1578 C1579 1.400 . S
C1579 C1578 1.400 . S
C1579 C1580 1.398 . S
C1579 C1585 1.491 . S
C1580 H1571 0.950 . S
C1580 C1579 1.398 . S
C1580 C1581 1.391 . S
C1581 H1569 0.950 . S
C1581 C1577 1.393 . S
C1581 C1580 1.391 . S
C1582 H1572 0.950 . S
C1582 C1583 1.386 . S
C1582 C1584 1.391 . S
C1583 C1582 1.386 . S
C1583 C1587 1.393 . S
C1584 H1573 0.950 . S
C1584 C1582 1.391 . S
C1584 C1585 1.400 . S
C1585 C1579 1.491 . S
C1585 C1584 1.400 . S
C1585 C1586 1.398 . S
C1586 H1574 0.950 . S
C1586 C1585 1.398 . S
C1586 C1587 1.391 . S
C1587 H1575 0.950 . S
C1587 C1583 1.393 . S
C1587 C1586 1.391 . S
H1588 C1596 0.950 . S
H1589 C1601 0.950 . S
H1590 C1598 0.950 . S
H1591 C1600 0.950 . S
H1592 C1602 0.950 . S
H1593 C1604 0.950 . S
H1594 C1606 0.950 . S
H1595 C1607 0.950 . S
C1596 H1588 0.950 . S
C1596 C1597 1.386 . S
C1596 C1598 1.391 . S
C1597 C1596 1.386 . S
C1597 C1601 1.393 . S
C1598 H1590 0.950 . S
C1598 C1596 1.391 . S
C1598 C1599 1.400 . S
C1599 C1598 1.400 . S
C1599 C1600 1.398 . S
C1599 C1605 1.491 . S
C1600 H1591 0.950 . S
C1600 C1599 1.398 . S
C1600 C1601 1.391 . S
C1601 H1589 0.950 . S
C1601 C1597 1.393 . S
C1601 C1600 1.391 . S
C1602 H1592 0.950 . S
C1602 C1603 1.386 . S
C1602 C1604 1.391 . S
C1603 C1602 1.386 . S
C1603 C1607 1.393 . S
C1604 H1593 0.950 . S
C1604 C1602 1.391 . S
C1604 C1605 1.400 . S
C1605 C1599 1.491 . S
C1605 C1604 1.400 . S
C1605 C1606 1.398 . S
C1606 H1594 0.950 . S
C1606 C1605 1.398 . S
C1606 C1607 1.391 . S
C1607 H1595 0.950 . S
C1607 C1603 1.393 . S
C1607 C1606 1.391 . S
H1608 C1616 0.950 . S
H1609 C1621 0.950 . S
H1610 C1618 0.950 . S
H1611 C1620 0.950 . S
H1612 C1622 0.950 . S
H1613 C1624 0.950 . S
H1614 C1626 0.950 . S
H1615 C1627 0.950 . S
C1616 H1608 0.950 . S
C1616 C1617 1.386 . S
C1616 C1618 1.391 . S
C1617 C1616 1.386 . S
C1617 C1621 1.393 . S
C1618 H1610 0.950 . S
C1618 C1616 1.391 . S
C1618 C1619 1.400 . S
C1619 C1618 1.400 . S
C1619 C1620 1.398 . S
C1619 C1625 1.491 . S
C1620 H1611 0.950 . S
C1620 C1619 1.398 . S
C1620 C1621 1.391 . S
C1621 H1609 0.950 . S
C1621 C1617 1.393 . S
C1621 C1620 1.391 . S
C1622 H1612 0.950 . S
C1622 C1623 1.386 . S
C1622 C1624 1.391 . S
C1623 C1622 1.386 . S
C1623 C1627 1.393 . S
C1624 H1613 0.950 . S
C1624 C1622 1.391 . S
C1624 C1625 1.400 . S
C1625 C1619 1.491 . S
C1625 C1624 1.400 . S
C1625 C1626 1.398 . S
C1626 H1614 0.950 . S
C1626 C1625 1.398 . S
C1626 C1627 1.391 . S
C1627 H1615 0.950 . S
C1627 C1623 1.393 . S
C1627 C1626 1.391 . S
H1628 C1636 0.950 . S
H1629 C1641 0.950 . S
H1630 C1638 0.950 . S
H1631 C1640 0.950 . S
H1632 C1642 0.950 . S
H1633 C1644 0.950 . S
H1634 C1646 0.950 . S
H1635 C1647 0.950 . S
C1636 H1628 0.950 . S
C1636 C1637 1.386 . S
C1636 C1638 1.391 . S
C1637 C1636 1.386 . S
C1637 C1641 1.393 . S
C1638 H1630 0.950 . S
C1638 C1636 1.391 . S
C1638 C1639 1.400 . S
C1639 C1638 1.400 . S
C1639 C1640 1.398 . S
C1639 C1645 1.491 . S
C1640 H1631 0.950 . S
C1640 C1639 1.398 . S
C1640 C1641 1.391 . S
C1641 H1629 0.950 . S
C1641 C1637 1.393 . S
C1641 C1640 1.391 . S
C1642 H1632 0.950 . S
C1642 C1643 1.386 . S
C1642 C1644 1.391 . S
C1643 C1642 1.386 . S
C1643 C1647 1.393 . S
C1644 H1633 0.950 . S
C1644 C1642 1.391 . S
C1644 C1645 1.400 . S
C1645 C1639 1.491 . S
C1645 C1644 1.400 . S
C1645 C1646 1.398 . S
C1646 H1634 0.950 . S
C1646 C1645 1.398 . S
C1646 C1647 1.391 . S
C1647 H1635 0.950 . S
C1647 C1643 1.393 . S
C1647 C1646 1.391 . S
H1648 C1656 0.950 . S
H1649 C1661 0.950 . S
H1650 C1658 0.950 . S
H1651 C1660 0.950 . S
H1652 C1662 0.950 . S
H1653 C1664 0.950 . S
H1654 C1666 0.950 . S
H1655 C1667 0.950 . S
C1656 H1648 0.950 . S
C1656 C1657 1.386 . S
C1656 C1658 1.391 . S
C1657 C1656 1.386 . S
C1657 C1661 1.393 . S
C1658 H1650 0.950 . S
C1658 C1656 1.391 . S
C1658 C1659 1.400 . S
C1659 C1658 1.400 . S
C1659 C1660 1.398 . S
C1659 C1665 1.491 . S
C1660 H1651 0.950 . S
C1660 C1659 1.398 . S
C1660 C1661 1.391 . S
C1661 H1649 0.950 . S
C1661 C1657 1.393 . S
C1661 C1660 1.391 . S
C1662 H1652 0.950 . S
C1662 C1663 1.386 . S
C1662 C1664 1.391 . S
C1663 C1662 1.386 . S
C1663 C1667 1.393 . S
C1664 H1653 0.950 . S
C1664 C1662 1.391 . S
C1664 C1665 1.400 . S
C1665 C1659 1.491 . S
C1665 C1664 1.400 . S
C1665 C1666 1.398 . S
C1666 H1654 0.950 . S
C1666 C1665 1.398 . S
C1666 C1667 1.391 . S
C1667 H1655 0.950 . S
C1667 C1663 1.393 . S
C1667 C1666 1.391 . S
H1668 C1676 0.950 . S
H1669 C1681 0.951 . S
H1670 C1678 0.950 . S
H1671 C1680 0.950 . S
H1672 C1682 0.950 . S
H1673 C1684 0.950 . S
H1674 C1686 0.950 . S
H1675 C1687 0.950 . S
C1676 H1668 0.950 . S
C1676 C1677 1.386 . S
C1676 C1678 1.391 . S
C1677 C1676 1.386 . S
C1677 C1681 1.391 1_655 S
C1678 H1670 0.950 . S
C1678 C1676 1.391 . S
C1678 C1679 1.400 . S
C1679 C1678 1.400 . S
C1679 C1680 1.398 1_655 S
C1679 C1685 1.491 . S
C1680 H1671 0.950 . S
C1680 C1679 1.398 1_455 S
C1680 C1681 1.391 . S
C1681 H1669 0.951 . S
C1681 C1677 1.391 1_455 S
C1681 C1680 1.391 . S
C1682 H1672 0.950 . S
C1682 C1683 1.372 1_455 S
C1682 C1684 1.391 . S
C1683 C1682 1.372 1_655 S
C1683 C1687 1.410 . S
C1684 H1673 0.950 . S
C1684 C1682 1.391 . S
C1684 C1685 1.400 1_455 S
C1685 C1679 1.491 . S
C1685 C1684 1.400 1_655 S
C1685 C1686 1.398 . S
C1686 H1674 0.950 . S
C1686 C1685 1.398 . S
C1686 C1687 1.391 . S
C1687 H1675 0.950 . S
C1687 C1683 1.410 . S
C1687 C1686 1.391 . S
H1688 C1696 0.950 . S
H1689 C1701 0.950 . S
H1690 C1698 0.950 . S
H1691 C1700 0.950 . S
H1692 C1702 0.950 . S
H1693 C1704 0.950 . S
H1694 C1706 0.950 . S
H1695 C1707 0.950 . S
C1696 H1688 0.950 . S
C1696 C1697 1.386 . S
C1696 C1698 1.391 . S
C1697 C1696 1.386 . S
C1697 C1701 1.393 . S
C1698 H1690 0.950 . S
C1698 C1696 1.391 . S
C1698 C1699 1.400 . S
C1699 C1698 1.400 . S
C1699 C1700 1.398 . S
C1699 C1705 1.491 . S
C1700 H1691 0.950 . S
C1700 C1699 1.398 . S
C1700 C1701 1.391 . S
C1701 H1689 0.950 . S
C1701 C1697 1.393 . S
C1701 C1700 1.391 . S
C1702 H1692 0.950 . S
C1702 C1703 1.386 . S
C1702 C1704 1.391 . S
C1703 C1702 1.386 . S
C1703 C1707 1.393 . S
C1704 H1693 0.950 . S
C1704 C1702 1.391 . S
C1704 C1705 1.400 . S
C1705 C1699 1.491 . S
C1705 C1704 1.400 . S
C1705 C1706 1.398 . S
C1706 H1694 0.950 . S
C1706 C1705 1.398 . S
C1706 C1707 1.391 . S
C1707 H1695 0.950 . S
C1707 C1703 1.393 . S
C1707 C1706 1.391 . S
H1708 C1716 0.950 . S
H1709 C1721 0.950 . S
H1710 C1718 0.950 . S
H1711 C1720 0.950 . S
H1712 C1722 0.950 . S
H1713 C1724 0.950 . S
H1714 C1726 0.950 . S
H1715 C1727 0.950 . S
C1716 H1708 0.950 . S
C1716 C1717 1.386 . S
C1716 C1718 1.391 . S
C1717 C1716 1.386 . S
C1717 C1721 1.393 . S
C1718 H1710 0.950 . S
C1718 C1716 1.391 . S
C1718 C1719 1.400 . S
C1719 C1718 1.400 . S
C1719 C1720 1.398 . S
C1719 C1725 1.491 . S
C1720 H1711 0.950 . S
C1720 C1719 1.398 . S
C1720 C1721 1.391 . S
C1721 H1709 0.950 . S
C1721 C1717 1.393 . S
C1721 C1720 1.391 . S
C1722 H1712 0.950 . S
C1722 C1723 1.386 . S
C1722 C1724 1.391 . S
C1723 C1722 1.386 . S
C1723 C1727 1.393 . S
C1724 H1713 0.950 . S
C1724 C1722 1.391 . S
C1724 C1725 1.400 . S
C1725 C1719 1.491 . S
C1725 C1724 1.400 . S
C1725 C1726 1.398 . S
C1726 H1714 0.950 . S
C1726 C1725 1.398 . S
C1726 C1727 1.391 . S
C1727 H1715 0.950 . S
C1727 C1723 1.393 . S
C1727 C1726 1.391 . S
H1728 C1736 0.950 . S
H1729 C1741 0.950 . S
H1730 C1738 0.950 . S
H1731 C1740 0.950 . S
H1732 C1742 0.950 . S
H1733 C1744 0.950 . S
H1734 C1746 0.950 . S
H1735 C1747 0.950 . S
C1736 H1728 0.950 . S
C1736 C1737 1.386 . S
C1736 C1738 1.391 . S
C1737 C1736 1.386 . S
C1737 C1741 1.393 . S
C1738 H1730 0.950 . S
C1738 C1736 1.391 . S
C1738 C1739 1.400 . S
C1739 C1738 1.400 . S
C1739 C1740 1.398 . S
C1739 C1745 1.491 . S
C1740 H1731 0.950 . S
C1740 C1739 1.398 . S
C1740 C1741 1.391 . S
C1741 H1729 0.950 . S
C1741 C1737 1.393 . S
C1741 C1740 1.391 . S
C1742 H1732 0.950 . S
C1742 C1743 1.386 . S
C1742 C1744 1.391 . S
C1743 C1742 1.386 . S
C1743 C1747 1.393 . S
C1744 H1733 0.950 . S
C1744 C1742 1.391 . S
C1744 C1745 1.400 . S
C1745 C1739 1.491 . S
C1745 C1744 1.400 . S
C1745 C1746 1.398 . S
C1746 H1734 0.950 . S
C1746 C1745 1.398 . S
C1746 C1747 1.391 . S
C1747 H1735 0.950 . S
C1747 C1743 1.393 . S
C1747 C1746 1.391 . S
H1748 C1756 0.950 . S
H1749 C1761 0.950 . S
H1750 C1758 0.950 . S
H1751 C1760 0.950 . S
H1752 C1762 0.950 . S
H1753 C1764 0.950 . S
H1754 C1766 0.950 . S
H1755 C1767 0.950 . S
C1756 H1748 0.950 . S
C1756 C1757 1.386 . S
C1756 C1758 1.391 . S
C1757 C1756 1.386 . S
C1757 C1761 1.393 . S
C1758 H1750 0.950 . S
C1758 C1756 1.391 . S
C1758 C1759 1.400 . S
C1759 C1758 1.400 . S
C1759 C1760 1.398 . S
C1759 C1765 1.491 . S
C1760 H1751 0.950 . S
C1760 C1759 1.398 . S
C1760 C1761 1.391 . S
C1761 H1749 0.950 . S
C1761 C1757 1.393 . S
C1761 C1760 1.391 . S
C1762 H1752 0.950 . S
C1762 C1763 1.386 . S
C1762 C1764 1.391 . S
C1763 C1762 1.386 . S
C1763 C1767 1.393 . S
C1764 H1753 0.950 . S
C1764 C1762 1.391 . S
C1764 C1765 1.400 . S
C1765 C1759 1.491 . S
C1765 C1764 1.400 . S
C1765 C1766 1.398 . S
C1766 H1754 0.950 . S
C1766 C1765 1.398 . S
C1766 C1767 1.391 . S
C1767 H1755 0.950 . S
C1767 C1763 1.393 . S
C1767 C1766 1.391 . S
H1768 C1776 0.950 . S
H1769 C1781 0.950 . S
H1770 C1778 0.950 . S
H1771 C1780 0.950 . S
H1772 C1782 0.950 . S
H1773 C1784 0.950 . S
H1774 C1786 0.950 . S
H1775 C1787 0.950 . S
C1776 H1768 0.950 . S
C1776 C1777 1.386 . S
C1776 C1778 1.391 . S
C1777 C1776 1.386 . S
C1777 C1781 1.393 . S
C1778 H1770 0.950 . S
C1778 C1776 1.391 . S
C1778 C1779 1.400 . S
C1779 C1778 1.400 . S
C1779 C1780 1.398 . S
C1779 C1785 1.491 . S
C1780 H1771 0.950 . S
C1780 C1779 1.398 . S
C1780 C1781 1.391 . S
C1781 H1769 0.950 . S
C1781 C1777 1.393 . S
C1781 C1780 1.391 . S
C1782 H1772 0.950 . S
C1782 C1783 1.386 . S
C1782 C1784 1.391 . S
C1783 C1782 1.386 . S
C1783 C1787 1.393 . S
C1784 H1773 0.950 . S
C1784 C1782 1.391 . S
C1784 C1785 1.400 . S
C1785 C1779 1.491 . S
C1785 C1784 1.400 . S
C1785 C1786 1.398 . S
C1786 H1774 0.950 . S
C1786 C1785 1.398 . S
C1786 C1787 1.391 . S
C1787 H1775 0.950 . S
C1787 C1783 1.393 . S
C1787 C1786 1.391 . S
H1788 C1796 0.950 . S
H1789 C1801 0.950 . S
H1790 C1798 0.950 . S
H1791 C1800 0.950 . S
H1792 C1802 0.950 . S
H1793 C1804 0.950 . S
H1794 C1806 0.950 . S
H1795 C1807 0.950 . S
C1796 H1788 0.950 . S
C1796 C1797 1.386 . S
C1796 C1798 1.391 . S
C1797 C1796 1.386 . S
C1797 C1801 1.393 . S
C1798 H1790 0.950 . S
C1798 C1796 1.391 . S
C1798 C1799 1.400 . S
C1799 C1798 1.400 . S
C1799 C1800 1.398 . S
C1799 C1805 1.491 . S
C1800 H1791 0.950 . S
C1800 C1799 1.398 . S
C1800 C1801 1.391 . S
C1801 H1789 0.950 . S
C1801 C1797 1.393 . S
C1801 C1800 1.391 . S
C1802 H1792 0.950 . S
C1802 C1803 1.386 . S
C1802 C1804 1.391 . S
C1803 C1802 1.386 . S
C1803 C1807 1.393 . S
C1804 H1793 0.950 . S
C1804 C1802 1.391 . S
C1804 C1805 1.400 . S
C1805 C1799 1.491 . S
C1805 C1804 1.400 . S
C1805 C1806 1.398 . S
C1806 H1794 0.950 . S
C1806 C1805 1.398 . S
C1806 C1807 1.391 . S
C1807 H1795 0.950 . S
C1807 C1803 1.393 . S
C1807 C1806 1.391 . S
H1808 C1816 0.950 . S
H1809 C1821 0.950 . S
H1810 C1818 0.950 . S
H1811 C1820 0.950 . S
H1812 C1822 0.950 . S
H1813 C1824 0.950 . S
H1814 C1826 0.950 . S
H1815 C1827 0.950 . S
C1816 H1808 0.950 . S
C1816 C1817 1.386 . S
C1816 C1818 1.391 . S
C1817 C1816 1.386 . S
C1817 C1821 1.393 . S
C1818 H1810 0.950 . S
C1818 C1816 1.391 . S
C1818 C1819 1.400 . S
C1819 C1818 1.400 . S
C1819 C1820 1.398 . S
C1819 C1825 1.491 . S
C1820 H1811 0.950 . S
C1820 C1819 1.398 . S
C1820 C1821 1.391 . S
C1821 H1809 0.950 . S
C1821 C1817 1.393 . S
C1821 C1820 1.391 . S
C1822 H1812 0.950 . S
C1822 C1823 1.386 . S
C1822 C1824 1.391 . S
C1823 C1822 1.386 . S
C1823 C1827 1.393 . S
C1824 H1813 0.950 . S
C1824 C1822 1.391 . S
C1824 C1825 1.400 . S
C1825 C1819 1.491 . S
C1825 C1824 1.400 . S
C1825 C1826 1.398 . S
C1826 H1814 0.950 . S
C1826 C1825 1.398 . S
C1826 C1827 1.391 . S
C1827 H1815 0.950 . S
C1827 C1823 1.393 . S
C1827 C1826 1.391 . S
H1828 C1836 0.950 . S
H1829 C1841 0.950 . S
H1830 C1838 0.950 . S
H1831 C1840 0.950 . S
H1832 C1842 0.950 . S
H1833 C1844 0.950 . S
H1834 C1846 0.950 . S
H1835 C1847 0.950 . S
C1836 H1828 0.950 . S
C1836 C1837 1.386 . S
C1836 C1838 1.391 . S
C1837 C1836 1.386 . S
C1837 C1841 1.393 . S
C1838 H1830 0.950 . S
C1838 C1836 1.391 . S
C1838 C1839 1.400 . S
C1839 C1838 1.400 . S
C1839 C1840 1.398 . S
C1839 C1845 1.491 . S
C1840 H1831 0.950 . S
C1840 C1839 1.398 . S
C1840 C1841 1.391 . S
C1841 H1829 0.950 . S
C1841 C1837 1.393 . S
C1841 C1840 1.391 . S
C1842 H1832 0.950 . S
C1842 C1843 1.386 . S
C1842 C1844 1.391 . S
C1843 C1842 1.386 . S
C1843 C1847 1.393 . S
C1844 H1833 0.950 . S
C1844 C1842 1.391 . S
C1844 C1845 1.400 . S
C1845 C1839 1.491 . S
C1845 C1844 1.400 . S
C1845 C1846 1.398 . S
C1846 H1834 0.950 . S
C1846 C1845 1.398 . S
C1846 C1847 1.391 . S
C1847 H1835 0.950 . S
C1847 C1843 1.393 . S
C1847 C1846 1.391 . S
H1848 C1856 0.950 . S
H1849 C1861 0.950 . S
H1850 C1858 0.950 . S
H1851 C1860 0.950 . S
H1852 C1862 0.950 . S
H1853 C1864 0.950 . S
H1854 C1866 0.950 . S
H1855 C1867 0.950 . S
C1856 H1848 0.950 . S
C1856 C1857 1.386 . S
C1856 C1858 1.391 . S
C1857 C1856 1.386 . S
C1857 C1861 1.393 . S
C1858 H1850 0.950 . S
C1858 C1856 1.391 . S
C1858 C1859 1.400 . S
C1859 C1858 1.400 . S
C1859 C1860 1.398 . S
C1859 C1865 1.491 . S
C1860 H1851 0.950 . S
C1860 C1859 1.398 . S
C1860 C1861 1.391 . S
C1861 H1849 0.950 . S
C1861 C1857 1.393 . S
C1861 C1860 1.391 . S
C1862 H1852 0.950 . S
C1862 C1863 1.386 . S
C1862 C1864 1.391 . S
C1863 C1862 1.386 . S
C1863 C1867 1.393 . S
C1864 H1853 0.950 . S
C1864 C1862 1.391 . S
C1864 C1865 1.400 . S
C1865 C1859 1.491 . S
C1865 C1864 1.400 . S
C1865 C1866 1.398 . S
C1866 H1854 0.950 . S
C1866 C1865 1.398 . S
C1866 C1867 1.391 . S
C1867 H1855 0.950 . S
C1867 C1863 1.393 . S
C1867 C1866 1.391 . S
H1868 C1876 0.950 . S
H1869 C1881 0.950 . S
H1870 C1878 0.950 . S
H1871 C1880 0.950 . S
H1872 C1882 0.950 . S
H1873 C1884 0.950 . S
H1874 C1886 0.950 . S
H1875 C1887 0.950 . S
C1876 H1868 0.950 . S
C1876 C1877 1.386 . S
C1876 C1878 1.391 . S
C1877 C1876 1.386 . S
C1877 C1881 1.393 . S
C1878 H1870 0.950 . S
C1878 C1876 1.391 . S
C1878 C1879 1.400 . S
C1879 C1878 1.400 . S
C1879 C1880 1.398 . S
C1879 C1885 1.491 . S
C1880 H1871 0.950 . S
C1880 C1879 1.398 . S
C1880 C1881 1.391 . S
C1881 H1869 0.950 . S
C1881 C1877 1.393 . S
C1881 C1880 1.391 . S
C1882 H1872 0.950 . S
C1882 C1883 1.386 . S
C1882 C1884 1.391 . S
C1883 C1882 1.386 . S
C1883 C1887 1.393 . S
C1884 H1873 0.950 . S
C1884 C1882 1.391 . S
C1884 C1885 1.400 . S
C1885 C1879 1.491 . S
C1885 C1884 1.400 . S
C1885 C1886 1.398 . S
C1886 H1874 0.950 . S
C1886 C1885 1.398 . S
C1886 C1887 1.391 . S
C1887 H1875 0.950 . S
C1887 C1883 1.393 . S
C1887 C1886 1.391 . S
H1888 C1896 0.950 1_554 S
H1889 C1901 0.950 . S
H1890 C1898 0.954 1_554 S
H1891 C1900 0.950 . S
H1892 C1902 0.950 . S
H1893 C1904 0.950 . S
H1894 C1906 0.950 . S
H1895 C1907 0.950 . S
C1896 H1888 0.950 1_556 S
C1896 C1897 1.386 . S
C1896 C1898 1.391 . S
C1897 C1896 1.386 . S
C1897 C1901 1.393 . S
C1898 H1890 0.954 1_556 S
C1898 C1896 1.391 . S
C1898 C1899 1.396 . S
C1899 C1898 1.396 . S
C1899 C1900 1.398 . S
C1899 C1905 1.491 . S
C1900 H1891 0.950 . S
C1900 C1899 1.398 . S
C1900 C1901 1.391 . S
C1901 H1889 0.950 . S
C1901 C1897 1.393 . S
C1901 C1900 1.391 . S
C1902 H1892 0.950 . S
C1902 C1903 1.386 . S
C1902 C1904 1.391 . S
C1903 C1902 1.386 . S
C1903 C1907 1.393 1_556 S
C1904 H1893 0.950 . S
C1904 C1902 1.391 . S
C1904 C1905 1.400 . S
C1905 C1899 1.491 . S
C1905 C1904 1.400 . S
C1905 C1906 1.398 1_556 S
C1906 H1894 0.950 . S
C1906 C1905 1.398 1_554 S
C1906 C1907 1.391 . S
C1907 H1895 0.950 . S
C1907 C1903 1.393 1_554 S
C1907 C1906 1.391 . S
H1908 C1916 0.950 . S
H1909 C1921 0.950 . S
H1910 C1918 0.950 . S
H1911 C1920 0.950 . S
H1912 C1922 0.950 . S
H1913 C1924 0.950 . S
H1914 C1926 0.950 . S
H1915 C1927 0.950 . S
C1916 H1908 0.950 . S
C1916 C1917 1.386 . S
C1916 C1918 1.391 . S
C1917 C1916 1.386 . S
C1917 C1921 1.393 . S
C1918 H1910 0.950 . S
C1918 C1916 1.391 . S
C1918 C1919 1.400 . S
C1919 C1918 1.400 . S
C1919 C1920 1.398 . S
C1919 C1925 1.491 . S
C1920 H1911 0.950 . S
C1920 C1919 1.398 . S
C1920 C1921 1.391 . S
C1921 H1909 0.950 . S
C1921 C1917 1.393 . S
C1921 C1920 1.391 . S
C1922 H1912 0.950 . S
C1922 C1923 1.386 . S
C1922 C1924 1.391 . S
C1923 C1922 1.386 . S
C1923 C1927 1.393 . S
C1924 H1913 0.950 . S
C1924 C1922 1.391 . S
C1924 C1925 1.400 . S
C1925 C1919 1.491 . S
C1925 C1924 1.400 . S
C1925 C1926 1.398 . S
C1926 H1914 0.950 . S
C1926 C1925 1.398 . S
C1926 C1927 1.391 . S
C1927 H1915 0.950 . S
C1927 C1923 1.393 . S
C1927 C1926 1.391 . S
H1928 C1936 0.950 . S
H1929 C1941 0.950 . S
H1930 C1938 0.950 1_556 S
H1931 C1940 0.950 . S
H1932 C1942 0.950 . S
H1933 C1944 0.950 . S
H1934 C1946 0.937 1_556 S
H1935 C1947 0.950 . S
C1936 H1928 0.950 . S
C1936 C1937 1.386 . S
C1936 C1938 1.391 . S
C1937 C1936 1.386 . S
C1937 C1941 1.393 . S
C1938 H1930 0.950 1_554 S
C1938 C1936 1.391 . S
C1938 C1939 1.400 . S
C1939 C1938 1.400 . S
C1939 C1940 1.398 . S
C1939 C1945 1.491 . S
C1940 H1931 0.950 . S
C1940 C1939 1.398 . S
C1940 C1941 1.391 . S
C1941 H1929 0.950 . S
C1941 C1937 1.393 . S
C1941 C1940 1.391 . S
C1942 H1932 0.950 . S
C1942 C1943 1.386 . S
C1942 C1944 1.391 . S
C1943 C1942 1.386 . S
C1943 C1947 1.393 1_554 S
C1944 H1933 0.950 . S
C1944 C1942 1.391 . S
C1944 C1945 1.400 . S
C1945 C1939 1.491 . S
C1945 C1944 1.400 . S
C1945 C1946 1.417 . S
C1946 H1934 0.937 1_554 S
C1946 C1945 1.417 . S
C1946 C1947 1.386 1_554 S
C1947 H1935 0.950 . S
C1947 C1943 1.393 1_556 S
C1947 C1946 1.386 1_556 S
H1948 C1956 0.950 . S
H1949 C1961 0.942 1_556 S
H1950 C1958 0.950 . S
H1951 C1960 0.950 1_556 S
H1952 C1962 0.937 1_556 S
H1953 C1964 0.950 1_556 S
H1954 C1966 0.950 . S
H1955 C1967 0.950 . S
C1956 H1948 0.950 . S
C1956 C1957 1.386 . S
C1956 C1958 1.391 . S
C1957 C1956 1.386 . S
C1957 C1961 1.393 . S
C1958 H1950 0.950 . S
C1958 C1956 1.391 . S
C1958 C1959 1.400 . S
C1959 C1958 1.400 . S
C1959 C1960 1.398 . S
C1959 C1965 1.491 . S
C1960 H1951 0.950 1_554 S
C1960 C1959 1.398 . S
C1960 C1961 1.391 . S
C1961 H1949 0.942 1_554 S
C1961 C1957 1.393 . S
C1961 C1960 1.391 . S
C1962 H1952 0.937 1_554 S
C1962 C1963 1.396 . S
C1962 C1964 1.393 . S
C1963 C1962 1.396 . S
C1963 C1967 1.393 . S
C1964 H1953 0.950 1_554 S
C1964 C1962 1.393 . S
C1964 C1965 1.400 . S
C1965 C1959 1.491 . S
C1965 C1964 1.400 . S
C1965 C1966 1.398 . S
C1966 H1954 0.950 . S
C1966 C1965 1.398 . S
C1966 C1967 1.391 . S
C1967 H1955 0.950 . S
C1967 C1963 1.393 . S
C1967 C1966 1.391 . S
C1023 C578 1.435 . S
C1017 C181 1.448 . S
C1043 C626 1.633 . S
C1037 C247 1.679 . S
C1057 C283 1.442 . S
C1063 C662 1.370 . S
C1083 C698 1.568 . S
C1077 C169 1.619 . S
C1103 C724 1.476 . S
C1097 C361 1.479 . S
C1123 C760 1.587 . S
C1117 C433 1.583 . S
C1137 C421 1.501 . S
C1143 C795 1.502 . S
C1163 C832 1.614 1_565 S
C1157 C355 1.624 . S
C1177 C427 1.462 . S
C1183 C866 1.445 . S
C1203 C914 1.549 . S
C1197 C325 1.607 . S
C1217 C385 1.451 . S
C1223 C867 1.457 . S
C1243 C904 1.617 . S
C1237 C463 1.605 . S
C1257 C253 1.478 . S
C1263 C950 1.402 . S
C1277 C145 1.627 . S
C1283 C939 1.625 . S
C1297 C205 1.489 . S
C1303 C940 1.476 . S
C1317 C217 1.649 . S
C1323 C938 1.643 . S
C1337 C139 1.477 . S
C1343 C686 1.452 . S
C1357 C535 1.443 . S
C1363 C687 1.446 . S
C1383 C590 1.584 . S
C1377 C565 1.636 . S
C1403 C615 1.470 . S
C1397 C313 1.470 . S
C1417 C175 1.643 . S
C1423 C722 1.643 . S
C1443 C830 1.473 . S
C1437 C397 1.481 . S
C1463 C723 1.598 . S
C1457 C349 1.599 . S
C1483 C796 1.626 . S
C1477 C457 1.616 . S
C1503 C794 1.443 . S
C1497 C505 1.453 . S
C1517 C571 1.678 . S
C1523 C842 1.629 . S
C1537 C319 1.439 . S
C1543 C734 1.362 . S
C1563 C770 1.573 . S
C1557 C493 1.623 . S
C1577 C109 1.475 . S
C1583 C652 1.469 . S
C1603 C688 1.586 . S
C1597 C1 1.579 . S
C1623 C579 1.502 . S
C1617 C61 1.500 . S
C1643 C616 1.621 . S
C1637 C103 1.620 . S
C1657 C67 1.467 . S
C1663 C902 1.456 . S
C1677 C73 1.607 . S
C1683 C878 1.558 . S
C1697 C133 1.459 . S
C1703 C903 1.461 . S
C1717 C31 1.611 . S
C1723 C868 1.621 . S
C1743 C986 1.404 . S
C1737 C289 1.479 . S
C1763 C975 1.626 . S
C1757 C469 1.628 . S
C1783 C976 1.472 . S
C1777 C529 1.483 . S
C1797 C541 1.645 . S
C1803 C974 1.641 . S
C1817 C391 1.485 . S
C1823 C758 1.469 . S
C1843 C759 1.449 . S
C1837 C211 1.444 . S
C1863 C806 1.573 . S
C1857 C241 1.633 . S
C1883 C831 1.468 . S
C1877 C277 1.472 . S
C1897 C499 1.635 . S
C1903 C650 1.642 1_556 S
C1923 C614 1.467 . S
C1917 C37 1.483 . S
C1937 C97 1.601 . S
C1943 C651 1.590 . S
C1963 C580 1.624 . S
C1957 C25 1.620 . S
