# Generated by pormake.
# Topology zzz, (3,6)-cn, num edge types: 1
# Building blocks:
#     Node 0, Type 0, BuildingBlock: BELTOD_clean_linker_0, # of connection points: 3
#     Node 1, Type 0, BuildingBlock: BELTOD_clean_linker_0, # of connection points: 3
#     Node 2, Type 0, BuildingBlock: BELTOD_clean_linker_0, # of connection points: 3
#     Node 3, Type 0, BuildingBlock: BELTOD_clean_linker_0, # of connection points: 3
#     Node 4, Type 0, BuildingBlock: BELTOD_clean_linker_0, # of connection points: 3
#     Node 5, Type 0, BuildingBlock: BELTOD_clean_linker_0, # of connection points: 3
#     Node 6, Type 0, BuildingBlock: BELTOD_clean_linker_0, # of connection points: 3
#     Node 7, Type 0, BuildingBlock: BELTOD_clean_linker_0, # of connection points: 3
#     Node 8, Type 1, BuildingBlock: VOLQOD_clean_sbu_1, # of connection points: 6
#     Node 9, Type 1, BuildingBlock: VOLQOD_clean_sbu_1, # of connection points: 6
#     Node 10, Type 1, BuildingBlock: VOLQOD_clean_sbu_1, # of connection points: 6
#     Node 11, Type 1, BuildingBlock: VOLQOD_clean_sbu_1, # of connection points: 6
#     Edge 12, Type (0, 1), BuildingBlock: AJUNOK_clean_linker_0, # of connection points: 2
#     Edge 13, Type (0, 1), BuildingBlock: AJUNOK_clean_linker_0, # of connection points: 2
#     Edge 14, Type (0, 1), BuildingBlock: AJUNOK_clean_linker_0, # of connection points: 2
#     Edge 15, Type (0, 1), BuildingBlock: AJUNOK_clean_linker_0, # of connection points: 2
#     Edge 16, Type (0, 1), BuildingBlock: AJUNOK_clean_linker_0, # of connection points: 2
#     Edge 17, Type (0, 1), BuildingBlock: AJUNOK_clean_linker_0, # of connection points: 2
#     Edge 18, Type (0, 1), BuildingBlock: AJUNOK_clean_linker_0, # of connection points: 2
#     Edge 19, Type (0, 1), BuildingBlock: AJUNOK_clean_linker_0, # of connection points: 2
#     Edge 20, Type (0, 1), BuildingBlock: AJUNOK_clean_linker_0, # of connection points: 2
#     Edge 21, Type (0, 1), BuildingBlock: AJUNOK_clean_linker_0, # of connection points: 2
#     Edge 22, Type (0, 1), BuildingBlock: AJUNOK_clean_linker_0, # of connection points: 2
#     Edge 23, Type (0, 1), BuildingBlock: AJUNOK_clean_linker_0, # of connection points: 2
#     Edge 24, Type (0, 1), BuildingBlock: AJUNOK_clean_linker_0, # of connection points: 2
#     Edge 25, Type (0, 1), BuildingBlock: AJUNOK_clean_linker_0, # of connection points: 2
#     Edge 26, Type (0, 1), BuildingBlock: AJUNOK_clean_linker_0, # of connection points: 2
#     Edge 27, Type (0, 1), BuildingBlock: AJUNOK_clean_linker_0, # of connection points: 2
#     Edge 28, Type (0, 1), BuildingBlock: AJUNOK_clean_linker_0, # of connection points: 2
#     Edge 29, Type (0, 1), BuildingBlock: AJUNOK_clean_linker_0, # of connection points: 2
#     Edge 30, Type (0, 1), BuildingBlock: AJUNOK_clean_linker_0, # of connection points: 2
#     Edge 31, Type (0, 1), BuildingBlock: AJUNOK_clean_linker_0, # of connection points: 2
#     Edge 32, Type (0, 1), BuildingBlock: AJUNOK_clean_linker_0, # of connection points: 2
#     Edge 33, Type (0, 1), BuildingBlock: AJUNOK_clean_linker_0, # of connection points: 2
#     Edge 34, Type (0, 1), BuildingBlock: AJUNOK_clean_linker_0, # of connection points: 2
#     Edge 35, Type (0, 1), BuildingBlock: AJUNOK_clean_linker_0, # of connection points: 2
# Relax obj value: 0.331
# Max RMSD: 0.253
# Mean RMSD: 0.197
data_MOF--net-zzz--node1-VOLQOD_clean_sbu_1--node2-BELTOD_clean_linker_0--edge1-AJUNOK_clean_linker_0
_symmetry_space_group_name_H-M    P1
_symmetry_Int_Tables_number       1
_symmetry_cell_setting            triclinic
loop_
_symmetry_equiv_pos_as_xyz
'x, y, z'
_cell_length_a     42.100752
_cell_length_b     41.395103
_cell_length_c     16.330146
_cell_angle_alpha  90.248687
_cell_angle_beta   90.143691
_cell_angle_gamma 92.258314
loop_
_atom_site_label
_atom_site_type_symbol
_atom_site_fract_x
_atom_site_fract_y
_atom_site_fract_z
_atom_type_partial_charge
P0 P 0.77785 0.41352 0.16187 0.0
H1 H 0.78343 0.41736 0.34052 0.0
H2 H 0.8182 0.45093 0.42844 0.0
H3 H 0.84472 0.51041 0.22118 0.0
H4 H 0.80984 0.47651 0.13303 0.0
H5 H 0.7399 0.37674 0.04542 0.0
H6 H 0.69809 0.39072 0.95043 0.0
H7 H 0.69729 0.48666 0.05579 0.0
H8 H 0.74081 0.47285 0.14819 0.0
H9 H 0.83519 0.37596 0.17155 0.0
H10 H 0.78961 0.43609 0.99473 0.0
O11 O 0.76935 0.37974 0.21419 0.0
H12 H 0.88061 0.37116 0.07848 0.0
H13 H 0.83423 0.43114 0.90259 0.0
C14 C 0.79422 0.44428 0.23008 0.0
C15 C 0.79578 0.4383 0.31437 0.0
C16 C 0.81558 0.45767 0.36484 0.0
C17 C 0.83421 0.48335 0.33173 0.0
C18 C 0.83065 0.49079 0.24834 0.0
C19 C 0.81067 0.47148 0.198 0.0
C20 C 0.7431 0.42358 0.10452 0.0
C21 C 0.73033 0.40061 0.04916 0.0
C22 C 0.70628 0.40863 0.99503 0.0
C23 C 0.69387 0.43964 0.99642 0.0
C24 C 0.70637 0.46256 0.05317 0.0
C25 C 0.73098 0.45463 0.1066 0.0
C26 C 0.80865 0.40563 0.08924 0.0
C27 C 0.83451 0.38728 0.11193 0.0
C28 C 0.86036 0.38456 0.05895 0.0
C29 C 0.86052 0.40011 0.9826 0.0
C30 C 0.83425 0.41793 0.95972 0.0
C31 C 0.8087 0.42086 0.01276 0.0
P32 P 0.05576 0.74767 0.22286 0.0
H33 H 0.06413 0.75965 0.39802 0.0
H34 H 0.03818 0.7972 0.4885 0.0
H35 H 0.96509 0.80969 0.30678 0.0
H36 H 0.99134 0.77187 0.21588 0.0
H37 H 0.08229 0.71785 0.08095 0.0
H38 H 0.0622 0.677 0.98372 0.0
H39 H 0.97659 0.66373 0.12643 0.0
H40 H 0.99675 0.70544 0.22406 0.0
H41 H 0.1028 0.80215 0.22628 0.0
H42 H 0.02298 0.7692 0.07738 0.0
O43 O 0.08993 0.73707 0.26509 0.0
H44 H 0.10691 0.85254 0.14619 0.0
H45 H 0.02712 0.8189 0.99841 0.0
C46 C 0.02967 0.76281 0.30016 0.0
C47 C 0.04171 0.76917 0.37892 0.0
C48 C 0.02676 0.7907 0.43092 0.0
C49 C -0.00043 0.80646 0.40477 0.0
C50 C 0.986 0.79789 0.32855 0.0
C51 C 0.00089 0.77612 0.27678 0.0
C52 C 0.04092 0.71478 0.15924 0.0
C53 C 0.05922 0.70613 0.09167 0.0
C54 C 0.04764 0.68304 0.03579 0.0
C55 C 0.01761 0.66782 0.04684 0.0
C56 C -0.00034 0.67551 0.11632 0.0
C57 C 0.01117 0.69916 0.17205 0.0
C58 C 0.06304 0.78167 0.15657 0.0
C59 C 0.08678 0.80535 0.17523 0.0
C60 C 0.0891 0.83402 0.12986 0.0
C61 C 0.0673 0.83928 0.06666 0.0
C62 C 0.04418 0.81519 0.04697 0.0
C63 C 0.04196 0.78672 0.09178 0.0
P64 P 0.76648 0.07703 0.19254 0.0
H65 H 0.75419 0.08345 0.36755 0.0
H66 H 0.72047 0.05135 0.4595 0.0
H67 H 0.70947 0.97688 0.27441 0.0
H68 H 0.74311 0.00957 0.18164 0.0
H69 H 0.79728 0.10538 0.0517 0.0
H70 H 0.83924 0.08812 0.96096 0.0
H71 H 0.85119 0.00361 0.11065 0.0
H72 H 0.80805 0.02063 0.20026 0.0
H73 H 0.71425 0.12223 0.19115 0.0
H74 H 0.74622 0.04302 0.04424 0.0
O75 O 0.77701 0.11222 0.23706 0.0
H76 H 0.66829 0.12732 0.09909 0.0
H77 H 0.70092 0.04792 0.95336 0.0
C78 C 0.75134 0.04884 0.26787 0.0
C79 C 0.74561 0.05969 0.34764 0.0
C80 C 0.72639 0.04116 0.40053 0.0
C81 C 0.71243 0.01144 0.37443 0.0
C82 C 0.71996 0.99964 0.29624 0.0
C83 C 0.73929 0.01822 0.24337 0.0
C84 C 0.79946 0.06421 0.13225 0.0
C85 C 0.80893 0.08313 0.06512 0.0
C86 C 0.83294 0.07324 0.01331 0.0
C87 C 0.84836 0.04434 0.02811 0.0
C88 C 0.83925 0.02561 0.09659 0.0
C89 C 0.81485 0.03547 0.1483 0.0
C90 C 0.73405 0.08284 0.12313 0.0
C91 C 0.71165 0.10632 0.13856 0.0
C92 C 0.68541 0.1091 0.08641 0.0
C93 C 0.68135 0.08827 0.01867 0.0
C94 C 0.70385 0.06477 0.00404 0.0
C95 C 0.72977 0.06193 0.05608 0.0
P96 P 0.50216 0.74407 0.21962 0.0
H97 H 0.48424 0.72128 0.38136 0.0
H98 H 0.51091 0.68447 0.47197 0.0
H99 H 0.59729 0.6982 0.33281 0.0
H100 H 0.57083 0.73674 0.24414 0.0
H101 H 0.52302 0.75077 0.04756 0.0
H102 H 0.53624 0.79783 0.96468 0.0
H103 H 0.53071 0.85905 0.17826 0.0
H104 H 0.51775 0.81133 0.26265 0.0
H105 H 0.44556 0.7071 0.15719 0.0
H106 H 0.54765 0.70273 0.14122 0.0
O107 O 0.46674 0.75512 0.25297 0.0
H108 H 0.43988 0.66004 0.06466 0.0
H109 H 0.54196 0.65598 0.05139 0.0
C110 C 0.52544 0.73149 0.30543 0.0
C111 C 0.5094 0.71797 0.37291 0.0
C112 C 0.52467 0.69679 0.42466 0.0
C113 C 0.55597 0.68826 0.40847 0.0
C114 C 0.5731 0.70443 0.34625 0.0
C115 C 0.55798 0.72639 0.2957 0.0
C116 C 0.51949 0.77736 0.16196 0.0
C117 C 0.52562 0.77395 0.07792 0.0
C118 C 0.53319 0.80099 0.03006 0.0
C119 C 0.53422 0.83202 0.06495 0.0
C120 C 0.52982 0.83533 0.14987 0.0
C121 C 0.52258 0.80812 0.19806 0.0
C122 C 0.49706 0.70848 0.15625 0.0
C123 C 0.46668 0.69589 0.13488 0.0
C124 C 0.4634 0.66899 0.08263 0.0
C125 C 0.49052 0.65472 0.05117 0.0
C126 C 0.52075 0.66674 0.07492 0.0
C127 C 0.52398 0.69337 0.12678 0.0
P128 P 0.22432 0.474 0.27652 0.0
H129 H 0.21167 0.41832 0.16914 0.0
H130 H 0.18497 0.41647 0.03645 0.0
H131 H 0.20207 0.5194 0.011 0.0
H132 H 0.22883 0.52121 0.14386 0.0
H133 H 0.25386 0.44991 0.42307 0.0
H134 H 0.3043 0.46204 0.4908 0.0
H135 H 0.33 0.53008 0.29998 0.0
H136 H 0.27944 0.51654 0.2296 0.0
H137 H 0.15596 0.47374 0.27788 0.0
H138 H 0.2331 0.54296 0.32555 0.0
O139 O 0.20955 0.43969 0.31742 0.0
H140 H 0.11787 0.51385 0.31382 0.0
H141 H 0.19475 0.58391 0.36039 0.0
C142 C 0.22178 0.47002 0.16704 0.0
C143 C 0.21112 0.44028 0.13349 0.0
C144 C 0.1957 0.43922 0.05772 0.0
C145 C 0.19103 0.46785 0.01434 0.0
C146 C 0.20551 0.49693 0.04297 0.0
C147 C 0.22093 0.49797 0.11895 0.0
C148 C 0.26305 0.48199 0.32062 0.0
C149 C 0.27038 0.46719 0.39493 0.0
C150 C 0.29908 0.47459 0.43459 0.0
C151 C 0.32082 0.49766 0.40195 0.0
C152 C 0.31362 0.51231 0.32679 0.0
C153 C 0.28486 0.50454 0.28641 0.0
C154 C 0.19729 0.505 0.30191 0.0
C155 C 0.16467 0.49776 0.29544 0.0
C156 C 0.14287 0.52108 0.31402 0.0
C157 C 0.15323 0.55242 0.33849 0.0
C158 C 0.18607 0.56009 0.34109 0.0
C159 C 0.20798 0.53656 0.32234 0.0
P160 P 0.11422 0.23793 0.20945 0.0
H161 H 0.16241 0.20091 0.12917 0.0
H162 H 0.1577 0.16564 0.00996 0.0
H163 H 0.06928 0.20901 0.94605 0.0
H164 H 0.07581 0.24611 0.06136 0.0
H165 H 0.13915 0.30426 0.18681 0.0
H166 H 0.12172 0.35578 0.24211 0.0
H167 H 0.03582 0.30736 0.33109 0.0
H168 H 0.05209 0.25715 0.2711 0.0
H169 H 0.06251 0.19326 0.14837 0.0
H170 H 0.10903 0.21606 0.37865 0.0
O171 O 0.1497 0.23879 0.25541 0.0
H172 H 0.02774 0.15373 0.2156 0.0
H173 H 0.07372 0.17612 0.44659 0.0
C174 C 0.11926 0.22591 0.10449 0.0
C175 C 0.14303 0.20422 0.08667 0.0
C176 C 0.14003 0.18363 0.01902 0.0
C177 C 0.11267 0.18373 0.96951 0.0
C178 C 0.09089 0.20831 0.98187 0.0
C179 C 0.09458 0.22972 0.04813 0.0
C180 C 0.09731 0.27669 0.22619 0.0
C181 C 0.11611 0.30507 0.21594 0.0
C182 C 0.10635 0.33437 0.24886 0.0
C183 C 0.07791 0.33547 0.2939 0.0
C184 C 0.05795 0.30748 0.2974 0.0
C185 C 0.06743 0.27848 0.2633 0.0
C186 C 0.08927 0.20717 0.25789 0.0
C187 C 0.0657 0.18973 0.21309 0.0
C188 C 0.04543 0.16718 0.25168 0.0
C189 C 0.04787 0.16216 0.33611 0.0
C190 C 0.07104 0.17998 0.38141 0.0
C191 C 0.09151 0.20242 0.34254 0.0
P192 P 0.30511 0.0583 0.25498 0.0
H193 H 0.31803 0.1085 0.13218 0.0
H194 H 0.34889 0.10545 0.00613 0.0
H195 H 0.34147 0.00118 0.01665 0.0
H196 H 0.3094 0.00442 0.14005 0.0
H197 H 0.2723 0.08158 0.39689 0.0
H198 H 0.22401 0.06292 0.46642 0.0
H199 H 0.20346 0.99514 0.26986 0.0
H200 H 0.25203 0.01461 0.19877 0.0
H201 H 0.37355 0.05865 0.26969 0.0
H202 H 0.29446 0.99334 0.32811 0.0
O203 O 0.31712 0.09487 0.28911 0.0
H204 H 0.41035 0.01908 0.31937 0.0
H205 H 0.33125 0.95351 0.377 0.0
C206 C 0.31199 0.05666 0.14644 0.0
C207 C 0.32179 0.085 0.10537 0.0
C208 C 0.33991 0.08323 0.03398 0.0
C209 C 0.34882 0.05308 0.0036 0.0
C210 C 0.33535 0.02481 0.03894 0.0
C211 C 0.31682 0.02662 0.10953 0.0
C212 C 0.26551 0.04982 0.29208 0.0
C213 C 0.25706 0.06332 0.36735 0.0
C214 C 0.22972 0.05225 0.40784 0.0
C215 C 0.21052 0.02699 0.37455 0.0
C216 C 0.21806 0.0145 0.29702 0.0
C217 C 0.24556 0.02576 0.25611 0.0
C218 C 0.33129 0.0294 0.29722 0.0
C219 C 0.36411 0.03583 0.29333 0.0
C220 C 0.3851 0.01289 0.32003 0.0
C221 C 0.37361 0.9829 0.35037 0.0
C222 C 0.34068 0.9763 0.35316 0.0
C223 C 0.31966 0.99929 0.32608 0.0
P224 P 0.42422 0.24685 0.15925 0.0
H225 H 0.38653 0.25912 0.01249 0.0
H226 H 0.39955 0.29781 0.90414 0.0
H227 H 0.49867 0.29594 0.97067 0.0
H228 H 0.48568 0.25782 0.07925 0.0
H229 H 0.39859 0.20752 0.29077 0.0
H230 H 0.42043 0.16443 0.37238 0.0
H231 H 0.50206 0.16319 0.21322 0.0
H232 H 0.47984 0.20612 0.13054 0.0
H233 H 0.42686 0.31564 0.12358 0.0
H234 H 0.4596 0.25396 0.31645 0.0
O235 O 0.38476 0.24741 0.16829 0.0
H236 H 0.45617 0.36131 0.1839 0.0
H237 H 0.48618 0.30067 0.3823 0.0
C238 C 0.43508 0.25546 0.05463 0.0
C239 C 0.41129 0.26557 0.00116 0.0
C240 C 0.41865 0.28816 0.93997 0.0
C241 C 0.44994 0.30063 0.93113 0.0
C242 C 0.4743 0.28685 0.97653 0.0
C243 C 0.46692 0.26438 0.03785 0.0
C244 C 0.43737 0.20993 0.20393 0.0
C245 C 0.42075 0.19741 0.27177 0.0
C246 C 0.4334 0.17304 0.31902 0.0
C247 C 0.463 0.16067 0.2994 0.0
C248 C 0.47907 0.17218 0.22932 0.0
C249 C 0.46639 0.19679 0.18208 0.0
C250 C 0.4413 0.28112 0.21453 0.0
C251 C 0.43985 0.31195 0.17983 0.0
C252 C 0.45639 0.33828 0.21502 0.0
C253 C 0.47321 0.3348 0.28865 0.0
C254 C 0.47378 0.30407 0.32498 0.0
C255 C 0.45814 0.27737 0.28789 0.0
O256 O 0.10112 0.99571 0.64703 0.0
Zn257 Zn 0.06811 0.00027 0.73591 0.0
O258 O 0.025 1.00002 0.68769 0.0
Zn259 Zn 0.00636 0.04134 0.70783 0.0
Zn260 Zn 0.02691 0.99283 0.56979 0.0
Zn261 Zn 0.99749 0.96622 0.73579 0.0
O262 O 0.96749 0.03681 0.77751 0.0
O263 O 0.95841 0.98395 0.79052 0.0
O264 O 0.07932 0.04337 0.79119 0.0
O265 O 0.03697 0.07185 0.76438 0.0
O266 O 0.99708 0.06403 0.60411 0.0
O267 O 0.0097 0.0298 0.50623 0.0
O268 O 0.00617 0.95011 0.53742 0.0
O269 O 0.07167 0.9647 0.82055 0.0
O270 O 0.98633 0.93044 0.65357 0.0
O271 O 0.02158 0.94549 0.82494 0.0
C272 C 0.09914 0.99353 0.56927 0.0
C273 C 0.95087 0.01294 0.80514 0.0
C274 C 0.00011 0.05724 0.52871 0.0
C275 C 0.06473 0.06975 0.79392 0.0
C276 C 0.99174 0.92755 0.57711 0.0
C277 C 0.05004 0.94611 0.85143 0.0
O278 O 0.07227 0.99218 0.53339 0.0
O279 O 0.51152 0.07451 0.6059 0.0
Zn280 Zn 0.51839 0.04766 0.70803 0.0
O281 O 0.52673 0.00247 0.67812 0.0
Zn282 Zn 0.49168 0.97434 0.71551 0.0
Zn283 Zn 0.53045 0.99835 0.5599 0.0
Zn284 Zn 0.56632 0.98843 0.72635 0.0
O285 O 0.50669 0.94211 0.79683 0.0
O286 O 0.5592 0.95002 0.80215 0.0
O287 O 0.47816 0.05018 0.77536 0.0
O288 O 0.45864 0.99961 0.77282 0.0
O289 O 0.46896 0.95249 0.62104 0.0
O290 O 0.49869 0.96604 0.51404 0.0
O291 O 0.57454 0.98845 0.52455 0.0
O292 O 0.55454 0.0673 0.77667 0.0
O293 O 0.5999 0.97991 0.6409 0.0
O294 O 0.58495 0.02486 0.79308 0.0
C295 C 0.51231 0.06768 0.52966 0.0
C296 C 0.53371 0.93523 0.82564 0.0
C297 C 0.47443 0.95132 0.54445 0.0
C298 C 0.45653 0.02907 0.79364 0.0
C299 C 0.59976 0.98181 0.56306 0.0
C300 C 0.57886 0.05425 0.80667 0.0
O301 O 0.51946 0.03968 0.50534 0.0
O302 O 0.44374 0.4983 0.64371 0.0
Zn303 Zn 0.48045 0.49125 0.72137 0.0
O304 O 0.52091 0.49314 0.6598 0.0
Zn305 Zn 0.53964 0.45095 0.66009 0.0
Zn306 Zn 0.51344 0.50596 0.54752 0.0
Zn307 Zn 0.55123 0.52443 0.70736 0.0
O308 O 0.58175 0.45188 0.71892 0.0
O309 O 0.58749 0.50267 0.76321 0.0
O310 O 0.47242 0.44702 0.77468 0.0
O311 O 0.51259 0.42015 0.72494 0.0
O312 O 0.5394 0.43041 0.54794 0.0
O313 O 0.52015 0.4693 0.47161 0.0
O314 O 0.53923 0.5456 0.51495 0.0
O315 O 0.4799 0.52755 0.80606 0.0
O316 O 0.56711 0.55828 0.62678 0.0
O317 O 0.52847 0.54981 0.79001 0.0
C318 C 0.44237 0.50857 0.57032 0.0
C319 C 0.59657 0.47367 0.76108 0.0
C320 C 0.52903 0.44051 0.47975 0.0
C321 C 0.48737 0.42093 0.76727 0.0
C322 C 0.55939 0.56388 0.5529 0.0
C323 C 0.50115 0.54937 0.82306 0.0
O324 O 0.46748 0.51434 0.5289 0.0
O325 O 0.95633 0.53693 0.56559 0.0
Zn326 Zn 0.99823 0.54274 0.62949 0.0
O327 O 0.01458 0.50031 0.66217 0.0
Zn328 Zn 0.01548 0.49635 0.78067 0.0
Zn329 Zn 0.98799 0.46525 0.61571 0.0
Zn330 Zn 0.05776 0.49576 0.62425 0.0
O331 O 0.05837 0.48423 0.82349 0.0
O332 O 0.08913 0.48799 0.71399 0.0
O333 O 0.99295 0.57099 0.73085 0.0
O334 O 0.00588 0.53871 0.83299 0.0
O335 O 0.98305 0.46327 0.8183 0.0
O336 O 0.96548 0.43926 0.70431 0.0
O337 O 0.01253 0.43642 0.54087 0.0
O338 O 0.03018 0.56698 0.55556 0.0
O339 O 0.06096 0.45948 0.54262 0.0
O340 O 0.0718 0.53589 0.5688 0.0
C341 C 0.94314 0.51136 0.53473 0.0
C342 C 0.08562 0.48308 0.7902 0.0
C343 C 0.96536 0.44204 0.78205 0.0
C344 C 0.99739 0.56604 0.80711 0.0
C345 C 0.04124 0.43775 0.51634 0.0
C346 C 0.05935 0.56142 0.54317 0.0
O347 O 0.95385 0.48352 0.54719 0.0
C348 C 0.15259 0.0118 0.38677 0.0
C349 C 0.18303 0.01379 0.42209 0.0
C350 C 0.12576 0.00348 0.43404 0.0
C351 C 0.12836 0.99684 0.5185 0.0
H352 H 0.1493 0.01817 0.32311 0.0
H353 H 0.10268 0.00372 0.40463 0.0
S354 S 0.20371 0.9936 0.63636 0.0
N355 N 0.21491 0.0046 0.54343 0.0
N356 N 0.16458 0.98925 0.63267 0.0
C357 C 0.15901 0.99673 0.55308 0.0
C358 C 0.18629 0.00515 0.50483 0.0
C359 C 0.47991 0.14432 0.43949 0.0
C360 C 0.47758 0.13726 0.35531 0.0
C361 C 0.49212 0.12216 0.49479 0.0
C362 C 0.50235 0.09187 0.4683 0.0
H363 H 0.47202 0.16717 0.46295 0.0
H364 H 0.4929 0.12868 0.55909 0.0
S365 S 0.50137 0.06197 0.25286 0.0
N366 N 0.4867 0.0983 0.24736 0.0
N367 N 0.50973 0.05641 0.35052 0.0
C368 C 0.50069 0.08481 0.38353 0.0
C369 C 0.48832 0.10754 0.32728 0.0
C370 C 0.38015 0.50527 0.40173 0.0
C371 C 0.35138 0.50511 0.44522 0.0
C372 C 0.40944 0.50806 0.4426 0.0
C373 C 0.41114 0.5104 0.52867 0.0
H374 H 0.3801 0.50179 0.33595 0.0
H375 H 0.4309 0.50689 0.40647 0.0
S376 S 0.34265 0.51654 0.6696 0.0
N377 N 0.32635 0.51194 0.57801 0.0
N378 N 0.38143 0.51609 0.65504 0.0
C379 C 0.38255 0.51211 0.57246 0.0
C380 C 0.3527 0.50971 0.53071 0.0
C381 C 0.03833 0.37386 0.34859 0.0
C382 C 0.07002 0.36436 0.34361 0.0
C383 C 0.02935 0.39781 0.40388 0.0
C384 C 0.05177 0.41362 0.45575 0.0
H385 H 0.0201 0.36222 0.31053 0.0
H386 H 0.00456 0.40382 0.40625 0.0
S387 S 0.13804 0.39856 0.46588 0.0
N388 N 0.12398 0.37301 0.39557 0.0
N389 N 0.1073 0.41886 0.49696 0.0
C390 C 0.08377 0.40531 0.44937 0.0
C391 C 0.09285 0.38055 0.39389 0.0
C392 C 0.89762 0.05829 0.94897 0.0
C393 C 0.87445 0.03484 0.97279 0.0
C394 C 0.92171 0.05092 0.89407 0.0
C395 C 0.92397 0.01965 0.86075 0.0
H396 H 0.89725 0.08266 0.97331 0.0
H397 H 0.93897 0.07 0.87859 0.0
S398 S 0.8687 0.9495 0.90197 0.0
N399 N 0.85469 0.97915 0.95758 0.0
N400 N 0.90056 0.96496 0.8554 0.0
C401 C 0.90104 0.99579 0.88436 0.0
C402 C 0.87623 0.00343 0.94019 0.0
C403 C 0.56036 0.86428 0.95211 0.0
C404 C 0.53598 0.86064 0.01063 0.0
C405 C 0.56012 0.88912 0.89374 0.0
C406 C 0.53503 0.91053 0.89065 0.0
H407 H 0.57944 0.84748 0.95071 0.0
H408 H 0.57907 0.89086 0.84906 0.0
S409 S 0.46635 0.91212 0.03257 0.0
N410 N 0.48688 0.88131 0.06389 0.0
N411 N 0.48614 0.92758 0.95385 0.0
C412 C 0.51095 0.90757 0.95006 0.0
C413 C 0.51151 0.88274 0.01017 0.0
C414 C 0.67076 0.47769 0.89447 0.0
C415 C 0.66866 0.44812 0.93694 0.0
C416 C 0.6477 0.48568 0.83643 0.0
C417 C 0.62204 0.46412 0.81762 0.0
H418 H 0.69053 0.4947 0.90556 0.0
H419 H 0.65004 0.5088 0.80579 0.0
S420 S 0.60383 0.38506 0.91684 0.0
N421 N 0.63725 0.39843 0.96047 0.0
N422 N 0.59479 0.41283 0.84939 0.0
C423 C 0.61952 0.43461 0.85994 0.0
C424 C 0.64259 0.42676 0.92003 0.0
C425 C 0.00049 0.61111 0.01024 0.0
C426 C 0.00609 0.64333 0.9862 0.0
C427 C 0.99576 0.58646 0.95172 0.0
C428 C 0.99622 0.59316 0.86701 0.0
H429 H 0.0016 0.60467 0.0744 0.0
H430 H 0.99306 0.56178 0.97315 0.0
S431 S 0.00576 0.67466 0.77391 0.0
N432 N 0.00874 0.68134 0.87344 0.0
N433 N -0.00037 0.63522 0.76318 0.0
C434 C -0.00049 0.62572 0.84275 0.0
C435 C 0.00458 0.65073 0.90241 0.0
C436 C 0.02776 0.10489 0.34555 0.0
C437 C 0.02794 0.13667 0.3761 0.0
C438 C 0.01473 0.07912 0.39124 0.0
C439 C 0.0016 0.08428 0.4693 0.0
H440 H 0.0399 0.09957 0.28893 0.0
H441 H 0.01761 0.05483 0.36821 0.0
S442 S 0.98892 0.16432 0.56544 0.0
N443 N 0.00858 0.17283 0.48039 0.0
N444 N 0.98375 0.12457 0.56666 0.0
C445 C 0.99807 0.1165 0.49531 0.0
C446 C 0.01156 0.14266 0.44889 0.0
C447 C 0.39112 0.95197 0.47137 0.0
C448 C 0.39606 0.96103 0.38942 0.0
C449 C 0.41651 0.94255 0.52006 0.0
C450 C 0.44764 0.94264 0.48843 0.0
H451 H 0.36851 0.95576 0.50072 0.0
H452 H 0.41228 0.93956 0.58505 0.0
S453 S 0.4698 0.95187 0.26973 0.0
N454 N 0.43173 0.96003 0.27283 0.0
N455 N 0.47974 0.94269 0.36452 0.0
C456 C 0.45141 0.94559 0.40309 0.0
C457 C 0.42552 0.95503 0.35353 0.0
C458 C 0.51939 0.36102 0.3652 0.0
C459 C 0.48914 0.36336 0.32895 0.0
C460 C 0.53348 0.38693 0.40966 0.0
C461 C 0.51815 0.41632 0.41787 0.0
H462 H 0.53193 0.33873 0.3609 0.0
H463 H 0.55601 0.38359 0.44005 0.0
S464 S 0.43845 0.43473 0.33558 0.0
N465 N 0.44409 0.39727 0.30614 0.0
N466 N 0.47111 0.44633 0.38526 0.0
C467 C 0.48849 0.4194 0.3789 0.0
C468 C 0.47385 0.39284 0.33562 0.0
C469 C 0.13589 0.58398 0.45842 0.0
C470 C 0.12999 0.57373 0.37737 0.0
C471 C 0.11066 0.58792 0.5127 0.0
C472 C 0.07913 0.58121 0.48739 0.0
H473 H 0.15972 0.58408 0.48362 0.0
H474 H 0.11612 0.59051 0.57736 0.0
S475 S 0.05147 0.56812 0.27431 0.0
N476 N 0.09067 0.56847 0.26827 0.0
N477 N 0.04318 0.57471 0.37168 0.0
C478 C 0.07299 0.57841 0.40325 0.0
C479 C 0.09864 0.57472 0.34761 0.0
C480 C 0.09017 0.88023 0.96858 0.0
C481 C 0.06632 0.8706 0.02444 0.0
C482 C 0.08592 0.90648 0.91584 0.0
C483 C 0.0576 0.92346 0.91746 0.0
H484 H 0.11127 0.86627 0.96236 0.0
H485 H 0.1039 0.91212 0.87018 0.0
S486 S 0.99066 0.91071 0.06259 0.0
N487 N 0.01558 0.8823 0.08568 0.0
N488 N 0.00741 0.93138 0.98681 0.0
C489 C 0.03481 0.91544 0.97753 0.0
C490 C 0.03922 0.88902 0.03102 0.0
C491 C 0.65742 0.08805 0.87918 0.0
C492 C 0.65313 0.08908 0.96457 0.0
C493 C 0.63206 0.07987 0.82667 0.0
C494 C 0.60153 0.073 0.85774 0.0
H495 H 0.68101 0.0913 0.8533 0.0
H496 H 0.63681 0.07663 0.76201 0.0
S497 S 0.57685 0.07589 0.07489 0.0
N498 N 0.61537 0.08527 0.07701 0.0
N499 N 0.5675 0.07042 0.97734 0.0
C500 C 0.59624 0.07668 0.94191 0.0
C501 C 0.62214 0.08475 0.99572 0.0
C502 C 0.47509 0.5981 0.00691 0.0
C503 C 0.48816 0.62901 0.98845 0.0
C504 C 0.47781 0.57226 0.95137 0.0
C505 C 0.49389 0.57681 0.87665 0.0
H506 H 0.46413 0.59357 0.0659 0.0
H507 H 0.46877 0.54839 0.96865 0.0
S508 S 0.52751 0.65441 0.79522 0.0
N509 N 0.51414 0.66357 0.88705 0.0
N510 N 0.51946 0.61532 0.78322 0.0
C511 C 0.50513 0.60813 0.85582 0.0
C512 C 0.50221 0.63419 0.91167 0.0
C513 C 0.91812 0.41414 0.96673 0.0
C514 C 0.88952 0.40218 0.93161 0.0
C515 C 0.94363 0.42459 0.91757 0.0
C516 C 0.94149 0.42346 0.83145 0.0
H517 H 0.92 0.41777 0.03235 0.0
H518 H 0.96446 0.43546 0.94745 0.0
S519 S 0.87366 0.38811 0.71073 0.0
N520 N 0.86199 0.38515 0.80696 0.0
N521 N 0.90989 0.40488 0.71386 0.0
C522 C 0.9141 0.40853 0.79598 0.0
C523 C 0.88808 0.39796 0.84627 0.0
C524 C 0.10886 0.12376 0.9471 0.0
C525 C 0.10414 0.15514 0.91686 0.0
C526 C 0.09728 0.09612 0.90516 0.0
C527 C 0.07994 0.09879 0.8323 0.0
H528 H 0.12033 0.12039 0.0057 0.0
H529 H 0.10062 0.07261 0.93206 0.0
S530 S 0.06461 0.17452 0.72068 0.0
N531 N 0.08409 0.18669 0.80389 0.0
N532 N 0.06107 0.13473 0.727 0.0
C533 C 0.07613 0.12975 0.79933 0.0
C534 C 0.08849 0.15791 0.84115 0.0
C535 C 0.37295 0.02762 0.87995 0.0
C536 C 0.37514 0.05068 0.94344 0.0
C537 C 0.39918 0.02149 0.83034 0.0
C538 C 0.42853 0.0384 0.84165 0.0
H539 H 0.35102 0.01359 0.86986 0.0
H540 H 0.39656 0.00295 0.78348 0.0
S541 S 0.44709 0.10096 -0.0003 0.0
N542 N 0.40943 0.09024 0.01549 0.0
N543 N 0.45828 0.07938 0.92033 0.0
C544 C 0.43083 0.06229 0.90297 0.0
C545 C 0.40425 0.06826 0.9543 0.0
C546 C 0.48215 0.33231 0.82858 0.0
C547 C 0.45683 0.33071 0.88421 0.0
C548 C 0.49133 0.36145 0.79055 0.0
C549 C 0.47575 0.39038 0.80703 0.0
H550 H 0.49526 0.31093 0.81515 0.0
H551 H 0.51118 0.36121 0.74852 0.0
S552 S 0.40826 0.39904 0.95028 0.0
N553 N 0.41646 0.36042 0.95537 0.0
N554 N 0.43352 0.41524 0.88348 0.0
C555 C 0.45005 0.38898 0.86201 0.0
C556 C 0.44066 0.35917 0.90065 0.0
C557 C 0.13499 0.45708 0.97081 0.0
C558 C 0.16587 0.4686 0.95087 0.0
C559 C 0.10939 0.46128 0.91765 0.0
C560 C 0.11369 0.47687 0.84194 0.0
H561 H 0.13028 0.44587 0.02962 0.0
H562 H 0.08595 0.45265 0.93676 0.0
S563 S 0.19038 0.50982 0.759 0.0
N564 N 0.19974 0.49513 0.8494 0.0
N565 N 0.1517 0.50274 0.74821 0.0
C566 C 0.14474 0.48748 0.81985 0.0
C567 C 0.17078 0.48352 0.87472 0.0
C568 C 0.98809 0.86512 0.40693 0.0
C569 C 0.98954 0.83574 0.44948 0.0
C570 C 0.98628 0.8946 0.4488 0.0
C571 C 0.98565 0.89595 0.53499 0.0
H572 H 0.99067 0.86565 0.34095 0.0
H573 H 0.98715 0.91666 0.41327 0.0
S574 S 0.98364 0.82518 0.67433 0.0
N575 N 0.98624 0.80928 0.58177 0.0
N576 N 0.98277 0.86466 0.66097 0.0
C577 C 0.98429 0.86646 0.57799 0.0
C578 C 0.98636 0.83639 0.53515 0.0
C579 C 0.65662 0.98927 0.38442 0.0
C580 C 0.68608 0.9961 0.4228 0.0
C581 C 0.62922 0.98204 0.4303 0.0
C582 C 0.6301 0.98135 0.51655 0.0
H583 H 0.65417 0.99176 0.31871 0.0
H584 H 0.60685 0.97886 0.39779 0.0
S585 S 0.70272 0.99158 0.64543 0.0
N586 N 0.71554 0.99718 0.55088 0.0
N587 N 0.66405 0.9838 0.63773 0.0
C588 C 0.66 0.98523 0.55525 0.0
C589 C 0.68794 0.99267 0.50827 0.0
C590 C 0.56813 0.65426 0.52989 0.0
C591 C 0.56721 0.65801 0.44445 0.0
C592 C 0.5693 0.62346 0.56508 0.0
C593 C 0.56866 0.5954 0.51584 0.0
H594 H 0.56574 0.67505 0.56963 0.0
H595 H 0.56772 0.62154 0.6311 0.0
S596 S 0.57008 0.59267 0.28896 0.0
N597 N 0.56919 0.63155 0.31157 0.0
N598 N 0.57058 0.57364 0.37761 0.0
C599 C 0.57028 0.59908 0.43045 0.0
C600 C 0.56973 0.63043 0.39475 0.0
C601 C 0.89202 0.49748 0.34823 0.0
C602 C 0.86103 0.49813 0.38026 0.0
C603 C 0.91868 0.50449 0.39767 0.0
C604 C 0.91533 0.51304 0.48039 0.0
H605 H 0.89586 0.48921 0.28612 0.0
H606 H 0.94213 0.50143 0.37222 0.0
S607 S 0.83968 0.52184 0.5918 0.0
N608 N 0.8286 0.51069 0.49837 0.0
N609 N 0.87897 0.52411 0.59105 0.0
C610 C 0.88462 0.51595 0.51192 0.0
C611 C 0.85738 0.50844 0.46186 0.0
loop_
_geom_bond_atom_site_label_1
_geom_bond_atom_site_label_2
_geom_bond_distance
_geom_bond_site_symmetry_2
_ccdc_geom_bond_type
P0 O11 1.490 . S
P0 C14 1.812 . S
P0 C20 1.803 . S
P0 C26 1.819 1_554 S
H1 C15 0.941 . S
H2 C16 0.939 . S
H3 C18 0.940 . S
H4 C19 0.940 . S
H5 C21 0.939 . S
H6 C22 0.942 . S
H7 C24 0.940 . S
H8 C25 0.939 . S
H9 C27 0.941 1_554 S
H10 C31 0.939 . S
O11 P0 1.490 . S
H12 C28 0.939 . S
H13 C30 0.940 . S
C14 P0 1.812 . S
C14 C15 1.389 . S
C14 C19 1.391 . S
C15 H1 0.941 . S
C15 C14 1.389 . S
C15 C16 1.397 . S
C16 H2 0.939 . S
C16 C15 1.397 . S
C16 C17 1.378 . S
C17 C16 1.378 . S
C17 C18 1.378 . S
C18 H3 0.940 . S
C18 C17 1.378 . S
C18 C19 1.396 . S
C19 H4 0.940 . S
C19 C14 1.391 . S
C19 C18 1.396 . S
C20 P0 1.803 . S
C20 C21 1.378 1_554 S
C20 C25 1.400 . S
C21 H5 0.939 . S
C21 C20 1.378 1_556 S
C21 C22 1.361 . S
C22 H6 0.942 . S
C22 C21 1.361 . S
C22 C23 1.369 . S
C23 C22 1.369 . S
C23 C24 1.404 1_556 S
C24 H7 0.940 . S
C24 C23 1.404 1_554 S
C24 C25 1.389 . S
C25 H8 0.939 . S
C25 C20 1.400 . S
C25 C24 1.389 . S
C26 P0 1.819 1_556 S
C26 C27 1.391 . S
C26 C31 1.391 . S
C27 H9 0.941 1_556 S
C27 C26 1.391 . S
C27 C28 1.396 . S
C28 H12 0.939 . S
C28 C27 1.396 . S
C28 C29 1.397 . S
C29 C28 1.397 . S
C29 C30 1.385 . S
C30 H13 0.940 . S
C30 C29 1.385 . S
C30 C31 1.388 . S
C31 H10 0.939 . S
C31 C26 1.391 . S
C31 C30 1.388 . S
P32 O43 1.490 . S
P32 C46 1.812 . S
P32 C52 1.803 . S
P32 C58 1.819 . S
H33 C47 0.941 . S
H34 C48 0.939 . S
H35 C50 0.940 . S
H36 C51 0.940 . S
H37 C53 0.939 . S
H38 C54 0.942 1_556 S
H39 C56 0.940 . S
H40 C57 0.939 . S
H41 C59 0.941 . S
H42 C63 0.939 1_655 S
O43 P32 1.490 . S
H44 C60 0.939 . S
H45 C62 0.940 . S
C46 P32 1.812 . S
C46 C47 1.389 . S
C46 C51 1.391 1_455 S
C47 H33 0.941 . S
C47 C46 1.389 . S
C47 C48 1.397 . S
C48 H34 0.939 . S
C48 C47 1.397 . S
C48 C49 1.378 . S
C49 C48 1.378 . S
C49 C50 1.378 1_455 S
C50 H35 0.940 . S
C50 C49 1.378 1_655 S
C50 C51 1.396 . S
C51 H36 0.940 . S
C51 C46 1.391 1_655 S
C51 C50 1.396 . S
C52 P32 1.803 . S
C52 C53 1.378 . S
C52 C57 1.400 1_455 S
C53 H37 0.939 . S
C53 C52 1.378 . S
C53 C54 1.361 . S
C54 H38 0.942 1_554 S
C54 C53 1.361 . S
C54 C55 1.369 1_455 S
C55 C54 1.369 1_655 S
C55 C56 1.404 . S
C56 H39 0.940 . S
C56 C55 1.404 . S
C56 C57 1.389 . S
C57 H40 0.939 . S
C57 C52 1.400 1_655 S
C57 C56 1.389 . S
C58 P32 1.819 . S
C58 C59 1.391 . S
C58 C63 1.391 1_554 S
C59 H41 0.941 . S
C59 C58 1.391 . S
C59 C60 1.396 1_554 S
C60 H44 0.939 . S
C60 C59 1.396 1_556 S
C60 C61 1.397 . S
C61 C60 1.397 . S
C61 C62 1.385 1_455 S
C62 H45 0.940 . S
C62 C61 1.385 1_655 S
C62 C63 1.388 1_655 S
C63 H42 0.939 1_455 S
C63 C58 1.391 1_556 S
C63 C62 1.388 1_455 S
P64 O75 1.490 . S
P64 C78 1.812 . S
P64 C84 1.803 . S
P64 C90 1.819 1_554 S
H65 C79 0.941 . S
H66 C80 0.939 . S
H67 C82 0.940 . S
H68 C83 0.948 . S
H69 C85 0.939 1_556 S
H70 C86 0.942 . S
H71 C88 0.940 . S
H72 C89 0.939 . S
H73 C91 0.941 1_554 S
H74 C95 0.928 1_565 S
O75 P64 1.490 . S
H76 C92 0.939 . S
H77 C94 0.940 . S
C78 P64 1.812 . S
C78 C79 1.389 . S
C78 C83 1.379 1_545 S
C79 H65 0.941 . S
C79 C78 1.389 . S
C79 C80 1.397 . S
C80 H66 0.939 . S
C80 C79 1.397 . S
C80 C81 1.378 . S
C81 C80 1.378 . S
C81 C82 1.378 1_545 S
C82 H67 0.940 . S
C82 C81 1.378 1_565 S
C82 C83 1.401 . S
C83 H68 0.948 . S
C83 C78 1.379 1_565 S
C83 C82 1.401 . S
C84 P64 1.803 . S
C84 C85 1.378 . S
C84 C89 1.400 1_545 S
C85 H69 0.939 1_554 S
C85 C84 1.378 . S
C85 C86 1.361 1_554 S
C86 H70 0.942 . S
C86 C85 1.361 1_556 S
C86 C87 1.369 1_556 S
C87 C86 1.369 1_554 S
C87 C88 1.404 1_545 S
C88 H71 0.940 . S
C88 C87 1.404 1_565 S
C88 C89 1.389 . S
C89 H72 0.939 . S
C89 C84 1.400 1_565 S
C89 C88 1.389 . S
C90 P64 1.819 1_556 S
C90 C91 1.391 . S
C90 C95 1.391 . S
C91 H73 0.941 1_556 S
C91 C90 1.391 . S
C91 C92 1.396 . S
C92 H76 0.939 . S
C92 C91 1.396 . S
C92 C93 1.397 . S
C93 C92 1.397 . S
C93 C94 1.385 1_545 S
C94 H77 0.940 . S
C94 C93 1.385 1_565 S
C94 C95 1.388 1_565 S
C95 H74 0.928 1_545 S
C95 C90 1.391 . S
C95 C94 1.388 1_545 S
P96 O107 1.490 . S
P96 C110 1.812 . S
P96 C116 1.803 . S
P96 C122 1.819 1_554 S
H97 C111 0.941 . S
H98 C112 0.939 . S
H99 C114 0.940 . S
H100 C115 0.940 . S
H101 C117 0.939 . S
H102 C118 0.942 . S
H103 C120 0.940 . S
H104 C121 0.939 . S
H105 C123 0.941 1_554 S
H106 C127 0.939 . S
O107 P96 1.490 . S
H108 C124 0.939 . S
H109 C126 0.940 . S
C110 P96 1.812 . S
C110 C111 1.389 . S
C110 C115 1.391 . S
C111 H97 0.941 . S
C111 C110 1.389 . S
C111 C112 1.397 . S
C112 H98 0.939 . S
C112 C111 1.397 . S
C112 C113 1.378 . S
C113 C112 1.378 . S
C113 C114 1.378 . S
C114 H99 0.940 . S
C114 C113 1.378 . S
C114 C115 1.396 . S
C115 H100 0.940 . S
C115 C110 1.391 . S
C115 C114 1.396 . S
C116 P96 1.803 . S
C116 C117 1.378 1_554 S
C116 C121 1.400 . S
C117 H101 0.939 . S
C117 C116 1.378 1_556 S
C117 C118 1.361 . S
C118 H102 0.942 . S
C118 C117 1.361 . S
C118 C119 1.369 . S
C119 C118 1.369 . S
C119 C120 1.404 1_556 S
C120 H103 0.940 . S
C120 C119 1.404 1_554 S
C120 C121 1.389 . S
C121 H104 0.939 . S
C121 C116 1.400 . S
C121 C120 1.389 . S
C122 P96 1.819 1_556 S
C122 C123 1.391 . S
C122 C127 1.391 . S
C123 H105 0.941 1_556 S
C123 C122 1.391 . S
C123 C124 1.396 . S
C124 H108 0.939 . S
C124 C123 1.396 . S
C124 C125 1.397 . S
C125 C124 1.397 . S
C125 C126 1.385 . S
C126 H109 0.940 . S
C126 C125 1.385 . S
C126 C127 1.388 . S
C127 H106 0.939 . S
C127 C122 1.391 . S
C127 C126 1.388 . S
P128 O139 1.490 . S
P128 C142 1.812 . S
P128 C148 1.803 . S
P128 C154 1.819 . S
H129 C143 0.941 . S
H130 C144 0.939 1_556 S
H131 C146 0.940 . S
H132 C147 0.940 . S
H133 C149 0.939 . S
H134 C150 0.942 . S
H135 C152 0.940 . S
H136 C153 0.939 . S
H137 C155 0.941 . S
H138 C159 0.939 . S
O139 P128 1.490 . S
H140 C156 0.939 . S
H141 C158 0.940 . S
C142 P128 1.812 . S
C142 C143 1.389 . S
C142 C147 1.391 . S
C143 H129 0.941 . S
C143 C142 1.389 . S
C143 C144 1.397 . S
C144 H130 0.939 1_554 S
C144 C143 1.397 . S
C144 C145 1.378 . S
C145 C144 1.378 . S
C145 C146 1.378 . S
C146 H131 0.940 . S
C146 C145 1.378 . S
C146 C147 1.396 . S
C147 H132 0.940 . S
C147 C142 1.391 . S
C147 C146 1.396 . S
C148 P128 1.803 . S
C148 C149 1.378 . S
C148 C153 1.400 . S
C149 H133 0.939 . S
C149 C148 1.378 . S
C149 C150 1.361 . S
C150 H134 0.942 . S
C150 C149 1.361 . S
C150 C151 1.369 . S
C151 C150 1.369 . S
C151 C152 1.404 . S
C152 H135 0.940 . S
C152 C151 1.404 . S
C152 C153 1.389 . S
C153 H136 0.939 . S
C153 C148 1.400 . S
C153 C152 1.389 . S
C154 P128 1.819 . S
C154 C155 1.391 . S
C154 C159 1.391 . S
C155 H137 0.941 . S
C155 C154 1.391 . S
C155 C156 1.396 . S
C156 H140 0.939 . S
C156 C155 1.396 . S
C156 C157 1.397 . S
C157 C156 1.397 . S
C157 C158 1.385 . S
C158 H141 0.940 . S
C158 C157 1.385 . S
C158 C159 1.388 . S
C159 H138 0.939 . S
C159 C154 1.391 . S
C159 C158 1.388 . S
P160 O171 1.490 . S
P160 C174 1.812 . S
P160 C180 1.803 . S
P160 C186 1.819 . S
H161 C175 0.941 . S
H162 C176 0.939 . S
H163 C178 0.940 . S
H164 C179 0.940 . S
H165 C181 0.939 . S
H166 C182 0.942 . S
H167 C184 0.940 . S
H168 C185 0.939 . S
H169 C187 0.941 . S
H170 C191 0.939 . S
O171 P160 1.490 . S
H172 C188 0.939 . S
H173 C190 0.940 . S
C174 P160 1.812 . S
C174 C175 1.389 . S
C174 C179 1.391 . S
C175 H161 0.941 . S
C175 C174 1.389 . S
C175 C176 1.397 . S
C176 H162 0.939 . S
C176 C175 1.397 . S
C176 C177 1.378 . S
C177 C176 1.378 . S
C177 C178 1.378 . S
C178 H163 0.940 . S
C178 C177 1.378 . S
C178 C179 1.396 . S
C179 H164 0.940 . S
C179 C174 1.391 . S
C179 C178 1.396 . S
C180 P160 1.803 . S
C180 C181 1.378 . S
C180 C185 1.400 . S
C181 H165 0.939 . S
C181 C180 1.378 . S
C181 C182 1.361 . S
C182 H166 0.942 . S
C182 C181 1.361 . S
C182 C183 1.369 . S
C183 C182 1.369 . S
C183 C184 1.404 . S
C184 H167 0.940 . S
C184 C183 1.404 . S
C184 C185 1.389 . S
C185 H168 0.939 . S
C185 C180 1.400 . S
C185 C184 1.389 . S
C186 P160 1.819 . S
C186 C187 1.391 . S
C186 C191 1.391 . S
C187 H169 0.941 . S
C187 C186 1.391 . S
C187 C188 1.396 . S
C188 H172 0.939 . S
C188 C187 1.396 . S
C188 C189 1.397 . S
C189 C188 1.397 . S
C189 C190 1.385 . S
C190 H173 0.940 . S
C190 C189 1.385 . S
C190 C191 1.388 . S
C191 H170 0.939 . S
C191 C186 1.391 . S
C191 C190 1.388 . S
P192 O203 1.490 . S
P192 C206 1.812 . S
P192 C212 1.803 . S
P192 C218 1.819 . S
H193 C207 0.941 . S
H194 C208 0.939 . S
H195 C210 0.940 . S
H196 C211 0.943 . S
H197 C213 0.939 . S
H198 C214 0.942 . S
H199 C216 0.940 . S
H200 C217 0.960 . S
H201 C219 0.941 . S
H202 C223 0.932 1_565 S
O203 P192 1.490 . S
H204 C220 0.939 . S
H205 C222 0.940 . S
C206 P192 1.812 . S
C206 C207 1.389 . S
C206 C211 1.386 1_545 S
C207 H193 0.941 . S
C207 C206 1.389 . S
C207 C208 1.397 . S
C208 H194 0.939 . S
C208 C207 1.397 . S
C208 C209 1.378 . S
C209 C208 1.378 . S
C209 C210 1.378 1_545 S
C210 H195 0.940 . S
C210 C209 1.378 1_565 S
C210 C211 1.398 . S
C211 H196 0.943 . S
C211 C206 1.386 1_565 S
C211 C210 1.398 . S
C212 P192 1.803 . S
C212 C213 1.378 . S
C212 C217 1.369 1_545 S
C213 H197 0.939 . S
C213 C212 1.378 . S
C213 C214 1.361 . S
C214 H198 0.942 . S
C214 C213 1.361 . S
C214 C215 1.369 . S
C215 C214 1.369 . S
C215 C216 1.404 1_545 S
C216 H199 0.940 . S
C216 C215 1.404 1_565 S
C216 C217 1.401 . S
C217 H200 0.960 . S
C217 C212 1.369 1_565 S
C217 C216 1.401 . S
C218 P192 1.819 . S
C218 C219 1.391 . S
C218 C223 1.391 . S
C219 H201 0.941 . S
C219 C218 1.391 . S
C219 C220 1.396 . S
C220 H204 0.939 . S
C220 C219 1.396 . S
C220 C221 1.397 . S
C221 C220 1.397 . S
C221 C222 1.385 1_545 S
C222 H205 0.940 . S
C222 C221 1.385 1_565 S
C222 C223 1.388 1_565 S
C223 H202 0.932 1_545 S
C223 C218 1.391 . S
C223 C222 1.388 1_545 S
P224 O235 1.490 . S
P224 C238 1.812 . S
P224 C244 1.803 . S
P224 C250 1.819 . S
H225 C239 0.941 . S
H226 C240 0.939 1_556 S
H227 C242 0.940 . S
H228 C243 0.940 . S
H229 C245 0.939 . S
H230 C246 0.942 . S
H231 C248 0.940 . S
H232 C249 0.939 . S
H233 C251 0.941 . S
H234 C255 0.939 . S
O235 P224 1.490 . S
H236 C252 0.939 . S
H237 C254 0.940 . S
C238 P224 1.812 . S
C238 C239 1.389 . S
C238 C243 1.391 . S
C239 H225 0.941 . S
C239 C238 1.389 . S
C239 C240 1.397 . S
C240 H226 0.939 1_554 S
C240 C239 1.397 . S
C240 C241 1.378 . S
C241 C240 1.378 . S
C241 C242 1.378 . S
C242 H227 0.940 . S
C242 C241 1.378 . S
C242 C243 1.396 . S
C243 H228 0.940 . S
C243 C238 1.391 . S
C243 C242 1.396 . S
C244 P224 1.803 . S
C244 C245 1.378 . S
C244 C249 1.400 . S
C245 H229 0.939 . S
C245 C244 1.378 . S
C245 C246 1.361 . S
C246 H230 0.942 . S
C246 C245 1.361 . S
C246 C247 1.369 . S
C247 C246 1.369 . S
C247 C248 1.404 . S
C248 H231 0.940 . S
C248 C247 1.404 . S
C248 C249 1.389 . S
C249 H232 0.939 . S
C249 C244 1.400 . S
C249 C248 1.389 . S
C250 P224 1.819 . S
C250 C251 1.391 . S
C250 C255 1.391 . S
C251 H233 0.941 . S
C251 C250 1.391 . S
C251 C252 1.396 . S
C252 H236 0.939 . S
C252 C251 1.396 . S
C252 C253 1.397 . S
C253 C252 1.397 . S
C253 C254 1.385 . S
C254 H237 0.940 . S
C254 C253 1.385 . S
C254 C255 1.388 . S
C255 H234 0.939 . S
C255 C250 1.391 . S
C255 C254 1.388 . S
O256 Zn257 1.953 . S
O256 C272 1.229 . S
Zn257 O256 1.953 . S
Zn257 O258 1.950 . S
Zn257 O264 1.919 1_565 S
Zn257 O269 1.924 . S
O258 Zn257 1.950 . S
O258 Zn259 1.899 1_565 S
O258 Zn260 1.953 . S
O258 Zn261 1.965 . S
Zn259 O258 1.899 1_545 S
Zn259 O262 1.933 1_455 S
Zn259 O265 1.941 . S
Zn259 O266 1.965 . S
Zn260 O258 1.953 . S
Zn260 O267 1.938 1_565 S
Zn260 O268 1.906 . S
Zn260 O278 1.953 . S
Zn261 O258 1.965 . S
Zn261 O263 1.932 1_455 S
Zn261 O270 1.977 1_455 S
Zn261 O271 1.910 . S
O262 Zn259 1.933 1_655 S
O262 C273 1.226 . S
O263 Zn261 1.932 1_655 S
O263 C273 1.307 1_565 S
O264 Zn257 1.919 1_545 S
O264 C275 1.253 . S
O265 Zn259 1.941 . S
O265 C275 1.283 . S
O266 Zn259 1.965 . S
O266 C274 1.303 . S
O267 Zn260 1.938 1_545 S
O267 C274 1.247 . S
O268 Zn260 1.906 . S
O268 C276 1.304 1_455 S
O269 Zn257 1.924 . S
O269 C277 1.311 . S
O270 Zn261 1.977 1_655 S
O270 C276 1.272 . S
O271 Zn261 1.910 . S
O271 C277 1.231 . S
C272 O256 1.229 . S
C272 O278 1.298 . S
C273 O262 1.226 . S
C273 O263 1.307 1_545 S
C274 O266 1.303 . S
C274 O267 1.247 . S
C275 O264 1.253 . S
C275 O265 1.283 . S
C276 O268 1.304 1_655 S
C276 O270 1.272 . S
C277 O269 1.311 . S
C277 O271 1.231 . S
O278 Zn260 1.953 . S
O278 C272 1.298 . S
O279 Zn280 1.953 . S
O279 C295 1.225 . S
Zn280 O279 1.953 . S
Zn280 O281 1.949 . S
Zn280 O287 1.919 . S
Zn280 O292 1.924 . S
O281 Zn280 1.949 . S
O281 Zn282 1.923 1_545 S
O281 Zn283 1.950 . S
O281 Zn284 1.945 1_545 S
Zn282 O281 1.923 1_565 S
Zn282 O285 1.933 . S
Zn282 O288 1.941 . S
Zn282 O289 1.965 . S
Zn283 O281 1.950 . S
Zn283 O290 1.938 . S
Zn283 O291 1.906 1_545 S
Zn283 O301 1.953 . S
Zn284 O281 1.945 1_565 S
Zn284 O286 1.932 . S
Zn284 O293 1.977 . S
Zn284 O294 1.910 1_565 S
O285 Zn282 1.933 . S
O285 C296 1.226 . S
O286 Zn284 1.932 . S
O286 C296 1.307 . S
O287 Zn280 1.919 . S
O287 C298 1.253 . S
O288 Zn282 1.941 . S
O288 C298 1.283 1_565 S
O289 Zn282 1.965 . S
O289 C297 1.303 . S
O290 Zn283 1.938 . S
O290 C297 1.247 1_545 S
O291 Zn283 1.906 1_565 S
O291 C299 1.304 . S
O292 Zn280 1.924 . S
O292 C300 1.311 . S
O293 Zn284 1.977 . S
O293 C299 1.272 . S
O294 Zn284 1.910 1_545 S
O294 C300 1.231 . S
C295 O279 1.225 . S
C295 O301 1.298 . S
C296 O285 1.226 . S
C296 O286 1.307 . S
C297 O289 1.303 . S
C297 O290 1.247 1_565 S
C298 O287 1.253 . S
C298 O288 1.283 1_545 S
C299 O291 1.304 . S
C299 O293 1.272 . S
C300 O292 1.311 . S
C300 O294 1.231 . S
O301 Zn283 1.953 . S
O301 C295 1.298 . S
O302 Zn303 1.953 . S
O302 C318 1.225 . S
Zn303 O302 1.953 . S
Zn303 O304 1.949 . S
Zn303 O310 1.919 . S
Zn303 O315 1.924 . S
O304 Zn303 1.949 . S
O304 Zn305 1.923 . S
O304 Zn306 1.950 . S
O304 Zn307 1.945 . S
Zn305 O304 1.923 . S
Zn305 O308 1.933 . S
Zn305 O311 1.941 . S
Zn305 O312 1.965 . S
Zn306 O304 1.950 . S
Zn306 O313 1.938 . S
Zn306 O314 1.906 . S
Zn306 O324 1.953 . S
Zn307 O304 1.945 . S
Zn307 O309 1.932 . S
Zn307 O316 1.977 . S
Zn307 O317 1.910 . S
O308 Zn305 1.933 . S
O308 C319 1.226 . S
O309 Zn307 1.932 . S
O309 C319 1.307 . S
O310 Zn303 1.919 . S
O310 C321 1.253 . S
O311 Zn305 1.941 . S
O311 C321 1.283 . S
O312 Zn305 1.965 . S
O312 C320 1.303 . S
O313 Zn306 1.938 . S
O313 C320 1.247 . S
O314 Zn306 1.906 . S
O314 C322 1.304 . S
O315 Zn303 1.924 . S
O315 C323 1.311 . S
O316 Zn307 1.977 . S
O316 C322 1.272 . S
O317 Zn307 1.910 . S
O317 C323 1.231 . S
C318 O302 1.225 . S
C318 O324 1.298 . S
C319 O308 1.226 . S
C319 O309 1.307 . S
C320 O312 1.303 . S
C320 O313 1.247 . S
C321 O310 1.253 . S
C321 O311 1.283 . S
C322 O314 1.304 . S
C322 O316 1.272 . S
C323 O315 1.311 . S
C323 O317 1.231 . S
O324 Zn306 1.953 . S
O324 C318 1.298 . S
O325 Zn326 1.953 1_655 S
O325 C341 1.225 . S
Zn326 O325 1.953 1_455 S
Zn326 O327 1.949 . S
Zn326 O333 1.919 . S
Zn326 O338 1.924 . S
O327 Zn326 1.949 . S
O327 Zn328 1.923 . S
O327 Zn329 1.950 1_455 S
O327 Zn330 1.945 . S
Zn328 O327 1.923 . S
Zn328 O331 1.933 . S
Zn328 O334 1.941 1_455 S
Zn328 O335 1.965 1_455 S
Zn329 O327 1.950 1_655 S
Zn329 O336 1.938 . S
Zn329 O337 1.906 1_655 S
Zn329 O347 1.953 . S
Zn330 O327 1.945 . S
Zn330 O332 1.932 . S
Zn330 O339 1.977 . S
Zn330 O340 1.910 . S
O331 Zn328 1.933 . S
O331 C342 1.226 . S
O332 Zn330 1.932 . S
O332 C342 1.307 . S
O333 Zn326 1.919 . S
O333 C344 1.253 . S
O334 Zn328 1.941 1_655 S
O334 C344 1.283 1_655 S
O335 Zn328 1.965 1_655 S
O335 C343 1.303 . S
O336 Zn329 1.938 . S
O336 C343 1.247 . S
O337 Zn329 1.906 1_455 S
O337 C345 1.304 . S
O338 Zn326 1.924 . S
O338 C346 1.311 . S
O339 Zn330 1.977 . S
O339 C345 1.272 . S
O340 Zn330 1.910 . S
O340 C346 1.231 . S
C341 O325 1.225 . S
C341 O347 1.298 . S
C342 O331 1.226 . S
C342 O332 1.307 . S
C343 O335 1.303 . S
C343 O336 1.247 . S
C344 O333 1.253 . S
C344 O334 1.283 1_455 S
C345 O337 1.304 . S
C345 O339 1.272 . S
C346 O338 1.311 . S
C346 O340 1.231 . S
O347 Zn329 1.953 . S
O347 C341 1.298 . S
C348 C349 1.369 . S
C348 C350 1.419 . S
C348 H352 0.930 . S
C349 C348 1.369 . S
C349 C358 1.429 1_565 S
C350 C348 1.419 . S
C350 C351 1.363 . S
C350 H353 0.929 . S
C351 C350 1.363 . S
C351 C357 1.428 1_565 S
H352 C348 0.930 . S
H353 C350 0.929 . S
S354 N355 1.613 . S
S354 N356 1.610 . S
N355 S354 1.613 . S
N355 C358 1.350 . S
N356 S354 1.610 . S
N356 C357 1.351 . S
C357 C351 1.428 1_545 S
C357 N356 1.351 . S
C357 C358 1.434 . S
C358 C349 1.429 1_545 S
C358 N355 1.350 . S
C358 C357 1.434 . S
C359 C360 1.369 . S
C359 C361 1.419 . S
C359 H363 0.930 . S
C360 C359 1.369 . S
C360 C369 1.429 . S
C361 C359 1.419 . S
C361 C362 1.363 . S
C361 H364 0.929 . S
C362 C361 1.363 . S
C362 C368 1.428 . S
H363 C359 0.930 . S
H364 C361 0.929 . S
S365 N366 1.613 . S
S365 N367 1.610 . S
N366 S365 1.613 . S
N366 C369 1.350 . S
N367 S365 1.610 . S
N367 C368 1.351 . S
C368 C362 1.428 . S
C368 N367 1.351 . S
C368 C369 1.434 . S
C369 C360 1.429 . S
C369 N366 1.350 . S
C369 C368 1.434 . S
C370 C371 1.369 . S
C370 C372 1.419 . S
C370 H374 0.930 . S
C371 C370 1.369 . S
C371 C380 1.429 . S
C372 C370 1.419 . S
C372 C373 1.363 . S
C372 H375 0.929 . S
C373 C372 1.363 . S
C373 C379 1.428 . S
H374 C370 0.930 . S
H375 C372 0.929 . S
S376 N377 1.613 . S
S376 N378 1.610 . S
N377 S376 1.613 . S
N377 C380 1.350 . S
N378 S376 1.610 . S
N378 C379 1.351 . S
C379 C373 1.428 . S
C379 N378 1.351 . S
C379 C380 1.434 . S
C380 C371 1.429 . S
C380 N377 1.350 . S
C380 C379 1.434 . S
C381 C382 1.369 . S
C381 C383 1.419 . S
C381 H385 0.930 . S
C382 C381 1.369 . S
C382 C391 1.429 . S
C383 C381 1.419 . S
C383 C384 1.363 . S
C383 H386 0.929 . S
C384 C383 1.363 . S
C384 C390 1.428 . S
H385 C381 0.930 . S
H386 C383 0.929 . S
S387 N388 1.613 . S
S387 N389 1.610 . S
N388 S387 1.613 . S
N388 C391 1.350 . S
N389 S387 1.610 . S
N389 C390 1.351 . S
C390 C384 1.428 . S
C390 N389 1.351 . S
C390 C391 1.434 . S
C391 C382 1.429 . S
C391 N388 1.350 . S
C391 C390 1.434 . S
C392 C393 1.369 . S
C392 C394 1.419 . S
C392 H396 0.930 1_556 S
C393 C392 1.369 . S
C393 C402 1.429 1_545 S
C394 C392 1.419 . S
C394 C395 1.363 . S
C394 H397 0.929 . S
C395 C394 1.363 . S
C395 C401 1.428 1_545 S
H396 C392 0.930 1_554 S
H397 C394 0.929 . S
S398 N399 1.613 . S
S398 N400 1.610 . S
N399 S398 1.613 . S
N399 C402 1.350 . S
N400 S398 1.610 . S
N400 C401 1.351 . S
C401 C395 1.428 1_565 S
C401 N400 1.351 . S
C401 C402 1.434 . S
C402 C393 1.429 1_565 S
C402 N399 1.350 . S
C402 C401 1.434 . S
C403 C404 1.369 . S
C403 C405 1.419 . S
C403 H407 0.930 . S
C404 C403 1.369 . S
C404 C413 1.429 . S
C405 C403 1.419 . S
C405 C406 1.363 . S
C405 H408 0.929 . S
C406 C405 1.363 . S
C406 C412 1.428 . S
H407 C403 0.930 . S
H408 C405 0.929 . S
S409 N410 1.613 . S
S409 N411 1.610 . S
N410 S409 1.613 . S
N410 C413 1.350 . S
N411 S409 1.610 . S
N411 C412 1.351 . S
C412 C406 1.428 . S
C412 N411 1.351 . S
C412 C413 1.434 . S
C413 C404 1.429 . S
C413 N410 1.350 . S
C413 C412 1.434 . S
C414 C415 1.369 . S
C414 C416 1.419 . S
C414 H418 0.930 . S
C415 C414 1.369 . S
C415 C424 1.429 . S
C416 C414 1.419 . S
C416 C417 1.363 . S
C416 H419 0.929 . S
C417 C416 1.363 . S
C417 C423 1.428 . S
H418 C414 0.930 . S
H419 C416 0.929 . S
S420 N421 1.613 . S
S420 N422 1.610 . S
N421 S420 1.613 . S
N421 C424 1.350 . S
N422 S420 1.610 . S
N422 C423 1.351 . S
C423 C417 1.428 . S
C423 N422 1.351 . S
C423 C424 1.434 . S
C424 C415 1.429 . S
C424 N421 1.350 . S
C424 C423 1.434 . S
C425 C426 1.369 . S
C425 C427 1.419 . S
C425 H429 0.930 1_556 S
C426 C425 1.369 . S
C426 C435 1.429 1_655 S
C427 C425 1.419 . S
C427 C428 1.363 1_655 S
C427 H430 0.929 . S
C428 C427 1.363 1_455 S
C428 C434 1.428 . S
H429 C425 0.930 1_554 S
H430 C427 0.929 . S
S431 N432 1.613 . S
S431 N433 1.610 . S
N432 S431 1.613 . S
N432 C435 1.350 . S
N433 S431 1.610 . S
N433 C434 1.351 . S
C434 C428 1.428 . S
C434 N433 1.351 . S
C434 C435 1.434 . S
C435 C426 1.429 1_455 S
C435 N432 1.350 . S
C435 C434 1.434 . S
C436 C437 1.369 . S
C436 C438 1.419 . S
C436 H440 0.930 . S
C437 C436 1.369 . S
C437 C446 1.429 . S
C438 C436 1.419 . S
C438 C439 1.363 . S
C438 H441 0.929 . S
C439 C438 1.363 . S
C439 C445 1.428 . S
H440 C436 0.930 . S
H441 C438 0.929 . S
S442 N443 1.613 . S
S442 N444 1.610 . S
N443 S442 1.613 . S
N443 C446 1.350 . S
N444 S442 1.610 . S
N444 C445 1.351 . S
C445 C439 1.428 . S
C445 N444 1.351 . S
C445 C446 1.434 . S
C446 C437 1.429 . S
C446 N443 1.350 . S
C446 C445 1.434 . S
C447 C448 1.380 . S
C447 C449 1.419 . S
C447 H451 0.930 . S
C448 C447 1.380 . S
C448 C457 1.416 1_545 S
C449 C447 1.419 . S
C449 C450 1.363 1_545 S
C449 H452 0.929 . S
C450 C449 1.363 1_565 S
C450 C456 1.428 . S
H451 C447 0.930 . S
H452 C449 0.929 . S
S453 N454 1.613 . S
S453 N455 1.610 . S
N454 S453 1.613 . S
N454 C457 1.350 . S
N455 S453 1.610 . S
N455 C456 1.351 . S
C456 C450 1.428 . S
C456 N455 1.351 . S
C456 C457 1.434 . S
C457 C448 1.416 1_565 S
C457 N454 1.350 . S
C457 C456 1.434 . S
C458 C459 1.369 . S
C458 C460 1.419 . S
C458 H462 0.930 . S
C459 C458 1.369 . S
C459 C468 1.429 . S
C460 C458 1.419 . S
C460 C461 1.363 . S
C460 H463 0.929 . S
C461 C460 1.363 . S
C461 C467 1.428 . S
H462 C458 0.930 . S
H463 C460 0.929 . S
S464 N465 1.613 . S
S464 N466 1.610 . S
N465 S464 1.613 . S
N465 C468 1.350 . S
N466 S464 1.610 . S
N466 C467 1.351 . S
C467 C461 1.428 . S
C467 N466 1.351 . S
C467 C468 1.434 . S
C468 C459 1.429 . S
C468 N465 1.350 . S
C468 C467 1.434 . S
C469 C470 1.369 . S
C469 C471 1.419 . S
C469 H473 0.930 . S
C470 C469 1.369 . S
C470 C479 1.429 . S
C471 C469 1.419 . S
C471 C472 1.363 . S
C471 H474 0.929 . S
C472 C471 1.363 . S
C472 C478 1.428 . S
H473 C469 0.930 . S
H474 C471 0.929 . S
S475 N476 1.613 . S
S475 N477 1.610 . S
N476 S475 1.613 . S
N476 C479 1.350 . S
N477 S475 1.610 . S
N477 C478 1.351 . S
C478 C472 1.428 . S
C478 N477 1.351 . S
C478 C479 1.434 . S
C479 C470 1.429 . S
C479 N476 1.350 . S
C479 C478 1.434 . S
C480 C481 1.369 . S
C480 C482 1.419 . S
C480 H484 0.930 1_455 S
C481 C480 1.369 . S
C481 C490 1.429 . S
C482 C480 1.419 . S
C482 C483 1.363 . S
C482 H485 0.929 . S
C483 C482 1.363 . S
C483 C489 1.428 . S
H484 C480 0.930 1_655 S
H485 C482 0.929 . S
S486 N487 1.613 . S
S486 N488 1.610 1_554 S
N487 S486 1.613 . S
N487 C490 1.350 1_554 S
N488 S486 1.610 1_556 S
N488 C489 1.351 . S
C489 C483 1.428 . S
C489 N488 1.351 . S
C489 C490 1.434 . S
C490 C481 1.429 . S
C490 N487 1.350 1_556 S
C490 C489 1.434 . S
C491 C492 1.369 1_565 S
C491 C493 1.419 1_565 S
C491 H495 0.930 . S
C492 C491 1.369 1_545 S
C492 C501 1.429 . S
C493 C491 1.419 1_545 S
C493 C494 1.363 . S
C493 H496 0.929 . S
C494 C493 1.363 . S
C494 C500 1.428 . S
H495 C491 0.930 . S
H496 C493 0.929 . S
S497 N498 1.613 1_554 S
S497 N499 1.610 1_554 S
N498 S497 1.613 1_556 S
N498 C501 1.350 . S
N499 S497 1.610 1_556 S
N499 C500 1.351 . S
C500 C494 1.428 . S
C500 N499 1.351 . S
C500 C501 1.434 . S
C501 C492 1.429 . S
C501 N498 1.350 . S
C501 C500 1.434 . S
C502 C503 1.369 . S
C502 C504 1.419 . S
C502 H506 0.930 . S
C503 C502 1.369 . S
C503 C512 1.429 . S
C504 C502 1.419 . S
C504 C505 1.363 . S
C504 H507 0.929 . S
C505 C504 1.363 . S
C505 C511 1.428 . S
H506 C502 0.930 . S
H507 C504 0.929 . S
S508 N509 1.613 . S
S508 N510 1.610 . S
N509 S508 1.613 . S
N509 C512 1.350 . S
N510 S508 1.610 . S
N510 C511 1.351 . S
C511 C505 1.428 . S
C511 N510 1.351 . S
C511 C512 1.434 . S
C512 C503 1.429 . S
C512 N509 1.350 . S
C512 C511 1.434 . S
C513 C514 1.369 . S
C513 C515 1.419 . S
C513 H517 0.930 . S
C514 C513 1.369 . S
C514 C523 1.429 . S
C515 C513 1.419 . S
C515 C516 1.363 . S
C515 H518 0.929 . S
C516 C515 1.363 . S
C516 C522 1.428 . S
H517 C513 0.930 . S
H518 C515 0.929 . S
S519 N520 1.613 . S
S519 N521 1.610 . S
N520 S519 1.613 . S
N520 C523 1.350 . S
N521 S519 1.610 . S
N521 C522 1.351 . S
C522 C516 1.428 . S
C522 N521 1.351 . S
C522 C523 1.434 . S
C523 C514 1.429 . S
C523 N520 1.350 . S
C523 C522 1.434 . S
C524 C525 1.369 . S
C524 C526 1.419 . S
C524 H528 0.930 . S
C525 C524 1.369 . S
C525 C534 1.429 1_554 S
C526 C524 1.419 . S
C526 C527 1.363 1_554 S
C526 H529 0.929 . S
C527 C526 1.363 1_556 S
C527 C533 1.428 . S
H528 C524 0.930 . S
H529 C526 0.929 . S
S530 N531 1.613 . S
S530 N532 1.610 . S
N531 S530 1.613 . S
N531 C534 1.350 . S
N532 S530 1.610 . S
N532 C533 1.351 . S
C533 C527 1.428 . S
C533 N532 1.351 . S
C533 C534 1.434 . S
C534 C525 1.429 1_556 S
C534 N531 1.350 . S
C534 C533 1.434 . S
C535 C536 1.359 1_565 S
C535 C537 1.419 . S
C535 H539 0.930 . S
C536 C535 1.359 1_545 S
C536 C545 1.439 . S
C537 C535 1.419 . S
C537 C538 1.368 . S
C537 H540 0.929 . S
C538 C537 1.368 . S
C538 C544 1.423 1_565 S
H539 C535 0.930 . S
H540 C537 0.929 . S
S541 N542 1.613 . S
S541 N543 1.610 1_554 S
N542 S541 1.613 . S
N542 C545 1.350 1_554 S
N543 S541 1.610 1_556 S
N543 C544 1.351 . S
C544 C538 1.423 1_545 S
C544 N543 1.351 . S
C544 C545 1.434 . S
C545 C536 1.439 . S
C545 N542 1.350 1_556 S
C545 C544 1.434 . S
C546 C547 1.369 . S
C546 C548 1.419 . S
C546 H550 0.930 . S
C547 C546 1.369 . S
C547 C556 1.429 1_556 S
C548 C546 1.419 . S
C548 C549 1.363 . S
C548 H551 0.929 . S
C549 C548 1.363 . S
C549 C555 1.428 . S
H550 C546 0.930 . S
H551 C548 0.929 . S
S552 N553 1.613 . S
S552 N554 1.610 . S
N553 S552 1.613 . S
N553 C556 1.350 . S
N554 S552 1.610 . S
N554 C555 1.351 1_554 S
C555 C549 1.428 . S
C555 N554 1.351 1_556 S
C555 C556 1.434 1_556 S
C556 C547 1.429 1_554 S
C556 N553 1.350 . S
C556 C555 1.434 1_554 S
C557 C558 1.369 . S
C557 C559 1.419 . S
C557 H561 0.930 1_556 S
C558 C557 1.369 . S
C558 C567 1.429 . S
C559 C557 1.419 . S
C559 C560 1.363 . S
C559 H562 0.929 . S
C560 C559 1.363 . S
C560 C566 1.428 . S
H561 C557 0.930 1_554 S
H562 C559 0.929 . S
S563 N564 1.613 . S
S563 N565 1.610 . S
N564 S563 1.613 . S
N564 C567 1.350 . S
N565 S563 1.610 . S
N565 C566 1.351 . S
C566 C560 1.428 . S
C566 N565 1.351 . S
C566 C567 1.434 . S
C567 C558 1.429 . S
C567 N564 1.350 . S
C567 C566 1.434 . S
C568 C569 1.369 . S
C568 C570 1.419 . S
C568 H572 0.930 . S
C569 C568 1.369 . S
C569 C578 1.429 1_655 S
C570 C568 1.419 . S
C570 C571 1.363 . S
C570 H573 0.929 . S
C571 C570 1.363 . S
C571 C577 1.428 1_655 S
H572 C568 0.930 . S
H573 C570 0.929 . S
S574 N575 1.613 . S
S574 N576 1.610 . S
N575 S574 1.613 . S
N575 C578 1.350 . S
N576 S574 1.610 . S
N576 C577 1.351 . S
C577 C571 1.428 1_455 S
C577 N576 1.351 . S
C577 C578 1.434 . S
C578 C569 1.429 1_455 S
C578 N575 1.350 . S
C578 C577 1.434 . S
C579 C580 1.369 1_545 S
C579 C581 1.419 1_545 S
C579 H583 0.930 . S
C580 C579 1.369 1_565 S
C580 C589 1.429 . S
C581 C579 1.419 1_565 S
C581 C582 1.363 . S
C581 H584 0.929 1_565 S
C582 C581 1.363 . S
C582 C588 1.428 . S
H583 C579 0.930 . S
H584 C581 0.929 1_545 S
S585 N586 1.613 . S
S585 N587 1.610 . S
N586 S585 1.613 . S
N586 C589 1.350 . S
N587 S585 1.610 . S
N587 C588 1.351 . S
C588 C582 1.428 . S
C588 N587 1.351 . S
C588 C589 1.434 . S
C589 C580 1.429 . S
C589 N586 1.350 . S
C589 C588 1.434 . S
C590 C591 1.369 . S
C590 C592 1.419 . S
C590 H594 0.930 . S
C591 C590 1.369 . S
C591 C600 1.429 . S
C592 C590 1.419 . S
C592 C593 1.363 . S
C592 H595 0.929 . S
C593 C592 1.363 . S
C593 C599 1.428 . S
H594 C590 0.930 . S
H595 C592 0.929 . S
S596 N597 1.613 . S
S596 N598 1.610 . S
N597 S596 1.613 . S
N597 C600 1.350 . S
N598 S596 1.610 . S
N598 C599 1.351 . S
C599 C593 1.428 . S
C599 N598 1.351 . S
C599 C600 1.434 . S
C600 C591 1.429 . S
C600 N597 1.350 . S
C600 C599 1.434 . S
C601 C602 1.369 . S
C601 C603 1.419 . S
C601 H605 0.930 . S
C602 C601 1.369 . S
C602 C611 1.429 . S
C603 C601 1.419 . S
C603 C604 1.363 . S
C603 H606 0.929 . S
C604 C603 1.363 . S
C604 C610 1.428 . S
H605 C601 0.930 . S
H606 C603 0.929 . S
S607 N608 1.613 . S
S607 N609 1.610 . S
N608 S607 1.613 . S
N608 C611 1.350 . S
N609 S607 1.610 . S
N609 C610 1.351 . S
C610 C604 1.428 . S
C610 N609 1.351 . S
C610 C611 1.434 . S
C611 C602 1.429 . S
C611 N608 1.350 . S
C611 C610 1.434 . S
C349 C215 1.725 1_565 S
C351 C272 1.732 . S
C362 C295 1.860 . S
C360 C247 1.907 . S
C373 C318 1.756 . S
C371 C151 1.712 . S
C384 C345 1.640 . S
C382 C183 1.790 . S
C395 C273 1.634 . S
C393 C87 1.591 1_556 S
C404 C119 1.579 . S
C406 C296 1.680 . S
C415 C23 1.542 . S
C417 C319 1.566 . S
C426 C55 1.653 1_556 S
C428 C344 1.723 . S
C439 C274 0.725 . S
C437 C189 0.727 . S
C450 C297 0.410 . S
C448 C221 0.531 . S
C461 C320 0.588 . S
C459 C253 0.606 . S
C470 C157 0.699 . S
C472 C346 0.735 . S
C481 C61 0.807 . S
C483 C277 0.822 . S
C494 C300 0.787 . S
C492 C93 0.778 . S
C505 C323 0.847 . S
C503 C125 0.848 . S
C514 C29 0.500 . S
C516 C343 0.416 . S
C525 C177 1.892 . S
C527 C275 1.821 . S
C536 C209 1.768 1_556 S
C538 C298 1.790 1_565 S
C549 C321 1.829 . S
C547 C241 1.833 1_556 S
C560 C342 1.681 . S
C558 C145 1.548 1_556 S
C569 C49 1.920 1_655 S
C571 C276 1.840 . S
C582 C299 1.736 . S
C580 C81 1.830 1_565 S
C593 C322 1.740 . S
C591 C113 1.779 . S
C602 C17 1.892 . S
C604 C341 1.952 . S
