# Generated by pormake.
# Topology zzz, (3,6)-cn, num edge types: 1
# Building blocks:
#     Node 0, Type 0, BuildingBlock: PAMTOO_clean_linker_0, # of connection points: 3
#     Node 1, Type 0, BuildingBlock: PAMTOO_clean_linker_0, # of connection points: 3
#     Node 2, Type 0, BuildingBlock: PAMTOO_clean_linker_0, # of connection points: 3
#     Node 3, Type 0, BuildingBlock: PAMTOO_clean_linker_0, # of connection points: 3
#     Node 4, Type 0, BuildingBlock: PAMTOO_clean_linker_0, # of connection points: 3
#     Node 5, Type 0, BuildingBlock: PAMTOO_clean_linker_0, # of connection points: 3
#     Node 6, Type 0, BuildingBlock: PAMTOO_clean_linker_0, # of connection points: 3
#     Node 7, Type 0, BuildingBlock: PAMTOO_clean_linker_0, # of connection points: 3
#     Node 8, Type 1, BuildingBlock: BETFAJ_clean_sbu_0, # of connection points: 6
#     Node 9, Type 1, BuildingBlock: BETFAJ_clean_sbu_0, # of connection points: 6
#     Node 10, Type 1, BuildingBlock: BETFAJ_clean_sbu_0, # of connection points: 6
#     Node 11, Type 1, BuildingBlock: BETFAJ_clean_sbu_0, # of connection points: 6
#     Edge 12, Type (0, 1), BuildingBlock: EZIPEK_clean_linker_0, # of connection points: 2
#     Edge 13, Type (0, 1), BuildingBlock: EZIPEK_clean_linker_0, # of connection points: 2
#     Edge 14, Type (0, 1), BuildingBlock: EZIPEK_clean_linker_0, # of connection points: 2
#     Edge 15, Type (0, 1), BuildingBlock: EZIPEK_clean_linker_0, # of connection points: 2
#     Edge 16, Type (0, 1), BuildingBlock: EZIPEK_clean_linker_0, # of connection points: 2
#     Edge 17, Type (0, 1), BuildingBlock: EZIPEK_clean_linker_0, # of connection points: 2
#     Edge 18, Type (0, 1), BuildingBlock: EZIPEK_clean_linker_0, # of connection points: 2
#     Edge 19, Type (0, 1), BuildingBlock: EZIPEK_clean_linker_0, # of connection points: 2
#     Edge 20, Type (0, 1), BuildingBlock: EZIPEK_clean_linker_0, # of connection points: 2
#     Edge 21, Type (0, 1), BuildingBlock: EZIPEK_clean_linker_0, # of connection points: 2
#     Edge 22, Type (0, 1), BuildingBlock: EZIPEK_clean_linker_0, # of connection points: 2
#     Edge 23, Type (0, 1), BuildingBlock: EZIPEK_clean_linker_0, # of connection points: 2
#     Edge 24, Type (0, 1), BuildingBlock: EZIPEK_clean_linker_0, # of connection points: 2
#     Edge 25, Type (0, 1), BuildingBlock: EZIPEK_clean_linker_0, # of connection points: 2
#     Edge 26, Type (0, 1), BuildingBlock: EZIPEK_clean_linker_0, # of connection points: 2
#     Edge 27, Type (0, 1), BuildingBlock: EZIPEK_clean_linker_0, # of connection points: 2
#     Edge 28, Type (0, 1), BuildingBlock: EZIPEK_clean_linker_0, # of connection points: 2
#     Edge 29, Type (0, 1), BuildingBlock: EZIPEK_clean_linker_0, # of connection points: 2
#     Edge 30, Type (0, 1), BuildingBlock: EZIPEK_clean_linker_0, # of connection points: 2
#     Edge 31, Type (0, 1), BuildingBlock: EZIPEK_clean_linker_0, # of connection points: 2
#     Edge 32, Type (0, 1), BuildingBlock: EZIPEK_clean_linker_0, # of connection points: 2
#     Edge 33, Type (0, 1), BuildingBlock: EZIPEK_clean_linker_0, # of connection points: 2
#     Edge 34, Type (0, 1), BuildingBlock: EZIPEK_clean_linker_0, # of connection points: 2
#     Edge 35, Type (0, 1), BuildingBlock: EZIPEK_clean_linker_0, # of connection points: 2
# Relax obj value: 0.366
# Max RMSD: 0.213
# Mean RMSD: 0.161
data_MOF--net-zzz--node1-BETFAJ_clean_sbu_0--node2-PAMTOO_clean_linker_0--edge1-EZIPEK_clean_linker_0
_symmetry_space_group_name_H-M    P1
_symmetry_Int_Tables_number       1
_symmetry_cell_setting            triclinic
loop_
_symmetry_equiv_pos_as_xyz
'x, y, z'
_cell_length_a     37.616811
_cell_length_b     37.770553
_cell_length_c     10.124776
_cell_angle_alpha  89.304303
_cell_angle_beta   89.455505
_cell_angle_gamma 89.827765
loop_
_atom_site_label
_atom_site_type_symbol
_atom_site_fract_x
_atom_site_fract_y
_atom_site_fract_z
_atom_type_partial_charge
H0 H 0.83552 0.4727 0.38515 0.0
H1 H 0.73653 0.49423 0.19507 0.0
H2 H 0.77806 0.56847 0.47248 0.0
H3 H 0.68371 0.57921 0.373 0.0
C4 C 0.69138 0.55457 0.32103 0.0
O5 O 0.72755 0.55648 0.29012 0.0
H6 H 0.6859 0.5341 0.39788 0.0
C7 C 0.81197 0.48909 0.37542 0.0
C8 C 0.81034 0.52108 0.44425 0.0
C9 C 0.78494 0.47844 0.28972 0.0
C10 C 0.7561 0.50096 0.26765 0.0
C11 C 0.75315 0.53333 0.33216 0.0
C12 C 0.77995 0.54318 0.42366 0.0
H13 H 0.09395 0.85723 0.4445 0.0
H14 H 0.09461 0.75559 0.2644 0.0
H15 H 1.0047 0.78789 0.50378 0.0
H16 H 1.0307 0.69401 0.43352 0.0
C17 C 0.03846 0.70465 0.335 0.0
O18 O 1.02786 0.74007 0.32507 0.0
H19 H 0.06796 0.70284 0.33414 0.0
C20 C 0.08095 0.83227 0.42677 0.0
C21 C 0.04836 0.82556 0.48958 0.0
C22 C 0.09742 0.80766 0.34393 0.0
C23 C 0.08099 0.77505 0.32384 0.0
C24 C 0.04666 0.76808 0.37432 0.0
C25 C 1.03077 0.79308 0.4619 0.0
H26 H 0.69995 1.00807 0.46044 0.0
H27 H 0.79955 0.98293 0.27371 0.0
H28 H 0.79625 0.04039 0.64098 0.0
H29 H 0.86085 0.06846 0.44251 0.0
C30 C 0.85193 0.04937 0.3677 0.0
O31 O 0.83787 1.01986 0.43347 0.0
H32 H 0.82986 0.06216 0.3122 0.0
C33 C 0.7286 1.00818 0.45982 0.0
C34 C 0.74492 1.02366 0.5662 0.0
C35 C 0.74764 0.99076 0.36067 0.0
C36 C 0.78453 0.99466 0.35392 0.0
C37 C 0.8022 1.01437 0.44993 0.0
C38 C 0.78256 1.02751 0.56133 0.0
H39 H 0.54189 0.70962 0.38208 0.0
H40 H 0.57571 0.81121 0.23736 0.0
H41 H 0.52597 0.80071 0.62123 0.0
H42 H 0.53529 0.8958 0.47132 0.0
C43 C 0.52996 0.87394 0.40212 0.0
O44 O 0.55233 0.84615 0.43794 0.0
H45 H 0.50205 0.86677 0.4257 0.0
C46 C 0.54282 0.73793 0.39252 0.0
C47 C 0.5319 0.75169 0.5125 0.0
C48 C 0.56108 0.75843 0.2981 0.0
C49 C 0.56163 0.79513 0.31004 0.0
C50 C 0.54661 0.81099 0.42205 0.0
C51 C 0.53327 0.78905 0.52764 0.0
H52 H 0.20965 0.60156 0.19881 0.0
H53 H 0.31594 0.58981 0.34381 0.0
H54 H 0.27497 0.51514 0.06486 0.0
H55 H 0.34113 0.48102 0.25808 0.0
C56 C 0.33851 0.50629 0.31226 0.0
O57 O 0.33058 0.53227 0.21837 0.0
H58 H 0.31561 0.50344 0.38218 0.0
C59 C 0.23479 0.58741 0.19818 0.0
C60 C 0.23844 0.55753 0.11874 0.0
C61 C 0.26256 0.59957 0.27708 0.0
C62 C 0.29453 0.58078 0.28196 0.0
C63 C 0.29888 0.54973 0.2096 0.0
C64 C 0.27111 0.53839 0.1249 0.0
H65 H 0.96048 0.22002 0.20703 0.0
H66 H 0.96105 0.32618 0.34147 0.0
H67 H 0.04237 0.29122 0.06751 0.0
H68 H 0.06635 0.34872 0.31516 0.0
C69 C 0.03809 0.35634 0.32894 0.0
O70 O 1.01913 0.34626 0.21754 0.0
H71 H 1.0293 0.34027 0.41628 0.0
C72 C 0.97233 0.24618 0.20309 0.0
C73 C 1.00248 0.25184 0.12377 0.0
C74 C 0.95713 0.27316 0.27832 0.0
C75 C 0.97261 0.30647 0.27847 0.0
C76 C 1.00395 0.31342 0.20669 0.0
C77 C 1.0188 0.28599 0.1266 0.0
H78 H 0.34429 0.97106 0.20354 0.0
H79 H 0.23954 0.97607 0.36921 0.0
H80 H 0.27033 0.04913 0.05712 0.0
H81 H 0.2053 0.07905 0.24825 0.0
C82 C 0.20719 0.05509 0.31182 0.0
O83 O 0.21693 1.02865 0.22386 0.0
H84 H 0.2288 0.05959 0.38405 0.0
C85 C 0.31791 0.98279 0.20313 0.0
C86 C 0.31106 1.01118 0.11725 0.0
C87 C 0.29216 0.96994 0.29218 0.0
C88 C 0.2587 0.98567 0.29733 0.0
C89 C 0.2504 1.01446 0.21483 0.0
C90 C 0.27662 1.0272 0.12271 0.0
H91 H 0.59279 0.34871 0.15893 0.0
H92 H 0.58898 0.24362 0.31872 0.0
H93 H 0.50143 0.2837 0.08752 0.0
H94 H 0.48743 0.2341 0.38597 0.0
C95 C 0.51364 0.22136 0.36993 0.0
O96 O 0.52507 0.22892 0.24071 0.0
H97 H 0.5311 0.2349 0.44169 0.0
C98 C 0.57935 0.32346 0.16773 0.0
C99 C 0.54633 0.31963 0.10706 0.0
C100 C 0.59478 0.29635 0.24376 0.0
C101 C 0.57718 0.26412 0.25811 0.0
C102 C 0.54286 0.25954 0.20808 0.0
C103 C 0.52747 0.28729 0.12982 0.0
Sm104 Sm 0.04952 0.03052 0.92158 0.0
Sm105 Sm 1.00125 0.04105 0.72778 0.0
C106 C 0.09039 1.00773 0.1166 0.0
C107 C 0.11379 0.97693 0.13864 0.0
C108 C 0.10463 0.9528 0.23884 0.0
C109 C 0.12378 0.92158 0.25442 0.0
C110 C 0.15288 0.91372 0.1715 0.0
C111 C 0.16324 0.93863 0.07465 0.0
C112 C 0.14369 0.97002 0.05777 0.0
C113 C 0.08467 0.04671 0.68547 0.0
C114 C 1.02604 0.96099 0.74723 0.0
C115 C 0.9616 0.06036 0.52389 0.0
C116 C 0.9383 0.09001 0.48793 0.0
C117 C 0.94554 0.10863 0.37041 0.0
C118 C 0.93106 0.14216 0.35037 0.0
C119 C 0.90932 0.15728 0.44796 0.0
C120 C 0.89806 0.13678 0.55664 0.0
C121 C 0.91274 0.1032 0.57697 0.0
C122 C 0.96678 1.02555 0.96957 0.0
C123 C 1.02439 0.11135 0.89805 0.0
O124 O 0.05644 1.00083 0.11001 0.0
O125 O 0.10068 0.03131 0.0294 0.0
O126 O 0.05926 1.02494 0.69842 0.0
O127 O 0.09043 0.0621 0.79652 0.0
O128 O 0.03462 0.97168 0.86685 0.0
O129 O 1.01678 0.98526 0.66061 0.0
O130 O 0.99518 0.06844 0.5346 0.0
O131 O 0.95062 0.03881 0.61725 0.0
O132 O 0.99205 0.04717 0.95146 0.0
O133 O 0.96014 1.01033 0.8585 0.0
O134 O 1.01402 0.10026 0.78088 0.0
O135 O 0.03559 0.0876 0.9845 0.0
H136 H 0.08196 0.95762 0.3031 0.0
H137 H 0.11504 0.90303 0.32953 0.0
H138 H 0.18577 0.93355 0.01033 0.0
H139 H 0.15145 0.98834 0.97965 0.0
H140 H 0.96469 0.09855 0.29944 0.0
H141 H 0.93978 0.15766 0.26537 0.0
H142 H 0.88124 0.14819 0.63252 0.0
H143 H 0.90583 0.08872 0.666 0.0
Sm144 Sm 0.53236 0.05578 0.93349 0.0
Sm145 Sm 0.52656 1.01131 0.71819 0.0
C146 C 0.55105 0.08273 0.16163 0.0
C147 C 0.57116 0.06213 0.26005 0.0
C148 C 0.56372 1.02575 0.27288 0.0
C149 C 0.5912 1.00177 0.29531 0.0
C150 C 0.62609 1.01387 0.30636 0.0
C151 C 0.63184 0.05031 0.32451 0.0
C152 C 0.60449 0.07448 0.29916 0.0
C153 C 0.51924 0.09564 0.70418 0.0
C154 C 0.60608 0.03287 0.78121 0.0
C155 C 0.51035 0.97766 0.49953 0.0
C156 C 0.48102 0.95386 0.46937 0.0
C157 C 0.46212 0.95953 0.35263 0.0
C158 C 0.42795 0.94594 0.34076 0.0
C159 C 0.41243 0.92696 0.44629 0.0
C160 C 0.43292 0.91746 0.55596 0.0
C161 C 0.46714 0.93109 0.56792 0.0
C162 C 0.53986 0.97074 0.9458 0.0
C163 C 0.45198 0.03084 0.88373 0.0
O164 O 0.51883 0.07185 0.13923 0.0
O165 O 0.5687 0.08888 0.05218 0.0
O166 O 0.54051 0.06971 0.71345 0.0
O167 O 0.50443 0.10127 0.81803 0.0
O168 O 0.59142 0.03705 0.89923 0.0
O169 O 0.58501 1.02777 0.68045 0.0
O170 O 0.5006 1.01025 0.52271 0.0
O171 O 0.53381 0.96584 0.58343 0.0
O172 O 0.5187 0.99695 0.93839 0.0
O173 O 0.55437 0.96567 0.83136 0.0
O174 O 0.46574 1.02025 0.76967 0.0
O175 O 0.47337 0.04336 0.97363 0.0
H176 H 0.53799 1.01527 0.24656 0.0
H177 H 0.58568 0.97394 0.29048 0.0
H178 H 0.65854 0.06025 0.33816 0.0
H179 H 0.61092 0.10231 0.29052 0.0
H180 H 0.47238 0.97719 0.27628 0.0
H181 H 0.41224 0.95363 0.25585 0.0
H182 H 0.42106 0.90315 0.63852 0.0
H183 H 0.48123 0.92662 0.65949 0.0
Sm184 Sm 0.49941 0.54118 0.90823 0.0
Sm185 Sm 0.54084 0.53089 0.68113 0.0
C186 C 0.47693 0.56284 0.14089 0.0
C187 C 0.49966 0.58286 0.23021 0.0
C188 C 0.53628 0.57508 0.23053 0.0
C189 C 0.5609 0.60227 0.24288 0.0
C190 C 0.54918 0.63721 0.25602 0.0
C191 C 0.51296 0.64336 0.28491 0.0
C192 C 0.48823 0.61632 0.27091 0.0
C193 C 0.4559 0.52607 0.69385 0.0
C194 C 0.52238 0.61151 0.73335 0.0
C195 C 0.57053 0.51047 0.45706 0.0
C196 C 0.59364 0.48051 0.42492 0.0
C197 C 0.62037 0.46944 0.51274 0.0
C198 C 0.63632 0.43629 0.49857 0.0
C199 C 0.62542 0.41399 0.39731 0.0
C200 C 0.60058 0.42608 0.30434 0.0
C201 C 0.5849 0.45929 0.31772 0.0
C202 C 0.58458 0.54643 0.895 0.0
C203 C 0.52274 0.45983 0.86775 0.0
O204 O 0.4864 0.53016 0.12001 0.0
O205 O 0.46956 0.57977 0.03127 0.0
O206 O 0.48258 0.54642 0.69084 0.0
O207 O 0.45123 0.51375 0.81278 0.0
O208 O 0.51891 0.59878 0.85509 0.0
O209 O 0.52559 0.58903 0.6359 0.0
O210 O 0.53822 0.50174 0.4928 0.0
O211 O 0.5841 0.53493 0.53111 0.0
O212 O 0.55792 0.52594 0.89848 0.0
O213 O 0.58885 0.55867 0.7762 0.0
O214 O 0.53142 0.47153 0.74778 0.0
O215 O 0.51218 0.48276 0.95655 0.0
H216 H 0.54605 0.54922 0.20208 0.0
H217 H 0.58858 0.59639 0.22801 0.0
H218 H 0.50299 0.67001 0.29774 0.0
H219 H 0.46029 0.62314 0.27139 0.0
H220 H 0.62714 0.48523 0.59744 0.0
H221 H 0.65491 0.42694 0.57233 0.0
H222 H 0.59164 0.40898 0.22641 0.0
H223 H 0.56424 0.46736 0.24964 0.0
Sm224 Sm 1.01889 0.51468 0.88575 0.0
Sm225 Sm 1.02954 0.56518 0.68895 0.0
C226 C 0.99879 0.47382 0.08778 0.0
C227 C 0.96785 0.45174 0.12045 0.0
C228 C 0.95478 0.42685 0.03081 0.0
C229 C 0.92036 0.41355 0.04659 0.0
C230 C 0.89892 0.42543 0.15116 0.0
C231 C 0.9136 0.44669 0.2491 0.0
C232 C 0.94791 0.45983 0.2337 0.0
C233 C 0.03817 0.48251 0.64834 0.0
C234 C 0.94912 0.53752 0.70305 0.0
C235 C 0.04952 0.60611 0.48658 0.0
C236 C 0.0799 0.62899 0.45357 0.0
C237 C 0.09946 0.622 0.33841 0.0
C238 C 0.13387 0.63502 0.32415 0.0
C239 C 0.14891 0.65503 0.42514 0.0
C240 C 0.12745 0.66677 0.52975 0.0
C241 C 0.09296 0.65361 0.54417 0.0
C242 C 1.01158 0.59724 0.92921 0.0
C243 C 0.09946 0.54153 0.86832 0.0
O244 O 0.99229 0.50778 0.08048 0.0
O245 O 1.01989 0.46303 0.9934 0.0
O246 O 1.0155 0.50715 0.66176 0.0
O247 O 0.05221 0.47536 0.76179 0.0
O248 O 0.95942 0.5262 0.82148 0.0
O249 O 0.97336 0.55017 0.62117 0.0
O250 O 0.05702 0.57238 0.49594 0.0
O251 O 1.0278 0.6166 0.57952 0.0
O252 O 0.03384 0.57239 0.91318 0.0
O253 O 0.99705 0.60451 0.81653 0.0
O254 O 0.08896 0.55352 0.75114 0.0
O255 O 0.07546 0.5288 0.95102 0.0
H256 H 0.96981 0.41997 0.94306 0.0
H257 H 0.9092 0.39735 0.96985 0.0
H258 H 0.89738 0.456 0.33065 0.0
H259 H 0.95775 0.47858 0.30479 0.0
H260 H 0.08946 0.6038 0.26568 0.0
H261 H 0.14998 0.62618 0.24157 0.0
H262 H 0.13863 0.68255 0.60765 0.0
H263 H 0.07768 0.66063 0.63068 0.0
C264 C 0.15912 1.01701 0.4441 0.0
C265 C 0.17156 0.05041 0.39232 0.0
C266 C 0.12118 0.07881 0.51202 0.0
C267 C 0.11234 0.04658 0.57658 0.0
N268 N 0.12889 0.98621 0.6254 0.0
N269 N 0.16857 0.11444 0.42169 0.0
C270 C 0.13308 1.01601 0.54895 0.0
C271 C 0.15362 0.08167 0.43827 0.0
N272 N 0.17068 0.98594 0.39173 0.0
N273 N 0.09877 0.1072 0.52217 0.0
H274 H 0.19362 0.11902 0.38077 0.0
H275 H 0.15795 0.1371 0.46487 0.0
H276 H 0.07498 0.10623 0.57602 0.0
H277 H 0.1021 0.13033 0.46616 0.0
H278 H 0.16287 0.96119 0.42717 0.0
H279 H 0.18302 0.98432 0.30035 0.0
H280 H 0.14619 0.96465 0.62191 0.0
H281 H 0.11036 0.98432 0.70226 0.0
C282 C 0.54691 0.16425 0.43436 0.0
C283 C 0.51396 0.18143 0.41037 0.0
C284 C 0.4844 0.13408 0.54292 0.0
C285 C 0.51798 0.12242 0.59129 0.0
N286 N 0.58203 0.12818 0.58304 0.0
N287 N 0.45019 0.17767 0.4174 0.0
C288 C 0.54949 0.13759 0.53542 0.0
C289 C 0.48231 0.16454 0.45658 0.0
N290 N 0.57562 0.17261 0.35713 0.0
N291 N 0.45459 0.11525 0.57659 0.0
H292 H 0.44788 0.19573 0.33915 0.0
H293 H 0.42599 0.1706 0.46056 0.0
H294 H 0.45535 0.09257 0.63638 0.0
H295 H 0.42953 0.12012 0.53772 0.0
H296 H 0.60033 0.16039 0.36531 0.0
H297 H 0.57314 0.18801 0.27191 0.0
H298 H 0.60543 0.14141 0.55785 0.0
H299 H 0.58555 0.10909 0.65618 0.0
C300 C 0.38179 0.48426 0.49009 0.0
C301 C 0.37274 0.51137 0.39605 0.0
C302 C 0.41825 0.54935 0.49808 0.0
C303 C 0.42901 0.52123 0.5845 0.0
N304 N 0.42758 0.45833 0.62775 0.0
N305 N 0.39478 0.56398 0.28274 0.0
C306 C 0.41271 0.48765 0.5699 0.0
C307 C 0.39447 0.54234 0.39155 0.0
N308 N 0.36062 0.4551 0.50608 0.0
N309 N 0.4295 0.5831 0.5188 0.0
H310 H 0.38472 0.55639 0.19219 0.0
H311 H 0.41061 0.58644 0.27473 0.0
H312 H 0.44605 0.58993 0.59588 0.0
H313 H 0.41918 0.60489 0.46775 0.0
H314 H 0.36356 0.43719 0.58437 0.0
H315 H 0.33854 0.44987 0.4483 0.0
H316 H 0.41891 0.43267 0.60964 0.0
H317 H 0.45121 0.45911 0.68063 0.0
C318 C 1.00327 0.4062 0.43973 0.0
C319 C 0.03392 0.39589 0.36776 0.0
C320 C 0.06365 0.44985 0.44946 0.0
C321 C 0.03583 0.45448 0.54415 0.0
N322 N 0.98111 0.43254 0.64017 0.0
N323 N 0.09141 0.41245 0.28208 0.0
C324 C 1.00604 0.43153 0.54165 0.0
C325 C 0.06353 0.41938 0.36513 0.0
N326 N 0.97106 0.39323 0.40542 0.0
N327 N 0.0899 0.47469 0.43994 0.0
H328 H 0.08985 0.3934 0.20858 0.0
H329 H 0.11571 0.42549 0.28476 0.0
H330 H 0.09062 0.49675 0.50095 0.0
H331 H 0.10961 0.47485 0.36718 0.0
H332 H 0.94735 0.40039 0.45221 0.0
H333 H 0.96792 0.38137 0.31405 0.0
H334 H 0.96054 0.41418 0.64865 0.0
H335 H 0.98337 0.44917 0.72094 0.0
C336 C 0.90909 1.01479 0.28756 0.0
C337 C 0.88322 0.04226 0.26915 0.0
C338 C 0.9133 0.05887 0.05864 0.0
C339 C 0.9381 0.0308 0.07351 0.0
N340 N 0.9578 0.97957 0.19523 0.0
N341 N 0.87263 0.09933 0.16432 0.0
C342 C 0.93547 1.0081 0.18637 0.0
C343 C 0.88869 0.06676 0.16217 0.0
N344 N 0.91069 0.9973 0.40623 0.0
N345 N 0.91221 0.07749 0.94237 0.0
H346 H 0.85709 0.10827 0.24287 0.0
H347 H 0.87879 0.11957 0.09717 0.0
H348 H 0.92972 0.07268 0.86441 0.0
H349 H 0.89193 0.09527 0.91874 0.0
H350 H 0.93029 0.97897 0.4307 0.0
H351 H 0.89534 1.00435 0.48781 0.0
H352 H 0.95517 0.95941 0.26553 0.0
H353 H 0.97781 0.97472 0.12558 0.0
C354 C 0.50549 0.89619 0.1806 0.0
C355 C 0.5357 0.88969 0.26069 0.0
C356 C 0.57053 0.92855 0.10792 0.0
C357 C 0.53851 0.94149 0.05033 0.0
N358 N 0.47541 0.9342 0.02266 0.0
N359 N 0.5991 0.89582 0.28677 0.0
C360 C 0.50598 0.92426 0.08424 0.0
C361 C 0.56901 0.90417 0.21848 0.0
N362 N 0.47696 0.87398 0.19102 0.0
N363 N 0.60237 0.9414 0.06232 0.0
H364 H 0.59943 0.88015 0.37162 0.0
H365 H 0.62441 0.90439 0.26098 0.0
H366 H 0.60427 0.96299 0.99791 0.0
H367 H 0.62703 0.93068 0.08552 0.0
H368 H 0.45488 0.8755 0.13004 0.0
H369 H 0.47748 0.85088 0.24845 0.0
H370 H 0.45016 0.92657 0.05482 0.0
H371 H 0.47532 0.95114 0.94127 0.0
C372 C 0.65849 0.58158 0.12133 0.0
C373 C 0.66781 0.55084 0.19652 0.0
C374 C 0.62875 0.51571 0.0513 0.0
C375 C 0.61415 0.54743 0.99626 0.0
N376 N 0.61465 0.6112 0.98431 0.0
N377 N 0.66505 0.48715 0.21995 0.0
C378 C 0.62955 0.58044 0.03044 0.0
C379 C 0.65391 0.51741 0.15732 0.0
N380 N 0.67756 0.61202 0.13574 0.0
N381 N 0.61975 0.48399 0.99755 0.0
H382 H 0.68321 0.48654 0.29652 0.0
H383 H 0.65633 0.46192 0.19809 0.0
H384 H 0.60371 0.48224 0.91504 0.0
H385 H 0.63048 0.4596 0.02431 0.0
H386 H 0.67462 0.63421 0.07478 0.0
H387 H 0.69908 0.61399 0.19927 0.0
H388 H 0.62225 0.63626 0.01466 0.0
H389 H 0.59173 0.61173 0.92753 0.0
C390 C 0.99958 0.65387 0.24323 0.0
C391 C 1.02523 0.68109 0.22023 0.0
C392 C 0.03987 0.65428 1.00456 0.0
C393 C 1.01616 0.6258 0.031 0.0
N394 N 0.97462 0.59708 0.17837 0.0
N395 N 0.05889 0.71359 0.0562 0.0
C396 C 0.99617 0.62536 0.15105 0.0
C397 C 0.04227 0.68305 0.09427 0.0
N398 N 0.97692 0.65657 0.34895 0.0
N399 N 0.06126 0.65331 0.89497 0.0
H400 H 0.05762 0.73628 0.11249 0.0
H401 H 0.06924 0.71828 0.96192 0.0
H402 H 0.05955 0.6335 0.82476 0.0
H403 H 0.08269 0.67028 0.87909 0.0
H404 H 0.95609 0.63921 0.36874 0.0
H405 H 0.97636 0.67868 0.40958 0.0
H406 H 0.96228 0.59251 0.26934 0.0
H407 H 0.97071 0.57673 0.11136 0.0
C408 C 0.94015 0.25054 0.49312 0.0
C409 C 0.92815 0.26361 0.37125 0.0
C410 C 0.88661 0.21457 0.35802 0.0
C411 C 0.90755 0.19619 0.45198 0.0
N412 N 0.95682 0.19672 0.60508 0.0
N413 N 0.8811 0.26476 0.21233 0.0
C414 C 0.93411 0.21451 0.52328 0.0
C415 C 0.89756 0.24857 0.31553 0.0
N416 N 0.96058 0.27131 0.57082 0.0
N417 N 0.85839 0.19846 0.3009 0.0
H418 H 0.88902 0.28953 0.17575 0.0
H419 H 0.88902 0.28953 0.17575 0.0
H420 H 0.84995 0.17323 0.33043 0.0
H421 H 0.84326 0.21094 0.22791 0.0
H422 H 0.96905 0.26336 0.66432 0.0
H423 H 0.96565 0.29772 0.54603 0.0
H424 H 0.97958 0.20828 0.6434 0.0
H425 H 0.95476 0.16978 0.62597 0.0
C426 C 0.31912 0.95995 0.50318 0.0
C427 C 0.30371 0.94405 0.39332 0.0
C428 C 0.35356 0.90298 0.37944 0.0
C429 C 0.37337 0.92677 0.45644 0.0
N430 N 0.37504 0.98084 0.58355 0.0
N431 N 0.3004 0.89253 0.25715 0.0
C432 C 0.35599 0.95543 0.52095 0.0
C433 C 0.31835 0.91216 0.34586 0.0
N434 N 0.29952 0.98264 0.57811 0.0
N435 N 0.36909 0.87333 0.32932 0.0
H436 H 0.27469 0.89905 0.22686 0.0
H437 H 0.27469 0.89905 0.22686 0.0
H438 H 0.39519 0.8661 0.35177 0.0
H439 H 0.35536 0.85594 0.2689 0.0
H440 H 0.30931 0.99463 0.6624 0.0
H441 H 0.27242 0.98642 0.56177 0.0
H442 H 0.36367 1.00417 0.61837 0.0
H443 H 0.40264 0.98032 0.59028 0.0
C444 C 0.65244 0.32517 0.27419 0.0
C445 C 0.62416 0.30599 0.33305 0.0
C446 C 0.61019 0.35355 0.47918 0.0
C447 C 0.63318 0.37581 0.40372 0.0
N448 N 0.68458 0.38116 0.26162 0.0
N449 N 0.5965 0.29305 0.54204 0.0
C450 C 0.65791 0.36082 0.31362 0.0
C451 C 0.61149 0.3169 0.4567 0.0
N452 N 0.66992 0.31069 0.16951 0.0
N453 N 0.58426 0.36738 0.55844 0.0
H454 H 0.59718 0.26596 0.52319 0.0
H455 H 0.58707 0.30005 0.63532 0.0
H456 H 0.58104 0.39447 0.57233 0.0
H457 H 0.56421 0.35188 0.60098 0.0
H458 H 0.68873 0.32407 0.11191 0.0
H459 H 0.66444 0.2848 0.14068 0.0
H460 H 0.70417 0.37153 0.19814 0.0
H461 H 0.68827 0.40732 0.29071 0.0
C462 C 0.24021 0.61895 0.48783 0.0
C463 C 0.25479 0.62949 0.36586 0.0
C464 C 0.20861 0.67465 0.34484 0.0
C465 C 0.188 0.65461 0.43636 0.0
N466 N 0.18448 0.60589 0.59457 0.0
N467 N 0.26058 0.67425 0.19888 0.0
C468 C 0.20422 0.62717 0.51258 0.0
C469 C 0.24224 0.6609 0.30484 0.0
N470 N 0.25929 0.59759 0.57028 0.0
N471 N 0.19489 0.70502 0.29153 0.0
H472 H 0.28497 0.66327 0.17037 0.0
H473 H 0.25165 0.69511 0.13973 0.0
H474 H 0.16998 0.71468 0.32041 0.0
H475 H 0.20892 0.72162 0.22707 0.0
H476 H 0.25017 0.58994 0.66383 0.0
H477 H 0.28562 0.59084 0.54882 0.0
H478 H 0.19455 0.58277 0.63743 0.0
H479 H 0.1574 0.60953 0.61118 0.0
C480 C 0.1306 0.8262 0.13619 0.0
C481 C 0.13089 0.81858 0.27437 0.0
C482 C 0.17617 0.8639 0.30358 0.0
C483 C 0.16766 0.8772 0.17726 0.0
N484 N 0.15884 0.85884 0.95505 0.0
N485 N 0.1647 0.82155 0.47642 0.0
C486 C 0.15294 0.85362 0.08667 0.0
C487 C 0.15827 0.8335 0.35176 0.0
N488 N 0.10704 0.81023 0.05488 0.0
N489 N 0.19796 0.88281 0.38253 0.0
H490 H 0.15178 0.79956 0.51787 0.0
H491 H 0.15178 0.79956 0.51787 0.0
H492 H 0.21013 0.90603 0.34802 0.0
H493 H 0.20372 0.87486 0.47914 0.0
H494 H 0.10344 0.8181 0.95736 0.0
H495 H 0.09024 0.7899 0.08459 0.0
H496 H 0.15069 0.84107 0.88352 0.0
H497 H 0.17525 0.8792 0.92034 0.0
C498 C 0.70188 0.94747 0.32357 0.0
C499 C 0.72693 0.97039 0.26379 0.0
C500 C 0.67924 1.00311 0.1611 0.0
C501 C 0.65656 0.99097 0.26633 0.0
N502 N 0.6459 0.94822 0.44318 0.0
N503 N 0.73945 1.00288 0.06701 0.0
C504 C 0.66672 0.96057 0.34169 0.0
C505 C 0.71518 0.99148 0.15853 0.0
N506 N 0.71356 0.91708 0.3821 0.0
N507 N 0.66703 1.02746 0.07195 0.0
H508 H 0.76583 0.99422 0.07103 0.0
H509 H 0.73355 1.01919 0.98669 0.0
H510 H 0.6403 0.03464 0.06828 0.0
H511 H 0.68314 0.04059 1.00353 0.0
H512 H 0.69647 0.8985 0.42524 0.0
H513 H 0.7404 0.90993 0.37656 0.0
H514 H 0.65415 0.9284 0.50851 0.0
H515 H 0.62123 0.95909 0.46691 0.0
C516 C 0.60868 0.71688 0.26403 0.0
C517 C 0.58362 0.73923 0.20201 0.0
C518 C 0.55658 0.68862 0.10102 0.0
C519 C 0.57104 0.66737 0.20526 0.0
N520 N 0.61896 0.66036 0.3645 0.0
N521 N 0.55103 0.74811 1.00493 0.0
C522 C 0.60068 0.68042 0.27579 0.0
C523 C 0.56446 0.72535 0.09714 0.0
N524 N 0.63542 0.7315 0.33414 0.0
N525 N 0.53299 0.67421 0.01598 0.0
H526 H 0.55619 0.77524 0.01009 0.0
H527 H 0.53696 0.74025 0.92236 0.0
H528 H 0.52795 0.64711 0.01622 0.0
H529 H 0.51819 0.68895 0.94869 0.0
H530 H 0.65327 0.71621 0.3891 0.0
H531 H 0.63942 0.75888 0.33288 0.0
H532 H 0.61369 0.63373 0.38409 0.0
H533 H 0.61369 0.63373 0.38409 0.0
C534 C 0.80629 0.45684 0.08087 0.0
C535 C 0.79181 0.44744 0.20418 0.0
C536 C 0.83963 0.40436 0.23297 0.0
C537 C 0.85987 0.42479 0.14117 0.0
N538 N 0.86197 0.47345 0.98209 0.0
N539 N 0.78623 0.40307 0.37236 0.0
C540 C 0.84288 0.45103 0.06181 0.0
C541 C 0.80501 0.41673 0.2681 0.0
N542 N 0.7863 0.47473 0.99067 0.0
N543 N 0.85442 0.37512 0.29088 0.0
H544 H 0.76125 0.41336 0.39732 0.0
H545 H 0.79523 0.38255 0.43297 0.0
H546 H 0.87998 0.3665 0.26559 0.0
H547 H 0.84081 0.35845 0.35633 0.0
H548 H 0.79607 0.48213 0.89781 0.0
H549 H 0.75903 0.47826 1.00439 0.0
H550 H 0.8506 0.49557 0.93639 0.0
H551 H 0.88947 0.47206 0.97187 0.0
C552 C 0.0451 0.2009 0.06281 0.0
C553 C 1.01364 0.22081 0.03795 0.0
C554 C 0.98935 0.16945 0.91918 0.0
C555 C 1.02158 0.15012 0.93674 0.0
N556 N 0.0833 0.15181 0.99869 0.0
N557 N 0.95985 0.22678 0.91309 0.0
C558 C 0.05044 0.16727 1.00029 0.0
C559 C 0.98741 0.20594 0.95489 0.0
N560 N 0.06908 0.21297 0.15188 0.0
N561 N 0.95955 0.15251 0.87768 0.0
H562 H 0.95842 0.25376 0.93385 0.0
H563 H 0.94034 0.21834 0.84859 0.0
H564 H 0.95936 0.12609 0.85068 0.0
H565 H 0.93429 0.1639 0.88008 0.0
H566 H 0.09022 0.19771 0.18662 0.0
H567 H 0.06642 0.23734 0.19809 0.0
H568 H 0.10605 0.16437 0.0324 0.0
H569 H 0.08848 0.12798 0.95109 0.0
C570 C 0.36157 0.05306 0.04548 0.0
C571 C 0.34154 1.02176 0.02522 0.0
C572 C 0.39224 0.99728 0.89711 0.0
C573 C 0.41224 1.02887 0.91512 0.0
N574 N 0.41039 0.09066 0.97193 0.0
N575 N 0.33443 0.96859 0.90056 0.0
C576 C 0.39507 0.05794 0.97847 0.0
C577 C 0.35585 0.99557 0.93987 0.0
N578 N 0.34975 0.07738 0.13444 0.0
N579 N 0.40821 0.96789 0.84641 0.0
H580 H 0.30769 0.96702 0.92857 0.0
H581 H 0.34197 0.95014 0.82989 0.0
H582 H 0.43338 0.96809 0.80365 0.0
H583 H 0.39677 0.94281 0.85062 0.0
H584 H 0.36521 0.09844 0.16602 0.0
H585 H 0.32535 0.07517 0.18341 0.0
H586 H 0.39785 0.1135 1.00572 0.0
H587 H 0.43384 0.09556 0.9191 0.0
C588 C 0.50428 0.37209 0.0554 0.0
C589 C 0.53425 0.35088 0.02151 0.0
C590 C 0.55631 0.40016 0.8787 0.0
C591 C 0.52537 0.42077 0.90709 0.0
N592 N 0.4653 0.42073 0.99291 0.0
N593 N 0.58393 0.34185 0.87442 0.0
C594 C 0.49794 0.4049 0.98616 0.0
C595 C 0.55837 0.36406 0.92332 0.0
N596 N 0.48291 0.36227 0.15912 0.0
N597 N 0.58486 0.41532 0.81624 0.0
H598 H 0.58492 0.31499 0.89976 0.0
H599 H 0.6022 0.34902 0.80125 0.0
H600 H 0.58459 0.44066 0.77534 0.0
H601 H 0.60984 0.40342 0.81154 0.0
H602 H 0.46333 0.37876 0.19834 0.0
H603 H 0.48657 0.33889 0.2129 0.0
H604 H 0.44339 0.40894 0.03905 0.0
H605 H 0.4591 0.44367 0.93947 0.0
C606 C 0.19362 0.57643 0.9467 0.0
C607 C 0.2072 0.54899 0.03005 0.0
C608 C 0.15413 0.51357 0.97598 0.0
C609 C 0.13795 0.54338 0.91239 0.0
N610 N 0.14118 0.60602 0.86353 0.0
N611 N 0.19671 0.49269 0.13836 0.0
C612 C 0.15754 0.57551 0.90373 0.0
C613 C 0.18662 0.51769 0.04758 0.0
N614 N 0.21532 0.60383 0.90966 0.0
N615 N 0.13884 0.48097 0.96616 0.0
H616 H 0.21987 0.49465 0.19331 0.0
H617 H 0.18057 0.47151 0.16682 0.0
H618 H 0.11595 0.47664 0.9114 0.0
H619 H 0.15093 0.45777 1.00014 0.0
H620 H 0.2078 0.62365 0.8431 0.0
H621 H 0.24212 0.60465 0.9352 0.0
H622 H 0.15279 0.63092 0.87131 0.0
H623 H 0.11501 0.60691 0.83192 0.0
C624 C 0.05764 0.86457 0.68758 0.0
C625 C 0.03513 0.85424 0.58233 0.0
C626 C 1.00071 0.90928 0.61846 0.0
C627 C 1.02722 0.9224 0.70538 0.0
N628 N 0.08205 0.91026 0.82262 0.0
N629 N 0.98654 0.86969 0.43925 0.0
C630 C 0.05562 0.89926 0.74119 0.0
C631 C 1.00667 0.87719 0.54677 0.0
N632 N 0.08309 0.84215 0.73421 0.0
N633 N 0.96903 0.92681 0.60779 0.0
H634 H 0.98955 0.84649 0.3856 0.0
H635 H 0.96858 0.88764 0.39802 0.0
H636 H 0.96272 0.94892 0.66422 0.0
H637 H 0.94755 0.91701 0.55546 0.0
H638 H 0.08619 0.81601 0.70354 0.0
H639 H 0.08619 0.81601 0.70354 0.0
H640 H 0.10313 0.89384 0.84995 0.0
H641 H 0.08421 0.93583 0.85824 0.0
C642 C 0.70074 0.06333 0.68492 0.0
C643 C 0.71948 0.0307 0.6798 0.0
C644 C 0.66534 0.99995 0.75847 0.0
C645 C 0.64615 0.03244 0.76127 0.0
N646 N 0.65007 0.09594 0.77298 0.0
N647 N 0.7231 0.97071 0.75779 0.0
C648 C 0.66535 0.06449 0.73955 0.0
C649 C 0.70292 1.0002 0.73571 0.0
N650 N 0.71606 0.09284 0.63085 0.0
N651 N 0.64756 0.96864 0.76975 0.0
H652 H 0.75044 0.97061 0.73849 0.0
H653 H 0.71358 0.94823 0.80696 0.0
H654 H 0.62004 0.96741 0.77906 0.0
H655 H 0.65966 0.94406 0.75738 0.0
H656 H 0.7024 0.11661 0.61659 0.0
H657 H 0.74221 0.09266 0.59534 0.0
H658 H 0.66351 0.12 0.76775 0.0
H659 H 0.6253 0.09719 0.81991 0.0
C660 C 0.49418 0.70703 0.64144 0.0
C661 C 0.52746 0.72392 0.6206 0.0
C662 C 0.55749 0.66823 0.68671 0.0
C663 C 0.52415 0.65104 0.70553 0.0
N664 N 0.46031 0.65675 0.72078 0.0
N665 N 0.58995 0.72368 0.66464 0.0
C666 C 0.4925 0.67146 0.69099 0.0
C667 C 0.55872 0.70548 0.65935 0.0
N668 N 0.46338 0.72421 0.61237 0.0
N669 N 0.58805 0.64869 0.68611 0.0
H670 H 0.59125 0.75079 0.64368 0.0
H671 H 0.61333 0.71292 0.70232 0.0
H672 H 0.58814 0.62136 0.69932 0.0
H673 H 0.61283 0.65896 0.66014 0.0
H674 H 0.4625 0.75033 0.57751 0.0
H675 H 0.4625 0.75033 0.57751 0.0
H676 H 0.43646 0.67061 0.7093 0.0
H677 H 0.45783 0.6314 0.76181 0.0
C678 C 0.86381 0.56001 0.50938 0.0
C679 C 0.84202 0.52968 0.53191 0.0
C680 C 0.89008 0.50416 0.67028 0.0
C681 C 0.91061 0.53568 0.65701 0.0
N682 N 0.91109 0.59728 0.59092 0.0
N683 N 0.83176 0.47693 0.66278 0.0
C684 C 0.89552 0.56472 0.58516 0.0
C685 C 0.85436 0.50326 0.62248 0.0
N686 N 0.85594 0.58328 0.40961 0.0
N687 N 0.90508 0.47411 0.72111 0.0
H688 H 0.80504 0.4765 0.63603 0.0
H689 H 0.83841 0.45761 0.73257 0.0
H690 H 0.93013 0.47351 0.76296 0.0
H691 H 0.89334 0.44924 0.71494 0.0
H692 H 0.87312 0.60345 0.3793 0.0
H693 H 0.83405 0.58047 0.3485 0.0
H694 H 0.89964 0.62005 0.55034 0.0
H695 H 0.93322 0.60224 0.64906 0.0
loop_
_geom_bond_atom_site_label_1
_geom_bond_atom_site_label_2
_geom_bond_distance
_geom_bond_site_symmetry_2
_ccdc_geom_bond_type
H0 C7 0.929 . S
H1 C10 0.930 . S
H2 C12 0.929 . S
H3 C4 0.969 . S
C4 H3 0.969 . S
C4 O5 1.550 . S
C4 H6 0.973 . S
O5 C4 1.550 . S
O5 C11 1.412 . S
H6 C4 0.973 . S
C7 H0 0.929 . S
C7 C8 1.400 . S
C7 C9 1.364 . S
C8 C7 1.400 . S
C8 C12 1.377 . S
C9 C7 1.364 . S
C9 C10 1.374 . S
C10 H1 0.930 . S
C10 C9 1.374 . S
C10 C11 1.383 . S
C11 O5 1.412 . S
C11 C10 1.383 . S
C11 C12 1.394 . S
C12 H2 0.929 . S
C12 C8 1.377 . S
C12 C11 1.394 . S
H13 C20 0.928 1_655 S
H14 C23 0.931 . S
H15 C25 0.928 1_655 S
H16 C17 0.969 . S
C17 H16 0.969 . S
C17 O18 1.550 1_455 S
C17 H19 0.973 1_455 S
O18 C17 1.550 1_655 S
O18 C24 1.404 1_655 S
H19 C17 0.973 1_655 S
C20 H13 0.928 1_455 S
C20 C21 1.399 . S
C20 C22 1.364 . S
C21 C20 1.399 . S
C21 C25 1.377 . S
C22 C20 1.364 . S
C22 C23 1.374 1_455 S
C23 H14 0.931 . S
C23 C22 1.374 1_655 S
C23 C24 1.382 1_655 S
C24 O18 1.404 1_455 S
C24 C23 1.382 1_455 S
C24 C25 1.394 . S
C25 H15 0.928 1_455 S
C25 C21 1.377 . S
C25 C24 1.394 . S
H26 C33 0.928 1_565 S
H27 C36 0.931 . S
H28 C38 0.929 1_565 S
H29 C30 0.969 . S
C30 H29 0.969 . S
C30 O31 1.550 1_545 S
C30 H32 0.973 1_545 S
O31 C30 1.550 1_565 S
O31 C37 1.404 1_565 S
H32 C30 0.973 1_565 S
C33 H26 0.928 1_545 S
C33 C34 1.399 . S
C33 C35 1.364 . S
C34 C33 1.399 . S
C34 C38 1.377 . S
C35 C33 1.364 . S
C35 C36 1.374 1_545 S
C36 H27 0.931 . S
C36 C35 1.374 1_565 S
C36 C37 1.382 1_565 S
C37 O31 1.404 1_545 S
C37 C36 1.382 1_545 S
C37 C38 1.394 . S
C38 H28 0.929 1_545 S
C38 C34 1.377 . S
C38 C37 1.394 . S
H39 C46 0.929 . S
H40 C49 0.930 . S
H41 C51 0.929 . S
H42 C43 0.969 . S
C43 H42 0.969 . S
C43 O44 1.550 . S
C43 H45 0.973 . S
O44 C43 1.550 . S
O44 C50 1.412 . S
H45 C43 0.973 . S
C46 H39 0.929 . S
C46 C47 1.400 . S
C46 C48 1.364 . S
C47 C46 1.400 . S
C47 C51 1.377 . S
C48 C46 1.364 . S
C48 C49 1.374 . S
C49 H40 0.930 . S
C49 C48 1.374 . S
C49 C50 1.383 . S
C50 O44 1.412 . S
C50 C49 1.383 . S
C50 C51 1.394 . S
C51 H41 0.929 . S
C51 C47 1.377 . S
C51 C50 1.394 . S
H52 C59 0.929 . S
H53 C62 0.930 . S
H54 C64 0.929 . S
H55 C56 0.969 . S
C56 H55 0.969 . S
C56 O57 1.550 . S
C56 H58 0.973 . S
O57 C56 1.550 . S
O57 C63 1.412 . S
H58 C56 0.973 . S
C59 H52 0.929 . S
C59 C60 1.400 1_554 S
C59 C61 1.364 . S
C60 C59 1.400 1_556 S
C60 C64 1.377 . S
C61 C59 1.364 . S
C61 C62 1.374 . S
C62 H53 0.930 . S
C62 C61 1.374 . S
C62 C63 1.383 . S
C63 O57 1.412 . S
C63 C62 1.383 . S
C63 C64 1.394 1_554 S
C64 H54 0.929 . S
C64 C60 1.377 . S
C64 C63 1.394 1_556 S
H65 C72 0.928 1_655 S
H66 C75 0.930 . S
H67 C77 0.928 1_655 S
H68 C69 0.969 . S
C69 H68 0.969 . S
C69 O70 1.550 1_455 S
C69 H71 0.973 1_455 S
O70 C69 1.550 1_655 S
O70 C76 1.412 1_655 S
H71 C69 0.973 1_655 S
C72 H65 0.928 1_455 S
C72 C73 1.400 1_554 S
C72 C74 1.364 . S
C73 C72 1.400 1_556 S
C73 C77 1.377 . S
C74 C72 1.364 . S
C74 C75 1.374 1_455 S
C75 H66 0.930 . S
C75 C74 1.374 1_655 S
C75 C76 1.383 1_655 S
C76 O70 1.412 1_455 S
C76 C75 1.383 1_455 S
C76 C77 1.395 1_554 S
C77 H67 0.928 1_455 S
C77 C73 1.377 . S
C77 C76 1.395 1_556 S
H78 C85 0.928 1_565 S
H79 C88 0.930 . S
H80 C90 0.928 1_565 S
H81 C82 0.969 . S
C82 H81 0.969 . S
C82 O83 1.550 1_545 S
C82 H84 0.973 1_545 S
O83 C82 1.550 1_565 S
O83 C89 1.412 1_565 S
H84 C82 0.973 1_565 S
C85 H78 0.928 1_545 S
C85 C86 1.400 1_554 S
C85 C87 1.364 . S
C86 C85 1.400 1_556 S
C86 C90 1.377 . S
C87 C85 1.364 . S
C87 C88 1.374 1_545 S
C88 H79 0.930 . S
C88 C87 1.374 1_565 S
C88 C89 1.383 1_565 S
C89 O83 1.412 1_545 S
C89 C88 1.383 1_545 S
C89 C90 1.395 1_554 S
C90 H80 0.928 1_545 S
C90 C86 1.377 . S
C90 C89 1.395 1_556 S
H91 C98 0.929 1_556 S
H92 C101 0.930 . S
H93 C103 0.929 . S
H94 C95 0.969 . S
C95 H94 0.969 . S
C95 O96 1.550 . S
C95 H97 0.973 . S
O96 C95 1.550 . S
O96 C102 1.412 . S
H97 C95 0.973 . S
C98 H91 0.929 1_554 S
C98 C99 1.400 1_554 S
C98 C100 1.364 . S
C99 C98 1.400 1_556 S
C99 C103 1.377 . S
C100 C98 1.364 . S
C100 C101 1.374 . S
C101 H92 0.930 . S
C101 C100 1.374 . S
C101 C102 1.383 . S
C102 O96 1.412 . S
C102 C101 1.383 . S
C102 C103 1.394 1_554 S
C103 H93 0.929 . S
C103 C99 1.377 . S
C103 C102 1.394 1_556 S
Sm104 C106 2.846 1_556 S
Sm104 O124 2.543 1_556 S
Sm104 O125 2.450 1_556 S
Sm104 O126 2.681 1_565 S
Sm104 O127 2.464 . S
Sm104 O128 2.396 . S
Sm104 O132 2.386 1_455 S
Sm104 O135 2.408 1_565 S
Sm105 C115 2.846 . S
Sm105 O126 2.386 1_655 S
Sm105 O129 2.408 1_545 S
Sm105 O130 2.543 . S
Sm105 O131 2.450 . S
Sm105 O132 2.681 1_545 S
Sm105 O133 2.464 . S
Sm105 O134 2.396 . S
C106 Sm104 2.846 1_554 S
C106 C107 1.506 . S
C106 O124 1.261 . S
C106 O125 1.242 . S
C107 C106 1.506 . S
C107 C108 1.358 . S
C107 C112 1.382 . S
C108 C107 1.358 . S
C108 C109 1.385 . S
C108 H136 0.930 1_455 S
C109 C108 1.385 . S
C109 C110 1.395 . S
C109 H137 0.929 . S
C110 C109 1.395 . S
C110 C111 1.335 . S
C111 C110 1.335 . S
C111 C112 1.398 . S
C111 H138 0.930 . S
C112 C107 1.382 . S
C112 C111 1.398 . S
C112 H139 0.929 . S
C113 O126 1.271 1_565 S
C113 O127 1.251 . S
C114 O128 1.252 1_655 S
C114 O129 1.272 . S
C115 Sm105 2.846 . S
C115 C116 1.506 . S
C115 O130 1.261 . S
C115 O131 1.242 . S
C116 C115 1.506 . S
C116 C117 1.358 . S
C116 C121 1.382 . S
C117 C116 1.358 . S
C117 C118 1.385 . S
C117 H140 0.930 1_655 S
C118 C117 1.385 . S
C118 C119 1.395 . S
C118 H141 0.953 . S
C119 C118 1.395 . S
C119 C120 1.335 . S
C120 C119 1.335 . S
C120 C121 1.398 . S
C120 H142 0.930 . S
C121 C116 1.382 . S
C121 C120 1.398 . S
C121 H143 0.929 . S
C122 O132 1.271 1_545 S
C122 O133 1.251 . S
C123 O134 1.252 1_455 S
C123 O135 1.272 . S
O124 Sm104 2.543 1_554 S
O124 C106 1.261 . S
O125 Sm104 2.450 1_554 S
O125 C106 1.242 . S
O126 Sm104 2.681 1_545 S
O126 Sm105 2.386 1_455 S
O126 C113 1.271 1_545 S
O127 Sm104 2.464 . S
O127 C113 1.251 . S
O128 Sm104 2.396 . S
O128 C114 1.252 1_455 S
O129 Sm105 2.408 1_565 S
O129 C114 1.272 . S
O130 Sm105 2.543 . S
O130 C115 1.261 . S
O131 Sm105 2.450 . S
O131 C115 1.242 . S
O132 Sm104 2.386 1_655 S
O132 Sm105 2.681 1_565 S
O132 C122 1.271 1_565 S
O133 Sm105 2.464 . S
O133 C122 1.251 . S
O134 Sm105 2.396 . S
O134 C123 1.252 1_655 S
O135 Sm104 2.408 1_545 S
O135 C123 1.272 . S
H136 C108 0.930 1_655 S
H137 C109 0.929 . S
H138 C111 0.930 . S
H139 C112 0.929 . S
H140 C117 0.930 1_455 S
H141 C118 0.953 . S
H142 C120 0.930 . S
H143 C121 0.929 . S
Sm144 C146 2.846 1_556 S
Sm144 O164 2.543 1_556 S
Sm144 O165 2.450 1_556 S
Sm144 O166 2.681 . S
Sm144 O167 2.464 . S
Sm144 O168 2.396 . S
Sm144 O172 2.386 1_545 S
Sm144 O175 2.408 . S
Sm145 C155 2.846 . S
Sm145 O166 2.386 1_565 S
Sm145 O169 2.408 . S
Sm145 O170 2.543 . S
Sm145 O171 2.450 . S
Sm145 O172 2.681 . S
Sm145 O173 2.464 . S
Sm145 O174 2.396 . S
C146 Sm144 2.846 1_554 S
C146 C147 1.506 . S
C146 O164 1.261 . S
C146 O165 1.242 . S
C147 C146 1.506 . S
C147 C148 1.358 . S
C147 C152 1.382 . S
C148 C147 1.358 . S
C148 C149 1.385 . S
C148 H176 0.930 1_545 S
C149 C148 1.385 . S
C149 C150 1.395 . S
C149 H177 0.906 1_545 S
C150 C149 1.395 . S
C150 C151 1.335 . S
C151 C150 1.335 . S
C151 C152 1.398 . S
C151 H178 0.930 . S
C152 C147 1.382 . S
C152 C151 1.398 . S
C152 H179 0.929 . S
C153 O166 1.271 . S
C153 O167 1.251 . S
C154 O168 1.252 1_565 S
C154 O169 1.272 . S
C155 Sm145 2.846 . S
C155 C156 1.506 . S
C155 O170 1.261 . S
C155 O171 1.242 . S
C156 C155 1.506 . S
C156 C157 1.358 . S
C156 C161 1.382 . S
C157 C156 1.358 . S
C157 C158 1.385 . S
C157 H180 0.930 1_565 S
C158 C157 1.385 . S
C158 C159 1.395 . S
C158 H181 0.929 1_565 S
C159 C158 1.395 . S
C159 C160 1.335 . S
C160 C159 1.335 . S
C160 C161 1.398 . S
C160 H182 0.930 . S
C161 C156 1.382 . S
C161 C160 1.398 . S
C161 H183 0.929 . S
C162 O172 1.271 . S
C162 O173 1.251 . S
C163 O174 1.252 1_545 S
C163 O175 1.272 . S
O164 Sm144 2.543 1_554 S
O164 C146 1.261 . S
O165 Sm144 2.450 1_554 S
O165 C146 1.242 . S
O166 Sm144 2.681 . S
O166 Sm145 2.386 1_545 S
O166 C153 1.271 . S
O167 Sm144 2.464 . S
O167 C153 1.251 . S
O168 Sm144 2.396 . S
O168 C154 1.252 1_545 S
O169 Sm145 2.408 . S
O169 C154 1.272 . S
O170 Sm145 2.543 . S
O170 C155 1.261 . S
O171 Sm145 2.450 . S
O171 C155 1.242 . S
O172 Sm144 2.386 1_565 S
O172 Sm145 2.681 . S
O172 C162 1.271 . S
O173 Sm145 2.464 . S
O173 C162 1.251 . S
O174 Sm145 2.396 . S
O174 C163 1.252 1_565 S
O175 Sm144 2.408 . S
O175 C163 1.272 . S
H176 C148 0.930 1_565 S
H177 C149 0.906 1_565 S
H178 C151 0.930 . S
H179 C152 0.929 . S
H180 C157 0.930 1_545 S
H181 C158 0.929 1_545 S
H182 C160 0.930 . S
H183 C161 0.929 . S
Sm184 C186 2.846 1_556 S
Sm184 O204 2.543 1_556 S
Sm184 O205 2.450 1_556 S
Sm184 O206 2.681 . S
Sm184 O207 2.464 . S
Sm184 O208 2.396 . S
Sm184 O212 2.386 . S
Sm184 O215 2.408 . S
Sm185 C195 2.846 . S
Sm185 O206 2.386 . S
Sm185 O209 2.408 . S
Sm185 O210 2.543 . S
Sm185 O211 2.450 . S
Sm185 O212 2.681 . S
Sm185 O213 2.464 . S
Sm185 O214 2.396 . S
C186 Sm184 2.846 1_554 S
C186 C187 1.506 . S
C186 O204 1.261 . S
C186 O205 1.242 . S
C187 C186 1.506 . S
C187 C188 1.358 . S
C187 C192 1.382 . S
C188 C187 1.358 . S
C188 C189 1.385 . S
C188 H216 0.930 . S
C189 C188 1.385 . S
C189 C190 1.395 . S
C189 H217 0.929 . S
C190 C189 1.395 . S
C190 C191 1.335 . S
C191 C190 1.335 . S
C191 C192 1.398 . S
C191 H218 0.930 . S
C192 C187 1.382 . S
C192 C191 1.398 . S
C192 H219 0.929 . S
C193 O206 1.271 . S
C193 O207 1.251 . S
C194 O208 1.252 . S
C194 O209 1.272 . S
C195 Sm185 2.846 . S
C195 C196 1.506 . S
C195 O210 1.261 . S
C195 O211 1.242 . S
C196 C195 1.506 . S
C196 C197 1.358 . S
C196 C201 1.382 . S
C197 C196 1.358 . S
C197 C198 1.385 . S
C197 H220 0.930 . S
C198 C197 1.385 . S
C198 C199 1.395 . S
C198 H221 0.929 . S
C199 C198 1.395 . S
C199 C200 1.335 . S
C200 C199 1.335 . S
C200 C201 1.398 . S
C200 H222 0.930 . S
C201 C196 1.382 . S
C201 C200 1.398 . S
C201 H223 0.929 . S
C202 O212 1.271 . S
C202 O213 1.251 . S
C203 O214 1.252 . S
C203 O215 1.272 . S
O204 Sm184 2.543 1_554 S
O204 C186 1.261 . S
O205 Sm184 2.450 1_554 S
O205 C186 1.242 . S
O206 Sm184 2.681 . S
O206 Sm185 2.386 . S
O206 C193 1.271 . S
O207 Sm184 2.464 . S
O207 C193 1.251 . S
O208 Sm184 2.396 . S
O208 C194 1.252 . S
O209 Sm185 2.408 . S
O209 C194 1.272 . S
O210 Sm185 2.543 . S
O210 C195 1.261 . S
O211 Sm185 2.450 . S
O211 C195 1.242 . S
O212 Sm184 2.386 . S
O212 Sm185 2.681 . S
O212 C202 1.271 . S
O213 Sm185 2.464 . S
O213 C202 1.251 . S
O214 Sm185 2.396 . S
O214 C203 1.252 . S
O215 Sm184 2.408 . S
O215 C203 1.272 . S
H216 C188 0.930 . S
H217 C189 0.929 . S
H218 C191 0.930 . S
H219 C192 0.929 . S
H220 C197 0.930 . S
H221 C198 0.929 . S
H222 C200 0.930 . S
H223 C201 0.929 . S
Sm224 C226 2.846 1_556 S
Sm224 O244 2.543 1_556 S
Sm224 O245 2.450 1_556 S
Sm224 O246 2.681 1_655 S
Sm224 O247 2.464 . S
Sm224 O248 2.396 . S
Sm224 O252 2.386 . S
Sm224 O255 2.408 1_655 S
Sm225 C235 2.846 . S
Sm225 O246 2.386 . S
Sm225 O249 2.408 1_455 S
Sm225 O250 2.543 . S
Sm225 O251 2.450 . S
Sm225 O252 2.681 1_455 S
Sm225 O253 2.464 . S
Sm225 O254 2.396 . S
C226 Sm224 2.846 1_554 S
C226 C227 1.506 . S
C226 O244 1.261 . S
C226 O245 1.242 . S
C227 C226 1.506 . S
C227 C228 1.358 . S
C227 C232 1.382 . S
C228 C227 1.358 . S
C228 C229 1.385 . S
C228 H256 0.930 . S
C229 C228 1.385 . S
C229 C230 1.395 . S
C229 H257 0.929 . S
C230 C229 1.395 . S
C230 C231 1.335 . S
C231 C230 1.335 . S
C231 C232 1.398 . S
C231 H258 0.930 . S
C232 C227 1.382 . S
C232 C231 1.398 . S
C232 H259 0.929 . S
C233 O246 1.265 1_655 S
C233 O247 1.261 . S
C234 O248 1.252 . S
C234 O249 1.272 . S
C235 Sm225 2.846 . S
C235 C236 1.506 . S
C235 O250 1.261 . S
C235 O251 1.242 . S
C236 C235 1.506 . S
C236 C237 1.358 . S
C236 C241 1.382 . S
C237 C236 1.358 . S
C237 C238 1.385 . S
C237 H260 0.930 . S
C238 C237 1.385 . S
C238 C239 1.395 . S
C238 H261 0.929 . S
C239 C238 1.395 . S
C239 C240 1.335 . S
C240 C239 1.335 . S
C240 C241 1.398 . S
C240 H262 0.930 . S
C241 C236 1.382 . S
C241 C240 1.398 . S
C241 H263 0.929 . S
C242 O252 1.263 1_455 S
C242 O253 1.264 . S
C243 O254 1.252 . S
C243 O255 1.272 . S
O244 Sm224 2.543 1_554 S
O244 C226 1.261 . S
O245 Sm224 2.450 1_554 S
O245 C226 1.242 . S
O246 Sm224 2.681 1_455 S
O246 Sm225 2.386 . S
O246 C233 1.265 1_455 S
O247 Sm224 2.464 . S
O247 C233 1.261 . S
O248 Sm224 2.396 . S
O248 C234 1.252 . S
O249 Sm225 2.408 1_655 S
O249 C234 1.272 . S
O250 Sm225 2.543 . S
O250 C235 1.261 . S
O251 Sm225 2.450 . S
O251 C235 1.242 . S
O252 Sm224 2.386 . S
O252 Sm225 2.681 1_655 S
O252 C242 1.263 1_655 S
O253 Sm225 2.464 . S
O253 C242 1.264 . S
O254 Sm225 2.396 . S
O254 C243 1.252 . S
O255 Sm224 2.408 1_455 S
O255 C243 1.272 . S
H256 C228 0.930 . S
H257 C229 0.929 . S
H258 C231 0.930 . S
H259 C232 0.929 . S
H260 C237 0.930 . S
H261 C238 0.929 . S
H262 C240 0.930 . S
H263 C241 0.929 . S
C264 C265 1.358 1_565 S
C264 C270 1.379 . S
C264 N272 1.356 . S
C265 C264 1.358 1_545 S
C265 C271 1.368 . S
C266 C267 1.377 . S
C266 C271 1.379 . S
C266 N273 1.356 . S
C267 C266 1.377 . S
C267 C270 1.348 1_545 S
N268 C270 1.356 . S
N268 H280 0.984 . S
N268 H281 0.985 . S
N269 C271 1.356 . S
N269 H274 0.984 . S
N269 H275 0.985 . S
C270 C264 1.379 . S
C270 C267 1.348 1_565 S
C270 N268 1.356 . S
C271 C265 1.368 . S
C271 C266 1.379 . S
C271 N269 1.356 . S
N272 C264 1.356 . S
N272 H278 0.984 . S
N272 H279 0.984 . S
N273 C266 1.356 . S
N273 H276 0.984 . S
N273 H277 0.985 . S
H274 N269 0.984 . S
H275 N269 0.985 . S
H276 N273 0.984 . S
H277 N273 0.985 . S
H278 N272 0.984 . S
H279 N272 0.984 . S
H280 N268 0.984 . S
H281 N268 0.985 . S
C282 C283 1.363 . S
C282 C288 1.379 . S
C282 N290 1.356 . S
C283 C282 1.363 . S
C283 C289 1.363 . S
C284 C285 1.363 . S
C284 C289 1.379 . S
C284 N291 1.356 . S
C285 C284 1.363 . S
C285 C288 1.363 . S
N286 C288 1.356 . S
N286 H298 0.984 . S
N286 H299 0.985 . S
N287 C289 1.356 . S
N287 H292 0.984 . S
N287 H293 0.985 . S
C288 C282 1.379 . S
C288 C285 1.363 . S
C288 N286 1.356 . S
C289 C283 1.363 . S
C289 C284 1.379 . S
C289 N287 1.356 . S
N290 C282 1.356 . S
N290 H296 0.984 . S
N290 H297 0.984 . S
N291 C284 1.356 . S
N291 H294 0.984 . S
N291 H295 0.985 . S
H292 N287 0.984 . S
H293 N287 0.985 . S
H294 N291 0.984 . S
H295 N291 0.985 . S
H296 N290 0.984 . S
H297 N290 0.984 . S
H298 N286 0.984 . S
H299 N286 0.985 . S
C300 C301 1.363 . S
C300 C306 1.379 . S
C300 N308 1.356 . S
C301 C300 1.363 . S
C301 C307 1.363 . S
C302 C303 1.363 . S
C302 C307 1.379 . S
C302 N309 1.356 . S
C303 C302 1.363 . S
C303 C306 1.363 . S
N304 C306 1.356 . S
N304 H316 0.984 . S
N304 H317 0.985 . S
N305 C307 1.356 . S
N305 H310 0.984 . S
N305 H311 0.985 . S
C306 C300 1.379 . S
C306 C303 1.363 . S
C306 N304 1.356 . S
C307 C301 1.363 . S
C307 C302 1.379 . S
C307 N305 1.356 . S
N308 C300 1.356 . S
N308 H314 0.984 . S
N308 H315 0.984 . S
N309 C302 1.356 . S
N309 H312 0.984 . S
N309 H313 0.985 . S
H310 N305 0.984 . S
H311 N305 0.985 . S
H312 N309 0.984 . S
H313 N309 0.985 . S
H314 N308 0.984 . S
H315 N308 0.984 . S
H316 N304 0.984 . S
H317 N304 0.985 . S
C318 C319 1.353 1_655 S
C318 C324 1.379 . S
C318 N326 1.356 . S
C319 C318 1.353 1_455 S
C319 C325 1.374 . S
C320 C321 1.363 . S
C320 C325 1.379 . S
C320 N327 1.356 . S
C321 C320 1.363 . S
C321 C324 1.363 1_455 S
N322 C324 1.356 . S
N322 H334 0.984 . S
N322 H335 0.985 . S
N323 C325 1.356 . S
N323 H328 0.984 . S
N323 H329 0.985 . S
C324 C318 1.379 . S
C324 C321 1.363 1_655 S
C324 N322 1.356 . S
C325 C319 1.374 . S
C325 C320 1.379 . S
C325 N323 1.356 . S
N326 C318 1.356 . S
N326 H332 0.984 . S
N326 H333 0.984 . S
N327 C320 1.356 . S
N327 H330 0.984 . S
N327 H331 0.985 . S
H328 N323 0.984 . S
H329 N323 0.985 . S
H330 N327 0.984 . S
H331 N327 0.985 . S
H332 N326 0.984 . S
H333 N326 0.984 . S
H334 N322 0.984 . S
H335 N322 0.985 . S
C336 C337 1.362 . S
C336 C342 1.379 . S
C336 N344 1.356 . S
C337 C336 1.362 . S
C337 C343 1.364 1_565 S
C338 C339 1.354 1_545 S
C338 C343 1.379 . S
C338 N345 1.356 . S
C339 C338 1.354 1_565 S
C339 C342 1.372 . S
N340 C342 1.356 . S
N340 H352 0.984 . S
N340 H353 0.985 . S
N341 C343 1.356 . S
N341 H346 0.984 . S
N341 H347 0.985 . S
C342 C336 1.379 . S
C342 C339 1.372 . S
C342 N340 1.356 . S
C343 C337 1.364 1_545 S
C343 C338 1.379 . S
C343 N341 1.356 . S
N344 C336 1.356 . S
N344 H350 0.984 . S
N344 H351 0.984 . S
N345 C338 1.356 . S
N345 H348 0.984 1_554 S
N345 H349 0.985 . S
H346 N341 0.984 . S
H347 N341 0.985 . S
H348 N345 0.984 1_556 S
H349 N345 0.985 . S
H350 N344 0.984 . S
H351 N344 0.984 . S
H352 N340 0.984 . S
H353 N340 0.985 . S
C354 C355 1.363 . S
C354 C360 1.379 . S
C354 N362 1.356 . S
C355 C354 1.363 . S
C355 C361 1.363 . S
C356 C357 1.363 . S
C356 C361 1.379 . S
C356 N363 1.356 . S
C357 C356 1.363 . S
C357 C360 1.363 . S
N358 C360 1.356 . S
N358 H370 0.984 . S
N358 H371 0.985 . S
N359 C361 1.356 . S
N359 H364 0.984 . S
N359 H365 0.985 . S
C360 C354 1.379 . S
C360 C357 1.363 . S
C360 N358 1.356 . S
C361 C355 1.363 . S
C361 C356 1.379 . S
C361 N359 1.356 . S
N362 C354 1.356 . S
N362 H368 0.984 . S
N362 H369 0.984 . S
N363 C356 1.356 . S
N363 H366 0.984 1_554 S
N363 H367 0.985 . S
H364 N359 0.984 . S
H365 N359 0.985 . S
H366 N363 0.984 1_556 S
H367 N363 0.985 . S
H368 N362 0.984 . S
H369 N362 0.984 . S
H370 N358 0.984 . S
H371 N358 0.985 . S
C372 C373 1.363 . S
C372 C378 1.379 . S
C372 N380 1.356 . S
C373 C372 1.363 . S
C373 C379 1.363 . S
C374 C375 1.363 . S
C374 C379 1.379 . S
C374 N381 1.356 . S
C375 C374 1.363 . S
C375 C378 1.363 . S
N376 C378 1.356 . S
N376 H388 0.984 . S
N376 H389 0.985 . S
N377 C379 1.356 . S
N377 H382 0.984 . S
N377 H383 0.985 . S
C378 C372 1.379 . S
C378 C375 1.363 . S
C378 N376 1.356 . S
C379 C373 1.363 . S
C379 C374 1.379 . S
C379 N377 1.356 . S
N380 C372 1.356 . S
N380 H386 0.984 . S
N380 H387 0.984 . S
N381 C374 1.356 . S
N381 H384 0.984 1_554 S
N381 H385 0.984 1_554 S
H382 N377 0.984 . S
H383 N377 0.985 . S
H384 N381 0.984 1_556 S
H385 N381 0.984 1_556 S
H386 N380 0.984 . S
H387 N380 0.984 . S
H388 N376 0.984 . S
H389 N376 0.985 . S
C390 C391 1.354 1_455 S
C390 C396 1.379 . S
C390 N398 1.356 . S
C391 C390 1.354 1_655 S
C391 C397 1.373 . S
C392 C393 1.363 . S
C392 C397 1.379 . S
C392 N399 1.356 1_554 S
C393 C392 1.363 . S
C393 C396 1.363 1_655 S
N394 C396 1.356 . S
N394 H406 0.984 . S
N394 H407 0.985 . S
N395 C397 1.356 . S
N395 H400 0.984 . S
N395 H401 0.985 . S
C396 C390 1.379 . S
C396 C393 1.363 1_455 S
C396 N394 1.356 . S
C397 C391 1.373 . S
C397 C392 1.379 . S
C397 N395 1.356 . S
N398 C390 1.356 . S
N398 H404 0.984 . S
N398 H405 0.984 . S
N399 C392 1.356 1_556 S
N399 H402 0.984 . S
N399 H403 0.985 . S
H400 N395 0.984 . S
H401 N395 0.985 . S
H402 N399 0.984 . S
H403 N399 0.985 . S
H404 N398 0.984 . S
H405 N398 0.984 . S
H406 N394 0.984 . S
H407 N394 0.985 . S
C408 C409 1.363 1_455 S
C408 C414 1.379 1_455 S
C408 N416 1.356 . S
C409 C408 1.363 1_655 S
C409 C415 1.363 . S
C410 C411 1.363 . S
C410 C415 1.379 . S
C410 N417 1.356 . S
C411 C410 1.363 . S
C411 C414 1.363 . S
N412 C414 1.356 . S
N412 H424 1.012 . S
N412 H425 0.985 . S
N413 C415 1.356 . S
N413 H418 0.984 . S
N413 H419 0.985 . S
C414 C408 1.379 1_655 S
C414 C411 1.363 . S
C414 N412 1.356 . S
C415 C409 1.363 . S
C415 C410 1.379 . S
C415 N413 1.356 . S
N416 C408 1.356 . S
N416 H422 0.984 . S
N416 H423 0.984 . S
N417 C410 1.356 . S
N417 H420 0.984 . S
N417 H421 0.985 . S
H418 N413 0.984 . S
H419 N413 0.985 . S
H420 N417 0.984 . S
H421 N417 0.985 . S
H422 N416 0.984 . S
H423 N416 0.984 . S
H424 N412 1.012 . S
H425 N412 0.985 . S
C426 C427 1.363 1_545 S
C426 C432 1.379 1_545 S
C426 N434 1.356 . S
C427 C426 1.363 1_565 S
C427 C433 1.363 . S
C428 C429 1.363 . S
C428 C433 1.379 . S
C428 N435 1.356 . S
C429 C428 1.363 . S
C429 C432 1.363 . S
N430 C432 1.356 . S
N430 H442 0.984 1_565 S
N430 H443 0.985 . S
N431 C433 1.356 . S
N431 H436 0.984 . S
N431 H437 0.985 . S
C432 C426 1.379 1_565 S
C432 C429 1.363 . S
C432 N430 1.356 . S
C433 C427 1.363 . S
C433 C428 1.379 . S
C433 N431 1.356 . S
N434 C426 1.356 . S
N434 H440 0.984 . S
N434 H441 0.984 . S
N435 C428 1.356 . S
N435 H438 0.984 . S
N435 H439 0.985 . S
H436 N431 0.984 . S
H437 N431 0.985 . S
H438 N435 0.984 . S
H439 N435 0.985 . S
H440 N434 0.984 . S
H441 N434 0.984 . S
H442 N430 0.984 1_545 S
H443 N430 0.985 . S
C444 C445 1.363 . S
C444 C450 1.379 . S
C444 N452 1.356 . S
C445 C444 1.363 . S
C445 C451 1.363 . S
C446 C447 1.363 . S
C446 C451 1.379 . S
C446 N453 1.356 . S
C447 C446 1.363 . S
C447 C450 1.363 . S
N448 C450 1.356 . S
N448 H460 0.984 . S
N448 H461 0.985 . S
N449 C451 1.356 . S
N449 H454 0.984 . S
N449 H455 0.985 . S
C450 C444 1.379 . S
C450 C447 1.363 . S
C450 N448 1.356 . S
C451 C445 1.363 . S
C451 C446 1.379 . S
C451 N449 1.356 . S
N452 C444 1.356 . S
N452 H458 0.984 . S
N452 H459 0.984 . S
N453 C446 1.356 . S
N453 H456 0.984 . S
N453 H457 0.985 . S
H454 N449 0.984 . S
H455 N449 0.985 . S
H456 N453 0.984 . S
H457 N453 0.985 . S
H458 N452 0.984 . S
H459 N452 0.984 . S
H460 N448 0.984 . S
H461 N448 0.985 . S
C462 C463 1.363 . S
C462 C468 1.379 . S
C462 N470 1.356 . S
C463 C462 1.363 . S
C463 C469 1.363 . S
C464 C465 1.363 . S
C464 C469 1.379 . S
C464 N471 1.356 . S
C465 C464 1.363 . S
C465 C468 1.363 . S
N466 C468 1.356 . S
N466 H478 0.984 . S
N466 H479 0.985 . S
N467 C469 1.356 . S
N467 H472 0.984 . S
N467 H473 0.985 . S
C468 C462 1.379 . S
C468 C465 1.363 . S
C468 N466 1.356 . S
C469 C463 1.363 . S
C469 C464 1.379 . S
C469 N467 1.356 . S
N470 C462 1.356 . S
N470 H476 0.984 . S
N470 H477 0.984 . S
N471 C464 1.356 . S
N471 H474 0.984 . S
N471 H475 0.985 . S
H472 N467 0.984 . S
H473 N467 0.985 . S
H474 N471 0.984 . S
H475 N471 0.985 . S
H476 N470 0.984 . S
H477 N470 0.984 . S
H478 N466 0.984 . S
H479 N466 0.985 . S
C480 C481 1.363 . S
C480 C486 1.379 . S
C480 N488 1.356 . S
C481 C480 1.363 . S
C481 C487 1.363 . S
C482 C483 1.363 . S
C482 C487 1.379 . S
C482 N489 1.356 . S
C483 C482 1.363 . S
C483 C486 1.363 . S
N484 C486 1.356 . S
N484 H496 0.984 . S
N484 H497 0.985 . S
N485 C487 1.356 1_655 S
N485 H490 0.984 . S
N485 H491 0.985 . S
C486 C480 1.379 . S
C486 C483 1.363 . S
C486 N484 1.356 . S
C487 C481 1.363 . S
C487 C482 1.379 . S
C487 N485 1.356 1_455 S
N488 C480 1.356 . S
N488 H494 0.984 . S
N488 H495 0.984 1_455 S
N489 C482 1.356 . S
N489 H492 0.984 . S
N489 H493 0.985 . S
H490 N485 0.984 . S
H491 N485 0.985 . S
H492 N489 0.984 . S
H493 N489 0.985 . S
H494 N488 0.984 . S
H495 N488 0.984 1_655 S
H496 N484 0.984 . S
H497 N484 0.985 . S
C498 C499 1.363 1_565 S
C498 C504 1.379 1_565 S
C498 N506 1.356 . S
C499 C498 1.363 1_545 S
C499 C505 1.363 . S
C500 C501 1.363 . S
C500 C505 1.379 . S
C500 N507 1.356 . S
C501 C500 1.363 . S
C501 C504 1.363 . S
N502 C504 1.356 . S
N502 H514 0.984 . S
N502 H515 0.985 . S
N503 C505 1.356 . S
N503 H508 0.984 . S
N503 H509 0.985 . S
C504 C498 1.379 1_545 S
C504 C501 1.363 . S
C504 N502 1.356 . S
C505 C499 1.363 . S
C505 C500 1.379 . S
C505 N503 1.356 . S
N506 C498 1.356 . S
N506 H512 0.984 . S
N506 H513 0.984 . S
N507 C500 1.356 . S
N507 H510 0.984 . S
N507 H511 0.985 . S
H508 N503 0.984 . S
H509 N503 0.985 . S
H510 N507 0.984 . S
H511 N507 0.985 . S
H512 N506 0.984 . S
H513 N506 0.984 . S
H514 N502 0.984 . S
H515 N502 0.985 . S
C516 C517 1.363 . S
C516 C522 1.379 . S
C516 N524 1.356 . S
C517 C516 1.363 . S
C517 C523 1.363 . S
C518 C519 1.363 . S
C518 C523 1.379 . S
C518 N525 1.356 . S
C519 C518 1.363 . S
C519 C522 1.363 . S
N520 C522 1.356 . S
N520 H532 0.984 . S
N520 H533 0.985 . S
N521 C523 1.356 . S
N521 H526 0.984 . S
N521 H527 0.985 . S
C522 C516 1.379 . S
C522 C519 1.363 . S
C522 N520 1.356 . S
C523 C517 1.363 . S
C523 C518 1.379 . S
C523 N521 1.356 . S
N524 C516 1.356 . S
N524 H530 0.984 . S
N524 H531 0.984 . S
N525 C518 1.356 . S
N525 H528 0.984 . S
N525 H529 0.985 . S
H526 N521 0.984 . S
H527 N521 0.985 . S
H528 N525 0.984 . S
H529 N525 0.985 . S
H530 N524 0.984 . S
H531 N524 0.984 . S
H532 N520 0.984 . S
H533 N520 0.985 . S
C534 C535 1.363 . S
C534 C540 1.379 . S
C534 N542 1.356 . S
C535 C534 1.363 . S
C535 C541 1.363 . S
C536 C537 1.363 . S
C536 C541 1.379 . S
C536 N543 1.356 . S
C537 C536 1.363 . S
C537 C540 1.363 . S
N538 C540 1.356 . S
N538 H550 0.984 . S
N538 H551 0.985 . S
N539 C541 1.356 . S
N539 H544 0.984 . S
N539 H545 0.985 . S
C540 C534 1.379 . S
C540 C537 1.363 . S
C540 N538 1.356 . S
C541 C535 1.363 . S
C541 C536 1.379 . S
C541 N539 1.356 . S
N542 C534 1.356 . S
N542 H548 0.984 . S
N542 H549 0.984 . S
N543 C536 1.356 . S
N543 H546 0.984 . S
N543 H547 0.985 . S
H544 N539 0.984 . S
H545 N539 0.985 . S
H546 N543 0.984 . S
H547 N543 0.985 . S
H548 N542 0.984 . S
H549 N542 0.984 . S
H550 N538 0.984 . S
H551 N538 0.985 . S
C552 C553 1.363 . S
C552 C558 1.379 . S
C552 N560 1.356 . S
C553 C552 1.363 . S
C553 C559 1.363 1_455 S
C554 C555 1.363 1_655 S
C554 C559 1.379 . S
C554 N561 1.356 . S
C555 C554 1.363 1_455 S
C555 C558 1.363 . S
N556 C558 1.356 . S
N556 H568 0.984 . S
N556 H569 0.985 . S
N557 C559 1.356 . S
N557 H562 0.984 . S
N557 H563 0.985 . S
C558 C552 1.379 . S
C558 C555 1.363 . S
C558 N556 1.356 . S
C559 C553 1.363 1_655 S
C559 C554 1.379 . S
C559 N557 1.356 . S
N560 C552 1.356 . S
N560 H566 0.984 . S
N560 H567 0.984 . S
N561 C554 1.356 . S
N561 H564 0.984 . S
N561 H565 0.985 . S
H562 N557 0.984 . S
H563 N557 0.985 . S
H564 N561 0.984 . S
H565 N561 0.985 . S
H566 N560 0.984 . S
H567 N560 0.984 . S
H568 N556 0.984 . S
H569 N556 0.985 . S
C570 C571 1.363 . S
C570 C576 1.379 . S
C570 N578 1.356 . S
C571 C570 1.363 . S
C571 C577 1.363 1_545 S
C572 C573 1.363 1_565 S
C572 C577 1.379 . S
C572 N579 1.356 . S
C573 C572 1.363 1_545 S
C573 C576 1.363 . S
N574 C576 1.356 . S
N574 H586 0.984 . S
N574 H587 0.985 . S
N575 C577 1.356 . S
N575 H580 0.984 . S
N575 H581 0.985 . S
C576 C570 1.379 . S
C576 C573 1.363 . S
C576 N574 1.356 . S
C577 C571 1.363 1_565 S
C577 C572 1.379 . S
C577 N575 1.356 . S
N578 C570 1.356 . S
N578 H584 0.984 . S
N578 H585 0.984 . S
N579 C572 1.356 . S
N579 H582 0.984 . S
N579 H583 0.985 . S
H580 N575 0.984 . S
H581 N575 0.985 . S
H582 N579 0.984 . S
H583 N579 0.985 . S
H584 N578 0.984 . S
H585 N578 0.984 . S
H586 N574 0.984 . S
H587 N574 0.985 . S
C588 C589 1.363 . S
C588 C594 1.379 . S
C588 N596 1.356 1_556 S
C589 C588 1.363 . S
C589 C595 1.363 . S
C590 C591 1.363 . S
C590 C595 1.379 . S
C590 N597 1.356 . S
C591 C590 1.363 . S
C591 C594 1.363 . S
N592 C594 1.356 1_554 S
N592 H604 0.984 . S
N592 H605 0.985 . S
N593 C595 1.356 . S
N593 H598 0.984 . S
N593 H599 0.985 . S
C594 C588 1.379 . S
C594 C591 1.363 . S
C594 N592 1.356 1_556 S
C595 C589 1.363 . S
C595 C590 1.379 . S
C595 N593 1.356 . S
N596 C588 1.356 1_554 S
N596 H602 0.984 . S
N596 H603 0.984 1_554 S
N597 C590 1.356 . S
N597 H600 0.984 . S
N597 H601 0.985 . S
H598 N593 0.984 . S
H599 N593 0.985 . S
H600 N597 0.984 . S
H601 N597 0.985 . S
H602 N596 0.984 . S
H603 N596 0.984 1_556 S
H604 N592 0.984 . S
H605 N592 0.985 . S
C606 C607 1.363 . S
C606 C612 1.379 . S
C606 N614 1.356 1_556 S
C607 C606 1.363 . S
C607 C613 1.363 . S
C608 C609 1.363 . S
C608 C613 1.379 . S
C608 N615 1.356 . S
C609 C608 1.363 . S
C609 C612 1.363 . S
N610 C612 1.356 1_554 S
N610 H622 0.984 . S
N610 H623 0.985 . S
N611 C613 1.356 . S
N611 H616 0.984 . S
N611 H617 0.985 . S
C612 C606 1.379 . S
C612 C609 1.363 . S
C612 N610 1.356 1_556 S
C613 C607 1.363 . S
C613 C608 1.379 . S
C613 N611 1.356 . S
N614 C606 1.356 1_554 S
N614 H620 0.984 . S
N614 H621 0.984 . S
N615 C608 1.356 . S
N615 H618 0.984 . S
N615 H619 0.985 . S
H616 N611 0.984 . S
H617 N611 0.985 . S
H618 N615 0.984 . S
H619 N615 0.985 . S
H620 N614 0.984 . S
H621 N614 0.984 . S
H622 N610 0.984 . S
H623 N610 0.985 . S
C624 C625 1.363 1_455 S
C624 C630 1.381 . S
C624 N632 1.356 . S
C625 C624 1.363 1_655 S
C625 C631 1.363 . S
C626 C627 1.363 . S
C626 C631 1.379 . S
C626 N633 1.356 . S
C627 C626 1.363 . S
C627 C630 1.356 1_655 S
N628 C630 1.360 . S
N628 H640 0.984 . S
N628 H641 0.985 . S
N629 C631 1.356 . S
N629 H634 0.984 . S
N629 H635 0.985 1_556 S
C630 C624 1.381 . S
C630 C627 1.356 1_455 S
C630 N628 1.360 . S
C631 C625 1.363 . S
C631 C626 1.379 . S
C631 N629 1.356 . S
N632 C624 1.356 . S
N632 H638 0.984 . S
N632 H639 0.984 . S
N633 C626 1.356 . S
N633 H636 0.984 . S
N633 H637 0.985 1_556 S
H634 N629 0.984 . S
H635 N629 0.985 1_554 S
H636 N633 0.984 . S
H637 N633 0.985 1_554 S
H638 N632 0.984 . S
H639 N632 0.984 . S
H640 N628 0.984 . S
H641 N628 0.985 . S
C642 C643 1.363 1_545 S
C642 C648 1.379 . S
C642 N650 1.356 . S
C643 C642 1.363 1_565 S
C643 C649 1.363 . S
C644 C645 1.363 . S
C644 C649 1.379 . S
C644 N651 1.356 . S
C645 C644 1.363 . S
C645 C648 1.363 1_565 S
N646 C648 1.356 . S
N646 H658 0.984 . S
N646 H659 0.985 . S
N647 C649 1.356 . S
N647 H652 0.984 . S
N647 H653 0.985 . S
C648 C642 1.379 . S
C648 C645 1.363 1_545 S
C648 N646 1.356 . S
C649 C643 1.363 . S
C649 C644 1.379 . S
C649 N647 1.356 . S
N650 C642 1.356 . S
N650 H656 0.984 . S
N650 H657 0.984 . S
N651 C644 1.356 . S
N651 H654 0.984 . S
N651 H655 0.985 . S
H652 N647 0.984 . S
H653 N647 0.985 . S
H654 N651 0.984 . S
H655 N651 0.985 . S
H656 N650 0.984 . S
H657 N650 0.984 . S
H658 N646 0.984 . S
H659 N646 0.985 . S
C660 C661 1.363 . S
C660 C666 1.379 . S
C660 N668 1.356 . S
C661 C660 1.363 . S
C661 C667 1.363 . S
C662 C663 1.363 . S
C662 C667 1.379 . S
C662 N669 1.356 . S
C663 C662 1.363 . S
C663 C666 1.363 . S
N664 C666 1.356 . S
N664 H676 0.984 . S
N664 H677 0.985 . S
N665 C667 1.356 . S
N665 H670 0.984 . S
N665 H671 0.985 . S
C666 C660 1.379 . S
C666 C663 1.363 . S
C666 N664 1.356 . S
C667 C661 1.363 . S
C667 C662 1.379 . S
C667 N665 1.356 . S
N668 C660 1.356 . S
N668 H674 0.984 . S
N668 H675 0.984 . S
N669 C662 1.356 . S
N669 H672 0.984 . S
N669 H673 0.985 . S
H670 N665 0.984 . S
H671 N665 0.985 . S
H672 N669 0.984 . S
H673 N669 0.985 . S
H674 N668 0.984 . S
H675 N668 0.984 . S
H676 N664 0.984 . S
H677 N664 0.985 . S
C678 C679 1.363 . S
C678 C684 1.379 . S
C678 N686 1.356 . S
C679 C678 1.363 . S
C679 C685 1.363 . S
C680 C681 1.363 . S
C680 C685 1.379 . S
C680 N687 1.356 . S
C681 C680 1.363 . S
C681 C684 1.363 . S
N682 C684 1.356 . S
N682 H694 0.984 . S
N682 H695 0.985 . S
N683 C685 1.356 . S
N683 H688 0.984 . S
N683 H689 0.985 . S
C684 C678 1.379 . S
C684 C681 1.363 . S
C684 N682 1.356 . S
C685 C679 1.363 . S
C685 C680 1.379 . S
C685 N683 1.356 . S
N686 C678 1.356 . S
N686 H692 0.984 . S
N686 H693 0.984 . S
N687 C680 1.356 . S
N687 H690 0.984 . S
N687 H691 0.985 . S
H688 N683 0.984 . S
H689 N683 0.985 . S
H690 N687 0.984 . S
H691 N687 0.985 . S
H692 N686 0.984 . S
H693 N686 0.984 . S
H694 N682 0.984 . S
H695 N682 0.985 . S
C265 C82 1.751 . S
C267 C113 2.182 1_545 S
C285 C153 2.202 . S
C283 C95 1.754 . S
C303 C193 2.213 . S
C301 C56 1.769 . S
C321 C233 2.195 1_455 S
C319 C69 1.765 . S
C339 C122 2.185 1_564 S
C337 C30 1.755 1_565 S
C355 C43 1.785 . S
C357 C162 2.204 1_554 S
C373 C4 1.799 . S
C375 C202 2.211 1_554 S
C391 C17 1.765 1_655 S
C393 C242 2.195 1_654 S
C411 C119 0.836 . S
C409 C74 0.843 1_655 S
C429 C159 0.835 . S
C427 C87 0.841 1_565 S
C447 C199 0.825 . S
C445 C100 0.832 . S
C463 C61 0.834 . S
C465 C239 0.822 . S
C481 C22 0.844 . S
C483 C110 0.839 . S
C501 C150 0.835 . S
C499 C35 0.841 . S
C519 C190 0.826 . S
C517 C48 0.831 . S
C535 C9 0.832 . S
C537 C230 0.828 . S
C553 C73 2.250 . S
C555 C123 2.563 . S
C571 C86 2.211 . S
C573 C163 2.526 . S
C591 C203 2.513 . S
C589 C99 2.196 . S
C609 C243 2.554 . S
C607 C60 2.232 . S
C625 C21 2.251 1_655 S
C627 C114 2.571 . S
C645 C154 2.527 . S
C643 C34 2.212 1_565 S
C663 C194 2.513 . S
C661 C47 2.203 . S
C679 C8 2.241 . S
C681 C234 2.557 . S
