# Generated by pormake.
# Topology ctn, (3,4)-cn, num edge types: 1
# Building blocks:
#     Node 0, Type 0, BuildingBlock: KAKCAD_clean_linker_0, # of connection points: 3
#     Node 1, Type 0, BuildingBlock: KAKCAD_clean_linker_0, # of connection points: 3
#     Node 2, Type 0, BuildingBlock: KAKCAD_clean_linker_0, # of connection points: 3
#     Node 3, Type 0, BuildingBlock: KAKCAD_clean_linker_0, # of connection points: 3
#     Node 4, Type 0, BuildingBlock: KAKCAD_clean_linker_0, # of connection points: 3
#     Node 5, Type 0, BuildingBlock: KAKCAD_clean_linker_0, # of connection points: 3
#     Node 6, Type 0, BuildingBlock: KAKCAD_clean_linker_0, # of connection points: 3
#     Node 7, Type 0, BuildingBlock: KAKCAD_clean_linker_0, # of connection points: 3
#     Node 8, Type 0, BuildingBlock: KAKCAD_clean_linker_0, # of connection points: 3
#     Node 9, Type 0, BuildingBlock: KAKCAD_clean_linker_0, # of connection points: 3
#     Node 10, Type 0, BuildingBlock: KAKCAD_clean_linker_0, # of connection points: 3
#     Node 11, Type 0, BuildingBlock: KAKCAD_clean_linker_0, # of connection points: 3
#     Node 12, Type 0, BuildingBlock: KAKCAD_clean_linker_0, # of connection points: 3
#     Node 13, Type 0, BuildingBlock: KAKCAD_clean_linker_0, # of connection points: 3
#     Node 14, Type 0, BuildingBlock: KAKCAD_clean_linker_0, # of connection points: 3
#     Node 15, Type 0, BuildingBlock: KAKCAD_clean_linker_0, # of connection points: 3
#     Node 16, Type 1, BuildingBlock: TATPOV_clean_sbu_0, # of connection points: 4
#     Node 17, Type 1, BuildingBlock: TATPOV_clean_sbu_0, # of connection points: 4
#     Node 18, Type 1, BuildingBlock: TATPOV_clean_sbu_0, # of connection points: 4
#     Node 19, Type 1, BuildingBlock: TATPOV_clean_sbu_0, # of connection points: 4
#     Node 20, Type 1, BuildingBlock: TATPOV_clean_sbu_0, # of connection points: 4
#     Node 21, Type 1, BuildingBlock: TATPOV_clean_sbu_0, # of connection points: 4
#     Node 22, Type 1, BuildingBlock: TATPOV_clean_sbu_0, # of connection points: 4
#     Node 23, Type 1, BuildingBlock: TATPOV_clean_sbu_0, # of connection points: 4
#     Node 24, Type 1, BuildingBlock: TATPOV_clean_sbu_0, # of connection points: 4
#     Node 25, Type 1, BuildingBlock: TATPOV_clean_sbu_0, # of connection points: 4
#     Node 26, Type 1, BuildingBlock: TATPOV_clean_sbu_0, # of connection points: 4
#     Node 27, Type 1, BuildingBlock: TATPOV_clean_sbu_0, # of connection points: 4
#     Edge 28, Type (0, 1), BuildingBlock: CIFDUS_clean_linker_0, # of connection points: 2
#     Edge 29, Type (0, 1), BuildingBlock: CIFDUS_clean_linker_0, # of connection points: 2
#     Edge 30, Type (0, 1), BuildingBlock: CIFDUS_clean_linker_0, # of connection points: 2
#     Edge 31, Type (0, 1), BuildingBlock: CIFDUS_clean_linker_0, # of connection points: 2
#     Edge 32, Type (0, 1), BuildingBlock: CIFDUS_clean_linker_0, # of connection points: 2
#     Edge 33, Type (0, 1), BuildingBlock: CIFDUS_clean_linker_0, # of connection points: 2
#     Edge 34, Type (0, 1), BuildingBlock: CIFDUS_clean_linker_0, # of connection points: 2
#     Edge 35, Type (0, 1), BuildingBlock: CIFDUS_clean_linker_0, # of connection points: 2
#     Edge 36, Type (0, 1), BuildingBlock: CIFDUS_clean_linker_0, # of connection points: 2
#     Edge 37, Type (0, 1), BuildingBlock: CIFDUS_clean_linker_0, # of connection points: 2
#     Edge 38, Type (0, 1), BuildingBlock: CIFDUS_clean_linker_0, # of connection points: 2
#     Edge 39, Type (0, 1), BuildingBlock: CIFDUS_clean_linker_0, # of connection points: 2
#     Edge 40, Type (0, 1), BuildingBlock: CIFDUS_clean_linker_0, # of connection points: 2
#     Edge 41, Type (0, 1), BuildingBlock: CIFDUS_clean_linker_0, # of connection points: 2
#     Edge 42, Type (0, 1), BuildingBlock: CIFDUS_clean_linker_0, # of connection points: 2
#     Edge 43, Type (0, 1), BuildingBlock: CIFDUS_clean_linker_0, # of connection points: 2
#     Edge 44, Type (0, 1), BuildingBlock: CIFDUS_clean_linker_0, # of connection points: 2
#     Edge 45, Type (0, 1), BuildingBlock: CIFDUS_clean_linker_0, # of connection points: 2
#     Edge 46, Type (0, 1), BuildingBlock: CIFDUS_clean_linker_0, # of connection points: 2
#     Edge 47, Type (0, 1), BuildingBlock: CIFDUS_clean_linker_0, # of connection points: 2
#     Edge 48, Type (0, 1), BuildingBlock: CIFDUS_clean_linker_0, # of connection points: 2
#     Edge 49, Type (0, 1), BuildingBlock: CIFDUS_clean_linker_0, # of connection points: 2
#     Edge 50, Type (0, 1), BuildingBlock: CIFDUS_clean_linker_0, # of connection points: 2
#     Edge 51, Type (0, 1), BuildingBlock: CIFDUS_clean_linker_0, # of connection points: 2
#     Edge 52, Type (0, 1), BuildingBlock: CIFDUS_clean_linker_0, # of connection points: 2
#     Edge 53, Type (0, 1), BuildingBlock: CIFDUS_clean_linker_0, # of connection points: 2
#     Edge 54, Type (0, 1), BuildingBlock: CIFDUS_clean_linker_0, # of connection points: 2
#     Edge 55, Type (0, 1), BuildingBlock: CIFDUS_clean_linker_0, # of connection points: 2
#     Edge 56, Type (0, 1), BuildingBlock: CIFDUS_clean_linker_0, # of connection points: 2
#     Edge 57, Type (0, 1), BuildingBlock: CIFDUS_clean_linker_0, # of connection points: 2
#     Edge 58, Type (0, 1), BuildingBlock: CIFDUS_clean_linker_0, # of connection points: 2
#     Edge 59, Type (0, 1), BuildingBlock: CIFDUS_clean_linker_0, # of connection points: 2
#     Edge 60, Type (0, 1), BuildingBlock: CIFDUS_clean_linker_0, # of connection points: 2
#     Edge 61, Type (0, 1), BuildingBlock: CIFDUS_clean_linker_0, # of connection points: 2
#     Edge 62, Type (0, 1), BuildingBlock: CIFDUS_clean_linker_0, # of connection points: 2
#     Edge 63, Type (0, 1), BuildingBlock: CIFDUS_clean_linker_0, # of connection points: 2
#     Edge 64, Type (0, 1), BuildingBlock: CIFDUS_clean_linker_0, # of connection points: 2
#     Edge 65, Type (0, 1), BuildingBlock: CIFDUS_clean_linker_0, # of connection points: 2
#     Edge 66, Type (0, 1), BuildingBlock: CIFDUS_clean_linker_0, # of connection points: 2
#     Edge 67, Type (0, 1), BuildingBlock: CIFDUS_clean_linker_0, # of connection points: 2
#     Edge 68, Type (0, 1), BuildingBlock: CIFDUS_clean_linker_0, # of connection points: 2
#     Edge 69, Type (0, 1), BuildingBlock: CIFDUS_clean_linker_0, # of connection points: 2
#     Edge 70, Type (0, 1), BuildingBlock: CIFDUS_clean_linker_0, # of connection points: 2
#     Edge 71, Type (0, 1), BuildingBlock: CIFDUS_clean_linker_0, # of connection points: 2
#     Edge 72, Type (0, 1), BuildingBlock: CIFDUS_clean_linker_0, # of connection points: 2
#     Edge 73, Type (0, 1), BuildingBlock: CIFDUS_clean_linker_0, # of connection points: 2
#     Edge 74, Type (0, 1), BuildingBlock: CIFDUS_clean_linker_0, # of connection points: 2
#     Edge 75, Type (0, 1), BuildingBlock: CIFDUS_clean_linker_0, # of connection points: 2
# Relax obj value: 0.003
# Max RMSD: 0.047
# Mean RMSD: 0.020
data_MOF--net-ctn--node1-TATPOV_clean_sbu_0--node2-KAKCAD_clean_linker_0--edge1-CIFDUS_clean_linker_0
_symmetry_space_group_name_H-M    P1
_symmetry_Int_Tables_number       1
_symmetry_cell_setting            triclinic
loop_
_symmetry_equiv_pos_as_xyz
'x, y, z'
_cell_length_a     60.601827
_cell_length_b     60.515162
_cell_length_c     60.46234
_cell_angle_alpha  90.947631
_cell_angle_beta   91.269877
_cell_angle_gamma 91.260017
loop_
_atom_site_label
_atom_site_type_symbol
_atom_site_fract_x
_atom_site_fract_y
_atom_site_fract_z
_atom_type_partial_charge
C0 C 0.03 0.09205 0.95934 0.0
C1 C 0.02076 0.11207 0.96624 0.0
C2 C 0.03258 0.07465 0.97413 0.0
C3 C 0.02619 0.07685 0.99631 0.0
C4 C 0.01705 0.09697 0.00319 0.0
C5 C 0.01428 0.11428 0.98834 0.0
C6 C 0.02896 0.05826 0.01216 0.0
C7 C 0.04743 0.04451 0.01109 0.0
C8 C 0.05013 0.02698 0.02586 0.0
C9 C 0.03406 0.02324 0.04188 0.0
C10 C 0.01545 0.03664 0.04328 0.0
C11 C 0.01309 0.05411 0.02838 0.0
C12 C 0.99832 0.03206 0.06006 0.0
C13 C 0.99103 0.01025 0.06387 0.0
C14 C 0.98918 0.04934 0.07246 0.0
C15 C 0.97321 0.0449 0.08833 0.0
C16 C 0.96584 0.02309 0.09201 0.0
C17 C 0.06964 0.01241 0.02456 0.0
C18 C 0.07667 0.0042 0.00405 0.0
C19 C 0.08109 0.00621 0.0439 0.0
C20 C 0.09904 0.99208 0.04277 0.0
C21 C 0.10591 0.98363 0.0223 0.0
C22 C 0.09452 0.9899 0.00294 0.0
C23 C 0.97497 0.00584 0.07957 0.0
H24 H 0.03491 0.08968 0.94236 0.0
H25 H 0.0393 0.05934 0.96803 0.0
H26 H 0.01229 0.09952 0.02018 0.0
H27 H 0.00741 0.12958 0.99429 0.0
H28 H 0.06006 0.04776 0.99909 0.0
H29 H 0.99846 0.06405 0.02903 0.0
H30 H 0.03599 0.00974 0.05326 0.0
H31 H 0.99755 0.99656 0.05449 0.0
H32 H 0.99455 0.0663 0.07006 0.0
H33 H 0.9664 0.05858 0.09749 0.0
H34 H 0.06812 0.00852 0.98886 0.0
H35 H 0.07623 0.01238 0.05994 0.0
H36 H 0.96984 0.98883 0.08212 0.0
H37 H 0.0995 0.98387 0.98688 0.0
H38 H 0.10732 0.98747 0.05801 0.0
C39 C 0.33919 0.7565 0.27165 0.0
C40 C 0.35246 0.73822 0.27612 0.0
C41 C 0.31839 0.75365 0.26145 0.0
C42 C 0.31018 0.73243 0.25557 0.0
C43 C 0.32301 0.71404 0.26082 0.0
C44 C 0.34394 0.7169 0.27097 0.0
C45 C 0.28862 0.72967 0.2434 0.0
C46 C 0.28337 0.7436 0.22572 0.0
C47 C 0.26329 0.74097 0.21377 0.0
C48 C 0.24826 0.72422 0.21985 0.0
C49 C 0.25307 0.7102 0.2376 0.0
C50 C 0.27336 0.71305 0.24921 0.0
C51 C 0.23695 0.69258 0.24399 0.0
C52 C 0.21416 0.69656 0.24395 0.0
C53 C 0.24422 0.6716 0.25017 0.0
C54 C 0.22912 0.65504 0.25613 0.0
C55 C 0.20632 0.65899 0.256 0.0
C56 C 0.25839 0.75531 0.19452 0.0
C57 C 0.26307 0.77818 0.19564 0.0
C58 C 0.24959 0.7461 0.17463 0.0
C59 C 0.24611 0.75932 0.15616 0.0
C60 C 0.25121 0.78211 0.15713 0.0
C61 C 0.25943 0.79144 0.17719 0.0
C62 C 0.19905 0.67998 0.24985 0.0
H63 H 0.34498 0.77313 0.27586 0.0
H64 H 0.30875 0.76812 0.25807 0.0
H65 H 0.31718 0.69747 0.2564 0.0
H66 H 0.35375 0.70248 0.27403 0.0
H67 H 0.2953 0.75606 0.22077 0.0
H68 H 0.27711 0.70265 0.26317 0.0
H69 H 0.23281 0.72203 0.21063 0.0
H70 H 0.20797 0.71258 0.23954 0.0
H71 H 0.26161 0.66784 0.25018 0.0
H72 H 0.23536 0.63918 0.26103 0.0
H73 H 0.26966 0.78583 0.21078 0.0
H74 H 0.24595 0.72853 0.17313 0.0
H75 H 0.18161 0.68356 0.24933 0.0
H76 H 0.2637 0.8089 0.17845 0.0
H77 H 0.23957 0.75164 0.14101 0.0
C78 C 0.01845 0.46749 0.11605 0.0
C79 C 0.04036 0.46059 0.11512 0.0
C80 C 0.00396 0.46394 0.09798 0.0
C81 C 0.01117 0.45371 0.07842 0.0
C82 C 0.03341 0.4476 0.07729 0.0
C83 C 0.04778 0.4508 0.09552 0.0
C84 C 0.99536 0.44882 0.05962 0.0
C85 C 0.97826 0.46339 0.05468 0.0
C86 C 0.96257 0.45846 0.03772 0.0
C87 C 0.96468 0.43892 0.02504 0.0
C88 C 0.98208 0.42445 0.02922 0.0
C89 C 0.99704 0.42936 0.0468 0.0
C90 C 0.98515 0.40456 0.01484 0.0
C91 C 0.96701 0.39143 0.00725 0.0
C92 C 0.0064 0.39896 0.00808 0.0
C93 C 0.0094 0.38101 0.99372 0.0
C94 C 0.99123 0.3682 0.98568 0.0
C95 C 0.94419 0.47392 0.03324 0.0
C96 C 0.93421 0.48532 0.05073 0.0
C97 C 0.93661 0.47761 0.01149 0.0
C98 C 0.9196 0.49232 0.00736 0.0
C99 C 0.90989 0.50404 0.02481 0.0
C100 C 0.91742 0.50028 0.04657 0.0
C101 C 0.97001 0.37342 0.99286 0.0
H102 H 0.01225 0.47479 0.13111 0.0
H103 H 0.98692 0.46855 0.0997 0.0
H104 H 0.03974 0.44016 0.06238 0.0
H105 H 0.06467 0.44544 0.0944 0.0
H106 H 0.97739 0.47887 0.06383 0.0
H107 H 0.0098 0.41771 0.05073 0.0
H108 H 0.9529 0.43503 0.01174 0.0
H109 H 0.95045 0.39512 0.01234 0.0
H110 H 0.02074 0.40881 0.01343 0.0
H111 H 0.02598 0.37731 0.98871 0.0
H112 H 0.93929 0.48266 0.06774 0.0
H113 H 0.944 0.46939 0.99755 0.0
H114 H 0.95565 0.364 0.98684 0.0
H115 H 0.91056 0.50909 0.06045 0.0
H116 H 0.914 0.49438 0.99041 0.0
C117 C 0.72875 0.70934 0.14077 0.0
C118 C 0.75043 0.70918 0.13296 0.0
C119 C 0.72344 0.7226 0.159 0.0
C120 C 0.73972 0.73596 0.16992 0.0
C121 C 0.76149 0.73542 0.16234 0.0
C122 C 0.76676 0.72226 0.14407 0.0
C123 C 0.73403 0.75081 0.18881 0.0
C124 C 0.71894 0.74389 0.20477 0.0
C125 C 0.71341 0.75797 0.22246 0.0
C126 C 0.72374 0.77901 0.22436 0.0
C127 C 0.73866 0.78651 0.2084 0.0
C128 C 0.74346 0.77223 0.19062 0.0
C129 C 0.74867 0.80942 0.20984 0.0
C130 C 0.73707 0.82699 0.21927 0.0
C131 C 0.76979 0.81407 0.2015 0.0
C132 C 0.77877 0.83561 0.20218 0.0
C133 C 0.7672 0.85314 0.21177 0.0
C134 C 0.6959 0.7513 0.23821 0.0
C135 C 0.67644 0.74043 0.23036 0.0
C136 C 0.6978 0.75688 0.26088 0.0
C137 C 0.68034 0.75254 0.27512 0.0
C138 C 0.66053 0.74253 0.26703 0.0
C139 C 0.65903 0.73608 0.24457 0.0
C140 C 0.74631 0.84835 0.22054 0.0
H141 H 0.71574 0.69964 0.13242 0.0
H142 H 0.70645 0.72281 0.16418 0.0
H143 H 0.77454 0.74514 0.17059 0.0
H144 H 0.78369 0.72223 0.13871 0.0
H145 H 0.71163 0.7274 0.20357 0.0
H146 H 0.75406 0.77799 0.17763 0.0
H147 H 0.71973 0.78972 0.23813 0.0
H148 H 0.72064 0.82446 0.22552 0.0
H149 H 0.77957 0.80108 0.19447 0.0
H150 H 0.79473 0.83842 0.19495 0.0
H151 H 0.67427 0.73601 0.21301 0.0
H152 H 0.71266 0.76496 0.26759 0.0
H153 H 0.73695 0.86104 0.22863 0.0
H154 H 0.64415 0.72805 0.23783 0.0
H155 H 0.68205 0.75784 0.29228 0.0
C156 C 0.97799 0.9735 0.38614 0.0
C157 C 0.98535 0.9794 0.36509 0.0
C158 C 0.99299 0.96974 0.40344 0.0
C159 C 0.01587 0.97135 0.40015 0.0
C160 C 0.02329 0.97689 0.379 0.0
C161 C 0.00823 0.98095 0.36172 0.0
C162 C 0.03175 0.96757 0.41887 0.0
C163 C 0.02699 0.95164 0.43488 0.0
C164 C 0.04113 0.94877 0.45332 0.0
C165 C 0.06057 0.96176 0.45549 0.0
C166 C 0.06584 0.9774 0.43943 0.0
C167 C 0.0514 0.98024 0.42125 0.0
C168 C 0.08642 0.99095 0.44152 0.0
C169 C 0.09108 0.00389 0.46059 0.0
C170 C 0.10127 0.99135 0.42408 0.0
C171 C 0.12045 0.00452 0.42562 0.0
C172 C 0.12503 0.01801 0.44445 0.0
C173 C 0.03524 0.93225 0.47025 0.0
C174 C 0.01344 0.93053 0.47753 0.0
C175 C 0.05096 0.9176 0.47861 0.0
C176 C 0.04472 0.90097 0.49324 0.0
C177 C 0.02266 0.89874 0.49978 0.0
C178 C 0.00724 0.91403 0.49212 0.0
C179 C 0.1101 0.01744 0.46198 0.0
H180 H 0.96054 0.97167 0.38934 0.0
H181 H 0.98655 0.96587 0.41951 0.0
H182 H 0.04077 0.978 0.37572 0.0
H183 H 0.01455 0.9856 0.34581 0.0
H184 H 0.01234 0.94117 0.43286 0.0
H185 H 0.05524 0.99287 0.40935 0.0
H186 H 0.07159 0.95975 0.46965 0.0
H187 H 0.07973 0.00393 0.47419 0.0
H188 H 0.0981 0.9813 0.40931 0.0
H189 H 0.13176 0.00395 0.41202 0.0
H190 H 0.00107 0.94189 0.47178 0.0
H191 H 0.06788 0.91848 0.47323 0.0
H192 H 0.11283 0.02776 0.47662 0.0
H193 H 0.99024 0.91311 0.49726 0.0
H194 H 0.05696 0.8894 0.4988 0.0
C195 C 0.15215 0.72887 0.71901 0.0
C196 C 0.15067 0.75078 0.71182 0.0
C197 C 0.1688 0.72293 0.73401 0.0
C198 C 0.18432 0.73878 0.74225 0.0
C199 C 0.18301 0.76064 0.73486 0.0
C200 C 0.16641 0.76655 0.71979 0.0
C201 C 0.2014 0.73265 0.75897 0.0
C202 C 0.2126 0.71264 0.75692 0.0
C203 C 0.2282 0.70635 0.77308 0.0
C204 C 0.2324 0.72033 0.79161 0.0
C205 C 0.2214 0.74044 0.79385 0.0
C206 C 0.20611 0.74654 0.77741 0.0
C207 C 0.22555 0.75508 0.81347 0.0
C208 C 0.22292 0.74704 0.83495 0.0
C209 C 0.2317 0.77737 0.81078 0.0
C210 C 0.23563 0.79126 0.82923 0.0
C211 C 0.23296 0.78325 0.8507 0.0
C212 C 0.23968 0.68495 0.77072 0.0
C213 C 0.22772 0.66566 0.76427 0.0
C214 C 0.26255 0.68358 0.77486 0.0
C215 C 0.27316 0.66332 0.77275 0.0
C216 C 0.26106 0.64398 0.76672 0.0
C217 C 0.23826 0.64543 0.76237 0.0
C218 C 0.22637 0.76108 0.85341 0.0
H219 H 0.14044 0.71626 0.71301 0.0
H220 H 0.16922 0.706 0.73951 0.0
H221 H 0.19483 0.7732 0.74073 0.0
H222 H 0.16563 0.78361 0.71472 0.0
H223 H 0.20942 0.70209 0.74249 0.0
H224 H 0.1973 0.76182 0.77941 0.0
H225 H 0.24413 0.71554 0.80436 0.0
H226 H 0.218 0.72995 0.83742 0.0
H227 H 0.23382 0.78394 0.79438 0.0
H228 H 0.24077 0.80828 0.82675 0.0
H229 H 0.21007 0.66611 0.76109 0.0
H230 H 0.27224 0.6982 0.77966 0.0
H231 H 0.22442 0.7545 0.86983 0.0
H232 H 0.22851 0.63085 0.75756 0.0
H233 H 0.29071 0.66268 0.77637 0.0
C234 C 0.97433 0.62611 0.51731 0.0
C235 C 0.969 0.62474 0.53969 0.0
C236 C 0.96938 0.60851 0.50271 0.0
C237 C 0.95939 0.58886 0.51024 0.0
C238 C 0.95436 0.58746 0.53282 0.0
C239 C 0.9589 0.60532 0.54735 0.0
C240 C 0.95417 0.57013 0.49446 0.0
C241 C 0.96806 0.56595 0.4766 0.0
C242 C 0.96295 0.54912 0.46094 0.0
C243 C 0.94391 0.53581 0.46365 0.0
C244 C 0.93007 0.53928 0.48169 0.0
C245 C 0.93521 0.55659 0.49687 0.0
C246 C 0.91044 0.52457 0.48489 0.0
C247 C 0.89615 0.51869 0.46701 0.0
C248 C 0.90623 0.51582 0.50581 0.0
C249 C 0.88848 0.50105 0.50867 0.0
C250 C 0.8744 0.49488 0.49073 0.0
C251 C 0.97768 0.54549 0.4419 0.0
C252 C 0.98685 0.56358 0.43067 0.0
C253 C 0.98298 0.524 0.43502 0.0
C254 C 0.99715 0.52068 0.4174 0.0
C255 C 0.00635 0.53876 0.40621 0.0
C256 C 0.00106 0.56025 0.41307 0.0
C257 C 0.87824 0.50409 0.46993 0.0
H258 H 0.98177 0.6411 0.51096 0.0
H259 H 0.97302 0.61056 0.48541 0.0
H260 H 0.94703 0.57253 0.53937 0.0
H261 H 0.95466 0.60393 0.56459 0.0
H262 H 0.98321 0.57557 0.47505 0.0
H263 H 0.92408 0.55977 0.51027 0.0
H264 H 0.93992 0.52265 0.45177 0.0
H265 H 0.89886 0.52532 0.45074 0.0
H266 H 0.91702 0.51993 0.51987 0.0
H267 H 0.88586 0.49433 0.52492 0.0
H268 H 0.98286 0.58035 0.43534 0.0
H269 H 0.97652 0.50972 0.44353 0.0
H270 H 0.86779 0.49951 0.45576 0.0
H271 H 0.00763 0.57451 0.40462 0.0
H272 H 0.00118 0.50391 0.41276 0.0
C273 C 0.83828 0.77317 0.89395 0.0
C274 C 0.81689 0.76399 0.89575 0.0
C275 C 0.84221 0.79082 0.87973 0.0
C276 C 0.82477 0.79973 0.86727 0.0
C277 C 0.8033 0.79093 0.86968 0.0
C278 C 0.79942 0.77332 0.88375 0.0
C279 C 0.82876 0.81738 0.85091 0.0
C280 C 0.84628 0.81594 0.83611 0.0
C281 C 0.84808 0.83078 0.81854 0.0
C282 C 0.83253 0.84756 0.81625 0.0
C283 C 0.81499 0.84918 0.83087 0.0
C284 C 0.81349 0.83432 0.84837 0.0
C285 C 0.79678 0.86459 0.82645 0.0
C286 C 0.80096 0.88689 0.82152 0.0
C287 C 0.77486 0.85663 0.82657 0.0
C288 C 0.75745 0.87067 0.8222 0.0
C289 C 0.76144 0.89314 0.81782 0.0
C290 C 0.86448 0.82715 0.80104 0.0
C291 C 0.88663 0.82274 0.80635 0.0
C292 C 0.85767 0.82733 0.77871 0.0
C293 C 0.87262 0.82327 0.76202 0.0
C294 C 0.89488 0.81911 0.76717 0.0
C295 C 0.90172 0.81883 0.78956 0.0
C296 C 0.78342 0.90108 0.81733 0.0
H297 H 0.85207 0.7662 0.90291 0.0
H298 H 0.85889 0.79734 0.8783 0.0
H299 H 0.78952 0.79714 0.86011 0.0
H300 H 0.78274 0.7667 0.88494 0.0
H301 H 0.85757 0.80235 0.8373 0.0
H302 H 0.79993 0.83558 0.85969 0.0
H303 H 0.83346 0.85869 0.80242 0.0
H304 H 0.81774 0.8934 0.82126 0.0
H305 H 0.77115 0.83939 0.82972 0.0
H306 H 0.7408 0.86378 0.82205 0.0
H307 H 0.8923 0.82249 0.82346 0.0
H308 H 0.84059 0.8301 0.7741 0.0
H309 H 0.78707 0.91831 0.81408 0.0
H310 H 0.91875 0.8158 0.79412 0.0
H311 H 0.86655 0.82297 0.74503 0.0
C312 C 0.32869 0.26488 0.40135 0.0
C313 C 0.30818 0.25814 0.40962 0.0
C314 C 0.33027 0.28306 0.38743 0.0
C315 C 0.31131 0.29468 0.38122 0.0
C316 C 0.29093 0.2883 0.3902 0.0
C317 C 0.28943 0.27035 0.40436 0.0
C318 C 0.3123 0.31214 0.36411 0.0
C319 C 0.32569 0.30949 0.34556 0.0
C320 C 0.32473 0.32435 0.32796 0.0
C321 C 0.31007 0.342 0.32906 0.0
C322 C 0.29622 0.34476 0.34719 0.0
C323 C 0.29813 0.33021 0.365 0.0
C324 C 0.27778 0.36068 0.34595 0.0
C325 C 0.28006 0.38075 0.33466 0.0
C326 C 0.25686 0.35463 0.35382 0.0
C327 C 0.23854 0.36749 0.34931 0.0
C328 C 0.24048 0.38654 0.33642 0.0
C329 C 0.33741 0.32026 0.3075 0.0
C330 C 0.35909 0.31238 0.30857 0.0
C331 C 0.3276 0.32373 0.2866 0.0
C332 C 0.33909 0.31954 0.26732 0.0
C333 C 0.36061 0.31133 0.2683 0.0
C334 C 0.37055 0.30793 0.28918 0.0
C335 C 0.26159 0.39346 0.32981 0.0
H336 H 0.34344 0.25582 0.40533 0.0
H337 H 0.34629 0.28771 0.38118 0.0
H338 H 0.27586 0.29647 0.38552 0.0
H339 H 0.27336 0.26532 0.41025 0.0
H340 H 0.33587 0.29507 0.34413 0.0
H341 H 0.28798 0.33256 0.37934 0.0
H342 H 0.30872 0.35301 0.3152 0.0
H343 H 0.29597 0.38625 0.32878 0.0
H344 H 0.25424 0.33928 0.3624 0.0
H345 H 0.22264 0.36198 0.35522 0.0
H346 H 0.36721 0.30966 0.32439 0.0
H347 H 0.31081 0.32935 0.28501 0.0
H348 H 0.26375 0.40805 0.3199 0.0
H349 H 0.38703 0.30146 0.29057 0.0
H350 H 0.33101 0.32276 0.25159 0.0
C351 C 0.51096 0.95329 0.63269 0.0
C352 C 0.53411 0.95258 0.63259 0.0
C353 C 0.49857 0.95022 0.6131 0.0
C354 C 0.50903 0.94624 0.59297 0.0
C355 C 0.53218 0.94523 0.59285 0.0
C356 C 0.54463 0.94852 0.61247 0.0
C357 C 0.49574 0.94397 0.57211 0.0
C358 C 0.47903 0.95911 0.56763 0.0
C359 C 0.46627 0.95741 0.54804 0.0
C360 C 0.47027 0.94021 0.53288 0.0
C361 C 0.48667 0.92461 0.53714 0.0
C362 C 0.49952 0.92679 0.55678 0.0
C363 C 0.49017 0.90626 0.52088 0.0
C364 C 0.47203 0.89636 0.50927 0.0
C365 C 0.51155 0.89923 0.51594 0.0
C366 C 0.51471 0.8835 0.49908 0.0
C367 C 0.49658 0.87471 0.48678 0.0
C368 C 0.44866 0.97351 0.54336 0.0
C369 C 0.43403 0.97988 0.55993 0.0
C370 C 0.44605 0.98224 0.52211 0.0
C371 C 0.4289 0.99656 0.51735 0.0
C372 C 0.41388 0.00247 0.53371 0.0
C373 C 0.41681 0.99422 0.55515 0.0
C374 C 0.47523 0.88096 0.49227 0.0
H375 H 0.5024 0.95657 0.64789 0.0
H376 H 0.48075 0.95094 0.61372 0.0
H377 H 0.54067 0.94235 0.57753 0.0
H378 H 0.56244 0.94772 0.61194 0.0
H379 H 0.47633 0.97261 0.5792 0.0
H380 H 0.51204 0.9148 0.56047 0.0
H381 H 0.46048 0.93898 0.51769 0.0
H382 H 0.4553 0.90082 0.513 0.0
H383 H 0.52592 0.90655 0.52442 0.0
H384 H 0.53134 0.87898 0.49495 0.0
H385 H 0.43551 0.97329 0.57643 0.0
H386 H 0.45731 0.97801 0.50911 0.0
H387 H 0.46101 0.87427 0.48303 0.0
H388 H 0.40542 0.99831 0.56807 0.0
H389 H 0.4274 0.00301 0.50079 0.0
C390 C 0.2294 0.20336 0.64031 0.0
C391 C 0.25156 0.19963 0.63526 0.0
C392 C 0.22409 0.21788 0.65753 0.0
C393 C 0.24081 0.22895 0.67018 0.0
C394 C 0.26297 0.22479 0.66544 0.0
C395 C 0.26828 0.21036 0.64815 0.0
C396 C 0.23514 0.24533 0.68773 0.0
C397 C 0.21717 0.2414 0.70161 0.0
C398 C 0.21122 0.25717 0.71767 0.0
C399 C 0.22358 0.27712 0.71969 0.0
C400 C 0.2418 0.28112 0.70624 0.0
C401 C 0.24746 0.26519 0.69036 0.0
C402 C 0.25527 0.30179 0.70902 0.0
C403 C 0.24533 0.32255 0.70853 0.0
C404 C 0.27821 0.30079 0.71261 0.0
C405 C 0.29086 0.32012 0.71645 0.0
C406 C 0.28089 0.34084 0.71625 0.0
C407 C 0.19204 0.25285 0.73219 0.0
C408 C 0.17263 0.24245 0.7236 0.0
C409 C 0.19285 0.25926 0.75469 0.0
C410 C 0.17459 0.25579 0.7681 0.0
C411 C 0.15503 0.2458 0.75937 0.0
C412 C 0.15441 0.23893 0.73701 0.0
C413 C 0.25809 0.34195 0.7119 0.0
H414 H 0.21614 0.19556 0.63051 0.0
H415 H 0.20685 0.22091 0.66049 0.0
H416 H 0.27628 0.23269 0.6751 0.0
H417 H 0.28551 0.20757 0.6449 0.0
H418 H 0.20808 0.22582 0.70019 0.0
H419 H 0.26117 0.26862 0.67964 0.0
H420 H 0.21913 0.28955 0.7318 0.0
H421 H 0.22769 0.32374 0.70566 0.0
H422 H 0.28623 0.28498 0.71314 0.0
H423 H 0.3084 0.3189 0.71997 0.0
H424 H 0.17129 0.23744 0.70634 0.0
H425 H 0.20762 0.26701 0.76198 0.0
H426 H 0.25004 0.35776 0.71195 0.0
H427 H 0.13973 0.23095 0.72977 0.0
H428 H 0.17562 0.26149 0.78517 0.0
C429 C 0.83378 0.23476 0.76998 0.0
C430 C 0.84846 0.21741 0.77377 0.0
C431 C 0.81459 0.23133 0.757 0.0
C432 C 0.80938 0.21039 0.74775 0.0
C433 C 0.82367 0.19287 0.75197 0.0
C434 C 0.84302 0.19636 0.76474 0.0
C435 C 0.78919 0.20684 0.73359 0.0
C436 C 0.7841 0.22159 0.71659 0.0
C437 C 0.76533 0.21803 0.70273 0.0
C438 C 0.75147 0.1995 0.70634 0.0
C439 C 0.75623 0.1846 0.72335 0.0
C440 C 0.77515 0.18849 0.73687 0.0
C441 C 0.74161 0.1649 0.72702 0.0
C442 C 0.7185 0.16629 0.72505 0.0
C443 C 0.75068 0.14454 0.73285 0.0
C444 C 0.73705 0.12621 0.73697 0.0
C445 C 0.71395 0.12762 0.73518 0.0
C446 C 0.76072 0.23319 0.68401 0.0
C447 C 0.76431 0.25617 0.68645 0.0
C448 C 0.7533 0.22469 0.66329 0.0
C449 C 0.75004 0.23871 0.6454 0.0
C450 C 0.75419 0.26161 0.64766 0.0
C451 C 0.76108 0.2702 0.66851 0.0
C452 C 0.70486 0.14788 0.72902 0.0
H453 H 0.83708 0.25109 0.77705 0.0
H454 H 0.80371 0.24505 0.75432 0.0
H455 H 0.82015 0.17657 0.7449 0.0
H456 H 0.85401 0.18267 0.767 0.0
H457 H 0.79526 0.23542 0.71365 0.0
H458 H 0.7788 0.17746 0.75035 0.0
H459 H 0.73701 0.19657 0.69575 0.0
H460 H 0.7109 0.18172 0.7208 0.0
H461 H 0.76839 0.14271 0.73421 0.0
H462 H 0.74469 0.111 0.74193 0.0
H463 H 0.76975 0.26334 0.70222 0.0
H464 H 0.75055 0.20709 0.66068 0.0
H465 H 0.68716 0.14954 0.72718 0.0
H466 H 0.76461 0.28772 0.67085 0.0
H467 H 0.74443 0.23152 0.62968 0.0
C468 C 0.53282 0.58276 0.46568 0.0
C469 C 0.52704 0.60373 0.47379 0.0
C470 C 0.53476 0.56485 0.47992 0.0
C471 C 0.53103 0.56737 0.50272 0.0
C472 C 0.52512 0.5883 0.51083 0.0
C473 C 0.52316 0.60623 0.49657 0.0
C474 C 0.5334 0.54825 0.51789 0.0
C475 C 0.55048 0.53314 0.51497 0.0
C476 C 0.55261 0.51467 0.52863 0.0
C477 C 0.53742 0.51152 0.54563 0.0
C478 C 0.52018 0.52639 0.54896 0.0
C479 C 0.51841 0.54475 0.53505 0.0
C480 C 0.50355 0.52224 0.56638 0.0
C481 C 0.49486 0.5008 0.56953 0.0
C482 C 0.49597 0.53962 0.57977 0.0
C483 C 0.48004 0.53565 0.59582 0.0
C484 C 0.47115 0.51425 0.59872 0.0
C485 C 0.5703 0.49834 0.52468 0.0
C486 C 0.57524 0.4916 0.50301 0.0
C487 C 0.58218 0.48913 0.54242 0.0
C488 C 0.59847 0.47351 0.53857 0.0
C489 C 0.60319 0.46658 0.51688 0.0
C490 C 0.59143 0.47594 0.49917 0.0
C491 C 0.47887 0.49687 0.58544 0.0
H492 H 0.53616 0.5802 0.44832 0.0
H493 H 0.53905 0.54894 0.47298 0.0
H494 H 0.52228 0.59095 0.52828 0.0
H495 H 0.51843 0.62203 0.50341 0.0
H496 H 0.56243 0.53594 0.50219 0.0
H497 H 0.50481 0.55589 0.53707 0.0
H498 H 0.53883 0.49727 0.55614 0.0
H499 H 0.50011 0.48705 0.55939 0.0
H500 H 0.50243 0.5563 0.57792 0.0
H501 H 0.47436 0.54944 0.60564 0.0
H502 H 0.56631 0.49814 0.48895 0.0
H503 H 0.57896 0.49409 0.55932 0.0
H504 H 0.47259 0.48014 0.58737 0.0
H505 H 0.59479 0.47121 0.48224 0.0
H506 H 0.60709 0.46654 0.55261 0.0
C507 C 0.48162 0.48223 0.89601 0.0
C508 C 0.48869 0.48162 0.87399 0.0
C509 C 0.49647 0.47908 0.91358 0.0
C510 C 0.51886 0.47552 0.90966 0.0
C511 C 0.52613 0.47529 0.88774 0.0
C512 C 0.51118 0.47822 0.87007 0.0
C513 C 0.5345 0.47257 0.92859 0.0
C514 C 0.52893 0.45847 0.94595 0.0
C515 C 0.54287 0.45668 0.96478 0.0
C516 C 0.5626 0.46943 0.96597 0.0
C517 C 0.56868 0.483 0.94842 0.0
C518 C 0.55464 0.48443 0.92976 0.0
C519 C 0.58981 0.49568 0.94939 0.0
C520 C 0.59468 0.51071 0.96683 0.0
C521 C 0.60506 0.49302 0.93253 0.0
C522 C 0.62485 0.50527 0.93299 0.0
C523 C 0.62964 0.52088 0.95008 0.0
C524 C 0.53693 0.44131 0.98294 0.0
C525 C 0.51473 0.4374 0.98829 0.0
C526 C 0.55335 0.43001 0.99477 0.0
C527 C 0.5477 0.41517 0.01133 0.0
C528 C 0.52545 0.41085 0.01629 0.0
C529 C 0.50907 0.42222 0.0045 0.0
C530 C 0.61432 0.52334 0.96709 0.0
H531 H 0.46458 0.48538 0.89977 0.0
H532 H 0.49048 0.4798 0.93033 0.0
H533 H 0.5433 0.4725 0.88424 0.0
H534 H 0.51718 0.47743 0.85334 0.0
H535 H 0.51384 0.44859 0.94446 0.0
H536 H 0.5591 0.49537 0.91648 0.0
H537 H 0.57341 0.46876 0.98044 0.0
H538 H 0.58303 0.51308 0.97996 0.0
H539 H 0.60173 0.4813 0.91906 0.0
H540 H 0.63642 0.50238 0.91993 0.0
H541 H 0.50157 0.44602 0.97995 0.0
H542 H 0.57062 0.43226 0.99101 0.0
H543 H 0.61722 0.53534 0.98036 0.0
H544 H 0.49172 0.41918 0.00742 0.0
H545 H 0.56087 0.40708 0.02021 0.0
C546 C 0.63699 0.22229 0.21632 0.0
C547 C 0.63179 0.24366 0.20949 0.0
C548 C 0.65495 0.21893 0.23064 0.0
C549 C 0.66832 0.23684 0.23843 0.0
C550 C 0.66303 0.25828 0.23172 0.0
C551 C 0.64493 0.26166 0.21744 0.0
C552 C 0.68756 0.23295 0.25355 0.0
C553 C 0.70058 0.21425 0.25038 0.0
C554 C 0.71776 0.20926 0.26535 0.0
C555 C 0.72215 0.22354 0.28358 0.0
C556 C 0.70964 0.24257 0.28678 0.0
C557 C 0.69249 0.24726 0.27166 0.0
C558 C 0.71409 0.25724 0.30632 0.0
C559 C 0.71336 0.24875 0.32778 0.0
C560 C 0.71944 0.27972 0.30361 0.0
C561 C 0.72469 0.29331 0.32203 0.0
C562 C 0.72411 0.28477 0.34349 0.0
C563 C 0.73026 0.18854 0.26241 0.0
C564 C 0.71897 0.16867 0.25662 0.0
C565 C 0.75333 0.18827 0.26561 0.0
C566 C 0.76477 0.16848 0.26335 0.0
C567 C 0.75331 0.14856 0.25811 0.0
C568 C 0.73033 0.14897 0.25452 0.0
C569 C 0.71809 0.26246 0.34623 0.0
H570 H 0.62695 0.20812 0.21084 0.0
H571 H 0.65815 0.20225 0.23586 0.0
H572 H 0.67307 0.27243 0.23722 0.0
H573 H 0.64143 0.27831 0.21234 0.0
H574 H 0.69738 0.2035 0.23611 0.0
H575 H 0.68246 0.26159 0.27457 0.0
H576 H 0.73511 0.21972 0.29547 0.0
H577 H 0.70916 0.23148 0.33025 0.0
H578 H 0.72013 0.28661 0.28721 0.0
H579 H 0.72938 0.31045 0.31954 0.0
H580 H 0.70119 0.16823 0.25424 0.0
H581 H 0.76253 0.20335 0.26988 0.0
H582 H 0.71775 0.25547 0.3626 0.0
H583 H 0.72105 0.13392 0.25031 0.0
H584 H 0.78246 0.16864 0.26636 0.0
C585 C 0.47132 0.13747 0.01842 0.0
C586 C 0.46211 0.13861 0.03948 0.0
C587 C 0.4678 0.11874 0.00489 0.0
C588 C 0.45528 0.1005 0.01225 0.0
C589 C 0.44639 0.10158 0.03354 0.0
C590 C 0.44961 0.1205 0.04692 0.0
C591 C 0.4516 0.08051 0.99773 0.0
C592 C 0.46836 0.07343 0.98366 0.0
C593 C 0.46512 0.05488 0.96961 0.0
C594 C 0.44486 0.04319 0.96994 0.0
C595 C 0.42801 0.04959 0.98413 0.0
C596 C 0.43145 0.06838 0.99786 0.0
C597 C 0.40739 0.03579 0.98512 0.0
C598 C 0.3979 0.02631 0.96565 0.0
C599 C 0.39838 0.03011 0.00559 0.0
C600 C 0.38136 0.01411 0.00661 0.0
C601 C 0.37318 0.00345 0.98721 0.0
C602 C 0.48299 0.04734 0.95492 0.0
C603 C 0.49643 0.06262 0.94379 0.0
C604 C 0.48653 0.02466 0.95169 0.0
C605 C 0.50271 0.0174 0.93741 0.0
C606 C 0.51616 0.0326 0.92621 0.0
C607 C 0.51286 0.05533 0.92964 0.0
C608 C 0.3811 0.01023 0.9667 0.0
H609 H 0.48073 0.15137 0.01216 0.0
H610 H 0.47455 0.11878 0.98846 0.0
H611 H 0.43705 0.08776 0.04 0.0
H612 H 0.44243 0.12096 0.06317 0.0
H613 H 0.48425 0.08198 0.98408 0.0
H614 H 0.41826 0.07372 0.00835 0.0
H615 H 0.4423 0.02875 0.95929 0.0
H616 H 0.40405 0.0307 0.94959 0.0
H617 H 0.40535 0.03703 0.0209 0.0
H618 H 0.37559 0.00908 0.02263 0.0
H619 H 0.49406 0.08022 0.94574 0.0
H620 H 0.4768 0.01239 0.96023 0.0
H621 H 0.37487 0.00243 0.95149 0.0
H622 H 0.52301 0.06752 0.92146 0.0
H623 H 0.50441 0.99977 0.93494 0.0
Zn624 Zn 0.28013 0.85702 0.0011 0.0
Zn625 Zn 0.24276 0.87738 0.00807 0.0
O626 O 0.24503 0.8569 0.03564 0.0
O627 O 0.27514 0.83874 0.02801 0.0
O628 O 0.2147 0.89516 0.01229 0.0
O629 O 0.29789 0.88519 0.00251 0.0
O630 O 0.26682 0.90267 0.00711 0.0
C631 C 0.25895 0.84203 0.04043 0.0
C632 C 0.24992 0.84874 0.96553 0.0
O633 O 0.23735 0.85995 0.97796 0.0
O634 O 0.26972 0.84559 0.97148 0.0
C635 C 0.19638 0.89072 0.00228 0.0
O636 O 0.19477 0.87318 0.9892 0.0
C637 C 0.28773 0.90309 0.0048 0.0
Zn638 Zn 0.09781 0.46327 0.27687 0.0
Zn639 Zn 0.11742 0.50275 0.27602 0.0
O640 O 0.09332 0.50895 0.29902 0.0
O641 O 0.07574 0.47665 0.2973 0.0
O642 O 0.13555 0.5309 0.27213 0.0
O643 O 0.12481 0.44914 0.28918 0.0
O644 O 0.14158 0.48161 0.28737 0.0
C645 C 0.07749 0.49625 0.30495 0.0
C646 C 0.09593 0.48037 0.23394 0.0
O647 O 0.10474 0.49708 0.24414 0.0
O648 O 0.09207 0.46271 0.24417 0.0
C649 C 0.13178 0.5507 0.27805 0.0
O650 O 0.1137 0.55504 0.28874 0.0
C651 C 0.14204 0.46112 0.29196 0.0
Zn652 Zn 0.78565 0.5987 0.94652 0.0
Zn653 Zn 0.7816 0.61745 0.98663 0.0
O654 O 0.80869 0.59767 0.99136 0.0
O655 O 0.81356 0.58461 0.95757 0.0
O656 O 0.77749 0.63306 0.01621 0.0
O657 O 0.78717 0.62819 0.93232 0.0
O658 O 0.78661 0.64386 0.96545 0.0
C659 C 0.81962 0.58616 0.97773 0.0
C660 C 0.74467 0.58704 0.966 0.0
O661 O 0.75224 0.59965 0.98163 0.0
O662 O 0.75602 0.58356 0.94902 0.0
C663 C 0.76704 0.62418 0.03191 0.0
O664 O 0.7593 0.60383 0.02929 0.0
C665 C 0.78788 0.6454 0.94448 0.0
Zn666 Zn 0.83642 -1e-05 0.27034 0.0
Zn667 Zn 0.86405 0.00777 0.23777 0.0
O668 O 0.84382 0.03564 0.2387 0.0
O669 O 0.82099 0.02814 0.26552 0.0
O670 O 0.88553 0.01469 0.21306 0.0
O671 O 0.86187 0.99946 0.29223 0.0
O672 O 0.88502 0.00503 0.26519 0.0
C673 C 0.82755 0.04101 0.25065 0.0
C674 C 0.83319 0.96614 0.23716 0.0
O675 O 0.84864 0.97758 0.22854 0.0
O676 O 0.82473 0.97241 0.25507 0.0
C677 C 0.88383 0.00701 0.19333 0.0
O678 O 0.86711 0.99369 0.18787 0.0
C679 C 0.88143 0.00197 0.28564 0.0
Zn680 Zn 0.28369 0.08836 0.44981 0.0
Zn681 Zn 0.27987 0.10563 0.4904 0.0
O682 O 0.30501 0.08347 0.49519 0.0
O683 O 0.30614 0.06758 0.46221 0.0
O684 O 0.2761 0.12052 0.52031 0.0
O685 O 0.29385 0.1176 0.43803 0.0
O686 O 0.28807 0.13232 0.47087 0.0
C687 C 0.31305 0.06912 0.48212 0.0
C688 C 0.24049 0.0815 0.46638 0.0
O689 O 0.24941 0.09053 0.48366 0.0
O690 O 0.25143 0.07952 0.44889 0.0
C691 C 0.2635 0.11291 0.53506 0.0
O692 O 0.25292 0.09399 0.53133 0.0
C693 C 0.2937 0.13438 0.45079 0.0
Zn694 Zn 0.34019 0.49216 0.77554 0.0
Zn695 Zn 0.36757 0.50047 0.7436 0.0
O696 O 0.34862 0.52908 0.74577 0.0
O697 O 0.32487 0.52075 0.77151 0.0
O698 O 0.38958 0.50737 0.71924 0.0
O699 O 0.36474 0.48952 0.79767 0.0
O700 O 0.38835 0.49528 0.77112 0.0
C701 C 0.33216 0.53425 0.75754 0.0
C702 C 0.33612 0.45918 0.74195 0.0
O703 O 0.35046 0.47152 0.73266 0.0
O704 O 0.32897 0.46444 0.76075 0.0
C705 C 0.38765 0.5004 0.69926 0.0
O706 O 0.37031 0.48812 0.69332 0.0
C707 C 0.38444 0.49103 0.79132 0.0
Zn708 Zn 0.78453 0.34323 0.49546 0.0
Zn709 Zn 0.75026 0.36663 0.50568 0.0
O710 O 0.75165 0.34377 0.53138 0.0
O711 O 0.77773 0.32202 0.51963 0.0
O712 O 0.72453 0.38653 0.51338 0.0
O713 O 0.80574 0.3685 0.50153 0.0
O714 O 0.77678 0.38945 0.50533 0.0
C715 C 0.76321 0.32649 0.53365 0.0
C716 C 0.75276 0.34206 0.4604 0.0
O717 O 0.7416 0.35235 0.47483 0.0
O718 O 0.77261 0.3373 0.46464 0.0
C719 C 0.70535 0.38529 0.50429 0.0
O720 O 0.70106 0.36983 0.4892 0.0
C721 C 0.79768 0.38739 0.50443 0.0
Zn722 Zn 0.59785 0.95336 0.80054 0.0
Zn723 Zn 0.61853 0.98921 0.78526 0.0
O724 O 0.59985 0.00134 0.81114 0.0
O725 O 0.58428 0.97129 0.8245 0.0
O726 O 0.63492 0.01632 0.77414 0.0
O727 O 0.62674 0.93941 0.80731 0.0
O728 O 0.64413 0.96894 0.79501 0.0
C729 C 0.58761 0.99199 0.82529 0.0
C730 C 0.58643 0.96159 0.75512 0.0
O731 O 0.60017 0.97773 0.75794 0.0
O732 O 0.58236 0.94881 0.77096 0.0
C733 C 0.62719 0.03567 0.77542 0.0
O734 O 0.6076 0.03834 0.78382 0.0
C735 C 0.64457 0.94982 0.80358 0.0
Zn736 Zn 0.00518 0.28329 0.8336 0.0
Zn737 Zn 0.0061 0.24695 0.85544 0.0
O738 O 0.03324 0.2452 0.83411 0.0
O739 O 0.02921 0.2747 0.81369 0.0
O740 O 0.0079 0.21896 0.87412 0.0
O741 O 0.01176 0.30232 0.86026 0.0
O742 O 0.00792 0.27211 0.87971 0.0
C743 C 0.03936 0.25725 0.81808 0.0
C744 C 0.96498 0.25861 0.82719 0.0
O745 O 0.97521 0.24445 0.83884 0.0
O746 O 0.97412 0.27715 0.82354 0.0
C747 C 0.02638 0.21019 0.87851 0.0
O748 O 0.04441 0.21905 0.87045 0.0
C749 C 0.01089 0.29304 0.8788 0.0
Zn750 Zn 0.50916 0.77663 0.34351 0.0
Zn751 Zn 0.51318 0.7402 0.36576 0.0
O752 O 0.54031 0.73956 0.34451 0.0
O753 O 0.5356 0.77008 0.32574 0.0
O754 O 0.51642 0.7128 0.38478 0.0
O755 O 0.51113 0.79583 0.37076 0.0
O756 O 0.51417 0.7654 0.38984 0.0
C757 C 0.54635 0.75279 0.32938 0.0
C758 C 0.47143 0.74841 0.33652 0.0
O759 O 0.48214 0.73594 0.34963 0.0
O760 O 0.47962 0.76699 0.33143 0.0
C761 C 0.50963 0.69352 0.37876 0.0
O762 O 0.50039 0.6907 0.35903 0.0
C763 C 0.51303 0.78643 0.38921 0.0
Zn764 Zn 0.95497 0.78422 0.6078 0.0
Zn765 Zn 0.99294 0.77681 0.62846 0.0
O766 O 0.00231 0.80008 0.60542 0.0
O767 O 0.97135 0.80283 0.58602 0.0
O768 O 0.02065 0.76947 0.64597 0.0
O769 O 0.94289 0.79869 0.63485 0.0
O770 O 0.97278 0.78874 0.65312 0.0
C771 C 0.99156 0.80802 0.5891 0.0
C772 C 0.96568 0.73893 0.60546 0.0
O773 O 0.98357 0.74645 0.61454 0.0
O774 O 0.94976 0.75166 0.6019 0.0
C775 C 0.04034 0.77579 0.64213 0.0
O776 O 0.04411 0.78852 0.62517 0.0
C777 C 0.95385 0.79754 0.65282 0.0
Zn778 Zn 0.43611 0.29689 0.11495 0.0
Zn779 Zn 0.47613 0.2896 0.13308 0.0
O780 O 0.48201 0.31587 0.11246 0.0
O781 O 0.44877 0.32365 0.09968 0.0
O782 O 0.50561 0.28568 0.14885 0.0
O783 O 0.42277 0.30004 0.14476 0.0
O784 O 0.45582 0.29564 0.15967 0.0
C785 C 0.46934 0.32782 0.10081 0.0
C786 C 0.45262 0.25364 0.10432 0.0
O787 O 0.46925 0.26008 0.11623 0.0
O788 O 0.43661 0.26639 0.10106 0.0
C789 C 0.52031 0.27206 0.14341 0.0
O790 O 0.51689 0.25918 0.12591 0.0
C791 C 0.43525 0.29897 0.16173 0.0
H792 H 0.20651 0.79416 0.88504 0.0
H793 H 0.27185 0.80451 0.85983 0.0
H794 H 0.28242 0.82671 0.89266 0.0
H795 H 0.27375 0.84154 0.9292 0.0
H796 H 0.20814 0.8332 0.95434 0.0
H797 H 0.19679 0.81215 0.92074 0.0
C798 C 0.223 0.8014 0.8868 0.0
C799 C 0.23848 0.79763 0.8702 0.0
C800 C 0.22884 0.81451 0.90561 0.0
C801 C 0.25971 0.80725 0.87242 0.0
C802 C 0.26575 0.81989 0.89117 0.0
C803 C 0.25689 0.83527 0.92725 0.0
C804 C 0.24185 0.8387 0.94428 0.0
C805 C 0.25055 0.82341 0.90795 0.0
C806 C 0.21999 0.8308 0.94142 0.0
C807 C 0.21357 0.81864 0.92229 0.0
H808 H 0.00128 0.50849 0.37284 0.0
H809 H 0.04503 0.56098 0.39725 0.0
H810 H 0.07029 0.55376 0.36706 0.0
H811 H 0.08096 0.53093 0.33478 0.0
H812 H 0.03712 0.47779 0.31172 0.0
H813 H 0.01107 0.48684 0.34029 0.0
C814 C 0.01641 0.51828 0.37165 0.0
C815 C 0.02133 0.5351 0.3874 0.0
C816 C 0.03092 0.5139 0.35446 0.0
C817 C 0.04076 0.54798 0.38528 0.0
C818 C 0.05528 0.5438 0.36808 0.0
C819 C 0.06559 0.52152 0.33589 0.0
C820 C 0.06112 0.5036 0.32121 0.0
C821 C 0.05066 0.52661 0.35268 0.0
C822 C 0.04114 0.49153 0.32292 0.0
C823 C 0.02617 0.49667 0.33927 0.0
H824 H 0.79367 0.72751 0.88246 0.0
H825 H 0.83137 0.75505 0.93799 0.0
H826 H 0.82457 0.72121 0.95886 0.0
H827 H 0.80845 0.6832 0.96074 0.0
H828 H 0.77231 0.65595 0.90395 0.0
H829 H 0.77755 0.69041 0.88433 0.0
C830 C 0.80018 0.72622 0.89924 0.0
C831 C 0.81283 0.74378 0.90875 0.0
C832 C 0.7964 0.70677 0.91093 0.0
C833 C 0.82162 0.74168 0.9303 0.0
C834 C 0.81766 0.7224 0.94225 0.0
C835 C 0.80156 0.68498 0.94417 0.0
C836 C 0.79 0.66709 0.9338 0.0
C837 C 0.80512 0.70476 0.93268 0.0
C838 C 0.78137 0.66946 0.91223 0.0
C839 C 0.78435 0.68914 0.90098 0.0
H840 H 0.946 -6e-05 0.36839 0.0
H841 H 0.98807 0.96923 0.32066 0.0
H842 H 0.96057 0.97539 0.29137 0.0
H843 H 0.92332 0.98741 0.2797 0.0
H844 H 0.88049 0.01487 0.32863 0.0
H845 H 0.90937 0.01174 0.35704 0.0
C846 C 0.94914 0.99432 0.35166 0.0
C847 C 0.96909 0.98394 0.3469 0.0
C848 C 0.93301 0.99726 0.33505 0.0
C849 C 0.97301 0.97745 0.32488 0.0
C850 C 0.95719 0.98081 0.3081 0.0
C851 C 0.92046 0.99289 0.29655 0.0
C852 C 0.89982 0.00133 0.30208 0.0
C853 C 0.93699 0.99046 0.31303 0.0
C854 C 0.89621 0.00819 0.324 0.0
C855 C 0.91271 0.00642 0.34026 0.0
H856 H 0.23334 0.15941 0.62346 0.0
H857 H 0.28243 0.20757 0.60401 0.0
H858 H 0.29103 0.18469 0.57183 0.0
H859 H 0.28377 0.15164 0.5485 0.0
H860 H 0.23457 0.10345 0.56782 0.0
H861 H 0.22683 0.12574 0.60065 0.0
C862 C 0.24586 0.16492 0.61213 0.0
C863 C 0.25719 0.18519 0.61614 0.0
C864 C 0.25069 0.1517 0.59359 0.0
C865 C 0.27362 0.19193 0.60146 0.0
C866 C 0.27846 0.17892 0.58297 0.0
C867 C 0.27141 0.14594 0.55992 0.0
C868 C 0.25972 0.12591 0.5556 0.0
C869 C 0.26701 0.15884 0.57879 0.0
C870 C 0.24383 0.11878 0.57068 0.0
C871 C 0.23935 0.13155 0.58947 0.0
H872 H 0.46865 0.53042 0.64122 0.0
H873 H 0.43382 0.48851 0.59303 0.0
H874 H 0.40512 0.48071 0.61963 0.0
H875 H 0.38986 0.4855 0.6566 0.0
H876 H 0.42452 0.52717 0.70511 0.0
H877 H 0.4531 0.53546 0.67837 0.0
C878 C 0.45469 0.51972 0.63649 0.0
C879 C 0.45352 0.51 0.61512 0.0
C880 C 0.43815 0.51524 0.65195 0.0
C881 C 0.43538 0.49597 0.60941 0.0
C882 C 0.41886 0.49158 0.6246 0.0
C883 C 0.40362 0.49644 0.66136 0.0
C884 C 0.40494 0.50568 0.68291 0.0
C885 C 0.42009 0.50105 0.64593 0.0
C886 C 0.42301 0.51978 0.68869 0.0
C887 C 0.43939 0.52455 0.67338 0.0
H888 H 0.76727 0.2528 0.60585 0.0
H889 H 0.73752 0.30353 0.64544 0.0
H890 H 0.73643 0.32787 0.61349 0.0
H891 H 0.74525 0.33517 0.57428 0.0
H892 H 0.77537 0.2838 0.53565 0.0
H893 H 0.77447 0.25926 0.56701 0.0
C894 C 0.76018 0.26902 0.60747 0.0
C895 C 0.75246 0.27623 0.62807 0.0
C896 C 0.75964 0.2829 0.58909 0.0
C897 C 0.7438 0.29758 0.62986 0.0
C898 C 0.74307 0.31149 0.61155 0.0
C899 C 0.75136 0.31853 0.5727 0.0
C900 C 0.76045 0.31144 0.55261 0.0
C901 C 0.75112 0.3044 0.59107 0.0
C902 C 0.76844 0.28983 0.55091 0.0
C903 C 0.76795 0.27571 0.56887 0.0
H904 H 0.5263 0.9342 0.67224 0.0
H905 H 0.57105 0.97884 0.6398 0.0
H906 H 0.59132 0.98577 0.67483 0.0
H907 H 0.59575 0.97964 0.71502 0.0
H908 H 0.55084 0.93439 0.74673 0.0
H909 H 0.53115 0.92744 0.71175 0.0
C910 C 0.54044 0.94552 0.67286 0.0
C911 C 0.54709 0.95608 0.65352 0.0
C912 C 0.55195 0.94941 0.69297 0.0
C913 C 0.56569 0.97039 0.65447 0.0
C914 C 0.5772 0.97446 0.67451 0.0
C915 C 0.58164 0.9683 0.71426 0.0
C916 C 0.57479 0.95763 0.73354 0.0
C917 C 0.5704 0.96415 0.69392 0.0
C918 C 0.55655 0.94283 0.7322 0.0
C919 C 0.54522 0.93882 0.71218 0.0
H920 H 0.87524 0.25394 0.77256 0.0
H921 H 0.8699 0.1901 0.80297 0.0
H922 H 0.90538 0.19687 0.82229 0.0
H923 H 0.93833 0.22116 0.83039 0.0
H924 H 0.94168 0.28546 0.80037 0.0
H925 H 0.90648 0.27836 0.78166 0.0
C926 C 0.88153 0.24159 0.78371 0.0
C927 C 0.86974 0.22157 0.78627 0.0
C928 C 0.90172 0.24569 0.79498 0.0
C929 C 0.87866 0.2056 0.80041 0.0
C930 C 0.89893 0.20951 0.8116 0.0
C931 C 0.93129 0.23362 0.81984 0.0
C932 C 0.94285 0.25379 0.81686 0.0
C933 C 0.91069 0.22951 0.80896 0.0
C934 C 0.93336 0.26975 0.80309 0.0
C935 C 0.91313 0.26574 0.79227 0.0
H936 H 0.5134 0.83322 0.48403 0.0
H937 H 0.48655 0.88551 0.44486 0.0
H938 H 0.49025 0.86315 0.41119 0.0
H939 H 0.49999 0.82866 0.39308 0.0
H940 H 0.52481 0.77487 0.43166 0.0
H941 H 0.52302 0.79779 0.46541 0.0
C942 C 0.50852 0.83962 0.46805 0.0
C943 C 0.49977 0.86091 0.46676 0.0
C944 C 0.51025 0.82642 0.44876 0.0
C945 C 0.49328 0.86912 0.44611 0.0
C946 C 0.49539 0.85637 0.42691 0.0
C947 C 0.50518 0.82192 0.40882 0.0
C948 C 0.51264 0.8001 0.4098 0.0
C949 C 0.5037 0.83498 0.42806 0.0
C950 C 0.519 0.79161 0.43043 0.0
C951 C 0.51799 0.80472 0.44972 0.0
H952 H 0.11262 0.25321 0.74676 0.0
H953 H 0.15228 0.23409 0.80308 0.0
H954 H 0.1195 0.23355 0.82605 0.0
H955 H 0.07965 0.24112 0.83065 0.0
H956 H 0.04115 0.26137 0.77397 0.0
H957 H 0.07314 0.25813 0.75055 0.0
C958 C 0.1141 0.24845 0.76393 0.0
C959 C 0.13495 0.24374 0.77312 0.0
C960 C 0.09526 0.2483 0.77703 0.0
C961 C 0.1365 0.23809 0.79559 0.0
C962 C 0.11772 0.23766 0.80873 0.0
C963 C 0.07825 0.24433 0.81309 0.0
C964 C 0.0581 0.25146 0.80402 0.0
C965 C 0.09702 0.24308 0.79972 0.0
C966 C 0.05653 0.25592 0.78131 0.0
C967 C 0.07483 0.25416 0.76791 0.0
H968 H 0.50971 0.60403 0.43161 0.0
H969 H 0.54048 0.64677 0.48172 0.0
H970 H 0.53775 0.67815 0.45703 0.0
H971 H 0.52691 0.69356 0.42101 0.0
H972 H 0.4967 0.65055 0.37076 0.0
H973 H 0.49929 0.61927 0.39554 0.0
C974 C 0.51603 0.62014 0.4371 0.0
C975 C 0.52527 0.62291 0.4586 0.0
C976 C 0.51458 0.63815 0.42272 0.0
C977 C 0.533 0.6441 0.46544 0.0
C978 C 0.53158 0.66208 0.45125 0.0
C979 C 0.52092 0.67735 0.41544 0.0
C980 C 0.51163 0.67451 0.39397 0.0
C981 C 0.52242 0.65932 0.42983 0.0
C982 C 0.50394 0.65332 0.38714 0.0
C983 C 0.50539 0.63536 0.40133 0.0
H984 H 0.89699 0.83941 0.72755 0.0
H985 H 0.92799 0.78876 0.76598 0.0
H986 H 0.95098 0.77918 0.73464 0.0
H987 H 0.9597 0.78291 0.695 0.0
H988 H 0.92582 0.83151 0.65631 0.0
H989 H 0.90638 0.84397 0.68893 0.0
C990 C 0.90868 0.82618 0.7291 0.0
C991 C 0.9105 0.81465 0.74904 0.0
C992 C 0.92126 0.82028 0.71084 0.0
C993 C 0.92627 0.79802 0.75089 0.0
C994 C 0.93932 0.7924 0.73289 0.0
C995 C 0.94829 0.79641 0.69386 0.0
C996 C 0.94411 0.80622 0.6733 0.0
C997 C 0.93661 0.8031 0.71262 0.0
C998 C 0.92916 0.82358 0.67194 0.0
C999 C 0.91804 0.83073 0.69057 0.0
H1000 H 0.04307 0.88207 0.53672 0.0
H1001 H 0.98564 0.87312 0.49369 0.0
H1002 H 0.97166 0.84386 0.51704 0.0
H1003 H 0.97476 0.82191 0.55016 0.0
H1004 H 0.03184 0.82984 0.59374 0.0
H1005 H 0.04714 0.85813 0.56946 0.0
C1006 C 0.02762 0.87354 0.53237 0.0
C1007 C 0.01525 0.88005 0.51366 0.0
C1008 C 0.01961 0.85657 0.54594 0.0
C1009 C 0.99524 0.86883 0.50826 0.0
C1010 C 0.98728 0.85199 0.52153 0.0
C1011 C 0.9906 0.82973 0.5544 0.0
C1012 C 0.00202 0.82389 0.57387 0.0
C1013 C 0.99916 0.84595 0.54053 0.0
C1014 C 0.02266 0.83405 0.57888 0.0
C1015 C 0.03138 0.85027 0.56503 0.0
H1016 H 0.10726 0.73858 0.7132 0.0
H1017 H 0.15328 0.77768 0.67596 0.0
H1018 H 0.12332 0.78886 0.65112 0.0
H1019 H 0.08398 0.7876 0.64003 0.0
H1020 H 0.03812 0.74835 0.67745 0.0
H1021 H 0.06812 0.73701 0.70195 0.0
C1022 C 0.11079 0.74936 0.69951 0.0
C1023 C 0.1325 0.75724 0.69645 0.0
C1024 C 0.09349 0.75571 0.68529 0.0
C1025 C 0.13669 0.77154 0.67884 0.0
C1026 C 0.11958 0.77786 0.66456 0.0
C1027 C 0.08053 0.77654 0.65351 0.0
C1028 C 0.05877 0.76887 0.65684 0.0
C1029 C 0.0979 0.7701 0.66766 0.0
C1030 C 0.05467 0.75456 0.67446 0.0
C1031 C 0.07183 0.74803 0.68851 0.0
H1032 H 0.939 0.64576 0.56426 0.0
H1033 H 0.00779 0.64733 0.54773 0.0
H1034 H 0.01354 0.68179 0.56914 0.0
H1035 H 0.99814 0.71314 0.58975 0.0
H1036 H 0.92853 0.71304 0.60313 0.0
H1037 H 0.92393 0.67629 0.58609 0.0
C1038 C 0.9553 0.6535 0.56572 0.0
C1039 C 0.97297 0.64412 0.55458 0.0
C1040 C 0.95826 0.67363 0.5774 0.0
C1041 C 0.99397 0.65438 0.5562 0.0
C1042 C 0.99723 0.67405 0.5684 0.0
C1043 C 0.98207 0.70486 0.58926 0.0
C1044 C 0.9637 0.71571 0.59767 0.0
C1045 C 0.9794 0.68408 0.57867 0.0
C1046 C 0.94289 0.705 0.59666 0.0
C1047 C 0.94024 0.68402 0.5869 0.0
H1048 H 0.81107 0.86662 0.21479 0.0
H1049 H 0.74509 0.89239 0.2107 0.0
H1050 H 0.75988 0.92958 0.21697 0.0
H1051 H 0.79119 0.95469 0.22645 0.0
H1052 H 0.85732 0.93011 0.22673 0.0
H1053 H 0.84286 0.89264 0.21814 0.0
C1054 C 0.79983 0.88028 0.2147 0.0
C1055 C 0.77678 0.87623 0.21294 0.0
C1056 C 0.8085 0.90196 0.21747 0.0
C1057 C 0.76277 0.89453 0.213 0.0
C1058 C 0.77123 0.916 0.21629 0.0
C1059 C 0.80241 0.94117 0.22409 0.0
C1060 C 0.82521 0.94499 0.22719 0.0
C1061 C 0.79399 0.91985 0.21903 0.0
C1062 C 0.8397 0.92749 0.22416 0.0
C1063 C 0.8314 0.90607 0.21949 0.0
H1064 H 0.79199 0.13806 0.2379 0.0
H1065 H 0.74035 0.11088 0.27806 0.0
H1066 H 0.75831 0.07531 0.27828 0.0
H1067 H 0.78863 0.05213 0.26792 0.0
H1068 H 0.84089 0.07799 0.2278 0.0
H1069 H 0.82265 0.11383 0.22653 0.0
C1070 C 0.78477 0.12432 0.24672 0.0
C1071 C 0.76479 0.1271 0.25787 0.0
C1072 C 0.79521 0.10371 0.24673 0.0
C1073 C 0.75552 0.10912 0.2691 0.0
C1074 C 0.76583 0.08879 0.26932 0.0
C1075 C 0.79612 0.06554 0.25882 0.0
C1076 C 0.81621 0.06238 0.24808 0.0
C1077 C 0.78565 0.08592 0.25825 0.0
C1078 C 0.82543 0.07994 0.23619 0.0
C1079 C 0.81505 0.10046 0.23556 0.0
H1080 H 0.33363 0.99846 0.00808 0.0
H1081 H 0.38074 0.96345 0.96904 0.0
H1082 H 0.35855 0.92954 0.97127 0.0
H1083 H 0.32628 0.90967 0.98448 0.0
H1084 H 0.27749 0.94401 0.0219 0.0
H1085 H 0.29969 0.97838 0.02011 0.0
C1086 C 0.3389 0.98337 7e-05 0.0
C1087 C 0.35874 0.98343 0.98835 0.0
C1088 C 0.32582 0.96387 0.00115 0.0
C1089 C 0.36542 0.96385 0.97793 0.0
C1090 C 0.3528 0.94443 0.97928 0.0
C1091 C 0.32048 0.92464 0.99234 0.0
C1092 C 0.3004 0.92424 0.00354 0.0
C1093 C 0.33305 0.94424 0.99088 0.0
C1094 C 0.29294 0.94389 0.01323 0.0
C1095 C 0.30565 0.96351 0.01223 0.0
H1096 H 0.23421 0.43104 0.33112 0.0
H1097 H 0.20142 0.36721 0.32274 0.0
H1098 H 0.16838 0.38473 0.30885 0.0
H1099 H 0.14884 0.41771 0.29846 0.0
H1100 H 0.18123 0.4818 0.30491 0.0
H1101 H 0.2145 0.46454 0.31974 0.0
C1102 C 0.21988 0.42096 0.32616 0.0
C1103 C 0.22031 0.39781 0.32834 0.0
C1104 C 0.20089 0.43114 0.31768 0.0
C1105 C 0.20148 0.38507 0.32189 0.0
C1106 C 0.18258 0.39505 0.31369 0.0
C1107 C 0.16313 0.428 0.30311 0.0
C1108 C 0.16248 0.45103 0.30061 0.0
C1109 C 0.18211 0.41802 0.3115 0.0
C1110 C 0.18126 0.46401 0.30663 0.0
C1111 C 0.20028 0.45416 0.31515 0.0
H1112 H 0.1512 0.02903 0.48084 0.0
H1113 H 0.14443 0.04027 0.41062 0.0
H1114 H 0.17905 0.06133 0.41147 0.0
H1115 H 0.21217 0.0751 0.43159 0.0
H1116 H 0.2181 0.06638 0.50211 0.0
H1117 H 0.18248 0.04643 0.50178 0.0
C1118 C 0.157 0.03639 0.46577 0.0
C1119 C 0.14528 0.03253 0.4456 0.0
C1120 C 0.17677 0.04904 0.46641 0.0
C1121 C 0.15334 0.04222 0.42628 0.0
C1122 C 0.17309 0.05451 0.42675 0.0
C1123 C 0.20557 0.06899 0.44693 0.0
C1124 C 0.21783 0.07198 0.4668 0.0
C1125 C 0.18511 0.0577 0.44663 0.0
C1126 C 0.20895 0.06429 0.48659 0.0
C1127 C 0.18866 0.05277 0.48638 0.0
H1128 H 0.6746 0.12718 0.75644 0.0
H1129 H 0.72068 0.08397 0.72498 0.0
H1130 H 0.69808 0.05187 0.73466 0.0
H1131 H 0.66549 0.03591 0.75254 0.0
H1132 H 0.61871 0.07927 0.78265 0.0
H1133 H 0.64111 0.1114 0.77258 0.0
C1134 C 0.67958 0.1108 0.75136 0.0
C1135 C 0.69947 0.10811 0.7401 0.0
C1136 C 0.66635 0.09236 0.75673 0.0
C1137 C 0.70571 0.08661 0.73402 0.0
C1138 C 0.69271 0.0682 0.73943 0.0
C1139 C 0.66016 0.05239 0.75686 0.0
C1140 C 0.64048 0.05512 0.76844 0.0
C1141 C 0.67308 0.07086 0.75092 0.0
C1142 C 0.63377 0.07663 0.77375 0.0
C1143 C 0.6466 0.09505 0.76803 0.0
H1144 H 0.38763 0.99965 0.49693 0.0
H1145 H 0.39716 0.03678 0.55802 0.0
H1146 H 0.36616 0.06022 0.54806 0.0
H1147 H 0.33705 0.07091 0.52117 0.0
H1148 H 0.32881 0.03368 0.45983 0.0
H1149 H 0.3587 0.00978 0.47066 0.0
C1150 C 0.3831 0.01301 0.508 0.0
C1151 C 0.39484 0.01658 0.52808 0.0
C1152 C 0.36547 0.02647 0.5021 0.0
C1153 C 0.38834 0.03361 0.54249 0.0
C1154 C 0.37068 0.04708 0.53675 0.0
C1155 C 0.34173 0.0575 0.51024 0.0
C1156 C 0.3307 0.05423 0.48966 0.0
C1157 C 0.35919 0.04376 0.5165 0.0
C1158 C 0.33703 0.03675 0.4757 0.0
C1159 C 0.35416 0.023 0.48187 0.0
H1160 H 0.64394 0.46235 0.53677 0.0
H1161 H 0.60008 0.4319 0.48739 0.0
H1162 H 0.6275 0.40415 0.47942 0.0
H1163 H 0.66406 0.38864 0.48604 0.0
H1164 H 0.70819 0.41887 0.53532 0.0
H1165 H 0.68049 0.44631 0.54389 0.0
C1166 C 0.6403 0.44953 0.52441 0.0
C1167 C 0.61996 0.44937 0.51263 0.0
C1168 C 0.65621 0.43351 0.51988 0.0
C1169 C 0.61569 0.43271 0.49649 0.0
C1170 C 0.63133 0.41671 0.49199 0.0
C1171 C 0.66765 0.40116 0.49872 0.0
C1172 C 0.68826 0.40161 0.50999 0.0
C1173 C 0.65169 0.417 0.50349 0.0
C1174 C 0.69252 0.41806 0.52635 0.0
C1175 C 0.67667 0.43381 0.53127 0.0
H1176 H 0.70098 0.29481 0.38039 0.0
H1177 H 0.76384 0.3054 0.34985 0.0
H1178 H 0.77786 0.32535 0.38293 0.0
H1179 H 0.77308 0.33748 0.42138 0.0
H1180 H 0.70985 0.32892 0.45174 0.0
H1181 H 0.69494 0.3108 0.41783 0.0
C1182 C 0.71766 0.30171 0.38101 0.0
C1183 C 0.73146 0.29857 0.36286 0.0
C1184 C 0.72549 0.31348 0.4 0.0
C1185 C 0.75296 0.3077 0.36364 0.0
C1186 C 0.76099 0.31902 0.38256 0.0
C1187 C 0.75595 0.33188 0.42047 0.0
C1188 C 0.74263 0.33431 0.43907 0.0
C1189 C 0.74752 0.32169 0.40094 0.0
C1190 C 0.7204 0.32726 0.4376 0.0
C1191 C 0.71193 0.31677 0.41828 0.0
H1192 H 0.52843 0.05002 0.88652 0.0
H1193 H 0.54256 0.99693 0.93127 0.0
H1194 H 0.56669 0.98046 0.90429 0.0
H1195 H 0.58151 0.97942 0.86707 0.0
H1196 H 0.56982 0.03316 0.82274 0.0
H1197 H 0.54747 0.05147 0.85076 0.0
C1198 C 0.53712 0.03511 0.8906 0.0
C1199 C 0.53314 0.02446 0.91076 0.0
C1200 C 0.55138 0.02583 0.87508 0.0
C1201 C 0.54464 0.00512 0.91564 0.0
C1202 C 0.55861 0.99574 0.90028 0.0
C1203 C 0.57425 0.99528 0.86365 0.0
C1204 C 0.57697 0.00484 0.84286 0.0
C1205 C 0.56166 0.00564 0.87978 0.0
C1206 C 0.56787 0.02553 0.83868 0.0
C1207 C 0.55501 0.03589 0.85464 0.0
H1208 H 0.32369 0.21827 0.39795 0.0
H1209 H 0.28678 0.25119 0.44839 0.0
H1210 H 0.28014 0.21584 0.46661 0.0
H1211 H 0.28317 0.17518 0.46687 0.0
H1212 H 0.3184 0.14258 0.41482 0.0
H1213 H 0.32751 0.17815 0.39868 0.0
C1214 C 0.31453 0.21774 0.41315 0.0
C1215 C 0.30586 0.23726 0.42192 0.0
C1216 C 0.31035 0.19737 0.42315 0.0
C1217 C 0.2936 0.23632 0.44135 0.0
C1218 C 0.28979 0.21613 0.45174 0.0
C1219 C 0.293 0.17592 0.45212 0.0
C1220 C 0.30002 0.15625 0.44203 0.0
C1221 C 0.29782 0.19649 0.4426 0.0
C1222 C 0.31263 0.15745 0.42282 0.0
C1223 C 0.3179 0.17779 0.41358 0.0
H1224 H 0.44671 0.46518 0.87092 0.0
H1225 H 0.49414 0.50386 0.83497 0.0
H1226 H 0.46664 0.50921 0.80537 0.0
H1227 H 0.42818 0.50433 0.79055 0.0
H1228 H 0.38096 0.46748 0.82867 0.0
H1229 H 0.40916 0.46042 0.85662 0.0
C1230 C 0.45105 0.47503 0.85677 0.0
C1231 C 0.47245 0.48427 0.85538 0.0
C1232 C 0.43508 0.4785 0.84017 0.0
C1233 C 0.47785 0.4964 0.83649 0.0
C1234 C 0.46207 0.49961 0.8196 0.0
C1235 C 0.42416 0.49469 0.80494 0.0
C1236 C 0.40243 0.4866 0.80754 0.0
C1237 C 0.44051 0.49093 0.82136 0.0
C1238 C 0.39746 0.47415 0.82632 0.0
C1239 C 0.4136 0.47001 0.84234 0.0
H1240 H 0.73741 0.66674 0.12254 0.0
H1241 H 0.7759 0.72175 0.09845 0.0
H1242 H 0.78488 0.70026 0.06545 0.0
H1243 H 0.78129 0.66608 0.04304 0.0
H1244 H 0.74276 0.61101 0.06709 0.0
H1245 H 0.73428 0.6323 0.10034 0.0
C1246 C 0.74766 0.67406 0.11 0.0
C1247 C 0.75596 0.69584 0.113 0.0
C1248 C 0.75277 0.66159 0.09102 0.0
C1249 C 0.76949 0.70495 0.09671 0.0
C1250 C 0.77455 0.6927 0.07777 0.0
C1251 C 0.77109 0.65869 0.05557 0.0
C1252 C 0.76267 0.63696 0.05248 0.0
C1253 C 0.76625 0.67103 0.07471 0.0
C1254 C 0.74951 0.62768 0.06897 0.0
C1255 C 0.7446 0.63986 0.08802 0.0
H1256 H 0.96238 0.04037 0.13388 0.0
H1257 H 0.93025 0.99481 0.08722 0.0
H1258 H 0.90218 0.98597 0.11422 0.0
H1259 H 0.88678 0.9909 0.15114 0.0
H1260 H 0.91893 0.03619 0.1981 0.0
H1261 H 0.94675 0.04549 0.17092 0.0
C1262 C 0.94913 0.02865 0.12956 0.0
C1263 C 0.94852 0.01824 0.10852 0.0
C1264 C 0.933 0.02356 0.14525 0.0
C1265 C 0.93134 0.00287 0.10335 0.0
C1266 C 0.91519 0.99787 0.11876 0.0
C1267 C 0.89983 0.00285 0.15546 0.0
C1268 C 0.90067 0.01281 0.1767 0.0
C1269 C 0.91589 0.00804 0.13979 0.0
C1270 C 0.91781 0.02821 0.18193 0.0
C1271 C 0.93376 0.03357 0.16637 0.0
H1272 H 0.264 0.77153 0.11571 0.0
H1273 H 0.23415 0.82364 0.1533 0.0
H1274 H 0.23239 0.84651 0.12023 0.0
H1275 H 0.24077 0.85216 0.08058 0.0
H1276 H 0.27208 0.79994 0.04428 0.0
H1277 H 0.27143 0.77662 0.07664 0.0
C1278 C 0.25679 0.78776 0.11663 0.0
C1279 C 0.24914 0.79579 0.13694 0.0
C1280 C 0.25609 0.80086 0.09768 0.0
C1281 C 0.2403 0.81709 0.13789 0.0
C1282 C 0.23922 0.83015 0.11896 0.0
C1283 C 0.24719 0.83559 0.07977 0.0
C1284 C 0.2565 0.82785 0.06004 0.0
C1285 C 0.24725 0.82229 0.09875 0.0
C1286 C 0.26497 0.8064 0.05928 0.0
C1287 C 0.26461 0.793 0.07779 0.0
H1288 H 0.04978 0.49664 0.14149 0.0
H1289 H 0.06281 0.42721 0.13377 0.0
H1290 H 0.08284 0.42764 0.1693 0.0
H1291 H 0.09366 0.44692 0.20391 0.0
H1292 H 0.08193 0.51661 0.21162 0.0
H1293 H 0.06462 0.51707 0.1746 0.0
C1294 C 0.05725 0.48172 0.14755 0.0
C1295 C 0.05474 0.46188 0.13521 0.0
C1296 C 0.06886 0.48213 0.16795 0.0
C1297 C 0.06465 0.44267 0.143 0.0
C1298 C 0.07598 0.44288 0.16334 0.0
C1299 C 0.08755 0.46226 0.19736 0.0
C1300 C 0.08878 0.48163 0.2105 0.0
C1301 C 0.07776 0.46239 0.17614 0.0
C1302 C 0.08114 0.50149 0.20175 0.0
C1303 C 0.07113 0.50172 0.18067 0.0
H1304 H 0.37482 0.71458 0.30779 0.0
H1305 H 0.38222 0.76959 0.26373 0.0
H1306 H 0.41938 0.77697 0.27827 0.0
H1307 H 0.44941 0.76865 0.30364 0.0
H1308 H 0.44367 0.71366 0.34783 0.0
H1309 H 0.40638 0.70518 0.33278 0.0
C1310 C 0.38465 0.72806 0.30128 0.0
C1311 C 0.37549 0.74174 0.2849 0.0
C1312 C 0.4063 0.7322 0.30967 0.0
C1313 C 0.38852 0.75914 0.27669 0.0
C1314 C 0.40989 0.76329 0.28487 0.0
C1315 C 0.44011 0.75475 0.31008 0.0
C1316 C 0.44933 0.74193 0.32701 0.0
C1317 C 0.41884 0.75009 0.30146 0.0
C1318 C 0.437 0.72384 0.33484 0.0
C1319 C 0.41565 0.71904 0.32626 0.0
H1320 H 0.01746 0.36966 0.95001 0.0
H1321 H 0.97164 0.3268 0.98331 0.0
H1322 H 0.97529 0.29855 0.95421 0.0
H1323 H 0.98995 0.28702 0.91792 0.0
H1324 H 0.03456 0.33113 0.88455 0.0
H1325 H 0.03344 0.35758 0.91532 0.0
C1326 C 0.00857 0.35399 0.95116 0.0
C1327 C 0.99432 0.35037 0.96884 0.0
C1328 C 0.0106 0.33798 0.93433 0.0
C1329 C 0.98256 0.33011 0.96976 0.0
C1330 C 0.98472 0.31391 0.95318 0.0
C1331 C -0.00028 0.30224 0.91765 0.0
C1332 C 0.01233 0.30712 0.89902 0.0
C1333 C 0.99848 0.31777 0.9352 0.0
C1334 C 0.02467 0.32705 0.89869 0.0
C1335 C 0.02399 0.34222 0.91624 0.0
H1336 H 0.618 0.75102 0.2561 0.0
H1337 H 0.65902 0.72978 0.31056 0.0
H1338 H 0.62692 0.72901 0.33455 0.0
H1339 H 0.58718 0.7366 0.3405 0.0
H1340 H 0.54751 0.75919 0.28561 0.0
H1341 H 0.57884 0.7566 0.26129 0.0
C1342 C 0.61992 0.74577 0.27309 0.0
C1343 C 0.64093 0.74041 0.28144 0.0
C1344 C 0.60151 0.74558 0.28677 0.0
C1345 C 0.64308 0.73418 0.30371 0.0
C1346 C 0.6247 0.73365 0.31742 0.0
C1347 C 0.58541 0.74055 0.32313 0.0
C1348 C 0.56507 0.74808 0.31485 0.0
C1349 C 0.60382 0.73961 0.30922 0.0
C1350 C 0.56303 0.75345 0.29238 0.0
C1351 C 0.58095 0.75202 0.27845 0.0
H1352 H 0.0503 0.12757 0.93652 0.0
H1353 H 0.98491 0.13836 0.96063 0.0
H1354 H 0.98043 0.16909 0.93525 0.0
H1355 H 0.99536 0.19339 0.90643 0.0
H1356 H 0.06126 0.18296 0.88331 0.0
H1357 H 0.0651 0.1516 0.90778 0.0
C1358 C 0.03499 0.13651 0.93608 0.0
C1359 C 0.01797 0.13061 0.95048 0.0
C1360 C 0.03258 0.15429 0.92155 0.0
C1361 C 0.99837 0.14265 0.94991 0.0
C1362 C 0.99575 0.16018 0.93531 0.0
C1363 C 0.0105 0.18417 0.90664 0.0
C1364 C 0.02797 0.19058 0.89297 0.0
C1365 C 0.01278 0.16623 0.92109 0.0
C1366 C 0.04754 0.17851 0.89365 0.0
C1367 C 0.04978 0.16051 0.90766 0.0
H1368 H 0.40449 0.31782 0.25935 0.0
H1369 H 0.34296 0.29267 0.23032 0.0
H1370 H 0.36071 0.2868 0.19513 0.0
H1371 H 0.39312 0.28982 0.17216 0.0
H1372 H 0.45546 0.31264 0.20086 0.0
H1373 H 0.43806 0.31797 0.23677 0.0
C1374 C 0.39503 0.31075 0.24543 0.0
C1375 C 0.37226 0.30614 0.24747 0.0
C1376 C 0.40546 0.30701 0.22518 0.0
C1377 C 0.36032 0.29703 0.22915 0.0
C1378 C 0.37049 0.29348 0.20901 0.0
C1379 C 0.40293 0.29596 0.18627 0.0
C1380 C 0.42546 0.30112 0.18382 0.0
C1381 C 0.39293 0.29871 0.20676 0.0
C1382 C 0.43806 0.30863 0.20235 0.0
C1383 C 0.4281 0.31172 0.22284 0.0
H1384 H 0.4906 0.41166 0.04431 0.0
H1385 H 0.54626 0.37219 0.02651 0.0
H1386 H 0.53523 0.34433 0.05294 0.0
H1387 H 0.50822 0.3297 0.07927 0.0
H1388 H 0.45035 0.3672 0.09332 0.0
H1389 H 0.46356 0.39702 0.06992 0.0
C1390 C 0.50025 0.39689 0.04591 0.0
C1391 C 0.51925 0.3942 0.03321 0.0
C1392 C 0.49332 0.38042 0.06047 0.0
C1393 C 0.53177 0.37508 0.0362 0.0
C1394 C 0.52535 0.35895 0.05121 0.0
C1395 C 0.4987 0.34454 0.07737 0.0
C1396 C 0.47842 0.34635 0.08802 0.0
C1397 C 0.506 0.36129 0.06322 0.0
C1398 C 0.466 0.36547 0.08521 0.0
C1399 C 0.47354 0.3825 0.07184 0.0
H1400 H 0.60033 0.27501 0.21245 0.0
H1401 H 0.62013 0.21964 0.17226 0.0
H1402 H 0.58775 0.22379 0.14804 0.0
H1403 H 0.55333 0.24257 0.13874 0.0
H1404 H 0.5333 0.29774 0.17918 0.0
H1405 H 0.5663 0.29437 0.20262 0.0
C1406 C 0.59768 0.26403 0.19824 0.0
C1407 C 0.6126 0.247 0.19423 0.0
C1408 C 0.57894 0.26643 0.18442 0.0
C1409 C 0.60876 0.23271 0.17589 0.0
C1410 C 0.59029 0.23512 0.16198 0.0
C1411 C 0.5562 0.25393 0.15262 0.0
C1412 C 0.54078 0.27035 0.15716 0.0
C1413 C 0.57517 0.25181 0.16617 0.0
C1414 C 0.54482 0.28489 0.17528 0.0
C1415 C 0.56372 0.28299 0.18872 0.0
H1416 H 0.42962 0.16167 0.05823 0.0
H1417 H 0.50015 0.16161 0.05071 0.0
H1418 H 0.50384 0.19662 0.07163 0.0
H1419 H 0.48658 0.22817 0.09067 0.0
H1420 H 0.41567 0.22889 0.09548 0.0
H1421 H 0.41254 0.1927 0.07726 0.0
C1422 C 0.4458 0.16922 0.06143 0.0
C1423 C 0.46458 0.15911 0.05311 0.0
C1424 C 0.4477 0.18952 0.07293 0.0
C1425 C 0.48545 0.1692 0.05697 0.0
C1426 C 0.48756 0.18917 0.06892 0.0
C1427 C 0.47051 0.22026 0.08788 0.0
C1428 C 0.4514 0.23117 0.09438 0.0
C1429 C 0.46875 0.19962 0.07679 0.0
C1430 C 0.43062 0.22088 0.09048 0.0
C1431 C 0.4288 0.20017 0.08009 0.0
H1432 H 0.28941 0.3777 0.69196 0.0
H1433 H 0.30113 0.34879 0.75573 0.0
H1434 H 0.32039 0.38257 0.76881 0.0
H1435 H 0.33193 0.42088 0.76291 0.0
H1436 H 0.32262 0.45001 0.69896 0.0
H1437 H 0.30468 0.41552 0.68487 0.0
C1438 C 0.29637 0.37887 0.70863 0.0
C1439 C 0.2938 0.36096 0.72299 0.0
C1440 C 0.30783 0.39829 0.71591 0.0
C1441 C 0.30299 0.36242 0.74447 0.0
C1442 C 0.31394 0.38171 0.75194 0.0
C1443 C 0.32618 0.41957 0.74579 0.0
C1444 C 0.32834 0.43789 0.732 0.0
C1445 C 0.31619 0.3998 0.73792 0.0
C1446 C 0.32114 0.43602 0.70981 0.0
C1447 C 0.31077 0.41638 0.70186 0.0
H1448 H 0.2999 0.63279 0.74733 0.0
H1449 H 0.24621 0.60599 0.78501 0.0
H1450 H 0.26313 0.56984 0.78472 0.0
H1451 H 0.29317 0.546 0.77454 0.0
H1452 H 0.34716 0.57166 0.73656 0.0
H1453 H 0.33007 0.60805 0.73606 0.0
C1454 C 0.29199 0.61901 0.7555 0.0
C1455 C 0.27177 0.62209 0.76614 0.0
C1456 C 0.30181 0.59809 0.75518 0.0
C1457 C 0.26161 0.60403 0.77649 0.0
C1458 C 0.27132 0.58336 0.77642 0.0
C1459 C 0.30128 0.55949 0.76608 0.0
C1460 C 0.32153 0.55608 0.75571 0.0
C1461 C 0.29139 0.58022 0.76587 0.0
C1462 C 0.33157 0.57378 0.74466 0.0
C1463 C 0.32183 0.59462 0.74445 0.0
H1464 H 0.87744 0.45565 0.51133 0.0
H1465 H 0.83139 0.496 0.47577 0.0
H1466 H 0.80268 0.46708 0.47858 0.0
H1467 H 0.79133 0.42926 0.48952 0.0
H1468 H 0.83864 0.3886 0.52305 0.0
H1469 H 0.86599 0.41876 0.52307 0.0
C1470 C 0.86102 0.45826 0.50449 0.0
C1471 C 0.85654 0.47795 0.49342 0.0
C1472 C 0.84479 0.44145 0.50583 0.0
C1473 C 0.83529 0.48091 0.48425 0.0
C1474 C 0.81886 0.46441 0.48592 0.0
C1475 C 0.80752 0.4272 0.49711 0.0
C1476 C 0.81296 0.40677 0.5063 0.0
C1477 C 0.82349 0.44447 0.49645 0.0
C1478 C 0.8341 0.40416 0.5158 0.0
C1479 C 0.84977 0.42138 0.5158 0.0
H1480 H 0.72286 0.89332 0.83951 0.0
H1481 H 0.75744 0.92637 0.78747 0.0
H1482 H 0.72486 0.94839 0.77951 0.0
H1483 H 0.68536 0.9562 0.78567 0.0
H1484 H 0.65089 0.92041 0.83607 0.0
H1485 H 0.68446 0.90131 0.84605 0.0
C1486 C 0.72328 0.90521 0.82629 0.0
C1487 C 0.74249 0.90793 0.81393 0.0
C1488 C 0.70439 0.91724 0.82138 0.0
C1489 C 0.74291 0.92396 0.79733 0.0
C1490 C 0.72422 0.93644 0.79265 0.0
C1491 C 0.68533 0.94435 0.79894 0.0
C1492 C 0.66564 0.93961 0.81 0.0
C1493 C 0.7047 0.93295 0.80433 0.0
C1494 C 0.66576 0.92417 0.82712 0.0
C1495 C 0.68496 0.91326 0.83289 0.0
H1496 H 0.65559 0.53565 0.9854 0.0
H1497 H 0.65032 0.53765 0.91404 0.0
H1498 H 0.68524 0.55803 0.91291 0.0
H1499 H 0.7177 0.57457 0.93183 0.0
H1500 H 0.7222 0.57555 0.00311 0.0
H1501 H 0.68679 0.55525 0.00463 0.0
C1502 C 0.66184 0.54081 0.9696 0.0
C1503 C 0.65038 0.53462 0.94981 0.0
C1504 C 0.68178 0.55314 0.96904 0.0
C1505 C 0.65899 0.54145 0.92953 0.0
C1506 C 0.67891 0.55334 0.92884 0.0
C1507 C 0.71091 0.57038 0.94772 0.0
C1508 C 0.72262 0.57629 0.96732 0.0
C1509 C 0.69054 0.55904 0.94844 0.0
C1510 C 0.71346 0.57113 0.98779 0.0
C1511 C 0.69328 0.55947 0.98865 0.0
H1512 H 0.20725 0.6151 0.24518 0.0
H1513 H 0.16901 0.66291 0.28056 0.0
H1514 H 0.14249 0.63388 0.29028 0.0
H1515 H 0.13023 0.59472 0.28899 0.0
H1516 H 0.16928 0.54705 0.25426 0.0
H1517 H 0.19548 0.57614 0.24442 0.0
C1518 C 0.19327 0.61918 0.25524 0.0
C1519 C 0.19021 0.64123 0.2621 0.0
C1520 C 0.17818 0.60238 0.26097 0.0
C1521 C 0.17169 0.64617 0.27477 0.0
C1522 C 0.15656 0.62953 0.28048 0.0
C1523 C 0.14448 0.59069 0.27929 0.0
C1524 C 0.1477 0.56866 0.27241 0.0
C1525 C 0.15962 0.60756 0.27366 0.0
C1526 C 0.16631 0.5638 0.25984 0.0
C1527 C 0.18135 0.58045 0.25416 0.0
H1528 H 0.90606 0.53178 0.98991 0.0
H1529 H 0.87339 0.51257 0.0496 0.0
H1530 H 0.84385 0.53821 0.04164 0.0
H1531 H 0.82591 0.56443 0.01637 0.0
H1532 H 0.85702 0.58035 0.95502 0.0
H1533 H 0.88836 0.55753 0.96485 0.0
C1534 C 0.89239 0.53294 0.0011 0.0
C1535 C 0.89204 0.52007 0.02028 0.0
C1536 C 0.87508 0.54718 0.9961 0.0
C1537 C 0.87437 0.52239 0.03483 0.0
C1538 C 0.85733 0.53697 0.03023 0.0
C1539 C 0.83973 0.56309 0.00537 0.0
C1540 C 0.83926 0.57407 0.98507 0.0
C1541 C 0.85737 0.54928 0.01078 0.0
C1542 C 0.85705 0.57199 0.97073 0.0
C1543 C 0.87494 0.55892 0.97632 0.0
H1544 H 0.1087 0.94569 0.99759 0.0
H1545 H 0.14565 0.98699 0.04467 0.0
H1546 H 0.17663 0.96185 0.04309 0.0
H1547 H 0.19352 0.92828 0.02794 0.0
H1548 H 0.15626 0.88699 0.98097 0.0
H1549 H 0.12532 0.91196 0.98286 0.0
C1550 C 0.1236 0.94929 0.00738 0.0
C1551 C 0.12481 0.96827 0.02118 0.0
C1552 C 0.14135 0.93471 0.00644 0.0
C1553 C 0.14414 0.97243 0.03404 0.0
C1554 C 0.16193 0.95809 0.03308 0.0
C1555 C 0.17861 0.92469 0.01816 0.0
C1556 C 0.17734 0.90572 0.00431 0.0
C1557 C 0.16074 0.93917 0.01933 0.0
C1558 C 0.15781 0.9014 0.9918 0.0
C1559 C 0.14005 0.91572 0.99283 0.0
loop_
_geom_bond_atom_site_label_1
_geom_bond_atom_site_label_2
_geom_bond_distance
_geom_bond_site_symmetry_2
_ccdc_geom_bond_type
C0 C1 1.386 . S
C0 C2 1.397 . S
C0 H24 0.931 . S
C1 C0 1.386 . S
C1 C5 1.397 1_556 S
C2 C0 1.397 . S
C2 C3 1.384 1_556 S
C2 H25 0.930 . S
C3 C2 1.384 1_554 S
C3 C4 1.377 . S
C3 C6 1.481 . S
C4 C3 1.377 . S
C4 C5 1.389 . S
C4 H26 0.929 . S
C5 C1 1.397 1_554 S
C5 C4 1.389 . S
C5 H27 0.931 . S
C6 C3 1.481 . S
C6 C7 1.387 . S
C6 C11 1.390 . S
C7 C6 1.387 . S
C7 C8 1.401 . S
C7 H28 0.930 . S
C8 C7 1.401 . S
C8 C9 1.376 . S
C8 C17 1.511 . S
C9 C8 1.376 . S
C9 C10 1.392 . S
C9 H30 0.931 . S
C10 C9 1.392 . S
C10 C11 1.361 . S
C10 C12 1.500 . S
C11 C6 1.390 . S
C11 C10 1.361 . S
C11 H29 0.931 . S
C12 C10 1.500 . S
C12 C13 1.371 . S
C12 C14 1.365 . S
C13 C12 1.371 . S
C13 C23 1.386 1_455 S
C13 H31 0.931 . S
C14 C12 1.365 . S
C14 C15 1.409 1_455 S
C14 H32 0.929 . S
C15 C14 1.409 1_655 S
C15 C16 1.380 . S
C15 H33 0.930 . S
C16 C15 1.380 . S
C16 C23 1.357 . S
C17 C8 1.511 . S
C17 C18 1.341 . S
C17 C19 1.371 1_545 S
C18 C17 1.341 . S
C18 C22 1.394 1_545 S
C18 H34 0.930 . S
C19 C17 1.371 1_565 S
C19 C20 1.392 . S
C19 H35 0.931 . S
C20 C19 1.392 . S
C20 C21 1.331 . S
C20 H38 0.932 . S
C21 C20 1.331 . S
C21 C22 1.336 . S
C22 C18 1.394 1_565 S
C22 C21 1.336 . S
C22 H37 0.929 1_554 S
C23 C13 1.386 1_655 S
C23 C16 1.357 . S
C23 H36 0.928 1_545 S
H24 C0 0.931 . S
H25 C2 0.930 . S
H26 C4 0.929 . S
H27 C5 0.931 . S
H28 C7 0.930 . S
H29 C11 0.931 . S
H30 C9 0.931 . S
H31 C13 0.931 . S
H32 C14 0.929 . S
H33 C15 0.930 . S
H34 C18 0.930 . S
H35 C19 0.931 . S
H36 C23 0.928 1_565 S
H37 C22 0.929 1_556 S
H38 C20 0.932 . S
C39 C40 1.386 . S
C39 C41 1.397 . S
C39 H63 0.931 . S
C40 C39 1.386 . S
C40 C44 1.397 . S
C41 C39 1.397 . S
C41 C42 1.384 . S
C41 H64 0.930 . S
C42 C41 1.384 . S
C42 C43 1.377 . S
C42 C45 1.481 . S
C43 C42 1.377 . S
C43 C44 1.389 . S
C43 H65 0.929 . S
C44 C40 1.397 . S
C44 C43 1.389 . S
C44 H66 0.931 . S
C45 C42 1.481 . S
C45 C46 1.387 . S
C45 C50 1.390 . S
C46 C45 1.387 . S
C46 C47 1.401 . S
C46 H67 0.930 . S
C47 C46 1.401 . S
C47 C48 1.376 . S
C47 C56 1.511 . S
C48 C47 1.376 . S
C48 C49 1.392 . S
C48 H69 0.931 . S
C49 C48 1.392 . S
C49 C50 1.361 . S
C49 C51 1.500 . S
C50 C45 1.390 . S
C50 C49 1.361 . S
C50 H68 0.931 . S
C51 C49 1.500 . S
C51 C52 1.371 . S
C51 C53 1.365 . S
C52 C51 1.371 . S
C52 C62 1.386 . S
C52 H70 0.931 . S
C53 C51 1.365 . S
C53 C54 1.409 . S
C53 H71 0.929 . S
C54 C53 1.409 . S
C54 C55 1.380 . S
C54 H72 0.930 . S
C55 C54 1.380 . S
C55 C62 1.357 . S
C56 C47 1.511 . S
C56 C57 1.341 . S
C56 C58 1.371 . S
C57 C56 1.341 . S
C57 C61 1.394 . S
C57 H73 0.930 . S
C58 C56 1.371 . S
C58 C59 1.392 . S
C58 H74 0.931 . S
C59 C58 1.392 . S
C59 C60 1.331 . S
C59 H77 0.932 . S
C60 C59 1.331 . S
C60 C61 1.336 . S
C61 C57 1.394 . S
C61 C60 1.336 . S
C61 H76 0.929 . S
C62 C52 1.386 . S
C62 C55 1.357 . S
C62 H75 0.928 . S
H63 C39 0.931 . S
H64 C41 0.930 . S
H65 C43 0.929 . S
H66 C44 0.931 . S
H67 C46 0.930 . S
H68 C50 0.931 . S
H69 C48 0.931 . S
H70 C52 0.931 . S
H71 C53 0.929 . S
H72 C54 0.930 . S
H73 C57 0.930 . S
H74 C58 0.931 . S
H75 C62 0.928 . S
H76 C61 0.929 . S
H77 C59 0.932 . S
C78 C79 1.386 1_655 S
C78 C80 1.397 . S
C78 H102 0.931 . S
C79 C78 1.386 1_455 S
C79 C83 1.397 . S
C80 C78 1.397 . S
C80 C81 1.384 . S
C80 H103 0.930 . S
C81 C80 1.384 . S
C81 C82 1.377 1_655 S
C81 C84 1.481 . S
C82 C81 1.377 1_455 S
C82 C83 1.389 . S
C82 H104 0.929 . S
C83 C79 1.397 . S
C83 C82 1.389 . S
C83 H105 0.931 . S
C84 C81 1.481 . S
C84 C85 1.387 . S
C84 C89 1.390 . S
C85 C84 1.387 . S
C85 C86 1.401 . S
C85 H106 0.930 . S
C86 C85 1.401 . S
C86 C87 1.376 . S
C86 C95 1.511 . S
C87 C86 1.376 . S
C87 C88 1.392 . S
C87 H108 0.931 . S
C88 C87 1.392 . S
C88 C89 1.361 . S
C88 C90 1.500 . S
C89 C84 1.390 . S
C89 C88 1.361 . S
C89 H107 0.931 . S
C90 C88 1.500 . S
C90 C91 1.371 . S
C90 C92 1.365 . S
C91 C90 1.371 . S
C91 C101 1.401 . S
C91 H109 0.931 . S
C92 C90 1.365 . S
C92 C93 1.409 . S
C92 H110 0.929 . S
C93 C92 1.409 . S
C93 C94 1.380 1_554 S
C93 H111 0.930 . S
C94 C93 1.380 1_556 S
C94 C101 1.353 1_556 S
C95 C86 1.511 . S
C95 C96 1.341 . S
C95 C97 1.371 . S
C96 C95 1.341 . S
C96 C100 1.394 . S
C96 H112 0.930 . S
C97 C95 1.371 . S
C97 C98 1.392 . S
C97 H113 0.931 . S
C98 C97 1.392 . S
C98 C99 1.331 . S
C98 H116 0.932 . S
C99 C98 1.331 . S
C99 C100 1.336 . S
C100 C96 1.394 . S
C100 C99 1.336 . S
C100 H115 0.929 . S
C101 C91 1.401 . S
C101 C94 1.353 1_554 S
C101 H114 0.918 1_554 S
H102 C78 0.931 . S
H103 C80 0.930 . S
H104 C82 0.929 . S
H105 C83 0.931 . S
H106 C85 0.930 . S
H107 C89 0.931 . S
H108 C87 0.931 . S
H109 C91 0.931 . S
H110 C92 0.929 . S
H111 C93 0.930 . S
H112 C96 0.930 . S
H113 C97 0.931 . S
H114 C101 0.918 1_556 S
H115 C100 0.929 . S
H116 C98 0.932 . S
C117 C118 1.386 . S
C117 C119 1.397 . S
C117 H141 0.931 . S
C118 C117 1.386 . S
C118 C122 1.397 . S
C119 C117 1.397 . S
C119 C120 1.384 . S
C119 H142 0.930 . S
C120 C119 1.384 . S
C120 C121 1.377 . S
C120 C123 1.481 . S
C121 C120 1.377 . S
C121 C122 1.389 . S
C121 H143 0.929 . S
C122 C118 1.397 . S
C122 C121 1.389 . S
C122 H144 0.931 . S
C123 C120 1.481 . S
C123 C124 1.387 . S
C123 C128 1.390 . S
C124 C123 1.387 . S
C124 C125 1.401 . S
C124 H145 0.930 . S
C125 C124 1.401 . S
C125 C126 1.376 . S
C125 C134 1.511 . S
C126 C125 1.376 . S
C126 C127 1.392 . S
C126 H147 0.931 . S
C127 C126 1.392 . S
C127 C128 1.361 . S
C127 C129 1.500 . S
C128 C123 1.390 . S
C128 C127 1.361 . S
C128 H146 0.931 . S
C129 C127 1.500 . S
C129 C130 1.371 . S
C129 C131 1.365 . S
C130 C129 1.371 . S
C130 C140 1.386 . S
C130 H148 0.931 . S
C131 C129 1.365 . S
C131 C132 1.409 . S
C131 H149 0.929 . S
C132 C131 1.409 . S
C132 C133 1.380 . S
C132 H150 0.930 . S
C133 C132 1.380 . S
C133 C140 1.357 . S
C134 C125 1.511 . S
C134 C135 1.341 . S
C134 C136 1.371 . S
C135 C134 1.341 . S
C135 C139 1.394 . S
C135 H151 0.930 . S
C136 C134 1.371 . S
C136 C137 1.392 . S
C136 H152 0.931 . S
C137 C136 1.392 . S
C137 C138 1.331 . S
C137 H155 0.932 . S
C138 C137 1.331 . S
C138 C139 1.336 . S
C139 C135 1.394 . S
C139 C138 1.336 . S
C139 H154 0.929 . S
C140 C130 1.386 . S
C140 C133 1.357 . S
C140 H153 0.928 . S
H141 C117 0.931 . S
H142 C119 0.930 . S
H143 C121 0.929 . S
H144 C122 0.931 . S
H145 C124 0.930 . S
H146 C128 0.931 . S
H147 C126 0.931 . S
H148 C130 0.931 . S
H149 C131 0.929 . S
H150 C132 0.930 . S
H151 C135 0.930 . S
H152 C136 0.931 . S
H153 C140 0.928 . S
H154 C139 0.929 . S
H155 C137 0.932 . S
C156 C157 1.386 . S
C156 C158 1.397 1_655 S
C156 H180 0.931 . S
C157 C156 1.386 . S
C157 C161 1.397 1_655 S
C158 C156 1.397 1_455 S
C158 C159 1.384 . S
C158 H181 0.930 1_455 S
C159 C158 1.384 . S
C159 C160 1.377 . S
C159 C162 1.481 . S
C160 C159 1.377 . S
C160 C161 1.389 . S
C160 H182 0.929 . S
C161 C157 1.397 1_455 S
C161 C160 1.389 . S
C161 H183 0.931 . S
C162 C159 1.481 . S
C162 C163 1.387 . S
C162 C167 1.390 . S
C163 C162 1.387 . S
C163 C164 1.401 . S
C163 H184 0.930 . S
C164 C163 1.401 . S
C164 C165 1.376 . S
C164 C173 1.511 . S
C165 C164 1.376 . S
C165 C166 1.392 . S
C165 H186 0.931 . S
C166 C165 1.392 . S
C166 C167 1.361 . S
C166 C168 1.500 . S
C167 C162 1.390 . S
C167 C166 1.361 . S
C167 H185 0.931 . S
C168 C166 1.500 . S
C168 C169 1.371 . S
C168 C170 1.365 . S
C169 C168 1.371 . S
C169 C179 1.401 . S
C169 H187 0.931 . S
C170 C168 1.365 . S
C170 C171 1.409 1_565 S
C170 H188 0.929 . S
C171 C170 1.409 1_545 S
C171 C172 1.380 . S
C171 H189 0.930 . S
C172 C171 1.380 . S
C172 C179 1.346 1_545 S
C173 C164 1.511 . S
C173 C174 1.341 . S
C173 C175 1.371 . S
C174 C173 1.341 . S
C174 C178 1.394 . S
C174 H190 0.930 . S
C175 C173 1.371 . S
C175 C176 1.392 . S
C175 H191 0.931 . S
C176 C175 1.392 . S
C176 C177 1.331 . S
C176 H194 0.932 . S
C177 C176 1.331 . S
C177 C178 1.336 . S
C178 C174 1.394 . S
C178 C177 1.336 . S
C178 H193 0.929 . S
C179 C169 1.401 . S
C179 C172 1.346 1_565 S
C179 H192 0.925 1_565 S
H180 C156 0.931 . S
H181 C158 0.930 1_655 S
H182 C160 0.929 . S
H183 C161 0.931 . S
H184 C163 0.930 . S
H185 C167 0.931 . S
H186 C165 0.931 . S
H187 C169 0.931 . S
H188 C170 0.929 . S
H189 C171 0.930 . S
H190 C174 0.930 . S
H191 C175 0.931 . S
H192 C179 0.925 1_545 S
H193 C178 0.929 . S
H194 C176 0.932 . S
C195 C196 1.386 . S
C195 C197 1.397 . S
C195 H219 0.931 . S
C196 C195 1.386 . S
C196 C200 1.397 . S
C197 C195 1.397 . S
C197 C198 1.384 . S
C197 H220 0.930 . S
C198 C197 1.384 . S
C198 C199 1.377 . S
C198 C201 1.481 . S
C199 C198 1.377 . S
C199 C200 1.389 . S
C199 H221 0.929 . S
C200 C196 1.397 . S
C200 C199 1.389 . S
C200 H222 0.931 . S
C201 C198 1.481 . S
C201 C202 1.387 . S
C201 C206 1.390 . S
C202 C201 1.387 . S
C202 C203 1.401 . S
C202 H223 0.930 . S
C203 C202 1.401 . S
C203 C204 1.376 . S
C203 C212 1.511 . S
C204 C203 1.376 . S
C204 C205 1.392 . S
C204 H225 0.931 . S
C205 C204 1.392 . S
C205 C206 1.361 . S
C205 C207 1.500 . S
C206 C201 1.390 . S
C206 C205 1.361 . S
C206 H224 0.931 . S
C207 C205 1.500 . S
C207 C208 1.371 . S
C207 C209 1.365 . S
C208 C207 1.371 . S
C208 C218 1.386 . S
C208 H226 0.931 . S
C209 C207 1.365 . S
C209 C210 1.409 . S
C209 H227 0.929 . S
C210 C209 1.409 . S
C210 C211 1.380 . S
C210 H228 0.930 . S
C211 C210 1.380 . S
C211 C218 1.357 . S
C212 C203 1.511 . S
C212 C213 1.341 . S
C212 C214 1.371 . S
C213 C212 1.341 . S
C213 C217 1.394 . S
C213 H229 0.930 . S
C214 C212 1.371 . S
C214 C215 1.392 . S
C214 H230 0.931 . S
C215 C214 1.392 . S
C215 C216 1.331 . S
C215 H233 0.932 . S
C216 C215 1.331 . S
C216 C217 1.336 . S
C217 C213 1.394 . S
C217 C216 1.336 . S
C217 H232 0.929 . S
C218 C208 1.386 . S
C218 C211 1.357 . S
C218 H231 0.928 . S
H219 C195 0.931 . S
H220 C197 0.930 . S
H221 C199 0.929 . S
H222 C200 0.931 . S
H223 C202 0.930 . S
H224 C206 0.931 . S
H225 C204 0.931 . S
H226 C208 0.931 . S
H227 C209 0.929 . S
H228 C210 0.930 . S
H229 C213 0.930 . S
H230 C214 0.931 . S
H231 C218 0.928 . S
H232 C217 0.929 . S
H233 C215 0.932 . S
C234 C235 1.386 . S
C234 C236 1.397 . S
C234 H258 0.931 . S
C235 C234 1.386 . S
C235 C239 1.397 . S
C236 C234 1.397 . S
C236 C237 1.384 . S
C236 H259 0.930 . S
C237 C236 1.384 . S
C237 C238 1.377 . S
C237 C240 1.481 . S
C238 C237 1.377 . S
C238 C239 1.389 . S
C238 H260 0.929 . S
C239 C235 1.397 . S
C239 C238 1.389 . S
C239 H261 0.931 . S
C240 C237 1.481 . S
C240 C241 1.387 . S
C240 C245 1.390 . S
C241 C240 1.387 . S
C241 C242 1.401 . S
C241 H262 0.930 . S
C242 C241 1.401 . S
C242 C243 1.376 . S
C242 C251 1.511 . S
C243 C242 1.376 . S
C243 C244 1.392 . S
C243 H264 0.931 . S
C244 C243 1.392 . S
C244 C245 1.361 . S
C244 C246 1.500 . S
C245 C240 1.390 . S
C245 C244 1.361 . S
C245 H263 0.931 . S
C246 C244 1.500 . S
C246 C247 1.371 . S
C246 C248 1.365 . S
C247 C246 1.371 . S
C247 C257 1.386 . S
C247 H265 0.931 . S
C248 C246 1.365 . S
C248 C249 1.409 . S
C248 H266 0.929 . S
C249 C248 1.409 . S
C249 C250 1.380 . S
C249 H267 0.930 . S
C250 C249 1.380 . S
C250 C257 1.357 . S
C251 C242 1.511 . S
C251 C252 1.336 1_655 S
C251 C253 1.371 . S
C252 C251 1.336 1_455 S
C252 C256 1.399 . S
C252 H268 0.930 1_455 S
C253 C251 1.371 . S
C253 C254 1.392 1_655 S
C253 H269 0.931 . S
C254 C253 1.392 1_455 S
C254 C255 1.331 . S
C254 H272 0.932 . S
C255 C254 1.331 . S
C255 C256 1.336 . S
C256 C252 1.399 . S
C256 C255 1.336 . S
C256 H271 0.929 . S
C257 C247 1.386 . S
C257 C250 1.357 . S
C257 H270 0.928 . S
H258 C234 0.931 . S
H259 C236 0.930 . S
H260 C238 0.929 . S
H261 C239 0.931 . S
H262 C241 0.930 . S
H263 C245 0.931 . S
H264 C243 0.931 . S
H265 C247 0.931 . S
H266 C248 0.929 . S
H267 C249 0.930 . S
H268 C252 0.930 1_655 S
H269 C253 0.931 . S
H270 C257 0.928 . S
H271 C256 0.929 . S
H272 C254 0.932 . S
C273 C274 1.386 . S
C273 C275 1.397 . S
C273 H297 0.931 . S
C274 C273 1.386 . S
C274 C278 1.397 . S
C275 C273 1.397 . S
C275 C276 1.384 . S
C275 H298 0.930 . S
C276 C275 1.384 . S
C276 C277 1.377 . S
C276 C279 1.481 . S
C277 C276 1.377 . S
C277 C278 1.389 . S
C277 H299 0.929 . S
C278 C274 1.397 . S
C278 C277 1.389 . S
C278 H300 0.931 . S
C279 C276 1.481 . S
C279 C280 1.387 . S
C279 C284 1.390 . S
C280 C279 1.387 . S
C280 C281 1.401 . S
C280 H301 0.930 . S
C281 C280 1.401 . S
C281 C282 1.376 . S
C281 C290 1.511 . S
C282 C281 1.376 . S
C282 C283 1.392 . S
C282 H303 0.931 . S
C283 C282 1.392 . S
C283 C284 1.361 . S
C283 C285 1.500 . S
C284 C279 1.390 . S
C284 C283 1.361 . S
C284 H302 0.931 . S
C285 C283 1.500 . S
C285 C286 1.371 . S
C285 C287 1.365 . S
C286 C285 1.371 . S
C286 C296 1.386 . S
C286 H304 0.931 . S
C287 C285 1.365 . S
C287 C288 1.409 . S
C287 H305 0.929 . S
C288 C287 1.409 . S
C288 C289 1.380 . S
C288 H306 0.930 . S
C289 C288 1.380 . S
C289 C296 1.357 . S
C290 C281 1.511 . S
C290 C291 1.341 . S
C290 C292 1.371 . S
C291 C290 1.341 . S
C291 C295 1.394 . S
C291 H307 0.930 . S
C292 C290 1.371 . S
C292 C293 1.392 . S
C292 H308 0.931 . S
C293 C292 1.392 . S
C293 C294 1.331 . S
C293 H311 0.932 . S
C294 C293 1.331 . S
C294 C295 1.336 . S
C295 C291 1.394 . S
C295 C294 1.336 . S
C295 H310 0.929 . S
C296 C286 1.386 . S
C296 C289 1.357 . S
C296 H309 0.928 . S
H297 C273 0.931 . S
H298 C275 0.930 . S
H299 C277 0.929 . S
H300 C278 0.931 . S
H301 C280 0.930 . S
H302 C284 0.931 . S
H303 C282 0.931 . S
H304 C286 0.931 . S
H305 C287 0.929 . S
H306 C288 0.930 . S
H307 C291 0.930 . S
H308 C292 0.931 . S
H309 C296 0.928 . S
H310 C295 0.929 . S
H311 C293 0.932 . S
C312 C313 1.386 . S
C312 C314 1.397 . S
C312 H336 0.931 . S
C313 C312 1.386 . S
C313 C317 1.397 . S
C314 C312 1.397 . S
C314 C315 1.384 . S
C314 H337 0.930 . S
C315 C314 1.384 . S
C315 C316 1.377 . S
C315 C318 1.481 . S
C316 C315 1.377 . S
C316 C317 1.389 . S
C316 H338 0.929 . S
C317 C313 1.397 . S
C317 C316 1.389 . S
C317 H339 0.931 . S
C318 C315 1.481 . S
C318 C319 1.387 . S
C318 C323 1.390 . S
C319 C318 1.387 . S
C319 C320 1.401 . S
C319 H340 0.930 . S
C320 C319 1.401 . S
C320 C321 1.376 . S
C320 C329 1.511 . S
C321 C320 1.376 . S
C321 C322 1.392 . S
C321 H342 0.931 . S
C322 C321 1.392 . S
C322 C323 1.361 . S
C322 C324 1.500 . S
C323 C318 1.390 . S
C323 C322 1.361 . S
C323 H341 0.931 . S
C324 C322 1.500 . S
C324 C325 1.371 . S
C324 C326 1.365 . S
C325 C324 1.371 . S
C325 C335 1.386 . S
C325 H343 0.931 . S
C326 C324 1.365 . S
C326 C327 1.409 . S
C326 H344 0.929 . S
C327 C326 1.409 . S
C327 C328 1.380 . S
C327 H345 0.930 . S
C328 C327 1.380 . S
C328 C335 1.357 . S
C329 C320 1.511 . S
C329 C330 1.341 . S
C329 C331 1.371 . S
C330 C329 1.341 . S
C330 C334 1.394 . S
C330 H346 0.930 . S
C331 C329 1.371 . S
C331 C332 1.392 . S
C331 H347 0.931 . S
C332 C331 1.392 . S
C332 C333 1.331 . S
C332 H350 0.932 . S
C333 C332 1.331 . S
C333 C334 1.336 . S
C334 C330 1.394 . S
C334 C333 1.336 . S
C334 H349 0.929 . S
C335 C325 1.386 . S
C335 C328 1.357 . S
C335 H348 0.928 . S
H336 C312 0.931 . S
H337 C314 0.930 . S
H338 C316 0.929 . S
H339 C317 0.931 . S
H340 C319 0.930 . S
H341 C323 0.931 . S
H342 C321 0.931 . S
H343 C325 0.931 . S
H344 C326 0.929 . S
H345 C327 0.930 . S
H346 C330 0.930 . S
H347 C331 0.931 . S
H348 C335 0.928 . S
H349 C334 0.929 . S
H350 C332 0.932 . S
C351 C352 1.386 . S
C351 C353 1.397 . S
C351 H375 0.931 . S
C352 C351 1.386 . S
C352 C356 1.397 . S
C353 C351 1.397 . S
C353 C354 1.384 . S
C353 H376 0.930 . S
C354 C353 1.384 . S
C354 C355 1.377 . S
C354 C357 1.481 . S
C355 C354 1.377 . S
C355 C356 1.389 . S
C355 H377 0.929 . S
C356 C352 1.397 . S
C356 C355 1.389 . S
C356 H378 0.931 . S
C357 C354 1.481 . S
C357 C358 1.387 . S
C357 C362 1.390 . S
C358 C357 1.387 . S
C358 C359 1.401 . S
C358 H379 0.930 . S
C359 C358 1.401 . S
C359 C360 1.376 . S
C359 C368 1.511 . S
C360 C359 1.376 . S
C360 C361 1.392 . S
C360 H381 0.931 . S
C361 C360 1.392 . S
C361 C362 1.361 . S
C361 C363 1.500 . S
C362 C357 1.390 . S
C362 C361 1.361 . S
C362 H380 0.931 . S
C363 C361 1.500 . S
C363 C364 1.371 . S
C363 C365 1.365 . S
C364 C363 1.371 . S
C364 C374 1.386 . S
C364 H382 0.931 . S
C365 C363 1.365 . S
C365 C366 1.409 . S
C365 H383 0.929 . S
C366 C365 1.409 . S
C366 C367 1.380 . S
C366 H384 0.930 . S
C367 C366 1.380 . S
C367 C374 1.357 . S
C368 C359 1.511 . S
C368 C369 1.346 . S
C368 C370 1.371 . S
C369 C368 1.346 . S
C369 C373 1.388 1_565 S
C369 H385 0.929 . S
C370 C368 1.371 . S
C370 C371 1.392 1_565 S
C370 H386 0.931 . S
C371 C370 1.392 1_545 S
C371 C372 1.331 . S
C371 H389 0.932 . S
C372 C371 1.331 . S
C372 C373 1.336 . S
C373 C369 1.388 1_545 S
C373 C372 1.336 . S
C373 H388 0.929 . S
C374 C364 1.386 . S
C374 C367 1.357 . S
C374 H387 0.928 . S
H375 C351 0.931 . S
H376 C353 0.930 . S
H377 C355 0.929 . S
H378 C356 0.931 . S
H379 C358 0.930 . S
H380 C362 0.931 . S
H381 C360 0.931 . S
H382 C364 0.931 . S
H383 C365 0.929 . S
H384 C366 0.930 . S
H385 C369 0.929 . S
H386 C370 0.931 . S
H387 C374 0.928 . S
H388 C373 0.929 . S
H389 C371 0.932 . S
C390 C391 1.386 . S
C390 C392 1.397 . S
C390 H414 0.931 . S
C391 C390 1.386 . S
C391 C395 1.397 . S
C392 C390 1.397 . S
C392 C393 1.384 . S
C392 H415 0.930 . S
C393 C392 1.384 . S
C393 C394 1.377 . S
C393 C396 1.481 . S
C394 C393 1.377 . S
C394 C395 1.389 . S
C394 H416 0.929 . S
C395 C391 1.397 . S
C395 C394 1.389 . S
C395 H417 0.931 . S
C396 C393 1.481 . S
C396 C397 1.387 . S
C396 C401 1.390 . S
C397 C396 1.387 . S
C397 C398 1.401 . S
C397 H418 0.930 . S
C398 C397 1.401 . S
C398 C399 1.376 . S
C398 C407 1.511 . S
C399 C398 1.376 . S
C399 C400 1.392 . S
C399 H420 0.931 . S
C400 C399 1.392 . S
C400 C401 1.361 . S
C400 C402 1.500 . S
C401 C396 1.390 . S
C401 C400 1.361 . S
C401 H419 0.931 . S
C402 C400 1.500 . S
C402 C403 1.371 . S
C402 C404 1.365 . S
C403 C402 1.371 . S
C403 C413 1.386 . S
C403 H421 0.931 . S
C404 C402 1.365 . S
C404 C405 1.409 . S
C404 H422 0.929 . S
C405 C404 1.409 . S
C405 C406 1.380 . S
C405 H423 0.930 . S
C406 C405 1.380 . S
C406 C413 1.357 . S
C407 C398 1.511 . S
C407 C408 1.341 . S
C407 C409 1.371 . S
C408 C407 1.341 . S
C408 C412 1.394 . S
C408 H424 0.930 . S
C409 C407 1.371 . S
C409 C410 1.392 . S
C409 H425 0.931 . S
C410 C409 1.392 . S
C410 C411 1.331 . S
C410 H428 0.932 . S
C411 C410 1.331 . S
C411 C412 1.336 . S
C412 C408 1.394 . S
C412 C411 1.336 . S
C412 H427 0.929 . S
C413 C403 1.386 . S
C413 C406 1.357 . S
C413 H426 0.928 . S
H414 C390 0.931 . S
H415 C392 0.930 . S
H416 C394 0.929 . S
H417 C395 0.931 . S
H418 C397 0.930 . S
H419 C401 0.931 . S
H420 C399 0.931 . S
H421 C403 0.931 . S
H422 C404 0.929 . S
H423 C405 0.930 . S
H424 C408 0.930 . S
H425 C409 0.931 . S
H426 C413 0.928 . S
H427 C412 0.929 . S
H428 C410 0.932 . S
C429 C430 1.386 . S
C429 C431 1.397 . S
C429 H453 0.931 . S
C430 C429 1.386 . S
C430 C434 1.397 . S
C431 C429 1.397 . S
C431 C432 1.384 . S
C431 H454 0.930 . S
C432 C431 1.384 . S
C432 C433 1.377 . S
C432 C435 1.481 . S
C433 C432 1.377 . S
C433 C434 1.389 . S
C433 H455 0.929 . S
C434 C430 1.397 . S
C434 C433 1.389 . S
C434 H456 0.931 . S
C435 C432 1.481 . S
C435 C436 1.387 . S
C435 C440 1.390 . S
C436 C435 1.387 . S
C436 C437 1.401 . S
C436 H457 0.930 . S
C437 C436 1.401 . S
C437 C438 1.376 . S
C437 C446 1.511 . S
C438 C437 1.376 . S
C438 C439 1.392 . S
C438 H459 0.931 . S
C439 C438 1.392 . S
C439 C440 1.361 . S
C439 C441 1.500 . S
C440 C435 1.390 . S
C440 C439 1.361 . S
C440 H458 0.931 . S
C441 C439 1.500 . S
C441 C442 1.371 . S
C441 C443 1.365 . S
C442 C441 1.371 . S
C442 C452 1.386 . S
C442 H460 0.931 . S
C443 C441 1.365 . S
C443 C444 1.409 . S
C443 H461 0.929 . S
C444 C443 1.409 . S
C444 C445 1.380 . S
C444 H462 0.930 . S
C445 C444 1.380 . S
C445 C452 1.357 . S
C446 C437 1.511 . S
C446 C447 1.341 . S
C446 C448 1.371 . S
C447 C446 1.341 . S
C447 C451 1.394 . S
C447 H463 0.930 . S
C448 C446 1.371 . S
C448 C449 1.392 . S
C448 H464 0.931 . S
C449 C448 1.392 . S
C449 C450 1.331 . S
C449 H467 0.932 . S
C450 C449 1.331 . S
C450 C451 1.336 . S
C451 C447 1.394 . S
C451 C450 1.336 . S
C451 H466 0.929 . S
C452 C442 1.386 . S
C452 C445 1.357 . S
C452 H465 0.928 . S
H453 C429 0.931 . S
H454 C431 0.930 . S
H455 C433 0.929 . S
H456 C434 0.931 . S
H457 C436 0.930 . S
H458 C440 0.931 . S
H459 C438 0.931 . S
H460 C442 0.931 . S
H461 C443 0.929 . S
H462 C444 0.930 . S
H463 C447 0.930 . S
H464 C448 0.931 . S
H465 C452 0.928 . S
H466 C451 0.929 . S
H467 C449 0.932 . S
C468 C469 1.386 . S
C468 C470 1.397 . S
C468 H492 0.931 . S
C469 C468 1.386 . S
C469 C473 1.397 . S
C470 C468 1.397 . S
C470 C471 1.384 . S
C470 H493 0.930 . S
C471 C470 1.384 . S
C471 C472 1.377 . S
C471 C474 1.481 . S
C472 C471 1.377 . S
C472 C473 1.389 . S
C472 H494 0.929 . S
C473 C469 1.397 . S
C473 C472 1.389 . S
C473 H495 0.931 . S
C474 C471 1.481 . S
C474 C475 1.387 . S
C474 C479 1.390 . S
C475 C474 1.387 . S
C475 C476 1.401 . S
C475 H496 0.930 . S
C476 C475 1.401 . S
C476 C477 1.376 . S
C476 C485 1.511 . S
C477 C476 1.376 . S
C477 C478 1.392 . S
C477 H498 0.931 . S
C478 C477 1.392 . S
C478 C479 1.361 . S
C478 C480 1.500 . S
C479 C474 1.390 . S
C479 C478 1.361 . S
C479 H497 0.931 . S
C480 C478 1.500 . S
C480 C481 1.371 . S
C480 C482 1.365 . S
C481 C480 1.371 . S
C481 C491 1.386 . S
C481 H499 0.931 . S
C482 C480 1.365 . S
C482 C483 1.409 . S
C482 H500 0.929 . S
C483 C482 1.409 . S
C483 C484 1.380 . S
C483 H501 0.930 . S
C484 C483 1.380 . S
C484 C491 1.357 . S
C485 C476 1.511 . S
C485 C486 1.341 . S
C485 C487 1.371 . S
C486 C485 1.341 . S
C486 C490 1.394 . S
C486 H502 0.930 . S
C487 C485 1.371 . S
C487 C488 1.392 . S
C487 H503 0.931 . S
C488 C487 1.392 . S
C488 C489 1.331 . S
C488 H506 0.932 . S
C489 C488 1.331 . S
C489 C490 1.336 . S
C490 C486 1.394 . S
C490 C489 1.336 . S
C490 H505 0.929 . S
C491 C481 1.386 . S
C491 C484 1.357 . S
C491 H504 0.928 . S
H492 C468 0.931 . S
H493 C470 0.930 . S
H494 C472 0.929 . S
H495 C473 0.931 . S
H496 C475 0.930 . S
H497 C479 0.931 . S
H498 C477 0.931 . S
H499 C481 0.931 . S
H500 C482 0.929 . S
H501 C483 0.930 . S
H502 C486 0.930 . S
H503 C487 0.931 . S
H504 C491 0.928 . S
H505 C490 0.929 . S
H506 C488 0.932 . S
C507 C508 1.386 . S
C507 C509 1.397 . S
C507 H531 0.931 . S
C508 C507 1.386 . S
C508 C512 1.397 . S
C509 C507 1.397 . S
C509 C510 1.384 . S
C509 H532 0.930 . S
C510 C509 1.384 . S
C510 C511 1.377 . S
C510 C513 1.481 . S
C511 C510 1.377 . S
C511 C512 1.389 . S
C511 H533 0.929 . S
C512 C508 1.397 . S
C512 C511 1.389 . S
C512 H534 0.931 . S
C513 C510 1.481 . S
C513 C514 1.387 . S
C513 C518 1.390 . S
C514 C513 1.387 . S
C514 C515 1.401 . S
C514 H535 0.930 . S
C515 C514 1.401 . S
C515 C516 1.376 . S
C515 C524 1.511 . S
C516 C515 1.376 . S
C516 C517 1.392 . S
C516 H537 0.931 . S
C517 C516 1.392 . S
C517 C518 1.361 . S
C517 C519 1.500 . S
C518 C513 1.390 . S
C518 C517 1.361 . S
C518 H536 0.931 . S
C519 C517 1.500 . S
C519 C520 1.371 . S
C519 C521 1.365 . S
C520 C519 1.371 . S
C520 C530 1.386 . S
C520 H538 0.972 . S
C521 C519 1.365 . S
C521 C522 1.409 . S
C521 H539 0.929 . S
C522 C521 1.409 . S
C522 C523 1.380 . S
C522 H540 0.930 . S
C523 C522 1.380 . S
C523 C530 1.357 . S
C524 C515 1.511 . S
C524 C525 1.341 . S
C524 C526 1.371 1_556 S
C525 C524 1.341 . S
C525 C529 1.394 1_556 S
C525 H541 0.930 . S
C526 C524 1.371 1_554 S
C526 C527 1.392 . S
C526 H542 0.931 . S
C527 C526 1.392 . S
C527 C528 1.331 . S
C527 H545 0.932 . S
C528 C527 1.331 . S
C528 C529 1.336 . S
C529 C525 1.394 1_554 S
C529 C528 1.336 . S
C529 H544 0.929 . S
C530 C520 1.386 . S
C530 C523 1.357 . S
C530 H543 0.928 1_556 S
H531 C507 0.931 . S
H532 C509 0.930 . S
H533 C511 0.929 . S
H534 C512 0.931 . S
H535 C514 0.930 . S
H536 C518 0.931 . S
H537 C516 0.931 . S
H538 C520 0.972 . S
H539 C521 0.929 . S
H540 C522 0.930 . S
H541 C525 0.930 . S
H542 C526 0.931 . S
H543 C530 0.928 1_554 S
H544 C529 0.929 . S
H545 C527 0.932 . S
C546 C547 1.386 . S
C546 C548 1.397 . S
C546 H570 0.931 . S
C547 C546 1.386 . S
C547 C551 1.397 . S
C548 C546 1.397 . S
C548 C549 1.384 . S
C548 H571 0.930 . S
C549 C548 1.384 . S
C549 C550 1.377 . S
C549 C552 1.481 . S
C550 C549 1.377 . S
C550 C551 1.389 . S
C550 H572 0.929 . S
C551 C547 1.397 . S
C551 C550 1.389 . S
C551 H573 0.931 . S
C552 C549 1.481 . S
C552 C553 1.387 . S
C552 C557 1.390 . S
C553 C552 1.387 . S
C553 C554 1.401 . S
C553 H574 0.930 . S
C554 C553 1.401 . S
C554 C555 1.376 . S
C554 C563 1.511 . S
C555 C554 1.376 . S
C555 C556 1.392 . S
C555 H576 0.931 . S
C556 C555 1.392 . S
C556 C557 1.361 . S
C556 C558 1.500 . S
C557 C552 1.390 . S
C557 C556 1.361 . S
C557 H575 0.931 . S
C558 C556 1.500 . S
C558 C559 1.371 . S
C558 C560 1.365 . S
C559 C558 1.371 . S
C559 C569 1.386 . S
C559 H577 0.931 . S
C560 C558 1.365 . S
C560 C561 1.409 . S
C560 H578 0.929 . S
C561 C560 1.409 . S
C561 C562 1.380 . S
C561 H579 0.930 . S
C562 C561 1.380 . S
C562 C569 1.357 . S
C563 C554 1.511 . S
C563 C564 1.341 . S
C563 C565 1.371 . S
C564 C563 1.341 . S
C564 C568 1.394 . S
C564 H580 0.930 . S
C565 C563 1.371 . S
C565 C566 1.392 . S
C565 H581 0.931 . S
C566 C565 1.392 . S
C566 C567 1.331 . S
C566 H584 0.932 . S
C567 C566 1.331 . S
C567 C568 1.336 . S
C568 C564 1.394 . S
C568 C567 1.336 . S
C568 H583 0.929 . S
C569 C559 1.386 . S
C569 C562 1.357 . S
C569 H582 0.928 . S
H570 C546 0.931 . S
H571 C548 0.930 . S
H572 C550 0.929 . S
H573 C551 0.931 . S
H574 C553 0.930 . S
H575 C557 0.931 . S
H576 C555 0.931 . S
H577 C559 0.931 . S
H578 C560 0.929 . S
H579 C561 0.930 . S
H580 C564 0.930 . S
H581 C565 0.931 . S
H582 C569 0.928 . S
H583 C568 0.929 . S
H584 C566 0.932 . S
C585 C586 1.386 1_556 S
C585 C587 1.397 . S
C585 H609 0.931 . S
C586 C585 1.386 1_554 S
C586 C590 1.397 . S
C587 C585 1.397 . S
C587 C588 1.384 . S
C587 H610 0.930 . S
C588 C587 1.384 . S
C588 C589 1.377 1_556 S
C588 C591 1.481 . S
C589 C588 1.377 1_554 S
C589 C590 1.389 . S
C589 H611 0.929 . S
C590 C586 1.397 . S
C590 C589 1.389 . S
C590 H612 0.931 . S
C591 C588 1.481 . S
C591 C592 1.387 . S
C591 C596 1.390 . S
C592 C591 1.387 . S
C592 C593 1.401 . S
C592 H613 0.930 . S
C593 C592 1.401 . S
C593 C594 1.376 . S
C593 C602 1.511 . S
C594 C593 1.376 . S
C594 C595 1.392 . S
C594 H615 0.931 . S
C595 C594 1.392 . S
C595 C596 1.361 . S
C595 C597 1.500 . S
C596 C591 1.390 . S
C596 C595 1.361 . S
C596 H614 0.931 . S
C597 C595 1.500 . S
C597 C598 1.371 . S
C597 C599 1.365 . S
C598 C597 1.371 . S
C598 C608 1.373 1_545 S
C598 H616 0.931 . S
C599 C597 1.365 . S
C599 C600 1.409 . S
C599 H617 0.929 . S
C600 C599 1.409 . S
C600 C601 1.380 1_545 S
C600 H618 0.930 . S
C601 C600 1.380 1_565 S
C601 C608 1.361 . S
C602 C593 1.511 . S
C602 C603 1.341 . S
C602 C604 1.371 . S
C603 C602 1.341 . S
C603 C607 1.394 . S
C603 H619 0.930 . S
C604 C602 1.371 . S
C604 C605 1.392 . S
C604 H620 0.931 . S
C605 C604 1.392 . S
C605 C606 1.331 . S
C605 H623 0.932 . S
C606 C605 1.331 . S
C606 C607 1.336 . S
C607 C603 1.394 . S
C607 C606 1.336 . S
C607 H622 0.929 . S
C608 C598 1.373 1_565 S
C608 C601 1.361 . S
C608 H621 0.938 . S
H609 C585 0.931 . S
H610 C587 0.930 . S
H611 C589 0.929 . S
H612 C590 0.931 . S
H613 C592 0.930 . S
H614 C596 0.931 . S
H615 C594 0.931 . S
H616 C598 0.931 . S
H617 C599 0.929 . S
H618 C600 0.930 . S
H619 C603 0.930 . S
H620 C604 0.931 . S
H621 C608 0.938 . S
H622 C607 0.929 . S
H623 C605 0.932 . S
Zn624 O627 2.044 . S
Zn624 O629 2.040 1_554 S
Zn624 O634 2.050 1_554 S
Zn625 O626 1.962 . S
Zn625 O628 1.986 . S
Zn625 O630 1.996 . S
Zn625 O633 1.943 1_554 S
O626 Zn625 1.962 . S
O626 C631 1.254 . S
O627 Zn624 2.044 . S
O627 C631 1.269 . S
O628 Zn625 1.986 . S
O628 C635 1.262 . S
O629 Zn624 2.040 1_556 S
O629 C637 1.260 . S
O630 Zn625 1.996 . S
O630 C637 1.257 1_554 S
C631 O626 1.254 . S
C631 O627 1.269 . S
C632 O633 1.249 . S
C632 O634 1.270 . S
O633 Zn625 1.943 1_556 S
O633 C632 1.249 . S
O634 Zn624 2.050 1_556 S
O634 C632 1.270 . S
C635 O628 1.262 . S
C635 O636 1.232 . S
O636 C635 1.232 . S
C637 O629 1.260 . S
C637 O630 1.257 1_556 S
Zn638 O641 2.031 . S
Zn638 O643 2.049 . S
Zn638 O648 2.067 . S
Zn639 O640 1.962 . S
Zn639 O642 1.986 . S
Zn639 O644 1.996 . S
Zn639 O647 1.943 . S
O640 Zn639 1.962 . S
O640 C645 1.254 . S
O641 Zn638 2.031 . S
O641 C645 1.269 . S
O642 Zn639 1.986 . S
O642 C649 1.262 . S
O643 Zn638 2.049 . S
O643 C651 1.260 . S
O644 Zn639 1.996 . S
O644 C651 1.257 . S
C645 O640 1.254 . S
C645 O641 1.269 . S
C646 O647 1.249 . S
C646 O648 1.270 . S
O647 Zn639 1.943 . S
O647 C646 1.249 . S
O648 Zn638 2.067 . S
O648 C646 1.270 . S
C649 O642 1.262 . S
C649 O650 1.232 . S
O650 C649 1.232 . S
C651 O643 1.260 . S
C651 O644 1.257 . S
Zn652 O655 2.031 . S
Zn652 O657 2.049 . S
Zn652 O662 2.067 . S
Zn653 O654 1.962 . S
Zn653 O656 1.986 . S
Zn653 O658 1.996 1_554 S
Zn653 O661 1.943 . S
O654 Zn653 1.962 . S
O654 C659 1.254 . S
O655 Zn652 2.031 . S
O655 C659 1.269 1_556 S
O656 Zn653 1.986 . S
O656 C663 1.262 . S
O657 Zn652 2.049 . S
O657 C665 1.260 . S
O658 Zn653 1.996 1_556 S
O658 C665 1.257 . S
C659 O654 1.254 . S
C659 O655 1.269 1_554 S
C660 O661 1.249 1_556 S
C660 O662 1.270 . S
O661 Zn653 1.943 . S
O661 C660 1.249 1_554 S
O662 Zn652 2.067 . S
O662 C660 1.270 . S
C663 O656 1.262 . S
C663 O664 1.232 . S
O664 C663 1.232 . S
C665 O657 1.260 . S
C665 O658 1.257 . S
Zn666 O669 2.052 . S
Zn666 O671 2.035 1_545 S
Zn666 O676 2.039 1_545 S
Zn667 O668 1.962 . S
Zn667 O670 1.986 . S
Zn667 O672 1.996 . S
Zn667 O675 1.943 1_545 S
O668 Zn667 1.962 . S
O668 C673 1.254 . S
O669 Zn666 2.052 . S
O669 C673 1.269 . S
O670 Zn667 1.986 . S
O670 C677 1.262 . S
O671 Zn666 2.035 1_565 S
O671 C679 1.260 . S
O672 Zn667 1.996 . S
O672 C679 1.257 1_545 S
C673 O668 1.254 . S
C673 O669 1.269 . S
C674 O675 1.249 . S
C674 O676 1.270 . S
O675 Zn667 1.943 1_565 S
O675 C674 1.249 . S
O676 Zn666 2.039 1_565 S
O676 C674 1.270 . S
C677 O670 1.262 . S
C677 O678 1.232 . S
O678 C677 1.232 . S
C679 O671 1.260 . S
C679 O672 1.257 1_565 S
Zn680 O683 2.031 . S
Zn680 O685 2.049 . S
Zn680 O690 2.067 . S
Zn681 O682 1.962 . S
Zn681 O684 1.986 . S
Zn681 O686 1.996 . S
Zn681 O689 1.943 . S
O682 Zn681 1.962 . S
O682 C687 1.254 . S
O683 Zn680 2.031 . S
O683 C687 1.269 . S
O684 Zn681 1.986 . S
O684 C691 1.262 . S
O685 Zn680 2.049 . S
O685 C693 1.260 . S
O686 Zn681 1.996 . S
O686 C693 1.257 . S
C687 O682 1.254 . S
C687 O683 1.269 . S
C688 O689 1.249 . S
C688 O690 1.270 . S
O689 Zn681 1.943 . S
O689 C688 1.249 . S
O690 Zn680 2.067 . S
O690 C688 1.270 . S
C691 O684 1.262 . S
C691 O692 1.232 . S
O692 C691 1.232 . S
C693 O685 1.260 . S
C693 O686 1.257 . S
Zn694 O697 2.031 . S
Zn694 O699 2.049 . S
Zn694 O704 2.067 . S
Zn695 O696 1.962 . S
Zn695 O698 1.986 . S
Zn695 O700 1.996 . S
Zn695 O703 1.943 . S
O696 Zn695 1.962 . S
O696 C701 1.254 . S
O697 Zn694 2.031 . S
O697 C701 1.269 . S
O698 Zn695 1.986 . S
O698 C705 1.262 . S
O699 Zn694 2.049 . S
O699 C707 1.260 . S
O700 Zn695 1.996 . S
O700 C707 1.257 . S
C701 O696 1.254 . S
C701 O697 1.269 . S
C702 O703 1.249 . S
C702 O704 1.270 . S
O703 Zn695 1.943 . S
O703 C702 1.249 . S
O704 Zn694 2.067 . S
O704 C702 1.270 . S
C705 O698 1.262 . S
C705 O706 1.232 . S
O706 C705 1.232 . S
C707 O699 1.260 . S
C707 O700 1.257 . S
Zn708 O711 2.031 . S
Zn708 O713 2.049 . S
Zn708 O718 2.067 . S
Zn709 O710 1.962 . S
Zn709 O712 1.986 . S
Zn709 O714 1.996 . S
Zn709 O717 1.943 . S
O710 Zn709 1.962 . S
O710 C715 1.254 . S
O711 Zn708 2.031 . S
O711 C715 1.269 . S
O712 Zn709 1.986 . S
O712 C719 1.262 . S
O713 Zn708 2.049 . S
O713 C721 1.260 . S
O714 Zn709 1.996 . S
O714 C721 1.257 . S
C715 O710 1.254 . S
C715 O711 1.269 . S
C716 O717 1.249 . S
C716 O718 1.270 . S
O717 Zn709 1.943 . S
O717 C716 1.249 . S
O718 Zn708 2.067 . S
O718 C716 1.270 . S
C719 O712 1.262 . S
C719 O720 1.232 . S
O720 C719 1.232 . S
C721 O713 1.260 . S
C721 O714 1.257 . S
Zn722 O725 2.031 . S
Zn722 O727 2.049 . S
Zn722 O732 2.067 . S
Zn723 O724 1.962 . S
Zn723 O726 1.986 . S
Zn723 O728 1.996 1_545 S
Zn723 O731 1.943 . S
O724 Zn723 1.962 . S
O724 C729 1.254 . S
O725 Zn722 2.031 . S
O725 C729 1.269 1_565 S
O726 Zn723 1.986 . S
O726 C733 1.262 . S
O727 Zn722 2.049 . S
O727 C735 1.260 . S
O728 Zn723 1.996 1_565 S
O728 C735 1.257 . S
C729 O724 1.254 . S
C729 O725 1.269 1_545 S
C730 O731 1.249 1_565 S
C730 O732 1.270 . S
O731 Zn723 1.943 . S
O731 C730 1.249 1_545 S
O732 Zn722 2.067 . S
O732 C730 1.270 . S
C733 O726 1.262 . S
C733 O734 1.232 . S
O734 C733 1.232 . S
C735 O727 1.260 . S
C735 O728 1.257 . S
Zn736 O739 2.031 1_655 S
Zn736 O741 2.050 . S
Zn736 O746 2.068 . S
Zn737 O738 1.962 . S
Zn737 O740 1.986 . S
Zn737 O742 1.996 . S
Zn737 O745 1.943 1_455 S
O738 Zn737 1.962 . S
O738 C743 1.254 . S
O739 Zn736 2.031 1_455 S
O739 C743 1.269 . S
O740 Zn737 1.986 . S
O740 C747 1.262 . S
O741 Zn736 2.050 . S
O741 C749 1.260 . S
O742 Zn737 1.996 . S
O742 C749 1.257 1_455 S
C743 O738 1.254 . S
C743 O739 1.269 . S
C744 O745 1.249 . S
C744 O746 1.270 . S
O745 Zn737 1.943 1_655 S
O745 C744 1.249 . S
O746 Zn736 2.068 . S
O746 C744 1.270 . S
C747 O740 1.262 . S
C747 O748 1.232 . S
O748 C747 1.232 . S
C749 O741 1.260 . S
C749 O742 1.257 1_655 S
Zn750 O753 2.031 . S
Zn750 O755 2.049 . S
Zn750 O760 2.067 . S
Zn751 O752 1.962 . S
Zn751 O754 1.986 . S
Zn751 O756 1.996 . S
Zn751 O759 1.943 . S
O752 Zn751 1.962 . S
O752 C757 1.254 . S
O753 Zn750 2.031 . S
O753 C757 1.269 . S
O754 Zn751 1.986 . S
O754 C761 1.262 . S
O755 Zn750 2.049 . S
O755 C763 1.260 . S
O756 Zn751 1.996 . S
O756 C763 1.257 . S
C757 O752 1.254 . S
C757 O753 1.269 . S
C758 O759 1.249 . S
C758 O760 1.270 . S
O759 Zn751 1.943 . S
O759 C758 1.249 . S
O760 Zn750 2.067 . S
O760 C758 1.270 . S
C761 O754 1.262 . S
C761 O762 1.232 . S
O762 C761 1.232 . S
C763 O755 1.260 . S
C763 O756 1.257 . S
Zn764 O767 2.031 . S
Zn764 O769 2.049 . S
Zn764 O774 2.067 . S
Zn765 O766 1.962 . S
Zn765 O768 1.986 . S
Zn765 O770 1.996 1_455 S
Zn765 O773 1.943 . S
O766 Zn765 1.962 . S
O766 C771 1.254 . S
O767 Zn764 2.031 . S
O767 C771 1.269 1_655 S
O768 Zn765 1.986 . S
O768 C775 1.262 . S
O769 Zn764 2.049 . S
O769 C777 1.260 . S
O770 Zn765 1.996 1_655 S
O770 C777 1.257 . S
C771 O766 1.254 . S
C771 O767 1.269 1_455 S
C772 O773 1.249 1_655 S
C772 O774 1.270 . S
O773 Zn765 1.943 . S
O773 C772 1.249 1_455 S
O774 Zn764 2.067 . S
O774 C772 1.270 . S
C775 O768 1.262 . S
C775 O776 1.232 . S
O776 C775 1.232 . S
C777 O769 1.260 . S
C777 O770 1.257 . S
Zn778 O781 2.031 . S
Zn778 O783 2.049 . S
Zn778 O788 2.067 . S
Zn779 O780 1.962 . S
Zn779 O782 1.986 . S
Zn779 O784 1.996 . S
Zn779 O787 1.943 . S
O780 Zn779 1.962 . S
O780 C785 1.254 . S
O781 Zn778 2.031 . S
O781 C785 1.269 . S
O782 Zn779 1.986 . S
O782 C789 1.262 . S
O783 Zn778 2.049 . S
O783 C791 1.260 . S
O784 Zn779 1.996 . S
O784 C791 1.257 . S
C785 O780 1.254 . S
C785 O781 1.269 . S
C786 O787 1.249 . S
C786 O788 1.270 . S
O787 Zn779 1.943 . S
O787 C786 1.249 . S
O788 Zn778 2.067 . S
O788 C786 1.270 . S
C789 O782 1.262 . S
C789 O790 1.232 . S
O790 C789 1.232 . S
C791 O783 1.260 . S
C791 O784 1.257 . S
H792 C798 0.930 . S
H793 C801 0.930 . S
H794 C802 0.930 . S
H795 C803 0.930 . S
H796 C806 0.930 . S
H797 C807 0.930 . S
C798 H792 0.930 . S
C798 C799 1.355 . S
C798 C800 1.415 . S
C799 C798 1.355 . S
C799 C801 1.419 . S
C800 C798 1.415 . S
C800 C805 1.425 . S
C800 C807 1.409 . S
C801 H793 0.930 . S
C801 C799 1.419 . S
C801 C802 1.362 . S
C802 H794 0.930 . S
C802 C801 1.362 . S
C802 C805 1.409 . S
C803 H795 0.930 . S
C803 C804 1.355 . S
C803 C805 1.415 . S
C804 C803 1.355 . S
C804 C806 1.419 . S
C805 C800 1.425 . S
C805 C802 1.409 . S
C805 C803 1.415 . S
C806 H796 0.930 . S
C806 C804 1.419 . S
C806 C807 1.362 . S
C807 H797 0.930 . S
C807 C800 1.409 . S
C807 C806 1.362 . S
H808 C814 0.930 . S
H809 C817 0.930 . S
H810 C818 0.930 . S
H811 C819 0.930 . S
H812 C822 0.930 . S
H813 C823 0.930 . S
C814 H808 0.930 . S
C814 C815 1.355 . S
C814 C816 1.415 . S
C815 C814 1.355 . S
C815 C817 1.419 . S
C816 C814 1.415 . S
C816 C821 1.425 . S
C816 C823 1.409 . S
C817 H809 0.930 . S
C817 C815 1.419 . S
C817 C818 1.362 . S
C818 H810 0.930 . S
C818 C817 1.362 . S
C818 C821 1.409 . S
C819 H811 0.930 . S
C819 C820 1.355 . S
C819 C821 1.415 . S
C820 C819 1.355 . S
C820 C822 1.419 . S
C821 C816 1.425 . S
C821 C818 1.409 . S
C821 C819 1.415 . S
C822 H812 0.930 . S
C822 C820 1.419 . S
C822 C823 1.362 . S
C823 H813 0.930 . S
C823 C816 1.409 . S
C823 C822 1.362 . S
H824 C830 0.930 . S
H825 C833 0.930 . S
H826 C834 0.930 . S
H827 C835 0.930 . S
H828 C838 0.930 . S
H829 C839 0.930 . S
C830 H824 0.930 . S
C830 C831 1.355 . S
C830 C832 1.415 . S
C831 C830 1.355 . S
C831 C833 1.419 . S
C832 C830 1.415 . S
C832 C837 1.425 . S
C832 C839 1.409 . S
C833 H825 0.930 . S
C833 C831 1.419 . S
C833 C834 1.362 . S
C834 H826 0.930 . S
C834 C833 1.362 . S
C834 C837 1.409 . S
C835 H827 0.930 . S
C835 C836 1.355 . S
C835 C837 1.415 . S
C836 C835 1.355 . S
C836 C838 1.419 . S
C837 C832 1.425 . S
C837 C834 1.409 . S
C837 C835 1.415 . S
C838 H828 0.930 . S
C838 C836 1.419 . S
C838 C839 1.362 . S
C839 H829 0.930 . S
C839 C832 1.409 . S
C839 C838 1.362 . S
H840 C846 0.930 . S
H841 C849 0.930 1_455 S
H842 C850 0.930 . S
H843 C851 0.930 . S
H844 C854 0.930 . S
H845 C855 0.930 . S
C846 H840 0.930 . S
C846 C847 1.355 . S
C846 C848 1.415 . S
C847 C846 1.355 . S
C847 C849 1.419 . S
C848 C846 1.415 . S
C848 C853 1.425 . S
C848 C855 1.409 . S
C849 H841 0.930 1_655 S
C849 C847 1.419 . S
C849 C850 1.362 . S
C850 H842 0.930 . S
C850 C849 1.362 . S
C850 C853 1.409 . S
C851 H843 0.930 . S
C851 C852 1.355 . S
C851 C853 1.415 . S
C852 C851 1.355 . S
C852 C854 1.419 . S
C853 C848 1.425 . S
C853 C850 1.409 . S
C853 C851 1.415 . S
C854 H844 0.930 . S
C854 C852 1.419 . S
C854 C855 1.362 . S
C855 H845 0.930 . S
C855 C848 1.409 . S
C855 C854 1.362 . S
H856 C862 0.930 . S
H857 C865 0.930 . S
H858 C866 0.930 . S
H859 C867 0.930 . S
H860 C870 0.930 . S
H861 C871 0.930 . S
C862 H856 0.930 . S
C862 C863 1.355 . S
C862 C864 1.415 . S
C863 C862 1.355 . S
C863 C865 1.419 . S
C864 C862 1.415 . S
C864 C869 1.425 . S
C864 C871 1.409 . S
C865 H857 0.930 . S
C865 C863 1.419 . S
C865 C866 1.362 . S
C866 H858 0.930 . S
C866 C865 1.362 . S
C866 C869 1.409 . S
C867 H859 0.930 . S
C867 C868 1.355 . S
C867 C869 1.415 . S
C868 C867 1.355 . S
C868 C870 1.419 . S
C869 C864 1.425 . S
C869 C866 1.409 . S
C869 C867 1.415 . S
C870 H860 0.930 . S
C870 C868 1.419 . S
C870 C871 1.362 . S
C871 H861 0.930 . S
C871 C864 1.409 . S
C871 C870 1.362 . S
H872 C878 0.930 . S
H873 C881 0.930 . S
H874 C882 0.930 . S
H875 C883 0.930 . S
H876 C886 0.930 . S
H877 C887 0.930 . S
C878 H872 0.930 . S
C878 C879 1.355 . S
C878 C880 1.415 . S
C879 C878 1.355 . S
C879 C881 1.419 . S
C880 C878 1.415 . S
C880 C885 1.425 . S
C880 C887 1.409 . S
C881 H873 0.930 . S
C881 C879 1.419 . S
C881 C882 1.362 . S
C882 H874 0.930 . S
C882 C881 1.362 . S
C882 C885 1.409 . S
C883 H875 0.930 . S
C883 C884 1.355 . S
C883 C885 1.415 . S
C884 C883 1.355 . S
C884 C886 1.419 . S
C885 C880 1.425 . S
C885 C882 1.409 . S
C885 C883 1.415 . S
C886 H876 0.930 . S
C886 C884 1.419 . S
C886 C887 1.362 . S
C887 H877 0.930 . S
C887 C880 1.409 . S
C887 C886 1.362 . S
H888 C894 0.930 . S
H889 C897 0.930 . S
H890 C898 0.930 . S
H891 C899 0.930 . S
H892 C902 0.930 . S
H893 C903 0.930 . S
C894 H888 0.930 . S
C894 C895 1.355 . S
C894 C896 1.415 . S
C895 C894 1.355 . S
C895 C897 1.419 . S
C896 C894 1.415 . S
C896 C901 1.425 . S
C896 C903 1.409 . S
C897 H889 0.930 . S
C897 C895 1.419 . S
C897 C898 1.362 . S
C898 H890 0.930 . S
C898 C897 1.362 . S
C898 C901 1.409 . S
C899 H891 0.930 . S
C899 C900 1.355 . S
C899 C901 1.415 . S
C900 C899 1.355 . S
C900 C902 1.419 . S
C901 C896 1.425 . S
C901 C898 1.409 . S
C901 C899 1.415 . S
C902 H892 0.930 . S
C902 C900 1.419 . S
C902 C903 1.362 . S
C903 H893 0.930 . S
C903 C896 1.409 . S
C903 C902 1.362 . S
H904 C910 0.930 . S
H905 C913 0.930 . S
H906 C914 0.930 . S
H907 C915 0.930 . S
H908 C918 0.930 . S
H909 C919 0.930 . S
C910 H904 0.930 . S
C910 C911 1.355 . S
C910 C912 1.415 . S
C911 C910 1.355 . S
C911 C913 1.419 . S
C912 C910 1.415 . S
C912 C917 1.425 . S
C912 C919 1.409 . S
C913 H905 0.930 . S
C913 C911 1.419 . S
C913 C914 1.362 . S
C914 H906 0.930 . S
C914 C913 1.362 . S
C914 C917 1.409 . S
C915 H907 0.930 . S
C915 C916 1.355 . S
C915 C917 1.415 . S
C916 C915 1.355 . S
C916 C918 1.419 . S
C917 C912 1.425 . S
C917 C914 1.409 . S
C917 C915 1.415 . S
C918 H908 0.930 . S
C918 C916 1.419 . S
C918 C919 1.362 . S
C919 H909 0.930 . S
C919 C912 1.409 . S
C919 C918 1.362 . S
H920 C926 0.930 . S
H921 C929 0.930 . S
H922 C930 0.930 . S
H923 C931 0.930 . S
H924 C934 0.930 . S
H925 C935 0.930 . S
C926 H920 0.930 . S
C926 C927 1.355 . S
C926 C928 1.415 . S
C927 C926 1.355 . S
C927 C929 1.419 . S
C928 C926 1.415 . S
C928 C933 1.425 . S
C928 C935 1.409 . S
C929 H921 0.930 . S
C929 C927 1.419 . S
C929 C930 1.362 . S
C930 H922 0.930 . S
C930 C929 1.362 . S
C930 C933 1.409 . S
C931 H923 0.930 . S
C931 C932 1.355 . S
C931 C933 1.415 . S
C932 C931 1.355 . S
C932 C934 1.419 . S
C933 C928 1.425 . S
C933 C930 1.409 . S
C933 C931 1.415 . S
C934 H924 0.930 . S
C934 C932 1.419 . S
C934 C935 1.362 . S
C935 H925 0.930 . S
C935 C928 1.409 . S
C935 C934 1.362 . S
H936 C942 0.930 . S
H937 C945 0.930 . S
H938 C946 0.930 . S
H939 C947 0.930 . S
H940 C950 0.930 . S
H941 C951 0.930 . S
C942 H936 0.930 . S
C942 C943 1.355 . S
C942 C944 1.415 . S
C943 C942 1.355 . S
C943 C945 1.419 . S
C944 C942 1.415 . S
C944 C949 1.425 . S
C944 C951 1.409 . S
C945 H937 0.930 . S
C945 C943 1.419 . S
C945 C946 1.362 . S
C946 H938 0.930 . S
C946 C945 1.362 . S
C946 C949 1.409 . S
C947 H939 0.930 . S
C947 C948 1.355 . S
C947 C949 1.415 . S
C948 C947 1.355 . S
C948 C950 1.419 . S
C949 C944 1.425 . S
C949 C946 1.409 . S
C949 C947 1.415 . S
C950 H940 0.930 . S
C950 C948 1.419 . S
C950 C951 1.362 . S
C951 H941 0.930 . S
C951 C944 1.409 . S
C951 C950 1.362 . S
H952 C958 0.930 . S
H953 C961 0.930 . S
H954 C962 0.930 . S
H955 C963 0.930 . S
H956 C966 0.930 . S
H957 C967 0.930 . S
C958 H952 0.930 . S
C958 C959 1.355 . S
C958 C960 1.415 . S
C959 C958 1.355 . S
C959 C961 1.419 . S
C960 C958 1.415 . S
C960 C965 1.425 . S
C960 C967 1.409 . S
C961 H953 0.930 . S
C961 C959 1.419 . S
C961 C962 1.362 . S
C962 H954 0.930 . S
C962 C961 1.362 . S
C962 C965 1.409 . S
C963 H955 0.930 . S
C963 C964 1.355 . S
C963 C965 1.415 . S
C964 C963 1.355 . S
C964 C966 1.419 . S
C965 C960 1.425 . S
C965 C962 1.409 . S
C965 C963 1.415 . S
C966 H956 0.930 . S
C966 C964 1.419 . S
C966 C967 1.362 . S
C967 H957 0.930 . S
C967 C960 1.409 . S
C967 C966 1.362 . S
H968 C974 0.930 . S
H969 C977 0.930 . S
H970 C978 0.930 . S
H971 C979 0.930 . S
H972 C982 0.930 . S
H973 C983 0.930 . S
C974 H968 0.930 . S
C974 C975 1.355 . S
C974 C976 1.415 . S
C975 C974 1.355 . S
C975 C977 1.419 . S
C976 C974 1.415 . S
C976 C981 1.425 . S
C976 C983 1.409 . S
C977 H969 0.930 . S
C977 C975 1.419 . S
C977 C978 1.362 . S
C978 H970 0.930 . S
C978 C977 1.362 . S
C978 C981 1.409 . S
C979 H971 0.930 . S
C979 C980 1.355 . S
C979 C981 1.415 . S
C980 C979 1.355 . S
C980 C982 1.419 . S
C981 C976 1.425 . S
C981 C978 1.409 . S
C981 C979 1.415 . S
C982 H972 0.930 . S
C982 C980 1.419 . S
C982 C983 1.362 . S
C983 H973 0.930 . S
C983 C976 1.409 . S
C983 C982 1.362 . S
H984 C990 0.930 . S
H985 C993 0.930 . S
H986 C994 0.930 . S
H987 C995 0.930 . S
H988 C998 0.930 . S
H989 C999 0.930 . S
C990 H984 0.930 . S
C990 C991 1.355 . S
C990 C992 1.415 . S
C991 C990 1.355 . S
C991 C993 1.419 . S
C992 C990 1.415 . S
C992 C997 1.425 . S
C992 C999 1.409 . S
C993 H985 0.930 . S
C993 C991 1.419 . S
C993 C994 1.362 . S
C994 H986 0.930 . S
C994 C993 1.362 . S
C994 C997 1.409 . S
C995 H987 0.930 . S
C995 C996 1.355 . S
C995 C997 1.415 . S
C996 C995 1.355 . S
C996 C998 1.419 . S
C997 C992 1.425 . S
C997 C994 1.409 . S
C997 C995 1.415 . S
C998 H988 0.930 . S
C998 C996 1.419 . S
C998 C999 1.362 . S
C999 H989 0.930 . S
C999 C992 1.409 . S
C999 C998 1.362 . S
H1000 C1006 0.930 . S
H1001 C1009 0.930 . S
H1002 C1010 0.930 . S
H1003 C1011 0.930 . S
H1004 C1014 0.930 . S
H1005 C1015 0.930 . S
C1006 H1000 0.930 . S
C1006 C1007 1.355 . S
C1006 C1008 1.415 . S
C1007 C1006 1.355 . S
C1007 C1009 1.419 . S
C1008 C1006 1.415 . S
C1008 C1013 1.425 . S
C1008 C1015 1.409 . S
C1009 H1001 0.930 . S
C1009 C1007 1.419 . S
C1009 C1010 1.362 . S
C1010 H1002 0.930 . S
C1010 C1009 1.362 . S
C1010 C1013 1.409 . S
C1011 H1003 0.930 . S
C1011 C1012 1.355 . S
C1011 C1013 1.415 . S
C1012 C1011 1.355 . S
C1012 C1014 1.419 . S
C1013 C1008 1.425 . S
C1013 C1010 1.409 . S
C1013 C1011 1.415 . S
C1014 H1004 0.930 . S
C1014 C1012 1.419 . S
C1014 C1015 1.362 . S
C1015 H1005 0.930 . S
C1015 C1008 1.409 . S
C1015 C1014 1.362 . S
H1016 C1022 0.930 . S
H1017 C1025 0.930 . S
H1018 C1026 0.930 . S
H1019 C1027 0.930 . S
H1020 C1030 0.930 . S
H1021 C1031 0.930 . S
C1022 H1016 0.930 . S
C1022 C1023 1.355 . S
C1022 C1024 1.415 . S
C1023 C1022 1.355 . S
C1023 C1025 1.419 . S
C1024 C1022 1.415 . S
C1024 C1029 1.425 . S
C1024 C1031 1.409 . S
C1025 H1017 0.930 . S
C1025 C1023 1.419 . S
C1025 C1026 1.362 . S
C1026 H1018 0.930 . S
C1026 C1025 1.362 . S
C1026 C1029 1.409 . S
C1027 H1019 0.930 . S
C1027 C1028 1.355 . S
C1027 C1029 1.415 . S
C1028 C1027 1.355 . S
C1028 C1030 1.419 . S
C1029 C1024 1.425 . S
C1029 C1026 1.409 . S
C1029 C1027 1.415 . S
C1030 H1020 0.930 . S
C1030 C1028 1.419 . S
C1030 C1031 1.362 . S
C1031 H1021 0.930 . S
C1031 C1024 1.409 . S
C1031 C1030 1.362 . S
H1032 C1038 0.930 . S
H1033 C1041 0.927 . S
H1034 C1042 0.930 . S
H1035 C1043 0.930 . S
H1036 C1046 0.930 . S
H1037 C1047 0.930 . S
C1038 H1032 0.930 . S
C1038 C1039 1.355 . S
C1038 C1040 1.415 . S
C1039 C1038 1.355 . S
C1039 C1041 1.424 1_655 S
C1040 C1038 1.415 . S
C1040 C1045 1.425 . S
C1040 C1047 1.409 . S
C1041 H1033 0.927 . S
C1041 C1039 1.424 1_455 S
C1041 C1042 1.361 . S
C1042 H1034 0.930 . S
C1042 C1041 1.361 . S
C1042 C1045 1.409 1_455 S
C1043 H1035 0.930 . S
C1043 C1044 1.355 1_455 S
C1043 C1045 1.415 1_455 S
C1044 C1043 1.355 1_655 S
C1044 C1046 1.419 . S
C1045 C1040 1.425 . S
C1045 C1042 1.409 1_655 S
C1045 C1043 1.415 1_655 S
C1046 H1036 0.930 . S
C1046 C1044 1.419 . S
C1046 C1047 1.362 . S
C1047 H1037 0.930 . S
C1047 C1040 1.409 . S
C1047 C1046 1.362 . S
H1048 C1054 0.930 . S
H1049 C1057 0.930 . S
H1050 C1058 0.930 . S
H1051 C1059 0.930 . S
H1052 C1062 0.930 . S
H1053 C1063 0.930 . S
C1054 H1048 0.930 . S
C1054 C1055 1.355 . S
C1054 C1056 1.415 . S
C1055 C1054 1.355 . S
C1055 C1057 1.419 . S
C1056 C1054 1.415 . S
C1056 C1061 1.425 . S
C1056 C1063 1.409 . S
C1057 H1049 0.930 . S
C1057 C1055 1.419 . S
C1057 C1058 1.362 . S
C1058 H1050 0.930 . S
C1058 C1057 1.362 . S
C1058 C1061 1.409 . S
C1059 H1051 0.930 . S
C1059 C1060 1.355 . S
C1059 C1061 1.415 . S
C1060 C1059 1.355 . S
C1060 C1062 1.419 . S
C1061 C1056 1.425 . S
C1061 C1058 1.409 . S
C1061 C1059 1.415 . S
C1062 H1052 0.930 . S
C1062 C1060 1.419 . S
C1062 C1063 1.362 . S
C1063 H1053 0.930 . S
C1063 C1056 1.409 . S
C1063 C1062 1.362 . S
H1064 C1070 0.930 . S
H1065 C1073 0.930 . S
H1066 C1074 0.930 . S
H1067 C1075 0.930 . S
H1068 C1078 0.930 . S
H1069 C1079 0.930 . S
C1070 H1064 0.930 . S
C1070 C1071 1.355 . S
C1070 C1072 1.415 . S
C1071 C1070 1.355 . S
C1071 C1073 1.419 . S
C1072 C1070 1.415 . S
C1072 C1077 1.425 . S
C1072 C1079 1.409 . S
C1073 H1065 0.930 . S
C1073 C1071 1.419 . S
C1073 C1074 1.362 . S
C1074 H1066 0.930 . S
C1074 C1073 1.362 . S
C1074 C1077 1.409 . S
C1075 H1067 0.930 . S
C1075 C1076 1.355 . S
C1075 C1077 1.415 . S
C1076 C1075 1.355 . S
C1076 C1078 1.419 . S
C1077 C1072 1.425 . S
C1077 C1074 1.409 . S
C1077 C1075 1.415 . S
C1078 H1068 0.930 . S
C1078 C1076 1.419 . S
C1078 C1079 1.362 . S
C1079 H1069 0.930 . S
C1079 C1072 1.409 . S
C1079 C1078 1.362 . S
H1080 C1086 0.971 . S
H1081 C1089 0.930 . S
H1082 C1090 0.930 . S
H1083 C1091 0.930 . S
H1084 C1094 0.930 . S
H1085 C1095 0.930 . S
C1086 H1080 0.971 . S
C1086 C1087 1.355 . S
C1086 C1088 1.415 . S
C1087 C1086 1.355 . S
C1087 C1089 1.419 . S
C1088 C1086 1.415 . S
C1088 C1093 1.425 . S
C1088 C1095 1.409 1_556 S
C1089 H1081 0.930 . S
C1089 C1087 1.419 . S
C1089 C1090 1.362 . S
C1090 H1082 0.930 . S
C1090 C1089 1.362 . S
C1090 C1093 1.409 . S
C1091 H1083 0.930 . S
C1091 C1092 1.355 . S
C1091 C1093 1.415 . S
C1092 C1091 1.355 . S
C1092 C1094 1.419 1_556 S
C1093 C1088 1.425 . S
C1093 C1090 1.409 . S
C1093 C1091 1.415 . S
C1094 H1084 0.930 . S
C1094 C1092 1.419 1_554 S
C1094 C1095 1.362 . S
C1095 H1085 0.930 . S
C1095 C1088 1.409 1_554 S
C1095 C1094 1.362 . S
H1096 C1102 0.930 . S
H1097 C1105 0.930 . S
H1098 C1106 0.930 . S
H1099 C1107 0.930 . S
H1100 C1110 0.930 . S
H1101 C1111 0.930 . S
C1102 H1096 0.930 . S
C1102 C1103 1.355 . S
C1102 C1104 1.415 . S
C1103 C1102 1.355 . S
C1103 C1105 1.419 . S
C1104 C1102 1.415 . S
C1104 C1109 1.425 . S
C1104 C1111 1.409 . S
C1105 H1097 0.930 . S
C1105 C1103 1.419 . S
C1105 C1106 1.362 . S
C1106 H1098 0.930 . S
C1106 C1105 1.362 . S
C1106 C1109 1.409 . S
C1107 H1099 0.930 . S
C1107 C1108 1.355 . S
C1107 C1109 1.415 . S
C1108 C1107 1.355 . S
C1108 C1110 1.419 . S
C1109 C1104 1.425 . S
C1109 C1106 1.409 . S
C1109 C1107 1.415 . S
C1110 H1100 0.930 . S
C1110 C1108 1.419 . S
C1110 C1111 1.362 . S
C1111 H1101 0.930 . S
C1111 C1104 1.409 . S
C1111 C1110 1.362 . S
H1112 C1118 0.930 . S
H1113 C1121 0.930 . S
H1114 C1122 0.930 . S
H1115 C1123 0.930 . S
H1116 C1126 0.930 . S
H1117 C1127 0.930 . S
C1118 H1112 0.930 . S
C1118 C1119 1.355 . S
C1118 C1120 1.415 . S
C1119 C1118 1.355 . S
C1119 C1121 1.419 . S
C1120 C1118 1.415 . S
C1120 C1125 1.425 . S
C1120 C1127 1.409 . S
C1121 H1113 0.930 . S
C1121 C1119 1.419 . S
C1121 C1122 1.362 . S
C1122 H1114 0.930 . S
C1122 C1121 1.362 . S
C1122 C1125 1.409 . S
C1123 H1115 0.930 . S
C1123 C1124 1.355 . S
C1123 C1125 1.415 . S
C1124 C1123 1.355 . S
C1124 C1126 1.419 . S
C1125 C1120 1.425 . S
C1125 C1122 1.409 . S
C1125 C1123 1.415 . S
C1126 H1116 0.930 . S
C1126 C1124 1.419 . S
C1126 C1127 1.362 . S
C1127 H1117 0.930 . S
C1127 C1120 1.409 . S
C1127 C1126 1.362 . S
H1128 C1134 0.930 . S
H1129 C1137 0.930 . S
H1130 C1138 0.930 . S
H1131 C1139 0.930 . S
H1132 C1142 0.930 . S
H1133 C1143 0.930 . S
C1134 H1128 0.930 . S
C1134 C1135 1.355 . S
C1134 C1136 1.415 . S
C1135 C1134 1.355 . S
C1135 C1137 1.419 . S
C1136 C1134 1.415 . S
C1136 C1141 1.425 . S
C1136 C1143 1.409 . S
C1137 H1129 0.930 . S
C1137 C1135 1.419 . S
C1137 C1138 1.362 . S
C1138 H1130 0.930 . S
C1138 C1137 1.362 . S
C1138 C1141 1.409 . S
C1139 H1131 0.930 . S
C1139 C1140 1.355 . S
C1139 C1141 1.415 . S
C1140 C1139 1.355 . S
C1140 C1142 1.419 . S
C1141 C1136 1.425 . S
C1141 C1138 1.409 . S
C1141 C1139 1.415 . S
C1142 H1132 0.930 . S
C1142 C1140 1.419 . S
C1142 C1143 1.362 . S
C1143 H1133 0.930 . S
C1143 C1136 1.409 . S
C1143 C1142 1.362 . S
H1144 C1150 0.930 . S
H1145 C1153 0.930 . S
H1146 C1154 0.930 . S
H1147 C1155 0.930 . S
H1148 C1158 0.930 . S
H1149 C1159 0.930 . S
C1150 H1144 0.930 . S
C1150 C1151 1.355 . S
C1150 C1152 1.415 . S
C1151 C1150 1.355 . S
C1151 C1153 1.419 . S
C1152 C1150 1.415 . S
C1152 C1157 1.425 . S
C1152 C1159 1.409 . S
C1153 H1145 0.930 . S
C1153 C1151 1.419 . S
C1153 C1154 1.362 . S
C1154 H1146 0.930 . S
C1154 C1153 1.362 . S
C1154 C1157 1.409 . S
C1155 H1147 0.930 . S
C1155 C1156 1.355 . S
C1155 C1157 1.415 . S
C1156 C1155 1.355 . S
C1156 C1158 1.419 . S
C1157 C1152 1.425 . S
C1157 C1154 1.409 . S
C1157 C1155 1.415 . S
C1158 H1148 0.930 . S
C1158 C1156 1.419 . S
C1158 C1159 1.362 . S
C1159 H1149 0.930 . S
C1159 C1152 1.409 . S
C1159 C1158 1.362 . S
H1160 C1166 0.930 . S
H1161 C1169 0.930 . S
H1162 C1170 0.930 . S
H1163 C1171 0.930 . S
H1164 C1174 0.930 . S
H1165 C1175 0.930 . S
C1166 H1160 0.930 . S
C1166 C1167 1.355 . S
C1166 C1168 1.415 . S
C1167 C1166 1.355 . S
C1167 C1169 1.419 . S
C1168 C1166 1.415 . S
C1168 C1173 1.425 . S
C1168 C1175 1.409 . S
C1169 H1161 0.930 . S
C1169 C1167 1.419 . S
C1169 C1170 1.362 . S
C1170 H1162 0.930 . S
C1170 C1169 1.362 . S
C1170 C1173 1.409 . S
C1171 H1163 0.930 . S
C1171 C1172 1.355 . S
C1171 C1173 1.415 . S
C1172 C1171 1.355 . S
C1172 C1174 1.419 . S
C1173 C1168 1.425 . S
C1173 C1170 1.409 . S
C1173 C1171 1.415 . S
C1174 H1164 0.930 . S
C1174 C1172 1.419 . S
C1174 C1175 1.362 . S
C1175 H1165 0.930 . S
C1175 C1168 1.409 . S
C1175 C1174 1.362 . S
H1176 C1182 0.930 . S
H1177 C1185 0.930 . S
H1178 C1186 0.930 . S
H1179 C1187 0.930 . S
H1180 C1190 0.930 . S
H1181 C1191 0.930 . S
C1182 H1176 0.930 . S
C1182 C1183 1.355 . S
C1182 C1184 1.415 . S
C1183 C1182 1.355 . S
C1183 C1185 1.419 . S
C1184 C1182 1.415 . S
C1184 C1189 1.425 . S
C1184 C1191 1.409 . S
C1185 H1177 0.930 . S
C1185 C1183 1.419 . S
C1185 C1186 1.362 . S
C1186 H1178 0.930 . S
C1186 C1185 1.362 . S
C1186 C1189 1.409 . S
C1187 H1179 0.930 . S
C1187 C1188 1.355 . S
C1187 C1189 1.415 . S
C1188 C1187 1.355 . S
C1188 C1190 1.419 . S
C1189 C1184 1.425 . S
C1189 C1186 1.409 . S
C1189 C1187 1.415 . S
C1190 H1180 0.930 . S
C1190 C1188 1.419 . S
C1190 C1191 1.362 . S
C1191 H1181 0.930 . S
C1191 C1184 1.409 . S
C1191 C1190 1.362 . S
H1192 C1198 0.930 . S
H1193 C1201 0.930 . S
H1194 C1202 0.930 . S
H1195 C1203 0.930 . S
H1196 C1206 0.930 . S
H1197 C1207 0.930 . S
C1198 H1192 0.930 . S
C1198 C1199 1.355 . S
C1198 C1200 1.415 . S
C1199 C1198 1.355 . S
C1199 C1201 1.419 . S
C1200 C1198 1.415 . S
C1200 C1205 1.425 . S
C1200 C1207 1.409 . S
C1201 H1193 0.930 . S
C1201 C1199 1.419 . S
C1201 C1202 1.362 . S
C1202 H1194 0.930 . S
C1202 C1201 1.362 . S
C1202 C1205 1.409 . S
C1203 H1195 0.930 . S
C1203 C1204 1.355 . S
C1203 C1205 1.415 . S
C1204 C1203 1.355 . S
C1204 C1206 1.419 . S
C1205 C1200 1.425 . S
C1205 C1202 1.409 . S
C1205 C1203 1.415 . S
C1206 H1196 0.930 . S
C1206 C1204 1.419 . S
C1206 C1207 1.362 . S
C1207 H1197 0.930 . S
C1207 C1200 1.409 . S
C1207 C1206 1.362 . S
H1208 C1214 0.930 . S
H1209 C1217 0.930 . S
H1210 C1218 0.930 . S
H1211 C1219 0.930 . S
H1212 C1222 0.930 . S
H1213 C1223 0.930 . S
C1214 H1208 0.930 . S
C1214 C1215 1.355 . S
C1214 C1216 1.415 . S
C1215 C1214 1.355 . S
C1215 C1217 1.419 . S
C1216 C1214 1.415 . S
C1216 C1221 1.425 . S
C1216 C1223 1.409 . S
C1217 H1209 0.930 . S
C1217 C1215 1.419 . S
C1217 C1218 1.362 . S
C1218 H1210 0.930 . S
C1218 C1217 1.362 . S
C1218 C1221 1.409 . S
C1219 H1211 0.930 . S
C1219 C1220 1.355 . S
C1219 C1221 1.415 . S
C1220 C1219 1.355 . S
C1220 C1222 1.419 . S
C1221 C1216 1.425 . S
C1221 C1218 1.409 . S
C1221 C1219 1.415 . S
C1222 H1212 0.930 . S
C1222 C1220 1.419 . S
C1222 C1223 1.362 . S
C1223 H1213 0.930 . S
C1223 C1216 1.409 . S
C1223 C1222 1.362 . S
H1224 C1230 0.930 . S
H1225 C1233 0.930 . S
H1226 C1234 0.930 . S
H1227 C1235 0.930 . S
H1228 C1238 0.930 . S
H1229 C1239 0.930 . S
C1230 H1224 0.930 . S
C1230 C1231 1.355 . S
C1230 C1232 1.415 . S
C1231 C1230 1.355 . S
C1231 C1233 1.419 . S
C1232 C1230 1.415 . S
C1232 C1237 1.425 . S
C1232 C1239 1.409 . S
C1233 H1225 0.930 . S
C1233 C1231 1.419 . S
C1233 C1234 1.362 . S
C1234 H1226 0.930 . S
C1234 C1233 1.362 . S
C1234 C1237 1.409 . S
C1235 H1227 0.930 . S
C1235 C1236 1.355 . S
C1235 C1237 1.415 . S
C1236 C1235 1.355 . S
C1236 C1238 1.419 . S
C1237 C1232 1.425 . S
C1237 C1234 1.409 . S
C1237 C1235 1.415 . S
C1238 H1228 0.930 . S
C1238 C1236 1.419 . S
C1238 C1239 1.362 . S
C1239 H1229 0.930 . S
C1239 C1232 1.409 . S
C1239 C1238 1.362 . S
H1240 C1246 0.930 . S
H1241 C1249 0.930 . S
H1242 C1250 0.930 . S
H1243 C1251 0.930 . S
H1244 C1254 0.930 . S
H1245 C1255 0.930 . S
C1246 H1240 0.930 . S
C1246 C1247 1.355 . S
C1246 C1248 1.415 . S
C1247 C1246 1.355 . S
C1247 C1249 1.419 . S
C1248 C1246 1.415 . S
C1248 C1253 1.425 . S
C1248 C1255 1.409 . S
C1249 H1241 0.930 . S
C1249 C1247 1.419 . S
C1249 C1250 1.362 . S
C1250 H1242 0.930 . S
C1250 C1249 1.362 . S
C1250 C1253 1.409 . S
C1251 H1243 0.930 . S
C1251 C1252 1.355 . S
C1251 C1253 1.415 . S
C1252 C1251 1.355 . S
C1252 C1254 1.419 . S
C1253 C1248 1.425 . S
C1253 C1250 1.409 . S
C1253 C1251 1.415 . S
C1254 H1244 0.930 . S
C1254 C1252 1.419 . S
C1254 C1255 1.362 . S
C1255 H1245 0.930 . S
C1255 C1248 1.409 . S
C1255 C1254 1.362 . S
H1256 C1262 0.930 . S
H1257 C1265 0.930 . S
H1258 C1266 0.930 . S
H1259 C1267 0.930 . S
H1260 C1270 0.930 . S
H1261 C1271 0.930 . S
C1262 H1256 0.930 . S
C1262 C1263 1.355 . S
C1262 C1264 1.415 . S
C1263 C1262 1.355 . S
C1263 C1265 1.419 . S
C1264 C1262 1.415 . S
C1264 C1269 1.425 . S
C1264 C1271 1.409 . S
C1265 H1257 0.930 . S
C1265 C1263 1.419 . S
C1265 C1266 1.362 . S
C1266 H1258 0.930 . S
C1266 C1265 1.362 . S
C1266 C1269 1.409 . S
C1267 H1259 0.930 . S
C1267 C1268 1.355 . S
C1267 C1269 1.415 . S
C1268 C1267 1.355 . S
C1268 C1270 1.419 . S
C1269 C1264 1.425 . S
C1269 C1266 1.409 . S
C1269 C1267 1.415 . S
C1270 H1260 0.930 . S
C1270 C1268 1.419 . S
C1270 C1271 1.362 . S
C1271 H1261 0.930 . S
C1271 C1264 1.409 . S
C1271 C1270 1.362 . S
H1272 C1278 0.930 . S
H1273 C1281 0.930 . S
H1274 C1282 0.930 . S
H1275 C1283 0.930 . S
H1276 C1286 0.930 . S
H1277 C1287 0.930 . S
C1278 H1272 0.930 . S
C1278 C1279 1.355 . S
C1278 C1280 1.415 . S
C1279 C1278 1.355 . S
C1279 C1281 1.419 . S
C1280 C1278 1.415 . S
C1280 C1285 1.425 . S
C1280 C1287 1.409 . S
C1281 H1273 0.930 . S
C1281 C1279 1.419 . S
C1281 C1282 1.362 . S
C1282 H1274 0.930 . S
C1282 C1281 1.362 . S
C1282 C1285 1.409 . S
C1283 H1275 0.930 . S
C1283 C1284 1.355 . S
C1283 C1285 1.415 . S
C1284 C1283 1.355 . S
C1284 C1286 1.419 . S
C1285 C1280 1.425 . S
C1285 C1282 1.409 . S
C1285 C1283 1.415 . S
C1286 H1276 0.930 . S
C1286 C1284 1.419 . S
C1286 C1287 1.362 . S
C1287 H1277 0.930 . S
C1287 C1280 1.409 . S
C1287 C1286 1.362 . S
H1288 C1294 0.930 . S
H1289 C1297 0.930 . S
H1290 C1298 0.930 . S
H1291 C1299 0.930 . S
H1292 C1302 0.930 . S
H1293 C1303 0.930 . S
C1294 H1288 0.930 . S
C1294 C1295 1.355 . S
C1294 C1296 1.415 . S
C1295 C1294 1.355 . S
C1295 C1297 1.419 . S
C1296 C1294 1.415 . S
C1296 C1301 1.425 . S
C1296 C1303 1.409 . S
C1297 H1289 0.930 . S
C1297 C1295 1.419 . S
C1297 C1298 1.362 . S
C1298 H1290 0.930 . S
C1298 C1297 1.362 . S
C1298 C1301 1.409 . S
C1299 H1291 0.930 . S
C1299 C1300 1.355 . S
C1299 C1301 1.415 . S
C1300 C1299 1.355 . S
C1300 C1302 1.419 . S
C1301 C1296 1.425 . S
C1301 C1298 1.409 . S
C1301 C1299 1.415 . S
C1302 H1292 0.930 . S
C1302 C1300 1.419 . S
C1302 C1303 1.362 . S
C1303 H1293 0.930 . S
C1303 C1296 1.409 . S
C1303 C1302 1.362 . S
H1304 C1310 0.930 . S
H1305 C1313 0.930 . S
H1306 C1314 0.930 . S
H1307 C1315 0.930 . S
H1308 C1318 0.930 . S
H1309 C1319 0.930 . S
C1310 H1304 0.930 . S
C1310 C1311 1.355 . S
C1310 C1312 1.415 . S
C1311 C1310 1.355 . S
C1311 C1313 1.419 . S
C1312 C1310 1.415 . S
C1312 C1317 1.425 . S
C1312 C1319 1.409 . S
C1313 H1305 0.930 . S
C1313 C1311 1.419 . S
C1313 C1314 1.362 . S
C1314 H1306 0.930 . S
C1314 C1313 1.362 . S
C1314 C1317 1.409 . S
C1315 H1307 0.930 . S
C1315 C1316 1.355 . S
C1315 C1317 1.415 . S
C1316 C1315 1.355 . S
C1316 C1318 1.419 . S
C1317 C1312 1.425 . S
C1317 C1314 1.409 . S
C1317 C1315 1.415 . S
C1318 H1308 0.930 . S
C1318 C1316 1.419 . S
C1318 C1319 1.362 . S
C1319 H1309 0.930 . S
C1319 C1312 1.409 . S
C1319 C1318 1.362 . S
H1320 C1326 0.930 . S
H1321 C1329 0.930 . S
H1322 C1330 0.930 . S
H1323 C1331 0.930 . S
H1324 C1334 0.930 . S
H1325 C1335 0.914 1_455 S
C1326 H1320 0.930 . S
C1326 C1327 1.355 . S
C1326 C1328 1.415 . S
C1327 C1326 1.355 . S
C1327 C1329 1.419 . S
C1328 C1326 1.415 . S
C1328 C1333 1.425 . S
C1328 C1335 1.430 . S
C1329 H1321 0.930 . S
C1329 C1327 1.419 . S
C1329 C1330 1.362 . S
C1330 H1322 0.930 . S
C1330 C1329 1.362 . S
C1330 C1333 1.409 . S
C1331 H1323 0.930 . S
C1331 C1332 1.355 . S
C1331 C1333 1.415 . S
C1332 C1331 1.355 . S
C1332 C1334 1.419 1_655 S
C1333 C1328 1.425 . S
C1333 C1330 1.409 . S
C1333 C1331 1.415 . S
C1334 H1324 0.930 . S
C1334 C1332 1.419 1_455 S
C1334 C1335 1.358 1_455 S
C1335 H1325 0.914 1_655 S
C1335 C1328 1.430 . S
C1335 C1334 1.358 1_655 S
H1336 C1342 0.930 . S
H1337 C1345 0.930 . S
H1338 C1346 0.930 . S
H1339 C1347 0.930 . S
H1340 C1350 0.930 . S
H1341 C1351 0.930 . S
C1342 H1336 0.930 . S
C1342 C1343 1.355 . S
C1342 C1344 1.415 . S
C1343 C1342 1.355 . S
C1343 C1345 1.419 . S
C1344 C1342 1.415 . S
C1344 C1349 1.425 . S
C1344 C1351 1.409 . S
C1345 H1337 0.930 . S
C1345 C1343 1.419 . S
C1345 C1346 1.362 . S
C1346 H1338 0.930 . S
C1346 C1345 1.362 . S
C1346 C1349 1.409 . S
C1347 H1339 0.930 . S
C1347 C1348 1.355 . S
C1347 C1349 1.415 . S
C1348 C1347 1.355 . S
C1348 C1350 1.419 . S
C1349 C1344 1.425 . S
C1349 C1346 1.409 . S
C1349 C1347 1.415 . S
C1350 H1340 0.930 . S
C1350 C1348 1.419 . S
C1350 C1351 1.362 . S
C1351 H1341 0.930 . S
C1351 C1344 1.409 . S
C1351 C1350 1.362 . S
H1352 C1358 0.930 . S
H1353 C1361 0.885 1_554 S
H1354 C1362 0.930 . S
H1355 C1363 0.930 . S
H1356 C1366 0.930 . S
H1357 C1367 0.930 . S
C1358 H1352 0.930 . S
C1358 C1359 1.355 . S
C1358 C1360 1.415 . S
C1359 C1358 1.355 . S
C1359 C1361 1.419 . S
C1360 C1358 1.415 . S
C1360 C1365 1.425 . S
C1360 C1367 1.409 . S
C1361 H1353 0.885 1_556 S
C1361 C1359 1.419 . S
C1361 C1362 1.362 . S
C1362 H1354 0.930 . S
C1362 C1361 1.362 . S
C1362 C1365 1.409 . S
C1363 H1355 0.930 . S
C1363 C1364 1.355 . S
C1363 C1365 1.415 . S
C1364 C1363 1.355 . S
C1364 C1366 1.419 . S
C1365 C1360 1.425 . S
C1365 C1362 1.409 . S
C1365 C1363 1.415 . S
C1366 H1356 0.930 . S
C1366 C1364 1.419 . S
C1366 C1367 1.362 . S
C1367 H1357 0.930 . S
C1367 C1360 1.409 . S
C1367 C1366 1.362 . S
H1368 C1374 0.930 . S
H1369 C1377 0.930 . S
H1370 C1378 0.930 . S
H1371 C1379 0.930 . S
H1372 C1382 0.930 . S
H1373 C1383 0.930 . S
C1374 H1368 0.930 . S
C1374 C1375 1.355 . S
C1374 C1376 1.415 . S
C1375 C1374 1.355 . S
C1375 C1377 1.419 . S
C1376 C1374 1.415 . S
C1376 C1381 1.425 . S
C1376 C1383 1.409 . S
C1377 H1369 0.930 . S
C1377 C1375 1.419 . S
C1377 C1378 1.362 . S
C1378 H1370 0.930 . S
C1378 C1377 1.362 . S
C1378 C1381 1.409 . S
C1379 H1371 0.930 . S
C1379 C1380 1.355 . S
C1379 C1381 1.415 . S
C1380 C1379 1.355 . S
C1380 C1382 1.419 . S
C1381 C1376 1.425 . S
C1381 C1378 1.409 . S
C1381 C1379 1.415 . S
C1382 H1372 0.930 . S
C1382 C1380 1.419 . S
C1382 C1383 1.362 . S
C1383 H1373 0.930 . S
C1383 C1376 1.409 . S
C1383 C1382 1.362 . S
H1384 C1390 0.930 . S
H1385 C1393 0.930 . S
H1386 C1394 0.930 . S
H1387 C1395 0.930 . S
H1388 C1398 0.930 . S
H1389 C1399 0.930 . S
C1390 H1384 0.930 . S
C1390 C1391 1.355 . S
C1390 C1392 1.415 . S
C1391 C1390 1.355 . S
C1391 C1393 1.419 . S
C1392 C1390 1.415 . S
C1392 C1397 1.425 . S
C1392 C1399 1.409 . S
C1393 H1385 0.930 . S
C1393 C1391 1.419 . S
C1393 C1394 1.362 . S
C1394 H1386 0.930 . S
C1394 C1393 1.362 . S
C1394 C1397 1.409 . S
C1395 H1387 0.930 . S
C1395 C1396 1.355 . S
C1395 C1397 1.415 . S
C1396 C1395 1.355 . S
C1396 C1398 1.419 . S
C1397 C1392 1.425 . S
C1397 C1394 1.409 . S
C1397 C1395 1.415 . S
C1398 H1388 0.930 . S
C1398 C1396 1.419 . S
C1398 C1399 1.362 . S
C1399 H1389 0.930 . S
C1399 C1392 1.409 . S
C1399 C1398 1.362 . S
H1400 C1406 0.930 . S
H1401 C1409 0.930 . S
H1402 C1410 0.930 . S
H1403 C1411 0.930 . S
H1404 C1414 0.930 . S
H1405 C1415 0.930 . S
C1406 H1400 0.930 . S
C1406 C1407 1.355 . S
C1406 C1408 1.415 . S
C1407 C1406 1.355 . S
C1407 C1409 1.419 . S
C1408 C1406 1.415 . S
C1408 C1413 1.425 . S
C1408 C1415 1.409 . S
C1409 H1401 0.930 . S
C1409 C1407 1.419 . S
C1409 C1410 1.362 . S
C1410 H1402 0.930 . S
C1410 C1409 1.362 . S
C1410 C1413 1.409 . S
C1411 H1403 0.930 . S
C1411 C1412 1.355 . S
C1411 C1413 1.415 . S
C1412 C1411 1.355 . S
C1412 C1414 1.419 . S
C1413 C1408 1.425 . S
C1413 C1410 1.409 . S
C1413 C1411 1.415 . S
C1414 H1404 0.930 . S
C1414 C1412 1.419 . S
C1414 C1415 1.362 . S
C1415 H1405 0.930 . S
C1415 C1408 1.409 . S
C1415 C1414 1.362 . S
H1416 C1422 0.930 . S
H1417 C1425 0.930 . S
H1418 C1426 0.930 . S
H1419 C1427 0.930 . S
H1420 C1430 0.930 . S
H1421 C1431 0.930 . S
C1422 H1416 0.930 . S
C1422 C1423 1.355 . S
C1422 C1424 1.415 . S
C1423 C1422 1.355 . S
C1423 C1425 1.419 . S
C1424 C1422 1.415 . S
C1424 C1429 1.425 . S
C1424 C1431 1.409 . S
C1425 H1417 0.930 . S
C1425 C1423 1.419 . S
C1425 C1426 1.362 . S
C1426 H1418 0.930 . S
C1426 C1425 1.362 . S
C1426 C1429 1.409 . S
C1427 H1419 0.930 . S
C1427 C1428 1.355 . S
C1427 C1429 1.415 . S
C1428 C1427 1.355 . S
C1428 C1430 1.419 . S
C1429 C1424 1.425 . S
C1429 C1426 1.409 . S
C1429 C1427 1.415 . S
C1430 H1420 0.930 . S
C1430 C1428 1.419 . S
C1430 C1431 1.362 . S
C1431 H1421 0.930 . S
C1431 C1424 1.409 . S
C1431 C1430 1.362 . S
H1432 C1438 0.930 . S
H1433 C1441 0.930 . S
H1434 C1442 0.930 . S
H1435 C1443 0.930 . S
H1436 C1446 0.930 . S
H1437 C1447 0.930 . S
C1438 H1432 0.930 . S
C1438 C1439 1.355 . S
C1438 C1440 1.415 . S
C1439 C1438 1.355 . S
C1439 C1441 1.419 . S
C1440 C1438 1.415 . S
C1440 C1445 1.425 . S
C1440 C1447 1.409 . S
C1441 H1433 0.930 . S
C1441 C1439 1.419 . S
C1441 C1442 1.362 . S
C1442 H1434 0.930 . S
C1442 C1441 1.362 . S
C1442 C1445 1.409 . S
C1443 H1435 0.930 . S
C1443 C1444 1.355 . S
C1443 C1445 1.415 . S
C1444 C1443 1.355 . S
C1444 C1446 1.419 . S
C1445 C1440 1.425 . S
C1445 C1442 1.409 . S
C1445 C1443 1.415 . S
C1446 H1436 0.930 . S
C1446 C1444 1.419 . S
C1446 C1447 1.362 . S
C1447 H1437 0.930 . S
C1447 C1440 1.409 . S
C1447 C1446 1.362 . S
H1448 C1454 0.930 . S
H1449 C1457 0.930 . S
H1450 C1458 0.930 . S
H1451 C1459 0.930 . S
H1452 C1462 0.930 . S
H1453 C1463 0.930 . S
C1454 H1448 0.930 . S
C1454 C1455 1.355 . S
C1454 C1456 1.415 . S
C1455 C1454 1.355 . S
C1455 C1457 1.419 . S
C1456 C1454 1.415 . S
C1456 C1461 1.425 . S
C1456 C1463 1.409 . S
C1457 H1449 0.930 . S
C1457 C1455 1.419 . S
C1457 C1458 1.362 . S
C1458 H1450 0.930 . S
C1458 C1457 1.362 . S
C1458 C1461 1.409 . S
C1459 H1451 0.930 . S
C1459 C1460 1.355 . S
C1459 C1461 1.415 . S
C1460 C1459 1.355 . S
C1460 C1462 1.419 . S
C1461 C1456 1.425 . S
C1461 C1458 1.409 . S
C1461 C1459 1.415 . S
C1462 H1452 0.930 . S
C1462 C1460 1.419 . S
C1462 C1463 1.362 . S
C1463 H1453 0.930 . S
C1463 C1456 1.409 . S
C1463 C1462 1.362 . S
H1464 C1470 0.930 . S
H1465 C1473 0.930 . S
H1466 C1474 0.930 . S
H1467 C1475 0.930 . S
H1468 C1478 0.930 . S
H1469 C1479 0.930 . S
C1470 H1464 0.930 . S
C1470 C1471 1.355 . S
C1470 C1472 1.415 . S
C1471 C1470 1.355 . S
C1471 C1473 1.419 . S
C1472 C1470 1.415 . S
C1472 C1477 1.425 . S
C1472 C1479 1.409 . S
C1473 H1465 0.930 . S
C1473 C1471 1.419 . S
C1473 C1474 1.362 . S
C1474 H1466 0.930 . S
C1474 C1473 1.362 . S
C1474 C1477 1.409 . S
C1475 H1467 0.930 . S
C1475 C1476 1.355 . S
C1475 C1477 1.415 . S
C1476 C1475 1.355 . S
C1476 C1478 1.419 . S
C1477 C1472 1.425 . S
C1477 C1474 1.409 . S
C1477 C1475 1.415 . S
C1478 H1468 0.930 . S
C1478 C1476 1.419 . S
C1478 C1479 1.362 . S
C1479 H1469 0.930 . S
C1479 C1472 1.409 . S
C1479 C1478 1.362 . S
H1480 C1486 0.930 . S
H1481 C1489 0.930 . S
H1482 C1490 0.930 . S
H1483 C1491 0.930 . S
H1484 C1494 0.930 . S
H1485 C1495 0.930 . S
C1486 H1480 0.930 . S
C1486 C1487 1.355 . S
C1486 C1488 1.415 . S
C1487 C1486 1.355 . S
C1487 C1489 1.419 . S
C1488 C1486 1.415 . S
C1488 C1493 1.425 . S
C1488 C1495 1.409 . S
C1489 H1481 0.930 . S
C1489 C1487 1.419 . S
C1489 C1490 1.362 . S
C1490 H1482 0.930 . S
C1490 C1489 1.362 . S
C1490 C1493 1.409 . S
C1491 H1483 0.930 . S
C1491 C1492 1.355 . S
C1491 C1493 1.415 . S
C1492 C1491 1.355 . S
C1492 C1494 1.419 . S
C1493 C1488 1.425 . S
C1493 C1490 1.409 . S
C1493 C1491 1.415 . S
C1494 H1484 0.930 . S
C1494 C1492 1.419 . S
C1494 C1495 1.362 . S
C1495 H1485 0.930 . S
C1495 C1488 1.409 . S
C1495 C1494 1.362 . S
H1496 C1502 0.930 1_554 S
H1497 C1505 0.930 . S
H1498 C1506 0.930 . S
H1499 C1507 0.930 . S
H1500 C1510 0.930 . S
H1501 C1511 0.930 . S
C1502 H1496 0.930 1_556 S
C1502 C1503 1.355 . S
C1502 C1504 1.415 . S
C1503 C1502 1.355 . S
C1503 C1505 1.419 . S
C1504 C1502 1.415 . S
C1504 C1509 1.425 . S
C1504 C1511 1.409 1_556 S
C1505 H1497 0.930 . S
C1505 C1503 1.419 . S
C1505 C1506 1.362 . S
C1506 H1498 0.930 . S
C1506 C1505 1.362 . S
C1506 C1509 1.409 . S
C1507 H1499 0.930 . S
C1507 C1508 1.355 . S
C1507 C1509 1.415 . S
C1508 C1507 1.355 . S
C1508 C1510 1.419 1_556 S
C1509 C1504 1.425 . S
C1509 C1506 1.409 . S
C1509 C1507 1.415 . S
C1510 H1500 0.930 . S
C1510 C1508 1.419 1_554 S
C1510 C1511 1.362 . S
C1511 H1501 0.930 . S
C1511 C1504 1.409 1_554 S
C1511 C1510 1.362 . S
H1512 C1518 0.930 . S
H1513 C1521 0.930 . S
H1514 C1522 0.930 . S
H1515 C1523 0.930 . S
H1516 C1526 0.930 . S
H1517 C1527 0.930 . S
C1518 H1512 0.930 . S
C1518 C1519 1.355 . S
C1518 C1520 1.415 . S
C1519 C1518 1.355 . S
C1519 C1521 1.419 . S
C1520 C1518 1.415 . S
C1520 C1525 1.425 . S
C1520 C1527 1.409 . S
C1521 H1513 0.930 . S
C1521 C1519 1.419 . S
C1521 C1522 1.362 . S
C1522 H1514 0.930 . S
C1522 C1521 1.362 . S
C1522 C1525 1.409 . S
C1523 H1515 0.930 . S
C1523 C1524 1.355 . S
C1523 C1525 1.415 . S
C1524 C1523 1.355 . S
C1524 C1526 1.419 . S
C1525 C1520 1.425 . S
C1525 C1522 1.409 . S
C1525 C1523 1.415 . S
C1526 H1516 0.930 . S
C1526 C1524 1.419 . S
C1526 C1527 1.362 . S
C1527 H1517 0.930 . S
C1527 C1520 1.409 . S
C1527 C1526 1.362 . S
H1528 C1534 0.930 . S
H1529 C1537 0.930 . S
H1530 C1538 0.930 . S
H1531 C1539 0.930 . S
H1532 C1542 0.930 . S
H1533 C1543 0.935 1_556 S
C1534 H1528 0.930 . S
C1534 C1535 1.355 . S
C1534 C1536 1.415 . S
C1535 C1534 1.355 . S
C1535 C1537 1.419 . S
C1536 C1534 1.415 . S
C1536 C1541 1.425 . S
C1536 C1543 1.405 . S
C1537 H1529 0.930 . S
C1537 C1535 1.419 . S
C1537 C1538 1.362 . S
C1538 H1530 0.930 . S
C1538 C1537 1.362 . S
C1538 C1541 1.409 . S
C1539 H1531 0.930 . S
C1539 C1540 1.355 . S
C1539 C1541 1.415 . S
C1540 C1539 1.355 . S
C1540 C1542 1.419 1_554 S
C1541 C1536 1.425 . S
C1541 C1538 1.409 . S
C1541 C1539 1.415 . S
C1542 H1532 0.930 . S
C1542 C1540 1.419 1_556 S
C1542 C1543 1.363 1_556 S
C1543 H1533 0.935 1_554 S
C1543 C1536 1.405 . S
C1543 C1542 1.363 1_554 S
H1544 C1550 0.930 . S
H1545 C1553 0.913 1_545 S
H1546 C1554 0.930 . S
H1547 C1555 0.930 . S
H1548 C1558 0.930 . S
H1549 C1559 0.930 . S
C1550 H1544 0.930 . S
C1550 C1551 1.355 . S
C1550 C1552 1.415 . S
C1551 C1550 1.355 . S
C1551 C1553 1.419 . S
C1552 C1550 1.415 . S
C1552 C1557 1.425 . S
C1552 C1559 1.409 . S
C1553 H1545 0.913 1_565 S
C1553 C1551 1.419 . S
C1553 C1554 1.362 . S
C1554 H1546 0.930 . S
C1554 C1553 1.362 . S
C1554 C1557 1.409 . S
C1555 H1547 0.930 . S
C1555 C1556 1.355 . S
C1555 C1557 1.415 . S
C1556 C1555 1.355 . S
C1556 C1558 1.419 . S
C1557 C1552 1.425 . S
C1557 C1554 1.409 . S
C1557 C1555 1.415 . S
C1558 H1548 0.930 . S
C1558 C1556 1.419 . S
C1558 C1559 1.362 . S
C1559 H1549 0.930 . S
C1559 C1552 1.409 . S
C1559 C1558 1.362 . S
C804 C632 1.498 . S
C799 C211 1.501 . S
C820 C645 1.472 . S
C815 C255 1.478 . S
C831 C274 1.636 . S
C836 C665 1.481 . S
C852 C679 1.341 . S
C847 C157 1.456 . S
C868 C691 1.515 . S
C863 C391 1.518 . S
C884 C705 1.431 . S
C879 C484 1.433 . S
C895 C450 1.481 . S
C900 C715 1.473 . S
C916 C730 1.492 . S
C911 C352 1.537 . S
C927 C430 1.506 . S
C932 C744 1.467 . S
C948 C763 1.395 . S
C943 C367 1.456 . S
C959 C411 1.503 . S
C964 C743 1.498 . S
C980 C761 1.428 . S
C975 C469 1.423 . S
C991 C294 1.646 . S
C996 C777 1.509 . S
C1007 C177 1.493 . S
C1012 C771 1.487 . S
C1023 C196 1.509 . S
C1028 C775 1.511 . S
C1039 C235 1.538 . S
C1044 C772 1.486 . S
C1055 C133 1.515 . S
C1060 C674 1.488 . S
C1071 C567 1.480 . S
C1076 C673 1.468 . S
C1092 C637 1.393 . S
C1087 C601 1.439 . S
C1108 C651 1.572 . S
C1103 C328 1.650 . S
C1119 C172 1.530 . S
C1124 C688 1.502 . S
C1140 C733 1.501 . S
C1135 C445 1.511 . S
C1156 C687 1.485 . S
C1151 C372 1.502 . S
C1172 C719 1.420 . S
C1167 C489 1.422 . S
C1188 C716 1.479 . S
C1183 C562 1.501 . S
C1199 C606 1.475 . S
C1204 C729 1.482 . S
C1215 C313 1.647 . S
C1220 C693 1.499 . S
C1236 C707 1.336 . S
C1231 C508 1.454 . S
C1247 C118 1.518 . S
C1252 C663 1.523 . S
C1268 C677 1.427 . S
C1263 C16 1.433 . S
C1284 C631 1.468 . S
C1279 C60 1.479 . S
C1300 C646 1.506 . S
C1295 C79 1.537 . S
C1311 C40 1.510 . S
C1316 C758 1.462 . S
C1327 C94 1.461 . S
C1332 C749 1.360 . S
C1343 C138 1.503 . S
C1348 C757 1.500 . S
C1359 C1 1.427 . S
C1364 C747 1.418 . S
C1380 C791 1.564 . S
C1375 C333 1.636 . S
C1396 C785 1.472 . S
C1391 C528 1.493 . S
C1412 C789 1.500 . S
C1407 C547 1.509 . S
C1423 C586 1.537 . S
C1428 C786 1.483 . S
C1439 C406 1.509 . S
C1444 C702 1.506 . S
C1460 C701 1.476 . S
C1455 C216 1.480 . S
C1476 C721 1.337 . S
C1471 C250 1.447 . S
C1492 C735 1.506 . S
C1487 C289 1.648 . S
C1503 C523 1.534 . S
C1508 C660 1.525 . S
C1524 C649 1.516 . S
C1519 C55 1.510 . S
C1535 C99 1.506 . S
C1540 C659 1.482 . S
C1556 C635 1.416 . S
C1551 C21 1.418 . S
