# Generated by pormake.
# Topology pth, (4,4)-cn, num edge types: 1
# Building blocks:
#     Node 0, Type 0, BuildingBlock: UXUYUI_clean_sbu_0, # of connection points: 4
#     Node 1, Type 0, BuildingBlock: UXUYUI_clean_sbu_0, # of connection points: 4
#     Node 2, Type 0, BuildingBlock: UXUYUI_clean_sbu_0, # of connection points: 4
#     Node 3, Type 1, BuildingBlock: NAHDIM_clean_linker_0, # of connection points: 4
#     Node 4, Type 1, BuildingBlock: NAHDIM_clean_linker_0, # of connection points: 4
#     Node 5, Type 1, BuildingBlock: NAHDIM_clean_linker_0, # of connection points: 4
#     Edge 6, Type (0, 1), None
#     Edge 7, Type (0, 1), None
#     Edge 8, Type (0, 1), None
#     Edge 9, Type (0, 1), None
#     Edge 10, Type (0, 1), None
#     Edge 11, Type (0, 1), None
#     Edge 12, Type (0, 1), None
#     Edge 13, Type (0, 1), None
#     Edge 14, Type (0, 1), None
#     Edge 15, Type (0, 1), None
#     Edge 16, Type (0, 1), None
#     Edge 17, Type (0, 1), None
# Relax obj value: 0.093
# Max RMSD: 0.221
# Mean RMSD: 0.135
data_MOF--net-pth--node1-UXUYUI_clean_sbu_0--node2-NAHDIM_clean_linker_0--edge1-none
_symmetry_space_group_name_H-M    P1
_symmetry_Int_Tables_number       1
_symmetry_cell_setting            triclinic
loop_
_symmetry_equiv_pos_as_xyz
'x, y, z'
_cell_length_a     24.465439
_cell_length_b     24.415705
_cell_length_c     62.301759
_cell_angle_alpha  89.671479
_cell_angle_beta   90.197842
_cell_angle_gamma 119.92618
loop_
_atom_site_label
_atom_site_type_symbol
_atom_site_fract_x
_atom_site_fract_y
_atom_site_fract_z
_atom_type_partial_charge
Li0 Li 0.07833 0.08391 0.04687 0.0
Li1 Li 0.00726 0.08417 0.07357 0.0
Li2 Li 0.0349 -0.00055 0.07399 0.0
Li3 Li 0.96596 0.00075 0.04638 0.0
C4 C 0.15438 0.12229 0.08254 0.0
N5 N 0.28223 0.18461 0.09129 0.0
C6 C 0.18665 0.18725 0.08653 0.0
C7 C 0.187 0.08889 0.08343 0.0
C8 C 0.25132 0.21795 0.0908 0.0
C9 C 0.25164 0.12126 0.08775 0.0
C10 C 0.97052 0.12424 0.0379 0.0
C11 C 0.8725 0.12389 0.03289 0.0
N12 N 0.90527 0.18721 0.0291 0.0
C13 C 0.00321 0.18917 0.03366 0.0
C14 C 0.90463 0.0912 0.03724 0.0
C15 C 0.9694 0.22021 0.02937 0.0
C16 C 0.14875 0.11821 0.00871 0.0
N17 N 0.14148 0.13994 0.02791 0.0
C18 C 0.1919 0.24582 0.01464 0.0
C19 C 0.16374 0.20243 0.03132 0.0
C20 C 0.19731 0.22443 0.99428 0.0
C21 C 0.17765 0.16012 0.99166 0.0
H22 H 0.12748 0.06795 0.00606 0.0
H23 H 0.15412 0.21782 0.04635 0.0
C24 C 0.97253 0.11824 0.11191 0.0
N25 N 0.0008 0.14022 0.09257 0.0
C26 C 0.98649 0.15984 0.12901 0.0
C27 C 0.0571 0.24577 0.10575 0.0
C28 C 0.04097 0.2027 0.08903 0.0
C29 C 0.03126 0.22407 0.12625 0.0
H30 H 0.9435 0.06796 0.11461 0.0
H31 H 0.06536 0.21824 0.07387 0.0
C32 C 0.07287 0.95918 0.03879 0.0
N33 N 0.13552 0.89348 0.03062 0.0
C34 C 0.03891 0.89455 0.03427 0.0
C35 C 0.13876 0.99053 0.03875 0.0
C36 C 0.07139 0.86212 0.0303 0.0
C37 C 0.16956 0.95648 0.0347 0.0
C38 C 0.88723 0.95983 0.08159 0.0
C39 C 0.8562 0.89491 0.08584 0.0
C40 C 0.85318 0.9918 0.08192 0.0
C41 C 0.79136 0.86282 0.08981 0.0
C42 C 0.7884 0.95807 0.08596 0.0
N43 N 0.75906 0.89478 0.08976 0.0
C44 C 0.06456 0.9656 0.1133 0.0
C45 C 0.00129 0.8806 0.08999 0.0
C46 C 0.04757 0.92431 0.13077 0.0
N47 N 0.04001 0.94325 0.09357 0.0
C48 C 0.98228 0.8378 0.10704 0.0
C49 C 0.00393 0.85994 0.12788 0.0
H50 H 0.09232 0.01597 0.11593 0.0
H51 H 0.97955 0.86471 0.07445 0.0
C52 C 0.90355 0.96921 0.00699 0.0
N53 N 0.905 0.94593 0.02671 0.0
C54 C 0.88041 0.92877 0.98941 0.0
C55 C 0.85871 0.8412 0.01301 0.0
C56 C 0.88123 0.88313 0.03017 0.0
C57 C 0.86025 0.86435 0.99217 0.0
H58 H 0.92606 0.0197 0.00447 0.0
H59 H 0.88656 0.86654 0.04571 0.0
O60 O 0.09088 0.09135 0.07848 0.0
O61 O 0.00294 0.09298 0.04198 0.0
O62 O 0.04177 0.99185 0.0425 0.0
O63 O 0.95091 0.99215 0.07787 0.0
H64 H 0.16216 0.21381 0.08631 0.0
H65 H 0.16266 0.0384 0.08093 0.0
H66 H 0.27689 0.26828 0.09378 0.0
H67 H 0.27744 0.09595 0.08837 0.0
H68 H 0.82149 0.09885 0.03243 0.0
H69 H 0.05417 0.21546 0.03372 0.0
H70 H 0.87846 0.04073 0.03992 0.0
H71 H 0.99416 0.27052 0.0262 0.0
H72 H 0.20533 0.29472 0.01732 0.0
H73 H 0.18028 0.14188 0.97612 0.0
H74 H 0.96631 0.14136 0.14465 0.0
H75 H 0.09261 0.29461 0.10295 0.0
H76 H 0.98798 0.86951 0.03389 0.0
H77 H 0.16597 0.04078 0.04163 0.0
H78 H 0.04561 0.81203 0.02691 0.0
H79 H 0.22054 0.98021 0.03472 0.0
H80 H 0.88174 0.8694 0.08602 0.0
H81 H 0.87653 0.04226 0.07926 0.0
H82 H 0.76676 0.81251 0.09298 0.0
H83 H 0.76151 0.98227 0.08616 0.0
H84 H 0.06409 0.9432 0.14666 0.0
H85 H 0.94732 0.78887 0.10418 0.0
H86 H 0.88348 0.94841 0.97353 0.0
H87 H 0.84506 0.79221 0.01581 0.0
Li88 Li 0.01367 0.99214 0.3766 0.0
Li89 Li 0.08668 0.05317 0.40498 0.0
Li90 Li 0.98654 0.05276 0.40126 0.0
Li91 Li 0.07306 0.11186 0.37547 0.0
C92 C 0.96779 0.91872 0.41165 0.0
N93 N 0.90314 0.7891 0.41747 0.0
C94 C -0.0016 0.88834 0.42042 0.0
C95 C 0.90402 0.88317 0.40615 0.0
C96 C 0.96496 0.8228 0.42319 0.0
C97 C 0.87225 0.81769 0.4091 0.0
C98 C 0.16643 0.06978 0.36846 0.0
C99 C 0.27637 0.1495 0.36613 0.0
N100 N 0.28921 0.1066 0.35708 0.0
C101 C 0.1806 0.02668 0.35889 0.0
C102 C 0.21459 0.1318 0.37189 0.0
C103 C 0.24299 0.04611 0.35336 0.0
C104 C 0.9381 0.88754 0.34781 0.0
N105 N 0.98697 0.91446 0.36192 0.0
C106 C -0.0016 0.82284 0.36149 0.0
C107 C 0.01831 0.88423 0.36824 0.0
C108 C 0.94604 0.79234 0.34786 0.0
C109 C 0.91674 0.82599 0.34049 0.0
H110 H 0.91456 0.91288 0.34274 0.0
H111 H 0.05725 0.90698 0.37938 0.0
C112 C 0.11598 0.03968 0.44674 0.0
N113 N 0.13588 0.04178 0.42625 0.0
C114 C 0.13361 0.01221 0.46297 0.0
C115 C 0.19256 0.98985 0.43682 0.0
C116 C 0.17494 0.01919 0.42114 0.0
C117 C 0.16993 0.98428 0.45791 0.0
H118 H 0.08179 0.05405 0.45019 0.0
H119 H 0.18783 0.01861 0.40465 0.0
C120 C 0.92577 0.04981 0.36561 0.0
N121 N 0.81409 0.05015 0.35919 0.0
C122 C 0.92626 0.10673 0.36261 0.0
C123 C 0.86842 0.99295 0.36534 0.0
C124 C 0.86938 0.10602 0.35939 0.0
C125 C 0.81247 0.9941 0.36208 0.0
C126 C 0.10239 0.15789 0.42506 0.0
C127 C 0.06803 0.15859 0.44287 0.0
C128 C 0.16821 0.18849 0.42633 0.0
C129 C 0.09991 0.18939 0.46158 0.0
C130 C 0.19837 0.21869 0.44534 0.0
N131 N 0.16389 0.21852 0.46243 0.0
C132 C 0.89582 0.01217 0.43383 0.0
C133 C 0.91576 0.10747 0.41679 0.0
C134 C 0.86142 0.02073 0.44994 0.0
N135 N 0.9231 0.05584 0.41792 0.0
C136 C 0.88139 0.11773 0.43253 0.0
C137 C 0.85518 0.07483 0.4497 0.0
H138 H 0.90444 0.973 0.43493 0.0
H139 H 0.94078 0.1433 0.40472 0.0
C140 C 0.08514 0.17191 0.33264 0.0
N141 N 0.11063 0.18481 0.35739 0.0
C142 C 0.11075 0.23585 0.31415 0.0
C143 C 0.19634 0.32309 0.35388 0.0
C144 C 0.16261 0.25094 0.36863 0.0
C145 C 0.15439 0.31354 0.32799 0.0
H146 H 0.05125 0.12451 0.32764 0.0
H147 H 0.17503 0.25137 0.3853 0.0
O148 O 0.00022 0.98272 0.40817 0.0
O149 O 0.10558 0.05137 0.37408 0.0
O150 O 0.98122 0.04993 0.36875 0.0
O151 O 0.07186 0.12771 0.40655 0.0
H152 H 0.04764 0.91476 0.42477 0.0
H153 H 0.87938 0.90589 0.39961 0.0
H154 H 0.98825 0.79871 0.4298 0.0
H155 H 0.82303 0.7896 0.40474 0.0
H156 H 0.31407 0.19738 0.36878 0.0
H157 H 0.14393 0.97869 0.35577 0.0
H158 H 0.20436 0.16604 0.37876 0.0
H159 H 0.25464 0.01313 0.34607 0.0
H160 H 0.02238 0.79868 0.36749 0.0
H161 H 0.87641 0.80406 0.32984 0.0
H162 H 0.11481 0.00824 0.47898 0.0
H163 H 0.22021 0.96844 0.43214 0.0
H164 H 0.97005 0.15101 0.36332 0.0
H165 H 0.86697 0.94839 0.36763 0.0
H166 H 0.86917 0.1499 0.35718 0.0
H167 H 0.76776 0.95042 0.36185 0.0
H168 H 0.01731 0.1353 0.44247 0.0
H169 H 0.19593 0.18835 0.41295 0.0
H170 H 0.07372 0.18997 0.47545 0.0
H171 H 0.24922 0.24215 0.44652 0.0
H172 H 0.84277 0.98711 0.46308 0.0
H173 H 0.87861 0.16062 0.43205 0.0
H174 H 0.08888 0.22997 0.29857 0.0
H175 H 0.22389 0.36827 0.36171 0.0
Li176 Li 0.0666 0.05052 0.71223 0.0
Li177 Li 0.061 0.11946 0.73933 0.0
Li178 Li 0.98009 0.00653 0.73723 0.0
Li179 Li 0.98555 0.08272 0.71052 0.0
C180 C 0.11882 0.0323 0.74681 0.0
N181 N 0.21908 0.0105 0.75043 0.0
C182 C 0.17827 0.08103 0.75294 0.0
C183 C 0.11039 0.97238 0.74254 0.0
C184 C 0.22833 0.06908 0.75473 0.0
C185 C 0.16167 0.96236 0.74441 0.0
C186 C 0.08399 0.1655 0.68878 0.0
C187 C 0.07593 0.24317 0.66688 0.0
N188 N 0.08908 0.21969 0.64914 0.0
C189 C 0.09707 0.14201 0.67025 0.0
C190 C 0.07308 0.21642 0.68702 0.0
C191 C 0.09961 0.17011 0.65041 0.0
C192 C 0.10576 0.97894 0.68667 0.0
N193 N 0.1251 0.03401 0.69736 0.0
C194 C 0.23314 0.06358 0.69238 0.0
C195 C 0.18733 0.07715 0.69962 0.0
C196 C 0.21462 0.00546 0.68242 0.0
C197 C 0.15004 0.9636 0.67901 0.0
H198 H 0.05606 0.94602 0.68471 0.0
H199 H 0.20128 0.12089 0.70798 0.0
C200 C 0.12055 0.1717 0.78245 0.0
N201 N 0.10889 0.18903 0.75809 0.0
C202 C 0.16171 0.23283 0.80155 0.0
C203 C 0.16801 0.32745 0.76335 0.0
C204 C 0.12649 0.25765 0.74788 0.0
C205 C 0.19894 0.31243 0.7886 0.0
H206 H 0.10321 0.12296 0.78696 0.0
H207 H 0.11356 0.26095 0.73163 0.0
C208 C 0.92747 0.93842 0.7024 0.0
N209 N 0.82649 0.81704 0.69842 0.0
C210 C 0.86832 0.92865 0.69622 0.0
C211 C 0.93526 0.88633 0.7065 0.0
C212 C 0.81789 0.86697 0.69426 0.0
C213 C 0.88361 0.82538 0.70446 0.0
C214 C 0.96288 0.10274 0.76126 0.0
C215 C 0.95005 0.06519 0.77966 0.0
C216 C 0.97388 0.1645 0.76327 0.0
C217 C 0.94788 0.08972 0.79964 0.0
C218 C 0.97142 0.18735 0.78354 0.0
N219 N 0.95852 0.14978 0.80116 0.0
C220 C 0.94219 0.89586 0.76294 0.0
C221 C 0.8596 0.91078 0.74966 0.0
C222 C 0.89863 0.83599 0.77075 0.0
N223 N 0.92204 0.93085 0.75201 0.0
C224 C 0.81447 0.85108 0.75704 0.0
C225 C 0.8339 0.81234 0.76731 0.0
H226 H 0.99201 0.91351 0.76504 0.0
H227 H 0.84499 0.94009 0.74116 0.0
C228 C 0.92788 0.08019 0.66732 0.0
N229 N 0.93783 0.10592 0.69199 0.0
C230 C 0.8881 0.10271 0.64832 0.0
C231 C 0.87905 0.18587 0.68742 0.0
C232 C 0.91946 0.15551 0.70268 0.0
C233 C 0.84993 0.1433 0.66161 0.0
H234 H 0.94565 0.0495 0.66252 0.0
H235 H 0.93121 0.16952 0.71914 0.0
O236 O 0.06959 0.04361 0.74457 0.0
O237 O 0.08027 0.13788 0.70839 0.0
O238 O 0.97705 0.99861 0.70483 0.0
O239 O 0.96632 0.07989 0.74152 0.0
H240 H 0.18596 0.12785 0.75592 0.0
H241 H 0.06515 0.93434 0.73736 0.0
H242 H 0.27463 0.10651 0.75937 0.0
H243 H 0.15591 0.91641 0.74093 0.0
H244 H 0.06707 0.28222 0.66534 0.0
H245 H 0.10451 0.10209 0.67101 0.0
H246 H 0.06061 0.23409 0.7009 0.0
H247 H 0.10965 0.15226 0.63598 0.0
H248 H 0.28245 0.09719 0.69523 0.0
H249 H 0.13403 0.91851 0.67126 0.0
H250 H 0.17658 0.22388 0.81691 0.0
H251 H 0.1872 0.37387 0.75615 0.0
H252 H 0.86116 0.96826 0.69334 0.0
H253 H 0.98027 0.89279 0.71169 0.0
H254 H 0.7718 0.85882 0.68959 0.0
H255 H 0.88885 0.78472 0.70782 0.0
H256 H 0.94249 0.01784 0.77871 0.0
H257 H 0.98613 0.19537 0.74949 0.0
H258 H 0.93804 0.06107 0.81397 0.0
H259 H 0.98035 0.23519 0.78528 0.0
H260 H 0.91532 0.80753 0.77871 0.0
H261 H 0.765 0.83457 0.75411 0.0
H262 H 0.87431 0.08094 0.63269 0.0
H263 H 0.85927 0.21205 0.69485 0.0
C264 C 0.85607 0.68333 0.3542 0.0
C265 C 0.91929 0.72307 0.34279 0.0
C266 C 0.93499 0.68423 0.30906 0.0
C267 C -0.0006 0.70367 0.31001 0.0
C268 C 0.02409 0.67228 0.29811 0.0
C269 C 0.98316 0.61978 0.28533 0.0
C270 C 0.91805 0.6003 0.28437 0.0
C271 C 0.89514 0.63384 0.2959 0.0
C272 C 0.09383 0.69515 0.2992 0.0
C273 C 0.87237 0.54364 0.27139 0.0
C274 C 0.09076 0.26619 0.3465 0.0
C275 C 0.1071 0.32522 0.33481 0.0
C276 C 0.0595 0.36307 0.30829 0.0
C277 C 0.00333 0.34674 0.29753 0.0
C278 C 0.99514 0.39228 0.28646 0.0
C279 C 0.04524 0.4556 0.28575 0.0
C280 C 0.10265 0.47243 0.2964 0.0
C281 C 0.10922 0.42596 0.30763 0.0
C282 C 0.93308 0.37258 0.2754 0.0
C283 C 0.15721 0.53932 0.29566 0.0
C284 C 0.07479 0.37382 0.14911 0.0
C285 C 0.01494 0.36039 0.15614 0.0
C286 C 0.00693 0.4064 0.16669 0.0
C287 C 0.05982 0.46711 0.17007 0.0
C288 C 0.11958 0.48167 0.16205 0.0
C289 C 0.12616 0.43473 0.15148 0.0
C290 C 0.9421 0.38993 0.17447 0.0
C291 C 0.17658 0.54624 0.16513 0.0
C292 C 0.91816 0.82744 0.15479 0.0
C293 C 0.97279 0.81869 0.14729 0.0
C294 C 0.97043 0.71788 0.15034 0.0
C295 C 0.92685 0.65409 0.15357 0.0
C296 C 0.94483 0.6138 0.16342 0.0
C297 C 0.00838 0.63811 0.16972 0.0
C298 C 0.05365 0.70167 0.16512 0.0
C299 C 0.03416 0.7411 0.15545 0.0
C300 C 0.89563 0.5458 0.16763 0.0
C301 C 0.12214 0.72821 0.17097 0.0
C302 C 0.00809 0.58494 0.27302 0.0
C303 C 0.01938 0.54151 0.28409 0.0
C304 C 0.03807 0.50357 0.27323 0.0
C305 C 0.04552 0.50862 0.25069 0.0
C306 C 0.06327 0.47047 0.23923 0.0
C307 C 0.06651 0.47288 0.21694 0.0
C308 C 0.05288 0.51409 0.20527 0.0
C309 C 0.05256 0.51443 0.18258 0.0
C310 C 0.03995 0.55665 0.17143 0.0
C311 C 0.02633 0.59809 0.1824 0.0
C312 C 0.02519 0.59775 0.2051 0.0
C313 C 0.01033 0.63802 0.21661 0.0
C314 C 0.0063 0.63508 0.23888 0.0
C315 C 0.01628 0.5913 0.25051 0.0
C316 C 0.03389 0.55214 0.23929 0.0
C317 C 0.03805 0.55519 0.21655 0.0
C318 C 0.1059 0.25563 0.157 0.0
C319 C 0.05641 0.26642 0.14568 0.0
O320 O 0.91013 0.71294 0.32089 0.0
O321 O 0.94915 0.75556 0.14241 0.0
O322 O 0.08446 0.3295 0.13971 0.0
O323 O 0.0637 0.31673 0.31898 0.0
H324 H 0.9514 0.70655 0.34906 0.0
H325 H 0.83813 0.63239 0.3511 0.0
H326 H 0.82048 0.69548 0.34832 0.0
H327 H 0.86193 0.69116 0.37182 0.0
H328 H 0.03027 0.74365 0.31994 0.0
H329 H 0.8455 0.61952 0.29527 0.0
H330 H 0.10143 0.65916 0.30752 0.0
H331 H 0.12023 0.74056 0.30796 0.0
H332 H 0.11352 0.70139 0.28276 0.0
H333 H 0.8225 0.52836 0.2753 0.0
H334 H 0.88051 0.50332 0.27423 0.0
H335 H 0.87981 0.55563 0.25405 0.0
H336 H 0.12201 0.36762 0.34509 0.0
H337 H 0.0818 0.27498 0.36356 0.0
H338 H 0.16775 0.24633 0.33749 0.0
H339 H 0.03939 0.2325 0.343 0.0
H340 H 0.96544 0.29802 0.29806 0.0
H341 H 0.15342 0.43878 0.31556 0.0
H342 H 0.94014 0.37617 0.25775 0.0
H343 H 0.91516 0.40469 0.27993 0.0
H344 H 0.89672 0.32326 0.27945 0.0
H345 H 0.19951 0.54444 0.30415 0.0
H346 H 0.14307 0.57153 0.30315 0.0
H347 H 0.16994 0.55461 0.27871 0.0
H348 H 0.01742 0.25285 0.15737 0.0
H349 H 0.97438 0.31422 0.15329 0.0
H350 H 0.17188 0.44482 0.14556 0.0
H351 H 0.94209 0.39202 0.19227 0.0
H352 H 0.90523 0.34196 0.16938 0.0
H353 H 0.92957 0.42493 0.16826 0.0
H354 H 0.21983 0.55001 0.15794 0.0
H355 H 0.18481 0.55684 0.18253 0.0
H356 H 0.16785 0.58264 0.15771 0.0
H357 H 0.00707 0.83358 0.16082 0.0
H358 H 0.93554 0.87742 0.15932 0.0
H359 H 0.89541 0.7972 0.16909 0.0
H360 H 0.88217 0.81389 0.14191 0.0
H361 H 0.87806 0.63654 0.14909 0.0
H362 H 0.06857 0.78994 0.15203 0.0
H363 H 0.89406 0.535 0.18504 0.0
H364 H 0.90851 0.51426 0.15898 0.0
H365 H 0.84782 0.53489 0.16237 0.0
H366 H 0.15236 0.77679 0.16456 0.0
H367 H 0.13949 0.69716 0.16469 0.0
H368 H 0.12703 0.72943 0.1887 0.0
H369 H 0.01199 0.53603 0.30131 0.0
H370 H 0.07386 0.43751 0.24734 0.0
H371 H 0.07936 0.44164 0.20897 0.0
H372 H 0.03885 0.55593 0.15402 0.0
H373 H 0.00094 0.67184 0.20853 0.0
H374 H 0.99433 0.66697 0.24686 0.0
H375 H 0.08487 0.20574 0.16245 0.0
H376 H 0.12431 0.28658 0.17131 0.0
H377 H 0.14599 0.26692 0.14605 0.0
C378 C 0.25783 0.93555 0.69263 0.0
C379 C 0.26327 0.98672 0.67704 0.0
C380 C 0.30126 0.97999 0.64181 0.0
C381 C 0.34646 0.04343 0.63805 0.0
C382 C 0.39708 0.0595 0.62403 0.0
C383 C 0.40247 0.01101 0.61363 0.0
C384 C 0.35549 0.94705 0.61679 0.0
C385 C 0.30481 0.93246 0.63064 0.0
C386 C 0.44551 0.1282 0.62066 0.0
C387 C 0.35981 0.89412 0.60603 0.0
C388 C 0.83571 0.08038 0.68033 0.0
C389 C 0.79181 0.09449 0.66837 0.0
C390 C 0.7158 0.05446 0.63912 0.0
C391 C 0.67732 0.00173 0.62663 0.0
C392 C 0.62974 0.00029 0.6136 0.0
C393 C 0.62145 0.05367 0.6128 0.0
C394 C 0.66167 0.10812 0.62483 0.0
C395 C 0.70839 0.10798 0.63791 0.0
C396 C 0.58743 0.94119 0.60108 0.0
C397 C 0.65463 0.16609 0.6241 0.0
C398 C 0.73409 0.09917 0.47322 0.0
C399 C 0.692 0.03931 0.48168 0.0
C400 C 0.6393 0.02939 0.49358 0.0
C401 C 0.62823 0.08036 0.49691 0.0
C402 C 0.6693 0.14018 0.48771 0.0
C403 C 0.72158 0.14865 0.47579 0.0
C404 C 0.59571 0.96448 0.50271 0.0
C405 C 0.65838 0.19523 0.49073 0.0
C406 C 0.11559 0.87991 0.47652 0.0
C407 C 0.17726 0.94298 0.47454 0.0
C408 C 0.28361 0.95962 0.47747 0.0
C409 C 0.3136 0.92427 0.48009 0.0
C410 C 0.37233 0.94999 0.49026 0.0
C411 C 0.4026 0.01358 0.49724 0.0
C412 C 0.37439 0.05107 0.49323 0.0
C413 C 0.31456 0.02337 0.48361 0.0
C414 C 0.40135 0.90871 0.49379 0.0
C415 C 0.40675 0.11978 0.49953 0.0
C416 C 0.45924 0.02712 0.60058 0.0
C417 C 0.51307 0.0358 0.6114 0.0
C418 C 0.56844 0.05099 0.60032 0.0
C419 C 0.57112 0.05952 0.57783 0.0
C420 C 0.62691 0.07752 0.56629 0.0
C421 C 0.62816 0.08278 0.54402 0.0
C422 C 0.57345 0.06942 0.53245 0.0
C423 C 0.57305 0.07044 0.50974 0.0
C424 C 0.51759 0.05576 0.49874 0.0
C425 C 0.46181 0.03903 0.50979 0.0
C426 C 0.46142 0.03883 0.5325 0.0
C427 C 0.40618 0.02279 0.54414 0.0
C428 C 0.40582 0.02082 0.56646 0.0
C429 C 0.46002 0.03246 0.57797 0.0
C430 C 0.51629 0.04896 0.56657 0.0
C431 C 0.51729 0.05327 0.54383 0.0
C432 C 0.88102 0.14214 0.48234 0.0
C433 C 0.82806 0.09028 0.46896 0.0
O434 O 0.25427 0.96346 0.6563 0.0
O435 O 0.22471 0.93051 0.46909 0.0
O436 O 0.7867 0.11036 0.46238 0.0
O437 O 0.75859 0.05154 0.65233 0.0
H438 H 0.31151 0.02805 0.67918 0.0
H439 H 0.2952 0.9237 0.6891 0.0
H440 H 0.21121 0.89184 0.6911 0.0
H441 H 0.26401 0.95269 0.70945 0.0
H442 H 0.34229 0.08031 0.64615 0.0
H443 H 0.26906 0.88366 0.63347 0.0
H444 H 0.49116 0.13789 0.62774 0.0
H445 H 0.43125 0.16035 0.62816 0.0
H446 H 0.45322 0.13903 0.60322 0.0
H447 H 0.32081 0.8468 0.61087 0.0
H448 H 0.40546 0.89713 0.6101 0.0
H449 H 0.35834 0.89886 0.58835 0.0
H450 H 0.76269 0.10745 0.67862 0.0
H451 H 0.81726 0.07045 0.69732 0.0
H452 H 0.93125 0.16099 0.6716 0.0
H453 H 0.82047 0.02933 0.67692 0.0
H454 H 0.68369 0.96091 0.62754 0.0
H455 H 0.73866 0.14967 0.6472 0.0
H456 H 0.59398 0.95182 0.58363 0.0
H457 H 0.53724 0.9246 0.6049 0.0
H458 H 0.59742 0.90235 0.60456 0.0
H459 H 0.69394 0.20698 0.63241 0.0
H460 H 0.60963 0.15534 0.63192 0.0
H461 H 0.65261 0.17959 0.60718 0.0
H462 H 0.80403 0.04771 0.47942 0.0
H463 H 0.69974 2e-05 0.47882 0.0
H464 H 0.75385 0.19441 0.46886 0.0
H465 H 0.59889 0.96616 0.52049 0.0
H466 H 0.60748 0.92861 0.49695 0.0
H467 H 0.54615 0.94904 0.49832 0.0
H468 H 0.69642 0.23951 0.48345 0.0
H469 H 0.65536 0.20312 0.50812 0.0
H470 H 0.61271 0.18421 0.48331 0.0
H471 H 0.18617 0.96583 0.4906 0.0
H472 H 0.07651 0.88742 0.48181 0.0
H473 H 0.12114 0.84941 0.48861 0.0
H474 H 0.10273 0.85484 0.46087 0.0
H475 H 0.28956 0.87547 0.47488 0.0
H476 H 0.29211 0.05143 0.48089 0.0
H477 H 0.41727 0.91187 0.51068 0.0
H478 H 0.44327 0.9255 0.48328 0.0
H479 H 0.36802 0.85834 0.49001 0.0
H480 H 0.38325 0.14459 0.49245 0.0
H481 H 0.45683 0.14421 0.49432 0.0
H482 H 0.40622 0.12346 0.51726 0.0
H483 H 0.51153 0.02965 0.6287 0.0
H484 H 0.67011 0.08736 0.57437 0.0
H485 H 0.6723 0.09645 0.53596 0.0
H486 H 0.51708 0.05439 0.48133 0.0
H487 H 0.36248 0.01155 0.53617 0.0
H488 H 0.36207 0.00856 0.57456 0.0
H489 H 0.91517 0.12717 0.48748 0.0
H490 H 0.8609 0.15129 0.49693 0.0
H491 H 0.90645 0.18683 0.47299 0.0
C492 C 0.79279 0.69931 0.75759 0.0
C493 C 0.78625 0.74464 0.77284 0.0
C494 C 0.74785 0.70024 0.80821 0.0
C495 C 0.70124 0.71686 0.81131 0.0
C496 C 0.65036 0.68157 0.82518 0.0
C497 C 0.64623 0.62869 0.83612 0.0
C498 C 0.6948 0.61368 0.83376 0.0
C499 C 0.74561 0.65039 0.82001 0.0
C500 C 0.60031 0.69993 0.82781 0.0
C501 C 0.69205 0.5578 0.84527 0.0
C502 C 0.21177 0.26482 0.76916 0.0
C503 C 0.25644 0.32201 0.7811 0.0
C504 C 0.33417 0.35666 0.80979 0.0
C505 C 0.37393 0.34227 0.82164 0.0
C506 C 0.42176 0.38783 0.83464 0.0
C507 C 0.42907 0.44898 0.83603 0.0
C508 C 0.38767 0.46331 0.82464 0.0
C509 C 0.34069 0.41707 0.81159 0.0
C510 C 0.46514 0.37099 0.84661 0.0
C511 C 0.39359 0.52774 0.82607 0.0
C512 C 0.30597 0.37422 0.97195 0.0
C513 C 0.3531 0.36033 0.96623 0.0
C514 C 0.40835 0.40586 0.95607 0.0
C515 C 0.41647 0.46641 0.95167 0.0
C516 C 0.37047 0.4815 0.95844 0.0
C517 C 0.31584 0.43512 0.96871 0.0
C518 C 0.45753 0.38894 0.94967 0.0
C519 C 0.37831 0.54596 0.95429 0.0
C520 C 0.91628 0.8358 0.9651 0.0
C521 C 0.85197 0.82428 0.97271 0.0
C522 C 0.75539 0.72183 0.97038 0.0
C523 C 0.7363 0.65811 0.96773 0.0
C524 C 0.67788 0.61656 0.95847 0.0
C525 C 0.63741 0.63957 0.95213 0.0
C526 C 0.65444 0.70298 0.9563 0.0
C527 C 0.7135 0.74368 0.96542 0.0
C528 C 0.66037 0.5487 0.95476 0.0
C529 C 0.61117 0.72813 0.95041 0.0
C530 C 0.5892 0.58683 0.84889 0.0
C531 C 0.53686 0.54031 0.83791 0.0
C532 C 0.48151 0.49863 0.84876 0.0
C533 C 0.47762 0.50356 0.87121 0.0
C534 C 0.42214 0.46324 0.88255 0.0
C535 C 0.41968 0.46686 0.90476 0.0
C536 C 0.47269 0.5108 0.91647 0.0
C537 C 0.47175 0.51278 0.93914 0.0
C538 C 0.52525 0.55664 0.95033 0.0
C539 C 0.58028 0.59869 0.93941 0.0
C540 C 0.58219 0.59787 0.91674 0.0
C541 C 0.63695 0.63979 0.90529 0.0
C542 C 0.63901 0.63715 0.88303 0.0
C543 C 0.5868 0.59176 0.87141 0.0
C544 C 0.53081 0.54975 0.8826 0.0
C545 C 0.52837 0.5532 0.90527 0.0
C546 C 0.15725 0.25719 0.96284 0.0
C547 C 0.21629 0.26732 0.97482 0.0
O548 O 0.79501 0.73108 0.79379 0.0
O549 O 0.81471 0.76069 0.97755 0.0
O550 O 0.25079 0.33023 0.98081 0.0
O551 O 0.29092 0.31161 0.79661 0.0
H552 H 0.73774 0.73688 0.77048 0.0
H553 H 0.75588 0.64991 0.76127 0.0
H554 H 0.83972 0.70301 0.75938 0.0
H555 H 0.7867 0.70999 0.74068 0.0
H556 H 0.70446 0.75716 0.80278 0.0
H557 H 0.78253 0.63873 0.81773 0.0
H558 H 0.55551 0.663 0.82058 0.0
H559 H 0.61369 0.74595 0.82 0.0
H560 H 0.59141 0.70287 0.84511 0.0
H561 H 0.73267 0.55136 0.84122 0.0
H562 H 0.64769 0.51402 0.84105 0.0
H563 H 0.6917 0.56424 0.86288 0.0
H564 H 0.28484 0.36509 0.77108 0.0
H565 H 0.22902 0.27444 0.75202 0.0
H566 H 0.11694 0.24937 0.77903 0.0
H567 H 0.22728 0.22886 0.772 0.0
H568 H 0.36823 0.29546 0.82028 0.0
H569 H 0.30944 0.42857 0.80282 0.0
H570 H 0.4597 0.3744 0.86415 0.0
H571 H 0.51499 0.40504 0.84246 0.0
H572 H 0.4553 0.32242 0.84293 0.0
H573 H 0.35416 0.52961 0.81787 0.0
H574 H 0.43862 0.5634 0.81856 0.0
H575 H 0.39483 0.54113 0.84315 0.0
H576 H 0.24272 0.25391 0.96352 0.0
H577 H 0.34694 0.3141 0.96975 0.0
H578 H 0.27958 0.44556 0.97364 0.0
H579 H 0.46096 0.38918 0.93191 0.0
H580 H 0.44638 0.3416 0.95573 0.0
H581 H 0.50441 0.42474 0.95593 0.0
H582 H 0.33816 0.5502 0.9606 0.0
H583 H 0.38246 0.55567 0.93676 0.0
H584 H 0.42253 0.58268 0.96191 0.0
H585 H 0.83152 0.8384 0.95923 0.0
H586 H 0.94718 0.88617 0.96053 0.0
H587 H 0.91013 0.80625 0.95081 0.0
H588 H 0.93984 0.82327 0.97795 0.0
H589 H 0.76857 0.64161 0.97212 0.0
H590 H 0.72701 0.79246 0.96845 0.0
H591 H 0.65239 0.53769 0.93737 0.0
H592 H 0.61564 0.51683 0.96324 0.0
H593 H 0.69738 0.53843 0.96051 0.0
H594 H 0.62835 0.77652 0.9567 0.0
H595 H 0.56308 0.69623 0.95678 0.0
H596 H 0.60746 0.72936 0.93267 0.0
H597 H 0.53941 0.53612 0.82065 0.0
H598 H 0.38015 0.4281 0.87439 0.0
H599 H 0.37584 0.4343 0.91265 0.0
H600 H 0.52463 0.55685 0.96774 0.0
H601 H 0.67899 0.67506 0.91338 0.0
H602 H 0.68237 0.67052 0.87507 0.0
H603 H 0.12893 0.20749 0.95732 0.0
H604 H 0.17114 0.28859 0.94851 0.0
H605 H 0.12754 0.26834 0.97337 0.0
loop_
_geom_bond_atom_site_label_1
_geom_bond_atom_site_label_2
_geom_bond_distance
_geom_bond_site_symmetry_2
_ccdc_geom_bond_type
Li0 N17 1.990 . S
Li0 O60 1.956 . S
Li0 O61 1.970 1_455 S
Li0 O62 1.961 1_545 S
Li1 N25 1.990 . S
Li1 O60 1.970 1_655 S
Li1 O61 1.956 . S
Li1 O63 1.961 1_545 S
Li2 N47 1.990 . S
Li2 O60 1.961 1_565 S
Li2 O62 1.956 . S
Li2 O63 1.970 1_455 S
Li3 N53 1.990 . S
Li3 O61 1.961 1_565 S
Li3 O62 1.970 1_655 S
Li3 O63 1.956 . S
C4 C6 1.348 . S
C4 C7 1.356 . S
C4 O60 1.325 . S
N5 C8 1.314 . S
N5 C9 1.279 . S
C6 C4 1.348 . S
C6 C8 1.353 . S
C6 H64 0.929 . S
C7 C4 1.356 . S
C7 C9 1.358 . S
C7 H65 0.930 . S
C8 N5 1.314 . S
C8 C6 1.353 . S
C8 H66 0.930 . S
C9 N5 1.279 . S
C9 C7 1.358 . S
C9 H67 0.930 . S
C10 C13 1.348 1_655 S
C10 C14 1.356 . S
C10 O61 1.325 . S
C11 N12 1.279 . S
C11 C14 1.358 . S
C11 H68 0.930 . S
N12 C11 1.279 . S
N12 C15 1.314 1_655 S
C13 C10 1.348 1_455 S
C13 C15 1.353 . S
C13 H69 0.929 . S
C14 C10 1.356 . S
C14 C11 1.358 . S
C14 H70 0.930 . S
C15 N12 1.314 1_455 S
C15 C13 1.353 . S
C15 H71 0.930 . S
C16 N17 1.314 . S
C16 C21 1.353 1_554 S
C16 H22 0.930 . S
N17 Li0 1.990 . S
N17 C16 1.314 . S
N17 C19 1.279 . S
C18 C19 1.358 . S
C18 C20 1.356 . S
C18 H72 0.930 . S
C19 N17 1.279 . S
C19 C18 1.358 . S
C19 H23 0.930 . S
C20 C18 1.356 . S
C20 C21 1.348 1_554 S
C21 C16 1.353 1_556 S
C21 C20 1.348 1_556 S
C21 H73 0.929 . S
H22 C16 0.930 . S
H23 C19 0.930 . S
C24 N25 1.314 . S
C24 C26 1.353 . S
C24 H30 0.930 . S
N25 Li1 1.990 . S
N25 C24 1.314 . S
N25 C28 1.279 . S
C26 C24 1.353 . S
C26 C29 1.348 . S
C26 H74 0.929 . S
C27 C28 1.358 . S
C27 C29 1.356 . S
C27 H75 0.930 . S
C28 N25 1.279 . S
C28 C27 1.358 . S
C28 H31 0.930 . S
C29 C26 1.348 . S
C29 C27 1.356 . S
H30 C24 0.930 . S
H31 C28 0.930 . S
C32 C34 1.347 1_455 S
C32 C35 1.356 . S
C32 O62 1.325 . S
N33 C36 1.314 . S
N33 C37 1.279 . S
C34 C32 1.347 1_655 S
C34 C36 1.351 1_655 S
C34 H76 0.932 . S
C35 C32 1.356 . S
C35 C37 1.358 . S
C35 H77 0.930 . S
C36 N33 1.314 . S
C36 C34 1.351 1_455 S
C36 H78 0.930 1_455 S
C37 N33 1.279 . S
C37 C35 1.358 . S
C37 H79 0.930 . S
C38 C39 1.348 . S
C38 C40 1.356 . S
C38 O63 1.325 . S
C39 C38 1.348 . S
C39 C41 1.353 . S
C39 H80 0.929 . S
C40 C38 1.356 . S
C40 C42 1.358 . S
C40 H81 0.930 . S
C41 C39 1.353 . S
C41 N43 1.314 . S
C41 H82 0.930 . S
C42 C40 1.358 . S
C42 N43 1.279 . S
C42 H83 0.930 . S
N43 C41 1.314 . S
N43 C42 1.279 . S
C44 C46 1.353 . S
C44 N47 1.314 . S
C44 H50 0.930 . S
C45 N47 1.279 . S
C45 C48 1.358 . S
C45 H51 0.930 . S
C46 C44 1.353 . S
C46 C49 1.348 . S
C46 H84 0.929 . S
N47 Li2 1.990 . S
N47 C44 1.314 . S
N47 C45 1.279 . S
C48 C45 1.358 . S
C48 C49 1.356 . S
C48 H85 0.930 . S
C49 C46 1.348 . S
C49 C48 1.356 . S
H50 C44 0.930 . S
H51 C45 0.930 . S
C52 N53 1.314 . S
C52 C54 1.353 1_554 S
C52 H58 0.930 . S
N53 Li3 1.990 . S
N53 C52 1.314 . S
N53 C56 1.279 . S
C54 C52 1.353 1_556 S
C54 C57 1.348 1_556 S
C54 H86 0.929 . S
C55 C56 1.358 . S
C55 C57 1.356 . S
C55 H87 0.930 . S
C56 N53 1.279 . S
C56 C55 1.358 . S
C56 H59 0.930 . S
C57 C54 1.348 1_554 S
C57 C55 1.356 . S
H58 C52 0.930 . S
H59 C56 0.930 . S
O60 Li0 1.956 . S
O60 Li1 1.970 1_455 S
O60 Li2 1.961 1_545 S
O60 C4 1.325 . S
O61 Li0 1.970 1_655 S
O61 Li1 1.956 . S
O61 Li3 1.961 1_545 S
O61 C10 1.325 . S
O62 Li0 1.961 1_565 S
O62 Li2 1.956 . S
O62 Li3 1.970 1_455 S
O62 C32 1.325 . S
O63 Li1 1.961 1_565 S
O63 Li2 1.970 1_655 S
O63 Li3 1.956 . S
O63 C38 1.325 . S
H64 C6 0.929 . S
H65 C7 0.930 . S
H66 C8 0.930 . S
H67 C9 0.930 . S
H68 C11 0.930 . S
H69 C13 0.929 . S
H70 C14 0.930 . S
H71 C15 0.930 . S
H72 C18 0.930 . S
H73 C21 0.929 . S
H74 C26 0.929 . S
H75 C27 0.930 . S
H76 C34 0.932 . S
H77 C35 0.930 . S
H78 C36 0.930 1_655 S
H79 C37 0.930 . S
H80 C39 0.929 . S
H81 C40 0.930 . S
H82 C41 0.930 . S
H83 C42 0.930 . S
H84 C46 0.929 . S
H85 C48 0.930 . S
H86 C54 0.929 . S
H87 C55 0.930 . S
Li88 N105 1.990 1_455 S
Li88 O148 1.956 . S
Li88 O149 1.970 1_565 S
Li88 O150 1.961 1_465 S
Li89 N113 1.990 . S
Li89 O148 1.970 1_545 S
Li89 O149 1.956 . S
Li89 O151 1.961 . S
Li90 N135 1.990 . S
Li90 O148 1.961 1_645 S
Li90 O150 1.956 . S
Li90 O151 1.970 1_655 S
Li91 N141 1.990 . S
Li91 O149 1.961 . S
Li91 O150 1.970 1_455 S
Li91 O151 1.956 . S
C92 C94 1.348 . S
C92 C95 1.356 1_455 S
C92 O148 1.325 . S
N93 C96 1.314 1_655 S
N93 C97 1.279 . S
C94 C92 1.348 . S
C94 C96 1.353 . S
C94 H152 0.929 . S
C95 C92 1.356 1_655 S
C95 C97 1.358 . S
C95 H153 0.930 . S
C96 N93 1.314 1_455 S
C96 C94 1.353 . S
C96 H154 0.930 . S
C97 N93 1.279 . S
C97 C95 1.358 . S
C97 H155 0.930 . S
C98 C101 1.348 . S
C98 C102 1.356 . S
C98 O149 1.325 . S
C99 N100 1.279 . S
C99 C102 1.358 . S
C99 H156 0.930 . S
N100 C99 1.279 . S
N100 C103 1.314 . S
C101 C98 1.348 . S
C101 C103 1.353 . S
C101 H157 0.929 1_545 S
C102 C98 1.356 . S
C102 C99 1.358 . S
C102 H158 0.930 . S
C103 N100 1.314 . S
C103 C101 1.353 . S
C103 H159 0.930 . S
C104 N105 1.314 . S
C104 C109 1.353 . S
C104 H110 0.930 . S
N105 Li88 1.990 1_655 S
N105 C104 1.314 . S
N105 C107 1.279 . S
C106 C107 1.358 . S
C106 C108 1.356 . S
C106 H160 0.930 . S
C107 N105 1.279 . S
C107 C106 1.358 . S
C107 H111 0.930 . S
C108 C106 1.356 . S
C108 C109 1.348 . S
C109 C104 1.353 . S
C109 C108 1.348 . S
C109 H161 0.929 . S
H110 C104 0.930 . S
H111 C107 0.930 . S
C112 N113 1.314 . S
C112 C114 1.353 . S
C112 H118 0.930 . S
N113 Li89 1.990 . S
N113 C112 1.314 . S
N113 C116 1.279 . S
C114 C112 1.353 . S
C114 C117 1.348 . S
C114 H162 0.929 . S
C115 C116 1.358 . S
C115 C117 1.356 . S
C115 H163 0.930 . S
C116 N113 1.279 . S
C116 C115 1.358 . S
C116 H119 0.930 . S
C117 C114 1.348 . S
C117 C115 1.356 . S
H118 C112 0.930 . S
H119 C116 0.930 . S
C120 C122 1.348 . S
C120 C123 1.356 1_545 S
C120 O150 1.325 . S
N121 C124 1.314 1_565 S
N121 C125 1.279 . S
C122 C120 1.348 . S
C122 C124 1.353 . S
C122 H164 0.929 . S
C123 C120 1.356 1_565 S
C123 C125 1.358 . S
C123 H165 0.930 . S
C124 N121 1.314 1_545 S
C124 C122 1.353 . S
C124 H166 0.930 . S
C125 N121 1.279 . S
C125 C123 1.358 . S
C125 H167 0.930 . S
C126 C127 1.348 . S
C126 C128 1.356 . S
C126 O151 1.325 . S
C127 C126 1.348 . S
C127 C129 1.353 . S
C127 H168 0.929 1_455 S
C128 C126 1.356 . S
C128 C130 1.358 . S
C128 H169 0.930 . S
C129 C127 1.353 . S
C129 N131 1.314 . S
C129 H170 0.930 . S
C130 C128 1.358 . S
C130 N131 1.279 . S
C130 H171 0.930 . S
N131 C129 1.314 . S
N131 C130 1.279 . S
C132 C134 1.353 . S
C132 N135 1.314 1_565 S
C132 H138 0.930 . S
C133 N135 1.279 . S
C133 C136 1.358 1_545 S
C133 H139 0.930 . S
C134 C132 1.353 . S
C134 C137 1.348 . S
C134 H172 0.929 . S
N135 Li90 1.990 . S
N135 C132 1.314 1_545 S
N135 C133 1.279 . S
C136 C133 1.358 1_565 S
C136 C137 1.356 . S
C136 H173 0.930 . S
C137 C134 1.348 . S
C137 C136 1.356 . S
H138 C132 0.930 . S
H139 C133 0.930 . S
C140 N141 1.314 . S
C140 C142 1.353 . S
C140 H146 0.930 . S
N141 Li91 1.990 . S
N141 C140 1.314 . S
N141 C144 1.279 . S
C142 C140 1.353 . S
C142 C145 1.348 . S
C142 H174 0.929 . S
C143 C144 1.358 . S
C143 C145 1.356 . S
C143 H175 0.930 . S
C144 N141 1.279 . S
C144 C143 1.358 . S
C144 H147 0.930 . S
C145 C142 1.348 . S
C145 C143 1.356 . S
H146 C140 0.930 . S
H147 C144 0.930 . S
O148 Li88 1.956 . S
O148 Li89 1.970 1_565 S
O148 Li90 1.961 1_465 S
O148 C92 1.325 . S
O149 Li88 1.970 1_545 S
O149 Li89 1.956 . S
O149 Li91 1.961 . S
O149 C98 1.325 . S
O150 Li88 1.961 1_645 S
O150 Li90 1.956 . S
O150 Li91 1.970 1_655 S
O150 C120 1.325 . S
O151 Li89 1.961 . S
O151 Li90 1.970 1_455 S
O151 Li91 1.956 . S
O151 C126 1.325 . S
H152 C94 0.929 . S
H153 C95 0.930 . S
H154 C96 0.930 . S
H155 C97 0.930 . S
H156 C99 0.930 . S
H157 C101 0.929 1_565 S
H158 C102 0.930 . S
H159 C103 0.930 . S
H160 C106 0.930 . S
H161 C109 0.929 . S
H162 C114 0.929 . S
H163 C115 0.930 . S
H164 C122 0.929 . S
H165 C123 0.930 . S
H166 C124 0.930 . S
H167 C125 0.930 . S
H168 C127 0.929 1_655 S
H169 C128 0.930 . S
H170 C129 0.930 . S
H171 C130 0.930 . S
H172 C134 0.929 . S
H173 C136 0.930 . S
H174 C142 0.929 . S
H175 C143 0.930 . S
Li176 N193 1.990 . S
Li176 O236 1.956 . S
Li176 O237 1.970 . S
Li176 O238 1.961 1_445 S
Li177 N201 1.990 . S
Li177 O236 1.970 . S
Li177 O237 1.956 . S
Li177 O239 1.961 1_455 S
Li178 N223 1.990 . S
Li178 O236 1.961 1_665 S
Li178 O238 1.956 . S
Li178 O239 1.970 1_565 S
Li179 N229 1.990 . S
Li179 O237 1.961 1_655 S
Li179 O238 1.970 1_545 S
Li179 O239 1.956 . S
C180 C182 1.348 . S
C180 C183 1.356 1_545 S
C180 O236 1.325 . S
N181 C184 1.314 1_565 S
N181 C185 1.279 . S
C182 C180 1.348 . S
C182 C184 1.353 . S
C182 H240 0.929 . S
C183 C180 1.356 1_565 S
C183 C185 1.358 . S
C183 H241 0.930 . S
C184 N181 1.314 1_545 S
C184 C182 1.353 . S
C184 H242 0.930 . S
C185 N181 1.279 . S
C185 C183 1.358 . S
C185 H243 0.930 . S
C186 C189 1.348 . S
C186 C190 1.356 . S
C186 O237 1.325 . S
C187 N188 1.279 . S
C187 C190 1.358 . S
C187 H244 0.930 . S
N188 C187 1.279 . S
N188 C191 1.314 . S
C189 C186 1.348 . S
C189 C191 1.353 . S
C189 H245 0.929 . S
C190 C186 1.356 . S
C190 C187 1.358 . S
C190 H246 0.930 . S
C191 N188 1.314 . S
C191 C189 1.353 . S
C191 H247 0.930 . S
C192 N193 1.314 1_565 S
C192 C197 1.353 . S
C192 H198 0.930 . S
N193 Li176 1.990 . S
N193 C192 1.314 1_545 S
N193 C195 1.279 . S
C194 C195 1.358 1_565 S
C194 C196 1.356 . S
C194 H248 0.930 . S
C195 N193 1.279 . S
C195 C194 1.358 1_545 S
C195 H199 0.930 . S
C196 C194 1.356 . S
C196 C197 1.348 . S
C197 C192 1.353 . S
C197 C196 1.348 . S
C197 H249 0.929 . S
H198 C192 0.930 . S
H199 C195 0.930 . S
C200 N201 1.314 . S
C200 C202 1.353 . S
C200 H206 0.930 . S
N201 Li177 1.990 . S
N201 C200 1.314 . S
N201 C204 1.279 . S
C202 C200 1.353 . S
C202 C205 1.348 . S
C202 H250 0.929 . S
C203 C204 1.358 . S
C203 C205 1.356 . S
C203 H251 0.930 . S
C204 N201 1.279 . S
C204 C203 1.358 . S
C204 H207 0.930 . S
C205 C202 1.348 . S
C205 C203 1.356 . S
H206 C200 0.930 . S
H207 C204 0.930 . S
C208 C210 1.348 . S
C208 C211 1.356 . S
C208 O238 1.325 . S
N209 C212 1.314 . S
N209 C213 1.279 . S
C210 C208 1.348 . S
C210 C212 1.353 . S
C210 H252 0.929 . S
C211 C208 1.356 . S
C211 C213 1.358 . S
C211 H253 0.930 . S
C212 N209 1.314 . S
C212 C210 1.353 . S
C212 H254 0.930 . S
C213 N209 1.279 . S
C213 C211 1.358 . S
C213 H255 0.930 . S
C214 C215 1.348 . S
C214 C216 1.356 . S
C214 O239 1.325 . S
C215 C214 1.348 . S
C215 C217 1.353 . S
C215 H256 0.929 1_545 S
C216 C214 1.356 . S
C216 C218 1.358 . S
C216 H257 0.930 . S
C217 C215 1.353 . S
C217 N219 1.314 . S
C217 H258 0.930 . S
C218 C216 1.358 . S
C218 N219 1.279 . S
C218 H259 0.930 . S
N219 C217 1.314 . S
N219 C218 1.279 . S
C220 C222 1.353 . S
C220 N223 1.314 . S
C220 H226 0.930 . S
C221 N223 1.279 . S
C221 C224 1.358 . S
C221 H227 0.930 . S
C222 C220 1.353 . S
C222 C225 1.348 . S
C222 H260 0.929 . S
N223 Li178 1.990 . S
N223 C220 1.314 . S
N223 C221 1.279 . S
C224 C221 1.358 . S
C224 C225 1.356 . S
C224 H261 0.930 . S
C225 C222 1.348 . S
C225 C224 1.356 . S
H226 C220 0.930 . S
H227 C221 0.930 . S
C228 N229 1.314 . S
C228 C230 1.353 . S
C228 H234 0.930 . S
N229 Li179 1.990 . S
N229 C228 1.314 . S
N229 C232 1.279 . S
C230 C228 1.353 . S
C230 C233 1.348 . S
C230 H262 0.929 . S
C231 C232 1.358 . S
C231 C233 1.356 . S
C231 H263 0.930 . S
C232 N229 1.279 . S
C232 C231 1.358 . S
C232 H235 0.930 . S
C233 C230 1.348 . S
C233 C231 1.356 . S
H234 C228 0.930 . S
H235 C232 0.930 . S
O236 Li176 1.956 . S
O236 Li177 1.970 . S
O236 Li178 1.961 1_445 S
O236 C180 1.325 . S
O237 Li176 1.970 . S
O237 Li177 1.956 . S
O237 Li179 1.961 1_455 S
O237 C186 1.325 . S
O238 Li176 1.961 1_665 S
O238 Li178 1.956 . S
O238 Li179 1.970 1_565 S
O238 C208 1.325 . S
O239 Li177 1.961 1_655 S
O239 Li178 1.970 1_545 S
O239 Li179 1.956 . S
O239 C214 1.325 . S
H240 C182 0.929 . S
H241 C183 0.930 . S
H242 C184 0.930 . S
H243 C185 0.930 . S
H244 C187 0.930 . S
H245 C189 0.929 . S
H246 C190 0.930 . S
H247 C191 0.930 . S
H248 C194 0.930 . S
H249 C197 0.929 . S
H250 C202 0.929 . S
H251 C203 0.930 . S
H252 C210 0.929 . S
H253 C211 0.930 . S
H254 C212 0.930 . S
H255 C213 0.930 . S
H256 C215 0.929 1_565 S
H257 C216 0.930 . S
H258 C217 0.930 . S
H259 C218 0.930 . S
H260 C222 0.929 . S
H261 C224 0.930 . S
H262 C230 0.929 . S
H263 C231 0.930 . S
C264 C265 1.560 . S
C264 H325 0.959 . S
C264 H326 0.959 . S
C264 H327 0.960 . S
C265 C264 1.560 . S
C265 O320 1.426 . S
C265 H324 0.980 1_655 S
C266 C267 1.407 1_655 S
C266 C271 1.418 . S
C266 O320 1.334 . S
C267 C266 1.407 1_455 S
C267 C268 1.360 . S
C267 H328 0.929 . S
C268 C267 1.360 . S
C268 C269 1.401 . S
C268 C272 1.527 . S
C269 C268 1.401 . S
C269 C270 1.405 1_455 S
C269 C302 1.587 . S
C270 C269 1.405 1_655 S
C270 C271 1.332 . S
C270 C273 1.496 . S
C271 C266 1.418 . S
C271 C270 1.332 . S
C271 H329 0.929 . S
C272 C268 1.527 . S
C272 H330 0.959 . S
C272 H331 0.961 . S
C272 H332 0.961 . S
C273 C270 1.496 . S
C273 H333 0.960 . S
C273 H334 0.960 . S
C273 H335 0.961 . S
C274 C275 1.517 . S
C274 H337 0.961 . S
C274 H338 0.960 . S
C274 H339 0.959 . S
C275 C274 1.517 . S
C275 O323 1.468 . S
C275 H336 0.980 . S
C276 C277 1.349 . S
C276 C281 1.367 . S
C276 O323 1.408 . S
C277 C276 1.349 . S
C277 C278 1.407 . S
C277 H340 0.930 . S
C278 C277 1.407 . S
C278 C279 1.449 . S
C278 C282 1.535 1_455 S
C279 C278 1.449 . S
C279 C280 1.384 . S
C279 C304 1.553 . S
C280 C279 1.384 . S
C280 C281 1.364 . S
C280 C283 1.450 . S
C281 C276 1.367 . S
C281 C280 1.364 . S
C281 H341 0.931 . S
C282 C278 1.535 1_655 S
C282 H342 0.959 . S
C282 H343 0.961 . S
C282 H344 0.959 . S
C283 C280 1.450 . S
C283 H345 0.960 . S
C283 H346 0.960 . S
C283 H347 0.960 . S
C284 C285 1.309 . S
C284 C289 1.304 . S
C284 O322 1.435 . S
C285 C284 1.309 . S
C285 C286 1.476 . S
C285 H349 0.930 1_455 S
C286 C285 1.476 . S
C286 C287 1.400 . S
C286 C290 1.567 1_455 S
C287 C286 1.400 . S
C287 C288 1.373 . S
C287 C309 1.432 . S
C288 C287 1.373 . S
C288 C289 1.339 . S
C288 C291 1.530 . S
C289 C284 1.304 . S
C289 C288 1.339 . S
C289 H350 0.930 . S
C290 C286 1.567 1_655 S
C290 H351 0.961 . S
C290 H352 0.960 . S
C290 H353 0.958 . S
C291 C288 1.530 . S
C291 H354 0.961 . S
C291 H355 0.960 . S
C291 H356 0.960 . S
C292 C293 1.530 1_655 S
C292 H358 0.961 . S
C292 H359 0.961 . S
C292 H360 0.959 . S
C293 C292 1.530 1_455 S
C293 O321 1.412 1_455 S
C293 H357 0.980 . S
C294 C295 1.288 . S
C294 C299 1.377 1_655 S
C294 O321 1.393 . S
C295 C294 1.288 . S
C295 C296 1.369 . S
C295 H361 0.932 . S
C296 C295 1.369 . S
C296 C297 1.398 1_655 S
C296 C300 1.527 . S
C297 C296 1.398 1_455 S
C297 C298 1.380 . S
C297 C311 1.497 . S
C298 C297 1.380 . S
C298 C299 1.383 . S
C298 C301 1.603 . S
C299 C294 1.377 1_455 S
C299 C298 1.383 . S
C299 H362 0.929 . S
C300 C296 1.527 . S
C300 H363 0.961 . S
C300 H364 0.959 . S
C300 H365 0.959 . S
C301 C298 1.603 . S
C301 H366 0.960 . S
C301 H367 0.962 . S
C301 H368 0.961 . S
C302 C269 1.587 . S
C302 C303 1.360 . S
C302 C315 1.412 . S
C303 C302 1.360 . S
C303 C304 1.365 . S
C303 H369 0.929 . S
C304 C279 1.553 . S
C304 C303 1.365 . S
C304 C305 1.404 . S
C305 C304 1.404 . S
C305 C306 1.395 . S
C305 C316 1.451 . S
C306 C305 1.395 . S
C306 C307 1.322 . S
C306 H370 0.930 . S
C307 C306 1.322 . S
C307 C308 1.459 . S
C307 H371 0.929 . S
C308 C307 1.459 . S
C308 C309 1.445 . S
C308 C317 1.395 . S
C309 C287 1.432 . S
C309 C308 1.445 . S
C309 C310 1.370 . S
C310 C309 1.370 . S
C310 C311 1.438 . S
C310 H372 0.930 . S
C311 C297 1.497 . S
C311 C310 1.438 . S
C311 C312 1.360 . S
C312 C311 1.360 . S
C312 C313 1.401 . S
C312 C317 1.446 . S
C313 C312 1.401 . S
C313 C314 1.347 . S
C313 H373 0.929 . S
C314 C313 1.347 . S
C314 C315 1.455 . S
C314 H374 0.930 . S
C315 C302 1.412 . S
C315 C314 1.455 . S
C315 C316 1.331 . S
C316 C305 1.451 . S
C316 C315 1.331 . S
C316 C317 1.497 . S
C317 C308 1.395 . S
C317 C312 1.446 . S
C317 C316 1.497 . S
C318 C319 1.582 . S
C318 H375 0.962 . S
C318 H376 0.959 . S
C318 H377 0.958 . S
C319 C318 1.582 . S
C319 O322 1.458 . S
C319 H348 0.980 . S
O320 C265 1.426 . S
O320 C266 1.334 . S
O321 C293 1.412 1_655 S
O321 C294 1.393 . S
O322 C284 1.435 . S
O322 C319 1.458 . S
O323 C275 1.468 . S
O323 C276 1.408 . S
H324 C265 0.980 1_455 S
H325 C264 0.959 . S
H326 C264 0.959 . S
H327 C264 0.960 . S
H328 C267 0.929 . S
H329 C271 0.929 . S
H330 C272 0.959 . S
H331 C272 0.961 . S
H332 C272 0.961 . S
H333 C273 0.960 . S
H334 C273 0.960 . S
H335 C273 0.961 . S
H336 C275 0.980 . S
H337 C274 0.961 . S
H338 C274 0.960 . S
H339 C274 0.959 . S
H340 C277 0.930 . S
H341 C281 0.931 . S
H342 C282 0.959 . S
H343 C282 0.961 . S
H344 C282 0.959 . S
H345 C283 0.960 . S
H346 C283 0.960 . S
H347 C283 0.960 . S
H348 C319 0.980 . S
H349 C285 0.930 1_655 S
H350 C289 0.930 . S
H351 C290 0.961 . S
H352 C290 0.960 . S
H353 C290 0.958 . S
H354 C291 0.961 . S
H355 C291 0.960 . S
H356 C291 0.960 . S
H357 C293 0.980 . S
H358 C292 0.961 . S
H359 C292 0.961 . S
H360 C292 0.959 . S
H361 C295 0.932 . S
H362 C299 0.929 . S
H363 C300 0.961 . S
H364 C300 0.959 . S
H365 C300 0.959 . S
H366 C301 0.960 . S
H367 C301 0.962 . S
H368 C301 0.961 . S
H369 C303 0.929 . S
H370 C306 0.930 . S
H371 C307 0.929 . S
H372 C310 0.930 . S
H373 C313 0.929 . S
H374 C314 0.930 . S
H375 C318 0.962 . S
H376 C318 0.959 . S
H377 C318 0.958 . S
C378 C379 1.560 1_565 S
C378 H439 0.959 . S
C378 H440 0.959 . S
C378 H441 0.960 . S
C379 C378 1.560 1_545 S
C379 O434 1.426 1_545 S
C379 H438 0.980 . S
C380 C381 1.407 . S
C380 C385 1.418 1_545 S
C380 O434 1.334 1_545 S
C381 C380 1.407 . S
C381 C382 1.360 . S
C381 H442 0.929 . S
C382 C381 1.360 . S
C382 C383 1.401 . S
C382 C386 1.527 . S
C383 C382 1.401 . S
C383 C384 1.405 1_545 S
C383 C416 1.587 . S
C384 C383 1.405 1_565 S
C384 C385 1.332 . S
C384 C387 1.496 . S
C385 C380 1.418 1_565 S
C385 C384 1.332 . S
C385 H443 0.929 . S
C386 C382 1.527 . S
C386 H444 0.959 . S
C386 H445 0.961 . S
C386 H446 0.961 . S
C387 C384 1.496 . S
C387 H447 0.960 . S
C387 H448 0.960 . S
C387 H449 0.961 . S
C388 C389 1.517 . S
C388 H451 0.961 . S
C388 H452 0.960 . S
C388 H453 0.959 . S
C389 C388 1.517 . S
C389 O437 1.468 . S
C389 H450 0.980 . S
C390 C391 1.349 . S
C390 C395 1.367 . S
C390 O437 1.408 . S
C391 C390 1.349 . S
C391 C392 1.407 . S
C391 H454 0.930 . S
C392 C391 1.407 . S
C392 C393 1.449 . S
C392 C396 1.535 1_545 S
C393 C392 1.449 . S
C393 C394 1.384 . S
C393 C418 1.553 . S
C394 C393 1.384 . S
C394 C395 1.364 . S
C394 C397 1.450 . S
C395 C390 1.367 . S
C395 C394 1.364 . S
C395 H455 0.931 . S
C396 C392 1.535 1_565 S
C396 H456 0.959 . S
C396 H457 0.961 . S
C396 H458 0.959 . S
C397 C394 1.450 . S
C397 H459 0.960 . S
C397 H460 0.960 . S
C397 H461 0.960 . S
C398 C399 1.309 . S
C398 C403 1.304 . S
C398 O436 1.435 . S
C399 C398 1.309 . S
C399 C400 1.476 . S
C399 H463 0.930 . S
C400 C399 1.476 . S
C400 C401 1.400 . S
C400 C404 1.567 1_545 S
C401 C400 1.400 . S
C401 C402 1.373 . S
C401 C423 1.432 . S
C402 C401 1.373 . S
C402 C403 1.339 . S
C402 C405 1.530 . S
C403 C398 1.304 . S
C403 C402 1.339 . S
C403 H464 0.930 . S
C404 C400 1.567 1_565 S
C404 H465 0.961 . S
C404 H466 0.960 . S
C404 H467 0.958 . S
C405 C402 1.530 . S
C405 H468 0.961 . S
C405 H469 0.960 . S
C405 H470 0.960 . S
C406 C407 1.530 1_565 S
C406 H472 0.961 1_565 S
C406 H473 0.961 . S
C406 H474 0.959 . S
C407 C406 1.530 1_545 S
C407 O435 1.412 1_545 S
C407 H471 0.980 . S
C408 C409 1.288 1_545 S
C408 C413 1.377 . S
C408 O435 1.393 1_545 S
C409 C408 1.288 1_565 S
C409 C410 1.369 . S
C409 H475 0.932 . S
C410 C409 1.369 . S
C410 C411 1.398 1_565 S
C410 C414 1.527 . S
C411 C410 1.398 1_545 S
C411 C412 1.380 . S
C411 C425 1.497 . S
C412 C411 1.380 . S
C412 C413 1.383 . S
C412 C415 1.603 . S
C413 C408 1.377 . S
C413 C412 1.383 . S
C413 H476 0.929 . S
C414 C410 1.527 . S
C414 H477 0.961 . S
C414 H478 0.959 . S
C414 H479 0.959 . S
C415 C412 1.603 . S
C415 H480 0.960 . S
C415 H481 0.962 . S
C415 H482 0.961 . S
C416 C383 1.587 . S
C416 C417 1.360 . S
C416 C429 1.412 . S
C417 C416 1.360 . S
C417 C418 1.365 . S
C417 H483 0.929 . S
C418 C393 1.553 . S
C418 C417 1.365 . S
C418 C419 1.404 . S
C419 C418 1.404 . S
C419 C420 1.395 . S
C419 C430 1.451 . S
C420 C419 1.395 . S
C420 C421 1.322 . S
C420 H484 0.930 . S
C421 C420 1.322 . S
C421 C422 1.459 . S
C421 H485 0.929 . S
C422 C421 1.459 . S
C422 C423 1.445 . S
C422 C431 1.395 . S
C423 C401 1.432 . S
C423 C422 1.445 . S
C423 C424 1.370 . S
C424 C423 1.370 . S
C424 C425 1.438 . S
C424 H486 0.930 . S
C425 C411 1.497 . S
C425 C424 1.438 . S
C425 C426 1.360 . S
C426 C425 1.360 . S
C426 C427 1.401 . S
C426 C431 1.446 . S
C427 C426 1.401 . S
C427 C428 1.347 . S
C427 H487 0.929 . S
C428 C427 1.347 . S
C428 C429 1.455 . S
C428 H488 0.930 . S
C429 C416 1.412 . S
C429 C428 1.455 . S
C429 C430 1.331 . S
C430 C419 1.451 . S
C430 C429 1.331 . S
C430 C431 1.497 . S
C431 C422 1.395 . S
C431 C426 1.446 . S
C431 C430 1.497 . S
C432 C433 1.582 . S
C432 H489 0.962 . S
C432 H490 0.959 . S
C432 H491 0.958 . S
C433 C432 1.582 . S
C433 O436 1.458 . S
C433 H462 0.980 . S
O434 C379 1.426 1_565 S
O434 C380 1.334 1_565 S
O435 C407 1.412 1_565 S
O435 C408 1.393 1_565 S
O436 C398 1.435 . S
O436 C433 1.458 . S
O437 C389 1.468 . S
O437 C390 1.408 . S
H438 C379 0.980 . S
H439 C378 0.959 . S
H440 C378 0.959 . S
H441 C378 0.960 . S
H442 C381 0.929 . S
H443 C385 0.929 . S
H444 C386 0.959 . S
H445 C386 0.961 . S
H446 C386 0.961 . S
H447 C387 0.960 . S
H448 C387 0.960 . S
H449 C387 0.961 . S
H450 C389 0.980 . S
H451 C388 0.961 . S
H452 C388 0.960 . S
H453 C388 0.959 . S
H454 C391 0.930 . S
H455 C395 0.931 . S
H456 C396 0.959 . S
H457 C396 0.961 . S
H458 C396 0.959 . S
H459 C397 0.960 . S
H460 C397 0.960 . S
H461 C397 0.960 . S
H462 C433 0.980 . S
H463 C399 0.930 . S
H464 C403 0.930 . S
H465 C404 0.961 . S
H466 C404 0.960 . S
H467 C404 0.958 . S
H468 C405 0.961 . S
H469 C405 0.960 . S
H470 C405 0.960 . S
H471 C407 0.980 . S
H472 C406 0.961 1_545 S
H473 C406 0.961 . S
H474 C406 0.959 . S
H475 C409 0.932 . S
H476 C413 0.929 . S
H477 C414 0.961 . S
H478 C414 0.959 . S
H479 C414 0.959 . S
H480 C415 0.960 . S
H481 C415 0.962 . S
H482 C415 0.961 . S
H483 C417 0.929 . S
H484 C420 0.930 . S
H485 C421 0.929 . S
H486 C424 0.930 . S
H487 C427 0.929 . S
H488 C428 0.930 . S
H489 C432 0.962 . S
H490 C432 0.959 . S
H491 C432 0.958 . S
C492 C493 1.560 . S
C492 H553 0.959 . S
C492 H554 0.959 . S
C492 H555 0.960 . S
C493 C492 1.560 . S
C493 O548 1.426 . S
C493 H552 0.980 . S
C494 C495 1.407 . S
C494 C499 1.418 . S
C494 O548 1.334 . S
C495 C494 1.407 . S
C495 C496 1.360 . S
C495 H556 0.929 . S
C496 C495 1.360 . S
C496 C497 1.401 . S
C496 C500 1.527 . S
C497 C496 1.401 . S
C497 C498 1.405 . S
C497 C530 1.587 . S
C498 C497 1.405 . S
C498 C499 1.332 . S
C498 C501 1.496 . S
C499 C494 1.418 . S
C499 C498 1.332 . S
C499 H557 0.929 . S
C500 C496 1.527 . S
C500 H558 0.959 . S
C500 H559 0.961 . S
C500 H560 0.961 . S
C501 C498 1.496 . S
C501 H561 0.960 . S
C501 H562 0.960 . S
C501 H563 0.961 . S
C502 C503 1.517 . S
C502 H565 0.961 . S
C502 H566 0.960 . S
C502 H567 0.959 . S
C503 C502 1.517 . S
C503 O551 1.468 . S
C503 H564 0.980 . S
C504 C505 1.349 . S
C504 C509 1.367 . S
C504 O551 1.408 . S
C505 C504 1.349 . S
C505 C506 1.407 . S
C505 H568 0.930 . S
C506 C505 1.407 . S
C506 C507 1.449 . S
C506 C510 1.535 . S
C507 C506 1.449 . S
C507 C508 1.384 . S
C507 C532 1.553 . S
C508 C507 1.384 . S
C508 C509 1.364 . S
C508 C511 1.450 . S
C509 C504 1.367 . S
C509 C508 1.364 . S
C509 H569 0.931 . S
C510 C506 1.535 . S
C510 H570 0.959 . S
C510 H571 0.961 . S
C510 H572 0.959 . S
C511 C508 1.450 . S
C511 H573 0.960 . S
C511 H574 0.960 . S
C511 H575 0.960 . S
C512 C513 1.309 . S
C512 C517 1.304 . S
C512 O550 1.435 . S
C513 C512 1.309 . S
C513 C514 1.476 . S
C513 H577 0.930 . S
C514 C513 1.476 . S
C514 C515 1.400 . S
C514 C518 1.567 . S
C515 C514 1.400 . S
C515 C516 1.373 . S
C515 C537 1.432 . S
C516 C515 1.373 . S
C516 C517 1.339 . S
C516 C519 1.530 . S
C517 C512 1.304 . S
C517 C516 1.339 . S
C517 H578 0.930 . S
C518 C514 1.567 . S
C518 H579 0.961 . S
C518 H580 0.960 . S
C518 H581 0.958 . S
C519 C516 1.530 . S
C519 H582 0.961 . S
C519 H583 0.960 . S
C519 H584 0.960 . S
C520 C521 1.530 . S
C520 H586 0.949 1_556 S
C520 H587 0.961 . S
C520 H588 0.959 1_556 S
C521 C520 1.530 . S
C521 O549 1.412 . S
C521 H585 0.980 . S
C522 C523 1.288 . S
C522 C527 1.377 . S
C522 O549 1.393 . S
C523 C522 1.288 . S
C523 C524 1.369 . S
C523 H589 0.932 . S
C524 C523 1.369 . S
C524 C525 1.398 . S
C524 C528 1.527 . S
C525 C524 1.398 . S
C525 C526 1.380 . S
C525 C539 1.497 . S
C526 C525 1.380 . S
C526 C527 1.383 . S
C526 C529 1.603 . S
C527 C522 1.377 . S
C527 C526 1.383 . S
C527 H590 0.929 . S
C528 C524 1.527 . S
C528 H591 0.961 . S
C528 H592 0.959 . S
C528 H593 0.959 . S
C529 C526 1.603 . S
C529 H594 0.960 . S
C529 H595 0.962 . S
C529 H596 0.961 . S
C530 C497 1.587 . S
C530 C531 1.360 . S
C530 C543 1.412 . S
C531 C530 1.360 . S
C531 C532 1.365 . S
C531 H597 0.929 . S
C532 C507 1.553 . S
C532 C531 1.365 . S
C532 C533 1.404 . S
C533 C532 1.404 . S
C533 C534 1.395 . S
C533 C544 1.451 . S
C534 C533 1.395 . S
C534 C535 1.322 . S
C534 H598 0.930 . S
C535 C534 1.322 . S
C535 C536 1.459 . S
C535 H599 0.929 . S
C536 C535 1.459 . S
C536 C537 1.445 . S
C536 C545 1.395 . S
C537 C515 1.432 . S
C537 C536 1.445 . S
C537 C538 1.370 . S
C538 C537 1.370 . S
C538 C539 1.438 . S
C538 H600 0.930 . S
C539 C525 1.497 . S
C539 C538 1.438 . S
C539 C540 1.360 . S
C540 C539 1.360 . S
C540 C541 1.401 . S
C540 C545 1.446 . S
C541 C540 1.401 . S
C541 C542 1.347 . S
C541 H601 0.929 . S
C542 C541 1.347 . S
C542 C543 1.455 . S
C542 H602 0.930 . S
C543 C530 1.412 . S
C543 C542 1.455 . S
C543 C544 1.331 . S
C544 C533 1.451 . S
C544 C543 1.331 . S
C544 C545 1.497 . S
C545 C536 1.395 . S
C545 C540 1.446 . S
C545 C544 1.497 . S
C546 C547 1.582 . S
C546 H603 0.962 1_556 S
C546 H604 0.959 . S
C546 H605 0.958 1_556 S
C547 C546 1.582 . S
C547 O550 1.458 . S
C547 H576 0.980 . S
O548 C493 1.426 . S
O548 C494 1.334 . S
O549 C521 1.412 . S
O549 C522 1.393 . S
O550 C512 1.435 . S
O550 C547 1.458 . S
O551 C503 1.468 . S
O551 C504 1.408 . S
H552 C493 0.980 . S
H553 C492 0.959 . S
H554 C492 0.959 . S
H555 C492 0.960 . S
H556 C495 0.929 . S
H557 C499 0.929 . S
H558 C500 0.959 . S
H559 C500 0.961 . S
H560 C500 0.961 . S
H561 C501 0.960 . S
H562 C501 0.960 . S
H563 C501 0.961 . S
H564 C503 0.980 . S
H565 C502 0.961 . S
H566 C502 0.960 . S
H567 C502 0.959 . S
H568 C505 0.930 . S
H569 C509 0.931 . S
H570 C510 0.959 . S
H571 C510 0.961 . S
H572 C510 0.959 . S
H573 C511 0.960 . S
H574 C511 0.960 . S
H575 C511 0.960 . S
H576 C547 0.980 . S
H577 C513 0.930 . S
H578 C517 0.930 . S
H579 C518 0.961 . S
H580 C518 0.960 . S
H581 C518 0.958 . S
H582 C519 0.961 . S
H583 C519 0.960 . S
H584 C519 0.960 . S
H585 C521 0.980 . S
H586 C520 0.949 1_554 S
H587 C520 0.961 . S
H588 C520 0.959 1_554 S
H589 C523 0.932 . S
H590 C527 0.929 . S
H591 C528 0.961 . S
H592 C528 0.959 . S
H593 C528 0.959 . S
H594 C529 0.960 . S
H595 C529 0.962 . S
H596 C529 0.961 . S
H597 C531 0.929 . S
H598 C534 0.930 . S
H599 C535 0.929 . S
H600 C538 0.930 . S
H601 C541 0.929 . S
H602 C542 0.930 . S
H603 C546 0.962 1_554 S
H604 C546 0.959 . S
H605 C546 0.958 1_554 S
C319 C29 2.040 1_455 S
C137 C433 2.049 1_565 S
C225 C493 1.064 . S
C49 C293 1.831 . S
C407 C117 1.809 . S
C205 C503 0.846 . S
C389 C233 0.831 . S
C57 C521 1.795 1_554 S
C265 C108 1.010 . S
C379 C196 1.076 1_545 S
C547 C20 2.069 1_556 S
C145 C275 0.905 . S
