# Generated by pormake.
# Topology pyr, (3,6)-cn, num edge types: 1
# Building blocks:
#     Node 0, Type 0, BuildingBlock: BETDIP_clean_linker_0, # of connection points: 3
#     Node 1, Type 0, BuildingBlock: BETDIP_clean_linker_0, # of connection points: 3
#     Node 2, Type 0, BuildingBlock: BETDIP_clean_linker_0, # of connection points: 3
#     Node 3, Type 0, BuildingBlock: BETDIP_clean_linker_0, # of connection points: 3
#     Node 4, Type 0, BuildingBlock: BETDIP_clean_linker_0, # of connection points: 3
#     Node 5, Type 0, BuildingBlock: BETDIP_clean_linker_0, # of connection points: 3
#     Node 6, Type 0, BuildingBlock: BETDIP_clean_linker_0, # of connection points: 3
#     Node 7, Type 0, BuildingBlock: BETDIP_clean_linker_0, # of connection points: 3
#     Node 8, Type 1, BuildingBlock: GEDQOX_clean_sbu_0, # of connection points: 6
#     Node 9, Type 1, BuildingBlock: GEDQOX_clean_sbu_0, # of connection points: 6
#     Node 10, Type 1, BuildingBlock: GEDQOX_clean_sbu_0, # of connection points: 6
#     Node 11, Type 1, BuildingBlock: GEDQOX_clean_sbu_0, # of connection points: 6
#     Edge 12, Type (0, 1), BuildingBlock: AJUNOK_clean_linker_0, # of connection points: 2
#     Edge 13, Type (0, 1), BuildingBlock: AJUNOK_clean_linker_0, # of connection points: 2
#     Edge 14, Type (0, 1), BuildingBlock: AJUNOK_clean_linker_0, # of connection points: 2
#     Edge 15, Type (0, 1), BuildingBlock: AJUNOK_clean_linker_0, # of connection points: 2
#     Edge 16, Type (0, 1), BuildingBlock: AJUNOK_clean_linker_0, # of connection points: 2
#     Edge 17, Type (0, 1), BuildingBlock: AJUNOK_clean_linker_0, # of connection points: 2
#     Edge 18, Type (0, 1), BuildingBlock: AJUNOK_clean_linker_0, # of connection points: 2
#     Edge 19, Type (0, 1), BuildingBlock: AJUNOK_clean_linker_0, # of connection points: 2
#     Edge 20, Type (0, 1), BuildingBlock: AJUNOK_clean_linker_0, # of connection points: 2
#     Edge 21, Type (0, 1), BuildingBlock: AJUNOK_clean_linker_0, # of connection points: 2
#     Edge 22, Type (0, 1), BuildingBlock: AJUNOK_clean_linker_0, # of connection points: 2
#     Edge 23, Type (0, 1), BuildingBlock: AJUNOK_clean_linker_0, # of connection points: 2
#     Edge 24, Type (0, 1), BuildingBlock: AJUNOK_clean_linker_0, # of connection points: 2
#     Edge 25, Type (0, 1), BuildingBlock: AJUNOK_clean_linker_0, # of connection points: 2
#     Edge 26, Type (0, 1), BuildingBlock: AJUNOK_clean_linker_0, # of connection points: 2
#     Edge 27, Type (0, 1), BuildingBlock: AJUNOK_clean_linker_0, # of connection points: 2
#     Edge 28, Type (0, 1), BuildingBlock: AJUNOK_clean_linker_0, # of connection points: 2
#     Edge 29, Type (0, 1), BuildingBlock: AJUNOK_clean_linker_0, # of connection points: 2
#     Edge 30, Type (0, 1), BuildingBlock: AJUNOK_clean_linker_0, # of connection points: 2
#     Edge 31, Type (0, 1), BuildingBlock: AJUNOK_clean_linker_0, # of connection points: 2
#     Edge 32, Type (0, 1), BuildingBlock: AJUNOK_clean_linker_0, # of connection points: 2
#     Edge 33, Type (0, 1), BuildingBlock: AJUNOK_clean_linker_0, # of connection points: 2
#     Edge 34, Type (0, 1), BuildingBlock: AJUNOK_clean_linker_0, # of connection points: 2
#     Edge 35, Type (0, 1), BuildingBlock: AJUNOK_clean_linker_0, # of connection points: 2
# Relax obj value: 0.302
# Max RMSD: 0.195
# Mean RMSD: 0.167
data_MOF--net-pyr--node1-GEDQOX_clean_sbu_0--node2-BETDIP_clean_linker_0--edge1-AJUNOK_clean_linker_0
_symmetry_space_group_name_H-M    P1
_symmetry_Int_Tables_number       1
_symmetry_cell_setting            triclinic
loop_
_symmetry_equiv_pos_as_xyz
'x, y, z'
_cell_length_a     29.016082
_cell_length_b     28.950178
_cell_length_c     26.401299
_cell_angle_alpha  93.843875
_cell_angle_beta   86.405802
_cell_angle_gamma 92.767283
loop_
_atom_site_label
_atom_site_type_symbol
_atom_site_fract_x
_atom_site_fract_y
_atom_site_fract_z
_atom_type_partial_charge
H0 H 0.16742 0.20133 0.26881 0.0
H1 H 0.27766 0.20773 0.1519 0.0
H2 H 0.27712 0.10544 0.26611 0.0
H3 H 0.24325 0.28936 0.14462 0.0
C4 C 0.2071 0.28727 0.15791 0.0
C5 C 0.19996 0.18873 0.25254 0.0
C6 C 0.21975 0.15157 0.27576 0.0
C7 C 0.21969 0.2105 0.20865 0.0
C8 C 0.26215 0.19181 0.18511 0.0
C9 C 0.28454 0.15269 0.20429 0.0
C10 C 0.26183 0.13409 0.25009 0.0
N11 N 0.19357 0.24873 0.19019 0.0
H12 H 0.40088 0.86529 0.80926 0.0
H13 H 0.43253 0.74723 0.70856 0.0
H14 H 0.53143 0.79987 0.81448 0.0
H15 H 0.39511 0.78877 0.65547 0.0
C16 C 0.3647 0.79648 0.68015 0.0
C17 C 0.42473 0.83895 0.79549 0.0
C18 C 0.46746 0.83663 0.81767 0.0
C19 C 0.41256 0.80773 0.75524 0.0
C20 C 0.44248 0.77281 0.73822 0.0
C21 C 0.48528 0.76989 0.75882 0.0
C22 C 0.4981 0.80191 0.79865 0.0
N23 N 0.3703 0.81183 0.73183 0.0
H24 H 0.86355 0.49498 0.81537 0.0
H25 H 0.75293 0.39342 0.78984 0.0
H26 H 0.8467 0.37617 0.90592 0.0
H27 H 0.79256 0.41176 0.70045 0.0
C28 C 0.77838 0.44548 0.71036 0.0
C29 C 0.84512 0.46298 0.82485 0.0
C30 C 0.85974 0.43739 0.86423 0.0
C31 C 0.80763 0.44607 0.79646 0.0
C32 C 0.78332 0.40512 0.80976 0.0
C33 C 0.79656 0.38031 0.8498 0.0
C34 C 0.83559 0.3959 0.87575 0.0
N35 N 0.79343 0.47032 0.75526 0.0
H36 H 0.80473 0.85545 0.26193 0.0
H37 H 0.89973 0.9706 0.29545 0.0
H38 H 0.83251 0.89558 0.41665 0.0
H39 H 0.85793 0.8861 0.14427 0.0
C40 C 0.8652 0.87927 0.18284 0.0
C41 C 0.82167 0.87899 0.28925 0.0
C42 C 0.81452 0.87224 0.34114 0.0
C43 C 0.85312 0.91394 0.27254 0.0
C44 C 0.87496 0.94406 0.30839 0.0
C45 C 0.86712 0.93803 0.36067 0.0
C46 C 0.83686 0.90205 0.37659 0.0
N47 N 0.86563 0.91737 0.21998 0.0
H48 H 0.82968 0.87359 0.96542 0.0
H49 H 0.94318 0.87136 0.85173 0.0
H50 H 0.83881 0.97353 0.84958 0.0
H51 H 0.97212 0.81268 0.89484 0.0
C52 C 0.94847 0.80006 0.92478 0.0
C53 C 0.84736 0.88849 0.93268 0.0
C54 C 0.82744 0.92768 0.91204 0.0
C55 C 0.88904 0.86688 0.91179 0.0
C56 C 0.91152 0.88621 0.86735 0.0
C57 C 0.89436 0.92478 0.84303 0.0
C58 C 0.85237 0.94454 0.86678 0.0
N59 N 0.90606 0.8262 0.93613 0.0
H60 H 0.67703 0.17185 0.33766 0.0
H61 H 0.65075 0.28623 0.44526 0.0
H62 H 0.5762 0.27086 0.30929 0.0
H63 H 0.67651 0.2415 0.50028 0.0
C64 C 0.70326 0.2221 0.47902 0.0
C65 C 0.65777 0.20235 0.34922 0.0
C66 C 0.62469 0.21733 0.31778 0.0
C67 C 0.66615 0.22577 0.39591 0.0
C68 C 0.64308 0.26628 0.41042 0.0
C69 C 0.61083 0.28275 0.37964 0.0
C70 C 0.60151 0.25841 0.33297 0.0
N71 N 0.6991 0.20859 0.42666 0.0
H72 H 0.2485 0.58272 0.30388 0.0
H73 H 0.36704 0.67308 0.33367 0.0
H74 H 0.28343 0.69709 0.21019 0.0
H75 H 0.37217 0.55659 0.32483 0.0
C76 C 0.36155 0.57431 0.36098 0.0
C77 C 0.27042 0.61276 0.29479 0.0
C78 C 0.2607 0.63918 0.25395 0.0
C79 C 0.30914 0.62504 0.32334 0.0
C80 C 0.3375 0.66366 0.31136 0.0
C81 C 0.3278 0.6904 0.27143 0.0
C82 C 0.28974 0.67771 0.24264 0.0
N83 N 0.32025 0.59908 0.3643 0.0
H84 H 0.18497 0.11715 0.85467 0.0
H85 H 0.29512 0.22045 0.8768 0.0
H86 H 0.25532 0.17995 0.72642 0.0
H87 H 0.25117 0.19533 0.99903 0.0
C88 C 0.24066 0.20326 0.96195 0.0
C89 C 0.21165 0.14058 0.83915 0.0
C90 C 0.21675 0.1453 0.7864 0.0
C91 C 0.23929 0.16822 0.87218 0.0
C92 C 0.27344 0.19906 0.85191 0.0
C93 C 0.27821 0.20419 0.79958 0.0
C94 C 0.25084 0.17635 0.7671 0.0
N95 N 0.23125 0.16578 0.92566 0.0
Nd96 Nd 0.0768 0.99327 0.54888 0.0
Nd97 Nd 1.03875 0.08297 0.57202 0.0
C98 C 0.10643 0.91073 0.51801 0.0
C99 C 0.12745 0.87554 0.54533 0.0
C100 C 0.14791 0.83766 0.51865 0.0
C101 C 0.17914 0.81202 0.54228 0.0
C102 C 0.19175 0.82552 0.59201 0.0
C103 C 0.16708 0.86031 0.62004 0.0
C104 C 0.13479 0.88464 0.59703 0.0
C105 C 0.11702 0.04273 0.62893 0.0
C106 C 1.0015 1.00095 0.6514 0.0
C107 C 1.0114 0.16809 0.59255 0.0
C108 C 0.96401 0.18378 0.59787 0.0
C109 C 0.95412 0.22625 0.57937 0.0
C110 C 0.90881 0.23492 0.5689 0.0
C111 C 0.87336 0.2009 0.57634 0.0
C112 C 0.88264 0.16014 0.59882 0.0
C113 C 0.9277 0.15171 0.60978 0.0
C114 C 0.98118 1.02302 0.51684 0.0
C115 C 0.1148 0.0755 0.46851 0.0
O116 O 0.06279 0.91809 0.53012 0.0
O117 O 0.13188 0.9491 0.51494 0.0
O118 O 0.10749 0.99877 0.62771 0.0
O119 O 0.10775 0.05886 0.58801 0.0
O120 O 1.01792 0.97298 0.61264 0.0
O121 O 1.01047 0.04639 0.64764 0.0
O122 O 1.02371 0.14217 0.62771 0.0
O123 O 1.0233 0.15146 0.54669 0.0
O124 O 0.96707 0.0498 0.55515 0.0
O125 O 1.02407 0.02843 0.50894 0.0
O126 O 0.09096 0.10341 0.50199 0.0
O127 O 0.11338 0.03045 0.47723 0.0
H128 H 0.14206 0.82975 0.47881 0.0
H129 H 0.19561 0.78373 0.52045 0.0
H130 H 0.17532 0.87158 0.65849 0.0
H131 H 0.11849 0.91313 0.61852 0.0
H132 H 0.98181 0.251 0.56922 0.0
H133 H 0.90212 0.26643 0.5512 0.0
H134 H 0.85562 0.13352 0.60463 0.0
H135 H 0.93465 0.11849 0.62359 0.0
Nd136 Nd 0.55216 1.014 0.08736 0.0
Nd137 Nd 0.55824 0.06455 1.02428 0.0
C138 C 0.54867 0.94064 0.1429 0.0
C139 C 0.5151 0.90663 0.16466 0.0
C140 C 0.51459 0.86075 0.14386 0.0
C141 C 0.48356 0.82751 0.16367 0.0
C142 C 0.45264 0.83941 0.20494 0.0
C143 C 0.45333 0.88522 0.22622 0.0
C144 C 0.48433 0.91868 0.20617 0.0
C145 C 0.47017 0.06822 0.11146 0.0
C146 C 0.5118 0.97366 0.98324 0.0
C147 C 0.5653 0.13773 0.96818 0.0
C148 C 0.60326 0.16569 0.945 0.0
C149 C 0.59452 0.19484 0.90681 0.0
C150 C 0.62944 0.22527 0.88835 0.0
C151 C 0.67325 0.22705 0.90833 0.0
C152 C 0.68252 0.1963 0.94493 0.0
C153 C 0.64775 0.1656 0.96302 0.0
C154 C 0.64041 1.01069 1.00119 0.0
C155 C 0.59767 0.10159 0.13064 0.0
O156 O 0.55431 0.93841 0.09355 0.0
O157 O 0.54907 0.98315 0.16245 0.0
O158 O 0.50019 0.05681 0.1421 0.0
O159 O 0.48517 0.05248 0.06646 0.0
O160 O 0.53608 0.96248 1.02 0.0
O161 O 0.50593 1.0178 0.98063 0.0
O162 O 0.562 0.14038 1.01762 0.0
O163 O 0.55939 0.09546 0.94917 0.0
O164 O 0.60997 1.02058 0.97039 0.0
O165 O 0.62529 0.02737 1.04566 0.0
O166 O 0.57175 0.11412 0.09568 0.0
O167 O 0.60674 0.05803 0.12808 0.0
H168 H 0.53823 0.85054 0.11211 0.0
H169 H 0.48353 0.79246 0.14646 0.0
H170 H 0.43035 0.89499 0.25868 0.0
H171 H 0.48427 0.95375 0.22326 0.0
H172 H 0.56034 0.19513 0.8925 0.0
H173 H 0.62166 0.24888 0.86022 0.0
H174 H 0.71625 0.19698 0.96047 0.0
H175 H 0.65509 0.14293 0.99228 0.0
Nd176 Nd 0.52105 0.50604 0.59635 0.0
Nd177 Nd 0.5902 0.55699 0.5351 0.0
C178 C 0.44825 0.47926 0.65399 0.0
C179 C 0.42591 0.43807 0.67497 0.0
C180 C 0.38494 0.44272 0.70528 0.0
C181 C 0.36333 0.4042 0.72689 0.0
C182 C 0.38257 0.36057 0.71848 0.0
C183 C 0.42389 0.35602 0.68825 0.0
C184 C 0.44555 0.39471 0.66655 0.0
C185 C 0.60929 0.48719 0.61766 0.0
C186 C 0.54762 0.61569 0.63031 0.0
C187 C 0.66271 0.58429 0.4772 0.0
C188 C 0.68231 0.62624 0.45533 0.0
C189 C 0.72375 0.62411 0.42544 0.0
C190 C 0.74311 0.6638 0.40411 0.0
C191 C 0.72106 0.70599 0.41234 0.0
C192 C 0.67916 0.70791 0.44191 0.0
C193 C 0.65982 0.66812 0.46335 0.0
C194 C 0.50082 0.57023 0.50958 0.0
C195 C 0.56366 0.44802 0.5003 0.0
O196 O 0.48802 0.49256 0.67176 0.0
O197 O 0.44734 0.48236 0.60491 0.0
O198 O 0.57573 0.45603 0.61432 0.0
O199 O 0.59559 0.52703 0.61109 0.0
O200 O 0.51558 0.58177 0.62904 0.0
O201 O 0.58456 0.61405 0.59889 0.0
O202 O 0.62394 0.56791 0.45929 0.0
O203 O 0.66311 0.58316 0.52655 0.0
O204 O 0.53242 0.60345 0.51346 0.0
O205 O 0.51732 0.53257 0.51902 0.0
O206 O 0.59661 0.48102 0.50327 0.0
O207 O 0.52599 0.45045 0.53075 0.0
H208 H 0.3697 0.47617 0.71228 0.0
H209 H 0.33153 0.40843 0.75018 0.0
H210 H 0.43886 0.32251 0.68067 0.0
H211 H 0.47738 0.39089 0.64322 0.0
H212 H 0.74122 0.59181 0.41883 0.0
H213 H 0.77546 0.66166 0.38139 0.0
H214 H 0.66205 0.74032 0.44941 0.0
H215 H 0.62766 0.67002 0.48645 0.0
Nd216 Nd 1.03285 0.54511 0.09587 0.0
Nd217 Nd 0.09587 0.53684 1.01026 0.0
C218 C 0.96828 0.55415 0.16999 0.0
C219 C 0.94901 0.59908 0.18882 0.0
C220 C 0.90119 0.60528 0.19156 0.0
C221 C 0.88407 0.64992 0.19994 0.0
C222 C 0.91452 0.6892 0.20513 0.0
C223 C 0.96222 0.68245 0.20367 0.0
C224 C 0.97912 0.63814 0.19638 0.0
C225 C 0.11559 0.59255 0.11358 0.0
C226 C 1.02746 0.62975 1.01556 0.0
C227 C 0.16274 0.52953 0.93844 0.0
C228 C 0.19403 0.4904 0.93119 0.0
C229 C 0.21413 0.47438 0.97343 0.0
C230 C 0.229 0.42915 0.97219 0.0
C231 C 0.2244 0.39891 0.9288 0.0
C232 C 0.20951 0.41673 0.88455 0.0
C233 C 0.19413 0.462 0.88587 0.0
C234 C 1.01225 0.49071 0.99302 0.0
C235 C 0.10236 0.45319 0.09052 0.0
O236 O 0.9587 0.53964 0.12371 0.0
O237 O 1.01164 0.54934 0.17823 0.0
O238 O 0.07561 0.61063 0.12069 0.0
O239 O 0.11103 0.5524 0.0925 0.0
O240 O 1.00627 0.60855 0.05438 0.0
O241 O 0.06658 0.61136 0.99512 0.0
O242 O 0.16665 0.55726 0.97943 0.0
O243 O 0.11972 0.51767 0.93055 0.0
O244 O 0.05189 0.47196 0.98443 0.0
O245 O 1.01785 0.53064 1.01403 0.0
O246 O 0.12496 0.4773 0.05494 0.0
O247 O 0.06088 0.4686 0.10792 0.0
H248 H 0.87725 0.57589 0.18519 0.0
H249 H 0.84709 0.65382 0.20074 0.0
H250 H 0.98704 0.71157 0.20534 0.0
H251 H 1.01619 0.63498 0.19407 0.0
H252 H 0.21474 0.49527 1.009 0.0
H253 H 0.24077 0.41672 1.00658 0.0
H254 H 0.20726 0.39491 0.84977 0.0
H255 H 0.17889 0.47347 0.85271 0.0
C256 C 0.1909 0.08406 0.3364 0.0
C257 C 0.19515 0.13208 0.32645 0.0
C258 C 0.16591 0.06641 0.38103 0.0
C259 C 0.14301 0.09507 0.42018 0.0
H260 H 0.20631 0.05924 0.30867 0.0
H261 H 0.16429 0.02932 0.3845 0.0
S262 S 0.14609 0.22392 0.41792 0.0
N263 N 0.17561 0.20793 0.36467 0.0
N264 N 0.12969 0.17565 0.44516 0.0
C265 C 0.14798 0.14311 0.41131 0.0
C266 C 0.17335 0.16107 0.36608 0.0
C267 C 0.47322 0.91858 0.85641 0.0
C268 C 0.47926 0.87091 0.86037 0.0
C269 C 0.4825 0.95146 0.89663 0.0
C270 C 0.49806 0.93807 0.94269 0.0
H271 H 0.46167 0.93069 0.82159 0.0
H272 H 0.47819 0.98771 0.89117 0.0
S273 S 0.51597 0.81707 0.97401 0.0
N274 N 0.4994 0.81184 0.91513 0.0
N275 N 0.51689 0.8731 0.99056 0.0
C276 C 0.50334 0.89033 0.94748 0.0
C277 C 0.49406 0.85696 0.90642 0.0
C278 C 0.71879 0.50203 0.69115 0.0
C279 C 0.73693 0.45763 0.68439 0.0
C280 C 0.67831 0.51218 0.6679 0.0
C281 C 0.65417 0.47797 0.63813 0.0
H282 H 0.73572 0.52896 0.71472 0.0
H283 H 0.66509 0.54655 0.67458 0.0
S284 S 0.68834 0.35717 0.60705 0.0
N285 N 0.72861 0.38002 0.64381 0.0
N286 N 0.65236 0.39876 0.60165 0.0
C287 C 0.67245 0.43387 0.63051 0.0
C288 C 0.71388 0.42381 0.65323 0.0
C289 C 0.85438 0.79386 0.16578 0.0
C290 C 0.87591 0.83112 0.19341 0.0
C291 C 0.86468 0.74787 0.17243 0.0
C292 C 0.8977 0.73729 0.20627 0.0
H293 H 0.82963 0.80034 0.13829 0.0
H294 H 0.8479 0.72059 0.14929 0.0
S295 S 0.96178 0.82231 0.2905 0.0
N296 N 0.93122 0.85439 0.25693 0.0
N297 N 0.9486 0.76807 0.2715 0.0
C298 C 0.91798 0.77427 0.23588 0.0
C299 C 0.90781 0.82114 0.22876 0.0
C300 C 0.36547 0.11239 0.20686 0.0
C301 C 0.33155 0.13138 0.1781 0.0
C302 C 0.40807 0.09294 0.18505 0.0
C303 C 0.42153 0.08924 0.13182 0.0
H304 H 0.35965 0.11312 0.24778 0.0
H305 H 0.43114 0.08032 0.21117 0.0
S306 S 0.34684 0.13156 1.03608 0.0
N307 N 0.3168 0.14347 0.09028 0.0
N308 N 0.39427 0.10732 1.05078 0.0
C309 C 0.38797 0.10758 0.10214 0.0
C310 C 0.34456 0.12817 0.1245 0.0
C311 C 0.2783 0.79871 0.68681 0.0
C312 C 0.32 0.7981 0.65684 0.0
C313 C 0.23624 0.80373 0.66484 0.0
C314 C 0.23452 0.80938 0.61233 0.0
H315 H 0.27819 0.79606 0.72755 0.0
H316 H 0.20502 0.80494 0.68955 0.0
S317 S 0.33489 0.80724 0.51743 0.0
N318 N 0.35722 0.79961 0.57204 0.0
N319 N 0.27897 0.81203 0.53091 0.0
C320 C 0.2761 0.8067 0.5818 0.0
C321 C 0.31865 0.80045 0.60409 0.0
C322 C 0.93548 0.42307 0.89977 0.0
C323 C 0.89954 0.45319 0.89484 0.0
C324 C 0.97127 0.43505 0.93228 0.0
C325 C 0.97224 0.4774 0.9617 0.0
H326 H 0.93581 0.38981 0.87836 0.0
H327 H 0.99841 0.41094 0.93426 0.0
S328 S 0.88514 0.56775 0.96396 0.0
N329 N 0.86653 0.52669 0.92272 0.0
N330 N 0.93326 0.54928 0.98426 0.0
C331 C 0.93616 0.50768 0.95744 0.0
C332 C 0.90005 0.49563 0.92382 0.0
C333 C 0.81203 0.80031 0.38712 0.0
C334 C 0.7893 0.83025 0.35826 0.0
C335 C 0.78961 0.76003 0.40407 0.0
C336 C 0.74366 0.74841 0.39287 0.0
H337 H 0.84757 0.80797 0.39638 0.0
H338 H 0.80821 0.73807 0.42662 0.0
S339 S 0.66952 0.81462 0.31724 0.0
N340 N 0.71892 0.84547 0.31824 0.0
N341 N 0.67644 0.76913 0.35015 0.0
C342 C 0.72059 0.77781 0.36368 0.0
C343 C 0.7436 0.81884 0.34615 0.0
C344 C 0.12817 0.32992 0.14419 0.0
C345 C 0.17744 0.32952 0.14512 0.0
C346 C 0.10385 0.369 0.12824 0.0
C347 C 0.12673 0.41083 0.11164 0.0
H348 H 0.10794 0.29933 0.15489 0.0
H349 H 0.06656 0.36574 0.12785 0.0
S350 S 0.25453 0.43187 0.11374 0.0
N351 N 0.24667 0.3784 0.13163 0.0
N352 N 0.20273 0.44898 0.10323 0.0
C353 C 0.17561 0.41101 0.11427 0.0
C354 C 0.20007 0.37172 0.13032 0.0
C355 C 0.75223 0.30568 0.82917 0.0
C356 C 0.76808 0.33934 0.86584 0.0
C357 C 0.72228 0.26867 0.84319 0.0
C358 C 0.70769 0.26385 0.89436 0.0
H359 H 0.76263 0.30828 0.78929 0.0
H360 H 0.71011 0.2439 0.81386 0.0
S361 S 0.73742 0.3432 1.00466 0.0
N362 N 0.76547 0.36605 0.95535 0.0
N363 N 0.71022 0.29574 0.98162 0.0
C364 C 0.72371 0.29671 0.93143 0.0
C365 C 0.75371 0.33463 0.9172 0.0
C366 C 0.94349 0.9643 0.39286 0.0
C367 C 0.89505 0.96431 0.39878 0.0
C368 C 0.97092 0.98303 0.43157 0.0
C369 C 0.95092 1.00265 0.47751 0.0
H370 H 0.9603 0.94823 0.35878 0.0
H371 H 1.00813 0.98177 0.42549 0.0
S372 S 0.82555 1.01274 0.51086 0.0
N373 N 0.82807 0.98668 0.45321 0.0
N374 N 0.87969 1.02204 0.52616 0.0
C375 C 0.9025 1.00367 0.48355 0.0
C376 C 0.87456 0.98448 0.44412 0.0
C377 C 0.50003 0.68632 0.74652 0.0
C378 C 0.5144 0.73205 0.73665 0.0
C379 C 0.51282 0.6489 0.71294 0.0
C380 C 0.54068 0.65561 0.66813 0.0
H381 H 0.47559 0.67981 0.77827 0.0
H382 H 0.49902 0.61457 0.72113 0.0
S383 S 0.59088 0.76839 0.62741 0.0
N384 N 0.56037 0.78188 0.68087 0.0
N385 N 0.58557 0.7114 0.61818 0.0
C386 C 0.55823 0.70082 0.65983 0.0
C387 C 0.54476 0.73907 0.69397 0.0
C388 C 0.92614 0.99208 0.78378 0.0
C389 C 0.92073 0.94394 0.79308 0.0
C390 C 0.95154 1.0098 0.73948 0.0
C391 C 0.97342 0.98112 0.69969 0.0
H392 H 0.91119 1.01696 0.81176 0.0
H393 H 0.95394 0.04697 0.73656 0.0
S394 S 0.96857 0.85212 0.70084 0.0
N395 N 0.93936 0.86806 0.75433 0.0
N396 N 0.98544 0.90042 0.67387 0.0
C397 C 0.96757 0.93296 0.708 0.0
C398 C 0.94211 0.91493 0.75322 0.0
C399 C 0.6146 0.20809 0.2228 0.0
C400 C 0.61455 0.18849 0.27027 0.0
C401 C 0.6095 0.17999 0.17746 0.0
C402 C 0.605 0.13132 0.17796 0.0
H403 H 0.61961 0.24523 0.22054 0.0
H404 H 0.60975 0.1964 0.14175 0.0
S405 S 0.59605 0.06354 0.29305 0.0
N406 N 0.60407 0.11779 0.3152 0.0
N407 N 0.59645 0.06536 0.23071 0.0
C408 C 0.60349 0.11161 0.22538 0.0
C409 C 0.60771 0.14006 0.27127 0.0
C410 C 0.41791 0.53377 0.40721 0.0
C411 C 0.39214 0.57317 0.40392 0.0
C412 C 0.45141 0.53265 0.44309 0.0
C413 C 0.46173 0.57156 0.47604 0.0
H414 H 0.41261 0.50367 0.38121 0.0
H415 H 0.4707 0.50156 0.44348 0.0
S416 S 0.40367 0.6833 0.48347 0.0
N417 N 0.37797 0.65171 0.43801 0.0
N418 N 0.44262 0.65032 0.50399 0.0
C419 C 0.43585 0.61109 0.4737 0.0
C420 C 0.4006 0.61173 0.43803 0.0
C421 C 0.26906 0.2861 0.9692 0.0
C422 C 0.23638 0.25259 0.95125 0.0
C423 C 0.26633 0.33295 0.95957 0.0
C424 C 0.23025 0.34827 0.9324 0.0
H425 H 0.29721 0.27591 0.99052 0.0
H426 H 0.29241 0.35749 0.97416 0.0
S427 S 0.13363 0.2741 0.88101 0.0
N428 N 0.1658 0.23771 0.90696 0.0
N429 N 0.15974 0.32568 0.88989 0.0
C430 C 0.19711 0.31484 0.91456 0.0
C431 C 0.20026 0.26709 0.92393 0.0
C432 C 0.74648 0.96747 0.90717 0.0
C433 C 0.78048 0.94988 0.93684 0.0
C434 C 0.70332 0.9863 0.92822 0.0
C435 C 0.68954 0.99071 0.98139 0.0
H436 H 0.75268 0.9659 0.86626 0.0
H437 H 0.68006 0.99777 0.90161 0.0
S438 S 0.76477 0.95294 0.07904 0.0
N439 N 0.79526 0.94047 1.02529 0.0
N440 N 0.71682 0.9755 0.06326 0.0
C441 C 0.72335 0.97409 1.01187 0.0
C442 C 0.76725 0.95413 0.99037 0.0
C443 C 0.75666 0.24247 0.54785 0.0
C444 C 0.74578 0.21415 0.50443 0.0
C445 C 0.79801 0.23807 0.57149 0.0
C446 C 0.82905 0.20439 0.55303 0.0
H447 H 0.73353 0.26895 0.56291 0.0
H448 H 0.80582 0.2611 0.60419 0.0
S449 S 0.81627 0.12047 0.44195 0.0
N450 N 0.76917 0.15058 0.44471 0.0
N451 N 0.84643 0.14182 0.48982 0.0
C452 C 0.81821 0.17516 0.51044 0.0
C453 C 0.77659 0.18012 0.4859 0.0
C454 C 0.2198 0.5837 0.1928 0.0
C455 C 0.2217 0.62663 0.22097 0.0
C456 C 0.18641 0.57361 0.15681 0.0
C457 C 0.15334 0.60587 0.14801 0.0
H458 H 0.24498 0.55817 0.19774 0.0
H459 H 0.1862 0.54003 0.13617 0.0
S460 S 0.14336 0.72307 0.21275 0.0
N461 N 0.18768 0.70154 0.23801 0.0
N462 N 0.12474 0.68249 0.17099 0.0
C463 C 0.15484 0.64883 0.17623 0.0
C464 C 0.18899 0.65919 0.21254 0.0
C465 C 0.28577 0.27369 0.74944 0.0
C466 C 0.30667 0.24291 0.77899 0.0
C467 C 0.31084 0.31143 0.72989 0.0
C468 C 0.35772 0.31974 0.73913 0.0
H469 H 0.24951 0.26886 0.74187 0.0
H470 H 0.2934 0.33426 0.70721 0.0
S471 S 0.42836 0.24978 0.81473 0.0
N472 N 0.37672 0.22303 0.81683 0.0
N473 N 0.42415 0.29476 0.78018 0.0
C474 C 0.37918 0.2893 0.76858 0.0
C475 C 0.35348 0.25077 0.78872 0.0
C476 C 1.01089 0.74001 0.93641 0.0
C477 C 0.96606 0.75675 0.95101 0.0
C478 C 1.02994 0.70049 0.95683 0.0
C479 C 1.00609 0.67363 0.99422 0.0
H480 H 1.03214 0.75788 0.90804 0.0
H481 H 0.06425 0.69094 0.94277 0.0
S482 S 0.88621 0.69881 1.04545 0.0
N483 N 0.89788 0.74005 1.00562 0.0
N484 N 0.9326 0.66767 1.04359 0.0
C485 C 0.96095 0.68971 1.00922 0.0
C486 C 0.94145 0.73014 0.98811 0.0
C487 C 0.40686 0.7245 0.25192 0.0
C488 C 0.35897 0.73017 0.258 0.0
C489 C 0.43696 0.7605 0.23594 0.0
C490 C 0.42025 0.80345 0.22558 0.0
H491 H 0.42109 0.69159 0.25821 0.0
H492 H 0.47359 0.75449 0.23107 0.0
S493 S 0.29801 0.83661 0.2382 0.0
N494 N 0.29632 0.78262 0.25507 0.0
N495 N 0.35299 0.85014 0.2237 0.0
C496 C 0.37258 0.81003 0.23277 0.0
C497 C 0.34189 0.77335 0.24916 0.0
C498 C 0.1807 0.07131 0.74909 0.0
C499 C 0.18587 0.11986 0.75047 0.0
C500 C 0.15745 0.04653 0.71008 0.0
C501 C 0.1391 0.06955 0.67107 0.0
H502 H 0.19629 0.05229 0.77707 0.0
H503 H 0.15508 1.00905 0.70967 0.0
S504 S 0.13839 0.19673 0.66142 0.0
N505 N 0.16615 0.19032 0.713 0.0
N506 N 0.12451 0.14375 0.6386 0.0
C507 C 0.14235 0.11816 0.67336 0.0
C508 C 0.16516 0.14332 0.71342 0.0
C509 C 0.55469 0.3254 0.4383 0.0
C510 C 0.58916 0.32642 0.39838 0.0
C511 C 0.54498 0.36537 0.46971 0.0
C512 C 0.57017 0.40756 0.463 0.0
H513 H 0.53736 0.29275 0.44745 0.0
H514 H 0.51947 0.36243 0.50121 0.0
S515 S 0.66094 0.429 0.36048 0.0
N516 N 0.64593 0.37345 0.35136 0.0
N517 N 0.62811 0.4486 0.40986 0.0
C518 C 0.60281 0.40949 0.42117 0.0
C519 C 0.61219 0.36893 0.38901 0.0
loop_
_geom_bond_atom_site_label_1
_geom_bond_atom_site_label_2
_geom_bond_distance
_geom_bond_site_symmetry_2
_ccdc_geom_bond_type
H0 C5 0.930 . S
H1 C8 0.930 . S
H2 C10 0.930 . S
H3 C4 1.016 . S
C4 H3 1.016 . S
C4 N11 1.286 . S
C5 H0 0.930 . S
C5 C6 1.397 . S
C5 C7 1.361 . S
C6 C5 1.397 . S
C6 C10 1.390 . S
C7 C5 1.361 . S
C7 C8 1.393 . S
C7 N11 1.413 . S
C8 H1 0.930 . S
C8 C7 1.393 . S
C8 C9 1.399 . S
C9 C8 1.399 . S
C9 C10 1.381 . S
C10 H2 0.930 . S
C10 C6 1.390 . S
C10 C9 1.381 . S
N11 C4 1.286 . S
N11 C7 1.413 . S
H12 C17 0.930 . S
H13 C20 0.930 . S
H14 C22 0.930 . S
H15 C16 1.016 . S
C16 H15 1.016 . S
C16 N23 1.286 . S
C17 H12 0.930 . S
C17 C18 1.397 . S
C17 C19 1.361 . S
C18 C17 1.397 . S
C18 C22 1.390 . S
C19 C17 1.361 . S
C19 C20 1.393 . S
C19 N23 1.413 . S
C20 H13 0.930 . S
C20 C19 1.393 . S
C20 C21 1.399 . S
C21 C20 1.399 . S
C21 C22 1.381 . S
C22 H14 0.930 . S
C22 C18 1.390 . S
C22 C21 1.381 . S
N23 C16 1.286 . S
N23 C19 1.413 . S
H24 C29 0.930 . S
H25 C32 0.930 . S
H26 C34 0.930 . S
H27 C28 1.016 . S
C28 H27 1.016 . S
C28 N35 1.286 . S
C29 H24 0.930 . S
C29 C30 1.397 . S
C29 C31 1.361 . S
C30 C29 1.397 . S
C30 C34 1.390 . S
C31 C29 1.361 . S
C31 C32 1.393 . S
C31 N35 1.413 . S
C32 H25 0.930 . S
C32 C31 1.393 . S
C32 C33 1.399 . S
C33 C32 1.399 . S
C33 C34 1.381 . S
C34 H26 0.930 . S
C34 C30 1.390 . S
C34 C33 1.381 . S
N35 C28 1.286 . S
N35 C31 1.413 . S
H36 C41 0.930 . S
H37 C44 0.930 . S
H38 C46 0.930 . S
H39 C40 1.016 . S
C40 H39 1.016 . S
C40 N47 1.286 . S
C41 H36 0.930 . S
C41 C42 1.397 . S
C41 C43 1.361 . S
C42 C41 1.397 . S
C42 C46 1.390 . S
C43 C41 1.361 . S
C43 C44 1.393 . S
C43 N47 1.413 . S
C44 H37 0.930 . S
C44 C43 1.393 . S
C44 C45 1.399 . S
C45 C44 1.399 . S
C45 C46 1.381 . S
C46 H38 0.930 . S
C46 C42 1.390 . S
C46 C45 1.381 . S
N47 C40 1.286 . S
N47 C43 1.413 . S
H48 C53 0.930 . S
H49 C56 0.930 . S
H50 C58 0.930 . S
H51 C52 1.016 . S
C52 H51 1.016 . S
C52 N59 1.286 . S
C53 H48 0.930 . S
C53 C54 1.397 . S
C53 C55 1.361 . S
C54 C53 1.397 . S
C54 C58 1.390 . S
C55 C53 1.361 . S
C55 C56 1.393 . S
C55 N59 1.413 . S
C56 H49 0.930 . S
C56 C55 1.393 . S
C56 C57 1.399 . S
C57 C56 1.399 . S
C57 C58 1.381 . S
C58 H50 0.930 . S
C58 C54 1.390 . S
C58 C57 1.381 . S
N59 C52 1.286 . S
N59 C55 1.413 . S
H60 C65 0.930 . S
H61 C68 0.930 . S
H62 C70 0.930 . S
H63 C64 1.016 . S
C64 H63 1.016 . S
C64 N71 1.286 . S
C65 H60 0.930 . S
C65 C66 1.397 . S
C65 C67 1.361 . S
C66 C65 1.397 . S
C66 C70 1.390 . S
C67 C65 1.361 . S
C67 C68 1.393 . S
C67 N71 1.413 . S
C68 H61 0.930 . S
C68 C67 1.393 . S
C68 C69 1.399 . S
C69 C68 1.399 . S
C69 C70 1.381 . S
C70 H62 0.930 . S
C70 C66 1.390 . S
C70 C69 1.381 . S
N71 C64 1.286 . S
N71 C67 1.413 . S
H72 C77 0.930 . S
H73 C80 0.930 . S
H74 C82 0.930 . S
H75 C76 1.016 . S
C76 H75 1.016 . S
C76 N83 1.286 . S
C77 H72 0.930 . S
C77 C78 1.397 . S
C77 C79 1.361 . S
C78 C77 1.397 . S
C78 C82 1.390 . S
C79 C77 1.361 . S
C79 C80 1.393 . S
C79 N83 1.413 . S
C80 H73 0.930 . S
C80 C79 1.393 . S
C80 C81 1.399 . S
C81 C80 1.399 . S
C81 C82 1.381 . S
C82 H74 0.930 . S
C82 C78 1.390 . S
C82 C81 1.381 . S
N83 C76 1.286 . S
N83 C79 1.413 . S
H84 C89 0.930 . S
H85 C92 0.930 . S
H86 C94 0.930 . S
H87 C88 1.016 . S
C88 H87 1.016 . S
C88 N95 1.286 . S
C89 H84 0.930 . S
C89 C90 1.397 . S
C89 C91 1.361 . S
C90 C89 1.397 . S
C90 C94 1.390 . S
C91 C89 1.361 . S
C91 C92 1.393 . S
C91 N95 1.413 . S
C92 H85 0.930 . S
C92 C91 1.393 . S
C92 C93 1.399 . S
C93 C92 1.399 . S
C93 C94 1.381 . S
C94 H86 0.930 . S
C94 C90 1.390 . S
C94 C93 1.381 . S
N95 C88 1.286 . S
N95 C91 1.413 . S
Nd96 C98 2.836 . S
Nd96 O116 2.500 . S
Nd96 O117 2.492 . S
Nd96 O118 2.487 1_565 S
Nd96 O119 2.682 1_565 S
Nd96 O120 2.410 . S
Nd96 O125 2.414 1_455 S
Nd96 O127 2.424 1_565 S
Nd97 C107 2.836 . S
Nd97 O119 2.414 1_655 S
Nd97 O121 2.424 1_545 S
Nd97 O122 2.500 . S
Nd97 O123 2.492 . S
Nd97 O124 2.487 1_545 S
Nd97 O125 2.682 1_545 S
Nd97 O126 2.410 . S
C98 Nd96 2.836 . S
C98 C99 1.498 . S
C98 O116 1.258 . S
C98 O117 1.239 . S
C99 C98 1.498 . S
C99 C100 1.366 . S
C99 C104 1.407 . S
C100 C99 1.366 . S
C100 C101 1.392 . S
C100 H128 0.930 . S
C101 C100 1.392 . S
C101 C102 1.398 . S
C101 H129 0.929 . S
C102 C101 1.398 . S
C102 C103 1.352 . S
C103 C102 1.352 . S
C103 C104 1.384 . S
C103 H130 0.930 . S
C104 C99 1.407 . S
C104 C103 1.384 . S
C104 H131 0.929 . S
C105 O118 1.241 . S
C105 O119 1.273 . S
C106 O120 1.251 1_655 S
C106 O121 1.268 . S
C107 Nd97 2.836 . S
C107 C108 1.498 . S
C107 O122 1.258 . S
C107 O123 1.239 . S
C108 C107 1.498 . S
C108 C109 1.366 . S
C108 C113 1.407 . S
C109 C108 1.366 . S
C109 C110 1.392 . S
C109 H132 0.930 . S
C110 C109 1.392 . S
C110 C111 1.398 . S
C110 H133 0.929 . S
C111 C110 1.398 . S
C111 C112 1.352 . S
C112 C111 1.352 . S
C112 C113 1.384 . S
C112 H134 0.930 . S
C113 C108 1.407 . S
C113 C112 1.384 . S
C113 H135 0.929 . S
C114 O124 1.241 . S
C114 O125 1.273 . S
C115 O126 1.251 1_455 S
C115 O127 1.268 . S
O116 Nd96 2.500 . S
O116 C98 1.258 . S
O117 Nd96 2.492 . S
O117 C98 1.239 . S
O118 Nd96 2.487 1_545 S
O118 C105 1.241 . S
O119 Nd96 2.682 1_545 S
O119 Nd97 2.414 1_455 S
O119 C105 1.273 . S
O120 Nd96 2.410 . S
O120 C106 1.251 1_455 S
O121 Nd97 2.424 1_565 S
O121 C106 1.268 . S
O122 Nd97 2.500 . S
O122 C107 1.258 . S
O123 Nd97 2.492 . S
O123 C107 1.239 . S
O124 Nd97 2.487 1_565 S
O124 C114 1.241 . S
O125 Nd96 2.414 1_655 S
O125 Nd97 2.682 1_565 S
O125 C114 1.273 . S
O126 Nd97 2.410 . S
O126 C115 1.251 1_655 S
O127 Nd96 2.424 1_545 S
O127 C115 1.268 . S
H128 C100 0.930 . S
H129 C101 0.929 . S
H130 C103 0.930 . S
H131 C104 0.929 . S
H132 C109 0.930 . S
H133 C110 0.929 . S
H134 C112 0.930 . S
H135 C113 0.929 . S
Nd136 C138 2.836 . S
Nd136 O156 2.500 . S
Nd136 O157 2.492 . S
Nd136 O158 2.487 1_565 S
Nd136 O159 2.682 1_565 S
Nd136 O160 2.410 1_554 S
Nd136 O165 2.414 . S
Nd136 O167 2.424 1_565 S
Nd137 C147 2.836 . S
Nd137 O159 2.414 1_556 S
Nd137 O161 2.424 1_545 S
Nd137 O162 2.500 . S
Nd137 O163 2.492 . S
Nd137 O164 2.487 . S
Nd137 O165 2.682 1_546 S
Nd137 O166 2.410 1_556 S
C138 Nd136 2.836 . S
C138 C139 1.498 . S
C138 O156 1.258 . S
C138 O157 1.239 . S
C139 C138 1.498 . S
C139 C140 1.366 . S
C139 C144 1.407 . S
C140 C139 1.366 . S
C140 C141 1.392 . S
C140 H168 0.930 . S
C141 C140 1.392 . S
C141 C142 1.398 . S
C141 H169 0.929 . S
C142 C141 1.398 . S
C142 C143 1.352 . S
C143 C142 1.352 . S
C143 C144 1.384 . S
C143 H170 0.930 . S
C144 C139 1.407 . S
C144 C143 1.384 . S
C144 H171 0.929 . S
C145 O158 1.241 . S
C145 O159 1.273 . S
C146 O160 1.251 . S
C146 O161 1.268 . S
C147 Nd137 2.836 . S
C147 C148 1.498 . S
C147 O162 1.258 . S
C147 O163 1.239 . S
C148 C147 1.498 . S
C148 C149 1.366 . S
C148 C153 1.407 . S
C149 C148 1.366 . S
C149 C150 1.392 . S
C149 H172 0.930 . S
C150 C149 1.392 . S
C150 C151 1.398 . S
C150 H173 0.929 . S
C151 C150 1.398 . S
C151 C152 1.352 . S
C152 C151 1.352 . S
C152 C153 1.384 . S
C152 H174 0.930 . S
C153 C148 1.407 . S
C153 C152 1.384 . S
C153 H175 0.929 . S
C154 O164 1.241 1_565 S
C154 O165 1.273 1_556 S
C155 O166 1.251 . S
C155 O167 1.268 . S
O156 Nd136 2.500 . S
O156 C138 1.258 . S
O157 Nd136 2.492 . S
O157 C138 1.239 . S
O158 Nd136 2.487 1_545 S
O158 C145 1.241 . S
O159 Nd136 2.682 1_545 S
O159 Nd137 2.414 1_554 S
O159 C145 1.273 . S
O160 Nd136 2.410 1_556 S
O160 C146 1.251 . S
O161 Nd137 2.424 1_565 S
O161 C146 1.268 . S
O162 Nd137 2.500 . S
O162 C147 1.258 . S
O163 Nd137 2.492 . S
O163 C147 1.239 . S
O164 Nd137 2.487 . S
O164 C154 1.241 1_545 S
O165 Nd136 2.414 . S
O165 Nd137 2.682 1_564 S
O165 C154 1.273 1_554 S
O166 Nd137 2.410 1_554 S
O166 C155 1.251 . S
O167 Nd136 2.424 1_545 S
O167 C155 1.268 . S
H168 C140 0.930 . S
H169 C141 0.929 . S
H170 C143 0.930 . S
H171 C144 0.929 . S
H172 C149 0.930 . S
H173 C150 0.929 . S
H174 C152 0.930 . S
H175 C153 0.929 . S
Nd176 C178 2.836 . S
Nd176 O196 2.500 . S
Nd176 O197 2.492 . S
Nd176 O198 2.487 . S
Nd176 O199 2.682 . S
Nd176 O200 2.410 . S
Nd176 O205 2.414 . S
Nd176 O207 2.424 . S
Nd177 C187 2.836 . S
Nd177 O199 2.414 . S
Nd177 O201 2.424 . S
Nd177 O202 2.500 . S
Nd177 O203 2.492 . S
Nd177 O204 2.487 . S
Nd177 O205 2.682 . S
Nd177 O206 2.410 . S
C178 Nd176 2.836 . S
C178 C179 1.498 . S
C178 O196 1.258 . S
C178 O197 1.239 . S
C179 C178 1.498 . S
C179 C180 1.366 . S
C179 C184 1.407 . S
C180 C179 1.366 . S
C180 C181 1.392 . S
C180 H208 0.930 . S
C181 C180 1.392 . S
C181 C182 1.398 . S
C181 H209 0.929 . S
C182 C181 1.398 . S
C182 C183 1.352 . S
C183 C182 1.352 . S
C183 C184 1.384 . S
C183 H210 0.930 . S
C184 C179 1.407 . S
C184 C183 1.384 . S
C184 H211 0.929 . S
C185 O198 1.241 . S
C185 O199 1.273 . S
C186 O200 1.251 . S
C186 O201 1.268 . S
C187 Nd177 2.836 . S
C187 C188 1.498 . S
C187 O202 1.258 . S
C187 O203 1.239 . S
C188 C187 1.498 . S
C188 C189 1.366 . S
C188 C193 1.407 . S
C189 C188 1.366 . S
C189 C190 1.392 . S
C189 H212 0.930 . S
C190 C189 1.392 . S
C190 C191 1.398 . S
C190 H213 0.929 . S
C191 C190 1.398 . S
C191 C192 1.352 . S
C192 C191 1.352 . S
C192 C193 1.384 . S
C192 H214 0.930 . S
C193 C188 1.407 . S
C193 C192 1.384 . S
C193 H215 0.929 . S
C194 O204 1.241 . S
C194 O205 1.273 . S
C195 O206 1.251 . S
C195 O207 1.268 . S
O196 Nd176 2.500 . S
O196 C178 1.258 . S
O197 Nd176 2.492 . S
O197 C178 1.239 . S
O198 Nd176 2.487 . S
O198 C185 1.241 . S
O199 Nd176 2.682 . S
O199 Nd177 2.414 . S
O199 C185 1.273 . S
O200 Nd176 2.410 . S
O200 C186 1.251 . S
O201 Nd177 2.424 . S
O201 C186 1.268 . S
O202 Nd177 2.500 . S
O202 C187 1.258 . S
O203 Nd177 2.492 . S
O203 C187 1.239 . S
O204 Nd177 2.487 . S
O204 C194 1.241 . S
O205 Nd176 2.414 . S
O205 Nd177 2.682 . S
O205 C194 1.273 . S
O206 Nd177 2.410 . S
O206 C195 1.251 . S
O207 Nd176 2.424 . S
O207 C195 1.268 . S
H208 C180 0.930 . S
H209 C181 0.929 . S
H210 C183 0.930 . S
H211 C184 0.929 . S
H212 C189 0.930 . S
H213 C190 0.929 . S
H214 C192 0.930 . S
H215 C193 0.929 . S
Nd216 C218 2.850 . S
Nd216 O236 2.521 . S
Nd216 O237 2.497 . S
Nd216 O238 2.465 1_655 S
Nd216 O239 2.662 1_655 S
Nd216 O240 2.408 1_655 S
Nd216 O245 2.422 1_554 S
Nd216 O247 2.414 1_655 S
Nd217 C227 2.836 . S
Nd217 O239 2.414 1_556 S
Nd217 O241 2.424 . S
Nd217 O242 2.500 . S
Nd217 O243 2.492 . S
Nd217 O244 2.487 1_455 S
Nd217 O245 2.682 1_455 S
Nd217 O246 2.410 . S
C218 Nd216 2.850 . S
C218 C219 1.498 . S
C218 O236 1.258 . S
C218 O237 1.239 . S
C219 C218 1.498 . S
C219 C220 1.366 . S
C219 C224 1.407 . S
C220 C219 1.366 . S
C220 C221 1.392 . S
C220 H248 0.930 . S
C221 C220 1.392 . S
C221 C222 1.398 . S
C221 H249 0.929 . S
C222 C221 1.398 . S
C222 C223 1.352 . S
C223 C222 1.352 . S
C223 C224 1.384 . S
C223 H250 0.930 . S
C224 C219 1.407 . S
C224 C223 1.384 . S
C224 H251 0.929 . S
C225 O238 1.241 . S
C225 O239 1.273 . S
C226 O240 1.251 1_556 S
C226 O241 1.268 . S
C227 Nd217 2.836 . S
C227 C228 1.498 . S
C227 O242 1.258 . S
C227 O243 1.239 . S
C228 C227 1.498 . S
C228 C229 1.366 . S
C228 C233 1.407 . S
C229 C228 1.366 . S
C229 C230 1.392 . S
C229 H252 0.930 . S
C230 C229 1.392 . S
C230 C231 1.398 . S
C230 H253 0.929 . S
C231 C230 1.398 . S
C231 C232 1.352 . S
C232 C231 1.352 . S
C232 C233 1.384 . S
C232 H254 0.930 . S
C233 C228 1.407 . S
C233 C232 1.384 . S
C233 H255 0.929 . S
C234 O244 1.241 . S
C234 O245 1.273 . S
C235 O246 1.251 1_554 S
C235 O247 1.268 . S
O236 Nd216 2.521 . S
O236 C218 1.258 . S
O237 Nd216 2.497 . S
O237 C218 1.239 . S
O238 Nd216 2.465 1_455 S
O238 C225 1.241 . S
O239 Nd216 2.662 1_455 S
O239 Nd217 2.414 1_554 S
O239 C225 1.273 . S
O240 Nd216 2.408 1_455 S
O240 C226 1.251 1_554 S
O241 Nd217 2.424 . S
O241 C226 1.268 . S
O242 Nd217 2.500 . S
O242 C227 1.258 . S
O243 Nd217 2.492 . S
O243 C227 1.239 . S
O244 Nd217 2.487 1_655 S
O244 C234 1.241 . S
O245 Nd216 2.422 1_556 S
O245 Nd217 2.682 1_655 S
O245 C234 1.273 . S
O246 Nd217 2.410 . S
O246 C235 1.251 1_556 S
O247 Nd216 2.414 1_455 S
O247 C235 1.268 . S
H248 C220 0.930 . S
H249 C221 0.929 . S
H250 C223 0.930 . S
H251 C224 0.929 . S
H252 C229 0.930 . S
H253 C230 0.929 . S
H254 C232 0.930 . S
H255 C233 0.929 . S
C256 C257 1.369 . S
C256 C258 1.419 . S
C256 H260 0.930 . S
C257 C256 1.369 . S
C257 C266 1.429 . S
C258 C256 1.419 . S
C258 C259 1.363 . S
C258 H261 0.929 . S
C259 C258 1.363 . S
C259 C265 1.428 . S
H260 C256 0.930 . S
H261 C258 0.929 . S
S262 N263 1.613 1_655 S
S262 N264 1.610 1_655 S
N263 S262 1.613 1_455 S
N263 C266 1.350 . S
N264 S262 1.610 1_455 S
N264 C265 1.351 . S
C265 C259 1.428 . S
C265 N264 1.351 . S
C265 C266 1.434 . S
C266 C257 1.429 . S
C266 N263 1.350 . S
C266 C265 1.434 . S
C267 C268 1.369 . S
C267 C269 1.419 . S
C267 H271 0.930 . S
C268 C267 1.369 . S
C268 C277 1.429 . S
C269 C267 1.419 . S
C269 C270 1.363 . S
C269 H272 0.929 . S
C270 C269 1.363 . S
C270 C276 1.428 . S
H271 C267 0.930 . S
H272 C269 0.929 . S
S273 N274 1.613 . S
S273 N275 1.610 . S
N274 S273 1.613 . S
N274 C277 1.350 . S
N275 S273 1.610 . S
N275 C276 1.351 . S
C276 C270 1.428 . S
C276 N275 1.351 . S
C276 C277 1.434 . S
C277 C268 1.429 . S
C277 N274 1.350 . S
C277 C276 1.434 . S
C278 C279 1.369 . S
C278 C280 1.419 . S
C278 H282 0.930 . S
C279 C278 1.369 . S
C279 C288 1.429 . S
C280 C278 1.419 . S
C280 C281 1.363 . S
C280 H283 0.929 . S
C281 C280 1.363 . S
C281 C287 1.428 . S
H282 C278 0.930 . S
H283 C280 0.929 . S
S284 N285 1.613 . S
S284 N286 1.610 . S
N285 S284 1.613 . S
N285 C288 1.350 . S
N286 S284 1.610 . S
N286 C287 1.351 . S
C287 C281 1.428 . S
C287 N286 1.351 . S
C287 C288 1.434 . S
C288 C279 1.429 . S
C288 N285 1.350 . S
C288 C287 1.434 . S
C289 C290 1.369 . S
C289 C291 1.419 . S
C289 H293 0.930 . S
C290 C289 1.369 . S
C290 C299 1.429 . S
C291 C289 1.419 . S
C291 C292 1.363 . S
C291 H294 0.929 . S
C292 C291 1.363 . S
C292 C298 1.428 . S
H293 C289 0.930 . S
H294 C291 0.929 . S
S295 N296 1.613 . S
S295 N297 1.610 . S
N296 S295 1.613 . S
N296 C299 1.350 . S
N297 S295 1.610 . S
N297 C298 1.351 . S
C298 C292 1.428 . S
C298 N297 1.351 . S
C298 C299 1.434 . S
C299 C290 1.429 . S
C299 N296 1.350 . S
C299 C298 1.434 . S
C300 C301 1.369 . S
C300 C302 1.419 . S
C300 H304 0.930 . S
C301 C300 1.369 . S
C301 C310 1.429 . S
C302 C300 1.419 . S
C302 C303 1.363 . S
C302 H305 0.929 . S
C303 C302 1.363 . S
C303 C309 1.428 . S
H304 C300 0.930 . S
H305 C302 0.929 . S
S306 N307 1.613 . S
S306 N308 1.610 . S
N307 S306 1.613 . S
N307 C310 1.350 . S
N308 S306 1.610 . S
N308 C309 1.351 . S
C309 C303 1.428 . S
C309 N308 1.351 . S
C309 C310 1.434 . S
C310 C301 1.429 . S
C310 N307 1.350 . S
C310 C309 1.434 . S
C311 C312 1.369 . S
C311 C313 1.419 . S
C311 H315 0.930 . S
C312 C311 1.369 . S
C312 C321 1.429 . S
C313 C311 1.419 . S
C313 C314 1.363 . S
C313 H316 0.929 . S
C314 C313 1.363 . S
C314 C320 1.428 . S
H315 C311 0.930 . S
H316 C313 0.929 . S
S317 N318 1.613 . S
S317 N319 1.610 . S
N318 S317 1.613 . S
N318 C321 1.350 . S
N319 S317 1.610 . S
N319 C320 1.351 . S
C320 C314 1.428 . S
C320 N319 1.351 . S
C320 C321 1.434 . S
C321 C312 1.429 . S
C321 N318 1.350 . S
C321 C320 1.434 . S
C322 C323 1.369 . S
C322 C324 1.419 . S
C322 H326 0.930 . S
C323 C322 1.369 . S
C323 C332 1.429 . S
C324 C322 1.419 . S
C324 C325 1.363 . S
C324 H327 0.929 . S
C325 C324 1.363 . S
C325 C331 1.428 . S
H326 C322 0.930 . S
H327 C324 0.929 . S
S328 N329 1.613 . S
S328 N330 1.610 . S
N329 S328 1.613 . S
N329 C332 1.350 . S
N330 S328 1.610 . S
N330 C331 1.351 . S
C331 C325 1.428 . S
C331 N330 1.351 . S
C331 C332 1.434 . S
C332 C323 1.429 . S
C332 N329 1.350 . S
C332 C331 1.434 . S
C333 C334 1.369 . S
C333 C335 1.419 . S
C333 H337 0.930 . S
C334 C333 1.369 . S
C334 C343 1.429 . S
C335 C333 1.419 . S
C335 C336 1.363 . S
C335 H338 0.929 . S
C336 C335 1.363 . S
C336 C342 1.428 . S
H337 C333 0.930 . S
H338 C335 0.929 . S
S339 N340 1.613 . S
S339 N341 1.610 . S
N340 S339 1.613 . S
N340 C343 1.350 . S
N341 S339 1.610 . S
N341 C342 1.351 . S
C342 C336 1.428 . S
C342 N341 1.351 . S
C342 C343 1.434 . S
C343 C334 1.429 . S
C343 N340 1.350 . S
C343 C342 1.434 . S
C344 C345 1.369 . S
C344 C346 1.419 . S
C344 H348 0.930 . S
C345 C344 1.369 . S
C345 C354 1.429 . S
C346 C344 1.419 . S
C346 C347 1.363 . S
C346 H349 0.929 . S
C347 C346 1.363 . S
C347 C353 1.428 . S
H348 C344 0.930 . S
H349 C346 0.929 . S
S350 N351 1.613 . S
S350 N352 1.610 . S
N351 S350 1.613 . S
N351 C354 1.350 1_556 S
N352 S350 1.610 . S
N352 C353 1.351 1_556 S
C353 C347 1.428 . S
C353 N352 1.351 1_554 S
C353 C354 1.434 . S
C354 C345 1.429 . S
C354 N351 1.350 1_554 S
C354 C353 1.434 . S
C355 C356 1.369 . S
C355 C357 1.419 . S
C355 H359 0.930 . S
C356 C355 1.369 . S
C356 C365 1.429 . S
C357 C355 1.419 . S
C357 C358 1.363 . S
C357 H360 0.929 . S
C358 C357 1.363 . S
C358 C364 1.428 . S
H359 C355 0.930 . S
H360 C357 0.929 . S
S361 N362 1.613 . S
S361 N363 1.610 . S
N362 S361 1.613 . S
N362 C365 1.350 . S
N363 S361 1.610 . S
N363 C364 1.351 . S
C364 C358 1.428 . S
C364 N363 1.351 . S
C364 C365 1.434 . S
C365 C356 1.429 . S
C365 N362 1.350 . S
C365 C364 1.434 . S
C366 C367 1.369 . S
C366 C368 1.419 . S
C366 H370 0.930 . S
C367 C366 1.369 . S
C367 C376 1.429 . S
C368 C366 1.419 . S
C368 C369 1.363 . S
C368 H371 0.929 . S
C369 C368 1.363 . S
C369 C375 1.428 . S
H370 C366 0.930 . S
H371 C368 0.929 . S
S372 N373 1.613 . S
S372 N374 1.610 . S
N373 S372 1.613 . S
N373 C376 1.350 . S
N374 S372 1.610 . S
N374 C375 1.351 . S
C375 C369 1.428 . S
C375 N374 1.351 . S
C375 C376 1.434 . S
C376 C367 1.429 . S
C376 N373 1.350 . S
C376 C375 1.434 . S
C377 C378 1.369 . S
C377 C379 1.419 . S
C377 H381 0.930 . S
C378 C377 1.369 . S
C378 C387 1.429 . S
C379 C377 1.419 . S
C379 C380 1.363 . S
C379 H382 0.929 . S
C380 C379 1.363 . S
C380 C386 1.428 . S
H381 C377 0.930 . S
H382 C379 0.929 . S
S383 N384 1.613 . S
S383 N385 1.610 . S
N384 S383 1.613 . S
N384 C387 1.350 . S
N385 S383 1.610 . S
N385 C386 1.351 . S
C386 C380 1.428 . S
C386 N385 1.351 . S
C386 C387 1.434 . S
C387 C378 1.429 . S
C387 N384 1.350 . S
C387 C386 1.434 . S
C388 C389 1.369 . S
C388 C390 1.419 . S
C388 H392 0.930 . S
C389 C388 1.369 . S
C389 C398 1.429 . S
C390 C388 1.419 . S
C390 C391 1.363 . S
C390 H393 0.929 . S
C391 C390 1.363 . S
C391 C397 1.428 . S
H392 C388 0.930 . S
H393 C390 0.929 . S
S394 N395 1.613 1_455 S
S394 N396 1.610 . S
N395 S394 1.613 1_655 S
N395 C398 1.350 . S
N396 S394 1.610 . S
N396 C397 1.351 1_455 S
C397 C391 1.428 . S
C397 N396 1.351 1_655 S
C397 C398 1.434 . S
C398 C389 1.429 . S
C398 N395 1.350 . S
C398 C397 1.434 . S
C399 C400 1.369 . S
C399 C401 1.419 . S
C399 H403 0.930 . S
C400 C399 1.369 . S
C400 C409 1.429 . S
C401 C399 1.419 . S
C401 C402 1.363 . S
C401 H404 0.929 . S
C402 C401 1.363 . S
C402 C408 1.428 . S
H403 C399 0.930 . S
H404 C401 0.929 . S
S405 N406 1.613 . S
S405 N407 1.610 . S
N406 S405 1.613 . S
N406 C409 1.350 . S
N407 S405 1.610 . S
N407 C408 1.351 . S
C408 C402 1.428 . S
C408 N407 1.351 . S
C408 C409 1.434 . S
C409 C400 1.429 . S
C409 N406 1.350 . S
C409 C408 1.434 . S
C410 C411 1.369 . S
C410 C412 1.419 . S
C410 H414 0.930 . S
C411 C410 1.369 . S
C411 C420 1.429 . S
C412 C410 1.419 . S
C412 C413 1.363 . S
C412 H415 0.929 . S
C413 C412 1.363 . S
C413 C419 1.428 . S
H414 C410 0.930 . S
H415 C412 0.929 . S
S416 N417 1.613 . S
S416 N418 1.610 . S
N417 S416 1.613 . S
N417 C420 1.350 . S
N418 S416 1.610 . S
N418 C419 1.351 . S
C419 C413 1.428 . S
C419 N418 1.351 . S
C419 C420 1.434 . S
C420 C411 1.429 . S
C420 N417 1.350 . S
C420 C419 1.434 . S
C421 C422 1.369 . S
C421 C423 1.419 . S
C421 H425 0.930 . S
C422 C421 1.369 . S
C422 C431 1.429 . S
C423 C421 1.419 . S
C423 C424 1.363 . S
C423 H426 0.929 . S
C424 C423 1.363 . S
C424 C430 1.428 . S
H425 C421 0.930 . S
H426 C423 0.929 . S
S427 N428 1.613 . S
S427 N429 1.610 . S
N428 S427 1.613 . S
N428 C431 1.350 . S
N429 S427 1.610 . S
N429 C430 1.351 . S
C430 C424 1.428 . S
C430 N429 1.351 . S
C430 C431 1.434 . S
C431 C422 1.429 . S
C431 N428 1.350 . S
C431 C430 1.434 . S
C432 C433 1.369 . S
C432 C434 1.419 . S
C432 H436 0.930 . S
C433 C432 1.369 . S
C433 C442 1.429 . S
C434 C432 1.419 . S
C434 C435 1.363 . S
C434 H437 0.929 . S
C435 C434 1.363 . S
C435 C441 1.428 . S
H436 C432 0.930 . S
H437 C434 0.929 . S
S438 N439 1.613 . S
S438 N440 1.610 . S
N439 S438 1.613 . S
N439 C442 1.350 1_554 S
N440 S438 1.610 . S
N440 C441 1.351 1_554 S
C441 C435 1.428 . S
C441 N440 1.351 1_556 S
C441 C442 1.434 . S
C442 C433 1.429 . S
C442 N439 1.350 1_556 S
C442 C441 1.434 . S
C443 C444 1.369 . S
C443 C445 1.419 . S
C443 H447 0.930 . S
C444 C443 1.369 . S
C444 C453 1.429 . S
C445 C443 1.419 . S
C445 C446 1.363 . S
C445 H448 0.929 . S
C446 C445 1.363 . S
C446 C452 1.428 . S
H447 C443 0.930 . S
H448 C445 0.929 . S
S449 N450 1.613 . S
S449 N451 1.610 . S
N450 S449 1.613 . S
N450 C453 1.350 . S
N451 S449 1.610 . S
N451 C452 1.351 . S
C452 C446 1.428 . S
C452 N451 1.351 . S
C452 C453 1.434 . S
C453 C444 1.429 . S
C453 N450 1.350 . S
C453 C452 1.434 . S
C454 C455 1.369 . S
C454 C456 1.419 . S
C454 H458 0.930 . S
C455 C454 1.369 . S
C455 C464 1.429 . S
C456 C454 1.419 . S
C456 C457 1.363 . S
C456 H459 0.929 . S
C457 C456 1.363 . S
C457 C463 1.428 . S
H458 C454 0.930 . S
H459 C456 0.929 . S
S460 N461 1.613 . S
S460 N462 1.610 . S
N461 S460 1.613 . S
N461 C464 1.350 . S
N462 S460 1.610 . S
N462 C463 1.351 . S
C463 C457 1.428 . S
C463 N462 1.351 . S
C463 C464 1.434 . S
C464 C455 1.429 . S
C464 N461 1.350 . S
C464 C463 1.434 . S
C465 C466 1.369 . S
C465 C467 1.419 . S
C465 H469 0.930 . S
C466 C465 1.369 . S
C466 C475 1.429 . S
C467 C465 1.419 . S
C467 C468 1.363 . S
C467 H470 0.929 . S
C468 C467 1.363 . S
C468 C474 1.428 . S
H469 C465 0.930 . S
H470 C467 0.929 . S
S471 N472 1.613 . S
S471 N473 1.610 . S
N472 S471 1.613 . S
N472 C475 1.350 . S
N473 S471 1.610 . S
N473 C474 1.351 . S
C474 C468 1.428 . S
C474 N473 1.351 . S
C474 C475 1.434 . S
C475 C466 1.429 . S
C475 N472 1.350 . S
C475 C474 1.434 . S
C476 C477 1.369 . S
C476 C478 1.419 . S
C476 H480 0.930 . S
C477 C476 1.369 . S
C477 C486 1.429 . S
C478 C476 1.419 . S
C478 C479 1.363 . S
C478 H481 0.929 . S
C479 C478 1.363 . S
C479 C485 1.428 . S
H480 C476 0.930 . S
H481 C478 0.929 . S
S482 N483 1.613 . S
S482 N484 1.610 . S
N483 S482 1.613 . S
N483 C486 1.350 1_554 S
N484 S482 1.610 . S
N484 C485 1.351 1_554 S
C485 C479 1.428 . S
C485 N484 1.351 1_556 S
C485 C486 1.434 . S
C486 C477 1.429 . S
C486 N483 1.350 1_556 S
C486 C485 1.434 . S
C487 C488 1.369 . S
C487 C489 1.419 . S
C487 H491 0.930 . S
C488 C487 1.369 . S
C488 C497 1.429 . S
C489 C487 1.419 . S
C489 C490 1.363 . S
C489 H492 0.929 . S
C490 C489 1.363 . S
C490 C496 1.428 . S
H491 C487 0.930 . S
H492 C489 0.929 . S
S493 N494 1.613 . S
S493 N495 1.610 . S
N494 S493 1.613 . S
N494 C497 1.350 . S
N495 S493 1.610 . S
N495 C496 1.351 . S
C496 C490 1.428 . S
C496 N495 1.351 . S
C496 C497 1.434 . S
C497 C488 1.429 . S
C497 N494 1.350 . S
C497 C496 1.434 . S
C498 C499 1.369 . S
C498 C500 1.419 . S
C498 H502 0.930 . S
C499 C498 1.369 . S
C499 C508 1.429 . S
C500 C498 1.419 . S
C500 C501 1.363 . S
C500 H503 0.929 . S
C501 C500 1.363 . S
C501 C507 1.428 . S
H502 C498 0.930 . S
H503 C500 0.929 . S
S504 N505 1.613 . S
S504 N506 1.610 . S
N505 S504 1.613 . S
N505 C508 1.350 . S
N506 S504 1.610 . S
N506 C507 1.351 . S
C507 C501 1.428 . S
C507 N506 1.351 . S
C507 C508 1.434 . S
C508 C499 1.429 . S
C508 N505 1.350 . S
C508 C507 1.434 . S
C509 C510 1.369 . S
C509 C511 1.419 . S
C509 H513 0.930 . S
C510 C509 1.369 . S
C510 C519 1.429 . S
C511 C509 1.419 . S
C511 C512 1.363 . S
C511 H514 0.929 . S
C512 C511 1.363 . S
C512 C518 1.428 . S
H513 C509 0.930 . S
H514 C511 0.929 . S
S515 N516 1.613 . S
S515 N517 1.610 . S
N516 S515 1.613 . S
N516 C519 1.350 . S
N517 S515 1.610 . S
N517 C518 1.351 . S
C518 C512 1.428 . S
C518 N517 1.351 . S
C518 C519 1.434 . S
C519 C510 1.429 . S
C519 N516 1.350 . S
C519 C518 1.434 . S
C257 C6 3.023 . S
C259 C115 2.989 . S
C268 C18 2.308 . S
C270 C146 2.422 . S
C281 C185 1.512 . S
C279 C28 1.477 . S
C290 C40 0.681 . S
C292 C222 0.688 . S
C303 C145 3.000 . S
C301 C9 3.114 . S
C314 C102 1.255 . S
C312 C16 1.266 . S
C325 C234 1.575 . S
C323 C30 1.633 . S
C336 C191 1.281 . S
C334 C42 1.250 . S
C345 C4 2.398 . S
C347 C235 2.392 . S
C358 C151 1.397 . S
C356 C33 1.413 . S
C367 C45 0.630 . S
C369 C114 0.818 . S
C378 C21 2.398 . S
C380 C186 2.384 . S
C391 C106 3.020 . S
C389 C57 3.075 . S
C400 C66 2.219 . S
C402 C155 2.388 . S
C411 C76 1.503 . S
C413 C194 1.511 . S
C422 C88 0.740 . S
C424 C231 0.709 . S
C433 C54 3.064 . S
C435 C154 2.940 . S
C446 C111 1.284 . S
C444 C64 1.302 . S
C457 C225 1.426 . S
C455 C78 1.490 . S
C468 C182 1.296 . S
C466 C93 1.315 . S
C477 C52 2.312 . S
C479 C226 2.331 1_655 S
C490 C142 1.391 . S
C488 C81 1.409 . S
C501 C105 0.772 . S
C499 C90 0.659 . S
C510 C69 2.426 . S
C512 C195 2.435 . S
