# Generated by pormake.
# Topology zzz, (3,6)-cn, num edge types: 1
# Building blocks:
#     Node 0, Type 0, BuildingBlock: BETDAH_clean_linker_0, # of connection points: 3
#     Node 1, Type 0, BuildingBlock: BETDAH_clean_linker_0, # of connection points: 3
#     Node 2, Type 0, BuildingBlock: BETDAH_clean_linker_0, # of connection points: 3
#     Node 3, Type 0, BuildingBlock: BETDAH_clean_linker_0, # of connection points: 3
#     Node 4, Type 0, BuildingBlock: BETDAH_clean_linker_0, # of connection points: 3
#     Node 5, Type 0, BuildingBlock: BETDAH_clean_linker_0, # of connection points: 3
#     Node 6, Type 0, BuildingBlock: BETDAH_clean_linker_0, # of connection points: 3
#     Node 7, Type 0, BuildingBlock: BETDAH_clean_linker_0, # of connection points: 3
#     Node 8, Type 1, BuildingBlock: NUHQIS_clean_sbu_0, # of connection points: 6
#     Node 9, Type 1, BuildingBlock: NUHQIS_clean_sbu_0, # of connection points: 6
#     Node 10, Type 1, BuildingBlock: NUHQIS_clean_sbu_0, # of connection points: 6
#     Node 11, Type 1, BuildingBlock: NUHQIS_clean_sbu_0, # of connection points: 6
#     Edge 12, Type (0, 1), BuildingBlock: UVAHIK_clean_linker_0, # of connection points: 2
#     Edge 13, Type (0, 1), BuildingBlock: UVAHIK_clean_linker_0, # of connection points: 2
#     Edge 14, Type (0, 1), BuildingBlock: UVAHIK_clean_linker_0, # of connection points: 2
#     Edge 15, Type (0, 1), BuildingBlock: UVAHIK_clean_linker_0, # of connection points: 2
#     Edge 16, Type (0, 1), BuildingBlock: UVAHIK_clean_linker_0, # of connection points: 2
#     Edge 17, Type (0, 1), BuildingBlock: UVAHIK_clean_linker_0, # of connection points: 2
#     Edge 18, Type (0, 1), BuildingBlock: UVAHIK_clean_linker_0, # of connection points: 2
#     Edge 19, Type (0, 1), BuildingBlock: UVAHIK_clean_linker_0, # of connection points: 2
#     Edge 20, Type (0, 1), BuildingBlock: UVAHIK_clean_linker_0, # of connection points: 2
#     Edge 21, Type (0, 1), BuildingBlock: UVAHIK_clean_linker_0, # of connection points: 2
#     Edge 22, Type (0, 1), BuildingBlock: UVAHIK_clean_linker_0, # of connection points: 2
#     Edge 23, Type (0, 1), BuildingBlock: UVAHIK_clean_linker_0, # of connection points: 2
#     Edge 24, Type (0, 1), BuildingBlock: UVAHIK_clean_linker_0, # of connection points: 2
#     Edge 25, Type (0, 1), BuildingBlock: UVAHIK_clean_linker_0, # of connection points: 2
#     Edge 26, Type (0, 1), BuildingBlock: UVAHIK_clean_linker_0, # of connection points: 2
#     Edge 27, Type (0, 1), BuildingBlock: UVAHIK_clean_linker_0, # of connection points: 2
#     Edge 28, Type (0, 1), BuildingBlock: UVAHIK_clean_linker_0, # of connection points: 2
#     Edge 29, Type (0, 1), BuildingBlock: UVAHIK_clean_linker_0, # of connection points: 2
#     Edge 30, Type (0, 1), BuildingBlock: UVAHIK_clean_linker_0, # of connection points: 2
#     Edge 31, Type (0, 1), BuildingBlock: UVAHIK_clean_linker_0, # of connection points: 2
#     Edge 32, Type (0, 1), BuildingBlock: UVAHIK_clean_linker_0, # of connection points: 2
#     Edge 33, Type (0, 1), BuildingBlock: UVAHIK_clean_linker_0, # of connection points: 2
#     Edge 34, Type (0, 1), BuildingBlock: UVAHIK_clean_linker_0, # of connection points: 2
#     Edge 35, Type (0, 1), BuildingBlock: UVAHIK_clean_linker_0, # of connection points: 2
# Relax obj value: 0.210
# Max RMSD: 0.142
# Mean RMSD: 0.135
data_MOF--net-zzz--node1-NUHQIS_clean_sbu_0--node2-BETDAH_clean_linker_0--edge1-UVAHIK_clean_linker_0
_symmetry_space_group_name_H-M    P1
_symmetry_Int_Tables_number       1
_symmetry_cell_setting            triclinic
loop_
_symmetry_equiv_pos_as_xyz
'x, y, z'
_cell_length_a     68.032944
_cell_length_b     68.169225
_cell_length_c     18.031911
_cell_angle_alpha  89.96547
_cell_angle_beta   89.908501
_cell_angle_gamma 89.974985
loop_
_atom_site_label
_atom_site_type_symbol
_atom_site_fract_x
_atom_site_fract_y
_atom_site_fract_z
_atom_type_partial_charge
H0 H 0.79386 0.48998 0.27353 0.0
H1 H 0.73269 0.49484 0.21919 0.0
H2 H 0.75611 0.52569 0.4087 0.0
C3 C 0.77933 0.49562 0.2862 0.0
C4 C 0.77698 0.50837 0.34637 0.0
C5 C 0.76344 0.49055 0.24066 0.0
C6 C 0.74484 0.49852 0.25531 0.0
C7 C 0.74203 0.51112 0.31648 0.0
C8 C 0.75814 0.51578 0.36235 0.0
N9 N 0.72336 0.51961 0.3322 0.0
C10 C 0.70702 0.51777 0.28609 0.0
H11 H 0.03383 0.79149 0.28326 0.0
H12 H 0.01937 0.73556 0.18966 0.0
H13 H 0.98836 0.75647 0.38314 0.0
C14 C 0.0255 0.77794 0.28615 0.0
C15 C 0.01098 0.77572 0.34071 0.0
C16 C 0.02853 0.76358 0.23177 0.0
C17 C 0.01713 0.74646 0.23251 0.0
C18 C 1.0028 0.74367 0.28813 0.0
C19 C 0.99963 0.75847 0.34128 0.0
N20 N 0.99113 0.72638 0.29154 0.0
C21 C 0.99352 0.71029 0.2448 0.0
H22 H 0.72117 0.02922 0.28355 0.0
H23 H 0.78045 0.0168 0.2174 0.0
H24 H 0.75716 0.99206 0.41973 0.0
C25 C 0.73531 0.02255 0.29519 0.0
C26 C 0.73735 0.01092 0.35881 0.0
C27 C 0.75072 0.02475 0.24404 0.0
C28 C 0.76861 0.01515 0.2571 0.0
C29 C 0.77109 1.00339 0.32078 0.0
C30 C 0.75534 1.00121 0.37108 0.0
N31 N 0.78912 0.99346 0.3351 0.0
C32 C 0.80548 0.99443 0.28852 0.0
H33 H 0.50362 0.71373 0.2259 0.0
H34 H 0.49972 0.77548 0.18401 0.0
H35 H 0.52525 0.75446 0.38842 0.0
C36 C 0.50663 0.72867 0.24318 0.0
C37 C 0.5153 0.7321 0.31236 0.0
C38 C 0.50093 0.74421 0.19722 0.0
C39 C 0.50424 0.76356 0.21986 0.0
C40 C 0.51338 0.76737 0.28858 0.0
C41 C 0.51847 0.75157 0.3352 0.0
N42 N 0.51764 0.78682 0.31211 0.0
C43 C 0.51608 0.80319 0.26622 0.0
H44 H 0.21973 0.4985 0.16654 0.0
H45 H 0.28132 0.50214 0.21439 0.0
H46 H 0.26184 0.4848 0.99623 0.0
C47 C 0.23487 0.49653 0.14902 0.0
C48 C 0.23883 0.49088 0.07585 0.0
C49 C 0.25011 0.50077 0.19868 0.0
C50 C 0.26966 0.49885 0.17554 0.0
C51 C 0.27405 0.49275 0.10272 0.0
C52 C 0.25854 0.48917 0.05266 0.0
N53 N 0.29383 0.4902 0.07853 0.0
C54 C 0.31006 0.49163 0.12544 0.0
H55 H 0.01245 0.21542 0.18386 0.0
H56 H 0.01711 0.27676 0.2313 0.0
H57 H 0.02252 0.25617 0.00557 0.0
C58 C 0.01477 0.2303 0.16436 0.0
C59 C 0.0172 0.23379 0.0883 0.0
C60 C 0.0147 0.24568 0.21578 0.0
C61 C 0.01739 0.26496 0.19116 0.0
C62 C 0.02055 0.26885 0.11522 0.0
C63 C 0.0205 0.25317 0.0641 0.0
N64 N 0.0235 0.28831 0.08873 0.0
C65 C 0.02317 0.30485 0.13425 0.0
H66 H 0.28993 0.00994 0.16123 0.0
H67 H 0.22799 1.00515 0.1997 0.0
H68 H 0.24953 0.02454 0.98633 0.0
C69 C 0.27498 0.01171 0.14137 0.0
C70 C 0.27173 0.01789 0.06835 0.0
C71 C 0.25926 0.00692 0.18813 0.0
C72 C 0.23997 0.00884 0.16267 0.0
C73 C 0.23626 0.01558 0.09016 0.0
C74 C 0.25226 0.01966 0.04258 0.0
N75 N 0.21669 0.01842 0.06426 0.0
C76 C 0.20017 0.01704 0.11002 0.0
H77 H 0.49904 0.29499 0.19213 0.0
H78 H 0.49463 0.23351 0.23762 0.0
H79 H 0.48902 0.25466 0.0127 0.0
C80 C 0.49676 0.28015 0.1722 0.0
C81 C 0.49429 0.27685 0.09606 0.0
C82 C 0.49692 0.26464 0.22311 0.0
C83 C 0.49429 0.24542 0.19787 0.0
C84 C 0.4911 0.24172 0.12186 0.0
C85 C 0.49106 0.25752 0.07129 0.0
N86 N 0.48822 0.22231 0.09481 0.0
C87 C 0.48868 0.20569 0.13992 0.0
Tb88 Tb 0.01772 0.99797 0.7662 0.0
Eu89 Eu 0.98837 0.01378 0.63627 0.0
C90 C 0.03407 0.00837 0.60897 0.0
C91 C 0.0091 0.04335 0.75125 0.0
C92 C 0.04768 0.9621 0.86605 0.0
C93 C 0.07516 0.9393 0.87224 0.0
C94 C 0.06798 0.95855 0.86921 0.0
C95 C 0.03469 0.94608 0.86537 0.0
C96 C 0.04181 0.92694 0.86902 0.0
C97 C 0.06214 0.92324 0.8725 0.0
C98 C 0.04013 0.98238 0.86043 0.0
O99 O 0.99068 0.00707 0.82183 0.0
O100 O 0.97001 1.0001 0.72638 0.0
O101 O 0.99485 0.98247 0.605 0.0
O102 O 1.00291 0.97204 0.72221 0.0
C103 C 0.97299 1.00298 0.79729 0.0
O104 O 0.95851 0.01969 0.59848 0.0
O105 O 0.98307 0.02729 0.52811 0.0
O106 O 0.01935 0.02055 0.60023 0.0
O107 O 0.0335 0.995 0.66132 0.0
O108 O 0.02212 0.02974 0.76803 0.0
O109 O 0.99323 0.03931 0.71287 0.0
C110 C 0.9981 0.96829 0.65294 0.0
O111 O 0.04652 0.99265 0.80441 0.0
O112 O 0.02127 0.98458 0.86993 0.0
C113 C 0.95785 0.0506 0.53951 0.0
C114 C 0.95272 0.09167 0.54106 0.0
C115 C 0.94964 0.0806 0.60575 0.0
C116 C 0.95228 0.0603 0.60512 0.0
C117 C 0.95984 0.06144 0.47392 0.0
C118 C 0.95733 0.08179 0.47463 0.0
C119 C 0.96446 0.03001 0.54189 0.0
H120 H 0.0909 0.93702 0.87413 0.0
H121 H 0.07828 0.97066 0.86898 0.0
H122 H 0.01894 0.94826 0.86235 0.0
H123 H 0.03126 0.91507 0.87084 0.0
H124 H 0.94581 0.08768 0.65756 0.0
H125 H 0.95082 0.05236 0.6569 0.0
H126 H 0.96437 0.0543 0.42299 0.0
H127 H 0.96011 0.08985 0.42393 0.0
Tb128 Tb 0.51193 0.01878 0.77019 0.0
Eu129 Eu 0.49542 0.99045 0.63908 0.0
C130 C 0.49893 0.03618 0.61748 0.0
C131 C 0.46655 0.01098 0.75888 0.0
C132 C 0.54989 0.04203 0.87852 0.0
C133 C 0.57849 0.06269 0.89902 0.0
C134 C 0.55805 0.06046 0.89404 0.0
C135 C 0.56241 0.02589 0.86776 0.0
C136 C 0.58269 0.0281 0.87243 0.0
C137 C 0.591 0.04647 0.88836 0.0
C138 C 0.52863 0.03978 0.86619 0.0
O139 O 0.50427 0.9907 0.82093 0.0
O140 O 0.51107 0.97132 0.7215 0.0
O141 O 0.52684 0.99682 0.60701 0.0
O142 O 0.53779 1.0041 0.72412 0.0
C143 C 0.50879 0.97347 0.79315 0.0
O144 O 0.48334 0.96205 0.60772 0.0
O145 O 0.48659 0.98472 0.52465 0.0
O146 O 0.48688 0.02137 0.60923 0.0
O147 O 0.51305 0.03534 0.66679 0.0
O148 O 0.48024 0.02399 0.77452 0.0
O149 O 0.47057 0.99517 0.72007 0.0
C150 C 0.54127 0.99974 0.6542 0.0
O151 O 0.52225 0.04656 0.80325 0.0
O152 O 0.52145 0.02246 0.88004 0.0
C153 C 0.4569 0.96729 0.52919 0.0
C154 C 0.41564 0.96425 0.52329 0.0
C155 C 0.42763 0.94999 0.48904 0.0
C156 C 0.44817 0.95144 0.49249 0.0
C157 C 0.445 0.98164 0.56212 0.0
C158 C 0.42466 0.98005 0.55996 0.0
C159 C 0.47813 0.96815 0.54213 0.0
H160 H 0.58448 0.077 0.91187 0.0
H161 H 0.54864 0.07314 0.90145 0.0
H162 H 0.55654 0.01155 0.85457 0.0
H163 H 0.5919 0.01539 0.86255 0.0
H164 H 0.42118 0.93777 0.45951 0.0
H165 H 0.45718 0.94011 0.4676 0.0
H166 H 0.45149 0.99388 0.59148 0.0
H167 H 0.41604 0.99107 0.58852 0.0
Tb168 Tb 0.49424 0.51283 0.76891 0.0
Eu169 Eu 0.52374 0.49588 0.64047 0.0
C170 C 0.47801 0.50196 0.61267 0.0
C171 C 0.50311 0.46725 0.75816 0.0
C172 C 0.46111 0.54683 0.86476 0.0
C173 C 0.44085 0.57055 0.9296 0.0
C174 C 0.44849 0.55157 0.92341 0.0
C175 C 0.46521 0.56092 0.81024 0.0
C176 C 0.45786 0.57995 0.81688 0.0
C177 C 0.44599 0.58519 0.87779 0.0
C178 C 0.4712 0.52781 0.86301 0.0
O179 O 0.52128 0.50424 0.82539 0.0
O180 O 0.54198 0.51035 0.72882 0.0
O181 O 0.518 0.52697 0.60605 0.0
O182 O 0.50831 0.53873 0.72006 0.0
C183 C 0.53899 0.50804 0.80008 0.0
O184 O 0.55356 0.48943 0.60308 0.0
O185 O 0.52893 0.48158 0.53369 0.0
O186 O 0.49259 0.48954 0.60486 0.0
O187 O 0.47865 0.51557 0.664 0.0
O188 O 0.49008 0.48099 0.77325 0.0
O189 O 0.51906 0.47101 0.71988 0.0
C190 C 0.51417 0.54163 0.65117 0.0
O191 O 0.46556 0.51571 0.81137 0.0
O192 O 0.4903 0.52881 0.86706 0.0
C193 C 0.55406 0.45825 0.5464 0.0
C194 C 0.55926 0.41719 0.54992 0.0
C195 C 0.56199 0.42844 0.61435 0.0
C196 C 0.5593 0.44873 0.61274 0.0
C197 C 0.55239 0.44724 0.48117 0.0
C198 C 0.55494 0.4269 0.48286 0.0
C199 C 0.54754 0.47886 0.54738 0.0
H200 H 0.43141 0.57391 0.97631 0.0
H201 H 0.44504 0.54078 0.9656 0.0
H202 H 0.47478 0.55741 0.7641 0.0
H203 H 0.4624 0.59075 0.77629 0.0
H204 H 0.56558 0.4215 0.66665 0.0
H205 H 0.5605 0.45681 0.66424 0.0
H206 H 0.54812 0.45424 0.42969 0.0
H207 H 0.55242 0.41871 0.43233 0.0
Tb208 Tb 1.00179 0.49268 0.76104 0.0
Eu209 Eu 0.01756 0.52131 0.62871 0.0
C210 C 0.01412 0.47544 0.60659 0.0
C211 C 0.04704 0.50099 0.74646 0.0
C212 C 0.96474 0.46915 0.87424 0.0
C213 C 0.93649 0.4483 0.89891 0.0
C214 C 0.95686 0.45067 0.89109 0.0
C215 C 0.95203 0.4852 0.86528 0.0
C216 C 0.93181 0.48285 0.87275 0.0
C217 C 0.92377 0.46441 0.88977 0.0
C218 C 0.98586 0.47154 0.8589 0.0
O219 O 0.00921 0.52085 0.81152 0.0
O220 O 1.00178 0.53999 0.71225 0.0
O221 O 0.98609 0.51482 0.59861 0.0
O222 O 0.97556 0.50689 0.716 0.0
C223 C 1.00438 0.53799 0.78372 0.0
O224 O 0.02744 0.55053 0.59713 0.0
O225 O 0.02732 0.52733 0.5154 0.0
O226 O 0.02578 0.49049 0.5961 0.0
O227 O 1.00049 0.47598 0.6581 0.0
O228 O 0.03353 0.48783 0.76273 0.0
O229 O 0.04279 0.51678 0.70784 0.0
C230 C 0.97184 0.5116 0.64654 0.0
O231 O 0.99172 0.46486 0.79505 0.0
O232 O 0.99307 0.48888 0.8719 0.0
C233 C 0.05477 0.54828 0.52061 0.0
C234 C 0.09519 0.55688 0.51944 0.0
C235 C 0.08164 0.57007 0.488 0.0
C236 C 0.06148 0.56586 0.48922 0.0
C237 C 0.06834 0.5349 0.55008 0.0
C238 C 0.08834 0.53917 0.54965 0.0
C239 C 0.03374 0.54481 0.53245 0.0
H240 H 0.93073 0.43393 0.9126 0.0
H241 H 0.96642 0.43806 0.89727 0.0
H242 H 0.95767 0.49957 0.85106 0.0
H243 H 0.92244 0.49548 0.86386 0.0
H244 H 0.08659 0.58379 0.46411 0.0
H245 H 0.05115 0.57647 0.46734 0.0
H246 H 0.06341 0.52131 0.57513 0.0
H247 H 0.09847 0.52854 0.5728 0.0
C248 C 0.18232 1.00127 0.21367 0.0
C249 C 0.18334 0.01589 0.15913 0.0
C250 C 0.16624 1.0004 0.26224 0.0
C251 C 0.11447 0.01681 0.28339 0.0
H252 H 0.12304 1.00516 0.4913 0.0
C253 C 0.0522 0.02358 0.50156 0.0
C254 C 0.05124 0.0093 0.55781 0.0
C255 C 0.06832 0.02438 0.45319 0.0
C256 C 0.12032 0.0082 0.43328 0.0
H257 H 0.16864 0.04107 0.11182 0.0
H258 H 0.14049 0.03968 0.19663 0.0
H259 H 0.15097 0.00643 0.40654 0.0
H260 H 0.06663 0.98465 0.60703 0.0
H261 H 0.09456 0.98591 0.52232 0.0
H262 H 0.08383 0.01851 0.30997 0.0
C263 C 0.15193 0.02872 0.20177 0.0
C264 C 0.13637 0.00894 0.38457 0.0
C265 C 0.16806 0.0296 0.15341 0.0
C266 C 0.06686 0.99588 0.56452 0.0
C267 C 0.08298 0.99668 0.51612 0.0
C268 C 0.09841 0.01604 0.33205 0.0
C269 C 0.15081 0.01413 0.25701 0.0
C270 C 0.13368 0.01327 0.30895 0.0
C271 C 0.08394 0.01093 0.45967 0.0
C272 C 0.1011 0.01173 0.40774 0.0
H273 H 0.19396 0.9905 0.21882 0.0
H274 H 0.16578 0.98882 0.30334 0.0
H275 H 0.11177 0.01989 0.22537 0.0
H276 H 0.0405 0.0342 0.49483 0.0
H277 H 0.06864 0.03575 0.41122 0.0
C278 C 0.47621 0.17312 0.1773 0.0
C279 C 0.4894 0.18865 0.18762 0.0
C280 C 0.47694 0.15661 0.22353 0.0
C281 C 0.51006 0.12993 0.35219 0.0
H282 H 0.46185 0.10556 0.42079 0.0
C283 C 0.51015 0.06963 0.57744 0.0
C284 C 0.49725 0.05368 0.56866 0.0
C285 C 0.50891 0.08602 0.53091 0.0
C286 C 0.47546 0.11203 0.40147 0.0
H287 H 0.51358 0.19948 0.25356 0.0
H288 H 0.51484 0.17076 0.33506 0.0
H289 H 0.46026 0.13422 0.33992 0.0
H290 H 0.47282 0.04259 0.50398 0.0
H291 H 0.47078 0.0711 0.42233 0.0
H292 H 0.52528 0.10777 0.41358 0.0
C293 C 0.50408 0.17107 0.2909 0.0
C294 C 0.47455 0.12849 0.35504 0.0
C295 C 0.50331 0.18757 0.24465 0.0
C296 C 0.48297 0.05461 0.51245 0.0
C297 C 0.48173 0.07103 0.46583 0.0
C298 C 0.51097 0.11348 0.39854 0.0
C299 C 0.49091 0.15534 0.28091 0.0
C300 C 0.49184 0.1377 0.32994 0.0
C301 C 0.49475 0.08692 0.47423 0.0
C302 C 0.4937 0.10433 0.42403 0.0
H303 H 0.46538 0.17372 0.13336 0.0
H304 H 0.46674 0.14471 0.21359 0.0
H305 H 0.52368 0.13639 0.33293 0.0
H306 H 0.52127 0.06951 0.62034 0.0
H307 H 0.51897 0.09809 0.53991 0.0
C308 C 0.32777 0.50715 0.22971 0.0
C309 C 0.3269 0.49278 0.17427 0.0
C310 C 0.34403 0.50816 0.27722 0.0
C311 C 0.38608 0.47864 0.34747 0.0
H312 H 0.40702 0.52933 0.40418 0.0
C313 C 0.45972 0.4866 0.50616 0.0
C314 C 0.46073 0.50088 0.56229 0.0
C315 C 0.44339 0.4856 0.45898 0.0
C316 C 0.40124 0.51504 0.38965 0.0
H317 H 0.34203 0.46826 0.12405 0.0
H318 H 0.3706 0.47007 0.20623 0.0
H319 H 0.37863 0.52763 0.32217 0.0
H320 H 0.44521 0.5253 0.61271 0.0
H321 H 0.41677 0.52345 0.53108 0.0
H322 H 0.40871 0.46605 0.41491 0.0
C323 C 0.35871 0.48043 0.21413 0.0
C324 C 0.38492 0.51407 0.34253 0.0
C325 C 0.34244 0.47944 0.16672 0.0
C326 C 0.445 0.51414 0.56997 0.0
C327 C 0.4287 0.51316 0.52279 0.0
C328 C 0.40241 0.47962 0.39457 0.0
C329 C 0.35974 0.4948 0.27012 0.0
C330 C 0.37711 0.49585 0.32071 0.0
C331 C 0.42765 0.49887 0.46661 0.0
C332 C 0.41023 0.49783 0.41631 0.0
H333 H 0.31586 0.51756 0.2365 0.0
H334 H 0.34415 0.51926 0.32016 0.0
H335 H 0.3803 0.46436 0.33296 0.0
H336 H 0.47155 0.47617 0.49842 0.0
H337 H 0.44324 0.47457 0.41581 0.0
C338 C 0.00926 0.32293 0.24067 0.0
C339 C 0.02265 0.32195 0.18171 0.0
C340 C 0.00863 0.33953 0.28639 0.0
C341 C 0.0379 0.38291 0.34429 0.0
H342 H 0.98734 0.40277 0.40938 0.0
C343 C 0.02942 0.4571 0.4997 0.0
C344 C 0.01567 0.45788 0.55799 0.0
C345 C 0.03056 0.44059 0.45355 0.0
C346 C 1.00161 0.39731 0.39248 0.0
H347 H 0.04589 0.33716 0.12351 0.0
H348 H 0.04476 0.36634 0.20279 0.0
H349 H 0.98877 0.37392 0.32998 0.0
H350 H 0.99252 0.44167 0.6138 0.0
H351 H 0.99465 0.41295 0.53419 0.0
H352 H 0.05073 0.40633 0.40692 0.0
C353 C 0.03487 0.35429 0.21467 0.0
C354 C 1.00243 0.38073 0.34686 0.0
C355 C 0.03547 0.33767 0.16898 0.0
C356 C 1.00322 0.44168 0.56925 0.0
C357 C 1.00436 0.42521 0.52321 0.0
C358 C 0.03708 0.39951 0.38999 0.0
C359 C 0.0214 0.35547 0.27394 0.0
C360 C 0.02058 0.37325 0.32226 0.0
C361 C 0.01798 0.42444 0.4645 0.0
C362 C 0.01892 0.40691 0.41491 0.0
H363 H 0.99927 0.31088 0.25144 0.0
H364 H 0.99826 0.33977 0.33202 0.0
H365 H 0.05216 0.37743 0.32732 0.0
H366 H 0.03923 0.46931 0.48928 0.0
H367 H 0.0411 0.44062 0.40847 0.0
C368 C 0.84121 0.9985 0.2694 0.0
C369 C 0.82242 0.99537 0.24003 0.0
C370 C 0.85764 0.9993 0.22252 0.0
C371 C 0.87478 0.9846 0.03512 0.0
H372 H 0.91576 0.02301 0.06979 0.0
C373 C 0.93697 0.99837 0.82263 0.0
C374 C 0.95605 1.00191 0.84946 0.0
C375 C 0.92092 0.99746 0.87111 0.0
C376 C 0.90459 0.01202 0.0598 0.0
H377 H 0.80573 0.99075 0.13964 0.0
H378 H 0.83437 0.99225 0.05719 0.0
H379 H 0.88733 0.02174 0.15223 0.0
H380 H 0.97313 0.00721 0.94888 0.0
H381 H 0.94514 1.00541 0.03364 0.0
H382 H 0.89202 0.97484 0.94282 0.0
C383 C 0.83659 0.99385 0.11633 0.0
C384 C 0.88825 0.0113 0.10712 0.0
C385 C 0.82018 0.9931 0.16331 0.0
C386 C 0.95865 1.00451 0.9262 0.0
C387 C 0.94256 1.00358 0.9748 0.0
C388 C 0.89113 0.9853 0.9879 0.0
C389 C 0.85556 0.99694 0.14531 0.0
C390 C 0.87308 0.99763 0.09528 0.0
C391 C 0.92347 1.00003 0.94791 0.0
C392 C 0.90624 0.99906 0.99936 0.0
H393 H 0.84321 1.00025 0.32863 0.0
H394 H 0.87201 1.00147 0.24692 0.0
H395 H 0.86358 0.97364 0.025 0.0
H396 H 0.93435 0.9964 0.76387 0.0
H397 H 0.90643 0.99502 0.8481 0.0
C398 C 0.5182 0.81836 0.14225 0.0
C399 C 0.51501 0.82021 0.21868 0.0
C400 C 0.51757 0.83492 0.09633 0.0
C401 C 0.5216 0.88918 0.10109 0.0
H402 H 0.49709 0.88603 0.90753 0.0
C403 C 0.50727 0.95786 0.9194 0.0
C404 C 0.51031 0.95609 0.84253 0.0
C405 C 0.50811 0.94134 0.96549 0.0
C406 C 0.50421 0.88712 0.96105 0.0
H407 H 0.50862 0.84041 0.3079 0.0
H408 H 0.5073 0.86943 0.22787 0.0
H409 H 0.49782 0.85715 0.9872 0.0
H410 H 0.5169 0.93551 0.75413 0.0
H411 H 0.51856 0.90682 0.83448 0.0
H412 H 0.52797 0.91916 0.07492 0.0
C413 C 0.51053 0.85532 0.20309 0.0
C414 C 0.50462 0.87053 0.0068 0.0
C415 C 0.51114 0.83874 0.24888 0.0
C416 C 0.51441 0.93743 0.81303 0.0
C417 C 0.51523 0.92093 0.85908 0.0
C418 C 0.52119 0.90577 0.05533 0.0
C419 C 0.51379 0.85365 0.12618 0.0
C420 C 0.51332 0.87134 0.07745 0.0
C421 C 0.51199 0.92263 0.93588 0.0
C422 C 0.51249 0.90496 0.98468 0.0
H423 H 0.5213 0.80414 0.11809 0.0
H424 H 0.5204 0.8331 0.03762 0.0
H425 H 0.52871 0.89026 0.15463 0.0
H426 H 0.50405 0.97198 0.94405 0.0
H427 H 0.50533 0.94318 0.02423 0.0
C428 C 0.67129 0.51351 0.26819 0.0
C429 C 0.69007 0.51634 0.23807 0.0
C430 C 0.65481 0.51254 0.22181 0.0
C431 C 0.63764 0.52649 0.0339 0.0
H432 H 0.5962 0.48881 0.07255 0.0
C433 C 0.57505 0.5125 0.82422 0.0
C434 C 0.55596 0.50931 0.85179 0.0
C435 C 0.59116 0.51348 0.87222 0.0
C436 C 0.6075 0.4996 0.06144 0.0
H437 H 0.7067 0.52021 0.13688 0.0
H438 H 0.67798 0.51839 0.0553 0.0
H439 H 0.62476 0.49007 0.15402 0.0
H440 H 0.53892 0.5047 0.95202 0.0
H441 H 0.56701 0.50663 0.03594 0.0
H442 H 0.62041 0.53606 0.94149 0.0
C443 C 0.67581 0.51715 0.11462 0.0
C444 C 0.62392 0.50031 0.10819 0.0
C445 C 0.69227 0.51808 0.1611 0.0
C446 C 0.5534 0.50714 0.92879 0.0
C447 C 0.56955 0.50813 0.97691 0.0
C448 C 0.62123 0.52581 0.98726 0.0
C449 C 0.65684 0.51443 0.14437 0.0
C450 C 0.63925 0.51372 0.0949 0.0
C451 C 0.58866 0.51131 0.94926 0.0
C452 C 0.60595 0.5123 1.00015 0.0
H453 H 0.66933 0.5122 0.32764 0.0
H454 H 0.64045 0.51067 0.24677 0.0
H455 H 0.64897 0.53726 0.02268 0.0
H456 H 0.57765 0.51414 0.76526 0.0
H457 H 0.60565 0.51563 0.84867 0.0
C458 C 0.99946 0.67483 0.23049 0.0
C459 C 0.99542 0.69311 0.19847 0.0
C460 C 1.00068 0.65801 0.1862 0.0
C461 C 0.00769 0.64172 0.99146 0.0
H462 H 0.98481 0.59315 0.06299 0.0
C463 C 0.99852 0.57401 0.80223 0.0
C464 C 1.00279 0.55547 0.83253 0.0
C465 C 0.99762 0.59065 0.84742 0.0
C466 C 0.99148 0.60653 0.04249 0.0
H467 H 0.98952 0.70852 0.09611 0.0
H468 H 0.99144 0.67913 0.01818 0.0
H469 H 0.98346 0.62247 0.14024 0.0
H470 H 0.00927 0.53994 0.93462 0.0
H471 H 0.00781 0.56902 0.01347 0.0
H472 H 0.01565 0.62579 0.89362 0.0
C473 C 0.99394 0.67768 0.07722 0.0
C474 C 0.99071 0.62337 0.08685 0.0
C475 C 0.99273 0.69449 0.12167 0.0
C476 C 1.00592 0.55397 0.9094 0.0
C477 C 1.00499 0.57064 0.95469 0.0
C478 C 0.00844 0.6249 0.9471 0.0
C479 C 0.99784 0.65919 0.10896 0.0
C480 C 0.99879 0.6412 0.06189 0.0
C481 C 1.00095 0.58922 0.92419 0.0
C482 C 1.0003 0.60708 0.97194 0.0
H483 H 1.0016 0.67352 0.28984 0.0
H484 H 1.00399 0.64411 0.21245 0.0
H485 H 0.01436 0.65509 0.97089 0.0
H486 H 0.99596 0.57574 0.74331 0.0
H487 H 0.99417 0.60465 0.82217 0.0
C488 C 0.99345 0.24868 0.32828 0.0
C489 C 0.01036 0.24106 0.29416 0.0
C490 C 0.9858 0.23968 0.39189 0.0
C491 C 0.9641 0.2053 0.4582 0.0
H492 H 0.99463 0.17042 0.58257 0.0
C493 C 0.94625 0.12462 0.4838 0.0
C494 C 0.95304 0.11347 0.544 0.0
C495 C 0.9495 0.14482 0.48121 0.0
C496 C 0.98561 0.18025 0.54997 0.0
H497 H 0.03394 0.21994 0.30402 0.0
H498 H 0.02068 0.20409 0.41331 0.0
H499 H 0.00947 0.20032 0.53588 0.0
H500 H 0.96734 0.11511 0.65141 0.0
H501 H 0.97239 0.15041 0.64802 0.0
H502 H 0.94034 0.18508 0.47125 0.0
C503 C 0.01317 0.21696 0.39244 0.0
C504 C 0.99425 0.19736 0.52243 0.0
C505 C 0.02078 0.22594 0.32925 0.0
C506 C 0.96185 0.12323 0.60418 0.0
C507 C 0.96495 0.14349 0.60191 0.0
C508 C 0.95536 0.18837 0.48672 0.0
C509 C 0.99495 0.22292 0.4219 0.0
C510 C 0.98406 0.20933 0.4719 0.0
C511 C 0.95947 0.15443 0.53915 0.0
C512 C 0.96644 0.17495 0.52862 0.0
H513 H 0.98521 0.26039 0.30216 0.0
H514 H 0.97196 0.24491 0.41412 0.0
H515 H 0.95566 0.21416 0.41989 0.0
H516 H 0.93909 0.11764 0.43717 0.0
H517 H 0.94523 0.15262 0.43145 0.0
C518 C 0.25921 0.97944 0.27935 0.0
C519 C 0.26349 0.99908 0.26248 0.0
C520 C 0.26784 0.9705 0.34112 0.0
C521 C 0.30068 0.98007 0.5031 0.0
H522 H 0.33277 0.93938 0.41377 0.0
C523 C 0.38269 0.98036 0.51443 0.0
C524 C 0.39383 0.96307 0.52048 0.0
C525 C 0.36228 0.97962 0.51215 0.0
C526 C 0.32365 0.95023 0.44108 0.0
H527 H 0.27822 0.02539 0.29948 0.0
H528 H 0.29314 0.01004 0.40724 0.0
H529 H 0.30138 0.94786 0.35838 0.0
H530 H 0.39205 0.93135 0.52981 0.0
H531 H 0.35609 0.93008 0.52172 0.0
H532 H 0.324 0.9837 0.58143 0.0
C533 C 0.28317 1.0014 0.37379 0.0
C534 C 0.30558 0.9551 0.4094 0.0
C535 C 0.27478 0.01021 0.31178 0.0
C536 C 0.38394 0.94494 0.52416 0.0
C537 C 0.36339 0.94419 0.52055 0.0
C538 C 0.31877 0.97524 0.53462 0.0
C539 C 0.28066 0.9812 0.38692 0.0
C540 C 0.29467 0.97107 0.43683 0.0
C541 C 0.3524 0.96157 0.51454 0.0
C542 C 0.331 0.96129 0.50048 0.0
H543 H 0.25054 0.97063 0.24161 0.0
H544 H 0.26559 0.95495 0.3501 0.0
H545 H 0.29236 0.99216 0.52627 0.0
H546 H 0.3897 0.99455 0.50938 0.0
H547 H 0.35425 0.99323 0.50504 0.0
C548 C 0.51808 0.26114 0.33548 0.0
C549 C 0.50129 0.26904 0.30158 0.0
C550 C 0.52574 0.26984 0.39954 0.0
C551 C 0.54769 0.30371 0.46792 0.0
H552 H 0.51722 0.33865 0.59242 0.0
C553 C 0.56606 0.38415 0.49408 0.0
C554 C 0.55902 0.3954 0.55365 0.0
C555 C 0.5628 0.36396 0.49183 0.0
C556 C 0.52623 0.32879 0.55984 0.0
H557 H 0.4779 0.29035 0.31229 0.0
H558 H 0.49118 0.3057 0.42228 0.0
H559 H 0.50221 0.30899 0.54489 0.0
H560 H 0.54431 0.39391 0.6605 0.0
H561 H 0.53928 0.35861 0.65781 0.0
H562 H 0.57163 0.32364 0.48196 0.0
C563 C 0.49859 0.29283 0.4009 0.0
C564 C 0.51749 0.31182 0.53177 0.0
C565 C 0.49098 0.28414 0.33727 0.0
C566 C 0.55 0.38573 0.61373 0.0
C567 C 0.54691 0.36547 0.61184 0.0
C568 C 0.55654 0.32049 0.49704 0.0
C569 C 0.51671 0.28658 0.43026 0.0
C570 C 0.52766 0.29987 0.48104 0.0
C571 C 0.55258 0.35443 0.54952 0.0
C572 C 0.54549 0.33396 0.5389 0.0
H573 H 0.52623 0.24943 0.30893 0.0
H574 H 0.53948 0.26438 0.42166 0.0
H575 H 0.55612 0.29485 0.42954 0.0
H576 H 0.57341 0.39106 0.4476 0.0
H577 H 0.56724 0.3561 0.4424 0.0
C578 C 0.25188 0.527 0.29521 0.0
C579 C 0.24509 0.50848 0.27285 0.0
C580 C 0.24305 0.5366 0.35522 0.0
C581 C 0.20416 0.53069 0.50122 0.0
H582 H 0.18512 0.57993 0.42123 0.0
C583 C 0.12808 0.55708 0.58141 0.0
C584 C 0.11655 0.56088 0.51838 0.0
C585 C 0.14857 0.55723 0.57662 0.0
C586 C 0.19038 0.56631 0.44496 0.0
H587 H 0.22557 0.48448 0.29985 0.0
H588 H 0.21007 0.50105 0.40352 0.0
H589 H 0.21484 0.56537 0.37089 0.0
H590 H 0.11729 0.5693 0.40266 0.0
H591 H 0.15288 0.56906 0.39334 0.0
H592 H 0.17857 0.53049 0.56946 0.0
C593 C 0.22217 0.50833 0.3758 0.0
C594 C 0.20764 0.55806 0.41681 0.0
C595 C 0.2309 0.49884 0.31587 0.0
C596 C 0.12583 0.56638 0.45211 0.0
C597 C 0.1463 0.56635 0.44708 0.0
C598 C 0.18678 0.53881 0.52873 0.0
C599 C 0.22739 0.52774 0.39373 0.0
C600 C 0.21395 0.53949 0.44116 0.0
C601 C 0.15792 0.56097 0.50848 0.0
C602 C 0.17902 0.55606 0.49734 0.0
H603 H 0.26285 0.5347 0.26275 0.0
H604 H 0.24756 0.55143 0.3683 0.0
H605 H 0.20894 0.51661 0.52246 0.0
H606 H 0.12123 0.55315 0.63363 0.0
H607 H 0.15705 0.55343 0.62533 0.0
C608 C 0.03474 0.77165 0.09938 0.0
C609 C 0.04223 0.76812 0.17055 0.0
C610 C 0.04559 0.78274 0.04847 0.0
C611 C 0.07853 0.82395 0.06679 0.0
H612 H 0.07259 0.82721 0.8535 0.0
C613 C 0.08505 0.8984 0.92895 0.0
C614 C 0.06935 0.90272 0.88105 0.0
C615 C 0.08943 0.87897 0.94751 0.0
C616 C 0.07443 0.82653 0.91307 0.0
H617 H 0.06768 0.77094 0.24147 0.0
H618 H 0.08694 0.78974 0.15185 0.0
H619 H 0.06643 0.79608 0.91686 0.0
H620 H 0.04754 0.88981 0.80814 0.0
H621 H 0.05425 0.85623 0.84396 0.0
H622 H 0.08494 0.85445 0.06491 0.0
C623 C 0.07255 0.78447 0.13574 0.0
C624 C 0.07099 0.80866 0.94924 0.0
C625 C 0.06162 0.77359 0.18683 0.0
C626 C 0.0593 0.88708 0.84721 0.0
C627 C 0.06344 0.86769 0.86677 0.0
C628 C 0.08177 0.84176 0.03095 0.0
C629 C 0.0641 0.79035 0.06815 0.0
C630 C 0.07228 0.80738 0.02689 0.0
C631 C 0.07799 0.86342 0.91973 0.0
C632 C 0.07899 0.84353 0.95397 0.0
H633 H 0.01974 0.76768 0.08594 0.0
H634 H 0.03859 0.78701 0.99703 0.0
H635 H 0.07936 0.82368 0.12676 0.0
H636 H 0.09322 0.91 0.95589 0.0
H637 H 0.10113 0.87623 0.98684 0.0
C638 C 0.73558 0.05277 0.17563 0.0
C639 C 0.74693 0.03557 0.17409 0.0
C640 C 0.72627 0.05943 0.11162 0.0
C641 C 0.70547 0.03451 0.95096 0.0
H642 H 0.67564 0.08295 0.94591 0.0
C643 C 0.62324 0.03364 0.93262 0.0
C644 C 0.61264 0.0483 0.89541 0.0
C645 C 0.64358 0.03475 0.93847 0.0
C646 C 0.68402 0.06944 0.94482 0.0
H647 H 0.76031 0.01389 0.1021 0.0
H648 H 0.74488 0.0261 0.98928 0.0
H649 H 0.70834 0.08266 1.00076 0.0
H650 H 0.61511 0.07572 0.83511 0.0
H651 H 0.651 0.07784 0.84648 0.0
H652 H 0.68105 0.02125 0.89619 0.0
C653 C 0.74229 0.03389 0.04068 0.0
C654 C 0.70271 0.0692 0.97709 0.0
C655 C 0.75136 0.027 0.10526 0.0
C656 C 0.6229 0.06427 0.8646 0.0
C657 C 0.64341 0.06543 0.87067 0.0
C658 C 0.687 0.03485 0.91766 0.0
C659 C 0.72835 0.04917 0.04428 0.0
C660 C 0.71297 0.05138 0.98593 0.0
C661 C 0.65396 0.05058 0.90738 0.0
C662 C 0.67549 0.05193 0.91947 0.0
H663 H 0.7324 0.06002 0.22775 0.0
H664 H 0.71587 0.07134 0.11745 0.0
H665 H 0.71277 0.02046 0.9556 0.0
H666 H 0.61576 0.02137 0.95845 0.0
H667 H 0.65113 0.0234 0.96936 0.0
C668 C 0.47046 0.74339 0.12081 0.0
C669 C 0.49063 0.7395 0.12759 0.0
C670 C 0.45929 0.73348 0.06752 0.0
C671 C 0.46263 0.69684 0.9129 0.0
H672 H 0.42276 0.66961 0.02715 0.0
C673 C 0.43792 0.61931 0.83218 0.0
C674 C 0.44105 0.60619 0.89142 0.0
C675 C 0.43691 0.63955 0.84482 0.0
C676 C 0.4336 0.67723 0.99385 0.0
H677 H 0.5154 0.72406 0.08025 0.0
H678 H 0.49616 0.70688 0.98738 0.0
H679 H 0.43558 0.7007 0.07167 0.0
H680 H 0.4444 0.60423 0.011 0.0
H681 H 0.44222 0.63912 0.03281 0.0
H682 H 0.4619 0.67238 0.83872 0.0
C683 C 0.48877 0.71753 0.02219 0.0
C684 C 0.44083 0.69521 0.01891 0.0
C685 C 0.49985 0.7273 0.07559 0.0
C686 C 0.44167 0.61371 0.96396 0.0
C687 C 0.44043 0.63385 0.97658 0.0
C688 C 0.4554 0.67883 0.88787 0.0
C689 C 0.4682 0.71963 0.02034 0.0
C690 C 0.45627 0.70462 0.98106 0.0
C691 C 0.43871 0.64704 0.91703 0.0
C692 C 0.44167 0.66831 0.93053 0.0
H693 H 0.46307 0.75268 0.16081 0.0
H694 H 0.44351 0.73558 0.06688 0.0
H695 H 0.47429 0.70391 0.88185 0.0
H696 H 0.43695 0.61402 0.77569 0.0
H697 H 0.4354 0.64937 0.79792 0.0
C698 C 0.77929 0.46163 0.18129 0.0
C699 C 0.76729 0.47827 0.17452 0.0
C700 C 0.78877 0.4539 0.11933 0.0
C701 C 0.80924 0.47612 0.95338 0.0
H702 H 0.8395 0.42794 0.95846 0.0
C703 C 0.89156 0.47712 0.93565 0.0
C704 C 0.90217 0.46237 0.89884 0.0
C705 C 0.87124 0.4759 0.94254 0.0
C706 C 0.83099 0.44134 0.95461 0.0
H707 H 0.75314 0.4979 0.09668 0.0
H708 H 0.76917 0.48394 0.98746 0.0
H709 H 0.80674 0.42876 0.01349 0.0
H710 H 0.8997 0.43463 0.84075 0.0
H711 H 0.86387 0.43228 0.85448 0.0
H712 H 0.8337 0.48883 0.89659 0.0
C713 C 0.77191 0.47731 0.04103 0.0
C714 C 0.81226 0.44188 0.98678 0.0
C715 C 0.76255 0.4852 0.10345 0.0
C716 C 0.89194 0.44616 0.86992 0.0
C717 C 0.87146 0.44487 0.87725 0.0
C718 C 0.82778 0.4755 0.92054 0.0
C719 C 0.78632 0.4626 0.04911 0.0
C720 C 0.80182 0.45969 0.99156 0.0
C721 C 0.86091 0.45986 0.91314 0.0
C722 C 0.8394 0.45853 0.9257 0.0
H723 H 0.78286 0.45579 0.23554 0.0
H724 H 0.79961 0.44253 0.12849 0.0
H725 H 0.80177 0.49014 0.95515 0.0
H726 H 0.89901 0.48957 0.96017 0.0
H727 H 0.86365 0.48738 0.97272 0.0
C728 C 0.02989 0.21342 0.9809 0.0
C729 C 0.01571 0.21684 0.03627 0.0
C730 C 0.02996 0.19566 0.94122 0.0
C731 C 0.0165 0.1445 0.96904 0.0
H732 H 0.0189 0.13799 0.75565 0.0
C733 C 0.02559 0.06819 0.83356 0.0
C734 C 0.01207 0.06385 0.77704 0.0
C735 C 0.02758 0.08742 0.86002 0.0
C736 C 0.01829 0.13961 0.81536 0.0
H737 H 0.98947 0.20508 0.08843 0.0
H738 H 0.98986 0.17422 0.02071 0.0
H739 H 0.01891 0.17114 0.80932 0.0
H740 H 0.99054 0.07652 0.70217 0.0
H741 H 0.99421 0.11001 0.74796 0.0
H742 H 0.0158 0.11315 0.97569 0.0
C743 C 1.0011 0.18504 0.00873 0.0
C744 C 0.01841 0.15855 0.84595 0.0
C745 C 1.0009 0.20273 0.04749 0.0
C746 C 1.00102 0.07929 0.74612 0.0
C747 C 1.00321 0.09854 0.77189 0.0
C748 C 0.01671 0.12564 0.93868 0.0
C749 C 0.01593 0.18104 0.95674 0.0
C750 C 0.01719 0.16116 0.92312 0.0
C751 C 0.01631 0.10279 0.82985 0.0
C752 C 0.01738 0.12295 0.86149 0.0
H753 H 0.04148 0.22399 0.971 0.0
H754 H 0.04153 0.19295 0.90116 0.0
H755 H 0.0157 0.14607 0.02876 0.0
H756 H 0.03434 0.05669 0.85854 0.0
H757 H 0.03789 0.09026 0.90442 0.0
C758 C 0.30329 0.0355 0.04394 0.0
C759 C 0.28913 0.02185 0.02068 0.0
C760 C 0.3216 0.03662 0.00875 0.0
C761 C 0.35051 0.01934 0.84382 0.0
H762 H 0.39459 0.02702 0.97681 0.0
C763 C 0.43099 1.00097 0.76249 0.0
C764 C 0.44596 0.0139 0.78518 0.0
C765 C 0.4116 1.00346 0.78681 0.0
C766 C 0.38247 0.02511 0.93861 0.0
H767 H 0.28277 0.99906 0.94097 0.0
H768 H 0.3149 1.00066 0.87989 0.0
H769 H 0.36124 0.02883 0.02488 0.0
H770 H 0.45204 0.03971 0.85145 0.0
H771 H 0.41819 0.04393 0.89466 0.0
H772 H 0.37197 0.01503 0.75801 0.0
C773 C 0.31179 0.01086 0.9244 0.0
C774 C 0.36324 0.02621 0.96615 0.0
C775 C 0.29332 0.00992 0.95921 0.0
C776 C 0.44095 0.02945 0.8329 0.0
C777 C 0.42154 0.03182 0.8579 0.0
C778 C 0.36978 0.01809 0.81638 0.0
C779 C 0.32642 0.02385 0.95007 0.0
C780 C 0.34692 0.02332 0.91929 0.0
C781 C 0.40661 0.01883 0.83523 0.0
C782 C 0.38603 0.0209 0.8635 0.0
H783 H 0.30043 0.04484 0.09135 0.0
H784 H 0.33217 0.04719 0.02901 0.0
H785 H 0.33842 0.01728 0.80565 0.0
H786 H 0.43421 0.98878 0.72601 0.0
H787 H 0.40058 0.99303 0.7689 0.0
C788 C 0.48151 0.29733 0.98925 0.0
C789 C 0.49568 0.29392 0.04453 0.0
C790 C 0.48136 0.31515 0.94984 0.0
C791 C 0.49462 0.36636 0.97781 0.0
H792 H 0.49254 0.37286 0.76437 0.0
C793 C 0.48629 0.44272 0.84124 0.0
C794 C 0.49995 0.44686 0.7848 0.0
C795 C 0.48408 0.42354 0.8681 0.0
C796 C 0.49305 0.37124 0.8241 0.0
H797 H 0.52181 0.30577 0.09682 0.0
H798 H 0.52127 0.33672 0.02959 0.0
H799 H 0.49243 0.33972 0.81819 0.0
H800 H 0.52149 0.43388 0.71049 0.0
H801 H 0.51745 0.40052 0.75695 0.0
H802 H 0.49537 0.39771 0.9843 0.0
C803 C 0.5101 0.32586 0.0175 0.0
C804 C 0.49287 0.35231 0.85477 0.0
C805 C 0.51038 0.30811 0.05599 0.0
C806 C 0.51092 0.43128 0.7544 0.0
C807 C 0.50851 0.4121 0.78053 0.0
C808 C 0.49448 0.38521 0.94736 0.0
C809 C 0.4953 0.32982 0.96557 0.0
C810 C 0.494 0.3497 0.93195 0.0
C811 C 0.49526 0.40803 0.83834 0.0
C812 C 0.49395 0.3879 0.87015 0.0
H813 H 0.47 0.2867 0.97916 0.0
H814 H 0.46982 0.31783 0.90978 0.0
H815 H 0.49535 0.36479 0.03754 0.0
H816 H 0.47759 0.45434 0.86578 0.0
H817 H 0.47366 0.42084 0.91241 0.0
C818 C 0.21987 0.49905 0.96021 0.0
C819 C 0.22195 0.48773 0.02484 0.0
C820 C 0.20211 0.49891 0.92059 0.0
C821 C 0.155 0.47191 0.89557 0.0
H822 H 0.13366 0.52329 0.85113 0.0
C823 C 0.07268 0.48332 0.82256 0.0
C824 C 0.06767 0.49826 0.77222 0.0
C825 C 0.0921 0.48119 0.84745 0.0
C826 C 0.13944 0.50877 0.86178 0.0
H827 H 0.20757 0.46662 0.09638 0.0
H828 H 0.17682 0.46607 0.02686 0.0
H829 H 0.16684 0.52044 0.90008 0.0
H830 H 0.07943 0.52246 0.70769 0.0
H831 H 0.11312 0.51837 0.74875 0.0
H832 H 0.12763 0.46019 0.85729 0.0
C833 C 0.18878 0.47511 0.0066 0.0
C834 C 0.15855 0.50715 0.88997 0.0
C835 C 0.20638 0.47543 0.04656 0.0
C836 C 0.08264 0.51082 0.74668 0.0
C837 C 0.10205 0.50857 0.77085 0.0
C838 C 0.13593 0.4735 0.86674 0.0
C839 C 0.18619 0.48725 0.94432 0.0
C840 C 0.16651 0.48872 0.90805 0.0
C841 C 0.10709 0.49383 0.82216 0.0
C842 C 0.12776 0.49198 0.85017 0.0
H843 H 0.23155 0.50881 0.94268 0.0
H844 H 0.20067 0.50829 0.8724 0.0
H845 H 0.16074 0.45747 0.90819 0.0
H846 H 0.06155 0.47342 0.84367 0.0
H847 H 0.09525 0.46985 0.88777 0.0
C848 C 0.02314 0.80241 0.42458 0.0
C849 C 0.00725 0.79222 0.39304 0.0
C850 C 0.02013 0.81994 0.46304 0.0
C851 C 0.98485 0.861 0.47365 0.0
H852 H 0.01872 0.87772 0.63425 0.0
C853 C 0.9936 0.94268 0.55396 0.0
C854 C 0.99654 0.94749 0.62893 0.0
C855 C 0.99311 0.92305 0.53114 0.0
C856 C 0.00893 0.87327 0.59011 0.0
H857 H 0.97558 0.79193 0.38082 0.0
H858 H 0.97021 0.82239 0.44976 0.0
H859 H 0.02052 0.84408 0.58987 0.0
H860 H 1.00084 0.93527 0.73897 0.0
H861 H 0.9996 0.90119 0.69946 0.0
H862 H 0.9731 0.89014 0.47448 0.0
C863 C 0.98509 0.81699 0.44336 0.0
C864 C 0.01012 0.85398 0.56399 0.0
C865 C 0.98812 0.79939 0.40473 0.0
C866 C 0.99863 0.93217 0.68065 0.0
C867 C 0.99804 0.91255 0.65791 0.0
C868 C 0.98359 0.88028 0.5 0.0
C869 C 1.00112 0.82776 0.47137 0.0
C870 C 0.99835 0.84765 0.50455 0.0
C871 C 0.99545 0.9077 0.58271 0.0
C872 C 0.99583 0.88679 0.55781 0.0
H873 H 0.03805 0.79717 0.41711 0.0
H874 H 0.03287 0.82781 0.48312 0.0
H875 H 0.97568 0.85677 0.42735 0.0
H876 H 0.99204 0.95407 0.51253 0.0
H877 H 0.99139 0.91994 0.47262 0.0
C878 C 0.71307 0.99 0.4296 0.0
C879 C 0.72003 0.00865 0.4089 0.0
C880 C 0.6946 0.98796 0.46383 0.0
C881 C 0.64704 0.01353 0.47037 0.0
H882 H 0.63407 0.97831 0.63203 0.0
C883 C 0.56652 0.99753 0.55233 0.0
C884 C 0.56203 0.99833 0.62841 0.0
C885 C 0.5861 0.99751 0.52805 0.0
C886 C 0.63749 0.98824 0.58692 0.0
H887 H 0.71385 0.03981 0.41356 0.0
H888 H 0.68188 0.03627 0.47308 0.0
H889 H 0.66825 0.98103 0.58959 0.0
H890 H 0.57477 0.99905 0.73861 0.0
H891 H 0.60884 0.99903 0.69623 0.0
H892 H 0.61645 0.02081 0.46742 0.0
C893 C 0.69039 0.02319 0.46152 0.0
C894 C 0.65703 0.9897 0.56234 0.0
C895 C 0.70877 0.02522 0.42777 0.0
C896 C 0.57764 0.99856 0.6796 0.0
C897 C 0.59722 0.99839 0.65533 0.0
C898 C 0.62755 0.01191 0.4943 0.0
C899 C 0.68277 1.00452 0.47775 0.0
C900 C 0.66206 1.0025 0.50414 0.0
C901 C 0.6017 0.99813 0.57919 0.0
C902 C 0.6225 0.99932 0.55304 0.0
H903 H 0.72134 0.97695 0.41539 0.0
H904 H 0.68914 0.97337 0.4757 0.0
H905 H 0.65034 0.02334 0.42475 0.0
H906 H 0.55492 0.99733 0.51128 0.0
H907 H 0.58903 0.99708 0.46901 0.0
C908 C 0.51299 0.7133 0.43238 0.0
C909 C 0.52031 0.71496 0.3597 0.0
C910 C 0.51435 0.69542 0.47075 0.0
C911 C 0.51693 0.64278 0.42832 0.0
H912 H 0.52829 0.63569 0.63717 0.0
C913 C 0.52441 0.56557 0.55264 0.0
C914 C 0.51645 0.56205 0.62339 0.0
C915 C 0.52593 0.58466 0.52495 0.0
C916 C 0.52486 0.63744 0.57893 0.0
H917 H 0.53622 0.69983 0.27272 0.0
H918 H 0.53882 0.66887 0.33956 0.0
H919 H 0.5297 0.66859 0.58263 0.0
H920 H 0.50424 0.57609 0.72116 0.0
H921 H 0.50643 0.60937 0.67202 0.0
H922 H 0.51169 0.61193 0.42414 0.0
C923 C 0.53159 0.68113 0.36643 0.0
C924 C 0.52574 0.65629 0.5477 0.0
C925 C 0.53022 0.69889 0.32831 0.0
C926 C 0.51038 0.5782 0.6663 0.0
C927 C 0.51177 0.59735 0.63831 0.0
C928 C 0.51595 0.62405 0.45943 0.0
C929 C 0.52305 0.67893 0.43697 0.0
C930 C 0.52198 0.65913 0.47178 0.0
C931 C 0.51939 0.60082 0.56688 0.0
C932 C 0.52009 0.62104 0.53496 0.0
H933 H 0.50517 0.72543 0.4577 0.0
H934 H 0.50763 0.6942 0.52504 0.0
H935 H 0.51345 0.64448 0.37008 0.0
H936 H 0.52944 0.55355 0.51822 0.0
H937 H 0.53229 0.58674 0.47042 0.0
C938 C 0.8113 0.52122 0.3505 0.0
C939 C 0.79476 0.51418 0.38891 0.0
C940 C 0.82928 0.52366 0.38661 0.0
C941 C 0.85717 0.5045 0.54584 0.0
H942 H 0.89407 0.54531 0.49033 0.0
C943 C 0.93551 0.5094 0.67192 0.0
C944 C 0.951 0.51367 0.62261 0.0
C945 C 0.91589 0.51096 0.64936 0.0
C946 C 0.88401 0.53372 0.50607 0.0
H947 H 0.78382 0.50495 0.49608 0.0
H948 H 0.81537 0.5094 0.56014 0.0
H949 H 0.86049 0.54642 0.44355 0.0
H950 H 0.95778 0.52309 0.51055 0.0
H951 H 0.92361 0.52576 0.47112 0.0
H952 H 0.8808 0.49165 0.60754 0.0
C953 C 0.81444 0.51285 0.50163 0.0
C954 C 0.8647 0.53438 0.47935 0.0
C955 C 0.79632 0.51051 0.46532 0.0
C956 C 0.94629 0.51971 0.55017 0.0
C957 C 0.92665 0.52136 0.52768 0.0
C958 C 0.87648 0.50386 0.57272 0.0
C959 C 0.83126 0.51907 0.46227 0.0
C960 C 0.8511 0.51959 0.49775 0.0
C961 C 0.91118 0.51695 0.57689 0.0
C962 C 0.89026 0.51829 0.55216 0.0
H963 H 0.8105 0.52416 0.29152 0.0
H964 H 0.84186 0.52826 0.35411 0.0
H965 H 0.84722 0.4927 0.56043 0.0
H966 H 0.93851 0.50474 0.72812 0.0
H967 H 0.90439 0.50764 0.68903 0.0
loop_
_geom_bond_atom_site_label_1
_geom_bond_atom_site_label_2
_geom_bond_distance
_geom_bond_site_symmetry_2
_ccdc_geom_bond_type
H0 C3 0.929 . S
H1 C6 0.929 . S
H2 C8 0.930 . S
C3 H0 0.929 . S
C3 C4 1.398 . S
C3 C5 1.396 . S
C4 C3 1.398 . S
C4 C8 1.407 . S
C5 C3 1.396 . S
C5 C6 1.394 . S
C6 H1 0.929 . S
C6 C5 1.394 . S
C6 C7 1.382 . S
C7 C6 1.382 . S
C7 C8 1.392 . S
C7 N9 1.420 . S
C8 H2 0.930 . S
C8 C4 1.407 . S
C8 C7 1.392 . S
N9 C7 1.420 . S
N9 C10 1.244 . S
C10 N9 1.244 . S
H11 C14 0.929 . S
H12 C17 0.929 . S
H13 C19 0.930 . S
C14 H11 0.929 . S
C14 C15 1.395 1_655 S
C14 C16 1.395 1_655 S
C15 C14 1.395 1_455 S
C15 C19 1.413 . S
C16 C14 1.395 1_455 S
C16 C17 1.396 . S
C17 H12 0.929 . S
C17 C16 1.396 . S
C17 C18 1.382 . S
C18 C17 1.382 . S
C18 C19 1.392 . S
C18 N20 1.420 . S
C19 H13 0.930 . S
C19 C15 1.413 . S
C19 C18 1.392 . S
N20 C18 1.420 . S
N20 C21 1.232 1_455 S
C21 N20 1.232 1_655 S
H22 C25 0.929 . S
H23 C28 0.929 . S
H24 C30 0.930 . S
C25 H22 0.929 . S
C25 C26 1.395 1_565 S
C25 C27 1.395 1_565 S
C26 C25 1.395 1_545 S
C26 C30 1.413 . S
C27 C25 1.395 1_545 S
C27 C28 1.396 . S
C28 H23 0.929 . S
C28 C27 1.396 . S
C28 C29 1.382 . S
C29 C28 1.382 . S
C29 C30 1.392 . S
C29 N31 1.420 . S
C30 H24 0.930 . S
C30 C26 1.413 . S
C30 C29 1.392 . S
N31 C29 1.420 . S
N31 C32 1.232 1_545 S
C32 N31 1.232 1_565 S
H33 C36 0.929 . S
H34 C39 0.929 . S
H35 C41 0.930 . S
C36 H33 0.929 . S
C36 C37 1.398 . S
C36 C38 1.396 . S
C37 C36 1.398 . S
C37 C41 1.407 . S
C38 C36 1.396 . S
C38 C39 1.394 . S
C39 H34 0.929 . S
C39 C38 1.394 . S
C39 C40 1.382 . S
C40 C39 1.382 . S
C40 C41 1.392 . S
C40 N42 1.420 . S
C41 H35 0.930 . S
C41 C37 1.407 . S
C41 C40 1.392 . S
N42 C40 1.420 . S
N42 C43 1.244 . S
C43 N42 1.244 . S
H44 C47 0.929 . S
H45 C50 0.929 . S
H46 C52 0.930 . S
C47 H44 0.929 . S
C47 C48 1.398 1_554 S
C47 C49 1.396 . S
C48 C47 1.398 1_556 S
C48 C52 1.407 . S
C49 C47 1.396 . S
C49 C50 1.394 . S
C50 H45 0.929 . S
C50 C49 1.394 . S
C50 C51 1.382 . S
C51 C50 1.382 . S
C51 C52 1.392 1_554 S
C51 N53 1.420 . S
C52 H46 0.930 . S
C52 C48 1.407 . S
C52 C51 1.392 1_556 S
N53 C51 1.420 . S
N53 C54 1.244 . S
C54 N53 1.244 . S
H55 C58 0.929 . S
H56 C61 0.929 . S
H57 C63 0.930 . S
C58 H55 0.929 . S
C58 C59 1.394 1_654 S
C58 C60 1.394 1_655 S
C59 C58 1.394 1_456 S
C59 C63 1.416 . S
C60 C58 1.394 1_455 S
C60 C61 1.398 . S
C61 H56 0.929 . S
C61 C60 1.398 . S
C61 C62 1.382 . S
C62 C61 1.382 . S
C62 C63 1.392 1_554 S
C62 N64 1.420 . S
C63 H57 0.930 . S
C63 C59 1.416 . S
C63 C62 1.392 1_556 S
N64 C62 1.420 . S
N64 C65 1.238 1_455 S
C65 N64 1.238 1_655 S
H66 C69 0.929 . S
H67 C72 0.929 . S
H68 C74 0.930 . S
C69 H66 0.929 . S
C69 C70 1.394 1_564 S
C69 C71 1.394 1_565 S
C70 C69 1.394 1_546 S
C70 C74 1.416 . S
C71 C69 1.394 1_545 S
C71 C72 1.398 . S
C72 H67 0.929 . S
C72 C71 1.398 . S
C72 C73 1.382 . S
C73 C72 1.382 . S
C73 C74 1.392 1_554 S
C73 N75 1.420 . S
C74 H68 0.930 . S
C74 C70 1.416 . S
C74 C73 1.392 1_556 S
N75 C73 1.420 . S
N75 C76 1.238 1_545 S
C76 N75 1.238 1_565 S
H77 C80 0.929 . S
H78 C83 0.929 . S
H79 C85 0.930 . S
C80 H77 0.929 . S
C80 C81 1.398 1_554 S
C80 C82 1.396 . S
C81 C80 1.398 1_556 S
C81 C85 1.407 . S
C82 C80 1.396 . S
C82 C83 1.394 . S
C83 H78 0.929 . S
C83 C82 1.394 . S
C83 C84 1.382 . S
C84 C83 1.382 . S
C84 C85 1.392 1_554 S
C84 N86 1.420 . S
C85 H79 0.930 . S
C85 C81 1.407 . S
C85 C84 1.392 1_556 S
N86 C84 1.420 . S
N86 C87 1.244 . S
C87 N86 1.244 . S
Tb88 C98 2.825 . S
Tb88 O99 2.347 1_455 S
Tb88 O102 2.366 . S
Tb88 O107 2.418 . S
Tb88 O108 2.384 1_565 S
Tb88 O111 2.479 . S
Tb88 O112 2.471 . S
Eu89 O100 2.418 . S
Eu89 O101 2.384 1_545 S
Eu89 O104 2.479 . S
Eu89 O105 2.471 . S
Eu89 O106 2.347 1_655 S
Eu89 O109 2.366 . S
Eu89 C119 2.825 . S
C90 O106 1.259 1_565 S
C90 O107 1.265 . S
C91 O108 1.255 . S
C91 O109 1.265 1_455 S
C92 C94 1.380 . S
C92 C95 1.374 . S
C92 C98 1.507 . S
C93 C94 1.384 . S
C93 C97 1.387 . S
C93 H120 0.930 . S
C94 C92 1.380 . S
C94 C93 1.384 . S
C94 H121 0.931 . S
C95 C92 1.374 . S
C95 C96 1.390 . S
C95 H122 0.930 1_455 S
C96 C95 1.390 . S
C96 C97 1.391 . S
C96 H123 0.930 1_455 S
C97 C93 1.387 . S
C97 C96 1.391 . S
C98 Tb88 2.825 . S
C98 C92 1.507 . S
C98 O111 1.238 . S
C98 O112 1.247 . S
O99 Tb88 2.347 1_655 S
O99 C103 1.259 1_565 S
O100 Eu89 2.418 . S
O100 C103 1.265 . S
O101 Eu89 2.384 1_565 S
O101 C110 1.255 . S
O102 Tb88 2.366 . S
O102 C110 1.265 1_455 S
C103 O99 1.259 1_545 S
C103 O100 1.265 . S
O104 Eu89 2.479 . S
O104 C119 1.238 . S
O105 Eu89 2.471 . S
O105 C119 1.247 . S
O106 Eu89 2.347 1_455 S
O106 C90 1.259 1_545 S
O107 Tb88 2.418 . S
O107 C90 1.265 . S
O108 Tb88 2.384 1_545 S
O108 C91 1.255 . S
O109 Eu89 2.366 . S
O109 C91 1.265 1_655 S
C110 O101 1.255 . S
C110 O102 1.265 1_655 S
O111 Tb88 2.479 . S
O111 C98 1.238 . S
O112 Tb88 2.471 . S
O112 C98 1.247 . S
C113 C116 1.380 . S
C113 C117 1.374 . S
C113 C119 1.507 . S
C114 C115 1.387 . S
C114 C118 1.391 . S
C115 C114 1.387 . S
C115 C116 1.384 . S
C115 H124 0.930 . S
C116 C113 1.380 . S
C116 C115 1.384 . S
C116 H125 0.931 . S
C117 C113 1.374 . S
C117 C118 1.390 . S
C117 H126 0.930 1_655 S
C118 C114 1.391 . S
C118 C117 1.390 . S
C118 H127 0.930 1_655 S
C119 Eu89 2.825 . S
C119 O104 1.238 . S
C119 O105 1.247 . S
C119 C113 1.507 . S
H120 C93 0.930 . S
H121 C94 0.931 . S
H122 C95 0.930 1_655 S
H123 C96 0.930 1_655 S
H124 C115 0.930 . S
H125 C116 0.931 . S
H126 C117 0.930 1_455 S
H127 C118 0.930 1_455 S
Tb128 C138 2.825 . S
Tb128 O139 2.347 1_545 S
Tb128 O142 2.366 . S
Tb128 O147 2.418 . S
Tb128 O148 2.384 . S
Tb128 O151 2.479 . S
Tb128 O152 2.471 . S
Eu129 O140 2.418 . S
Eu129 O141 2.384 . S
Eu129 O144 2.479 . S
Eu129 O145 2.471 . S
Eu129 O146 2.347 1_565 S
Eu129 O149 2.366 . S
Eu129 C159 2.825 . S
C130 O146 1.259 . S
C130 O147 1.265 . S
C131 O148 1.255 . S
C131 O149 1.265 1_545 S
C132 C134 1.380 . S
C132 C135 1.374 . S
C132 C138 1.507 . S
C133 C134 1.384 . S
C133 C137 1.387 . S
C133 H160 0.930 . S
C134 C132 1.380 . S
C134 C133 1.384 . S
C134 H161 0.931 . S
C135 C132 1.374 . S
C135 C136 1.390 . S
C135 H162 0.930 1_545 S
C136 C135 1.390 . S
C136 C137 1.391 . S
C136 H163 0.930 1_545 S
C137 C133 1.387 . S
C137 C136 1.391 . S
C138 Tb128 2.825 . S
C138 C132 1.507 . S
C138 O151 1.238 . S
C138 O152 1.247 . S
O139 Tb128 2.347 1_565 S
O139 C143 1.259 . S
O140 Eu129 2.418 . S
O140 C143 1.265 . S
O141 Eu129 2.384 . S
O141 C150 1.255 . S
O142 Tb128 2.366 . S
O142 C150 1.265 1_545 S
C143 O139 1.259 . S
C143 O140 1.265 . S
O144 Eu129 2.479 . S
O144 C159 1.238 . S
O145 Eu129 2.471 . S
O145 C159 1.247 . S
O146 Eu129 2.347 1_545 S
O146 C130 1.259 . S
O147 Tb128 2.418 . S
O147 C130 1.265 . S
O148 Tb128 2.384 . S
O148 C131 1.255 . S
O149 Eu129 2.366 . S
O149 C131 1.265 1_565 S
C150 O141 1.255 . S
C150 O142 1.265 1_565 S
O151 Tb128 2.479 . S
O151 C138 1.238 . S
O152 Tb128 2.471 . S
O152 C138 1.247 . S
C153 C156 1.380 . S
C153 C157 1.374 . S
C153 C159 1.507 . S
C154 C155 1.387 . S
C154 C158 1.391 . S
C155 C154 1.387 . S
C155 C156 1.384 . S
C155 H164 0.930 . S
C156 C153 1.380 . S
C156 C155 1.384 . S
C156 H165 0.931 . S
C157 C153 1.374 . S
C157 C158 1.390 . S
C157 H166 0.930 1_565 S
C158 C154 1.391 . S
C158 C157 1.390 . S
C158 H167 0.930 1_565 S
C159 Eu129 2.825 . S
C159 O144 1.238 . S
C159 O145 1.247 . S
C159 C153 1.507 . S
H160 C133 0.930 . S
H161 C134 0.931 . S
H162 C135 0.930 1_565 S
H163 C136 0.930 1_565 S
H164 C155 0.930 . S
H165 C156 0.931 . S
H166 C157 0.930 1_545 S
H167 C158 0.930 1_545 S
Tb168 C178 2.825 . S
Tb168 O179 2.347 . S
Tb168 O182 2.366 . S
Tb168 O187 2.418 . S
Tb168 O188 2.384 . S
Tb168 O191 2.479 . S
Tb168 O192 2.471 . S
Eu169 O180 2.418 . S
Eu169 O181 2.384 . S
Eu169 O184 2.479 . S
Eu169 O185 2.471 . S
Eu169 O186 2.347 . S
Eu169 O189 2.366 . S
Eu169 C199 2.825 . S
C170 O186 1.259 . S
C170 O187 1.265 . S
C171 O188 1.255 . S
C171 O189 1.265 . S
C172 C174 1.380 . S
C172 C175 1.374 . S
C172 C178 1.507 . S
C173 C174 1.384 . S
C173 C177 1.387 . S
C173 H200 0.930 . S
C174 C172 1.380 . S
C174 C173 1.384 . S
C174 H201 0.931 . S
C175 C172 1.374 . S
C175 C176 1.390 . S
C175 H202 0.930 . S
C176 C175 1.390 . S
C176 C177 1.391 . S
C176 H203 0.930 . S
C177 C173 1.387 . S
C177 C176 1.391 . S
C178 Tb168 2.825 . S
C178 C172 1.507 . S
C178 O191 1.238 . S
C178 O192 1.247 . S
O179 Tb168 2.347 . S
O179 C183 1.259 . S
O180 Eu169 2.418 . S
O180 C183 1.265 . S
O181 Eu169 2.384 . S
O181 C190 1.255 . S
O182 Tb168 2.366 . S
O182 C190 1.265 . S
C183 O179 1.259 . S
C183 O180 1.265 . S
O184 Eu169 2.479 . S
O184 C199 1.238 . S
O185 Eu169 2.471 . S
O185 C199 1.247 . S
O186 Eu169 2.347 . S
O186 C170 1.259 . S
O187 Tb168 2.418 . S
O187 C170 1.265 . S
O188 Tb168 2.384 . S
O188 C171 1.255 . S
O189 Eu169 2.366 . S
O189 C171 1.265 . S
C190 O181 1.255 . S
C190 O182 1.265 . S
O191 Tb168 2.479 . S
O191 C178 1.238 . S
O192 Tb168 2.471 . S
O192 C178 1.247 . S
C193 C196 1.380 . S
C193 C197 1.374 . S
C193 C199 1.507 . S
C194 C195 1.387 . S
C194 C198 1.391 . S
C195 C194 1.387 . S
C195 C196 1.384 . S
C195 H204 0.930 . S
C196 C193 1.380 . S
C196 C195 1.384 . S
C196 H205 0.931 . S
C197 C193 1.374 . S
C197 C198 1.390 . S
C197 H206 0.930 . S
C198 C194 1.391 . S
C198 C197 1.390 . S
C198 H207 0.930 . S
C199 Eu169 2.825 . S
C199 O184 1.238 . S
C199 O185 1.247 . S
C199 C193 1.507 . S
H200 C173 0.930 . S
H201 C174 0.931 . S
H202 C175 0.930 . S
H203 C176 0.930 . S
H204 C195 0.930 . S
H205 C196 0.931 . S
H206 C197 0.930 . S
H207 C198 0.930 . S
Tb208 C218 2.825 . S
Tb208 O219 2.347 . S
Tb208 O222 2.366 . S
Tb208 O227 2.418 . S
Tb208 O228 2.384 1_655 S
Tb208 O231 2.479 . S
Tb208 O232 2.471 . S
Eu209 O220 2.418 . S
Eu209 O221 2.384 1_455 S
Eu209 O224 2.479 . S
Eu209 O225 2.471 . S
Eu209 O226 2.347 . S
Eu209 O229 2.366 . S
Eu209 C239 2.825 . S
C210 O226 1.259 1_655 S
C210 O227 1.265 . S
C211 O228 1.255 . S
C211 O229 1.265 . S
C212 C214 1.380 . S
C212 C215 1.374 . S
C212 C218 1.507 . S
C213 C214 1.384 . S
C213 C217 1.387 . S
C213 H240 0.930 . S
C214 C212 1.380 . S
C214 C213 1.384 . S
C214 H241 0.931 . S
C215 C212 1.374 . S
C215 C216 1.390 . S
C215 H242 0.930 . S
C216 C215 1.390 . S
C216 C217 1.391 . S
C216 H243 0.930 . S
C217 C213 1.387 . S
C217 C216 1.391 . S
C218 Tb208 2.825 . S
C218 C212 1.507 . S
C218 O231 1.238 . S
C218 O232 1.247 . S
O219 Tb208 2.347 . S
O219 C223 1.259 1_655 S
O220 Eu209 2.418 . S
O220 C223 1.265 . S
O221 Eu209 2.384 1_655 S
O221 C230 1.255 . S
O222 Tb208 2.366 . S
O222 C230 1.265 . S
C223 O219 1.259 1_455 S
C223 O220 1.265 . S
O224 Eu209 2.479 . S
O224 C239 1.238 . S
O225 Eu209 2.471 . S
O225 C239 1.247 . S
O226 Eu209 2.347 . S
O226 C210 1.259 1_455 S
O227 Tb208 2.418 . S
O227 C210 1.265 . S
O228 Tb208 2.384 1_455 S
O228 C211 1.255 . S
O229 Eu209 2.366 . S
O229 C211 1.265 . S
C230 O221 1.255 . S
C230 O222 1.265 . S
O231 Tb208 2.479 . S
O231 C218 1.238 . S
O232 Tb208 2.471 . S
O232 C218 1.247 . S
C233 C236 1.380 . S
C233 C237 1.374 . S
C233 C239 1.507 . S
C234 C235 1.387 . S
C234 C238 1.391 . S
C235 C234 1.387 . S
C235 C236 1.384 . S
C235 H244 0.930 . S
C236 C233 1.380 . S
C236 C235 1.384 . S
C236 H245 0.931 . S
C237 C233 1.374 . S
C237 C238 1.390 . S
C237 H246 0.930 . S
C238 C234 1.391 . S
C238 C237 1.390 . S
C238 H247 0.930 . S
C239 Eu209 2.825 . S
C239 O224 1.238 . S
C239 O225 1.247 . S
C239 C233 1.507 . S
H240 C213 0.930 . S
H241 C214 0.931 . S
H242 C215 0.930 . S
H243 C216 0.930 . S
H244 C235 0.930 . S
H245 C236 0.931 . S
H246 C237 0.930 . S
H247 C238 0.930 . S
C248 C249 1.347 1_565 S
C248 C250 1.327 . S
C248 H273 0.950 . S
C249 C248 1.347 1_545 S
C249 C265 1.351 . S
C250 C248 1.327 . S
C250 C269 1.420 1_565 S
C250 H274 0.950 . S
C251 C268 1.574 . S
C251 C270 1.381 . S
C251 H275 0.949 . S
H252 C256 0.949 . S
C253 C254 1.376 . S
C253 C255 1.327 . S
C253 H276 0.950 . S
C254 C253 1.376 . S
C254 C266 1.322 1_545 S
C255 C253 1.327 . S
C255 C271 1.449 . S
C255 H277 0.950 . S
C256 H252 0.949 . S
C256 C264 1.574 . S
C256 C272 1.350 1_565 S
H257 C265 0.950 . S
H258 C263 0.950 . S
H259 C264 0.949 . S
H260 C266 0.950 . S
H261 C267 0.950 . S
H262 C268 0.949 . S
C263 H258 0.950 . S
C263 C265 1.327 . S
C263 C269 1.437 . S
C264 C256 1.574 . S
C264 H259 0.949 . S
C264 C270 1.356 1_565 S
C265 C249 1.351 . S
C265 H257 0.950 . S
C265 C263 1.327 . S
C266 C254 1.322 1_565 S
C266 H260 0.950 . S
C266 C267 1.327 . S
C267 H261 0.950 . S
C267 C266 1.327 . S
C267 C271 1.409 1_565 S
C268 C251 1.574 . S
C268 H262 0.949 . S
C268 C272 1.387 . S
C269 C250 1.420 1_545 S
C269 C263 1.437 . S
C269 C270 1.523 . S
C270 C251 1.381 . S
C270 C264 1.356 1_545 S
C270 C269 1.523 . S
C271 C255 1.449 . S
C271 C267 1.409 1_545 S
C271 C272 1.523 . S
C272 C256 1.350 1_545 S
C272 C268 1.387 . S
C272 C271 1.523 . S
H273 C248 0.950 . S
H274 C250 0.950 . S
H275 C251 0.949 . S
H276 C253 0.950 . S
H277 C255 0.950 . S
C278 C279 1.349 . S
C278 C280 1.327 . S
C278 H303 0.950 . S
C279 C278 1.349 . S
C279 C295 1.349 . S
C280 C278 1.327 . S
C280 C299 1.429 . S
C280 H304 0.950 . S
C281 C298 1.574 . S
C281 C300 1.368 . S
C281 H305 0.949 . S
H282 C286 0.949 . S
C283 C284 1.349 . S
C283 C285 1.327 . S
C283 H306 0.950 . S
C284 C283 1.349 . S
C284 C296 1.349 . S
C285 C283 1.327 . S
C285 C301 1.429 . S
C285 H307 0.950 . S
C286 H282 0.949 . S
C286 C294 1.574 . S
C286 C302 1.368 . S
H287 C295 0.950 . S
H288 C293 0.950 . S
H289 C294 0.949 . S
H290 C296 0.950 . S
H291 C297 0.950 . S
H292 C298 0.949 . S
C293 H288 0.950 . S
C293 C295 1.327 . S
C293 C299 1.429 . S
C294 C286 1.574 . S
C294 H289 0.949 . S
C294 C300 1.368 . S
C295 C279 1.349 . S
C295 H287 0.950 . S
C295 C293 1.327 . S
C296 C284 1.349 . S
C296 H290 0.950 . S
C296 C297 1.327 . S
C297 H291 0.950 . S
C297 C296 1.327 . S
C297 C301 1.429 . S
C298 C281 1.574 . S
C298 H292 0.949 . S
C298 C302 1.368 . S
C299 C280 1.429 . S
C299 C293 1.429 . S
C299 C300 1.523 . S
C300 C281 1.368 . S
C300 C294 1.368 . S
C300 C299 1.523 . S
C301 C285 1.429 . S
C301 C297 1.429 . S
C301 C302 1.523 . S
C302 C286 1.368 . S
C302 C298 1.368 . S
C302 C301 1.523 . S
H303 C278 0.950 . S
H304 C280 0.950 . S
H305 C281 0.949 . S
H306 C283 0.950 . S
H307 C285 0.950 . S
C308 C309 1.349 . S
C308 C310 1.327 . S
C308 H333 0.950 . S
C309 C308 1.349 . S
C309 C325 1.349 . S
C310 C308 1.327 . S
C310 C329 1.429 . S
C310 H334 0.950 . S
C311 C328 1.574 . S
C311 C330 1.368 . S
C311 H335 0.949 . S
H312 C316 0.949 . S
C313 C314 1.349 . S
C313 C315 1.327 . S
C313 H336 0.950 . S
C314 C313 1.349 . S
C314 C326 1.349 . S
C315 C313 1.327 . S
C315 C331 1.429 . S
C315 H337 0.950 . S
C316 H312 0.949 . S
C316 C324 1.574 . S
C316 C332 1.368 . S
H317 C325 0.950 . S
H318 C323 0.950 . S
H319 C324 0.949 . S
H320 C326 0.950 . S
H321 C327 0.950 . S
H322 C328 0.949 . S
C323 H318 0.950 . S
C323 C325 1.327 . S
C323 C329 1.429 . S
C324 C316 1.574 . S
C324 H319 0.949 . S
C324 C330 1.368 . S
C325 C309 1.349 . S
C325 H317 0.950 . S
C325 C323 1.327 . S
C326 C314 1.349 . S
C326 H320 0.950 . S
C326 C327 1.327 . S
C327 H321 0.950 . S
C327 C326 1.327 . S
C327 C331 1.429 . S
C328 C311 1.574 . S
C328 H322 0.949 . S
C328 C332 1.368 . S
C329 C310 1.429 . S
C329 C323 1.429 . S
C329 C330 1.523 . S
C330 C311 1.368 . S
C330 C324 1.368 . S
C330 C329 1.523 . S
C331 C315 1.429 . S
C331 C327 1.429 . S
C331 C332 1.523 . S
C332 C316 1.368 . S
C332 C328 1.368 . S
C332 C331 1.523 . S
H333 C308 0.950 . S
H334 C310 0.950 . S
H335 C311 0.949 . S
H336 C313 0.950 . S
H337 C315 0.950 . S
C338 C339 1.345 1_655 S
C338 C340 1.327 . S
C338 H363 0.950 . S
C339 C338 1.345 1_455 S
C339 C355 1.352 . S
C340 C338 1.327 . S
C340 C359 1.417 1_655 S
C340 H364 0.950 . S
C341 C358 1.574 . S
C341 C360 1.386 . S
C341 H365 0.949 . S
H342 C346 0.949 . S
C343 C344 1.387 . S
C343 C345 1.327 . S
C343 H366 0.950 . S
C344 C343 1.387 . S
C344 C356 1.311 1_455 S
C345 C343 1.327 . S
C345 C361 1.458 . S
C345 H367 0.950 . S
C346 H342 0.949 . S
C346 C354 1.574 . S
C346 C362 1.342 1_655 S
H347 C355 0.950 . S
H348 C353 0.950 . S
H349 C354 0.949 . S
H350 C356 0.950 . S
H351 C357 0.950 . S
H352 C358 0.949 . S
C353 H348 0.950 . S
C353 C355 1.327 . S
C353 C359 1.440 . S
C354 C346 1.574 . S
C354 H349 0.949 . S
C354 C360 1.350 1_655 S
C355 C339 1.352 . S
C355 H347 0.950 . S
C355 C353 1.327 . S
C356 C344 1.311 1_655 S
C356 H350 0.950 . S
C356 C357 1.327 . S
C357 H351 0.950 . S
C357 C356 1.327 . S
C357 C361 1.400 1_655 S
C358 C341 1.574 . S
C358 H352 0.949 . S
C358 C362 1.395 . S
C359 C340 1.417 1_455 S
C359 C353 1.440 . S
C359 C360 1.523 . S
C360 C341 1.386 . S
C360 C354 1.350 1_455 S
C360 C359 1.523 . S
C361 C345 1.458 . S
C361 C357 1.400 1_455 S
C361 C362 1.523 . S
C362 C346 1.342 1_455 S
C362 C358 1.395 . S
C362 C361 1.523 . S
H363 C338 0.950 . S
H364 C340 0.950 . S
H365 C341 0.949 . S
H366 C343 0.950 . S
H367 C345 0.950 . S
C368 C369 1.346 . S
C368 C370 1.327 . S
C368 H393 0.950 . S
C369 C368 1.346 . S
C369 C385 1.351 1_545 S
C370 C368 1.327 . S
C370 C389 1.430 1_545 S
C370 H394 0.950 . S
C371 C388 1.574 1_554 S
C371 C390 1.370 . S
C371 H395 0.949 . S
H372 C376 0.949 . S
C373 C374 1.366 . S
C373 C375 1.327 . S
C373 H396 0.950 . S
C374 C373 1.366 . S
C374 C386 1.332 1_565 S
C375 C373 1.327 . S
C375 C391 1.439 . S
C375 H397 0.950 . S
C376 H372 0.949 . S
C376 C384 1.574 . S
C376 C392 1.360 1_545 S
H377 C385 0.950 . S
H378 C383 0.950 . S
H379 C384 0.949 . S
H380 C386 0.950 . S
H381 C387 0.950 . S
H382 C388 0.949 . S
C383 H378 0.950 . S
C383 C385 1.327 . S
C383 C389 1.427 . S
C384 C376 1.574 . S
C384 H379 0.949 . S
C384 C390 1.366 1_545 S
C385 C369 1.351 1_565 S
C385 H377 0.950 . S
C385 C383 1.327 . S
C386 C374 1.332 1_545 S
C386 H380 0.950 . S
C386 C387 1.327 . S
C387 H381 0.950 . S
C387 C386 1.327 . S
C387 C391 1.418 1_545 S
C388 C371 1.574 1_556 S
C388 H382 0.949 . S
C388 C392 1.376 1_556 S
C389 C370 1.430 1_565 S
C389 C383 1.427 . S
C389 C390 1.523 . S
C390 C371 1.370 . S
C390 C384 1.366 1_565 S
C390 C389 1.523 . S
C391 C375 1.439 . S
C391 C387 1.418 1_565 S
C391 C392 1.523 1_556 S
C392 C376 1.360 1_565 S
C392 C388 1.376 1_554 S
C392 C391 1.523 1_554 S
H393 C368 0.950 . S
H394 C370 0.950 . S
H395 C371 0.949 . S
H396 C373 0.950 . S
H397 C375 0.950 . S
C398 C399 1.349 . S
C398 C400 1.327 . S
C398 H423 0.950 . S
C399 C398 1.349 . S
C399 C415 1.349 . S
C400 C398 1.327 . S
C400 C419 1.429 . S
C400 H424 0.950 . S
C401 C418 1.574 . S
C401 C420 1.368 . S
C401 H425 0.949 . S
H402 C406 0.949 . S
C403 C404 1.349 . S
C403 C405 1.327 . S
C403 H426 0.950 . S
C404 C403 1.349 . S
C404 C416 1.349 . S
C405 C403 1.327 . S
C405 C421 1.429 . S
C405 H427 0.950 . S
C406 H402 0.949 . S
C406 C414 1.574 1_556 S
C406 C422 1.368 1_556 S
H407 C415 0.950 . S
H408 C413 0.950 . S
H409 C414 0.949 . S
H410 C416 0.950 . S
H411 C417 0.950 . S
H412 C418 0.949 . S
C413 H408 0.950 . S
C413 C415 1.327 . S
C413 C419 1.429 . S
C414 C406 1.574 1_554 S
C414 H409 0.949 . S
C414 C420 1.368 . S
C415 C399 1.349 . S
C415 H407 0.950 . S
C415 C413 1.327 . S
C416 C404 1.349 . S
C416 H410 0.950 . S
C416 C417 1.327 . S
C417 H411 0.950 . S
C417 C416 1.327 . S
C417 C421 1.429 . S
C418 C401 1.574 . S
C418 H412 0.949 . S
C418 C422 1.368 . S
C419 C400 1.429 . S
C419 C413 1.429 . S
C419 C420 1.523 . S
C420 C401 1.368 . S
C420 C414 1.368 . S
C420 C419 1.523 . S
C421 C405 1.429 . S
C421 C417 1.429 . S
C421 C422 1.523 1_556 S
C422 C406 1.368 1_554 S
C422 C418 1.368 . S
C422 C421 1.523 1_554 S
H423 C398 0.950 . S
H424 C400 0.950 . S
H425 C401 0.949 . S
H426 C403 0.950 . S
H427 C405 0.950 . S
C428 C429 1.349 . S
C428 C430 1.327 . S
C428 H453 0.950 . S
C429 C428 1.349 . S
C429 C445 1.349 . S
C430 C428 1.327 . S
C430 C449 1.429 . S
C430 H454 0.950 . S
C431 C448 1.574 1_554 S
C431 C450 1.368 . S
C431 H455 0.949 . S
H432 C436 0.949 . S
C433 C434 1.349 . S
C433 C435 1.327 . S
C433 H456 0.950 . S
C434 C433 1.349 . S
C434 C446 1.349 . S
C435 C433 1.327 . S
C435 C451 1.429 . S
C435 H457 0.950 . S
C436 H432 0.949 . S
C436 C444 1.574 . S
C436 C452 1.368 . S
H437 C445 0.950 . S
H438 C443 0.950 . S
H439 C444 0.949 . S
H440 C446 0.950 . S
H441 C447 0.950 . S
H442 C448 0.949 . S
C443 H438 0.950 . S
C443 C445 1.327 . S
C443 C449 1.429 . S
C444 C436 1.574 . S
C444 H439 0.949 . S
C444 C450 1.368 . S
C445 C429 1.349 . S
C445 H437 0.950 . S
C445 C443 1.327 . S
C446 C434 1.349 . S
C446 H440 0.950 . S
C446 C447 1.327 . S
C447 H441 0.950 . S
C447 C446 1.327 . S
C447 C451 1.429 . S
C448 C431 1.574 1_556 S
C448 H442 0.949 . S
C448 C452 1.368 1_556 S
C449 C430 1.429 . S
C449 C443 1.429 . S
C449 C450 1.523 . S
C450 C431 1.368 . S
C450 C444 1.368 . S
C450 C449 1.523 . S
C451 C435 1.429 . S
C451 C447 1.429 . S
C451 C452 1.523 1_556 S
C452 C436 1.368 . S
C452 C448 1.368 1_554 S
C452 C451 1.523 1_554 S
H453 C428 0.950 . S
H454 C430 0.950 . S
H455 C431 0.949 . S
H456 C433 0.950 . S
H457 C435 0.950 . S
C458 C459 1.351 . S
C458 C460 1.327 . S
C458 H483 0.950 . S
C459 C458 1.351 . S
C459 C475 1.346 1_655 S
C460 C458 1.327 . S
C460 C479 1.437 . S
C460 H484 0.950 . S
C461 C478 1.574 1_554 S
C461 C480 1.356 1_455 S
C461 H485 0.949 . S
H462 C466 0.949 . S
C463 C464 1.322 1_455 S
C463 C465 1.327 . S
C463 H486 0.950 . S
C464 C463 1.322 1_655 S
C464 C476 1.376 . S
C465 C463 1.327 . S
C465 C481 1.408 1_455 S
C465 H487 0.950 . S
C466 H462 0.949 . S
C466 C474 1.574 . S
C466 C482 1.387 . S
H467 C475 0.950 . S
H468 C473 0.950 . S
H469 C474 0.949 . S
H470 C476 0.950 . S
H471 C477 0.950 . S
H472 C478 0.949 . S
C473 H468 0.950 . S
C473 C475 1.327 . S
C473 C479 1.420 1_455 S
C474 C466 1.574 . S
C474 H469 0.949 . S
C474 C480 1.381 . S
C475 C459 1.346 1_455 S
C475 H467 0.950 . S
C475 C473 1.327 . S
C476 C464 1.376 . S
C476 H470 0.950 . S
C476 C477 1.327 . S
C477 H471 0.950 . S
C477 C476 1.327 . S
C477 C481 1.449 . S
C478 C461 1.574 1_556 S
C478 H472 0.949 . S
C478 C482 1.350 1_456 S
C479 C460 1.437 . S
C479 C473 1.420 1_655 S
C479 C480 1.523 . S
C480 C461 1.356 1_655 S
C480 C474 1.381 . S
C480 C479 1.523 . S
C481 C465 1.408 1_655 S
C481 C477 1.449 . S
C481 C482 1.523 1_556 S
C482 C466 1.387 . S
C482 C478 1.350 1_654 S
C482 C481 1.523 1_554 S
H483 C458 0.950 . S
H484 C460 0.950 . S
H485 C461 0.949 . S
H486 C463 0.950 . S
H487 C465 0.950 . S
C488 C489 1.349 1_655 S
C488 C490 1.327 . S
C488 H513 0.950 . S
C489 C488 1.349 1_455 S
C489 C505 1.349 . S
C490 C488 1.327 . S
C490 C509 1.429 . S
C490 H514 0.950 . S
C491 C508 1.574 . S
C491 C510 1.368 . S
C491 H515 0.949 1_655 S
H492 C496 0.949 . S
C493 C494 1.349 . S
C493 C495 1.327 . S
C493 H516 0.950 . S
C494 C493 1.349 . S
C494 C506 1.349 . S
C495 C493 1.327 . S
C495 C511 1.429 . S
C495 H517 0.950 . S
C496 H492 0.949 . S
C496 C504 1.574 . S
C496 C512 1.368 . S
H497 C505 0.950 . S
H498 C503 0.950 . S
H499 C504 0.949 . S
H500 C506 0.950 . S
H501 C507 0.950 . S
H502 C508 0.949 . S
C503 H498 0.950 . S
C503 C505 1.327 . S
C503 C509 1.429 1_455 S
C504 C496 1.574 . S
C504 H499 0.949 . S
C504 C510 1.368 . S
C505 C489 1.349 . S
C505 H497 0.950 . S
C505 C503 1.327 . S
C506 C494 1.349 . S
C506 H500 0.950 . S
C506 C507 1.327 . S
C507 H501 0.950 . S
C507 C506 1.327 . S
C507 C511 1.429 . S
C508 C491 1.574 . S
C508 H502 0.949 . S
C508 C512 1.368 . S
C509 C490 1.429 . S
C509 C503 1.429 1_655 S
C509 C510 1.523 . S
C510 C491 1.368 . S
C510 C504 1.368 . S
C510 C509 1.523 . S
C511 C495 1.429 . S
C511 C507 1.429 . S
C511 C512 1.523 . S
C512 C496 1.368 . S
C512 C508 1.368 . S
C512 C511 1.523 . S
H513 C488 0.950 . S
H514 C490 0.950 . S
H515 C491 0.949 1_455 S
H516 C493 0.950 . S
H517 C495 0.950 . S
C518 C519 1.296 1_565 S
C518 C520 1.327 . S
C518 H543 0.950 . S
C519 C518 1.296 1_545 S
C519 C535 1.395 . S
C520 C518 1.327 . S
C520 C539 1.429 . S
C520 H544 0.950 . S
C521 C538 1.574 . S
C521 C540 1.368 1_545 S
C521 H545 0.949 . S
H522 C526 0.949 . S
C523 C524 1.349 . S
C523 C525 1.327 . S
C523 H546 0.950 1_565 S
C524 C523 1.349 . S
C524 C536 1.349 . S
C525 C523 1.327 . S
C525 C541 1.429 . S
C525 H547 0.950 1_565 S
C526 H522 0.949 . S
C526 C534 1.574 . S
C526 C542 1.368 . S
H527 C535 0.950 . S
H528 C533 0.950 . S
H529 C534 0.949 . S
H530 C536 0.950 . S
H531 C537 0.950 . S
H532 C538 0.949 . S
C533 H528 0.950 . S
C533 C535 1.327 . S
C533 C539 1.429 1_545 S
C534 C526 1.574 . S
C534 H529 0.949 . S
C534 C540 1.368 . S
C535 C519 1.395 . S
C535 H527 0.950 . S
C535 C533 1.327 . S
C536 C524 1.349 . S
C536 H530 0.950 . S
C536 C537 1.327 . S
C537 H531 0.950 . S
C537 C536 1.327 . S
C537 C541 1.429 . S
C538 C521 1.574 . S
C538 H532 0.949 . S
C538 C542 1.368 1_545 S
C539 C520 1.429 . S
C539 C533 1.429 1_565 S
C539 C540 1.523 . S
C540 C521 1.368 1_565 S
C540 C534 1.368 . S
C540 C539 1.523 . S
C541 C525 1.429 . S
C541 C537 1.429 . S
C541 C542 1.523 . S
C542 C526 1.368 . S
C542 C538 1.368 1_565 S
C542 C541 1.523 . S
H543 C518 0.950 . S
H544 C520 0.950 . S
H545 C521 0.949 . S
H546 C523 0.950 1_545 S
H547 C525 0.950 1_545 S
C548 C549 1.349 . S
C548 C550 1.327 . S
C548 H573 0.950 . S
C549 C548 1.349 . S
C549 C565 1.349 . S
C550 C548 1.327 . S
C550 C569 1.429 . S
C550 H574 0.950 . S
C551 C568 1.574 . S
C551 C570 1.368 . S
C551 H575 0.949 . S
H552 C556 0.949 . S
C553 C554 1.349 . S
C553 C555 1.327 . S
C553 H576 0.950 . S
C554 C553 1.349 . S
C554 C566 1.349 . S
C555 C553 1.327 . S
C555 C571 1.429 . S
C555 H577 0.950 . S
C556 H552 0.949 . S
C556 C564 1.574 . S
C556 C572 1.368 . S
H557 C565 0.950 . S
H558 C563 0.950 . S
H559 C564 0.949 . S
H560 C566 0.950 . S
H561 C567 0.950 . S
H562 C568 0.949 . S
C563 H558 0.950 . S
C563 C565 1.327 . S
C563 C569 1.429 . S
C564 C556 1.574 . S
C564 H559 0.949 . S
C564 C570 1.368 . S
C565 C549 1.349 . S
C565 H557 0.950 . S
C565 C563 1.327 . S
C566 C554 1.349 . S
C566 H560 0.950 . S
C566 C567 1.327 . S
C567 H561 0.950 . S
C567 C566 1.327 . S
C567 C571 1.429 . S
C568 C551 1.574 . S
C568 H562 0.949 . S
C568 C572 1.368 . S
C569 C550 1.429 . S
C569 C563 1.429 . S
C569 C570 1.523 . S
C570 C551 1.368 . S
C570 C564 1.368 . S
C570 C569 1.523 . S
C571 C555 1.429 . S
C571 C567 1.429 . S
C571 C572 1.523 . S
C572 C556 1.368 . S
C572 C568 1.368 . S
C572 C571 1.523 . S
H573 C548 0.950 . S
H574 C550 0.950 . S
H575 C551 0.949 . S
H576 C553 0.950 . S
H577 C555 0.950 . S
C578 C579 1.349 . S
C578 C580 1.327 . S
C578 H603 0.950 . S
C579 C578 1.349 . S
C579 C595 1.349 . S
C580 C578 1.327 . S
C580 C599 1.429 . S
C580 H604 0.950 . S
C581 C598 1.574 . S
C581 C600 1.368 . S
C581 H605 0.949 . S
H582 C586 0.949 . S
C583 C584 1.349 . S
C583 C585 1.327 . S
C583 H606 0.950 . S
C584 C583 1.349 . S
C584 C596 1.349 . S
C585 C583 1.327 . S
C585 C601 1.429 . S
C585 H607 0.950 . S
C586 H582 0.949 . S
C586 C594 1.574 . S
C586 C602 1.368 . S
H587 C595 0.950 . S
H588 C593 0.950 . S
H589 C594 0.949 . S
H590 C596 0.950 . S
H591 C597 0.950 . S
H592 C598 0.949 . S
C593 H588 0.950 . S
C593 C595 1.327 . S
C593 C599 1.429 . S
C594 C586 1.574 . S
C594 H589 0.949 . S
C594 C600 1.368 . S
C595 C579 1.349 . S
C595 H587 0.950 . S
C595 C593 1.327 . S
C596 C584 1.349 . S
C596 H590 0.950 . S
C596 C597 1.327 . S
C597 H591 0.950 . S
C597 C596 1.327 . S
C597 C601 1.429 . S
C598 C581 1.574 . S
C598 H592 0.949 . S
C598 C602 1.368 . S
C599 C580 1.429 . S
C599 C593 1.429 . S
C599 C600 1.523 . S
C600 C581 1.368 . S
C600 C594 1.368 . S
C600 C599 1.523 . S
C601 C585 1.429 . S
C601 C597 1.429 . S
C601 C602 1.523 . S
C602 C586 1.368 . S
C602 C598 1.368 . S
C602 C601 1.523 . S
H603 C578 0.950 . S
H604 C580 0.950 . S
H605 C581 0.949 . S
H606 C583 0.950 . S
H607 C585 0.950 . S
C608 C609 1.349 . S
C608 C610 1.327 . S
C608 H633 0.950 . S
C609 C608 1.349 . S
C609 C625 1.349 1_655 S
C610 C608 1.327 . S
C610 C629 1.429 1_655 S
C610 H634 0.950 . S
C611 C628 1.574 . S
C611 C630 1.368 . S
C611 H635 0.949 . S
H612 C616 0.947 1_655 S
C613 C614 1.349 1_554 S
C613 C615 1.327 . S
C613 H636 0.950 . S
C614 C613 1.349 1_556 S
C614 C626 1.349 . S
C615 C613 1.327 . S
C615 C631 1.429 . S
C615 H637 0.950 . S
C616 H612 0.947 1_455 S
C616 C624 1.579 . S
C616 C632 1.368 . S
H617 C625 0.950 . S
H618 C623 0.950 . S
H619 C624 0.934 1_655 S
H620 C626 0.950 . S
H621 C627 0.950 . S
H622 C628 0.949 . S
C623 H618 0.950 . S
C623 C625 1.327 . S
C623 C629 1.429 . S
C624 C616 1.579 . S
C624 H619 0.934 1_455 S
C624 C630 1.381 . S
C625 C609 1.349 1_455 S
C625 H617 0.950 . S
C625 C623 1.327 . S
C626 C614 1.349 . S
C626 H620 0.950 . S
C626 C627 1.327 . S
C627 H621 0.950 . S
C627 C626 1.327 . S
C627 C631 1.429 1_556 S
C628 C611 1.574 . S
C628 H622 0.949 . S
C628 C632 1.368 . S
C629 C610 1.429 1_455 S
C629 C623 1.429 . S
C629 C630 1.523 . S
C630 C611 1.368 . S
C630 C624 1.381 . S
C630 C629 1.523 . S
C631 C615 1.429 . S
C631 C627 1.429 1_554 S
C631 C632 1.523 . S
C632 C616 1.368 . S
C632 C628 1.368 . S
C632 C631 1.523 . S
H633 C608 0.950 . S
H634 C610 0.950 . S
H635 C611 0.949 . S
H636 C613 0.950 . S
H637 C615 0.950 . S
C638 C639 1.307 1_545 S
C638 C640 1.327 . S
C638 H663 0.950 . S
C639 C638 1.307 1_565 S
C639 C655 1.385 . S
C640 C638 1.327 . S
C640 C659 1.429 . S
C640 H664 0.950 . S
C641 C658 1.574 . S
C641 C660 1.368 1_565 S
C641 H665 0.949 . S
H642 C646 0.949 . S
C643 C644 1.349 1_554 S
C643 C645 1.327 . S
C643 H666 0.950 1_545 S
C644 C643 1.349 1_556 S
C644 C656 1.349 . S
C645 C643 1.327 . S
C645 C661 1.429 . S
C645 H667 0.950 1_545 S
C646 H642 0.949 . S
C646 C654 1.574 . S
C646 C662 1.368 . S
H647 C655 0.950 . S
H648 C653 0.950 . S
H649 C654 0.949 . S
H650 C656 0.950 . S
H651 C657 0.950 . S
H652 C658 0.949 . S
C653 H648 0.950 . S
C653 C655 1.327 . S
C653 C659 1.429 1_565 S
C654 C646 1.574 . S
C654 H649 0.949 . S
C654 C660 1.368 . S
C655 C639 1.385 . S
C655 H647 0.950 . S
C655 C653 1.327 . S
C656 C644 1.349 . S
C656 H650 0.950 . S
C656 C657 1.327 1_556 S
C657 H651 0.950 . S
C657 C656 1.327 1_554 S
C657 C661 1.429 . S
C658 C641 1.574 . S
C658 H652 0.949 . S
C658 C662 1.368 1_565 S
C659 C640 1.429 . S
C659 C653 1.429 1_545 S
C659 C660 1.523 . S
C660 C641 1.368 1_545 S
C660 C654 1.368 . S
C660 C659 1.523 . S
C661 C645 1.429 . S
C661 C657 1.429 . S
C661 C662 1.523 . S
C662 C646 1.368 . S
C662 C658 1.368 1_545 S
C662 C661 1.523 . S
H663 C638 0.950 . S
H664 C640 0.950 . S
H665 C641 0.949 . S
H666 C643 0.950 1_565 S
H667 C645 0.950 1_565 S
C668 C669 1.349 . S
C668 C670 1.327 . S
C668 H693 0.950 . S
C669 C668 1.349 . S
C669 C685 1.349 . S
C670 C668 1.327 . S
C670 C689 1.429 . S
C670 H694 0.950 . S
C671 C688 1.574 . S
C671 C690 1.368 . S
C671 H695 0.949 . S
H672 C676 0.949 . S
C673 C674 1.349 . S
C673 C675 1.327 . S
C673 H696 0.950 . S
C674 C673 1.349 . S
C674 C686 1.349 1_556 S
C675 C673 1.327 . S
C675 C691 1.429 1_556 S
C675 H697 0.950 . S
C676 H672 0.949 . S
C676 C684 1.574 . S
C676 C692 1.368 . S
H677 C685 0.950 . S
H678 C683 0.950 . S
H679 C684 0.949 . S
H680 C686 0.950 . S
H681 C687 0.950 . S
H682 C688 0.949 . S
C683 H678 0.950 . S
C683 C685 1.327 . S
C683 C689 1.429 . S
C684 C676 1.574 . S
C684 H679 0.949 . S
C684 C690 1.368 . S
C685 C669 1.349 . S
C685 H677 0.950 . S
C685 C683 1.327 . S
C686 C674 1.349 1_554 S
C686 H680 0.950 . S
C686 C687 1.327 . S
C687 H681 0.950 . S
C687 C686 1.327 . S
C687 C691 1.429 . S
C688 C671 1.574 . S
C688 H682 0.949 . S
C688 C692 1.368 . S
C689 C670 1.429 . S
C689 C683 1.429 . S
C689 C690 1.523 . S
C690 C671 1.368 . S
C690 C684 1.368 . S
C690 C689 1.523 . S
C691 C675 1.429 1_554 S
C691 C687 1.429 . S
C691 C692 1.523 . S
C692 C676 1.368 . S
C692 C688 1.368 . S
C692 C691 1.523 . S
H693 C668 0.950 . S
H694 C670 0.950 . S
H695 C671 0.949 . S
H696 C673 0.950 . S
H697 C675 0.950 . S
C698 C699 1.349 . S
C698 C700 1.327 . S
C698 H723 0.950 . S
C699 C698 1.349 . S
C699 C715 1.349 . S
C700 C698 1.327 . S
C700 C719 1.429 . S
C700 H724 0.950 . S
C701 C718 1.574 . S
C701 C720 1.368 . S
C701 H725 0.949 . S
H702 C706 0.949 . S
C703 C704 1.349 1_554 S
C703 C705 1.327 . S
C703 H726 0.950 . S
C704 C703 1.349 1_556 S
C704 C716 1.349 . S
C705 C703 1.327 . S
C705 C721 1.429 . S
C705 H727 0.950 . S
C706 H702 0.949 . S
C706 C714 1.574 . S
C706 C722 1.368 . S
H707 C715 0.950 . S
H708 C713 0.950 . S
H709 C714 0.949 . S
H710 C716 0.950 . S
H711 C717 0.950 . S
H712 C718 0.949 . S
C713 H708 0.950 . S
C713 C715 1.327 . S
C713 C719 1.429 . S
C714 C706 1.574 . S
C714 H709 0.949 . S
C714 C720 1.368 . S
C715 C699 1.349 . S
C715 H707 0.950 . S
C715 C713 1.327 . S
C716 C704 1.349 . S
C716 H710 0.950 . S
C716 C717 1.327 . S
C717 H711 0.950 . S
C717 C716 1.327 . S
C717 C721 1.429 1_556 S
C718 C701 1.574 . S
C718 H712 0.949 . S
C718 C722 1.368 . S
C719 C700 1.429 . S
C719 C713 1.429 . S
C719 C720 1.523 . S
C720 C701 1.368 . S
C720 C714 1.368 . S
C720 C719 1.523 . S
C721 C705 1.429 . S
C721 C717 1.429 1_554 S
C721 C722 1.523 . S
C722 C706 1.368 . S
C722 C718 1.368 . S
C722 C721 1.523 . S
H723 C698 0.950 . S
H724 C700 0.950 . S
H725 C701 0.949 . S
H726 C703 0.950 . S
H727 C705 0.950 . S
C728 C729 1.375 . S
C728 C730 1.327 . S
C728 H753 0.950 . S
C729 C728 1.375 . S
C729 C745 1.326 1_455 S
C730 C728 1.327 . S
C730 C749 1.429 . S
C730 H754 0.950 . S
C731 C748 1.574 . S
C731 C750 1.368 1_655 S
C731 H755 0.949 . S
H732 C736 0.949 . S
C733 C734 1.349 1_655 S
C733 C735 1.327 . S
C733 H756 0.950 . S
C734 C733 1.349 1_455 S
C734 C746 1.349 . S
C735 C733 1.327 . S
C735 C751 1.429 1_655 S
C735 H757 0.950 . S
C736 H732 0.949 . S
C736 C744 1.574 . S
C736 C752 1.368 . S
H737 C745 0.950 1_554 S
H738 C743 0.950 . S
H739 C744 0.949 . S
H740 C746 0.950 . S
H741 C747 0.950 . S
H742 C748 0.949 . S
C743 H738 0.950 . S
C743 C745 1.327 . S
C743 C749 1.429 1_655 S
C744 C736 1.574 . S
C744 H739 0.949 . S
C744 C750 1.368 . S
C745 C729 1.326 1_655 S
C745 H737 0.950 1_556 S
C745 C743 1.327 . S
C746 C734 1.349 . S
C746 H740 0.950 . S
C746 C747 1.327 . S
C747 H741 0.950 . S
C747 C746 1.327 . S
C747 C751 1.429 . S
C748 C731 1.574 . S
C748 H742 0.949 . S
C748 C752 1.368 1_655 S
C749 C730 1.429 . S
C749 C743 1.429 1_455 S
C749 C750 1.523 . S
C750 C731 1.368 1_455 S
C750 C744 1.368 . S
C750 C749 1.523 . S
C751 C735 1.429 1_455 S
C751 C747 1.429 . S
C751 C752 1.523 . S
C752 C736 1.368 . S
C752 C748 1.368 1_455 S
C752 C751 1.523 . S
H753 C728 0.950 . S
H754 C730 0.950 . S
H755 C731 0.949 . S
H756 C733 0.950 . S
H757 C735 0.950 . S
C758 C759 1.386 . S
C758 C760 1.327 . S
C758 H783 0.950 . S
C759 C758 1.386 . S
C759 C775 1.315 1_545 S
C760 C758 1.327 . S
C760 C779 1.429 . S
C760 H784 0.950 . S
C761 C778 1.574 . S
C761 C780 1.368 1_565 S
C761 H785 0.949 . S
H762 C766 0.949 . S
C763 C764 1.349 1_565 S
C763 C765 1.327 . S
C763 H786 0.950 . S
C764 C763 1.349 1_545 S
C764 C776 1.349 . S
C765 C763 1.327 . S
C765 C781 1.429 1_565 S
C765 H787 0.950 . S
C766 H762 0.949 . S
C766 C774 1.574 . S
C766 C782 1.368 . S
H767 C775 0.950 . S
H768 C773 0.950 . S
H769 C774 0.949 . S
H770 C776 0.950 . S
H771 C777 0.950 . S
H772 C778 0.949 . S
C773 H768 0.950 . S
C773 C775 1.327 . S
C773 C779 1.429 1_565 S
C774 C766 1.574 . S
C774 H769 0.949 . S
C774 C780 1.368 . S
C775 C759 1.315 1_565 S
C775 H767 0.950 . S
C775 C773 1.327 . S
C776 C764 1.349 . S
C776 H770 0.950 . S
C776 C777 1.327 . S
C777 H771 0.950 . S
C777 C776 1.327 . S
C777 C781 1.429 . S
C778 C761 1.574 . S
C778 H772 0.949 . S
C778 C782 1.368 1_565 S
C779 C760 1.429 . S
C779 C773 1.429 1_545 S
C779 C780 1.523 . S
C780 C761 1.368 1_545 S
C780 C774 1.368 . S
C780 C779 1.523 . S
C781 C765 1.429 1_545 S
C781 C777 1.429 . S
C781 C782 1.523 . S
C782 C766 1.368 . S
C782 C778 1.368 1_545 S
C782 C781 1.523 . S
H783 C758 0.950 . S
H784 C760 0.950 . S
H785 C761 0.949 . S
H786 C763 0.950 . S
H787 C765 0.950 . S
C788 C789 1.349 . S
C788 C790 1.327 . S
C788 H813 0.950 . S
C789 C788 1.349 . S
C789 C805 1.349 . S
C790 C788 1.327 . S
C790 C809 1.429 . S
C790 H814 0.950 . S
C791 C808 1.574 . S
C791 C810 1.368 . S
C791 H815 0.949 . S
H792 C796 0.949 . S
C793 C794 1.349 . S
C793 C795 1.327 . S
C793 H816 0.950 . S
C794 C793 1.349 . S
C794 C806 1.349 . S
C795 C793 1.327 . S
C795 C811 1.429 . S
C795 H817 0.950 . S
C796 H792 0.949 . S
C796 C804 1.574 . S
C796 C812 1.368 . S
H797 C805 0.950 . S
H798 C803 0.950 . S
H799 C804 0.949 . S
H800 C806 0.950 . S
H801 C807 0.950 . S
H802 C808 0.949 . S
C803 H798 0.950 . S
C803 C805 1.327 . S
C803 C809 1.429 . S
C804 C796 1.574 . S
C804 H799 0.949 . S
C804 C810 1.368 . S
C805 C789 1.349 . S
C805 H797 0.950 . S
C805 C803 1.327 . S
C806 C794 1.349 . S
C806 H800 0.950 . S
C806 C807 1.327 . S
C807 H801 0.950 . S
C807 C806 1.327 . S
C807 C811 1.429 . S
C808 C791 1.574 . S
C808 H802 0.949 . S
C808 C812 1.368 . S
C809 C790 1.429 . S
C809 C803 1.429 . S
C809 C810 1.523 . S
C810 C791 1.368 . S
C810 C804 1.368 . S
C810 C809 1.523 . S
C811 C795 1.429 . S
C811 C807 1.429 . S
C811 C812 1.523 . S
C812 C796 1.368 . S
C812 C808 1.368 . S
C812 C811 1.523 . S
H813 C788 0.950 . S
H814 C790 0.950 . S
H815 C791 0.949 . S
H816 C793 0.950 . S
H817 C795 0.950 . S
C818 C819 1.349 . S
C818 C820 1.327 . S
C818 H843 0.950 . S
C819 C818 1.349 . S
C819 C835 1.349 . S
C820 C818 1.327 . S
C820 C839 1.429 . S
C820 H844 0.950 . S
C821 C838 1.574 . S
C821 C840 1.368 . S
C821 H845 0.949 . S
H822 C826 0.949 . S
C823 C824 1.349 . S
C823 C825 1.327 . S
C823 H846 0.950 . S
C824 C823 1.349 . S
C824 C836 1.349 . S
C825 C823 1.327 . S
C825 C841 1.429 . S
C825 H847 0.950 . S
C826 H822 0.949 . S
C826 C834 1.574 . S
C826 C842 1.368 . S
H827 C835 0.950 . S
H828 C833 0.950 . S
H829 C834 0.949 . S
H830 C836 0.950 . S
H831 C837 0.950 . S
H832 C838 0.949 . S
C833 H828 0.950 . S
C833 C835 1.327 . S
C833 C839 1.429 . S
C834 C826 1.574 . S
C834 H829 0.949 . S
C834 C840 1.368 . S
C835 C819 1.349 . S
C835 H827 0.950 . S
C835 C833 1.327 . S
C836 C824 1.349 . S
C836 H830 0.950 . S
C836 C837 1.327 . S
C837 H831 0.950 . S
C837 C836 1.327 . S
C837 C841 1.429 . S
C838 C821 1.574 . S
C838 H832 0.949 . S
C838 C842 1.368 . S
C839 C820 1.429 . S
C839 C833 1.429 . S
C839 C840 1.523 . S
C840 C821 1.368 . S
C840 C834 1.368 . S
C840 C839 1.523 . S
C841 C825 1.429 . S
C841 C837 1.429 . S
C841 C842 1.523 . S
C842 C826 1.368 . S
C842 C838 1.368 . S
C842 C841 1.523 . S
H843 C818 0.950 . S
H844 C820 0.950 . S
H845 C821 0.949 . S
H846 C823 0.950 . S
H847 C825 0.950 . S
C848 C849 1.325 1_455 S
C848 C850 1.327 . S
C848 H873 0.950 . S
C849 C848 1.325 1_655 S
C849 C865 1.376 . S
C850 C848 1.327 . S
C850 C869 1.429 1_455 S
C850 H874 0.950 . S
C851 C868 1.574 . S
C851 C870 1.368 . S
C851 H875 0.949 . S
H852 C856 0.949 . S
C853 C854 1.349 . S
C853 C855 1.327 . S
C853 H876 0.950 . S
C854 C853 1.349 . S
C854 C866 1.349 1_655 S
C855 C853 1.327 . S
C855 C871 1.429 . S
C855 H877 0.950 . S
C856 H852 0.949 . S
C856 C864 1.574 . S
C856 C872 1.368 1_455 S
H857 C865 0.950 . S
H858 C863 0.950 . S
H859 C864 0.949 . S
H860 C866 0.950 . S
H861 C867 0.950 . S
H862 C868 0.949 . S
C863 H858 0.950 . S
C863 C865 1.327 . S
C863 C869 1.429 . S
C864 C856 1.574 . S
C864 H859 0.949 . S
C864 C870 1.368 1_455 S
C865 C849 1.376 . S
C865 H857 0.950 . S
C865 C863 1.327 . S
C866 C854 1.349 1_455 S
C866 H860 0.950 . S
C866 C867 1.327 . S
C867 H861 0.950 . S
C867 C866 1.327 . S
C867 C871 1.429 1_455 S
C868 C851 1.574 . S
C868 H862 0.949 . S
C868 C872 1.368 . S
C869 C850 1.429 1_655 S
C869 C863 1.429 . S
C869 C870 1.523 . S
C870 C851 1.368 . S
C870 C864 1.368 1_655 S
C870 C869 1.523 . S
C871 C855 1.429 . S
C871 C867 1.429 1_655 S
C871 C872 1.523 . S
C872 C856 1.368 1_655 S
C872 C868 1.368 . S
C872 C871 1.523 . S
H873 C848 0.950 . S
H874 C850 0.950 . S
H875 C851 0.949 . S
H876 C853 0.950 . S
H877 C855 0.950 . S
C878 C879 1.375 . S
C878 C880 1.327 . S
C878 H903 0.950 . S
C879 C878 1.375 . S
C879 C895 1.325 1_565 S
C880 C878 1.327 . S
C880 C899 1.429 . S
C880 H904 0.950 . S
C881 C898 1.574 . S
C881 C900 1.368 1_545 S
C881 H905 0.949 . S
H882 C886 0.949 . S
C883 C884 1.349 1_545 S
C883 C885 1.327 . S
C883 H906 0.950 . S
C884 C883 1.349 1_565 S
C884 C896 1.349 . S
C885 C883 1.327 . S
C885 C901 1.429 1_545 S
C885 H907 0.950 . S
C886 H882 0.949 . S
C886 C894 1.574 . S
C886 C902 1.368 . S
H887 C895 0.950 . S
H888 C893 0.950 . S
H889 C894 0.949 . S
H890 C896 0.950 . S
H891 C897 0.950 . S
H892 C898 0.949 . S
C893 H888 0.950 . S
C893 C895 1.327 . S
C893 C899 1.429 1_545 S
C894 C886 1.574 . S
C894 H889 0.949 . S
C894 C900 1.368 . S
C895 C879 1.325 1_545 S
C895 H887 0.950 . S
C895 C893 1.327 . S
C896 C884 1.349 . S
C896 H890 0.950 . S
C896 C897 1.327 . S
C897 H891 0.950 . S
C897 C896 1.327 . S
C897 C901 1.429 . S
C898 C881 1.574 . S
C898 H892 0.949 . S
C898 C902 1.368 1_545 S
C899 C880 1.429 . S
C899 C893 1.429 1_565 S
C899 C900 1.523 . S
C900 C881 1.368 1_565 S
C900 C894 1.368 . S
C900 C899 1.523 . S
C901 C885 1.429 1_565 S
C901 C897 1.429 . S
C901 C902 1.523 . S
C902 C886 1.368 . S
C902 C898 1.368 1_565 S
C902 C901 1.523 . S
H903 C878 0.950 . S
H904 C880 0.950 . S
H905 C881 0.949 . S
H906 C883 0.950 . S
H907 C885 0.950 . S
C908 C909 1.349 . S
C908 C910 1.327 . S
C908 H933 0.950 . S
C909 C908 1.349 . S
C909 C925 1.349 . S
C910 C908 1.327 . S
C910 C929 1.429 . S
C910 H934 0.950 . S
C911 C928 1.574 . S
C911 C930 1.368 . S
C911 H935 0.949 . S
H912 C916 0.949 . S
C913 C914 1.349 . S
C913 C915 1.327 . S
C913 H936 0.950 . S
C914 C913 1.349 . S
C914 C926 1.349 . S
C915 C913 1.327 . S
C915 C931 1.429 . S
C915 H937 0.950 . S
C916 H912 0.949 . S
C916 C924 1.574 . S
C916 C932 1.368 . S
H917 C925 0.950 . S
H918 C923 0.950 . S
H919 C924 0.949 . S
H920 C926 0.950 . S
H921 C927 0.950 . S
H922 C928 0.949 . S
C923 H918 0.950 . S
C923 C925 1.327 . S
C923 C929 1.429 . S
C924 C916 1.574 . S
C924 H919 0.949 . S
C924 C930 1.368 . S
C925 C909 1.349 . S
C925 H917 0.950 . S
C925 C923 1.327 . S
C926 C914 1.349 . S
C926 H920 0.950 . S
C926 C927 1.327 . S
C927 H921 0.950 . S
C927 C926 1.327 . S
C927 C931 1.429 . S
C928 C911 1.574 . S
C928 H922 0.949 . S
C928 C932 1.368 . S
C929 C910 1.429 . S
C929 C923 1.429 . S
C929 C930 1.523 . S
C930 C911 1.368 . S
C930 C924 1.368 . S
C930 C929 1.523 . S
C931 C915 1.429 . S
C931 C927 1.429 . S
C931 C932 1.523 . S
C932 C916 1.368 . S
C932 C928 1.368 . S
C932 C931 1.523 . S
H933 C908 0.950 . S
H934 C910 0.950 . S
H935 C911 0.949 . S
H936 C913 0.950 . S
H937 C915 0.950 . S
C938 C939 1.349 . S
C938 C940 1.327 . S
C938 H963 0.950 . S
C939 C938 1.349 . S
C939 C955 1.349 . S
C940 C938 1.327 . S
C940 C959 1.429 . S
C940 H964 0.950 . S
C941 C958 1.574 . S
C941 C960 1.368 . S
C941 H965 0.949 . S
H942 C946 0.949 . S
C943 C944 1.349 . S
C943 C945 1.327 . S
C943 H966 0.950 . S
C944 C943 1.349 . S
C944 C956 1.349 . S
C945 C943 1.327 . S
C945 C961 1.429 . S
C945 H967 0.950 . S
C946 H942 0.949 . S
C946 C954 1.574 . S
C946 C962 1.368 . S
H947 C955 0.950 . S
H948 C953 0.950 . S
H949 C954 0.949 . S
H950 C956 0.950 . S
H951 C957 0.950 . S
H952 C958 0.949 . S
C953 H948 0.950 . S
C953 C955 1.327 . S
C953 C959 1.429 . S
C954 C946 1.574 . S
C954 H949 0.949 . S
C954 C960 1.368 . S
C955 C939 1.349 . S
C955 H947 0.950 . S
C955 C953 1.327 . S
C956 C944 1.349 . S
C956 H950 0.950 . S
C956 C957 1.327 . S
C957 H951 0.950 . S
C957 C956 1.327 . S
C957 C961 1.429 . S
C958 C941 1.574 . S
C958 H952 0.949 . S
C958 C962 1.368 . S
C959 C940 1.429 . S
C959 C953 1.429 . S
C959 C960 1.523 . S
C960 C941 1.368 . S
C960 C954 1.368 . S
C960 C959 1.523 . S
C961 C945 1.429 . S
C961 C957 1.429 . S
C961 C962 1.523 . S
C962 C946 1.368 . S
C962 C958 1.368 . S
C962 C961 1.523 . S
H963 C938 0.950 . S
H964 C940 0.950 . S
H965 C941 0.949 . S
H966 C943 0.950 . S
H967 C945 0.950 . S
C249 C76 1.756 1_545 S
C254 C90 1.842 1_545 S
C284 C130 1.850 . S
C279 C87 1.753 . S
C314 C170 1.852 . S
C309 C54 1.760 . S
C344 C210 1.847 1_455 S
C339 C65 1.757 1_455 S
C374 C103 1.846 1_565 S
C369 C32 1.761 1_545 S
C399 C43 1.758 . S
C404 C143 1.855 . S
C429 C10 1.759 . S
C434 C183 1.851 . S
C459 C21 1.757 . S
C464 C223 1.848 1_655 S
C494 C114 0.312 . S
C489 C60 0.386 . S
C524 C154 0.316 . S
C519 C71 0.385 . S
C554 C194 0.318 . S
C549 C82 0.388 . S
C579 C49 0.386 . S
C584 C234 0.309 . S
C609 C16 0.390 1_655 S
C614 C97 0.315 . S
C644 C137 0.315 . S
C639 C27 0.385 1_565 S
C674 C177 0.319 . S
C669 C38 0.396 . S
C699 C5 0.393 . S
C704 C217 0.321 . S
C729 C59 1.887 . S
C734 C91 2.088 . S
C759 C70 1.880 . S
C764 C131 2.088 . S
C794 C171 2.084 . S
C789 C81 1.876 . S
C824 C211 2.091 . S
C819 C48 1.877 . S
C849 C15 1.887 1_655 S
C854 C110 2.102 . S
C884 C150 2.088 . S
C879 C26 1.880 1_565 S
C914 C190 2.084 . S
C909 C37 1.879 . S
C939 C4 1.885 . S
C944 C230 2.098 . S
