# Generated by pormake.
# Topology cml, (3,6)-cn, num edge types: 1
# Building blocks:
#     Node 0, Type 0, BuildingBlock: MIDCAF_clean_linker_0, # of connection points: 3
#     Node 1, Type 0, BuildingBlock: MIDCAF_clean_linker_0, # of connection points: 3
#     Node 2, Type 0, BuildingBlock: MIDCAF_clean_linker_0, # of connection points: 3
#     Node 3, Type 0, BuildingBlock: MIDCAF_clean_linker_0, # of connection points: 3
#     Node 4, Type 0, BuildingBlock: MIDCAF_clean_linker_0, # of connection points: 3
#     Node 5, Type 0, BuildingBlock: MIDCAF_clean_linker_0, # of connection points: 3
#     Node 6, Type 0, BuildingBlock: MIDCAF_clean_linker_0, # of connection points: 3
#     Node 7, Type 0, BuildingBlock: MIDCAF_clean_linker_0, # of connection points: 3
#     Node 8, Type 1, BuildingBlock: OJICUG_clean_sbu_0, # of connection points: 6
#     Node 9, Type 1, BuildingBlock: OJICUG_clean_sbu_0, # of connection points: 6
#     Node 10, Type 1, BuildingBlock: OJICUG_clean_sbu_0, # of connection points: 6
#     Node 11, Type 1, BuildingBlock: OJICUG_clean_sbu_0, # of connection points: 6
#     Edge 12, Type (0, 1), BuildingBlock: TEMPAE_clean_linker_10, # of connection points: 2
#     Edge 13, Type (0, 1), BuildingBlock: TEMPAE_clean_linker_10, # of connection points: 2
#     Edge 14, Type (0, 1), BuildingBlock: TEMPAE_clean_linker_10, # of connection points: 2
#     Edge 15, Type (0, 1), BuildingBlock: TEMPAE_clean_linker_10, # of connection points: 2
#     Edge 16, Type (0, 1), BuildingBlock: TEMPAE_clean_linker_10, # of connection points: 2
#     Edge 17, Type (0, 1), BuildingBlock: TEMPAE_clean_linker_10, # of connection points: 2
#     Edge 18, Type (0, 1), BuildingBlock: TEMPAE_clean_linker_10, # of connection points: 2
#     Edge 19, Type (0, 1), BuildingBlock: TEMPAE_clean_linker_10, # of connection points: 2
#     Edge 20, Type (0, 1), BuildingBlock: TEMPAE_clean_linker_10, # of connection points: 2
#     Edge 21, Type (0, 1), BuildingBlock: TEMPAE_clean_linker_10, # of connection points: 2
#     Edge 22, Type (0, 1), BuildingBlock: TEMPAE_clean_linker_10, # of connection points: 2
#     Edge 23, Type (0, 1), BuildingBlock: TEMPAE_clean_linker_10, # of connection points: 2
#     Edge 24, Type (0, 1), BuildingBlock: TEMPAE_clean_linker_10, # of connection points: 2
#     Edge 25, Type (0, 1), BuildingBlock: TEMPAE_clean_linker_10, # of connection points: 2
#     Edge 26, Type (0, 1), BuildingBlock: TEMPAE_clean_linker_10, # of connection points: 2
#     Edge 27, Type (0, 1), BuildingBlock: TEMPAE_clean_linker_10, # of connection points: 2
#     Edge 28, Type (0, 1), BuildingBlock: TEMPAE_clean_linker_10, # of connection points: 2
#     Edge 29, Type (0, 1), BuildingBlock: TEMPAE_clean_linker_10, # of connection points: 2
#     Edge 30, Type (0, 1), BuildingBlock: TEMPAE_clean_linker_10, # of connection points: 2
#     Edge 31, Type (0, 1), BuildingBlock: TEMPAE_clean_linker_10, # of connection points: 2
#     Edge 32, Type (0, 1), BuildingBlock: TEMPAE_clean_linker_10, # of connection points: 2
#     Edge 33, Type (0, 1), BuildingBlock: TEMPAE_clean_linker_10, # of connection points: 2
#     Edge 34, Type (0, 1), BuildingBlock: TEMPAE_clean_linker_10, # of connection points: 2
#     Edge 35, Type (0, 1), BuildingBlock: TEMPAE_clean_linker_10, # of connection points: 2
# Relax obj value: 0.074
# Max RMSD: 0.086
# Mean RMSD: 0.082
data_MOF--net-cml--node1-OJICUG_clean_sbu_0--node2-MIDCAF_clean_linker_0--edge1-TEMPAE_clean_linker_10
_symmetry_space_group_name_H-M    P1
_symmetry_Int_Tables_number       1
_symmetry_cell_setting            triclinic
loop_
_symmetry_equiv_pos_as_xyz
'x, y, z'
_cell_length_a     47.568791
_cell_length_b     47.981071
_cell_length_c     45.420844
_cell_angle_alpha  89.997677
_cell_angle_beta   90.017438
_cell_angle_gamma 89.989735
loop_
_atom_site_label
_atom_site_type_symbol
_atom_site_fract_x
_atom_site_fract_y
_atom_site_fract_z
_atom_type_partial_charge
C0 C 0.30876 0.40004 0.11029 0.0
C1 C 0.30654 0.37149 0.11654 0.0
C2 C 0.2864 0.35548 0.10153 0.0
C3 C 0.27007 0.36752 0.07922 0.0
H4 H 0.1965 0.36085 0.02249 0.0
H5 H 0.16372 0.3334 0.99285 0.0
H6 H 0.18537 0.38187 0.91609 0.0
H7 H 0.21798 0.40944 0.94548 0.0
H8 H 0.25475 0.46267 0.95202 0.0
H9 H 0.28255 0.49934 0.92893 0.0
H10 H 0.3235 0.51579 0.012 0.0
H11 H 0.29617 0.47898 0.03507 0.0
H12 H 0.29549 0.43397 0.08343 0.0
H13 H 0.32371 0.41298 0.12202 0.0
H14 H 0.28426 0.33341 0.10605 0.0
H15 H 0.25566 0.3544 0.06703 0.0
N16 N 0.24035 0.39342 0.02984 0.0
N17 N 0.24062 0.42791 0.99312 0.0
N18 N 0.26994 0.43222 0.03416 0.0
C19 C 0.23034 0.40353 0.00387 0.0
C20 C 0.26031 0.44248 0.00827 0.0
C21 C 0.26016 0.40779 0.04516 0.0
C22 C 0.20985 0.38733 0.98637 0.0
C23 C 0.19422 0.36571 -0.00068 0.0
C24 C 0.17539 0.35009 0.98243 0.0
C25 C 0.17215 0.35555 0.95225 0.0
C26 C 0.18768 0.37715 0.9393 0.0
C27 C 0.2062 0.39301 0.95622 0.0
C28 C 0.27358 0.46753 0.9953 0.0
C29 C 0.26933 0.47439 0.96551 0.0
C30 C 0.28519 0.49547 0.95227 0.0
C31 C 0.30549 0.51008 0.96858 0.0
C32 C 0.30841 0.50443 0.99876 0.0
C33 C 0.29266 0.48338 0.01197 0.0
C34 C 0.27362 0.39578 0.07171 0.0
C35 C 0.29249 0.41205 0.08821 0.0
C36 C 0.66612 0.59697 0.60614 0.0
C37 C 0.6729 0.62339 0.61734 0.0
C38 C 0.69556 0.6381 0.60501 0.0
C39 C 0.7103 0.62709 0.58096 0.0
H40 H 0.78413 0.63352 0.52598 0.0
H41 H 0.82046 0.66021 0.50039 0.0
H42 H 0.79861 0.61961 0.41875 0.0
H43 H 0.76247 0.59275 0.44414 0.0
H44 H 0.72637 0.5373 0.44721 0.0
H45 H 0.70096 0.50047 0.42143 0.0
H46 H 0.6495 0.487 0.49842 0.0
H47 H 0.67442 0.52389 0.52411 0.0
H48 H 0.6745 0.56574 0.57402 0.0
H49 H 0.64915 0.5849 0.61563 0.0
H50 H 0.70124 0.65851 0.6133 0.0
H51 H 0.72708 0.63929 0.57131 0.0
N52 N 0.73736 0.60432 0.52841 0.0
N53 N 0.73677 0.57221 0.48935 0.0
N54 N 0.70527 0.56728 0.52851 0.0
C55 C 0.74792 0.59526 0.50225 0.0
C56 C 0.71553 0.558 0.50245 0.0
C57 C 0.71596 0.59035 0.54168 0.0
C58 C 0.7704 0.61102 0.48712 0.0
C59 C 0.78711 0.63023 0.5026 0.0
C60 C 0.80798 0.64539 0.48802 0.0
C61 C 0.81222 0.64192 0.45764 0.0
C62 C 0.79559 0.62275 0.44216 0.0
C63 C 0.77503 0.60729 0.45678 0.0
C64 C 0.70224 0.53385 0.48764 0.0
C65 C 0.70982 0.52633 0.45877 0.0
C66 C 0.69536 0.50515 0.444 0.0
C67 C 0.67305 0.49111 0.45781 0.0
C68 C 0.66626 0.49784 0.48704 0.0
C69 C 0.68066 0.51895 0.50179 0.0
C70 C 0.70268 0.6011 0.56897 0.0
C71 C 0.68081 0.58596 0.58231 0.0
C72 C 0.69693 0.39924 0.1221 0.0
C73 C 0.69615 0.37004 0.12387 0.0
C74 C 0.71153 0.35419 0.10348 0.0
C75 C 0.72643 0.36734 0.08087 0.0
H76 H 0.8021 0.36766 0.02463 0.0
H77 H 0.83422 0.34192 0.9927 0.0
H78 H 0.80665 0.39055 0.91814 0.0
H79 H 0.77462 0.41646 0.94986 0.0
H80 H 0.73852 0.46917 0.9607 0.0
H81 H 0.70821 0.50388 0.938 0.0
H82 H 0.66055 0.51043 0.01863 0.0
H83 H 0.69047 0.47534 0.04133 0.0
H84 H 0.71054 0.43486 0.09764 0.0
H85 H 0.68505 0.41191 0.13743 0.0
H86 H 0.71126 0.33164 0.1045 0.0
H87 H 0.73718 0.35456 0.06476 0.0
N88 N 0.75696 0.39744 0.03474 0.0
N89 N 0.75256 0.43231 0.99885 0.0
N90 N 0.72468 0.43387 0.04125 0.0
C91 C 0.7651 0.40864 0.00861 0.0
C92 C 0.73241 0.44513 0.01507 0.0
C93 C 0.73686 0.41009 0.05125 0.0
C94 C 0.78575 0.39406 0.9898 0.0
C95 C 0.80299 0.373 0.00147 0.0
C96 C 0.82147 0.35836 0.98327 0.0
C97 C 0.82278 0.36428 0.95302 0.0
C98 C 0.80585 0.38552 0.94138 0.0
C99 C 0.78765 0.40042 0.95962 0.0
C100 C 0.71672 0.46911 0.00275 0.0
C101 C 0.72184 0.47823 0.9738 0.0
C102 C 0.70453 0.49824 0.96077 0.0
C103 C 0.6818 0.50959 0.97642 0.0
C104 C 0.6776 0.50161 0.00585 0.0
C105 C 0.69487 0.4816 0.01889 0.0
C106 C 0.72566 0.3965 0.07796 0.0
C107 C 0.71138 0.41235 0.09923 0.0
C108 C 0.33546 0.60303 0.60026 0.0
C109 C 0.32586 0.6284 0.61186 0.0
C110 C 0.30092 0.64009 0.60076 0.0
C111 C 0.2864 0.62701 0.5777 0.0
H112 H 0.21249 0.62824 0.52305 0.0
H113 H 0.17626 0.65331 0.49556 0.0
H114 H 0.19629 0.60573 0.41772 0.0
H115 H 0.23233 0.58041 0.44505 0.0
H116 H 0.25969 0.51369 0.46711 0.0
H117 H 0.28339 0.47364 0.44501 0.0
H118 H 0.36041 0.4971 0.48922 0.0
H119 H 0.33647 0.53578 0.51228 0.0
H120 H 0.32938 0.57054 0.56906 0.0
H121 H 0.35428 0.59322 0.60882 0.0
H122 H 0.29305 0.65961 0.60943 0.0
H123 H 0.26756 0.63675 0.56915 0.0
N124 N 0.25998 0.60029 0.52663 0.0
N125 N 0.25997 0.56461 0.49114 0.0
N126 N 0.29365 0.56474 0.52865 0.0
C127 C 0.24857 0.58842 0.50214 0.0
C128 C 0.28248 0.55262 0.5044 0.0
C129 C 0.28257 0.58844 0.54005 0.0
C130 C 0.22535 0.60238 0.48624 0.0
C131 C 0.20904 0.62296 0.50015 0.0
C132 C 0.18822 0.6372 0.48449 0.0
C133 C 0.18362 0.63143 0.45456 0.0
C134 C 0.19959 0.61063 0.44075 0.0
C135 C 0.22009 0.59608 0.45649 0.0
C136 C 0.29617 0.52783 0.4915 0.0
C137 C 0.28162 0.51002 0.47225 0.0
C138 C 0.29526 0.48717 0.45949 0.0
C139 C 0.32385 0.48196 0.46536 0.0
C140 C 0.33823 0.49986 0.48472 0.0
C141 C 0.32451 0.52229 0.49783 0.0
C142 C 0.29648 0.60189 0.56561 0.0
C143 C 0.32098 0.58994 0.57752 0.0
C144 C 0.83875 0.89685 0.10061 0.0
C145 C 0.83046 0.87201 0.11443 0.0
C146 C 0.80663 0.85785 0.10393 0.0
C147 C 0.79191 0.86794 0.07943 0.0
H148 H 0.7365 0.84322 0.01236 0.0
H149 H 0.70092 0.81574 0.98667 0.0
H150 H 0.68293 0.88576 0.93001 0.0
H151 H 0.71825 0.91334 0.95559 0.0
H152 H 0.77183 0.95303 0.94322 0.0
H153 H 0.79552 0.98952 0.91545 0.0
H154 H 0.84665 0.00872 0.99141 0.0
H155 H 0.82353 0.97186 0.01903 0.0
H156 H 0.83137 0.92604 0.06613 0.0
H157 H 0.85674 0.90848 0.10856 0.0
H158 H 0.79981 0.83863 0.11419 0.0
H159 H 0.77396 0.85627 0.07149 0.0
N160 N 0.76493 0.88796 0.02579 0.0
N161 N 0.7626 0.92026 0.98707 0.0
N162 N 0.79581 0.92602 0.02453 0.0
C163 C 0.75284 0.89682 0.0003 0.0
C164 C 0.78405 0.935 -0.00096 0.0
C165 C 0.78639 0.9026 0.03813 0.0
C166 C 0.73029 0.88046 0.986 0.0
C167 C 0.72485 0.85283 0.99456 0.0
C168 C 0.70465 0.83702 0.97973 0.0
C169 C 0.68934 0.84862 0.95628 0.0
C170 C 0.69436 0.87637 0.9481 0.0
C171 C 0.71469 0.89209 0.96272 0.0
C172 C 0.79603 0.95923 0.98327 0.0
C173 C 0.78792 0.96519 0.95415 0.0
C174 C 0.8014 0.9862 0.93822 0.0
C175 C 0.82318 0.00174 0.95113 0.0
C176 C 0.83035 0.99667 0.98067 0.0
C177 C 0.81698 0.97561 0.99654 0.0
C178 C 0.80067 0.89248 0.06514 0.0
C179 C 0.82405 0.90698 0.07633 0.0
C180 C 0.19165 0.10815 0.61533 0.0
C181 C 0.19074 0.1374 0.61577 0.0
C182 C 0.20495 0.15243 0.59383 0.0
C183 C 0.21913 0.13839 0.5713 0.0
H184 H 0.27788 0.14754 0.50563 0.0
H185 H 0.30912 0.17182 0.472 0.0
H186 H 0.31754 0.09711 0.41976 0.0
H187 H 0.28634 0.07245 0.45358 0.0
H188 H 0.25123 0.01525 0.47601 0.0
H189 H 0.22676 0.97459 0.4564 0.0
H190 H 0.15241 -0.00205 0.50546 0.0
H191 H 0.17737 0.03717 0.52624 0.0
H192 H 0.20494 0.07157 0.59235 0.0
H193 H 0.1806 0.09607 0.63182 0.0
H194 H 0.20454 0.175 0.59376 0.0
H195 H 0.22926 0.15051 0.55421 0.0
N196 N 0.24994 0.10666 0.5268 0.0
N197 N 0.24937 0.06805 0.49512 0.0
N198 N 0.22044 0.06877 0.53687 0.0
C199 C 0.2596 0.09362 0.50224 0.0
C200 C 0.22974 0.05554 0.51233 0.0
C201 C 0.2306 0.09423 0.54438 0.0
C202 C 0.27952 0.10801 0.48234 0.0
C203 C 0.28638 0.13615 0.48708 0.0
C204 C 0.30409 0.15019 0.46765 0.0
C205 C 0.31548 0.13642 0.44312 0.0
C206 C 0.30904 0.10819 0.43854 0.0
C207 C 0.29114 0.09414 0.4579 0.0
C208 C 0.21622 0.02941 0.50262 0.0
C209 C 0.2298 0.01131 0.48292 0.0
C210 C 0.21567 0.98813 0.47152 0.0
C211 C 0.18744 0.98292 0.4791 0.0
C212 C 0.17425 0.00074 0.49949 0.0
C213 C 0.18856 0.02347 0.51133 0.0
C214 C 0.21882 0.1091 0.57005 0.0
C215 C 0.20539 0.09414 0.5926 0.0
C216 C 0.14948 0.89035 0.08507 0.0
C217 C 0.16412 0.8772 0.10817 0.0
C218 C 0.19345 0.87385 0.10552 0.0
C219 C 0.20765 0.88339 0.08048 0.0
H220 H 0.25925 0.84919 0.00719 0.0
H221 H 0.29515 0.82203 0.98161 0.0
H222 H 0.31444 0.89302 0.92682 0.0
H223 H 0.27873 0.92027 0.95229 0.0
H224 H 0.21293 0.94848 0.93275 0.0
H225 H 0.18887 0.98469 0.90442 0.0
H226 H 0.155 0.01911 0.98462 0.0
H227 H 0.17841 0.98249 0.01316 0.0
H228 H 0.15178 0.91053 0.04319 0.0
H229 H 0.12685 0.89264 0.08572 0.0
H230 H 0.20558 0.86424 0.12295 0.0
H231 H 0.23021 0.88059 0.07905 0.0
N232 N 0.23027 0.89383 0.02048 0.0
N233 N 0.23214 0.92527 0.98097 0.0
N234 N 0.19736 0.93018 0.01704 0.0
C235 C 0.24267 0.90268 0.99516 0.0
C236 C 0.20965 0.9392 0.99184 0.0
C237 C 0.2076 0.90757 0.03151 0.0
C238 C 0.26603 0.88685 0.9817 0.0
C239 C 0.27133 0.85911 0.98991 0.0
C240 C 0.29169 0.84349 0.97512 0.0
C241 C 0.30733 0.85541 0.9521 0.0
C242 C 0.3027 0.88337 0.94453 0.0
C243 C 0.28217 0.8989 0.95908 0.0
C244 C 0.19738 0.9626 0.97516 0.0
C245 C 0.20066 0.96396 0.94442 0.0
C246 C 0.18694 0.98457 0.92819 0.0
C247 C 0.17032 0.00451 0.94251 0.0
C248 C 0.16795 0.00395 0.97328 0.0
C249 C 0.18116 0.98296 0.98949 0.0
C250 C 0.19294 0.89708 0.05791 0.0
C251 C 0.16375 0.90049 0.0605 0.0
C252 C 0.79809 0.10397 0.61559 0.0
C253 C 0.79664 0.13318 0.61678 0.0
C254 C 0.78102 0.14753 0.59538 0.0
C255 C 0.76794 0.13295 0.57252 0.0
H256 H 0.69458 0.12743 0.51549 0.0
H257 H 0.66156 0.15104 0.48295 0.0
H258 H 0.69058 0.1013 0.40983 0.0
H259 H 0.72375 0.07748 0.44233 0.0
H260 H 0.76184 0.02518 0.45671 0.0
H261 H 0.79232 0.98888 0.43717 0.0
H262 H 0.83906 0.9879 0.51869 0.0
H263 H 0.80898 0.02453 0.5382 0.0
H264 H 0.78789 0.06702 0.59151 0.0
H265 H 0.81025 0.09245 0.63167 0.0
H266 H 0.77963 0.17006 0.59589 0.0
H267 H 0.75683 0.14464 0.55576 0.0
N268 N 0.74054 0.10009 0.52656 0.0
N269 N 0.74654 0.06395 0.49236 0.0
N270 N 0.77392 0.06512 0.53522 0.0
C271 C 0.7331 0.08759 0.50087 0.0
C272 C 0.7669 0.05249 0.50949 0.0
C273 C 0.76084 0.08889 0.5439 0.0
C274 C 0.71187 0.10064 0.4815 0.0
C275 C 0.69385 0.12135 0.49253 0.0
C276 C 0.67481 0.13476 0.47396 0.0
C277 C 0.67357 0.12793 0.44393 0.0
C278 C 0.69126 0.107 0.4329 0.0
C279 C 0.71011 0.09331 0.45156 0.0
C280 C 0.78313 0.02809 0.49893 0.0
C281 C 0.77839 0.01705 0.47067 0.0
C282 C 0.79578 0.99612 0.45947 0.0
C283 C 0.81825 0.98575 0.4763 0.0
C284 C 0.8222 0.99585 0.50503 0.0
C285 C 0.80484 0.01677 0.51623 0.0
C286 C 0.77079 0.10383 0.57037 0.0
C287 C 0.78546 0.08945 0.59249 0.0
Sc288 Sc 0.00086 0.78199 0.31379 0.0
Sc289 Sc 0.00345 0.85502 0.32434 0.0
Sc290 Sc 0.00429 0.81052 0.38536 0.0
O291 O 0.00287 0.81578 0.3411 0.0
C292 C 0.95994 0.76429 0.36647 0.0
C293 C 0.95954 0.82427 0.28165 0.0
C294 C 0.96293 0.86284 0.37915 0.0
C295 C 0.04343 0.82267 0.27994 0.0
C296 C 0.04391 0.76118 0.36263 0.0
C297 C 0.04718 0.86036 0.37743 0.0
O298 O 0.96958 0.76117 0.34054 0.0
O299 O 0.97142 0.84573 0.29233 0.0
O300 O 0.97405 0.84304 0.39368 0.0
O301 O 0.03174 0.79905 0.2837 0.0
O302 O 0.03455 0.77758 0.38225 0.0
O303 O 0.03544 0.86959 0.35427 0.0
O304 O 0.03437 0.76044 0.33648 0.0
O305 O 0.03636 0.84449 0.29398 0.0
O306 O 0.03913 0.83845 0.39059 0.0
O307 O 0.96709 0.79958 0.2881 0.0
O308 O 0.96981 0.78186 0.38465 0.0
O309 O 0.9706 0.86916 0.3532 0.0
Sc310 Sc 0.99326 0.22094 0.79085 0.0
Sc311 Sc 0.99295 0.1472 0.79308 0.0
Sc312 Sc 0.99171 0.18539 0.85882 0.0
O313 O 0.99263 0.18457 0.81419 0.0
C314 C 0.03511 0.23391 0.84418 0.0
C315 C 0.03528 0.18289 0.75372 0.0
C316 C 0.03349 0.13461 0.84683 0.0
C317 C 0.95111 0.18286 0.75341 0.0
C318 C 0.9513 0.23635 0.84276 0.0
C319 C 0.94949 0.13589 0.84559 0.0
O320 O 0.02519 0.2392 0.81874 0.0
O321 O 0.0247 0.1601 0.76258 0.0
O322 O 0.02221 0.15268 0.86348 0.0
O323 O 0.96086 0.20656 0.76088 0.0
O324 O 0.9609 0.2179 0.86006 0.0
O325 O 0.9608 0.12955 0.82111 0.0
O326 O 0.96049 0.23991 0.81677 0.0
O327 O 0.96043 0.15995 0.76347 0.0
O328 O 0.95782 0.1562 0.86122 0.0
O329 O 0.02665 0.20661 0.76233 0.0
O330 O 0.0256 0.21473 0.86069 0.0
O331 O 0.02609 0.1308 0.82028 0.0
Sc332 Sc 0.49823 0.27749 0.29355 0.0
Sc333 Sc 0.49814 0.35042 0.3035 0.0
Sc334 Sc 0.50141 0.30627 0.36464 0.0
O335 O 0.49927 0.31136 0.32052 0.0
C336 C 0.45944 0.25714 0.34569 0.0
C337 C 0.45404 0.31895 0.26315 0.0
C338 C 0.45843 0.35617 0.35997 0.0
C339 C 0.53856 0.31824 0.25855 0.0
C340 C 0.54279 0.25916 0.34282 0.0
C341 C 0.54221 0.35862 0.35475 0.0
O342 O 0.46503 0.25787 0.31832 0.0
O343 O 0.46245 0.34048 0.27682 0.0
O344 O 0.46641 0.33368 0.37211 0.0
O345 O 0.53169 0.2938 0.26661 0.0
O346 O 0.53621 0.27825 0.36094 0.0
O347 O 0.53366 0.3641 0.32889 0.0
O348 O 0.52983 0.2553 0.31862 0.0
O349 O 0.5269 0.34012 0.26857 0.0
O350 O 0.53135 0.33956 0.37051 0.0
O351 O 0.4661 0.29535 0.26537 0.0
O352 O 0.47204 0.2723 0.36445 0.0
O353 O 0.46933 0.36566 0.33646 0.0
Sc354 Sc 0.49745 0.71227 0.81377 0.0
Sc355 Sc 0.49607 0.63886 0.82104 0.0
Sc356 Sc 0.49501 0.68097 0.88407 0.0
O357 O 0.49618 0.67742 0.83957 0.0
C358 C 0.53861 0.72862 0.86663 0.0
C359 C 0.5398 0.67135 0.78022 0.0
C360 C 0.53647 0.62935 0.87612 0.0
C361 C 0.45535 0.67299 0.77802 0.0
C362 C 0.45495 0.73085 0.86458 0.0
C363 C 0.4519 0.6312 0.87321 0.0
O364 O 0.53005 0.73138 0.84022 0.0
O365 O 0.5296 0.64932 0.79147 0.0
O366 O 0.52653 0.64967 0.89066 0.0
O367 O 0.46499 0.69693 0.78461 0.0
O368 O 0.46379 0.71286 0.88282 0.0
O369 O 0.46236 0.62409 0.84858 0.0
O370 O 0.46482 0.73321 0.83865 0.0
O371 O 0.46476 0.6506 0.7893 0.0
O372 O 0.46156 0.65124 0.88843 0.0
O373 O 0.53022 0.69555 0.78582 0.0
O374 O 0.52792 0.71128 0.88453 0.0
O375 O 0.52754 0.62276 0.85068 0.0
C376 C 0.12516 0.33403 0.94352 0.0
C377 C 0.15283 0.33856 0.93418 0.0
C378 C 0.1067 0.31767 0.92679 0.0
C379 C 0.11636 0.30523 0.90039 0.0
C380 C 0.14427 0.30988 0.89078 0.0
C381 C 0.16214 0.32669 0.90773 0.0
C382 C 0.07696 0.31346 0.93754 0.0
C383 C 0.1554 0.29657 0.86301 0.0
C384 C 0.07597 0.24084 0.87763 0.0
C385 C 0.0579 0.25151 0.856 0.0
C386 C 0.09594 0.25788 0.89137 0.0
C387 C 0.09752 0.2864 0.88362 0.0
C388 C 0.07997 0.29712 0.86112 0.0
C389 C 0.06049 0.27943 0.84735 0.0
C390 C 0.1147 0.24557 0.91485 0.0
C391 C 0.08089 0.3275 0.85254 0.0
H392 H 0.11792 0.34348 0.96383 0.0
H393 H 0.18365 0.33004 0.90068 0.0
H394 H 0.0618 0.31954 0.92011 0.0
H395 H 0.07337 0.2911 0.94245 0.0
H396 H 0.07236 0.32576 0.95769 0.0
H397 H 0.17733 0.30303 0.8581 0.0
H398 H 0.15483 0.27354 0.86521 0.0
H399 H 0.14189 0.30214 0.84399 0.0
H400 H 0.07424 0.21916 0.88414 0.0
H401 H 0.04644 0.28777 0.83073 0.0
H402 H 0.10945 0.25486 0.93653 0.0
H403 H 0.13703 0.25055 0.9102 0.0
H404 H 0.11242 0.22258 0.91652 0.0
H405 H 0.07397 0.34049 0.87141 0.0
H406 H 0.06717 0.33215 0.83337 0.0
H407 H 0.10272 0.3338 0.84712 0.0
C408 C 0.82646 0.6734 0.41649 0.0
C409 C 0.83366 0.65864 0.44202 0.0
C410 C 0.84627 0.69023 0.40209 0.0
C411 C 0.87398 0.69192 0.41331 0.0
C412 C 0.88152 0.67644 0.43866 0.0
C413 C 0.86116 0.66015 0.45288 0.0
C414 C 0.83734 0.70681 0.37542 0.0
C415 C 0.91098 0.67741 0.45102 0.0
C416 C 0.93299 0.7195 0.36507 0.0
C417 C 0.93661 0.74637 0.37656 0.0
C418 C 0.91239 0.70157 0.37653 0.0
C419 C 0.89473 0.71102 0.39957 0.0
C420 C 0.8976 0.73851 0.4104 0.0
C421 C 0.91867 0.75576 0.39895 0.0
C422 C 0.91014 0.67224 0.36472 0.0
C423 C 0.8788 0.74955 0.43455 0.0
H424 H 0.80509 0.67237 0.40824 0.0
H425 H 0.86676 0.64848 0.47247 0.0
H426 H 0.83921 0.72942 0.38017 0.0
H427 H 0.85138 0.70222 0.35655 0.0
H428 H 0.81532 0.7023 0.3688 0.0
H429 H 0.91386 0.6628 0.46975 0.0
H430 H 0.92646 0.67216 0.43361 0.0
H431 H 0.91582 0.69882 0.45872 0.0
H432 H 0.94693 0.71213 0.34787 0.0
H433 H 0.9212 0.77665 0.40767 0.0
H434 H 0.88831 0.66792 0.35744 0.0
H435 H 0.91517 0.65714 0.38246 0.0
H436 H 0.92461 0.66851 0.34593 0.0
H437 H 0.85639 0.74674 0.42844 0.0
H438 H 0.88258 0.77198 0.43913 0.0
H439 H 0.88245 0.73761 0.45511 0.0
C440 C 0.86929 0.34314 0.94106 0.0
C441 C 0.84112 0.34766 0.93353 0.0
C442 C 0.88651 0.32618 0.9236 0.0
C443 C 0.87508 0.31315 0.89831 0.0
C444 C 0.84678 0.31812 0.89027 0.0
C445 C 0.83014 0.3355 0.90793 0.0
C446 C 0.91672 0.32164 0.93263 0.0
C447 C 0.8338 0.30425 0.8637 0.0
C448 C 0.92738 0.28272 0.84408 0.0
C449 C 0.92945 0.25522 0.85428 0.0
C450 C 0.90911 0.30176 0.85766 0.0
C451 C 0.8923 0.29284 0.88158 0.0
C452 C 0.89323 0.26471 0.89088 0.0
C453 C 0.91197 0.2463 0.87726 0.0
C454 C 0.90881 0.33167 0.84737 0.0
C455 C 0.87522 0.25429 0.91596 0.0
H456 H 0.87779 0.35281 0.96071 0.0
H457 H 0.80825 0.33885 0.90229 0.0
H458 H 0.91992 0.29949 0.9388 0.0
H459 H 0.93098 0.3262 0.91391 0.0
H460 H 0.92289 0.33491 0.95161 0.0
H461 H 0.8121 0.31177 0.85936 0.0
H462 H 0.84683 0.30808 0.84386 0.0
H463 H 0.8331 0.28137 0.86718 0.0
H464 H 0.94097 0.2897 0.8264 0.0
H465 H 0.91329 0.22494 0.88497 0.0
H466 H 0.9175 0.34527 0.86491 0.0
H467 H 0.88695 0.33864 0.84312 0.0
H468 H 0.92142 0.33474 0.82704 0.0
H469 H 0.88188 0.26441 0.93679 0.0
H470 H 0.87673 0.23134 0.9188 0.0
H471 H 0.85288 0.2599 0.9122 0.0
C472 C 0.17105 0.66087 0.4112 0.0
C473 C 0.16299 0.64791 0.43754 0.0
C474 C 0.15241 0.67836 0.39598 0.0
C475 C 0.12499 0.6826 0.40721 0.0
C476 C 0.11641 0.66863 0.43318 0.0
C477 C 0.13564 0.65164 0.4482 0.0
C478 C 0.16246 0.69326 0.36866 0.0
C479 C 0.08719 0.67229 0.44558 0.0
C480 C 0.08583 0.74988 0.39299 0.0
C481 C 0.06648 0.74179 0.37135 0.0
C482 C 0.10578 0.73108 0.40389 0.0
C483 C 0.10598 0.70333 0.39333 0.0
C484 C 0.08705 0.69524 0.37081 0.0
C485 C 0.06764 0.71473 0.35983 0.0
C486 C 0.12604 0.74071 0.4274 0.0
C487 C 0.08645 0.66574 0.35931 0.0
H488 H 0.19231 0.65813 0.4031 0.0
H489 H 0.12937 0.64137 0.46843 0.0
H490 H 0.14747 0.69001 0.35027 0.0
H491 H 0.1634 0.71601 0.37295 0.0
H492 H 0.18362 0.6861 0.36159 0.0
H493 H 0.08308 0.6581 0.46442 0.0
H494 H 0.08438 0.69409 0.45318 0.0
H495 H 0.07122 0.66836 0.42826 0.0
H496 H 0.08515 0.77092 0.40167 0.0
H497 H 0.05256 0.70843 0.34321 0.0
H498 H 0.14794 0.73551 0.42106 0.0
H499 H 0.12151 0.72971 0.44836 0.0
H500 H 0.12466 0.76352 0.4314 0.0
H501 H 0.10779 0.65914 0.35237 0.0
H502 H 0.07186 0.6633 0.34038 0.0
H503 H 0.07969 0.65142 0.37714 0.0
C504 C 0.64142 0.84281 0.93462 0.0
C505 C 0.66817 0.83182 0.94033 0.0
C506 C 0.62083 0.82678 0.92045 0.0
C507 C 0.62729 0.79923 0.91163 0.0
C508 C 0.65455 0.78833 0.91652 0.0
C509 C 0.67465 0.80473 0.93099 0.0
C510 C 0.59188 0.83898 0.91592 0.0
C511 C 0.66224 0.7591 0.90718 0.0
C512 C 0.5673 0.74767 0.90795 0.0
C513 C 0.5616 0.74664 0.87763 0.0
C514 C 0.58861 0.7647 0.91918 0.0
C515 C 0.60485 0.78101 0.89963 0.0
C516 C 0.59946 0.78001 0.86899 0.0
C517 C 0.57776 0.7629 0.85832 0.0
C518 C 0.59358 0.76538 0.95204 0.0
C519 C 0.61661 0.79699 0.84755 0.0
H520 H 0.63635 0.8637 0.94201 0.0
H521 H 0.69548 0.79639 0.935 0.0
H522 H 0.58549 0.83699 0.89253 0.0
H523 H 0.57636 0.82722 0.92926 0.0
H524 H 0.59082 0.8613 0.9223 0.0
H525 H 0.68494 0.75459 0.91046 0.0
H526 H 0.64984 0.74381 0.9201 0.0
H527 H 0.65697 0.75587 0.88363 0.0
H528 H 0.55488 0.73533 0.92312 0.0
H529 H 0.57359 0.76214 0.83488 0.0
H530 H 0.59093 0.78695 0.96041 0.0
H531 H 0.61546 0.75891 0.95703 0.0
H532 H 0.57897 0.75149 0.96423 0.0
H533 H 0.61445 0.8195 0.85266 0.0
H534 H 0.61009 0.79349 0.82435 0.0
H535 H 0.63921 0.79165 0.84975 0.0
C536 C 0.32769 0.17856 0.41354 0.0
C537 C 0.3345 0.15155 0.42289 0.0
C538 C 0.34687 0.19448 0.39728 0.0
C539 C 0.3735 0.1831 0.39035 0.0
C540 C 0.37987 0.15526 0.39826 0.0
C541 C 0.36022 0.13976 0.41445 0.0
C542 C 0.33924 0.22402 0.38904 0.0
C543 C 0.40809 0.14245 0.39131 0.0
C544 C 0.42069 0.22243 0.33709 0.0
C545 C 0.43753 0.23779 0.35662 0.0
C546 C 0.3998 0.2043 0.34766 0.0
C547 C 0.39583 0.20145 0.37839 0.0
C548 C 0.41291 0.21668 0.39816 0.0
C549 C 0.43347 0.23466 0.38705 0.0
C550 C 0.38184 0.1884 0.32602 0.0
C551 C 0.40937 0.21416 0.43113 0.0
H552 H 0.30758 0.18751 0.41961 0.0
H553 H 0.36556 0.11891 0.42175 0.0
H554 H 0.35194 0.23878 0.40234 0.0
H555 H 0.34413 0.22803 0.36554 0.0
H556 H 0.31664 0.22856 0.3929 0.0
H557 H 0.40842 0.11966 0.39561 0.0
H558 H 0.41376 0.14615 0.36795 0.0
H559 H 0.42452 0.15244 0.40508 0.0
H560 H 0.42365 0.22472 0.31356 0.0
H561 H 0.44641 0.24627 0.40239 0.0
H562 H 0.35944 0.19424 0.3289 0.0
H563 H 0.38349 0.1657 0.33029 0.0
H564 H 0.38797 0.1925 0.30282 0.0
H565 H 0.38787 0.22076 0.43754 0.0
H566 H 0.42478 0.22705 0.44347 0.0
H567 H 0.41191 0.19211 0.43799 0.0
C568 C 0.35523 0.84901 0.93058 0.0
C569 C 0.32817 0.83858 0.93575 0.0
C570 C 0.37555 0.83275 0.91627 0.0
C571 C 0.36846 0.80555 0.90673 0.0
C572 C 0.34082 0.79536 0.91086 0.0
C573 C 0.32103 0.81197 0.9255 0.0
C574 C 0.40491 0.84417 0.91256 0.0
C575 C 0.33244 0.76655 0.90075 0.0
C576 C 0.41801 0.76725 0.85496 0.0
C577 C 0.43271 0.75018 0.87476 0.0
C578 C 0.3969 0.78544 0.86495 0.0
C579 C 0.39066 0.78668 0.89541 0.0
C580 C 0.40556 0.76966 0.91545 0.0
C581 C 0.42627 0.75159 0.90489 0.0
C582 C 0.38118 0.80318 0.84299 0.0
C583 C 0.39966 0.77054 0.94815 0.0
H584 H 0.36078 0.86957 0.9386 0.0
H585 H 0.29993 0.8041 0.92906 0.0
H586 H 0.41973 0.8321 0.92648 0.0
H587 H 0.41193 0.84189 0.8894 0.0
H588 H 0.40635 0.8665 0.91887 0.0
H589 H 0.30948 0.76284 0.90301 0.0
H590 H 0.33848 0.76338 0.8774 0.0
H591 H 0.34375 0.75067 0.91399 0.0
H592 H 0.42281 0.76624 0.83165 0.0
H593 H 0.43761 0.73867 0.92046 0.0
H594 H 0.38379 0.82556 0.84849 0.0
H595 H 0.35836 0.7985 0.84412 0.0
H596 H 0.38852 0.79972 0.82006 0.0
H597 H 0.40268 0.79203 0.9566 0.0
H598 H 0.4135 0.75625 0.96082 0.0
H599 H 0.37748 0.76469 0.95241 0.0
C600 C 0.62663 0.14832 0.43234 0.0
C601 C 0.6546 0.14359 0.42414 0.0
C602 C 0.6092 0.16558 0.41546 0.0
C603 C 0.62014 0.17861 0.38994 0.0
C604 C 0.64802 0.17296 0.38085 0.0
C605 C 0.66493 0.15538 0.39806 0.0
C606 C 0.57945 0.17084 0.42567 0.0
C607 C 0.66042 0.1866 0.35387 0.0
C608 C 0.56589 0.21236 0.34018 0.0
C609 C 0.56523 0.23953 0.35155 0.0
C610 C 0.58457 0.19243 0.35157 0.0
C611 C 0.60312 0.20005 0.37457 0.0
C612 C 0.60371 0.22789 0.38481 0.0
C613 C 0.58466 0.24726 0.37328 0.0
C614 C 0.58334 0.1629 0.34018 0.0
C615 C 0.6235 0.23694 0.40902 0.0
H616 H 0.61856 0.1389 0.45232 0.0
H617 H 0.68665 0.15187 0.39182 0.0
H618 H 0.57724 0.1929 0.43263 0.0
H619 H 0.56443 0.16729 0.40736 0.0
H620 H 0.57345 0.15726 0.44446 0.0
H621 H 0.68122 0.17766 0.34798 0.0
H622 H 0.64605 0.18433 0.33479 0.0
H623 H 0.66307 0.20925 0.35797 0.0
H624 H 0.55089 0.20625 0.32341 0.0
H625 H 0.5845 0.26835 0.38186 0.0
H626 H 0.57433 0.14913 0.35739 0.0
H627 H 0.60476 0.15509 0.33519 0.0
H628 H 0.57021 0.16112 0.32004 0.0
H629 H 0.61755 0.22656 0.42994 0.0
H630 H 0.62311 0.25985 0.41254 0.0
H631 H 0.64535 0.23055 0.40378 0.0
C632 C 0.3156 0.54885 0.93301 0.0
C633 C 0.3252 0.52946 0.95381 0.0
C634 C 0.33449 0.56663 0.91846 0.0
C635 C 0.36357 0.56474 0.92482 0.0
C636 C 0.37333 0.54517 0.94575 0.0
C637 C 0.35403 0.52779 0.95998 0.0
C638 C 0.3234 0.58738 0.89635 0.0
C639 C 0.40422 0.54243 0.95299 0.0
C640 C 0.41902 0.59043 0.87145 0.0
C641 C 0.42778 0.61522 0.88505 0.0
C642 C 0.39734 0.57428 0.88355 0.0
C643 C 0.38405 0.5832 0.90978 0.0
C644 C 0.39201 0.6087 0.92299 0.0
C645 C 0.41382 0.62437 0.91051 0.0
C646 C 0.38941 0.54713 0.86891 0.0
C647 C 0.37819 0.61894 0.9509 0.0
H648 H 0.2933 0.55025 0.9283 0.0
H649 H 0.3616 0.51244 0.9756 0.0
H650 H 0.32919 0.60884 0.90314 0.0
H651 H 0.33314 0.58362 0.87453 0.0
H652 H 0.30018 0.58623 0.89396 0.0
H653 H 0.40831 0.52612 0.96982 0.0
H654 H 0.41622 0.53717 0.9328 0.0
H655 H 0.41245 0.56258 0.9613 0.0
H656 H 0.42956 0.58323 0.85171 0.0
H657 H 0.42018 0.64364 0.92103 0.0
H658 H 0.36637 0.54619 0.86528 0.0
H659 H 0.39507 0.52946 0.88351 0.0
H660 H 0.40019 0.54424 0.84743 0.0
H661 H 0.35499 0.61896 0.94839 0.0
H662 H 0.38512 0.64029 0.95697 0.0
H663 H 0.38335 0.60465 0.96932 0.0
C664 C 0.66853 0.45025 0.4236 0.0
C665 C 0.65585 0.47055 0.44141 0.0
C666 C 0.65216 0.4308 0.40809 0.0
C667 C 0.6225 0.43186 0.4104 0.0
C668 C 0.60963 0.45245 0.42817 0.0
C669 C 0.62646 0.47152 0.44344 0.0
C670 C 0.66656 0.40904 0.38942 0.0
C671 C 0.57804 0.45437 0.43105 0.0
C672 C 0.57452 0.39986 0.35298 0.0
C673 C 0.56494 0.37591 0.36762 0.0
C674 C 0.59421 0.41771 0.36615 0.0
C675 C 0.60464 0.41139 0.39455 0.0
C676 C 0.59607 0.38663 0.40888 0.0
C677 C 0.57629 0.36921 0.39527 0.0
C678 C 0.60289 0.44396 0.35021 0.0
C679 C 0.60689 0.37911 0.43912 0.0
H680 H 0.69125 0.44935 0.42213 0.0
H681 H 0.61655 0.48751 0.45675 0.0
H682 H 0.66105 0.38791 0.39749 0.0
H683 H 0.65911 0.41052 0.36633 0.0
H684 H 0.6898 0.41127 0.38966 0.0
H685 H 0.57138 0.47177 0.4456 0.0
H686 H 0.56839 0.45743 0.40905 0.0
H687 H 0.56959 0.43461 0.44013 0.0
H688 H 0.56602 0.40519 0.33157 0.0
H689 H 0.56928 0.35062 0.40666 0.0
H690 H 0.62614 0.44574 0.34964 0.0
H691 H 0.59476 0.46241 0.3622 0.0
H692 H 0.59481 0.44461 0.32727 0.0
H693 H 0.63018 0.38008 0.4396 0.0
H694 H 0.60016 0.35794 0.44608 0.0
H695 H 0.59898 0.39442 0.45546 0.0
C696 C 0.63251 0.52409 0.9654 0.0
C697 C 0.66145 0.52826 0.96152 0.0
C698 C 0.61282 0.5408 0.9508 0.0
C699 C 0.6223 0.5622 0.93182 0.0
C700 C 0.65147 0.56658 0.92778 0.0
C701 C 0.67074 0.54951 0.94269 0.0
C702 C 0.58185 0.53547 0.95559 0.0
C703 C 0.66228 0.58931 0.90778 0.0
C704 C 0.56976 0.58878 0.87558 0.0
C705 C 0.55929 0.61266 0.88966 0.0
C706 C 0.59075 0.57245 0.88876 0.0
C707 C 0.60153 0.58023 0.91662 0.0
C708 C 0.59152 0.60458 0.93066 0.0
C709 C 0.57052 0.62048 0.91704 0.0
C710 C 0.60099 0.54658 0.87317 0.0
C711 C 0.60258 0.61355 0.96037 0.0
H712 H 0.62523 0.50734 0.97949 0.0
H713 H 0.6931 0.55291 0.93979 0.0
H714 H 0.57164 0.55445 0.96456 0.0
H715 H 0.57153 0.53066 0.93428 0.0
H716 H 0.57799 0.51791 0.97101 0.0
H717 H 0.68562 0.58979 0.9068 0.0
H718 H 0.654 0.58629 0.88517 0.0
H719 H 0.65469 0.6099 0.91557 0.0
H720 H 0.56132 0.5826 0.8544 0.0
H721 H 0.56276 0.63898 0.92807 0.0
H722 H 0.59586 0.52788 0.8865 0.0
H723 H 0.62419 0.54723 0.87072 0.0
H724 H 0.59141 0.54412 0.85101 0.0
H725 H 0.59751 0.59746 0.9771 0.0
H726 H 0.59353 0.63374 0.96768 0.0
H727 H 0.6258 0.61554 0.95965 0.0
C728 C 0.33382 0.45233 0.42089 0.0
C729 C 0.33928 0.45893 0.45046 0.0
C730 C 0.35055 0.433 0.40568 0.0
C731 C 0.37374 0.4206 0.42016 0.0
C732 C 0.37862 0.42619 0.4503 0.0
C733 C 0.36104 0.44488 0.46519 0.0
C734 C 0.3442 0.42688 0.37376 0.0
C735 C 0.40337 0.41367 0.46643 0.0
C736 C 0.41365 0.35902 0.38841 0.0
C737 C 0.43602 0.37246 0.37423 0.0
C738 C 0.3925 0.37445 0.40251 0.0
C739 C 0.39444 0.40388 0.40325 0.0
C740 C 0.41701 0.4175 0.38889 0.0
C741 C 0.4373 0.40161 0.37413 0.0
C742 C 0.36822 0.3593 0.41673 0.0
C743 C 0.42022 0.44881 0.38983 0.0
H744 H 0.31722 0.46309 0.40915 0.0
H745 H 0.36492 0.44912 0.48827 0.0
H746 H 0.36031 0.43685 0.3596 0.0
H747 H 0.34503 0.40412 0.36953 0.0
H748 H 0.3232 0.43482 0.36708 0.0
H749 H 0.40343 0.41909 0.49021 0.0
H750 H 0.40326 0.39066 0.46427 0.0
H751 H 0.42323 0.42132 0.45646 0.0
H752 H 0.41255 0.33645 0.38818 0.0
H753 H 0.45473 0.41196 0.36331 0.0
H754 H 0.34799 0.3679 0.40863 0.0
H755 H 0.36874 0.36249 0.4409 0.0
H756 H 0.36871 0.33655 0.41221 0.0
H757 H 0.40139 0.45896 0.38022 0.0
H758 H 0.43908 0.45611 0.37766 0.0
H759 H 0.4219 0.45588 0.41304 0.0
C760 C 0.86881 0.02295 0.93595 0.0
C761 C 0.83945 0.02212 0.93348 0.0
C762 C 0.88475 0.04194 0.91959 0.0
C763 C 0.871 0.06049 0.90011 0.0
C764 C 0.8414 0.05955 0.89712 0.0
C765 C 0.82593 0.04035 0.9139 0.0
C766 C 0.91631 0.04231 0.92338 0.0
C767 C 0.8261 0.07902 0.8765 0.0
C768 C 0.91324 0.12537 0.88383 0.0
C769 C 0.92669 0.11807 0.85742 0.0
C770 C 0.89391 0.10738 0.8972 0.0
C771 C 0.88781 0.08146 0.88383 0.0
C772 C 0.90006 0.07459 0.85638 0.0
C773 C 0.9194 0.09299 0.84347 0.0
C774 C 0.88119 0.11548 0.92645 0.0
C775 C 0.89386 0.04719 0.84138 0.0
H776 H 0.87943 0.0085 0.95056 0.0
H777 H 0.80322 0.03988 0.91203 0.0
H778 H 0.92674 0.03882 0.90185 0.0
H779 H 0.92314 0.06303 0.93153 0.0
H780 H 0.92375 0.02616 0.93908 0.0
H781 H 0.80316 0.07475 0.87571 0.0
H782 H 0.82931 0.1009 0.88364 0.0
H783 H 0.83478 0.07715 0.85392 0.0
H784 H 0.91841 0.14484 0.89464 0.0
H785 H 0.92949 0.08723 0.82297 0.0
H786 H 0.88954 0.10166 0.94398 0.0
H787 H 0.85804 0.11273 0.92596 0.0
H788 H 0.88595 0.13742 0.93247 0.0
H789 H 0.90322 0.0299 0.85432 0.0
H790 H 0.90249 0.04637 0.81868 0.0
H791 H 0.87085 0.0435 0.8404 0.0
C792 C 0.14938 0.94662 0.47964 0.0
C793 C 0.17103 0.96038 0.46445 0.0
C794 C 0.13091 0.92857 0.465 0.0
C795 C 0.13481 0.92327 0.43464 0.0
C796 C 0.15782 0.93535 0.41963 0.0
C797 C 0.17539 0.95411 0.43458 0.0
C798 C 0.10634 0.9164 0.48169 0.0
C799 C 0.16316 0.92948 0.38745 0.0
C800 C 0.09316 0.86249 0.4037 0.0
C801 C 0.07056 0.87632 0.39033 0.0
C802 C 0.11494 0.87753 0.41718 0.0
C803 C 0.11343 0.90698 0.41817 0.0
C804 C 0.0907 0.921 0.40449 0.0
C805 C 0.06975 0.90547 0.39029 0.0
C806 C 0.13936 0.86194 0.43058 0.0
C807 C 0.08797 0.95235 0.40572 0.0
H808 H 0.14628 0.95057 0.50289 0.0
H809 H 0.1918 0.96469 0.4224 0.0
H810 H 0.08638 0.92436 0.47222 0.0
H811 H 0.10607 0.8934 0.47947 0.0
H812 H 0.10689 0.92176 0.50548 0.0
H813 H 0.18411 0.93711 0.38023 0.0
H814 H 0.1618 0.90678 0.38299 0.0
H815 H 0.14685 0.93989 0.3739 0.0
H816 H 0.09386 0.8399 0.40344 0.0
H817 H 0.05213 0.91611 0.38012 0.0
H818 H 0.13943 0.86483 0.45481 0.0
H819 H 0.15951 0.8704 0.42211 0.0
H820 H 0.13852 0.83925 0.42578 0.0
H821 H 0.08689 0.95928 0.42901 0.0
H822 H 0.06896 0.95999 0.39403 0.0
H823 H 0.10673 0.9623 0.39576 0.0
C824 C 0.13213 0.01442 0.90693 0.0
C825 C 0.1535 0.02439 0.92527 0.0
C826 C 0.11394 0.03289 0.89254 0.0
C827 C 0.11778 0.06195 0.8961 0.0
C828 C 0.14024 0.07209 0.91356 0.0
C829 C 0.15763 0.0531 0.92839 0.0
C830 C 0.08981 0.02128 0.87473 0.0
C831 C 0.14539 0.10294 0.91722 0.0
C832 C 0.07852 0.10827 0.84224 0.0
C833 C 0.05555 0.1167 0.85936 0.0
C834 C 0.09955 0.09114 0.8542 0.0
C835 C 0.09688 0.08157 0.88355 0.0
C836 C 0.0736 0.08995 0.90082 0.0
C837 C 0.05343 0.10779 0.88863 0.0
C838 C 0.12454 0.08327 0.83548 0.0
C839 C 0.06962 0.07955 0.93194 0.0
H840 H 0.12896 0.99212 0.90485 0.0
H841 H 0.17433 0.06061 0.94258 0.0
H842 H 0.06958 0.02743 0.88502 0.0
H843 H 0.09003 0.03005 0.85215 0.0
H844 H 0.09051 -0.00182 0.87316 0.0
H845 H 0.16552 0.10731 0.92874 0.0
H846 H 0.14574 0.11338 0.89542 0.0
H847 H 0.12802 0.11238 0.9301 0.0
H848 H 0.08023 0.11542 0.81967 0.0
H849 H 0.03551 0.11417 0.90176 0.0
H850 H 0.12482 0.06041 0.83184 0.0
H851 H 0.14432 0.08878 0.84704 0.0
H852 H 0.12428 0.09383 0.81371 0.0
H853 H 0.06865 0.05644 0.93205 0.0
H854 H 0.05012 0.08778 0.94222 0.0
H855 H 0.08779 0.08574 0.94577 0.0
C856 C 0.86751 0.96993 0.46709 0.0
C857 C 0.83855 0.96579 0.46325 0.0
C858 C 0.88715 0.95227 0.45369 0.0
C859 C 0.87762 0.92991 0.436 0.0
C860 C 0.84843 0.92533 0.43236 0.0
C861 C 0.82921 0.94338 0.44601 0.0
C862 C 0.91813 0.95788 0.45799 0.0
C863 C 0.83753 0.9016 0.41376 0.0
C864 C 0.92896 0.90278 0.37893 0.0
C865 C 0.94027 0.87937 0.39322 0.0
C866 C 0.90815 0.91909 0.39239 0.0
C867 C 0.89834 0.91181 0.42077 0.0
C868 C 0.90919 0.88793 0.43509 0.0
C869 C 0.93005 0.87202 0.42117 0.0
C870 C 0.89705 0.94445 0.37646 0.0
C871 C 0.89913 0.87949 0.46534 0.0
H872 H 0.87485 0.98749 0.47999 0.0
H873 H 0.80684 0.93996 0.44321 0.0
H874 H 0.92867 0.93911 0.46704 0.0
H875 H 0.92809 0.96254 0.43646 0.0
H876 H 0.92205 0.97567 0.47311 0.0
H877 H 0.81421 0.90039 0.41386 0.0
H878 H 0.84475 0.90415 0.39069 0.0
H879 H 0.84611 0.88151 0.42187 0.0
H880 H 0.93661 0.90863 0.35733 0.0
H881 H 0.93847 0.8539 0.43235 0.0
H882 H 0.90208 0.96351 0.38925 0.0
H883 H 0.87383 0.94328 0.37456 0.0
H884 H 0.9061 0.94665 0.35404 0.0
H885 H 0.90443 0.89602 0.48149 0.0
H886 H 0.9087 0.85959 0.47284 0.0
H887 H 0.87593 0.87716 0.46539 0.0
C888 C 0.35536 0.36434 0.13456 0.0
C889 C 0.32662 0.35853 0.13733 0.0
C890 C 0.37479 0.35429 0.1551 0.0
C891 C 0.36524 0.33806 0.1791 0.0
C892 C 0.33638 0.33107 0.18136 0.0
C893 C 0.31734 0.34134 0.16029 0.0
C894 C 0.40541 0.36204 0.15173 0.0
C895 C 0.32546 0.31382 0.20668 0.0
C896 C 0.42354 0.30204 0.22166 0.0
C897 C 0.42941 0.32196 0.24343 0.0
C898 C 0.40167 0.30623 0.20133 0.0
C899 C 0.38527 0.33081 0.20299 0.0
C900 C 0.39014 0.35022 0.22588 0.0
C901 C 0.41216 0.3456 0.24573 0.0
C902 C 0.39706 0.28509 0.17721 0.0
C903 C 0.37297 0.3766 0.22857 0.0
H904 H 0.36262 0.37718 0.11644 0.0
H905 H 0.2951 0.33681 0.16239 0.0
H906 H 0.41183 0.37585 0.17013 0.0
H907 H 0.41879 0.34312 0.15276 0.0
H908 H 0.40967 0.37301 0.13065 0.0
H909 H 0.30318 0.3076 0.20348 0.0
H910 H 0.3384 0.29478 0.20953 0.0
H911 H 0.32706 0.32601 0.22737 0.0
H912 H 0.43666 0.28365 0.21981 0.0
H913 H 0.4162 0.3609 0.26278 0.0
H914 H 0.40377 0.29406 0.15582 0.0
H915 H 0.37441 0.27986 0.17526 0.0
H916 H 0.4091 0.26559 0.18108 0.0
H917 H 0.37749 0.39046 0.2096 0.0
H918 H 0.37763 0.38817 0.24918 0.0
H919 H 0.35019 0.3717 0.22802 0.0
C920 C 0.62614 0.63411 0.6393 0.0
C921 C 0.65551 0.63557 0.64118 0.0
C922 C 0.60909 0.64315 0.66252 0.0
C923 C 0.62171 0.65395 0.68833 0.0
C924 C 0.65133 0.65667 0.68988 0.0
C925 C 0.66794 0.64747 0.66618 0.0
C926 C 0.57758 0.64006 0.65987 0.0
C927 C 0.66551 0.66812 0.71703 0.0
C928 C 0.57087 0.69027 0.74016 0.0
C929 C 0.56318 0.66825 0.75885 0.0
C930 C 0.59104 0.6864 0.71791 0.0
C931 C 0.60382 0.65995 0.7144 0.0
C932 C 0.59722 0.63813 0.73418 0.0
C933 C 0.577 0.64253 0.75609 0.0
C934 C 0.59762 0.71018 0.69728 0.0
C935 C 0.61051 0.60965 0.73131 0.0
H936 H 0.61646 0.62542 0.61973 0.0
H937 H 0.69066 0.6486 0.66768 0.0
H938 H 0.56998 0.62456 0.67617 0.0
H939 H 0.56704 0.66014 0.66485 0.0
H940 H 0.57103 0.63313 0.63757 0.0
H941 H 0.68832 0.67179 0.71351 0.0
H942 H 0.65551 0.68798 0.72386 0.0
H943 H 0.66299 0.65318 0.73549 0.0
H944 H 0.56043 0.71025 0.74218 0.0
H945 H 0.57155 0.62548 0.77067 0.0
H946 H 0.58887 0.70556 0.67516 0.0
H947 H 0.62068 0.71264 0.69474 0.0
H948 H 0.58861 0.73022 0.70507 0.0
H949 H 0.60333 0.59967 0.71059 0.0
H950 H 0.60503 0.59574 0.75 0.0
H951 H 0.63372 0.6115 0.73011 0.0
C952 C 0.65653 0.33766 0.13449 0.0
C953 C 0.67678 0.35645 0.14488 0.0
C954 C 0.63492 0.32813 0.1529 0.0
C955 C 0.63386 0.33736 0.18248 0.0
C956 C 0.65534 0.3549 0.19357 0.0
C957 C 0.67642 0.3645 0.17452 0.0
C958 C 0.6122 0.30977 0.14014 0.0
C959 C 0.65522 0.36475 0.22514 0.0
C960 C 0.56313 0.34557 0.21969 0.0
C961 C 0.56198 0.32178 0.23754 0.0
C962 C 0.5861 0.35042 0.20112 0.0
C963 C 0.60876 0.33129 0.20082 0.0
C964 C 0.60758 0.307 0.21848 0.0
C965 C 0.58401 0.30238 0.23645 0.0
C966 C 0.5863 0.3763 0.18216 0.0
C967 C 0.63157 0.28641 0.21907 0.0
H968 H 0.65663 0.3317 0.11146 0.0
H969 H 0.69221 0.37892 0.18255 0.0
H970 H 0.60824 0.29161 0.15466 0.0
H971 H 0.59229 0.32176 0.13867 0.0
H972 H 0.61766 0.30207 0.1178 0.0
H973 H 0.67515 0.37535 0.23123 0.0
H974 H 0.63762 0.37958 0.22851 0.0
H975 H 0.65185 0.34693 0.24031 0.0
H976 H 0.54603 0.36051 0.22033 0.0
H977 H 0.5833 0.28408 0.25044 0.0
H978 H 0.58978 0.37059 0.15877 0.0
H979 H 0.60387 0.39011 0.18888 0.0
H980 H 0.56635 0.38825 0.18379 0.0
H981 H 0.63638 0.2791 0.19645 0.0
H982 H 0.62692 0.26802 0.2331 0.0
H983 H 0.65078 0.29676 0.22761 0.0
C984 C 0.32929 0.65119 0.66146 0.0
C985 C 0.34229 0.6422 0.63544 0.0
C986 C 0.34545 0.66034 0.68552 0.0
C987 C 0.37516 0.66045 0.68333 0.0
C988 C 0.38818 0.65316 0.6564 0.0
C989 C 0.37158 0.64416 0.6328 0.0
C990 C 0.33082 0.66821 0.71379 0.0
C991 C 0.41978 0.65311 0.65306 0.0
C992 C 0.42375 0.69404 0.7395 0.0
C993 C 0.43273 0.67068 0.75561 0.0
C994 C 0.40392 0.69136 0.71672 0.0
C995 C 0.39291 0.66472 0.70989 0.0
C996 C 0.40096 0.64133 0.72689 0.0
C997 C 0.4207 0.64459 0.7495 0.0
C998 C 0.39563 0.7168 0.6992 0.0
C999 C 0.38967 0.61254 0.72038 0.0
H1000 H 0.30664 0.64969 0.66354 0.0
H1001 H 0.38161 0.63772 0.61247 0.0
H1002 H 0.33399 0.65146 0.73031 0.0
H1003 H 0.33989 0.68762 0.72304 0.0
H1004 H 0.30786 0.6712 0.71058 0.0
H1005 H 0.42642 0.6495 0.62992 0.0
H1006 H 0.42873 0.67321 0.66063 0.0
H1007 H 0.42894 0.63643 0.66701 0.0
H1008 H 0.43274 0.71432 0.74414 0.0
H1009 H 0.42716 0.62643 0.76197 0.0
H1010 H 0.37243 0.71798 0.69693 0.0
H1011 H 0.40453 0.7153 0.67668 0.0
H1012 H 0.4033 0.73638 0.70948 0.0
H1013 H 0.36636 0.61287 0.71983 0.0
H1014 H 0.39654 0.5969 0.73692 0.0
H1015 H 0.39702 0.60567 0.69836 0.0
C1016 C 0.8766 0.8604 0.13747 0.0
C1017 C 0.84719 0.86093 0.13937 0.0
C1018 C 0.89308 0.85202 0.16144 0.0
C1019 C 0.87983 0.844 0.18802 0.0
C1020 C 0.85011 0.84352 0.18978 0.0
C1021 C 0.83409 0.85195 0.16534 0.0
C1022 C 0.92472 0.85262 0.15859 0.0
C1023 C 0.83528 0.83512 0.21778 0.0
C1024 C 0.92718 0.80628 0.24228 0.0
C1025 C 0.93675 0.82846 0.25978 0.0
C1026 C 0.90763 0.81075 0.21958 0.0
C1027 C 0.89735 0.838 0.21437 0.0
C1028 C 0.90587 0.86018 0.23285 0.0
C1029 C 0.92548 0.85516 0.25527 0.0
C1030 C 0.89898 0.78658 0.20033 0.0
C1031 C 0.89524 0.88952 0.22814 0.0
H1032 H 0.88677 0.86684 0.11723 0.0
H1033 H 0.81136 0.85244 0.16688 0.0
H1034 H 0.93356 0.86835 0.17391 0.0
H1035 H 0.93372 0.83211 0.16477 0.0
H1036 H 0.93165 0.85782 0.13589 0.0
H1037 H 0.81216 0.83351 0.21476 0.0
H1038 H 0.84337 0.81479 0.22575 0.0
H1039 H 0.83959 0.85073 0.23522 0.0
H1040 H 0.93567 0.78556 0.24563 0.0
H1041 H 0.93243 0.8724 0.26887 0.0
H1042 H 0.90776 0.78945 0.17791 0.0
H1043 H 0.87576 0.78578 0.19815 0.0
H1044 H 0.90649 0.76629 0.20912 0.0
H1045 H 0.90322 0.89762 0.20684 0.0
H1046 H 0.90203 0.90392 0.24592 0.0
H1047 H 0.87195 0.88969 0.22699 0.0
C1048 C 0.15189 0.17038 0.62768 0.0
C1049 C 0.17258 0.15174 0.63743 0.0
C1050 C 0.13093 0.17997 0.64688 0.0
C1051 C 0.13094 0.17086 0.67653 0.0
C1052 C 0.15314 0.15388 0.68701 0.0
C1053 C 0.1736 0.14431 0.66723 0.0
C1054 C 0.1075 0.19786 0.6348 0.0
C1055 C 0.15416 0.14413 0.7186 0.0
C1056 C 0.07974 0.20193 0.73192 0.0
C1057 C 0.0589 0.18127 0.7327 0.0
C1058 C 0.10333 0.1991 0.71351 0.0
C1059 C 0.10572 0.17533 0.69521 0.0
C1060 C 0.08421 0.15494 0.69524 0.0
C1061 C 0.06123 0.15805 0.71414 0.0
C1062 C 0.12606 0.22102 0.7143 0.0
C1063 C 0.0857 0.1295 0.67567 0.0
H1064 H 0.15097 0.17598 0.60457 0.0
H1065 H 0.1898 0.1301 0.67481 0.0
H1066 H 0.08813 0.18512 0.63276 0.0
H1067 H 0.10275 0.21536 0.64995 0.0
H1068 H 0.11271 0.20649 0.61277 0.0
H1069 H 0.1748 0.1347 0.72427 0.0
H1070 H 0.15 0.16171 0.73385 0.0
H1071 H 0.13756 0.12826 0.72227 0.0
H1072 H 0.07808 0.21982 0.74639 0.0
H1073 H 0.04501 0.14218 0.71446 0.0
H1074 H 0.13057 0.22867 0.69175 0.0
H1075 H 0.14578 0.21175 0.72294 0.0
H1076 H 0.12025 0.23906 0.72838 0.0
H1077 H 0.08853 0.13587 0.65237 0.0
H1078 H 0.06651 0.11638 0.67726 0.0
H1079 H 0.10412 0.11659 0.68185 0.0
C1080 C 0.12522 0.88205 0.14521 0.0
C1081 C 0.1487 0.86727 0.13481 0.0
C1082 C 0.10959 0.87248 0.16931 0.0
C1083 C 0.11816 0.84802 0.18422 0.0
C1084 C 0.14228 0.83339 0.17455 0.0
C1085 C 0.15703 0.84295 0.14971 0.0
C1086 C 0.08374 0.8885 0.17867 0.0
C1087 C 0.15246 0.80764 0.1904 0.0
C1088 C 0.08786 0.84356 0.26117 0.0
C1089 C 0.06495 0.82568 0.25682 0.0
C1090 C 0.10659 0.84948 0.23816 0.0
C1091 C 0.10164 0.838 0.20992 0.0
C1092 C 0.07909 0.81913 0.20571 0.0
C1093 C 0.06122 0.81286 0.2294 0.0
C1094 C 0.13091 0.86899 0.24378 0.0
C1095 C 0.07267 0.80703 0.17577 0.0
H1096 H 0.11895 0.90127 0.13456 0.0
H1097 H 0.17487 0.8311 0.14179 0.0
H1098 H 0.06518 0.87449 0.17891 0.0
H1099 H 0.08655 0.89658 0.20135 0.0
H1100 H 0.07917 0.90636 0.16386 0.0
H1101 H 0.17242 0.79951 0.18106 0.0
H1102 H 0.15576 0.81233 0.21408 0.0
H1103 H 0.13631 0.79102 0.18908 0.0
H1104 H 0.09084 0.85331 0.28249 0.0
H1105 H 0.04333 0.79923 0.226 0.0
H1106 H 0.12696 0.88921 0.23268 0.0
H1107 H 0.15061 0.86027 0.23447 0.0
H1108 H 0.13409 0.87298 0.26764 0.0
H1109 H 0.06585 0.82396 0.16073 0.0
H1110 H 0.05581 0.79103 0.17667 0.0
H1111 H 0.09177 0.79749 0.16607 0.0
C1112 C 0.81396 0.14063 0.66809 0.0
C1113 C 0.81408 0.14844 0.63839 0.0
C1114 C 0.83416 0.15114 0.68765 0.0
C1115 C 0.85524 0.16939 0.67701 0.0
C1116 C 0.85419 0.17887 0.64752 0.0
C1117 C 0.83346 0.16837 0.62856 0.0
C1118 C 0.83422 0.14098 0.71911 0.0
C1119 C 0.87641 0.19808 0.63524 0.0
C1120 C 0.90625 0.20138 0.73207 0.0
C1121 C 0.9277 0.18135 0.73218 0.0
C1122 C 0.88252 0.19812 0.7139 0.0
C1123 C 0.88069 0.17461 0.69514 0.0
C1124 C 0.90294 0.15503 0.69434 0.0
C1125 C 0.926 0.1585 0.71308 0.0
C1126 C 0.85899 0.21916 0.71562 0.0
C1127 C 0.90212 0.12996 0.6742 0.0
H1128 H 0.79878 0.12541 0.67572 0.0
H1129 H 0.83368 0.17426 0.60551 0.0
H1130 H 0.85156 0.12577 0.72219 0.0
H1131 H 0.83794 0.15854 0.73452 0.0
H1132 H 0.81413 0.13062 0.72508 0.0
H1133 H 0.87018 0.20693 0.61359 0.0
H1134 H 0.88077 0.21545 0.65068 0.0
H1135 H 0.89628 0.18629 0.6323 0.0
H1136 H 0.90747 0.21895 0.74703 0.0
H1137 H 0.94273 0.14314 0.71294 0.0
H1138 H 0.84004 0.20913 0.72514 0.0
H1139 H 0.85326 0.22658 0.69329 0.0
H1140 H 0.86465 0.23742 0.72944 0.0
H1141 H 0.88451 0.11608 0.68061 0.0
H1142 H 0.92194 0.11772 0.67494 0.0
H1143 H 0.89836 0.13665 0.65115 0.0
loop_
_geom_bond_atom_site_label_1
_geom_bond_atom_site_label_2
_geom_bond_distance
_geom_bond_site_symmetry_2
_ccdc_geom_bond_type
C0 C1 1.384 . S
C0 H13 0.947 . S
C0 C35 1.382 . S
C1 C0 1.384 . S
C1 C2 1.378 . S
C2 C1 1.378 . S
C2 C3 1.378 . S
C2 H14 0.952 . S
C3 C2 1.378 . S
C3 H15 0.950 . S
C3 C34 1.383 . S
H4 C23 0.947 . S
H5 C24 0.946 1_554 S
H6 C26 0.953 . S
H7 C27 0.945 . S
H8 C29 0.952 . S
H9 C30 0.949 . S
H10 C32 0.950 . S
H11 C33 0.948 1_554 S
H12 C35 0.951 . S
H13 C0 0.947 . S
H14 C2 0.952 . S
H15 C3 0.950 . S
N16 C19 1.382 1_554 S
N16 C21 1.363 . S
N17 C19 1.371 . S
N17 C20 1.372 . S
N18 C20 1.361 1_554 S
N18 C21 1.377 . S
C19 N16 1.382 1_556 S
C19 N17 1.371 . S
C19 C22 1.480 . S
C20 N17 1.372 . S
C20 N18 1.361 1_556 S
C20 C28 1.457 . S
C21 N16 1.363 . S
C21 N18 1.377 . S
C21 C34 1.479 . S
C22 C19 1.480 . S
C22 C23 1.383 1_556 S
C22 C27 1.385 . S
C23 H4 0.947 . S
C23 C22 1.383 1_554 S
C23 C24 1.388 1_554 S
C24 H5 0.946 1_556 S
C24 C23 1.388 1_556 S
C24 C25 1.384 . S
C25 C24 1.384 . S
C25 C26 1.377 . S
C26 H6 0.953 . S
C26 C25 1.377 . S
C26 C27 1.369 . S
C27 H7 0.945 . S
C27 C22 1.385 . S
C27 C26 1.369 . S
C28 C20 1.457 . S
C28 C29 1.372 . S
C28 C33 1.364 . S
C29 H8 0.952 . S
C29 C28 1.372 . S
C29 C30 1.389 . S
C30 H9 0.949 . S
C30 C29 1.389 . S
C30 C31 1.387 . S
C31 C30 1.387 . S
C31 C32 1.372 . S
C32 H10 0.950 . S
C32 C31 1.372 . S
C32 C33 1.379 . S
C33 H11 0.948 1_556 S
C33 C28 1.364 . S
C33 C32 1.379 . S
C34 C3 1.383 . S
C34 C21 1.479 . S
C34 C35 1.398 . S
C35 C0 1.382 . S
C35 H12 0.951 . S
C35 C34 1.398 . S
C36 C37 1.384 . S
C36 H49 0.947 . S
C36 C71 1.382 . S
C37 C36 1.384 . S
C37 C38 1.378 . S
C38 C37 1.378 . S
C38 C39 1.378 . S
C38 H50 0.952 . S
C39 C38 1.378 . S
C39 H51 0.950 . S
C39 C70 1.383 . S
H40 C59 0.947 . S
H41 C60 0.946 . S
H42 C62 0.953 . S
H43 C63 0.945 . S
H44 C65 0.952 . S
H45 C66 0.949 . S
H46 C68 0.950 . S
H47 C69 0.948 . S
H48 C71 0.951 . S
H49 C36 0.947 . S
H50 C38 0.952 . S
H51 C39 0.950 . S
N52 C55 1.382 . S
N52 C57 1.363 . S
N53 C55 1.371 . S
N53 C56 1.372 . S
N54 C56 1.361 . S
N54 C57 1.377 . S
C55 N52 1.382 . S
C55 N53 1.371 . S
C55 C58 1.480 . S
C56 N53 1.372 . S
C56 N54 1.361 . S
C56 C64 1.457 . S
C57 N52 1.363 . S
C57 N54 1.377 . S
C57 C70 1.479 . S
C58 C55 1.480 . S
C58 C59 1.383 . S
C58 C63 1.385 . S
C59 H40 0.947 . S
C59 C58 1.383 . S
C59 C60 1.388 . S
C60 H41 0.946 . S
C60 C59 1.388 . S
C60 C61 1.384 . S
C61 C60 1.384 . S
C61 C62 1.377 . S
C62 H42 0.953 . S
C62 C61 1.377 . S
C62 C63 1.369 . S
C63 H43 0.945 . S
C63 C58 1.385 . S
C63 C62 1.369 . S
C64 C56 1.457 . S
C64 C65 1.372 . S
C64 C69 1.364 . S
C65 H44 0.952 . S
C65 C64 1.372 . S
C65 C66 1.389 . S
C66 H45 0.949 . S
C66 C65 1.389 . S
C66 C67 1.387 . S
C67 C66 1.387 . S
C67 C68 1.372 . S
C68 H46 0.950 . S
C68 C67 1.372 . S
C68 C69 1.379 . S
C69 H47 0.948 . S
C69 C64 1.364 . S
C69 C68 1.379 . S
C70 C39 1.383 . S
C70 C57 1.479 . S
C70 C71 1.398 . S
C71 C36 1.382 . S
C71 H48 0.951 . S
C71 C70 1.398 . S
C72 C73 1.384 . S
C72 H85 0.947 . S
C72 C107 1.382 . S
C73 C72 1.384 . S
C73 C74 1.378 . S
C74 C73 1.378 . S
C74 C75 1.378 . S
C74 H86 0.952 . S
C75 C74 1.378 . S
C75 H87 0.950 . S
C75 C106 1.383 . S
H76 C95 0.947 . S
H77 C96 0.962 . S
H78 C98 0.953 . S
H79 C99 0.945 . S
H80 C101 0.952 . S
H81 C102 0.949 . S
H82 C104 0.950 . S
H83 C105 0.948 1_554 S
H84 C107 0.951 . S
H85 C72 0.947 . S
H86 C74 0.952 . S
H87 C75 0.950 . S
N88 C91 1.382 . S
N88 C93 1.363 . S
N89 C91 1.371 1_556 S
N89 C92 1.372 . S
N90 C92 1.361 1_554 S
N90 C93 1.377 . S
C91 N88 1.382 . S
C91 N89 1.371 1_554 S
C91 C94 1.480 1_554 S
C92 N89 1.372 . S
C92 N90 1.361 1_556 S
C92 C100 1.457 . S
C93 N88 1.363 . S
C93 N90 1.377 . S
C93 C106 1.479 . S
C94 C91 1.480 1_556 S
C94 C95 1.383 1_556 S
C94 C99 1.385 . S
C95 H76 0.947 . S
C95 C94 1.383 1_554 S
C95 C96 1.388 1_554 S
C96 H77 0.962 . S
C96 C95 1.388 1_556 S
C96 C97 1.384 . S
C97 C96 1.384 . S
C97 C98 1.377 . S
C98 H78 0.953 . S
C98 C97 1.377 . S
C98 C99 1.369 . S
C99 H79 0.945 . S
C99 C94 1.385 . S
C99 C98 1.369 . S
C100 C92 1.457 . S
C100 C101 1.372 . S
C100 C105 1.364 . S
C101 H80 0.952 . S
C101 C100 1.372 . S
C101 C102 1.389 . S
C102 H81 0.949 . S
C102 C101 1.389 . S
C102 C103 1.387 . S
C103 C102 1.387 . S
C103 C104 1.372 . S
C104 H82 0.950 . S
C104 C103 1.372 . S
C104 C105 1.379 . S
C105 H83 0.948 1_556 S
C105 C100 1.364 . S
C105 C104 1.379 . S
C106 C75 1.383 . S
C106 C93 1.479 . S
C106 C107 1.398 . S
C107 C72 1.382 . S
C107 H84 0.951 . S
C107 C106 1.398 . S
C108 C109 1.384 . S
C108 H121 0.947 . S
C108 C143 1.382 . S
C109 C108 1.384 . S
C109 C110 1.378 . S
C110 C109 1.378 . S
C110 C111 1.378 . S
C110 H122 0.952 . S
C111 C110 1.378 . S
C111 H123 0.950 . S
C111 C142 1.383 . S
H112 C131 0.947 . S
H113 C132 0.946 . S
H114 C134 0.953 . S
H115 C135 0.945 . S
H116 C137 0.952 . S
H117 C138 0.949 . S
H118 C140 0.950 . S
H119 C141 0.948 . S
H120 C143 0.951 . S
H121 C108 0.947 . S
H122 C110 0.952 . S
H123 C111 0.950 . S
N124 C127 1.382 . S
N124 C129 1.363 . S
N125 C127 1.371 . S
N125 C128 1.372 . S
N126 C128 1.361 . S
N126 C129 1.377 . S
C127 N124 1.382 . S
C127 N125 1.371 . S
C127 C130 1.480 . S
C128 N125 1.372 . S
C128 N126 1.361 . S
C128 C136 1.457 . S
C129 N124 1.363 . S
C129 N126 1.377 . S
C129 C142 1.479 . S
C130 C127 1.480 . S
C130 C131 1.383 . S
C130 C135 1.385 . S
C131 H112 0.947 . S
C131 C130 1.383 . S
C131 C132 1.388 . S
C132 H113 0.946 . S
C132 C131 1.388 . S
C132 C133 1.384 . S
C133 C132 1.384 . S
C133 C134 1.377 . S
C134 H114 0.953 . S
C134 C133 1.377 . S
C134 C135 1.369 . S
C135 H115 0.945 . S
C135 C130 1.385 . S
C135 C134 1.369 . S
C136 C128 1.457 . S
C136 C137 1.372 . S
C136 C141 1.364 . S
C137 H116 0.952 . S
C137 C136 1.372 . S
C137 C138 1.389 . S
C138 H117 0.949 . S
C138 C137 1.389 . S
C138 C139 1.387 . S
C139 C138 1.387 . S
C139 C140 1.372 . S
C140 H118 0.950 . S
C140 C139 1.372 . S
C140 C141 1.379 . S
C141 H119 0.948 . S
C141 C136 1.364 . S
C141 C140 1.379 . S
C142 C111 1.383 . S
C142 C129 1.479 . S
C142 C143 1.398 . S
C143 C108 1.382 . S
C143 H120 0.951 . S
C143 C142 1.398 . S
C144 C145 1.384 . S
C144 H157 0.947 . S
C144 C179 1.382 . S
C145 C144 1.384 . S
C145 C146 1.378 . S
C146 C145 1.378 . S
C146 C147 1.378 . S
C146 H158 0.952 . S
C147 C146 1.378 . S
C147 H159 0.950 . S
C147 C178 1.383 . S
H148 C167 0.947 . S
H149 C168 0.946 1_554 S
H150 C170 0.953 . S
H151 C171 0.945 . S
H152 C173 0.952 . S
H153 C174 0.949 . S
H154 C176 0.950 . S
H155 C177 0.948 1_554 S
H156 C179 0.951 . S
H157 C144 0.947 . S
H158 C146 0.952 . S
H159 C147 0.950 . S
N160 C163 1.382 1_554 S
N160 C165 1.363 . S
N161 C163 1.371 . S
N161 C164 1.372 . S
N162 C164 1.361 1_554 S
N162 C165 1.377 . S
C163 N160 1.382 1_556 S
C163 N161 1.371 . S
C163 C166 1.480 . S
C164 N161 1.372 . S
C164 N162 1.361 1_556 S
C164 C172 1.457 . S
C165 N160 1.363 . S
C165 N162 1.377 . S
C165 C178 1.479 . S
C166 C163 1.480 . S
C166 C167 1.383 1_556 S
C166 C171 1.385 . S
C167 H148 0.947 . S
C167 C166 1.383 1_554 S
C167 C168 1.388 1_554 S
C168 H149 0.946 1_556 S
C168 C167 1.388 1_556 S
C168 C169 1.384 . S
C169 C168 1.384 . S
C169 C170 1.377 . S
C170 H150 0.953 . S
C170 C169 1.377 . S
C170 C171 1.369 . S
C171 H151 0.945 . S
C171 C166 1.385 . S
C171 C170 1.369 . S
C172 C164 1.457 . S
C172 C173 1.372 . S
C172 C177 1.364 . S
C173 H152 0.952 . S
C173 C172 1.372 . S
C173 C174 1.389 . S
C174 H153 0.949 . S
C174 C173 1.389 . S
C174 C175 1.387 . S
C175 C174 1.387 . S
C175 C176 1.372 . S
C176 H154 0.950 . S
C176 C175 1.372 . S
C176 C177 1.379 . S
C177 H155 0.948 1_556 S
C177 C172 1.364 . S
C177 C176 1.379 . S
C178 C147 1.383 . S
C178 C165 1.479 . S
C178 C179 1.398 . S
C179 C144 1.382 . S
C179 H156 0.951 . S
C179 C178 1.398 . S
C180 C181 1.384 . S
C180 H193 0.947 . S
C180 C215 1.382 . S
C181 C180 1.384 . S
C181 C182 1.378 . S
C182 C181 1.378 . S
C182 C183 1.378 . S
C182 H194 0.952 . S
C183 C182 1.378 . S
C183 H195 0.950 . S
C183 C214 1.383 . S
H184 C203 0.947 . S
H185 C204 0.946 . S
H186 C206 0.953 . S
H187 C207 0.945 . S
H188 C209 0.952 . S
H189 C210 0.949 . S
H190 C212 0.950 . S
H191 C213 0.948 . S
H192 C215 0.951 . S
H193 C180 0.947 . S
H194 C182 0.952 . S
H195 C183 0.950 . S
N196 C199 1.382 . S
N196 C201 1.363 . S
N197 C199 1.371 . S
N197 C200 1.372 . S
N198 C200 1.361 . S
N198 C201 1.377 . S
C199 N196 1.382 . S
C199 N197 1.371 . S
C199 C202 1.480 . S
C200 N197 1.372 . S
C200 N198 1.361 . S
C200 C208 1.457 . S
C201 N196 1.363 . S
C201 N198 1.377 . S
C201 C214 1.479 . S
C202 C199 1.480 . S
C202 C203 1.383 . S
C202 C207 1.385 . S
C203 H184 0.947 . S
C203 C202 1.383 . S
C203 C204 1.388 . S
C204 H185 0.946 . S
C204 C203 1.388 . S
C204 C205 1.384 . S
C205 C204 1.384 . S
C205 C206 1.377 . S
C206 H186 0.953 . S
C206 C205 1.377 . S
C206 C207 1.369 . S
C207 H187 0.945 . S
C207 C202 1.385 . S
C207 C206 1.369 . S
C208 C200 1.457 . S
C208 C209 1.372 . S
C208 C213 1.364 . S
C209 H188 0.952 . S
C209 C208 1.372 . S
C209 C210 1.389 . S
C210 H189 0.949 . S
C210 C209 1.389 . S
C210 C211 1.387 . S
C211 C210 1.387 . S
C211 C212 1.372 . S
C212 H190 0.950 . S
C212 C211 1.372 . S
C212 C213 1.379 . S
C213 H191 0.948 . S
C213 C208 1.364 . S
C213 C212 1.379 . S
C214 C183 1.383 . S
C214 C201 1.479 . S
C214 C215 1.398 . S
C215 C180 1.382 . S
C215 H192 0.951 . S
C215 C214 1.398 . S
C216 C217 1.384 . S
C216 H229 0.947 . S
C216 C251 1.382 . S
C217 C216 1.384 . S
C217 C218 1.378 . S
C218 C217 1.378 . S
C218 C219 1.378 . S
C218 H230 0.952 . S
C219 C218 1.378 . S
C219 H231 0.950 . S
C219 C250 1.383 . S
H220 C239 0.947 . S
H221 C240 0.962 . S
H222 C242 0.953 . S
H223 C243 0.945 . S
H224 C245 0.952 . S
H225 C246 0.949 . S
H226 C248 0.950 1_545 S
H227 C249 0.948 1_554 S
H228 C251 0.951 . S
H229 C216 0.947 . S
H230 C218 0.952 . S
H231 C219 0.950 . S
N232 C235 1.382 . S
N232 C237 1.363 . S
N233 C235 1.371 1_556 S
N233 C236 1.372 . S
N234 C236 1.361 1_554 S
N234 C237 1.377 . S
C235 N232 1.382 . S
C235 N233 1.371 1_554 S
C235 C238 1.480 1_554 S
C236 N233 1.372 . S
C236 N234 1.361 1_556 S
C236 C244 1.457 . S
C237 N232 1.363 . S
C237 N234 1.377 . S
C237 C250 1.479 . S
C238 C235 1.480 1_556 S
C238 C239 1.383 1_556 S
C238 C243 1.385 . S
C239 H220 0.947 . S
C239 C238 1.383 1_554 S
C239 C240 1.388 1_554 S
C240 H221 0.962 . S
C240 C239 1.388 1_556 S
C240 C241 1.384 . S
C241 C240 1.384 . S
C241 C242 1.377 . S
C242 H222 0.953 . S
C242 C241 1.377 . S
C242 C243 1.369 . S
C243 H223 0.945 . S
C243 C238 1.385 . S
C243 C242 1.369 . S
C244 C236 1.457 . S
C244 C245 1.372 . S
C244 C249 1.364 . S
C245 H224 0.952 . S
C245 C244 1.372 . S
C245 C246 1.389 . S
C246 H225 0.949 . S
C246 C245 1.389 . S
C246 C247 1.387 . S
C247 C246 1.387 . S
C247 C248 1.372 . S
C248 H226 0.950 1_565 S
C248 C247 1.372 . S
C248 C249 1.379 . S
C249 H227 0.948 1_556 S
C249 C244 1.364 . S
C249 C248 1.379 . S
C250 C219 1.383 . S
C250 C237 1.479 . S
C250 C251 1.398 . S
C251 C216 1.382 . S
C251 H228 0.951 . S
C251 C250 1.398 . S
C252 C253 1.384 . S
C252 H265 0.947 . S
C252 C287 1.382 . S
C253 C252 1.384 . S
C253 C254 1.378 . S
C254 C253 1.378 . S
C254 C255 1.378 . S
C254 H266 0.952 . S
C255 C254 1.378 . S
C255 H267 0.950 . S
C255 C286 1.383 . S
H256 C275 0.947 . S
H257 C276 0.946 . S
H258 C278 0.953 . S
H259 C279 0.945 . S
H260 C281 0.952 . S
H261 C282 0.949 . S
H262 C284 0.950 1_565 S
H263 C285 0.948 . S
H264 C287 0.951 . S
H265 C252 0.947 . S
H266 C254 0.952 . S
H267 C255 0.950 . S
N268 C271 1.382 . S
N268 C273 1.363 . S
N269 C271 1.371 . S
N269 C272 1.372 . S
N270 C272 1.361 . S
N270 C273 1.377 . S
C271 N268 1.382 . S
C271 N269 1.371 . S
C271 C274 1.480 . S
C272 N269 1.372 . S
C272 N270 1.361 . S
C272 C280 1.457 . S
C273 N268 1.363 . S
C273 N270 1.377 . S
C273 C286 1.479 . S
C274 C271 1.480 . S
C274 C275 1.383 . S
C274 C279 1.385 . S
C275 H256 0.947 . S
C275 C274 1.383 . S
C275 C276 1.388 . S
C276 H257 0.946 . S
C276 C275 1.388 . S
C276 C277 1.384 . S
C277 C276 1.384 . S
C277 C278 1.377 . S
C278 H258 0.953 . S
C278 C277 1.377 . S
C278 C279 1.369 . S
C279 H259 0.945 . S
C279 C274 1.385 . S
C279 C278 1.369 . S
C280 C272 1.457 . S
C280 C281 1.372 . S
C280 C285 1.364 . S
C281 H260 0.952 . S
C281 C280 1.372 . S
C281 C282 1.389 . S
C282 H261 0.949 . S
C282 C281 1.389 . S
C282 C283 1.387 . S
C283 C282 1.387 . S
C283 C284 1.372 . S
C284 H262 0.950 1_545 S
C284 C283 1.372 . S
C284 C285 1.379 . S
C285 H263 0.948 . S
C285 C280 1.364 . S
C285 C284 1.379 . S
C286 C255 1.383 . S
C286 C273 1.479 . S
C286 C287 1.398 . S
C287 C252 1.382 . S
C287 H264 0.951 . S
C287 C286 1.398 . S
Sc288 O291 2.025 . S
Sc288 O298 2.105 1_455 S
Sc288 O301 2.105 . S
Sc288 O304 2.105 . S
Sc288 O307 2.105 1_455 S
Sc289 O291 2.025 . S
Sc289 O299 2.105 1_455 S
Sc289 O303 2.105 . S
Sc289 O305 2.105 . S
Sc289 O309 2.105 1_455 S
Sc290 O291 2.025 . S
Sc290 O300 2.105 1_455 S
Sc290 O302 2.105 . S
Sc290 O306 2.105 . S
Sc290 O308 2.105 1_455 S
O291 Sc288 2.025 . S
O291 Sc289 2.025 . S
O291 Sc290 2.025 . S
C292 O298 1.268 . S
C292 O308 1.268 . S
C293 O299 1.268 . S
C293 O307 1.268 . S
C294 O300 1.268 . S
C294 O309 1.268 . S
C295 O301 1.268 . S
C295 O305 1.268 . S
C296 O302 1.268 . S
C296 O304 1.268 . S
C297 O303 1.268 . S
C297 O306 1.268 . S
O298 Sc288 2.105 1_655 S
O298 C292 1.268 . S
O299 Sc289 2.105 1_655 S
O299 C293 1.268 . S
O300 Sc290 2.105 1_655 S
O300 C294 1.268 . S
O301 Sc288 2.105 . S
O301 C295 1.268 . S
O302 Sc290 2.105 . S
O302 C296 1.268 . S
O303 Sc289 2.105 . S
O303 C297 1.268 . S
O304 Sc288 2.105 . S
O304 C296 1.268 . S
O305 Sc289 2.105 . S
O305 C295 1.268 . S
O306 Sc290 2.105 . S
O306 C297 1.268 . S
O307 Sc288 2.105 1_655 S
O307 C293 1.268 . S
O308 Sc290 2.105 1_655 S
O308 C292 1.268 . S
O309 Sc289 2.105 1_655 S
O309 C294 1.268 . S
Sc310 O313 2.025 . S
Sc310 O320 2.105 . S
Sc310 O323 2.105 1_455 S
Sc310 O326 2.105 1_455 S
Sc310 O329 2.105 . S
Sc311 O313 2.025 . S
Sc311 O321 2.105 . S
Sc311 O325 2.105 1_455 S
Sc311 O327 2.105 1_455 S
Sc311 O331 2.105 . S
Sc312 O313 2.025 . S
Sc312 O322 2.105 . S
Sc312 O324 2.105 1_455 S
Sc312 O328 2.105 1_455 S
Sc312 O330 2.105 . S
O313 Sc310 2.025 . S
O313 Sc311 2.025 . S
O313 Sc312 2.025 . S
C314 O320 1.268 . S
C314 O330 1.268 . S
C315 O321 1.268 . S
C315 O329 1.268 . S
C316 O322 1.268 . S
C316 O331 1.268 . S
C317 O323 1.268 . S
C317 O327 1.268 . S
C318 O324 1.268 . S
C318 O326 1.268 . S
C319 O325 1.268 . S
C319 O328 1.268 . S
O320 Sc310 2.105 . S
O320 C314 1.268 . S
O321 Sc311 2.105 . S
O321 C315 1.268 . S
O322 Sc312 2.105 . S
O322 C316 1.268 . S
O323 Sc310 2.105 1_655 S
O323 C317 1.268 . S
O324 Sc312 2.105 1_655 S
O324 C318 1.268 . S
O325 Sc311 2.105 1_655 S
O325 C319 1.268 . S
O326 Sc310 2.105 1_655 S
O326 C318 1.268 . S
O327 Sc311 2.105 1_655 S
O327 C317 1.268 . S
O328 Sc312 2.105 1_655 S
O328 C319 1.268 . S
O329 Sc310 2.105 . S
O329 C315 1.268 . S
O330 Sc312 2.105 . S
O330 C314 1.268 . S
O331 Sc311 2.105 . S
O331 C316 1.268 . S
Sc332 O335 2.025 . S
Sc332 O342 2.105 . S
Sc332 O345 2.105 . S
Sc332 O348 2.105 . S
Sc332 O351 2.105 . S
Sc333 O335 2.025 . S
Sc333 O343 2.105 . S
Sc333 O347 2.105 . S
Sc333 O349 2.105 . S
Sc333 O353 2.105 . S
Sc334 O335 2.025 . S
Sc334 O344 2.105 . S
Sc334 O346 2.105 . S
Sc334 O350 2.105 . S
Sc334 O352 2.105 . S
O335 Sc332 2.025 . S
O335 Sc333 2.025 . S
O335 Sc334 2.025 . S
C336 O342 1.268 . S
C336 O352 1.268 . S
C337 O343 1.268 . S
C337 O351 1.268 . S
C338 O344 1.268 . S
C338 O353 1.268 . S
C339 O345 1.268 . S
C339 O349 1.268 . S
C340 O346 1.268 . S
C340 O348 1.268 . S
C341 O347 1.268 . S
C341 O350 1.268 . S
O342 Sc332 2.105 . S
O342 C336 1.268 . S
O343 Sc333 2.105 . S
O343 C337 1.268 . S
O344 Sc334 2.105 . S
O344 C338 1.268 . S
O345 Sc332 2.105 . S
O345 C339 1.268 . S
O346 Sc334 2.105 . S
O346 C340 1.268 . S
O347 Sc333 2.105 . S
O347 C341 1.268 . S
O348 Sc332 2.105 . S
O348 C340 1.268 . S
O349 Sc333 2.105 . S
O349 C339 1.268 . S
O350 Sc334 2.105 . S
O350 C341 1.268 . S
O351 Sc332 2.105 . S
O351 C337 1.268 . S
O352 Sc334 2.105 . S
O352 C336 1.268 . S
O353 Sc333 2.105 . S
O353 C338 1.268 . S
Sc354 O357 2.025 . S
Sc354 O364 2.105 . S
Sc354 O367 2.105 . S
Sc354 O370 2.105 . S
Sc354 O373 2.105 . S
Sc355 O357 2.025 . S
Sc355 O365 2.105 . S
Sc355 O369 2.105 . S
Sc355 O371 2.105 . S
Sc355 O375 2.105 . S
Sc356 O357 2.025 . S
Sc356 O366 2.105 . S
Sc356 O368 2.105 . S
Sc356 O372 2.105 . S
Sc356 O374 2.105 . S
O357 Sc354 2.025 . S
O357 Sc355 2.025 . S
O357 Sc356 2.025 . S
C358 O364 1.268 . S
C358 O374 1.268 . S
C359 O365 1.268 . S
C359 O373 1.268 . S
C360 O366 1.268 . S
C360 O375 1.268 . S
C361 O367 1.268 . S
C361 O371 1.268 . S
C362 O368 1.268 . S
C362 O370 1.268 . S
C363 O369 1.268 . S
C363 O372 1.268 . S
O364 Sc354 2.105 . S
O364 C358 1.268 . S
O365 Sc355 2.105 . S
O365 C359 1.268 . S
O366 Sc356 2.105 . S
O366 C360 1.268 . S
O367 Sc354 2.105 . S
O367 C361 1.268 . S
O368 Sc356 2.105 . S
O368 C362 1.268 . S
O369 Sc355 2.105 . S
O369 C363 1.268 . S
O370 Sc354 2.105 . S
O370 C362 1.268 . S
O371 Sc355 2.105 . S
O371 C361 1.268 . S
O372 Sc356 2.105 . S
O372 C363 1.268 . S
O373 Sc354 2.105 . S
O373 C359 1.268 . S
O374 Sc356 2.105 . S
O374 C358 1.268 . S
O375 Sc355 2.105 . S
O375 C360 1.268 . S
C376 C377 1.391 . S
C376 C378 1.394 . S
C376 H392 0.931 . S
C377 C376 1.391 . S
C377 C381 1.376 . S
C378 C376 1.394 . S
C378 C379 1.369 . S
C378 C382 1.531 . S
C379 C378 1.369 . S
C379 C380 1.410 . S
C379 C387 1.503 . S
C380 C379 1.410 . S
C380 C381 1.392 . S
C380 C383 1.511 . S
C381 C377 1.376 . S
C381 C380 1.392 . S
C381 H393 0.929 . S
C382 C378 1.531 . S
C382 H394 0.960 . S
C382 H395 0.962 . S
C382 H396 0.960 . S
C383 C380 1.511 . S
C383 H397 0.961 . S
C383 H398 0.961 . S
C383 H399 0.961 . S
C384 C385 1.370 . S
C384 C386 1.363 . S
C384 H400 0.931 . S
C385 C384 1.370 . S
C385 C389 1.408 . S
C386 C384 1.363 . S
C386 C387 1.370 . S
C386 C390 1.524 . S
C387 C379 1.503 . S
C387 C386 1.370 . S
C387 C388 1.403 . S
C388 C387 1.403 . S
C388 C389 1.404 . S
C388 C391 1.539 . S
C389 C385 1.408 . S
C389 C388 1.404 . S
C389 H401 0.930 . S
C390 C386 1.524 . S
C390 H402 0.956 . S
C390 H403 0.961 . S
C390 H404 0.961 . S
C391 C388 1.539 . S
C391 H405 0.958 . S
C391 H406 0.961 . S
C391 H407 0.960 . S
H392 C376 0.931 . S
H393 C381 0.929 . S
H394 C382 0.960 . S
H395 C382 0.962 . S
H396 C382 0.960 . S
H397 C383 0.961 . S
H398 C383 0.961 . S
H399 C383 0.961 . S
H400 C384 0.931 . S
H401 C389 0.930 . S
H402 C390 0.956 . S
H403 C390 0.961 . S
H404 C390 0.961 . S
H405 C391 0.958 . S
H406 C391 0.961 . S
H407 C391 0.960 . S
C408 C409 1.391 . S
C408 C410 1.394 . S
C408 H424 0.931 . S
C409 C408 1.391 . S
C409 C413 1.376 . S
C410 C408 1.394 . S
C410 C411 1.369 . S
C410 C414 1.531 . S
C411 C410 1.369 . S
C411 C412 1.410 . S
C411 C419 1.503 . S
C412 C411 1.410 . S
C412 C413 1.392 . S
C412 C415 1.511 . S
C413 C409 1.376 . S
C413 C412 1.392 . S
C413 H425 0.929 . S
C414 C410 1.531 . S
C414 H426 0.960 . S
C414 H427 0.962 . S
C414 H428 0.960 . S
C415 C412 1.511 . S
C415 H429 0.961 . S
C415 H430 0.961 . S
C415 H431 0.961 . S
C416 C417 1.370 . S
C416 C418 1.363 . S
C416 H432 0.931 . S
C417 C416 1.370 . S
C417 C421 1.408 . S
C418 C416 1.363 . S
C418 C419 1.370 . S
C418 C422 1.524 . S
C419 C411 1.503 . S
C419 C418 1.370 . S
C419 C420 1.403 . S
C420 C419 1.403 . S
C420 C421 1.404 . S
C420 C423 1.539 . S
C421 C417 1.408 . S
C421 C420 1.404 . S
C421 H433 0.930 . S
C422 C418 1.524 . S
C422 H434 0.956 . S
C422 H435 0.961 . S
C422 H436 0.961 . S
C423 C420 1.539 . S
C423 H437 0.958 . S
C423 H438 0.961 . S
C423 H439 0.960 . S
H424 C408 0.931 . S
H425 C413 0.929 . S
H426 C414 0.960 . S
H427 C414 0.962 . S
H428 C414 0.960 . S
H429 C415 0.961 . S
H430 C415 0.961 . S
H431 C415 0.961 . S
H432 C416 0.931 . S
H433 C421 0.930 . S
H434 C422 0.956 . S
H435 C422 0.961 . S
H436 C422 0.961 . S
H437 C423 0.958 . S
H438 C423 0.961 . S
H439 C423 0.960 . S
C440 C441 1.391 . S
C440 C442 1.394 . S
C440 H456 0.931 . S
C441 C440 1.391 . S
C441 C445 1.376 . S
C442 C440 1.394 . S
C442 C443 1.369 . S
C442 C446 1.531 . S
C443 C442 1.369 . S
C443 C444 1.410 . S
C443 C451 1.503 . S
C444 C443 1.410 . S
C444 C445 1.392 . S
C444 C447 1.511 . S
C445 C441 1.376 . S
C445 C444 1.392 . S
C445 H457 0.929 . S
C446 C442 1.531 . S
C446 H458 0.960 . S
C446 H459 0.962 . S
C446 H460 0.960 . S
C447 C444 1.511 . S
C447 H461 0.961 . S
C447 H462 0.961 . S
C447 H463 0.961 . S
C448 C449 1.370 . S
C448 C450 1.363 . S
C448 H464 0.931 . S
C449 C448 1.370 . S
C449 C453 1.408 . S
C450 C448 1.363 . S
C450 C451 1.370 . S
C450 C454 1.524 . S
C451 C443 1.503 . S
C451 C450 1.370 . S
C451 C452 1.403 . S
C452 C451 1.403 . S
C452 C453 1.404 . S
C452 C455 1.539 . S
C453 C449 1.408 . S
C453 C452 1.404 . S
C453 H465 0.930 . S
C454 C450 1.524 . S
C454 H466 0.956 . S
C454 H467 0.961 . S
C454 H468 0.961 . S
C455 C452 1.539 . S
C455 H469 0.958 . S
C455 H470 0.961 . S
C455 H471 0.960 . S
H456 C440 0.931 . S
H457 C445 0.929 . S
H458 C446 0.960 . S
H459 C446 0.962 . S
H460 C446 0.960 . S
H461 C447 0.961 . S
H462 C447 0.961 . S
H463 C447 0.961 . S
H464 C448 0.931 . S
H465 C453 0.930 . S
H466 C454 0.956 . S
H467 C454 0.961 . S
H468 C454 0.961 . S
H469 C455 0.958 . S
H470 C455 0.961 . S
H471 C455 0.960 . S
C472 C473 1.391 . S
C472 C474 1.394 . S
C472 H488 0.931 . S
C473 C472 1.391 . S
C473 C477 1.376 . S
C474 C472 1.394 . S
C474 C475 1.369 . S
C474 C478 1.531 . S
C475 C474 1.369 . S
C475 C476 1.410 . S
C475 C483 1.503 . S
C476 C475 1.410 . S
C476 C477 1.392 . S
C476 C479 1.511 . S
C477 C473 1.376 . S
C477 C476 1.392 . S
C477 H489 0.929 . S
C478 C474 1.531 . S
C478 H490 0.960 . S
C478 H491 0.962 . S
C478 H492 0.960 . S
C479 C476 1.511 . S
C479 H493 0.961 . S
C479 H494 0.961 . S
C479 H495 0.961 . S
C480 C481 1.370 . S
C480 C482 1.363 . S
C480 H496 0.931 . S
C481 C480 1.370 . S
C481 C485 1.408 . S
C482 C480 1.363 . S
C482 C483 1.370 . S
C482 C486 1.524 . S
C483 C475 1.503 . S
C483 C482 1.370 . S
C483 C484 1.403 . S
C484 C483 1.403 . S
C484 C485 1.404 . S
C484 C487 1.539 . S
C485 C481 1.408 . S
C485 C484 1.404 . S
C485 H497 0.930 . S
C486 C482 1.524 . S
C486 H498 0.956 . S
C486 H499 0.961 . S
C486 H500 0.961 . S
C487 C484 1.539 . S
C487 H501 0.958 . S
C487 H502 0.961 . S
C487 H503 0.960 . S
H488 C472 0.931 . S
H489 C477 0.929 . S
H490 C478 0.960 . S
H491 C478 0.962 . S
H492 C478 0.960 . S
H493 C479 0.961 . S
H494 C479 0.961 . S
H495 C479 0.961 . S
H496 C480 0.931 . S
H497 C485 0.930 . S
H498 C486 0.956 . S
H499 C486 0.961 . S
H500 C486 0.961 . S
H501 C487 0.958 . S
H502 C487 0.961 . S
H503 C487 0.960 . S
C504 C505 1.391 . S
C504 C506 1.394 . S
C504 H520 0.931 . S
C505 C504 1.391 . S
C505 C509 1.376 . S
C506 C504 1.394 . S
C506 C507 1.369 . S
C506 C510 1.531 . S
C507 C506 1.369 . S
C507 C508 1.410 . S
C507 C515 1.503 . S
C508 C507 1.410 . S
C508 C509 1.392 . S
C508 C511 1.511 . S
C509 C505 1.376 . S
C509 C508 1.392 . S
C509 H521 0.929 . S
C510 C506 1.531 . S
C510 H522 0.960 . S
C510 H523 0.962 . S
C510 H524 0.960 . S
C511 C508 1.511 . S
C511 H525 0.961 . S
C511 H526 0.961 . S
C511 H527 0.961 . S
C512 C513 1.370 . S
C512 C514 1.363 . S
C512 H528 0.931 . S
C513 C512 1.370 . S
C513 C517 1.408 . S
C514 C512 1.363 . S
C514 C515 1.370 . S
C514 C518 1.524 . S
C515 C507 1.503 . S
C515 C514 1.370 . S
C515 C516 1.403 . S
C516 C515 1.403 . S
C516 C517 1.404 . S
C516 C519 1.539 . S
C517 C513 1.408 . S
C517 C516 1.404 . S
C517 H529 0.930 . S
C518 C514 1.524 . S
C518 H530 0.956 . S
C518 H531 0.961 . S
C518 H532 0.961 . S
C519 C516 1.539 . S
C519 H533 0.958 . S
C519 H534 0.961 . S
C519 H535 0.960 . S
H520 C504 0.931 . S
H521 C509 0.929 . S
H522 C510 0.960 . S
H523 C510 0.962 . S
H524 C510 0.960 . S
H525 C511 0.961 . S
H526 C511 0.961 . S
H527 C511 0.961 . S
H528 C512 0.931 . S
H529 C517 0.930 . S
H530 C518 0.956 . S
H531 C518 0.961 . S
H532 C518 0.961 . S
H533 C519 0.958 . S
H534 C519 0.961 . S
H535 C519 0.960 . S
C536 C537 1.391 . S
C536 C538 1.394 . S
C536 H552 0.931 . S
C537 C536 1.391 . S
C537 C541 1.376 . S
C538 C536 1.394 . S
C538 C539 1.369 . S
C538 C542 1.531 . S
C539 C538 1.369 . S
C539 C540 1.410 . S
C539 C547 1.503 . S
C540 C539 1.410 . S
C540 C541 1.392 . S
C540 C543 1.511 . S
C541 C537 1.376 . S
C541 C540 1.392 . S
C541 H553 0.929 . S
C542 C538 1.531 . S
C542 H554 0.960 . S
C542 H555 0.962 . S
C542 H556 0.960 . S
C543 C540 1.511 . S
C543 H557 0.961 . S
C543 H558 0.961 . S
C543 H559 0.961 . S
C544 C545 1.370 . S
C544 C546 1.363 . S
C544 H560 0.931 . S
C545 C544 1.370 . S
C545 C549 1.408 . S
C546 C544 1.363 . S
C546 C547 1.370 . S
C546 C550 1.524 . S
C547 C539 1.503 . S
C547 C546 1.370 . S
C547 C548 1.403 . S
C548 C547 1.403 . S
C548 C549 1.404 . S
C548 C551 1.539 . S
C549 C545 1.408 . S
C549 C548 1.404 . S
C549 H561 0.930 . S
C550 C546 1.524 . S
C550 H562 0.956 . S
C550 H563 0.961 . S
C550 H564 0.961 . S
C551 C548 1.539 . S
C551 H565 0.958 . S
C551 H566 0.961 . S
C551 H567 0.960 . S
H552 C536 0.931 . S
H553 C541 0.929 . S
H554 C542 0.960 . S
H555 C542 0.962 . S
H556 C542 0.960 . S
H557 C543 0.961 . S
H558 C543 0.961 . S
H559 C543 0.961 . S
H560 C544 0.931 . S
H561 C549 0.930 . S
H562 C550 0.956 . S
H563 C550 0.961 . S
H564 C550 0.961 . S
H565 C551 0.958 . S
H566 C551 0.961 . S
H567 C551 0.960 . S
C568 C569 1.391 . S
C568 C570 1.394 . S
C568 H584 0.931 . S
C569 C568 1.391 . S
C569 C573 1.376 . S
C570 C568 1.394 . S
C570 C571 1.369 . S
C570 C574 1.531 . S
C571 C570 1.369 . S
C571 C572 1.410 . S
C571 C579 1.503 . S
C572 C571 1.410 . S
C572 C573 1.392 . S
C572 C575 1.511 . S
C573 C569 1.376 . S
C573 C572 1.392 . S
C573 H585 0.929 . S
C574 C570 1.531 . S
C574 H586 0.960 . S
C574 H587 0.962 . S
C574 H588 0.960 . S
C575 C572 1.511 . S
C575 H589 0.961 . S
C575 H590 0.961 . S
C575 H591 0.961 . S
C576 C577 1.370 . S
C576 C578 1.363 . S
C576 H592 0.931 . S
C577 C576 1.370 . S
C577 C581 1.408 . S
C578 C576 1.363 . S
C578 C579 1.370 . S
C578 C582 1.524 . S
C579 C571 1.503 . S
C579 C578 1.370 . S
C579 C580 1.403 . S
C580 C579 1.403 . S
C580 C581 1.404 . S
C580 C583 1.539 . S
C581 C577 1.408 . S
C581 C580 1.404 . S
C581 H593 0.930 . S
C582 C578 1.524 . S
C582 H594 0.956 . S
C582 H595 0.961 . S
C582 H596 0.961 . S
C583 C580 1.539 . S
C583 H597 0.958 . S
C583 H598 0.961 . S
C583 H599 0.960 . S
H584 C568 0.931 . S
H585 C573 0.929 . S
H586 C574 0.960 . S
H587 C574 0.962 . S
H588 C574 0.960 . S
H589 C575 0.961 . S
H590 C575 0.961 . S
H591 C575 0.961 . S
H592 C576 0.931 . S
H593 C581 0.930 . S
H594 C582 0.956 . S
H595 C582 0.961 . S
H596 C582 0.961 . S
H597 C583 0.958 . S
H598 C583 0.961 . S
H599 C583 0.960 . S
C600 C601 1.391 . S
C600 C602 1.394 . S
C600 H616 0.931 . S
C601 C600 1.391 . S
C601 C605 1.376 . S
C602 C600 1.394 . S
C602 C603 1.369 . S
C602 C606 1.531 . S
C603 C602 1.369 . S
C603 C604 1.410 . S
C603 C611 1.503 . S
C604 C603 1.410 . S
C604 C605 1.392 . S
C604 C607 1.511 . S
C605 C601 1.376 . S
C605 C604 1.392 . S
C605 H617 0.929 . S
C606 C602 1.531 . S
C606 H618 0.960 . S
C606 H619 0.962 . S
C606 H620 0.960 . S
C607 C604 1.511 . S
C607 H621 0.961 . S
C607 H622 0.961 . S
C607 H623 0.961 . S
C608 C609 1.370 . S
C608 C610 1.363 . S
C608 H624 0.931 . S
C609 C608 1.370 . S
C609 C613 1.408 . S
C610 C608 1.363 . S
C610 C611 1.370 . S
C610 C614 1.524 . S
C611 C603 1.503 . S
C611 C610 1.370 . S
C611 C612 1.403 . S
C612 C611 1.403 . S
C612 C613 1.404 . S
C612 C615 1.539 . S
C613 C609 1.408 . S
C613 C612 1.404 . S
C613 H625 0.930 . S
C614 C610 1.524 . S
C614 H626 0.956 . S
C614 H627 0.961 . S
C614 H628 0.961 . S
C615 C612 1.539 . S
C615 H629 0.958 . S
C615 H630 0.961 . S
C615 H631 0.960 . S
H616 C600 0.931 . S
H617 C605 0.929 . S
H618 C606 0.960 . S
H619 C606 0.962 . S
H620 C606 0.960 . S
H621 C607 0.961 . S
H622 C607 0.961 . S
H623 C607 0.961 . S
H624 C608 0.931 . S
H625 C613 0.930 . S
H626 C614 0.956 . S
H627 C614 0.961 . S
H628 C614 0.961 . S
H629 C615 0.958 . S
H630 C615 0.961 . S
H631 C615 0.960 . S
C632 C633 1.391 . S
C632 C634 1.394 . S
C632 H648 0.931 . S
C633 C632 1.391 . S
C633 C637 1.376 . S
C634 C632 1.394 . S
C634 C635 1.369 . S
C634 C638 1.531 . S
C635 C634 1.369 . S
C635 C636 1.410 . S
C635 C643 1.503 . S
C636 C635 1.410 . S
C636 C637 1.392 . S
C636 C639 1.511 . S
C637 C633 1.376 . S
C637 C636 1.392 . S
C637 H649 0.929 . S
C638 C634 1.531 . S
C638 H650 0.960 . S
C638 H651 0.962 . S
C638 H652 0.960 . S
C639 C636 1.511 . S
C639 H653 0.961 . S
C639 H654 0.961 . S
C639 H655 0.961 . S
C640 C641 1.370 . S
C640 C642 1.363 . S
C640 H656 0.931 . S
C641 C640 1.370 . S
C641 C645 1.408 . S
C642 C640 1.363 . S
C642 C643 1.370 . S
C642 C646 1.524 . S
C643 C635 1.503 . S
C643 C642 1.370 . S
C643 C644 1.403 . S
C644 C643 1.403 . S
C644 C645 1.404 . S
C644 C647 1.539 . S
C645 C641 1.408 . S
C645 C644 1.404 . S
C645 H657 0.930 . S
C646 C642 1.524 . S
C646 H658 0.956 . S
C646 H659 0.961 . S
C646 H660 0.961 . S
C647 C644 1.539 . S
C647 H661 0.958 . S
C647 H662 0.961 . S
C647 H663 0.960 . S
H648 C632 0.931 . S
H649 C637 0.929 . S
H650 C638 0.960 . S
H651 C638 0.962 . S
H652 C638 0.960 . S
H653 C639 0.961 . S
H654 C639 0.961 . S
H655 C639 0.961 . S
H656 C640 0.931 . S
H657 C645 0.930 . S
H658 C646 0.956 . S
H659 C646 0.961 . S
H660 C646 0.961 . S
H661 C647 0.958 . S
H662 C647 0.961 . S
H663 C647 0.960 . S
C664 C665 1.391 . S
C664 C666 1.394 . S
C664 H680 0.931 . S
C665 C664 1.391 . S
C665 C669 1.376 . S
C666 C664 1.394 . S
C666 C667 1.369 . S
C666 C670 1.531 . S
C667 C666 1.369 . S
C667 C668 1.410 . S
C667 C675 1.503 . S
C668 C667 1.410 . S
C668 C669 1.392 . S
C668 C671 1.511 . S
C669 C665 1.376 . S
C669 C668 1.392 . S
C669 H681 0.929 . S
C670 C666 1.531 . S
C670 H682 0.960 . S
C670 H683 0.962 . S
C670 H684 0.960 . S
C671 C668 1.511 . S
C671 H685 0.961 . S
C671 H686 0.961 . S
C671 H687 0.961 . S
C672 C673 1.370 . S
C672 C674 1.363 . S
C672 H688 0.931 . S
C673 C672 1.370 . S
C673 C677 1.408 . S
C674 C672 1.363 . S
C674 C675 1.370 . S
C674 C678 1.524 . S
C675 C667 1.503 . S
C675 C674 1.370 . S
C675 C676 1.403 . S
C676 C675 1.403 . S
C676 C677 1.404 . S
C676 C679 1.539 . S
C677 C673 1.408 . S
C677 C676 1.404 . S
C677 H689 0.930 . S
C678 C674 1.524 . S
C678 H690 0.956 . S
C678 H691 0.961 . S
C678 H692 0.961 . S
C679 C676 1.539 . S
C679 H693 0.958 . S
C679 H694 0.961 . S
C679 H695 0.960 . S
H680 C664 0.931 . S
H681 C669 0.929 . S
H682 C670 0.960 . S
H683 C670 0.962 . S
H684 C670 0.960 . S
H685 C671 0.961 . S
H686 C671 0.961 . S
H687 C671 0.961 . S
H688 C672 0.931 . S
H689 C677 0.930 . S
H690 C678 0.956 . S
H691 C678 0.961 . S
H692 C678 0.961 . S
H693 C679 0.958 . S
H694 C679 0.961 . S
H695 C679 0.960 . S
C696 C697 1.391 . S
C696 C698 1.394 . S
C696 H712 0.931 . S
C697 C696 1.391 . S
C697 C701 1.376 . S
C698 C696 1.394 . S
C698 C699 1.369 . S
C698 C702 1.531 . S
C699 C698 1.369 . S
C699 C700 1.410 . S
C699 C707 1.503 . S
C700 C699 1.410 . S
C700 C701 1.392 . S
C700 C703 1.511 . S
C701 C697 1.376 . S
C701 C700 1.392 . S
C701 H713 0.929 . S
C702 C698 1.531 . S
C702 H714 0.960 . S
C702 H715 0.962 . S
C702 H716 0.960 . S
C703 C700 1.511 . S
C703 H717 0.961 . S
C703 H718 0.961 . S
C703 H719 0.961 . S
C704 C705 1.370 . S
C704 C706 1.363 . S
C704 H720 0.931 . S
C705 C704 1.370 . S
C705 C709 1.408 . S
C706 C704 1.363 . S
C706 C707 1.370 . S
C706 C710 1.524 . S
C707 C699 1.503 . S
C707 C706 1.370 . S
C707 C708 1.403 . S
C708 C707 1.403 . S
C708 C709 1.404 . S
C708 C711 1.539 . S
C709 C705 1.408 . S
C709 C708 1.404 . S
C709 H721 0.930 . S
C710 C706 1.524 . S
C710 H722 0.956 . S
C710 H723 0.961 . S
C710 H724 0.961 . S
C711 C708 1.539 . S
C711 H725 0.958 . S
C711 H726 0.961 . S
C711 H727 0.960 . S
H712 C696 0.931 . S
H713 C701 0.929 . S
H714 C702 0.960 . S
H715 C702 0.962 . S
H716 C702 0.960 . S
H717 C703 0.961 . S
H718 C703 0.961 . S
H719 C703 0.961 . S
H720 C704 0.931 . S
H721 C709 0.930 . S
H722 C710 0.956 . S
H723 C710 0.961 . S
H724 C710 0.961 . S
H725 C711 0.958 . S
H726 C711 0.961 . S
H727 C711 0.960 . S
C728 C729 1.391 . S
C728 C730 1.394 . S
C728 H744 0.931 . S
C729 C728 1.391 . S
C729 C733 1.376 . S
C730 C728 1.394 . S
C730 C731 1.369 . S
C730 C734 1.531 . S
C731 C730 1.369 . S
C731 C732 1.410 . S
C731 C739 1.503 . S
C732 C731 1.410 . S
C732 C733 1.392 . S
C732 C735 1.511 . S
C733 C729 1.376 . S
C733 C732 1.392 . S
C733 H745 0.929 . S
C734 C730 1.531 . S
C734 H746 0.960 . S
C734 H747 0.962 . S
C734 H748 0.960 . S
C735 C732 1.511 . S
C735 H749 0.961 . S
C735 H750 0.961 . S
C735 H751 0.961 . S
C736 C737 1.370 . S
C736 C738 1.363 . S
C736 H752 0.931 . S
C737 C736 1.370 . S
C737 C741 1.408 . S
C738 C736 1.363 . S
C738 C739 1.370 . S
C738 C742 1.524 . S
C739 C731 1.503 . S
C739 C738 1.370 . S
C739 C740 1.403 . S
C740 C739 1.403 . S
C740 C741 1.404 . S
C740 C743 1.539 . S
C741 C737 1.408 . S
C741 C740 1.404 . S
C741 H753 0.930 . S
C742 C738 1.524 . S
C742 H754 0.956 . S
C742 H755 0.961 . S
C742 H756 0.961 . S
C743 C740 1.539 . S
C743 H757 0.958 . S
C743 H758 0.961 . S
C743 H759 0.960 . S
H744 C728 0.931 . S
H745 C733 0.929 . S
H746 C734 0.960 . S
H747 C734 0.962 . S
H748 C734 0.960 . S
H749 C735 0.961 . S
H750 C735 0.961 . S
H751 C735 0.961 . S
H752 C736 0.931 . S
H753 C741 0.930 . S
H754 C742 0.956 . S
H755 C742 0.961 . S
H756 C742 0.961 . S
H757 C743 0.958 . S
H758 C743 0.961 . S
H759 C743 0.960 . S
C760 C761 1.391 . S
C760 C762 1.394 . S
C760 H776 0.931 1_545 S
C761 C760 1.391 . S
C761 C765 1.376 . S
C762 C760 1.394 . S
C762 C763 1.369 . S
C762 C766 1.531 . S
C763 C762 1.369 . S
C763 C764 1.410 . S
C763 C771 1.503 . S
C764 C763 1.410 . S
C764 C765 1.392 . S
C764 C767 1.511 . S
C765 C761 1.376 . S
C765 C764 1.392 . S
C765 H777 0.929 . S
C766 C762 1.531 . S
C766 H778 0.960 . S
C766 H779 0.962 . S
C766 H780 0.960 1_545 S
C767 C764 1.511 . S
C767 H781 0.961 . S
C767 H782 0.961 . S
C767 H783 0.961 . S
C768 C769 1.370 . S
C768 C770 1.363 . S
C768 H784 0.931 . S
C769 C768 1.370 . S
C769 C773 1.408 . S
C770 C768 1.363 . S
C770 C771 1.370 . S
C770 C774 1.524 . S
C771 C763 1.503 . S
C771 C770 1.370 . S
C771 C772 1.403 . S
C772 C771 1.403 . S
C772 C773 1.404 . S
C772 C775 1.539 . S
C773 C769 1.408 . S
C773 C772 1.404 . S
C773 H785 0.930 . S
C774 C770 1.524 . S
C774 H786 0.956 . S
C774 H787 0.961 . S
C774 H788 0.961 . S
C775 C772 1.539 . S
C775 H789 0.958 . S
C775 H790 0.961 . S
C775 H791 0.960 . S
H776 C760 0.931 1_565 S
H777 C765 0.929 . S
H778 C766 0.960 . S
H779 C766 0.962 . S
H780 C766 0.960 1_565 S
H781 C767 0.961 . S
H782 C767 0.961 . S
H783 C767 0.961 . S
H784 C768 0.931 . S
H785 C773 0.930 . S
H786 C774 0.956 . S
H787 C774 0.961 . S
H788 C774 0.961 . S
H789 C775 0.958 . S
H790 C775 0.961 . S
H791 C775 0.960 . S
C792 C793 1.391 . S
C792 C794 1.394 . S
C792 H808 0.931 . S
C793 C792 1.391 . S
C793 C797 1.376 . S
C794 C792 1.394 . S
C794 C795 1.369 . S
C794 C798 1.531 . S
C795 C794 1.369 . S
C795 C796 1.410 . S
C795 C803 1.503 . S
C796 C795 1.410 . S
C796 C797 1.392 . S
C796 C799 1.511 . S
C797 C793 1.376 . S
C797 C796 1.392 . S
C797 H809 0.929 . S
C798 C794 1.531 . S
C798 H810 0.960 . S
C798 H811 0.962 . S
C798 H812 0.960 . S
C799 C796 1.511 . S
C799 H813 0.961 . S
C799 H814 0.961 . S
C799 H815 0.961 . S
C800 C801 1.370 . S
C800 C802 1.363 . S
C800 H816 0.931 . S
C801 C800 1.370 . S
C801 C805 1.408 . S
C802 C800 1.363 . S
C802 C803 1.370 . S
C802 C806 1.524 . S
C803 C795 1.503 . S
C803 C802 1.370 . S
C803 C804 1.403 . S
C804 C803 1.403 . S
C804 C805 1.404 . S
C804 C807 1.539 . S
C805 C801 1.408 . S
C805 C804 1.404 . S
C805 H817 0.930 . S
C806 C802 1.524 . S
C806 H818 0.956 . S
C806 H819 0.961 . S
C806 H820 0.961 . S
C807 C804 1.539 . S
C807 H821 0.958 . S
C807 H822 0.961 . S
C807 H823 0.960 . S
H808 C792 0.931 . S
H809 C797 0.929 . S
H810 C798 0.960 . S
H811 C798 0.962 . S
H812 C798 0.960 . S
H813 C799 0.961 . S
H814 C799 0.961 . S
H815 C799 0.961 . S
H816 C800 0.931 . S
H817 C805 0.930 . S
H818 C806 0.956 . S
H819 C806 0.961 . S
H820 C806 0.961 . S
H821 C807 0.958 . S
H822 C807 0.961 . S
H823 C807 0.960 . S
C824 C825 1.391 . S
C824 C826 1.394 . S
C824 H840 0.931 . S
C825 C824 1.391 . S
C825 C829 1.376 . S
C826 C824 1.394 . S
C826 C827 1.369 . S
C826 C830 1.531 . S
C827 C826 1.369 . S
C827 C828 1.410 . S
C827 C835 1.503 . S
C828 C827 1.410 . S
C828 C829 1.392 . S
C828 C831 1.511 . S
C829 C825 1.376 . S
C829 C828 1.392 . S
C829 H841 0.929 . S
C830 C826 1.531 . S
C830 H842 0.960 . S
C830 H843 0.962 . S
C830 H844 0.960 . S
C831 C828 1.511 . S
C831 H845 0.961 . S
C831 H846 0.961 . S
C831 H847 0.961 . S
C832 C833 1.370 . S
C832 C834 1.363 . S
C832 H848 0.931 . S
C833 C832 1.370 . S
C833 C837 1.408 . S
C834 C832 1.363 . S
C834 C835 1.370 . S
C834 C838 1.524 . S
C835 C827 1.503 . S
C835 C834 1.370 . S
C835 C836 1.403 . S
C836 C835 1.403 . S
C836 C837 1.404 . S
C836 C839 1.539 . S
C837 C833 1.408 . S
C837 C836 1.404 . S
C837 H849 0.930 . S
C838 C834 1.524 . S
C838 H850 0.956 . S
C838 H851 0.961 . S
C838 H852 0.961 . S
C839 C836 1.539 . S
C839 H853 0.958 . S
C839 H854 0.961 . S
C839 H855 0.960 . S
H840 C824 0.931 . S
H841 C829 0.929 . S
H842 C830 0.960 . S
H843 C830 0.962 . S
H844 C830 0.960 . S
H845 C831 0.961 . S
H846 C831 0.961 . S
H847 C831 0.961 . S
H848 C832 0.931 . S
H849 C837 0.930 . S
H850 C838 0.956 . S
H851 C838 0.961 . S
H852 C838 0.961 . S
H853 C839 0.958 . S
H854 C839 0.961 . S
H855 C839 0.960 . S
C856 C857 1.391 . S
C856 C858 1.394 . S
C856 H872 0.931 . S
C857 C856 1.391 . S
C857 C861 1.376 . S
C858 C856 1.394 . S
C858 C859 1.369 . S
C858 C862 1.531 . S
C859 C858 1.369 . S
C859 C860 1.410 . S
C859 C867 1.503 . S
C860 C859 1.410 . S
C860 C861 1.392 . S
C860 C863 1.511 . S
C861 C857 1.376 . S
C861 C860 1.392 . S
C861 H873 0.929 . S
C862 C858 1.531 . S
C862 H874 0.960 . S
C862 H875 0.962 . S
C862 H876 0.960 . S
C863 C860 1.511 . S
C863 H877 0.961 . S
C863 H878 0.961 . S
C863 H879 0.961 . S
C864 C865 1.370 . S
C864 C866 1.363 . S
C864 H880 0.931 . S
C865 C864 1.370 . S
C865 C869 1.408 . S
C866 C864 1.363 . S
C866 C867 1.370 . S
C866 C870 1.524 . S
C867 C859 1.503 . S
C867 C866 1.370 . S
C867 C868 1.403 . S
C868 C867 1.403 . S
C868 C869 1.404 . S
C868 C871 1.539 . S
C869 C865 1.408 . S
C869 C868 1.404 . S
C869 H881 0.930 . S
C870 C866 1.524 . S
C870 H882 0.956 . S
C870 H883 0.961 . S
C870 H884 0.961 . S
C871 C868 1.539 . S
C871 H885 0.958 . S
C871 H886 0.961 . S
C871 H887 0.960 . S
H872 C856 0.931 . S
H873 C861 0.929 . S
H874 C862 0.960 . S
H875 C862 0.962 . S
H876 C862 0.960 . S
H877 C863 0.961 . S
H878 C863 0.961 . S
H879 C863 0.961 . S
H880 C864 0.931 . S
H881 C869 0.930 . S
H882 C870 0.956 . S
H883 C870 0.961 . S
H884 C870 0.961 . S
H885 C871 0.958 . S
H886 C871 0.961 . S
H887 C871 0.960 . S
C888 C889 1.391 . S
C888 C890 1.394 . S
C888 H904 0.931 . S
C889 C888 1.391 . S
C889 C893 1.376 . S
C890 C888 1.394 . S
C890 C891 1.369 . S
C890 C894 1.531 . S
C891 C890 1.369 . S
C891 C892 1.410 . S
C891 C899 1.503 . S
C892 C891 1.410 . S
C892 C893 1.392 . S
C892 C895 1.511 . S
C893 C889 1.376 . S
C893 C892 1.392 . S
C893 H905 0.929 . S
C894 C890 1.531 . S
C894 H906 0.960 . S
C894 H907 0.962 . S
C894 H908 0.960 . S
C895 C892 1.511 . S
C895 H909 0.961 . S
C895 H910 0.961 . S
C895 H911 0.961 . S
C896 C897 1.370 . S
C896 C898 1.363 . S
C896 H912 0.931 . S
C897 C896 1.370 . S
C897 C901 1.408 . S
C898 C896 1.363 . S
C898 C899 1.370 . S
C898 C902 1.524 . S
C899 C891 1.503 . S
C899 C898 1.370 . S
C899 C900 1.403 . S
C900 C899 1.403 . S
C900 C901 1.404 . S
C900 C903 1.539 . S
C901 C897 1.408 . S
C901 C900 1.404 . S
C901 H913 0.930 . S
C902 C898 1.524 . S
C902 H914 0.956 . S
C902 H915 0.961 . S
C902 H916 0.961 . S
C903 C900 1.539 . S
C903 H917 0.958 . S
C903 H918 0.961 . S
C903 H919 0.960 . S
H904 C888 0.931 . S
H905 C893 0.929 . S
H906 C894 0.960 . S
H907 C894 0.962 . S
H908 C894 0.960 . S
H909 C895 0.961 . S
H910 C895 0.961 . S
H911 C895 0.961 . S
H912 C896 0.931 . S
H913 C901 0.930 . S
H914 C902 0.956 . S
H915 C902 0.961 . S
H916 C902 0.961 . S
H917 C903 0.958 . S
H918 C903 0.961 . S
H919 C903 0.960 . S
C920 C921 1.391 . S
C920 C922 1.394 . S
C920 H936 0.931 . S
C921 C920 1.391 . S
C921 C925 1.376 . S
C922 C920 1.394 . S
C922 C923 1.369 . S
C922 C926 1.531 . S
C923 C922 1.369 . S
C923 C924 1.410 . S
C923 C931 1.503 . S
C924 C923 1.410 . S
C924 C925 1.392 . S
C924 C927 1.511 . S
C925 C921 1.376 . S
C925 C924 1.392 . S
C925 H937 0.929 . S
C926 C922 1.531 . S
C926 H938 0.960 . S
C926 H939 0.962 . S
C926 H940 0.960 . S
C927 C924 1.511 . S
C927 H941 0.961 . S
C927 H942 0.961 . S
C927 H943 0.961 . S
C928 C929 1.370 . S
C928 C930 1.363 . S
C928 H944 0.931 . S
C929 C928 1.370 . S
C929 C933 1.408 . S
C930 C928 1.363 . S
C930 C931 1.370 . S
C930 C934 1.524 . S
C931 C923 1.503 . S
C931 C930 1.370 . S
C931 C932 1.403 . S
C932 C931 1.403 . S
C932 C933 1.404 . S
C932 C935 1.539 . S
C933 C929 1.408 . S
C933 C932 1.404 . S
C933 H945 0.930 . S
C934 C930 1.524 . S
C934 H946 0.956 . S
C934 H947 0.961 . S
C934 H948 0.961 . S
C935 C932 1.539 . S
C935 H949 0.958 . S
C935 H950 0.961 . S
C935 H951 0.960 . S
H936 C920 0.931 . S
H937 C925 0.929 . S
H938 C926 0.960 . S
H939 C926 0.962 . S
H940 C926 0.960 . S
H941 C927 0.961 . S
H942 C927 0.961 . S
H943 C927 0.961 . S
H944 C928 0.931 . S
H945 C933 0.930 . S
H946 C934 0.956 . S
H947 C934 0.961 . S
H948 C934 0.961 . S
H949 C935 0.958 . S
H950 C935 0.961 . S
H951 C935 0.960 . S
C952 C953 1.391 . S
C952 C954 1.394 . S
C952 H968 0.931 . S
C953 C952 1.391 . S
C953 C957 1.376 . S
C954 C952 1.394 . S
C954 C955 1.369 . S
C954 C958 1.531 . S
C955 C954 1.369 . S
C955 C956 1.410 . S
C955 C963 1.503 . S
C956 C955 1.410 . S
C956 C957 1.392 . S
C956 C959 1.511 . S
C957 C953 1.376 . S
C957 C956 1.392 . S
C957 H969 0.929 . S
C958 C954 1.531 . S
C958 H970 0.960 . S
C958 H971 0.962 . S
C958 H972 0.960 . S
C959 C956 1.511 . S
C959 H973 0.961 . S
C959 H974 0.961 . S
C959 H975 0.961 . S
C960 C961 1.370 . S
C960 C962 1.363 . S
C960 H976 0.931 . S
C961 C960 1.370 . S
C961 C965 1.408 . S
C962 C960 1.363 . S
C962 C963 1.370 . S
C962 C966 1.524 . S
C963 C955 1.503 . S
C963 C962 1.370 . S
C963 C964 1.403 . S
C964 C963 1.403 . S
C964 C965 1.404 . S
C964 C967 1.539 . S
C965 C961 1.408 . S
C965 C964 1.404 . S
C965 H977 0.930 . S
C966 C962 1.524 . S
C966 H978 0.956 . S
C966 H979 0.961 . S
C966 H980 0.961 . S
C967 C964 1.539 . S
C967 H981 0.958 . S
C967 H982 0.961 . S
C967 H983 0.960 . S
H968 C952 0.931 . S
H969 C957 0.929 . S
H970 C958 0.960 . S
H971 C958 0.962 . S
H972 C958 0.960 . S
H973 C959 0.961 . S
H974 C959 0.961 . S
H975 C959 0.961 . S
H976 C960 0.931 . S
H977 C965 0.930 . S
H978 C966 0.956 . S
H979 C966 0.961 . S
H980 C966 0.961 . S
H981 C967 0.958 . S
H982 C967 0.961 . S
H983 C967 0.960 . S
C984 C985 1.391 . S
C984 C986 1.394 . S
C984 H1000 0.931 . S
C985 C984 1.391 . S
C985 C989 1.376 . S
C986 C984 1.394 . S
C986 C987 1.369 . S
C986 C990 1.531 . S
C987 C986 1.369 . S
C987 C988 1.410 . S
C987 C995 1.503 . S
C988 C987 1.410 . S
C988 C989 1.392 . S
C988 C991 1.511 . S
C989 C985 1.376 . S
C989 C988 1.392 . S
C989 H1001 0.929 . S
C990 C986 1.531 . S
C990 H1002 0.960 . S
C990 H1003 0.962 . S
C990 H1004 0.960 . S
C991 C988 1.511 . S
C991 H1005 0.961 . S
C991 H1006 0.961 . S
C991 H1007 0.961 . S
C992 C993 1.370 . S
C992 C994 1.363 . S
C992 H1008 0.931 . S
C993 C992 1.370 . S
C993 C997 1.408 . S
C994 C992 1.363 . S
C994 C995 1.370 . S
C994 C998 1.524 . S
C995 C987 1.503 . S
C995 C994 1.370 . S
C995 C996 1.403 . S
C996 C995 1.403 . S
C996 C997 1.404 . S
C996 C999 1.539 . S
C997 C993 1.408 . S
C997 C996 1.404 . S
C997 H1009 0.930 . S
C998 C994 1.524 . S
C998 H1010 0.956 . S
C998 H1011 0.961 . S
C998 H1012 0.961 . S
C999 C996 1.539 . S
C999 H1013 0.958 . S
C999 H1014 0.961 . S
C999 H1015 0.960 . S
H1000 C984 0.931 . S
H1001 C989 0.929 . S
H1002 C990 0.960 . S
H1003 C990 0.962 . S
H1004 C990 0.960 . S
H1005 C991 0.961 . S
H1006 C991 0.961 . S
H1007 C991 0.961 . S
H1008 C992 0.931 . S
H1009 C997 0.930 . S
H1010 C998 0.956 . S
H1011 C998 0.961 . S
H1012 C998 0.961 . S
H1013 C999 0.958 . S
H1014 C999 0.961 . S
H1015 C999 0.960 . S
C1016 C1017 1.391 . S
C1016 C1018 1.394 . S
C1016 H1032 0.931 . S
C1017 C1016 1.391 . S
C1017 C1021 1.376 . S
C1018 C1016 1.394 . S
C1018 C1019 1.369 . S
C1018 C1022 1.531 . S
C1019 C1018 1.369 . S
C1019 C1020 1.410 . S
C1019 C1027 1.503 . S
C1020 C1019 1.410 . S
C1020 C1021 1.392 . S
C1020 C1023 1.511 . S
C1021 C1017 1.376 . S
C1021 C1020 1.392 . S
C1021 H1033 0.929 . S
C1022 C1018 1.531 . S
C1022 H1034 0.960 . S
C1022 H1035 0.962 . S
C1022 H1036 0.960 . S
C1023 C1020 1.511 . S
C1023 H1037 0.961 . S
C1023 H1038 0.961 . S
C1023 H1039 0.961 . S
C1024 C1025 1.370 . S
C1024 C1026 1.363 . S
C1024 H1040 0.931 . S
C1025 C1024 1.370 . S
C1025 C1029 1.408 . S
C1026 C1024 1.363 . S
C1026 C1027 1.370 . S
C1026 C1030 1.524 . S
C1027 C1019 1.503 . S
C1027 C1026 1.370 . S
C1027 C1028 1.403 . S
C1028 C1027 1.403 . S
C1028 C1029 1.404 . S
C1028 C1031 1.539 . S
C1029 C1025 1.408 . S
C1029 C1028 1.404 . S
C1029 H1041 0.930 . S
C1030 C1026 1.524 . S
C1030 H1042 0.956 . S
C1030 H1043 0.961 . S
C1030 H1044 0.961 . S
C1031 C1028 1.539 . S
C1031 H1045 0.958 . S
C1031 H1046 0.961 . S
C1031 H1047 0.960 . S
H1032 C1016 0.931 . S
H1033 C1021 0.929 . S
H1034 C1022 0.960 . S
H1035 C1022 0.962 . S
H1036 C1022 0.960 . S
H1037 C1023 0.961 . S
H1038 C1023 0.961 . S
H1039 C1023 0.961 . S
H1040 C1024 0.931 . S
H1041 C1029 0.930 . S
H1042 C1030 0.956 . S
H1043 C1030 0.961 . S
H1044 C1030 0.961 . S
H1045 C1031 0.958 . S
H1046 C1031 0.961 . S
H1047 C1031 0.960 . S
C1048 C1049 1.391 . S
C1048 C1050 1.394 . S
C1048 H1064 0.931 . S
C1049 C1048 1.391 . S
C1049 C1053 1.376 . S
C1050 C1048 1.394 . S
C1050 C1051 1.369 . S
C1050 C1054 1.531 . S
C1051 C1050 1.369 . S
C1051 C1052 1.410 . S
C1051 C1059 1.503 . S
C1052 C1051 1.410 . S
C1052 C1053 1.392 . S
C1052 C1055 1.511 . S
C1053 C1049 1.376 . S
C1053 C1052 1.392 . S
C1053 H1065 0.929 . S
C1054 C1050 1.531 . S
C1054 H1066 0.960 . S
C1054 H1067 0.962 . S
C1054 H1068 0.960 . S
C1055 C1052 1.511 . S
C1055 H1069 0.961 . S
C1055 H1070 0.961 . S
C1055 H1071 0.961 . S
C1056 C1057 1.370 . S
C1056 C1058 1.363 . S
C1056 H1072 0.931 . S
C1057 C1056 1.370 . S
C1057 C1061 1.408 . S
C1058 C1056 1.363 . S
C1058 C1059 1.370 . S
C1058 C1062 1.524 . S
C1059 C1051 1.503 . S
C1059 C1058 1.370 . S
C1059 C1060 1.403 . S
C1060 C1059 1.403 . S
C1060 C1061 1.404 . S
C1060 C1063 1.539 . S
C1061 C1057 1.408 . S
C1061 C1060 1.404 . S
C1061 H1073 0.930 . S
C1062 C1058 1.524 . S
C1062 H1074 0.956 . S
C1062 H1075 0.961 . S
C1062 H1076 0.961 . S
C1063 C1060 1.539 . S
C1063 H1077 0.958 . S
C1063 H1078 0.961 . S
C1063 H1079 0.960 . S
H1064 C1048 0.931 . S
H1065 C1053 0.929 . S
H1066 C1054 0.960 . S
H1067 C1054 0.962 . S
H1068 C1054 0.960 . S
H1069 C1055 0.961 . S
H1070 C1055 0.961 . S
H1071 C1055 0.961 . S
H1072 C1056 0.931 . S
H1073 C1061 0.930 . S
H1074 C1062 0.956 . S
H1075 C1062 0.961 . S
H1076 C1062 0.961 . S
H1077 C1063 0.958 . S
H1078 C1063 0.961 . S
H1079 C1063 0.960 . S
C1080 C1081 1.391 . S
C1080 C1082 1.394 . S
C1080 H1096 0.931 . S
C1081 C1080 1.391 . S
C1081 C1085 1.376 . S
C1082 C1080 1.394 . S
C1082 C1083 1.369 . S
C1082 C1086 1.531 . S
C1083 C1082 1.369 . S
C1083 C1084 1.410 . S
C1083 C1091 1.503 . S
C1084 C1083 1.410 . S
C1084 C1085 1.392 . S
C1084 C1087 1.511 . S
C1085 C1081 1.376 . S
C1085 C1084 1.392 . S
C1085 H1097 0.929 . S
C1086 C1082 1.531 . S
C1086 H1098 0.960 . S
C1086 H1099 0.962 . S
C1086 H1100 0.960 . S
C1087 C1084 1.511 . S
C1087 H1101 0.961 . S
C1087 H1102 0.961 . S
C1087 H1103 0.961 . S
C1088 C1089 1.370 . S
C1088 C1090 1.363 . S
C1088 H1104 0.931 . S
C1089 C1088 1.370 . S
C1089 C1093 1.408 . S
C1090 C1088 1.363 . S
C1090 C1091 1.370 . S
C1090 C1094 1.524 . S
C1091 C1083 1.503 . S
C1091 C1090 1.370 . S
C1091 C1092 1.403 . S
C1092 C1091 1.403 . S
C1092 C1093 1.404 . S
C1092 C1095 1.539 . S
C1093 C1089 1.408 . S
C1093 C1092 1.404 . S
C1093 H1105 0.930 . S
C1094 C1090 1.524 . S
C1094 H1106 0.956 . S
C1094 H1107 0.961 . S
C1094 H1108 0.961 . S
C1095 C1092 1.539 . S
C1095 H1109 0.958 . S
C1095 H1110 0.961 . S
C1095 H1111 0.960 . S
H1096 C1080 0.931 . S
H1097 C1085 0.929 . S
H1098 C1086 0.960 . S
H1099 C1086 0.962 . S
H1100 C1086 0.960 . S
H1101 C1087 0.961 . S
H1102 C1087 0.961 . S
H1103 C1087 0.961 . S
H1104 C1088 0.931 . S
H1105 C1093 0.930 . S
H1106 C1094 0.956 . S
H1107 C1094 0.961 . S
H1108 C1094 0.961 . S
H1109 C1095 0.958 . S
H1110 C1095 0.961 . S
H1111 C1095 0.960 . S
C1112 C1113 1.391 . S
C1112 C1114 1.394 . S
C1112 H1128 0.931 . S
C1113 C1112 1.391 . S
C1113 C1117 1.376 . S
C1114 C1112 1.394 . S
C1114 C1115 1.369 . S
C1114 C1118 1.531 . S
C1115 C1114 1.369 . S
C1115 C1116 1.410 . S
C1115 C1123 1.503 . S
C1116 C1115 1.410 . S
C1116 C1117 1.392 . S
C1116 C1119 1.511 . S
C1117 C1113 1.376 . S
C1117 C1116 1.392 . S
C1117 H1129 0.929 . S
C1118 C1114 1.531 . S
C1118 H1130 0.960 . S
C1118 H1131 0.962 . S
C1118 H1132 0.960 . S
C1119 C1116 1.511 . S
C1119 H1133 0.961 . S
C1119 H1134 0.961 . S
C1119 H1135 0.961 . S
C1120 C1121 1.370 . S
C1120 C1122 1.363 . S
C1120 H1136 0.931 . S
C1121 C1120 1.370 . S
C1121 C1125 1.408 . S
C1122 C1120 1.363 . S
C1122 C1123 1.370 . S
C1122 C1126 1.524 . S
C1123 C1115 1.503 . S
C1123 C1122 1.370 . S
C1123 C1124 1.403 . S
C1124 C1123 1.403 . S
C1124 C1125 1.404 . S
C1124 C1127 1.539 . S
C1125 C1121 1.408 . S
C1125 C1124 1.404 . S
C1125 H1137 0.930 . S
C1126 C1122 1.524 . S
C1126 H1138 0.956 . S
C1126 H1139 0.961 . S
C1126 H1140 0.961 . S
C1127 C1124 1.539 . S
C1127 H1141 0.958 . S
C1127 H1142 0.961 . S
C1127 H1143 0.960 . S
H1128 C1112 0.931 . S
H1129 C1117 0.929 . S
H1130 C1118 0.960 . S
H1131 C1118 0.962 . S
H1132 C1118 0.960 . S
H1133 C1119 0.961 . S
H1134 C1119 0.961 . S
H1135 C1119 0.961 . S
H1136 C1120 0.931 . S
H1137 C1125 0.930 . S
H1138 C1126 0.956 . S
H1139 C1126 0.961 . S
H1140 C1126 0.961 . S
H1141 C1127 0.958 . S
H1142 C1127 0.961 . S
H1143 C1127 0.960 . S
C377 C25 1.514 . S
C385 C314 1.519 . S
C417 C292 1.512 . S
C409 C61 1.527 . S
C449 C318 1.525 . S
C441 C97 1.549 . S
C481 C296 1.511 . S
C473 C133 1.546 . S
C513 C358 1.528 . S
C505 C169 1.494 . S
C545 C336 1.510 . S
C537 C205 1.530 . S
C569 C241 1.559 . S
C577 C362 1.510 . S
C609 C340 1.524 . S
C601 C277 1.548 . S
C633 C31 1.539 . S
C641 C363 1.567 . S
C673 C341 1.561 . S
C665 C67 1.510 . S
C697 C103 1.557 . S
C705 C360 1.570 . S
C729 C139 1.538 . S
C737 C338 1.558 . S
C769 C319 1.568 . S
C761 C175 1.539 1_545 S
C793 C211 1.501 1_565 S
C801 C297 1.558 . S
C833 C316 1.558 . S
C825 C247 1.533 1_545 S
C865 C294 1.567 . S
C857 C283 1.547 1_565 S
C897 C337 1.530 . S
C889 C1 1.524 . S
C929 C359 1.530 . S
C921 C37 1.521 . S
C953 C73 1.543 . S
C961 C339 1.538 . S
C993 C361 1.526 . S
C985 C109 1.531 . S
C1025 C293 1.529 . S
C1017 C145 1.520 . S
C1049 C181 1.483 . S
C1057 C315 1.522 . S
C1081 C217 1.520 . S
C1089 C295 1.526 . S
C1113 C253 1.518 . S
C1121 C317 1.530 . S
