# Generated by pormake.
# Topology cml, (3,6)-cn, num edge types: 1
# Building blocks:
#     Node 0, Type 0, BuildingBlock: CUQRIR_clean_linker_1, # of connection points: 3
#     Node 1, Type 0, BuildingBlock: CUQRIR_clean_linker_1, # of connection points: 3
#     Node 2, Type 0, BuildingBlock: CUQRIR_clean_linker_1, # of connection points: 3
#     Node 3, Type 0, BuildingBlock: CUQRIR_clean_linker_1, # of connection points: 3
#     Node 4, Type 0, BuildingBlock: CUQRIR_clean_linker_1, # of connection points: 3
#     Node 5, Type 0, BuildingBlock: CUQRIR_clean_linker_1, # of connection points: 3
#     Node 6, Type 0, BuildingBlock: CUQRIR_clean_linker_1, # of connection points: 3
#     Node 7, Type 0, BuildingBlock: CUQRIR_clean_linker_1, # of connection points: 3
#     Node 8, Type 1, BuildingBlock: OJICUG_clean_sbu_0, # of connection points: 6
#     Node 9, Type 1, BuildingBlock: OJICUG_clean_sbu_0, # of connection points: 6
#     Node 10, Type 1, BuildingBlock: OJICUG_clean_sbu_0, # of connection points: 6
#     Node 11, Type 1, BuildingBlock: OJICUG_clean_sbu_0, # of connection points: 6
#     Edge 12, Type (0, 1), BuildingBlock: XUDNAN_clean_linker_2, # of connection points: 2
#     Edge 13, Type (0, 1), BuildingBlock: XUDNAN_clean_linker_2, # of connection points: 2
#     Edge 14, Type (0, 1), BuildingBlock: XUDNAN_clean_linker_2, # of connection points: 2
#     Edge 15, Type (0, 1), BuildingBlock: XUDNAN_clean_linker_2, # of connection points: 2
#     Edge 16, Type (0, 1), BuildingBlock: XUDNAN_clean_linker_2, # of connection points: 2
#     Edge 17, Type (0, 1), BuildingBlock: XUDNAN_clean_linker_2, # of connection points: 2
#     Edge 18, Type (0, 1), BuildingBlock: XUDNAN_clean_linker_2, # of connection points: 2
#     Edge 19, Type (0, 1), BuildingBlock: XUDNAN_clean_linker_2, # of connection points: 2
#     Edge 20, Type (0, 1), BuildingBlock: XUDNAN_clean_linker_2, # of connection points: 2
#     Edge 21, Type (0, 1), BuildingBlock: XUDNAN_clean_linker_2, # of connection points: 2
#     Edge 22, Type (0, 1), BuildingBlock: XUDNAN_clean_linker_2, # of connection points: 2
#     Edge 23, Type (0, 1), BuildingBlock: XUDNAN_clean_linker_2, # of connection points: 2
#     Edge 24, Type (0, 1), BuildingBlock: XUDNAN_clean_linker_2, # of connection points: 2
#     Edge 25, Type (0, 1), BuildingBlock: XUDNAN_clean_linker_2, # of connection points: 2
#     Edge 26, Type (0, 1), BuildingBlock: XUDNAN_clean_linker_2, # of connection points: 2
#     Edge 27, Type (0, 1), BuildingBlock: XUDNAN_clean_linker_2, # of connection points: 2
#     Edge 28, Type (0, 1), BuildingBlock: XUDNAN_clean_linker_2, # of connection points: 2
#     Edge 29, Type (0, 1), BuildingBlock: XUDNAN_clean_linker_2, # of connection points: 2
#     Edge 30, Type (0, 1), BuildingBlock: XUDNAN_clean_linker_2, # of connection points: 2
#     Edge 31, Type (0, 1), BuildingBlock: XUDNAN_clean_linker_2, # of connection points: 2
#     Edge 32, Type (0, 1), BuildingBlock: XUDNAN_clean_linker_2, # of connection points: 2
#     Edge 33, Type (0, 1), BuildingBlock: XUDNAN_clean_linker_2, # of connection points: 2
#     Edge 34, Type (0, 1), BuildingBlock: XUDNAN_clean_linker_2, # of connection points: 2
#     Edge 35, Type (0, 1), BuildingBlock: XUDNAN_clean_linker_2, # of connection points: 2
# Relax obj value: 0.003
# Max RMSD: 0.059
# Mean RMSD: 0.045
data_MOF--net-cml--node1-OJICUG_clean_sbu_0--node2-CUQRIR_clean_linker_1--edge1-XUDNAN_clean_linker_2
_symmetry_space_group_name_H-M    P1
_symmetry_Int_Tables_number       1
_symmetry_cell_setting            triclinic
loop_
_symmetry_equiv_pos_as_xyz
'x, y, z'
_cell_length_a     37.926134
_cell_length_b     37.159762
_cell_length_c     32.141138
_cell_angle_alpha  90.01653
_cell_angle_beta   89.97241
_cell_angle_gamma 90.037056
loop_
_atom_site_label
_atom_site_type_symbol
_atom_site_fract_x
_atom_site_fract_y
_atom_site_fract_z
_atom_type_partial_charge
C0 C 0.25309 0.34536 0.02099 0.0
N1 N 0.2773 0.37178 0.02529 0.0
N2 N 0.23649 0.3477 0.98379 0.0
C3 C 0.2475 0.31567 0.05211 0.0
C4 C 0.2516 0.37668 0.96542 0.0
N5 N 0.27645 0.39121 0.99064 0.0
C6 C 0.24433 0.3887 0.92163 0.0
H7 H 0.26658 0.2937 0.04589 0.0
H8 H 0.22037 0.30463 0.04975 0.0
H9 H 0.25221 0.32574 0.08415 0.0
H10 H 0.21637 0.38395 0.91325 0.0
H11 H 0.26105 0.37286 0.90001 0.0
H12 H 0.25062 0.41766 0.91763 0.0
C13 C 0.75096 0.6431 0.52826 0.0
N14 N 0.72631 0.61694 0.53104 0.0
N15 N 0.76795 0.64175 0.4912 0.0
C16 C 0.75614 0.67204 0.56041 0.0
C17 C 0.75266 0.61362 0.47137 0.0
N18 N 0.72726 0.59873 0.49551 0.0
C19 C 0.76042 0.60287 0.42721 0.0
H20 H 0.7366 0.69377 0.55518 0.0
H21 H 0.78305 0.68366 0.55832 0.0
H22 H 0.75173 0.66098 0.59207 0.0
H23 H 0.78863 0.60718 0.41971 0.0
H24 H 0.7445 0.61985 0.40594 0.0
H25 H 0.7536 0.57422 0.42174 0.0
C26 C 0.74768 0.34665 0.03237 0.0
N27 N 0.7216 0.37145 0.03239 0.0
N28 N 0.77221 0.35476 0.00318 0.0
C29 C 0.74776 0.31328 0.05899 0.0
C30 C 0.75998 0.38535 0.98538 0.0
N31 N 0.72927 0.39555 0.00331 0.0
C32 C 0.77773 0.40494 0.95031 0.0
H33 H 0.77463 0.30259 0.06401 0.0
H34 H 0.73208 0.2921 0.04316 0.0
H35 H 0.73536 0.3188 0.08962 0.0
H36 H 0.80661 0.40016 0.95068 0.0
H37 H 0.77238 0.43426 0.95215 0.0
H38 H 0.76702 0.3948 0.9204 0.0
C39 C 0.26405 0.666 0.52625 0.0
N40 N 0.2868 0.63811 0.52232 0.0
N41 N 0.24167 0.66722 0.4933 0.0
C42 C 0.26267 0.69105 0.56307 0.0
C43 C 0.2517 0.63903 0.46928 0.0
N44 N 0.27901 0.62141 0.487 0.0
C45 C 0.2341 0.62807 0.42926 0.0
H46 H 0.24868 0.67743 0.589 0.0
H47 H 0.24874 0.7164 0.55535 0.0
H48 H 0.28945 0.69799 0.57409 0.0
H49 H 0.24489 0.64465 0.40352 0.0
H50 H 0.20525 0.63281 0.43101 0.0
H51 H 0.23895 0.59941 0.42171 0.0
C52 C 0.73488 0.85625 0.03335 0.0
N53 N 0.7662 0.87319 0.03827 0.0
N54 N 0.72019 0.86478 0.99619 0.0
C55 C 0.71786 0.83267 0.0657 0.0
C56 C 0.74362 0.888 0.97895 0.0
N57 N 0.7713 0.89341 0.00477 0.0
C58 C 0.74149 0.90201 0.93505 0.0
H59 H 0.7268 0.80449 0.06151 0.0
H60 H 0.68871 0.83336 0.06272 0.0
H61 H 0.72553 0.84153 0.09741 0.0
H62 H 0.72287 0.925 0.93422 0.0
H63 H 0.73135 0.88084 0.91383 0.0
H64 H 0.76744 0.91146 0.92351 0.0
C65 C 0.25278 0.14001 0.53902 0.0
N66 N 0.22324 0.11958 0.53904 0.0
N67 N 0.26836 0.14015 0.50108 0.0
C68 C 0.26418 0.16335 0.57483 0.0
C69 C 0.2476 0.11807 0.47824 0.0
N70 N 0.22017 0.10575 0.50115 0.0
C71 C 0.25128 0.113 0.432 0.0
H72 H 0.24967 0.18924 0.57383 0.0
H73 H 0.29286 0.16912 0.57294 0.0
H74 H 0.25799 0.14995 0.60482 0.0
H75 H 0.2795 0.1107 0.42334 0.0
H76 H 0.24026 0.13687 0.41585 0.0
H77 H 0.23702 0.08859 0.42136 0.0
C78 C 0.24843 0.84144 0.04046 0.0
N79 N 0.22391 0.86779 0.0441 0.0
N80 N 0.26173 0.84074 1.00131 0.0
C81 C 0.25753 0.81485 0.07402 0.0
C82 C 0.24463 0.86778 0.98155 0.0
N83 N 0.22173 0.88425 0.00749 0.0
C84 C 0.24798 0.87608 0.93587 0.0
H85 H 0.28539 0.80619 0.07158 0.0
H86 H 0.24062 0.79067 0.0704 0.0
H87 H 0.25297 0.82651 0.10535 0.0
H88 H 0.22531 0.86403 0.91908 0.0
H89 H 0.27286 0.86516 0.92283 0.0
H90 H 0.24732 0.90555 0.93062 0.0
C91 C 0.74971 0.15965 0.54096 0.0
N92 N 0.77359 0.13266 0.54027 0.0
N93 N 0.72912 0.15858 0.50647 0.0
C94 C 0.74591 0.18639 0.57586 0.0
C95 C 0.74156 0.13003 0.48474 0.0
N96 N 0.76844 0.11428 0.50539 0.0
C97 C 0.72601 0.11605 0.44482 0.0
H98 H 0.73046 0.17389 0.60138 0.0
H99 H 0.73222 0.21112 0.56528 0.0
H100 H 0.77201 0.19398 0.58859 0.0
H101 H 0.7376 0.13116 0.41837 0.0
H102 H 0.69702 0.12004 0.44435 0.0
H103 H 0.73194 0.08707 0.44041 0.0
Sc104 Sc 0.00027 0.83149 0.32005 0.0
Sc105 Sc 0.98593 0.92554 0.31462 0.0
Sc106 Sc 0.98936 0.88219 0.41173 0.0
O107 O 0.99199 0.87975 0.34871 0.0
C108 C 0.94392 0.81256 0.39091 0.0
C109 C 0.94423 0.86845 0.25896 0.0
C110 C 0.9301 0.93926 0.3862 0.0
C111 C 0.04818 0.88484 0.26617 0.0
C112 C 0.04875 0.822 0.39988 0.0
C113 C 0.0338 0.95216 0.39111 0.0
O114 O 0.96062 0.80463 0.35775 0.0
O115 O 0.95088 0.90054 0.27028 0.0
O116 O 0.94614 0.91917 0.41179 0.0
O117 O 0.04007 0.85351 0.27911 0.0
O118 O 0.03144 0.84455 0.42135 0.0
O119 O 0.01998 0.95574 0.35527 0.0
O120 O 0.04199 0.81551 0.36191 0.0
O121 O 0.0313 0.91301 0.27675 0.0
O122 O 0.02725 0.9256 0.41494 0.0
O123 O 0.95975 0.84128 0.27451 0.0
O124 O 0.95072 0.84009 0.41296 0.0
O125 O 0.94016 0.94372 0.34884 0.0
Sc126 Sc 0.99365 0.16849 0.82126 0.0
Sc127 Sc 0.00187 0.07409 0.81761 0.0
Sc128 Sc 0.00203 0.11846 0.91316 0.0
O129 O -0.00104 0.12041 0.85045 0.0
C130 C 0.05318 0.18233 0.89051 0.0
C131 C 0.04535 0.12782 0.75908 0.0
C132 C 0.05448 0.05451 0.8881 0.0
C133 C 0.94196 0.11699 0.76939 0.0
C134 C 0.94922 0.1852 0.90125 0.0
C135 C 0.95314 0.05286 0.89635 0.0
O136 O 0.03419 0.19306 0.86013 0.0
O137 O 0.03552 0.09639 0.76964 0.0
O138 O 0.03733 0.07302 0.91434 0.0
O139 O 0.9536 0.14807 0.77922 0.0
O140 O 0.96726 0.16358 0.9232 0.0
O141 O 0.96914 0.04605 0.86232 0.0
O142 O 0.95231 0.18702 0.86201 0.0
O143 O 0.95537 0.08784 0.78281 0.0
O144 O 0.95786 0.08181 0.91694 0.0
O145 O 0.03387 0.15614 0.77659 0.0
O146 O 0.04677 0.15384 0.91123 0.0
O147 O 0.04842 0.05562 0.84932 0.0
Sc148 Sc 0.49554 0.32386 0.31513 0.0
Sc149 Sc 0.49854 0.41927 0.30887 0.0
Sc150 Sc 0.48667 0.37547 0.40533 0.0
O151 O 0.49367 0.37297 0.34288 0.0
C152 C 0.43502 0.31184 0.38318 0.0
C153 C 0.44868 0.36984 0.25201 0.0
C154 C 0.44054 0.44216 0.37584 0.0
C155 C 0.55076 0.36742 0.25908 0.0
C156 C 0.53909 0.30847 0.39694 0.0
C157 C 0.54597 0.435 0.38934 0.0
O158 O 0.45277 0.30152 0.35181 0.0
O159 O 0.46033 0.40062 0.26317 0.0
O160 O 0.44903 0.41789 0.40152 0.0
O161 O 0.53727 0.33884 0.27374 0.0
O162 O 0.52265 0.3322 0.4177 0.0
O163 O 0.53765 0.44138 0.35155 0.0
O164 O 0.53425 0.3034 0.35825 0.0
O165 O 0.541 0.39872 0.27028 0.0
O166 O 0.52985 0.41212 0.41178 0.0
O167 O 0.45817 0.34034 0.26879 0.0
O168 O 0.44282 0.3395 0.40431 0.0
O169 O 0.45602 0.44663 0.34116 0.0
Sc170 Sc 0.49401 0.66962 0.80585 0.0
Sc171 Sc 0.50567 0.5757 0.81599 0.0
Sc172 Sc 0.50464 0.63209 0.90477 0.0
O173 O 0.50167 0.62565 0.84207 0.0
C174 C 0.54607 0.70111 0.8757 0.0
C175 C 0.55118 0.62561 0.75423 0.0
C176 C 0.56151 0.56976 0.89029 0.0
C177 C 0.44908 0.61126 0.75541 0.0
C178 C 0.44231 0.68617 0.88034 0.0
C179 C 0.45619 0.56206 0.89537 0.0
O180 O 0.52882 0.70359 0.84192 0.0
O181 O 0.54289 0.59483 0.7691 0.0
O182 O 0.54795 0.59526 0.91116 0.0
O183 O 0.45848 0.64312 0.76413 0.0
O184 O 0.46141 0.67008 0.907 0.0
O185 O 0.46814 0.55277 0.85982 0.0
O186 O 0.44913 0.68645 0.84166 0.0
O187 O 0.46224 0.58382 0.77317 0.0
O188 O 0.46687 0.58992 0.91465 0.0
O189 O 0.53717 0.65499 0.76624 0.0
O190 O 0.54262 0.67486 0.90063 0.0
O191 O 0.54958 0.55988 0.85509 0.0
H192 H 0.1692 0.35325 0.95561 0.0
H193 H 0.2569 0.27975 0.96935 0.0
H194 H 0.2198 0.22962 0.94391 0.0
H195 H 0.1021 0.29458 0.98806 0.0
H196 H 0.06968 0.30894 0.95059 0.0
H197 H 0.10356 0.33964 0.96731 0.0
H198 H 0.12279 0.34947 0.89081 0.0
H199 H 0.08871 0.31901 0.87377 0.0
H200 H 0.13391 0.31114 0.85902 0.0
H201 H 0.17204 0.18693 0.92524 0.0
H202 H 0.11751 0.15432 0.90667 0.0
H203 H 0.06113 0.25558 0.89862 0.0
C204 C 0.18057 0.3267 0.95224 0.0
C205 C 0.21568 0.31999 0.9645 0.0
C206 C 0.22988 0.28501 0.96038 0.0
C207 C 0.20909 0.25655 0.94588 0.0
C208 C 0.17429 0.26373 0.93491 0.0
C209 C 0.16022 0.298 0.93711 0.0
C210 C 0.12178 0.29802 0.92399 0.0
C211 C 0.09788 0.31106 0.95962 0.0
C212 C 0.1165 0.32076 0.88454 0.0
C213 C 0.1163 0.25829 0.91519 0.0
C214 C 0.14696 0.23906 0.92194 0.0
C215 C 0.14803 0.20169 0.91903 0.0
C216 C 0.11695 0.18342 0.90874 0.0
C217 C 0.08542 0.20255 0.90087 0.0
C218 C 0.08515 0.24048 0.90376 0.0
H219 H 0.83505 0.63831 0.4617 0.0
H220 H 0.74593 0.70949 0.47914 0.0
H221 H 0.78109 0.76061 0.4526 0.0
H222 H 0.902 0.69924 0.49119 0.0
H223 H 0.93339 0.68549 0.45218 0.0
H224 H 0.90094 0.65402 0.47087 0.0
H225 H 0.87933 0.64316 0.39546 0.0
H226 H 0.9119 0.67447 0.37647 0.0
H227 H 0.866 0.68095 0.36404 0.0
H228 H 0.82677 0.80436 0.43126 0.0
H229 H 0.87955 0.83844 0.40961 0.0
H230 H 0.93865 0.73894 0.39942 0.0
C231 C 0.823 0.66461 0.45914 0.0
C232 C 0.78805 0.67037 0.47267 0.0
C233 C 0.77289 0.70499 0.46936 0.0
C234 C 0.79256 0.734 0.4542 0.0
C235 C 0.82716 0.72771 0.44174 0.0
C236 C 0.8422 0.69386 0.44334 0.0
C237 C 0.88011 0.69483 0.42823 0.0
C238 C 0.90561 0.68268 0.46268 0.0
C239 C 0.88459 0.672 0.38869 0.0
C240 C 0.8842 0.73464 0.4189 0.0
C241 C 0.85328 0.75301 0.42717 0.0
C242 C 0.85095 0.79028 0.42393 0.0
C243 C 0.88103 0.80937 0.41184 0.0
C244 C 0.91281 0.79116 0.40255 0.0
C245 C 0.91437 0.75329 0.40568 0.0
H246 H 0.78716 0.32167 0.93017 0.0
H247 H 0.82716 0.34264 0.05385 0.0
H248 H 0.87753 0.30176 0.04069 0.0
H249 H 0.80829 0.22961 0.9254 0.0
H250 H 0.82187 0.22945 0.87165 0.0
H251 H 0.79017 0.26201 0.88957 0.0
H252 H 0.82961 0.31396 0.86261 0.0
H253 H 0.86125 0.28152 0.84406 0.0
H254 H 0.87493 0.31663 0.87925 0.0
H255 H 0.91936 0.25442 0.01695 0.0
H256 H 0.95538 0.20883 0.98108 0.0
H257 H 0.89083 0.22064 0.87036 0.0
C258 C 0.80703 0.31803 0.95396 0.0
C259 C 0.80346 0.33471 0.99318 0.0
C260 C 0.82962 0.32958 0.02387 0.0
C261 C 0.85814 0.30651 0.01663 0.0
C262 C 0.86038 0.28938 0.97816 0.0
C263 C 0.83599 0.29537 0.94696 0.0
C264 C 0.84457 0.27325 0.90858 0.0
C265 C 0.81443 0.24703 0.89821 0.0
C266 C 0.8531 0.29781 0.87143 0.0
C267 C 0.87711 0.25333 0.92347 0.0
C268 C 0.88555 0.26295 0.96379 0.0
C269 C 0.91335 0.24701 0.98516 0.0
C270 C 0.93348 0.22091 0.9646 0.0
C271 C 0.926 0.21121 0.92288 0.0
C272 C 0.89737 0.22772 0.90212 0.0
H273 H 0.22495 0.70521 0.42389 0.0
H274 H 0.18978 0.6802 0.54883 0.0
H275 H 0.13824 0.72004 0.53946 0.0
H276 H 0.19577 0.79739 0.41896 0.0
H277 H 0.18061 0.79435 0.36593 0.0
H278 H 0.21624 0.76614 0.38348 0.0
H279 H 0.18184 0.70941 0.35993 0.0
H280 H 0.14619 0.73746 0.34212 0.0
H281 H 0.13775 0.70201 0.37909 0.0
H282 H 0.09166 0.76316 0.51716 0.0
H283 H 0.04861 0.80169 0.48096 0.0
H284 H 0.10995 0.79354 0.36728 0.0
C285 C 0.20628 0.70812 0.44912 0.0
C286 C 0.21162 0.69035 0.48744 0.0
C287 C 0.18663 0.69454 0.51977 0.0
C288 C 0.15724 0.71688 0.51461 0.0
C289 C 0.15283 0.73416 0.47652 0.0
C290 C 0.17628 0.72959 0.44405 0.0
C291 C 0.16405 0.74941 0.40544 0.0
C292 C 0.19076 0.77856 0.39272 0.0
C293 C 0.15703 0.723 0.36953 0.0
C294 C 0.13011 0.76594 0.42138 0.0
C295 C 0.12453 0.75722 0.46268 0.0
C296 C 0.09558 0.77001 0.48476 0.0
C297 C 0.07139 0.792 0.46397 0.0
C298 C 0.07594 0.80048 0.42133 0.0
C299 C 0.10573 0.78725 0.3998 0.0
H300 H 0.70869 0.79305 0.9911 0.0
H301 H 0.66625 0.89656 0.95487 0.0
H302 H 0.61802 0.86578 0.9167 0.0
H303 H 0.6884 0.74422 0.89912 0.0
H304 H 0.67602 0.70359 0.92607 0.0
H305 H 0.70772 0.7338 0.94892 0.0
H306 H 0.6695 0.73862 0.01558 0.0
H307 H 0.6379 0.70808 0.99313 0.0
H308 H 0.62389 0.75171 0.01125 0.0
H309 H 0.57576 0.82298 0.88078 0.0
H310 H 0.53884 0.7723 0.85636 0.0
H311 H 0.60627 0.69734 0.92242 0.0
C312 C 0.68885 0.80925 0.97587 0.0
C313 C 0.69101 0.84716 0.97594 0.0
C314 C 0.66512 0.86746 0.9547 0.0
C315 C 0.6377 0.85022 0.93311 0.0
C316 C 0.6364 0.8127 0.93366 0.0
C317 C 0.66101 0.79252 0.95506 0.0
C318 C 0.65305 0.75268 0.95228 0.0
C319 C 0.68309 0.73239 0.93028 0.0
C320 C 0.64563 0.73685 0.99563 0.0
C321 C 0.6201 0.7535 0.92583 0.0
C322 C 0.61121 0.7883 0.91484 0.0
C323 C 0.58232 0.79566 0.88947 0.0
C324 C 0.56165 0.76672 0.87557 0.0
C325 C 0.56966 0.73099 0.88768 0.0
C326 C 0.59938 0.72442 0.91297 0.0
H327 H 0.33226 0.1372 0.46289 0.0
H328 H 0.24812 0.20918 0.49974 0.0
H329 H 0.28066 0.26073 0.47008 0.0
H330 H 0.40428 0.19717 0.48285 0.0
H331 H 0.42957 0.18371 0.43798 0.0
H332 H 0.39957 0.15239 0.46196 0.0
H333 H 0.36793 0.14343 0.39126 0.0
H334 H 0.39775 0.17492 0.36711 0.0
H335 H 0.35081 0.18202 0.36397 0.0
H336 H 0.32294 0.30434 0.44057 0.0
H337 H 0.37284 0.33834 0.41078 0.0
H338 H 0.42864 0.23841 0.38781 0.0
C339 C 0.32097 0.16391 0.46457 0.0
C340 C 0.28824 0.16968 0.48429 0.0
C341 C 0.2737 0.2047 0.4857 0.0
C342 C 0.29177 0.23394 0.46861 0.0
C343 C 0.32409 0.22754 0.44955 0.0
C344 C 0.33857 0.19346 0.44711 0.0
C345 C 0.37385 0.19434 0.4249 0.0
C346 C 0.40357 0.18113 0.45365 0.0
C347 C 0.37249 0.17237 0.3844 0.0
C348 C 0.37712 0.2343 0.41603 0.0
C349 C 0.34803 0.25284 0.43058 0.0
C350 C 0.34567 0.29017 0.4285 0.0
C351 C 0.37408 0.30921 0.41163 0.0
C352 C 0.40418 0.29087 0.39663 0.0
C353 C 0.40549 0.25291 0.39822 0.0
H354 H 0.32923 0.82212 0.01896 0.0
H355 H 0.24018 0.79679 0.94002 0.0
H356 H 0.2765 0.7527 0.90136 0.0
H357 H 0.39562 0.8165 0.94314 0.0
H358 H 0.42793 0.79507 0.97594 0.0
H359 H 0.39462 0.82344 0.99865 0.0
H360 H 0.37488 0.7713 0.04685 0.0
H361 H 0.40839 0.74283 0.02456 0.0
H362 H 0.36297 0.72853 0.02439 0.0
H363 H 0.32387 0.71683 0.86696 0.0
H364 H 0.37789 0.6855 0.84357 0.0
H365 H 0.43505 0.72922 0.94892 0.0
C366 C 0.31736 0.80658 0.99415 0.0
C367 C 0.28212 0.81268 0.98212 0.0
C368 C 0.26731 0.79246 0.94919 0.0
C369 C 0.28766 0.76742 0.92725 0.0
C370 C 0.32258 0.76244 0.93929 0.0
C371 C 0.33718 0.78088 0.97246 0.0
C372 C 0.37545 0.7705 0.97872 0.0
C373 C 0.39983 0.80333 0.9738 0.0
C374 C 0.38072 0.75219 0.02115 0.0
C375 C 0.38026 0.74404 0.94327 0.0
C376 C 0.34947 0.74004 0.92074 0.0
C377 C 0.34796 0.71915 0.88478 0.0
C378 C 0.37873 0.70166 0.87162 0.0
C379 C 0.41029 0.70472 0.89477 0.0
C380 C 0.41098 0.72597 0.93119 0.0
H381 H 0.7143 0.1935 0.43458 0.0
H382 H 0.67401 0.1702 0.55778 0.0
H383 H 0.62104 0.20681 0.54314 0.0
H384 H 0.68247 0.28393 0.4257 0.0
H385 H 0.67041 0.27989 0.37166 0.0
H386 H 0.70575 0.25296 0.39237 0.0
H387 H 0.67431 0.19502 0.36706 0.0
H388 H 0.63889 0.22178 0.34619 0.0
H389 H 0.6295 0.18643 0.38297 0.0
H390 H 0.57407 0.2473 0.51622 0.0
H391 H 0.53308 0.28595 0.4769 0.0
H392 H 0.6009 0.27869 0.36841 0.0
C393 C 0.69416 0.19608 0.45825 0.0
C394 C 0.69831 0.17973 0.49756 0.0
C395 C 0.67156 0.18343 0.52793 0.0
C396 C 0.64137 0.20388 0.51976 0.0
C397 C 0.63813 0.21982 0.48075 0.0
C398 C 0.66353 0.21583 0.45027 0.0
C399 C 0.65293 0.23487 0.41052 0.0
C400 C 0.67947 0.26469 0.39943 0.0
C401 C 0.64864 0.20791 0.37456 0.0
C402 C 0.61774 0.25048 0.4236 0.0
C403 C 0.60994 0.24169 0.46438 0.0
C404 C 0.57968 0.25412 0.48416 0.0
C405 C 0.55667 0.27613 0.46165 0.0
C406 C 0.56381 0.28506 0.41964 0.0
C407 C 0.59464 0.27185 0.40033 0.0
H408 H 0.32334 0.3957 0.92682 0.0
H409 H 0.28271 0.45221 0.03434 0.0
H410 H 0.32503 0.50186 0.02206 0.0
H411 H 0.41419 0.42051 0.9399 0.0
H412 H 0.42279 0.42604 0.88511 0.0
H413 H 0.38935 0.39495 0.90229 0.0
H414 H 0.34306 0.42736 0.8564 0.0
H415 H 0.3764 0.45844 0.8389 0.0
H416 H 0.33645 0.47512 0.86241 0.0
H417 H 0.37153 0.5444 0.99881 0.0
H418 H 0.41887 0.57901 0.9654 0.0
H419 H 0.42922 0.49604 0.87075 0.0
C420 C 0.32327 0.41882 0.94731 0.0
C421 C 0.30003 0.42049 0.98159 0.0
C422 C 0.30072 0.45064 0.00828 0.0
C423 C 0.32448 0.47887 1.0014 0.0
C424 C 0.34721 0.47648 0.96745 0.0
C425 C 0.34676 0.44738 0.94067 0.0
C426 C 0.37409 0.4517 0.90654 0.0
C427 C 0.40175 0.42151 0.9086 0.0
C428 C 0.35644 0.45326 0.86351 0.0
C429 C 0.38994 0.48778 0.91837 0.0
C430 C 0.37403 0.50142 0.9537 0.0
C431 C 0.38417 0.53408 0.97107 0.0
C432 C 0.41123 0.5535 0.9518 0.0
C433 C 0.42796 0.54035 0.91532 0.0
C434 C 0.41702 0.50695 0.89848 0.0
H435 H 0.68293 0.59621 0.42901 0.0
H436 H 0.7172 0.53775 0.53817 0.0
H437 H 0.67528 0.48867 0.52163 0.0
H438 H 0.59154 0.57253 0.43573 0.0
H439 H 0.58536 0.56816 0.38035 0.0
H440 H 0.61843 0.59835 0.40037 0.0
H441 H 0.66616 0.56598 0.35647 0.0
H442 H 0.63322 0.53568 0.33628 0.0
H443 H 0.67186 0.51804 0.36175 0.0
H444 H 0.62988 0.44707 0.49418 0.0
H445 H 0.58228 0.41469 0.4584 0.0
H446 H 0.57723 0.49915 0.36508 0.0
C447 C 0.6818 0.57276 0.44892 0.0
C448 C 0.7033 0.57024 0.48467 0.0
C449 C 0.70074 0.53982 0.51078 0.0
C450 C 0.67722 0.51192 0.50148 0.0
C451 C 0.6565 0.51498 0.46587 0.0
C452 C 0.65847 0.54456 0.43994 0.0
C453 C 0.63263 0.54128 0.40409 0.0
C454 C 0.60538 0.5719 0.40523 0.0
C455 C 0.65214 0.54017 0.36216 0.0
C456 C 0.61577 0.50526 0.41405 0.0
C457 C 0.63007 0.4907 0.44983 0.0
C458 C 0.61849 0.45812 0.46608 0.0
C459 C 0.59132 0.44 0.4455 0.0
C460 C 0.57587 0.45437 0.40889 0.0
C461 C 0.58862 0.48733 0.39277 0.0
H462 H 0.67925 0.39687 0.94371 0.0
H463 H 0.73141 0.46152 0.03706 0.0
H464 H 0.69539 0.51445 0.01651 0.0
H465 H 0.67256 0.46587 0.86507 0.0
H466 H 0.62954 0.45197 0.84741 0.0
H467 H 0.65928 0.41944 0.86961 0.0
H468 H 0.61197 0.40165 0.92406 0.0
H469 H 0.58199 0.43393 0.90186 0.0
H470 H 0.59264 0.43599 0.95646 0.0
H471 H 0.65328 0.55949 0.98633 0.0
H472 H 0.60704 0.5939 0.94992 0.0
H473 H 0.58263 0.50014 0.8746 0.0
C474 C 0.6828 0.4223 0.95962 0.0
C475 C 0.70769 0.42566 0.99191 0.0
C476 C 0.71215 0.45893 0.01237 0.0
C477 C 0.69197 0.48892 1.00081 0.0
C478 C 0.66761 0.48497 0.96861 0.0
C479 C 0.66286 0.45249 0.94834 0.0
C480 C 0.63462 0.45538 0.91515 0.0
C481 C 0.64993 0.44771 0.87174 0.0
C482 C 0.60346 0.43025 0.92498 0.0
C483 C 0.62429 0.49458 0.91977 0.0
C484 C 0.64362 0.5111 0.95085 0.0
C485 C 0.63808 0.5469 0.96183 0.0
C486 C 0.61173 0.56622 0.94096 0.0
C487 C 0.59131 0.54982 0.90923 0.0
C488 C 0.59812 0.51361 0.89824 0.0
H489 H 0.34382 0.62072 0.45284 0.0
H490 H 0.25478 0.55352 0.48493 0.0
H491 H 0.2855 0.50024 0.45561 0.0
H492 H 0.36434 0.57689 0.35468 0.0
H493 H 0.41139 0.58117 0.36092 0.0
H494 H 0.38235 0.61385 0.38418 0.0
H495 H 0.41006 0.60165 0.45651 0.0
H496 H 0.4394 0.5692 0.43343 0.0
H497 H 0.41138 0.55626 0.47621 0.0
H498 H 0.32668 0.45468 0.42613 0.0
H499 H 0.37607 0.41867 0.39821 0.0
H500 H 0.43777 0.51579 0.38124 0.0
C501 C 0.33106 0.59466 0.45344 0.0
C502 C 0.29716 0.59066 0.47071 0.0
C503 C 0.28079 0.55656 0.47148 0.0
C504 C 0.29798 0.52643 0.45489 0.0
C505 C 0.33134 0.53119 0.4375 0.0
C506 C 0.34776 0.56441 0.43659 0.0
C507 C 0.38387 0.562 0.41654 0.0
C508 C 0.38557 0.58484 0.37671 0.0
C509 C 0.41289 0.57291 0.44752 0.0
C510 C 0.38534 0.52216 0.40665 0.0
C511 C 0.35474 0.50496 0.41912 0.0
C512 C 0.35055 0.46786 0.4157 0.0
C513 C 0.37862 0.44769 0.39978 0.0
C514 C 0.41018 0.4647 0.38697 0.0
C515 C 0.41344 0.50242 0.38981 0.0
H516 H 0.7844 0.96474 0.00603 0.0
H517 H 0.83008 0.86103 0.97781 0.0
H518 H 0.88379 0.891 0.95045 0.0
H519 H 0.81396 0.01067 0.9183 0.0
H520 H 0.82387 0.05256 0.94408 0.0
H521 H 0.79065 0.02308 0.96505 0.0
H522 H 0.82333 0.02146 0.03578 0.0
H523 H 0.85656 0.05128 0.01524 0.0
H524 H 0.86912 0.0086 0.03738 0.0
H525 H 0.92795 0.93187 0.91836 0.0
H526 H 0.96396 0.98109 0.8896 0.0
H527 H 0.89205 0.05953 0.9426 0.0
C528 C 0.80623 0.94865 0.99488 0.0
C529 C 0.80378 0.91082 0.99394 0.0
C530 C 0.83216 0.89008 0.97885 0.0
C531 C 0.8625 0.90687 0.96331 0.0
C532 C 0.86399 0.94437 0.96379 0.0
C533 C 0.83695 0.96506 0.97988 0.0
C534 C 0.84492 0.00489 0.97555 0.0
C535 C 0.81667 0.0239 0.94917 0.0
C536 C 0.84872 0.02261 0.01855 0.0
C537 C 0.88001 0.00337 0.95302 0.0
C538 C 0.89042 0.96813 0.9466 0.0
C539 C 0.92047 0.95957 0.92386 0.0
C540 C 0.94059 0.98772 0.9074 0.0
C541 C 0.93086 0.02408 0.91408 0.0
C542 C 0.90032 0.03198 0.93755 0.0
H543 H 0.19354 0.04005 0.51855 0.0
H544 H 0.17573 0.13699 0.44713 0.0
H545 H 0.12356 0.109 0.41391 0.0
H546 H 0.17205 0.97827 0.43974 0.0
H547 H 0.14999 0.94642 0.4731 0.0
H548 H 0.18399 0.97505 0.4939 0.0
H549 H 0.14083 0.99834 0.54997 0.0
H550 H 0.10638 0.97001 0.52949 0.0
H551 H 0.09932 0.01779 0.53452 0.0
H552 H 0.07779 0.0691 0.38409 0.0
H553 H 0.03794 0.02069 0.36144 0.0
H554 H 0.0837 0.94904 0.45355 0.0
C555 C 0.17811 0.05531 0.49639 0.0
C556 C 0.18838 0.09032 0.48476 0.0
C557 C 0.1681 0.10991 0.45572 0.0
C558 C 0.13853 0.09431 0.43698 0.0
C559 C 0.12949 0.05928 0.44816 0.0
C560 C 0.14837 0.04008 0.4775 0.0
C561 C 0.13368 0.00238 0.48256 0.0
C562 C 0.16159 0.97385 0.47166 0.0
C563 C 0.11917 0.99682 0.52676 0.0
C564 C 0.10426 0.00311 0.45064 0.0
C565 C 0.10233 0.03629 0.43136 0.0
C566 C 0.07869 0.04313 0.39927 0.0
C567 C 0.05633 0.01533 0.38646 0.0
C568 C 0.05764 0.98105 0.40574 0.0
C569 C 0.08181 0.97504 0.43851 0.0
H570 H 0.22362 0.95318 0.97988 0.0
H571 H 0.15434 0.86315 0.00461 0.0
H572 H 0.10384 0.89739 0.97604 0.0
H573 H 0.15959 0.02392 0.00473 0.0
H574 H 0.17482 0.05344 0.964 0.0
H575 H 0.20498 0.02238 0.98815 0.0
H576 H 0.22031 0.99597 0.91576 0.0
H577 H 0.18992 0.02666 0.89141 0.0
H578 H 0.18545 0.9789 0.88312 0.0
H579 H 0.06221 0.9395 0.94192 0.0
H580 H 0.02988 0.98946 0.90849 0.0
H581 H 0.12552 0.05329 0.9057 0.0
C582 C 0.19764 0.9411 0.97948 0.0
C583 C 0.19238 0.9058 0.99429 0.0
C584 C 0.15836 0.89037 0.99356 0.0
C585 C 0.12977 0.9095 0.97726 0.0
C586 C 0.13582 0.94405 0.96201 0.0
C587 C 0.16876 0.95996 0.96335 0.0
C588 C 0.16794 0.99739 0.94455 0.0
C589 C 0.17738 0.02597 0.97732 0.0
C590 C 0.19236 0.99985 0.90644 0.0
C591 C 0.12948 0.99983 0.93203 0.0
C592 C 0.11156 0.96863 0.94236 0.0
C593 C 0.07587 0.96408 0.93377 0.0
C594 C 0.05783 0.99239 0.91464 0.0
C595 C 0.07549 0.02466 0.90436 0.0
C596 C 0.11173 0.02854 0.91298 0.0
H597 H 0.8219 0.11432 0.45045 0.0
H598 H 0.75746 0.04544 0.52772 0.0
H599 H 0.79004 0.99192 0.50231 0.0
H600 H 0.826 0.05314 0.36231 0.0
H601 H 0.87083 0.06463 0.34916 0.0
H602 H 0.8428 0.09741 0.37393 0.0
H603 H 0.88853 0.10536 0.43315 0.0
H604 H 0.91684 0.07293 0.40834 0.0
H605 H 0.90336 0.0664 0.4616 0.0
H606 H 0.83132 0.94698 0.47115 0.0
H607 H 0.87852 0.9128 0.43585 0.0
H608 H 0.91365 0.01024 0.37427 0.0
C609 C 0.8151 0.08786 0.46204 0.0
C610 C 0.78824 0.08359 0.49189 0.0
C611 C 0.77897 0.04889 0.50598 0.0
C612 C 0.79698 0.01852 0.49131 0.0
C613 C 0.82359 0.0235 0.46192 0.0
C614 C 0.83253 0.05725 0.44722 0.0
C615 C 0.86208 0.05513 0.41558 0.0
C616 C 0.84967 0.06836 0.37271 0.0
C617 C 0.89463 0.07619 0.43058 0.0
C618 C 0.86882 0.01495 0.41533 0.0
C619 C 0.84626 0.99726 0.44228 0.0
C620 C 0.8488 0.96042 0.44952 0.0
C621 C 0.8756 0.94125 0.42936 0.0
C622 C 0.89917 0.95889 0.40195 0.0
C623 C 0.8953 0.99604 0.39422 0.0
H624 H 0.29004 0.41234 0.09421 0.0
H625 H 0.33078 0.32571 0.0182 0.0
H626 H 0.38027 0.3173 0.06743 0.0
H627 H 0.37779 0.44914 0.12299 0.0
H628 H 0.3639 0.46108 0.17484 0.0
H629 H 0.33251 0.46119 0.13273 0.0
H630 H 0.29249 0.41759 0.1743 0.0
H631 H 0.32387 0.41703 0.21632 0.0
H632 H 0.31026 0.37541 0.19238 0.0
H633 H 0.42105 0.31442 0.12691 0.0
H634 H 0.45582 0.32063 0.19115 0.0
H635 H 0.39255 0.41267 0.22767 0.0
C636 C 0.30993 0.39223 0.08777 0.0
C637 C 0.30715 0.36966 0.05263 0.0
C638 C 0.33297 0.3431 0.04512 0.0
C639 C 0.36097 0.33822 0.0728 0.0
C640 C 0.36293 0.36057 0.10749 0.0
C641 C 0.33854 0.38746 0.11486 0.0
C642 C 0.34699 0.40746 0.15486 0.0
C643 C 0.35583 0.44707 0.14581 0.0
C644 C 0.31659 0.40415 0.18632 0.0
C645 C 0.37933 0.38691 0.16929 0.0
C646 C 0.38779 0.35989 0.14142 0.0
C647 C 0.41508 0.33576 0.14871 0.0
C648 C 0.43448 0.33935 0.18541 0.0
C649 C 0.42684 0.36712 0.2142 0.0
C650 C 0.3991 0.39146 0.20588 0.0
H651 H 0.71354 0.57917 0.60207 0.0
H652 H 0.67161 0.66068 0.51979 0.0
H653 H 0.62151 0.67054 0.56785 0.0
H654 H 0.62635 0.54218 0.63323 0.0
H655 H 0.64014 0.53354 0.68596 0.0
H656 H 0.67182 0.53173 0.64417 0.0
H657 H 0.7106 0.57848 0.68264 0.0
H658 H 0.6789 0.58077 0.7243 0.0
H659 H 0.69183 0.62121 0.69733 0.0
H660 H 0.58026 0.67576 0.62652 0.0
H661 H 0.54459 0.67195 0.69015 0.0
H662 H 0.60957 0.58372 0.73443 0.0
C663 C 0.69329 0.59848 0.59413 0.0
C664 C 0.69586 0.61922 0.55748 0.0
C665 C 0.6695 0.64465 0.54782 0.0
C666 C 0.64121 0.65039 0.57488 0.0
C667 C 0.63952 0.63003 0.61119 0.0
C668 C 0.66439 0.60413 0.62067 0.0
C669 C 0.65605 0.58627 0.66206 0.0
C670 C 0.64811 0.54604 0.65599 0.0
C671 C 0.68614 0.59204 0.69343 0.0
C672 C 0.62316 0.60687 0.67471 0.0
C673 C 0.61443 0.63209 0.64483 0.0
C674 C 0.58648 0.65584 0.64994 0.0
C675 C 0.56658 0.65363 0.68641 0.0
C676 C 0.57434 0.62759 0.71727 0.0
C677 C 0.60293 0.6037 0.71121 0.0
H678 H 0.70159 0.41782 0.09309 0.0
H679 H 0.67159 0.32076 0.02769 0.0
H680 H 0.62356 0.31037 0.07837 0.0
H681 H 0.6886 0.38667 0.19352 0.0
H682 H 0.66982 0.42725 0.21482 0.0
H683 H 0.69942 0.42977 0.17112 0.0
H684 H 0.65238 0.46381 0.12805 0.0
H685 H 0.62285 0.46217 0.17199 0.0
H686 H 0.60896 0.44469 0.1223 0.0
H687 H 0.58568 0.30575 0.1403 0.0
H688 H 0.55176 0.31163 0.20489 0.0
H689 H 0.60231 0.41439 0.22985 0.0
C690 C 0.68397 0.3952 0.08886 0.0
C691 C 0.68987 0.36999 0.05673 0.0
C692 C 0.66712 0.34016 0.05227 0.0
C693 C 0.63998 0.33409 0.08088 0.0
C694 C 0.63566 0.35854 0.11332 0.0
C695 C 0.65632 0.38902 0.117 0.0
C696 C 0.64644 0.41029 0.15568 0.0
C697 C 0.67795 0.41368 0.18554 0.0
C698 C 0.63178 0.44745 0.14379 0.0
C699 C 0.61785 0.38631 0.17378 0.0
C700 C 0.61239 0.35655 0.14877 0.0
C701 C 0.58919 0.32923 0.1598 0.0
C702 C 0.57034 0.33268 0.19692 0.0
C703 C 0.57436 0.36347 0.2226 0.0
C704 C 0.59854 0.39066 0.2108 0.0
H705 H 0.34392 0.67246 0.55308 0.0
H706 H 0.28286 0.57449 0.56227 0.0
H707 H 0.32032 0.55407 0.62101 0.0
H708 H 0.42978 0.63505 0.5832 0.0
H709 H 0.44161 0.67444 0.61283 0.0
H710 H 0.41292 0.67856 0.56843 0.0
H711 H 0.36587 0.70959 0.61468 0.0
H712 H 0.39425 0.70537 0.65926 0.0
H713 H 0.35025 0.68705 0.66081 0.0
H714 H 0.36281 0.54664 0.682 0.0
H715 H 0.40556 0.55322 0.73993 0.0
H716 H 0.43507 0.65845 0.69278 0.0
C717 C 0.33877 0.64662 0.5674 0.0
C718 C 0.31071 0.62493 0.55354 0.0
C719 C 0.30464 0.59114 0.57246 0.0
C720 C 0.32563 0.5795 0.60584 0.0
C721 C 0.35248 0.60213 0.61984 0.0
C722 C 0.35907 0.63499 0.6011 0.0
C723 C 0.38769 0.6555 0.62366 0.0
C724 C 0.41991 0.66121 0.59534 0.0
C725 C 0.37366 0.69149 0.64061 0.0
C726 C 0.39579 0.62941 0.65847 0.0
C727 C 0.37568 0.59852 0.65553 0.0
C728 C 0.37874 0.57071 0.68453 0.0
C729 C 0.40301 0.57467 0.71733 0.0
C730 C 0.42337 0.60646 0.72115 0.0
C731 C 0.41959 0.63398 0.69113 0.0
H732 H 0.80107 0.9218 0.08594 0.0
H733 H 0.79101 0.80794 0.0599 0.0
H734 H 0.83517 0.79435 0.11417 0.0
H735 H 0.89574 0.92012 0.10311 0.0
H736 H 0.89449 0.95335 0.14396 0.0
H737 H 0.86171 0.95394 0.1034 0.0
H738 H 0.81227 0.9509 0.15897 0.0
H739 H 0.84486 0.95011 0.1997 0.0
H740 H 0.81234 0.91482 0.19648 0.0
H741 H 0.8793 0.79304 0.1714 0.0
H742 H 0.92252 0.80377 0.2271 0.0
H743 H 0.90581 0.91906 0.21532 0.0
C744 C 0.80836 0.89411 0.09182 0.0
C745 C 0.79227 0.86576 0.06963 0.0
C746 C 0.80241 0.82981 0.07761 0.0
C747 C 0.82762 0.82192 0.10804 0.0
C748 C 0.84271 0.85039 0.12986 0.0
C749 C 0.8337 0.88579 0.12202 0.0
C750 C 0.85431 0.91127 0.14968 0.0
C751 C 0.87797 0.93614 0.12348 0.0
C752 C 0.82946 0.93305 0.17788 0.0
C753 C 0.87597 0.88458 0.1746 0.0
C754 C 0.86884 0.84965 0.16254 0.0
C755 C 0.88524 0.82027 0.18108 0.0
C756 C 0.90976 0.82669 0.21279 0.0
C757 C 0.91771 0.86227 0.22576 0.0
C758 C 0.90041 0.89153 0.20626 0.0
H759 H 0.19489 0.07215 0.59407 0.0
H760 H 0.18591 0.18025 0.54525 0.0
H761 H 0.13818 0.19347 0.59544 0.0
H762 H 0.09976 0.05944 0.61263 0.0
H763 H 0.10611 0.03418 0.65992 0.0
H764 H 0.13882 0.03245 0.61929 0.0
H765 H 0.18693 0.05274 0.67113 0.0
H766 H 0.15466 0.05451 0.71219 0.0
H767 H 0.18086 0.09369 0.70038 0.0
H768 H 0.09564 0.19658 0.65337 0.0
H769 H 0.05615 0.18849 0.71328 0.0
H770 H 0.08987 0.07714 0.72425 0.0
C771 C 0.18241 0.09834 0.59396 0.0
C772 C 0.19397 0.12551 0.56657 0.0
C773 C 0.17735 0.15952 0.56666 0.0
C774 C 0.15032 0.16713 0.59485 0.0
C775 C 0.13994 0.14017 0.62229 0.0
C776 C 0.15503 0.10629 0.62184 0.0
C777 C 0.13893 0.08251 0.6552 0.0
C778 C 0.11975 0.05024 0.63558 0.0
C779 C 0.16702 0.07014 0.68658 0.0
C780 C 0.1131 0.10863 0.67494 0.0
C781 C 0.11427 0.14169 0.65535 0.0
C782 C 0.09414 0.17073 0.66877 0.0
C783 C 0.07194 0.16588 0.70304 0.0
C784 C 0.06982 0.13216 0.72351 0.0
C785 C 0.09068 0.10314 0.70907 0.0
H786 H 0.18248 0.82199 0.08851 0.0
H787 H 0.21541 0.93316 0.07819 0.0
H788 H 0.17556 0.9496 0.1363 0.0
H789 H 0.09264 0.83924 0.11003 0.0
H790 H 0.08748 0.80284 0.14661 0.0
H791 H 0.11986 0.79965 0.10581 0.0
H792 H 0.1688 0.78844 0.16053 0.0
H793 H 0.13652 0.79143 0.20155 0.0
H794 H 0.17482 0.82017 0.20237 0.0
H795 H 0.13036 0.95411 0.19301 0.0
H796 H 0.08295 0.94679 0.24486 0.0
H797 H 0.08034 0.83196 0.21962 0.0
C798 C 0.18187 0.84956 0.09931 0.0
C799 C 0.20236 0.87634 0.07967 0.0
C800 C 0.20001 0.91241 0.09335 0.0
C801 C 0.17757 0.92189 0.12624 0.0
C802 C 0.1577 0.89486 0.1451 0.0
C803 C 0.15969 0.85941 0.13226 0.0
C804 C 0.1346 0.83582 0.15683 0.0
C805 C 0.10701 0.81837 0.1281 0.0
C806 C 0.1549 0.80728 0.18181 0.0
C807 C 0.11796 0.86359 0.18523 0.0
C808 C 0.1317 0.89746 0.17795 0.0
C809 C 0.11958 0.92768 0.19922 0.0
C810 C 0.09256 0.92323 0.22857 0.0
C811 C 0.07794 0.88878 0.23653 0.0
C812 C 0.09118 0.85859 0.21469 0.0
H813 H 0.83156 0.16852 0.56608 0.0
H814 H 0.7659 0.07591 0.59122 0.0
H815 H 0.80264 0.06084 0.65246 0.0
H816 H 0.91555 0.13071 0.60037 0.0
H817 H 0.93006 0.17215 0.624 0.0
H818 H 0.9006 0.17327 0.58008 0.0
H819 H 0.85638 0.21141 0.62293 0.0
H820 H 0.88551 0.21007 0.66714 0.0
H821 H 0.84064 0.19463 0.67218 0.0
H822 H 0.84591 0.05674 0.71129 0.0
H823 H 0.89215 0.06415 0.76476 0.0
H824 H 0.9267 0.16276 0.70498 0.0
C825 C 0.82551 0.1448 0.58429 0.0
C826 C 0.79677 0.12259 0.57362 0.0
C827 C 0.78872 0.09224 0.59829 0.0
C828 C 0.80915 0.08384 0.63328 0.0
C829 C 0.83714 0.10652 0.64342 0.0
C830 C 0.84528 0.13647 0.61976 0.0
C831 C 0.87552 0.15747 0.63873 0.0
C832 C 0.90732 0.15844 0.60903 0.0
C833 C 0.8638 0.19566 0.65097 0.0
C834 C 0.88308 0.13469 0.67677 0.0
C835 C 0.86083 0.10526 0.67866 0.0
C836 C 0.86338 0.07976 0.71027 0.0
C837 C 0.88967 0.0842 0.74048 0.0
C838 C 0.91271 0.1142 0.73922 0.0
C839 C 0.90904 0.13992 0.70714 0.0
loop_
_geom_bond_atom_site_label_1
_geom_bond_atom_site_label_2
_geom_bond_distance
_geom_bond_site_symmetry_2
_ccdc_geom_bond_type
C0 N1 1.317 . S
C0 N2 1.348 1_554 S
C0 C3 1.485 . S
N1 C0 1.317 . S
N1 N5 1.370 1_554 S
N2 C0 1.348 1_556 S
N2 C4 1.346 . S
C3 C0 1.485 . S
C3 H7 0.960 . S
C3 H8 0.961 . S
C3 H9 0.960 . S
C4 N2 1.346 . S
C4 N5 1.307 . S
C4 C6 1.486 . S
N5 N1 1.370 1_556 S
N5 C4 1.307 . S
C6 C4 1.486 . S
C6 H10 0.960 . S
C6 H11 0.960 . S
C6 H12 0.959 . S
H7 C3 0.960 . S
H8 C3 0.961 . S
H9 C3 0.960 . S
H10 C6 0.960 . S
H11 C6 0.960 . S
H12 C6 0.959 . S
C13 N14 1.317 . S
C13 N15 1.348 . S
C13 C16 1.485 . S
N14 C13 1.317 . S
N14 N18 1.370 . S
N15 C13 1.348 . S
N15 C17 1.346 . S
C16 C13 1.485 . S
C16 H20 0.960 . S
C16 H21 0.961 . S
C16 H22 0.960 . S
C17 N15 1.346 . S
C17 N18 1.307 . S
C17 C19 1.486 . S
N18 N14 1.370 . S
N18 C17 1.307 . S
C19 C17 1.486 . S
C19 H23 0.960 . S
C19 H24 0.960 . S
C19 H25 0.959 . S
H20 C16 0.960 . S
H21 C16 0.961 . S
H22 C16 0.960 . S
H23 C19 0.960 . S
H24 C19 0.960 . S
H25 C19 0.959 . S
C26 N27 1.317 . S
C26 N28 1.348 1_554 S
C26 C29 1.485 . S
N27 C26 1.317 . S
N27 N31 1.370 1_554 S
N28 C26 1.348 1_556 S
N28 C30 1.346 . S
C29 C26 1.485 . S
C29 H33 0.960 . S
C29 H34 0.961 . S
C29 H35 0.960 . S
C30 N28 1.346 . S
C30 N31 1.307 . S
C30 C32 1.486 . S
N31 N27 1.370 1_556 S
N31 C30 1.307 . S
C32 C30 1.486 . S
C32 H36 0.960 . S
C32 H37 0.960 . S
C32 H38 0.959 . S
H33 C29 0.960 . S
H34 C29 0.961 . S
H35 C29 0.960 . S
H36 C32 0.960 . S
H37 C32 0.960 . S
H38 C32 0.959 . S
C39 N40 1.317 . S
C39 N41 1.348 . S
C39 C42 1.485 . S
N40 C39 1.317 . S
N40 N44 1.370 . S
N41 C39 1.348 . S
N41 C43 1.346 . S
C42 C39 1.485 . S
C42 H46 0.960 . S
C42 H47 0.961 . S
C42 H48 0.960 . S
C43 N41 1.346 . S
C43 N44 1.307 . S
C43 C45 1.486 . S
N44 N40 1.370 . S
N44 C43 1.307 . S
C45 C43 1.486 . S
C45 H49 0.960 . S
C45 H50 0.960 . S
C45 H51 0.959 . S
H46 C42 0.960 . S
H47 C42 0.961 . S
H48 C42 0.960 . S
H49 C45 0.960 . S
H50 C45 0.960 . S
H51 C45 0.959 . S
C52 N53 1.317 . S
C52 N54 1.348 1_554 S
C52 C55 1.485 . S
N53 C52 1.317 . S
N53 N57 1.370 1_554 S
N54 C52 1.348 1_556 S
N54 C56 1.346 . S
C55 C52 1.485 . S
C55 H59 0.960 . S
C55 H60 0.961 . S
C55 H61 0.960 . S
C56 N54 1.346 . S
C56 N57 1.307 . S
C56 C58 1.486 . S
N57 N53 1.370 1_556 S
N57 C56 1.307 . S
C58 C56 1.486 . S
C58 H62 0.960 . S
C58 H63 0.960 . S
C58 H64 0.959 . S
H59 C55 0.960 . S
H60 C55 0.961 . S
H61 C55 0.960 . S
H62 C58 0.960 . S
H63 C58 0.960 . S
H64 C58 0.959 . S
C65 N66 1.317 . S
C65 N67 1.348 . S
C65 C68 1.485 . S
N66 C65 1.317 . S
N66 N70 1.370 . S
N67 C65 1.348 . S
N67 C69 1.346 . S
C68 C65 1.485 . S
C68 H72 0.960 . S
C68 H73 0.961 . S
C68 H74 0.960 . S
C69 N67 1.346 . S
C69 N70 1.307 . S
C69 C71 1.486 . S
N70 N66 1.370 . S
N70 C69 1.307 . S
C71 C69 1.486 . S
C71 H75 0.960 . S
C71 H76 0.960 . S
C71 H77 0.959 . S
H72 C68 0.960 . S
H73 C68 0.961 . S
H74 C68 0.960 . S
H75 C71 0.960 . S
H76 C71 0.960 . S
H77 C71 0.959 . S
C78 N79 1.317 . S
C78 N80 1.348 1_554 S
C78 C81 1.485 . S
N79 C78 1.317 . S
N79 N83 1.370 1_554 S
N80 C78 1.348 1_556 S
N80 C82 1.346 . S
C81 C78 1.485 . S
C81 H85 0.960 . S
C81 H86 0.961 . S
C81 H87 0.960 . S
C82 N80 1.346 . S
C82 N83 1.307 . S
C82 C84 1.486 . S
N83 N79 1.370 1_556 S
N83 C82 1.307 . S
C84 C82 1.486 . S
C84 H88 0.960 . S
C84 H89 0.960 . S
C84 H90 0.959 . S
H85 C81 0.960 . S
H86 C81 0.961 . S
H87 C81 0.960 . S
H88 C84 0.960 . S
H89 C84 0.960 . S
H90 C84 0.959 . S
C91 N92 1.317 . S
C91 N93 1.348 . S
C91 C94 1.485 . S
N92 C91 1.317 . S
N92 N96 1.370 . S
N93 C91 1.348 . S
N93 C95 1.346 . S
C94 C91 1.485 . S
C94 H98 0.960 . S
C94 H99 0.961 . S
C94 H100 0.960 . S
C95 N93 1.346 . S
C95 N96 1.307 . S
C95 C97 1.486 . S
N96 N92 1.370 . S
N96 C95 1.307 . S
C97 C95 1.486 . S
C97 H101 0.960 . S
C97 H102 0.960 . S
C97 H103 0.959 . S
H98 C94 0.960 . S
H99 C94 0.961 . S
H100 C94 0.960 . S
H101 C97 0.960 . S
H102 C97 0.960 . S
H103 C97 0.959 . S
Sc104 O107 2.025 . S
Sc104 O114 2.105 1_455 S
Sc104 O117 2.105 . S
Sc104 O120 2.105 . S
Sc104 O123 2.105 1_455 S
Sc105 O107 2.025 . S
Sc105 O115 2.105 1_455 S
Sc105 O119 2.105 . S
Sc105 O121 2.105 . S
Sc105 O125 2.105 1_455 S
Sc106 O107 2.025 . S
Sc106 O116 2.105 1_455 S
Sc106 O118 2.105 . S
Sc106 O122 2.105 . S
Sc106 O124 2.105 1_455 S
O107 Sc104 2.025 . S
O107 Sc105 2.025 . S
O107 Sc106 2.025 . S
C108 O114 1.268 . S
C108 O124 1.268 . S
C109 O115 1.268 . S
C109 O123 1.268 . S
C110 O116 1.268 . S
C110 O125 1.268 . S
C111 O117 1.268 . S
C111 O121 1.268 . S
C112 O118 1.268 . S
C112 O120 1.268 . S
C113 O119 1.268 . S
C113 O122 1.268 . S
O114 Sc104 2.105 1_655 S
O114 C108 1.268 . S
O115 Sc105 2.105 1_655 S
O115 C109 1.268 . S
O116 Sc106 2.105 1_655 S
O116 C110 1.268 . S
O117 Sc104 2.105 . S
O117 C111 1.268 . S
O118 Sc106 2.105 . S
O118 C112 1.268 . S
O119 Sc105 2.105 . S
O119 C113 1.268 . S
O120 Sc104 2.105 . S
O120 C112 1.268 . S
O121 Sc105 2.105 . S
O121 C111 1.268 . S
O122 Sc106 2.105 . S
O122 C113 1.268 . S
O123 Sc104 2.105 1_655 S
O123 C109 1.268 . S
O124 Sc106 2.105 1_655 S
O124 C108 1.268 . S
O125 Sc105 2.105 1_655 S
O125 C110 1.268 . S
Sc126 O129 2.025 . S
Sc126 O136 2.105 . S
Sc126 O139 2.105 1_455 S
Sc126 O142 2.105 1_455 S
Sc126 O145 2.105 . S
Sc127 O129 2.025 . S
Sc127 O137 2.105 . S
Sc127 O141 2.105 1_455 S
Sc127 O143 2.105 1_455 S
Sc127 O147 2.105 . S
Sc128 O129 2.025 . S
Sc128 O138 2.105 . S
Sc128 O140 2.105 1_455 S
Sc128 O144 2.105 1_455 S
Sc128 O146 2.105 . S
O129 Sc126 2.025 . S
O129 Sc127 2.025 . S
O129 Sc128 2.025 . S
C130 O136 1.268 . S
C130 O146 1.268 . S
C131 O137 1.268 . S
C131 O145 1.268 . S
C132 O138 1.268 . S
C132 O147 1.268 . S
C133 O139 1.268 . S
C133 O143 1.268 . S
C134 O140 1.268 . S
C134 O142 1.268 . S
C135 O141 1.268 . S
C135 O144 1.268 . S
O136 Sc126 2.105 . S
O136 C130 1.268 . S
O137 Sc127 2.105 . S
O137 C131 1.268 . S
O138 Sc128 2.105 . S
O138 C132 1.268 . S
O139 Sc126 2.105 1_655 S
O139 C133 1.268 . S
O140 Sc128 2.105 1_655 S
O140 C134 1.268 . S
O141 Sc127 2.105 1_655 S
O141 C135 1.268 . S
O142 Sc126 2.105 1_655 S
O142 C134 1.268 . S
O143 Sc127 2.105 1_655 S
O143 C133 1.268 . S
O144 Sc128 2.105 1_655 S
O144 C135 1.268 . S
O145 Sc126 2.105 . S
O145 C131 1.268 . S
O146 Sc128 2.105 . S
O146 C130 1.268 . S
O147 Sc127 2.105 . S
O147 C132 1.268 . S
Sc148 O151 2.025 . S
Sc148 O158 2.105 . S
Sc148 O161 2.105 . S
Sc148 O164 2.105 . S
Sc148 O167 2.105 . S
Sc149 O151 2.025 . S
Sc149 O159 2.105 . S
Sc149 O163 2.105 . S
Sc149 O165 2.105 . S
Sc149 O169 2.105 . S
Sc150 O151 2.025 . S
Sc150 O160 2.105 . S
Sc150 O162 2.105 . S
Sc150 O166 2.105 . S
Sc150 O168 2.105 . S
O151 Sc148 2.025 . S
O151 Sc149 2.025 . S
O151 Sc150 2.025 . S
C152 O158 1.268 . S
C152 O168 1.268 . S
C153 O159 1.268 . S
C153 O167 1.268 . S
C154 O160 1.268 . S
C154 O169 1.268 . S
C155 O161 1.268 . S
C155 O165 1.268 . S
C156 O162 1.268 . S
C156 O164 1.268 . S
C157 O163 1.268 . S
C157 O166 1.268 . S
O158 Sc148 2.105 . S
O158 C152 1.268 . S
O159 Sc149 2.105 . S
O159 C153 1.268 . S
O160 Sc150 2.105 . S
O160 C154 1.268 . S
O161 Sc148 2.105 . S
O161 C155 1.268 . S
O162 Sc150 2.105 . S
O162 C156 1.268 . S
O163 Sc149 2.105 . S
O163 C157 1.268 . S
O164 Sc148 2.105 . S
O164 C156 1.268 . S
O165 Sc149 2.105 . S
O165 C155 1.268 . S
O166 Sc150 2.105 . S
O166 C157 1.268 . S
O167 Sc148 2.105 . S
O167 C153 1.268 . S
O168 Sc150 2.105 . S
O168 C152 1.268 . S
O169 Sc149 2.105 . S
O169 C154 1.268 . S
Sc170 O173 2.025 . S
Sc170 O180 2.105 . S
Sc170 O183 2.105 . S
Sc170 O186 2.105 . S
Sc170 O189 2.105 . S
Sc171 O173 2.025 . S
Sc171 O181 2.105 . S
Sc171 O185 2.105 . S
Sc171 O187 2.105 . S
Sc171 O191 2.105 . S
Sc172 O173 2.025 . S
Sc172 O182 2.105 . S
Sc172 O184 2.105 . S
Sc172 O188 2.105 . S
Sc172 O190 2.105 . S
O173 Sc170 2.025 . S
O173 Sc171 2.025 . S
O173 Sc172 2.025 . S
C174 O180 1.268 . S
C174 O190 1.268 . S
C175 O181 1.268 . S
C175 O189 1.268 . S
C176 O182 1.268 . S
C176 O191 1.268 . S
C177 O183 1.268 . S
C177 O187 1.268 . S
C178 O184 1.268 . S
C178 O186 1.268 . S
C179 O185 1.268 . S
C179 O188 1.268 . S
O180 Sc170 2.105 . S
O180 C174 1.268 . S
O181 Sc171 2.105 . S
O181 C175 1.268 . S
O182 Sc172 2.105 . S
O182 C176 1.268 . S
O183 Sc170 2.105 . S
O183 C177 1.268 . S
O184 Sc172 2.105 . S
O184 C178 1.268 . S
O185 Sc171 2.105 . S
O185 C179 1.268 . S
O186 Sc170 2.105 . S
O186 C178 1.268 . S
O187 Sc171 2.105 . S
O187 C177 1.268 . S
O188 Sc172 2.105 . S
O188 C179 1.268 . S
O189 Sc170 2.105 . S
O189 C175 1.268 . S
O190 Sc172 2.105 . S
O190 C174 1.268 . S
O191 Sc171 2.105 . S
O191 C176 1.268 . S
H192 C204 0.930 . S
H193 C206 0.930 . S
H194 C207 0.930 . S
H195 C211 0.959 . S
H196 C211 0.959 . S
H197 C211 0.961 . S
H198 C212 0.960 . S
H199 C212 0.961 . S
H200 C212 0.959 . S
H201 C215 0.929 . S
H202 C216 0.931 . S
H203 C218 0.930 . S
C204 H192 0.930 . S
C204 C205 1.399 . S
C204 C209 1.399 . S
C205 C204 1.399 . S
C205 C206 1.376 . S
C206 H193 0.930 . S
C206 C205 1.376 . S
C206 C207 1.388 . S
C207 H194 0.930 . S
C207 C206 1.388 . S
C207 C208 1.390 . S
C208 C207 1.390 . S
C208 C209 1.394 . S
C208 C214 1.465 . S
C209 C204 1.399 . S
C209 C208 1.394 . S
C209 C210 1.516 . S
C210 C209 1.516 . S
C210 C211 1.502 . S
C210 C212 1.561 . S
C210 C213 1.526 . S
C211 H195 0.959 . S
C211 H196 0.959 . S
C211 H197 0.961 . S
C211 C210 1.502 . S
C212 H198 0.960 . S
C212 H199 0.961 . S
C212 H200 0.959 . S
C212 C210 1.561 . S
C213 C210 1.526 . S
C213 C214 1.396 . S
C213 C218 1.390 . S
C214 C208 1.465 . S
C214 C213 1.396 . S
C214 C215 1.399 . S
C215 H201 0.929 . S
C215 C214 1.399 . S
C215 C216 1.385 . S
C216 H202 0.931 . S
C216 C215 1.385 . S
C216 C217 1.389 . S
C217 C216 1.389 . S
C217 C218 1.387 . S
C218 H203 0.930 . S
C218 C213 1.390 . S
C218 C217 1.387 . S
H219 C231 0.930 . S
H220 C233 0.930 . S
H221 C234 0.930 . S
H222 C238 0.959 . S
H223 C238 0.959 . S
H224 C238 0.961 . S
H225 C239 0.960 . S
H226 C239 0.961 . S
H227 C239 0.959 . S
H228 C242 0.929 . S
H229 C243 0.931 . S
H230 C245 0.930 . S
C231 H219 0.930 . S
C231 C232 1.399 . S
C231 C236 1.399 . S
C232 C231 1.399 . S
C232 C233 1.376 . S
C233 H220 0.930 . S
C233 C232 1.376 . S
C233 C234 1.388 . S
C234 H221 0.930 . S
C234 C233 1.388 . S
C234 C235 1.390 . S
C235 C234 1.390 . S
C235 C236 1.394 . S
C235 C241 1.465 . S
C236 C231 1.399 . S
C236 C235 1.394 . S
C236 C237 1.516 . S
C237 C236 1.516 . S
C237 C238 1.502 . S
C237 C239 1.561 . S
C237 C240 1.526 . S
C238 H222 0.959 . S
C238 H223 0.959 . S
C238 H224 0.961 . S
C238 C237 1.502 . S
C239 H225 0.960 . S
C239 H226 0.961 . S
C239 H227 0.959 . S
C239 C237 1.561 . S
C240 C237 1.526 . S
C240 C241 1.396 . S
C240 C245 1.390 . S
C241 C235 1.465 . S
C241 C240 1.396 . S
C241 C242 1.399 . S
C242 H228 0.929 . S
C242 C241 1.399 . S
C242 C243 1.385 . S
C243 H229 0.931 . S
C243 C242 1.385 . S
C243 C244 1.389 . S
C244 C243 1.389 . S
C244 C245 1.387 . S
C245 H230 0.930 . S
C245 C240 1.390 . S
C245 C244 1.387 . S
H246 C258 0.930 . S
H247 C260 0.930 . S
H248 C261 0.930 . S
H249 C265 0.959 . S
H250 C265 0.959 . S
H251 C265 0.961 . S
H252 C266 0.960 . S
H253 C266 0.961 . S
H254 C266 0.959 . S
H255 C269 0.929 . S
H256 C270 0.931 . S
H257 C272 0.930 . S
C258 H246 0.930 . S
C258 C259 1.399 . S
C258 C263 1.399 . S
C259 C258 1.399 . S
C259 C260 1.376 1_556 S
C260 H247 0.930 . S
C260 C259 1.376 1_554 S
C260 C261 1.388 . S
C261 H248 0.930 . S
C261 C260 1.388 . S
C261 C262 1.390 1_554 S
C262 C261 1.390 1_556 S
C262 C263 1.394 . S
C262 C268 1.465 . S
C263 C258 1.399 . S
C263 C262 1.394 . S
C263 C264 1.516 . S
C264 C263 1.516 . S
C264 C265 1.502 . S
C264 C266 1.561 . S
C264 C267 1.526 . S
C265 H249 0.959 . S
C265 H250 0.959 . S
C265 H251 0.961 . S
C265 C264 1.502 . S
C266 H252 0.960 . S
C266 H253 0.961 . S
C266 H254 0.959 . S
C266 C264 1.561 . S
C267 C264 1.526 . S
C267 C268 1.396 . S
C267 C272 1.390 . S
C268 C262 1.465 . S
C268 C267 1.396 . S
C268 C269 1.399 . S
C269 H255 0.929 . S
C269 C268 1.399 . S
C269 C270 1.385 . S
C270 H256 0.931 . S
C270 C269 1.385 . S
C270 C271 1.389 . S
C271 C270 1.389 . S
C271 C272 1.387 . S
C272 H257 0.930 . S
C272 C267 1.390 . S
C272 C271 1.387 . S
H273 C285 0.930 . S
H274 C287 0.930 . S
H275 C288 0.930 . S
H276 C292 0.959 . S
H277 C292 0.959 . S
H278 C292 0.961 . S
H279 C293 0.960 . S
H280 C293 0.961 . S
H281 C293 0.959 . S
H282 C296 0.929 . S
H283 C297 0.931 . S
H284 C299 0.930 . S
C285 H273 0.930 . S
C285 C286 1.399 . S
C285 C290 1.399 . S
C286 C285 1.399 . S
C286 C287 1.376 . S
C287 H274 0.930 . S
C287 C286 1.376 . S
C287 C288 1.388 . S
C288 H275 0.930 . S
C288 C287 1.388 . S
C288 C289 1.390 . S
C289 C288 1.390 . S
C289 C290 1.394 . S
C289 C295 1.465 . S
C290 C285 1.399 . S
C290 C289 1.394 . S
C290 C291 1.516 . S
C291 C290 1.516 . S
C291 C292 1.502 . S
C291 C293 1.561 . S
C291 C294 1.526 . S
C292 H276 0.959 . S
C292 H277 0.959 . S
C292 H278 0.961 . S
C292 C291 1.502 . S
C293 H279 0.960 . S
C293 H280 0.961 . S
C293 H281 0.959 . S
C293 C291 1.561 . S
C294 C291 1.526 . S
C294 C295 1.396 . S
C294 C299 1.390 . S
C295 C289 1.465 . S
C295 C294 1.396 . S
C295 C296 1.399 . S
C296 H282 0.929 . S
C296 C295 1.399 . S
C296 C297 1.385 . S
C297 H283 0.931 . S
C297 C296 1.385 . S
C297 C298 1.389 . S
C298 C297 1.389 . S
C298 C299 1.387 . S
C299 H284 0.930 . S
C299 C294 1.390 . S
C299 C298 1.387 . S
H300 C312 0.930 . S
H301 C314 0.930 . S
H302 C315 0.930 . S
H303 C319 0.959 . S
H304 C319 0.959 . S
H305 C319 0.961 . S
H306 C320 0.950 1_554 S
H307 C320 0.961 . S
H308 C320 0.959 1_554 S
H309 C323 0.929 . S
H310 C324 0.931 . S
H311 C326 0.930 . S
C312 H300 0.930 . S
C312 C313 1.399 . S
C312 C317 1.399 . S
C313 C312 1.399 . S
C313 C314 1.376 . S
C314 H301 0.930 . S
C314 C313 1.376 . S
C314 C315 1.388 . S
C315 H302 0.930 . S
C315 C314 1.388 . S
C315 C316 1.390 . S
C316 C315 1.390 . S
C316 C317 1.394 . S
C316 C322 1.465 . S
C317 C312 1.399 . S
C317 C316 1.394 . S
C317 C318 1.516 . S
C318 C317 1.516 . S
C318 C319 1.502 . S
C318 C320 1.561 . S
C318 C321 1.526 . S
C319 H303 0.959 . S
C319 H304 0.959 . S
C319 H305 0.961 . S
C319 C318 1.502 . S
C320 H306 0.950 1_556 S
C320 H307 0.961 . S
C320 H308 0.959 1_556 S
C320 C318 1.561 . S
C321 C318 1.526 . S
C321 C322 1.396 . S
C321 C326 1.390 . S
C322 C316 1.465 . S
C322 C321 1.396 . S
C322 C323 1.399 . S
C323 H309 0.929 . S
C323 C322 1.399 . S
C323 C324 1.385 . S
C324 H310 0.931 . S
C324 C323 1.385 . S
C324 C325 1.389 . S
C325 C324 1.389 . S
C325 C326 1.387 . S
C326 H311 0.930 . S
C326 C321 1.390 . S
C326 C325 1.387 . S
H327 C339 0.930 . S
H328 C341 0.930 . S
H329 C342 0.930 . S
H330 C346 0.959 . S
H331 C346 0.959 . S
H332 C346 0.961 . S
H333 C347 0.960 . S
H334 C347 0.961 . S
H335 C347 0.959 . S
H336 C350 0.929 . S
H337 C351 0.931 . S
H338 C353 0.930 . S
C339 H327 0.930 . S
C339 C340 1.399 . S
C339 C344 1.399 . S
C340 C339 1.399 . S
C340 C341 1.376 . S
C341 H328 0.930 . S
C341 C340 1.376 . S
C341 C342 1.388 . S
C342 H329 0.930 . S
C342 C341 1.388 . S
C342 C343 1.390 . S
C343 C342 1.390 . S
C343 C344 1.394 . S
C343 C349 1.465 . S
C344 C339 1.399 . S
C344 C343 1.394 . S
C344 C345 1.516 . S
C345 C344 1.516 . S
C345 C346 1.502 . S
C345 C347 1.561 . S
C345 C348 1.526 . S
C346 H330 0.959 . S
C346 H331 0.959 . S
C346 H332 0.961 . S
C346 C345 1.502 . S
C347 H333 0.960 . S
C347 H334 0.961 . S
C347 H335 0.959 . S
C347 C345 1.561 . S
C348 C345 1.526 . S
C348 C349 1.396 . S
C348 C353 1.390 . S
C349 C343 1.465 . S
C349 C348 1.396 . S
C349 C350 1.399 . S
C350 H336 0.929 . S
C350 C349 1.399 . S
C350 C351 1.385 . S
C351 H337 0.931 . S
C351 C350 1.385 . S
C351 C352 1.389 . S
C352 C351 1.389 . S
C352 C353 1.387 . S
C353 H338 0.930 . S
C353 C348 1.390 . S
C353 C352 1.387 . S
H354 C366 0.930 1_554 S
H355 C368 0.930 . S
H356 C369 0.930 . S
H357 C373 0.959 . S
H358 C373 0.959 . S
H359 C373 0.961 . S
H360 C374 0.960 1_554 S
H361 C374 0.961 . S
H362 C374 0.959 . S
H363 C377 0.929 . S
H364 C378 0.931 . S
H365 C380 0.930 . S
C366 H354 0.930 1_556 S
C366 C367 1.399 . S
C366 C371 1.399 . S
C367 C366 1.399 . S
C367 C368 1.376 . S
C368 H355 0.930 . S
C368 C367 1.376 . S
C368 C369 1.388 . S
C369 H356 0.930 . S
C369 C368 1.388 . S
C369 C370 1.390 . S
C370 C369 1.390 . S
C370 C371 1.394 . S
C370 C376 1.465 . S
C371 C366 1.399 . S
C371 C370 1.394 . S
C371 C372 1.516 . S
C372 C371 1.516 . S
C372 C373 1.502 1_556 S
C372 C374 1.561 . S
C372 C375 1.526 . S
C373 H357 0.959 . S
C373 H358 0.959 . S
C373 H359 0.961 . S
C373 C372 1.502 1_554 S
C374 H360 0.960 1_556 S
C374 H361 0.961 . S
C374 H362 0.959 . S
C374 C372 1.561 . S
C375 C372 1.526 . S
C375 C376 1.396 . S
C375 C380 1.390 . S
C376 C370 1.465 . S
C376 C375 1.396 . S
C376 C377 1.399 . S
C377 H363 0.929 . S
C377 C376 1.399 . S
C377 C378 1.385 . S
C378 H364 0.931 . S
C378 C377 1.385 . S
C378 C379 1.389 . S
C379 C378 1.389 . S
C379 C380 1.387 . S
C380 H365 0.930 . S
C380 C375 1.390 . S
C380 C379 1.387 . S
H381 C393 0.930 . S
H382 C395 0.930 . S
H383 C396 0.930 . S
H384 C400 0.959 . S
H385 C400 0.959 . S
H386 C400 0.961 . S
H387 C401 0.960 . S
H388 C401 0.961 . S
H389 C401 0.959 . S
H390 C404 0.929 . S
H391 C405 0.931 . S
H392 C407 0.930 . S
C393 H381 0.930 . S
C393 C394 1.399 . S
C393 C398 1.399 . S
C394 C393 1.399 . S
C394 C395 1.376 . S
C395 H382 0.930 . S
C395 C394 1.376 . S
C395 C396 1.388 . S
C396 H383 0.930 . S
C396 C395 1.388 . S
C396 C397 1.390 . S
C397 C396 1.390 . S
C397 C398 1.394 . S
C397 C403 1.465 . S
C398 C393 1.399 . S
C398 C397 1.394 . S
C398 C399 1.516 . S
C399 C398 1.516 . S
C399 C400 1.502 . S
C399 C401 1.561 . S
C399 C402 1.526 . S
C400 H384 0.959 . S
C400 H385 0.959 . S
C400 H386 0.961 . S
C400 C399 1.502 . S
C401 H387 0.960 . S
C401 H388 0.961 . S
C401 H389 0.959 . S
C401 C399 1.561 . S
C402 C399 1.526 . S
C402 C403 1.396 . S
C402 C407 1.390 . S
C403 C397 1.465 . S
C403 C402 1.396 . S
C403 C404 1.399 . S
C404 H390 0.929 . S
C404 C403 1.399 . S
C404 C405 1.385 . S
C405 H391 0.931 . S
C405 C404 1.385 . S
C405 C406 1.389 . S
C406 C405 1.389 . S
C406 C407 1.387 . S
C407 H392 0.930 . S
C407 C402 1.390 . S
C407 C406 1.387 . S
H408 C420 0.930 . S
H409 C422 0.930 . S
H410 C423 0.930 . S
H411 C427 0.959 . S
H412 C427 0.959 . S
H413 C427 0.961 . S
H414 C428 0.960 . S
H415 C428 0.961 . S
H416 C428 0.959 . S
H417 C431 0.929 . S
H418 C432 0.931 . S
H419 C434 0.930 . S
C420 H408 0.930 . S
C420 C421 1.399 . S
C420 C425 1.399 . S
C421 C420 1.399 . S
C421 C422 1.376 . S
C422 H409 0.930 . S
C422 C421 1.376 . S
C422 C423 1.388 . S
C423 H410 0.930 . S
C423 C422 1.388 . S
C423 C424 1.390 . S
C424 C423 1.390 . S
C424 C425 1.394 . S
C424 C430 1.465 . S
C425 C420 1.399 . S
C425 C424 1.394 . S
C425 C426 1.516 . S
C426 C425 1.516 . S
C426 C427 1.502 . S
C426 C428 1.561 . S
C426 C429 1.526 . S
C427 H411 0.959 . S
C427 H412 0.959 . S
C427 H413 0.961 . S
C427 C426 1.502 . S
C428 H414 0.960 . S
C428 H415 0.961 . S
C428 H416 0.959 . S
C428 C426 1.561 . S
C429 C426 1.526 . S
C429 C430 1.396 . S
C429 C434 1.390 . S
C430 C424 1.465 . S
C430 C429 1.396 . S
C430 C431 1.399 . S
C431 H417 0.929 . S
C431 C430 1.399 . S
C431 C432 1.385 . S
C432 H418 0.931 . S
C432 C431 1.385 . S
C432 C433 1.389 . S
C433 C432 1.389 . S
C433 C434 1.387 . S
C434 H419 0.930 . S
C434 C429 1.390 . S
C434 C433 1.387 . S
H435 C447 0.930 . S
H436 C449 0.930 . S
H437 C450 0.930 . S
H438 C454 0.959 . S
H439 C454 0.959 . S
H440 C454 0.961 . S
H441 C455 0.960 . S
H442 C455 0.961 . S
H443 C455 0.959 . S
H444 C458 0.929 . S
H445 C459 0.931 . S
H446 C461 0.930 . S
C447 H435 0.930 . S
C447 C448 1.399 . S
C447 C452 1.399 . S
C448 C447 1.399 . S
C448 C449 1.376 . S
C449 H436 0.930 . S
C449 C448 1.376 . S
C449 C450 1.388 . S
C450 H437 0.930 . S
C450 C449 1.388 . S
C450 C451 1.390 . S
C451 C450 1.390 . S
C451 C452 1.394 . S
C451 C457 1.465 . S
C452 C447 1.399 . S
C452 C451 1.394 . S
C452 C453 1.516 . S
C453 C452 1.516 . S
C453 C454 1.502 . S
C453 C455 1.561 . S
C453 C456 1.526 . S
C454 H438 0.959 . S
C454 H439 0.959 . S
C454 H440 0.961 . S
C454 C453 1.502 . S
C455 H441 0.960 . S
C455 H442 0.961 . S
C455 H443 0.959 . S
C455 C453 1.561 . S
C456 C453 1.526 . S
C456 C457 1.396 . S
C456 C461 1.390 . S
C457 C451 1.465 . S
C457 C456 1.396 . S
C457 C458 1.399 . S
C458 H444 0.929 . S
C458 C457 1.399 . S
C458 C459 1.385 . S
C459 H445 0.931 . S
C459 C458 1.385 . S
C459 C460 1.389 . S
C460 C459 1.389 . S
C460 C461 1.387 . S
C461 H446 0.930 . S
C461 C456 1.390 . S
C461 C460 1.387 . S
H462 C474 0.930 1_554 S
H463 C476 0.930 . S
H464 C477 0.930 . S
H465 C481 0.959 . S
H466 C481 0.959 1_554 S
H467 C481 0.961 1_554 S
H468 C482 0.960 . S
H469 C482 0.961 . S
H470 C482 0.959 . S
H471 C485 0.929 . S
H472 C486 0.931 . S
H473 C488 0.930 . S
C474 H462 0.930 1_556 S
C474 C475 1.399 . S
C474 C479 1.399 . S
C475 C474 1.399 . S
C475 C476 1.376 . S
C476 H463 0.930 . S
C476 C475 1.376 . S
C476 C477 1.388 . S
C477 H464 0.930 . S
C477 C476 1.388 . S
C477 C478 1.390 . S
C478 C477 1.390 . S
C478 C479 1.394 . S
C478 C484 1.465 . S
C479 C474 1.399 . S
C479 C478 1.394 . S
C479 C480 1.516 . S
C480 C479 1.516 . S
C480 C481 1.502 . S
C480 C482 1.561 1_556 S
C480 C483 1.526 . S
C481 H465 0.959 . S
C481 H466 0.959 1_556 S
C481 H467 0.961 1_556 S
C481 C480 1.502 . S
C482 H468 0.960 . S
C482 H469 0.961 . S
C482 H470 0.959 . S
C482 C480 1.561 1_554 S
C483 C480 1.526 . S
C483 C484 1.396 . S
C483 C488 1.390 . S
C484 C478 1.465 . S
C484 C483 1.396 . S
C484 C485 1.399 . S
C485 H471 0.929 . S
C485 C484 1.399 . S
C485 C486 1.385 . S
C486 H472 0.931 . S
C486 C485 1.385 . S
C486 C487 1.389 . S
C487 C486 1.389 . S
C487 C488 1.387 . S
C488 H473 0.930 . S
C488 C483 1.390 . S
C488 C487 1.387 . S
H489 C501 0.930 . S
H490 C503 0.930 . S
H491 C504 0.930 . S
H492 C508 0.959 . S
H493 C508 0.959 . S
H494 C508 0.961 . S
H495 C509 0.960 . S
H496 C509 0.961 . S
H497 C509 0.959 . S
H498 C512 0.929 . S
H499 C513 0.931 . S
H500 C515 0.930 . S
C501 H489 0.930 . S
C501 C502 1.399 . S
C501 C506 1.399 . S
C502 C501 1.399 . S
C502 C503 1.376 . S
C503 H490 0.930 . S
C503 C502 1.376 . S
C503 C504 1.388 . S
C504 H491 0.930 . S
C504 C503 1.388 . S
C504 C505 1.390 . S
C505 C504 1.390 . S
C505 C506 1.394 . S
C505 C511 1.465 . S
C506 C501 1.399 . S
C506 C505 1.394 . S
C506 C507 1.516 . S
C507 C506 1.516 . S
C507 C508 1.502 . S
C507 C509 1.561 . S
C507 C510 1.526 . S
C508 H492 0.959 . S
C508 H493 0.959 . S
C508 H494 0.961 . S
C508 C507 1.502 . S
C509 H495 0.960 . S
C509 H496 0.961 . S
C509 H497 0.959 . S
C509 C507 1.561 . S
C510 C507 1.526 . S
C510 C511 1.396 . S
C510 C515 1.390 . S
C511 C505 1.465 . S
C511 C510 1.396 . S
C511 C512 1.399 . S
C512 H498 0.929 . S
C512 C511 1.399 . S
C512 C513 1.385 . S
C513 H499 0.931 . S
C513 C512 1.385 . S
C513 C514 1.389 . S
C514 C513 1.389 . S
C514 C515 1.387 . S
C515 H500 0.930 . S
C515 C510 1.390 . S
C515 C514 1.387 . S
H516 C528 0.930 1_554 S
H517 C530 0.930 . S
H518 C531 0.930 . S
H519 C535 0.959 . S
H520 C535 0.959 . S
H521 C535 0.961 . S
H522 C536 0.960 . S
H523 C536 0.961 . S
H524 C536 0.959 . S
H525 C539 0.929 . S
H526 C540 0.931 . S
H527 C542 0.930 . S
C528 H516 0.930 1_556 S
C528 C529 1.399 . S
C528 C533 1.399 . S
C529 C528 1.399 . S
C529 C530 1.376 . S
C530 H517 0.930 . S
C530 C529 1.376 . S
C530 C531 1.388 . S
C531 H518 0.930 . S
C531 C530 1.388 . S
C531 C532 1.390 . S
C532 C531 1.390 . S
C532 C533 1.394 . S
C532 C538 1.465 . S
C533 C528 1.399 . S
C533 C532 1.394 . S
C533 C534 1.516 1_565 S
C534 C533 1.516 1_545 S
C534 C535 1.502 . S
C534 C536 1.561 1_556 S
C534 C537 1.526 . S
C535 H519 0.959 . S
C535 H520 0.959 . S
C535 H521 0.961 . S
C535 C534 1.502 . S
C536 H522 0.960 . S
C536 H523 0.961 . S
C536 H524 0.959 . S
C536 C534 1.561 1_554 S
C537 C534 1.526 . S
C537 C538 1.396 1_545 S
C537 C542 1.390 . S
C538 C532 1.465 . S
C538 C537 1.396 1_565 S
C538 C539 1.399 . S
C539 H525 0.929 . S
C539 C538 1.399 . S
C539 C540 1.385 1_565 S
C540 H526 0.931 . S
C540 C539 1.385 1_545 S
C540 C541 1.389 . S
C541 C540 1.389 . S
C541 C542 1.387 . S
C542 H527 0.930 . S
C542 C537 1.390 . S
C542 C541 1.387 . S
H543 C555 0.930 . S
H544 C557 0.930 . S
H545 C558 0.930 . S
H546 C562 0.959 . S
H547 C562 0.959 . S
H548 C562 0.961 . S
H549 C563 0.960 . S
H550 C563 0.961 . S
H551 C563 0.959 . S
H552 C566 0.929 . S
H553 C567 0.931 . S
H554 C569 0.930 . S
C555 H543 0.930 . S
C555 C556 1.399 . S
C555 C560 1.399 . S
C556 C555 1.399 . S
C556 C557 1.376 . S
C557 H544 0.930 . S
C557 C556 1.376 . S
C557 C558 1.388 . S
C558 H545 0.930 . S
C558 C557 1.388 . S
C558 C559 1.390 . S
C559 C558 1.390 . S
C559 C560 1.394 . S
C559 C565 1.465 . S
C560 C555 1.399 . S
C560 C559 1.394 . S
C560 C561 1.516 1_545 S
C561 C560 1.516 1_565 S
C561 C562 1.502 . S
C561 C563 1.561 . S
C561 C564 1.526 . S
C562 H546 0.959 . S
C562 H547 0.959 . S
C562 H548 0.961 . S
C562 C561 1.502 . S
C563 H549 0.960 . S
C563 H550 0.961 . S
C563 H551 0.959 . S
C563 C561 1.561 . S
C564 C561 1.526 . S
C564 C565 1.396 1_565 S
C564 C569 1.390 . S
C565 C559 1.465 . S
C565 C564 1.396 1_545 S
C565 C566 1.399 . S
C566 H552 0.929 . S
C566 C565 1.399 . S
C566 C567 1.385 1_545 S
C567 H553 0.931 . S
C567 C566 1.385 1_565 S
C567 C568 1.389 . S
C568 C567 1.389 . S
C568 C569 1.387 . S
C569 H554 0.930 . S
C569 C564 1.390 . S
C569 C568 1.387 . S
H570 C582 0.930 . S
H571 C584 0.930 1_554 S
H572 C585 0.930 . S
H573 C589 0.959 . S
H574 C589 0.959 . S
H575 C589 0.961 . S
H576 C590 0.960 . S
H577 C590 0.961 1_545 S
H578 C590 0.959 . S
H579 C593 0.929 . S
H580 C594 0.931 . S
H581 C596 0.930 . S
C582 H570 0.930 . S
C582 C583 1.399 . S
C582 C587 1.399 . S
C583 C582 1.399 . S
C583 C584 1.376 . S
C584 H571 0.930 1_556 S
C584 C583 1.376 . S
C584 C585 1.388 . S
C585 H572 0.930 . S
C585 C584 1.388 . S
C585 C586 1.390 . S
C586 C585 1.390 . S
C586 C587 1.394 . S
C586 C592 1.465 . S
C587 C582 1.399 . S
C587 C586 1.394 . S
C587 C588 1.516 1_565 S
C588 C587 1.516 1_545 S
C588 C589 1.502 . S
C588 C590 1.561 1_545 S
C588 C591 1.526 . S
C589 H573 0.959 . S
C589 H574 0.959 . S
C589 H575 0.961 . S
C589 C588 1.502 . S
C590 H576 0.960 . S
C590 H577 0.961 1_565 S
C590 H578 0.959 . S
C590 C588 1.561 1_565 S
C591 C588 1.526 . S
C591 C592 1.396 1_545 S
C591 C596 1.390 . S
C592 C586 1.465 . S
C592 C591 1.396 1_565 S
C592 C593 1.399 . S
C593 H579 0.929 . S
C593 C592 1.399 . S
C593 C594 1.385 1_565 S
C594 H580 0.931 . S
C594 C593 1.385 1_545 S
C594 C595 1.389 . S
C595 C594 1.389 . S
C595 C596 1.387 . S
C596 H581 0.930 . S
C596 C591 1.390 . S
C596 C595 1.387 . S
H597 C609 0.930 . S
H598 C611 0.930 . S
H599 C612 0.930 . S
H600 C616 0.959 1_565 S
H601 C616 0.959 . S
H602 C616 0.961 . S
H603 C617 0.960 . S
H604 C617 0.961 . S
H605 C617 0.959 . S
H606 C620 0.929 . S
H607 C621 0.931 . S
H608 C623 0.930 . S
C609 H597 0.930 . S
C609 C610 1.399 . S
C609 C614 1.399 . S
C610 C609 1.399 . S
C610 C611 1.376 . S
C611 H598 0.930 . S
C611 C610 1.376 . S
C611 C612 1.388 . S
C612 H599 0.930 . S
C612 C611 1.388 . S
C612 C613 1.390 . S
C613 C612 1.390 . S
C613 C614 1.394 . S
C613 C619 1.465 1_545 S
C614 C609 1.399 . S
C614 C613 1.394 . S
C614 C615 1.516 . S
C615 C614 1.516 . S
C615 C616 1.502 . S
C615 C617 1.561 . S
C615 C618 1.519 1_545 S
C616 H600 0.959 1_545 S
C616 H601 0.959 . S
C616 H602 0.961 . S
C616 C615 1.502 . S
C617 H603 0.960 . S
C617 H604 0.961 . S
C617 H605 0.959 . S
C617 C615 1.561 . S
C618 C615 1.519 1_565 S
C618 C619 1.397 . S
C618 C623 1.395 . S
C619 C613 1.465 1_565 S
C619 C618 1.397 . S
C619 C620 1.399 . S
C620 H606 0.929 . S
C620 C619 1.399 . S
C620 C621 1.385 . S
C621 H607 0.931 . S
C621 C620 1.385 . S
C621 C622 1.389 . S
C622 C621 1.389 . S
C622 C623 1.387 . S
C623 H608 0.930 . S
C623 C618 1.395 . S
C623 C622 1.387 . S
H624 C636 0.930 . S
H625 C638 0.930 . S
H626 C639 0.930 . S
H627 C643 0.959 . S
H628 C643 0.959 . S
H629 C643 0.961 . S
H630 C644 0.960 . S
H631 C644 0.961 . S
H632 C644 0.959 . S
H633 C647 0.929 . S
H634 C648 0.931 . S
H635 C650 0.930 . S
C636 H624 0.930 . S
C636 C637 1.399 . S
C636 C641 1.399 . S
C637 C636 1.399 . S
C637 C638 1.376 . S
C638 H625 0.930 . S
C638 C637 1.376 . S
C638 C639 1.388 . S
C639 H626 0.930 . S
C639 C638 1.388 . S
C639 C640 1.390 . S
C640 C639 1.390 . S
C640 C641 1.394 . S
C640 C646 1.465 . S
C641 C636 1.399 . S
C641 C640 1.394 . S
C641 C642 1.516 . S
C642 C641 1.516 . S
C642 C643 1.502 . S
C642 C644 1.561 . S
C642 C645 1.526 . S
C643 H627 0.959 . S
C643 H628 0.959 . S
C643 H629 0.961 . S
C643 C642 1.502 . S
C644 H630 0.960 . S
C644 H631 0.961 . S
C644 H632 0.959 . S
C644 C642 1.561 . S
C645 C642 1.526 . S
C645 C646 1.396 . S
C645 C650 1.390 . S
C646 C640 1.465 . S
C646 C645 1.396 . S
C646 C647 1.399 . S
C647 H633 0.929 . S
C647 C646 1.399 . S
C647 C648 1.385 . S
C648 H634 0.931 . S
C648 C647 1.385 . S
C648 C649 1.389 . S
C649 C648 1.389 . S
C649 C650 1.387 . S
C650 H635 0.930 . S
C650 C645 1.390 . S
C650 C649 1.387 . S
H651 C663 0.930 . S
H652 C665 0.930 . S
H653 C666 0.930 . S
H654 C670 0.959 . S
H655 C670 0.959 . S
H656 C670 0.961 . S
H657 C671 0.960 . S
H658 C671 0.961 . S
H659 C671 0.959 . S
H660 C674 0.929 . S
H661 C675 0.931 . S
H662 C677 0.930 . S
C663 H651 0.930 . S
C663 C664 1.399 . S
C663 C668 1.399 . S
C664 C663 1.399 . S
C664 C665 1.376 . S
C665 H652 0.930 . S
C665 C664 1.376 . S
C665 C666 1.388 . S
C666 H653 0.930 . S
C666 C665 1.388 . S
C666 C667 1.390 . S
C667 C666 1.390 . S
C667 C668 1.394 . S
C667 C673 1.465 . S
C668 C663 1.399 . S
C668 C667 1.394 . S
C668 C669 1.516 . S
C669 C668 1.516 . S
C669 C670 1.502 . S
C669 C671 1.561 . S
C669 C672 1.526 . S
C670 H654 0.959 . S
C670 H655 0.959 . S
C670 H656 0.961 . S
C670 C669 1.502 . S
C671 H657 0.960 . S
C671 H658 0.961 . S
C671 H659 0.959 . S
C671 C669 1.561 . S
C672 C669 1.526 . S
C672 C673 1.396 . S
C672 C677 1.390 . S
C673 C667 1.465 . S
C673 C672 1.396 . S
C673 C674 1.399 . S
C674 H660 0.929 . S
C674 C673 1.399 . S
C674 C675 1.385 . S
C675 H661 0.931 . S
C675 C674 1.385 . S
C675 C676 1.389 . S
C676 C675 1.389 . S
C676 C677 1.387 . S
C677 H662 0.930 . S
C677 C672 1.390 . S
C677 C676 1.387 . S
H678 C690 0.930 . S
H679 C692 0.930 . S
H680 C693 0.930 . S
H681 C697 0.959 . S
H682 C697 0.959 . S
H683 C697 0.961 . S
H684 C698 0.960 . S
H685 C698 0.961 . S
H686 C698 0.959 . S
H687 C701 0.929 . S
H688 C702 0.931 . S
H689 C704 0.930 . S
C690 H678 0.930 . S
C690 C691 1.399 . S
C690 C695 1.399 . S
C691 C690 1.399 . S
C691 C692 1.376 . S
C692 H679 0.930 . S
C692 C691 1.376 . S
C692 C693 1.388 . S
C693 H680 0.930 . S
C693 C692 1.388 . S
C693 C694 1.390 . S
C694 C693 1.390 . S
C694 C695 1.394 . S
C694 C700 1.465 . S
C695 C690 1.399 . S
C695 C694 1.394 . S
C695 C696 1.516 . S
C696 C695 1.516 . S
C696 C697 1.502 . S
C696 C698 1.561 . S
C696 C699 1.526 . S
C697 H681 0.959 . S
C697 H682 0.959 . S
C697 H683 0.961 . S
C697 C696 1.502 . S
C698 H684 0.960 . S
C698 H685 0.961 . S
C698 H686 0.959 . S
C698 C696 1.561 . S
C699 C696 1.526 . S
C699 C700 1.396 . S
C699 C704 1.390 . S
C700 C694 1.465 . S
C700 C699 1.396 . S
C700 C701 1.399 . S
C701 H687 0.929 . S
C701 C700 1.399 . S
C701 C702 1.385 . S
C702 H688 0.931 . S
C702 C701 1.385 . S
C702 C703 1.389 . S
C703 C702 1.389 . S
C703 C704 1.387 . S
C704 H689 0.930 . S
C704 C699 1.390 . S
C704 C703 1.387 . S
H705 C717 0.930 . S
H706 C719 0.930 . S
H707 C720 0.930 . S
H708 C724 0.959 . S
H709 C724 0.959 . S
H710 C724 0.961 . S
H711 C725 0.960 . S
H712 C725 0.961 . S
H713 C725 0.959 . S
H714 C728 0.929 . S
H715 C729 0.931 . S
H716 C731 0.930 . S
C717 H705 0.930 . S
C717 C718 1.399 . S
C717 C722 1.399 . S
C718 C717 1.399 . S
C718 C719 1.376 . S
C719 H706 0.930 . S
C719 C718 1.376 . S
C719 C720 1.388 . S
C720 H707 0.930 . S
C720 C719 1.388 . S
C720 C721 1.390 . S
C721 C720 1.390 . S
C721 C722 1.394 . S
C721 C727 1.465 . S
C722 C717 1.399 . S
C722 C721 1.394 . S
C722 C723 1.516 . S
C723 C722 1.516 . S
C723 C724 1.502 . S
C723 C725 1.561 . S
C723 C726 1.526 . S
C724 H708 0.959 . S
C724 H709 0.959 . S
C724 H710 0.961 . S
C724 C723 1.502 . S
C725 H711 0.960 . S
C725 H712 0.961 . S
C725 H713 0.959 . S
C725 C723 1.561 . S
C726 C723 1.526 . S
C726 C727 1.396 . S
C726 C731 1.390 . S
C727 C721 1.465 . S
C727 C726 1.396 . S
C727 C728 1.399 . S
C728 H714 0.929 . S
C728 C727 1.399 . S
C728 C729 1.385 . S
C729 H715 0.931 . S
C729 C728 1.385 . S
C729 C730 1.389 . S
C730 C729 1.389 . S
C730 C731 1.387 . S
C731 H716 0.930 . S
C731 C726 1.390 . S
C731 C730 1.387 . S
H732 C744 0.930 . S
H733 C746 0.930 . S
H734 C747 0.930 . S
H735 C751 0.959 . S
H736 C751 0.959 . S
H737 C751 0.961 . S
H738 C752 0.960 . S
H739 C752 0.961 . S
H740 C752 0.959 . S
H741 C755 0.929 . S
H742 C756 0.931 . S
H743 C758 0.930 . S
C744 H732 0.930 . S
C744 C745 1.399 . S
C744 C749 1.399 . S
C745 C744 1.399 . S
C745 C746 1.376 . S
C746 H733 0.930 . S
C746 C745 1.376 . S
C746 C747 1.388 . S
C747 H734 0.930 . S
C747 C746 1.388 . S
C747 C748 1.390 . S
C748 C747 1.390 . S
C748 C749 1.394 . S
C748 C754 1.465 . S
C749 C744 1.399 . S
C749 C748 1.394 . S
C749 C750 1.516 . S
C750 C749 1.516 . S
C750 C751 1.502 . S
C750 C752 1.561 . S
C750 C753 1.526 . S
C751 H735 0.959 . S
C751 H736 0.959 . S
C751 H737 0.961 . S
C751 C750 1.502 . S
C752 H738 0.960 . S
C752 H739 0.961 . S
C752 H740 0.959 . S
C752 C750 1.561 . S
C753 C750 1.526 . S
C753 C754 1.396 . S
C753 C758 1.390 . S
C754 C748 1.465 . S
C754 C753 1.396 . S
C754 C755 1.399 . S
C755 H741 0.929 . S
C755 C754 1.399 . S
C755 C756 1.385 . S
C756 H742 0.931 . S
C756 C755 1.385 . S
C756 C757 1.389 . S
C757 C756 1.389 . S
C757 C758 1.387 . S
C758 H743 0.930 . S
C758 C753 1.390 . S
C758 C757 1.387 . S
H759 C771 0.930 . S
H760 C773 0.930 . S
H761 C774 0.930 . S
H762 C778 0.959 . S
H763 C778 0.959 . S
H764 C778 0.961 . S
H765 C779 0.960 . S
H766 C779 0.961 . S
H767 C779 0.959 . S
H768 C782 0.929 . S
H769 C783 0.931 . S
H770 C785 0.930 . S
C771 H759 0.930 . S
C771 C772 1.399 . S
C771 C776 1.399 . S
C772 C771 1.399 . S
C772 C773 1.376 . S
C773 H760 0.930 . S
C773 C772 1.376 . S
C773 C774 1.388 . S
C774 H761 0.930 . S
C774 C773 1.388 . S
C774 C775 1.390 . S
C775 C774 1.390 . S
C775 C776 1.394 . S
C775 C781 1.465 . S
C776 C771 1.399 . S
C776 C775 1.394 . S
C776 C777 1.516 . S
C777 C776 1.516 . S
C777 C778 1.502 . S
C777 C779 1.561 . S
C777 C780 1.526 . S
C778 H762 0.959 . S
C778 H763 0.959 . S
C778 H764 0.961 . S
C778 C777 1.502 . S
C779 H765 0.960 . S
C779 H766 0.961 . S
C779 H767 0.959 . S
C779 C777 1.561 . S
C780 C777 1.526 . S
C780 C781 1.396 . S
C780 C785 1.390 . S
C781 C775 1.465 . S
C781 C780 1.396 . S
C781 C782 1.399 . S
C782 H768 0.929 . S
C782 C781 1.399 . S
C782 C783 1.385 . S
C783 H769 0.931 . S
C783 C782 1.385 . S
C783 C784 1.389 . S
C784 C783 1.389 . S
C784 C785 1.387 . S
C785 H770 0.930 . S
C785 C780 1.390 . S
C785 C784 1.387 . S
H786 C798 0.930 . S
H787 C800 0.930 . S
H788 C801 0.930 . S
H789 C805 0.959 . S
H790 C805 0.959 . S
H791 C805 0.961 . S
H792 C806 0.960 . S
H793 C806 0.961 . S
H794 C806 0.959 . S
H795 C809 0.929 . S
H796 C810 0.931 . S
H797 C812 0.930 . S
C798 H786 0.930 . S
C798 C799 1.399 . S
C798 C803 1.399 . S
C799 C798 1.399 . S
C799 C800 1.376 . S
C800 H787 0.930 . S
C800 C799 1.376 . S
C800 C801 1.388 . S
C801 H788 0.930 . S
C801 C800 1.388 . S
C801 C802 1.390 . S
C802 C801 1.390 . S
C802 C803 1.394 . S
C802 C808 1.465 . S
C803 C798 1.399 . S
C803 C802 1.394 . S
C803 C804 1.516 . S
C804 C803 1.516 . S
C804 C805 1.502 . S
C804 C806 1.561 . S
C804 C807 1.526 . S
C805 H789 0.959 . S
C805 H790 0.959 . S
C805 H791 0.961 . S
C805 C804 1.502 . S
C806 H792 0.960 . S
C806 H793 0.961 . S
C806 H794 0.959 . S
C806 C804 1.561 . S
C807 C804 1.526 . S
C807 C808 1.396 . S
C807 C812 1.390 . S
C808 C802 1.465 . S
C808 C807 1.396 . S
C808 C809 1.399 . S
C809 H795 0.929 . S
C809 C808 1.399 . S
C809 C810 1.385 . S
C810 H796 0.931 . S
C810 C809 1.385 . S
C810 C811 1.389 . S
C811 C810 1.389 . S
C811 C812 1.387 . S
C812 H797 0.930 . S
C812 C807 1.390 . S
C812 C811 1.387 . S
H813 C825 0.930 . S
H814 C827 0.930 . S
H815 C828 0.930 . S
H816 C832 0.959 . S
H817 C832 0.959 . S
H818 C832 0.961 . S
H819 C833 0.960 . S
H820 C833 0.961 . S
H821 C833 0.959 . S
H822 C836 0.929 . S
H823 C837 0.931 . S
H824 C839 0.930 . S
C825 H813 0.930 . S
C825 C826 1.399 . S
C825 C830 1.399 . S
C826 C825 1.399 . S
C826 C827 1.376 . S
C827 H814 0.930 . S
C827 C826 1.376 . S
C827 C828 1.388 . S
C828 H815 0.930 . S
C828 C827 1.388 . S
C828 C829 1.390 . S
C829 C828 1.390 . S
C829 C830 1.394 . S
C829 C835 1.465 . S
C830 C825 1.399 . S
C830 C829 1.394 . S
C830 C831 1.516 . S
C831 C830 1.516 . S
C831 C832 1.502 . S
C831 C833 1.561 . S
C831 C834 1.526 . S
C832 H816 0.959 . S
C832 H817 0.959 . S
C832 H818 0.961 . S
C832 C831 1.502 . S
C833 H819 0.960 . S
C833 H820 0.961 . S
C833 H821 0.959 . S
C833 C831 1.561 . S
C834 C831 1.526 . S
C834 C835 1.396 . S
C834 C839 1.390 . S
C835 C829 1.465 . S
C835 C834 1.396 . S
C835 C836 1.399 . S
C836 H822 0.929 . S
C836 C835 1.399 . S
C836 C837 1.385 . S
C837 H823 0.931 . S
C837 C836 1.385 . S
C837 C838 1.389 . S
C838 C837 1.389 . S
C838 C839 1.387 . S
C839 H824 0.930 . S
C839 C834 1.390 . S
C839 C838 1.387 . S
C205 N2 1.520 . S
C217 C130 1.531 . S
C244 C108 1.521 . S
C232 N15 1.521 . S
C271 C134 1.491 . S
C259 N28 1.535 . S
C298 C112 1.488 . S
C286 N41 1.534 . S
C325 C174 1.484 . S
C313 N54 1.537 . S
C352 C152 1.518 . S
C340 N67 1.521 . S
C367 N80 1.515 . S
C379 C178 1.514 . S
C406 C156 1.502 . S
C394 N93 1.527 . S
C421 N5 1.501 . S
C433 C179 1.505 . S
C460 C157 1.486 . S
C448 N18 1.510 . S
C475 N31 1.495 . S
C487 C176 1.504 . S
C502 N44 1.510 . S
C514 C154 1.500 . S
C541 C135 1.471 . S
C529 N57 1.488 . S
C556 N70 1.486 . S
C568 C113 1.472 . S
C595 C132 1.461 . S
C583 N83 1.486 . S
C622 C110 1.473 . S
C610 N96 1.504 . S
C649 C153 1.491 . S
C637 N1 1.489 . S
C676 C175 1.498 . S
C664 N14 1.491 . S
C691 N27 1.464 . S
C703 C155 1.475 . S
C730 C177 1.488 . S
C718 N40 1.506 . S
C757 C109 1.498 . S
C745 N53 1.492 . S
C772 N66 1.490 . S
C784 C131 1.494 . S
C799 N79 1.504 . S
C811 C111 1.492 . S
C826 N92 1.505 . S
C838 C133 1.492 . S
