# Generated by pormake.
# Topology anh, (6,3)-cn, num edge types: 1
# Building blocks:
#     Node 0, Type 0, BuildingBlock: GEDQOX_clean_sbu_0, # of connection points: 6
#     Node 1, Type 0, BuildingBlock: GEDQOX_clean_sbu_0, # of connection points: 6
#     Node 2, Type 0, BuildingBlock: GEDQOX_clean_sbu_0, # of connection points: 6
#     Node 3, Type 1, BuildingBlock: QEWDON_clean_linker_0, # of connection points: 3
#     Node 4, Type 1, BuildingBlock: QEWDON_clean_linker_0, # of connection points: 3
#     Node 5, Type 1, BuildingBlock: QEWDON_clean_linker_0, # of connection points: 3
#     Node 6, Type 1, BuildingBlock: QEWDON_clean_linker_0, # of connection points: 3
#     Node 7, Type 1, BuildingBlock: QEWDON_clean_linker_0, # of connection points: 3
#     Node 8, Type 1, BuildingBlock: QEWDON_clean_linker_0, # of connection points: 3
#     Edge 9, Type (0, 1), BuildingBlock: AJUNOK_clean_linker_0, # of connection points: 2
#     Edge 10, Type (0, 1), BuildingBlock: AJUNOK_clean_linker_0, # of connection points: 2
#     Edge 11, Type (0, 1), BuildingBlock: AJUNOK_clean_linker_0, # of connection points: 2
#     Edge 12, Type (0, 1), BuildingBlock: AJUNOK_clean_linker_0, # of connection points: 2
#     Edge 13, Type (0, 1), BuildingBlock: AJUNOK_clean_linker_0, # of connection points: 2
#     Edge 14, Type (0, 1), BuildingBlock: AJUNOK_clean_linker_0, # of connection points: 2
#     Edge 15, Type (0, 1), BuildingBlock: AJUNOK_clean_linker_0, # of connection points: 2
#     Edge 16, Type (0, 1), BuildingBlock: AJUNOK_clean_linker_0, # of connection points: 2
#     Edge 17, Type (0, 1), BuildingBlock: AJUNOK_clean_linker_0, # of connection points: 2
#     Edge 18, Type (0, 1), BuildingBlock: AJUNOK_clean_linker_0, # of connection points: 2
#     Edge 19, Type (0, 1), BuildingBlock: AJUNOK_clean_linker_0, # of connection points: 2
#     Edge 20, Type (0, 1), BuildingBlock: AJUNOK_clean_linker_0, # of connection points: 2
#     Edge 21, Type (0, 1), BuildingBlock: AJUNOK_clean_linker_0, # of connection points: 2
#     Edge 22, Type (0, 1), BuildingBlock: AJUNOK_clean_linker_0, # of connection points: 2
#     Edge 23, Type (0, 1), BuildingBlock: AJUNOK_clean_linker_0, # of connection points: 2
#     Edge 24, Type (0, 1), BuildingBlock: AJUNOK_clean_linker_0, # of connection points: 2
#     Edge 25, Type (0, 1), BuildingBlock: AJUNOK_clean_linker_0, # of connection points: 2
#     Edge 26, Type (0, 1), BuildingBlock: AJUNOK_clean_linker_0, # of connection points: 2
# Relax obj value: 0.182
# Max RMSD: 0.199
# Mean RMSD: 0.126
data_MOF--net-anh--node1-GEDQOX_clean_sbu_0--node2-QEWDON_clean_linker_0--edge1-AJUNOK_clean_linker_0
_symmetry_space_group_name_H-M    P1
_symmetry_Int_Tables_number       1
_symmetry_cell_setting            triclinic
loop_
_symmetry_equiv_pos_as_xyz
'x, y, z'
_cell_length_a     25.327774
_cell_length_b     23.598137
_cell_length_c     35.86354
_cell_angle_alpha  97.273186
_cell_angle_beta   94.960016
_cell_angle_gamma 100.83118
loop_
_atom_site_label
_atom_site_type_symbol
_atom_site_fract_x
_atom_site_fract_y
_atom_site_fract_z
_atom_type_partial_charge
Nd0 Nd 0.10054 0.65285 0.13428 0.0
Nd1 Nd 1.07858 0.52628 0.12986 0.0
C2 C 0.14228 0.76169 0.12722 0.0
C3 C 0.1964 0.79698 0.14096 0.0
C4 C 0.22058 0.84055 0.12107 0.0
C5 C 0.27301 0.8723 0.13359 0.0
C6 C 0.30176 0.86084 0.1662 0.0
C7 C 0.27752 0.81687 0.18583 0.0
C8 C 0.22551 0.78493 0.17318 0.0
C9 C 0.09159 0.61627 0.20332 0.0
C10 C 0.21136 0.58475 0.13261 0.0
C11 C 1.04358 0.41776 0.14162 0.0
C12 C 0.99319 0.38404 0.15241 0.0
C13 C 0.97306 0.40088 0.18657 0.0
C14 C 0.9242 0.36993 0.19551 0.0
C15 C 0.89427 0.32162 0.1705 0.0
C16 C 0.9148 0.30447 0.13656 0.0
C17 C 0.96389 0.33515 0.12776 0.0
C18 C 0.09213 0.56507 0.06196 0.0
C19 C 0.96787 0.59393 0.12727 0.0
O20 O 0.14114 0.7178 0.10079 0.0
O21 O 0.11126 0.74775 0.15332 0.0
O22 O 1.071 0.65881 0.19291 0.0
O23 O 0.11728 0.59561 0.17808 0.0
O24 O 0.19171 0.63385 0.1321 0.0
O25 O 0.1752 0.53568 0.13369 0.0
O26 O 1.0727 0.45842 0.16746 0.0
O27 O 1.0407 0.43383 0.10803 0.0
O28 O 0.11174 0.52162 0.07219 0.0
O29 O 1.06426 0.58397 0.0863 0.0
O30 O 0.98799 0.54682 0.13418 0.0
O31 O 1.00404 0.64073 0.12184 0.0
H32 H 0.19899 0.84991 0.09589 0.0
H33 H 0.29074 0.90639 0.11819 0.0
H34 H 0.29902 0.80699 0.21088 0.0
H35 H 0.20805 0.75063 0.18854 0.0
H36 H 0.99456 0.43845 0.20622 0.0
H37 H 0.90948 0.3842 0.22186 0.0
H38 H 0.89211 0.26846 0.11619 0.0
H39 H 0.97844 0.32139 0.10122 0.0
Nd40 Nd 0.56295 0.02387 0.51433 0.0
Nd41 Nd 0.68016 0.04167 0.50591 0.0
C42 C 0.46453 0.98817 0.53232 0.0
C43 C 0.4224 0.93617 0.51856 0.0
C44 C 0.38407 0.91558 0.5421 0.0
C45 C 0.34348 0.86648 0.52879 0.0
C46 C 0.34041 0.83768 0.49158 0.0
C47 C 0.38008 0.85747 0.46855 0.0
C48 C 0.42086 0.90615 0.48198 0.0
C49 C 0.5851 0.03508 0.44211 0.0
C50 C 0.62141 0.90706 0.50399 0.0
C51 C 0.77848 0.07751 0.48729 0.0
C52 C 0.80905 0.13213 0.47728 0.0
C53 C 0.78737 0.16074 0.44933 0.0
C54 C 0.81543 0.2146 0.44233 0.0
C55 C 0.86539 0.24119 0.46332 0.0
C56 C 0.88723 0.21202 0.49089 0.0
C57 C 0.85949 0.15788 0.49758 0.0
C58 C 0.65528 0.03496 0.5787 0.0
C59 C 0.62134 0.15652 0.51768 0.0
O60 O 0.50791 0.97894 0.55112 0.0
O61 O 0.47549 0.02452 0.50806 0.0
O62 O 0.54762 0.05626 0.45796 0.0
O63 O 0.60737 1.00516 0.46317 0.0
O64 O 0.57919 0.92975 0.51249 0.0
O65 O 0.66619 0.94095 0.4969 0.0
O66 O 0.73811 0.04808 0.46297 0.0
O67 O 0.76731 0.07962 0.52227 0.0
O68 O 0.69218 1.01054 0.56418 0.0
O69 O 0.63504 0.06312 0.55566 0.0
O70 O 0.6587 0.1334 0.50094 0.0
O71 O 0.58374 0.12286 0.53276 0.0
H72 H 0.38537 0.93765 0.57066 0.0
H73 H 0.31434 0.85123 0.54752 0.0
H74 H 0.37881 0.83618 0.4398 0.0
H75 H 0.45081 0.92083 0.46362 0.0
H76 H 0.74828 0.14219 0.43342 0.0
H77 H 0.79757 0.23601 0.42092 0.0
H78 H 0.92479 0.23196 0.50833 0.0
H79 H 0.87673 0.13685 0.51947 0.0
Nd80 Nd 0.57155 0.50579 0.80959 0.0
Nd81 Nd 0.68842 0.52667 0.83249 0.0
C82 C 0.47242 0.49447 0.77783 0.0
C83 C 0.44207 0.54228 0.77943 0.0
C84 C 0.43624 0.57145 0.74786 0.0
C85 C 0.42283 0.62668 0.75201 0.0
C86 C 0.41516 0.65332 0.78782 0.0
C87 C 0.41649 0.62204 0.81857 0.0
C88 C 0.42988 0.56725 0.8145 0.0
C89 C 0.60031 0.53726 0.8869 0.0
C90 C 0.63553 0.64023 0.82736 0.0
C91 C 0.78756 0.52704 0.86207 0.0
C92 C 0.83668 0.52044 0.84508 0.0
C93 C 0.88216 0.51473 0.868 0.0
C94 C 0.93093 0.515 0.85285 0.0
C95 C 0.93481 0.5214 0.81459 0.0
C96 C 0.88786 0.5219 0.79092 0.0
C97 C 0.83886 0.52133 0.80614 0.0
C98 C 0.66532 0.53475 0.75733 0.0
C99 C 0.62412 0.38904 0.81341 0.0
O100 O 0.51431 0.50259 0.75882 0.0
O101 O 0.48317 0.47496 0.80974 0.0
O102 O 0.56391 0.55769 0.86804 0.0
O103 O 0.61898 0.50202 0.8652 0.0
O104 O 0.59822 0.60327 0.80363 0.0
O105 O 0.67018 0.61931 0.84903 0.0
O106 O 0.74917 0.48078 0.85602 0.0
O107 O 0.76998 0.57467 0.85781 0.0
O108 O 0.70788 0.56472 0.77831 0.0
O109 O 0.64025 0.49704 0.77486 0.0
O110 O 0.67102 0.42608 0.821 0.0
O111 O 0.57857 0.40843 0.80792 0.0
H112 H 0.44518 0.55307 0.72046 0.0
H113 H 0.42048 0.64939 0.72769 0.0
H114 H 0.40825 0.64059 0.84616 0.0
H115 H 0.43358 0.54614 0.83944 0.0
H116 H 0.88067 0.51306 0.89796 0.0
H117 H 0.96662 0.51538 0.87194 0.0
H118 H 0.88989 0.52682 0.76142 0.0
H119 H 0.80339 0.52442 0.78797 0.0
H120 H 0.63475 0.12286 0.27692 0.0
C121 C 0.60178 0.08881 0.26266 0.0
C122 C 0.57817 0.04445 0.28245 0.0
C123 C 0.58034 0.09159 0.22554 0.0
H124 H 0.5148 0.96855 0.27984 0.0
C125 C 0.5341 1.00173 0.26431 0.0
C126 C 0.51201 1.00392 0.22739 0.0
C127 C 0.53589 0.04844 0.20806 0.0
C128 C 0.59992 0.14268 0.20633 0.0
H129 H 0.51808 0.05122 0.17995 0.0
C130 C 0.65561 0.16597 0.20691 0.0
C131 C 0.673 0.21404 0.18808 0.0
C132 C 0.56206 0.16895 0.1874 0.0
H133 H 0.51901 0.15317 0.18721 0.0
C134 C 0.5791 0.21645 0.16892 0.0
H135 H 0.68517 0.14673 0.22185 0.0
C136 C 0.63406 0.23875 0.16909 0.0
H137 H 0.64618 0.27523 0.15404 0.0
H138 H 0.54953 0.23608 0.15436 0.0
H139 H 0.63131 0.57374 0.57963 0.0
C140 C 0.63207 0.52931 0.56822 0.0
C141 C 0.64189 0.491 0.59378 0.0
C142 C 0.62202 0.51024 0.52882 0.0
H143 H 0.64766 0.40327 0.60041 0.0
C144 C 0.6409 0.43253 0.58028 0.0
C145 C 0.62957 0.41043 0.54172 0.0
C146 C 0.62175 0.44993 0.51593 0.0
C147 C 0.60799 0.55212 0.50208 0.0
H148 H 0.61438 0.43283 0.48616 0.0
C149 C 0.62117 0.61457 0.51188 0.0
C150 C 0.60303 0.65168 0.48734 0.0
C151 C 0.57761 0.5294 0.46672 0.0
H152 H 0.56428 0.48306 0.45787 0.0
C153 C 0.5616 0.56593 0.44219 0.0
H154 H 0.64451 0.63478 0.53847 0.0
C155 C 0.57383 0.6262 0.45238 0.0
H156 H 0.55953 0.65324 0.43304 0.0
H157 H 0.53823 0.54718 0.41528 0.0
H158 H 0.21121 0.74884 0.95104 0.0
C159 C 0.18805 0.72088 0.92646 0.0
C160 C 0.15294 0.6692 0.93095 0.0
C161 C 0.19475 0.73471 0.88984 0.0
H162 H 0.09599 0.59354 0.90323 0.0
C163 C 0.12431 0.63233 0.89922 0.0
C164 C 0.12967 0.64618 0.86274 0.0
C165 C 0.16483 0.69738 0.85821 0.0
C166 C 0.23645 0.78443 0.88346 0.0
H167 H 0.169 0.70817 0.82996 0.0
C168 C 0.27143 0.77433 0.85642 0.0
C169 C 0.31211 0.81902 0.84895 0.0
C170 C 0.2425 0.84069 0.90362 0.0
H171 H 0.21589 0.84964 0.92472 0.0
C172 C 0.28301 0.88593 0.89621 0.0
H173 H 0.2685 0.73028 0.84212 0.0
C174 C 0.3181 0.87517 0.86914 0.0
H175 H 0.35013 0.91007 0.86441 0.0
H176 H 0.28764 0.92927 0.91183 0.0
H177 H 1.03397 0.54612 0.36832 0.0
C178 C 1.07076 0.5735 0.38337 0.0
C179 C 0.11179 0.59857 0.36291 0.0
C180 C 1.07602 0.58625 0.42305 0.0
H181 H 0.18882 0.65777 0.36668 0.0
C182 C 0.15833 0.63609 0.38242 0.0
C183 C 0.16343 0.64996 0.42189 0.0
C184 C 0.12273 0.62412 0.44203 0.0
C185 C 1.03146 0.56401 0.44488 0.0
H186 H 0.12692 0.63472 0.4726 0.0
C187 C 1.0069 0.50447 0.43947 0.0
C188 C 0.96678 0.48348 0.46203 0.0
C189 C 1.01432 0.60268 0.4722 0.0
H190 H 1.03208 0.64884 0.47657 0.0
C191 C 0.97396 0.58229 0.49406 0.0
H192 H 1.01952 0.4746 0.41815 0.0
C193 C 0.95052 0.52313 0.48923 0.0
H194 H 0.92012 0.50822 0.5072 0.0
H195 H 0.96116 0.61238 0.5151 0.0
H196 H 0.61859 0.97421 0.75003 0.0
C197 C 0.62084 1.01905 0.76218 0.0
C198 C 0.62298 0.06133 0.73763 0.0
C199 C 0.61951 0.03418 0.8015 0.0
H200 H 0.62599 0.15214 0.73325 0.0
C201 C 0.62355 0.11948 0.75213 0.0
C202 C 0.62198 0.13679 0.79057 0.0
C203 C 0.62131 0.09447 0.81535 0.0
C204 C 0.6139 0.98726 0.82749 0.0
H205 H 0.62235 0.10931 0.84522 0.0
C206 C 0.62738 0.93092 0.81821 0.0
C207 C 0.62127 0.88889 0.8437 0.0
C208 C 0.59274 0.99826 0.86222 0.0
H209 H 0.57878 0.03809 0.8703 0.0
C210 C 0.58765 0.95756 0.88729 0.0
H211 H 0.64341 0.91968 0.79192 0.0
C212 C 0.60218 0.90393 0.87838 0.0
H213 H 0.59722 0.87325 0.8985 0.0
H214 H 0.57161 0.96749 0.91383 0.0
H215 H 0.56748 0.57521 0.05997 0.0
C216 C 0.60771 0.57977 0.07423 0.0
C217 C 0.65042 0.57669 0.05167 0.0
C218 C 0.61541 0.5876 0.11399 0.0
H219 H 0.73598 0.58158 0.05003 0.0
C220 C 0.70415 0.58234 0.06835 0.0
C221 C 0.71848 0.58884 0.10757 0.0
C222 C 0.67272 0.59147 0.13052 0.0
C223 C 0.5631 0.59169 0.13617 0.0
H224 H 0.68234 0.59704 0.16082 0.0
C225 C 0.50526 0.58664 0.12008 0.0
C226 C 0.46034 0.59214 0.14365 0.0
C227 C 0.57156 0.60195 0.17587 0.0
H228 H 0.61146 0.6065 0.1906 0.0
C229 C 0.52953 0.60709 0.1982 0.0
H230 H 0.4948 0.57862 0.08979 0.0
C231 C 0.47599 0.60245 0.18272 0.0
H232 H 0.4459 0.60695 0.20204 0.0
H233 H 0.53883 0.61505 0.22868 0.0
C234 C 0.31501 0.63696 0.1322 0.0
C235 C 0.27494 0.58513 0.13193 0.0
C236 C 0.37287 0.63831 0.13281 0.0
C237 C 0.3969 0.58786 0.13215 0.0
H238 H 0.30176 0.67808 0.13294 0.0
H239 H 0.39957 0.68051 0.1351 0.0
S240 S 0.31327 0.43977 0.13269 0.0
N241 N 0.26728 0.48097 0.13175 0.0
N242 N 0.37235 0.48377 0.13285 0.0
C243 C 0.35731 0.53584 0.13183 0.0
C244 C 0.29841 0.53438 0.13148 0.0
C245 C 0.8613 0.34498 0.45816 0.0
C246 C 0.89216 0.30135 0.45888 0.0
C247 C 0.8856 0.40321 0.45772 0.0
C248 C 0.94194 0.42043 0.45817 0.0
H249 H 0.81815 0.33452 0.45936 0.0
H250 H 0.86006 0.43526 0.45783 0.0
S251 S 1.04091 0.32266 0.45761 0.0
N252 N 0.98183 0.27872 0.4574 0.0
N253 N 1.02796 0.38875 0.45805 0.0
C254 C 0.97328 0.37706 0.45765 0.0
C255 C 0.94835 0.31749 0.45781 0.0
C256 C 0.60162 0.72633 0.80447 0.0
C257 C 0.63677 0.70508 0.82977 0.0
C258 C 0.59958 0.7863 0.80719 0.0
C259 C 0.63246 0.82814 0.8354 0.0
H260 H 0.57428 0.69618 0.78276 0.0
H261 H 0.5701 0.79956 0.7882 0.0
S262 S 0.73316 0.79741 0.90778 0.0
N263 N 0.70687 0.73271 0.8832 0.0
N264 N 0.70253 0.84419 0.88839 0.0
C265 C 0.66876 0.80789 0.86015 0.0
C266 C 0.67109 0.74699 0.85731 0.0
C267 C 0.86362 0.54667 0.13261 0.0
C268 C 0.90405 0.59431 0.12544 0.0
C269 C 0.80561 0.54633 0.12986 0.0
C270 C 0.78194 0.59394 0.12023 0.0
H271 H 0.87673 0.50794 0.13983 0.0
H272 H 0.7787 0.50686 0.13414 0.0
S273 S 0.86652 0.73008 0.09746 0.0
N274 N 0.91219 0.69112 0.10762 0.0
N275 N 0.80728 0.69016 0.10242 0.0
C276 C 0.82196 0.64164 0.11312 0.0
C277 C 0.88079 0.64207 0.11588 0.0
C278 C 0.30497 0.73791 0.45488 0.0
C279 C 0.29496 0.78854 0.47606 0.0
C280 C 0.26231 0.6927 0.4378 0.0
C281 C 0.20828 0.69635 0.44165 0.0
H282 H 0.34608 0.73338 0.45129 0.0
H283 H 0.27157 0.65473 0.42139 0.0
S284 S 0.16008 0.82053 0.4922 0.0
N285 N 0.22667 0.84038 0.49845 0.0
N286 N 0.14676 0.75491 0.46701 0.0
C287 C 0.19768 0.74641 0.46288 0.0
C288 C 0.24096 0.79258 0.47997 0.0
C289 C 0.575 0.28256 0.79991 0.0
C290 C 0.62344 0.32431 0.81098 0.0
C291 C 0.57422 0.22193 0.79576 0.0
C292 C 0.62158 0.19996 0.80316 0.0
H293 H 0.53743 0.29669 0.79334 0.0
H294 H 0.53643 0.19187 0.78543 0.0
S295 S 0.75895 0.28896 0.83354 0.0
N296 N 0.72036 0.33759 0.82995 0.0
N297 N 0.71807 0.22456 0.82218 0.0
C298 C 0.6699 0.24077 0.81507 0.0
C299 C 0.67101 0.30247 0.81904 0.0
C300 C 0.66306 0.816 0.49798 0.0
C301 C 0.6175 0.84191 0.50255 0.0
C302 C 0.65936 0.75484 0.49554 0.0
C303 C 0.60999 0.71677 0.49766 0.0
H304 H 0.70186 0.84303 0.49562 0.0
H305 H 0.69497 0.73705 0.49055 0.0
S306 S 0.47868 0.76067 0.51023 0.0
N307 N 0.52124 0.82278 0.50988 0.0
N308 N 0.51488 0.70944 0.50511 0.0
C309 C 0.56457 0.74201 0.50298 0.0
C310 C 0.56816 0.80391 0.50553 0.0
C311 C 1.03138 0.5156 0.81518 0.0
C312 C 0.98907 0.54269 0.80365 0.0
C313 C 1.08265 0.54917 0.82872 0.0
C314 C 0.09237 0.61028 0.83087 0.0
H315 H 1.02265 0.47034 0.81955 0.0
H316 H 0.11195 0.52845 0.84267 0.0
S317 S 1.00119 0.69714 0.78938 0.0
N318 N 0.96504 0.63011 0.78365 0.0
N319 N 1.06127 0.69337 0.80956 0.0
C320 C 1.05417 0.63534 0.81156 0.0
C321 C 1.00216 0.60111 0.79755 0.0
C322 C 0.36574 0.92364 0.2186 0.0
C323 C 0.35613 0.896 0.18089 0.0
C324 C 0.41644 0.95755 0.2334 0.0
C325 C 0.45976 0.96475 0.21117 0.0
H326 H 0.33346 0.91988 0.23665 0.0
H327 H 0.42134 0.97936 0.26231 0.0
S328 S 0.4565 0.8974 0.11151 0.0
N329 N 0.39439 0.87559 0.12203 0.0
N330 N 0.49027 0.93869 0.15001 0.0
C331 C 0.45093 0.93636 0.17356 0.0
C332 C 0.39902 0.90213 0.15839 0.0
C333 C 0.59226 0.24687 0.54711 0.0
C334 C 0.6217 0.22092 0.52056 0.0
C335 C 0.59308 0.30715 0.55201 0.0
C336 C 0.6233 0.34523 0.53064 0.0
H337 H 0.56916 0.22062 0.56512 0.0
H338 H 0.5705 0.32439 0.57355 0.0
S339 S 0.7015 0.29885 0.45353 0.0
N340 N 0.6779 0.2377 0.4698 0.0
N341 N 0.67967 0.35102 0.47928 0.0
C342 C 0.65072 0.31961 0.50256 0.0
C343 C 0.65008 0.25777 0.49761 0.0
C344 C 0.35623 0.7231 0.77386 0.0
C345 C 0.40263 0.71229 0.79378 0.0
C346 C 0.33118 0.76778 0.78862 0.0
C347 C 0.35148 0.80183 0.82392 0.0
H348 H 0.33563 0.69282 0.74941 0.0
H349 H 0.29169 0.76994 0.77529 0.0
S350 S 0.48099 0.80191 0.88014 0.0
N351 N 0.47555 0.74843 0.84469 0.0
N352 N 0.42719 0.83103 0.87322 0.0
C353 C 0.40269 0.79792 0.84032 0.0
C354 C 0.42848 0.75295 0.82512 0.0
C355 C 0.80251 0.32614 0.19009 0.0
C356 C 0.83988 0.29222 0.17845 0.0
C357 C 0.74943 0.30023 0.19459 0.0
C358 C 0.73136 0.23928 0.1876 0.0
H359 H 0.81373 0.37331 0.19451 0.0
H360 H 0.7219 0.32833 0.20285 0.0
S361 S 0.81433 0.13054 0.15935 0.0
N362 N 0.85624 0.19415 0.16268 0.0
N363 N 0.75582 0.14547 0.17004 0.0
C364 C 0.76879 0.20464 0.17731 0.0
C365 C 0.82307 0.23109 0.17285 0.0
C366 C 0.15019 0.57804 0.00977 0.0
C367 C 0.10956 0.5955 0.0302 0.0
C368 C 0.16711 0.60538 0.97917 0.0
C369 C 0.1445 0.65152 0.96826 0.0
H370 H 0.16838 0.54227 0.01697 0.0
H371 H 0.1967 0.58884 0.96293 0.0
S372 S 1.03771 0.71451 0.0125 0.0
N373 N 1.04767 0.66255 0.03753 0.0
N374 N 1.08013 0.71404 0.98001 0.0
C375 C 0.10499 0.6705 0.98893 0.0
C376 C 0.08734 0.64246 0.01993 0.0
C377 C 0.60345 0.99403 0.3777 0.0
C378 C 0.59517 0.0414 0.40283 0.0
C379 C 0.60167 0.99654 0.33864 0.0
C380 C 0.59275 0.04691 0.32374 0.0
H381 H 0.60767 0.95362 0.38787 0.0
H382 H 0.6047 0.95793 0.31976 0.0
S383 S 0.57636 0.1852 0.37902 0.0
N384 N 0.58325 0.14177 0.41098 0.0
N385 N 0.58051 0.14684 0.33793 0.0
C386 C 0.58869 0.09596 0.34916 0.0
C387 C 0.5897 0.09307 0.38865 0.0
C388 C 0.69964 0.50578 0.69648 0.0
C389 C 0.66089 0.5289 0.71587 0.0
C390 C 0.69447 0.49621 0.65685 0.0
C391 C 0.65063 0.50996 0.63532 0.0
H392 H 0.7333 0.49347 0.71205 0.0
H393 H 0.72429 0.47657 0.6429 0.0
S394 S 0.54152 0.57714 0.67331 0.0
N395 N 0.58003 0.56985 0.7113 0.0
N396 N 0.56953 0.5511 0.63665 0.0
C397 C 0.61298 0.53562 0.65458 0.0
C398 C 0.61824 0.54514 0.69496 0.0
C399 C 0.67523 1.01409 0.64483 0.0
C400 C 0.64289 0.03591 0.61839 0.0
C401 C 0.66674 1.01933 0.68326 0.0
C402 C 0.62544 0.04627 0.6964 0.0
H403 H 0.70851 0.99468 0.63607 0.0
H404 H 0.69417 1.00465 0.70304 0.0
S405 S 0.52508 0.10338 0.63791 0.0
N406 N 0.56507 0.08097 0.60773 0.0
N407 N 0.54839 0.08923 0.67941 0.0
C408 C 0.59089 0.06499 0.66985 0.0
C409 C 0.59982 0.06026 0.63098 0.0
C410 C 0.5938 0.58996 0.95137 0.0
C411 C 0.61383 0.5475 0.92869 0.0
C412 C 0.60592 0.5994 -0.009 0.0
C413 C 0.63843 0.56661 0.00948 0.0
H414 H 0.56869 0.61622 0.93843 0.0
H415 H 0.59001 0.63294 0.00727 0.0
S416 S 0.69899 0.44836 0.96304 0.0
N417 N 0.66725 0.4718 0.92775 0.0
N418 N 0.6886 0.48839 0.00186 0.0
C419 C 0.65834 0.52376 0.98704 0.0
C420 C 0.64641 0.5145 0.9468 0.0
C421 C 1.05569 0.61972 0.26574 0.0
C422 C 0.09404 0.60345 0.24261 0.0
C423 C 1.05988 0.61436 0.30428 0.0
C424 C 0.10306 0.59337 0.32117 0.0
H425 H 1.02287 0.63815 0.25417 0.0
H426 H 1.03066 0.62953 0.32137 0.0
S427 S 0.21204 0.5411 0.27266 0.0
N428 N 0.17458 0.56172 0.23886 0.0
N429 N 0.18319 0.55314 0.31171 0.0
C430 C 0.14055 0.57487 0.29815 0.0
C431 C 0.13579 0.57938 0.25871 0.0
loop_
_geom_bond_atom_site_label_1
_geom_bond_atom_site_label_2
_geom_bond_distance
_geom_bond_site_symmetry_2
_ccdc_geom_bond_type
Nd0 C2 2.836 . S
Nd0 O20 2.500 . S
Nd0 O21 2.492 . S
Nd0 O22 2.487 . S
Nd0 O23 2.682 . S
Nd0 O24 2.410 . S
Nd0 O29 2.414 . S
Nd0 O31 2.424 1_455 S
Nd1 C11 2.836 1_455 S
Nd1 O23 2.414 . S
Nd1 O25 2.424 . S
Nd1 O26 2.500 1_455 S
Nd1 O27 2.492 1_455 S
Nd1 O28 2.487 . S
Nd1 O29 2.682 . S
Nd1 O30 2.410 1_455 S
C2 Nd0 2.836 . S
C2 C3 1.498 . S
C2 O20 1.258 . S
C2 O21 1.239 . S
C3 C2 1.498 . S
C3 C4 1.366 . S
C3 C8 1.407 . S
C4 C3 1.366 . S
C4 C5 1.392 . S
C4 H32 0.930 . S
C5 C4 1.392 . S
C5 C6 1.398 . S
C5 H33 0.929 . S
C6 C5 1.398 . S
C6 C7 1.352 . S
C7 C6 1.352 . S
C7 C8 1.384 . S
C7 H34 0.930 . S
C8 C3 1.407 . S
C8 C7 1.384 . S
C8 H35 0.929 . S
C9 O22 1.241 . S
C9 O23 1.273 . S
C10 O24 1.251 . S
C10 O25 1.268 . S
C11 Nd1 2.836 1_655 S
C11 C12 1.498 . S
C11 O26 1.258 . S
C11 O27 1.239 . S
C12 C11 1.498 . S
C12 C13 1.366 . S
C12 C17 1.407 . S
C13 C12 1.366 . S
C13 C14 1.392 . S
C13 H36 0.930 . S
C14 C13 1.392 . S
C14 C15 1.398 . S
C14 H37 0.929 . S
C15 C14 1.398 . S
C15 C16 1.352 . S
C16 C15 1.352 . S
C16 C17 1.384 . S
C16 H38 0.930 . S
C17 C12 1.407 . S
C17 C16 1.384 . S
C17 H39 0.929 . S
C18 O28 1.241 . S
C18 O29 1.273 . S
C19 O30 1.251 . S
C19 O31 1.268 . S
O20 Nd0 2.500 . S
O20 C2 1.258 . S
O21 Nd0 2.492 . S
O21 C2 1.239 . S
O22 Nd0 2.487 . S
O22 C9 1.241 . S
O23 Nd0 2.682 . S
O23 Nd1 2.414 . S
O23 C9 1.273 . S
O24 Nd0 2.410 . S
O24 C10 1.251 . S
O25 Nd1 2.424 . S
O25 C10 1.268 . S
O26 Nd1 2.500 1_655 S
O26 C11 1.258 . S
O27 Nd1 2.492 1_655 S
O27 C11 1.239 . S
O28 Nd1 2.487 . S
O28 C18 1.241 . S
O29 Nd0 2.414 . S
O29 Nd1 2.682 . S
O29 C18 1.273 . S
O30 Nd1 2.410 1_655 S
O30 C19 1.251 . S
O31 Nd0 2.424 1_655 S
O31 C19 1.268 . S
H32 C4 0.930 . S
H33 C5 0.929 . S
H34 C7 0.930 . S
H35 C8 0.929 . S
H36 C13 0.930 . S
H37 C14 0.929 . S
H38 C16 0.930 . S
H39 C17 0.929 . S
Nd40 C42 2.836 1_545 S
Nd40 O60 2.500 1_545 S
Nd40 O61 2.492 1_545 S
Nd40 O62 2.487 . S
Nd40 O63 2.682 . S
Nd40 O64 2.410 1_545 S
Nd40 O69 2.414 . S
Nd40 O71 2.424 . S
Nd41 C51 2.836 . S
Nd41 O63 2.414 . S
Nd41 O65 2.424 1_545 S
Nd41 O66 2.500 . S
Nd41 O67 2.492 . S
Nd41 O68 2.487 . S
Nd41 O69 2.682 . S
Nd41 O70 2.410 . S
C42 Nd40 2.836 1_565 S
C42 C43 1.498 . S
C42 O60 1.258 . S
C42 O61 1.239 . S
C43 C42 1.498 . S
C43 C44 1.366 . S
C43 C48 1.407 . S
C44 C43 1.366 . S
C44 C45 1.392 . S
C44 H72 0.930 . S
C45 C44 1.392 . S
C45 C46 1.398 . S
C45 H73 0.929 . S
C46 C45 1.398 . S
C46 C47 1.352 . S
C47 C46 1.352 . S
C47 C48 1.384 . S
C47 H74 0.930 . S
C48 C43 1.407 . S
C48 C47 1.384 . S
C48 H75 0.929 . S
C49 O62 1.241 . S
C49 O63 1.273 . S
C50 O64 1.251 . S
C50 O65 1.268 . S
C51 Nd41 2.836 . S
C51 C52 1.498 . S
C51 O66 1.258 . S
C51 O67 1.239 . S
C52 C51 1.498 . S
C52 C53 1.366 . S
C52 C57 1.407 . S
C53 C52 1.366 . S
C53 C54 1.392 . S
C53 H76 0.930 . S
C54 C53 1.392 . S
C54 C55 1.398 . S
C54 H77 0.929 . S
C55 C54 1.398 . S
C55 C56 1.352 . S
C56 C55 1.352 . S
C56 C57 1.384 . S
C56 H78 0.930 . S
C57 C52 1.407 . S
C57 C56 1.384 . S
C57 H79 0.929 . S
C58 O68 1.241 . S
C58 O69 1.273 . S
C59 O70 1.251 . S
C59 O71 1.268 . S
O60 Nd40 2.500 1_565 S
O60 C42 1.258 . S
O61 Nd40 2.492 1_565 S
O61 C42 1.239 . S
O62 Nd40 2.487 . S
O62 C49 1.241 . S
O63 Nd40 2.682 . S
O63 Nd41 2.414 . S
O63 C49 1.273 . S
O64 Nd40 2.410 1_565 S
O64 C50 1.251 . S
O65 Nd41 2.424 1_565 S
O65 C50 1.268 . S
O66 Nd41 2.500 . S
O66 C51 1.258 . S
O67 Nd41 2.492 . S
O67 C51 1.239 . S
O68 Nd41 2.487 . S
O68 C58 1.241 . S
O69 Nd40 2.414 . S
O69 Nd41 2.682 . S
O69 C58 1.273 . S
O70 Nd41 2.410 . S
O70 C59 1.251 . S
O71 Nd40 2.424 . S
O71 C59 1.268 . S
H72 C44 0.930 . S
H73 C45 0.929 . S
H74 C47 0.930 . S
H75 C48 0.929 . S
H76 C53 0.930 . S
H77 C54 0.929 . S
H78 C56 0.930 . S
H79 C57 0.929 . S
Nd80 C82 2.836 . S
Nd80 O100 2.500 . S
Nd80 O101 2.492 . S
Nd80 O102 2.487 . S
Nd80 O103 2.682 . S
Nd80 O104 2.410 . S
Nd80 O109 2.414 . S
Nd80 O111 2.424 . S
Nd81 C91 2.836 . S
Nd81 O103 2.414 . S
Nd81 O105 2.424 . S
Nd81 O106 2.500 . S
Nd81 O107 2.492 . S
Nd81 O108 2.487 . S
Nd81 O109 2.682 . S
Nd81 O110 2.410 . S
C82 Nd80 2.836 . S
C82 C83 1.498 . S
C82 O100 1.258 . S
C82 O101 1.239 . S
C83 C82 1.498 . S
C83 C84 1.366 . S
C83 C88 1.407 . S
C84 C83 1.366 . S
C84 C85 1.392 . S
C84 H112 0.930 . S
C85 C84 1.392 . S
C85 C86 1.398 . S
C85 H113 0.929 . S
C86 C85 1.398 . S
C86 C87 1.352 . S
C87 C86 1.352 . S
C87 C88 1.384 . S
C87 H114 0.930 . S
C88 C83 1.407 . S
C88 C87 1.384 . S
C88 H115 0.929 . S
C89 O102 1.241 . S
C89 O103 1.273 . S
C90 O104 1.251 . S
C90 O105 1.268 . S
C91 Nd81 2.836 . S
C91 C92 1.498 . S
C91 O106 1.258 . S
C91 O107 1.239 . S
C92 C91 1.498 . S
C92 C93 1.366 . S
C92 C97 1.407 . S
C93 C92 1.366 . S
C93 C94 1.392 . S
C93 H116 0.930 . S
C94 C93 1.392 . S
C94 C95 1.398 . S
C94 H117 0.929 . S
C95 C94 1.398 . S
C95 C96 1.352 . S
C96 C95 1.352 . S
C96 C97 1.384 . S
C96 H118 0.930 . S
C97 C92 1.407 . S
C97 C96 1.384 . S
C97 H119 0.929 . S
C98 O108 1.241 . S
C98 O109 1.273 . S
C99 O110 1.251 . S
C99 O111 1.268 . S
O100 Nd80 2.500 . S
O100 C82 1.258 . S
O101 Nd80 2.492 . S
O101 C82 1.239 . S
O102 Nd80 2.487 . S
O102 C89 1.241 . S
O103 Nd80 2.682 . S
O103 Nd81 2.414 . S
O103 C89 1.273 . S
O104 Nd80 2.410 . S
O104 C90 1.251 . S
O105 Nd81 2.424 . S
O105 C90 1.268 . S
O106 Nd81 2.500 . S
O106 C91 1.258 . S
O107 Nd81 2.492 . S
O107 C91 1.239 . S
O108 Nd81 2.487 . S
O108 C98 1.241 . S
O109 Nd80 2.414 . S
O109 Nd81 2.682 . S
O109 C98 1.273 . S
O110 Nd81 2.410 . S
O110 C99 1.251 . S
O111 Nd80 2.424 . S
O111 C99 1.268 . S
H112 C84 0.930 . S
H113 C85 0.929 . S
H114 C87 0.930 . S
H115 C88 0.929 . S
H116 C93 0.930 . S
H117 C94 0.929 . S
H118 C96 0.930 . S
H119 C97 0.929 . S
H120 C121 0.949 . S
C121 H120 0.949 . S
C121 C122 1.395 . S
C121 C123 1.391 . S
C122 C121 1.395 . S
C122 C125 1.390 . S
C123 C121 1.391 . S
C123 C127 1.387 . S
C123 C128 1.491 . S
H124 C125 0.950 1_565 S
C125 C122 1.390 . S
C125 H124 0.950 1_545 S
C125 C126 1.378 1_545 S
C126 C125 1.378 1_565 S
C126 C127 1.409 1_565 S
C127 C123 1.387 . S
C127 C126 1.409 1_545 S
C127 H129 0.951 . S
C128 C123 1.491 . S
C128 C130 1.382 . S
C128 C132 1.404 . S
H129 C127 0.951 . S
C130 C128 1.382 . S
C130 C131 1.390 . S
C130 H135 0.949 . S
C131 C130 1.390 . S
C131 C136 1.399 . S
C132 C128 1.404 . S
C132 H133 0.950 . S
C132 C134 1.375 . S
H133 C132 0.950 . S
C134 C132 1.375 . S
C134 C136 1.382 . S
C134 H138 0.950 . S
H135 C130 0.949 . S
C136 C131 1.399 . S
C136 C134 1.382 . S
C136 H137 0.952 . S
H137 C136 0.952 . S
H138 C134 0.950 . S
H139 C140 0.949 . S
C140 H139 0.949 . S
C140 C141 1.395 . S
C140 C142 1.391 . S
C141 C140 1.395 . S
C141 C144 1.390 . S
C142 C140 1.391 . S
C142 C146 1.387 . S
C142 C147 1.491 . S
H143 C144 0.950 . S
C144 C141 1.390 . S
C144 H143 0.950 . S
C144 C145 1.378 . S
C145 C144 1.378 . S
C145 C146 1.409 . S
C146 C142 1.387 . S
C146 C145 1.409 . S
C146 H148 0.951 . S
C147 C142 1.491 . S
C147 C149 1.382 . S
C147 C151 1.404 . S
H148 C146 0.951 . S
C149 C147 1.382 . S
C149 C150 1.390 . S
C149 H154 0.949 . S
C150 C149 1.390 . S
C150 C155 1.399 . S
C151 C147 1.404 . S
C151 H152 0.950 . S
C151 C153 1.375 . S
H152 C151 0.950 . S
C153 C151 1.375 . S
C153 C155 1.382 . S
C153 H157 0.950 . S
H154 C149 0.949 . S
C155 C150 1.399 . S
C155 C153 1.382 . S
C155 H156 0.952 . S
H156 C155 0.952 . S
H157 C153 0.950 . S
H158 C159 0.949 . S
C159 H158 0.949 . S
C159 C160 1.395 . S
C159 C161 1.391 . S
C160 C159 1.395 . S
C160 C163 1.390 1_455 S
C161 C159 1.391 . S
C161 C165 1.387 . S
C161 C166 1.491 . S
H162 C163 0.950 . S
C163 C160 1.390 1_655 S
C163 H162 0.950 . S
C163 C164 1.378 . S
C164 C163 1.378 . S
C164 C165 1.409 1_655 S
C165 C161 1.387 . S
C165 C164 1.409 1_455 S
C165 H167 0.951 . S
C166 C161 1.491 . S
C166 C168 1.382 . S
C166 C170 1.404 . S
H167 C165 0.951 . S
C168 C166 1.382 . S
C168 C169 1.390 . S
C168 H173 0.949 . S
C169 C168 1.390 . S
C169 C174 1.399 . S
C170 C166 1.404 . S
C170 H171 0.950 . S
C170 C172 1.375 . S
H171 C170 0.950 . S
C172 C170 1.375 . S
C172 C174 1.382 . S
C172 H176 0.950 . S
H173 C168 0.949 . S
C174 C169 1.399 . S
C174 C172 1.382 . S
C174 H175 0.952 . S
H175 C174 0.952 . S
H176 C172 0.950 . S
H177 C178 0.938 1_655 S
C178 H177 0.938 1_455 S
C178 C179 1.406 . S
C178 C180 1.391 . S
C179 C178 1.406 . S
C179 C182 1.390 . S
C180 C178 1.391 . S
C180 C184 1.387 . S
C180 C185 1.491 1_455 S
H181 C182 0.950 . S
C182 C179 1.390 . S
C182 H181 0.950 . S
C182 C183 1.378 . S
C183 C182 1.378 . S
C183 C184 1.409 . S
C184 C180 1.387 . S
C184 C183 1.409 . S
C184 H186 0.951 . S
C185 C180 1.491 1_655 S
C185 C187 1.382 . S
C185 C189 1.404 . S
H186 C184 0.951 . S
C187 C185 1.382 . S
C187 C188 1.390 . S
C187 H192 0.949 . S
C188 C187 1.390 . S
C188 C193 1.399 . S
C189 C185 1.404 . S
C189 H190 0.950 . S
C189 C191 1.375 . S
H190 C189 0.950 . S
C191 C189 1.375 . S
C191 C193 1.382 . S
C191 H195 0.950 . S
H192 C187 0.949 . S
C193 C188 1.399 . S
C193 C191 1.382 . S
C193 H194 0.952 . S
H194 C193 0.952 . S
H195 C191 0.950 . S
H196 C197 0.949 1_565 S
C197 H196 0.949 1_545 S
C197 C198 1.395 . S
C197 C199 1.391 . S
C198 C197 1.395 . S
C198 C201 1.390 . S
C199 C197 1.391 . S
C199 C203 1.387 . S
C199 C204 1.491 1_545 S
H200 C201 0.950 . S
C201 C198 1.390 . S
C201 H200 0.950 . S
C201 C202 1.378 . S
C202 C201 1.378 . S
C202 C203 1.409 . S
C203 C199 1.387 . S
C203 C202 1.409 . S
C203 H205 0.951 . S
C204 C199 1.491 1_565 S
C204 C206 1.382 . S
C204 C208 1.404 . S
H205 C203 0.951 . S
C206 C204 1.382 . S
C206 C207 1.390 . S
C206 H211 0.949 . S
C207 C206 1.390 . S
C207 C212 1.399 . S
C208 C204 1.404 . S
C208 H209 0.950 1_565 S
C208 C210 1.375 . S
H209 C208 0.950 1_545 S
C210 C208 1.375 . S
C210 C212 1.382 . S
C210 H214 0.950 . S
H211 C206 0.949 . S
C212 C207 1.399 . S
C212 C210 1.382 . S
C212 H213 0.952 . S
H213 C212 0.952 . S
H214 C210 0.950 . S
H215 C216 0.949 . S
C216 H215 0.949 . S
C216 C217 1.395 . S
C216 C218 1.391 . S
C217 C216 1.395 . S
C217 C220 1.390 . S
C218 C216 1.391 . S
C218 C222 1.387 . S
C218 C223 1.491 . S
H219 C220 0.950 . S
C220 C217 1.390 . S
C220 H219 0.950 . S
C220 C221 1.378 . S
C221 C220 1.378 . S
C221 C222 1.409 . S
C222 C218 1.387 . S
C222 C221 1.409 . S
C222 H224 0.951 . S
C223 C218 1.491 . S
C223 C225 1.382 . S
C223 C227 1.404 . S
H224 C222 0.951 . S
C225 C223 1.382 . S
C225 C226 1.390 . S
C225 H230 0.949 . S
C226 C225 1.390 . S
C226 C231 1.399 . S
C227 C223 1.404 . S
C227 H228 0.950 . S
C227 C229 1.375 . S
H228 C227 0.950 . S
C229 C227 1.375 . S
C229 C231 1.382 . S
C229 H233 0.950 . S
H230 C225 0.949 . S
C231 C226 1.399 . S
C231 C229 1.382 . S
C231 H232 0.952 . S
H232 C231 0.952 . S
H233 C229 0.950 . S
C234 C235 1.369 . S
C234 C236 1.419 . S
C234 H238 0.930 . S
C235 C234 1.369 . S
C235 C244 1.429 . S
C236 C234 1.419 . S
C236 C237 1.363 . S
C236 H239 0.929 . S
C237 C236 1.363 . S
C237 C243 1.428 . S
H238 C234 0.930 . S
H239 C236 0.929 . S
S240 N241 1.613 . S
S240 N242 1.610 . S
N241 S240 1.613 . S
N241 C244 1.350 . S
N242 S240 1.610 . S
N242 C243 1.351 . S
C243 C237 1.428 . S
C243 N242 1.351 . S
C243 C244 1.434 . S
C244 C235 1.429 . S
C244 N241 1.350 . S
C244 C243 1.434 . S
C245 C246 1.369 . S
C245 C247 1.419 . S
C245 H249 0.930 . S
C246 C245 1.369 . S
C246 C255 1.429 . S
C247 C245 1.419 . S
C247 C248 1.363 . S
C247 H250 0.929 . S
C248 C247 1.363 . S
C248 C254 1.428 . S
H249 C245 0.930 . S
H250 C247 0.929 . S
S251 N252 1.613 . S
S251 N253 1.610 . S
N252 S251 1.613 . S
N252 C255 1.350 . S
N253 S251 1.610 . S
N253 C254 1.351 . S
C254 C248 1.428 . S
C254 N253 1.351 . S
C254 C255 1.434 . S
C255 C246 1.429 . S
C255 N252 1.350 . S
C255 C254 1.434 . S
C256 C257 1.369 . S
C256 C258 1.419 . S
C256 H260 0.930 . S
C257 C256 1.369 . S
C257 C266 1.429 . S
C258 C256 1.419 . S
C258 C259 1.363 . S
C258 H261 0.929 . S
C259 C258 1.363 . S
C259 C265 1.428 . S
H260 C256 0.930 . S
H261 C258 0.929 . S
S262 N263 1.613 . S
S262 N264 1.610 . S
N263 S262 1.613 . S
N263 C266 1.350 . S
N264 S262 1.610 . S
N264 C265 1.351 . S
C265 C259 1.428 . S
C265 N264 1.351 . S
C265 C266 1.434 . S
C266 C257 1.429 . S
C266 N263 1.350 . S
C266 C265 1.434 . S
C267 C268 1.369 . S
C267 C269 1.419 . S
C267 H271 0.930 . S
C268 C267 1.369 . S
C268 C277 1.429 . S
C269 C267 1.419 . S
C269 C270 1.363 . S
C269 H272 0.929 . S
C270 C269 1.363 . S
C270 C276 1.428 . S
H271 C267 0.930 . S
H272 C269 0.929 . S
S273 N274 1.613 . S
S273 N275 1.610 . S
N274 S273 1.613 . S
N274 C277 1.350 . S
N275 S273 1.610 . S
N275 C276 1.351 . S
C276 C270 1.428 . S
C276 N275 1.351 . S
C276 C277 1.434 . S
C277 C268 1.429 . S
C277 N274 1.350 . S
C277 C276 1.434 . S
C278 C279 1.369 . S
C278 C280 1.419 . S
C278 H282 0.930 . S
C279 C278 1.369 . S
C279 C288 1.429 . S
C280 C278 1.419 . S
C280 C281 1.363 . S
C280 H283 0.929 . S
C281 C280 1.363 . S
C281 C287 1.428 . S
H282 C278 0.930 . S
H283 C280 0.929 . S
S284 N285 1.613 . S
S284 N286 1.610 . S
N285 S284 1.613 . S
N285 C288 1.350 . S
N286 S284 1.610 . S
N286 C287 1.351 . S
C287 C281 1.428 . S
C287 N286 1.351 . S
C287 C288 1.434 . S
C288 C279 1.429 . S
C288 N285 1.350 . S
C288 C287 1.434 . S
C289 C290 1.369 . S
C289 C291 1.419 . S
C289 H293 0.930 . S
C290 C289 1.369 . S
C290 C299 1.429 . S
C291 C289 1.419 . S
C291 C292 1.363 . S
C291 H294 0.929 . S
C292 C291 1.363 . S
C292 C298 1.428 . S
H293 C289 0.930 . S
H294 C291 0.929 . S
S295 N296 1.613 . S
S295 N297 1.610 . S
N296 S295 1.613 . S
N296 C299 1.350 . S
N297 S295 1.610 . S
N297 C298 1.351 . S
C298 C292 1.428 . S
C298 N297 1.351 . S
C298 C299 1.434 . S
C299 C290 1.429 . S
C299 N296 1.350 . S
C299 C298 1.434 . S
C300 C301 1.369 . S
C300 C302 1.419 . S
C300 H304 0.930 . S
C301 C300 1.369 . S
C301 C310 1.429 . S
C302 C300 1.419 . S
C302 C303 1.363 . S
C302 H305 0.929 . S
C303 C302 1.363 . S
C303 C309 1.428 . S
H304 C300 0.930 . S
H305 C302 0.929 . S
S306 N307 1.613 . S
S306 N308 1.610 . S
N307 S306 1.613 . S
N307 C310 1.350 . S
N308 S306 1.610 . S
N308 C309 1.351 . S
C309 C303 1.428 . S
C309 N308 1.351 . S
C309 C310 1.434 . S
C310 C301 1.429 . S
C310 N307 1.350 . S
C310 C309 1.434 . S
C311 C312 1.369 . S
C311 C313 1.419 . S
C311 H315 0.930 . S
C312 C311 1.369 . S
C312 C321 1.429 . S
C313 C311 1.419 . S
C313 C314 1.363 . S
C313 H316 0.929 . S
C314 C313 1.363 . S
C314 C320 1.428 . S
H315 C311 0.930 . S
H316 C313 0.929 . S
S317 N318 1.613 . S
S317 N319 1.610 . S
N318 S317 1.613 . S
N318 C321 1.350 . S
N319 S317 1.610 . S
N319 C320 1.351 . S
C320 C314 1.428 . S
C320 N319 1.351 . S
C320 C321 1.434 . S
C321 C312 1.429 . S
C321 N318 1.350 . S
C321 C320 1.434 . S
C322 C323 1.369 . S
C322 C324 1.419 . S
C322 H326 0.930 . S
C323 C322 1.369 . S
C323 C332 1.429 . S
C324 C322 1.419 . S
C324 C325 1.363 . S
C324 H327 0.929 . S
C325 C324 1.363 . S
C325 C331 1.428 . S
H326 C322 0.930 . S
H327 C324 0.929 . S
S328 N329 1.613 . S
S328 N330 1.610 . S
N329 S328 1.613 . S
N329 C332 1.350 . S
N330 S328 1.610 . S
N330 C331 1.351 . S
C331 C325 1.428 . S
C331 N330 1.351 . S
C331 C332 1.434 . S
C332 C323 1.429 . S
C332 N329 1.350 . S
C332 C331 1.434 . S
C333 C334 1.369 . S
C333 C335 1.419 . S
C333 H337 0.930 . S
C334 C333 1.369 . S
C334 C343 1.429 . S
C335 C333 1.419 . S
C335 C336 1.363 . S
C335 H338 0.929 . S
C336 C335 1.363 . S
C336 C342 1.428 . S
H337 C333 0.930 . S
H338 C335 0.929 . S
S339 N340 1.613 . S
S339 N341 1.610 . S
N340 S339 1.613 . S
N340 C343 1.350 . S
N341 S339 1.610 . S
N341 C342 1.351 . S
C342 C336 1.428 . S
C342 N341 1.351 . S
C342 C343 1.434 . S
C343 C334 1.429 . S
C343 N340 1.350 . S
C343 C342 1.434 . S
C344 C345 1.369 . S
C344 C346 1.419 . S
C344 H348 0.930 . S
C345 C344 1.369 . S
C345 C354 1.429 . S
C346 C344 1.419 . S
C346 C347 1.363 . S
C346 H349 0.929 . S
C347 C346 1.363 . S
C347 C353 1.428 . S
H348 C344 0.930 . S
H349 C346 0.929 . S
S350 N351 1.613 . S
S350 N352 1.610 . S
N351 S350 1.613 . S
N351 C354 1.350 . S
N352 S350 1.610 . S
N352 C353 1.351 . S
C353 C347 1.428 . S
C353 N352 1.351 . S
C353 C354 1.434 . S
C354 C345 1.429 . S
C354 N351 1.350 . S
C354 C353 1.434 . S
C355 C356 1.369 . S
C355 C357 1.419 . S
C355 H359 0.930 . S
C356 C355 1.369 . S
C356 C365 1.429 . S
C357 C355 1.419 . S
C357 C358 1.363 . S
C357 H360 0.929 . S
C358 C357 1.363 . S
C358 C364 1.428 . S
H359 C355 0.930 . S
H360 C357 0.929 . S
S361 N362 1.613 . S
S361 N363 1.610 . S
N362 S361 1.613 . S
N362 C365 1.350 . S
N363 S361 1.610 . S
N363 C364 1.351 . S
C364 C358 1.428 . S
C364 N363 1.351 . S
C364 C365 1.434 . S
C365 C356 1.429 . S
C365 N362 1.350 . S
C365 C364 1.434 . S
C366 C367 1.369 1_655 S
C366 C368 1.419 1_554 S
C366 H370 0.930 . S
C367 C366 1.369 1_455 S
C367 C376 1.429 . S
C368 C366 1.419 1_556 S
C368 C369 1.363 1_655 S
C368 H371 0.929 . S
C369 C368 1.363 1_455 S
C369 C375 1.428 . S
H370 C366 0.930 . S
H371 C368 0.929 . S
S372 N373 1.613 . S
S372 N374 1.610 1_554 S
N373 S372 1.613 . S
N373 C376 1.350 . S
N374 S372 1.610 1_556 S
N374 C375 1.351 . S
C375 C369 1.428 . S
C375 N374 1.351 . S
C375 C376 1.434 1_556 S
C376 C367 1.429 . S
C376 N373 1.350 . S
C376 C375 1.434 1_554 S
C377 C378 1.369 . S
C377 C379 1.419 . S
C377 H381 0.930 . S
C378 C377 1.369 . S
C378 C387 1.429 . S
C379 C377 1.419 . S
C379 C380 1.363 . S
C379 H382 0.929 . S
C380 C379 1.363 . S
C380 C386 1.428 . S
H381 C377 0.930 . S
H382 C379 0.929 . S
S383 N384 1.613 . S
S383 N385 1.610 . S
N384 S383 1.613 . S
N384 C387 1.350 . S
N385 S383 1.610 . S
N385 C386 1.351 . S
C386 C380 1.428 . S
C386 N385 1.351 . S
C386 C387 1.434 . S
C387 C378 1.429 . S
C387 N384 1.350 . S
C387 C386 1.434 . S
C388 C389 1.369 . S
C388 C390 1.419 . S
C388 H392 0.930 . S
C389 C388 1.369 . S
C389 C398 1.429 . S
C390 C388 1.419 . S
C390 C391 1.363 . S
C390 H393 0.929 . S
C391 C390 1.363 . S
C391 C397 1.428 . S
H392 C388 0.930 . S
H393 C390 0.929 . S
S394 N395 1.613 . S
S394 N396 1.610 . S
N395 S394 1.613 . S
N395 C398 1.350 . S
N396 S394 1.610 . S
N396 C397 1.351 . S
C397 C391 1.428 . S
C397 N396 1.351 . S
C397 C398 1.434 . S
C398 C389 1.429 . S
C398 N395 1.350 . S
C398 C397 1.434 . S
C399 C400 1.369 . S
C399 C401 1.419 . S
C399 H403 0.930 . S
C400 C399 1.369 . S
C400 C409 1.429 . S
C401 C399 1.419 . S
C401 C402 1.363 . S
C401 H404 0.929 . S
C402 C401 1.363 . S
C402 C408 1.428 . S
H403 C399 0.930 . S
H404 C401 0.929 . S
S405 N406 1.613 . S
S405 N407 1.610 . S
N406 S405 1.613 . S
N406 C409 1.350 . S
N407 S405 1.610 . S
N407 C408 1.351 . S
C408 C402 1.428 . S
C408 N407 1.351 . S
C408 C409 1.434 . S
C409 C400 1.429 . S
C409 N406 1.350 . S
C409 C408 1.434 . S
C410 C411 1.369 . S
C410 C412 1.443 . S
C410 H414 0.930 . S
C411 C410 1.369 . S
C411 C420 1.429 . S
C412 C410 1.443 . S
C412 C413 1.346 1_556 S
C412 H415 0.922 1_556 S
C413 C412 1.346 1_554 S
C413 C419 1.428 . S
H414 C410 0.930 . S
H415 C412 0.922 1_554 S
S416 N417 1.618 . S
S416 N418 1.607 1_556 S
N417 S416 1.618 . S
N417 C420 1.350 . S
N418 S416 1.607 1_554 S
N418 C419 1.351 . S
C419 C413 1.428 . S
C419 N418 1.351 . S
C419 C420 1.434 1_554 S
C420 C411 1.429 . S
C420 N417 1.350 . S
C420 C419 1.434 1_556 S
C421 C422 1.369 . S
C421 C423 1.419 . S
C421 H425 0.930 . S
C422 C421 1.369 . S
C422 C431 1.429 . S
C423 C421 1.419 . S
C423 C424 1.363 . S
C423 H426 0.929 . S
C424 C423 1.363 . S
C424 C430 1.428 . S
H425 C421 0.930 . S
H426 C423 0.929 . S
S427 N428 1.613 . S
S427 N429 1.610 . S
N428 S427 1.613 . S
N428 C431 1.350 . S
N429 S427 1.610 . S
N429 C430 1.351 . S
C430 C424 1.428 . S
C430 N429 1.351 . S
C430 C431 1.434 . S
C431 C422 1.429 . S
C431 N428 1.350 . S
C431 C430 1.434 . S
C235 C10 3.226 . S
C237 C226 3.157 . S
C246 C55 1.349 . S
C248 C188 1.260 . S
C257 C90 2.012 . S
C259 C207 1.979 . S
C268 C19 3.037 . S
C270 C221 3.008 . S
C281 C183 1.160 . S
C279 C46 1.156 . S
C292 C202 1.965 . S
C290 C99 1.965 . S
C301 C50 2.009 . S
C303 C150 1.959 . S
C312 C95 0.722 . S
C314 C164 0.735 . S
C323 C6 1.219 . S
C325 C126 1.214 . S
C336 C145 1.890 . S
C334 C59 1.934 . S
C347 C169 0.762 . S
C345 C86 0.756 . S
C356 C15 1.358 . S
C358 C131 1.291 . S
C369 C160 1.278 . S
C367 C18 1.229 . S
C378 C49 1.562 . S
C380 C122 1.546 . S
C389 C98 1.496 . S
C391 C141 1.503 . S
C402 C198 1.510 . S
C400 C58 1.444 . S
C413 C217 1.793 . S
C411 C89 1.703 . S
C422 C9 1.575 . S
C424 C179 1.565 . S
